drugbank_target|Q13555 Calcium/calmodulin-dependent protein kinase type II subunit gamma (DB06616; DB08699; DB12010)
 OpenBabel12092120523D

  0  0  0     0  0            999 V3000
M  V30 BEGIN CTAB
M  V30 COUNTS 8766 8864 0 0 0
M  V30 BEGIN ATOM
M  V30 1 H -0.908 1.98254 -0.117106 0
M  V30 2 N 0 1.576 0 0
M  V30 3 C 0.933 2.03868 1.02534 0
M  V30 4 C 1.911 0.928543 1.3348 0
M  V30 5 O 3.095 1.19667 1.45644 0
M  V30 6 C 0.222 2.43627 2.35294 0
M  V30 7 C -0.732 3.65373 2.2001 0
M  V30 8 S 0.101 5.13292 1.52614 0
M  V30 9 C 1.257 5.56322 2.86805 0
M  V30 10 H 1.49 2.90518 0.631377 0
M  V30 11 H -0.977 1.52953 0.210867 0
M  V30 12 H 0.981 2.67203 3.11629 0
M  V30 13 H -0.358 1.57376 2.7183 0
M  V30 14 H -1.165 3.90944 3.18086 0
M  V30 15 H -1.563 3.418 1.51819 0
M  V30 16 H 0.729 5.58782 3.83104 0
M  V30 17 H 1.672 6.56266 2.65933 0
M  V30 18 H 2.08 4.83886 2.90714 0
M  V30 19 N 1.4781 -0.272755 1.55222 0
M  V30 20 C 2.4411 -1.32041 1.87344 0
M  V30 21 C 3.4411 -1.42342 0.74803 0
M  V30 22 O 4.6311 -1.41488 1.0162 0
M  V30 23 C 1.7631 -2.70173 2.07893 0
M  V30 24 H 2.9561 -1.04789 2.80997 0
M  V30 25 H 0.5091 -0.51083 1.47717 0
M  V30 26 H 1.2441 -3.02605 1.16622 0
M  V30 27 H 1.0291 -2.64082 2.89833 0
M  V30 28 H 2.5191 -3.45869 2.34017 0
M  V30 29 N 2.9562 -1.48159 -0.537278 0
M  V30 30 C 4.1842 -1.59454 -1.31841 0
M  V30 31 C 4.5992 -0.252065 -1.8711 0
M  V30 32 O 3.9562 0.757621 -1.66031 0
M  V30 33 C 4.0072 -2.63546 -2.47439 0
M  V30 34 O 3.7282 -3.92583 -1.94449 0
M  V30 35 C 5.2292 -2.85212 -3.39366 0
M  V30 36 H 2.4492 -0.53785 -0.401196 0
M  V30 37 H 4.9932 -1.93932 -0.648891 0
M  V30 38 H 3.1482 -2.31946 -3.1029 0
M  V30 39 H 3.5622 -4.49629 -2.70063 0
M  V30 40 H 5.0362 -3.61863 -4.16844 0
M  V30 41 H 5.5132 -1.93765 -3.94147 0
M  V30 42 H 6.1192 -3.18086 -2.82314 0
M  V30 43 N 4.4343 0.785586 -1.36625 0
M  V30 44 C 5.6623 1.57448 -1.3423 0
M  V30 45 C 6.0773 1.88649 0.0755653 0
M  V30 46 O 5.4343 1.50414 1.03354 0
M  V30 47 C 5.4853 2.89316 -2.16745 0
M  V30 48 O 5.2063 2.59459 -3.53005 0
M  V30 49 C 6.7073 3.83606 -2.22174 0
M  V30 50 H 3.9273 0.488226 -0.4603 0
M  V30 51 H 6.4713 0.974733 -1.79775 0
M  V30 52 H 4.6263 3.4575 -1.74745 0
M  V30 53 H 5.0403 3.43804 -3.96105 0
M  V30 54 H 6.5143 4.73181 -2.8426 0
M  V30 55 H 6.9913 4.21734 -1.22627 0
M  V30 56 H 7.5973 3.33104 -2.64427 0
M  V30 57 N 5.9124 1.20967 1.01018 0
M  V30 58 C 6.8754 0.965918 2.07853 0
M  V30 59 C 7.8754 -0.0610545 1.60684 0
M  V30 60 O 9.0654 0.175681 1.73312 0
M  V30 61 C 6.1974 0.455513 3.37843 0
M  V30 62 H 7.3904 1.91365 2.3091 0
M  V30 63 H 4.9434 1.02594 1.17916 0
M  V30 64 H 5.6784 -0.497381 3.20463 0
M  V30 65 H 5.4634 1.19622 3.73407 0
M  V30 66 H 6.9534 0.304667 4.16487 0
M  V30 67 N 7.3905 -1.2043 1.01659 0
M  V30 68 C 8.6185 -1.93777 0.725132 0
M  V30 69 C 9.0335 -1.74772 -0.714166 0
M  V30 70 O 8.3905 -1.06169 -1.4844 0
M  V30 71 C 8.4415 -3.45876 1.05129 0
M  V30 72 O 8.1625 -3.6426 2.43406 0
M  V30 73 C 9.6635 -4.36368 0.780891 0
M  V30 74 H 6.8835 -0.615901 0.266284 0
M  V30 75 H 9.4275 -1.52922 1.35776 0
M  V30 76 H 7.5825 -3.8461 0.464065 0
M  V30 77 H 7.9965 -4.58246 2.55169 0
M  V30 78 H 9.4705 -5.41743 1.05918 0
M  V30 79 H 9.9475 -4.38275 -0.284937 0
M  V30 80 H 10.5535 -4.03296 1.35027 0
M  V30 81 N 8.8686 -0.792821 -1.36206 0
M  V30 82 C 10.1086 -0.372238 -2.00982 0
M  V30 83 C 10.4726 1.03749 -1.61555 0
M  V30 84 O 11.6736 1.55934 -2.18948 0
M  V30 85 C 9.9446 -0.534566 -3.5338 0
M  V30 86 S 11.5036 -0.202365 -4.38333 0
M  V30 87 H 8.3216 -0.142044 -0.696667 0
M  V30 88 H 10.9236 -1.03206 -1.66039 0
M  V30 89 H 9.6276 -1.5608 -3.79562 0
M  V30 90 H 9.1586 0.141065 -3.93147 0
M  V30 91 H 11.1736 0.994869 -4.86124 0
M  V30 92 N 10.3467 1.47872 -0.545128 0
M  V30 93 C 11.5747 2.06889 -0.021084 0
M  V30 94 C 11.9897 1.39955 1.2672 0
M  V30 95 O 11.3467 0.492036 1.75742 0
M  V30 96 C 11.3977 3.60996 0.190817 0
M  V30 97 O 11.1187 4.25419 -1.04644 0
M  V30 98 C 12.6197 4.36849 0.753521 0
M  V30 99 H 9.8397 0.669785 -0.0403635 0
M  V30 100 H 12.3837 1.90049 -0.755095 0
M  V30 101 H 10.5387 3.77391 0.87492 0
M  V30 102 H 10.9527 5.17785 -0.836611 0
M  V30 103 H 12.4267 5.45399 0.851139 0
M  V30 104 H 12.9037 4.02306 1.762 0
M  V30 105 H 13.5097 4.25169 0.105503 0
M  V30 106 N 11.8248 0.280983 1.55075 0
M  V30 107 C 13.2408 -0.0729964 1.59433 0
M  V30 108 C 13.4408 -1.5411 1.29817 0
M  V30 109 O 12.4968 -2.29086 1.06187 0
M  V30 110 C 13.8098 0.306921 2.9913 0
M  V30 111 C 15.3578 0.254023 3.11968 0
M  V30 112 C 15.8328 0.608467 4.5394 0
M  V30 113 N 17.3238 0.560241 4.59799 0
M  V30 114 C 18.0588 0.80722 5.6769 0
M  V30 115 N 17.5548 1.11912 6.83701 0
M  V30 116 N 19.3478 0.735623 5.57266 0
M  V30 117 H 11.4988 1.238 1.7259 0
M  V30 118 H 13.7618 0.500547 0.805082 0
M  V30 119 H 13.4678 1.32816 3.25657 0
M  V30 120 H 13.3418 -0.349363 3.75579 0
M  V30 121 H 15.7288 -0.75794 2.852 0
M  V30 122 H 15.8098 0.944649 2.37718 0
M  V30 123 H 15.4538 1.61814 4.81434 0
M  V30 124 H 15.3838 -0.104013 5.26497 0
M  V30 125 H 17.8748 0.329288 3.76463 0
M  V30 126 H 18.1878 1.29409 7.61888 0
M  V30 127 H 16.5328 1.15695 6.85303 0
M  V30 128 H 19.7238 0.491752 4.6551 0
M  V30 129 H 19.8968 0.931482 6.4127 0
M  V30 130 N 13.3029 -1.57598 0.00835791 0
M  V30 131 C 14.5499 -1.90928 -0.674732 0
M  V30 132 C 14.8779 -0.88277 -1.73313 0
M  V30 133 O 14.1329 0.111294 -1.95383 0
M  V30 134 C 14.4319 -3.3101 -1.34787 0
M  V30 135 C 14.0979 -4.48922 -0.421861 0
M  V30 136 C 12.7599 -4.8091 -0.166927 0
M  V30 137 C 15.1119 -5.20755 0.215211 0
M  V30 138 C 12.4399 -5.821 0.733232 0
M  V30 139 C 14.7919 -6.22905 1.1033 0
M  V30 140 C 13.4559 -6.53346 1.36733 0
M  V30 141 H 12.7259 -0.698656 -0.246902 0
M  V30 142 H 15.3729 -1.91387 0.0656779 0
M  V30 143 H 13.6779 -3.26714 -2.16253 0
M  V30 144 H 15.3749 -3.54061 -1.8826 0
M  V30 145 H 11.9649 -4.23934 -0.630729 0
M  V30 146 H 16.1489 -4.9629 0.0312829 0
M  V30 147 H 11.4049 -6.04042 0.945712 0
M  V30 148 H 15.5789 -6.77694 1.60325 0
M  V30 149 H 13.2059 -7.31573 2.06652 0
M  V30 150 N 14.781 0.264519 -1.55364 0
M  V30 151 C 16.009 1.013 -1.80405 0
M  V30 152 C 16.424 1.79618 -0.581622 0
M  V30 153 O 15.781 1.76879 0.449468 0
M  V30 154 C 15.832 1.96487 -3.03439 0
M  V30 155 O 15.553 1.21341 -4.20961 0
M  V30 156 C 17.054 2.83079 -3.41147 0
M  V30 157 H 14.274 0.298875 -0.600762 0
M  V30 158 H 16.818 0.292736 -2.02394 0
M  V30 159 H 14.973 2.63965 -2.83551 0
M  V30 160 H 15.387 1.85573 -4.90574 0
M  V30 161 H 16.861 3.4565 -4.30384 0
M  V30 162 H 17.338 3.53286 -2.60932 0
M  V30 163 H 17.944 2.2108 -3.63323 0
M  V30 164 N 16.2591 1.48442 0.529413 0
M  V30 165 C 17.5361 1.46978 1.29062 0
M  V30 166 C 17.9161 0.181769 2.10316 0
M  V30 167 O 17.2641 -0.836481 2.12639 0
M  V30 168 C 17.4741 2.7321 2.17157 0
M  V30 169 C 18.8221 3.21562 2.77278 0
M  V30 170 O 19.8461 2.74131 2.27444 0
M  V30 171 O 18.7051 4.04094 3.67927 0
M  V30 172 H 15.7991 0.587003 0.582543 0
M  V30 173 H 18.3451 1.60676 0.546021 0
M  V30 174 H 17.1171 3.58465 1.56903 0
M  V30 175 H 16.7401 2.62235 2.98862 0
M  V30 176 N 17.7372 -0.778329 1.37039 0
M  V30 177 C 19.0142 -1.52551 1.22424 0
M  V30 178 C 19.3942 -2.10288 -0.184964 0
M  V30 179 O 18.7422 -1.94953 -1.19187 0
M  V30 180 C 18.9522 -2.61164 2.31504 0
M  V30 181 C 20.3002 -3.28746 2.68721 0
M  V30 182 O 21.3242 -2.71455 2.30631 0
M  V30 183 O 20.1832 -4.3231 3.3432 0
M  V30 184 H 17.2772 -0.675343 0.477326 0
M  V30 185 H 19.8232 -0.815859 1.48801 0
M  V30 186 H 18.5952 -2.16574 3.25901 0
M  V30 187 H 18.2182 -3.39737 2.06554 0
M  V30 188 N 19.2153 -1.21501 -1.00376 0
M  V30 189 C 20.4453 -1.05746 -1.77486 0
M  V30 190 C 20.8533 0.395655 -1.85017 0
M  V30 191 O 20.1963 1.28626 -1.31152 0
M  V30 192 C 20.2583 -1.58092 -3.22873 0
M  V30 193 C 19.9223 -3.06568 -3.38917 0
M  V30 194 C 20.9193 -4.04106 -3.271 0
M  V30 195 C 18.6043 -3.45799 -3.64319 0
M  V30 196 C 20.5983 -5.38862 -3.40451 0
M  V30 197 C 18.2853 -4.80707 -3.77311 0
M  V30 198 C 19.2833 -5.77047 -3.65384 0
M  V30 199 O 18.9713 -7.09507 -3.77961 0
M  V30 200 H 18.7033 -0.371778 -0.564586 0
M  V30 201 H 21.2573 -1.61319 -1.27143 0
M  V30 202 H 19.4873 -0.969163 -3.74358 0
M  V30 203 H 21.1763 -1.38162 -3.81662 0
M  V30 204 H 21.9423 -3.75141 -3.07399 0
M  V30 205 H 17.8213 -2.71344 -3.72684 0
M  V30 206 H 21.3653 -6.14041 -3.31058 0
M  V30 207 H 17.2623 -5.09357 -3.96517 0
M  V30 208 H 18.0303 -7.16935 -3.94901 0
M  V30 209 N 20.6934 1.19889 -1.02296 0
M  V30 210 C 21.6254 2.22334 -0.556787 0
M  V30 211 C 22.6384 1.58674 0.364199 0
M  V30 212 O 23.8274 1.77768 0.161533 0
M  V30 213 C 20.9274 3.38257 0.208694 0
M  V30 214 C 20.1004 4.31504 -0.71577 0
M  V30 215 C 19.1594 5.262 0.00325597 0
M  V30 216 O 18.1854 5.65798 -0.621357 0
M  V30 217 N 19.3874 5.66303 1.27599 0
M  V30 218 H 22.1524 2.62957 -1.43784 0
M  V30 219 H 19.7134 1.34495 -0.901261 0
M  V30 220 H 21.7054 3.98616 0.699111 0
M  V30 221 H 20.2754 2.96472 0.991102 0
M  V30 222 H 19.4954 3.69016 -1.38638 0
M  V30 223 H 20.7834 4.9072 -1.34428 0
M  V30 224 H 20.1814 5.36155 1.80429 0
M  V30 225 H 18.7384 6.28942 1.71102 0
M  V30 226 N 22.1715 0.800033 1.35784 0
M  V30 227 C 23.1015 0.220184 2.3246 0
M  V30 228 C 24.0825 -0.65073 1.57161 0
M  V30 229 O 25.2675 -0.582359 1.85263 0
M  V30 230 C 22.3975 -0.637353 3.41402 0
M  V30 231 C 21.3515 0.134531 4.27789 0
M  V30 232 C 20.6775 -0.844285 5.27992 0
M  V30 233 C 21.9775 1.32979 5.05088 0
M  V30 234 H 23.6715 1.02787 2.81203 0
M  V30 235 H 21.2175 0.495717 1.35199 0
M  V30 236 H 23.1705 -1.05302 4.08031 0
M  V30 237 H 21.8945 -1.47785 2.91251 0
M  V30 238 H 20.5535 0.531296 3.6273 0
M  V30 239 H 20.2015 -1.68011 4.74111 0
M  V30 240 H 19.9015 -0.332184 5.8666 0
M  V30 241 H 21.4255 -1.2583 5.97494 0
M  V30 242 H 22.8395 0.98934 5.64699 0
M  V30 243 H 21.2365 1.77593 5.7322 0
M  V30 244 H 22.3065 2.11978 4.36111 0
M  V30 245 N 23.6496 -1.47581 0.552962 0
M  V30 246 C 24.8966 -2.02482 0.0273243 0
M  V30 247 C 25.2246 -1.42776 -1.32081 0
M  V30 248 O 24.4796 -0.571393 -1.87173 0
M  V30 249 C 24.7786 -3.57199 -0.119728 0
M  V30 250 C 24.4446 -4.35804 1.15697 0
M  V30 251 C 23.1066 -4.57 1.50681 0
M  V30 252 C 25.4586 -4.81167 2.00319 0
M  V30 253 C 22.7866 -5.20807 2.70142 0
M  V30 254 C 25.1386 -5.46293 3.18978 0
M  V30 255 C 23.8026 -5.65722 3.54281 0
M  V30 256 H 23.0726 -0.740933 0.00999866 0
M  V30 257 H 25.7196 -1.77302 0.72362 0
M  V30 258 H 24.0246 -3.81348 -0.89896 0
M  V30 259 H 25.7216 -3.97324 -0.541718 0
M  V30 260 H 22.3116 -4.19582 0.874561 0
M  V30 261 H 26.4956 -4.64574 1.74599 0
M  V30 262 H 21.7516 -5.34045 2.97668 0
M  V30 263 H 25.9256 -5.80407 3.84838 0
M  V30 264 H 23.5526 -6.14936 4.46942 0
M  V30 265 N 25.1277 -0.289203 -1.54924 0
M  V30 266 C 26.0377 0.601863 -2.26748 0
M  V30 267 C 27.0537 1.15834 -1.2984 0
M  V30 268 O 28.2297 1.18564 -1.62802 0
M  V30 269 C 25.2947 1.76299 -2.98529 0
M  V30 270 C 24.3557 1.24178 -4.10948 0
M  V30 271 C 23.5887 2.34757 -4.79296 0
M  V30 272 O 23.8117 3.54411 -4.46933 0
M  V30 273 O 22.7457 2.02115 -5.66951 0
M  V30 274 H 26.5717 0.0195879 -3.03694 0
M  V30 275 H 24.1567 -0.0560868 -1.49295 0
M  V30 276 H 26.0387 2.43973 -3.43592 0
M  V30 277 H 24.7137 2.33209 -2.24488 0
M  V30 278 H 23.6207 0.531104 -3.70311 0
M  V30 279 H 24.9537 0.718252 -4.86931 0
M  V30 280 N 26.6058 1.57591 -0.0167156 0
M  V30 281 C 27.5158 2.1291 0.98521 0
M  V30 282 C 28.5318 1.07834 1.36557 0
M  V30 283 O 29.7078 1.39826 1.44951 0
M  V30 284 C 26.7728 2.63512 2.25305 0
M  V30 285 C 25.8338 3.83256 1.93426 0
M  V30 286 C 25.0668 4.31435 3.14165 0
M  V30 287 O 25.2898 3.78851 4.26413 0
M  V30 288 O 24.2238 5.23416 2.97186 0
M  V30 289 H 28.0498 2.98772 0.544888 0
M  V30 290 H 25.6348 1.48012 0.203141 0
M  V30 291 H 27.5168 2.96183 2.99756 0
M  V30 292 H 26.1918 1.8074 2.68542 0
M  V30 293 H 25.0988 3.55531 1.16398 0
M  V30 294 H 26.4318 4.67153 1.55013 0
M  V30 295 N 28.0839 -0.256276 1.55502 0
M  V30 296 C 29.0139 -1.32102 1.92539 0
M  V30 297 C 29.9949 -1.50684 0.789194 0
M  V30 298 O 31.1799 -1.63449 1.04872 0
M  V30 299 C 28.3099 -2.67752 2.21192 0
M  V30 300 C 27.2639 -2.63878 3.36975 0
M  V30 301 C 26.5899 -4.03236 3.51147 0
M  V30 302 C 27.8899 -2.21682 4.72921 0
M  V30 303 H 29.5839 -1.01351 2.81724 0
M  V30 304 H 27.1299 -0.486105 1.35547 0
M  V30 305 H 29.0829 -3.42365 2.45691 0
M  V30 306 H 27.8069 -3.0012 1.28824 0
M  V30 307 H 26.4659 -1.91722 3.12471 0
M  V30 308 H 26.1139 -4.32854 2.56216 0
M  V30 309 H 25.8139 -4.01535 4.29003 0
M  V30 310 H 27.3379 -4.79563 3.77957 0
M  V30 311 H 28.7519 -2.86023 4.96854 0
M  V30 312 H 27.1489 -2.3111 5.53812 0
M  V30 313 H 28.2189 -1.16833 4.70615 0
M  V30 314 N 29.562 -1.4872 -0.521534 0
M  V30 315 C 30.81 -1.56857 -1.27437 0
M  V30 316 C 31.131 -0.247982 -1.93417 0
M  V30 317 O 30.401 0.731151 -1.81744 0
M  V30 318 H 28.981 -0.577885 -0.473347 0
M  V30 319 H 31.643 -1.85233 -0.606205 0
M  V30 320 H 30.739 -2.35402 -2.0492 0
M  V30 321 N 31.0401 0.771051 -1.3745 0
M  V30 322 C 31.9871 1.88435 -1.3327 0
M  V30 323 C 32.9571 1.64914 -0.198136 0
M  V30 324 O 34.1421 1.86821 -0.387606 0
M  V30 325 C 31.2821 3.25509 -1.14622 0
M  V30 326 C 30.3951 3.60979 -2.37314 0
M  V30 327 C 29.5301 4.87265 -2.11533 0
M  V30 328 C 28.5691 5.15469 -3.30088 0
M  V30 329 N 27.7061 6.32944 -3.03853 0
M  V30 330 H 32.5461 1.91344 -2.28455 0
M  V30 331 H 30.0831 0.935466 -1.13523 0
M  V30 332 H 32.0411 4.04582 -1.01831 0
M  V30 333 H 30.6711 3.21974 -0.230837 0
M  V30 334 H 29.7231 2.76885 -2.60842 0
M  V30 335 H 31.0351 3.77759 -3.25729 0
M  V30 336 H 30.1891 5.74244 -1.95777 0
M  V30 337 H 28.9281 4.7259 -1.20457 0
M  V30 338 H 27.9331 4.26966 -3.46382 0
M  V30 339 H 29.1581 5.32052 -4.22016 0
M  V30 340 H 27.1041 6.19625 -2.15407 0
M  V30 341 H 27.0211 6.50143 -3.85812 0
M  V30 342 H 28.2891 7.22857 -2.91716 0
M  V30 343 N 32.5182 1.22032 0.997298 0
M  V30 344 C 33.7662 1.04016 1.73278 0
M  V30 345 C 34.0872 -0.426255 1.90284 0
M  V30 346 O 33.3572 -1.30694 1.45931 0
M  V30 347 H 31.9372 0.381897 0.642 0
M  V30 348 H 34.5992 1.5347 1.20137 0
M  V30 349 H 33.6952 1.51441 2.72896 0
M  V30 350 N 33.9963 -1.19345 1.0293 0
M  V30 351 C 34.9593 -2.20793 0.615069 0
M  V30 352 C 35.9593 -1.57553 -0.321533 0
M  V30 353 O 37.1493 -1.73862 -0.108483 0
M  V30 354 C 34.2813 -3.40754 -0.0999222 0
M  V30 355 H 35.4743 -2.58955 1.51269 0
M  V30 356 H 33.0273 -1.3303 0.820534 0
M  V30 357 H 33.7623 -3.0811 -1.01187 0
M  V30 358 H 33.5473 -3.87889 0.57309 0
M  V30 359 H 35.0373 -4.15898 -0.376645 0
M  V30 360 N 35.4744 -0.807222 -1.35358 0
M  V30 361 C 36.7214 -0.387888 -1.9875 0
M  V30 362 C 37.0494 1.04509 -1.64037 0
M  V30 363 O 36.3044 1.73986 -0.895946 0
M  V30 364 C 36.6034 -0.519036 -3.53611 0
M  V30 365 C 36.2694 -1.91542 -4.08194 0
M  V30 366 C 34.9314 -2.29745 -4.22813 0
M  V30 367 C 37.2834 -2.82896 -4.37744 0
M  V30 368 C 34.6114 -3.58668 -4.643 0
M  V30 369 C 36.9634 -4.11265 -4.8067 0
M  V30 370 C 35.6274 -4.49466 -4.93494 0
M  V30 371 H 34.8974 -0.141938 -0.727279 0
M  V30 372 H 37.5444 -1.02814 -1.6156 0
M  V30 373 H 35.8494 0.204658 -3.91265 0
M  V30 374 H 37.5464 -0.175345 -4.00616 0
M  V30 375 H 34.1364 -1.60862 -3.97268 0
M  V30 376 H 38.3204 -2.54629 -4.26002 0
M  V30 377 H 33.5764 -3.88113 -4.72418 0
M  V30 378 H 37.7504 -4.82153 -5.02496 0
M  V30 379 H 35.3774 -5.49418 -5.25399 0
M  V30 380 N 36.9525 1.47285 -0.560781 0
M  V30 381 C 38.1775 2.07359 -0.0410566 0
M  V30 382 C 38.6025 1.41017 1.24483 0
M  V30 383 O 37.9605 0.486368 1.74654 0
M  V30 384 C 38.0085 3.6035 0.134123 0
M  V30 385 O 37.1125 3.94681 1.19587 0
M  V30 386 H 36.4535 0.661887 -0.0529291 0
M  V30 387 H 38.9835 1.89252 -0.777482 0
M  V30 388 H 38.9935 4.0652 0.347207 0
M  V30 389 H 37.6685 4.08034 -0.805047 0
M  V30 390 H 36.2455 3.60251 0.962987 0
M  V30 391 N 38.4306 0.297415 1.54768 0
M  V30 392 C 39.6766 -0.313376 2.00364 0
M  V30 393 C 40.0096 -1.53815 1.18553 0
M  V30 394 O 39.2846 -1.92739 0.261103 0
M  V30 395 C 39.5676 -0.673525 3.53745 0
M  V30 396 C 39.4206 0.560133 4.46299 0
M  V30 397 C 40.7396 -1.50143 4.13697 0
M  V30 398 H 37.8586 -0.112428 0.728374 0
M  V30 399 H 40.5006 0.4088 1.8555 0
M  V30 400 H 38.6506 -1.28881 3.665 0
M  V30 401 H 40.3226 1.19863 4.45455 0
M  V30 402 H 38.5656 1.19405 4.17043 0
M  V30 403 H 39.2366 0.26405 5.51368 0
M  V30 404 H 41.7126 -0.981588 4.04356 0
M  V30 405 H 40.5886 -1.72221 5.21182 0
M  V30 406 H 40.8496 -2.48952 3.65343 0
M  V30 407 N 39.9087 -1.5758 0.0250728 0
M  V30 408 C 41.1547 -1.91917 -0.655413 0
M  V30 409 C 41.4877 -0.901433 -1.72011 0
M  V30 410 O 40.7627 0.0764069 -1.9435 0
M  V30 411 C 41.0457 -3.36751 -1.27558 0
M  V30 412 C 40.8987 -4.49258 -0.220719 0
M  V30 413 C 42.2177 -3.81469 -2.19475 0
M  V30 414 H 39.3367 -0.697925 -0.23679 0
M  V30 415 H 41.9787 -1.89825 0.0815036 0
M  V30 416 H 40.1287 -3.38664 -1.90365 0
M  V30 417 H 41.8007 -4.59478 0.409601 0
M  V30 418 H 40.0437 -4.31415 0.454264 0
M  V30 419 H 40.7147 -5.47618 -0.694175 0
M  V30 420 H 43.1907 -3.81266 -1.66659 0
M  V30 421 H 42.0667 -4.83512 -2.59822 0
M  V30 422 H 42.3277 -3.16744 -3.08424 0
M  V30 423 N 41.3868 0.248026 -1.55636 0
M  V30 424 C 42.8028 0.596483 -1.48035 0
M  V30 425 C 43.0028 1.88386 -0.715039 0
M  V30 426 O 42.0588 2.51319 -0.243944 0
M  V30 427 C 43.3718 0.700258 -2.92433 0
M  V30 428 C 44.9198 0.792659 -3.02797 0
M  V30 429 C 45.3948 0.928005 -4.485 0
M  V30 430 N 46.8858 0.992903 -4.52433 0
M  V30 431 C 47.6208 1.11687 -5.62418 0
M  V30 432 N 47.1168 1.20645 -6.82214 0
M  V30 433 N 48.9098 1.14994 -5.50212 0
M  V30 434 H 41.0608 -0.597109 -2.03834 0
M  V30 435 H 43.3238 -0.205925 -0.925364 0
M  V30 436 H 43.0298 -0.175658 -3.51261 0
M  V30 437 H 42.9038 1.57255 -3.42857 0
M  V30 438 H 45.2908 1.65903 -2.4405 0
M  V30 439 H 45.3718 -0.104762 -2.55585 0
M  V30 440 H 45.0158 0.0661971 -5.07857 0
M  V30 441 H 44.9458 1.84045 -4.93391 0
M  V30 442 H 47.4368 0.935064 -3.66149 0
M  V30 443 H 47.7498 1.30008 -7.61786 0
M  V30 444 H 46.0948 1.17605 -6.84977 0
M  V30 445 H 49.2858 1.07643 -4.55555 0
M  V30 446 H 49.4588 1.24311 -6.35965 0
M  V30 447 N 42.8649 1.48995 0.513639 0
M  V30 448 C 44.2809 1.35478 0.843682 0
M  V30 449 C 44.4809 0.378213 1.97919 0
M  V30 450 O 43.5369 -0.194689 2.51748 0
M  V30 451 C 44.8499 2.75901 1.1958 0
M  V30 452 C 46.3979 2.84509 1.30474 0
M  V30 453 C 46.8729 4.25671 1.69021 0
M  V30 454 N 48.3639 4.28422 1.76094 0
M  V30 455 C 49.0989 5.34601 2.07338 0
M  V30 456 N 48.5949 6.5104 2.36894 0
M  V30 457 N 50.3879 5.22007 2.08483 0
M  V30 458 H 42.5389 2.11092 -0.235328 0
M  V30 459 H 44.8019 0.947039 -0.0426669 0
M  V30 460 H 44.5079 3.49001 0.434913 0
M  V30 461 H 44.3819 3.10467 2.1422 0
M  V30 462 H 46.7689 2.11655 2.05637 0
M  V30 463 H 46.8499 2.53542 0.339155 0
M  V30 464 H 46.4939 4.99048 0.944135 0
M  V30 465 H 46.4239 4.54094 2.66658 0
M  V30 466 H 48.9149 3.44441 1.55464 0
M  V30 467 H 49.2279 7.2779 2.59887 0
M  V30 468 H 47.5729 6.54287 2.34378 0
M  V30 469 H 50.7639 4.30051 1.84861 0
M  V30 470 H 50.9369 6.04854 2.325 0
M  V30 471 N 44.343 -0.763751 1.37857 0
M  V30 472 C 45.583 -1.53551 1.34913 0
M  V30 473 C 45.947 -1.91895 -0.0635882 0
M  V30 474 O 47.148 -2.67916 -0.217825 0
M  V30 475 C 45.419 -2.76126 2.26912 0
M  V30 476 S 46.978 -3.66105 2.41893 0
M  V30 477 H 43.796 -0.52559 0.478828 0
M  V30 478 H 46.398 -0.897435 1.73685 0
M  V30 479 H 45.102 -2.4605 3.28463 0
M  V30 480 H 44.633 -3.44887 1.89253 0
M  V30 481 H 46.648 -4.68473 1.63545 0
M  V30 482 N 45.8211 -1.22559 -0.990812 0
M  V30 483 C 47.0671 -1.05297 -1.73322 0
M  V30 484 C 47.4001 0.410655 -1.89808 0
M  V30 485 O 46.6751 1.30439 -1.44277 0
M  V30 486 C 46.9581 -1.76713 -3.13759 0
M  V30 487 C 46.8111 -3.30684 -3.04907 0
M  V30 488 C 48.1301 -1.52121 -4.12974 0
M  V30 489 H 45.2491 -0.38392 -0.629106 0
M  V30 490 H 47.8911 -1.50926 -1.15418 0
M  V30 491 H 46.0411 -1.37924 -3.63193 0
M  V30 492 H 47.7131 -3.7893 -2.63077 0
M  V30 493 H 45.9561 -3.60253 -2.41661 0
M  V30 494 H 46.6271 -3.75833 -4.04294 0
M  V30 495 H 49.1031 -1.85819 -3.72304 0
M  V30 496 H 47.9791 -2.04582 -5.0935 0
M  V30 497 H 48.2401 -0.454257 -4.3976 0
M  V30 498 N 47.2992 1.18797 -1.03562 0
M  V30 499 C 48.2462 2.22253 -0.622259 0
M  V30 500 C 49.2162 1.61987 0.36736 0
M  V30 501 O 50.4012 1.88986 0.262492 0
M  V30 502 C 47.5412 3.45097 0.0138462 0
M  V30 503 C 46.6542 4.19722 -1.02263 0
M  V30 504 C 45.7892 5.30009 -0.355573 0
M  V30 505 C 44.8282 5.96399 -1.37749 0
M  V30 506 N 43.9652 6.98234 -0.735766 0
M  V30 507 H 48.8052 2.56968 -1.50903 0
M  V30 508 H 46.3422 1.26245 -0.755017 0
M  V30 509 H 48.3002 4.15279 0.399948 0
M  V30 510 H 46.9302 3.11018 0.864158 0
M  V30 511 H 45.9822 3.48418 -1.52673 0
M  V30 512 H 47.2942 4.65227 -1.79903 0
M  V30 513 H 46.4482 6.0664 0.0850095 0
M  V30 514 H 45.1872 4.85592 0.452967 0
M  V30 515 H 44.1922 5.18512 -1.82826 0
M  V30 516 H 45.4172 6.42899 -2.18764 0
M  V30 517 H 43.3632 6.55979 0.0525597 0
M  V30 518 H 43.2802 7.41965 -1.44995 0
M  V30 519 H 44.5482 7.78845 -0.31941 0
M  V30 520 N 48.7773 0.814389 1.34928 0
M  V30 521 C 49.7243 0.22822 2.29669 0
M  V30 522 C 50.6943 -0.642164 1.53184 0
M  V30 523 O 51.8793 -0.585605 1.81591 0
M  V30 524 C 49.0193 -0.61089 3.3965 0
M  V30 525 C 48.1323 0.280792 4.31086 0
M  V30 526 C 47.2673 -0.567067 5.28165 0
M  V30 527 C 46.3063 0.324531 6.11239 0
M  V30 528 N 45.4433 -0.483756 7.00431 0
M  V30 529 H 50.2833 1.04153 2.79206 0
M  V30 530 H 47.8203 0.525133 1.37407 0
M  V30 531 H 49.7783 -1.11263 4.0209 0
M  V30 532 H 48.4083 -1.38939 2.91369 0
M  V30 533 H 47.4603 0.900688 3.69583 0
M  V30 534 H 48.7723 0.966723 4.89342 0
M  V30 535 H 47.9263 -1.13363 5.96015 0
M  V30 536 H 46.6653 -1.28654 4.70425 0
M  V30 537 H 45.6703 0.903298 5.42329 0
M  V30 538 H 46.8953 1.04198 6.71059 0
M  V30 539 H 44.8413 -1.18706 6.45171 0
M  V30 540 H 44.7583 0.143965 7.55863 0
M  V30 541 H 46.0263 -1.03334 7.7262 0
M  V30 542 N 50.2554 -1.46986 0.568584 0
M  V30 543 C 51.4834 -2.0683 0.0539956 0
M  V30 544 C 51.8984 -1.41953 -1.24478 0
M  V30 545 O 51.2554 -0.519933 -1.74937 0
M  V30 546 C 51.3064 -3.61254 -0.133362 0
M  V30 547 O 51.0274 -4.237 1.11399 0
M  V30 548 C 52.5284 -4.37992 -0.683927 0
M  V30 549 H 49.7484 -0.669058 0.0510141 0
M  V30 550 H 52.2924 -1.88824 0.785234 0
M  V30 551 H 50.4474 -3.78735 -0.81477 0
M  V30 552 H 50.8614 -5.16388 0.91888 0
M  V30 553 H 52.3354 -5.46684 -0.764263 0
M  V30 554 H 52.8124 -4.05058 -1.69778 0
M  V30 555 H 53.4184 -4.25283 -0.0378494 0
M  V30 556 N 51.7335 -0.305618 -1.54608 0
M  V30 557 C 52.9585 0.307562 -2.05107 0
M  V30 558 C 53.3835 1.46385 -1.18123 0
M  V30 559 O 52.7415 1.8034 -0.186324 0
M  V30 560 C 52.7895 0.73704 -3.52987 0
M  V30 561 O 51.8935 1.84134 -3.6901 0
M  V30 562 H 51.2345 0.0589143 -0.661381 0
M  V30 563 H 53.7645 -0.448807 -1.99617 0
M  V30 564 H 53.7745 1.02459 -3.94925 0
M  V30 565 H 52.4495 -0.108773 -4.15758 0
M  V30 566 H 51.0265 1.55398 -3.38978 0
M  V30 567 N 53.2116 1.57565 -0.0334293 0
M  V30 568 C 54.4396 1.9628 0.654347 0
M  V30 569 C 54.8546 0.910138 1.65414 0
M  V30 570 O 54.2116 -0.107595 1.82183 0
M  V30 571 C 54.2626 3.35067 1.35693 0
M  V30 572 O 53.9836 4.36296 0.397191 0
M  V30 573 C 55.4846 3.88439 2.13613 0
M  V30 574 H 52.7046 0.646369 0.180132 0
M  V30 575 H 55.2486 2.04282 -0.0944721 0
M  V30 576 H 53.4036 3.2827 2.05712 0
M  V30 577 H 53.8176 5.1678 0.896597 0
M  V30 578 H 55.2916 4.8788 2.58219 0
M  V30 579 H 55.7686 3.22914 2.97696 0
M  V30 580 H 56.3746 3.98516 1.48543 0
M  V30 581 N 54.6897 -0.239769 1.55765 0
M  V30 582 C 55.6217 -1.32001 1.87372 0
M  V30 583 C 56.6347 -1.43944 0.760522 0
M  V30 584 O 57.8237 -1.45167 1.0387 0
M  V30 585 C 54.9237 -2.69779 2.05115 0
M  V30 586 C 54.0967 -2.80014 3.36022 0
M  V30 587 C 53.1557 -3.98684 3.4342 0
M  V30 588 O 52.1817 -3.87877 4.16582 0
M  V30 589 N 53.3837 -5.12176 2.73232 0
M  V30 590 H 56.1487 -1.0522 2.80622 0
M  V30 591 H 53.7097 -0.429857 1.56089 0
M  V30 592 H 55.7017 -3.47517 2.07399 0
M  V30 593 H 54.2717 -2.89237 1.18577 0
M  V30 594 H 53.4917 -1.88896 3.45994 0
M  V30 595 H 54.7797 -2.83808 4.22292 0
M  V30 596 H 54.1777 -5.2385 2.13536 0
M  V30 597 H 52.7347 -5.88022 2.81199 0
M  V30 598 N 56.1678 -1.49265 -0.50573 0
M  V30 599 C 57.0778 -1.68312 -1.63427 0
M  V30 600 C 58.0938 -0.565682 -1.64548 0
M  V30 601 O 59.2698 -0.839801 -1.83055 0
M  V30 602 C 56.3348 -1.74107 -2.99813 0
M  V30 603 C 55.3958 -2.97653 -3.09356 0
M  V30 604 C 54.6288 -3.03163 -4.39236 0
M  V30 605 O 54.8518 -2.16396 -5.27758 0
M  V30 606 O 53.7858 -3.9558 -4.53652 0
M  V30 607 H 57.6118 -2.63907 -1.50289 0
M  V30 608 H 55.1968 -1.32951 -0.681502 0
M  V30 609 H 57.0788 -1.803 -3.80881 0
M  V30 610 H 55.7538 -0.816901 -3.13223 0
M  V30 611 H 54.6608 -2.96981 -2.27493 0
M  V30 612 H 55.9938 -3.89535 -3.00871 0
M  V30 613 N 57.6459 0.756429 -1.3826 0
M  V30 614 C 58.8759 1.54341 -1.3734 0
M  V30 615 C 59.2839 1.89159 0.0393917 0
M  V30 616 O 58.6269 1.5307 1.01565 0
M  V30 617 C 58.6889 2.87238 -2.16182 0
M  V30 618 C 58.3529 2.74973 -3.65019 0
M  V30 619 C 59.3499 2.44962 -4.58574 0
M  V30 620 C 57.0349 2.92515 -4.08338 0
M  V30 621 C 59.0289 2.32642 -5.93428 0
M  V30 622 C 56.7159 2.79815 -5.43274 0
M  V30 623 C 57.7139 2.49921 -6.35632 0
M  V30 624 O 57.4019 2.37275 -7.68086 0
M  V30 625 H 57.1339 0.484281 -0.471643 0
M  V30 626 H 59.6879 0.944152 -1.82414 0
M  V30 627 H 57.9179 3.49342 -1.65822 0
M  V30 628 H 59.6069 3.48731 -2.07705 0
M  V30 629 H 60.3729 2.31081 -4.26412 0
M  V30 630 H 56.2519 3.14781 -3.368 0
M  V30 631 H 59.7959 2.0923 -6.65484 0
M  V30 632 H 55.6929 2.93269 -5.75034 0
M  V30 633 H 56.4609 2.52509 -7.78577 0
M  V30 634 N 59.124 1.23083 0.984299 0
M  V30 635 C 60.087 1.00979 2.05757 0
M  V30 636 C 61.087 -0.0269573 1.60777 0
M  V30 637 O 62.277 0.212403 1.729 0
M  V30 638 C 59.409 0.527072 3.36801 0
M  V30 639 H 60.602 1.9622 2.26799 0
M  V30 640 H 58.155 1.05072 1.15714 0
M  V30 641 H 58.89 -0.429294 3.21446 0
M  V30 642 H 58.675 1.27515 3.70786 0
M  V30 643 H 60.165 0.392942 4.15747 0
M  V30 644 N 60.6021 -1.18246 1.0419 0
M  V30 645 C 61.5651 -2.20128 0.638452 0
M  V30 646 C 62.5651 -1.57885 -0.304805 0
M  V30 647 O 63.7551 -1.73967 -0.0900369 0
M  V30 648 C 60.8871 -3.4084 -0.0637751 0
M  V30 649 H 62.0801 -2.57336 1.54007 0
M  V30 650 H 59.6331 -1.32152 0.834598 0
M  V30 651 H 60.3681 -3.09166 -0.979136 0
M  V30 652 H 60.1531 -3.8726 0.614198 0
M  V30 653 H 61.6431 -4.16274 -0.332512 0
M  V30 654 N 62.0802 -0.821533 -1.34494 0
M  V30 655 C 63.0272 -0.240397 -2.29545 0
M  V30 656 C 63.9972 0.634031 -1.53523 0
M  V30 657 O 65.1822 0.575966 -1.81899 0
M  V30 658 C 62.3222 0.592869 -3.39969 0
M  V30 659 C 61.4352 -0.30365 -4.30932 0
M  V30 660 C 60.5702 0.539049 -5.28458 0
M  V30 661 C 59.6092 -0.356942 -6.11058 0
M  V30 662 N 58.7462 0.446603 -7.00678 0
M  V30 663 H 63.5862 -1.05632 -2.7865 0
M  V30 664 H 61.1232 -0.532413 -1.37127 0
M  V30 665 H 63.0812 1.09129 -4.02675 0
M  V30 666 H 61.7112 1.37392 -2.92102 0
M  V30 667 H 60.7632 -0.920276 -3.691 0
M  V30 668 H 62.0752 -0.992661 -4.88823 0
M  V30 669 H 61.2292 1.102 -5.96608 0
M  V30 670 H 59.9682 1.26157 -4.71101 0
M  V30 671 H 58.9732 -0.932047 -5.41842 0
M  V30 672 H 60.1982 -1.07755 -6.70497 0
M  V30 673 H 58.1442 1.15282 -6.45791 0
M  V30 674 H 58.0612 -0.184048 -7.55776 0
M  V30 675 H 59.3292 0.992352 -7.73158 0
M  V30 676 N 63.5583 1.46682 -0.576371 0
M  V30 677 C 64.8073 2.01619 -0.0572825 0
M  V30 678 C 65.1203 1.45417 1.30818 0
M  V30 679 O 66.3263 1.92133 1.91825 0
M  V30 680 C 64.7823 3.59863 -0.0518371 0
M  V30 681 C 64.3903 4.25059 -1.41523 0
M  V30 682 C 66.1343 4.2248 0.413639 0
M  V30 683 C 64.0413 5.75364 -1.36785 0
M  V30 684 H 62.9713 0.753794 -0.0176448 0
M  V30 685 H 65.6223 1.68481 -0.727076 0
M  V30 686 H 64.0043 3.90048 0.683994 0
M  V30 687 H 65.1783 4.06491 -2.17029 0
M  V30 688 H 63.4933 3.7451 -1.8202 0
M  V30 689 H 66.0903 5.3265 0.467779 0
M  V30 690 H 66.4333 3.90976 1.42982 0
M  V30 691 H 66.9663 3.96897 -0.267929 0
M  V30 692 H 63.7053 6.11518 -2.36063 0
M  V30 693 H 63.2253 5.96214 -0.654895 0
M  V30 694 H 64.9043 6.37955 -1.07805 0
M  V30 695 N 65.0364 0.313813 1.54444 0
M  V30 696 C 66.2854 -0.292519 1.99568 0
M  V30 697 C 66.5984 -1.54011 1.20582 0
M  V30 698 O 67.8044 -2.22183 1.56035 0
M  V30 699 C 66.2604 -0.571752 3.55329 0
M  V30 700 C 65.8684 0.658229 4.43138 0
M  V30 701 C 67.6124 -1.13857 4.08946 0
M  V30 702 C 65.5194 0.351439 5.90355 0
M  V30 703 H 64.4494 -0.113079 0.745472 0
M  V30 704 H 67.1004 0.424518 1.78522 0
M  V30 705 H 65.4824 -1.34872 3.72325 0
M  V30 706 H 66.6564 1.43403 4.37918 0
M  V30 707 H 64.9714 1.14458 4.0036 0
M  V30 708 H 67.5684 -1.38257 5.16516 0
M  V30 709 H 67.9114 -2.08489 3.6033 0
M  V30 710 H 68.4444 -0.423015 3.95544 0
M  V30 711 H 65.1834 1.26667 6.43145 0
M  V30 712 H 64.7034 -0.386842 5.98551 0
M  V30 713 H 66.3824 -0.0423134 6.46986 0
M  V30 714 N 66.5145 -1.57545 0.0417849 0
M  V30 715 C 67.4625 -2.12148 -0.953723 0
M  V30 716 C 68.4565 -1.05104 -1.32852 0
M  V30 717 O 69.6625 -1.23524 -1.30927 0
M  V30 718 H 66.0375 -0.677957 -0.325389 0
M  V30 719 H 68.0085 -2.94707 -0.467991 0
M  V30 720 C 66.7575 -2.6739 -2.22257 0
M  V30 721 H 66.0805 -3.49413 -1.94295 0
M  V30 722 H 67.5205 -3.09227 -2.90094 0
M  V30 723 C 65.9795 -1.60723 -2.96091 0
M  V30 724 O 66.5095 -1.01449 -3.88679 0
M  V30 725 N 64.7155 -1.32466 -2.58652 0
M  V30 726 H 64.2625 -1.80856 -1.83437 0
M  V30 727 H 64.2205 -0.61325 -3.08361 0
M  V30 728 N 67.9926 0.231505 -1.5589 0
M  V30 729 C 69.2206 0.974505 -1.82513 0
M  V30 730 C 69.6356 1.78344 -0.619591 0
M  V30 731 O 68.9926 1.77792 0.411848 0
M  V30 732 C 69.0436 1.90007 -3.07538 0
M  V30 733 O 68.7646 1.12385 -4.2344 0
M  V30 734 C 70.2656 2.75779 -3.47075 0
M  V30 735 H 67.4856 0.286065 -0.606966 0
M  V30 736 H 70.0296 0.249739 -2.02969 0
M  V30 737 H 68.1846 2.57891 -2.89086 0
M  V30 738 H 68.5986 1.75125 -4.944 0
M  V30 739 H 70.0726 3.36443 -4.37619 0
M  V30 740 H 70.5496 3.47672 -2.68367 0
M  V30 741 H 71.1556 2.13323 -3.67931 0
M  V30 742 N 69.4707 1.49531 0.497807 0
M  V30 743 C 70.4177 1.66436 1.59899 0
M  V30 744 C 71.3877 0.505793 1.58212 0
M  V30 745 O 72.5727 0.733202 1.7615 0
M  V30 746 C 69.7127 1.7399 2.98029 0
M  V30 747 C 68.8257 3.01172 3.09708 0
M  V30 748 C 67.9607 2.99686 4.38591 0
M  V30 749 C 66.9997 4.21434 4.43914 0
M  V30 750 N 66.1367 4.1784 5.64229 0
M  V30 751 H 70.9767 2.60459 1.44793 0
M  V30 752 H 68.5137 1.29137 0.704423 0
M  V30 753 H 70.4717 1.76352 3.78095 0
M  V30 754 H 69.1017 0.834301 3.11832 0
M  V30 755 H 68.1537 3.08408 2.22685 0
M  V30 756 H 69.4657 3.91165 3.09502 0
M  V30 757 H 68.6197 3.00628 5.2698 0
M  V30 758 H 67.3587 2.07477 4.41367 0
M  V30 759 H 66.3637 4.20733 3.53926 0
M  V30 760 H 67.5887 5.14839 4.42851 0
M  V30 761 H 65.5347 3.28469 5.67841 0
M  V30 762 H 65.4517 5.01571 5.65652 0
M  V30 763 H 66.7197 4.22889 6.54817 0
M  V30 764 N 70.9488 -0.749086 1.3866 0
M  V30 765 C 71.8958 -1.86291 1.36251 0
M  V30 766 C 72.8658 -1.64578 0.224347 0
M  V30 767 O 74.0508 -1.86181 0.417279 0
M  V30 768 C 71.1908 -3.23644 1.19786 0
M  V30 769 C 70.3038 -3.57158 2.43027 0
M  V30 770 C 69.4388 -4.83838 2.19258 0
M  V30 771 C 68.4778 -5.10152 3.38247 0
M  V30 772 N 67.6148 -6.28029 3.13884 0
M  V30 773 H 72.4548 -1.87685 2.3147 0
M  V30 774 H 69.9918 -0.917287 1.14997 0
M  V30 775 H 71.9498 -4.0291 1.08254 0
M  V30 776 H 70.5798 -3.21566 0.282031 0
M  V30 777 H 69.6318 -2.72701 2.65214 0
M  V30 778 H 70.9438 -3.7253 3.31697 0
M  V30 779 H 70.0978 -5.71057 2.04888 0
M  V30 780 H 68.8368 -4.70614 1.2796 0
M  V30 781 H 67.8418 -4.21401 3.53131 0
M  V30 782 H 69.0668 -5.25271 4.30427 0
M  V30 783 H 67.0128 -6.1612 2.25238 0
M  V30 784 H 66.9298 -6.43922 3.96106 0
M  V30 785 H 68.1978 -7.18124 3.03179 0
M  V30 786 N 72.4269 -1.23603 -0.977757 0
M  V30 787 C 73.3569 -1.04401 -2.0886 0
M  V30 788 C 74.3379 0.0399052 -1.70053 0
M  V30 789 O 75.5229 -0.125246 -1.93796 0
M  V30 790 C 72.6529 -0.637269 -3.41403 0
M  V30 791 C 71.6069 -1.66883 -3.94124 0
M  V30 792 C 70.9329 -1.11745 -5.22893 0
M  V30 793 C 72.2329 -3.06247 -4.23096 0
M  V30 794 H 73.9269 -1.97316 -2.25182 0
M  V30 795 H 71.4729 -0.950096 -1.08209 0
M  V30 796 H 73.4259 -0.48998 -4.18542 0
M  V30 797 H 72.1499 0.327557 -3.24953 0
M  V30 798 H 70.8089 -1.80416 -3.19133 0
M  V30 799 H 70.4569 -0.143527 -5.02795 0
M  V30 800 H 70.1569 -1.80672 -5.59134 0
M  V30 801 H 71.6809 -0.982067 -6.02651 0
M  V30 802 H 73.0949 -2.96001 -4.90975 0
M  V30 803 H 71.4919 -3.72436 -4.70544 0
M  V30 804 H 72.5619 -3.55041 -3.30263 0
M  V30 805 N 73.905 1.17692 -1.04816 0
M  V30 806 C 75.13 1.92327 -0.776207 0
M  V30 807 C 75.555 1.76082 0.661581 0
M  V30 808 O 74.913 1.076 1.45917 0
M  V30 809 C 74.961 3.41539 -1.15687 0
M  V30 810 O 74.065 4.11402 -0.286775 0
M  V30 811 H 73.406 0.599735 -0.284981 0
M  V30 812 H 75.936 1.49201 -1.4 0
M  V30 813 H 75.946 3.92269 -1.12202 0
M  V30 814 H 74.621 3.52684 -2.20425 0
M  V30 815 H 73.198 3.70939 -0.381903 0
M  V30 816 N 75.3831 0.828654 1.34056 0
M  V30 817 C 76.3461 0.259927 2.27721 0
M  V30 818 C 77.3461 -0.565478 1.50529 0
M  V30 819 O 78.5361 -0.38075 1.69988 0
M  V30 820 C 75.6681 -0.634944 3.34935 0
M  V30 821 H 76.8611 1.0863 2.79534 0
M  V30 822 H 74.4141 0.600951 1.44285 0
M  V30 823 H 75.1491 -1.48416 2.88346 0
M  V30 824 H 74.9341 -0.0444999 3.92075 0
M  V30 825 H 76.4241 -1.02648 4.04788 0
M  V30 826 N 76.8612 -1.46375 0.584142 0
M  V30 827 C 78.2772 -1.57694 0.245929 0
M  V30 828 C 78.4772 -1.57903 -1.25175 0
M  V30 829 O 77.5332 -1.49676 -2.03355 0
M  V30 830 C 78.8462 -2.87028 0.896402 0
M  V30 831 C 80.3942 -3.00662 0.870127 0
M  V30 832 C 80.8692 -4.32734 1.50017 0
M  V30 833 N 82.3602 -4.39436 1.46458 0
M  V30 834 C 83.0952 -5.40248 1.92144 0
M  V30 835 N 82.5912 -6.47726 2.4581 0
M  V30 836 N 84.3842 -5.31459 1.83052 0
M  V30 837 H 76.5352 -1.44483 1.55687 0
M  V30 838 H 78.7982 -0.689291 0.650831 0
M  V30 839 H 78.5042 -2.9269 1.95002 0
M  V30 840 H 78.3782 -3.75014 0.405486 0
M  V30 841 H 80.7652 -2.94581 -0.174871 0
M  V30 842 H 80.8462 -2.14148 1.39908 0
M  V30 843 H 80.4902 -4.39573 2.54437 0
M  V30 844 H 80.4202 -5.18025 0.946432 0
M  V30 845 H 82.9112 -3.62367 1.07231 0
M  V30 846 H 83.2242 -7.20863 2.78525 0
M  V30 847 H 81.5692 -6.48542 2.49836 0
M  V30 848 H 84.7602 -4.46396 1.40883 0
M  V30 849 H 84.9332 -6.09881 2.18973 0
M  V30 850 N 78.3393 -0.321999 -1.54275 0
M  V30 851 C 79.6163 0.335232 -1.92706 0
M  V30 852 C 79.9963 1.70006 -1.25145 0
M  V30 853 O 79.3443 2.25067 -0.394596 0
M  V30 854 C 79.5543 0.429008 -3.46353 0
M  V30 855 C 80.9023 0.690029 -4.18956 0
M  V30 856 O 81.9263 0.511992 -3.52501 0
M  V30 857 O 80.7853 1.03338 -5.36641 0
M  V30 858 H 77.8793 0.191143 -0.804608 0
M  V30 859 H 80.4253 -0.3716 -1.65581 0
M  V30 860 H 79.1973 -0.529611 -3.87699 0
M  V30 861 H 78.8203 1.18348 -3.79578 0
M  V30 862 N 79.8174 1.5752 -0.0501392 0
M  V30 863 C 80.7674 2.07981 0.934231 0
M  V30 864 C 81.7514 0.984745 1.27246 0
M  V30 865 O 82.9434 1.24809 1.25506 0
M  V30 866 C 80.0724 2.62751 2.20945 0
M  V30 867 C 79.1584 3.79225 1.89865 0
M  V30 868 N 79.5494 4.89036 1.29142 0
M  V30 869 C 77.8474 3.88111 2.19741 0
M  V30 870 C 78.5484 5.70084 1.15669 0
M  V30 871 N 77.5244 5.17659 1.65923 0
M  V30 872 H 81.3264 2.90277 0.460053 0
M  V30 873 H 78.8404 1.61665 0.15434 0
M  V30 874 H 80.8374 2.97205 2.9236 0
M  V30 875 H 79.4974 1.81894 2.6897 0
M  V30 876 H 80.5084 5.08854 0.963756 0
M  V30 877 H 77.1854 3.18194 2.70293 0
M  V30 878 H 78.5754 6.68395 0.685356 0
M  V30 879 N 81.2955 -0.223234 1.56011 0
M  V30 880 C 82.2275 -1.30006 1.88762 0
M  V30 881 C 83.2405 -1.43129 0.775746 0
M  V30 882 O 84.4295 -1.44057 1.05403 0
M  V30 883 C 81.5295 -2.67589 2.07965 0
M  V30 884 C 80.7025 -2.76434 3.38973 0
M  V30 885 C 79.7615 -3.95019 3.47629 0
M  V30 886 O 78.7875 -3.83436 4.20672 0
M  V30 887 N 79.9895 -5.09249 2.78649 0
M  V30 888 H 82.7545 -1.02238 2.81722 0
M  V30 889 H 80.3155 -0.413278 1.56536 0
M  V30 890 H 82.3075 -3.45297 2.11073 0
M  V30 891 H 80.8775 -2.87964 1.21638 0
M  V30 892 H 80.0975 -1.85216 3.47978 0
M  V30 893 H 81.3855 -2.79313 4.25278 0
M  V30 894 H 80.7835 -5.21556 2.19081 0
M  V30 895 H 79.3405 -5.85007 2.8742 0
M  V30 896 N 82.7736 -1.49793 -0.48987 0
M  V30 897 C 83.7206 -1.67281 -1.59014 0
M  V30 898 C 84.6906 -0.514177 -1.57941 0
M  V30 899 O 85.8756 -0.742533 -1.75759 0
M  V30 900 C 83.0156 -1.75569 -2.97102 0
M  V30 901 C 82.1286 -3.0281 -3.08107 0
M  V30 902 C 81.2636 -3.02008 -4.36995 0
M  V30 903 C 80.3026 -4.23782 -4.41673 0
M  V30 904 N 79.4396 -4.20826 -5.62005 0
M  V30 905 H 84.2796 -2.61224 -1.43409 0
M  V30 906 H 81.8166 -1.29508 -0.697565 0
M  V30 907 H 83.7746 -1.78354 -3.77155 0
M  V30 908 H 82.4046 -0.850827 -3.11385 0
M  V30 909 H 81.4566 -3.09584 -2.21047 0
M  V30 910 H 82.7686 -3.92801 -3.07423 0
M  V30 911 H 81.9226 -3.03418 -5.25378 0
M  V30 912 H 80.6616 -2.09815 -4.4026 0
M  V30 913 H 79.6666 -4.22604 -3.5169 0
M  V30 914 H 80.8916 -5.17181 -4.40115 0
M  V30 915 H 78.8376 -3.31476 -5.66091 0
M  V30 916 H 78.7546 -5.04564 -5.62984 0
M  V30 917 H 80.0226 -4.26355 -6.52565 0
M  V30 918 N 84.2517 0.741722 -1.39055 0
M  V30 919 C 85.1817 1.869 -1.39966 0
M  V30 920 C 86.1627 1.6804 -0.26392 0
M  V30 921 O 87.3477 1.88458 -0.468755 0
M  V30 922 C 84.4777 3.24572 -1.23574 0
M  V30 923 C 83.4317 3.58056 -2.34477 0
M  V30 924 C 82.7577 4.94593 -2.0318 0
M  V30 925 C 84.0577 3.61716 -3.76774 0
M  V30 926 H 85.7517 1.86395 -2.34302 0
M  V30 927 H 83.2977 0.895361 -1.1278 0
M  V30 928 H 85.2507 4.031 -1.22834 0
M  V30 929 H 83.9747 3.25587 -0.257045 0
M  V30 930 H 82.6337 2.81854 -2.34423 0
M  V30 931 H 82.2817 4.92181 -1.03765 0
M  V30 932 H 81.9817 5.17964 -2.77465 0
M  V30 933 H 83.5057 5.75486 -2.04079 0
M  V30 934 H 84.9197 4.30335 -3.78794 0
M  V30 935 H 83.3167 3.96603 -4.50362 0
M  V30 936 H 84.3867 2.61672 -4.08235 0
M  V30 937 N 85.7298 1.2412 0.971189 0
M  V30 938 C 86.6398 1.04747 2.09917 0
M  V30 939 C 87.6558 -0.0107162 1.73997 0
M  V30 940 O 88.8318 0.186714 2.00533 0
M  V30 941 C 85.8968 0.650828 3.40537 0
M  V30 942 C 84.9578 1.7851 3.90426 0
M  V30 943 C 84.1908 1.40729 5.14812 0
M  V30 944 O 84.4138 0.29557 5.69634 0
M  V30 945 O 83.3478 2.23168 5.58999 0
M  V30 946 H 87.1738 1.99304 2.29154 0
M  V30 947 H 84.7588 1.02908 1.08307 0
M  V30 948 H 86.6408 0.440992 4.19086 0
M  V30 949 H 85.3158 -0.265649 3.22608 0
M  V30 950 H 84.2228 2.04966 3.12953 0
M  V30 951 H 85.5558 2.68023 4.12825 0
M  V30 952 N 87.2079 -1.17134 1.05439 0
M  V30 953 C 88.6239 -1.39454 0.776201 0
M  V30 954 C 88.8239 -1.91454 -0.628307 0
M  V30 955 O 87.8799 -2.10777 -1.39031 0
M  V30 956 C 89.1929 -2.38305 1.83388 0
M  V30 957 C 90.7409 -2.52006 1.85639 0
M  V30 958 C 91.2159 -3.54133 2.90437 0
M  V30 959 N 92.7069 -3.61653 2.89415 0
M  V30 960 C 93.4419 -4.4044 3.67152 0
M  V30 961 N 92.9379 -5.22721 4.54681 0
M  V30 962 N 94.7309 -4.35337 3.55581 0
M  V30 963 H 86.8819 -0.817134 1.96053 0
M  V30 964 H 89.1449 -0.421626 0.849079 0
M  V30 965 H 88.8509 -2.07173 2.84204 0
M  V30 966 H 88.7249 -3.37841 1.67761 0
M  V30 967 H 91.1119 -2.82447 0.85486 0
M  V30 968 H 91.1929 -1.52537 2.05344 0
M  V30 969 H 90.8369 -3.24431 3.90777 0
M  V30 970 H 90.7669 -4.53313 2.67983 0
M  V30 971 H 93.2579 -3.02909 2.25952 0
M  V30 972 H 93.5709 -5.80027 5.10674 0
M  V30 973 H 91.9159 -5.22093 4.58741 0
M  V30 974 H 95.1069 -3.70112 2.86592 0
M  V30 975 H 95.2799 -4.96494 4.1641 0
M  V30 976 N 88.686 -0.835752 -1.33615 0
M  V30 977 C 89.596 -0.269088 -2.33052 0
M  V30 978 C 90.612 0.603251 -1.63208 0
M  V30 979 O 91.788 0.508112 -1.94885 0
M  V30 980 C 88.853 0.549091 -3.42324 0
M  V30 981 C 87.914 -0.347156 -4.27894 0
M  V30 982 C 87.147 0.43207 -5.31948 0
M  V30 983 O 87.37 1.66409 -5.45586 0
M  V30 984 O 86.304 -0.192298 -6.01593 0
M  V30 985 H 90.13 -1.09243 -2.83372 0
M  V30 986 H 87.715 -0.598198 -1.36901 0
M  V30 987 H 89.597 1.01414 -4.09015 0
M  V30 988 H 88.272 1.34955 -2.94226 0
M  V30 989 H 87.179 -0.859979 -3.64081 0
M  V30 990 H 88.512 -1.1123 -4.79467 0
M  V30 991 N 90.1641 1.46063 -0.591896 0
M  V30 992 C 91.1271 2.28854 0.125973 0
M  V30 993 C 92.1271 1.38903 0.810107 0
M  V30 994 O 93.3171 1.61186 0.66066 0
M  V30 995 C 90.4491 3.19526 1.1881 0
M  V30 996 H 91.6421 2.93802 -0.601717 0
M  V30 997 H 89.1951 1.52325 -0.350254 0
M  V30 998 H 89.9301 2.59345 1.94707 0
M  V30 999 H 89.7151 3.85766 0.701936 0
M  V30 1000 H 91.2051 3.81817 1.69132 0
M  V30 1001 N 91.6422 0.330177 1.54103 0
M  V30 1002 C 93.0582 -0.0222371 1.59585 0
M  V30 1003 C 93.2582 -1.49902 1.34654 0
M  V30 1004 O 92.3142 -2.25592 1.13421 0
M  V30 1005 C 93.6272 0.401932 2.98002 0
M  V30 1006 C 95.1752 0.353145 3.11001 0
M  V30 1007 C 95.6502 0.752576 4.51775 0
M  V30 1008 N 97.1412 0.706239 4.57784 0
M  V30 1009 C 97.8762 0.987417 5.64834 0
M  V30 1010 N 97.3722 1.33607 6.79795 0
M  V30 1011 N 99.1652 0.91254 5.54643 0
M  V30 1012 H 91.3162 1.29228 1.68564 0
M  V30 1013 H 93.5792 0.525906 0.78875 0
M  V30 1014 H 93.2852 1.4311 3.21267 0
M  V30 1015 H 93.1592 -0.229699 3.765 0
M  V30 1016 H 95.5462 -0.666822 2.87467 0
M  V30 1017 H 95.6272 1.0198 2.34593 0
M  V30 1018 H 95.2712 1.77049 4.76042 0
M  V30 1019 H 95.2012 0.0635409 5.26562 0
M  V30 1020 H 97.6922 0.44889 3.75224 0
M  V30 1021 H 98.0052 1.53582 7.57385 0
M  V30 1022 H 96.3502 1.37439 6.81275 0
M  V30 1023 H 99.5412 0.639601 4.6371 0
M  V30 1024 H 99.7142 1.13503 6.37982 0
M  V30 1025 N 93.1203 -1.57491 0.0584922 0
M  V30 1026 C 94.3693 -1.92155 -0.613146 0
M  V30 1027 C 94.6823 -0.939334 -1.71569 0
M  V30 1028 O 95.8883 -1.17829 -2.44599 0
M  V30 1029 C 94.3443 -3.41303 -1.14195 0
M  V30 1030 C 93.9523 -4.47944 -0.0711265 0
M  V30 1031 C 95.6963 -3.84988 -1.78841 0
M  V30 1032 C 93.6033 -5.88212 -0.613225 0
M  V30 1033 H 92.5333 -0.717162 -0.232796 0
M  V30 1034 H 95.1843 -1.83049 0.12857 0
M  V30 1035 H 93.5663 -3.45437 -1.93621 0
M  V30 1036 H 94.7403 -4.55408 0.702836 0
M  V30 1037 H 93.0553 -4.13644 0.478313 0
M  V30 1038 H 95.6523 -4.87159 -2.20408 0
M  V30 1039 H 95.9953 -3.21632 -2.64308 0
M  V30 1040 H 96.5283 -3.83401 -1.06059 0
M  V30 1041 H 93.2673 -6.55183 0.203978 0
M  V30 1042 H 92.7873 -5.84294 -1.35501 0
M  V30 1043 H 94.4663 -6.37687 -1.09383 0
M  V30 1044 N 94.5984 0.214957 -1.56127 0
M  V30 1045 C 95.8384 0.945364 -1.81224 0
M  V30 1046 C 96.2024 1.81265 -0.633005 0
M  V30 1047 O 97.4034 2.57731 -0.763423 0
M  V30 1048 C 95.6744 1.75665 -3.1125 0
M  V30 1049 S 97.2334 2.54179 -3.57685 0
M  V30 1050 H 94.0514 0.317443 -0.6362 0
M  V30 1051 H 96.6534 0.210381 -1.94365 0
M  V30 1052 H 95.3574 1.10977 -3.9511 0
M  V30 1053 H 94.8884 2.53381 -3.00934 0
M  V30 1054 H 96.9034 3.7792 -3.21545 0
M  V30 1055 N 96.0765 1.50051 0.48192 0
M  V30 1056 C 97.4925 1.37237 0.814756 0
M  V30 1057 C 97.6925 0.420109 1.97072 0
M  V30 1058 O 96.7485 -0.141246 2.52105 0
M  V30 1059 C 98.0615 2.78375 1.13701 0
M  V30 1060 C 99.6095 2.87213 1.2441 0
M  V30 1061 C 100.084 4.29161 1.59954 0
M  V30 1062 N 101.575 4.32061 1.66967 0
M  V30 1063 C 102.31 5.38879 1.95952 0
M  V30 1064 N 101.806 6.55918 2.23031 0
M  V30 1065 N 103.599 5.26312 1.97363 0
M  V30 1066 H 95.7505 2.10546 -0.28005 0
M  V30 1067 H 98.0135 0.945921 -0.0627454 0
M  V30 1068 H 97.7195 3.49845 0.360787 0
M  V30 1069 H 97.5935 3.14941 2.07586 0
M  V30 1070 H 99.9805 2.15969 2.01101 0
M  V30 1071 H 100.061 2.54204 0.285299 0
M  V30 1072 H 99.7055 5.00938 0.838067 0
M  V30 1073 H 99.6355 4.59648 2.56966 0
M  V30 1074 H 102.126 3.47661 1.48123 0
M  V30 1075 H 102.439 7.33139 2.44391 0
M  V30 1076 H 100.784 6.59112 2.20447 0
M  V30 1077 H 103.975 4.33876 1.75697 0
M  V30 1078 H 104.148 6.09649 2.19618 0
M  V30 1079 N 97.5546 -0.734337 1.39446 0
M  V30 1080 C 98.4846 -1.86155 1.40955 0
M  V30 1081 C 99.4656 -1.67898 0.272827 0
M  V30 1082 O 100.651 -1.88207 0.478743 0
M  V30 1083 C 97.7806 -3.23912 1.25294 0
M  V30 1084 C 96.7346 -3.56808 2.36373 0
M  V30 1085 C 96.0606 -4.93508 2.058 0
M  V30 1086 C 97.3606 -3.59713 3.78687 0
M  V30 1087 H 99.0546 -1.8515 2.35287 0
M  V30 1088 H 96.6006 -0.889367 1.13253 0
M  V30 1089 H 98.5536 -4.02443 1.2497 0
M  V30 1090 H 97.2776 -3.25446 0.274308 0
M  V30 1091 H 95.9366 -2.80606 2.35914 0
M  V30 1092 H 95.5846 -4.91623 1.06374 0
M  V30 1093 H 95.2846 -5.16486 2.80208 0
M  V30 1094 H 96.8086 -5.74396 2.07128 0
M  V30 1095 H 98.2226 -4.2832 3.81071 0
M  V30 1096 H 96.6196 -3.94209 4.52459 0
M  V30 1097 H 97.6896 -2.59504 4.09617 0
M  V30 1098 N 99.0327 -1.24633 -0.964593 0
M  V30 1099 C 99.9627 -1.06611 -2.07741 0
M  V30 1100 C 100.944 0.0218666 -1.70086 0
M  V30 1101 O 102.129 -0.145793 -1.93652 0
M  V30 1102 C 99.2587 -0.673444 -3.40708 0
M  V30 1103 C 98.2127 -1.71054 -3.92332 0
M  V30 1104 C 97.5387 -1.17285 -5.21678 0
M  V30 1105 C 98.8387 -3.10718 -4.19824 0
M  V30 1106 H 100.533 -1.99693 -2.23076 0
M  V30 1107 H 98.0787 -0.96152 -1.07195 0
M  V30 1108 H 100.032 -0.534345 -4.17998 0
M  V30 1109 H 98.7557 0.293073 -3.25282 0
M  V30 1110 H 97.4147 -1.83791 -3.17201 0
M  V30 1111 H 97.0627 -0.196847 -5.02615 0
M  V30 1112 H 96.7627 -1.86592 -5.57187 0
M  V30 1113 H 98.2867 -1.04593 -6.01575 0
M  V30 1114 H 99.7007 -3.01192 -4.87808 0
M  V30 1115 H 98.0977 -3.77406 -4.66567 0
M  V30 1116 H 99.1677 -3.58524 -3.26479 0
M  V30 1117 N 100.511 1.16574 -1.06058 0
M  V30 1118 C 101.458 2.20883 -0.669263 0
M  V30 1119 C 102.428 1.62729 0.332918 0
M  V30 1120 O 103.613 1.895 0.222346 0
M  V30 1121 C 100.753 3.45049 -0.0593572 0
M  V30 1122 C 99.8658 4.17458 -1.11143 0
M  V30 1123 C 99.0008 5.29135 -0.467916 0
M  V30 1124 C 98.0398 5.93343 -1.50369 0
M  V30 1125 N 97.1768 6.96516 -0.883706 0
M  V30 1126 H 102.017 2.53709 -1.5632 0
M  V30 1127 H 99.5538 1.24616 -0.781625 0
M  V30 1128 H 101.512 4.16033 0.311771 0
M  V30 1129 H 100.142 3.12781 0.797992 0
M  V30 1130 H 99.1938 3.45101 -1.60029 0
M  V30 1131 H 100.506 4.61307 -1.89731 0
M  V30 1132 H 99.6598 6.06684 -0.0436871 0
M  V30 1133 H 98.3988 4.86443 0.349864 0
M  V30 1134 H 97.4038 5.14517 -1.93784 0
M  V30 1135 H 98.6288 6.38114 -2.32352 0
M  V30 1136 H 96.5748 6.55943 -0.086595 0
M  V30 1137 H 96.4918 7.38723 -1.607 0
M  V30 1138 H 97.7598 7.77993 -0.484543 0
M  V30 1139 N 101.989 0.842826 1.3317 0
M  V30 1140 C 102.939 0.250877 2.26616 0
M  V30 1141 C 103.923 -0.596427 1.49437 0
M  V30 1142 O 105.115 -0.447747 1.71243 0
M  V30 1143 C 102.244 -0.569779 3.38539 0
M  V30 1144 C 101.33 0.289254 4.23112 0
M  V30 1145 N 101.721 1.36987 4.86897 0
M  V30 1146 C 100.019 0.0769631 4.45934 0
M  V30 1147 C 100.72 1.89737 5.49886 0
M  V30 1148 N 99.6959 1.19827 5.30229 0
M  V30 1149 H 103.498 1.07718 2.73448 0
M  V30 1150 H 101.012 0.687693 1.47121 0
M  V30 1151 H 103.009 -1.01018 4.04476 0
M  V30 1152 H 101.669 -1.39401 2.93253 0
M  V30 1153 H 102.68 1.75277 4.87338 0
M  V30 1154 H 99.3569 -0.713507 4.11358 0
M  V30 1155 H 100.747 2.80253 6.10662 0
M  V30 1156 N 103.467 -1.45747 0.599634 0
M  V30 1157 C 104.878 -1.85853 0.177681 0
M  V30 1158 C 105.229 -1.50102 -1.26348 0
M  V30 1159 O 104.354 -0.923905 -1.95686 0
M  V30 1160 C 104.949 -3.37326 0.315688 0
M  V30 1161 C 103.508 -3.76365 -0.0515144 0
M  V30 1162 C 102.655 -2.69722 0.643822 0
M  V30 1163 H 105.606 -1.36661 0.806814 0
M  V30 1164 H 105.627 -3.77778 -0.454321 0
M  V30 1165 H 105.139 -3.63315 1.36468 0
M  V30 1166 H 103.24 -3.55993 -1.09999 0
M  V30 1167 H 103.353 -4.77916 0.336594 0
M  V30 1168 H 101.717 -2.54567 0.0822881 0
M  V30 1169 H 102.5 -2.98549 1.6948 0
M  V30 1170 N 104.945 -0.338344 -1.53925 0
M  V30 1171 C 105.893 0.536231 -2.26335 0
M  V30 1172 C 106.887 1.1063 -1.28286 0
M  V30 1173 O 108.093 1.05264 -1.46012 0
M  V30 1174 H 104.468 0.191602 -0.727181 0
M  V30 1175 H 106.439 -0.0965747 -2.98244 0
M  V30 1176 C 105.188 1.67803 -3.04528 0
M  V30 1177 H 104.511 1.24864 -3.79801 0
M  V30 1178 H 105.951 2.26526 -3.58416 0
M  V30 1179 C 104.41 2.60439 -2.13712 0
M  V30 1180 O 104.94 3.6255 -1.72975 0
M  V30 1181 N 103.146 2.29006 -1.78898 0
M  V30 1182 H 102.693 1.46011 -2.12223 0
M  V30 1183 H 102.651 2.91248 -1.18416 0
M  V30 1184 N 106.423 1.57458 -0.0668435 0
M  V30 1185 C 107.672 1.92477 0.602947 0
M  V30 1186 C 107.985 0.948419 1.71068 0
M  V30 1187 O 109.191 1.19124 2.43971 0
M  V30 1188 C 107.647 3.41903 1.12383 0
M  V30 1189 C 107.255 4.47975 0.04737 0
M  V30 1190 C 108.999 3.85931 1.76797 0
M  V30 1191 C 106.906 5.88529 0.582022 0
M  V30 1192 H 105.836 0.718387 0.22899 0
M  V30 1193 H 108.487 1.82978 -0.138276 0
M  V30 1194 H 106.869 3.46459 1.91787 0
M  V30 1195 H 108.043 4.55029 -0.726978 0
M  V30 1196 H 106.358 4.13384 -0.500243 0
M  V30 1197 H 108.955 4.88322 2.17821 0
M  V30 1198 H 109.298 3.23029 2.62599 0
M  V30 1199 H 109.831 3.83958 1.04024 0
M  V30 1200 H 106.57 6.55065 -0.238721 0
M  V30 1201 H 106.09 5.85004 1.324 0
M  V30 1202 H 107.769 6.38258 1.05999 0
M  V30 1203 N 107.901 -0.206675 1.56239 0
M  V30 1204 C 109.147 -0.930218 1.80208 0
M  V30 1205 C 109.48 -1.83387 0.638981 0
M  V30 1206 O 108.755 -1.91119 -0.361066 0
M  V30 1207 C 109.038 -1.75641 3.1436 0
M  V30 1208 C 108.891 -0.878257 4.41142 0
M  V30 1209 C 110.21 -2.73129 3.45092 0
M  V30 1210 H 107.329 -0.336742 0.655571 0
M  V30 1211 H 109.971 -0.198222 1.88963 0
M  V30 1212 H 108.121 -2.38048 3.07027 0
M  V30 1213 H 109.793 -0.269787 4.6051 0
M  V30 1214 H 108.036 -0.184385 4.33408 0
M  V30 1215 H 108.707 -1.49106 5.3148 0
M  V30 1216 H 111.183 -2.20856 3.52649 0
M  V30 1217 H 110.059 -3.28028 4.40101 0
M  V30 1218 H 110.32 -3.51606 2.68003 0
M  V30 1219 N 109.379 -1.50304 -0.473955 0
M  V30 1220 C 110.795 -1.37667 -0.807466 0
M  V30 1221 C 110.995 -0.430555 -1.96846 0
M  V30 1222 O 110.051 0.127874 -2.52176 0
M  V30 1223 C 111.364 -2.78974 -1.12223 0
M  V30 1224 C 112.912 -2.87868 -1.22885 0
M  V30 1225 C 113.387 -4.30003 -1.57676 0
M  V30 1226 N 114.878 -4.3294 -1.64673 0
M  V30 1227 C 115.613 -5.3991 -1.93091 0
M  V30 1228 N 115.109 -6.57092 -2.1955 0
M  V30 1229 N 116.902 -5.27351 -1.94569 0
M  V30 1230 H 109.053 -2.10394 0.291212 0
M  V30 1231 H 111.316 -0.945575 0.0677609 0
M  V30 1232 H 111.022 -3.50031 -0.342229 0
M  V30 1233 H 110.896 -3.16038 -2.05913 0
M  V30 1234 H 113.283 -2.17032 -1.99953 0
M  V30 1235 H 113.364 -2.54352 -0.271814 0
M  V30 1236 H 113.008 -5.01375 -0.81149 0
M  V30 1237 H 112.938 -4.61004 -2.54525 0
M  V30 1238 H 115.429 -3.48441 -1.46277 0
M  V30 1239 H 115.742 -7.34425 -2.405 0
M  V30 1240 H 114.087 -6.60272 -2.16948 0
M  V30 1241 H 117.278 -4.34801 -1.73394 0
M  V30 1242 H 117.451 -6.10805 -2.16381 0
M  V30 1243 N 110.857 0.726932 -1.39834 0
M  V30 1244 C 111.787 1.85405 -1.41941 0
M  V30 1245 C 112.768 1.67751 -0.281728 0
M  V30 1246 O 113.953 1.8795 -0.488717 0
M  V30 1247 C 111.083 3.23243 -1.2701 0
M  V30 1248 C 110.037 3.55549 -2.38262 0
M  V30 1249 C 109.363 4.9241 -2.08415 0
M  V30 1250 C 110.663 3.577 -3.80589 0
M  V30 1251 H 112.357 1.83899 -2.36266 0
M  V30 1252 H 109.903 0.883349 -1.13723 0
M  V30 1253 H 111.856 4.01775 -1.27103 0
M  V30 1254 H 110.58 3.25296 -0.291564 0
M  V30 1255 H 109.239 2.79351 -2.37399 0
M  V30 1256 H 108.887 4.91052 -1.0898 0
M  V30 1257 H 108.587 5.14992 -2.82943 0
M  V30 1258 H 110.111 5.73289 -2.10171 0
M  V30 1259 H 111.525 4.26293 -3.83337 0
M  V30 1260 H 109.922 3.91804 -4.54543 0
M  V30 1261 H 110.992 2.57328 -4.10987 0
M  V30 1262 N 112.336 1.25143 0.95797 0
M  V30 1263 C 113.286 1.01924 2.0395 0
M  V30 1264 C 114.27 -0.0427175 1.60843 0
M  V30 1265 O 115.462 0.17221 1.7616 0
M  V30 1266 C 112.591 0.636373 3.3735 0
M  V30 1267 C 111.677 1.73492 3.8699 0
M  V30 1268 N 112.068 2.96945 4.0946 0
M  V30 1269 C 110.366 1.61467 4.15746 0
M  V30 1270 C 111.067 3.68228 4.50315 0
M  V30 1271 N 110.043 2.95833 4.56053 0
M  V30 1272 H 113.845 1.95653 2.19311 0
M  V30 1273 H 111.359 1.15413 1.14253 0
M  V30 1274 H 113.356 0.451233 4.14451 0
M  V30 1275 H 112.016 -0.293621 3.2337 0
M  V30 1276 H 113.027 3.33025 3.96629 0
M  V30 1277 H 109.704 0.753394 4.10646 0
M  V30 1278 H 111.094 4.74178 4.76031 0
M  V30 1279 N 113.814 -1.1601 1.06675 0
M  V30 1280 C 115.091 -1.82679 0.699114 0
M  V30 1281 C 115.471 -1.94559 -0.819137 0
M  V30 1282 O 114.819 -1.49169 -1.73092 0
M  V30 1283 C 115.029 -3.19445 1.40555 0
M  V30 1284 C 116.377 -3.95171 1.55323 0
M  V30 1285 O 117.401 -3.28976 1.36577 0
M  V30 1286 O 116.26 -5.13833 1.86112 0
M  V30 1287 H 113.354 -0.788954 0.247951 0
M  V30 1288 H 115.9 -1.23179 1.16726 0
M  V30 1289 H 114.672 -3.05856 2.44065 0
M  V30 1290 H 114.295 -3.86625 0.927733 0
M  V30 1291 N 115.292 -0.849877 -1.32721 0
M  V30 1292 C 116.517 -0.463856 -2.02146 0
M  V30 1293 C 116.942 0.930449 -1.63476 0
M  V30 1294 O 116.3 1.61033 -0.832952 0
M  V30 1295 C 116.348 -0.604955 -3.55489 0
M  V30 1296 O 115.452 0.36425 -4.10788 0
M  V30 1297 H 114.793 -0.187046 -0.637111 0
M  V30 1298 H 117.323 -1.14775 -1.69375 0
M  V30 1299 H 117.333 -0.490696 -4.05038 0
M  V30 1300 H 116.008 -1.62174 -3.82978 0
M  V30 1301 H 114.585 0.206628 -3.72327 0
M  V30 1302 N 116.77 1.45427 -0.607355 0
M  V30 1303 C 118.019 2.01452 -0.100036 0
M  V30 1304 C 118.332 1.48159 1.27704 0
M  V30 1305 O 119.538 1.96159 1.87707 0
M  V30 1306 C 117.994 3.59672 -0.128158 0
M  V30 1307 C 117.602 4.21962 -1.50507 0
M  V30 1308 C 119.346 4.23262 0.323932 0
M  V30 1309 C 117.253 5.72333 -1.48959 0
M  V30 1310 H 116.183 0.75325 -0.0336299 0
M  V30 1311 H 118.834 1.66901 -0.76265 0
M  V30 1312 H 117.216 3.91411 0.601105 0
M  V30 1313 H 118.39 4.01796 -2.25602 0
M  V30 1314 H 116.705 3.70565 -1.89923 0
M  V30 1315 H 119.302 5.33522 0.354691 0
M  V30 1316 H 119.645 3.93921 1.34656 0
M  V30 1317 H 120.178 3.96239 -0.352056 0
M  V30 1318 H 116.917 6.06373 -2.48981 0
M  V30 1319 H 116.437 5.94691 -0.781214 0
M  V30 1320 H 118.116 6.35525 -1.21313 0
M  V30 1321 N 118.248 0.346503 1.53744 0
M  V30 1322 C 119.473 -0.253074 2.0585 0
M  V30 1323 C 119.898 -1.43202 1.21962 0
M  V30 1324 O 119.256 -1.79783 0.234073 0
M  V30 1325 C 119.304 -0.643193 3.54817 0
M  V30 1326 O 118.408 -1.74286 3.73762 0
M  V30 1327 H 117.749 -0.0413583 0.662711 0
M  V30 1328 H 120.279 0.501574 1.98357 0
M  V30 1329 H 120.289 -0.919526 3.97503 0
M  V30 1330 H 118.964 0.218966 4.15323 0
M  V30 1331 H 117.541 -1.46356 3.42979 0
M  V30 1332 N 119.726 -1.57421 0.075193 0
M  V30 1333 C 120.636 -2.1642 -0.905511 0
M  V30 1334 C 121.652 -1.12828 -1.32461 0
M  V30 1335 O 122.828 -1.45109 -1.39661 0
M  V30 1336 C 119.893 -2.71693 -2.15369 0
M  V30 1337 C 118.954 -3.90171 -1.79068 0
M  V30 1338 C 118.187 -4.42798 -2.97936 0
M  V30 1339 O 118.41 -3.94416 -4.12058 0
M  V30 1340 O 117.344 -5.34085 -2.77555 0
M  V30 1341 H 121.17 -3.00588 -0.433626 0
M  V30 1342 H 118.755 -1.48664 -0.148067 0
M  V30 1343 H 120.637 -3.07104 -2.88557 0
M  V30 1344 H 119.312 -1.90582 -2.61649 0
M  V30 1345 H 118.219 -3.59606 -1.03122 0
M  V30 1346 H 119.552 -4.72584 -1.37569 0
M  V30 1347 N 121.204 0.198386 -1.56346 0
M  V30 1348 C 122.114 1.2664 -1.97483 0
M  V30 1349 C 123.13 1.49989 -0.882002 0
M  V30 1350 O 124.306 1.62668 -1.18748 0
M  V30 1351 C 121.371 2.59141 -2.30319 0
M  V30 1352 C 120.432 2.43892 -3.53292 0
M  V30 1353 C 119.665 3.70074 -3.84553 0
M  V30 1354 O 119.888 4.74101 -3.1715 0
M  V30 1355 O 118.822 3.658 -4.7799 0
M  V30 1356 H 122.648 0.947304 -2.88548 0
M  V30 1357 H 120.233 0.403123 -1.43859 0
M  V30 1358 H 122.115 3.37352 -2.5253 0
M  V30 1359 H 120.79 2.90684 -1.42423 0
M  V30 1360 H 119.697 1.63803 -3.36332 0
M  V30 1361 H 121.03 2.17282 -4.41644 0
M  V30 1362 N 122.682 1.50554 0.465978 0
M  V30 1363 C 123.93 1.61479 1.21528 0
M  V30 1364 C 124.251 0.319596 1.92363 0
M  V30 1365 O 123.521 -0.663194 1.84333 0
M  V30 1366 H 122.101 0.595055 0.451573 0
M  V30 1367 H 124.763 1.87355 0.53704 0
M  V30 1368 H 123.859 2.42846 1.96042 0
M  V30 1369 N 124.16 -0.719506 1.40217 0
M  V30 1370 C 125.407 -1.47933 1.38283 0
M  V30 1371 C 125.735 -1.94493 -0.0161536 0
M  V30 1372 O 124.99 -1.68224 -0.999956 0
M  V30 1373 C 125.289 -2.72271 2.31524 0
M  V30 1374 C 124.955 -2.44496 3.78857 0
M  V30 1375 C 123.617 -2.36631 4.18998 0
M  V30 1376 C 125.969 -2.21104 4.71977 0
M  V30 1377 C 123.297 -2.03437 5.503 0
M  V30 1378 C 125.649 -1.89423 6.03574 0
M  V30 1379 C 124.313 -1.80038 6.42762 0
M  V30 1380 H 123.583 -0.541325 0.506012 0
M  V30 1381 H 126.23 -0.824502 1.72842 0
M  V30 1382 H 124.535 -3.42572 1.90137 0
M  V30 1383 H 126.232 -3.30348 2.27313 0
M  V30 1384 H 122.822 -2.51503 3.47051 0
M  V30 1385 H 127.006 -2.26139 4.41786 0
M  V30 1386 H 122.262 -1.94705 5.79569 0
M  V30 1387 H 126.436 -1.70336 6.75247 0
M  V30 1388 H 124.063 -1.54083 7.44421 0
M  V30 1389 N 125.638 -1.25649 -0.95132 0
M  V30 1390 C 126.588 -1.03004 -2.03406 0
M  V30 1391 C 127.572 0.034187 -1.60864 0
M  V30 1392 O 128.764 -0.181549 -1.76066 0
M  V30 1393 C 125.893 -0.654255 -3.37008 0
M  V30 1394 C 124.979 -1.75542 -3.86065 0
M  V30 1395 N 125.37 -2.99113 -4.07879 0
M  V30 1396 C 123.668 -1.63669 -4.14884 0
M  V30 1397 C 124.369 -3.70611 -4.48356 0
M  V30 1398 N 123.345 -2.98247 -4.54477 0
M  V30 1399 H 127.147 -1.96813 -2.1827 0
M  V30 1400 H 124.661 -1.16017 -1.13639 0
M  V30 1401 H 126.658 -0.473206 -4.14206 0
M  V30 1402 H 125.318 0.276468 -3.23521 0
M  V30 1403 H 126.329 -3.35124 -3.94857 0
M  V30 1404 H 123.006 -0.775161 -4.10241 0
M  V30 1405 H 124.396 -4.76695 -4.73509 0
M  V30 1406 N 127.117 1.15442 -1.07289 0
M  V30 1407 C 128.347 1.89821 -0.815576 0
M  V30 1408 C 128.755 1.7823 0.634867 0
M  V30 1409 O 128.098 1.13152 1.44715 0
M  V30 1410 C 128.16 3.40817 -1.14385 0
M  V30 1411 C 127.824 3.76193 -2.59476 0
M  V30 1412 C 128.821 3.77269 -3.57721 0
M  V30 1413 C 126.506 4.0652 -2.95037 0
M  V30 1414 C 128.5 4.08176 -4.89562 0
M  V30 1415 C 126.187 4.37092 -4.27076 0
M  V30 1416 C 127.185 4.37902 -5.24148 0
M  V30 1417 O 126.873 4.67741 -6.53815 0
M  V30 1418 H 126.605 0.608465 -0.294528 0
M  V30 1419 H 129.159 1.472 -1.43252 0
M  V30 1420 H 127.389 3.83835 -0.469865 0
M  V30 1421 H 129.078 3.96485 -0.869179 0
M  V30 1422 H 129.844 3.5394 -3.3159 0
M  V30 1423 H 125.723 4.05049 -2.20128 0
M  V30 1424 H 129.267 4.08723 -5.65324 0
M  V30 1425 H 125.164 4.59889 -4.5296 0
M  V30 1426 H 125.932 4.85509 -6.58957 0
M  V30 1427 N 128.595 0.856903 1.32268 0
M  V30 1428 C 129.525 0.31858 2.31316 0
M  V30 1429 C 130.506 -0.583487 1.59779 0
M  V30 1430 O 131.691 -0.503259 1.87566 0
M  V30 1431 C 128.821 -0.491979 3.43798 0
M  V30 1432 C 127.775 0.315849 4.26833 0
M  V30 1433 C 127.101 -0.619586 5.31098 0
M  V30 1434 C 128.401 1.54282 4.98993 0
M  V30 1435 H 130.095 1.14621 2.76591 0
M  V30 1436 H 127.641 0.552613 1.32974 0
M  V30 1437 H 129.594 -0.879012 4.1213 0
M  V30 1438 H 128.318 -1.35299 2.97257 0
M  V30 1439 H 126.977 0.684664 3.6015 0
M  V30 1440 H 126.625 -1.47751 4.8081 0
M  V30 1441 H 126.325 -0.0830621 5.87541 0
M  V30 1442 H 127.849 -1.00375 6.02293 0
M  V30 1443 H 129.263 1.22796 5.59995 0
M  V30 1444 H 127.66 2.01745 5.65172 0
M  V30 1445 H 128.73 2.30285 4.26728 0
M  V30 1446 N 130.073 -1.45103 0.615059 0
M  V30 1447 C 131.319 -2.02483 0.113347 0
M  V30 1448 C 131.652 -1.48146 -1.25564 0
M  V30 1449 O 130.927 -0.659104 -1.82992 0
M  V30 1450 C 131.21 -3.60005 0.0825278 0
M  V30 1451 C 131.063 -4.2466 1.48271 0
M  V30 1452 C 132.382 -4.35972 -0.601401 0
M  V30 1453 H 129.501 -0.735764 0.0426632 0
M  V30 1454 H 132.143 -1.72868 0.788461 0
M  V30 1455 H 130.293 -3.85367 -0.492378 0
M  V30 1456 H 131.965 -4.10458 2.10527 0
M  V30 1457 H 130.208 -3.82772 2.04127 0
M  V30 1458 H 130.879 -5.336 1.41332 0
M  V30 1459 H 133.355 -4.15947 -0.112666 0
M  V30 1460 H 132.231 -5.45697 -0.592097 0
M  V30 1461 H 132.492 -4.09391 -1.66887 0
M  V30 1462 N 131.551 -0.354651 -1.53558 0
M  V30 1463 C 132.798 0.238443 -2.01091 0
M  V30 1464 C 133.126 1.49663 -1.24222 0
M  V30 1465 O 132.381 1.93049 -0.321003 0
M  V30 1466 C 132.68 0.587121 -3.52545 0
M  V30 1467 C 132.346 -0.575472 -4.47213 0
M  V30 1468 C 131.008 -0.894497 -4.72813 0
M  V30 1469 C 133.36 -1.35489 -5.03281 0
M  V30 1470 C 130.688 -1.99511 -5.51736 0
M  V30 1471 C 133.04 -2.44583 -5.83405 0
M  V30 1472 C 131.704 -2.77033 -6.07296 0
M  V30 1473 H 130.974 0.0872526 -0.735845 0
M  V30 1474 H 133.621 -0.484859 -1.8526 0
M  V30 1475 H 131.926 1.39129 -3.66265 0
M  V30 1476 H 133.623 1.05809 -3.86789 0
M  V30 1477 H 130.213 -0.316774 -4.27428 0
M  V30 1478 H 134.397 -1.12167 -4.83459 0
M  V30 1479 H 129.653 -2.25063 -5.68469 0
M  V30 1480 H 133.827 -3.05401 -6.25862 0
M  V30 1481 H 131.454 -3.6244 -6.68237 0
M  V30 1482 N 133.029 1.57378 -0.0835403 0
M  V30 1483 C 134.306 1.85363 0.624507 0
M  V30 1484 C 134.686 0.978239 1.87066 0
M  V30 1485 O 134.034 0.0475908 2.2845 0
M  V30 1486 C 134.244 3.35795 0.950947 0
M  V30 1487 C 135.592 4.03581 1.31939 0
M  V30 1488 O 136.616 3.40609 1.04232 0
M  V30 1489 O 135.475 5.14672 1.83779 0
M  V30 1490 H 132.569 0.766162 0.311329 0
M  V30 1491 H 135.115 1.69307 -0.115362 0
M  V30 1492 H 133.887 3.91244 0.0663899 0
M  V30 1493 H 133.51 3.57154 1.74719 0
M  V30 1494 N 134.507 -0.190092 1.56449 0
M  V30 1495 C 135.437 -1.23816 1.97969 0
M  V30 1496 C 136.418 -1.47201 0.852395 0
M  V30 1497 O 137.603 -1.58854 1.1171 0
M  V30 1498 C 134.733 -2.5813 2.3235 0
M  V30 1499 C 133.687 -2.49348 3.47864 0
M  V30 1500 C 133.013 -3.8798 3.67934 0
M  V30 1501 C 134.313 -2.01424 4.81898 0
M  V30 1502 H 136.007 -0.89311 2.85769 0
M  V30 1503 H 133.553 -0.428177 1.37487 0
M  V30 1504 H 135.506 -3.31637 2.59991 0
M  V30 1505 H 134.23 -2.94386 1.41438 0
M  V30 1506 H 132.889 -1.78297 3.20321 0
M  V30 1507 H 132.537 -4.21597 2.74344 0
M  V30 1508 H 132.237 -3.82978 4.45648 0
M  V30 1509 H 133.761 -4.63101 3.97957 0
M  V30 1510 H 135.175 -2.64693 5.08538 0
M  V30 1511 H 133.572 -2.07413 5.63116 0
M  V30 1512 H 134.642 -0.967677 4.75146 0
M  V30 1513 N 135.985 -1.50799 -0.457987 0
M  V30 1514 C 137.231 -1.62683 -1.21088 0
M  V30 1515 C 137.564 -0.332268 -1.91336 0
M  V30 1516 O 136.839 0.667043 -1.82704 0
M  V30 1517 C 137.122 -2.81615 -2.24422 0
M  V30 1518 C 136.975 -4.20989 -1.58392 0
M  V30 1519 C 138.294 -2.96085 -3.2561 0
M  V30 1520 H 135.413 -0.592087 -0.438864 0
M  V30 1521 H 138.055 -1.83225 -0.50286 0
M  V30 1522 H 136.205 -2.64231 -2.84806 0
M  V30 1523 H 137.877 -4.49994 -1.01504 0
M  V30 1524 H 136.12 -4.24641 -0.886704 0
M  V30 1525 H 136.791 -5.0016 -2.33547 0
M  V30 1526 H 139.267 -3.12042 -2.75262 0
M  V30 1527 H 138.143 -3.80902 -3.95228 0
M  V30 1528 H 138.404 -2.0726 -3.90507 0
M  V30 1529 N 137.463 0.71206 -1.40597 0
M  V30 1530 C 138.691 1.50111 -1.42388 0
M  V30 1531 C 139.106 1.88784 -0.0245395 0
M  V30 1532 O 138.463 1.55681 0.952351 0
M  V30 1533 C 138.514 2.7742 -2.31776 0
M  V30 1534 O 138.235 2.40382 -3.66262 0
M  V30 1535 C 139.736 3.7129 -2.42196 0
M  V30 1536 H 136.956 0.46314 -0.485533 0
M  V30 1537 H 139.5 0.878068 -1.8469 0
M  V30 1538 H 137.655 3.36001 -1.92827 0
M  V30 1539 H 138.069 3.22324 -4.13772 0
M  V30 1540 H 139.543 4.57448 -3.08943 0
M  V30 1541 H 140.02 4.14641 -1.44809 0
M  V30 1542 H 140.626 3.18619 -2.81712 0
M  V30 1543 N 138.941 1.26152 0.944643 0
M  V30 1544 C 140.189 1.11271 1.6871 0
M  V30 1545 C 140.51 -0.345166 1.91921 0
M  V30 1546 O 139.78 -1.24387 1.51343 0
M  V30 1547 H 138.36 0.408783 0.625224 0
M  V30 1548 H 141.022 1.58427 1.1352 0
M  V30 1549 H 140.118 1.62879 2.66227 0
M  V30 1550 N 140.419 -1.14872 1.07899 0
M  V30 1551 C 141.667 -1.85422 0.803941 0
M  V30 1552 C 141.988 -1.83051 -0.67211 0
M  V30 1553 O 141.258 -1.27532 -1.48703 0
M  V30 1554 H 139.838 -0.686537 0.294408 0
M  V30 1555 H 142.5 -1.39226 1.3639 0
M  V30 1556 H 141.596 -2.90399 1.14346 0
M  V30 1557 N 141.898 -0.863906 -1.31812 0
M  V30 1558 C 142.808 -0.318461 -2.32428 0
M  V30 1559 C 143.824 0.568496 -1.64451 0
M  V30 1560 O 145 0.46666 -1.95919 0
M  V30 1561 C 142.065 0.476355 -3.43412 0
M  V30 1562 C 141.126 -0.43784 -4.27061 0
M  V30 1563 C 140.359 0.319138 -5.32745 0
M  V30 1564 O 140.582 1.54799 -5.48993 0
M  V30 1565 O 139.516 -0.319861 -6.01049 0
M  V30 1566 H 143.342 -1.15229 -2.80991 0
M  V30 1567 H 140.927 -0.627103 -1.35602 0
M  V30 1568 H 142.809 0.927156 -4.11074 0
M  V30 1569 H 141.484 1.28683 -2.97022 0
M  V30 1570 H 140.391 -0.937013 -3.62175 0
M  V30 1571 H 141.724 -1.21375 -4.77 0
M  V30 1572 N 143.376 1.44774 -0.622745 0
M  V30 1573 C 144.306 2.33382 0.0741861 0
M  V30 1574 C 145.287 1.47719 0.843387 0
M  V30 1575 O 146.472 1.76458 0.810934 0
M  V30 1576 C 143.602 3.30663 1.06204 0
M  V30 1577 C 142.556 4.26079 0.405037 0
M  V30 1578 C 141.882 5.13165 1.5022 0
M  V30 1579 C 143.182 5.1781 -0.683414 0
M  V30 1580 H 144.876 2.91905 -0.665713 0
M  V30 1581 H 142.422 1.40363 -0.321587 0
M  V30 1582 H 144.375 3.9153 1.55827 0
M  V30 1583 H 143.099 2.70331 1.83272 0
M  V30 1584 H 141.758 3.66532 -0.0704683 0
M  V30 1585 H 141.406 4.49191 2.26355 0
M  V30 1586 H 141.106 5.77812 1.06803 0
M  V30 1587 H 142.63 5.76902 2.00041 0
M  V30 1588 H 144.044 5.72661 -0.270631 0
M  V30 1589 H 142.441 5.91015 -1.04023 0
M  V30 1590 H 143.511 4.59326 -1.55395 0
M  V30 1591 N 144.854 0.36279 1.53368 0
M  V30 1592 C 146.101 -0.227776 2.01215 0
M  V30 1593 C 146.429 -1.49003 1.25014 0
M  V30 1594 O 145.684 -1.92876 0.331236 0
M  V30 1595 C 145.983 -0.568417 3.52851 0
M  V30 1596 C 145.649 0.59918 4.46901 0
M  V30 1597 C 144.311 0.919559 4.72332 0
M  V30 1598 C 146.663 1.38156 5.02556 0
M  V30 1599 C 143.991 2.02434 5.5067 0
M  V30 1600 C 146.343 2.47674 5.821 0
M  V30 1601 C 145.007 2.8025 6.05819 0
M  V30 1602 H 144.277 -0.083349 0.736297 0
M  V30 1603 H 146.924 0.494677 1.85001 0
M  V30 1604 H 145.229 -1.37185 3.66998 0
M  V30 1605 H 146.926 -1.03756 3.87344 0
M  V30 1606 H 143.516 0.339437 4.27254 0
M  V30 1607 H 147.7 1.14729 4.82857 0
M  V30 1608 H 142.956 2.28075 5.67267 0
M  V30 1609 H 147.13 3.08716 6.24234 0
M  V30 1610 H 144.757 3.65979 6.66306 0
M  V30 1611 N 146.332 -1.57332 0.0918853 0
M  V30 1612 C 147.242 -2.17368 -0.882505 0
M  V30 1613 C 148.258 -1.14226 -1.31257 0
M  V30 1614 O 149.434 -1.46582 -1.38115 0
M  V30 1615 C 146.499 -2.73962 -2.12476 0
M  V30 1616 C 145.56 -3.92048 -1.7492 0
M  V30 1617 C 144.793 -4.45933 -2.93223 0
M  V30 1618 O 145.016 -3.98764 -4.07852 0
M  V30 1619 O 143.95 -5.36999 -2.71875 0
M  V30 1620 H 147.776 -3.01031 -0.40172 0
M  V30 1621 H 145.361 -1.48813 -0.132291 0
M  V30 1622 H 147.243 -3.10147 -2.85283 0
M  V30 1623 H 145.918 -1.93347 -2.59613 0
M  V30 1624 H 144.825 -3.6068 -0.993025 0
M  V30 1625 H 146.158 -4.74017 -1.32548 0
M  V30 1626 N 147.81 0.181792 -1.56548 0
M  V30 1627 C 149.087 0.926765 -1.72251 0
M  V30 1628 C 149.467 2.00831 -0.650386 0
M  V30 1629 O 148.815 2.26008 0.336521 0
M  V30 1630 C 149.025 1.50106 -3.1507 0
M  V30 1631 C 150.373 1.97805 -3.75711 0
M  V30 1632 O 151.397 1.59922 -3.18282 0
M  V30 1633 O 150.256 2.67555 -4.76525 0
M  V30 1634 H 147.35 0.435506 -0.703039 0
M  V30 1635 H 149.896 0.170443 -1.68842 0
M  V30 1636 H 148.668 0.72212 -3.84579 0
M  V30 1637 H 148.291 2.32186 -3.22763 0
M  V30 1638 N 149.288 1.51039 0.449983 0
M  V30 1639 C 150.537 1.62317 1.19733 0
M  V30 1640 C 150.85 0.339101 1.92638 0
M  V30 1641 O 152.056 0.331069 2.69474 0
M  V30 1642 C 150.512 2.86608 2.17678 0
M  V30 1643 C 150.12 4.21972 1.50479 0
M  V30 1644 C 151.864 3.07239 2.92924 0
M  V30 1645 C 149.771 5.37426 2.46834 0
M  V30 1646 H 148.701 0.604532 0.450619 0
M  V30 1647 H 151.352 1.77494 0.465625 0
M  V30 1648 H 149.734 2.65037 2.94231 0
M  V30 1649 H 150.908 4.53878 0.795716 0
M  V30 1650 H 149.223 4.07117 0.874344 0
M  V30 1651 H 151.82 3.90668 3.65079 0
M  V30 1652 H 152.163 2.19807 3.5354 0
M  V30 1653 H 152.696 3.29091 2.23481 0
M  V30 1654 H 149.435 6.27079 1.90926 0
M  V30 1655 H 148.955 5.09912 3.15832 0
M  V30 1656 H 150.634 5.68862 3.08228 0
M  V30 1657 N 150.766 -0.704594 1.40972 0
M  V30 1658 C 152.012 -1.46675 1.40051 0
M  V30 1659 C 152.345 -1.94199 0.00641102 0
M  V30 1660 O 151.62 -1.68916 -0.964235 0
M  V30 1661 C 151.903 -2.68505 2.39952 0
M  V30 1662 C 151.756 -2.26805 3.88432 0
M  V30 1663 C 153.075 -3.70686 2.37233 0
M  V30 1664 H 150.194 -0.532015 0.510028 0
M  V30 1665 H 152.836 -0.803255 1.72185 0
M  V30 1666 H 150.986 -3.25114 2.1268 0
M  V30 1667 H 152.658 -1.75592 4.26574 0
M  V30 1668 H 150.901 -1.58685 4.03734 0
M  V30 1669 H 151.572 -3.14181 4.53866 0
M  V30 1670 H 154.048 -3.23731 2.61415 0
M  V30 1671 H 152.924 -4.53553 3.09162 0
M  V30 1672 H 153.185 -4.19754 1.38777 0
M  V30 1673 N 152.244 -1.26651 -0.937939 0
M  V30 1674 C 153.207 -1.08546 -2.01867 0
M  V30 1675 C 154.207 -0.0327327 -1.60767 0
M  V30 1676 O 155.397 -0.276427 -1.71993 0
M  V30 1677 C 152.529 -0.651711 -3.34613 0
M  V30 1678 H 153.722 -2.04502 -2.1936 0
M  V30 1679 H 151.275 -1.09294 -1.11734 0
M  V30 1680 H 152.01 0.309696 -3.22818 0
M  V30 1681 H 151.795 -1.41189 -3.65798 0
M  V30 1682 H 153.285 -0.546973 -4.14002 0
M  V30 1683 N 153.722 1.14298 -1.08507 0
M  V30 1684 C 155.138 1.37347 -0.812901 0
M  V30 1685 C 155.338 1.93052 0.577325 0
M  V30 1686 O 154.394 2.14389 1.33393 0
M  V30 1687 C 155.707 2.33359 -1.89642 0
M  V30 1688 C 157.255 2.46996 -1.92255 0
M  V30 1689 C 157.73 3.46309 -2.99724 0
M  V30 1690 N 159.221 3.53853 -2.98902 0
M  V30 1691 C 159.956 4.3055 -3.787 0
M  V30 1692 N 159.452 5.10482 -4.6838 0
M  V30 1693 N 161.245 4.25757 -3.66998 0
M  V30 1694 H 153.396 0.764867 -1.9815 0
M  V30 1695 H 155.659 0.398966 -0.859959 0
M  V30 1696 H 155.365 1.99565 -2.89597 0
M  V30 1697 H 155.239 3.33274 -1.76659 0
M  V30 1698 H 157.626 2.80081 -0.929445 0
M  V30 1699 H 157.707 1.47039 -2.09316 0
M  V30 1700 H 157.351 3.13957 -3.99241 0
M  V30 1701 H 157.281 4.46049 -2.79907 0
M  V30 1702 H 159.772 2.96812 -2.33904 0
M  V30 1703 H 160.085 5.66284 -5.25873 0
M  V30 1704 H 158.43 5.09747 -4.72422 0
M  V30 1705 H 161.621 3.62383 -2.96304 0
M  V30 1706 H 161.794 4.85279 -4.29427 0
M  V30 1707 N 155.201 0.870884 1.31352 0
M  V30 1708 C 156.111 0.330783 2.32256 0
M  V30 1709 C 157.127 -0.559767 1.6475 0
M  V30 1710 O 158.303 -0.456263 1.96164 0
M  V30 1711 C 155.368 -0.458137 3.4366 0
M  V30 1712 C 154.429 0.460482 4.26823 0
M  V30 1713 C 153.662 -0.290881 5.32907 0
M  V30 1714 O 153.885 -1.51885 5.49806 0
M  V30 1715 O 152.819 0.351732 6.00871 0
M  V30 1716 H 156.645 1.16718 2.80376 0
M  V30 1717 H 154.23 0.634285 1.35267 0
M  V30 1718 H 156.112 -0.905343 4.1156 0
M  V30 1719 H 154.787 -1.27106 2.97701 0
M  V30 1720 H 153.694 0.956207 3.61673 0
M  V30 1721 H 155.027 1.23903 4.7635 0
M  V30 1722 N 156.679 -1.44442 0.630414 0
M  V30 1723 C 157.909 -2.06115 0.141465 0
M  V30 1724 C 158.317 -1.47179 -1.1889 0
M  V30 1725 O 157.66 -0.588873 -1.74006 0
M  V30 1726 C 157.722 -3.59467 -0.0484355 0
M  V30 1727 C 157.386 -4.40864 1.20366 0
M  V30 1728 C 158.383 -4.74391 2.12719 0
M  V30 1729 C 156.068 -4.8125 1.43887 0
M  V30 1730 C 158.062 -5.47186 3.26904 0
M  V30 1731 C 155.749 -5.53795 2.5837 0
M  V30 1732 C 156.747 -5.86682 3.49705 0
M  V30 1733 O 156.435 -6.57749 4.62191 0
M  V30 1734 H 156.167 -0.671648 0.0765792 0
M  V30 1735 H 158.721 -1.86312 0.864695 0
M  V30 1736 H 156.951 -3.77758 -0.826803 0
M  V30 1737 H 158.64 -4.02909 -0.491849 0
M  V30 1738 H 159.406 -4.43728 1.95781 0
M  V30 1739 H 155.285 -4.55073 0.736853 0
M  V30 1740 H 158.829 -5.72773 3.98217 0
M  V30 1741 H 154.726 -5.83872 2.75251 0
M  V30 1742 H 155.494 -6.76217 4.61164 0
M  V30 1743 N 158.157 -0.370918 -1.53173 0
M  V30 1744 C 159.387 0.217389 -2.05453 0
M  V30 1745 C 159.795 1.42568 -1.24382 0
M  V30 1746 O 159.138 1.81571 -0.278839 0
M  V30 1747 C 159.2 0.669827 -3.53205 0
M  V30 1748 C 158.864 -0.4225 -4.55043 0
M  V30 1749 C 159.861 -1.27407 -5.04047 0
M  V30 1750 C 157.546 -0.58427 -4.9889 0
M  V30 1751 C 159.54 -2.27271 -5.95505 0
M  V30 1752 C 157.227 -1.58627 -5.90153 0
M  V30 1753 C 158.225 -2.42892 -6.38351 0
M  V30 1754 O 157.913 -3.41382 -7.27814 0
M  V30 1755 H 157.645 0.0408171 -0.674767 0
M  V30 1756 H 160.199 -0.5292 -1.98466 0
M  V30 1757 H 158.429 1.4681 -3.57748 0
M  V30 1758 H 160.118 1.18173 -3.88317 0
M  V30 1759 H 160.884 -1.16031 -4.70916 0
M  V30 1760 H 156.763 0.061851 -4.60959 0
M  V30 1761 H 160.307 -2.93079 -6.33049 0
M  V30 1762 H 156.204 -1.70048 -6.22699 0
M  V30 1763 H 156.972 -3.37173 -7.45826 0
M  V30 1764 N 159.635 1.57281 -0.100228 0
M  V30 1765 C 160.86 1.99302 0.573881 0
M  V30 1766 C 161.285 0.979059 1.60611 0
M  V30 1767 O 160.643 -0.0517803 1.81226 0
M  V30 1768 C 160.691 3.40274 1.19358 0
M  V30 1769 O 159.795 3.41676 2.30935 0
M  V30 1770 H 159.136 0.647944 0.145138 0
M  V30 1771 H 161.666 2.03779 -0.183156 0
M  V30 1772 H 161.676 3.78078 1.53365 0
M  V30 1773 H 160.351 4.13594 0.437385 0
M  V30 1774 H 158.928 3.15672 1.98509 0
M  V30 1775 N 161.113 -0.173488 1.56642 0
M  V30 1776 C 162.023 -1.23482 1.99473 0
M  V30 1777 C 163.039 -1.48567 0.905752 0
M  V30 1778 O 164.215 -1.60758 1.21321 0
M  V30 1779 C 161.28 -2.55444 2.34413 0
M  V30 1780 C 160.341 -2.38241 3.57127 0
M  V30 1781 C 159.574 -3.63909 3.90392 0
M  V30 1782 O 159.797 -4.68996 3.24653 0
M  V30 1783 O 158.731 -3.58149 4.83749 0
M  V30 1784 H 162.557 -0.901279 2.90018 0
M  V30 1785 H 160.142 -0.380185 1.44482 0
M  V30 1786 H 162.024 -3.33292 2.57865 0
M  V30 1787 H 160.699 -2.88382 1.4703 0
M  V30 1788 H 159.606 -1.58431 3.38896 0
M  V30 1789 H 160.939 -2.10228 4.45045 0
M  V30 1790 N 162.591 -1.51276 -0.441967 0
M  V30 1791 C 163.554 -1.7167 -1.51862 0
M  V30 1792 C 164.554 -0.586793 -1.49711 0
M  V30 1793 O 165.744 -0.854276 -1.51815 0
M  V30 1794 C 162.876 -1.76889 -2.91416 0
M  V30 1795 H 164.069 -2.67754 -1.35084 0
M  V30 1796 H 161.622 -1.41196 -0.670333 0
M  V30 1797 H 162.357 -0.826026 -3.13604 0
M  V30 1798 H 162.142 -2.59001 -2.94382 0
M  V30 1799 H 163.632 -1.94522 -3.69528 0
M  V30 1800 N 164.069 0.697108 -1.41344 0
M  V30 1801 C 165.346 1.45154 -1.31109 0
M  V30 1802 C 165.726 2.11009 0.0620449 0
M  V30 1803 O 165.074 2.01571 1.07618 0
M  V30 1804 C 165.284 2.47223 -2.46337 0
M  V30 1805 C 166.632 3.1252 -2.87431 0
M  V30 1806 O 167.656 2.57547 -2.46065 0
M  V30 1807 O 166.515 4.12083 -3.58957 0
M  V30 1808 H 163.609 0.646365 -0.515889 0
M  V30 1809 H 166.155 0.727716 -1.53305 0
M  V30 1810 H 164.927 1.97204 -3.37974 0
M  V30 1811 H 164.55 3.27116 -2.2601 0
M  V30 1812 N 165.547 1.27147 0.931209 0
M  V30 1813 C 166.51 1.09615 2.01289 0
M  V30 1814 C 167.51 0.0412581 1.60747 0
M  V30 1815 O 168.7 0.285545 1.71844 0
M  V30 1816 C 165.832 0.669447 3.34262 0
M  V30 1817 H 167.025 2.05662 2.18273 0
M  V30 1818 H 164.578 1.09885 1.11153 0
M  V30 1819 H 165.313 -0.292572 3.22978 0
M  V30 1820 H 165.098 1.43127 3.65044 0
M  V30 1821 H 166.588 0.568921 4.13706 0
M  V30 1822 N 167.025 -1.13721 1.09112 0
M  V30 1823 C 168.25 -1.89314 0.847053 0
M  V30 1824 C 168.675 -1.78416 -0.595774 0
M  V30 1825 O 168.033 -1.12942 -1.41823 0
M  V30 1826 C 168.081 -3.3701 1.28284 0
M  V30 1827 O 167.185 -4.10054 0.439267 0
M  V30 1828 H 166.526 -0.588745 0.307044 0
M  V30 1829 H 169.056 -1.43902 1.45442 0
M  V30 1830 H 169.066 -3.87834 1.26683 0
M  V30 1831 H 167.741 -3.4426 2.33363 0
M  V30 1832 H 166.318 -3.69266 0.519312 0
M  V30 1833 N 168.503 -0.877838 -1.30888 0
M  V30 1834 C 169.453 -0.310872 -2.25871 0
M  V30 1835 C 170.437 0.556596 -1.50966 0
M  V30 1836 O 171.629 0.402187 -1.7237 0
M  V30 1837 C 168.758 0.479821 -3.3993 0
M  V30 1838 C 167.844 -0.401333 -4.22197 0
M  V30 1839 N 168.235 -1.49848 -4.83093 0
M  V30 1840 C 166.533 -0.195167 -4.45573 0
M  V30 1841 C 167.234 -2.0425 -5.44662 0
M  V30 1842 N 166.21 -1.33843 -5.26865 0
M  V30 1843 H 170.012 -1.1493 -2.70496 0
M  V30 1844 H 167.526 -0.726458 -1.45246 0
M  V30 1845 H 169.523 0.902582 -4.07012 0
M  V30 1846 H 168.183 1.31577 -2.96846 0
M  V30 1847 H 169.194 -1.88137 -4.82519 0
M  V30 1848 H 165.871 0.604192 -4.13105 0
M  V30 1849 H 167.261 -2.96345 -6.03017 0
M  V30 1850 N 169.982 1.44106 -0.638065 0
M  V30 1851 C 171.222 2.03858 -0.148733 0
M  V30 1852 C 171.586 1.49153 1.20903 0
M  V30 1853 O 172.787 2.00452 1.79088 0
M  V30 1854 C 171.058 3.57117 -0.142314 0
M  V30 1855 S 172.617 4.37897 0.281385 0
M  V30 1856 H 169.435 0.708069 -0.0644912 0
M  V30 1857 H 172.037 1.7639 -0.843009 0
M  V30 1858 H 170.741 3.94436 -1.13349 0
M  V30 1859 H 170.272 3.89205 0.572988 0
M  V30 1860 H 172.287 4.72218 1.52395 0
M  V30 1861 N 171.46 0.379036 1.52974 0
M  V30 1862 C 172.709 -0.207612 2.00629 0
M  V30 1863 C 173.022 -1.48758 1.27006 0
M  V30 1864 O 174.228 -2.15365 1.65318 0
M  V30 1865 C 172.684 -0.42053 3.57435 0
M  V30 1866 C 172.292 0.845587 4.39948 0
M  V30 1867 C 174.036 -0.964102 4.13407 0
M  V30 1868 C 171.943 0.601513 5.88333 0
M  V30 1869 H 170.873 -0.0813591 0.749598 0
M  V30 1870 H 173.524 0.499853 1.76561 0
M  V30 1871 H 171.906 -1.18959 3.7771 0
M  V30 1872 H 173.08 1.61848 4.31442 0
M  V30 1873 H 171.395 1.31336 3.95145 0
M  V30 1874 H 173.992 -1.16225 5.21916 0
M  V30 1875 H 174.335 -1.93019 3.68849 0
M  V30 1876 H 174.868 -0.25487 3.96983 0
M  V30 1877 H 171.607 1.53831 6.37194 0
M  V30 1878 H 171.127 -0.132628 5.99653 0
M  V30 1879 H 172.806 0.232134 6.46583 0
M  V30 1880 N 172.938 -1.57226 0.108567 0
M  V30 1881 C 173.888 -2.11305 -0.856396 0
M  V30 1882 C 174.872 -1.03129 -1.23504 0
M  V30 1883 O 176.064 -1.29381 -1.20787 0
M  V30 1884 C 173.193 -2.70771 -2.11041 0
M  V30 1885 C 172.279 -3.86011 -1.7566 0
M  V30 1886 N 172.67 -4.93492 -1.10902 0
M  V30 1887 C 170.968 -3.95999 -2.05185 0
M  V30 1888 C 171.669 -5.73984 -0.944308 0
M  V30 1889 N 170.645 -5.2346 -1.46596 0
M  V30 1890 H 174.447 -2.91784 -0.352002 0
M  V30 1891 H 171.961 -1.62126 -0.0942324 0
M  V30 1892 H 173.958 -3.07851 -2.81128 0
M  V30 1893 H 172.618 -1.91751 -2.62034 0
M  V30 1894 H 173.629 -5.1208 -0.774235 0
M  V30 1895 H 170.306 -3.28007 -2.58298 0
M  V30 1896 H 171.696 -6.70479 -0.436813 0
M  V30 1897 N 174.416 0.165178 -1.56732 0
M  V30 1898 C 175.348 1.22911 -1.93457 0
M  V30 1899 C 176.361 1.40152 -0.828333 0
M  V30 1900 O 177.55 1.40046 -1.10677 0
M  V30 1901 C 174.65 2.59686 -2.17753 0
M  V30 1902 C 173.823 2.63663 -3.48999 0
M  V30 1903 C 172.882 3.81845 -3.62051 0
M  V30 1904 O 171.908 3.67559 -4.34613 0
M  V30 1905 N 173.11 4.98557 -2.97357 0
M  V30 1906 H 175.875 0.917118 -2.85323 0
M  V30 1907 H 173.436 0.354895 -1.57962 0
M  V30 1908 H 175.428 3.37225 -2.23743 0
M  V30 1909 H 173.998 2.83251 -1.32242 0
M  V30 1910 H 173.218 1.72173 -3.54612 0
M  V30 1911 H 174.506 2.63336 -4.35352 0
M  V30 1912 H 173.904 5.13065 -2.38287 0
M  V30 1913 H 172.461 5.73936 -3.08934 0
M  V30 1914 N 175.894 1.51508 0.433938 0
M  V30 1915 C 177.143 1.63578 1.18005 0
M  V30 1916 C 177.456 0.359514 1.92268 0
M  V30 1917 O 178.662 0.359632 2.69108 0
M  V30 1918 C 177.118 2.88901 2.14626 0
M  V30 1919 C 176.726 4.23544 1.45995 0
M  V30 1920 C 178.47 3.10328 2.89649 0
M  V30 1921 C 176.377 5.40014 2.4112 0
M  V30 1922 H 175.307 0.609277 0.444182 0
M  V30 1923 H 177.958 1.77978 0.446773 0
M  V30 1924 H 176.34 2.68142 2.91403 0
M  V30 1925 H 177.514 4.54696 0.747532 0
M  V30 1926 H 175.829 4.08021 0.831115 0
M  V30 1927 H 178.426 3.94518 3.60915 0
M  V30 1928 H 178.769 2.23544 3.51189 0
M  V30 1929 H 179.302 3.31443 2.19978 0
M  V30 1930 H 176.041 6.29068 1.84264 0
M  V30 1931 H 175.561 5.13233 3.10406 0
M  V30 1932 H 177.24 5.72099 3.02177 0
M  V30 1933 N 177.372 -0.689602 1.41712 0
M  V30 1934 C 178.302 -1.81577 1.46806 0
M  V30 1935 C 179.283 -1.66945 0.326105 0
M  V30 1936 O 180.468 -1.86588 0.538377 0
M  V30 1937 C 177.598 -3.19762 1.35535 0
M  V30 1938 C 176.552 -3.49107 2.47605 0
M  V30 1939 C 175.878 -4.86711 2.21397 0
M  V30 1940 C 177.178 -3.47483 3.89939 0
M  V30 1941 H 178.872 -1.7757 2.41058 0
M  V30 1942 H 176.418 -0.852887 1.16025 0
M  V30 1943 H 178.371 -3.98263 1.3771 0
M  V30 1944 H 177.095 -3.24409 0.377708 0
M  V30 1945 H 175.754 -2.72959 2.44722 0
M  V30 1946 H 175.402 -4.8799 1.21961 0
M  V30 1947 H 175.102 -5.0731 2.96497 0
M  V30 1948 H 176.626 -5.67515 2.25297 0
M  V30 1949 H 178.04 -4.1598 3.94505 0
M  V30 1950 H 176.437 -3.79615 4.64771 0
M  V30 1951 H 177.507 -2.46341 4.17665 0
M  V30 1952 N 178.85 -1.27639 -0.924453 0
M  V30 1953 C 179.76 -1.12466 -2.05885 0
M  V30 1954 C 180.776 -0.053869 -1.73917 0
M  V30 1955 O 181.952 -0.261012 -1.99702 0
M  V30 1956 C 179.017 -0.776768 -3.37886 0
M  V30 1957 C 178.078 -1.92878 -3.83532 0
M  V30 1958 C 177.311 -1.59739 -5.09234 0
M  V30 1959 O 177.534 -0.506782 -5.68144 0
M  V30 1960 O 176.468 -2.43761 -5.50331 0
M  V30 1961 H 180.294 -2.07671 -2.21599 0
M  V30 1962 H 177.879 -1.06857 -1.04413 0
M  V30 1963 H 179.761 -0.596229 -4.17161 0
M  V30 1964 H 178.436 0.145732 -3.23372 0
M  V30 1965 H 177.343 -2.1644 -3.0513 0
M  V30 1966 H 178.676 -2.8316 -4.02593 0
M  V30 1967 N 180.328 1.1314 -1.09713 0
M  V30 1968 C 181.553 1.88862 -0.857081 0
M  V30 1969 C 181.978 1.78729 0.586304 0
M  V30 1970 O 181.336 1.13692 1.41222 0
M  V30 1971 C 181.384 3.36325 -1.30069 0
M  V30 1972 O 180.488 4.09815 -0.461007 0
M  V30 1973 H 179.829 0.587108 -0.310162 0
M  V30 1974 H 182.359 1.43129 -1.46203 0
M  V30 1975 H 182.369 3.87157 -1.28738 0
M  V30 1976 H 181.044 3.43017 -2.35185 0
M  V30 1977 H 179.621 3.68986 -0.538888 0
M  V30 1978 N 181.806 0.884767 1.30421 0
M  V30 1979 C 183.052 0.503851 1.96441 0
M  V30 1980 C 183.385 -0.944518 1.69684 0
M  V30 1981 O 182.66 -1.66737 1.00145 0
M  V30 1982 C 182.943 0.779085 3.51571 0
M  V30 1983 C 182.796 2.27807 3.87846 0
M  V30 1984 C 184.115 0.255452 4.39358 0
M  V30 1985 H 181.234 0.184533 0.713524 0
M  V30 1986 H 183.876 1.10872 1.54297 0
M  V30 1987 H 182.026 0.264274 3.876 0
M  V30 1988 H 183.698 2.86127 3.61841 0
M  V30 1989 H 181.941 2.74479 3.35922 0
M  V30 1990 H 182.612 2.42125 4.96064 0
M  V30 1991 H 185.088 0.696079 4.10236 0
M  V30 1992 H 183.964 0.477361 5.4682 0
M  V30 1993 H 184.225 -0.843293 4.33983 0
M  V30 1994 N 183.284 -1.43765 0.645699 0
M  V30 1995 C 184.232 -2.32516 -0.0624849 0
M  V30 1996 C 185.226 -1.48183 -0.820855 0
M  V30 1997 O 186.432 -1.64439 -0.732106 0
M  V30 1998 H 182.807 -0.750989 -0.0389864 0
M  V30 1999 H 184.778 -2.89979 0.703892 0
M  V30 2000 C 183.527 -3.32389 -1.02044 0
M  V30 2001 H 182.85 -3.97301 -0.446312 0
M  V30 2002 H 184.29 -3.97138 -1.48517 0
M  V30 2003 C 182.749 -2.62416 -2.11281 0
M  V30 2004 O 183.279 -2.434 -3.19561 0
M  V30 2005 N 181.485 -2.21913 -1.87624 0
M  V30 2006 H 181.032 -2.37578 -0.995703 0
M  V30 2007 H 180.99 -1.75424 -2.6091 0
M  V30 2008 N 184.763 -0.387143 -1.52771 0
M  V30 2009 C 185.713 0.465942 -2.23188 0
M  V30 2010 C 186.697 1.03138 -1.23496 0
M  V30 2011 O 187.889 0.957845 -1.48843 0
M  V30 2012 C 185.018 1.59384 -3.04059 0
M  V30 2013 C 184.104 1.04024 -4.11144 0
M  V30 2014 N 184.495 0.211416 -5.05358 0
M  V30 2015 C 182.793 1.31295 -4.26237 0
M  V30 2016 C 183.494 -0.0941698 -5.81624 0
M  V30 2017 N 182.47 0.509207 -5.4121 0
M  V30 2018 H 186.272 -0.173856 -2.93385 0
M  V30 2019 H 183.786 -0.19633 -1.61209 0
M  V30 2020 H 185.783 2.21738 -3.53041 0
M  V30 2021 H 184.443 2.23648 -2.35397 0
M  V30 2022 H 185.454 -0.151151 -5.17679 0
M  V30 2023 H 182.131 1.95679 -3.68803 0
M  V30 2024 H 183.521 -0.765572 -6.67524 0
M  V30 2025 N 186.241 1.57166 -0.116904 0
M  V30 2026 C 187.49 1.94298 0.541407 0
M  V30 2027 C 187.803 1.00236 1.67964 0
M  V30 2028 O 189.009 1.26826 2.40057 0
M  V30 2029 C 187.465 3.45306 1.01449 0
M  V30 2030 C 187.073 4.47899 -0.0951738 0
M  V30 2031 C 188.817 3.91361 1.6443 0
M  V30 2032 C 186.724 5.90083 0.394491 0
M  V30 2033 H 185.654 0.725308 0.206019 0
M  V30 2034 H 188.305 1.82446 -0.196419 0
M  V30 2035 H 186.687 3.52385 1.80667 0
M  V30 2036 H 187.861 4.52486 -0.871374 0
M  V30 2037 H 186.176 4.11583 -0.631505 0
M  V30 2038 H 188.773 4.95004 2.02176 0
M  V30 2039 H 189.116 3.3122 2.52189 0
M  V30 2040 H 189.649 3.87073 0.917559 0
M  V30 2041 H 186.388 6.53974 -0.447004 0
M  V30 2042 H 185.908 5.88921 1.13722 0
M  V30 2043 H 187.587 6.41307 0.856399 0
M  V30 2044 N 187.719 -0.156864 1.56817 0
M  V30 2045 C 188.669 -1.19891 1.93934 0
M  V30 2046 C 189.653 -1.39061 0.809372 0
M  V30 2047 O 190.845 -1.40789 1.07273 0
M  V30 2048 C 187.974 -2.53493 2.31508 0
M  V30 2049 C 187.06 -2.37957 3.51052 0
M  V30 2050 N 187.451 -1.92158 4.67877 0
M  V30 2051 C 185.749 -2.68739 3.55943 0
M  V30 2052 C 186.45 -1.8943 5.49992 0
M  V30 2053 N 185.426 -2.32375 4.91429 0
M  V30 2054 H 189.228 -0.836746 2.81737 0
M  V30 2055 H 186.742 -0.365012 1.58245 0
M  V30 2056 H 188.739 -3.28811 2.56299 0
M  V30 2057 H 187.399 -2.905 1.45051 0
M  V30 2058 H 188.41 -1.62274 4.91821 0
M  V30 2059 H 185.087 -3.09687 2.80001 0
M  V30 2060 H 186.477 -1.55596 6.53636 0
M  V30 2061 N 189.197 -1.51736 -0.425897 0
M  V30 2062 C 190.129 -1.70083 -1.53638 0
M  V30 2063 C 191.142 -0.581349 -1.52066 0
M  V30 2064 O 192.331 -0.856017 -1.56635 0
M  V30 2065 C 189.431 -1.71078 -2.9255 0
M  V30 2066 C 188.604 -2.99795 -3.185 0
M  V30 2067 C 187.663 -2.92825 -4.37196 0
M  V30 2068 O 186.689 -3.66756 -4.35291 0
M  V30 2069 N 187.891 -2.0946 -5.41393 0
M  V30 2070 H 190.656 -2.65882 -1.383 0
M  V30 2071 H 188.217 -1.49765 -0.614988 0
M  V30 2072 H 190.209 -1.63969 -3.69995 0
M  V30 2073 H 188.779 -0.828242 -3.01428 0
M  V30 2074 H 187.999 -3.20684 -2.2925 0
M  V30 2075 H 189.287 -3.84977 -3.32671 0
M  V30 2076 H 188.685 -1.48792 -5.45781 0
M  V30 2077 H 187.242 -2.08221 -6.17647 0
M  V30 2078 N 190.675 0.682077 -1.42076 0
M  V30 2079 C 191.625 1.78823 -1.41444 0
M  V30 2080 C 192.609 1.58323 -0.28681 0
M  V30 2081 O 193.801 1.68926 -0.528498 0
M  V30 2082 C 190.93 3.17232 -1.3122 0
M  V30 2083 C 190.016 3.4338 -2.489 0
M  V30 2084 N 190.407 3.40152 -3.7434 0
M  V30 2085 C 188.705 3.73986 -2.43003 0
M  V30 2086 C 189.406 3.65581 -4.52466 0
M  V30 2087 N 188.382 3.85989 -3.8277 0
M  V30 2088 H 192.184 1.7471 -2.36334 0
M  V30 2089 H 189.698 0.882622 -1.36321 0
M  V30 2090 H 191.695 3.96489 -1.2885 0
M  V30 2091 H 190.355 3.22547 -0.373263 0
M  V30 2092 H 191.366 3.20221 -4.07037 0
M  V30 2093 H 188.043 3.86591 -1.57651 0
M  V30 2094 H 189.433 3.69108 -5.61435 0
M  V30 2095 N 192.153 1.28127 0.917671 0
M  V30 2096 C 193.43 1.05761 1.64542 0
M  V30 2097 C 193.81 -0.404344 2.07191 0
M  V30 2098 O 193.158 -1.38963 1.81388 0
M  V30 2099 C 193.368 2.02857 2.83989 0
M  V30 2100 C 194.716 2.32786 3.551 0
M  V30 2101 O 195.74 2.0091 2.94132 0
M  V30 2102 O 194.599 2.87169 4.64969 0
M  V30 2103 H 191.693 0.403916 0.721652 0
M  V30 2104 H 194.239 1.39431 0.967322 0
M  V30 2105 H 193.011 3.01407 2.49538 0
M  V30 2106 H 192.634 1.69809 3.59514 0
M  V30 2107 N 193.631 -1.12557 1.10312 0
M  V30 2108 C 194.88 -1.83395 0.839588 0
M  V30 2109 C 195.193 -1.84939 -0.636929 0
M  V30 2110 O 196.399 -2.51761 -1.01631 0
M  V30 2111 C 194.855 -3.29303 1.45215 0
M  V30 2112 C 194.463 -3.36122 2.96186 0
M  V30 2113 C 196.207 -4.05121 1.26796 0
M  V30 2114 C 194.114 -4.76357 3.50483 0
M  V30 2115 H 193.044 -0.687133 0.310425 0
M  V30 2116 H 195.695 -1.26746 1.32694 0
M  V30 2117 H 194.077 -3.85812 0.892469 0
M  V30 2118 H 195.251 -2.89559 3.58458 0
M  V30 2119 H 193.566 -2.73776 3.13745 0
M  V30 2120 H 196.163 -5.08668 1.64806 0
M  V30 2121 H 196.506 -4.15773 0.209409 0
M  V30 2122 H 197.039 -3.54967 1.79563 0
M  V30 2123 H 193.778 -4.70899 4.55998 0
M  V30 2124 H 193.298 -5.23377 2.92978 0
M  V30 2125 H 194.977 -5.45294 3.48228 0
M  V30 2126 N 195.109 -0.891671 -1.2995 0
M  V30 2127 C 196.355 -0.514261 -1.96171 0
M  V30 2128 C 196.688 0.935506 -1.70182 0
M  V30 2129 O 195.963 1.66204 -1.01028 0
M  V30 2130 C 196.246 -0.797719 -3.51153 0
M  V30 2131 C 196.099 -2.2986 -3.86632 0
M  V30 2132 C 197.418 -0.278749 -4.39216 0
M  V30 2133 H 194.537 -0.188314 -0.712535 0
M  V30 2134 H 197.179 -1.11689 -1.53706 0
M  V30 2135 H 195.329 -0.284826 -3.87455 0
M  V30 2136 H 197.001 -2.88042 -3.60319 0
M  V30 2137 H 195.244 -2.76257 -3.34462 0
M  V30 2138 H 195.915 -2.44753 -4.94773 0
M  V30 2139 H 198.391 -0.717825 -4.09862 0
M  V30 2140 H 197.267 -0.506353 -5.46559 0
M  V30 2141 H 197.528 0.820266 -4.34424 0
M  V30 2142 N 196.587 1.43421 -0.653314 0
M  V30 2143 C 197.537 2.2792 0.060558 0
M  V30 2144 C 198.521 1.39906 0.794677 0
M  V30 2145 O 199.713 1.63536 0.677128 0
M  V30 2146 C 196.842 3.27603 1.0262 0
M  V30 2147 C 195.928 4.23104 0.290551 0
M  V30 2148 N 196.319 5.01031 -0.692967 0
M  V30 2149 C 194.617 4.42816 0.531984 0
M  V30 2150 C 195.318 5.70626 -1.12963 0
M  V30 2151 N 194.294 5.41617 -0.463867 0
M  V30 2152 H 198.096 2.85585 -0.694143 0
M  V30 2153 H 195.61 1.55126 -0.480602 0
M  V30 2154 H 197.607 3.86918 1.55242 0
M  V30 2155 H 196.267 2.71499 1.78096 0
M  V30 2156 H 197.278 5.0669 -1.07169 0
M  V30 2157 H 193.955 3.97782 1.26791 0
M  V30 2158 H 195.345 6.4318 -1.94343 0
M  V30 2159 N 198.065 0.39524 1.52563 0
M  V30 2160 C 199.481 0.0454682 1.59535 0
M  V30 2161 C 199.681 -1.44056 1.4089 0
M  V30 2162 O 198.737 -2.20579 1.22888 0
M  V30 2163 C 200.05 0.527963 2.96029 0
M  V30 2164 C 201.598 0.484733 3.09224 0
M  V30 2165 C 202.073 0.943512 4.48176 0
M  V30 2166 N 203.564 0.899765 4.54377 0
M  V30 2167 C 204.299 1.22609 5.60138 0
M  V30 2168 N 203.795 1.62319 6.73516 0
M  V30 2169 N 205.588 1.14696 5.50274 0
M  V30 2170 H 197.739 1.36261 1.62931 0
M  V30 2171 H 200.002 0.558887 0.765735 0
M  V30 2172 H 199.708 1.56607 3.14908 0
M  V30 2173 H 199.582 -0.0698056 3.77135 0
M  V30 2174 H 201.969 -0.544298 2.90037 0
M  V30 2175 H 202.05 1.11838 2.30056 0
M  V30 2176 H 201.694 1.9708 4.68104 0
M  V30 2177 H 201.624 0.286817 5.25818 0
M  V30 2178 H 204.115 0.607632 3.72983 0
M  V30 2179 H 204.428 1.85567 7.5019 0
M  V30 2180 H 202.773 1.66211 6.74833 0
M  V30 2181 H 205.964 0.835701 4.6058 0
M  V30 2182 H 206.137 1.40459 6.32594 0
M  V30 2183 N 199.544 -1.57102 0.125237 0
M  V30 2184 C 200.821 -1.86953 -0.575142 0
M  V30 2185 C 201.201 -1.02749 -1.84407 0
M  V30 2186 O 200.549 -0.108144 -2.28244 0
M  V30 2187 C 200.759 -3.38198 -0.861583 0
M  V30 2188 C 202.107 -4.06937 -1.21192 0
M  V30 2189 O 203.131 -3.43252 -0.951645 0
M  V30 2190 O 201.99 -5.19364 -1.70068 0
M  V30 2191 H 199.084 -0.774147 -0.290906 0
M  V30 2192 H 201.63 -1.68942 0.160211 0
M  V30 2193 H 200.402 -3.91282 0.0373647 0
M  V30 2194 H 200.025 -3.61661 -1.65188 0
M  V30 2195 N 201.022 0.148545 -1.56898 0
M  V30 2196 C 201.952 1.18524 -2.01182 0
M  V30 2197 C 202.933 1.4489 -0.891123 0
M  V30 2198 O 204.118 1.55836 -1.15882 0
M  V30 2199 C 201.248 2.51879 -2.39112 0
M  V30 2200 C 200.202 2.40038 -3.54353 0
M  V30 2201 C 199.528 3.78089 -3.78091 0
M  V30 2202 C 200.828 1.88577 -4.87069 0
M  V30 2203 H 202.522 0.817029 -2.88036 0
M  V30 2204 H 200.068 0.391575 -1.38574 0
M  V30 2205 H 202.021 3.24627 -2.68692 0
M  V30 2206 H 200.745 2.90532 -1.49193 0
M  V30 2207 H 199.404 1.69742 -3.24936 0
M  V30 2208 H 199.052 4.14175 -2.85426 0
M  V30 2209 H 198.752 3.71028 -4.55645 0
M  V30 2210 H 200.276 4.52387 -4.10095 0
M  V30 2211 H 201.69 2.51117 -5.15377 0
M  V30 2212 H 200.087 1.9241 -5.68417 0
M  V30 2213 H 201.157 0.84136 -4.77545 0
M  V30 2214 N 202.5 1.5196 0.417844 0
M  V30 2215 C 203.447 1.74678 1.50852 0
M  V30 2216 C 204.417 0.588947 1.55308 0
M  V30 2217 O 205.602 0.825544 1.72016 0
M  V30 2218 C 202.742 1.89544 2.88387 0
M  V30 2219 C 201.855 3.17166 2.93309 0
M  V30 2220 C 200.99 3.22513 4.22088 0
M  V30 2221 C 200.029 4.44372 4.20951 0
M  V30 2222 N 199.166 4.47161 5.41287 0
M  V30 2223 H 204.006 2.67768 1.30783 0
M  V30 2224 H 201.543 1.32689 0.63498 0
M  V30 2225 H 203.501 1.96146 3.68216 0
M  V30 2226 H 202.131 0.998424 3.06971 0
M  V30 2227 H 201.183 3.19778 2.06024 0
M  V30 2228 H 202.495 4.07021 2.88332 0
M  V30 2229 H 201.649 3.28139 5.10303 0
M  V30 2230 H 200.388 2.30581 4.29748 0
M  V30 2231 H 199.393 4.38902 3.31127 0
M  V30 2232 H 200.618 5.3759 4.14938 0
M  V30 2233 H 198.564 3.58108 5.49632 0
M  V30 2234 H 198.481 5.3085 5.3827 0
M  V30 2235 H 199.749 4.57005 6.3148 0
M  V30 2236 N 203.978 -0.674533 1.42435 0
M  V30 2237 C 205.389 -1.25514 1.38214 0
M  V30 2238 C 205.74 -1.96055 0.0755464 0
M  V30 2239 O 204.865 -2.00028 -0.8257 0
M  V30 2240 C 205.46 -2.28269 2.50357 0
M  V30 2241 C 204.019 -2.81856 2.49467 0
M  V30 2242 C 203.166 -1.56182 2.29134 0
M  V30 2243 H 206.117 -0.467902 1.51646 0
M  V30 2244 H 206.138 -3.10009 2.20624 0
M  V30 2245 H 205.65 -1.769 3.45439 0
M  V30 2246 H 203.751 -3.37346 1.58204 0
M  V30 2247 H 203.864 -3.30854 3.46515 0
M  V30 2248 H 202.228 -1.82761 1.774 0
M  V30 2249 H 203.011 -1.06778 3.26272 0
M  V30 2250 N 205.456 -1.28612 -0.910864 0
M  V30 2251 C 206.366 -1.14643 -2.0468 0
M  V30 2252 C 207.382 -0.0723121 -1.7385 0
M  V30 2253 O 208.558 -0.282178 -1.99413 0
M  V30 2254 C 205.623 -0.812561 -3.37044 0
M  V30 2255 C 204.684 -1.96935 -3.81465 0
M  V30 2256 C 203.917 -1.65131 -5.07511 0
M  V30 2257 O 204.14 -0.567013 -5.67575 0
M  V30 2258 O 203.074 -2.49585 -5.47714 0
M  V30 2259 H 206.9 -2.1001 -2.19384 0
M  V30 2260 H 204.485 -1.07958 -1.03274 0
M  V30 2261 H 206.367 -0.640441 -4.16505 0
M  V30 2262 H 205.042 0.111426 -3.23508 0
M  V30 2263 H 203.949 -2.19664 -3.02818 0
M  V30 2264 H 205.282 -2.87414 -3.99567 0
M  V30 2265 N 206.934 1.1197 -1.10907 0
M  V30 2266 C 207.882 2.19927 -0.757303 0
M  V30 2267 C 208.876 1.67564 0.248747 0
M  V30 2268 O 210.082 1.79672 0.108605 0
M  V30 2269 H 206.457 0.716925 -0.226987 0
M  V30 2270 H 208.428 2.46847 -1.67658 0
M  V30 2271 C 207.177 3.47061 -0.210671 0
M  V30 2272 H 206.5 3.87703 -0.976049 0
M  V30 2273 H 207.94 4.24 -0.0026584 0
M  V30 2274 C 206.399 3.19864 1.05777 0
M  V30 2275 O 206.929 3.40049 2.13845 0
M  V30 2276 N 205.135 2.73636 0.978349 0
M  V30 2277 H 204.682 2.5741 0.0988246 0
M  V30 2278 H 204.64 2.55815 1.82773 0
M  V30 2279 N 208.412 0.89855 1.29475 0
M  V30 2280 C 209.342 0.39201 2.30186 0
M  V30 2281 C 210.323 -0.532359 1.61555 0
M  V30 2282 O 211.508 -0.443331 1.89072 0
M  V30 2283 C 208.638 -0.382353 3.45189 0
M  V30 2284 C 207.592 0.451483 4.25612 0
M  V30 2285 C 206.918 -0.450307 5.328 0
M  V30 2286 C 208.218 1.70079 4.93832 0
M  V30 2287 H 209.912 1.23362 2.72804 0
M  V30 2288 H 207.458 0.594638 1.31149 0
M  V30 2289 H 209.411 -0.747451 4.14718 0
M  V30 2290 H 208.135 -1.25774 3.01411 0
M  V30 2291 H 206.794 0.798897 3.57789 0
M  V30 2292 H 206.442 -1.32379 4.85268 0
M  V30 2293 H 206.142 0.103902 5.87508 0
M  V30 2294 H 207.666 -0.811623 6.05182 0
M  V30 2295 H 209.08 1.40549 5.55805 0
M  V30 2296 H 207.477 2.19623 5.58467 0
M  V30 2297 H 208.547 2.43744 4.19186 0
M  V30 2298 N 209.89 -1.43072 0.660911 0
M  V30 2299 C 210.82 -2.33497 -0.0122829 0
M  V30 2300 C 211.801 -1.49903 -0.803925 0
M  V30 2301 O 212.986 -1.78546 -0.763864 0
M  V30 2302 C 210.116 -3.33363 -0.973994 0
M  V30 2303 C 209.07 -4.27003 -0.291928 0
M  V30 2304 C 208.396 -5.16967 -1.36562 0
M  V30 2305 C 209.696 -5.15816 0.820462 0
M  V30 2306 H 211.39 -2.90038 0.742873 0
M  V30 2307 H 208.936 -1.39461 0.358688 0
M  V30 2308 H 210.889 -3.95524 -1.45392 0
M  V30 2309 H 209.613 -2.75095 -1.7604 0
M  V30 2310 H 208.272 -3.66217 0.167623 0
M  V30 2311 H 207.92 -4.55034 -2.14366 0
M  V30 2312 H 207.62 -5.80441 -0.914454 0
M  V30 2313 H 209.144 -5.82003 -1.84675 0
M  V30 2314 H 210.558 -5.71742 0.422366 0
M  V30 2315 H 208.955 -5.8805 1.19656 0
M  V30 2316 H 210.025 -4.55045 1.67518 0
M  V30 2317 N 211.368 -0.403325 -1.52352 0
M  V30 2318 C 212.298 0.416205 -2.29761 0
M  V30 2319 C 213.279 1.05123 -1.33728 0
M  V30 2320 O 214.464 1.06134 -1.62632 0
M  V30 2321 C 211.594 1.53624 -3.11475 0
M  V30 2322 C 210.548 1.02653 -4.15507 0
M  V30 2323 C 209.874 2.23971 -4.85532 0
M  V30 2324 C 211.174 0.08463 -5.22231 0
M  V30 2325 H 212.868 -0.229701 -2.98518 0
M  V30 2326 H 210.414 -0.111913 -1.43564 0
M  V30 2327 H 212.367 2.1165 -3.64393 0
M  V30 2328 H 211.091 2.20994 -2.40477 0
M  V30 2329 H 209.75 0.46871 -3.63591 0
M  V30 2330 H 209.398 2.89883 -4.11068 0
M  V30 2331 H 209.098 1.90521 -5.55856 0
M  V30 2332 H 210.622 2.82614 -5.41259 0
M  V30 2333 H 212.036 0.573509 -5.70424 0
M  V30 2334 H 210.433 -0.160783 -5.99885 0
M  V30 2335 H 211.503 -0.86237 -4.7717 0
M  V30 2336 N 212.846 1.57033 -0.133567 0
M  V30 2337 C 213.809 2.14897 0.796995 0
M  V30 2338 C 214.809 1.0874 1.18458 0
M  V30 2339 O 215.999 1.34446 1.1077 0
M  V30 2340 C 213.131 2.70112 2.07973 0
M  V30 2341 H 214.324 2.98457 0.293873 0
M  V30 2342 H 211.877 1.55871 0.115787 0
M  V30 2343 H 212.612 1.9018 2.62682 0
M  V30 2344 H 212.397 3.47764 1.81115 0
M  V30 2345 H 213.887 3.14738 2.74462 0
M  V30 2346 N 214.325 -0.140222 1.56975 0
M  V30 2347 C 215.55 -0.870414 1.88251 0
M  V30 2348 C 215.975 -1.73637 0.723312 0
M  V30 2349 O 215.333 -1.78329 -0.32689 0
M  V30 2350 C 215.381 -1.69737 3.18154 0
M  V30 2351 O 214.485 -2.80229 3.02565 0
M  V30 2352 H 213.826 -0.242025 0.61832 0
M  V30 2353 H 216.356 -0.128999 2.04193 0
M  V30 2354 H 216.366 -2.09099 3.50345 0
M  V30 2355 H 215.041 -1.06152 4.02125 0
M  V30 2356 H 213.618 -2.44224 2.81796 0
M  V30 2357 N 215.803 -1.52179 -0.40978 0
M  V30 2358 C 216.75 -1.75475 -1.49924 0
M  V30 2359 C 217.72 -0.597175 -1.54994 0
M  V30 2360 O 218.905 -0.834655 -1.71575 0
M  V30 2361 C 216.045 -1.9107 -2.87378 0
M  V30 2362 C 215.158 -3.18717 -2.91622 0
M  V30 2363 C 214.293 -3.24747 -4.20372 0
M  V30 2364 C 213.332 -4.46598 -4.18588 0
M  V30 2365 N 212.469 -4.50025 -5.38908 0
M  V30 2366 H 217.309 -2.68458 -1.29361 0
M  V30 2367 H 214.846 -1.33024 -0.627934 0
M  V30 2368 H 216.804 -1.98096 -3.6717 0
M  V30 2369 H 215.434 -1.01469 -3.06437 0
M  V30 2370 H 214.486 -3.20866 -2.04326 0
M  V30 2371 H 215.798 -4.08544 -2.86169 0
M  V30 2372 H 214.952 -3.30841 -5.08556 0
M  V30 2373 H 213.691 -2.32857 -4.28519 0
M  V30 2374 H 212.696 -4.40652 -3.28794 0
M  V30 2375 H 213.921 -5.39783 -4.12081 0
M  V30 2376 H 211.867 -3.61017 -5.47725 0
M  V30 2377 H 211.784 -5.33697 -5.35447 0
M  V30 2378 H 213.052 -4.60347 -6.29048 0
M  V30 2379 N 217.281 0.66697 -1.42791 0
M  V30 2380 C 218.521 1.43892 -1.4517 0
M  V30 2381 C 218.885 1.91877 -0.0687551 0
M  V30 2382 O 220.086 2.6878 0.0327455 0
M  V30 2383 C 218.357 2.59839 -2.45395 0
M  V30 2384 S 219.916 3.48572 -2.66539 0
M  V30 2385 H 216.734 0.491356 -0.513897 0
M  V30 2386 H 219.336 0.775656 -1.79454 0
M  V30 2387 H 218.04 2.22838 -3.44632 0
M  V30 2388 H 217.571 3.3103 -2.12562 0
M  V30 2389 H 219.586 4.56094 -1.95429 0
M  V30 2390 N 218.759 1.29093 0.90403 0
M  V30 2391 C 219.706 1.13853 2.00764 0
M  V30 2392 C 220.676 0.0330084 1.66067 0
M  V30 2393 O 221.861 0.199733 1.89752 0
M  V30 2394 C 219.001 0.816537 3.35301 0
M  V30 2395 C 218.114 2.00206 3.82807 0
M  V30 2396 C 217.249 1.61983 5.059 0
M  V30 2397 C 216.288 2.77143 5.45764 0
M  V30 2398 N 215.425 2.39346 6.60044 0
M  V30 2399 H 220.265 2.08276 2.13132 0
M  V30 2400 H 217.802 1.03648 1.04381 0
M  V30 2401 H 219.76 0.610557 4.12708 0
M  V30 2402 H 218.39 -0.090779 3.22672 0
M  V30 2403 H 217.442 2.31988 3.01473 0
M  V30 2404 H 218.754 2.86512 4.08304 0
M  V30 2405 H 217.908 1.37649 5.90879 0
M  V30 2406 H 216.647 0.728202 4.82233 0
M  V30 2407 H 215.652 3.02165 4.59322 0
M  V30 2408 H 216.877 3.66964 5.71414 0
M  V30 2409 H 214.823 1.52665 6.37989 0
M  V30 2410 H 214.74 3.19185 6.85315 0
M  V30 2411 H 216.008 2.1832 7.48303 0
M  V30 2412 N 220.237 -1.11381 1.11499 0
M  V30 2413 C 221.485 -1.8277 0.862524 0
M  V30 2414 C 221.806 -1.85097 -0.613534 0
M  V30 2415 O 221.076 -1.32198 -1.4457 0
M  V30 2416 H 219.656 -0.676823 0.316101 0
M  V30 2417 H 222.318 -1.34816 1.4075 0
M  V30 2418 H 221.414 -2.86614 1.23527 0
M  V30 2419 N 221.715 -0.905404 -1.28997 0
M  V30 2420 C 222.678 -0.392253 -2.25819 0
M  V30 2421 C 223.678 0.476753 -1.5357 0
M  V30 2422 O 224.868 0.280994 -1.71919 0
M  V30 2423 C 222 0.438588 -3.38067 0
M  V30 2424 H 223.193 -1.24743 -2.72725 0
M  V30 2425 H 220.746 -0.684051 -1.40536 0
M  V30 2426 H 221.481 1.31352 -2.96508 0
M  V30 2427 H 221.266 -0.184167 -3.91667 0
M  V30 2428 H 222.756 0.78873 -4.10084 0
M  V30 2429 N 223.193 1.4272 -0.668489 0
M  V30 2430 C 224.156 2.292 0.00448567 0
M  V30 2431 C 225.156 1.43001 0.735339 0
M  V30 2432 O 226.346 1.64461 0.57429 0
M  V30 2433 C 223.478 3.25375 1.01705 0
M  V30 2434 H 224.671 2.90199 -0.756608 0
M  V30 2435 H 222.224 1.50254 -0.430506 0
M  V30 2436 H 222.959 2.69301 1.80686 0
M  V30 2437 H 222.744 3.88944 0.496463 0
M  V30 2438 H 224.234 3.90245 1.48655 0
M  V30 2439 N 224.671 0.411399 1.52136 0
M  V30 2440 C 225.917 -0.163888 2.02137 0
M  V30 2441 C 226.25 -1.44597 1.29636 0
M  V30 2442 O 225.525 -1.90272 0.403353 0
M  V30 2443 C 225.808 -0.40927 3.57767 0
M  V30 2444 C 225.661 0.889643 4.40914 0
M  V30 2445 C 226.98 -1.19042 4.23694 0
M  V30 2446 H 224.099 -0.0580896 0.734707 0
M  V30 2447 H 226.741 0.54531 1.82007 0
M  V30 2448 H 224.891 -1.0134 3.7505 0
M  V30 2449 H 226.563 1.52575 4.35337 0
M  V30 2450 H 224.806 1.50011 4.07037 0
M  V30 2451 H 225.477 0.672314 5.4789 0
M  V30 2452 H 227.953 -0.678942 4.10524 0
M  V30 2453 H 226.829 -1.33086 5.32522 0
M  V30 2454 H 227.09 -2.21166 3.82803 0
M  V30 2455 N 226.149 -1.5696 0.141893 0
M  V30 2456 C 227.096 -2.16501 -0.799737 0
M  V30 2457 C 228.066 -1.09643 -1.24771 0
M  V30 2458 O 229.251 -1.3766 -1.32115 0
M  V30 2459 C 226.391 -2.78679 -2.03549 0
M  V30 2460 C 225.504 -3.99914 -1.6338 0
M  V30 2461 C 224.639 -4.50106 -2.82096 0
M  V30 2462 C 223.678 -5.63819 -2.38275 0
M  V30 2463 N 222.815 -6.08651 -3.49983 0
M  V30 2464 H 227.655 -2.96632 -0.285179 0
M  V30 2465 H 225.192 -1.46533 -0.129053 0
M  V30 2466 H 227.15 -3.1287 -2.75986 0
M  V30 2467 H 225.78 -2.012 -2.52425 0
M  V30 2468 H 224.832 -3.71735 -0.807279 0
M  V30 2469 H 226.144 -4.82311 -1.27192 0
M  V30 2470 H 225.298 -4.86325 -3.62729 0
M  V30 2471 H 224.037 -3.66706 -3.21525 0
M  V30 2472 H 223.042 -5.2718 -1.56081 0
M  V30 2473 H 224.267 -6.49 -1.99938 0
M  V30 2474 H 222.213 -5.28188 -3.89042 0
M  V30 2475 H 222.13 -6.85961 -3.17794 0
M  V30 2476 H 223.398 -6.49515 -4.30988 0
M  V30 2477 N 227.627 0.131896 -1.57047 0
M  V30 2478 C 228.557 1.16384 -2.02428 0
M  V30 2479 C 229.538 1.43936 -0.90644 0
M  V30 2480 O 230.723 1.54599 -1.17528 0
M  V30 2481 C 227.853 2.49328 -2.4177 0
M  V30 2482 C 226.807 2.36266 -3.56879 0
M  V30 2483 C 226.133 3.74057 -3.8208 0
M  V30 2484 C 227.433 1.834 -4.89042 0
M  V30 2485 H 229.127 0.786433 -2.88887 0
M  V30 2486 H 226.673 0.376855 -1.38981 0
M  V30 2487 H 228.626 3.21759 -2.7212 0
M  V30 2488 H 227.35 2.88934 -1.52266 0
M  V30 2489 H 226.009 1.66286 -3.26718 0
M  V30 2490 H 225.657 4.11125 -2.89803 0
M  V30 2491 H 225.357 3.66174 -4.59554 0
M  V30 2492 H 226.881 4.48012 -4.1487 0
M  V30 2493 H 228.295 2.45636 -5.18011 0
M  V30 2494 H 226.692 1.8637 -5.70426 0
M  V30 2495 H 227.762 0.790662 -4.7841 0
M  V30 2496 N 229.106 1.52395 0.401703 0
M  V30 2497 C 230.069 1.75636 1.47257 0
M  V30 2498 C 231.069 0.62628 1.48103 0
M  V30 2499 O 232.259 0.894227 1.49497 0
M  V30 2500 C 229.391 1.84553 2.86624 0
M  V30 2501 H 230.584 2.71241 1.27938 0
M  V30 2502 H 228.137 1.42923 0.632662 0
M  V30 2503 H 228.872 0.908882 3.11303 0
M  V30 2504 H 228.657 2.66715 2.87412 0
M  V30 2505 H 230.147 2.04251 3.64241 0
M  V30 2506 N 230.584 -0.659388 1.43143 0
M  V30 2507 C 231.861 -1.41627 1.34912 0
M  V30 2508 C 232.241 -2.11099 -0.00607785 0
M  V30 2509 O 231.589 -2.04353 -1.02236 0
M  V30 2510 C 231.799 -2.40604 2.52805 0
M  V30 2511 C 233.147 -3.04789 2.95616 0
M  V30 2512 O 234.171 -2.50932 2.52807 0
M  V30 2513 O 233.03 -4.02421 3.69756 0
M  V30 2514 H 230.124 -0.63246 0.532844 0
M  V30 2515 H 232.67 -0.686814 1.5518 0
M  V30 2516 H 231.442 -1.88174 3.43083 0
M  V30 2517 H 231.065 -3.21009 2.34604 0
M  V30 2518 N 232.062 -1.29571 -0.897171 0
M  V30 2519 C 233.309 -1.17689 -1.6479 0
M  V30 2520 C 233.637 0.27107 -1.92602 0
M  V30 2521 O 232.892 1.21193 -1.53658 0
M  V30 2522 C 233.191 -1.9382 -3.00281 0
M  V30 2523 C 232.857 -3.43522 -2.92068 0
M  V30 2524 C 231.519 -3.84348 -2.89535 0
M  V30 2525 C 233.871 -4.38906 -2.81089 0
M  V30 2526 C 231.199 -5.18869 -2.73846 0
M  V30 2527 C 233.551 -5.73521 -2.66939 0
M  V30 2528 C 232.215 -6.13601 -2.62774 0
M  V30 2529 H 231.485 -0.430654 -0.603008 0
M  V30 2530 H 234.132 -1.60536 -1.04404 0
M  V30 2531 H 232.437 -1.4357 -3.64547 0
M  V30 2532 H 234.134 -1.82028 -3.57305 0
M  V30 2533 H 230.724 -3.11072 -2.94842 0
M  V30 2534 H 234.908 -4.08315 -2.82121 0
M  V30 2535 H 230.164 -5.4903 -2.69027 0
M  V30 2536 H 234.338 -6.47078 -2.57416 0
M  V30 2537 H 231.965 -7.17786 -2.50375 0
M  V30 2538 N 233.54 1.10788 -1.12088 0
M  V30 2539 C 234.788 1.8231 -0.872205 0
M  V30 2540 C 235.109 1.85419 0.603709 0
M  V30 2541 O 234.379 1.32963 1.43867 0
M  V30 2542 H 232.959 0.675137 -0.319686 0
M  V30 2543 H 235.621 1.34068 -1.41463 0
M  V30 2544 H 234.717 2.85955 -1.25045 0
M  V30 2545 N 235.018 0.912232 1.28515 0
M  V30 2546 C 235.948 0.416403 2.29757 0
M  V30 2547 C 236.929 -0.515194 1.6211 0
M  V30 2548 O 238.114 -0.423253 1.89532 0
M  V30 2549 C 235.244 -0.34572 3.45575 0
M  V30 2550 C 234.198 0.496599 4.25109 0
M  V30 2551 C 233.524 -0.393771 5.33248 0
M  V30 2552 C 234.824 1.75307 4.92001 0
M  V30 2553 H 236.518 1.26249 2.7148 0
M  V30 2554 H 234.064 0.608515 1.30511 0
M  V30 2555 H 236.017 -0.703422 4.15488 0
M  V30 2556 H 234.741 -1.2257 3.02728 0
M  V30 2557 H 233.4 0.8368 3.56922 0
M  V30 2558 H 233.048 -1.27225 4.86644 0
M  V30 2559 H 232.748 0.166209 5.87365 0
M  V30 2560 H 234.272 -0.747389 6.06009 0
M  V30 2561 H 235.686 1.46437 5.54283 0
M  V30 2562 H 234.083 2.25534 5.56106 0
M  V30 2563 H 235.153 2.48176 4.16577 0
M  V30 2564 N 236.496 -1.42363 0.676048 0
M  V30 2565 C 237.459 -2.29199 0.00766941 0
M  V30 2566 C 238.459 -1.43389 -0.727745 0
M  V30 2567 O 239.649 -1.64764 -0.56556 0
M  V30 2568 C 236.781 -3.2591 -0.999785 0
M  V30 2569 H 237.974 -2.89794 0.771988 0
M  V30 2570 H 235.527 -1.50024 0.438468 0
M  V30 2571 H 236.262 -2.70256 -1.79255 0
M  V30 2572 H 236.047 -3.89202 -0.475829 0
M  V30 2573 H 237.537 -3.91028 -1.46583 0
M  V30 2574 N 237.974 -0.419461 -1.51915 0
M  V30 2575 C 239.223 0.154346 -2.01109 0
M  V30 2576 C 239.536 1.45338 -1.30905 0
M  V30 2577 O 240.742 2.10906 -1.7097 0
M  V30 2578 C 239.198 0.325615 -3.58424 0
M  V30 2579 C 238.806 -0.961934 -4.37551 0
M  V30 2580 C 240.55 0.854155 -4.15818 0
M  V30 2581 C 238.457 -0.757287 -5.86531 0
M  V30 2582 H 237.387 0.0614563 -0.751491 0
M  V30 2583 H 240.038 -0.54649 -1.75173 0
M  V30 2584 H 238.42 1.08903 -3.80731 0
M  V30 2585 H 239.594 -1.7323 -4.26999 0
M  V30 2586 H 237.909 -1.41766 -3.91524 0
M  V30 2587 H 240.506 1.02346 -5.24814 0
M  V30 2588 H 240.849 1.83172 -3.73837 0
M  V30 2589 H 241.382 0.149528 -3.97519 0
M  V30 2590 H 238.121 -1.70671 -6.32892 0
M  V30 2591 H 237.641 -0.0264061 -5.99794 0
M  V30 2592 H 239.32 -0.403482 -6.45741 0
M  V30 2593 N 239.452 1.56882 -0.150215 0
M  V30 2594 C 240.362 2.20494 0.801222 0
M  V30 2595 C 241.378 1.19019 1.26927 0
M  V30 2596 O 242.554 1.51607 1.32579 0
M  V30 2597 C 239.619 2.81659 2.02161 0
M  V30 2598 C 238.68 3.9827 1.60249 0
M  V30 2599 C 237.913 4.56508 2.7647 0
M  V30 2600 O 238.136 4.13627 3.92771 0
M  V30 2601 O 237.07 5.46719 2.51757 0
M  V30 2602 H 240.896 3.02315 0.289717 0
M  V30 2603 H 238.481 1.49202 0.0769684 0
M  V30 2604 H 240.363 3.20522 2.73576 0
M  V30 2605 H 239.038 2.02849 2.52258 0
M  V30 2606 H 237.945 3.64117 0.858477 0
M  V30 2607 H 239.278 4.78609 1.14864 0
M  V30 2608 N 240.93 -0.123565 1.57115 0
M  V30 2609 C 242.176 -0.833386 1.84885 0
M  V30 2610 C 242.509 -1.79742 0.735292 0
M  V30 2611 O 241.784 -1.92764 -0.25925 0
M  V30 2612 C 242.067 -1.5873 3.23228 0
M  V30 2613 C 241.92 -0.643183 4.45178 0
M  V30 2614 C 243.239 -2.54453 3.59085 0
M  V30 2615 H 240.358 -0.301518 0.6725 0
M  V30 2616 H 243 -0.097778 1.89748 0
M  V30 2617 H 241.15 -2.21438 3.19214 0
M  V30 2618 H 242.822 -0.0253015 4.61293 0
M  V30 2619 H 241.065 0.0456139 4.33776 0
M  V30 2620 H 241.736 -1.20724 5.38637 0
M  V30 2621 H 244.212 -2.01853 3.63861 0
M  V30 2622 H 243.088 -3.04238 4.5687 0
M  V30 2623 H 243.349 -3.36906 2.86264 0
M  V30 2624 N 242.408 -1.52605 -0.393616 0
M  V30 2625 C 243.34 -1.73303 -1.49995 0
M  V30 2626 C 244.353 -0.613473 -1.50799 0
M  V30 2627 O 245.542 -0.889049 -1.54784 0
M  V30 2628 C 242.642 -1.77245 -2.88855 0
M  V30 2629 C 241.815 -3.06483 -3.12069 0
M  V30 2630 C 240.874 -3.02033 -4.30886 0
M  V30 2631 O 239.9 -3.75907 -4.27414 0
M  V30 2632 N 241.102 -2.20897 -5.36828 0
M  V30 2633 H 243.867 -2.68756 -1.32629 0
M  V30 2634 H 241.428 -1.51036 -0.583083 0
M  V30 2635 H 243.42 -1.7178 -3.66434 0
M  V30 2636 H 241.99 -0.891993 -2.99603 0
M  V30 2637 H 241.21 -3.25474 -2.22396 0
M  V30 2638 H 242.498 -3.91947 -3.2443 0
M  V30 2639 H 241.896 -1.60336 -5.42502 0
M  V30 2640 H 240.453 -2.21275 -6.13091 0
M  V30 2641 N 243.887 0.651787 -1.4349 0
M  V30 2642 C 245.135 1.40888 -1.44897 0
M  V30 2643 C 245.456 1.94856 -0.0749086 0
M  V30 2644 O 244.726 1.74518 0.889956 0
M  V30 2645 H 243.306 0.522887 -0.533478 0
M  V30 2646 H 245.968 0.768609 -1.79104 0
M  V30 2647 H 245.064 2.25052 -2.16236 0
M  V30 2648 N 245.365 1.30045 0.890287 0
M  V30 2649 C 246.275 1.17885 2.02831 0
M  V30 2650 C 247.291 0.0999609 1.73713 0
M  V30 2651 O 248.467 0.313867 1.98939 0
M  V30 2652 C 245.532 0.866079 3.35708 0
M  V30 2653 C 244.593 2.02979 3.78283 0
M  V30 2654 C 243.826 1.73184 5.0482 0
M  V30 2655 O 244.049 0.657237 5.66601 0
M  V30 2656 O 242.983 2.58267 5.43674 0
M  V30 2657 H 246.809 2.13474 2.16015 0
M  V30 2658 H 244.394 1.09587 1.01543 0
M  V30 2659 H 246.276 0.706623 4.15433 0
M  V30 2660 H 244.951 -0.0599443 3.23644 0
M  V30 2661 H 243.858 2.24454 2.99285 0
M  V30 2662 H 245.191 2.93734 3.94944 0
M  V30 2663 N 246.843 -1.10192 1.12674 0
M  V30 2664 C 247.775 -2.16418 0.754701 0
M  V30 2665 C 248.788 -1.61309 -0.21986 0
M  V30 2666 O 249.977 -1.785 -0.000826841 0
M  V30 2667 C 247.077 -3.38762 0.096698 0
M  V30 2668 C 246.25 -4.23307 1.10136 0
M  V30 2669 C 245.309 -5.24092 0.470513 0
M  V30 2670 O 244.335 -5.57906 1.12824 0
M  V30 2671 N 245.537 -5.75491 -0.760948 0
M  V30 2672 H 248.302 -2.48943 1.66875 0
M  V30 2673 H 245.863 -1.25834 1.01869 0
M  V30 2674 H 247.855 -4.03291 -0.337384 0
M  V30 2675 H 246.425 -3.04192 -0.720153 0
M  V30 2676 H 245.645 -3.55036 1.71299 0
M  V30 2677 H 246.933 -4.76624 1.78064 0
M  V30 2678 H 246.331 -5.50222 -1.31424 0
M  V30 2679 H 244.888 -6.41792 -1.13781 0
M  V30 2680 N 248.321 -0.919034 -1.28029 0
M  V30 2681 C 249.253 -0.368762 -2.26214 0
M  V30 2682 C 250.266 0.495716 -1.55069 0
M  V30 2683 O 251.455 0.30974 -1.75792 0
M  V30 2684 C 248.555 0.491049 -3.35324 0
M  V30 2685 C 247.728 -0.352133 -4.3598 0
M  V30 2686 C 246.787 0.443622 -5.24327 0
M  V30 2687 O 245.813 -0.14566 -5.69014 0
M  V30 2688 N 247.015 1.74545 -5.53637 0
M  V30 2689 H 249.78 -1.21273 -2.74068 0
M  V30 2690 H 247.341 -0.785541 -1.41566 0
M  V30 2691 H 249.333 1.03026 -3.91366 0
M  V30 2692 H 247.903 1.23574 -2.87138 0
M  V30 2693 H 247.123 -1.07269 -3.79324 0
M  V30 2694 H 248.411 -0.928883 -5.00249 0
M  V30 2695 H 247.809 2.24666 -5.19174 0
M  V30 2696 H 246.366 2.23138 -6.12416 0
M  V30 2697 N 249.799 1.42003 -0.683588 0
M  V30 2698 C 250.762 2.29191 -0.0198243 0
M  V30 2699 C 251.762 1.43773 0.72013 0
M  V30 2700 O 252.952 1.65061 0.556815 0
M  V30 2701 C 250.084 3.26435 0.982487 0
M  V30 2702 H 251.277 2.8938 -0.787345 0
M  V30 2703 H 248.83 1.49789 -0.446418 0
M  V30 2704 H 249.565 2.71203 1.77819 0
M  V30 2705 H 249.35 3.89449 0.455182 0
M  V30 2706 H 250.84 3.918 1.44508 0
M  V30 2707 N 251.277 0.427512 1.51691 0
M  V30 2708 C 252.523 -0.134744 2.02953 0
M  V30 2709 C 252.878 -1.41235 1.30654 0
M  V30 2710 O 252.171 -1.87168 0.409713 0
M  V30 2711 C 252.365 -0.418249 3.54944 0
M  V30 2712 C 252.194 0.830327 4.41968 0
M  V30 2713 C 250.964 1.36097 4.86627 0
M  V30 2714 C 253.162 1.7137 4.84909 0
M  V30 2715 N 251.144 2.56311 5.57833 0
M  V30 2716 C 252.515 2.76195 5.55082 0
M  V30 2717 C 254.57 1.72928 4.66905 0
M  V30 2718 C 253.273 3.82512 6.09161 0
M  V30 2719 C 255.299 2.78175 5.21894 0
M  V30 2720 C 254.661 3.8172 5.92004 0
M  V30 2721 H 250.76 -0.0103958 0.781931 0
M  V30 2722 H 253.344 0.585981 1.85673 0
M  V30 2723 H 251.515 -1.10801 3.7226 0
M  V30 2724 H 253.247 -0.970999 3.92879 0
M  V30 2725 H 250.002 0.916311 4.64651 0
M  V30 2726 H 250.426 3.17242 5.98069 0
M  V30 2727 H 255.068 0.942081 4.12171 0
M  V30 2728 H 252.786 4.62077 6.62956 0
M  V30 2729 H 256.372 2.8031 5.09821 0
M  V30 2730 H 255.252 4.61821 6.33791 0
M  V30 2731 N 252.755 -1.56801 0.158532 0
M  V30 2732 C 254.002 -1.9649 -0.489679 0
M  V30 2733 C 254.33 -1.04394 -1.6411 0
M  V30 2734 O 253.585 -0.0754401 -1.95555 0
M  V30 2735 C 253.884 -3.4235 -1.02623 0
M  V30 2736 C 253.55 -4.50899 0.00794526 0
M  V30 2737 C 252.212 -4.80312 0.292207 0
M  V30 2738 C 254.564 -5.16333 0.710584 0
M  V30 2739 C 251.892 -5.72461 1.28472 0
M  V30 2740 C 254.244 -6.09553 1.69199 0
M  V30 2741 C 252.908 -6.37339 1.98383 0
M  V30 2742 H 252.178 -0.719009 -0.179186 0
M  V30 2743 H 254.825 -1.8989 0.247798 0
M  V30 2744 H 253.13 -3.45838 -1.84128 0
M  V30 2745 H 254.827 -3.70393 -1.53656 0
M  V30 2746 H 251.417 -4.28015 -0.22379 0
M  V30 2747 H 255.601 -4.93732 0.504174 0
M  V30 2748 H 250.857 -5.92278 1.51714 0
M  V30 2749 H 255.031 -6.59327 2.24189 0
M  V30 2750 H 252.658 -7.08546 2.7544 0
M  V30 2751 N 254.233 0.115231 -1.57178 0
M  V30 2752 C 255.481 0.820727 -1.84685 0
M  V30 2753 C 255.802 1.80237 -0.744279 0
M  V30 2754 O 255.072 1.94529 0.231375 0
M  V30 2755 H 253.652 0.306084 -0.681411 0
M  V30 2756 H 256.314 0.101656 -1.94635 0
M  V30 2757 H 255.41 1.36366 -2.80733 0
M  V30 2758 N 255.711 1.52812 0.385517 0
M  V30 2759 C 256.958 1.68026 1.1302 0
M  V30 2760 C 257.286 0.421934 1.89868 0
M  V30 2761 O 256.541 -0.595749 1.86412 0
M  V30 2762 C 256.84 2.86856 2.13187 0
M  V30 2763 C 256.506 4.24159 1.5297 0
M  V30 2764 C 255.168 4.61501 1.36274 0
M  V30 2765 C 257.52 5.09627 1.09223 0
M  V30 2766 C 254.848 5.81966 0.743837 0
M  V30 2767 C 257.2 6.30719 0.487411 0
M  V30 2768 C 255.864 6.6679 0.307777 0
M  V30 2769 H 255.134 0.614849 0.413571 0
M  V30 2770 H 257.781 1.86962 0.414405 0
M  V30 2771 H 256.086 2.6235 2.90998 0
M  V30 2772 H 257.783 2.95821 2.70722 0
M  V30 2773 H 254.373 3.94746 1.66954 0
M  V30 2774 H 258.557 4.81343 1.20922 0
M  V30 2775 H 253.813 6.08519 0.592891 0
M  V30 2776 H 257.987 6.96259 0.140143 0
M  V30 2777 H 255.614 7.60001 -0.173879 0
M  V30 2778 N 257.189 -0.644168 1.43834 0
M  V30 2779 C 258.152 -1.73857 1.49353 0
M  V30 2780 C 259.152 -1.56315 0.377112 0
M  V30 2781 O 260.342 -1.62048 0.639226 0
M  V30 2782 C 257.474 -3.12819 1.35488 0
M  V30 2783 H 258.667 -1.70342 2.46827 0
M  V30 2784 H 256.22 -0.856652 1.30733 0
M  V30 2785 H 256.955 -3.2194 0.390569 0
M  V30 2786 H 256.74 -3.26958 2.16428 0
M  V30 2787 H 258.23 -3.92606 1.42302 0
M  V30 2788 N 258.668 -1.30515 -0.883378 0
M  V30 2789 C 259.916 -1.19194 -1.63209 0
M  V30 2790 C 260.237 0.253205 -1.93349 0
M  V30 2791 O 259.507 1.17025 -1.57105 0
M  V30 2792 H 258.087 -0.438148 -0.605009 0
M  V30 2793 H 260.749 -1.63663 -1.05832 0
M  V30 2794 H 259.845 -1.75396 -2.58153 0
M  V30 2795 N 260.146 1.09593 -1.13257 0
M  V30 2796 C 261.374 1.855 -0.916378 0
M  V30 2797 C 261.789 1.81069 0.534738 0
M  V30 2798 O 261.146 1.20562 1.37007 0
M  V30 2799 C 261.197 3.33546 -1.39388 0
M  V30 2800 O 260.918 3.37927 -2.78813 0
M  V30 2801 C 262.419 4.26299 -1.21588 0
M  V30 2802 H 259.639 0.585991 -0.326887 0
M  V30 2803 H 262.183 1.38488 -1.5047 0
M  V30 2804 H 260.338 3.77992 -0.848597 0
M  V30 2805 H 260.752 4.30254 -2.9997 0
M  V30 2806 H 262.226 5.28341 -1.59876 0
M  V30 2807 H 262.703 4.38918 -0.157376 0
M  V30 2808 H 263.309 3.87668 -1.7491 0
M  V30 2809 N 261.624 0.925811 1.2754 0
M  V30 2810 C 263.035 0.610102 1.7645 0
M  V30 2811 C 263.386 -0.874723 1.75622 0
M  V30 2812 O 262.511 -1.68444 1.35851 0
M  V30 2813 C 263.106 1.10073 3.20421 0
M  V30 2814 C 261.665 0.835723 3.67005 0
M  V30 2815 C 260.812 1.26054 2.46993 0
M  V30 2816 H 263.763 1.10579 1.13833 0
M  V30 2817 H 263.784 0.447557 3.77859 0
M  V30 2818 H 263.296 2.18143 3.20991 0
M  V30 2819 H 261.397 -0.231249 3.71882 0
M  V30 2820 H 261.51 1.45193 4.56569 0
M  V30 2821 H 259.874 0.679111 2.45479 0
M  V30 2822 H 260.657 2.34984 2.50275 0
M  V30 2823 N 263.102 -1.41638 0.69111 0
M  V30 2824 C 264.35 -2.00902 0.219758 0
M  V30 2825 C 264.671 -1.54994 -1.18329 0
M  V30 2826 O 263.941 -0.778628 -1.79762 0
M  V30 2827 H 262.521 -0.74289 0.0782558 0
M  V30 2828 H 265.183 -1.73327 0.891271 0
M  V30 2829 H 264.279 -3.11224 0.233708 0
M  V30 2830 N 264.58 -0.43555 -1.51462 0
M  V30 2831 C 265.81 0.130053 -2.0619 0
M  V30 2832 C 266.218 1.37164 -1.30317 0
M  V30 2833 O 265.561 1.80225 -0.355598 0
M  V30 2834 C 265.623 0.519418 -3.55728 0
M  V30 2835 C 265.287 -0.615119 -4.52841 0
M  V30 2836 C 266.284 -1.48671 -4.9819 0
M  V30 2837 C 263.969 -0.795341 -4.95963 0
M  V30 2838 C 265.963 -2.52324 -5.8533 0
M  V30 2839 C 263.65 -1.83514 -5.82894 0
M  V30 2840 C 264.648 -2.69748 -6.27475 0
M  V30 2841 O 264.336 -3.71944 -7.1268 0
M  V30 2842 H 264.068 0.0121612 -0.675891 0
M  V30 2843 H 266.622 -0.6129 -1.96043 0
M  V30 2844 H 264.852 1.31505 -3.63653 0
M  V30 2845 H 266.541 1.01597 -3.92979 0
M  V30 2846 H 267.307 -1.359 -4.65571 0
M  V30 2847 H 263.186 -0.133713 -4.60806 0
M  V30 2848 H 266.73 -3.19665 -6.20048 0
M  V30 2849 H 262.627 -1.96306 -6.14926 0
M  V30 2850 H 263.395 -3.68503 -7.30854 0
M  V30 2851 N 266.058 1.56714 -0.166846 0
M  V30 2852 C 266.988 2.20754 0.760913 0
M  V30 2853 C 267.969 1.16178 1.24244 0
M  V30 2854 O 269.154 1.44592 1.29641 0
M  V30 2855 C 266.284 2.84478 1.99223 0
M  V30 2856 C 265.238 3.95053 1.64672 0
M  V30 2857 C 264.564 4.45805 2.95232 0
M  V30 2858 C 265.864 5.14865 0.878155 0
M  V30 2859 H 267.558 2.98537 0.22713 0
M  V30 2860 H 265.104 1.43596 0.107805 0
M  V30 2861 H 267.057 3.27951 2.64624 0
M  V30 2862 H 265.781 2.04056 2.55007 0
M  V30 2863 H 264.44 3.52228 1.01641 0
M  V30 2864 H 264.088 3.62181 3.49047 0
M  V30 2865 H 263.788 5.204 2.7287 0
M  V30 2866 H 265.312 4.91962 3.6167 0
M  V30 2867 H 266.726 5.55059 1.43466 0
M  V30 2868 H 265.123 5.95348 0.753738 0
M  V30 2869 H 266.193 4.84735 -0.126377 0
M  V30 2870 N 267.536 -0.106894 1.57237 0
M  V30 2871 C 268.761 -0.830287 1.90055 0
M  V30 2872 C 269.186 -1.72064 0.75998 0
M  V30 2873 O 268.544 -1.78982 -0.288991 0
M  V30 2874 C 268.592 -1.6295 3.21683 0
M  V30 2875 O 267.696 -2.73748 3.08441 0
M  V30 2876 H 267.037 -0.228855 0.623315 0
M  V30 2877 H 269.567 -0.085658 2.04421 0
M  V30 2878 H 269.577 -2.01621 3.54701 0
M  V30 2879 H 268.252 -0.975989 4.04286 0
M  V30 2880 H 266.829 -2.38192 2.86913 0
M  V30 2881 N 269.014 -1.53014 -0.377408 0
M  V30 2882 C 270.425 -1.60438 -0.954798 0
M  V30 2883 C 270.776 -0.464418 -1.90624 0
M  V30 2884 O 269.901 0.41087 -2.12464 0
M  V30 2885 C 270.496 -2.90797 -1.73847 0
M  V30 2886 C 269.055 -3.00595 -2.26538 0
M  V30 2887 C 268.202 -2.55645 -1.07429 0
M  V30 2888 H 271.153 -1.57926 -0.156575 0
M  V30 2889 H 271.174 -2.77935 -2.5987 0
M  V30 2890 H 270.686 -3.73746 -1.04574 0
M  V30 2891 H 268.787 -2.22208 -2.99089 0
M  V30 2892 H 268.9 -4.05456 -2.5523 0
M  V30 2893 H 267.264 -2.10239 -1.43777 0
M  V30 2894 H 268.047 -3.41 -0.396728 0
M  V30 2895 N 270.492 0.636531 -1.44174 0
M  V30 2896 C 271.402 1.77754 -1.53103 0
M  V30 2897 C 272.418 1.68928 -0.417034 0
M  V30 2898 O 273.594 1.89801 -0.6736 0
M  V30 2899 C 270.659 3.14115 -1.46741 0
M  V30 2900 C 269.72 3.34612 -2.68948 0
M  V30 2901 C 268.953 4.64467 -2.6288 0
M  V30 2902 O 269.176 5.44919 -1.68581 0
M  V30 2903 O 268.11 4.87049 -3.53648 0
M  V30 2904 H 271.936 1.73174 -2.49489 0
M  V30 2905 H 269.521 0.79709 -1.2636 0
M  V30 2906 H 271.403 3.95412 -1.45696 0
M  V30 2907 H 270.078 3.19249 -0.534975 0
M  V30 2908 H 268.985 2.53014 -2.75562 0
M  V30 2909 H 270.318 3.34336 -3.61221 0
M  V30 2910 N 271.97 1.30982 0.876444 0
M  V30 2911 C 273.216 1.20474 1.63138 0
M  V30 2912 C 273.549 -0.238096 1.92735 0
M  V30 2913 O 272.824 -1.1692 1.55435 0
M  V30 2914 C 273.107 2.04244 2.96574 0
M  V30 2915 C 272.96 3.56793 2.73896 0
M  V30 2916 C 274.279 1.88684 3.97601 0
M  V30 2917 H 271.398 0.439001 0.591985 0
M  V30 2918 H 274.04 1.60704 1.01361 0
M  V30 2919 H 272.19 1.70063 3.493 0
M  V30 2920 H 273.862 4.01077 2.27892 0
M  V30 2921 H 272.105 3.80548 2.08245 0
M  V30 2922 H 272.776 4.10706 3.68815 0
M  V30 2923 H 275.252 2.18584 3.54062 0
M  V30 2924 H 274.128 2.4961 4.88862 0
M  V30 2925 H 274.389 0.848343 4.33884 0
M  V30 2926 N 273.449 -1.08991 1.13837 0
M  V30 2927 C 274.379 -2.17771 0.842507 0
M  V30 2928 C 275.36 -1.6892 -0.20001 0
M  V30 2929 O 276.545 -1.94113 -0.0579731 0
M  V30 2930 C 273.675 -3.4589 0.312644 0
M  V30 2931 C 272.629 -4.08099 1.28992 0
M  V30 2932 C 271.955 -5.31098 0.619623 0
M  V30 2933 C 273.255 -4.50077 2.65005 0
M  V30 2934 H 274.949 -2.42777 1.75213 0
M  V30 2935 H 272.495 -1.16682 0.843875 0
M  V30 2936 H 274.448 -4.21297 0.0933043 0
M  V30 2937 H 273.172 -3.20419 -0.632382 0
M  V30 2938 H 271.831 -3.34717 1.49533 0
M  V30 2939 H 271.479 -5.0191 -0.33102 0
M  V30 2940 H 271.179 -5.73674 1.27167 0
M  V30 2941 H 272.703 -6.09224 0.409669 0
M  V30 2942 H 274.117 -5.16688 2.48407 0
M  V30 2943 H 272.514 -5.03553 3.26427 0
M  V30 2944 H 273.584 -3.62257 3.22332 0
M  V30 2945 N 274.927 -0.932562 -1.27047 0
M  V30 2946 C 276.343 -0.633544 -1.46487 0
M  V30 2947 C 276.543 0.815746 -1.84249 0
M  V30 2948 O 275.599 1.59319 -1.95892 0
M  V30 2949 C 276.912 -1.58758 -2.55375 0
M  V30 2950 C 278.46 -1.59634 -2.69232 0
M  V30 2951 C 278.935 -2.53747 -3.81283 0
M  V30 2952 N 280.426 -2.51982 -3.88664 0
M  V30 2953 C 281.161 -3.21491 -4.74796 0
M  V30 2954 N 280.657 -4.00395 -5.65381 0
M  V30 2955 N 282.45 -3.10485 -4.68568 0
M  V30 2956 H 274.601 -1.86946 -1.00821 0
M  V30 2957 H 276.864 -0.802897 -0.504044 0
M  V30 2958 H 276.57 -2.62172 -2.34432 0
M  V30 2959 H 276.444 -1.33301 -3.52861 0
M  V30 2960 H 278.831 -0.569488 -2.89553 0
M  V30 2961 H 278.912 -1.89142 -1.72218 0
M  V30 2962 H 278.556 -3.56545 -3.61715 0
M  V30 2963 H 278.486 -2.21532 -4.77735 0
M  V30 2964 H 280.977 -1.94681 -3.23895 0
M  V30 2965 H 281.29 -4.50406 -6.27976 0
M  V30 2966 H 279.635 -4.04498 -5.65161 0
M  V30 2967 H 282.826 -2.48331 -3.96799 0
M  V30 2968 H 282.999 -3.64925 -5.35475 0
M  V30 2969 N 276.405 1.4127 -0.698611 0
M  V30 2970 C 277.352 2.30773 -0.0352094 0
M  V30 2971 C 278.322 1.47273 0.768111 0
M  V30 2972 O 279.507 1.76053 0.735524 0
M  V30 2973 C 276.647 3.33346 0.893 0
M  V30 2974 C 275.76 4.31924 0.0809695 0
M  V30 2975 C 274.895 5.21566 1.0071 0
M  V30 2976 C 273.934 6.11811 0.188155 0
M  V30 2977 N 273.071 6.93926 1.06825 0
M  V30 2978 H 277.911 2.86943 -0.804207 0
M  V30 2979 H 275.448 1.4132 -0.408294 0
M  V30 2980 H 277.406 3.91368 1.44523 0
M  V30 2981 H 276.036 2.78719 1.62836 0
M  V30 2982 H 275.088 3.75825 -0.588224 0
M  V30 2983 H 276.4 4.95716 -0.553801 0
M  V30 2984 H 275.554 5.84437 1.62845 0
M  V30 2985 H 274.293 4.58008 1.67572 0
M  V30 2986 H 273.298 5.47986 -0.446254 0
M  V30 2987 H 274.523 6.77425 -0.476716 0
M  V30 2988 H 272.469 6.32973 1.72283 0
M  V30 2989 H 272.386 7.54416 0.489123 0
M  V30 2990 H 273.654 7.61262 1.67632 0
M  V30 2991 N 277.883 0.443576 1.51229 0
M  V30 2992 C 279.16 -0.181038 1.9476 0
M  V30 2993 C 279.54 -1.59523 1.38259 0
M  V30 2994 O 278.888 -2.2122 0.572198 0
M  V30 2995 C 279.098 -0.152422 3.48667 0
M  V30 2996 C 280.446 -0.354923 4.23114 0
M  V30 2997 O 281.47 -0.230257 3.55455 0
M  V30 2998 O 280.329 -0.603674 5.43156 0
M  V30 2999 H 277.423 -0.1266 0.817252 0
M  V30 3000 H 279.969 0.502004 1.62105 0
M  V30 3001 H 278.741 0.836022 3.82265 0
M  V30 3002 H 278.364 -0.878107 3.87782 0
M  V30 3003 N 279.361 -1.56624 0.175154 0
M  V30 3004 C 280.772 -1.83561 -0.340916 0
M  V30 3005 C 281.123 -1.09511 -1.62794 0
M  V30 3006 O 280.248 -0.349389 -2.13561 0
M  V30 3007 C 280.843 -3.32979 -0.625313 0
M  V30 3008 C 279.402 -3.60399 -1.08581 0
M  V30 3009 C 278.549 -2.77024 -0.123722 0
M  V30 3010 H 281.5 -1.53593 0.399344 0
M  V30 3011 H 281.521 -3.50666 -1.47694 0
M  V30 3012 H 281.033 -3.86847 0.311575 0
M  V30 3013 H 279.134 -3.11945 -2.03767 0
M  V30 3014 H 279.247 -4.68711 -0.992317 0
M  V30 3015 H 277.611 -2.46993 -0.621821 0
M  V30 3016 H 278.394 -3.33674 0.807256 0
M  V30 3017 N 280.839 0.0985539 -1.57292 0
M  V30 3018 C 282.069 0.815135 -1.8984 0
M  V30 3019 C 282.477 1.7297 -0.766679 0
M  V30 3020 O 281.82 1.81698 0.270483 0
M  V30 3021 C 281.882 1.6842 -3.17608 0
M  V30 3022 C 281.546 0.94182 -4.4719 0
M  V30 3023 C 282.543 0.273212 -5.19182 0
M  V30 3024 C 280.228 0.916927 -4.9386 0
M  V30 3025 C 282.222 -0.410361 -6.36078 0
M  V30 3026 C 279.909 0.229567 -6.10669 0
M  V30 3027 C 280.907 -0.432902 -6.81627 0
M  V30 3028 O 280.595 -1.10925 -7.9621 0
M  V30 3029 H 280.327 0.238501 -0.632529 0
M  V30 3030 H 282.881 0.0812659 -2.05239 0
M  V30 3031 H 281.111 2.46022 -2.98345 0
M  V30 3032 H 282.8 2.27704 -3.36015 0
M  V30 3033 H 283.566 0.283927 -4.84168 0
M  V30 3034 H 279.445 1.42201 -4.3852 0
M  V30 3035 H 282.989 -0.928013 -6.914 0
M  V30 3036 H 278.886 0.216686 -6.45136 0
M  V30 3037 H 279.654 -1.01579 -8.12172 0
M  V30 3038 N 282.317 1.53212 0.369288 0
M  V30 3039 C 283.565 1.68881 1.11012 0
M  V30 3040 C 283.886 0.441285 1.89941 0
M  V30 3041 O 283.156 -0.544623 1.88177 0
M  V30 3042 H 281.736 0.622569 0.412816 0
M  V30 3043 H 284.398 1.90391 0.416802 0
M  V30 3044 H 283.494 2.54822 1.80201 0
M  V30 3045 N 283.795 -0.628877 1.44509 0
M  V30 3046 C 284.742 -1.74074 1.51549 0
M  V30 3047 C 285.712 -1.62084 0.363021 0
M  V30 3048 O 286.897 -1.81975 0.573567 0
M  V30 3049 C 284.037 -3.12328 1.46784 0
M  V30 3050 C 283.15 -3.35277 2.72422 0
M  V30 3051 C 282.285 -4.63515 2.59475 0
M  V30 3052 C 281.324 -4.7965 3.80266 0
M  V30 3053 N 280.461 -5.99168 3.65981 0
M  V30 3054 H 285.301 -1.67392 2.46544 0
M  V30 3055 H 282.838 -0.816527 1.22357 0
M  V30 3056 H 284.796 -3.92286 1.42012 0
M  V30 3057 H 283.426 -3.18018 0.553544 0
M  V30 3058 H 282.478 -2.49242 2.87372 0
M  V30 3059 H 283.79 -3.43078 3.62076 0
M  V30 3060 H 282.944 -5.51638 2.52548 0
M  V30 3061 H 281.683 -4.58076 1.67384 0
M  V30 3062 H 280.688 -3.89957 3.87574 0
M  V30 3063 H 281.913 -4.86902 4.73395 0
M  V30 3064 H 279.859 -5.94814 2.76644 0
M  V30 3065 H 279.776 -6.08035 4.49254 0
M  V30 3066 H 281.044 -6.89846 3.6295 0
M  V30 3067 N 285.273 -1.31445 -0.869486 0
M  V30 3068 C 286.684 -1.19042 -1.43826 0
M  V30 3069 C 287.035 0.202919 -1.95148 0
M  V30 3070 O 286.16 1.10071 -1.86315 0
M  V30 3071 C 286.755 -2.15499 -2.6143 0
M  V30 3072 C 285.314 -2.07028 -3.14351 0
M  V30 3073 C 284.461 -2.04701 -1.87063 0
M  V30 3074 H 287.412 -1.43489 -0.677984 0
M  V30 3075 H 287.433 -1.74488 -3.38134 0
M  V30 3076 H 286.945 -3.16899 -2.24046 0
M  V30 3077 H 285.046 -1.08825 -3.56354 0
M  V30 3078 H 285.159 -2.96157 -3.766 0
M  V30 3079 H 283.523 -1.49724 -2.06046 0
M  V30 3080 H 284.306 -3.07857 -1.51917 0
M  V30 3081 N 286.751 1.08385 -1.14413 0
M  V30 3082 C 287.997 1.81044 -0.913834 0
M  V30 3083 C 288.33 1.86004 0.558209 0
M  V30 3084 O 287.605 1.33606 1.4135 0
M  V30 3085 C 287.888 3.26648 -1.51569 0
M  V30 3086 C 287.741 3.29895 -3.0576 0
M  V30 3087 C 289.06 4.23629 -1.19273 0
M  V30 3088 H 286.179 0.65727 -0.333414 0
M  V30 3089 H 288.821 1.26896 -1.41412 0
M  V30 3090 H 286.971 3.72889 -1.09023 0
M  V30 3091 H 288.643 2.91977 -3.57137 0
M  V30 3092 H 286.886 2.69163 -3.40197 0
M  V30 3093 H 287.557 4.32516 -3.42977 0
M  V30 3094 H 290.033 3.85727 -1.56057 0
M  V30 3095 H 288.909 5.23822 -1.64017 0
M  V30 3096 H 289.17 4.41968 -0.108068 0
M  V30 3097 N 288.23 0.939286 1.26551 0
M  V30 3098 C 289.507 0.5038 1.89001 0
M  V30 3099 C 289.887 -1.01854 1.84903 0
M  V30 3100 O 289.235 -1.87773 1.30206 0
M  V30 3101 C 289.445 1.063 3.32417 0
M  V30 3102 C 290.793 1.13051 4.09273 0
M  V30 3103 O 291.817 1.01345 3.41479 0
M  V30 3104 O 290.676 1.31233 5.30509 0
M  V30 3105 H 287.77 0.163897 0.810597 0
M  V30 3106 H 290.316 1.03173 1.34735 0
M  V30 3107 H 289.088 2.10665 3.29752 0
M  V30 3108 H 288.711 0.517408 3.94219 0
M  V30 3109 N 289.708 -1.40897 0.706093 0
M  V30 3110 C 290.957 -2.00284 0.238574 0
M  V30 3111 C 291.27 -1.56604 -1.17194 0
M  V30 3112 O 292.476 -2.08624 -1.73748 0
M  V30 3113 C 290.932 -3.57934 0.375623 0
M  V30 3114 C 290.54 -4.10591 1.79217 0
M  V30 3115 C 292.284 -4.24488 -0.0315857 0
M  V30 3116 C 290.191 -5.60712 1.88032 0
M  V30 3117 H 289.121 -0.749144 0.0854398 0
M  V30 3118 H 291.772 -1.61251 0.875813 0
M  V30 3119 H 290.154 -3.94622 -0.330042 0
M  V30 3120 H 291.328 -3.85301 2.52745 0
M  V30 3121 H 289.643 -3.56601 2.15 0
M  V30 3122 H 292.24 -5.34698 0.0136842 0
M  V30 3123 H 292.583 -4.02261 -1.072 0
M  V30 3124 H 293.116 -3.92873 0.624181 0
M  V30 3125 H 289.855 -5.87781 2.90161 0
M  V30 3126 H 289.375 -5.87896 1.18903 0
M  V30 3127 H 291.054 -6.25658 1.64805 0
M  V30 3128 N 291.186 -0.45159 -1.50991 0
M  V30 3129 C 292.432 0.102439 -2.03142 0
M  V30 3130 C 292.787 1.39138 -1.32884 0
M  V30 3131 O 292.08 1.86493 -0.439438 0
M  V30 3132 C 292.274 0.361728 -3.55565 0
M  V30 3133 C 292.103 -0.900535 -4.40591 0
M  V30 3134 C 290.873 -1.43821 -4.844 0
M  V30 3135 C 293.071 -1.79063 -4.82121 0
M  V30 3136 N 291.053 -2.65153 -5.53685 0
M  V30 3137 C 292.424 -2.84991 -5.50618 0
M  V30 3138 C 294.479 -1.80334 -4.64095 0
M  V30 3139 C 293.182 -3.92155 -6.02998 0
M  V30 3140 C 295.208 -2.86442 -5.17402 0
M  V30 3141 C 294.57 -3.9109 -5.85857 0
M  V30 3142 H 290.669 -0.00204537 -0.781997 0
M  V30 3143 H 293.253 -0.615446 -1.84717 0
M  V30 3144 H 291.424 1.04865 -3.73976 0
M  V30 3145 H 293.156 0.908372 -3.94374 0
M  V30 3146 H 289.911 -0.990117 -4.63135 0
M  V30 3147 H 290.335 -3.26717 -5.92946 0
M  V30 3148 H 294.977 -1.00753 -4.1062 0
M  V30 3149 H 292.695 -4.72565 -6.55521 0
M  V30 3150 H 296.281 -2.88386 -5.05297 0
M  V30 3151 H 295.161 -4.71845 -6.26364 0
M  V30 3152 N 292.664 1.56529 -0.183458 0
M  V30 3153 C 293.627 2.17324 0.728223 0
M  V30 3154 C 294.627 1.12453 1.14939 0
M  V30 3155 O 295.817 1.37902 1.06437 0
M  V30 3156 C 292.949 2.76591 1.99274 0
M  V30 3157 H 294.142 2.99241 0.198772 0
M  V30 3158 H 291.695 1.5616 0.0661391 0
M  V30 3159 H 292.43 1.98441 2.56499 0
M  V30 3160 H 292.215 3.5335 1.69959 0
M  V30 3161 H 293.705 3.23311 2.6431 0
M  V30 3162 N 294.142 -0.090211 1.57342 0
M  V30 3163 C 295.382 -0.798365 1.88163 0
M  V30 3164 C 295.746 -1.75662 0.775046 0
M  V30 3165 O 296.947 -2.50849 0.965816 0
M  V30 3166 C 295.218 -1.50376 3.24225 0
M  V30 3167 S 296.777 -2.24952 3.76752 0
M  V30 3168 H 293.595 -0.265883 0.659414 0
M  V30 3169 H 296.197 -0.055264 1.95422 0
M  V30 3170 H 294.901 -0.792286 4.0268 0
M  V30 3171 H 294.432 -2.28666 3.20118 0
M  V30 3172 H 296.447 -3.51173 3.5056 0
M  V30 3173 N 295.62 -1.53406 -0.361157 0
M  V30 3174 C 296.868 -1.69467 -1.10115 0
M  V30 3175 C 297.189 -0.451352 -1.89705 0
M  V30 3176 O 296.459 0.534636 -1.88463 0
M  V30 3177 H 295.039 -0.624749 -0.409508 0
M  V30 3178 H 297.701 -1.90609 -0.406699 0
M  V30 3179 H 296.797 -2.55774 -1.78847 0
M  V30 3180 N 297.098 0.621204 -1.44841 0
M  V30 3181 C 298.344 1.3826 -1.48365 0
M  V30 3182 C 298.677 1.93831 -0.119624 0
M  V30 3183 O 297.952 1.74251 0.864111 0
M  V30 3184 C 298.235 2.54058 -2.55199 0
M  V30 3185 C 298.088 2.03772 -4.00995 0
M  V30 3186 C 299.407 3.56225 -2.58442 0
M  V30 3187 H 296.526 0.501374 -0.540179 0
M  V30 3188 H 299.168 0.7015 -1.76576 0
M  V30 3189 H 297.318 3.12162 -2.31274 0
M  V30 3190 H 298.99 1.50423 -4.36086 0
M  V30 3191 H 297.233 1.34876 -4.12299 0
M  V30 3192 H 297.904 2.87185 -4.71411 0
M  V30 3193 H 300.38 3.07939 -2.79844 0
M  V30 3194 H 299.256 4.34756 -3.3508 0
M  V30 3195 H 299.517 4.10949 -1.63013 0
M  V30 3196 N 298.576 1.31904 0.862503 0
M  V30 3197 C 299.825 1.21373 1.61094 0
M  V30 3198 C 300.138 -0.22504 1.94301 0
M  V30 3199 O 301.344 -0.452121 2.67709 0
M  V30 3200 C 299.8 2.12525 2.9045 0
M  V30 3201 C 299.408 3.61441 2.64697 0
M  V30 3202 C 301.152 2.10813 3.68454 0
M  V30 3203 C 299.059 4.44578 3.90006 0
M  V30 3204 H 297.989 0.450705 0.604468 0
M  V30 3205 H 300.64 1.56811 0.953027 0
M  V30 3206 H 299.022 1.69994 3.57656 0
M  V30 3207 H 300.196 4.12264 2.05851 0
M  V30 3208 H 298.511 3.65205 2.00036 0
M  V30 3209 H 301.108 2.70167 4.61426 0
M  V30 3210 H 301.451 1.09713 4.01583 0
M  V30 3211 H 301.984 2.51583 3.08141 0
M  V30 3212 H 298.723 5.46461 3.62023 0
M  V30 3213 H 298.243 3.98508 4.48276 0
M  V30 3214 H 299.922 4.57176 4.5782 0
M  V30 3215 N 300.054 -1.07777 1.14986 0
M  V30 3216 C 300.984 -2.16865 0.865557 0
M  V30 3217 C 301.965 -1.69123 -0.182083 0
M  V30 3218 O 303.15 -1.94164 -0.0373815 0
M  V30 3219 C 300.28 -3.45539 0.349313 0
M  V30 3220 C 299.234 -4.06708 1.33313 0
M  V30 3221 C 298.56 -5.30411 0.675918 0
M  V30 3222 C 299.86 -4.47241 2.69764 0
M  V30 3223 H 301.554 -2.40905 1.77778 0
M  V30 3224 H 299.1 -1.15781 0.856203 0
M  V30 3225 H 301.053 -4.21174 0.137983 0
M  V30 3226 H 299.777 -3.21072 -0.598362 0
M  V30 3227 H 298.436 -3.33112 1.53075 0
M  V30 3228 H 298.084 -5.02232 -0.277767 0
M  V30 3229 H 297.784 -5.72293 1.33244 0
M  V30 3230 H 299.308 -6.08755 0.474262 0
M  V30 3231 H 300.722 -5.14025 2.53873 0
M  V30 3232 H 299.119 -5.00062 3.3175 0
M  V30 3233 H 300.189 -3.58818 3.26156 0
M  V30 3234 N 301.532 -0.945985 -1.26051 0
M  V30 3235 C 302.762 -0.612136 -1.97323 0
M  V30 3236 C 303.17 0.818171 -1.70595 0
M  V30 3237 O 302.513 1.55777 -0.973613 0
M  V30 3238 C 302.575 -0.780347 -3.50929 0
M  V30 3239 C 302.239 -2.18619 -4.01317 0
M  V30 3240 C 303.236 -3.16209 -4.12683 0
M  V30 3241 C 300.921 -2.50805 -4.35203 0
M  V30 3242 C 302.915 -4.44085 -4.57238 0
M  V30 3243 C 300.602 -3.78912 -4.79446 0
M  V30 3244 C 301.6 -4.75365 -4.90425 0
M  V30 3245 O 301.288 -6.01191 -5.3369 0
M  V30 3246 H 301.02 -0.229134 -0.635982 0
M  V30 3247 H 303.574 -1.27036 -1.61404 0
M  V30 3248 H 301.804 -0.0649864 -3.86645 0
M  V30 3249 H 303.493 -0.448842 -4.03411 0
M  V30 3250 H 304.259 -2.92668 -3.86744 0
M  V30 3251 H 300.138 -1.76463 -4.2589 0
M  V30 3252 H 303.682 -5.19373 -4.65723 0
M  V30 3253 H 299.579 -4.02265 -5.0483 0
M  V30 3254 H 300.347 -6.04442 -5.51899 0
M  V30 3255 N 303.011 1.40521 -0.713556 0
M  V30 3256 C 304.26 2.00155 -0.249192 0
M  V30 3257 C 304.573 1.57224 1.16362 0
M  V30 3258 O 305.779 2.09542 1.72639 0
M  V30 3259 C 304.235 3.5773 -0.3946 0
M  V30 3260 C 303.843 4.09635 -1.81392 0
M  V30 3261 C 305.587 4.24499 0.00907364 0
M  V30 3262 C 303.494 5.59707 -1.91003 0
M  V30 3263 H 302.424 0.74868 -0.0894114 0
M  V30 3264 H 305.075 1.60784 -0.884352 0
M  V30 3265 H 303.457 3.94792 0.30911 0
M  V30 3266 H 304.631 3.83955 -2.54785 0
M  V30 3267 H 302.946 3.55456 -2.16888 0
M  V30 3268 H 305.543 5.34683 -0.0420404 0
M  V30 3269 H 305.886 4.02824 1.05065 0
M  V30 3270 H 306.419 3.92536 -0.645007 0
M  V30 3271 H 303.158 5.86234 -2.93275 0
M  V30 3272 H 302.678 5.87258 -1.22019 0
M  V30 3273 H 304.357 6.24776 -1.6812 0
M  V30 3274 N 304.489 0.459591 1.5075 0
M  V30 3275 C 305.419 -0.330644 2.31147 0
M  V30 3276 C 306.4 -1.00087 1.37538 0
M  V30 3277 O 307.585 -1.00025 1.66459 0
M  V30 3278 C 304.715 -1.41958 3.16962 0
M  V30 3279 C 303.669 -0.871608 4.19031 0
M  V30 3280 C 302.995 -2.05797 4.9351 0
M  V30 3281 C 304.295 0.109251 5.22186 0
M  V30 3282 H 305.989 0.340336 2.97459 0
M  V30 3283 H 303.535 0.165119 1.4305 0
M  V30 3284 H 305.488 -1.9798 3.71997 0
M  V30 3285 H 304.212 -2.11917 2.48513 0
M  V30 3286 H 302.871 -0.333442 3.6508 0
M  V30 3287 H 302.519 -2.74427 4.21544 0
M  V30 3288 H 302.219 -1.6976 5.62544 0
M  V30 3289 H 303.743 -2.62331 5.51375 0
M  V30 3290 H 305.157 -0.361405 5.7216 0
M  V30 3291 H 303.554 0.383316 5.98875 0
M  V30 3292 H 304.624 1.03887 4.73641 0
M  V30 3293 N 305.967 -1.56429 0.191757 0
M  V30 3294 C 306.897 -2.21937 -0.725696 0
M  V30 3295 C 307.878 -1.1814 -1.2238 0
M  V30 3296 O 309.063 -1.46636 -1.27325 0
M  V30 3297 C 306.193 -2.87611 -1.94672 0
M  V30 3298 C 305.147 -3.97623 -1.58366 0
M  V30 3299 C 304.473 -4.50446 -2.88102 0
M  V30 3300 C 305.773 -5.16197 -0.796133 0
M  V30 3301 H 307.467 -2.98861 -0.179606 0
M  V30 3302 H 305.013 -1.43749 -0.0849464 0
M  V30 3303 H 306.966 -3.3212 -2.59373 0
M  V30 3304 H 305.69 -2.08087 -2.51728 0
M  V30 3305 H 304.349 -3.53801 -0.960247 0
M  V30 3306 H 303.997 -3.67688 -3.43241 0
M  V30 3307 H 303.697 -5.24675 -2.64556 0
M  V30 3308 H 305.221 -4.97654 -3.53798 0
M  V30 3309 H 306.635 -5.57271 -1.34618 0
M  V30 3310 H 305.032 -5.96471 -0.658928 0
M  V30 3311 H 306.102 -4.84473 0.203478 0
M  V30 3312 N 307.445 0.0818655 -1.57387 0
M  V30 3313 C 308.691 0.784074 -1.8703 0
M  V30 3314 C 309.024 1.77729 -0.782689 0
M  V30 3315 O 308.299 1.93384 0.208051 0
M  V30 3316 C 308.582 1.50105 -3.27323 0
M  V30 3317 C 308.435 0.524925 -4.46727 0
M  V30 3318 C 309.754 2.44843 -3.65705 0
M  V30 3319 H 306.873 0.283582 -0.680257 0
M  V30 3320 H 309.515 0.0474352 -1.89941 0
M  V30 3321 H 307.665 2.12897 -3.24972 0
M  V30 3322 H 309.337 -0.0970111 -4.61198 0
M  V30 3323 H 307.58 -0.160606 -4.33503 0
M  V30 3324 H 308.251 1.064 -5.41648 0
M  V30 3325 H 310.727 1.92135 -3.69085 0
M  V30 3326 H 309.603 2.92018 -4.64776 0
M  V30 3327 H 309.864 3.29197 -2.95096 0
M  V30 3328 N 308.923 1.53595 0.353017 0
M  V30 3329 C 310.171 1.70049 1.09215 0
M  V30 3330 C 310.492 0.461406 1.89463 0
M  V30 3331 O 309.762 -0.524633 1.88744 0
M  V30 3332 H 308.342 0.626912 0.40619 0
M  V30 3333 H 311.004 1.90822 0.396585 0
M  V30 3334 H 310.1 2.56718 1.77488 0
M  V30 3335 N 310.401 -0.613514 1.45168 0
M  V30 3336 C 311.631 -1.39743 1.52169 0
M  V30 3337 C 312.039 -1.88596 0.151086 0
M  V30 3338 O 311.382 -1.6251 -0.856521 0
M  V30 3339 C 311.444 -2.64035 2.43979 0
M  V30 3340 C 311.108 -2.36861 3.90827 0
M  V30 3341 C 312.105 -1.97591 4.80889 0
M  V30 3342 C 309.79 -2.49956 4.35692 0
M  V30 3343 C 311.784 -1.71768 6.1382 0
M  V30 3344 C 309.471 -2.23747 5.68665 0
M  V30 3345 C 310.469 -1.84714 6.57548 0
M  V30 3346 O 310.157 -1.58809 7.88058 0
M  V30 3347 H 309.889 -0.434382 0.517966 0
M  V30 3348 H 312.443 -0.75587 1.90986 0
M  V30 3349 H 310.673 -3.3089 2.00122 0
M  V30 3350 H 312.362 -3.26069 2.41731 0
M  V30 3351 H 313.128 -1.87015 4.47493 0
M  V30 3352 H 309.007 -2.79305 3.66756 0
M  V30 3353 H 312.551 -1.41227 6.83155 0
M  V30 3354 H 308.448 -2.33938 6.01617 0
M  V30 3355 H 309.216 -1.7291 8.00028 0
M  V30 3356 N 311.879 -1.3236 -0.855495 0
M  V30 3357 C 313.29 -1.2056 -1.42556 0
M  V30 3358 C 313.641 0.182209 -1.95352 0
M  V30 3359 O 312.766 1.08088 -1.87472 0
M  V30 3360 C 313.361 -2.1826 -2.59129 0
M  V30 3361 C 311.92 -2.10351 -3.12137 0
M  V30 3362 C 311.067 -2.06674 -1.84882 0
M  V30 3363 H 314.018 -1.442 -0.662727 0
M  V30 3364 H 314.039 -1.78064 -3.36264 0
M  V30 3365 H 313.551 -3.19257 -2.20673 0
M  V30 3366 H 311.652 -1.12599 -3.55179 0
M  V30 3367 H 311.765 -3.00135 -3.73438 0
M  V30 3368 H 310.129 -1.51901 -2.04446 0
M  V30 3369 H 310.912 -3.09451 -1.48643 0
M  V30 3370 N 313.357 1.07166 -1.15556 0
M  V30 3371 C 314.768 1.6127 -0.940693 0
M  V30 3372 C 315.119 1.89251 0.517551 0
M  V30 3373 O 314.244 1.65937 1.38903 0
M  V30 3374 C 314.839 2.92993 -1.7012 0
M  V30 3375 C 313.398 3.43832 -1.53156 0
M  V30 3376 C 312.545 2.1786 -1.71558 0
M  V30 3377 H 315.496 0.90229 -1.30554 0
M  V30 3378 H 315.517 3.62007 -1.17181 0
M  V30 3379 H 315.029 2.72596 -2.76248 0
M  V30 3380 H 313.13 3.69307 -0.494294 0
M  V30 3381 H 313.243 4.19747 -2.30975 0
M  V30 3382 H 311.607 2.2765 -1.14225 0
M  V30 3383 H 312.39 1.99956 -2.79056 0
M  V30 3384 N 314.835 0.952656 1.25548 0
M  V30 3385 C 316.082 0.606373 1.93208 0
M  V30 3386 C 316.41 -0.85631 1.74636 0
M  V30 3387 O 315.665 -1.62951 1.08376 0
M  V30 3388 C 315.964 0.908818 3.45652 0
M  V30 3389 C 315.63 2.35722 3.84378 0
M  V30 3390 C 314.292 2.75312 3.9466 0
M  V30 3391 C 316.644 3.29793 4.03591 0
M  V30 3392 C 313.972 4.08047 4.21562 0
M  V30 3393 C 316.324 4.62138 4.31985 0
M  V30 3394 C 314.988 5.01528 4.40484 0
M  V30 3395 H 314.258 0.221888 0.706998 0
M  V30 3396 H 316.905 1.20132 1.49133 0
M  V30 3397 H 315.21 0.231456 3.91116 0
M  V30 3398 H 316.907 0.619498 3.96186 0
M  V30 3399 H 313.497 2.04017 3.76928 0
M  V30 3400 H 317.681 3.00397 3.95064 0
M  V30 3401 H 312.937 4.38212 4.26357 0
M  V30 3402 H 317.111 5.35012 4.45797 0
M  V30 3403 H 314.738 6.04406 4.61083 0
M  V30 3404 N 316.313 -1.40141 0.720998 0
M  V30 3405 C 317.559 -2.01572 0.272075 0
M  V30 3406 C 317.914 -1.5616 -1.12391 0
M  V30 3407 O 317.207 -0.774198 -1.75262 0
M  V30 3408 C 317.401 -3.56165 0.296892 0
M  V30 3409 C 317.23 -4.16584 1.69375 0
M  V30 3410 C 316 -4.49783 2.30269 0
M  V30 3411 C 318.198 -4.41076 2.64493 0
M  V30 3412 N 316.18 -4.95626 3.62254 0
M  V30 3413 C 317.551 -4.88971 3.81192 0
M  V30 3414 C 319.606 -4.23122 2.62435 0
M  V30 3415 C 318.309 -5.20796 4.96149 0
M  V30 3416 C 320.335 -4.56052 3.76524 0
M  V30 3417 C 319.697 -5.04141 4.91956 0
M  V30 3418 H 315.796 -0.768343 0.145511 0
M  V30 3419 H 318.38 -1.70287 0.943959 0
M  V30 3420 H 316.551 -3.86868 -0.344578 0
M  V30 3421 H 318.283 -4.04346 -0.169254 0
M  V30 3422 H 315.038 -4.37101 1.82318 0
M  V30 3423 H 315.462 -5.22923 4.29977 0
M  V30 3424 H 320.104 -3.85158 1.74393 0
M  V30 3425 H 317.822 -5.57672 5.84831 0
M  V30 3426 H 321.408 -4.43796 3.76213 0
M  V30 3427 H 320.288 -5.29142 5.78774 0
M  V30 3428 N 317.792 -0.46758 -1.50504 0
M  V30 3429 C 319.069 0.15003 -1.95024 0
M  V30 3430 C 319.449 1.57304 -1.40779 0
M  V30 3431 O 318.797 2.20281 -0.607319 0
M  V30 3432 C 319.007 0.0969324 -3.48865 0
M  V30 3433 C 320.355 0.287565 -4.23625 0
M  V30 3434 O 321.379 0.173678 -3.55776 0
M  V30 3435 O 320.238 0.517186 -5.44047 0
M  V30 3436 H 317.332 0.113582 -0.819163 0
M  V30 3437 H 319.878 -0.52773 -1.61286 0
M  V30 3438 H 318.65 -0.896732 -3.80886 0
M  V30 3439 H 318.273 0.816303 -3.8913 0
M  V30 3440 N 319.27 1.56325 -0.20005 0
M  V30 3441 C 320.18 2.22931 0.730668 0
M  V30 3442 C 321.196 1.22997 1.23076 0
M  V30 3443 O 322.372 1.55748 1.27689 0
M  V30 3444 C 319.437 2.87948 1.93098 0
M  V30 3445 C 318.498 4.03166 1.47497 0
M  V30 3446 C 317.731 4.65073 2.61807 0
M  V30 3447 O 317.954 4.25913 3.79413 0
M  V30 3448 O 316.888 5.54452 2.34237 0
M  V30 3449 H 320.714 3.03084 0.193391 0
M  V30 3450 H 318.299 1.49371 0.0294621 0
M  V30 3451 H 320.181 3.29063 2.6324 0
M  V30 3452 H 318.856 2.10771 2.45677 0
M  V30 3453 H 317.763 3.66664 0.742201 0
M  V30 3454 H 319.096 4.82022 0.995796 0
M  V30 3455 N 320.748 -0.0735177 1.57428 0
M  V30 3456 C 322.025 -0.805903 1.78226 0
M  V30 3457 C 322.405 -1.95874 0.787189 0
M  V30 3458 O 321.753 -2.2779 -0.180029 0
M  V30 3459 C 321.963 -1.28045 3.24662 0
M  V30 3460 C 323.311 -1.71453 3.88444 0
M  V30 3461 O 324.335 -1.37616 3.28543 0
M  V30 3462 O 323.194 -2.34093 4.93825 0
M  V30 3463 H 320.288 -0.386041 0.73137 0
M  V30 3464 H 322.834 -0.0537269 1.69615 0
M  V30 3465 H 321.606 -0.455476 3.8864 0
M  V30 3466 H 321.229 -2.094 3.37991 0
M  V30 3467 N 322.226 -1.5378 -0.344866 0
M  V30 3468 C 323.158 -1.77988 -1.44406 0
M  V30 3469 C 324.171 -0.661138 -1.48771 0
M  V30 3470 O 325.36 -0.937842 -1.51877 0
M  V30 3471 C 322.46 -1.86345 -2.8307 0
M  V30 3472 C 321.633 -3.16256 -3.0216 0
M  V30 3473 C 320.692 -3.15588 -4.21059 0
M  V30 3474 O 319.718 -3.89314 -4.15239 0
M  V30 3475 N 320.92 -2.37864 -5.29529 0
M  V30 3476 H 323.685 -2.72839 -1.24012 0
M  V30 3477 H 321.246 -1.52814 -0.534737 0
M  V30 3478 H 323.238 -1.83351 -3.60783 0
M  V30 3479 H 321.808 -0.986858 -2.96614 0
M  V30 3480 H 321.028 -3.32385 -2.11929 0
M  V30 3481 H 322.316 -4.0207 -3.11797 0
M  V30 3482 H 321.714 -1.77514 -5.37127 0
M  V30 3483 H 320.271 -2.40668 -6.05741 0
M  V30 3484 N 323.704 0.605807 -1.45491 0
M  V30 3485 C 324.654 1.71074 -1.50724 0
M  V30 3486 C 325.638 1.5658 -0.37033 0
M  V30 3487 O 326.83 1.65887 -0.617299 0
M  V30 3488 C 323.959 3.0983 -1.47852 0
M  V30 3489 C 323.045 3.29704 -2.66751 0
M  V30 3490 N 323.436 3.19831 -3.91844 0
M  V30 3491 C 321.734 3.60579 -2.62486 0
M  V30 3492 C 322.435 3.41083 -4.71208 0
M  V30 3493 N 321.411 3.65157 -4.02693 0
M  V30 3494 H 325.213 1.61937 -2.45263 0
M  V30 3495 H 322.727 0.80912 -1.40808 0
M  V30 3496 H 324.724 3.89101 -1.49686 0
M  V30 3497 H 323.384 3.20115 -0.543714 0
M  V30 3498 H 324.395 2.98194 -4.23439 0
M  V30 3499 H 321.072 3.7769 -1.77922 0
M  V30 3500 H 322.462 3.38828 -5.80211 0
M  V30 3501 N 325.182 1.32811 0.848464 0
M  V30 3502 C 326.129 1.22265 1.95755 0
M  V30 3503 C 327.099 0.103413 1.65778 0
M  V30 3504 O 328.284 0.280033 1.88734 0
M  V30 3505 C 325.424 0.958014 3.31536 0
M  V30 3506 C 324.537 2.16262 3.73971 0
M  V30 3507 C 323.672 1.83295 4.98575 0
M  V30 3508 C 322.711 3.00041 5.33518 0
M  V30 3509 N 321.848 2.67125 6.49299 0
M  V30 3510 H 326.688 2.17128 2.04107 0
M  V30 3511 H 324.225 1.07982 0.998913 0
M  V30 3512 H 326.183 0.785052 4.09747 0
M  V30 3513 H 324.813 0.046159 3.22767 0
M  V30 3514 H 323.865 2.44565 2.91362 0
M  V30 3515 H 325.177 3.03572 3.95785 0
M  V30 3516 H 324.331 1.62586 5.84509 0
M  V30 3517 H 323.07 0.932078 4.7871 0
M  V30 3518 H 322.075 3.21374 4.46093 0
M  V30 3519 H 323.3 3.90869 5.55336 0
M  V30 3520 H 321.246 1.79586 6.3094 0
M  V30 3521 H 321.163 3.47965 6.71161 0
M  V30 3522 H 322.431 2.49861 7.3837 0
M  V30 3523 N 326.66 -1.06551 1.16123 0
M  V30 3524 C 327.59 -2.15935 0.88851 0
M  V30 3525 C 328.571 -1.69306 -0.164135 0
M  V30 3526 O 329.756 -1.94193 -0.0167857 0
M  V30 3527 C 326.886 -3.45149 0.385942 0
M  V30 3528 C 325.84 -4.05271 1.3762 0
M  V30 3529 C 325.166 -5.29664 0.732137 0
M  V30 3530 C 326.466 -4.44355 2.74493 0
M  V30 3531 H 328.16 -2.39006 1.80323 0
M  V30 3532 H 325.706 -1.14866 0.868435 0
M  V30 3533 H 327.659 -4.21004 0.182647 0
M  V30 3534 H 326.383 -3.21689 -0.564274 0
M  V30 3535 H 325.042 -3.3147 1.56599 0
M  V30 3536 H 324.69 -5.02499 -0.224483 0
M  V30 3537 H 324.39 -5.70848 1.39307 0
M  V30 3538 H 325.914 -6.08218 0.538802 0
M  V30 3539 H 327.328 -5.11303 2.59311 0
M  V30 3540 H 325.725 -4.96515 3.37035 0
M  V30 3541 H 326.795 -3.55339 3.29943 0
M  V30 3542 N 328.138 -0.959301 -1.25041 0
M  V30 3543 C 329.368 -0.63303 -1.96663 0
M  V30 3544 C 329.776 0.800031 -1.71453 0
M  V30 3545 O 329.119 1.54736 -0.99008 0
M  V30 3546 C 329.181 -0.817523 -3.50081 0
M  V30 3547 C 328.845 -2.22863 -3.98975 0
M  V30 3548 C 329.842 -3.20569 -4.09306 0
M  V30 3549 C 327.527 -2.55407 -4.32519 0
M  V30 3550 C 329.521 -4.4891 -4.52503 0
M  V30 3551 C 327.208 -3.83976 -4.754 0
M  V30 3552 C 328.206 -4.8054 -4.85356 0
M  V30 3553 O 327.894 -6.06817 -5.27284 0
M  V30 3554 H 327.626 -0.235866 -0.633516 0
M  V30 3555 H 330.18 -1.2874 -1.60047 0
M  V30 3556 H 328.41 -0.105992 -3.86555 0
M  V30 3557 H 330.099 -0.491604 -4.02912 0
M  V30 3558 H 330.865 -2.96753 -3.83618 0
M  V30 3559 H 326.744 -1.8097 -4.23994 0
M  V30 3560 H 330.288 -5.24283 -4.60188 0
M  V30 3561 H 326.185 -4.07596 -5.00535 0
M  V30 3562 H 326.953 -6.10262 -5.45457 0
M  V30 3563 N 329.616 1.39756 -0.72842 0
M  V30 3564 C 330.548 2.29157 -0.0446202 0
M  V30 3565 C 331.561 1.46484 0.710367 0
M  V30 3566 O 332.75 1.69632 0.55562 0
M  V30 3567 C 329.85 3.24987 0.961071 0
M  V30 3568 C 329.023 4.36572 0.268967 0
M  V30 3569 C 328.082 5.12756 1.18184 0
M  V30 3570 O 327.108 5.6534 0.661794 0
M  V30 3571 N 328.31 5.23331 2.51206 0
M  V30 3572 H 331.075 2.88482 -0.812295 0
M  V30 3573 H 328.636 1.51265 -0.577098 0
M  V30 3574 H 330.628 3.72827 1.57423 0
M  V30 3575 H 329.198 2.66739 1.63 0
M  V30 3576 H 328.418 3.90694 -0.524574 0
M  V30 3577 H 329.706 5.08363 -0.210934 0
M  V30 3578 H 329.104 4.82116 2.9594 0
M  V30 3579 H 327.661 5.74634 3.07634 0
M  V30 3580 N 331.094 0.475555 1.50254 0
M  V30 3581 C 332.026 -0.352649 2.26471 0
M  V30 3582 C 333.039 -0.953165 1.3198 0
M  V30 3583 O 334.228 -0.840815 1.57457 0
M  V30 3584 C 331.328 -1.50902 3.0345 0
M  V30 3585 C 330.501 -1.02047 4.25329 0
M  V30 3586 C 329.56 -2.05142 4.84565 0
M  V30 3587 O 328.586 -1.63023 5.45355 0
M  V30 3588 N 329.788 -3.37987 4.71959 0
M  V30 3589 H 332.553 0.300767 2.98187 0
M  V30 3590 H 330.114 0.306598 1.5897 0
M  V30 3591 H 332.106 -2.19572 3.39956 0
M  V30 3592 H 330.676 -2.06705 2.34504 0
M  V30 3593 H 329.896 -0.159507 3.93877 0
M  V30 3594 H 331.184 -0.672061 5.04342 0
M  V30 3595 H 330.582 -3.74913 4.23623 0
M  V30 3596 H 329.139 -4.02443 5.12721 0
M  V30 3597 N 332.573 -1.56217 0.208337 0
M  V30 3598 C 333.822 -1.97124 -0.427204 0
M  V30 3599 C 334.135 -1.09859 -1.61835 0
M  V30 3600 O 335.341 -1.40606 -2.32255 0
M  V30 3601 C 333.797 -3.50633 -0.811442 0
M  V30 3602 C 333.405 -4.46582 0.35615 0
M  V30 3603 C 335.149 -4.00282 -1.41332 0
M  V30 3604 C 333.056 -5.91379 -0.0497852 0
M  V30 3605 H 331.986 -0.736086 -0.163381 0
M  V30 3606 H 334.637 -1.8099 0.302456 0
M  V30 3607 H 333.019 -3.62319 -1.59815 0
M  V30 3608 H 334.193 -4.46636 1.1337 0
M  V30 3609 H 332.508 -4.07202 0.870396 0
M  V30 3610 H 335.105 -5.0595 -1.72972 0
M  V30 3611 H 335.448 -3.45359 -2.32449 0
M  V30 3612 H 335.981 -3.91764 -0.690323 0
M  V30 3613 H 332.72 -6.50255 0.827529 0
M  V30 3614 H 332.24 -5.94549 -0.791926 0
M  V30 3615 H 333.919 -6.45209 -0.481042 0
M  V30 3616 N 334.051 0.0651679 -1.57465 0
M  V30 3617 C 334.998 1.07675 -2.04144 0
M  V30 3618 C 335.968 1.38071 -0.923335 0
M  V30 3619 O 337.153 1.49026 -1.19146 0
M  V30 3620 C 334.293 2.38337 -2.49579 0
M  V30 3621 C 333.406 2.14413 -3.75035 0
M  V30 3622 C 332.541 3.38686 -4.09225 0
M  V30 3623 C 331.58 3.10156 -5.27702 0
M  V30 3624 N 330.717 4.26778 -5.57499 0
M  V30 3625 H 335.557 0.671716 -2.90331 0
M  V30 3626 H 333.094 0.3201 -1.43575 0
M  V30 3627 H 335.052 3.14632 -2.73975 0
M  V30 3628 H 333.682 2.7663 -1.6636 0
M  V30 3629 H 332.734 1.2878 -3.57939 0
M  V30 3630 H 334.046 1.89344 -4.61466 0
M  V30 3631 H 333.2 4.23373 -4.34558 0
M  V30 3632 H 331.939 3.66837 -3.21374 0
M  V30 3633 H 330.944 2.23866 -5.02159 0
M  V30 3634 H 332.169 2.8332 -6.17176 0
M  V30 3635 H 330.115 4.54948 -4.72608 0
M  V30 3636 H 330.032 4.05005 -6.38362 0
M  V30 3637 H 331.3 5.12443 -5.87386 0
M  V30 3638 N 335.529 1.53961 0.336706 0
M  V30 3639 C 336.492 1.81724 1.39675 0
M  V30 3640 C 337.492 0.688532 1.45313 0
M  V30 3641 O 338.682 0.956829 1.45569 0
M  V30 3642 C 335.814 1.96543 2.78538 0
M  V30 3643 H 337.007 2.76424 1.16318 0
M  V30 3644 H 334.56 1.45478 0.571474 0
M  V30 3645 H 335.295 1.0401 3.07168 0
M  V30 3646 H 335.08 2.78665 2.75841 0
M  V30 3647 H 336.57 2.19516 3.5525 0
M  V30 3648 N 337.007 -0.598083 1.45811 0
M  V30 3649 C 338.255 -1.35413 1.50026 0
M  V30 3650 C 338.576 -1.94444 0.147177 0
M  V30 3651 O 337.846 -1.77701 -0.824571 0
M  V30 3652 H 336.426 -0.502727 0.552517 0
M  V30 3653 H 339.088 -0.701606 1.81834 0
M  V30 3654 H 338.184 -2.16871 2.2444 0
M  V30 3655 N 338.485 -1.33259 -0.841409 0
M  V30 3656 C 339.448 -1.23221 -1.9326 0
M  V30 3657 C 340.448 -0.151895 -1.60081 0
M  V30 3658 O 341.638 -0.403246 -1.69468 0
M  V30 3659 C 338.77 -0.898123 -3.28856 0
M  V30 3660 H 339.963 -2.2021 -2.03587 0
M  V30 3661 H 337.516 -1.17281 -1.03319 0
M  V30 3662 H 338.251 0.0693841 -3.24226 0
M  V30 3663 H 338.036 -1.67934 -3.54317 0
M  V30 3664 H 339.526 -0.852563 -4.08805 0
M  V30 3665 N 339.963 1.05934 -1.16686 0
M  V30 3666 C 341.193 1.82226 -0.973515 0
M  V30 3667 C 341.601 1.8297 0.481532 0
M  V30 3668 O 340.944 1.25009 1.34604 0
M  V30 3669 C 341.006 3.29897 -1.42858 0
M  V30 3670 C 340.67 3.52849 -2.90425 0
M  V30 3671 C 341.667 3.45595 -3.88407 0
M  V30 3672 C 339.352 3.80053 -3.28428 0
M  V30 3673 C 341.346 3.65217 -5.22394 0
M  V30 3674 C 339.033 3.99325 -4.62583 0
M  V30 3675 C 340.031 3.91905 -5.59374 0
M  V30 3676 O 339.719 4.10647 -6.91104 0
M  V30 3677 H 339.451 0.581314 -0.345036 0
M  V30 3678 H 342.005 1.3453 -1.55212 0
M  V30 3679 H 340.235 3.78472 -0.793477 0
M  V30 3680 H 341.924 3.87692 -1.20207 0
M  V30 3681 H 342.69 3.24564 -3.60393 0
M  V30 3682 H 338.569 3.84936 -2.53664 0
M  V30 3683 H 342.113 3.59341 -5.9793 0
M  V30 3684 H 338.01 4.19846 -4.90306 0
M  V30 3685 H 338.778 4.27915 -6.97733 0
M  V30 3686 N 341.441 0.965919 1.2453 0
M  V30 3687 C 342.718 0.543777 1.87889 0
M  V30 3688 C 343.098 -0.97909 1.87021 0
M  V30 3689 O 342.446 -1.84969 1.3416 0
M  V30 3690 C 342.656 1.13327 3.30088 0
M  V30 3691 C 344.004 1.21707 4.06783 0
M  V30 3692 O 345.028 1.08566 3.39252 0
M  V30 3693 O 343.887 1.42456 5.27606 0
M  V30 3694 H 340.981 0.181054 0.806938 0
M  V30 3695 H 343.527 1.06007 1.32516 0
M  V30 3696 H 342.299 2.17612 3.25209 0
M  V30 3697 H 341.922 0.600911 3.93033 0
M  V30 3698 N 342.919 -1.39368 0.735821 0
M  V30 3699 C 344.166 -2.00497 0.284123 0
M  V30 3700 C 344.494 -1.58387 -1.12889 0
M  V30 3701 O 343.749 -0.804359 -1.78406 0
M  V30 3702 C 344.048 -3.5583 0.334651 0
M  V30 3703 C 343.714 -4.17593 1.7008 0
M  V30 3704 C 342.376 -4.34176 2.07472 0
M  V30 3705 C 344.728 -4.51848 2.59775 0
M  V30 3706 C 342.056 -4.82304 3.34065 0
M  V30 3707 C 344.408 -5.01384 3.85741 0
M  V30 3708 C 343.072 -5.16175 4.23225 0
M  V30 3709 H 342.342 -0.73367 0.103968 0
M  V30 3710 H 344.989 -1.66683 0.942825 0
M  V30 3711 H 343.294 -3.89674 -0.407625 0
M  V30 3712 H 344.991 -4.00986 -0.0329927 0
M  V30 3713 H 341.581 -4.05087 1.40008 0
M  V30 3714 H 345.765 -4.38653 2.32157 0
M  V30 3715 H 341.021 -4.91941 3.63049 0
M  V30 3716 H 345.195 -5.26863 4.55399 0
M  V30 3717 H 342.822 -5.5323 5.21384 0
M  V30 3718 N 344.397 -0.483516 -1.5 0
M  V30 3719 C 345.808 -0.0314176 -1.86674 0
M  V30 3720 C 346.159 1.37728 -1.39733 0
M  V30 3721 O 345.284 2.02327 -0.767635 0
M  V30 3722 C 345.879 -0.0502376 -3.38763 0
M  V30 3723 C 344.438 0.346442 -3.74802 0
M  V30 3724 C 343.585 -0.430366 -2.7394 0
M  V30 3725 H 346.536 -0.697182 -1.42566 0
M  V30 3726 H 346.557 0.749116 -3.73053 0
M  V30 3727 H 346.069 -1.07563 -3.72897 0
M  V30 3728 H 344.17 1.37572 -3.46273 0
M  V30 3729 H 344.283 0.0391486 -4.79084 0
M  V30 3730 H 342.647 0.117557 -2.54429 0
M  V30 3731 H 343.43 -1.4555 -3.10918 0
M  V30 3732 N 345.875 1.56104 -0.216619 0
M  V30 3733 C 347.1 2.0301 0.424462 0
M  V30 3734 C 347.525 1.0955 1.52907 0
M  V30 3735 O 346.883 0.0827914 1.81111 0
M  V30 3736 C 346.931 3.4819 0.937883 0
M  V30 3737 O 346.035 3.57865 2.04955 0
M  V30 3738 H 345.376 0.656925 0.0966755 0
M  V30 3739 H 347.906 2.01859 -0.33381 0
M  V30 3740 H 347.916 3.88413 1.24897 0
M  V30 3741 H 346.591 4.15699 0.129387 0
M  V30 3742 H 345.168 3.29527 1.74546 0
M  V30 3743 N 347.353 -0.0568162 1.57498 0
M  V30 3744 C 348.764 -0.606858 1.76562 0
M  V30 3745 C 349.115 -1.77114 0.844094 0
M  V30 3746 O 348.24 -2.16376 0.0318911 0
M  V30 3747 C 348.835 -1.10766 3.20182 0
M  V30 3748 C 347.394 -1.60344 3.40539 0
M  V30 3749 C 346.541 -0.529311 2.72201 0
M  V30 3750 H 349.492 0.169393 1.57793 0
M  V30 3751 H 349.513 -1.97602 3.25167 0
M  V30 3752 H 349.025 -0.26006 3.87228 0
M  V30 3753 H 347.126 -2.47379 2.78629 0
M  V30 3754 H 347.239 -1.67006 4.4905 0
M  V30 3755 H 345.603 -0.977893 2.35179 0
M  V30 3756 H 346.386 0.308352 3.41912 0
M  V30 3757 N 348.832 -1.54138 -0.328536 0
M  V30 3758 C 349.742 -1.86192 -1.42723 0
M  V30 3759 C 350.758 -0.753382 -1.56844 0
M  V30 3760 O 351.934 -1.04718 -1.72035 0
M  V30 3761 C 348.999 -2.07824 -2.77507 0
M  V30 3762 C 348.06 -3.31641 -2.72603 0
M  V30 3763 C 347.293 -3.52232 -4.00959 0
M  V30 3764 O 347.516 -2.7636 -4.9898 0
M  V30 3765 O 346.45 -4.45699 -4.0452 0
M  V30 3766 H 350.276 -2.79608 -1.18547 0
M  V30 3767 H 347.861 -1.3998 -0.522104 0
M  V30 3768 H 349.743 -2.23411 -3.57303 0
M  V30 3769 H 348.418 -1.17596 -3.01584 0
M  V30 3770 H 347.325 -3.21444 -1.91376 0
M  V30 3771 H 348.658 -4.2191 -2.53481 0
M  V30 3772 N 350.31 0.590341 -1.46126 0
M  V30 3773 C 351.556 1.34874 -1.52252 0
M  V30 3774 C 351.911 1.91658 -0.168807 0
M  V30 3775 O 351.204 1.73093 0.821556 0
M  V30 3776 C 351.398 2.5032 -2.55097 0
M  V30 3777 C 351.227 2.04843 -4.00337 0
M  V30 3778 C 349.997 1.90213 -4.68132 0
M  V30 3779 C 352.195 1.61267 -4.88362 0
M  V30 3780 N 350.177 1.38727 -5.9802 0
M  V30 3781 C 351.548 1.21319 -6.08015 0
M  V30 3782 C 353.603 1.49015 -4.75078 0
M  V30 3783 C 352.306 0.7034 -7.15852 0
M  V30 3784 C 354.332 0.994401 -5.8298 0
M  V30 3785 C 353.694 0.604659 -7.018 0
M  V30 3786 H 349.793 0.486803 -0.612002 0
M  V30 3787 H 352.377 0.673007 -1.82698 0
M  V30 3788 H 350.548 3.15466 -2.26574 0
M  V30 3789 H 352.28 3.1725 -2.51266 0
M  V30 3790 H 349.035 2.11927 -4.23537 0
M  V30 3791 H 349.459 1.15168 -6.67132 0
M  V30 3792 H 354.101 1.77768 -3.83612 0
M  V30 3793 H 351.819 0.403446 -8.07092 0
M  V30 3794 H 355.405 0.903621 -5.7474 0
M  V30 3795 H 354.285 0.226963 -7.83871 0
M  V30 3796 N 351.788 1.33704 0.83433 0
M  V30 3797 C 353.065 1.16011 1.57483 0
M  V30 3798 C 353.445 -0.27176 2.09343 0
M  V30 3799 O 352.793 -1.27146 1.89858 0
M  V30 3800 C 353.003 2.20507 2.70514 0
M  V30 3801 C 354.351 2.54898 3.39577 0
M  V30 3802 O 355.375 2.19209 2.80759 0
M  V30 3803 O 354.234 3.16158 4.45765 0
M  V30 3804 H 351.328 0.448992 0.694503 0
M  V30 3805 H 353.874 1.453 0.876691 0
M  V30 3806 H 352.646 3.16667 2.29865 0
M  V30 3807 H 352.269 1.92329 3.47987 0
M  V30 3808 N 353.266 -1.05314 1.17247 0
M  V30 3809 C 354.494 -1.81971 0.984593 0
M  V30 3810 C 354.909 -1.82929 -0.467166 0
M  V30 3811 O 354.266 -1.25564 -1.32438 0
M  V30 3812 C 354.317 -3.28143 1.51672 0
M  V30 3813 O 354.038 -3.27347 2.91163 0
M  V30 3814 C 355.539 -4.21493 1.37326 0
M  V30 3815 H 352.759 -0.573455 0.348411 0
M  V30 3816 H 355.303 -1.32808 1.55506 0
M  V30 3817 H 353.458 -3.74582 0.988302 0
M  V30 3818 H 353.872 -4.18824 3.15732 0
M  V30 3819 H 355.346 -5.22043 1.79375 0
M  V30 3820 H 355.823 -4.38031 0.320169 0
M  V30 3821 H 356.429 -3.80909 1.89178 0
M  V30 3822 N 354.744 -0.972509 -1.24016 0
M  V30 3823 C 355.99 -0.637978 -1.92504 0
M  V30 3824 C 356.323 0.825383 -1.75787 0
M  V30 3825 O 355.598 1.59442 -1.11393 0
M  V30 3826 C 355.881 -1.01942 -3.45369 0
M  V30 3827 C 355.734 -2.53983 -3.71231 0
M  V30 3828 C 357.053 -0.55751 -4.36555 0
M  V30 3829 H 354.172 -0.233248 -0.699117 0
M  V30 3830 H 356.814 -1.21238 -1.46292 0
M  V30 3831 H 354.964 -0.530656 -3.84859 0
M  V30 3832 H 356.636 -3.10374 -3.41271 0
M  V30 3833 H 354.879 -2.96968 -3.16216 0
M  V30 3834 H 355.55 -2.75723 -4.78206 0
M  V30 3835 H 358.026 -0.977029 -4.04467 0
M  V30 3836 H 356.902 -0.85292 -5.42233 0
M  V30 3837 H 357.163 0.542328 -4.38761 0
M  V30 3838 N 356.222 1.38976 -0.743202 0
M  V30 3839 C 357.45 2.04636 -0.30525 0
M  V30 3840 C 357.865 1.56044 1.06281 0
M  V30 3841 O 357.222 0.728921 1.67311 0
M  V30 3842 C 357.273 3.60193 -0.307177 0
M  V30 3843 O 356.994 4.06998 -1.62124 0
M  V30 3844 C 358.495 4.4306 0.145928 0
M  V30 3845 H 355.715 0.65788 -0.132041 0
M  V30 3846 H 358.259 1.77866 -1.00915 0
M  V30 3847 H 356.414 3.85835 0.347898 0
M  V30 3848 H 356.828 5.01371 -1.54036 0
M  V30 3849 H 358.302 5.51921 0.0934183 0
M  V30 3850 H 358.779 4.22706 1.19231 0
M  V30 3851 H 359.385 4.22584 -0.479886 0
M  V30 3852 N 357.7 0.491464 1.49741 0
M  V30 3853 C 359.111 0.0413169 1.86654 0
M  V30 3854 C 359.462 -1.36985 1.40462 0
M  V30 3855 O 358.587 -2.01917 0.778354 0
M  V30 3856 C 359.182 0.0682023 3.38731 0
M  V30 3857 C 357.741 -0.32656 3.74981 0
M  V30 3858 C 356.888 0.444888 2.73708 0
M  V30 3859 H 359.839 0.704733 1.42194 0
M  V30 3860 H 359.86 -0.729322 3.73445 0
M  V30 3861 H 359.372 1.09539 3.72321 0
M  V30 3862 H 357.473 -1.35734 3.46997 0
M  V30 3863 H 357.586 -0.013741 4.79098 0
M  V30 3864 H 355.95 -0.104062 2.54487 0
M  V30 3865 H 356.733 1.47197 3.10142 0
M  V30 3866 N 359.178 -1.55987 0.224894 0
M  V30 3867 C 360.088 -2.24066 -0.69511 0
M  V30 3868 C 361.104 -1.24939 -1.21104 0
M  V30 3869 O 362.28 -1.5776 -1.25195 0
M  V30 3870 C 359.345 -2.90983 -1.88493 0
M  V30 3871 C 358.406 -4.05462 -1.41064 0
M  V30 3872 C 357.639 -4.69179 -2.54375 0
M  V30 3873 O 357.862 -4.31895 -3.72589 0
M  V30 3874 O 356.796 -5.58108 -2.25386 0
M  V30 3875 H 360.622 -3.03353 -0.145149 0
M  V30 3876 H 358.207 -1.49399 -0.00569476 0
M  V30 3877 H 360.089 -3.33209 -2.57972 0
M  V30 3878 H 358.764 -2.14653 -2.42293 0
M  V30 3879 H 357.671 -3.67798 -0.683774 0
M  V30 3880 H 359.004 -4.83545 -0.918985 0
M  V30 3881 N 360.656 0.0484629 -1.57525 0
M  V30 3882 C 361.619 1.03956 -2.04269 0
M  V30 3883 C 362.619 1.30211 -0.943496 0
M  V30 3884 O 363.809 1.25539 -1.20771 0
M  V30 3885 C 360.941 2.37742 -2.44319 0
M  V30 3886 H 362.134 0.636182 -2.93075 0
M  V30 3887 H 359.687 0.294811 -1.53494 0
M  V30 3888 H 360.422 2.82866 -1.5861 0
M  V30 3889 H 360.207 2.20021 -3.24551 0
M  V30 3890 H 361.697 3.08936 -2.80978 0
M  V30 3891 N 362.134 1.5431 0.320358 0
M  V30 3892 C 363.081 1.83918 1.39438 0
M  V30 3893 C 364.051 0.686525 1.51248 0
M  V30 3894 O 365.236 0.933269 1.66417 0
M  V30 3895 C 362.376 2.075 2.75749 0
M  V30 3896 C 361.489 3.35177 2.72544 0
M  V30 3897 C 360.624 3.48704 4.00723 0
M  V30 3898 C 359.663 4.70244 3.91838 0
M  V30 3899 N 358.8 4.80679 5.11754 0
M  V30 3900 H 363.64 2.75544 1.13489 0
M  V30 3901 H 361.177 1.36459 0.549309 0
M  V30 3902 H 363.135 2.19166 3.54996 0
M  V30 3903 H 361.765 1.19163 3 0
M  V30 3904 H 360.817 3.32233 1.85271 0
M  V30 3905 H 362.129 4.24534 2.61863 0
M  V30 3906 H 361.283 3.59928 4.88402 0
M  V30 3907 H 360.022 2.57445 4.14214 0
M  V30 3908 H 359.027 4.59072 3.02544 0
M  V30 3909 H 360.252 5.6289 3.7991 0
M  V30 3910 H 358.198 3.92337 5.25745 0
M  V30 3911 H 358.115 5.64007 5.0342 0
M  V30 3912 H 359.383 4.96239 6.01138 0
M  V30 3913 N 363.613 -0.582584 1.46437 0
M  V30 3914 C 364.561 -1.71272 1.5738 0
M  V30 3915 C 365.555 -1.63524 0.44229 0
M  V30 3916 O 366.761 -1.69016 0.619166 0
M  V30 3917 H 363.136 -0.566273 0.494813 0
M  V30 3918 H 365.107 -1.59174 2.52401 0
M  V30 3919 C 363.856 -3.09658 1.58136 0
M  V30 3920 H 363.179 -3.16291 2.44541 0
M  V30 3921 H 364.619 -3.88494 1.69847 0
M  V30 3922 C 363.078 -3.3547 0.310026 0
M  V30 3923 O 363.608 -3.97199 -0.599683 0
M  V30 3924 N 361.814 -2.89925 0.197901 0
M  V30 3925 H 361.361 -2.39873 0.93909 0
M  V30 3926 H 361.319 -3.07568 -0.65185 0
M  V30 3927 N 365.091 -1.34144 -0.827227 0
M  V30 3928 C 366.021 -1.28005 -1.95287 0
M  V30 3929 C 367.002 -0.158321 -1.69362 0
M  V30 3930 O 368.187 -0.349987 -1.9102 0
M  V30 3931 C 365.317 -1.03036 -3.31664 0
M  V30 3932 C 364.271 -2.11628 -3.72019 0
M  V30 3933 C 363.597 -1.71854 -5.0633 0
M  V30 3934 C 364.897 -3.53417 -3.8457 0
M  V30 3935 H 366.591 -2.22187 -2.00682 0
M  V30 3936 H 364.137 -1.0696 -0.964135 0
M  V30 3937 H 366.09 -0.973863 -4.09993 0
M  V30 3938 H 364.814 -0.0529391 -3.26557 0
M  V30 3939 H 363.473 -2.16339 -2.95961 0
M  V30 3940 H 363.121 -0.727841 -4.97706 0
M  V30 3941 H 362.821 -2.44531 -5.34302 0
M  V30 3942 H 364.345 -1.67692 -5.87122 0
M  V30 3943 H 365.759 -3.51142 -4.5318 0
M  V30 3944 H 364.156 -4.24679 -4.2399 0
M  V30 3945 H 365.226 -3.91072 -2.86689 0
M  V30 3946 N 366.569 1.04691 -1.17803 0
M  V30 3947 C 367.818 1.77176 -0.963931 0
M  V30 3948 C 368.131 1.88888 0.508015 0
M  V30 3949 O 369.337 2.58164 0.840465 0
M  V30 3950 C 367.793 3.18518 -1.67555 0
M  V30 3951 C 367.401 3.14919 -3.18637 0
M  V30 3952 C 369.145 3.95424 -1.54402 0
M  V30 3953 C 367.052 4.51081 -3.82466 0
M  V30 3954 H 365.982 0.664116 -0.357023 0
M  V30 3955 H 368.633 1.17303 -1.4111 0
M  V30 3956 H 367.015 3.78748 -1.15613 0
M  V30 3957 H 368.189 2.64178 -3.77554 0
M  V30 3958 H 366.504 2.51512 -3.31859 0
M  V30 3959 H 369.101 4.96106 -1.99456 0
M  V30 3960 H 369.444 4.13343 -0.495329 0
M  V30 3961 H 369.977 3.41754 -2.0359 0
M  V30 3962 H 366.716 4.38368 -4.87354 0
M  V30 3963 H 366.236 5.01951 -3.28337 0
M  V30 3964 H 367.915 5.2001 -3.84965 0
M  V30 3965 N 368.047 0.979072 1.23499 0
M  V30 3966 C 368.995 0.510604 2.26926 0
M  V30 3967 C 369.989 -0.431691 1.63807 0
M  V30 3968 O 371.195 -0.30573 1.77385 0
M  V30 3969 H 367.57 0.146688 0.737554 0
M  V30 3970 H 369.541 1.39466 2.63803 0
M  V30 3971 C 368.29 -0.172658 3.47271 0
M  V30 3972 H 367.613 0.543331 3.96091 0
M  V30 3973 H 369.053 -0.464101 4.21452 0
M  V30 3974 C 367.512 -1.40345 3.06276 0
M  V30 3975 O 368.042 -2.49978 3.14442 0
M  V30 3976 N 366.248 -1.27362 2.61203 0
M  V30 3977 H 365.795 -0.381584 2.54758 0
M  V30 3978 H 365.753 -2.09822 2.34141 0
M  V30 3979 N 369.525 -1.3858 0.750561 0
M  V30 3980 C 370.457 -2.29057 0.0810714 0
M  V30 3981 C 371.47 -1.47596 -0.686973 0
M  V30 3982 O 372.659 -1.70495 -0.528563 0
M  V30 3983 C 369.759 -3.26475 -0.909247 0
M  V30 3984 C 368.932 -4.36945 -0.199478 0
M  V30 3985 C 367.991 -5.14572 -1.10011 0
M  V30 3986 O 367.017 -5.66321 -0.57177 0
M  V30 3987 N 368.219 -5.27262 -2.42849 0
M  V30 3988 H 370.984 -2.87153 0.858087 0
M  V30 3989 H 368.545 -1.50328 0.60109 0
M  V30 3990 H 370.537 -3.75285 -1.51471 0
M  V30 3991 H 369.107 -2.69298 -1.58736 0
M  V30 3992 H 368.327 -3.8981 0.586664 0
M  V30 3993 H 369.615 -5.07963 0.291783 0
M  V30 3994 H 369.013 -4.86763 -2.88233 0
M  V30 3995 H 367.57 -5.79456 -2.98453 0
M  V30 3996 N 371.003 -0.499398 -1.49478 0
M  V30 3997 C 371.936 0.326491 -2.25852 0
M  V30 3998 C 372.914 0.971776 -1.30366 0
M  V30 3999 O 374.098 1.00219 -1.59651 0
M  V30 4000 C 371.225 1.45969 -3.05632 0
M  V30 4001 C 370.271 0.928938 -4.16261 0
M  V30 4002 S 371.104 -0.179012 -5.35201 0
M  V30 4003 C 372.26 0.957389 -6.18534 0
M  V30 4004 H 372.493 -0.321746 -2.95554 0
M  V30 4005 H 370.026 -0.284674 -1.51753 0
M  V30 4006 H 371.984 2.109 -3.52181 0
M  V30 4007 H 370.645 2.07953 -2.35402 0
M  V30 4008 H 369.838 1.77813 -4.71592 0
M  V30 4009 H 369.44 0.356869 -3.72293 0
M  V30 4010 H 371.732 1.86296 -6.51383 0
M  V30 4011 H 372.675 0.442733 -7.06715 0
M  V30 4012 H 373.083 1.224 -5.5107 0
M  V30 4013 N 372.481 1.55866 -0.233164 0
M  V30 4014 C 373.411 2.23783 0.666599 0
M  V30 4015 C 374.392 1.21343 1.19205 0
M  V30 4016 O 375.577 1.4996 1.23392 0
M  V30 4017 C 372.707 2.92671 1.86978 0
M  V30 4018 C 371.661 4.01682 1.47768 0
M  V30 4019 C 370.987 4.57926 2.76058 0
M  V30 4020 C 372.287 5.18126 0.658993 0
M  V30 4021 H 373.981 2.99232 0.100306 0
M  V30 4022 H 371.527 1.43924 0.046804 0
M  V30 4023 H 373.48 3.3888 2.50476 0
M  V30 4024 H 372.204 2.14688 2.46123 0
M  V30 4025 H 370.863 3.56222 0.866106 0
M  V30 4026 H 370.511 3.76659 3.33372 0
M  V30 4027 H 370.211 5.31505 2.50552 0
M  V30 4028 H 371.735 5.06859 3.40479 0
M  V30 4029 H 373.149 5.60644 1.19795 0
M  V30 4030 H 371.546 5.98009 0.500552 0
M  V30 4031 H 372.616 4.83763 -0.331856 0
M  V30 4032 N 373.959 -0.0401083 1.57549 0
M  V30 4033 C 375.187 -0.745196 1.93014 0
M  V30 4034 C 375.602 -1.6948 0.831984 0
M  V30 4035 O 374.959 -1.81482 -0.192463 0
M  V30 4036 C 375.01 -1.51176 3.28372 0
M  V30 4037 O 374.731 -0.600284 4.33968 0
M  V30 4038 C 376.232 -2.315 3.78051 0
M  V30 4039 H 373.452 -0.210088 0.637263 0
M  V30 4040 H 375.996 -0.000924689 2.045 0
M  V30 4041 H 374.151 -2.20801 3.18317 0
M  V30 4042 H 374.565 -1.13669 5.12035 0
M  V30 4043 H 376.039 -2.80697 4.75303 0
M  V30 4044 H 376.516 -3.12436 3.08675 0
M  V30 4045 H 377.122 -1.66971 3.91153 0
M  V30 4046 N 375.437 -1.54477 -0.31217 0
M  V30 4047 C 376.686 -1.72438 -1.04633 0
M  V30 4048 C 376.999 -0.511163 -1.88803 0
M  V30 4049 O 378.205 -0.572341 -2.65399 0
M  V30 4050 C 376.661 -3.05043 -1.9099 0
M  V30 4051 C 376.269 -4.33806 -1.11877 0
M  V30 4052 C 378.013 -3.32364 -2.64073 0
M  V30 4053 C 375.92 -5.57467 -1.97445 0
M  V30 4054 H 374.85 -0.642647 -0.394361 0
M  V30 4055 H 377.501 -1.80966 -0.303929 0
M  V30 4056 H 375.883 -2.90451 -2.69173 0
M  V30 4057 H 377.057 -4.59199 -0.383843 0
M  V30 4058 H 375.372 -4.13336 -0.504252 0
M  V30 4059 H 377.969 -4.21951 -3.28423 0
M  V30 4060 H 378.312 -2.50745 -3.32314 0
M  V30 4061 H 378.845 -3.47875 -1.92944 0
M  V30 4062 H 375.584 -6.41722 -1.33692 0
M  V30 4063 H 375.104 -5.36277 -2.6864 0
M  V30 4064 H 376.783 -5.94303 -2.5576 0
M  V30 4065 N 376.915 0.57481 -1.46744 0
M  V30 4066 C 377.863 1.70435 -1.58286 0
M  V30 4067 C 378.857 1.63287 -0.450956 0
M  V30 4068 O 380.063 1.68685 -0.628121 0
M  V30 4069 H 376.438 0.56364 -0.497809 0
M  V30 4070 H 378.409 1.57833 -2.53242 0
M  V30 4071 C 377.158 3.08815 -1.59776 0
M  V30 4072 H 376.481 3.1499 -2.46214 0
M  V30 4073 H 377.921 3.87588 -1.71905 0
M  V30 4074 C 376.38 3.35301 -0.327812 0
M  V30 4075 O 376.91 3.97511 0.57861 0
M  V30 4076 N 375.116 2.89816 -0.213274 0
M  V30 4077 H 374.663 2.39371 -0.951798 0
M  V30 4078 H 374.621 3.0791 0.63553 0
M  V30 4079 N 378.394 1.34581 0.820102 0
M  V30 4080 C 379.805 1.24298 1.39309 0
M  V30 4081 C 380.156 -0.130351 1.95767 0
M  V30 4082 O 379.281 -1.0308 1.90272 0
M  V30 4083 C 379.876 2.25054 2.53251 0
M  V30 4084 C 378.435 2.18552 3.0645 0
M  V30 4085 C 377.582 2.11503 1.79337 0
M  V30 4086 H 380.533 1.45906 0.624262 0
M  V30 4087 H 380.554 1.86917 3.31425 0
M  V30 4088 H 380.066 3.24996 2.1213 0
M  V30 4089 H 378.167 1.21976 3.52069 0
M  V30 4090 H 378.28 3.0993 3.65349 0
M  V30 4091 H 376.644 1.57268 2.00347 0
M  V30 4092 H 377.427 3.13284 1.40386 0
M  V30 4093 N 379.872 -1.04064 1.18357 0
M  V30 4094 C 380.835 -2.10243 0.912707 0
M  V30 4095 C 381.835 -1.60477 -0.101928 0
M  V30 4096 O 383.025 -1.73703 0.131517 0
M  V30 4097 C 380.157 -3.38893 0.369387 0
M  V30 4098 H 381.35 -2.35706 1.85426 0
M  V30 4099 H 378.903 -1.20489 0.995594 0
M  V30 4100 H 379.638 -3.19094 -0.578776 0
M  V30 4101 H 379.423 -3.76331 1.1008 0
M  V30 4102 H 380.913 -4.17128 0.198575 0
M  V30 4103 N 381.35 -0.985608 -1.22978 0
M  V30 4104 C 382.297 -0.529825 -2.24636 0
M  V30 4105 C 383.267 0.434028 -1.60329 0
M  V30 4106 O 384.452 0.340414 -1.87739 0
M  V30 4107 C 381.592 0.156533 -3.44745 0
M  V30 4108 C 380.705 -0.848197 -4.23591 0
M  V30 4109 C 379.84 -0.136109 -5.31026 0
M  V30 4110 C 378.879 -1.1297 -6.01585 0
M  V30 4111 N 378.016 -0.446415 -7.00679 0
M  V30 4112 H 382.856 -1.40148 -2.62988 0
M  V30 4113 H 380.393 -0.702168 -1.29259 0
M  V30 4114 H 382.351 0.571324 -4.1327 0
M  V30 4115 H 380.981 0.992025 -3.07179 0
M  V30 4116 H 380.033 -1.38135 -3.54433 0
M  V30 4117 H 381.345 -1.60512 -4.72268 0
M  V30 4118 H 380.499 0.335784 -6.0577 0
M  V30 4119 H 379.238 0.653373 -4.83304 0
M  V30 4120 H 378.243 -1.6123 -5.25628 0
M  V30 4121 H 379.468 -1.91993 -6.51395 0
M  V30 4122 H 377.414 0.323763 -6.55201 0
M  V30 4123 H 377.331 -1.1419 -7.47326 0
M  V30 4124 H 378.599 0.00291697 -7.795 0
M  V30 4125 N 382.828 1.3818 -0.7579 0
M  V30 4126 C 384.244 1.5353 -0.435972 0
M  V30 4127 C 384.444 1.71961 1.05032 0
M  V30 4128 O 383.5 1.73307 1.83633 0
M  V30 4129 C 384.813 2.73989 -1.23898 0
M  V30 4130 C 386.361 2.87841 -1.22949 0
M  V30 4131 C 386.836 4.11266 -2.01554 0
M  V30 4132 N 388.327 4.18352 -1.98837 0
M  V30 4133 C 389.062 5.12856 -2.5645 0
M  V30 4134 N 388.558 6.13005 -3.22794 0
M  V30 4135 N 390.351 5.05238 -2.46356 0
M  V30 4136 H 382.502 1.24467 -1.7211 0
M  V30 4137 H 384.765 0.604982 -0.729864 0
M  V30 4138 H 384.471 2.66789 -2.29165 0
M  V30 4139 H 384.345 3.67294 -0.858764 0
M  V30 4140 H 386.732 2.9452 -0.184854 0
M  V30 4141 H 386.813 1.95534 -1.64924 0
M  V30 4142 H 386.457 4.05349 -3.06031 0
M  V30 4143 H 386.387 5.02661 -1.5697 0
M  V30 4144 H 388.878 3.46628 -1.50524 0
M  V30 4145 H 389.191 6.81619 -3.64165 0
M  V30 4146 H 387.536 6.13325 -3.2689 0
M  V30 4147 H 390.727 4.25938 -1.9415 0
M  V30 4148 H 390.9 5.78707 -2.91552 0
M  V30 4149 N 384.306 0.507319 1.49211 0
M  V30 4150 C 385.555 -0.0368315 2.01666 0
M  V30 4151 C 385.868 -1.37459 1.39156 0
M  V30 4152 O 387.074 -2.00579 1.82976 0
M  V30 4153 C 385.53 -0.116089 3.59713 0
M  V30 4154 C 385.138 1.2154 4.31198 0
M  V30 4155 C 386.882 -0.610268 4.2009 0
M  V30 4156 C 384.789 1.09796 5.81119 0
M  V30 4157 H 383.719 -0.0175376 0.753796 0
M  V30 4158 H 386.37 0.647691 1.71689 0
M  V30 4159 H 384.752 -0.8652 3.86433 0
M  V30 4160 H 385.926 1.9783 4.16173 0
M  V30 4161 H 384.241 1.64352 3.82593 0
M  V30 4162 H 386.838 -0.715742 5.29888 0
M  V30 4163 H 387.181 -1.61064 3.8388 0
M  V30 4164 H 387.714 0.0824916 3.97714 0
M  V30 4165 H 384.453 2.0728 6.21864 0
M  V30 4166 H 383.973 0.376058 5.9862 0
M  V30 4167 H 385.652 0.779281 6.4229 0
M  V30 4168 N 385.784 -1.5574 0.241426 0
M  V30 4169 C 387.012 -2.03208 -0.389134 0
M  V30 4170 C 387.427 -1.12082 -1.51931 0
M  V30 4171 O 386.784 -0.134183 -1.82006 0
M  V30 4172 C 386.835 -3.50064 -0.902087 0
M  V30 4173 O 386.556 -4.37717 0.18305 0
M  V30 4174 C 388.057 -4.13268 -1.60389 0
M  V30 4175 H 385.277 -0.664509 -0.0931053 0
M  V30 4176 H 387.821 -2.0124 0.36369 0
M  V30 4177 H 385.976 -3.52583 -1.60511 0
M  V30 4178 H 386.39 -5.24097 -0.205579 0
M  V30 4179 H 387.864 -5.17733 -1.91458 0
M  V30 4180 H 388.341 -3.59434 -2.52397 0
M  V30 4181 H 388.947 -4.14655 -0.945576 0
M  V30 4182 N 387.262 0.0317525 -1.57568 0
M  V30 4183 C 388.225 1.01783 -2.0536 0
M  V30 4184 C 389.225 1.29203 -0.957253 0
M  V30 4185 O 390.415 1.24251 -1.22095 0
M  V30 4186 C 387.547 2.35137 -2.46827 0
M  V30 4187 H 388.74 0.605062 -2.93733 0
M  V30 4188 H 386.293 0.278514 -1.53799 0
M  V30 4189 H 387.028 2.81168 -1.61602 0
M  V30 4190 H 386.813 2.16566 -3.26866 0
M  V30 4191 H 388.303 3.05938 -2.84239 0
M  V30 4192 N 388.74 1.54641 0.303973 0
M  V30 4193 C 390.017 1.64455 1.05896 0
M  V30 4194 C 390.397 0.490923 2.05312 0
M  V30 4195 O 389.745 -0.512685 2.22674 0
M  V30 4196 C 389.955 3.02331 1.74347 0
M  V30 4197 C 391.303 3.59045 2.26653 0
M  V30 4198 O 392.327 3.04764 1.84384 0
M  V30 4199 O 391.186 4.54081 3.04093 0
M  V30 4200 H 388.28 0.666729 0.489287 0
M  V30 4201 H 390.826 1.66986 0.302298 0
M  V30 4202 H 389.598 3.77734 1.02142 0
M  V30 4203 H 389.221 3.03565 2.56777 0
M  V30 4204 N 390.218 -0.567019 1.47046 0
M  V30 4205 C 391.15 -1.68985 1.54844 0
M  V30 4206 C 392.163 -1.56869 0.435431 0
M  V30 4207 O 393.352 -1.64006 0.70457 0
M  V30 4208 C 390.452 -3.07373 1.42742 0
M  V30 4209 C 389.625 -3.45339 2.6844 0
M  V30 4210 C 388.684 -4.62849 2.50314 0
M  V30 4211 O 387.71 -4.67922 3.24095 0
M  V30 4212 N 388.912 -5.58726 1.57499 0
M  V30 4213 H 391.677 -1.62745 2.51663 0
M  V30 4214 H 389.238 -0.753411 1.43302 0
M  V30 4215 H 391.23 -3.83803 1.28365 0
M  V30 4216 H 389.8 -3.07893 0.540445 0
M  V30 4217 H 389.02 -2.58455 2.97648 0
M  V30 4218 H 390.308 -3.67476 3.51907 0
M  V30 4219 H 389.706 -5.57376 0.966876 0
M  V30 4220 H 388.263 -6.34523 1.49078 0
M  V30 4221 N 391.696 -1.35014 -0.812953 0
M  V30 4222 C 392.659 -1.27292 -1.90602 0
M  V30 4223 C 393.659 -0.185817 -1.59723 0
M  V30 4224 O 394.849 -0.439102 -1.68575 0
M  V30 4225 C 391.981 -0.967676 -3.26877 0
M  V30 4226 H 393.174 -2.24479 -1.9887 0
M  V30 4227 H 390.727 -1.19446 -1.00808 0
M  V30 4228 H 391.462 0.0005954 -3.243 0
M  V30 4229 H 391.247 -1.75412 -3.50675 0
M  V30 4230 H 392.737 -0.939085 -4.06904 0
M  V30 4231 N 393.175 1.03435 -1.18907 0
M  V30 4232 C 394.105 2.13503 -0.945448 0
M  V30 4233 C 395.086 1.69682 0.119189 0
M  V30 4234 O 396.271 1.94169 -0.034707 0
M  V30 4235 C 393.401 3.44004 -0.477316 0
M  V30 4236 C 392.355 4.0148 -1.48316 0
M  V30 4237 C 391.681 5.27537 -0.872311 0
M  V30 4238 C 392.981 4.36921 -2.86177 0
M  V30 4239 H 394.675 2.34141 -1.86597 0
M  V30 4240 H 392.221 1.12523 -0.898584 0
M  V30 4241 H 394.174 4.20372 -0.294204 0
M  V30 4242 H 392.898 3.23072 0.478786 0
M  V30 4243 H 391.557 3.27201 -1.65332 0
M  V30 4244 H 391.205 5.02917 0.0911752 0
M  V30 4245 H 390.905 5.66954 -1.54393 0
M  V30 4246 H 392.429 6.06576 -0.699871 0
M  V30 4247 H 393.843 5.04248 -2.72776 0
M  V30 4248 H 392.24 4.87405 -3.50081 0
M  V30 4249 H 393.31 3.46466 -3.39248 0
M  V30 4250 N 394.653 0.992116 1.22453 0
M  V30 4251 C 395.6 0.541731 2.24352 0
M  V30 4252 C 396.57 -0.425519 1.60557 0
M  V30 4253 O 397.755 -0.330453 1.87917 0
M  V30 4254 C 394.895 -0.138248 3.44823 0
M  V30 4255 C 394.008 0.870649 4.23136 0
M  V30 4256 C 393.143 0.164269 5.30946 0
M  V30 4257 C 392.182 1.16159 6.00977 0
M  V30 4258 N 391.319 0.483568 7.00433 0
M  V30 4259 H 396.159 1.41541 2.62241 0
M  V30 4260 H 393.696 0.709013 1.28885 0
M  V30 4261 H 395.654 -0.5494 4.13567 0
M  V30 4262 H 394.284 -0.975721 3.077 0
M  V30 4263 H 393.336 1.40013 3.53696 0
M  V30 4264 H 394.648 1.63014 4.7141 0
M  V30 4265 H 393.802 -0.303653 6.0594 0
M  V30 4266 H 392.541 -0.627733 4.83643 0
M  V30 4267 H 391.546 1.64015 5.24766 0
M  V30 4268 H 392.771 1.95445 6.50368 0
M  V30 4269 H 390.717 -0.289012 6.55363 0
M  V30 4270 H 390.634 1.18152 7.4671 0
M  V30 4271 H 391.902 0.0384219 7.79491 0
M  V30 4272 N 396.131 -1.37776 0.765217 0
M  V30 4273 C 397.081 -2.2768 0.12075 0
M  V30 4274 C 398.065 -1.45778 -0.680988 0
M  V30 4275 O 399.257 -1.684 -0.545033 0
M  V30 4276 C 396.386 -3.34722 -0.762626 0
M  V30 4277 C 395.472 -4.24074 0.0465881 0
M  V30 4278 N 395.863 -4.93939 1.08892 0
M  V30 4279 C 394.161 -4.45643 -0.178418 0
M  V30 4280 C 394.862 -5.59845 1.57951 0
M  V30 4281 N 393.838 -5.36218 0.892797 0
M  V30 4282 H 397.64 -2.79166 0.918889 0
M  V30 4283 H 395.154 -1.50816 0.602353 0
M  V30 4284 H 397.151 -3.98031 -1.24005 0
M  V30 4285 H 395.811 -2.84793 -1.55959 0
M  V30 4286 H 396.822 -4.96572 1.47095 0
M  V30 4287 H 393.499 -4.06599 -0.9478 0
M  V30 4288 H 394.889 -6.25703 2.44838 0
M  V30 4289 N 397.609 -0.515225 -1.4894 0
M  V30 4290 C 399.02 -0.0710067 -1.86565 0
M  V30 4291 C 399.371 1.34733 -1.42623 0
M  V30 4292 O 398.496 2.00653 -0.810379 0
M  V30 4293 C 399.091 -0.122083 -3.3858 0
M  V30 4294 C 397.65 0.266863 -3.75453 0
M  V30 4295 C 396.797 -0.488376 -2.72966 0
M  V30 4296 H 399.748 -0.727266 -1.41055 0
M  V30 4297 H 399.769 0.669818 -3.74558 0
M  V30 4298 H 399.281 -1.15448 -3.70531 0
M  V30 4299 H 397.382 1.30196 -3.49113 0
M  V30 4300 H 397.495 -0.0624811 -4.79059 0
M  V30 4301 H 395.859 0.0635622 -2.54621 0
M  V30 4302 H 396.642 -1.52113 -3.07761 0
M  V30 4303 N 399.087 1.5561 -0.249682 0
M  V30 4304 C 400.333 2.00044 0.367952 0
M  V30 4305 C 400.688 1.1349 1.55363 0
M  V30 4306 O 399.981 0.191079 1.90645 0
M  V30 4307 C 400.175 3.4775 0.824887 0
M  V30 4308 C 400.004 4.48596 -0.314973 0
M  V30 4309 C 398.774 4.99077 -0.790555 0
M  V30 4310 C 400.972 5.0144 -1.14291 0
M  V30 4311 N 398.954 5.83675 -1.90254 0
M  V30 4312 C 400.325 5.83236 -2.10322 0
M  V30 4313 C 402.38 4.83736 -1.17916 0
M  V30 4314 C 401.083 6.49217 -3.09692 0
M  V30 4315 C 403.109 5.50497 -2.16117 0
M  V30 4316 C 402.471 6.32084 -3.10884 0
M  V30 4317 H 398.57 0.775512 0.100522 0
M  V30 4318 H 401.154 1.91193 -0.367896 0
M  V30 4319 H 399.325 3.56994 1.53002 0
M  V30 4320 H 401.057 3.79056 1.4177 0
M  V30 4321 H 397.812 4.72119 -0.374218 0
M  V30 4322 H 398.236 6.30671 -2.46137 0
M  V30 4323 H 402.878 4.20286 -0.460352 0
M  V30 4324 H 400.596 7.11832 -3.8252 0
M  V30 4325 H 404.182 5.38752 -2.19631 0
M  V30 4326 H 403.062 6.82832 -3.8563 0
M  V30 4327 N 400.565 -0.0233959 1.57583 0
M  V30 4328 C 401.811 -0.714119 1.89811 0
M  V30 4329 C 402.144 -1.74702 0.848113 0
M  V30 4330 O 401.419 -1.94023 -0.136135 0
M  V30 4331 C 401.702 -1.37853 3.32669 0
M  V30 4332 C 401.555 -0.358764 4.48367 0
M  V30 4333 C 402.874 -2.31101 3.7454 0
M  V30 4334 H 399.993 -0.25814 0.690314 0
M  V30 4335 H 402.635 0.0230927 1.89986 0
M  V30 4336 H 400.785 -2.00689 3.3265 0
M  V30 4337 H 402.457 0.268115 4.6052 0
M  V30 4338 H 400.7 0.321387 4.32608 0
M  V30 4339 H 401.371 -0.862242 5.45224 0
M  V30 4340 H 403.847 -1.78304 3.75961 0
M  V30 4341 H 402.723 -2.74567 4.75294 0
M  V30 4342 H 402.984 -3.18018 3.0711 0
M  V30 4343 N 402.043 -1.548 -0.295768 0
M  V30 4344 C 403.283 -1.76069 -1.03823 0
M  V30 4345 C 403.647 -0.537992 -1.84309 0
M  V30 4346 O 404.848 -0.628514 -2.61349 0
M  V30 4347 C 403.119 -3.01705 -1.91596 0
M  V30 4348 S 404.678 -3.43998 -2.72416 0
M  V30 4349 H 401.496 -0.618852 -0.350062 0
M  V30 4350 H 404.098 -1.93009 -0.31106 0
M  V30 4351 H 402.802 -3.88812 -1.31351 0
M  V30 4352 H 402.333 -2.87366 -2.68671 0
M  V30 4353 H 404.348 -3.0148 -3.94112 0
M  V30 4354 N 403.521 0.559213 -1.47345 0
M  V30 4355 C 404.453 1.68161 -1.55738 0
M  V30 4356 C 405.466 1.56636 -0.443744 0
M  V30 4357 O 406.655 1.6363 -0.713258 0
M  V30 4358 C 403.755 3.06611 -1.4437 0
M  V30 4359 C 402.928 3.4391 -2.70268 0
M  V30 4360 C 401.987 4.61515 -2.52765 0
M  V30 4361 O 401.013 4.66197 -3.26572 0
M  V30 4362 N 402.215 5.57883 -1.6046 0
M  V30 4363 H 404.98 1.61408 -2.52522 0
M  V30 4364 H 402.541 0.7458 -1.43699 0
M  V30 4365 H 404.533 3.83117 -1.30398 0
M  V30 4366 H 403.103 3.07602 -0.556766 0
M  V30 4367 H 402.323 2.56873 -2.99015 0
M  V30 4368 H 403.611 3.65605 -3.53851 0
M  V30 4369 H 403.009 5.56855 -0.996422 0
M  V30 4370 H 401.566 6.33723 -1.52441 0
M  V30 4371 N 404.999 1.35443 0.805782 0
M  V30 4372 C 406.415 1.15499 1.10146 0
M  V30 4373 C 406.615 -0.0319975 2.01475 0
M  V30 4374 O 405.671 -0.70236 2.42535 0
M  V30 4375 C 406.984 2.45833 1.73166 0
M  V30 4376 C 408.532 2.52047 1.85583 0
M  V30 4377 C 409.007 3.82427 2.52019 0
M  V30 4378 N 410.498 3.83682 2.59504 0
M  V30 4379 C 411.233 4.81294 3.11679 0
M  V30 4380 N 410.729 5.89294 3.64287 0
M  V30 4381 N 412.522 4.6873 3.1024 0
M  V30 4382 H 404.673 2.11469 0.198678 0
M  V30 4383 H 406.936 0.93594 0.150731 0
M  V30 4384 H 406.642 3.32874 1.13526 0
M  V30 4385 H 406.516 2.6044 2.72857 0
M  V30 4386 H 408.903 1.65435 2.44367 0
M  V30 4387 H 408.984 2.41354 0.847455 0
M  V30 4388 H 408.628 4.69437 1.93885 0
M  V30 4389 H 408.558 3.90409 3.53395 0
M  V30 4390 H 411.049 3.05648 2.22234 0
M  V30 4391 H 411.362 6.59768 4.02401 0
M  V30 4392 H 409.707 5.92985 3.62483 0
M  V30 4393 H 412.898 3.83496 2.68419 0
M  V30 4394 H 413.071 5.44965 3.50596 0
M  V30 4395 N 406.477 -1.02803 1.19454 0
M  V30 4396 C 407.702 -1.80378 1.02364 0
M  V30 4397 C 408.127 -1.83282 -0.423007 0
M  V30 4398 O 407.485 -1.25945 -1.30413 0
M  V30 4399 C 407.533 -3.23248 1.59821 0
M  V30 4400 O 406.637 -4.04 0.828105 0
M  V30 4401 H 405.978 -0.556799 0.361761 0
M  V30 4402 H 408.508 -1.29385 1.58495 0
M  V30 4403 H 408.518 -3.73994 1.63073 0
M  V30 4404 H 407.193 -3.2045 2.65113 0
M  V30 4405 H 405.77 -3.62635 0.86891 0
M  V30 4406 N 407.956 -0.998596 -1.21925 0
M  V30 4407 C 409.184 -0.696286 -1.94832 0
M  V30 4408 C 409.599 0.740032 -1.73692 0
M  V30 4409 O 408.956 1.5 -1.03953 0
M  V30 4410 C 409.007 -0.999833 -3.47398 0
M  V30 4411 O 408.728 -2.37972 -3.67833 0
M  V30 4412 C 410.229 -0.716025 -4.37479 0
M  V30 4413 H 407.449 -0.257111 -0.619786 0
M  V30 4414 H 409.993 -1.33491 -1.54921 0
M  V30 4415 H 408.148 -0.406918 -3.85257 0
M  V30 4416 H 408.562 -2.48338 -4.61983 0
M  V30 4417 H 410.036 -0.978642 -5.43256 0
M  V30 4418 H 410.513 0.349968 -4.37803 0
M  V30 4419 H 411.119 -1.29025 -4.05256 0
M  V30 4420 N 409.434 1.37368 -0.772513 0
M  V30 4421 C 410.68 1.99969 -0.337681 0
M  V30 4422 C 411.013 1.61184 1.08321 0
M  V30 4423 O 410.288 0.858395 1.74533 0
M  V30 4424 C 410.571 3.56858 -0.482121 0
M  V30 4425 C 410.424 4.0555 -1.94549 0
M  V30 4426 C 411.743 4.39955 0.113143 0
M  V30 4427 H 408.862 0.726464 -0.124171 0
M  V30 4428 H 411.504 1.63034 -0.975699 0
M  V30 4429 H 409.654 3.88452 0.0610361 0
M  V30 4430 H 411.326 3.84518 -2.54841 0
M  V30 4431 H 409.569 3.57715 -2.45403 0
M  V30 4432 H 410.24 5.14587 -1.9976 0
M  V30 4433 H 412.716 4.14623 -0.35031 0
M  V30 4434 H 411.592 5.48897 -0.0180514 0
M  V30 4435 H 411.853 4.25403 1.20354 0
M  V30 4436 N 410.912 0.523116 1.48665 0
M  V30 4437 C 411.875 -0.232592 2.28017 0
M  V30 4438 C 412.875 -0.874021 1.34972 0
M  V30 4439 O 414.065 -0.735132 1.57929 0
M  V30 4440 C 411.197 -1.33586 3.13636 0
M  V30 4441 H 412.39 0.464008 2.96289 0
M  V30 4442 H 409.943 0.278816 1.53793 0
M  V30 4443 H 410.678 -2.06593 2.4998 0
M  V30 4444 H 410.463 -0.881125 3.82071 0
M  V30 4445 H 411.953 -1.86759 3.73511 0
M  V30 4446 N 412.39 -1.55475 0.257931 0
M  V30 4447 C 413.615 -2.04064 -0.370488 0
M  V30 4448 C 414.04 -1.13565 -1.49948 0
M  V30 4449 O 413.398 -0.130781 -1.80828 0
M  V30 4450 C 413.446 -3.50554 -0.845237 0
M  V30 4451 O 412.55 -3.63173 -1.95394 0
M  V30 4452 H 411.891 -0.659257 -0.0792243 0
M  V30 4453 H 414.421 -2.00903 0.387212 0
M  V30 4454 H 414.431 -3.91588 -1.14555 0
M  V30 4455 H 413.106 -4.15896 -0.0191259 0
M  V30 4456 H 411.683 -3.34039 -1.65748 0
M  V30 4457 N 413.868 0.0150385 -1.57593 0
M  V30 4458 C 414.801 1.04475 -2.0288 0
M  V30 4459 C 415.779 1.3436 -0.915764 0
M  V30 4460 O 416.963 1.46779 -1.18271 0
M  V30 4461 C 414.09 2.37608 -2.41371 0
M  V30 4462 C 413.136 2.23487 -3.63257 0
M  V30 4463 S 413.969 1.57505 -5.11813 0
M  V30 4464 C 415.125 2.921 -5.5356 0
M  V30 4465 H 415.358 0.65907 -2.89903 0
M  V30 4466 H 412.891 0.225452 -1.52745 0
M  V30 4467 H 414.849 3.14165 -2.64217 0
M  V30 4468 H 413.51 2.7332 -1.54775 0
M  V30 4469 H 412.703 3.21802 -3.87891 0
M  V30 4470 H 412.305 1.55074 -3.40335 0
M  V30 4471 H 414.597 3.88419 -5.55101 0
M  V30 4472 H 415.54 2.72184 -6.53698 0
M  V30 4473 H 415.948 2.95318 -4.8109 0
M  V30 4474 N 415.346 1.54954 0.287554 0
M  V30 4475 C 416.279 1.81737 1.3801 0
M  V30 4476 C 417.257 0.669412 1.48181 0
M  V30 4477 O 418.441 0.910839 1.65033 0
M  V30 4478 C 415.568 1.96606 2.75796 0
M  V30 4479 C 414.614 3.19098 2.82982 0
M  V30 4480 S 415.447 4.7683 2.43707 0
M  V30 4481 C 416.603 4.94653 3.83496 0
M  V30 4482 H 416.836 2.74122 1.15085 0
M  V30 4483 H 414.369 1.46538 0.486403 0
M  V30 4484 H 416.327 2.05858 3.55152 0
M  V30 4485 H 414.988 1.05136 2.95982 0
M  V30 4486 H 414.181 3.26344 3.84077 0
M  V30 4487 H 413.783 3.08361 2.11635 0
M  V30 4488 H 416.075 4.79502 4.78628 0
M  V30 4489 H 417.018 5.96728 3.8121 0
M  V30 4490 H 417.426 4.2272 3.74123 0
M  V30 4491 N 416.824 -0.551391 1.4764 0
M  V30 4492 C 417.774 -1.65362 1.56969 0
M  V30 4493 C 418.758 -1.55098 0.428189 0
M  V30 4494 O 419.95 -1.63481 0.678441 0
M  V30 4495 C 417.079 -3.04129 1.59249 0
M  V30 4496 C 416.165 -3.19576 2.78804 0
M  V30 4497 N 416.556 -3.05067 4.03445 0
M  V30 4498 C 414.854 -3.50588 2.75688 0
M  V30 4499 C 415.555 -3.2336 4.83543 0
M  V30 4500 N 414.531 -3.4996 4.15968 0
M  V30 4501 H 418.333 -1.52722 2.51104 0
M  V30 4502 H 415.847 -0.756303 1.43714 0
M  V30 4503 H 417.844 -3.83278 1.64024 0
M  V30 4504 H 416.504 -3.17877 0.662148 0
M  V30 4505 H 417.515 -2.82273 4.34215 0
M  V30 4506 H 414.192 -3.70827 1.91817 0
M  V30 4507 H 415.582 -3.17061 5.92387 0
M  V30 4508 N 418.302 -1.35869 -0.798587 0
M  V30 4509 C 419.718 -1.16082 -1.09532 0
M  V30 4510 C 419.918 0.0213124 -2.01489 0
M  V30 4511 O 418.974 0.689488 -2.42904 0
M  V30 4512 C 420.287 -2.46748 -1.7186 0
M  V30 4513 C 421.835 -2.53028 -1.84244 0
M  V30 4514 C 422.31 -3.83758 -2.49988 0
M  V30 4515 N 423.801 -3.85053 -2.57465 0
M  V30 4516 C 424.536 -4.8294 -3.09122 0
M  V30 4517 N 424.032 -5.91217 -3.61157 0
M  V30 4518 N 425.825 -4.70369 -3.0775 0
M  V30 4519 H 417.976 -2.11571 -0.187461 0
M  V30 4520 H 420.239 -0.936726 -0.145765 0
M  V30 4521 H 419.945 -3.33471 -1.11759 0
M  V30 4522 H 419.819 -2.61883 -2.71472 0
M  V30 4523 H 422.206 -1.66729 -2.43486 0
M  V30 4524 H 422.287 -2.418 -0.834643 0
M  V30 4525 H 421.931 -4.70459 -1.91393 0
M  V30 4526 H 421.861 -3.92278 -3.5132 0
M  V30 4527 H 424.352 -3.06822 -2.20609 0
M  V30 4528 H 424.665 -6.61892 -3.98896 0
M  V30 4529 H 423.01 -5.94899 -3.59333 0
M  V30 4530 H 426.201 -3.84914 -2.66381 0
M  V30 4531 H 426.374 -5.46816 -3.47701 0
M  V30 4532 N 419.78 1.02168 -1.19998 0
M  V30 4533 C 420.712 2.10705 -0.901994 0
M  V30 4534 C 421.725 1.6244 0.108216 0
M  V30 4535 O 422.914 1.78082 -0.12214 0
M  V30 4536 C 420.014 3.37291 -0.329834 0
M  V30 4537 C 419.187 4.14714 -1.39035 0
M  V30 4538 C 418.246 5.19606 -0.830432 0
M  V30 4539 O 417.272 5.48809 -1.50989 0
M  V30 4540 N 418.474 5.79366 0.362696 0
M  V30 4541 H 421.239 2.36856 -1.83628 0
M  V30 4542 H 418.8 1.18518 -1.10296 0
M  V30 4543 H 420.792 4.04657 0.0587633 0
M  V30 4544 H 419.362 3.0843 0.508891 0
M  V30 4545 H 418.582 3.42392 -1.9535 0
M  V30 4546 H 419.87 4.63226 -2.10474 0
M  V30 4547 H 419.268 5.57968 0.932081 0
M  V30 4548 H 417.825 6.48106 0.69299 0
M  V30 4549 N 421.258 1.00505 1.21394 0
M  V30 4550 C 422.168 0.574806 2.27449 0
M  V30 4551 C 423.184 -0.382206 1.6975 0
M  V30 4552 O 424.36 -0.246027 1.99892 0
M  V30 4553 C 421.425 -0.0917414 3.46579 0
M  V30 4554 C 420.486 0.909758 4.1955 0
M  V30 4555 C 419.719 0.274924 5.32991 0
M  V30 4556 O 419.942 -0.928254 5.62796 0
M  V30 4557 O 418.876 0.985877 5.93771 0
M  V30 4558 H 422.702 1.45744 2.66444 0
M  V30 4559 H 420.287 0.773923 1.27792 0
M  V30 4560 H 422.169 -0.464551 4.18832 0
M  V30 4561 H 420.844 -0.948755 3.09484 0
M  V30 4562 H 419.751 1.33372 3.49518 0
M  V30 4563 H 421.084 1.73636 4.60555 0
M  V30 4564 N 422.737 -1.36956 0.779787 0
M  V30 4565 C 423.965 -2.03755 0.359398 0
M  V30 4566 C 424.38 -1.58807 -1.02106 0
M  V30 4567 O 423.737 -0.773024 -1.6532 0
M  V30 4568 C 423.788 -3.59251 0.402568 0
M  V30 4569 O 423.509 -4.02557 1.72858 0
M  V30 4570 C 425.01 -4.43291 -0.0284068 0
M  V30 4571 H 422.23 -0.654148 0.149437 0
M  V30 4572 H 424.774 -1.75128 1.05595 0
M  V30 4573 H 422.929 -3.86621 -0.245478 0
M  V30 4574 H 423.343 -4.97111 1.67275 0
M  V30 4575 H 424.817 -5.51975 0.0529466 0
M  V30 4576 H 425.294 -4.25719 -1.07982 0
M  V30 4577 H 425.9 -4.21163 0.591758 0
M  V30 4578 N 424.215 -0.530993 -1.48385 0
M  V30 4579 C 425.461 0.00274135 -2.028 0
M  V30 4580 C 425.794 1.33838 -1.40716 0
M  V30 4581 O 425.069 1.86465 -0.553277 0
M  V30 4582 C 425.352 0.123676 -3.59888 0
M  V30 4583 C 425.205 -1.2372 -4.3245 0
M  V30 4584 C 426.524 0.849967 -4.31814 0
M  V30 4585 H 423.643 -0.000477758 -0.737 0
M  V30 4586 H 426.285 -0.688217 -1.77098 0
M  V30 4587 H 424.435 0.712157 -3.81917 0
M  V30 4588 H 426.107 -1.86687 -4.21836 0
M  V30 4589 H 424.35 -1.81882 -3.93829 0
M  V30 4590 H 425.021 -1.10557 -5.40815 0
M  V30 4591 H 427.497 0.350572 -4.14621 0
M  V30 4592 H 426.373 0.903486 -5.41413 0
M  V30 4593 H 426.634 1.90047 -3.99167 0
M  V30 4594 N 425.693 1.55336 -0.266172 0
M  V30 4595 C 426.603 2.2583 0.635458 0
M  V30 4596 C 427.619 1.28106 1.17749 0
M  V30 4597 O 428.795 1.61024 1.20968 0
M  V30 4598 C 425.86 2.95879 1.80712 0
M  V30 4599 C 424.921 4.09059 1.30265 0
M  V30 4600 C 424.154 4.75759 2.41846 0
M  V30 4601 O 424.377 4.41622 3.61007 0
M  V30 4602 O 423.311 5.63888 2.1051 0
M  V30 4603 H 427.137 3.03631 0.0646693 0
M  V30 4604 H 424.722 1.49361 -0.0339177 0
M  V30 4605 H 426.604 3.39932 2.49047 0
M  V30 4606 H 425.279 2.21002 2.36516 0
M  V30 4607 H 424.186 3.69482 0.586019 0
M  V30 4608 H 425.519 4.85811 0.790458 0
M  V30 4609 N 427.171 -0.0066808 1.57599 0
M  V30 4610 C 428.411 -0.697501 1.92131 0
M  V30 4611 C 428.775 -1.71306 0.867071 0
M  V30 4612 O 429.976 -2.45377 1.09743 0
M  V30 4613 C 428.247 -1.32978 3.3174 0
M  V30 4614 S 429.806 -2.04665 3.88146 0
M  V30 4615 H 426.624 -0.230555 0.672581 0
M  V30 4616 H 429.226 0.0484026 1.9544 0
M  V30 4617 H 427.93 -0.57772 4.06313 0
M  V30 4618 H 427.461 -2.11376 3.31789 0
M  V30 4619 H 429.476 -3.32097 3.68682 0
M  V30 4620 N 428.649 -1.55105 -0.279332 0
M  V30 4621 C 429.579 -1.90557 -1.34945 0
M  V30 4622 C 430.56 -0.766738 -1.51839 0
M  V30 4623 O 431.745 -1.02434 -1.64988 0
M  V30 4624 C 428.875 -2.17193 -2.71006 0
M  V30 4625 C 427.829 -3.33021 -2.68851 0
M  V30 4626 C 427.155 -3.45123 -4.08405 0
M  V30 4627 C 428.455 -4.69578 -2.28678 0
M  V30 4628 H 430.149 -2.80188 -1.05522 0
M  V30 4629 H 427.695 -1.34811 -0.506173 0
M  V30 4630 H 429.648 -2.40581 -3.45975 0
M  V30 4631 H 428.372 -1.24355 -3.01999 0
M  V30 4632 H 427.031 -3.0959 -1.9634 0
M  V30 4633 H 426.679 -2.49762 -4.3661 0
M  V30 4634 H 426.379 -4.22995 -4.07859 0
M  V30 4635 H 427.903 -3.70796 -4.85121 0
M  V30 4636 H 429.317 -4.92553 -2.93368 0
M  V30 4637 H 427.714 -5.5032 -2.39306 0
M  V30 4638 H 428.784 -4.68828 -1.23807 0
M  V30 4639 N 430.127 0.543554 -1.4793 0
M  V30 4640 C 431.543 0.870806 -1.3375 0
M  V30 4641 C 431.743 1.9864 -0.338261 0
M  V30 4642 O 430.799 2.51305 0.245371 0
M  V30 4643 C 432.112 1.25114 -2.73435 0
M  V30 4644 C 433.66 1.3618 -2.81823 0
M  V30 4645 C 434.135 1.77563 -4.22179 0
M  V30 4646 N 435.626 1.8469 -4.24787 0
M  V30 4647 C 436.361 2.18067 -5.30315 0
M  V30 4648 N 435.857 2.49963 -6.46135 0
M  V30 4649 N 437.65 2.18958 -5.17701 0
M  V30 4650 H 429.801 -0.19275 -2.11524 0
M  V30 4651 H 432.064 -0.0235777 -0.947707 0
M  V30 4652 H 431.77 0.50514 -3.48053 0
M  V30 4653 H 431.644 2.20431 -3.06088 0
M  V30 4654 H 434.031 2.09859 -2.07468 0
M  V30 4655 H 434.112 0.390169 -2.52807 0
M  V30 4656 H 433.756 1.04449 -4.97044 0
M  V30 4657 H 433.686 2.75753 -4.48629 0
M  V30 4658 H 436.177 1.62372 -3.41239 0
M  V30 4659 H 436.49 2.74497 -7.22406 0
M  V30 4660 H 434.835 2.47513 -6.49432 0
M  V30 4661 H 438.026 1.93488 -4.2624 0
M  V30 4662 H 438.199 2.44639 -6.00047 0
M  V30 4663 N 431.605 1.3629 0.791371 0
M  V30 4664 C 432.552 1.30458 1.90393 0
M  V30 4665 C 433.522 0.173632 1.6519 0
M  V30 4666 O 434.707 0.35983 1.87376 0
M  V30 4667 C 431.847 1.09777 3.27174 0
M  V30 4668 C 430.96 2.31929 3.64462 0
M  V30 4669 C 430.095 2.04276 4.90352 0
M  V30 4670 C 429.134 3.224 5.20312 0
M  V30 4671 N 428.271 2.94424 6.37385 0
M  V30 4672 H 433.111 2.25589 1.94714 0
M  V30 4673 H 430.648 1.12122 0.952216 0
M  V30 4674 H 432.606 0.958133 4.06049 0
M  V30 4675 H 431.236 0.183014 3.22281 0
M  V30 4676 H 430.288 2.56703 2.80727 0
M  V30 4677 H 431.6 3.20085 3.82553 0
M  V30 4678 H 430.754 1.87231 5.77087 0
M  V30 4679 H 429.493 1.13428 4.74326 0
M  V30 4680 H 428.498 3.40005 4.32061 0
M  V30 4681 H 429.723 4.14071 5.38258 0
M  V30 4682 H 427.669 2.06185 6.22755 0
M  V30 4683 H 427.586 3.76118 6.55798 0
M  V30 4684 H 428.854 2.80953 7.27108 0
M  V30 4685 N 433.083 -1.0153 1.20538 0
M  V30 4686 C 434.33 -1.75149 1.01633 0
M  V30 4687 C 434.658 -1.89189 -0.451399 0
M  V30 4688 O 433.913 -1.41551 -1.35136 0
M  V30 4689 C 434.212 -3.17213 1.64654 0
M  V30 4690 C 433.878 -3.23146 3.14464 0
M  V30 4691 C 432.54 -3.24472 3.55347 0
M  V30 4692 C 434.892 -3.21207 4.10458 0
M  V30 4693 C 432.22 -3.21532 4.90748 0
M  V30 4694 C 434.572 -3.19808 5.45807 0
M  V30 4695 C 433.236 -3.19439 5.86102 0
M  V30 4696 H 432.506 -0.640914 0.3719 0
M  V30 4697 H 435.153 -1.19071 1.49981 0
M  V30 4698 H 433.458 -3.76457 1.08571 0
M  V30 4699 H 435.155 -3.72871 1.4754 0
M  V30 4700 H 431.745 -3.2285 2.81897 0
M  V30 4701 H 435.929 -3.19351 3.79906 0
M  V30 4702 H 431.185 -3.19578 5.21229 0
M  V30 4703 H 435.359 -3.1726 6.19935 0
M  V30 4704 H 432.986 -3.16915 6.90991 0
M  V30 4705 N 434.561 -1.01147 -1.20859 0
M  V30 4706 C 435.509 -0.57059 -2.25493 0
M  V30 4707 C 436.503 0.388109 -1.64894 0
M  V30 4708 O 437.709 0.258592 -1.78133 0
M  V30 4709 H 434.084 -0.166191 -0.733406 0
M  V30 4710 H 436.055 -1.46411 -2.60012 0
M  V30 4711 C 434.804 0.0805241 -3.47607 0
M  V30 4712 H 434.127 -0.648156 -3.94511 0
M  V30 4713 H 435.567 0.352197 -4.22535 0
M  V30 4714 C 434.026 1.32175 -3.09889 0
M  V30 4715 O 434.556 2.41553 -3.20959 0
M  V30 4716 N 432.762 1.20392 -2.64488 0
M  V30 4717 H 432.309 0.313905 -2.5568 0
M  V30 4718 H 432.267 2.03541 -2.39621 0
M  V30 4719 N 436.039 1.36541 -0.78704 0
M  V30 4720 C 437.002 2.28413 -0.189778 0
M  V30 4721 C 438.002 1.48719 0.611499 0
M  V30 4722 O 439.192 1.68737 0.432842 0
M  V30 4723 C 436.324 3.32824 0.737638 0
M  V30 4724 H 437.517 2.82743 -0.999831 0
M  V30 4725 H 435.07 1.46065 -0.556298 0
M  V30 4726 H 435.805 2.83646 1.57212 0
M  V30 4727 H 435.59 3.91752 0.165044 0
M  V30 4728 H 437.08 4.0144 1.15047 0
M  V30 4729 N 437.518 0.538854 1.48102 0
M  V30 4730 C 438.934 0.19732 1.58376 0
M  V30 4731 C 439.134 -1.29971 1.5398 0
M  V30 4732 O 438.19 -2.07861 1.43352 0
M  V30 4733 C 439.503 0.807716 2.89649 0
M  V30 4734 C 441.051 0.77726 3.03196 0
M  V30 4735 C 441.526 1.36639 4.37143 0
M  V30 4736 N 443.017 1.32875 4.43732 0
M  V30 4737 C 443.752 1.7544 5.45901 0
M  V30 4738 N 443.248 2.25776 6.54979 0
M  V30 4739 N 445.041 1.66623 5.36836 0
M  V30 4740 H 437.192 1.5117 1.49202 0
M  V30 4741 H 439.455 0.629327 0.708979 0
M  V30 4742 H 439.161 1.85909 2.98548 0
M  V30 4743 H 439.035 0.289975 3.76084 0
M  V30 4744 H 441.422 -0.265374 2.93904 0
M  V30 4745 H 441.503 1.33256 2.18349 0
M  V30 4746 H 441.147 2.408 4.47189 0
M  V30 4747 H 441.077 0.786689 5.20691 0
M  V30 4748 H 443.568 0.96037 3.65493 0
M  V30 4749 H 443.881 2.56226 7.29087 0
M  V30 4750 H 442.226 2.29775 6.55918 0
M  V30 4751 H 445.417 1.27089 4.50517 0
M  V30 4752 H 445.59 2.00115 6.16326 0
M  V30 4753 N 438.996 -1.55193 0.274407 0
M  V30 4754 C 440.412 -1.59401 -0.0797543 0
M  V30 4755 C 440.612 -1.29162 -1.54659 0
M  V30 4756 O 439.668 -1.05215 -2.29534 0
M  V30 4757 C 440.981 -2.99257 0.294238 0
M  V30 4758 C 442.529 -3.12072 0.240796 0
M  V30 4759 C 443.004 -4.54194 0.589218 0
M  V30 4760 N 444.495 -4.60033 0.540744 0
M  V30 4761 C 445.23 -5.68027 0.783147 0
M  V30 4762 N 444.726 -6.8417 1.09013 0
M  V30 4763 N 446.519 -5.57572 0.711993 0
M  V30 4764 H 438.67 -1.73113 1.23067 0
M  V30 4765 H 440.933 -0.807197 0.497129 0
M  V30 4766 H 440.639 -3.26217 1.31435 0
M  V30 4767 H 440.513 -3.75427 -0.365281 0
M  V30 4768 H 442.9 -2.84877 -0.770024 0
M  V30 4769 H 442.981 -2.38117 0.934563 0
M  V30 4770 H 442.625 -4.82115 1.59772 0
M  V30 4771 H 442.555 -5.26448 -0.126331 0
M  V30 4772 H 445.046 -3.76599 0.313327 0
M  V30 4773 H 445.359 -7.6243 1.26178 0
M  V30 4774 H 443.704 -6.85787 1.12789 0
M  V30 4775 H 446.895 -4.65714 0.472014 0
M  V30 4776 H 447.068 -6.41659 0.90429 0
M  V30 4777 N 440.474 -0.00167713 -1.576 0
M  V30 4778 C 441.421 0.989195 -2.08527 0
M  V30 4779 C 442.391 1.34031 -0.981065 0
M  V30 4780 O 443.576 1.43839 -1.2536 0
M  V30 4781 C 440.716 2.27537 -2.59463 0
M  V30 4782 C 439.829 1.98314 -3.83791 0
M  V30 4783 C 438.964 3.21025 -4.23222 0
M  V30 4784 C 438.003 2.87495 -5.40382 0
M  V30 4785 N 437.14 4.02749 -5.75098 0
M  V30 4786 H 441.98 0.547973 -2.92919 0
M  V30 4787 H 439.517 0.258917 -1.44803 0
M  V30 4788 H 441.475 3.02729 -2.87073 0
M  V30 4789 H 440.105 2.69325 -1.77943 0
M  V30 4790 H 439.157 1.13482 -3.63078 0
M  V30 4791 H 440.469 1.69601 -4.69081 0
M  V30 4792 H 439.623 4.04561 -4.52123 0
M  V30 4793 H 438.362 3.52877 -3.36644 0
M  V30 4794 H 437.367 2.02367 -5.11202 0
M  V30 4795 H 438.592 2.56889 -6.28637 0
M  V30 4796 H 436.538 4.34494 -4.91478 0
M  V30 4797 H 436.455 3.77566 -6.54966 0
M  V30 4798 H 437.723 4.87068 -6.08592 0
M  V30 4799 N 441.952 1.55251 0.271103 0
M  V30 4800 C 442.882 1.9127 1.33933 0
M  V30 4801 C 443.863 0.77478 1.5143 0
M  V30 4802 O 445.048 1.03307 1.64442 0
M  V30 4803 C 442.178 2.18627 2.69851 0
M  V30 4804 C 441.132 3.34442 2.67081 0
M  V30 4805 C 440.458 3.47284 4.06569 0
M  V30 4806 C 441.758 4.70784 2.26185 0
M  V30 4807 H 443.452 2.80744 1.04035 0
M  V30 4808 H 440.998 1.35077 0.499017 0
M  V30 4809 H 442.951 2.42413 3.44694 0
M  V30 4810 H 441.675 1.25955 3.01335 0
M  V30 4811 H 440.334 3.10627 1.94695 0
M  V30 4812 H 439.982 2.52074 4.35279 0
M  V30 4813 H 439.682 4.25152 4.0561 0
M  V30 4814 H 441.206 3.73363 4.83148 0
M  V30 4815 H 442.62 4.94102 2.90751 0
M  V30 4816 H 441.017 5.51582 2.36384 0
M  V30 4817 H 442.087 4.69478 1.21319 0
M  V30 4818 N 443.43 -0.535701 1.48216 0
M  V30 4819 C 444.377 -1.64083 1.62312 0
M  V30 4820 C 445.347 -1.59448 0.465365 0
M  V30 4821 O 446.532 -1.77959 0.688135 0
M  V30 4822 C 443.672 -3.0236 1.66349 0
M  V30 4823 C 442.785 -3.17273 2.93193 0
M  V30 4824 C 441.92 -4.46075 2.88427 0
M  V30 4825 C 440.959 -4.54496 4.1 0
M  V30 4826 N 440.096 -5.7468 4.03345 0
M  V30 4827 H 444.936 -1.51374 2.5669 0
M  V30 4828 H 442.473 -0.737059 1.27302 0
M  V30 4829 H 444.431 -3.82461 1.66672 0
M  V30 4830 H 443.061 -3.13854 0.754672 0
M  V30 4831 H 442.113 -2.30462 3.02641 0
M  V30 4832 H 443.425 -3.19357 3.83162 0
M  V30 4833 H 442.579 -5.3446 2.87119 0
M  V30 4834 H 441.318 -4.46504 1.96177 0
M  V30 4835 H 440.323 -3.64519 4.11589 0
M  V30 4836 H 441.548 -4.5581 5.03402 0
M  V30 4837 H 439.494 -5.76017 3.13912 0
M  V30 4838 H 439.411 -5.78234 4.87013 0
M  V30 4839 H 440.679 -6.65367 4.06087 0
M  V30 4840 N 444.908 -1.36708 -0.784132 0
M  V30 4841 C 446.156 -1.30972 -1.53918 0
M  V30 4842 C 446.477 0.109086 -1.94695 0
M  V30 4843 O 445.747 1.05048 -1.65353 0
M  V30 4844 H 444.327 -0.481819 -0.570841 0
M  V30 4845 H 446.989 -1.71063 -0.934002 0
M  V30 4846 H 446.085 -1.94061 -2.44431 0
M  V30 4847 N 446.386 1.0089 -1.21074 0
M  V30 4848 C 447.349 2.0775 -0.968129 0
M  V30 4849 C 448.349 1.6069 0.0593445 0
M  V30 4850 O 449.539 1.73293 -0.177525 0
M  V30 4851 C 446.671 3.37794 -0.459108 0
M  V30 4852 H 447.864 2.30707 -1.9161 0
M  V30 4853 H 445.417 1.17807 -1.02719 0
M  V30 4854 H 446.152 3.20516 0.49397 0
M  V30 4855 H 445.937 3.7328 -1.20019 0
M  V30 4856 H 447.427 4.16454 -0.309099 0
M  V30 4857 N 447.864 1.01787 1.20321 0
M  V30 4858 C 449.113 0.703249 1.89043 0
M  V30 4859 C 449.426 -0.770445 1.79787 0
M  V30 4860 O 450.632 -1.19767 2.43656 0
M  V30 4861 C 449.088 1.20749 3.3904 0
M  V30 4862 C 448.696 2.70817 3.56878 0
M  V30 4863 C 450.44 0.968352 4.13308 0
M  V30 4864 C 448.347 3.14716 5.00708 0
M  V30 4865 H 447.277 0.259354 0.707991 0
M  V30 4866 H 449.928 1.23072 1.36108 0
M  V30 4867 H 448.31 0.607989 3.91305 0
M  V30 4868 H 449.484 3.36327 3.14993 0
M  V30 4869 H 447.799 2.92888 2.95983 0
M  V30 4870 H 450.396 1.27173 5.19356 0
M  V30 4871 H 450.739 -0.095149 4.16191 0
M  V30 4872 H 451.272 1.53129 3.67146 0
M  V30 4873 H 448.011 4.20347 5.02979 0
M  V30 4874 H 447.531 2.53927 5.43398 0
M  V30 4875 H 449.21 3.07426 5.69296 0
M  V30 4876 N 449.342 -1.36122 0.79427 0
M  V30 4877 C 450.272 -2.32551 0.210328 0
M  V30 4878 C 451.253 -1.56884 -0.657386 0
M  V30 4879 O 452.438 -1.85014 -0.590207 0
M  V30 4880 C 449.568 -3.41128 -0.651819 0
M  V30 4881 C 448.522 -4.27842 0.116395 0
M  V30 4882 C 447.848 -5.2763 -0.86666 0
M  V30 4883 C 449.148 -5.05647 1.30837 0
M  V30 4884 H 450.842 -2.81636 1.01594 0
M  V30 4885 H 448.388 -1.35407 0.489981 0
M  V30 4886 H 450.341 -4.07581 -1.07031 0
M  V30 4887 H 449.065 -2.90622 -1.49019 0
M  V30 4888 H 447.724 -3.62952 0.515915 0
M  V30 4889 H 447.372 -4.73395 -1.70019 0
M  V30 4890 H 447.072 -5.86514 -0.35705 0
M  V30 4891 H 448.596 -5.96955 -1.28361 0
M  V30 4892 H 450.01 -5.65113 0.965393 0
M  V30 4893 H 448.407 -5.73967 1.75161 0
M  V30 4894 H 449.477 -4.37006 2.10128 0
M  V30 4895 N 450.82 -0.546701 -1.47814 0
M  V30 4896 C 452.048 -0.0232857 -2.06887 0
M  V30 4897 C 452.463 1.26571 -1.4009 0
M  V30 4898 O 451.82 1.7569 -0.493906 0
M  V30 4899 C 451.871 0.186975 -3.61016 0
M  V30 4900 O 451.592 -1.05097 -4.25307 0
M  V30 4901 C 453.093 0.748872 -4.36929 0
M  V30 4902 H 450.313 -0.0410763 -0.669742 0
M  V30 4903 H 452.857 -0.757117 -1.89968 0
M  V30 4904 H 451.012 0.870903 -3.77484 0
M  V30 4905 H 451.426 -0.842121 -5.17695 0
M  V30 4906 H 452.9 0.845334 -5.45489 0
M  V30 4907 H 453.377 1.75772 -4.02493 0
M  V30 4908 H 453.983 0.100979 -4.2518 0
M  V30 4909 N 452.299 1.55045 -0.282633 0
M  V30 4910 C 453.527 2.04168 0.33512 0
M  V30 4911 C 453.942 1.16071 1.48906 0
M  V30 4912 O 453.299 0.182391 1.81586 0
M  V30 4913 C 453.35 3.52332 0.808957 0
M  V30 4914 O 453.071 4.37078 -0.299038 0
M  V30 4915 C 454.572 4.17375 1.49375 0
M  V30 4916 H 451.792 0.666744 0.0754543 0
M  V30 4917 H 454.336 2.00205 -0.416918 0
M  V30 4918 H 452.491 3.56715 1.51106 0
M  V30 4919 H 452.905 5.24458 0.0665514 0
M  V30 4920 H 454.379 5.22627 1.77664 0
M  V30 4921 H 454.856 3.65999 2.42778 0
M  V30 4922 H 455.462 4.17016 0.835305 0
M  V30 4923 N 453.777 0.010035 1.57597 0
M  V30 4924 C 454.71 -1.01234 2.04516 0
M  V30 4925 C 455.688 -1.32886 0.937024 0
M  V30 4926 O 456.872 -1.44879 1.20592 0
M  V30 4927 C 453.999 -2.33738 2.45121 0
M  V30 4928 C 453.045 -2.17679 3.66767 0
M  V30 4929 S 453.878 -1.49343 5.14254 0
M  V30 4930 C 455.034 -2.83256 5.58137 0
M  V30 4931 H 455.267 -0.612866 2.90914 0
M  V30 4932 H 452.8 -0.201124 1.53084 0
M  V30 4933 H 454.758 -3.09922 2.69182 0
M  V30 4934 H 453.419 -2.70823 1.59103 0
M  V30 4935 H 452.612 -3.1559 3.92962 0
M  V30 4936 H 452.214 -1.4964 3.42759 0
M  V30 4937 H 454.506 -3.79538 5.6121 0
M  V30 4938 H 455.449 -2.61749 6.57946 0
M  V30 4939 H 455.857 -2.87627 4.85727 0
M  V30 4940 N 455.255 -1.55392 -0.262866 0
M  V30 4941 C 456.185 -1.91978 -1.32917 0
M  V30 4942 C 457.166 -0.7828 -1.51017 0
M  V30 4943 O 458.351 -1.04178 -1.63892 0
M  V30 4944 C 455.481 -2.20055 -2.68687 0
M  V30 4945 C 454.435 -3.35854 -2.65304 0
M  V30 4946 C 453.761 -3.49435 -4.04721 0
M  V30 4947 C 455.061 -4.71977 -2.23685 0
M  V30 4948 H 456.755 -2.81292 -1.02544 0
M  V30 4949 H 454.301 -1.3534 -0.491846 0
M  V30 4950 H 456.254 -2.44237 -3.43404 0
M  V30 4951 H 454.978 -1.27551 -3.00663 0
M  V30 4952 H 453.637 -3.11655 -1.93045 0
M  V30 4953 H 453.285 -2.54379 -4.33936 0
M  V30 4954 H 452.985 -4.27297 -4.0335 0
M  V30 4955 H 454.509 -3.7592 -4.81161 0
M  V30 4956 H 455.923 -4.95637 -2.88127 0
M  V30 4957 H 454.32 -5.52828 -2.33456 0
M  V30 4958 H 455.39 -4.70115 -1.18827 0
M  V30 4959 N 456.733 0.527833 -1.48498 0
M  V30 4960 C 457.979 1.28545 -1.56857 0
M  V30 4961 C 458.312 1.92678 -0.242651 0
M  V30 4962 O 457.587 1.79394 0.751545 0
M  V30 4963 C 457.87 2.37314 -2.70839 0
M  V30 4964 C 457.723 1.77858 -4.13142 0
M  V30 4965 C 459.042 3.39068 -2.80573 0
M  V30 4966 H 456.161 0.466006 -0.570971 0
M  V30 4967 H 458.803 0.587784 -1.8068 0
M  V30 4968 H 456.953 2.96821 -2.50658 0
M  V30 4969 H 458.625 1.22385 -4.44769 0
M  V30 4970 H 456.868 1.08383 -4.20042 0
M  V30 4971 H 457.539 2.56624 -4.88721 0
M  V30 4972 H 460.015 2.89518 -2.98862 0
M  V30 4973 H 458.891 4.12566 -3.6205 0
M  V30 4974 H 459.152 3.9975 -1.88818 0
M  V30 4975 N 458.211 1.37122 0.776871 0
M  V30 4976 C 459.436 1.354 1.57104 0
M  V30 4977 C 459.861 -0.0595562 1.88006 0
M  V30 4978 O 459.219 -1.03514 1.48844 0
M  V30 4979 C 459.267 2.19472 2.8612 0
M  V30 4980 O 458.371 1.59582 3.80273 0
M  V30 4981 H 457.712 0.462869 0.476076 0
M  V30 4982 H 460.242 1.80577 0.961932 0
M  V30 4983 H 460.252 2.32502 3.35271 0
M  V30 4984 H 458.927 3.22222 2.62956 0
M  V30 4985 H 457.504 1.55564 3.38902 0
M  V30 4986 N 459.689 -1.00246 1.21608 0
M  V30 4987 C 461.105 -1.26435 0.973975 0
M  V30 4988 C 461.305 -1.98642 -0.338143 0
M  V30 4989 O 460.361 -2.29026 -1.06317 0
M  V30 4990 C 461.674 -2.08551 2.16626 0
M  V30 4991 C 463.222 -2.21769 2.20879 0
M  V30 4992 C 463.697 -3.07267 3.39633 0
M  V30 4993 N 465.188 -3.14855 3.39736 0
M  V30 4994 C 465.923 -3.81274 4.28273 0
M  V30 4995 N 465.419 -4.497 5.27012 0
M  V30 4996 N 467.212 -3.7794 4.16074 0
M  V30 4997 H 459.363 -0.518089 2.05984 0
M  V30 4998 H 461.626 -0.291368 0.902113 0
M  V30 4999 H 461.332 -1.62847 3.11727 0
M  V30 5000 H 461.206 -3.09303 2.15897 0
M  V30 5001 H 463.593 -2.66691 1.26332 0
M  V30 5002 H 463.674 -1.20478 2.25652 0
M  V30 5003 H 463.318 -2.63047 4.34475 0
M  V30 5004 H 463.248 -4.08678 3.321 0
M  V30 5005 H 465.739 -2.66147 2.6828 0
M  V30 5006 H 466.052 -4.98092 5.90867 0
M  V30 5007 H 464.397 -4.48479 5.30935 0
M  V30 5008 H 467.588 -3.23638 3.38195 0
M  V30 5009 H 467.761 -4.29424 4.85282 0
M  V30 5010 N 461.167 -1.02423 -1.1978 0
M  V30 5011 C 462.115 -0.594474 -2.24875 0
M  V30 5012 C 463.109 0.370598 -1.65296 0
M  V30 5013 O 464.315 0.239684 -1.78397 0
M  V30 5014 H 460.69 -0.173961 -0.731602 0
M  V30 5015 H 462.661 -1.4916 -2.58445 0
M  V30 5016 C 461.41 0.0436512 -3.47673 0
M  V30 5017 H 460.733 -0.689963 -3.93801 0
M  V30 5018 H 462.173 0.307362 -4.22884 0
M  V30 5019 C 460.632 1.28881 -3.11274 0
M  V30 5020 O 461.162 2.38135 -3.23503 0
M  V30 5021 N 459.368 1.1758 -2.6575 0
M  V30 5022 H 458.915 0.286769 -2.55999 0
M  V30 5023 H 458.873 2.00988 -2.41767 0
M  V30 5024 N 462.645 1.35699 -0.801477 0
M  V30 5025 C 463.892 1.98913 -0.379459 0
M  V30 5026 C 464.22 1.63592 1.05204 0
M  V30 5027 O 463.475 0.888563 1.74365 0
M  V30 5028 C 463.774 3.53828 -0.504041 0
M  V30 5029 C 463.44 4.09002 -1.8981 0
M  V30 5030 C 462.102 4.23783 -2.27951 0
M  V30 5031 C 464.454 4.38939 -2.81038 0
M  V30 5032 C 461.782 4.65816 -3.56696 0
M  V30 5033 C 464.134 4.82409 -4.09224 0
M  V30 5034 C 462.798 4.95395 -4.4737 0
M  V30 5035 H 462.068 0.727874 -0.138854 0
M  V30 5036 H 464.715 1.61994 -1.02128 0
M  V30 5037 H 463.02 3.91175 0.221242 0
M  V30 5038 H 464.717 4.00687 -0.158361 0
M  V30 5039 H 461.307 3.97946 -1.59176 0
M  V30 5040 H 465.491 4.27077 -2.52821 0
M  V30 5041 H 460.747 4.74059 -3.86106 0
M  V30 5042 H 464.921 5.04535 -4.80018 0
M  V30 5043 H 462.548 5.27724 -5.47185 0
M  V30 5044 N 464.123 0.554532 1.47522 0
M  V30 5045 C 465.348 0.0322661 2.07375 0
M  V30 5046 C 465.773 -1.25079 1.40488 0
M  V30 5047 O 465.131 -1.74859 0.47896 0
M  V30 5048 C 465.179 -0.149397 3.6029 0
M  V30 5049 O 464.283 -1.21259 3.9417 0
M  V30 5050 H 463.624 0.0501228 0.662106 0
M  V30 5051 H 466.154 0.769452 1.8958 0
M  V30 5052 H 466.164 -0.364437 4.06369 0
M  V30 5053 H 464.839 0.787743 4.08372 0
M  V30 5054 H 463.416 -0.97825 3.5984 0
M  V30 5055 N 465.601 -1.54893 0.290851 0
M  V30 5056 C 466.564 -2.21824 -0.576784 0
M  V30 5057 C 467.564 -1.20104 -1.06919 0
M  V30 5058 O 468.754 -1.44906 -0.966843 0
M  V30 5059 C 465.886 -2.89662 -1.79747 0
M  V30 5060 H 467.079 -2.99899 0.00784051 0
M  V30 5061 H 464.632 -1.56245 0.0415934 0
M  V30 5062 H 465.367 -2.15639 -2.42219 0
M  V30 5063 H 465.152 -3.64219 -1.45214 0
M  V30 5064 H 466.642 -3.4075 -2.4141 0
M  V30 5065 N 467.08 -0.0183926 -1.57589 0
M  V30 5066 C 468.043 0.951986 -2.08494 0
M  V30 5067 C 469.043 1.26092 -0.997874 0
M  V30 5068 O 470.233 1.20304 -1.25987 0
M  V30 5069 C 467.365 2.27165 -2.54182 0
M  V30 5070 H 468.558 0.511307 -2.95509 0
M  V30 5071 H 466.111 0.229444 -1.54607 0
M  V30 5072 H 466.846 2.75884 -1.70465 0
M  V30 5073 H 466.631 2.06057 -3.33591 0
M  V30 5074 H 468.121 2.9674 -2.93828 0
M  V30 5075 N 468.558 1.5553 0.254621 0
M  V30 5076 C 469.505 1.89666 1.31512 0
M  V30 5077 C 470.475 0.750057 1.482 0
M  V30 5078 O 471.66 1.00301 1.62309 0
M  V30 5079 C 468.8 2.19009 2.667 0
M  V30 5080 C 467.913 3.46435 2.58083 0
M  V30 5081 C 467.048 3.65386 3.85573 0
M  V30 5082 C 466.087 4.8644 3.71541 0
M  V30 5083 N 465.224 5.01952 4.90906 0
M  V30 5084 H 470.064 2.80109 1.017 0
M  V30 5085 H 467.601 1.38666 0.490938 0
M  V30 5086 H 469.559 2.34025 3.45381 0
M  V30 5087 H 468.189 1.31779 2.94676 0
M  V30 5088 H 467.241 3.39792 1.71013 0
M  V30 5089 H 468.553 4.35258 2.43622 0
M  V30 5090 H 467.707 3.80319 4.72697 0
M  V30 5091 H 466.446 2.74781 4.02922 0
M  V30 5092 H 465.451 4.71491 2.82801 0
M  V30 5093 H 466.676 5.78497 3.55694 0
M  V30 5094 H 464.622 4.14283 5.08631 0
M  V30 5095 H 464.539 5.84851 4.79046 0
M  V30 5096 H 465.807 5.21289 5.7955 0
M  V30 5097 N 470.036 -0.519951 1.48776 0
M  V30 5098 C 471.261 -1.30447 1.6124 0
M  V30 5099 C 471.686 -1.86055 0.276591 0
M  V30 5100 O 471.044 -1.64915 -0.753183 0
M  V30 5101 C 471.092 -2.42406 2.66967 0
M  V30 5102 O 470.196 -3.45728 2.24824 0
M  V30 5103 H 469.537 -0.385924 0.540332 0
M  V30 5104 H 472.067 -0.624572 1.94834 0
M  V30 5105 H 472.077 -2.88447 2.88552 0
M  V30 5106 H 470.752 -2.01294 3.63941 0
M  V30 5107 H 469.329 -3.05737 2.13494 0
M  V30 5108 N 471.514 -1.37532 -0.769588 0
M  V30 5109 C 472.444 -1.36172 -1.89682 0
M  V30 5110 C 473.425 -0.23001 -1.68538 0
M  V30 5111 O 474.61 -0.43069 -1.89364 0
M  V30 5112 C 471.74 -1.1701 -3.26995 0
M  V30 5113 C 470.694 -2.27216 -3.62708 0
M  V30 5114 C 470.02 -1.93174 -4.98586 0
M  V30 5115 C 471.32 -3.6941 -3.69234 0
M  V30 5116 H 473.014 -2.30499 -1.91078 0
M  V30 5117 H 470.56 -1.10953 -0.917902 0
M  V30 5118 H 472.513 -1.14688 -4.05493 0
M  V30 5119 H 471.237 -0.191395 -3.26039 0
M  V30 5120 H 469.896 -2.28697 -2.86519 0
M  V30 5121 H 469.544 -0.938281 -4.94171 0
M  V30 5122 H 469.244 -2.66973 -5.23449 0
M  V30 5123 H 470.768 -1.92443 -5.79481 0
M  V30 5124 H 472.182 -3.70047 -4.37879 0
M  V30 5125 H 470.579 -4.4228 -4.05597 0
M  V30 5126 H 471.649 -4.0288 -2.69844 0
M  V30 5127 N 472.992 0.995999 -1.22138 0
M  V30 5128 C 473.922 2.10387 -1.01289 0
M  V30 5129 C 474.903 1.69975 0.0651454 0
M  V30 5130 O 476.088 1.9396 -0.0964628 0
M  V30 5131 C 473.218 3.42312 -0.586517 0
M  V30 5132 C 472.172 3.96558 -1.61014 0
M  V30 5133 C 471.498 5.24494 -1.0397 0
M  V30 5134 C 472.798 4.27595 -2.99933 0
M  V30 5135 H 474.492 2.28086 -1.93951 0
M  V30 5136 H 472.038 1.09607 -0.933928 0
M  V30 5137 H 473.991 4.19223 -0.427793 0
M  V30 5138 H 472.715 3.24431 0.375761 0
M  V30 5139 H 471.374 3.21776 -1.75658 0
M  V30 5140 H 471.022 5.02953 -0.0688703 0
M  V30 5141 H 470.722 5.61755 -1.72352 0
M  V30 5142 H 472.246 6.04042 -0.892494 0
M  V30 5143 H 473.66 4.95315 -2.8868 0
M  V30 5144 H 472.057 4.76021 -3.6541 0
M  V30 5145 H 473.127 3.35498 -3.50099 0
M  V30 5146 N 474.47 1.03057 1.19235 0
M  V30 5147 C 475.418 0.606391 2.24557 0
M  V30 5148 C 476.412 -0.361826 1.65491 0
M  V30 5149 O 477.618 -0.23022 1.78522 0
M  V30 5150 H 473.993 0.177838 0.730669 0
M  V30 5151 H 475.964 1.50529 2.5765 0
M  V30 5152 C 474.713 -0.0252127 3.47691 0
M  V30 5153 H 474.036 0.710838 3.9343 0
M  V30 5154 H 475.476 -0.284931 4.23042 0
M  V30 5155 C 473.935 -1.27229 3.11953 0
M  V30 5156 O 474.465 -2.36416 3.24762 0
M  V30 5157 N 472.671 -1.16169 2.6637 0
M  V30 5158 H 472.218 -0.273189 2.56147 0
M  V30 5159 H 472.176 -1.99703 2.42829 0
M  V30 5160 N 475.948 -1.35272 0.808662 0
M  V30 5161 C 476.895 -2.29764 0.218482 0
M  V30 5162 C 477.865 -1.52911 -0.648652 0
M  V30 5163 O 479.05 -1.81341 -0.593297 0
M  V30 5164 C 476.19 -3.39388 -0.625282 0
M  V30 5165 C 475.303 -4.31202 0.262516 0
M  V30 5166 C 474.438 -5.27919 -0.589451 0
M  V30 5167 C 473.477 -6.11371 0.298617 0
M  V30 5168 N 472.614 -7.0022 -0.513443 0
M  V30 5169 H 477.454 -2.79645 1.02968 0
M  V30 5170 H 474.991 -1.37629 0.519303 0
M  V30 5171 H 476.949 -4.01615 -1.12966 0
M  V30 5172 H 475.579 -2.90777 -1.40173 0
M  V30 5173 H 474.631 -3.69962 0.885013 0
M  V30 5174 H 475.943 -4.89748 0.945971 0
M  V30 5175 H 475.097 -5.95529 -1.15888 0
M  V30 5176 H 473.836 -4.69875 -1.30647 0
M  V30 5177 H 472.841 -5.42707 0.880301 0
M  V30 5178 H 474.066 -6.71494 1.01352 0
M  V30 5179 H 472.012 -6.44662 -1.21439 0
M  V30 5180 H 471.929 -7.55917 0.111922 0
M  V30 5181 H 473.197 -7.72175 -1.06608 0
M  V30 5182 N 477.426 -0.562348 -1.47226 0
M  V30 5183 C 478.373 0.182461 -2.30078 0
M  V30 5184 C 479.343 0.903503 -1.39377 0
M  V30 5185 O 480.528 0.898188 -1.68337 0
M  V30 5186 C 477.668 1.20322 -3.23445 0
M  V30 5187 C 476.781 0.487717 -4.29238 0
M  V30 5188 C 475.916 1.49422 -5.09752 0
M  V30 5189 C 474.955 0.763976 -6.07314 0
M  V30 5190 N 474.092 1.71755 -6.80768 0
M  V30 5191 H 478.932 -0.530169 -2.93246 0
M  V30 5192 H 476.469 -0.273276 -1.44539 0
M  V30 5193 H 478.427 1.80768 -3.76004 0
M  V30 5194 H 477.057 1.88382 -2.6213 0
M  V30 5195 H 476.109 -0.231374 -3.79696 0
M  V30 5196 H 477.421 -0.0841003 -4.98729 0
M  V30 5197 H 476.575 2.17206 -5.66486 0
M  V30 5198 H 475.314 2.09995 -4.40174 0
M  V30 5199 H 474.319 0.0722344 -5.49753 0
M  V30 5200 H 475.544 0.16391 -6.78902 0
M  V30 5201 H 473.49 2.31177 -6.13916 0
M  V30 5202 H 473.407 1.19802 -7.46447 0
M  V30 5203 H 474.675 2.38638 -7.42073 0
M  V30 5204 N 478.904 1.54736 -0.299062 0
M  V30 5205 C 480.129 2.04975 0.316254 0
M  V30 5206 C 480.554 1.17501 1.46885 0
M  V30 5207 O 479.912 0.178678 1.80417 0
M  V30 5208 C 479.96 3.52672 0.751997 0
M  V30 5209 O 479.064 3.68226 1.85697 0
M  V30 5210 H 478.405 0.661126 0.0617175 0
M  V30 5211 H 480.935 1.99805 -0.440341 0
M  V30 5212 H 480.945 3.94488 1.04133 0
M  V30 5213 H 479.62 4.158 -0.0911482 0
M  V30 5214 H 478.197 3.38316 1.56834 0
M  V30 5215 N 480.382 0.0267497 1.57577 0
M  V30 5216 C 481.659 -0.690926 1.82991 0
M  V30 5217 C 482.039 -1.90471 0.910164 0
M  V30 5218 O 481.387 -2.28474 -0.0347985 0
M  V30 5219 C 481.597 -1.07139 3.32148 0
M  V30 5220 C 482.945 -1.46402 3.98562 0
M  V30 5221 O 483.969 -1.16443 3.36629 0
M  V30 5222 O 482.828 -2.02214 5.07712 0
M  V30 5223 H 479.922 -0.338747 0.75444 0
M  V30 5224 H 482.468 0.0542506 1.69613 0
M  V30 5225 H 481.24 -0.207394 3.9075 0
M  V30 5226 H 480.863 -1.87481 3.50623 0
M  V30 5227 N 481.861 -1.55662 -0.24637 0
M  V30 5228 C 483.109 -1.77168 -0.972411 0
M  V30 5229 C 483.43 -0.590827 -1.85834 0
M  V30 5230 O 482.7 0.393365 -1.9191 0
M  V30 5231 H 481.28 -0.653405 -0.362038 0
M  V30 5232 H 483.942 -1.93101 -0.264189 0
M  V30 5233 H 483.038 -2.68335 -1.59382 0
M  V30 5234 N 483.339 0.512053 -1.4905 0
M  V30 5235 C 484.587 1.26436 -1.57665 0
M  V30 5236 C 484.908 1.93255 -0.260293 0
M  V30 5237 O 484.178 1.82206 0.719564 0
M  V30 5238 H 482.758 0.469658 -0.580888 0
M  V30 5239 H 485.42 0.594398 -1.85615 0
M  V30 5240 H 484.516 2.03417 -2.36702 0
M  V30 5241 N 484.817 1.37938 0.762283 0
M  V30 5242 C 486.063 1.33866 1.52341 0
M  V30 5243 C 486.396 -0.0738961 1.94059 0
M  V30 5244 O 485.671 -1.03326 1.64785 0
M  V30 5245 C 485.954 2.28644 2.78197 0
M  V30 5246 C 485.807 3.78722 2.42672 0
M  V30 5247 C 487.126 2.21702 3.80179 0
M  V30 5248 H 484.245 0.487593 0.55265 0
M  V30 5249 H 486.887 1.68717 0.873767 0
M  V30 5250 H 485.037 1.99055 3.33631 0
M  V30 5251 H 486.709 4.18948 1.93081 0
M  V30 5252 H 484.952 3.96827 1.75244 0
M  V30 5253 H 485.623 4.40486 3.3268 0
M  V30 5254 H 488.099 2.47805 3.34263 0
M  V30 5255 H 486.975 2.90143 4.65949 0
M  V30 5256 H 487.236 1.21301 4.25133 0
M  V30 5257 N 486.295 -0.989507 1.22664 0
M  V30 5258 C 487.242 -2.08024 0.999733 0
M  V30 5259 C 488.212 -1.65909 -0.0797047 0
M  V30 5260 O 489.397 -1.90669 0.0705715 0
M  V30 5261 C 486.537 -3.40067 0.587234 0
M  V30 5262 C 485.65 -3.95505 1.73781 0
M  V30 5263 C 484.785 -5.15722 1.27297 0
M  V30 5264 C 483.824 -5.63305 2.39488 0
M  V30 5265 N 482.961 -6.74758 1.94026 0
M  V30 5266 H 487.801 -2.26768 1.9334 0
M  V30 5267 H 485.338 -1.11171 0.963297 0
M  V30 5268 H 487.296 -4.15899 0.329227 0
M  V30 5269 H 485.926 -3.21314 -0.309426 0
M  V30 5270 H 484.978 -3.16513 2.11006 0
M  V30 5271 H 486.29 -4.26797 2.58158 0
M  V30 5272 H 485.444 -5.98854 0.972546 0
M  V30 5273 H 484.183 -4.86061 0.399445 0
M  V30 5274 H 483.188 -4.78759 2.70315 0
M  V30 5275 H 484.413 -5.94988 3.27362 0
M  V30 5276 H 482.359 -6.46874 1.09041 0
M  V30 5277 H 482.276 -7.05386 2.71968 0
M  V30 5278 H 483.544 -7.61387 1.67062 0
M  V30 5279 N 487.773 -1.03688 -1.18687 0
M  V30 5280 C 488.72 -0.624624 -2.22187 0
M  V30 5281 C 489.69 0.365636 -1.62026 0
M  V30 5282 O 490.875 0.260481 -1.89014 0
M  V30 5283 C 488.015 0.0101738 -3.45099 0
M  V30 5284 C 487.128 -1.02709 -4.19613 0
M  V30 5285 C 486.263 -0.361213 -5.2997 0
M  V30 5286 C 485.302 -1.38384 -5.96252 0
M  V30 5287 N 484.439 -0.743196 -6.98155 0
M  V30 5288 H 489.279 -1.51176 -2.56807 0
M  V30 5289 H 486.816 -0.75636 -1.26165 0
M  V30 5290 H 488.774 0.395528 -4.15321 0
M  V30 5291 H 487.404 0.860848 -3.1111 0
M  V30 5292 H 486.456 -1.53043 -3.48256 0
M  V30 5293 H 487.768 -1.80398 -4.65036 0
M  V30 5294 H 486.922 0.0785537 -6.06649 0
M  V30 5295 H 485.661 0.447799 -4.8564 0
M  V30 5296 H 484.666 -1.83378 -5.18317 0
M  V30 5297 H 485.891 -2.19448 -6.42666 0
M  V30 5298 H 483.837 0.0455789 -6.55984 0
M  V30 5299 H 483.754 -1.45784 -7.41811 0
M  V30 5300 H 485.022 -0.327698 -7.78811 0
M  V30 5301 N 489.251 1.34841 -0.815825 0
M  V30 5302 C 490.667 1.51543 -0.500697 0
M  V30 5303 C 490.867 1.76261 0.976444 0
M  V30 5304 O 489.923 1.8094 1.76117 0
M  V30 5305 C 491.236 2.68487 -1.35407 0
M  V30 5306 C 492.784 2.82368 -1.35046 0
M  V30 5307 C 493.259 4.02347 -2.18816 0
M  V30 5308 N 494.75 4.09542 -2.16402 0
M  V30 5309 C 495.485 5.01517 -2.77971 0
M  V30 5310 N 494.981 5.98763 -3.48503 0
M  V30 5311 N 496.774 4.94334 -2.67563 0
M  V30 5312 H 488.925 1.17055 -1.77234 0
M  V30 5313 H 491.188 0.573481 -0.754866 0
M  V30 5314 H 490.894 2.56829 -2.40274 0
M  V30 5315 H 490.768 3.63321 -1.01377 0
M  V30 5316 H 493.155 2.93471 -0.309604 0
M  V30 5317 H 493.236 1.88363 -1.73069 0
M  V30 5318 H 492.88 3.92004 -3.22948 0
M  V30 5319 H 492.81 4.95551 -1.78148 0
M  V30 5320 H 495.301 3.39932 -1.65091 0
M  V30 5321 H 495.614 6.6556 -3.92747 0
M  V30 5322 H 493.959 5.98909 -3.52609 0
M  V30 5323 H 497.15 4.1732 -2.12041 0
M  V30 5324 H 497.323 5.6582 -3.15834 0
M  V30 5325 N 490.729 0.570148 1.46925 0
M  V30 5326 C 491.676 -0.170257 2.30171 0
M  V30 5327 C 492.646 -0.896099 1.39855 0
M  V30 5328 O 493.831 -0.889248 1.68811 0
M  V30 5329 C 490.971 -1.18605 3.24079 0
M  V30 5330 C 490.084 -0.464947 4.29491 0
M  V30 5331 C 489.219 -1.46716 5.10537 0
M  V30 5332 C 488.258 -0.731758 6.0771 0
M  V30 5333 N 487.395 -1.68142 6.81669 0
M  V30 5334 H 492.235 0.545713 2.92961 0
M  V30 5335 H 489.772 0.280938 1.44392 0
M  V30 5336 H 491.73 -1.78771 3.76957 0
M  V30 5337 H 490.36 -1.86989 2.63125 0
M  V30 5338 H 489.412 0.251506 3.79568 0
M  V30 5339 H 490.724 0.110548 4.98677 0
M  V30 5340 H 489.878 -2.14199 5.6763 0
M  V30 5341 H 488.617 -2.07658 4.41282 0
M  V30 5342 H 487.622 -0.0430787 5.49783 0
M  V30 5343 H 488.847 -0.127904 6.7898 0
M  V30 5344 H 486.793 -2.27918 6.15134 0
M  V30 5345 H 486.71 -1.15841 7.47072 0
M  V30 5346 H 487.978 -2.347 7.43328 0
M  V30 5347 N 492.207 -1.54576 0.307264 0
M  V30 5348 C 493.432 -2.05139 -0.305379 0
M  V30 5349 C 493.857 -1.18278 -1.46259 0
M  V30 5350 O 493.215 -0.188243 -1.8032 0
M  V30 5351 C 493.263 -3.53066 -0.733283 0
M  V30 5352 O 492.367 -3.69206 -1.83741 0
M  V30 5353 H 491.708 -0.661444 -0.0582105 0
M  V30 5354 H 494.238 -1.99569 0.450931 0
M  V30 5355 H 494.248 -3.95034 -1.02039 0
M  V30 5356 H 492.923 -4.15746 0.113198 0
M  V30 5357 H 491.5 -3.39143 -1.55037 0
M  V30 5358 N 493.685 -0.035106 -1.57561 0
M  V30 5359 C 494.91 0.655802 -1.96759 0
M  V30 5360 C 495.335 1.64523 -0.911809 0
M  V30 5361 O 494.693 1.80857 0.126673 0
M  V30 5362 C 494.741 1.33326 -3.35047 0
M  V30 5363 O 493.845 2.44866 -3.31835 0
M  V30 5364 H 493.186 0.171807 -0.641388 0
M  V30 5365 H 495.716 -0.0987369 -2.04362 0
M  V30 5366 H 495.726 1.68867 -3.71413 0
M  V30 5367 H 494.401 0.608033 -4.11431 0
M  V30 5368 H 492.978 2.11392 -3.07193 0
M  V30 5369 N 495.163 1.55791 0.238111 0
M  V30 5370 C 496.388 1.8244 0.986432 0
M  V30 5371 C 496.813 0.613314 1.7782 0
M  V30 5372 O 496.171 -0.437767 1.75935 0
M  V30 5373 C 496.219 3.06917 1.893 0
M  V30 5374 O 495.323 2.84449 2.98601 0
M  V30 5375 H 494.664 0.601975 0.280218 0
M  V30 5376 H 497.194 2.02987 0.256437 0
M  V30 5377 H 497.204 3.36583 2.30598 0
M  V30 5378 H 495.879 3.947 1.31091 0
M  V30 5379 H 494.456 2.65972 2.61368 0
M  V30 5380 N 496.642 -0.504142 1.49319 0
M  V30 5381 C 497.867 -1.28729 1.62615 0
M  V30 5382 C 498.292 -1.85752 0.296309 0
M  V30 5383 O 497.65 -1.65704 -0.735649 0
M  V30 5384 C 497.698 -2.39561 2.69524 0
M  V30 5385 O 496.802 -3.43324 2.28478 0
M  V30 5386 H 496.143 -0.380172 0.544395 0
M  V30 5387 H 498.673 -0.603872 1.95485 0
M  V30 5388 H 498.683 -2.8537 2.91595 0
M  V30 5389 H 497.358 -1.97423 3.66056 0
M  V30 5390 H 495.935 -3.03455 2.16725 0
M  V30 5391 N 498.12 -1.38341 -0.754957 0
M  V30 5392 C 499.366 -1.34672 -1.51628 0
M  V30 5393 C 499.699 0.0636036 -1.94096 0
M  V30 5394 O 498.974 1.0245 -1.6533 0
M  V30 5395 C 499.257 -2.30116 -2.76981 0
M  V30 5396 C 499.11 -3.80003 -2.4066 0
M  V30 5397 C 500.429 -2.23715 -3.78998 0
M  V30 5398 H 497.548 -0.490517 -0.550056 0
M  V30 5399 H 500.19 -1.69178 -0.864807 0
M  V30 5400 H 498.34 -2.00821 -3.3257 0
M  V30 5401 H 500.012 -4.19966 -1.90856 0
M  V30 5402 H 498.255 -3.97751 -1.73137 0
M  V30 5403 H 498.926 -4.42244 -3.30339 0
M  V30 5404 H 501.402 -2.49574 -3.32945 0
M  V30 5405 H 500.278 -2.9261 -4.64403 0
M  V30 5406 H 500.539 -1.23554 -4.24484 0
M  V30 5407 N 499.598 0.982988 -1.23187 0
M  V30 5408 C 500.548 2.05962 -0.977942 0
M  V30 5409 C 501.532 1.60725 0.0751148 0
M  V30 5410 O 502.724 1.76471 -0.136683 0
M  V30 5411 C 499.853 3.38564 -0.568276 0
M  V30 5412 C 498.939 3.90407 -1.6566 0
M  V30 5413 N 499.33 4.15359 -2.88635 0
M  V30 5414 C 497.628 4.18915 -1.53058 0
M  V30 5415 C 498.329 4.57642 -3.5908 0
M  V30 5416 N 497.305 4.6192 -2.86584 0
M  V30 5417 H 501.107 2.23208 -1.91195 0
M  V30 5418 H 498.621 1.16555 -1.13087 0
M  V30 5419 H 500.618 4.15276 -0.36764 0
M  V30 5420 H 499.278 3.22712 0.358713 0
M  V30 5421 H 500.289 4.03258 -3.24966 0
M  V30 5422 H 496.966 4.12081 -0.670506 0
M  V30 5423 H 498.356 4.85488 -4.6449 0
M  V30 5424 N 501.076 1.04316 1.18135 0
M  V30 5425 C 502.006 0.657299 2.24058 0
M  V30 5426 C 502.987 -0.340678 1.66654 0
M  V30 5427 O 504.172 -0.220223 1.92947 0
M  V30 5428 C 501.302 0.0220715 3.47293 0
M  V30 5429 C 500.256 0.943857 4.17463 0
M  V30 5430 C 499.582 0.172973 5.3442 0
M  V30 5431 C 500.882 2.26409 4.70677 0
M  V30 5432 H 502.576 1.5428 2.56589 0
M  V30 5433 H 500.122 0.743263 1.23335 0
M  V30 5434 H 502.075 -0.259607 4.206 0
M  V30 5435 H 500.799 -0.898323 3.14003 0
M  V30 5436 H 499.458 1.20996 3.46057 0
M  V30 5437 H 499.106 -0.749907 4.97379 0
M  V30 5438 H 498.806 0.787098 5.82304 0
M  V30 5439 H 500.33 -0.101628 6.10515 0
M  V30 5440 H 501.744 2.04294 5.35665 0
M  V30 5441 H 500.141 2.8314 5.29105 0
M  V30 5442 H 501.211 2.90883 3.87962 0
M  V30 5443 N 502.554 -1.34406 0.822964 0
M  V30 5444 C 503.487 -2.27407 0.190124 0
M  V30 5445 C 504.465 -1.4889 -0.653486 0
M  V30 5446 O 505.649 -1.78109 -0.617216 0
M  V30 5447 C 502.776 -3.3064 -0.734477 0
M  V30 5448 C 501.822 -4.26488 0.0316099 0
M  V30 5449 S 502.655 -5.17445 1.3788 0
M  V30 5450 C 503.811 -6.24214 0.45907 0
M  V30 5451 H 504.044 -2.80733 0.978586 0
M  V30 5452 H 501.577 -1.41455 0.618866 0
M  V30 5453 H 503.535 -3.90607 -1.26238 0
M  V30 5454 H 502.196 -2.76161 -1.49646 0
M  V30 5455 H 501.389 -4.9951 -0.671285 0
M  V30 5456 H 500.991 -3.70775 0.490066 0
M  V30 5457 H 503.283 -6.76599 -0.349357 0
M  V30 5458 H 504.226 -6.98551 1.15896 0
M  V30 5459 H 504.634 -5.6448 0.0474825 0
M  V30 5460 N 504.032 -0.577932 -1.46621 0
M  V30 5461 C 505.443 -0.150071 -1.86096 0
M  V30 5462 C 505.794 1.28563 -1.48209 0
M  V30 5463 O 504.919 1.97036 -0.894754 0
M  V30 5464 C 505.514 -0.265576 -3.37758 0
M  V30 5465 C 504.073 0.10738 -3.76247 0
M  V30 5466 C 503.22 -0.603711 -2.70649 0
M  V30 5467 H 506.171 -0.786438 -1.37844 0
M  V30 5468 H 506.192 0.510352 -3.77062 0
M  V30 5469 H 505.704 -1.3106 -3.65301 0
M  V30 5470 H 503.805 1.15272 -3.54321 0
M  V30 5471 H 503.918 -0.26561 -4.78363 0
M  V30 5472 H 502.282 -0.0444884 -2.54661 0
M  V30 5473 H 503.065 -1.65029 -3.01032 0
M  V30 5474 N 505.51 1.54411 -0.315457 0
M  V30 5475 C 506.442 2.21527 0.588067 0
M  V30 5476 C 507.455 1.21263 1.08624 0
M  V30 5477 O 508.644 1.47777 1.00121 0
M  V30 5478 C 505.744 2.85963 1.81875 0
M  V30 5479 C 504.917 4.12291 1.46063 0
M  V30 5480 C 503.976 4.60396 2.54799 0
M  V30 5481 O 503.002 5.25265 2.19283 0
M  V30 5482 N 504.204 4.33935 3.85591 0
M  V30 5483 H 506.969 2.99697 0.013414 0
M  V30 5484 H 504.53 1.61308 -0.138295 0
M  V30 5485 H 506.522 3.15071 2.53993 0
M  V30 5486 H 505.092 2.11548 2.30144 0
M  V30 5487 H 504.312 3.90036 0.571445 0
M  V30 5488 H 505.6 4.9452 1.19695 0
M  V30 5489 H 504.998 3.81996 4.17248 0
M  V30 5490 H 503.555 4.67718 4.53964 0
M  V30 5491 N 506.988 0.0434614 1.5754 0
M  V30 5492 C 508.213 -0.645358 1.97104 0
M  V30 5493 C 508.638 -1.64037 0.920521 0
M  V30 5494 O 507.996 -1.80922 -0.11708 0
M  V30 5495 C 508.044 -1.31547 3.35749 0
M  V30 5496 O 507.148 -2.43103 3.33129 0
M  V30 5497 H 506.489 -0.168403 0.64229 0
M  V30 5498 H 509.019 0.109573 2.04306 0
M  V30 5499 H 509.029 -1.66895 3.72304 0
M  V30 5500 H 507.704 -0.586205 4.11748 0
M  V30 5501 H 506.281 -2.0976 3.0831 0
M  V30 5502 N 508.466 -1.55915 -0.229846 0
M  V30 5503 C 509.414 -1.9258 -1.30444 0
M  V30 5504 C 510.408 -0.806839 -1.48951 0
M  V30 5505 O 511.614 -0.991606 -1.50224 0
M  V30 5506 H 507.989 -0.611878 -0.437161 0
M  V30 5507 H 509.96 -2.82264 -0.96797 0
M  V30 5508 C 508.709 -2.25171 -2.6494 0
M  V30 5509 H 508.032 -3.10782 -2.51504 0
M  V30 5510 H 509.472 -2.54716 -3.38963 0
M  V30 5511 C 507.931 -1.07394 -3.19324 0
M  V30 5512 O 508.461 -0.330759 -4.00336 0
M  V30 5513 N 506.667 -0.859984 -2.77584 0
M  V30 5514 H 506.214 -1.46605 -2.11813 0
M  V30 5515 H 506.172 -0.0736671 -3.14314 0
M  V30 5516 N 509.944 0.496216 -1.49584 0
M  V30 5517 C 510.892 1.61805 -1.67098 0
M  V30 5518 C 511.886 1.60667 -0.536877 0
M  V30 5519 O 513.092 1.65118 -0.716654 0
M  V30 5520 H 509.467 0.53646 -0.526986 0
M  V30 5521 H 511.438 1.44187 -2.61252 0
M  V30 5522 C 510.187 2.99912 -1.75921 0
M  V30 5523 H 509.51 3.01496 -2.62565 0
M  V30 5524 H 510.95 3.77931 -1.92209 0
M  V30 5525 C 509.409 3.33092 -0.505088 0
M  V30 5526 O 509.939 4.00019 0.367085 0
M  V30 5527 N 508.145 2.88278 -0.366599 0
M  V30 5528 H 507.692 2.33989 -1.07735 0
M  V30 5529 H 507.65 3.10846 0.47142 0
M  V30 5530 N 511.423 1.38739 0.74761 0
M  V30 5531 C 512.37 1.36449 1.86146 0
M  V30 5532 C 513.34 0.226098 1.64554 0
M  V30 5533 O 514.525 0.41926 1.86137 0
M  V30 5534 C 511.665 1.2013 3.23516 0
M  V30 5535 C 510.778 2.43407 3.56899 0
M  V30 5536 C 509.913 2.19773 4.83605 0
M  V30 5537 C 508.952 3.3879 5.09792 0
M  V30 5538 N 508.089 3.14553 6.27695 0
M  V30 5539 H 512.929 2.3167 1.87438 0
M  V30 5540 H 510.466 1.15094 0.916063 0
M  V30 5541 H 512.424 1.08683 4.02795 0
M  V30 5542 H 511.054 0.285453 3.21535 0
M  V30 5543 H 510.106 2.65504 2.72418 0
M  V30 5544 H 511.418 3.32094 3.72176 0
M  V30 5545 H 510.572 2.05496 5.70838 0
M  V30 5546 H 509.311 1.28461 4.70478 0
M  V30 5547 H 508.316 3.53579 4.21025 0
M  V30 5548 H 509.541 4.30986 5.24812 0
M  V30 5549 H 507.487 2.25893 6.1588 0
M  V30 5550 H 507.404 3.96791 6.435 0
M  V30 5551 H 508.672 3.03943 7.17801 0
M  V30 5552 N 512.901 -0.976442 1.23707 0
M  V30 5553 C 513.849 -2.09078 1.01927 0
M  V30 5554 C 514.843 -1.69345 -0.0430193 0
M  V30 5555 O 516.049 -1.79659 0.110814 0
M  V30 5556 H 512.424 -0.68398 0.312531 0
M  V30 5557 H 514.395 -2.24614 1.96447 0
M  V30 5558 C 513.144 -3.41919 0.631385 0
M  V30 5559 H 512.467 -3.72946 1.44053 0
M  V30 5560 H 513.907 -4.20817 0.518532 0
M  V30 5561 C 512.366 -3.30357 -0.660723 0
M  V30 5562 O 512.896 -3.63542 -1.70881 0
M  V30 5563 N 511.102 -2.83507 -0.638139 0
M  V30 5564 H 510.649 -2.567 0.215108 0
M  V30 5565 H 510.607 -2.76153 -1.50289 0
M  V30 5566 N 514.379 -1.04941 -1.1758 0
M  V30 5567 C 515.604 -0.778253 -1.92245 0
M  V30 5568 C 516.029 0.659707 -1.76152 0
M  V30 5569 O 515.387 1.45803 -1.07755 0
M  V30 5570 C 515.435 -1.16051 -3.41416 0
M  V30 5571 O 514.539 -0.291153 -4.11371 0
M  V30 5572 H 513.88 -0.285619 -0.599431 0
M  V30 5573 H 516.41 -1.40159 -1.49052 0
M  V30 5574 H 516.42 -1.12619 -3.92149 0
M  V30 5575 H 515.095 -2.208 -3.52449 0
M  V30 5576 H 513.672 -0.385851 -3.70898 0
M  V30 5577 N 515.857 1.33968 -0.830081 0
M  V30 5578 C 516.787 2.31911 -0.271911 0
M  V30 5579 C 517.768 1.58571 0.61556 0
M  V30 5580 O 518.953 1.86514 0.540946 0
M  V30 5581 C 516.083 3.42737 0.561146 0
M  V30 5582 C 515.037 4.27383 -0.229789 0
M  V30 5583 C 514.363 5.29742 0.726463 0
M  V30 5584 C 515.663 5.02 -1.44197 0
M  V30 5585 H 517.357 2.78844 -1.09025 0
M  V30 5586 H 514.903 1.34061 -0.52571 0
M  V30 5587 H 516.856 4.10276 0.961867 0
M  V30 5588 H 515.58 2.94471 1.41261 0
M  V30 5589 H 514.239 3.61456 -0.611964 0
M  V30 5590 H 513.887 4.77736 1.57408 0
M  V30 5591 H 513.587 5.87255 0.20142 0
M  V30 5592 H 515.111 6.00149 1.12489 0
M  V30 5593 H 516.525 5.62355 -1.11488 0
M  V30 5594 H 514.922 5.69122 -1.90317 0
M  V30 5595 H 515.992 4.31281 -2.2164 0
M  V30 5596 N 517.335 0.585699 1.46312 0
M  V30 5597 C 518.581 0.0725284 2.0267 0
M  V30 5598 C 518.914 -1.28523 1.45586 0
M  V30 5599 O 518.189 -1.84283 0.622101 0
M  V30 5600 C 518.472 0.0099788 3.60099 0
M  V30 5601 C 518.325 1.39685 4.27561 0
M  V30 5602 C 519.644 -0.689117 4.34671 0
M  V30 5603 H 516.763 0.0278307 0.736474 0
M  V30 5604 H 519.405 0.753472 1.74421 0
M  V30 5605 H 517.555 -0.56992 3.84297 0
M  V30 5606 H 519.227 2.02215 4.14617 0
M  V30 5607 H 517.47 1.96374 3.86807 0
M  V30 5608 H 518.141 1.30553 5.36339 0
M  V30 5609 H 520.617 -0.196446 4.15636 0
M  V30 5610 H 519.493 -0.701921 5.44393 0
M  V30 5611 H 519.754 -1.75101 4.05946 0
M  V30 5612 N 518.813 -1.54241 0.323641 0
M  V30 5613 C 520.038 -2.05452 -0.283605 0
M  V30 5614 C 520.463 -1.19823 -1.44997 0
M  V30 5615 O 519.821 -0.207358 -1.8011 0
M  V30 5616 C 519.869 -3.53823 -0.695795 0
M  V30 5617 O 518.973 -3.71134 -1.79815 0
M  V30 5618 H 518.314 -0.662024 -0.0511917 0
M  V30 5619 H 520.844 -1.99079 0.472073 0
M  V30 5620 H 520.854 -3.96094 -0.978434 0
M  V30 5621 H 519.529 -4.15602 0.157287 0
M  V30 5622 H 518.106 -3.40768 -1.51431 0
M  V30 5623 N 520.291 -0.0518155 -1.57515 0
M  V30 5624 C 521.702 0.483787 -1.80323 0
M  V30 5625 C 522.053 1.70879 -0.964099 0
M  V30 5626 O 521.178 2.15643 -0.180872 0
M  V30 5627 C 521.773 0.884459 -3.27052 0
M  V30 5628 C 520.332 1.36504 -3.50776 0
M  V30 5629 C 519.479 0.340539 -2.75201 0
M  V30 5630 H 522.43 -0.277691 -1.56252 0
M  V30 5631 H 522.451 1.74733 -3.38007 0
M  V30 5632 H 521.963 -0.00731093 -3.88099 0
M  V30 5633 H 520.064 2.27598 -2.95009 0
M  V30 5634 H 520.177 1.35675 -4.59488 0
M  V30 5635 H 518.541 0.81356 -2.41357 0
M  V30 5636 H 519.324 -0.543156 -3.38976 0
M  V30 5637 N 521.769 1.56035 0.221574 0
M  V30 5638 C 522.732 1.91584 1.2581 0
M  V30 5639 C 523.732 0.794425 1.39805 0
M  V30 5640 O 524.922 1.06217 1.38071 0
M  V30 5641 C 522.054 2.16663 2.63192 0
M  V30 5642 H 523.247 2.8429 0.954935 0
M  V30 5643 H 520.8 1.49316 0.461988 0
M  V30 5644 H 521.535 1.26508 2.98607 0
M  V30 5645 H 521.32 2.98358 2.5441 0
M  V30 5646 H 522.81 2.45262 3.37988 0
M  V30 5647 N 523.247 -0.488276 1.49845 0
M  V30 5648 C 524.179 -1.60539 1.63584 0
M  V30 5649 C 525.192 -1.5434 0.517972 0
M  V30 5650 O 526.381 -1.60041 0.790516 0
M  V30 5651 C 523.481 -2.99374 1.58835 0
M  V30 5652 C 522.654 -3.30624 2.86368 0
M  V30 5653 C 521.713 -4.4893 2.74496 0
M  V30 5654 O 520.739 -4.50085 3.48443 0
M  V30 5655 N 521.941 -5.49591 1.86894 0
M  V30 5656 H 524.706 -1.49176 2.59936 0
M  V30 5657 H 522.267 -0.67639 1.47094 0
M  V30 5658 H 524.259 -3.76459 1.48529 0
M  V30 5659 H 522.829 -3.04595 0.702892 0
M  V30 5660 H 522.049 -2.42314 3.1093 0
M  V30 5661 H 523.337 -3.48305 3.70892 0
M  V30 5662 H 522.735 -5.51467 1.26097 0
M  V30 5663 H 521.292 -6.25728 1.82503 0
M  V30 5664 N 524.725 -1.39134 -0.740242 0
M  V30 5665 C 525.635 -1.39697 -1.88473 0
M  V30 5666 C 526.651 -0.292403 -1.71526 0
M  V30 5667 O 527.827 -0.533021 -1.94219 0
M  V30 5668 C 524.892 -1.23382 -3.24003 0
M  V30 5669 C 523.953 -2.43763 -3.53381 0
M  V30 5670 C 523.186 -2.28216 -4.82445 0
M  V30 5671 O 523.409 -1.28288 -5.55786 0
M  V30 5672 O 522.343 -3.1709 -5.11603 0
M  V30 5673 H 526.169 -2.36159 -1.90952 0
M  V30 5674 H 523.754 -1.20194 -0.887346 0
M  V30 5675 H 525.636 -1.16395 -4.05006 0
M  V30 5676 H 524.311 -0.300121 -3.22306 0
M  V30 5677 H 523.218 -2.56325 -2.72485 0
M  V30 5678 H 524.551 -3.35808 -3.59852 0
M  V30 5679 N 526.204 0.969867 -1.24223 0
M  V30 5680 C 527.615 1.52717 -1.07399 0
M  V30 5681 C 527.966 1.92956 0.355298 0
M  V30 5682 O 527.091 1.77112 1.2434 0
M  V30 5683 C 527.686 2.77521 -1.94339 0
M  V30 5684 C 526.245 3.29615 -1.81744 0
M  V30 5685 C 525.392 2.02537 -1.89405 0
M  V30 5686 H 528.343 0.788399 -1.37732 0
M  V30 5687 H 528.364 3.50773 -1.47439 0
M  V30 5688 H 527.876 2.48203 -2.98357 0
M  V30 5689 H 525.977 3.63789 -0.805505 0
M  V30 5690 H 526.09 3.98661 -2.65718 0
M  V30 5691 H 524.454 2.17151 -1.33108 0
M  V30 5692 H 525.237 1.75587 -2.94999 0
M  V30 5693 N 527.682 1.05563 1.17022 0
M  V30 5694 C 528.645 0.664098 2.19368 0
M  V30 5695 C 529.645 -0.286358 1.5823 0
M  V30 5696 O 530.835 -0.069728 1.7406 0
M  V30 5697 C 527.967 -0.0239932 3.40892 0
M  V30 5698 H 529.16 1.57 2.55521 0
M  V30 5699 H 526.713 0.849964 1.31169 0
M  V30 5700 H 527.448 -0.942988 3.10287 0
M  V30 5701 H 527.233 0.659351 3.86516 0
M  V30 5702 H 528.723 -0.283909 4.16634 0
M  V30 5703 N 529.16 -1.33526 0.837174 0
M  V30 5704 C 530.571 -1.80182 0.489017 0
M  V30 5705 C 530.922 -1.69285 -0.991826 0
M  V30 5706 O 530.047 -1.24113 -1.77271 0
M  V30 5707 C 530.642 -3.27149 0.880866 0
M  V30 5708 C 529.201 -3.71828 0.584872 0
M  V30 5709 C 528.348 -2.54974 1.09011 0
M  V30 5710 H 531.299 -1.21071 1.02603 0
M  V30 5711 H 531.32 -3.80024 0.190239 0
M  V30 5712 H 530.832 -3.35048 1.95869 0
M  V30 5713 H 528.933 -3.69457 -0.48295 0
M  V30 5714 H 529.046 -4.65366 1.13892 0
M  V30 5715 H 527.41 -2.4952 0.511047 0
M  V30 5716 H 528.193 -2.65637 2.17467 0
M  V30 5717 N 530.638 -0.59345 -1.46 0
M  V30 5718 C 531.568 0.121192 -2.33185 0
M  V30 5719 C 532.549 0.872977 -1.4599 0
M  V30 5720 O 533.734 0.846321 -1.74789 0
M  V30 5721 C 530.864 1.12844 -3.28456 0
M  V30 5722 C 529.818 0.4908 -4.25177 0
M  V30 5723 C 529.144 1.60529 -5.10034 0
M  V30 5724 C 530.444 -0.578949 -5.19081 0
M  V30 5725 H 532.138 -0.606767 -2.93187 0
M  V30 5726 H 529.684 -0.293242 -1.40983 0
M  V30 5727 H 531.637 1.63684 -3.88311 0
M  V30 5728 H 530.361 1.88681 -2.66584 0
M  V30 5729 H 529.02 0.00339328 -3.666 0
M  V30 5730 H 528.668 2.35359 -4.44539 0
M  V30 5731 H 528.368 1.18422 -5.75543 0
M  V30 5732 H 529.892 2.11623 -5.72755 0
M  V30 5733 H 531.306 -0.155199 -5.7309 0
M  V30 5734 H 529.703 -0.920947 -5.92991 0
M  V30 5735 H 530.773 -1.46109 -4.62364 0
M  V30 5736 N 532.116 1.54067 -0.331816 0
M  V30 5737 C 533.048 2.22139 0.564538 0
M  V30 5738 C 534.061 1.22408 1.07332 0
M  V30 5739 O 535.25 1.4883 0.985481 0
M  V30 5740 C 532.35 2.87876 1.78831 0
M  V30 5741 C 531.523 4.13817 1.41682 0
M  V30 5742 C 530.582 4.63072 2.49901 0
M  V30 5743 O 529.608 5.27562 2.13699 0
M  V30 5744 N 530.81 4.38001 3.80967 0
M  V30 5745 H 533.575 2.99694 -0.0183736 0
M  V30 5746 H 531.136 1.61153 -0.155396 0
M  V30 5747 H 533.128 3.17747 2.50637 0
M  V30 5748 H 531.698 2.13977 2.27887 0
M  V30 5749 H 530.918 3.9062 0.530044 0
M  V30 5750 H 532.206 4.95762 1.14443 0
M  V30 5751 H 531.604 3.864 4.13173 0
M  V30 5752 H 530.161 4.72507 4.48977 0
M  V30 5753 N 533.594 0.0601682 1.57485 0
M  V30 5754 C 534.822 -0.620937 1.97363 0
M  V30 5755 C 535.237 -1.63846 0.938082 0
M  V30 5756 O 534.594 -1.82339 -0.0766578 0
M  V30 5757 C 534.645 -1.29987 3.37321 0
M  V30 5758 O 534.366 -0.323081 4.36907 0
M  V30 5759 C 535.867 -2.06989 3.92008 0
M  V30 5760 H 533.087 -0.169135 0.649334 0
M  V30 5761 H 535.631 0.129132 2.04092 0
M  V30 5762 H 533.786 -2.0011 3.31715 0
M  V30 5763 H 534.2 -0.808754 5.18227 0
M  V30 5764 H 535.674 -2.49901 4.92192 0
M  V30 5765 H 536.151 -2.92173 3.2792 0
M  V30 5766 H 536.757 -1.41757 4.0098 0
M  V30 5767 N 535.072 -1.5615 -0.213296 0
M  V30 5768 C 536.035 -1.92249 -1.24792 0
M  V30 5769 C 537.035 -0.801828 -1.39382 0
M  V30 5770 O 538.225 -1.06948 -1.37506 0
M  V30 5771 C 535.357 -2.18056 -2.62039 0
M  V30 5772 H 536.55 -2.84793 -0.939845 0
M  V30 5773 H 534.103 -1.49559 -0.454062 0
M  V30 5774 H 534.838 -1.2809 -2.97932 0
M  V30 5775 H 534.623 -2.99703 -2.52825 0
M  V30 5776 H 536.113 -2.47051 -3.36683 0
M  V30 5777 N 536.55 0.480323 -1.50102 0
M  V30 5778 C 537.483 1.59789 -1.62919 0
M  V30 5779 C 538.461 1.55429 -0.477557 0
M  V30 5780 O 539.645 1.75186 -0.695851 0
M  V30 5781 C 536.772 2.98351 -1.60325 0
M  V30 5782 C 535.818 3.20899 -2.80938 0
M  V30 5783 S 536.651 3.01791 -4.4236 0
M  V30 5784 C 537.807 4.42712 -4.42444 0
M  V30 5785 H 538.04 1.48676 -2.57454 0
M  V30 5786 H 535.573 0.666996 -1.3925 0
M  V30 5787 H 537.531 3.7824 -1.59514 0
M  V30 5788 H 536.192 3.06862 -0.670419 0
M  V30 5789 H 535.385 4.22102 -2.75401 0
M  V30 5790 H 534.987 2.48768 -2.79268 0
M  V30 5791 H 537.279 5.3518 -4.15438 0
M  V30 5792 H 538.222 4.53294 -5.43995 0
M  V30 5793 H 538.63 4.24359 -3.72263 0
M  V30 5794 N 538.028 1.39524 0.732853 0
M  V30 5795 C 538.938 1.40695 1.87729 0
M  V30 5796 C 539.954 0.301496 1.71368 0
M  V30 5797 O 541.13 0.543313 1.93933 0
M  V30 5798 C 538.195 1.25098 3.23344 0
M  V30 5799 C 537.256 2.45634 3.52083 0
M  V30 5800 C 536.489 2.30772 4.81228 0
M  V30 5801 O 536.712 1.31233 5.55098 0
M  V30 5802 O 535.646 3.19799 5.09914 0
M  V30 5803 H 539.472 2.37168 1.89697 0
M  V30 5804 H 537.057 1.20663 0.880959 0
M  V30 5805 H 538.939 1.18541 4.04383 0
M  V30 5806 H 537.614 0.317209 3.22142 0
M  V30 5807 H 536.521 2.57767 2.71122 0
M  V30 5808 H 537.854 3.37712 3.58066 0
M  V30 5809 N 539.506 -0.963266 1.24736 0
M  V30 5810 C 540.917 -1.52145 1.08207 0
M  V30 5811 C 541.268 -1.93142 -0.345061 0
M  V30 5812 O 540.393 -1.77769 -1.23399 0
M  V30 5813 C 540.988 -2.76486 1.95808 0
M  V30 5814 C 539.547 -3.28646 1.8349 0
M  V30 5815 C 538.694 -2.01529 1.90476 0
M  V30 5816 H 541.645 -0.781083 1.38148 0
M  V30 5817 H 541.666 -3.49986 1.49297 0
M  V30 5818 H 541.178 -2.46617 2.99669 0
M  V30 5819 H 539.279 -3.63357 0.824787 0
M  V30 5820 H 539.392 -3.97246 2.67829 0
M  V30 5821 H 537.756 -2.16442 1.34258 0
M  V30 5822 H 538.539 -1.7402 2.95926 0
M  V30 5823 N 540.985 -1.06182 -1.16461 0
M  V30 5824 C 541.917 -0.629584 -2.20383 0
M  V30 5825 C 542.93 0.311834 -1.59786 0
M  V30 5826 O 544.119 0.103 -1.78203 0
M  V30 5827 C 541.219 0.0973695 -3.3876 0
M  V30 5828 C 540.392 -0.857252 -4.28917 0
M  V30 5829 C 539.451 -0.169749 -5.25926 0
M  V30 5830 O 538.477 -0.807044 -5.6345 0
M  V30 5831 N 539.679 1.08911 -5.70192 0
M  V30 5832 H 542.444 -1.52352 -2.58087 0
M  V30 5833 H 540.005 -0.944993 -1.31459 0
M  V30 5834 H 541.997 0.567676 -4.00699 0
M  V30 5835 H 540.567 0.893093 -2.99571 0
M  V30 5836 H 539.787 -1.50696 -3.64259 0
M  V30 5837 H 541.075 -1.50489 -4.86035 0
M  V30 5838 H 540.473 1.62703 -5.41797 0
M  V30 5839 H 539.03 1.50331 -6.34227 0
M  V30 5840 N 542.463 1.3308 -0.844243 0
M  V30 5841 C 543.691 2.01808 -0.456203 0
M  V30 5842 C 544.106 1.63498 0.944131 0
M  V30 5843 O 543.463 0.85102 1.61443 0
M  V30 5844 C 543.514 3.56922 -0.573513 0
M  V30 5845 O 543.235 3.93851 -1.91868 0
M  V30 5846 C 544.736 4.42922 -0.183125 0
M  V30 5847 H 541.956 0.646273 -0.180477 0
M  V30 5848 H 544.5 1.69891 -1.1383 0
M  V30 5849 H 542.655 3.87352 0.0607367 0
M  V30 5850 H 543.069 4.88564 -1.90802 0
M  V30 5851 H 544.543 5.51093 -0.316241 0
M  V30 5852 H 545.02 4.30386 0.875477 0
M  V30 5853 H 545.626 4.1786 -0.792027 0
M  V30 5854 N 543.941 0.601185 1.45683 0
M  V30 5855 C 545.169 0.100054 2.06658 0
M  V30 5856 C 545.584 -1.21285 1.44691 0
M  V30 5857 O 544.941 -1.73735 0.558772 0
M  V30 5858 C 544.992 -0.0528579 3.61461 0
M  V30 5859 O 544.713 1.20809 4.21114 0
M  V30 5860 C 546.214 -0.586193 4.39407 0
M  V30 5861 H 543.434 0.065905 0.667756 0
M  V30 5862 H 545.978 0.827101 1.87028 0
M  V30 5863 H 544.133 -0.730203 3.80456 0
M  V30 5864 H 544.547 1.03368 5.14213 0
M  V30 5865 H 546.021 -0.642297 5.4825 0
M  V30 5866 H 546.498 -1.60713 4.0874 0
M  V30 5867 H 547.104 0.0568935 4.25262 0
M  V30 5868 N 545.419 -1.53889 0.339982 0
M  V30 5869 C 546.665 -2.01152 -0.258003 0
M  V30 5870 C 546.998 -1.22749 -1.50487 0
M  V30 5871 O 546.273 -0.314156 -1.91946 0
M  V30 5872 C 546.556 -3.55468 -0.575717 0
M  V30 5873 C 546.409 -4.44584 0.682996 0
M  V30 5874 C 547.728 -4.1768 -1.38677 0
M  V30 5875 H 544.847 -0.731198 -0.0922992 0
M  V30 5876 H 547.489 -1.84352 0.459814 0
M  V30 5877 H 545.639 -3.69914 -1.18725 0
M  V30 5878 H 547.311 -4.41981 1.32102 0
M  V30 5879 H 545.554 -4.13592 1.3086 0
M  V30 5880 H 546.225 -5.5043 0.416001 0
M  V30 5881 H 548.701 -4.0691 -0.869705 0
M  V30 5882 H 547.577 -5.25734 -1.57783 0
M  V30 5883 H 547.838 -3.72069 -2.38782 0
M  V30 5884 N 546.897 -0.0685191 -1.57451 0
M  V30 5885 C 548.143 0.602239 -1.93652 0
M  V30 5886 C 548.476 1.6946 -0.948526 0
M  V30 5887 O 547.751 1.94487 0.022782 0
M  V30 5888 C 548.034 1.18223 -3.4014 0
M  V30 5889 C 547.887 0.0967431 -4.49696 0
M  V30 5890 C 549.206 2.08872 -3.87377 0
M  V30 5891 H 546.325 0.217453 -0.70419 0
M  V30 5892 H 548.967 -0.133821 -1.89528 0
M  V30 5893 H 547.117 1.80953 -3.43785 0
M  V30 5894 H 548.789 -0.536155 -4.58174 0
M  V30 5895 H 547.032 -0.573063 -4.29998 0
M  V30 5896 H 547.703 0.542894 -5.49324 0
M  V30 5897 H 550.179 1.56081 -3.85717 0
M  V30 5898 H 549.055 2.46389 -4.90493 0
M  V30 5899 H 549.316 2.99572 -3.25129 0
M  V30 5900 N 548.375 1.56261 0.205012 0
M  V30 5901 C 549.325 1.90155 1.25798 0
M  V30 5902 C 550.309 0.766227 1.41484 0
M  V30 5903 O 551.501 1.02893 1.44021 0
M  V30 5904 C 548.63 2.23603 2.60493 0
M  V30 5905 C 547.716 3.43568 2.48639 0
M  V30 5906 N 548.107 4.61747 2.06455 0
M  V30 5907 C 546.405 3.4751 2.79558 0
M  V30 5908 C 547.106 5.43907 2.06253 0
M  V30 5909 N 546.082 4.84051 2.47377 0
M  V30 5910 H 549.884 2.79031 0.922986 0
M  V30 5911 H 547.398 1.57048 0.413501 0
M  V30 5912 H 549.395 2.46067 3.36537 0
M  V30 5913 H 548.055 1.36049 2.94823 0
M  V30 5914 H 549.066 4.86598 1.77321 0
M  V30 5915 H 545.743 2.70345 3.18151 0
M  V30 5916 H 547.133 6.48542 1.75622 0
M  V30 5917 N 549.853 -0.472356 1.50355 0
M  V30 5918 C 550.801 -1.59126 1.69651 0
M  V30 5919 C 551.795 -1.59793 0.56237 0
M  V30 5920 O 553.001 -1.63957 0.742832 0
M  V30 5921 H 549.376 -0.528008 0.535454 0
M  V30 5922 H 551.347 -1.40013 2.63513 0
M  V30 5923 C 550.096 -2.97075 1.8067 0
M  V30 5924 H 549.419 -2.9728 2.67329 0
M  V30 5925 H 550.859 -3.74825 1.98197 0
M  V30 5926 C 549.318 -3.32247 0.558016 0
M  V30 5927 O 549.848 -4.00553 -0.303399 0
M  V30 5928 N 548.054 -2.87659 0.412415 0
M  V30 5929 H 547.601 -2.32246 1.11443 0
M  V30 5930 H 547.559 -3.11556 -0.421908 0
M  V30 5931 N 551.331 -1.39911 -0.725443 0
M  V30 5932 C 552.294 -1.39156 -1.82121 0
M  V30 5933 C 553.294 -0.287018 -1.58218 0
M  V30 5934 O 554.484 -0.545421 -1.65441 0
M  V30 5935 C 551.616 -1.1736 -3.20062 0
M  V30 5936 H 552.809 -2.36672 -1.84191 0
M  V30 5937 H 550.362 -1.25615 -0.930079 0
M  V30 5938 H 551.097 -0.205648 -3.23647 0
M  V30 5939 H 550.882 -1.97358 -3.3881 0
M  V30 5940 H 552.372 -1.19596 -4.00108 0
M  V30 5941 N 552.809 0.956637 -1.25245 0
M  V30 5942 C 554.037 1.73571 -1.12608 0
M  V30 5943 C 554.452 1.86063 0.320324 0
M  V30 5944 O 553.809 1.35691 1.22042 0
M  V30 5945 C 553.86 3.15053 -1.77268 0
M  V30 5946 O 553.581 3.03174 -3.16255 0
M  V30 5947 C 555.082 4.09248 -1.70386 0
M  V30 5948 H 552.302 0.543955 -0.392879 0
M  V30 5949 H 554.846 1.20031 -1.65568 0
M  V30 5950 H 553.001 3.65543 -1.28284 0
M  V30 5951 H 553.415 3.9241 -3.48015 0
M  V30 5952 H 554.889 5.06138 -2.20291 0
M  V30 5953 H 555.366 4.34102 -0.667239 0
M  V30 5954 H 555.972 3.64672 -2.18849 0
M  V30 5955 N 554.287 1.06798 1.15896 0
M  V30 5956 C 555.564 0.701057 1.82605 0
M  V30 5957 C 555.944 -0.817066 1.94646 0
M  V30 5958 O 555.292 -1.72933 1.49353 0
M  V30 5959 C 555.502 1.40895 3.19296 0
M  V30 5960 C 556.85 1.55744 3.95005 0
M  V30 5961 O 557.874 1.36927 3.28831 0
M  V30 5962 O 556.733 1.86658 5.13635 0
M  V30 5963 H 553.827 0.248791 0.78869 0
M  V30 5964 H 556.373 1.16857 1.23055 0
M  V30 5965 H 555.145 2.4439 3.05596 0
M  V30 5966 H 554.768 0.931847 3.86526 0
M  V30 5967 N 555.766 -1.3263 0.851289 0
M  V30 5968 C 557.014 -1.96978 0.452128 0
M  V30 5969 C 557.335 -1.67715 -0.99482 0
M  V30 5970 O 556.605 -0.98259 -1.69476 0
M  V30 5971 H 555.185 -0.72873 0.164202 0
M  V30 5972 H 557.847 -1.61774 1.08698 0
M  V30 5973 H 556.943 -3.06387 0.594407 0
M  V30 5974 N 557.244 -0.608902 -1.45362 0
M  V30 5975 C 558.493 -0.10218 -2.01441 0
M  V30 5976 C 558.806 1.27546 -1.48295 0
M  V30 5977 O 560.012 1.87498 -1.96359 0
M  V30 5978 C 558.468 -0.131985 -3.59658 0
M  V30 5979 C 558.076 -1.50956 -4.21801 0
M  V30 5980 C 559.82 0.319427 -4.23296 0
M  V30 5981 C 557.727 -1.49568 -5.72174 0
M  V30 5982 H 556.657 -0.0344314 -0.753213 0
M  V30 5983 H 559.308 -0.764426 -1.6682 0
M  V30 5984 H 557.69 0.596939 -3.91475 0
M  V30 5985 H 558.864 -2.26029 -4.01556 0
M  V30 5986 H 557.179 -1.90318 -3.70362 0
M  V30 5987 H 559.776 0.349013 -5.3356 0
M  V30 5988 H 560.119 1.34237 -3.94064 0
M  V30 5989 H 560.652 -0.356273 -3.96201 0
M  V30 5990 H 557.391 -2.49626 -6.06108 0
M  V30 5991 H 556.911 -0.787542 -5.94607 0
M  V30 5992 H 558.59 -1.21989 -6.35396 0
M  V30 5993 N 558.722 1.53707 -0.348139 0
M  V30 5994 C 559.669 2.25173 0.506518 0
M  V30 5995 C 560.639 1.25174 1.09182 0
M  V30 5996 O 561.824 1.53917 1.12757 0
M  V30 5997 C 558.964 3.03141 1.64923 0
M  V30 5998 C 558.077 4.18002 1.0908 0
M  V30 5999 C 557.212 4.83447 2.20119 0
M  V30 6000 C 556.251 5.90369 1.61651 0
M  V30 6001 N 555.388 6.49575 2.66451 0
M  V30 6002 H 560.228 2.97799 -0.109452 0
M  V30 6003 H 557.765 1.46953 -0.0657866 0
M  V30 6004 H 559.723 3.46607 2.32205 0
M  V30 6005 H 558.353 2.32803 2.23612 0
M  V30 6006 H 557.405 3.79145 0.308783 0
M  V30 6007 H 558.717 4.94892 0.623178 0
M  V30 6008 H 557.871 5.30008 2.95257 0
M  V30 6009 H 556.61 4.05991 2.70227 0
M  V30 6010 H 555.615 5.43186 0.850209 0
M  V30 6011 H 556.84 6.69735 1.1239 0
M  V30 6012 H 554.786 5.74981 3.15805 0
M  V30 6013 H 554.703 7.21952 2.24325 0
M  V30 6014 H 555.971 7.00789 3.41344 0
M  V30 6015 N 560.2 0.0768682 1.57412 0
M  V30 6016 C 561.448 -0.589918 1.93299 0
M  V30 6017 C 561.769 -1.69842 0.958049 0
M  V30 6018 O 561.039 -1.95899 0.00703261 0
M  V30 6019 H 559.619 -0.220901 0.713591 0
M  V30 6020 H 562.281 0.135917 1.94425 0
M  V30 6021 H 561.377 -1.01195 2.95239 0
M  V30 6022 N 561.678 -1.56367 -0.196722 0
M  V30 6023 C 562.903 -1.84991 -0.937714 0
M  V30 6024 C 563.328 -0.660244 -1.76132 0
M  V30 6025 O 562.686 0.390967 -1.77034 0
M  V30 6026 C 562.734 -3.11828 -1.81096 0
M  V30 6027 O 561.838 -2.92266 -2.90955 0
M  V30 6028 H 561.179 -0.609193 -0.264159 0
M  V30 6029 H 563.709 -2.03595 -0.202529 0
M  V30 6030 H 563.719 -3.42579 -2.21594 0
M  V30 6031 H 562.394 -3.98037 -1.2058 0
M  V30 6032 H 560.971 -2.72809 -2.54224 0
M  V30 6033 N 563.156 0.464375 -1.50603 0
M  V30 6034 C 564.384 1.23907 -1.65695 0
M  V30 6035 C 564.799 1.85658 -0.343027 0
M  V30 6036 O 564.156 1.69529 0.675739 0
M  V30 6037 C 564.207 2.3429 -2.75301 0
M  V30 6038 O 563.928 1.7507 -4.01599 0
M  V30 6039 C 565.429 3.25051 -3.01424 0
M  V30 6040 H 562.649 0.374485 -0.556778 0
M  V30 6041 H 565.193 0.55353 -1.96866 0
M  V30 6042 H 563.348 2.98607 -2.46804 0
M  V30 6043 H 563.762 2.47812 -4.62266 0
M  V30 6044 H 565.236 3.98699 -3.81763 0
M  V30 6045 H 565.713 3.84227 -2.12758 0
M  V30 6046 H 566.319 2.66463 -3.31477 0
M  V30 6047 N 564.634 1.40294 0.718013 0
M  V30 6048 C 565.544 1.42678 1.86226 0
M  V30 6049 C 566.56 0.319655 1.71039 0
M  V30 6050 O 567.736 0.563852 1.93346 0
M  V30 6051 C 564.801 1.2852 3.21999 0
M  V30 6052 C 563.862 2.49354 3.49458 0
M  V30 6053 C 563.095 2.35863 4.78753 0
M  V30 6054 O 563.318 1.37114 5.53675 0
M  V30 6055 O 562.252 3.25189 5.06494 0
M  V30 6056 H 566.078 2.39167 1.87171 0
M  V30 6057 H 563.663 1.2159 0.868112 0
M  V30 6058 H 565.545 1.22824 4.03103 0
M  V30 6059 H 564.22 0.351359 3.21787 0
M  V30 6060 H 563.127 2.60628 2.68373 0
M  V30 6061 H 564.46 3.41491 3.54464 0
M  V30 6062 N 566.112 -0.949982 1.2575 0
M  V30 6063 C 567.337 -1.73503 1.13628 0
M  V30 6064 C 567.762 -1.85601 -0.30559 0
M  V30 6065 O 567.12 -1.33984 -1.22139 0
M  V30 6066 C 567.168 -3.1243 1.80055 0
M  V30 6067 O 566.272 -3.97916 1.08336 0
M  V30 6068 H 565.613 -0.532665 0.396439 0
M  V30 6069 H 568.143 -1.19043 1.66403 0
M  V30 6070 H 568.153 -3.62866 1.86527 0
M  V30 6071 H 566.828 -3.02941 2.84956 0
M  V30 6072 H 565.405 -3.56375 1.09777 0
M  V30 6073 N 567.59 -1.07411 -1.15328 0
M  V30 6074 C 568.83 -0.807011 -1.87794 0
M  V30 6075 C 569.194 0.654987 -1.80482 0
M  V30 6076 O 570.395 1.03716 -2.47985 0
M  V30 6077 C 568.666 -1.30198 -3.32841 0
M  V30 6078 S 570.225 -1.16564 -4.23034 0
M  V30 6079 H 567.043 -0.292429 -0.648079 0
M  V30 6080 H 569.645 -1.37334 -1.39139 0
M  V30 6081 H 568.349 -2.3607 -3.35707 0
M  V30 6082 H 567.88 -0.730881 -3.86551 0
M  V30 6083 H 569.895 -0.103557 -4.96092 0
M  V30 6084 N 569.068 1.32177 -0.85831 0
M  V30 6085 C 570.016 2.30729 -0.294442 0
M  V30 6086 C 571.01 1.59009 0.584165 0
M  V30 6087 O 572.216 1.73713 0.471562 0
M  V30 6088 H 568.591 0.748097 -0.0765171 0
M  V30 6089 H 570.562 2.75774 -1.1398 0
M  V30 6090 C 569.311 3.44098 0.499208 0
M  V30 6091 H 568.634 3.99449 -0.167579 0
M  V30 6092 H 570.074 4.15202 0.859273 0
M  V30 6093 C 568.533 2.91684 1.68588 0
M  V30 6094 O 569.063 2.89481 2.78503 0
M  V30 6095 N 567.269 2.48036 1.51415 0
M  V30 6096 H 566.816 2.50027 0.620006 0
M  V30 6097 H 566.774 2.13322 2.30957 0
M  V30 6098 N 570.547 0.616602 1.45037 0
M  V30 6099 C 571.775 0.121968 2.0654 0
M  V30 6100 C 572.19 -1.19743 1.45969 0
M  V30 6101 O 571.547 -1.73133 0.577168 0
M  V30 6102 C 571.598 -0.0145171 3.61497 0
M  V30 6103 O 571.319 1.25269 4.19809 0
M  V30 6104 C 572.82 -0.539555 4.40004 0
M  V30 6105 H 570.04 0.0729837 0.667019 0
M  V30 6106 H 572.584 0.846891 1.8614 0
M  V30 6107 H 570.739 -0.689809 3.81209 0
M  V30 6108 H 571.153 1.08816 5.13088 0
M  V30 6109 H 572.627 -0.584112 5.48901 0
M  V30 6110 H 573.104 -1.56368 4.10421 0
M  V30 6111 H 573.71 0.101995 4.25178 0
M  V30 6112 N 572.025 -1.5352 0.356285 0
M  V30 6113 C 573.253 -2.05534 -0.237328 0
M  V30 6114 C 573.668 -1.23043 -1.43199 0
M  V30 6115 O 573.025 -0.268821 -1.80509 0
M  V30 6116 C 573.076 -3.55791 -0.639933 0
M  V30 6117 O 572.797 -4.35154 0.507233 0
M  V30 6118 C 574.298 -4.24027 -1.29292 0
M  V30 6119 H 571.518 -0.669585 -0.0435572 0
M  V30 6120 H 574.062 -1.97988 0.511963 0
M  V30 6121 H 572.217 -3.63518 -1.33915 0
M  V30 6122 H 572.631 -5.24178 0.18375 0
M  V30 6123 H 574.105 -5.30509 -1.52527 0
M  V30 6124 H 574.582 -3.77166 -2.25039 0
M  V30 6125 H 575.188 -4.20527 -0.63539 0
M  V30 6126 N 573.503 -0.0852151 -1.57369 0
M  V30 6127 C 574.731 0.58946 -1.98325 0
M  V30 6128 C 575.146 1.62333 -0.96403 0
M  V30 6129 O 574.503 1.82438 0.0476395 0
M  V30 6130 C 574.554 1.24604 -3.39347 0
M  V30 6131 O 574.275 0.253532 -4.37366 0
M  V30 6132 C 575.776 2.00726 -3.95252 0
M  V30 6133 H 572.996 0.158783 -0.651942 0
M  V30 6134 H 575.54 -0.161584 -2.03861 0
M  V30 6135 H 573.695 1.94808 -3.34856 0
M  V30 6136 H 574.109 0.726207 -5.19448 0
M  V30 6137 H 575.583 2.42039 -4.96106 0
M  V30 6138 H 576.06 2.86919 -3.32527 0
M  V30 6139 H 576.666 1.3536 -4.03185 0
M  V30 6140 N 574.981 1.5647 0.188427 0
M  V30 6141 C 575.891 1.98285 1.2538 0
M  V30 6142 C 576.907 0.891535 1.49424 0
M  V30 6143 O 578.083 1.19782 1.61908 0
M  V30 6144 C 575.148 2.31965 2.57669 0
M  V30 6145 C 574.209 3.54838 2.41638 0
M  V30 6146 C 573.442 3.86901 3.67618 0
M  V30 6147 O 573.665 3.20163 4.72072 0
M  V30 6148 O 572.599 4.80309 3.62749 0
M  V30 6149 H 576.425 2.89145 0.928912 0
M  V30 6150 H 574.01 1.44112 0.393955 0
M  V30 6151 H 575.892 2.54673 3.35737 0
M  V30 6152 H 574.567 1.44271 2.89771 0
M  V30 6153 H 573.474 3.37369 1.61658 0
M  V30 6154 H 574.807 4.43019 2.14465 0
M  V30 6155 N 576.459 -0.456382 1.50847 0
M  V30 6156 C 577.736 -1.21739 1.53098 0
M  V30 6157 C 578.116 -2.09179 0.284132 0
M  V30 6158 O 577.464 -2.16466 -0.731773 0
M  V30 6159 C 577.674 -2.03573 2.83477 0
M  V30 6160 C 579.022 -2.61264 3.34703 0
M  V30 6161 O 580.046 -2.13802 2.84898 0
M  V30 6162 O 578.905 -3.47779 4.21559 0
M  V30 6163 H 575.999 -0.553219 0.614718 0
M  V30 6164 H 578.545 -0.467003 1.63148 0
M  V30 6165 H 577.317 -1.39232 3.65691 0
M  V30 6166 H 576.94 -2.85716 2.76499 0
M  V30 6167 N 577.937 -1.40673 -0.710563 0
M  V30 6168 C 578.847 -1.43663 -1.85467 0
M  V30 6169 C 579.863 -0.328721 -1.70867 0
M  V30 6170 O 581.039 -0.574098 -1.93044 0
M  V30 6171 C 578.104 -1.30226 -3.21313 0
M  V30 6172 C 577.165 -2.51204 -3.48131 0
M  V30 6173 C 576.398 -2.38398 -4.77495 0
M  V30 6174 O 576.621 -1.40048 -5.5294 0
M  V30 6175 O 575.555 -3.2787 -5.04762 0
M  V30 6176 H 579.381 -2.40156 -1.859 0
M  V30 6177 H 576.966 -1.22049 -0.861652 0
M  V30 6178 H 578.848 -1.2496 -4.02446 0
M  V30 6179 H 577.523 -0.368419 -3.21597 0
M  V30 6180 H 576.43 -2.62048 -2.66987 0
M  V30 6181 H 577.763 -3.43366 -3.52648 0
M  V30 6182 N 579.415 0.9433 -1.26252 0
M  V30 6183 C 580.692 1.66639 -1.02424 0
M  V30 6184 C 581.072 2.06335 0.446006 0
M  V30 6185 O 580.42 1.78551 1.42589 0
M  V30 6186 C 580.63 2.88019 -1.97094 0
M  V30 6187 C 581.978 3.59718 -2.25584 0
M  V30 6188 O 583.002 2.9812 -1.94943 0
M  V30 6189 O 581.861 4.7066 -2.77743 0
M  V30 6190 H 578.955 0.729643 -0.389294 0
M  V30 6191 H 581.501 0.995218 -1.37454 0
M  V30 6192 H 580.273 2.5556 -2.96319 0
M  V30 6193 H 579.896 3.62863 -1.62532 0
M  V30 6194 N 580.893 1.08022 1.14757 0
M  V30 6195 C 581.823 0.728248 2.21853 0
M  V30 6196 C 582.804 -0.287486 1.67653 0
M  V30 6197 O 583.989 -0.158727 1.9355 0
M  V30 6198 C 581.119 0.132549 3.47047 0
M  V30 6199 C 580.073 1.07619 4.14249 0
M  V30 6200 C 579.399 0.342907 5.33599 0
M  V30 6201 C 580.699 2.41268 4.63235 0
M  V30 6202 H 582.393 1.62365 2.51551 0
M  V30 6203 H 579.939 0.782125 1.20908 0
M  V30 6204 H 581.892 -0.125665 4.21213 0
M  V30 6205 H 580.616 -0.797971 3.16702 0
M  V30 6206 H 579.275 1.31944 3.42033 0
M  V30 6207 H 578.923 -0.59129 4.99513 0
M  V30 6208 H 578.623 0.971955 5.79506 0
M  V30 6209 H 580.147 0.0926538 6.1053 0
M  V30 6210 H 581.561 2.21232 5.28894 0
M  V30 6211 H 579.958 2.9983 5.19829 0
M  V30 6212 H 581.028 3.03079 3.78512 0
M  V30 6213 N 582.371 -1.3172 0.865308 0
M  V30 6214 C 583.318 -2.2863 0.315736 0
M  V30 6215 C 584.288 -1.55524 -0.583213 0
M  V30 6216 O 585.473 -1.83694 -0.51585 0
M  V30 6217 C 582.613 -3.41735 -0.480773 0
M  V30 6218 C 581.726 -4.297 0.445167 0
M  V30 6219 C 580.861 -5.29944 -0.365012 0
M  V30 6220 C 579.9 -6.09554 0.557651 0
M  V30 6221 N 579.037 -7.01768 -0.215994 0
M  V30 6222 H 583.877 -2.75026 1.14736 0
M  V30 6223 H 581.414 -1.35302 0.577209 0
M  V30 6224 H 583.372 -4.06045 -0.958306 0
M  V30 6225 H 582.002 -2.96461 -1.27714 0
M  V30 6226 H 581.054 -3.65875 1.04113 0
M  V30 6227 H 582.366 -4.85295 1.15284 0
M  V30 6228 H 581.52 -5.99908 -0.905255 0
M  V30 6229 H 580.259 -4.74994 -1.106 0
M  V30 6230 H 579.264 -5.38485 1.10969 0
M  V30 6231 H 580.489 -6.66591 1.29742 0
M  V30 6232 H 578.435 -6.49232 -0.939878 0
M  V30 6233 H 578.352 -7.54762 0.432431 0
M  V30 6234 H 579.62 -7.76002 -0.737618 0
M  V30 6235 N 583.85 -0.624285 -1.44708 0
M  V30 6236 C 584.812 0.0749638 -2.29077 0
M  V30 6237 C 585.812 0.778965 -1.40673 0
M  V30 6238 O 587.003 0.624591 -1.62618 0
M  V30 6239 C 584.135 1.11663 -3.22094 0
M  V30 6240 H 585.327 -0.667013 -2.92388 0
M  V30 6241 H 582.88 -0.384098 -1.51507 0
M  V30 6242 H 583.615 1.88881 -2.63618 0
M  V30 6243 H 583.401 0.61583 -3.87234 0
M  V30 6244 H 584.891 1.60585 -3.8549 0
M  V30 6245 N 585.328 1.53329 -0.364422 0
M  V30 6246 C 586.744 1.59594 -0.0133165 0
M  V30 6247 C 586.944 1.37959 1.46865 0
M  V30 6248 O 586 1.18418 2.2301 0
M  V30 6249 C 587.313 2.97032 -0.468213 0
M  V30 6250 C 588.861 3.10138 -0.422334 0
M  V30 6251 C 589.336 4.49986 -0.853024 0
M  V30 6252 N 590.827 4.56098 -0.808037 0
M  V30 6253 C 591.562 5.62495 -1.11299 0
M  V30 6254 N 591.058 6.7665 -1.48717 0
M  V30 6255 N 592.851 5.52473 -1.03586 0
M  V30 6256 H 585.002 1.65644 -1.32951 0
M  V30 6257 H 587.265 0.77684 -0.543345 0
M  V30 6258 H 586.971 3.18 -1.5023 0
M  V30 6259 H 586.845 3.76918 0.145775 0
M  V30 6260 H 589.232 2.88881 0.602622 0
M  V30 6261 H 589.313 2.32263 -1.0718 0
M  V30 6262 H 588.957 4.7198 -1.87609 0
M  V30 6263 H 588.887 5.26289 -0.180819 0
M  V30 6264 H 591.378 3.74131 -0.532361 0
M  V30 6265 H 591.691 7.53776 -1.70415 0
M  V30 6266 H 590.036 6.78044 -1.52581 0
M  V30 6267 H 593.227 4.6217 -0.742736 0
M  V30 6268 H 593.4 6.35295 -1.27686 0
M  V30 6269 N 586.806 0.0935595 1.57322 0
M  V30 6270 C 588.031 -0.582324 1.99057 0
M  V30 6271 C 588.456 -1.61025 0.972242 0
M  V30 6272 O 587.814 -1.81202 -0.0594622 0
M  V30 6273 C 587.862 -1.20799 3.39765 0
M  V30 6274 O 586.966 -2.32382 3.40694 0
M  V30 6275 H 586.307 -0.147884 0.647323 0
M  V30 6276 H 588.837 0.174516 2.03854 0
M  V30 6277 H 588.847 -1.54966 3.77425 0
M  V30 6278 H 587.522 -0.454914 4.13405 0
M  V30 6279 H 586.099 -1.99845 3.14827 0
M  V30 6280 N 588.284 -1.56567 -0.180126 0
M  V30 6281 C 589.695 -1.7126 -0.743422 0
M  V30 6282 C 590.046 -0.70263 -1.83187 0
M  V30 6283 O 589.171 0.137856 -2.1596 0
M  V30 6284 C 589.766 -3.10512 -1.35528 0
M  V30 6285 C 588.325 -3.26919 -1.8655 0
M  V30 6286 C 587.472 -2.67213 -0.741099 0
M  V30 6287 H 590.423 -1.58636 0.0451543 0
M  V30 6288 H 590.444 -3.08673 -2.22489 0
M  V30 6289 H 589.956 -3.83997 -0.562862 0
M  V30 6290 H 588.057 -2.58376 -2.68464 0
M  V30 6291 H 588.17 -4.34574 -2.01699 0
M  V30 6292 H 586.534 -2.26788 -1.15927 0
M  V30 6293 H 587.317 -3.43277 0.0393291 0
M  V30 6294 N 589.762 0.448376 -1.51087 0
M  V30 6295 C 590.672 1.56882 -1.74428 0
M  V30 6296 C 591.688 1.62268 -0.62809 0
M  V30 6297 O 592.864 1.79716 -0.909075 0
M  V30 6298 C 589.929 2.92947 -1.85426 0
M  V30 6299 C 588.99 2.97766 -3.09247 0
M  V30 6300 C 588.223 4.27341 -3.19711 0
M  V30 6301 O 588.446 5.19112 -2.36387 0
M  V30 6302 O 587.38 4.38219 -4.12611 0
M  V30 6303 H 591.206 1.40104 -2.69452 0
M  V30 6304 H 588.791 0.630247 -1.35456 0
M  V30 6305 H 590.673 3.73719 -1.94709 0
M  V30 6306 H 589.348 3.09876 -0.935887 0
M  V30 6307 H 588.255 2.15989 -3.0545 0
M  V30 6308 H 589.588 2.8578 -4.00738 0
M  V30 6309 N 591.24 1.41047 0.703093 0
M  V30 6310 C 592.488 1.39723 1.4602 0
M  V30 6311 C 592.809 0.00461257 1.94999 0
M  V30 6312 O 592.079 -0.952292 1.71196 0
M  V30 6313 H 590.659 0.514281 0.541779 0
M  V30 6314 H 593.321 1.76217 0.832678 0
M  V30 6315 H 592.417 2.07982 2.32701 0
M  V30 6316 N 592.718 -0.936591 1.26751 0
M  V30 6317 C 594.134 -1.21095 1.03963 0
M  V30 6318 C 594.334 -2.00156 -0.232372 0
M  V30 6319 O 593.39 -2.3434 -0.940274 0
M  V30 6320 C 594.703 -1.96775 2.27377 0
M  V30 6321 C 596.251 -2.09749 2.32324 0
M  V30 6322 C 596.726 -2.88832 3.55443 0
M  V30 6323 N 598.217 -2.96404 3.55948 0
M  V30 6324 C 598.952 -3.58036 4.47881 0
M  V30 6325 N 598.448 -4.21132 5.50109 0
M  V30 6326 N 600.241 -3.55353 4.35523 0
M  V30 6327 H 592.392 -0.408173 2.08441 0
M  V30 6328 H 594.655 -0.243139 0.91629 0
M  V30 6329 H 594.361 -1.46094 3.19921 0
M  V30 6330 H 594.235 -2.97424 2.31989 0
M  V30 6331 H 596.622 -2.5962 1.40291 0
M  V30 6332 H 596.703 -1.08347 2.31721 0
M  V30 6333 H 596.347 -2.39647 4.47808 0
M  V30 6334 H 596.277 -3.90499 3.53296 0
M  V30 6335 H 598.768 -2.51552 2.82011 0
M  V30 6336 H 599.081 -4.66071 6.16439 0
M  V30 6337 H 597.426 -4.19705 5.53961 0
M  V30 6338 H 600.617 -3.05256 3.54875 0
M  V30 6339 H 600.79 -4.03097 5.07363 0
M  V30 6340 N 594.196 -1.08629 -1.14182 0
M  V30 6341 C 595.421 -0.83902 -1.89671 0
M  V30 6342 C 595.846 0.603332 -1.78161 0
M  V30 6343 O 595.204 1.42301 -1.12339 0
M  V30 6344 C 595.252 -1.26854 -3.37551 0
M  V30 6345 O 594.356 -0.42188 -4.10236 0
M  V30 6346 H 593.697 -0.304545 -0.590041 0
M  V30 6347 H 596.227 -1.4483 -1.44518 0
M  V30 6348 H 596.237 -1.25038 -3.88368 0
M  V30 6349 H 594.912 -2.31901 -3.45246 0
M  V30 6350 H 593.489 -0.503654 -3.69483 0
M  V30 6351 N 595.674 1.31259 -0.872281 0
M  V30 6352 C 596.899 2.0133 -0.498099 0
M  V30 6353 C 597.324 1.65031 0.902568 0
M  V30 6354 O 596.682 0.860164 1.59596 0
M  V30 6355 C 596.73 3.54411 -0.665205 0
M  V30 6356 O 595.834 4.11347 0.294473 0
M  V30 6357 H 595.175 0.633844 -0.197832 0
M  V30 6358 H 597.705 1.67402 -1.17633 0
M  V30 6359 H 597.715 4.04147 -0.559373 0
M  V30 6360 H 596.39 3.80171 -1.68651 0
M  V30 6361 H 594.967 3.72624 0.143403 0
M  V30 6362 N 597.152 0.631951 1.44375 0
M  V30 6363 C 598.568 0.297642 1.568 0
M  V30 6364 C 598.768 -1.19916 1.61934 0
M  V30 6365 O 597.824 -1.98324 1.56281 0
M  V30 6366 C 599.137 0.990286 2.83926 0
M  V30 6367 C 600.685 0.968507 2.97639 0
M  V30 6368 C 601.16 1.64163 4.27568 0
M  V30 6369 N 602.651 1.60826 4.34384 0
M  V30 6370 C 603.386 2.09802 5.33639 0
M  V30 6371 N 602.882 2.66973 6.39294 0
M  V30 6372 N 604.675 2.00426 5.25153 0
M  V30 6373 H 596.826 1.60353 1.39286 0
M  V30 6374 H 599.089 0.673142 0.667521 0
M  V30 6375 H 598.795 2.04519 2.8612 0
M  V30 6376 H 598.669 0.528563 3.73478 0
M  V30 6377 H 601.056 -0.0779247 2.94997 0
M  V30 6378 H 601.137 1.46873 2.09433 0
M  V30 6379 H 600.781 2.68752 4.3097 0
M  V30 6380 H 600.711 1.11624 5.14634 0
M  V30 6381 H 603.202 1.19087 3.58646 0
M  V30 6382 H 603.515 3.02074 7.11316 0
M  V30 6383 H 601.86 2.71024 6.39977 0
M  V30 6384 H 605.051 1.55483 4.41523 0
M  V30 6385 H 605.224 2.38906 6.02352 0
M  V30 6386 N 598.631 -1.53133 0.372548 0
M  V30 6387 C 599.908 -1.93704 -0.271693 0
M  V30 6388 C 600.288 -1.30667 -1.65799 0
M  V30 6389 O 599.636 -0.46838 -2.23648 0
M  V30 6390 C 599.846 -3.47576 -0.314903 0
M  V30 6391 C 601.194 -4.20998 -0.551912 0
M  V30 6392 O 602.218 -3.53994 -0.39582 0
M  V30 6393 O 601.077 -5.39748 -0.85639 0
M  V30 6394 H 598.171 -0.810457 -0.164586 0
M  V30 6395 H 600.717 -1.6427 0.425838 0
M  V30 6396 H 599.489 -3.85749 0.656792 0
M  V30 6397 H 599.112 -3.83264 -1.05804 0
M  V30 6398 N 600.109 -0.101901 -1.5727 0
M  V30 6399 C 601.525 0.254739 -1.57554 0
M  V30 6400 C 601.725 1.67937 -1.11352 0
M  V30 6401 O 600.781 2.39722 -0.793081 0
M  V30 6402 C 602.094 0.036975 -3.00677 0
M  V30 6403 C 603.642 0.104199 -3.12827 0
M  V30 6404 C 604.117 -0.0856565 -4.5792 0
M  V30 6405 N 605.608 -0.0310498 -4.6319 0
M  V30 6406 C 606.343 -0.153099 -5.73196 0
M  V30 6407 N 605.839 -0.330364 -6.92012 0
M  V30 6408 N 607.632 -0.0938854 -5.62022 0
M  V30 6409 H 599.783 -1.03263 -1.85609 0
M  V30 6410 H 602.046 -0.405251 -0.857016 0
M  V30 6411 H 601.752 -0.947254 -3.38703 0
M  V30 6412 H 601.626 0.776335 -3.69124 0
M  V30 6413 H 604.013 1.07894 -2.74669 0
M  V30 6414 H 604.094 -0.666762 -2.46957 0
M  V30 6415 H 603.738 -1.05729 -4.96773 0
M  V30 6416 H 603.668 0.705082 -5.21858 0
M  V30 6417 H 606.159 0.103141 -3.77759 0
M  V30 6418 H 606.472 -0.41482 -7.71686 0
M  V30 6419 H 604.817 -0.366119 -6.94035 0
M  V30 6420 H 608.008 0.0435168 -4.6808 0
M  V30 6421 H 608.181 -0.19245 -6.47714 0
M  V30 6422 N 601.587 1.56661 0.17182 0
M  V30 6423 C 602.815 1.861 0.904115 0
M  V30 6424 C 603.23 0.687227 1.75848 0
M  V30 6425 O 602.587 -0.343671 1.79235 0
M  V30 6426 C 602.638 3.14568 1.78127 0
M  V30 6427 O 602.359 4.27422 0.961366 0
M  V30 6428 C 603.86 3.5735 2.62327 0
M  V30 6429 H 601.08 0.617445 0.262684 0
M  V30 6430 H 603.624 2.03775 0.172068 0
M  V30 6431 H 601.779 2.98721 2.46666 0
M  V30 6432 H 602.193 5.00725 1.56123 0
M  V30 6433 H 603.667 4.50144 3.1949 0
M  V30 6434 H 604.144 2.81445 3.37173 0
M  V30 6435 H 604.75 3.75807 1.99121 0
M  V30 6436 N 603.065 -0.440357 1.51323 0
M  V30 6437 C 604.028 -1.51679 1.71832 0
M  V30 6438 C 605.028 -1.49648 0.588386 0
M  V30 6439 O 606.218 -1.51724 0.855891 0
M  V30 6440 C 603.35 -2.91228 1.77199 0
M  V30 6441 H 604.543 -1.34799 2.67898 0
M  V30 6442 H 602.096 -0.66883 1.41267 0
M  V30 6443 H 602.831 -3.13516 0.829363 0
M  V30 6444 H 602.616 -2.94107 2.59314 0
M  V30 6445 H 604.106 -3.69321 1.94915 0
M  V30 6446 N 604.543 -1.41418 -0.695603 0
M  V30 6447 C 605.954 -1.36335 -1.27552 0
M  V30 6448 C 606.305 -0.0464336 -1.96145 0
M  V30 6449 O 605.43 0.855304 -1.9878 0
M  V30 6450 C 606.025 -2.46941 -2.3196 0
M  V30 6451 C 604.584 -2.45256 -2.85529 0
M  V30 6452 C 603.731 -2.2679 -1.59566 0
M  V30 6453 H 606.682 -1.50934 -0.490362 0
M  V30 6454 H 606.703 -2.15997 -3.1325 0
M  V30 6455 H 606.215 -3.42775 -1.82008 0
M  V30 6456 H 604.316 -1.53179 -3.39657 0
M  V30 6457 H 604.429 -3.41565 -3.35961 0
M  V30 6458 H 602.793 -1.74667 -1.85374 0
M  V30 6459 H 603.576 -3.24651 -1.1161 0
M  V30 6460 N 606.021 0.929856 -1.27246 0
M  V30 6461 C 607.246 1.71674 -1.16374 0
M  V30 6462 C 607.671 1.86064 0.276024 0
M  V30 6463 O 607.029 1.3591 1.19992 0
M  V30 6464 C 607.077 3.09526 -1.85003 0
M  V30 6465 O 606.181 3.96142 -1.14653 0
M  V30 6466 H 605.522 0.52629 -0.404863 0
M  V30 6467 H 608.052 1.16381 -1.68276 0
M  V30 6468 H 608.062 3.59852 -1.92276 0
M  V30 6469 H 606.737 2.98369 -2.89739 0
M  V30 6470 H 605.314 3.54584 -1.15433 0
M  V30 6471 N 607.499 1.09233 1.13605 0
M  V30 6472 C 608.462 0.733553 2.17144 0
M  V30 6473 C 609.462 -0.235873 1.59061 0
M  V30 6474 O 610.652 -0.0143167 1.74194 0
M  V30 6475 C 607.784 0.084471 3.40795 0
M  V30 6476 H 608.977 1.65049 2.50397 0
M  V30 6477 H 606.53 0.891264 1.28399 0
M  V30 6478 H 607.265 -0.843795 3.1313 0
M  V30 6479 H 607.05 0.781985 3.84223 0
M  V30 6480 H 608.54 -0.151216 4.17326 0
M  V30 6481 N 608.977 -1.30795 0.87923 0
M  V30 6482 C 610.225 -1.95974 0.493809 0
M  V30 6483 C 610.546 -1.69787 -0.959021 0
M  V30 6484 O 609.816 -1.01832 -1.67353 0
M  V30 6485 H 608.396 -0.725083 0.179622 0
M  V30 6486 H 611.058 -1.59432 1.12105 0
M  V30 6487 H 610.154 -3.05058 0.659263 0
M  V30 6488 N 610.455 -0.639598 -1.44038 0
M  V30 6489 C 611.388 0.109736 -2.27936 0
M  V30 6490 C 612.366 0.843095 -1.39035 0
M  V30 6491 O 613.55 0.845456 -1.68476 0
M  V30 6492 C 610.677 1.16173 -3.18153 0
M  V30 6493 C 609.723 0.527954 -4.2322 0
M  V30 6494 S 610.556 -0.688318 -5.31058 0
M  V30 6495 C 611.712 0.363481 -6.24844 0
M  V30 6496 H 611.945 -0.601986 -2.91142 0
M  V30 6497 H 609.478 -0.42802 -1.48349 0
M  V30 6498 H 611.436 1.76372 -3.7068 0
M  V30 6499 H 610.097 1.84569 -2.54151 0
M  V30 6500 H 609.29 1.32054 -4.86393 0
M  V30 6501 H 608.892 0.000396444 -3.74 0
M  V30 6502 H 611.184 1.23362 -6.66174 0
M  V30 6503 H 612.127 -0.23288 -7.07717 0
M  V30 6504 H 612.535 0.693179 -5.60228 0
M  V30 6505 N 611.933 1.52934 -0.380664 0
M  V30 6506 C 612.865 2.23822 0.493581 0
M  V30 6507 C 613.878 1.25761 1.03383 0
M  V30 6508 O 615.067 1.5189 0.937633 0
M  V30 6509 C 612.167 2.9342 1.69582 0
M  V30 6510 C 611.34 4.18115 1.28445 0
M  V30 6511 C 610.399 4.70788 2.35042 0
M  V30 6512 O 609.425 5.34093 1.96807 0
M  V30 6513 N 610.627 4.49899 3.66839 0
M  V30 6514 H 613.392 2.99484 -0.11371 0
M  V30 6515 H 610.953 1.60577 -0.206587 0
M  V30 6516 H 612.945 3.2556 2.40401 0
M  V30 6517 H 611.515 2.21119 2.20965 0
M  V30 6518 H 610.735 3.92109 0.405503 0
M  V30 6519 H 612.023 4.99152 0.986132 0
M  V30 6520 H 611.421 3.99349 4.0067 0
M  V30 6521 H 609.978 4.86551 4.33718 0
M  V30 6522 N 613.412 0.11024 1.57214 0
M  V30 6523 C 614.823 -0.416527 1.81994 0
M  V30 6524 C 615.174 -1.67183 1.02686 0
M  V30 6525 O 614.299 -2.14823 0.260782 0
M  V30 6526 C 614.894 -0.762466 3.30109 0
M  V30 6527 C 613.453 -1.23391 3.556 0
M  V30 6528 C 612.6 -0.238166 2.76275 0
M  V30 6529 H 615.551 0.335491 1.55113 0
M  V30 6530 H 615.572 -1.62068 3.44259 0
M  V30 6531 H 615.084 0.151346 3.87805 0
M  V30 6532 H 613.185 -2.16492 3.03253 0
M  V30 6533 H 613.298 -1.18528 4.64207 0
M  V30 6534 H 611.662 -0.723421 2.4421 0
M  V30 6535 H 612.445 0.668591 3.36727 0
M  V30 6536 N 614.89 -1.56749 -0.16351 0
M  V30 6537 C 615.822 -1.93587 -1.22705 0
M  V30 6538 C 616.835 -0.829824 -1.40063 0
M  V30 6539 O 618.024 -1.10826 -1.39928 0
M  V30 6540 C 615.124 -2.1803 -2.59454 0
M  V30 6541 C 614.297 -3.4928 -2.63292 0
M  V30 6542 C 613.356 -3.62457 -3.8146 0
M  V30 6543 O 612.382 -4.35004 -3.67096 0
M  V30 6544 N 613.584 -2.97888 -4.9824 0
M  V30 6545 H 616.349 -2.8542 -0.914081 0
M  V30 6546 H 613.91 -1.58 -0.353214 0
M  V30 6547 H 615.902 -2.24102 -3.36987 0
M  V30 6548 H 614.472 -1.32543 -2.8311 0
M  V30 6549 H 613.692 -3.54795 -1.71796 0
M  V30 6550 H 614.98 -4.35632 -2.62873 0
M  V30 6551 H 614.378 -2.38833 -5.12811 0
M  V30 6552 H 612.935 -3.09545 -5.73607 0
M  V30 6553 N 616.368 0.432326 -1.51554 0
M  V30 6554 C 617.779 1.01202 -1.56892 0
M  V30 6555 C 618.13 1.92175 -0.395394 0
M  V30 6556 O 617.255 2.10844 0.487198 0
M  V30 6557 C 617.85 1.84217 -2.8434 0
M  V30 6558 C 616.409 2.37228 -2.92233 0
M  V30 6559 C 615.556 1.16576 -2.51606 0
M  V30 6560 H 618.507 0.213407 -1.57259 0
M  V30 6561 H 618.528 2.69721 -2.68385 0
M  V30 6562 H 618.04 1.17979 -3.69733 0
M  V30 6563 H 616.141 3.06905 -2.11282 0
M  V30 6564 H 616.254 2.69682 -3.95991 0
M  V30 6565 H 614.618 1.51263 -2.04919 0
M  V30 6566 H 615.401 0.519404 -3.39348 0
M  V30 6567 N 617.846 1.41785 0.688094 0
M  V30 6568 C 619.071 1.45117 1.48175 0
M  V30 6569 C 619.496 0.060129 1.88004 0
M  V30 6570 O 618.854 -0.938385 1.55126 0
M  V30 6571 C 618.902 2.37224 2.71583 0
M  V30 6572 O 618.006 1.83443 3.69354 0
M  V30 6573 H 617.347 0.492208 0.445676 0
M  V30 6574 H 619.877 1.86329 0.845145 0
M  V30 6575 H 619.887 2.53353 3.19806 0
M  V30 6576 H 618.562 3.38293 2.41931 0
M  V30 6577 H 617.139 1.76802 3.28322 0
M  V30 6578 N 619.324 -0.923095 1.27737 0
M  V30 6579 C 620.254 -2.04124 1.13383 0
M  V30 6580 C 621.235 -1.70066 0.0340658 0
M  V30 6581 O 622.42 -1.93068 0.209383 0
M  V30 6582 C 619.55 -3.3831 0.785097 0
M  V30 6583 C 618.504 -3.86496 1.8386 0
M  V30 6584 C 617.83 -5.1754 1.34373 0
M  V30 6585 C 619.13 -4.09381 3.24353 0
M  V30 6586 H 620.824 -2.1639 2.06919 0
M  V30 6587 H 618.37 -1.03976 0.996243 0
M  V30 6588 H 620.323 -4.16016 0.671485 0
M  V30 6589 H 619.047 -3.2607 -0.185969 0
M  V30 6590 H 617.706 -3.10987 1.9412 0
M  V30 6591 H 617.354 -5.01696 0.361989 0
M  V30 6592 H 617.054 -5.50751 2.04811 0
M  V30 6593 H 618.578 -5.97811 1.24315 0
M  V30 6594 H 619.992 -4.77641 3.17067 0
M  V30 6595 H 618.389 -4.53906 3.92542 0
M  V30 6596 H 619.459 -3.14515 3.69064 0
M  V30 6597 N 620.802 -1.09834 -1.13024 0
M  V30 6598 C 622.042 -0.846664 -1.8604 0
M  V30 6599 C 622.406 0.616557 -1.81831 0
M  V30 6600 O 623.607 0.984329 -2.50129 0
M  V30 6601 C 621.878 -1.37228 -3.30005 0
M  V30 6602 S 623.437 -1.25511 -4.20467 0
M  V30 6603 H 620.255 -0.30611 -0.64173 0
M  V30 6604 H 622.857 -1.40255 -1.36194 0
M  V30 6605 H 621.561 -2.43138 -3.30624 0
M  V30 6606 H 621.092 -0.81271 -3.84914 0
M  V30 6607 H 623.107 -0.208762 -4.95761 0
M  V30 6608 N 622.28 1.30327 -0.886154 0
M  V30 6609 C 623.505 2.0079 -0.519425 0
M  V30 6610 C 623.93 1.65979 0.885013 0
M  V30 6611 O 623.288 0.877043 1.58675 0
M  V30 6612 C 623.336 3.53686 -0.702758 0
M  V30 6613 O 622.44 4.11637 0.250828 0
M  V30 6614 H 621.781 0.63171 -0.204544 0
M  V30 6615 H 624.311 1.66145 -1.19402 0
M  V30 6616 H 624.321 4.03531 -0.602207 0
M  V30 6617 H 622.996 3.78361 -1.72673 0
M  V30 6618 H 621.573 3.72755 0.103873 0
M  V30 6619 N 623.758 0.647228 1.43697 0
M  V30 6620 C 624.983 0.164083 2.0675 0
M  V30 6621 C 625.408 -1.15892 1.48158 0
M  V30 6622 O 624.766 -1.71459 0.589194 0
M  V30 6623 C 624.814 0.0800368 3.60511 0
M  V30 6624 O 623.918 -0.959453 4.01084 0
M  V30 6625 H 623.259 0.0921288 0.657578 0
M  V30 6626 H 625.789 0.88846 1.84303 0
M  V30 6627 H 625.799 -0.105263 4.07864 0
M  V30 6628 H 624.474 1.04586 4.02535 0
M  V30 6629 H 623.051 -0.747425 3.65333 0
M  V30 6630 N 625.236 -1.5273 0.388769 0
M  V30 6631 C 626.199 -2.25043 -0.434544 0
M  V30 6632 C 627.199 -1.26661 -0.990644 0
M  V30 6633 O 628.389 -1.50762 -0.872731 0
M  V30 6634 C 625.521 -3.00507 -1.60961 0
M  V30 6635 H 626.714 -2.99242 0.198549 0
M  V30 6636 H 624.267 -1.55664 0.140875 0
M  V30 6637 H 625.002 -2.30607 -2.28015 0
M  V30 6638 H 624.787 -3.72716 -1.21757 0
M  V30 6639 H 626.277 -3.55413 -2.19251 0
M  V30 6640 N 626.714 -0.118576 -1.57153 0
M  V30 6641 C 627.647 0.869046 -2.11004 0
M  V30 6642 C 628.625 1.26115 -1.02634 0
M  V30 6643 O 629.809 1.36228 -1.30285 0
M  V30 6644 C 626.936 2.16297 -2.6064 0
M  V30 6645 C 625.982 1.91896 -3.80891 0
M  V30 6646 S 626.815 1.13562 -5.2332 0
M  V30 6647 C 627.971 2.44135 -5.76324 0
M  V30 6648 H 628.204 0.411005 -2.94445 0
M  V30 6649 H 625.737 0.0951891 -1.54106 0
M  V30 6650 H 627.695 2.90642 -2.89892 0
M  V30 6651 H 626.356 2.59219 -1.77382 0
M  V30 6652 H 625.549 2.8777 -4.13768 0
M  V30 6653 H 625.151 1.25672 -3.52253 0
M  V30 6654 H 627.443 3.39976 -5.86022 0
M  V30 6655 H 628.386 2.15803 -6.74414 0
M  V30 6656 H 628.794 2.53483 -5.04387 0
M  V30 6657 N 628.193 1.56834 0.155195 0
M  V30 6658 C 629.609 1.51315 0.50755 0
M  V30 6659 C 629.809 0.825614 1.83809 0
M  V30 6660 O 628.865 0.39271 2.49427 0
M  V30 6661 C 630.178 2.96074 0.52542 0
M  V30 6662 C 631.726 3.06968 0.611505 0
M  V30 6663 C 632.201 4.53218 0.660115 0
M  V30 6664 N 633.692 4.5753 0.722564 0
M  V30 6665 C 634.427 5.68056 0.781023 0
M  V30 6666 N 633.923 6.88173 0.799327 0
M  V30 6667 N 635.716 5.56068 0.821278 0
M  V30 6668 H 627.867 1.9993 -0.717063 0
M  V30 6669 H 630.13 0.911507 -0.260496 0
M  V30 6670 H 629.836 3.49599 -0.383875 0
M  V30 6671 H 629.71 3.51587 1.36624 0
M  V30 6672 H 632.097 2.53468 1.51122 0
M  V30 6673 H 632.178 2.54513 -0.256306 0
M  V30 6674 H 631.822 5.07354 -0.23541 0
M  V30 6675 H 631.752 5.03447 1.5443 0
M  V30 6676 H 634.243 3.71054 0.716049 0
M  V30 6677 H 634.556 7.6816 0.845553 0
M  V30 6678 H 632.901 6.90751 0.767337 0
M  V30 6679 H 636.092 4.61142 0.804091 0
M  V30 6680 H 636.265 6.42223 0.863372 0
M  V30 6681 N 629.671 -0.424282 1.51781 0
M  V30 6682 C 630.618 -1.51591 1.74037 0
M  V30 6683 C 631.588 -1.55556 0.582358 0
M  V30 6684 O 632.773 -1.72364 0.818245 0
M  V30 6685 C 629.913 -2.89188 1.8832 0
M  V30 6686 C 629.026 -2.9465 3.1592 0
M  V30 6687 C 628.161 -4.23452 3.20721 0
M  V30 6688 C 627.2 -4.22831 4.42584 0
M  V30 6689 N 626.337 -5.43178 4.44862 0
M  V30 6690 H 631.177 -1.31917 2.67212 0
M  V30 6691 H 628.714 -0.640599 1.32419 0
M  V30 6692 H 630.672 -3.69044 1.94583 0
M  V30 6693 H 629.302 -3.07392 0.985402 0
M  V30 6694 H 628.354 -2.07378 3.18902 0
M  V30 6695 H 629.666 -2.90055 4.05795 0
M  V30 6696 H 628.82 -5.1169 3.25973 0
M  V30 6697 H 627.559 -4.30722 2.28757 0
M  V30 6698 H 626.564 -3.32984 4.37495 0
M  V30 6699 H 627.789 -4.17213 5.35826 0
M  V30 6700 H 625.735 -5.51145 3.55775 0
M  V30 6701 H 625.652 -5.40515 5.28563 0
M  V30 6702 H 626.92 -6.33412 4.54324 0
M  V30 6703 N 631.149 -1.42148 -0.680565 0
M  V30 6704 C 632.081 -1.41119 -1.80605 0
M  V30 6705 C 633.094 -0.311099 -1.598 0
M  V30 6706 O 634.283 -0.573813 -1.69026 0
M  V30 6707 C 631.383 -1.18204 -3.17618 0
M  V30 6708 C 630.556 -2.40537 -3.65322 0
M  V30 6709 C 629.615 -2.13254 -4.8105 0
M  V30 6710 O 628.641 -2.8641 -4.91892 0
M  V30 6711 N 629.843 -1.13208 -5.69354 0
M  V30 6712 H 632.608 -2.38128 -1.81975 0
M  V30 6713 H 630.169 -1.36953 -0.863446 0
M  V30 6714 H 632.161 -0.97878 -3.92686 0
M  V30 6715 H 630.731 -0.29738 -3.11182 0
M  V30 6716 H 629.951 -2.76468 -2.80996 0
M  V30 6717 H 631.239 -3.22012 -3.93936 0
M  V30 6718 H 630.637 -0.526893 -5.63241 0
M  V30 6719 H 629.194 -0.988699 -6.44258 0
M  V30 6720 N 632.627 0.916307 -1.28225 0
M  V30 6721 C 633.537 2.05165 -1.13775 0
M  V30 6722 C 634.553 1.73879 -0.0649418 0
M  V30 6723 O 635.729 1.99531 -0.273722 0
M  V30 6724 C 632.794 3.37385 -0.798267 0
M  V30 6725 C 631.855 3.82296 -1.95316 0
M  V30 6726 C 631.088 5.08206 -1.62978 0
M  V30 6727 O 631.311 5.6781 -0.542948 0
M  V30 6728 O 630.245 5.48768 -2.47261 0
M  V30 6729 H 634.071 2.20273 -2.09078 0
M  V30 6730 H 631.656 1.0373 -1.07519 0
M  V30 6731 H 633.538 4.16773 -0.62278 0
M  V30 6732 H 632.213 3.23458 0.125139 0
M  V30 6733 H 631.12 3.03746 -2.18378 0
M  V30 6734 H 632.453 4.00782 -2.85718 0
M  V30 6735 N 634.105 1.10431 1.1244 0
M  V30 6736 C 635.354 0.841539 1.83306 0
M  V30 6737 C 635.667 -0.634961 1.85007 0
M  V30 6738 O 636.873 -1.01363 2.51869 0
M  V30 6739 C 635.329 1.45565 3.29149 0
M  V30 6740 C 634.937 2.96544 3.35806 0
M  V30 6741 C 636.681 1.27227 4.04986 0
M  V30 6742 C 634.588 3.5099 4.75983 0
M  V30 6743 H 633.518 0.311156 0.686803 0
M  V30 6744 H 636.169 1.32829 1.26604 0
M  V30 6745 H 634.551 0.896574 3.85717 0
M  V30 6746 H 635.725 3.58766 2.89177 0
M  V30 6747 H 634.04 3.14036 2.73442 0
M  V30 6748 H 636.637 1.65348 5.08492 0
M  V30 6749 H 636.98 0.213834 4.1575 0
M  V30 6750 H 637.513 1.79941 3.54776 0
M  V30 6751 H 634.252 4.56499 4.70413 0
M  V30 6752 H 633.772 2.93535 5.23065 0
M  V30 6753 H 635.451 3.48808 5.44924 0
M  V30 6754 N 635.583 -1.29855 0.893053 0
M  V30 6755 C 636.832 -1.95104 0.511597 0
M  V30 6756 C 637.145 -1.71226 -0.945567 0
M  V30 6757 O 638.351 -2.30525 -1.43424 0
M  V30 6758 C 636.807 -3.49374 0.864034 0
M  V30 6759 C 636.415 -3.82061 2.33952 0
M  V30 6760 C 638.159 -4.20894 0.552167 0
M  V30 6761 C 636.066 -5.29546 2.63316 0
M  V30 6762 H 634.996 -0.73029 0.187597 0
M  V30 6763 H 637.647 -1.47682 1.08914 0
M  V30 6764 H 636.029 -3.95413 0.215493 0
M  V30 6765 H 637.203 -3.46904 3.03305 0
M  V30 6766 H 635.518 -3.23665 2.61973 0
M  V30 6767 H 638.115 -5.29435 0.748489 0
M  V30 6768 H 638.458 -4.13178 -0.508924 0
M  V30 6769 H 638.991 -3.80564 1.15825 0
M  V30 6770 H 635.73 -5.4232 3.68197 0
M  V30 6771 H 635.25 -5.65974 1.9858 0
M  V30 6772 H 636.929 -5.97068 2.49236 0
M  V30 6773 N 637.061 -0.65484 -1.43351 0
M  V30 6774 C 638.008 0.0357713 -2.30772 0
M  V30 6775 C 638.978 0.813035 -1.44841 0
M  V30 6776 O 640.163 0.789314 -1.73708 0
M  V30 6777 C 637.303 0.995084 -3.30442 0
M  V30 6778 C 636.416 0.21375 -4.31471 0
M  V30 6779 C 635.551 1.16701 -5.18222 0
M  V30 6780 C 634.59 0.376201 -6.10943 0
M  V30 6781 N 633.727 1.28113 -6.90313 0
M  V30 6782 H 638.567 -0.71559 -2.89281 0
M  V30 6783 H 636.104 -0.364645 -1.42509 0
M  V30 6784 H 638.062 1.5649 -3.86739 0
M  V30 6785 H 636.692 1.7133 -2.7358 0
M  V30 6786 H 635.744 -0.472377 -3.77456 0
M  V30 6787 H 637.056 -0.401103 -4.97185 0
M  V30 6788 H 636.21 1.8074 -5.79153 0
M  V30 6789 H 634.949 1.81577 -4.52638 0
M  V30 6790 H 633.954 -0.277534 -5.49099 0
M  V30 6791 H 635.179 -0.268178 -6.7857 0
M  V30 6792 H 633.125 1.91666 -6.27376 0
M  V30 6793 H 633.042 0.720879 -7.52555 0
M  V30 6794 H 634.31 1.90962 -7.55747 0
M  V30 6795 N 638.539 1.52521 -0.396863 0
M  V30 6796 C 639.788 2.00857 0.184184 0
M  V30 6797 C 640.101 1.28733 1.47265 0
M  V30 6798 O 641.307 1.67821 2.13421 0
M  V30 6799 C 639.763 3.57901 0.378787 0
M  V30 6800 C 639.371 4.38931 -0.896873 0
M  V30 6801 C 641.115 4.14504 0.915789 0
M  V30 6802 C 639.022 5.87591 -0.670133 0
M  V30 6803 H 637.952 0.750496 0.0726055 0
M  V30 6804 H 640.603 1.75965 -0.520425 0
M  V30 6805 H 638.985 3.79072 1.14543 0
M  V30 6806 H 640.159 4.29524 -1.66872 0
M  V30 6807 H 638.474 3.93586 -1.35938 0
M  V30 6808 H 641.071 5.23236 1.10126 0
M  V30 6809 H 641.414 3.71076 1.88701 0
M  V30 6810 H 641.947 3.97253 0.208523 0
M  V30 6811 H 638.686 6.35355 -1.61257 0
M  V30 6812 H 638.206 5.99767 0.0626368 0
M  V30 6813 H 639.885 6.46268 -0.307577 0
M  V30 6814 N 640.017 0.126909 1.57088 0
M  V30 6815 C 641.245 -0.53667 1.99819 0
M  V30 6816 C 641.66 -1.5972 1.00673 0
M  V30 6817 O 641.017 -1.825 0.000747365 0
M  V30 6818 C 641.068 -1.15563 3.42531 0
M  V30 6819 O 640.789 -0.137483 4.37884 0
M  V30 6820 C 642.29 -1.90176 4.00435 0
M  V30 6821 H 639.51 -0.141443 0.655923 0
M  V30 6822 H 642.054 0.215578 2.03361 0
M  V30 6823 H 640.209 -1.85861 3.39904 0
M  V30 6824 H 640.623 -0.588229 5.21191 0
M  V30 6825 H 642.097 -2.28801 5.02349 0
M  V30 6826 H 642.574 -2.78002 3.40017 0
M  V30 6827 H 643.18 -1.24623 4.06632 0
M  V30 6828 N 641.495 -1.56914 -0.146875 0
M  V30 6829 C 642.405 -2.0154 -1.20079 0
M  V30 6830 C 643.421 -0.930838 -1.47008 0
M  V30 6831 O 644.597 -1.24032 -1.58676 0
M  V30 6832 C 641.662 -2.38715 -2.51428 0
M  V30 6833 C 640.723 -3.6112 -2.32145 0
M  V30 6834 C 639.956 -3.96512 -3.57231 0
M  V30 6835 O 640.179 -3.32566 -4.63418 0
M  V30 6836 O 639.113 -4.89758 -3.49887 0
M  V30 6837 H 642.939 -2.91506 -0.851924 0
M  V30 6838 H 640.524 -1.45106 -0.355607 0
M  V30 6839 H 642.406 -2.63485 -3.28867 0
M  V30 6840 H 641.081 -1.51903 -2.85845 0
M  V30 6841 H 639.988 -3.41536 -1.52656 0
M  V30 6842 H 641.321 -4.48549 -2.02644 0
M  V30 6843 N 642.974 0.416227 -1.52004 0
M  V30 6844 C 643.906 1.52552 -1.71058 0
M  V30 6845 C 644.919 1.51693 -0.59102 0
M  V30 6846 O 646.108 1.56087 -0.865973 0
M  V30 6847 C 643.208 2.91455 -1.72937 0
M  V30 6848 C 642.381 3.16584 -3.01816 0
M  V30 6849 C 641.44 4.35322 -2.95603 0
M  V30 6850 O 640.466 4.32947 -3.6952 0
M  V30 6851 N 641.668 5.40049 -2.12903 0
M  V30 6852 H 644.433 1.36604 -2.66757 0
M  V30 6853 H 641.994 0.60544 -1.50153 0
M  V30 6854 H 643.986 3.68944 -1.66321 0
M  V30 6855 H 642.556 3.00895 -0.847418 0
M  V30 6856 H 641.776 2.27203 -3.22137 0
M  V30 6857 H 643.064 3.30213 -3.87088 0
M  V30 6858 H 642.462 5.44823 -1.52265 0
M  V30 6859 H 641.019 6.16308 -2.1215 0
M  V30 6860 N 644.452 1.42507 0.673017 0
M  V30 6861 C 645.382 1.48916 1.79851 0
M  V30 6862 C 646.363 0.345566 1.66553 0
M  V30 6863 O 647.548 0.560116 1.85947 0
M  V30 6864 C 644.678 1.39258 3.18158 0
M  V30 6865 C 643.632 2.51662 3.46194 0
M  V30 6866 C 642.958 2.27062 4.84094 0
M  V30 6867 C 644.258 3.93968 3.42909 0
M  V30 6868 H 645.952 2.43114 1.74745 0
M  V30 6869 H 643.498 1.17013 0.839288 0
M  V30 6870 H 645.451 1.42349 3.96629 0
M  V30 6871 H 644.175 0.415542 3.23946 0
M  V30 6872 H 642.834 2.47891 2.70084 0
M  V30 6873 H 642.482 1.27648 4.86534 0
M  V30 6874 H 642.182 3.02398 5.03815 0
M  V30 6875 H 643.706 2.31905 5.64847 0
M  V30 6876 H 645.12 3.99332 4.11347 0
M  V30 6877 H 643.517 4.6917 3.74165 0
M  V30 6878 H 644.587 4.20512 2.41449 0
M  V30 6879 N 645.93 -0.909495 1.28709 0
M  V30 6880 C 647.179 -1.65365 1.15487 0
M  V30 6881 C 647.492 -1.93364 -0.294941 0
M  V30 6882 O 648.698 -2.65905 -0.548338 0
M  V30 6883 C 647.154 -2.97923 2.01916 0
M  V30 6884 C 646.762 -2.77556 3.51663 0
M  V30 6885 C 648.506 -3.75814 1.97393 0
M  V30 6886 C 646.413 -4.0578 4.30229 0
M  V30 6887 H 645.343 -0.620323 0.42862 0
M  V30 6888 H 647.994 -1.00894 1.53273 0
M  V30 6889 H 646.376 -3.63552 1.5699 0
M  V30 6890 H 647.55 -2.2058 4.04575 0
M  V30 6891 H 645.865 -2.13072 3.57756 0
M  V30 6892 H 648.462 -4.70866 2.53357 0
M  V30 6893 H 648.805 -4.05277 0.951643 0
M  V30 6894 H 649.338 -3.1701 2.40311 0
M  V30 6895 H 646.077 -3.81488 5.33055 0
M  V30 6896 H 645.597 -4.62351 3.82089 0
M  V30 6897 H 647.276 -4.74004 4.40374 0
M  V30 6898 N 647.408 -1.11026 -1.11852 0
M  V30 6899 C 648.318 -0.777252 -2.2135 0
M  V30 6900 C 649.334 0.227821 -1.72502 0
M  V30 6901 O 650.51 0.0650587 -2.01295 0
M  V30 6902 C 647.575 -0.220668 -3.45997 0
M  V30 6903 C 646.636 -1.2838 -4.09655 0
M  V30 6904 C 645.869 -0.753678 -5.28352 0
M  V30 6905 O 646.092 0.417779 -5.68868 0
M  V30 6906 O 645.026 -1.51647 -5.82483 0
M  V30 6907 H 648.852 -1.69141 -2.5224 0
M  V30 6908 H 646.437 -0.885836 -1.20305 0
M  V30 6909 H 648.319 0.0855756 -4.21313 0
M  V30 6910 H 646.994 0.666262 -3.16769 0
M  V30 6911 H 645.901 -1.64299 -3.3609 0
M  V30 6912 H 647.234 -2.14396 -4.43052 0
M  V30 6913 N 648.886 1.2938 -0.899927 0
M  V30 6914 C 649.849 2.25983 -0.382677 0
M  V30 6915 C 650.849 1.53366 0.483259 0
M  V30 6916 O 652.039 1.71798 0.28828 0
M  V30 6917 C 649.171 3.37878 0.452915 0
M  V30 6918 H 650.364 2.73252 -1.23586 0
M  V30 6919 H 647.917 1.40825 -0.678088 0
M  V30 6920 H 648.652 2.95949 1.32608 0
M  V30 6921 H 648.437 3.91742 -0.167562 0
M  V30 6922 H 649.927 4.09746 0.806107 0
M  V30 6923 N 650.364 0.662433 1.43002 0
M  V30 6924 C 651.613 0.176873 2.00923 0
M  V30 6925 C 651.926 -1.21954 1.52927 0
M  V30 6926 O 653.132 -1.80081 2.03182 0
M  V30 6927 C 651.588 0.265379 3.5892 0
M  V30 6928 C 651.196 1.66507 4.15908 0
M  V30 6929 C 652.94 -0.162103 4.2419 0
M  V30 6930 C 650.847 1.707 5.66229 0
M  V30 6931 H 649.777 0.0623627 0.751417 0
M  V30 6932 H 652.428 0.825813 1.63868 0
M  V30 6933 H 650.81 -0.451235 3.93421 0
M  V30 6934 H 651.984 2.40777 3.92891 0
M  V30 6935 H 650.299 2.03932 3.63044 0
M  V30 6936 H 652.896 -0.150745 5.34487 0
M  V30 6937 H 653.239 -1.19519 3.98774 0
M  V30 6938 H 653.772 0.503075 3.94606 0
M  V30 6939 H 650.511 2.7195 5.96426 0
M  V30 6940 H 650.031 1.00768 5.91275 0
M  V30 6941 H 651.71 1.45487 6.3043 0
M  V30 6942 N 651.842 -1.52309 0.404946 0
M  V30 6943 C 652.79 -2.28452 -0.437321 0
M  V30 6944 C 653.784 -1.32975 -1.04948 0
M  V30 6945 O 654.99 -1.50451 -0.988159 0
M  V30 6946 H 651.365 -0.734824 -0.159805 0
M  V30 6947 H 653.336 -2.97542 0.22615 0
M  V30 6948 C 652.085 -3.11536 -1.54404 0
M  V30 6949 H 651.408 -3.84871 -1.08233 0
M  V30 6950 H 652.848 -3.67926 -2.10729 0
M  V30 6951 C 651.307 -2.24833 -2.50902 0
M  V30 6952 O 651.837 -1.88574 -3.54687 0
M  V30 6953 N 650.043 -1.88685 -2.21012 0
M  V30 6954 H 649.59 -2.18371 -1.36646 0
M  V30 6955 H 649.548 -1.30966 -2.85824 0
M  V30 6956 N 653.32 -0.135238 -1.57019 0
M  V30 6957 C 654.268 0.826099 -2.17436 0
M  V30 6958 C 655.262 1.26378 -1.12805 0
M  V30 6959 O 656.468 1.23363 -1.31079 0
M  V30 6960 H 652.843 0.284568 -0.696078 0
M  V30 6961 H 654.814 0.292212 -2.96966 0
M  V30 6962 C 653.563 2.05991 -2.80112 0
M  V30 6963 H 652.886 1.73209 -3.60331 0
M  V30 6964 H 654.326 2.71225 -3.25903 0
M  V30 6965 C 652.785 2.86027 -1.78017 0
M  V30 6966 O 653.315 3.81971 -1.24344 0
M  V30 6967 N 651.521 2.50332 -1.47588 0
M  V30 6968 H 651.068 1.72377 -1.91426 0
M  V30 6969 H 651.026 3.04177 -0.795228 0
M  V30 6970 N 654.798 1.5699 0.138552 0
M  V30 6971 C 656.046 1.83446 0.848053 0
M  V30 6972 C 656.367 0.71744 1.81322 0
M  V30 6973 O 655.637 -0.260228 1.94164 0
M  V30 6974 H 654.217 0.676792 0.316166 0
M  V30 6975 H 656.879 1.94462 0.130538 0
M  V30 6976 H 655.975 2.78677 1.40518 0
M  V30 6977 N 656.276 -0.40816 1.52223 0
M  V30 6978 C 657.553 -1.16807 1.56893 0
M  V30 6979 C 657.933 -2.08169 0.350537 0
M  V30 6980 O 657.281 -2.18684 -0.662536 0
M  V30 6981 C 657.491 -1.94451 2.8981 0
M  V30 6982 C 658.839 -2.50484 3.42845 0
M  V30 6983 O 659.863 -2.0463 2.91556 0
M  V30 6984 O 658.722 -3.34192 4.3241 0
M  V30 6985 H 655.816 -0.533382 0.632007 0
M  V30 6986 H 658.362 -0.414862 1.64551 0
M  V30 6987 H 657.134 -1.27527 3.69936 0
M  V30 6988 H 656.757 -2.76775 2.85449 0
M  V30 6989 N 657.755 -1.42862 -0.66545 0
M  V30 6990 C 659.002 -1.4383 -1.42546 0
M  V30 6991 C 659.33 -0.0581114 -1.94413 0
M  V30 6992 O 658.585 0.935002 -1.71919 0
M  V30 6993 C 658.884 -2.4175 -2.63233 0
M  V30 6994 C 658.55 -3.87915 -2.29854 0
M  V30 6995 C 657.212 -4.27726 -2.20463 0
M  V30 6996 C 659.564 -4.80074 -2.02924 0
M  V30 6997 C 656.892 -5.57666 -1.82279 0
M  V30 6998 C 659.244 -6.10366 -1.66242 0
M  V30 6999 C 657.908 -6.49167 -1.55367 0
M  V30 7000 H 657.178 -0.52631 -0.521612 0
M  V30 7001 H 659.825 -1.75863 -0.757914 0
M  V30 7002 H 658.13 -2.03077 -3.35063 0
M  V30 7003 H 659.827 -2.39759 -3.21429 0
M  V30 7004 H 656.417 -3.564 -2.3807 0
M  V30 7005 H 660.601 -4.50097 -2.09108 0
M  V30 7006 H 655.857 -5.8658 -1.72436 0
M  V30 7007 H 660.031 -6.81258 -1.44432 0
M  V30 7008 H 657.658 -7.49761 -1.2555 0
M  V30 7009 N 659.233 0.902656 -1.29189 0
M  V30 7010 C 660.143 2.03946 -1.15944 0
M  V30 7011 C 661.159 1.738 -0.0833803 0
M  V30 7012 O 662.335 1.9923 -0.29487 0
M  V30 7013 C 659.4 3.36519 -0.834006 0
M  V30 7014 C 658.461 3.80203 -1.9936 0
M  V30 7015 C 657.694 5.06449 -1.68359 0
M  V30 7016 O 657.917 5.67202 -0.603141 0
M  V30 7017 O 656.851 5.46114 -2.53067 0
M  V30 7018 H 660.677 2.18043 -2.11403 0
M  V30 7019 H 658.262 1.02584 -1.08613 0
M  V30 7020 H 660.144 4.16089 -0.666949 0
M  V30 7021 H 658.819 3.23573 0.0908245 0
M  V30 7022 H 657.726 3.01413 -2.21588 0
M  V30 7023 H 659.059 3.97729 -2.89952 0
M  V30 7024 N 660.711 1.11618 1.11262 0
M  V30 7025 C 661.674 0.779447 2.15539 0
M  V30 7026 C 662.674 -0.202081 1.59525 0
M  V30 7027 O 663.864 0.0226356 1.74185 0
M  V30 7028 C 660.996 0.15674 3.40539 0
M  V30 7029 H 662.189 1.70324 2.4684 0
M  V30 7030 H 659.742 0.918298 1.26479 0
M  V30 7031 H 660.477 -0.777186 3.1485 0
M  V30 7032 H 660.262 0.863308 3.82478 0
M  V30 7033 H 661.752 -0.062661 4.17553 0
M  V30 7034 N 662.189 -1.289 0.906776 0
M  V30 7035 C 663.419 -1.99112 0.551168 0
M  V30 7036 C 663.827 -1.67998 -0.870243 0
M  V30 7037 O 663.17 -0.92525 -1.58697 0
M  V30 7038 C 663.232 -3.53162 0.672065 0
M  V30 7039 C 662.896 -4.07849 2.06174 0
M  V30 7040 C 663.893 -4.22212 3.0337 0
M  V30 7041 C 661.578 -4.4271 2.37304 0
M  V30 7042 C 663.572 -4.70678 4.29815 0
M  V30 7043 C 661.259 -4.90871 3.6399 0
M  V30 7044 C 662.257 -5.04811 4.6006 0
M  V30 7045 O 661.945 -5.51925 5.84495 0
M  V30 7046 H 661.677 -0.642728 0.209469 0
M  V30 7047 H 664.231 -1.65234 1.22012 0
M  V30 7048 H 662.461 -3.86662 -0.05394 0
M  V30 7049 H 664.15 -4.046 0.324579 0
M  V30 7050 H 664.916 -3.9556 2.80637 0
M  V30 7051 H 660.795 -4.31114 1.63283 0
M  V30 7052 H 664.339 -4.81474 5.04806 0
M  V30 7053 H 660.236 -5.16961 3.86551 0
M  V30 7054 H 661.004 -5.70225 5.87185 0
M  V30 7055 N 663.667 -0.670007 -1.42649 0
M  V30 7056 C 664.895 -0.19854 -2.05945 0
M  V30 7057 C 665.31 1.14243 -1.50313 0
M  V30 7058 O 664.667 1.70872 -0.641027 0
M  V30 7059 C 664.718 -0.11966 -3.61302 0
M  V30 7060 O 664.439 -1.40764 -4.1487 0
M  V30 7061 C 665.94 0.375878 -4.41704 0
M  V30 7062 H 663.16 -0.0976894 -0.663851 0
M  V30 7063 H 665.704 -0.915392 -1.82868 0
M  V30 7064 H 663.859 0.547851 -3.83507 0
M  V30 7065 H 664.273 -1.27784 -5.08696 0
M  V30 7066 H 665.747 0.379988 -5.50691 0
M  V30 7067 H 666.224 1.41028 -4.15942 0
M  V30 7068 H 666.83 -0.259727 -4.24506 0
M  V30 7069 N 665.145 1.52092 -0.413018 0
M  V30 7070 C 666.092 2.27119 0.410558 0
M  V30 7071 C 667.062 1.29692 1.03774 0
M  V30 7072 O 668.247 1.58561 1.06128 0
M  V30 7073 C 665.387 3.09863 1.51918 0
M  V30 7074 C 664.5 4.22252 0.912528 0
M  V30 7075 C 663.635 4.92348 1.99417 0
M  V30 7076 C 662.674 5.96694 1.36466 0
M  V30 7077 N 661.811 6.60292 2.38661 0
M  V30 7078 H 666.651 2.97067 -0.235661 0
M  V30 7079 H 664.188 1.46542 -0.128055 0
M  V30 7080 H 666.146 3.56144 2.17295 0
M  V30 7081 H 664.776 2.42078 2.13537 0
M  V30 7082 H 663.828 3.80113 0.147697 0
M  V30 7083 H 665.14 4.9709 0.412717 0
M  V30 7084 H 664.294 5.42054 2.72512 0
M  V30 7085 H 663.033 4.17087 2.52764 0
M  V30 7086 H 662.038 5.46304 0.61906 0
M  V30 7087 H 663.263 6.73899 0.838827 0
M  V30 7088 H 661.209 5.87858 2.91134 0
M  V30 7089 H 661.126 7.30816 1.93503 0
M  V30 7090 H 662.394 7.14635 3.11314 0
M  V30 7091 N 666.623 0.143563 1.56945 0
M  V30 7092 C 667.872 -0.50835 1.95189 0
M  V30 7093 C 668.185 -1.66239 1.03073 0
M  V30 7094 O 669.391 -2.3787 1.30882 0
M  V30 7095 C 667.847 -0.955735 3.46978 0
M  V30 7096 C 667.455 0.171183 4.47673 0
M  V30 7097 C 669.199 -1.57763 3.94095 0
M  V30 7098 C 667.106 -0.294279 5.90667 0
M  V30 7099 H 666.036 -0.193679 0.728701 0
M  V30 7100 H 668.687 0.227357 1.82086 0
M  V30 7101 H 667.069 -1.7466 3.55401 0
M  V30 7102 H 668.243 0.948049 4.50942 0
M  V30 7103 H 666.558 0.701273 4.10452 0
M  V30 7104 H 669.155 -1.93745 4.98364 0
M  V30 7105 H 669.498 -2.46531 3.35452 0
M  V30 7106 H 670.031 -0.851728 3.88575 0
M  V30 7107 H 666.77 0.557939 6.53121 0
M  V30 7108 H 666.29 -1.0371 5.90766 0
M  V30 7109 H 667.969 -0.747426 6.42668 0
M  V30 7110 N 668.101 -1.57061 -0.130224 0
M  V30 7111 C 669.341 -1.86071 -0.845993 0
M  V30 7112 C 669.705 -0.73009 -1.77577 0
M  V30 7113 O 670.906 -0.901663 -2.53226 0
M  V30 7114 C 669.177 -3.20293 -1.58579 0
M  V30 7115 S 670.736 -3.70905 -2.34467 0
M  V30 7116 H 667.554 -0.652434 -0.282579 0
M  V30 7117 H 670.156 -1.95218 -0.10498 0
M  V30 7118 H 668.86 -4.00533 -0.894509 0
M  V30 7119 H 668.391 -3.14195 -2.36739 0
M  V30 7120 H 670.406 -3.41509 -3.59981 0
M  V30 7121 N 669.579 0.400081 -1.52437 0
M  V30 7122 C 670.856 1.15973 -1.57511 0
M  V30 7123 C 671.236 2.0798 -0.361572 0
M  V30 7124 O 670.584 2.19032 0.650929 0
M  V30 7125 C 670.794 1.92912 -2.90837 0
M  V30 7126 C 672.142 2.48662 -3.44169 0
M  V30 7127 O 673.166 2.03081 -2.92637 0
M  V30 7128 O 672.025 3.31894 -4.34176 0
M  V30 7129 H 669.119 0.530023 -0.634827 0
M  V30 7130 H 671.665 0.40613 -1.64769 0
M  V30 7131 H 670.437 1.25564 -3.70607 0
M  V30 7132 H 670.06 2.75257 -2.86913 0
M  V30 7133 N 671.057 1.43213 0.657864 0
M  V30 7134 C 672.468 1.39669 1.23893 0
M  V30 7135 C 672.819 0.0984217 1.95953 0
M  V30 7136 O 671.944 -0.8023 2.00978 0
M  V30 7137 C 672.539 2.53004 2.25332 0
M  V30 7138 C 671.098 2.5274 2.78926 0
M  V30 7139 C 670.245 2.30941 1.53497 0
M  V30 7140 H 673.196 1.52181 0.450172 0
M  V30 7141 H 673.217 2.24226 3.07413 0
M  V30 7142 H 672.729 3.4748 1.72856 0
M  V30 7143 H 670.83 1.6213 3.35477 0
M  V30 7144 H 670.943 3.50352 3.26787 0
M  V30 7145 H 669.307 1.7952 1.80678 0
M  V30 7146 H 670.09 3.27496 1.02963 0
M  V30 7147 N 672.536 -0.895792 1.29666 0
M  V30 7148 C 673.784 -1.64339 1.17631 0
M  V30 7149 C 674.105 -1.93099 -0.271643 0
M  V30 7150 O 673.375 -1.55981 -1.18518 0
M  V30 7151 H 671.955 -0.609162 0.432354 0
M  V30 7152 H 674.617 -1.07389 1.62646 0
M  V30 7153 H 673.713 -2.59815 1.72924 0
M  V30 7154 N 674.014 -1.12206 -1.10668 0
M  V30 7155 C 674.944 -0.810086 -2.18997 0
M  V30 7156 C 675.925 0.225065 -1.68604 0
M  V30 7157 O 677.11 0.086783 -1.94006 0
M  V30 7158 C 674.24 -0.261262 -3.46316 0
M  V30 7159 C 673.194 -1.2292 -4.09969 0
M  V30 7160 C 672.52 -0.540713 -5.31959 0
M  V30 7161 C 673.82 -2.58295 -4.53962 0
M  V30 7162 H 675.514 -1.7159 -2.45352 0
M  V30 7163 H 673.06 -0.82646 -1.17922 0
M  V30 7164 H 675.013 -0.0307522 -4.21389 0
M  V30 7165 H 673.737 0.679879 -3.19445 0
M  V30 7166 H 672.396 -1.44548 -3.369 0
M  V30 7167 H 672.044 0.405492 -5.01363 0
M  V30 7168 H 671.744 -1.18637 -5.75499 0
M  V30 7169 H 673.268 -0.319184 -6.09765 0
M  V30 7170 H 674.682 -2.40709 -5.20319 0
M  V30 7171 H 673.079 -3.18916 -5.08343 0
M  V30 7172 H 674.149 -3.16918 -3.67002 0
M  V30 7173 N 675.492 1.28418 -0.913599 0
M  V30 7174 C 676.72 1.99106 -0.562536 0
M  V30 7175 C 677.135 1.68273 0.856137 0
M  V30 7176 O 676.492 0.935401 1.56705 0
M  V30 7177 C 676.543 3.5338 -0.761903 0
M  V30 7178 O 676.264 3.83127 -2.12475 0
M  V30 7179 C 677.765 4.41328 -0.417651 0
M  V30 7180 H 674.985 0.635798 -0.214481 0
M  V30 7181 H 677.529 1.63618 -1.22676 0
M  V30 7182 H 675.684 3.8713 -0.144676 0
M  V30 7183 H 676.098 4.77763 -2.16431 0
M  V30 7184 H 677.572 5.48642 -0.607919 0
M  V30 7185 H 678.049 4.34422 0.646108 0
M  V30 7186 H 678.655 4.13074 -1.01241 0
M  V30 7187 N 676.97 0.677563 1.42291 0
M  V30 7188 C 678.195 0.207901 2.06355 0
M  V30 7189 C 678.62 -1.12723 1.50583 0
M  V30 7190 O 677.978 -1.70171 0.62543 0
M  V30 7191 C 678.026 0.156489 3.6026 0
M  V30 7192 O 677.13 -0.874162 4.03029 0
M  V30 7193 H 676.471 0.106056 0.655475 0
M  V30 7194 H 679.001 0.927354 1.82377 0
M  V30 7195 H 679.011 -0.0187258 4.07996 0
M  V30 7196 H 677.686 1.13101 4.00226 0
M  V30 7197 H 676.263 -0.669764 3.66836 0
M  V30 7198 N 678.448 -1.51871 0.421078 0
M  V30 7199 C 679.695 -2.01938 -0.15079 0
M  V30 7200 C 680.023 -1.30611 -1.44121 0
M  V30 7201 O 679.278 -0.404631 -1.91471 0
M  V30 7202 C 679.577 -3.54764 -0.433292 0
M  V30 7203 C 679.243 -4.44288 0.76936 0
M  V30 7204 C 677.905 -4.68477 1.09921 0
M  V30 7205 C 680.257 -4.96915 1.57242 0
M  V30 7206 C 677.585 -5.4254 2.2331 0
M  V30 7207 C 679.937 -5.7222 2.69716 0
M  V30 7208 C 678.601 -5.94678 3.03174 0
M  V30 7209 H 677.871 -0.738943 -0.0551781 0
M  V30 7210 H 680.518 -1.82977 0.564945 0
M  V30 7211 H 678.823 -3.71968 -1.23074 0
M  V30 7212 H 680.52 -3.91023 -0.888922 0
M  V30 7213 H 677.11 -4.25646 0.502305 0
M  V30 7214 H 681.294 -4.78125 1.3308 0
M  V30 7215 H 676.55 -5.58146 2.49565 0
M  V30 7216 H 680.724 -6.11992 3.32323 0
M  V30 7217 H 678.351 -6.51848 3.9115 0
M  V30 7218 N 679.926 -0.151884 -1.56866 0
M  V30 7219 C 680.836 0.798876 -2.20579 0
M  V30 7220 C 681.852 1.268 -1.19154 0
M  V30 7221 O 683.028 1.32418 -1.51748 0
M  V30 7222 C 680.093 2.01861 -2.81874 0
M  V30 7223 C 679.154 1.59825 -3.9844 0
M  V30 7224 C 678.387 2.75984 -4.56802 0
M  V30 7225 O 678.61 3.92331 -4.14044 0
M  V30 7226 O 677.544 2.51175 -5.46987 0
M  V30 7227 H 681.37 0.2865 -3.02346 0
M  V30 7228 H 678.955 0.0753806 -1.4921 0
M  V30 7229 H 680.837 2.73235 -3.20813 0
M  V30 7230 H 679.512 2.52042 -2.03117 0
M  V30 7231 H 678.419 0.854601 -3.64208 0
M  V30 7232 H 679.752 1.14355 -4.78731 0
M  V30 7233 N 681.404 1.57128 0.121893 0
M  V30 7234 C 682.815 1.73902 0.679348 0
M  V30 7235 C 683.166 0.770135 1.80453 0
M  V30 7236 O 682.291 -0.0576083 2.16323 0
M  V30 7237 C 682.886 3.15328 1.2391 0
M  V30 7238 C 681.445 3.33618 1.74288 0
M  V30 7239 C 680.592 2.6978 0.641414 0
M  V30 7240 H 683.543 1.58359 -0.104 0
M  V30 7241 H 683.564 3.16718 2.10879 0
M  V30 7242 H 683.076 3.85821 0.419957 0
M  V30 7243 H 681.177 2.68162 2.58689 0
M  V30 7244 H 681.29 4.4176 1.85432 0
M  V30 7245 H 679.654 2.30935 1.0743 0
M  V30 7246 H 680.437 3.42895 -0.166707 0
M  V30 7247 N 682.882 -0.391992 1.52647 0
M  V30 7248 C 683.792 -1.503 1.80131 0
M  V30 7249 C 684.808 -1.59825 0.687882 0
M  V30 7250 O 685.984 -1.76218 0.975149 0
M  V30 7251 C 683.049 -2.85863 1.96171 0
M  V30 7252 C 682.11 -2.86084 3.20085 0
M  V30 7253 C 681.343 -4.15181 3.35351 0
M  V30 7254 O 681.566 -5.09981 2.55491 0
M  V30 7255 O 680.5 -4.22603 4.28591 0
M  V30 7256 H 684.326 -1.30007 2.74466 0
M  V30 7257 H 681.911 -0.579539 1.37701 0
M  V30 7258 H 683.793 -3.66236 2.08445 0
M  V30 7259 H 682.468 -3.06189 1.05025 0
M  V30 7260 H 681.375 -2.04504 3.13256 0
M  V30 7261 H 682.708 -2.7071 4.11068 0
M  V30 7262 N 684.36 -1.4356 -0.65026 0
M  V30 7263 C 685.323 -1.48615 -1.74489 0
M  V30 7264 C 686.323 -0.370483 -1.56474 0
M  V30 7265 O 687.513 -0.632351 -1.62317 0
M  V30 7266 C 684.645 -1.34161 -3.13391 0
M  V30 7267 H 685.838 -2.46103 -1.71387 0
M  V30 7268 H 683.391 -1.30369 -0.862186 0
M  V30 7269 H 684.126 -0.376918 -3.22102 0
M  V30 7270 H 683.911 -2.1504 -3.27872 0
M  V30 7271 H 685.401 -1.40637 -3.93206 0
M  V30 7272 N 685.838 0.888903 -1.30139 0
M  V30 7273 C 686.768 2.01046 -1.18755 0
M  V30 7274 C 687.749 1.69916 -0.0791438 0
M  V30 7275 O 688.934 1.92445 -0.260498 0
M  V30 7276 C 686.064 3.36109 -0.874518 0
M  V30 7277 C 685.018 3.81486 -1.94043 0
M  V30 7278 C 684.344 5.13796 -1.48047 0
M  V30 7279 C 685.644 4.00637 -3.35093 0
M  V30 7280 H 687.338 2.10828 -2.12584 0
M  V30 7281 H 684.884 1.01298 -1.02346 0
M  V30 7282 H 686.837 4.14089 -0.781548 0
M  V30 7283 H 685.561 3.26449 0.0994519 0
M  V30 7284 H 684.22 3.05731 -2.02297 0
M  V30 7285 H 683.868 5.0056 -0.494878 0
M  V30 7286 H 683.568 5.45127 -2.19341 0
M  V30 7287 H 685.092 5.94305 -1.40121 0
M  V30 7288 H 686.506 4.69067 -3.2962 0
M  V30 7289 H 684.903 4.43339 -4.04438 0
M  V30 7290 H 685.973 3.0462 -3.77273 0
M  V30 7291 N 687.317 1.12792 1.10072 0
M  V30 7292 C 688.565 0.883796 1.81751 0
M  V30 7293 C 688.886 -0.591891 1.858 0
M  V30 7294 O 688.156 -1.43017 1.33876 0
M  V30 7295 H 686.736 0.323978 0.673088 0
M  V30 7296 H 689.398 1.42314 1.33164 0
M  V30 7297 H 688.494 1.26863 2.85153 0
M  V30 7298 N 688.795 -1.27931 0.920396 0
M  V30 7299 C 689.743 -2.29061 0.404191 0
M  V30 7300 C 690.737 -1.61615 -0.507634 0
M  V30 7301 O 691.943 -1.75765 -0.388144 0
M  V30 7302 H 688.318 -0.743594 0.112123 0
M  V30 7303 H 690.289 -2.70021 1.27008 0
M  V30 7304 C 689.038 -3.46088 -0.334466 0
M  V30 7305 H 688.361 -3.98194 0.35797 0
M  V30 7306 H 689.801 -4.18829 -0.660196 0
M  V30 7307 C 688.26 -2.99396 -1.54479 0
M  V30 7308 O 688.79 -3.02439 -2.64374 0
M  V30 7309 N 686.996 -2.54978 -1.39408 0
M  V30 7310 H 686.543 -2.52701 -0.500009 0
M  V30 7311 H 686.501 -2.24098 -2.20516 0
M  V30 7312 N 690.273 -0.685099 -1.4193 0
M  V30 7313 C 691.203 -0.0273506 -2.33484 0
M  V30 7314 C 692.184 0.778366 -1.51246 0
M  V30 7315 O 693.369 0.733449 -1.79817 0
M  V30 7316 C 690.499 0.917272 -3.34968 0
M  V30 7317 C 689.453 0.21941 -4.27437 0
M  V30 7318 C 688.779 1.27768 -5.1921 0
M  V30 7319 C 690.079 -0.907894 -5.14349 0
M  V30 7320 H 691.773 -0.791994 -2.88735 0
M  V30 7321 H 689.319 -0.382308 -1.38832 0
M  V30 7322 H 691.272 1.38657 -3.97935 0
M  V30 7323 H 689.996 1.71346 -2.78043 0
M  V30 7324 H 688.655 -0.229757 -3.65879 0
M  V30 7325 H 688.303 2.06612 -4.58607 0
M  V30 7326 H 688.003 0.815803 -5.81909 0
M  V30 7327 H 689.527 1.7477 -5.85054 0
M  V30 7328 H 690.941 -0.519348 -5.70943 0
M  V30 7329 H 689.338 -1.2962 -5.85934 0
M  V30 7330 H 690.408 -1.75218 -4.52136 0
M  V30 7331 N 691.751 1.51645 -0.429126 0
M  V30 7332 C 692.997 2.02314 0.140286 0
M  V30 7333 C 693.33 1.31314 1.43074 0
M  V30 7334 O 692.605 0.425531 1.89788 0
M  V30 7335 C 692.888 3.5822 0.36749 0
M  V30 7336 C 692.741 4.39846 -0.941039 0
M  V30 7337 C 694.06 4.25055 1.14089 0
M  V30 7338 H 691.179 0.735335 0.0495112 0
M  V30 7339 H 693.821 1.81358 -0.566514 0
M  V30 7340 H 691.971 3.76207 0.969556 0
M  V30 7341 H 693.643 4.33527 -1.57646 0
M  V30 7342 H 691.886 4.05259 -1.54751 0
M  V30 7343 H 692.557 5.47069 -0.73621 0
M  V30 7344 H 695.033 4.11288 0.630986 0
M  V30 7345 H 693.909 5.34038 1.26863 0
M  V30 7346 H 694.17 3.85358 2.16683 0
M  V30 7347 N 693.229 0.160201 1.56784 0
M  V30 7348 C 694.139 -0.787167 2.21 0
M  V30 7349 C 695.155 -1.26167 1.19825 0
M  V30 7350 O 696.331 -1.31611 1.52448 0
M  V30 7351 C 693.396 -2.00364 2.8294 0
M  V30 7352 C 692.457 -1.5771 3.99282 0
M  V30 7353 C 691.69 -2.73558 4.58259 0
M  V30 7354 O 691.913 -3.90129 4.16119 0
M  V30 7355 O 690.847 -2.48271 5.48311 0
M  V30 7356 H 694.673 -0.270462 3.02493 0
M  V30 7357 H 692.258 -0.0674666 1.49248 0
M  V30 7358 H 694.14 -2.71529 3.22257 0
M  V30 7359 H 692.815 -2.50961 2.04451 0
M  V30 7360 H 691.722 -0.835274 3.64656 0
M  V30 7361 H 693.055 -1.11815 4.79331 0
M  V30 7362 N 694.707 -1.5719 -0.113559 0
M  V30 7363 C 695.955 -1.84772 -0.818761 0
M  V30 7364 C 696.276 -0.746196 -1.80158 0
M  V30 7365 O 695.546 0.229305 -1.94553 0
M  V30 7366 H 694.126 -0.681737 -0.305359 0
M  V30 7367 H 696.788 -1.94645 -0.0995845 0
M  V30 7368 H 695.884 -2.80878 -1.36067 0
M  V30 7369 N 696.185 0.383891 -1.52853 0
M  V30 7370 C 697.118 1.49105 -1.72751 0
M  V30 7371 C 698.096 1.52077 -0.575438 0
M  V30 7372 O 699.28 1.70406 -0.805854 0
M  V30 7373 C 696.407 2.87551 -1.78975 0
M  V30 7374 C 695.453 3.02383 -3.00777 0
M  V30 7375 S 696.286 2.73048 -4.60657 0
M  V30 7376 C 697.442 4.13678 -4.69704 0
M  V30 7377 H 697.675 1.32002 -2.66388 0
M  V30 7378 H 695.208 0.577088 -1.4321 0
M  V30 7379 H 697.166 3.6733 -1.83246 0
M  V30 7380 H 695.827 3.01977 -0.864215 0
M  V30 7381 H 695.02 4.03733 -3.01688 0
M  V30 7382 H 694.622 2.30504 -2.94523 0
M  V30 7383 H 696.914 5.07676 -4.48633 0
M  V30 7384 H 697.857 4.1778 -5.71721 0
M  V30 7385 H 698.265 3.99825 -3.98497 0
M  V30 7386 N 697.663 1.43903 0.642637 0
M  V30 7387 C 698.94 1.36556 1.40043 0
M  V30 7388 C 699.32 0.0185588 2.11092 0
M  V30 7389 O 698.668 -0.998438 2.05532 0
M  V30 7390 C 698.878 2.55596 2.37638 0
M  V30 7391 C 700.226 2.99153 3.01318 0
M  V30 7392 O 701.25 2.55719 2.47965 0
M  V30 7393 O 700.109 3.74427 3.98078 0
M  V30 7394 H 697.203 0.540189 0.626198 0
M  V30 7395 H 699.749 1.55971 0.668657 0
M  V30 7396 H 698.521 3.45256 1.84158 0
M  V30 7397 H 698.144 2.38334 3.18249 0
M  V30 7398 N 699.141 -0.881989 1.30609 0
M  V30 7399 C 700.388 -1.63405 1.19604 0
M  V30 7400 C 700.716 -1.92905 -0.248574 0
M  V30 7401 O 699.971 -1.55062 -1.19391 0
M  V30 7402 C 700.27 -2.97999 1.97311 0
M  V30 7403 C 699.936 -2.88039 3.46907 0
M  V30 7404 C 698.598 -2.85029 3.877 0
M  V30 7405 C 700.95 -2.75948 4.42156 0
M  V30 7406 C 698.278 -2.67772 5.2203 0
M  V30 7407 C 700.63 -2.60228 5.76597 0
M  V30 7408 C 699.294 -2.55595 6.16626 0
M  V30 7409 H 698.564 -0.597941 0.437662 0
M  V30 7410 H 701.211 -1.02524 1.61744 0
M  V30 7411 H 699.516 -3.62847 1.47815 0
M  V30 7412 H 701.213 -3.55156 1.86186 0
M  V30 7413 H 697.803 -2.91192 3.14492 0
M  V30 7414 H 701.987 -2.77337 4.1158 0
M  V30 7415 H 697.243 -2.62601 5.52133 0
M  V30 7416 H 701.417 -2.49847 6.50038 0
M  V30 7417 H 699.044 -2.41981 7.20659 0
M  V30 7418 N 700.619 -1.13374 -1.09472 0
M  V30 7419 C 701.569 -0.77946 -2.14263 0
M  V30 7420 C 702.553 0.226271 -1.59301 0
M  V30 7421 O 703.745 0.0302581 -1.76974 0
M  V30 7422 C 700.874 -0.246635 -3.42413 0
M  V30 7423 C 699.96 -1.28124 -4.04283 0
M  V30 7424 N 700.351 -2.48201 -4.40715 0
M  V30 7425 C 698.649 -1.12892 -4.31476 0
M  V30 7426 C 699.35 -3.14347 -4.8945 0
M  V30 7427 N 698.326 -2.41771 -4.86876 0
M  V30 7428 H 702.128 -1.69305 -2.40235 0
M  V30 7429 H 699.642 -1.01598 -1.26695 0
M  V30 7430 H 701.639 0.0254131 -4.16892 0
M  V30 7431 H 700.299 0.661287 -3.17895 0
M  V30 7432 H 701.31 -2.85511 -4.32093 0
M  V30 7433 H 697.987 -0.279117 -4.16566 0
M  V30 7434 H 699.377 -4.16663 -5.27107 0
M  V30 7435 N 702.098 1.27442 -0.927168 0
M  V30 7436 C 703.045 2.26863 -0.424459 0
M  V30 7437 C 704.015 1.5813 0.508346 0
M  V30 7438 O 705.2 1.85946 0.42762 0
M  V30 7439 C 702.34 3.43639 0.31718 0
M  V30 7440 C 701.453 4.27087 -0.649675 0
M  V30 7441 C 700.588 5.31082 0.111753 0
M  V30 7442 C 699.627 6.062 -0.847843 0
M  V30 7443 N 698.764 7.01999 -0.119074 0
M  V30 7444 H 703.604 2.69239 -1.27728 0
M  V30 7445 H 701.141 1.32394 -0.641106 0
M  V30 7446 H 703.099 4.10155 0.763486 0
M  V30 7447 H 701.729 3.02217 1.13424 0
M  V30 7448 H 700.781 3.60491 -1.21451 0
M  V30 7449 H 702.093 4.79242 -1.38307 0
M  V30 7450 H 701.247 6.03544 0.618 0
M  V30 7451 H 699.986 4.7973 0.878114 0
M  V30 7452 H 698.991 5.32577 -1.36534 0
M  V30 7453 H 700.216 6.59642 -1.61398 0
M  V30 7454 H 698.162 6.52977 0.629051 0
M  V30 7455 H 698.079 7.5184 -0.792046 0
M  V30 7456 H 699.347 7.78638 0.366537 0
M  V30 7457 N 703.576 0.692616 1.41565 0
M  V30 7458 C 704.823 0.222335 2.01276 0
M  V30 7459 C 705.151 -1.17706 1.5484 0
M  V30 7460 O 704.406 -1.80795 0.749118 0
M  V30 7461 C 704.705 0.225073 3.56691 0
M  V30 7462 C 704.371 1.57158 4.22625 0
M  V30 7463 C 703.033 1.94022 4.40351 0
M  V30 7464 C 705.385 2.45758 4.59622 0
M  V30 7465 C 702.713 3.19076 4.92349 0
M  V30 7466 C 705.065 3.70141 5.13009 0
M  V30 7467 C 703.729 4.07152 5.28946 0
M  V30 7468 H 702.999 0.0813581 0.73652 0
M  V30 7469 H 705.646 0.891123 1.69503 0
M  V30 7470 H 703.951 -0.527259 3.88236 0
M  V30 7471 H 705.648 -0.156283 4.00695 0
M  V30 7472 H 702.238 1.27486 4.09201 0
M  V30 7473 H 706.422 2.18558 4.45585 0
M  V30 7474 H 701.678 3.4775 5.02872 0
M  V30 7475 H 705.852 4.38983 5.40617 0
M  V30 7476 H 703.479 5.04125 5.69001 0
M  V30 7477 N 705.054 -1.51416 0.437162 0
M  V30 7478 C 706.284 -2.06204 -0.127859 0
M  V30 7479 C 706.692 -1.30463 -1.37026 0
M  V30 7480 O 706.035 -0.357516 -1.80187 0
M  V30 7481 C 706.097 -3.55783 -0.515632 0
M  V30 7482 C 705.761 -4.52776 0.619937 0
M  V30 7483 C 706.758 -4.98031 1.49201 0
M  V30 7484 C 704.443 -4.95878 0.800618 0
M  V30 7485 C 706.437 -5.85061 2.52947 0
M  V30 7486 C 704.124 -5.82699 1.84135 0
M  V30 7487 C 705.122 -6.27188 2.70416 0
M  V30 7488 O 704.81 -7.12284 3.72702 0
M  V30 7489 H 704.542 -0.675903 -0.011442 0
M  V30 7490 H 707.096 -1.95977 0.614986 0
M  V30 7491 H 705.326 -3.63793 -1.31118 0
M  V30 7492 H 707.015 -3.93087 -1.01179 0
M  V30 7493 H 707.781 -4.65426 1.36395 0
M  V30 7494 H 703.66 -4.60792 0.138617 0
M  V30 7495 H 707.204 -6.19708 3.20325 0
M  V30 7496 H 703.101 -6.14717 1.9696 0
M  V30 7497 H 703.869 -7.30462 3.69281 0
M  V30 7498 N 706.532 -0.168513 -1.56696 0
M  V30 7499 C 707.779 0.477158 -1.96798 0
M  V30 7500 C 708.107 1.63442 -1.05437 0
M  V30 7501 O 707.362 1.95503 -0.0878903 0
M  V30 7502 C 707.661 1.00441 -3.42996 0
M  V30 7503 C 707.327 -0.0366556 -4.50885 0
M  V30 7504 C 705.989 -0.322785 -4.80116 0
M  V30 7505 C 708.341 -0.743447 -5.1587 0
M  V30 7506 C 705.669 -1.32114 -5.71632 0
M  V30 7507 C 708.021 -1.73077 -6.08463 0
M  V30 7508 C 706.685 -2.02437 -6.36062 0
M  V30 7509 H 705.955 0.174604 -0.720135 0
M  V30 7510 H 708.602 -0.259884 -1.89728 0
M  V30 7511 H 706.907 1.81922 -3.47004 0
M  V30 7512 H 708.604 1.51294 -3.71364 0
M  V30 7513 H 705.194 0.196532 -4.28149 0
M  V30 7514 H 709.378 -0.535602 -4.93401 0
M  V30 7515 H 704.634 -1.55482 -5.913 0
M  V30 7516 H 708.808 -2.28382 -6.57886 0
M  V30 7517 H 706.435 -2.79946 -7.06777 0
M  V30 7518 N 708.01 1.57248 0.105221 0
M  V30 7519 C 708.92 2.04653 1.14693 0
M  V30 7520 C 709.936 0.969488 1.44489 0
M  V30 7521 O 711.112 1.28196 1.55331 0
M  V30 7522 C 708.177 2.45297 2.45011 0
M  V30 7523 C 707.238 3.67148 2.22489 0
M  V30 7524 C 706.471 4.05844 3.46592 0
M  V30 7525 O 706.694 3.44736 4.54437 0
M  V30 7526 O 705.628 4.98862 3.36779 0
M  V30 7527 H 709.454 2.93663 0.774336 0
M  V30 7528 H 707.039 1.45998 0.31701 0
M  V30 7529 H 708.921 2.72112 3.21766 0
M  V30 7530 H 707.596 1.59429 2.81717 0
M  V30 7531 H 706.503 3.45463 1.43547 0
M  V30 7532 H 707.836 4.53764 1.9068 0
M  V30 7533 N 709.488 -0.375779 1.53054 0
M  V30 7534 C 710.436 -1.48015 1.79428 0
M  V30 7535 C 711.43 -1.55893 0.662854 0
M  V30 7536 O 712.636 -1.58901 0.845599 0
M  V30 7537 H 709.011 -0.492887 0.56795 0
M  V30 7538 H 710.982 -1.22971 2.71884 0
M  V30 7539 C 709.731 -2.84984 1.99197 0
M  V30 7540 H 709.054 -2.79677 2.85693 0
M  V30 7541 H 710.494 -3.61462 2.21633 0
M  V30 7542 C 708.953 -3.28025 0.768183 0
M  V30 7543 O 709.483 -4.01671 -0.0480482 0
M  V30 7544 N 707.689 -2.84454 0.594521 0
M  V30 7545 H 707.236 -2.24688 1.25988 0
M  V30 7546 H 707.194 -3.13609 -0.222916 0
M  V30 7547 N 710.966 -1.44241 -0.634997 0
M  V30 7548 C 711.896 -1.53632 -1.7584 0
M  V30 7549 C 712.877 -0.389603 -1.65578 0
M  V30 7550 O 714.062 -0.609219 -1.84397 0
M  V30 7551 C 711.192 -1.47644 -3.14354 0
M  V30 7552 C 710.146 -2.60752 -3.394 0
M  V30 7553 C 709.472 -2.39817 -4.77904 0
M  V30 7554 C 710.772 -4.02921 -3.32343 0
M  V30 7555 H 712.466 -2.47662 -1.68238 0
M  V30 7556 H 710.012 -1.19197 -0.807969 0
M  V30 7557 H 711.965 -1.52815 -3.92716 0
M  V30 7558 H 710.689 -0.501284 -3.2273 0
M  V30 7559 H 709.348 -2.54965 -2.63417 0
M  V30 7560 H 708.996 -1.40502 -4.82978 0
M  V30 7561 H 708.696 -3.15649 -4.9562 0
M  V30 7562 H 710.22 -2.46799 -5.585 0
M  V30 7563 H 711.634 -4.10098 -4.00615 0
M  V30 7564 H 710.031 -4.78925 -3.61595 0
M  V30 7565 H 711.101 -4.26766 -2.30215 0
M  V30 7566 N 712.444 0.87505 -1.31075 0
M  V30 7567 C 713.374 1.99775 -1.20881 0
M  V30 7568 C 714.355 1.69822 -0.0971612 0
M  V30 7569 O 715.54 1.92158 -0.280895 0
M  V30 7570 C 712.67 3.35163 -0.910118 0
M  V30 7571 C 711.624 3.79406 -1.98078 0
M  V30 7572 C 710.95 5.12197 -1.53488 0
M  V30 7573 C 712.25 3.97061 -3.39323 0
M  V30 7574 H 713.944 2.08562 -2.14808 0
M  V30 7575 H 711.49 1.00207 -1.03415 0
M  V30 7576 H 713.443 4.13237 -0.825423 0
M  V30 7577 H 712.167 3.26536 0.064822 0
M  V30 7578 H 710.826 3.03568 -2.05528 0
M  V30 7579 H 710.474 5.00007 -0.547941 0
M  V30 7580 H 710.174 5.4277 -2.2511 0
M  V30 7581 H 711.698 5.92785 -1.46417 0
M  V30 7582 H 713.112 4.65545 -3.34576 0
M  V30 7583 H 711.509 4.39025 -4.09118 0
M  V30 7584 H 712.579 3.00601 -3.80483 0
M  V30 7585 N 713.922 1.13953 1.08869 0
M  V30 7586 C 715.147 0.928559 1.85452 0
M  V30 7587 C 715.572 -0.517642 1.80837 0
M  V30 7588 O 714.93 -1.36779 1.19001 0
M  V30 7589 C 714.978 1.42814 3.31114 0
M  V30 7590 O 714.082 0.617129 4.07756 0
M  V30 7591 H 713.423 0.33235 0.574839 0
M  V30 7592 H 715.953 1.5156 1.37443 0
M  V30 7593 H 715.963 1.43425 3.8196 0
M  V30 7594 H 714.638 2.48109 3.33788 0
M  V30 7595 H 713.215 0.679365 3.66659 0
M  V30 7596 N 715.4 -1.26948 0.933913 0
M  V30 7597 C 716.347 -2.26635 0.436484 0
M  V30 7598 C 717.317 -1.58397 -0.499953 0
M  V30 7599 O 718.502 -1.86171 -0.417753 0
M  V30 7600 C 715.642 -3.43803 -0.298951 0
M  V30 7601 C 714.755 -4.26736 0.672316 0
M  V30 7602 C 713.89 -5.31134 -0.0835872 0
M  V30 7603 C 712.929 -6.05742 0.879979 0
M  V30 7604 N 712.066 -7.01926 0.156301 0
M  V30 7605 H 716.906 -2.68558 1.29154 0
M  V30 7606 H 714.443 -1.32052 0.648118 0
M  V30 7607 H 716.401 -4.10554 -0.741723 0
M  V30 7608 H 715.031 -3.02814 -1.1182 0
M  V30 7609 H 714.083 -3.59842 1.23361 0
M  V30 7610 H 715.395 -4.78502 1.40846 0
M  V30 7611 H 714.549 -6.03863 -0.585984 0
M  V30 7612 H 713.288 -4.80188 -0.852661 0
M  V30 7613 H 712.293 -5.31846 1.39357 0
M  V30 7614 H 713.518 -6.58777 1.64894 0
M  V30 7615 H 711.464 -6.53301 -0.594413 0
M  V30 7616 H 711.381 -7.51409 0.831906 0
M  V30 7617 H 712.649 -7.78821 -0.325239 0
M  V30 7618 N 716.879 -0.700114 -1.41195 0
M  V30 7619 C 717.827 -0.0263301 -2.32585 0
M  V30 7620 C 718.821 0.763683 -1.51209 0
M  V30 7621 O 720.027 0.668793 -1.67114 0
M  V30 7622 H 716.402 0.0102869 -0.75193 0
M  V30 7623 H 718.373 -0.814087 -2.8708 0
M  V30 7624 C 717.122 0.892793 -3.36042 0
M  V30 7625 H 716.445 0.294306 -3.98715 0
M  V30 7626 H 717.885 1.33247 -4.02518 0
M  V30 7627 C 716.344 2.01109 -2.7029 0
M  V30 7628 O 716.874 3.10035 -2.55423 0
M  V30 7629 N 715.08 1.79015 -2.28915 0
M  V30 7630 H 714.627 0.904275 -2.41207 0
M  V30 7631 H 714.585 2.54022 -1.85257 0
M  V30 7632 N 718.357 1.51182 -0.445186 0
M  V30 7633 C 719.582 2.07056 0.119445 0
M  V30 7634 C 720.007 1.30966 1.35016 0
M  V30 7635 O 719.365 0.349827 1.77893 0
M  V30 7636 C 719.413 3.58234 0.412428 0
M  V30 7637 O 718.517 3.84249 1.49754 0
M  V30 7638 H 717.858 0.663998 -0.00157797 0
M  V30 7639 H 720.388 1.94699 -0.628779 0
M  V30 7640 H 720.398 4.02617 0.660583 0
M  V30 7641 H 719.073 4.13038 -0.487049 0
M  V30 7642 H 717.65 3.51724 1.23873 0
M  V30 7643 N 719.835 0.176821 1.56605 0
M  V30 7644 C 720.782 -0.751312 2.18229 0
M  V30 7645 C 721.752 -1.22297 1.12395 0
M  V30 7646 O 722.937 -1.29015 1.40569 0
M  V30 7647 C 720.077 -1.97291 2.83143 0
M  V30 7648 C 719.19 -1.54431 4.03454 0
M  V30 7649 C 718.325 -2.72 4.56278 0
M  V30 7650 C 717.364 -2.25657 5.68986 0
M  V30 7651 N 716.501 -3.36338 6.16296 0
M  V30 7652 H 721.341 -0.219033 2.97194 0
M  V30 7653 H 718.878 -0.0963803 1.46784 0
M  V30 7654 H 720.836 -2.68949 3.1894 0
M  V30 7655 H 719.466 -2.4788 2.06773 0
M  V30 7656 H 718.518 -0.724273 3.73441 0
M  V30 7657 H 719.83 -1.16417 4.85024 0
M  V30 7658 H 718.984 -3.51806 4.94285 0
M  V30 7659 H 717.723 -3.13277 3.73777 0
M  V30 7660 H 716.728 -1.44299 5.30526 0
M  V30 7661 H 717.953 -1.85432 6.53293 0
M  V30 7662 H 715.899 -3.7718 5.36723 0
M  V30 7663 H 715.816 -3.02435 6.9287 0
M  V30 7664 H 717.084 -4.16413 6.58954 0
M  V30 7665 N 721.313 -1.57302 -0.09688 0
M  V30 7666 C 722.724 -1.7496 -0.651595 0
M  V30 7667 C 723.075 -0.798746 -1.79205 0
M  V30 7668 O 722.2 0.0231858 -2.16388 0
M  V30 7669 C 722.795 -3.17259 -1.18878 0
M  V30 7670 C 721.354 -3.36348 -1.68958 0
M  V30 7671 C 720.501 -2.70766 -0.598413 0
M  V30 7672 H 723.452 -1.58173 0.12918 0
M  V30 7673 H 723.473 -3.20033 -2.05814 0
M  V30 7674 H 722.985 -3.8644 -0.358523 0
M  V30 7675 H 721.086 -2.72243 -2.5439 0
M  V30 7676 H 721.199 -4.44654 -1.7838 0
M  V30 7677 H 719.563 -2.32615 -1.03743 0
M  V30 7678 H 720.346 -3.42586 0.221238 0
M  V30 7679 N 722.791 0.367657 -1.53252 0
M  V30 7680 C 724.04 1.10782 -1.68554 0
M  V30 7681 C 724.353 1.90523 -0.442765 0
M  V30 7682 O 725.559 2.6729 -0.47629 0
M  V30 7683 C 724.015 2.01863 -2.97959 0
M  V30 7684 C 723.623 1.27443 -4.29491 0
M  V30 7685 C 725.367 2.75883 -3.22628 0
M  V30 7686 C 723.274 2.17414 -5.49987 0
M  V30 7687 H 722.204 0.417272 -0.628013 0
M  V30 7688 H 724.855 0.368971 -1.79752 0
M  V30 7689 H 723.237 2.7947 -2.80558 0
M  V30 7690 H 724.411 0.549138 -4.57516 0
M  V30 7691 H 722.726 0.652935 -4.11249 0
M  V30 7692 H 725.323 3.43421 -4.09837 0
M  V30 7693 H 725.666 3.41138 -2.38601 0
M  V30 7694 H 726.199 2.0536 -3.40693 0
M  V30 7695 H 722.938 1.5674 -6.36485 0
M  V30 7696 H 722.458 2.87799 -5.26243 0
M  V30 7697 H 724.137 2.77019 -5.84696 0
M  V30 7698 N 724.269 1.44576 0.627338 0
M  V30 7699 C 725.219 1.48168 1.73293 0
M  V30 7700 C 726.203 0.347045 1.57113 0
M  V30 7701 O 727.395 0.592605 1.66785 0
M  V30 7702 C 724.524 1.43236 3.11991 0
M  V30 7703 C 723.61 2.61828 3.33627 0
M  V30 7704 N 724.001 3.87053 3.25612 0
M  V30 7705 C 722.299 2.57104 3.64436 0
M  V30 7706 C 723 4.66093 3.48041 0
M  V30 7707 N 721.976 3.97228 3.71095 0
M  V30 7708 H 725.778 2.42832 1.6556 0
M  V30 7709 H 723.292 1.39592 0.829934 0
M  V30 7710 H 725.289 1.43893 3.91281 0
M  V30 7711 H 723.949 0.496133 3.20887 0
M  V30 7712 H 724.96 4.18966 3.04447 0
M  V30 7713 H 721.637 1.72295 3.8029 0
M  V30 7714 H 723.027 5.75117 3.47404 0
M  V30 7715 N 725.747 -0.868086 1.31537 0
M  V30 7716 C 726.975 -1.65402 1.24298 0
M  V30 7717 C 727.39 -1.87827 -0.191389 0
M  V30 7718 O 726.747 -1.43776 -1.12404 0
M  V30 7719 C 726.798 -3.02093 1.9855 0
M  V30 7720 O 726.519 -2.80668 3.36388 0
M  V30 7721 C 728.02 -3.96538 1.98173 0
M  V30 7722 H 725.24 -0.515598 0.429417 0
M  V30 7723 H 727.784 -1.0834 1.73444 0
M  V30 7724 H 725.939 -3.55838 1.53161 0
M  V30 7725 H 726.353 -3.67504 3.74221 0
M  V30 7726 H 727.827 -4.8976 2.54635 0
M  V30 7727 H 728.304 -4.28474 0.964697 0
M  V30 7728 H 728.91 -3.48729 2.4345 0
M  V30 7729 N 727.225 -1.14528 -1.08264 0
M  V30 7730 C 728.453 -0.937964 -1.84418 0
M  V30 7731 C 728.868 0.51357 -1.81681 0
M  V30 7732 O 728.225 1.35591 -1.22153 0
M  V30 7733 C 728.276 -1.43272 -3.31897 0
M  V30 7734 O 727.997 -2.82738 -3.34651 0
M  V30 7735 C 729.498 -1.26555 -4.24851 0
M  V30 7736 H 726.718 -0.333704 -0.582136 0
M  V30 7737 H 729.262 -1.52076 -1.36723 0
M  V30 7738 H 727.417 -0.892653 -3.76975 0
M  V30 7739 H 727.831 -3.04971 -4.26724 0
M  V30 7740 H 729.305 -1.66031 -5.26439 0
M  V30 7741 H 729.782 -0.208589 -4.38704 0
M  V30 7742 H 730.388 -1.79423 -3.856 0
M  V30 7743 N 728.703 1.26451 -0.940633 0
M  V30 7744 C 729.952 1.93071 -0.583656 0
M  V30 7745 C 730.265 1.74618 0.881366 0
M  V30 7746 O 731.471 2.35689 1.34769 0
M  V30 7747 C 729.927 3.45927 -0.993106 0
M  V30 7748 C 729.535 3.73115 -2.4797 0
M  V30 7749 C 731.279 4.18554 -0.707998 0
M  V30 7750 C 729.186 5.19408 -2.82788 0
M  V30 7751 H 728.116 0.722824 -0.214572 0
M  V30 7752 H 730.767 1.43538 -1.1432 0
M  V30 7753 H 729.149 3.94341 -0.362099 0
M  V30 7754 H 730.323 3.35408 -3.15971 0
M  V30 7755 H 728.638 3.13719 -2.73805 0
M  V30 7756 H 731.235 5.26293 -0.94447 0
M  V30 7757 H 731.578 4.14782 0.355225 0
M  V30 7758 H 732.111 3.76003 -1.2987 0
M  V30 7759 H 728.85 5.28281 -3.88071 0
M  V30 7760 H 728.37 5.58214 -2.19449 0
M  V30 7761 H 730.049 5.87407 -2.71224 0
M  V30 7762 N 730.181 0.707592 1.40822 0
M  V30 7763 C 731.111 0.0644925 2.33411 0
M  V30 7764 C 732.092 -0.754205 1.52466 0
M  V30 7765 O 733.277 -0.704749 1.80961 0
M  V30 7766 C 730.407 -0.863865 3.36385 0
M  V30 7767 C 729.361 -0.15138 4.27732 0
M  V30 7768 C 728.687 -1.19491 5.21177 0
M  V30 7769 C 729.987 0.989607 5.12839 0
M  V30 7770 H 731.681 0.837829 2.87438 0
M  V30 7771 H 729.227 0.404346 1.38207 0
M  V30 7772 H 731.18 -1.32309 4.0009 0
M  V30 7773 H 729.904 -1.66901 2.80734 0
M  V30 7774 H 728.563 0.287937 3.65467 0
M  V30 7775 H 728.211 -1.9929 4.61836 0
M  V30 7776 H 727.911 -0.723123 5.83134 0
M  V30 7777 H 729.435 -1.6544 5.8776 0
M  V30 7778 H 730.849 0.610114 5.70044 0
M  V30 7779 H 729.246 1.38926 5.83798 0
M  V30 7780 H 730.316 1.82389 4.49291 0
M  V30 7781 N 731.66 -1.50943 0.453197 0
M  V30 7782 C 732.608 -2.29728 -0.364419 0
M  V30 7783 C 733.602 -1.36246 -1.00664 0
M  V30 7784 O 734.808 -1.53518 -0.939794 0
M  V30 7785 H 731.183 -0.739536 -0.136347 0
M  V30 7786 H 733.154 -2.96672 0.320696 0
M  V30 7787 C 731.903 -3.1629 -1.44415 0
M  V30 7788 H 731.226 -3.88119 -0.959343 0
M  V30 7789 H 732.666 -3.74444 -1.98917 0
M  V30 7790 C 731.125 -2.32702 -2.43622 0
M  V30 7791 O 731.655 -1.99763 -3.48508 0
M  V30 7792 N 729.861 -1.95621 -2.14897 0
M  V30 7793 H 729.408 -2.22607 -1.29629 0
M  V30 7794 H 729.366 -1.39993 -2.81513 0
M  V30 7795 N 733.138 -0.185124 -1.56509 0
M  V30 7796 C 734.549 0.329221 -1.83774 0
M  V30 7797 C 734.9 1.62093 -1.10545 0
M  V30 7798 O 734.025 2.13334 -0.36298 0
M  V30 7799 C 734.62 0.604099 -3.33371 0
M  V30 7800 C 733.179 1.06284 -3.61083 0
M  V30 7801 C 732.326 0.10608 -2.77097 0
M  V30 7802 H 735.277 -0.409116 -1.53336 0
M  V30 7803 H 735.298 1.45458 -3.51599 0
M  V30 7804 H 734.81 -0.336201 -3.86641 0
M  V30 7805 H 732.911 2.01777 -3.13236 0
M  V30 7806 H 733.024 0.962453 -4.69333 0
M  V30 7807 H 731.388 0.606082 -2.47384 0
M  V30 7808 H 732.171 -0.828486 -3.33153 0
M  V30 7809 N 734.616 1.57351 0.0885366 0
M  V30 7810 C 735.566 1.98963 1.11346 0
M  V30 7811 C 736.55 0.869065 1.35411 0
M  V30 7812 O 737.742 1.13292 1.35992 0
M  V30 7813 C 734.871 2.4231 2.43189 0
M  V30 7814 C 733.957 3.61065 2.22469 0
M  V30 7815 N 734.348 4.75789 1.71635 0
M  V30 7816 C 732.646 3.6729 2.5301 0
M  V30 7817 C 733.347 5.57708 1.65339 0
M  V30 7818 N 732.323 5.01067 2.1079 0
M  V30 7819 H 736.125 2.85109 0.713465 0
M  V30 7820 H 733.639 1.59682 0.295868 0
M  V30 7821 H 735.636 2.70352 3.17357 0
M  V30 7822 H 734.296 1.57544 2.83919 0
M  V30 7823 H 735.307 4.98411 1.40738 0
M  V30 7824 H 731.984 2.932 2.9722 0
M  V30 7825 H 733.374 6.59782 1.27031 0
M  V30 7826 N 736.094 -0.359525 1.53444 0
M  V30 7827 C 737.34 -1.10315 1.70172 0
M  V30 7828 C 737.673 -1.88788 0.455287 0
M  V30 7829 O 736.948 -1.86635 -0.547514 0
M  V30 7830 C 737.231 -2.05744 2.95536 0
M  V30 7831 C 737.084 -1.3084 4.3035 0
M  V30 7832 C 738.403 -3.05784 3.16518 0
M  V30 7833 H 735.522 -0.399662 0.619225 0
M  V30 7834 H 738.164 -0.383338 1.86093 0
M  V30 7835 H 736.314 -2.67125 2.82093 0
M  V30 7836 H 737.986 -0.721959 4.55615 0
M  V30 7837 H 736.229 -0.610283 4.29486 0
M  V30 7838 H 736.9 -2.00718 5.14214 0
M  V30 7839 H 739.376 -2.5451 3.29187 0
M  V30 7840 H 738.252 -3.69772 4.05659 0
M  V30 7841 H 738.513 -3.76289 2.32076 0
M  V30 7842 N 737.572 -1.44907 -0.619662 0
M  V30 7843 C 738.522 -1.49085 -1.72504 0
M  V30 7844 C 739.506 -0.355372 -1.56926 0
M  V30 7845 O 740.698 -0.601441 -1.66468 0
M  V30 7846 C 737.827 -1.44889 -3.11227 0
M  V30 7847 C 736.913 -2.63593 -3.32234 0
M  V30 7848 N 737.304 -3.88775 -3.23555 0
M  V30 7849 C 735.602 -2.59033 -3.63067 0
M  V30 7850 C 736.303 -4.67932 -3.45564 0
M  V30 7851 N 735.279 -3.9919 -3.68983 0
M  V30 7852 H 739.081 -2.43706 -1.6427 0
M  V30 7853 H 736.595 -1.4003 -0.82252 0
M  V30 7854 H 738.592 -1.45966 -3.90512 0
M  V30 7855 H 737.252 -0.513143 -3.2062 0
M  V30 7856 H 738.263 -4.20574 -3.02221 0
M  V30 7857 H 734.94 -1.7431 -3.79371 0
M  V30 7858 H 736.33 -5.76952 -3.44349 0
M  V30 7859 N 739.05 0.861098 -1.31996 0
M  V30 7860 C 740.296 1.61721 -1.22369 0
M  V30 7861 C 740.629 1.93 0.215587 0
M  V30 7862 O 739.904 1.56789 1.15098 0
M  V30 7863 C 740.187 2.9417 -2.07691 0
M  V30 7864 C 740.04 2.69714 -3.59965 0
M  V30 7865 C 741.359 3.95372 -1.93312 0
M  V30 7866 H 738.478 0.586822 -0.44588 0
M  V30 7867 H 741.12 0.994788 -1.61876 0
M  V30 7868 H 739.27 3.47292 -1.74128 0
M  V30 7869 H 740.942 2.23196 -4.03709 0
M  V30 7870 H 739.185 2.03789 -3.82952 0
M  V30 7871 H 739.856 3.63996 -4.14983 0
M  V30 7872 H 742.332 3.51487 -2.22701 0
M  V30 7873 H 741.208 4.85916 -2.55298 0
M  V30 7874 H 741.469 4.32865 -0.898922 0
M  V30 7875 N 740.528 1.15101 1.07655 0
M  V30 7876 C 741.777 0.918528 1.79572 0
M  V30 7877 C 742.09 -0.555922 1.87534 0
M  V30 7878 O 743.296 -0.905893 2.55941 0
M  V30 7879 C 741.752 1.59394 3.22679 0
M  V30 7880 C 741.36 3.1052 3.22927 0
M  V30 7881 C 743.104 1.44289 3.99225 0
M  V30 7882 C 741.011 3.70862 4.60668 0
M  V30 7883 H 739.941 0.340006 0.672987 0
M  V30 7884 H 742.592 1.38079 1.20857 0
M  V30 7885 H 740.974 1.05936 3.81567 0
M  V30 7886 H 742.148 3.70708 2.737 0
M  V30 7887 H 740.463 3.25351 2.59876 0
M  V30 7888 H 743.06 1.86766 5.01022 0
M  V30 7889 H 743.403 0.389975 4.14469 0
M  V30 7890 H 743.936 1.94826 3.46825 0
M  V30 7891 H 740.675 4.7604 4.50628 0
M  V30 7892 H 740.195 3.15456 5.10145 0
M  V30 7893 H 741.874 3.71607 5.29639 0
M  V30 7894 N 742.006 -1.2595 0.947325 0
M  V30 7895 C 743.254 -1.93081 0.596996 0
M  V30 7896 C 743.575 -1.74632 -0.867672 0
M  V30 7897 O 742.845 -1.1056 -1.6172 0
M  V30 7898 H 741.425 -0.714542 0.217805 0
M  V30 7899 H 744.087 -1.53265 1.20398 0
M  V30 7900 H 743.183 -3.01134 0.82004 0
M  V30 7901 N 743.484 -0.715051 -1.40445 0
M  V30 7902 C 744.394 -0.0631624 -2.34515 0
M  V30 7903 C 745.41 0.744397 -1.57273 0
M  V30 7904 O 746.586 0.677475 -1.89663 0
M  V30 7905 C 743.651 0.847915 -3.36172 0
M  V30 7906 C 742.712 0.0303655 -4.29289 0
M  V30 7907 C 741.945 0.898051 -5.2609 0
M  V30 7908 O 742.168 2.13729 -5.28844 0
M  V30 7909 O 741.102 0.337328 -6.00954 0
M  V30 7910 H 744.928 -0.839078 -2.91879 0
M  V30 7911 H 742.513 -0.475527 -1.4163 0
M  V30 7912 H 744.395 1.3698 -3.98515 0
M  V30 7913 H 743.07 1.60299 -2.81222 0
M  V30 7914 H 741.977 -0.536573 -3.70232 0
M  V30 7915 H 743.31 -0.686474 -4.87389 0
M  V30 7916 N 744.962 1.50701 -0.461195 0
M  V30 7917 C 746.239 1.94958 0.158296 0
M  V30 7918 C 746.619 1.40111 1.57899 0
M  V30 7919 O 745.967 0.597976 2.20537 0
M  V30 7920 C 746.177 3.48821 0.11172 0
M  V30 7921 C 747.525 4.23499 0.30552 0
M  V30 7922 O 748.549 3.557 0.188758 0
M  V30 7923 O 747.408 5.43823 0.540244 0
M  V30 7924 H 744.502 0.818674 0.117054 0
M  V30 7925 H 747.048 1.61508 -0.520888 0
M  V30 7926 H 745.82 3.81263 -0.880577 0
M  V30 7927 H 745.443 3.88781 0.832791 0
M  V30 7928 N 746.441 0.193421 1.56409 0
M  V30 7929 C 747.404 -0.714371 2.17783 0
M  V30 7930 C 748.404 -1.1422 1.13183 0
M  V30 7931 O 749.594 -1.05557 1.38576 0
M  V30 7932 C 746.726 -1.97509 2.77855 0
M  V30 7933 H 747.919 -0.179714 2.99361 0
M  V30 7934 H 745.472 -0.0561944 1.56199 0
M  V30 7935 H 746.207 -2.5523 2.0007 0
M  V30 7936 H 745.992 -1.67706 3.54425 0
M  V30 7937 H 747.482 -2.62246 3.24987 0
M  V30 7938 N 747.919 -1.57396 -0.0801906 0
M  V30 7939 C 748.882 -2.02133 -1.0805 0
M  V30 7940 C 749.882 -0.91707 -1.32085 0
M  V30 7941 O 751.072 -1.18217 -1.27947 0
M  V30 7942 C 748.204 -2.39479 -2.42616 0
M  V30 7943 H 749.397 -2.91733 -0.6951 0
M  V30 7944 H 746.95 -1.52869 -0.325677 0
M  V30 7945 H 747.685 -1.52879 -2.86004 0
M  V30 7946 H 747.47 -3.20052 -2.26515 0
M  V30 7947 H 748.96 -2.74697 -3.14534 0
M  V30 7948 N 749.397 0.351382 -1.53633 0
M  V30 7949 C 750.637 1.10102 -1.72212 0
M  V30 7950 C 751.001 1.86128 -0.471198 0
M  V30 7951 O 752.202 2.63445 -0.533887 0
M  V30 7952 C 750.473 2.02348 -2.94602 0
M  V30 7953 S 752.032 2.84641 -3.33954 0
M  V30 7954 H 748.85 0.372145 -0.60583 0
M  V30 7955 H 751.452 0.38044 -1.91763 0
M  V30 7956 H 750.156 1.45283 -3.83824 0
M  V30 7957 H 749.687 2.78856 -2.77493 0
M  V30 7958 H 751.702 4.04724 -2.87076 0
M  V30 7959 N 750.875 1.45233 0.611969 0
M  V30 7960 C 752.124 1.48296 1.36716 0
M  V30 7961 C 752.437 0.12706 1.95187 0
M  V30 7962 O 753.643 0.0353066 2.71477 0
M  V30 7963 C 752.099 2.61168 2.47627 0
M  V30 7964 C 751.707 4.03051 1.95587 0
M  V30 7965 C 753.451 2.73472 3.24674 0
M  V30 7966 C 751.358 5.07312 3.03954 0
M  V30 7967 H 750.288 0.5518 0.513841 0
M  V30 7968 H 752.939 1.7136 0.656359 0
M  V30 7969 H 751.321 2.31379 3.21372 0
M  V30 7970 H 752.495 4.42497 1.2858 0
M  V30 7971 H 750.81 3.95158 1.31298 0
M  V30 7972 H 753.407 3.48537 4.05494 0
M  V30 7973 H 753.75 1.79953 3.75397 0
M  V30 7974 H 754.283 3.02765 2.58028 0
M  V30 7975 H 751.022 6.02525 2.58154 0
M  V30 7976 H 750.542 4.7244 3.69541 0
M  V30 7977 H 752.221 5.31867 3.6841 0
M  V30 7978 N 752.353 -0.854086 1.3245 0
M  V30 7979 C 753.316 -1.94427 1.21371 0
M  V30 7980 C 754.316 -1.60219 0.136613 0
M  V30 7981 O 755.506 -1.69846 0.387057 0
M  V30 7982 C 752.638 -3.29698 0.866701 0
M  V30 7983 H 753.831 -2.05679 2.18257 0
M  V30 7984 H 751.384 -1.04434 1.1629 0
M  V30 7985 H 752.119 -3.24145 -0.100319 0
M  V30 7986 H 751.904 -3.55903 1.64545 0
M  V30 7987 H 753.394 -4.09599 0.813515 0
M  V30 7988 N 753.831 -1.1567 -1.07043 0
M  V30 7989 C 755.061 -0.956083 -1.83146 0
M  V30 7990 C 755.469 0.498969 -1.82502 0
M  V30 7991 O 754.812 1.35791 -1.23719 0
M  V30 7992 C 754.874 -1.39704 -3.31245 0
M  V30 7993 C 754.538 -2.87045 -3.55604 0
M  V30 7994 C 755.535 -3.85092 -3.49285 0
M  V30 7995 C 753.22 -3.24787 -3.8317 0
M  V30 7996 C 755.214 -5.18885 -3.70185 0
M  V30 7997 C 752.901 -4.58751 -4.03721 0
M  V30 7998 C 753.899 -5.55609 -3.97224 0
M  V30 7999 O 753.587 -6.87154 -4.17223 0
M  V30 8000 H 753.319 -0.339473 -0.58458 0
M  V30 8001 H 755.873 -1.53922 -1.36005 0
M  V30 8002 H 754.103 -0.757326 -3.79212 0
M  V30 8003 H 755.792 -1.16503 -3.88821 0
M  V30 8004 H 756.558 -3.5728 -3.27988 0
M  V30 8005 H 752.437 -2.49979 -3.87339 0
M  V30 8006 H 755.981 -5.94473 -3.6503 0
M  V30 8007 H 751.878 -4.86277 -4.24505 0
M  V30 8008 H 752.646 -6.93618 -4.34553 0
M  V30 8009 N 755.309 1.25446 -0.953992 0
M  V30 8010 C 756.558 1.92441 -0.604101 0
M  V30 8011 C 756.871 1.75543 0.862796 0
M  V30 8012 O 758.077 2.37106 1.32262 0
M  V30 8013 C 756.533 3.44854 -1.02974 0
M  V30 8014 C 756.141 3.70464 -2.51914 0
M  V30 8015 C 757.885 4.1778 -0.752352 0
M  V30 8016 C 755.792 5.1638 -2.88281 0
M  V30 8017 H 754.722 0.720508 -0.222227 0
M  V30 8018 H 757.373 1.42318 -1.15836 0
M  V30 8019 H 755.755 3.93935 -0.403904 0
M  V30 8020 H 756.929 3.32038 -3.19511 0
M  V30 8021 H 755.244 3.10797 -2.77117 0
M  V30 8022 H 757.841 5.25261 -1.00024 0
M  V30 8023 H 758.184 4.15135 0.311212 0
M  V30 8024 H 758.717 3.74605 -1.33851 0
M  V30 8025 H 755.456 5.24135 -3.93653 0
M  V30 8026 H 754.976 5.55855 -2.25357 0
M  V30 8027 H 756.655 5.84497 -2.77439 0
M  V30 8028 N 756.787 0.722489 1.40064 0
M  V30 8029 C 758.203 0.396758 1.5459 0
M  V30 8030 C 758.403 -1.09375 1.69232 0
M  V30 8031 O 757.459 -1.87984 1.68578 0
M  V30 8032 C 758.772 1.16885 2.77053 0
M  V30 8033 C 760.32 1.15583 2.90877 0
M  V30 8034 C 760.795 1.91023 4.16262 0
M  V30 8035 N 762.286 1.88126 4.23276 0
M  V30 8036 C 763.021 2.43315 5.19216 0
M  V30 8037 N 762.517 3.07089 6.21022 0
M  V30 8038 N 764.31 2.33418 5.11344 0
M  V30 8039 H 756.461 1.68887 1.28806 0
M  V30 8040 H 758.724 0.714231 0.62336 0
M  V30 8041 H 758.43 2.22301 2.72534 0
M  V30 8042 H 758.304 0.765011 3.69361 0
M  V30 8043 H 760.691 0.10984 2.94896 0
M  V30 8044 H 760.772 1.59895 1.99668 0
M  V30 8045 H 760.416 2.95616 4.13006 0
M  V30 8046 H 760.346 1.44126 5.06493 0
M  V30 8047 H 762.837 1.41654 3.50346 0
M  V30 8048 H 763.15 3.467 6.90666 0
M  V30 8049 H 761.495 3.11175 6.21446 0
M  V30 8050 H 764.686 1.83248 4.30741 0
M  V30 8051 H 764.859 2.7673 5.85939 0
M  V30 8052 N 758.265 -1.50454 0.469181 0
M  V30 8053 C 759.195 -2.31353 -0.31592 0
M  V30 8054 C 760.176 -1.38172 -0.992094 0
M  V30 8055 O 761.361 -1.67093 -0.989633 0
M  V30 8056 C 758.491 -3.1786 -1.39937 0
M  V30 8057 C 757.445 -4.19578 -0.844909 0
M  V30 8058 C 756.771 -4.9481 -2.0265 0
M  V30 8059 C 758.071 -5.22106 0.142499 0
M  V30 8060 H 759.765 -2.97237 0.359269 0
M  V30 8061 H 757.311 -1.42942 0.174224 0
M  V30 8062 H 759.264 -3.7325 -1.95607 0
M  V30 8063 H 757.988 -2.49858 -2.1033 0
M  V30 8064 H 756.647 -3.65285 -0.310189 0
M  V30 8065 H 756.295 -4.23282 -2.71737 0
M  V30 8066 H 755.995 -5.63613 -1.66174 0
M  V30 8067 H 757.519 -5.53035 -2.58815 0
M  V30 8068 H 758.933 -5.72378 -0.324966 0
M  V30 8069 H 757.33 -5.98618 0.421441 0
M  V30 8070 H 758.4 -4.7297 1.06901 0
M  V30 8071 N 759.743 -0.201713 -1.56304 0
M  V30 8072 C 760.971 0.440723 -2.02152 0
M  V30 8073 C 761.386 1.54735 -1.08179 0
M  V30 8074 O 760.743 1.82289 -0.0878196 0
M  V30 8075 C 760.794 0.990884 -3.47655 0
M  V30 8076 O 760.515 -0.0715937 -4.38041 0
M  V30 8077 C 762.016 1.70854 -4.09052 0
M  V30 8078 H 759.236 0.109987 -0.661924 0
M  V30 8079 H 761.78 -0.312358 -2.021 0
M  V30 8080 H 759.935 1.69432 -3.48384 0
M  V30 8081 H 760.349 0.338892 -5.23404 0
M  V30 8082 H 761.823 2.04572 -5.12693 0
M  V30 8083 H 762.3 2.61462 -3.52894 0
M  V30 8084 H 762.906 1.0508 -4.12114 0
M  V30 8085 N 761.222 1.57436 0.0718424 0
M  V30 8086 C 762.154 2.00412 1.1121 0
M  V30 8087 C 763.167 0.910074 1.34987 0
M  V30 8088 O 764.356 1.18796 1.33228 0
M  V30 8089 C 761.456 2.32786 2.46301 0
M  V30 8090 C 760.629 3.64036 2.4248 0
M  V30 8091 C 759.688 3.8408 3.59679 0
M  V30 8092 O 758.714 4.55667 3.4111 0
M  V30 8093 N 759.916 3.2643 4.80025 0
M  V30 8094 H 762.681 2.90264 0.746118 0
M  V30 8095 H 760.242 1.59791 0.260495 0
M  V30 8096 H 762.234 2.43368 3.23348 0
M  V30 8097 H 760.804 1.48824 2.74901 0
M  V30 8098 H 760.024 3.64208 1.50818 0
M  V30 8099 H 761.312 4.50217 2.37027 0
M  V30 8100 H 760.71 2.68325 4.98014 0
M  V30 8101 H 759.267 3.42461 5.54584 0
M  V30 8102 N 762.7 -0.34323 1.53817 0
M  V30 8103 C 763.93 -1.10188 1.74763 0
M  V30 8104 C 764.338 -1.82829 0.486856 0
M  V30 8105 O 763.681 -1.75236 -0.551198 0
M  V30 8106 C 763.743 -2.16 2.87375 0
M  V30 8107 C 763.407 -1.62931 4.26969 0
M  V30 8108 C 764.404 -1.08147 5.08528 0
M  V30 8109 C 762.089 -1.67769 4.73454 0
M  V30 8110 C 764.083 -0.589039 6.34672 0
M  V30 8111 C 761.77 -1.18138 5.99572 0
M  V30 8112 C 762.768 -0.637979 6.80014 0
M  V30 8113 O 762.456 -0.149073 8.03762 0
M  V30 8114 H 762.188 -0.33445 0.587469 0
M  V30 8115 H 764.742 -0.401109 2.01445 0
M  V30 8116 H 762.972 -2.89637 2.56218 0
M  V30 8117 H 764.661 -2.77432 2.96287 0
M  V30 8118 H 765.427 -1.03732 4.73777 0
M  V30 8119 H 761.306 -2.09004 4.10899 0
M  V30 8120 H 764.85 -0.164233 6.97407 0
M  V30 8121 H 760.747 -1.22254 6.33817 0
M  V30 8122 H 761.515 -0.266332 8.18067 0
M  V30 8123 N 764.178 -1.45556 -0.604258 0
M  V30 8124 C 765.427 -1.49019 -1.35928 0
M  V30 8125 C 765.74 -0.137409 -1.95117 0
M  V30 8126 O 766.946 -0.0497032 -2.71455 0
M  V30 8127 C 765.402 -2.62477 -2.46239 0
M  V30 8128 C 765.01 -4.04082 -1.93447 0
M  V30 8129 C 766.754 -2.7519 -3.23219 0
M  V30 8130 C 764.661 -5.08917 -3.0126 0
M  V30 8131 H 763.591 -0.554518 -0.510907 0
M  V30 8132 H 766.242 -1.71705 -0.647262 0
M  V30 8133 H 764.624 -2.3308 -3.2014 0
M  V30 8134 H 765.798 -4.43173 -1.26232 0
M  V30 8135 H 764.113 -3.95849 -1.29201 0
M  V30 8136 H 766.71 -3.50683 -4.0364 0
M  V30 8137 H 767.053 -1.81941 -3.74437 0
M  V30 8138 H 767.586 -3.04129 -2.56418 0
M  V30 8139 H 764.325 -6.03886 -2.54955 0
M  V30 8140 H 763.845 -4.74393 -3.67031 0
M  V30 8141 H 765.524 -5.33814 -3.65584 0
M  V30 8142 N 765.656 0.84705 -1.32902 0
M  V30 8143 C 766.933 1.58583 -1.14503 0
M  V30 8144 C 767.313 2.09075 0.291724 0
M  V30 8145 O 766.661 1.88636 1.28952 0
M  V30 8146 C 766.871 2.72605 -2.17916 0
M  V30 8147 C 768.219 3.41993 -2.51646 0
M  V30 8148 O 769.243 2.82838 -2.1652 0
M  V30 8149 O 768.102 4.48761 -3.1189 0
M  V30 8150 H 765.196 0.698756 -0.442345 0
M  V30 8151 H 767.742 0.890516 -1.44457 0
M  V30 8152 H 766.514 2.32876 -3.14459 0
M  V30 8153 H 766.137 3.49807 -1.89 0
M  V30 8154 N 767.134 1.16236 1.06428 0
M  V30 8155 C 768.382 0.941171 1.78847 0
M  V30 8156 C 768.703 -0.53248 1.87589 0
M  V30 8157 O 767.973 -1.38686 1.38358 0
M  V30 8158 H 766.553 0.345228 0.66244 0
M  V30 8159 H 769.215 1.46479 1.28569 0
M  V30 8160 H 768.311 1.35871 2.80972 0
M  V30 8161 N 768.612 -1.24939 0.960631 0
M  V30 8162 C 769.544 -2.24879 0.442937 0
M  V30 8163 C 770.557 -1.56615 -0.444464 0
M  V30 8164 O 771.746 -1.76715 -0.251776 0
M  V30 8165 C 768.846 -3.36757 -0.380537 0
M  V30 8166 C 768.019 -4.34587 0.495283 0
M  V30 8167 C 767.078 -5.25502 -0.270995 0
M  V30 8168 O 766.104 -5.68227 0.332661 0
M  V30 8169 N 767.306 -5.59077 -1.56249 0
M  V30 8170 H 770.071 -2.69932 1.30218 0
M  V30 8171 H 767.632 -1.38907 0.83166 0
M  V30 8172 H 769.624 -3.94542 -0.90103 0
M  V30 8173 H 768.194 -2.91045 -1.14067 0
M  V30 8174 H 767.414 -3.75593 1.19682 0
M  V30 8175 H 768.702 -4.96925 1.09285 0
M  V30 8176 H 768.1 -5.2628 -2.07476 0
M  V30 8177 H 766.657 -6.19421 -2.02882 0
M  V30 8178 N 770.09 -0.729906 -1.39679 0
M  V30 8179 C 771.338 -0.275077 -2.00219 0
M  V30 8180 C 771.659 1.1401 -1.58199 0
M  V30 8181 O 770.929 1.77546 -0.827904 0
M  V30 8182 H 769.509 -0.0987127 -0.740449 0
M  V30 8183 H 772.171 -0.93873 -1.70804 0
M  V30 8184 H 771.267 -0.319446 -3.10461 0
M  V30 8185 N 771.568 1.50203 -0.477153 0
M  V30 8186 C 772.984 1.59056 -0.131663 0
M  V30 8187 C 773.184 1.48473 1.36227 0
M  V30 8188 O 772.24 1.34635 2.13611 0
M  V30 8189 C 773.553 2.92741 -0.687254 0
M  V30 8190 C 775.101 3.0615 -0.651223 0
M  V30 8191 C 775.576 4.42419 -1.18446 0
M  V30 8192 N 777.067 4.48847 -1.14413 0
M  V30 8193 C 777.802 5.52689 -1.52717 0
M  V30 8194 N 777.298 6.63754 -1.98499 0
M  V30 8195 N 779.091 5.43267 -1.44282 0
M  V30 8196 H 771.242 1.55325 -1.44872 0
M  V30 8197 H 773.505 0.734395 -0.599473 0
M  V30 8198 H 773.211 3.0598 -1.73405 0
M  V30 8199 H 773.085 3.76961 -0.134215 0
M  V30 8200 H 775.472 2.92556 0.386677 0
M  V30 8201 H 775.553 2.23673 -1.24114 0
M  V30 8202 H 775.197 4.56763 -2.22103 0
M  V30 8203 H 775.127 5.23498 -0.570709 0
M  V30 8204 H 777.618 3.69152 -0.808416 0
M  V30 8205 H 777.931 7.39059 -2.25859 0
M  V30 8206 H 776.276 6.64858 -2.02456 0
M  V30 8207 H 779.467 4.55387 -1.08352 0
M  V30 8208 H 779.64 6.24074 -1.74459 0
M  V30 8209 N 773.046 0.209999 1.56195 0
M  V30 8210 C 774.457 -0.299943 1.84275 0
M  V30 8211 C 774.808 -1.60314 1.1311 0
M  V30 8212 O 773.933 -2.1273 0.396874 0
M  V30 8213 C 774.528 -0.550986 3.3429 0
M  V30 8214 C 773.087 -1.00526 3.62728 0
M  V30 8215 C 772.234 -0.0619828 2.77231 0
M  V30 8216 H 775.185 0.433458 1.52666 0
M  V30 8217 H 775.206 -1.39846 3.53869 0
M  V30 8218 H 774.718 0.397669 3.86057 0
M  V30 8219 H 772.819 -1.96768 3.16407 0
M  V30 8220 H 772.932 -0.887664 4.70805 0
M  V30 8221 H 771.296 -0.566648 2.48317 0
M  V30 8222 H 772.079 0.881383 3.31793 0
M  V30 8223 N 774.524 -1.57472 -0.0634922 0
M  V30 8224 C 775.94 -1.54016 -0.418466 0
M  V30 8225 C 776.14 -0.931376 -1.78683 0
M  V30 8226 O 775.196 -0.537465 -2.46714 0
M  V30 8227 C 776.509 -2.98634 -0.351906 0
M  V30 8228 C 778.057 -3.10012 -0.431494 0
M  V30 8229 C 778.532 -4.56296 -0.394754 0
M  V30 8230 N 780.023 -4.60964 -0.454583 0
M  V30 8231 C 780.758 -5.71643 -0.448501 0
M  V30 8232 N 780.254 -6.91663 -0.396742 0
M  V30 8233 N 782.047 -5.5991 -0.495677 0
M  V30 8234 H 774.198 -1.95409 0.832408 0
M  V30 8235 H 776.461 -0.894769 0.313197 0
M  V30 8236 H 776.167 -3.46766 0.587048 0
M  V30 8237 H 776.041 -3.58955 -1.15893 0
M  V30 8238 H 778.428 -2.61848 -1.36087 0
M  V30 8239 H 778.509 -2.52585 0.404258 0
M  V30 8240 H 778.153 -5.05119 0.530811 0
M  V30 8241 H 778.083 -5.11594 -1.24815 0
M  V30 8242 H 780.574 -3.74598 -0.498496 0
M  V30 8243 H 780.887 -7.71783 -0.396256 0
M  V30 8244 H 779.232 -6.9405 -0.363304 0
M  V30 8245 H 782.423 -4.65046 -0.533864 0
M  V30 8246 H 782.596 -6.46164 -0.487469 0
M  V30 8247 N 776.003 0.335068 -1.53997 0
M  V30 8248 C 777.231 1.09418 -1.756 0
M  V30 8249 C 777.646 1.82083 -0.499138 0
M  V30 8250 O 777.003 1.74646 0.529631 0
M  V30 8251 C 777.054 2.10115 -2.94166 0
M  V30 8252 O 776.775 1.40404 -4.14992 0
M  V30 8253 C 778.276 2.98336 -3.27888 0
M  V30 8254 H 775.496 0.32595 -0.586513 0
M  V30 8255 H 778.04 0.384693 -2.00849 0
M  V30 8256 H 776.195 2.76616 -2.71224 0
M  V30 8257 H 776.609 2.07743 -4.81605 0
M  V30 8258 H 778.083 3.6491 -4.1418 0
M  V30 8259 H 778.56 3.64814 -2.44556 0
M  V30 8260 H 779.166 2.37412 -3.52868 0
M  V30 8261 N 777.481 1.45874 0.596531 0
M  V30 8262 C 778.706 1.54247 1.38646 0
M  V30 8263 C 779.131 0.179571 1.87241 0
M  V30 8264 O 778.489 -0.837831 1.6078 0
M  V30 8265 C 778.537 2.54015 2.55946 0
M  V30 8266 O 777.641 2.06561 3.5694 0
M  V30 8267 H 776.982 0.519555 0.413471 0
M  V30 8268 H 779.512 1.91327 0.724936 0
M  V30 8269 H 779.522 2.73179 3.03047 0
M  V30 8270 H 778.197 3.52994 2.19928 0
M  V30 8271 H 776.774 1.97324 3.16414 0
M  V30 8272 N 778.959 -0.83999 1.33349 0
M  V30 8273 C 779.891 -1.95678 1.19344 0
M  V30 8274 C 780.904 -1.62322 0.124692 0
M  V30 8275 O 782.093 -1.74516 0.375012 0
M  V30 8276 C 779.193 -3.29133 0.807771 0
M  V30 8277 C 778.366 -3.9063 1.96792 0
M  V30 8278 C 777.425 -5.02438 1.56341 0
M  V30 8279 O 776.451 -5.21646 2.27759 0
M  V30 8280 N 777.653 -5.78612 0.467767 0
M  V30 8281 H 780.418 -2.08229 2.15548 0
M  V30 8282 H 777.979 -1.01566 1.26079 0
M  V30 8283 H 779.971 -4.01355 0.519282 0
M  V30 8284 H 778.541 -3.12535 -0.063555 0
M  V30 8285 H 777.761 -3.11011 2.4221 0
M  V30 8286 H 779.049 -4.2845 2.74422 0
M  V30 8287 H 778.447 -5.65559 -0.126324 0
M  V30 8288 H 777.004 -6.51362 0.238945 0
M  V30 8289 N 780.437 -1.16799 -1.0581 0
M  V30 8290 C 781.662 -0.977402 -1.82925 0
M  V30 8291 C 782.087 0.469514 -1.82146 0
M  V30 8292 O 781.445 1.33576 -1.22585 0
M  V30 8293 C 781.493 -1.51543 -3.27211 0
M  V30 8294 O 780.597 -0.725021 -4.05977 0
M  V30 8295 H 779.938 -0.347474 -0.565825 0
M  V30 8296 H 782.468 -1.55151 -1.33376 0
M  V30 8297 H 782.478 -1.53502 -3.78023 0
M  V30 8298 H 781.153 -2.56872 -3.27093 0
M  V30 8299 H 779.73 -0.77634 -3.64729 0
M  V30 8300 N 781.915 1.24427 -0.967243 0
M  V30 8301 C 782.825 2.29109 -0.504592 0
M  V30 8302 C 783.841 1.68495 0.434224 0
M  V30 8303 O 785.017 1.99041 0.307379 0
M  V30 8304 C 782.082 3.46133 0.198273 0
M  V30 8305 C 781.143 4.22149 -0.780313 0
M  V30 8306 C 780.376 5.33585 -0.110896 0
M  V30 8307 O 780.599 5.59676 1.10088 0
M  V30 8308 O 779.533 5.96522 -0.802823 0
M  V30 8309 H 783.359 2.708 -1.37482 0
M  V30 8310 H 780.944 1.30111 -0.73426 0
M  V30 8311 H 782.826 4.17205 0.593124 0
M  V30 8312 H 781.501 3.0642 1.04347 0
M  V30 8313 H 780.408 3.53454 -1.22561 0
M  V30 8314 H 781.741 4.65677 -1.59392 0
M  V30 8315 N 783.393 0.737304 1.3929 0
M  V30 8316 C 784.303 0.100464 2.34385 0
M  V30 8317 C 785.319 -0.719282 1.58437 0
M  V30 8318 O 786.495 -0.647216 1.90717 0
M  V30 8319 C 783.56 -0.794325 3.37478 0
M  V30 8320 C 782.621 0.0379345 4.29283 0
M  V30 8321 C 781.854 -0.814241 5.27452 0
M  V30 8322 O 782.077 -2.05288 5.32177 0
M  V30 8323 O 781.011 -0.241679 6.01415 0
M  V30 8324 H 784.837 0.885407 2.90507 0
M  V30 8325 H 782.422 0.497999 1.40856 0
M  V30 8326 H 784.304 -1.30622 4.00644 0
M  V30 8327 H 782.979 -1.55804 2.83737 0
M  V30 8328 H 781.886 0.595405 3.69331 0
M  V30 8329 H 783.219 0.763926 4.86236 0
M  V30 8330 N 784.871 -1.49948 0.485112 0
M  V30 8331 C 786.099 -2.06806 -0.0622824 0
M  V30 8332 C 786.514 -1.34736 -1.32256 0
M  V30 8333 O 785.871 -0.420836 -1.77582 0
M  V30 8334 C 785.922 -3.59934 -0.336096 0
M  V30 8335 O 785.643 -4.29289 0.874203 0
M  V30 8336 C 787.144 -4.33459 -0.928903 0
M  V30 8337 H 784.364 -0.670867 0.0133472 0
M  V30 8338 H 786.908 -1.92937 0.677917 0
M  V30 8339 H 785.063 -3.7356 -1.02625 0
M  V30 8340 H 785.477 -5.20735 0.627332 0
M  V30 8341 H 786.951 -5.41527 -1.07017 0
M  V30 8342 H 787.428 -3.94881 -1.92265 0
M  V30 8343 H 788.034 -4.24399 -0.276705 0
M  V30 8344 N 786.349 -0.21828 -1.56081 0
M  V30 8345 C 787.765 0.137168 -1.59009 0
M  V30 8346 C 787.965 1.59215 -1.23503 0
M  V30 8347 O 787.021 2.33178 -0.968716 0
M  V30 8348 C 788.334 -0.186162 -3.00123 0
M  V30 8349 C 789.882 -0.128135 -3.12738 0
M  V30 8350 C 790.357 -0.425094 -4.56023 0
M  V30 8351 N 791.848 -0.374547 -4.61683 0
M  V30 8352 C 792.583 -0.57786 -5.70481 0
M  V30 8353 N 792.079 -0.842771 -6.87655 0
M  V30 8354 N 793.872 -0.510521 -5.59777 0
M  V30 8355 H 786.023 -1.16746 -1.77437 0
M  V30 8356 H 788.286 -0.467706 -0.824594 0
M  V30 8357 H 787.992 -1.19589 -3.30744 0
M  V30 8358 H 787.866 0.500388 -3.73866 0
M  V30 8359 H 790.253 0.872224 -2.81915 0
M  V30 8360 H 790.334 -0.848112 -2.41331 0
M  V30 8361 H 789.978 -1.42288 -4.87562 0
M  V30 8362 H 789.908 0.316038 -5.25651 0
M  V30 8363 H 792.399 -0.177356 -3.77484 0
M  V30 8364 H 792.712 -0.986095 -7.66483 0
M  V30 8365 H 791.057 -0.879929 -6.89407 0
M  V30 8366 H 794.248 -0.303813 -4.67113 0
M  V30 8367 H 794.421 -0.672378 -6.44502 0
M  V30 8368 N 787.827 1.57504 0.0551401 0
M  V30 8369 C 789.073 1.88334 0.752216 0
M  V30 8370 C 789.406 0.812742 1.76375 0
M  V30 8371 O 788.681 -0.175198 1.93709 0
M  V30 8372 C 788.964 3.29824 1.44528 0
M  V30 8373 C 788.817 4.47553 0.449026 0
M  V30 8374 C 790.136 3.69808 2.38601 0
M  V30 8375 H 787.255 0.684973 0.271995 0
M  V30 8376 H 789.897 1.89994 0.0151895 0
M  V30 8377 H 788.047 3.28539 2.07351 0
M  V30 8378 H 789.719 4.60967 -0.175277 0
M  V30 8379 H 787.962 4.33168 -0.234162 0
M  V30 8380 H 788.633 5.43376 0.971917 0
M  V30 8381 H 791.109 3.72293 1.85842 0
M  V30 8382 H 789.985 4.69665 2.84088 0
M  V30 8383 H 790.246 3.00641 3.24141 0
M  V30 8384 N 789.305 -0.326896 1.54172 0
M  V30 8385 C 790.551 -1.06304 1.7341 0
M  V30 8386 C 790.906 -1.85791 0.499935 0
M  V30 8387 O 790.199 -1.84753 -0.507625 0
M  V30 8388 C 790.393 -2.0208 2.94785 0
M  V30 8389 C 790.222 -1.32009 4.29888 0
M  V30 8390 C 788.992 -1.05798 4.941 0
M  V30 8391 C 791.19 -0.737721 5.08982 0
M  V30 8392 N 789.172 -0.324836 6.1304 0
M  V30 8393 C 790.543 -0.136006 6.19851 0
M  V30 8394 C 792.598 -0.640206 4.93767 0
M  V30 8395 C 791.301 0.553757 7.17165 0
M  V30 8396 C 793.327 0.0358492 5.91389 0
M  V30 8397 C 792.689 0.626522 7.01608 0
M  V30 8398 H 788.788 -0.372808 0.687414 0
M  V30 8399 H 791.372 -0.34462 1.91626 0
M  V30 8400 H 789.543 -2.71197 2.78041 0
M  V30 8401 H 791.275 -2.68655 3.02666 0
M  V30 8402 H 788.03 -1.34945 4.53968 0
M  V30 8403 H 788.454 0.0274982 6.76994 0
M  V30 8404 H 793.096 -1.0826 4.08705 0
M  V30 8405 H 790.814 1.00799 8.01789 0
M  V30 8406 H 794.4 0.110895 5.81694 0
M  V30 8407 H 793.28 1.14135 7.7585 0
M  V30 8408 N 790.784 -1.46188 -0.588786 0
M  V30 8409 C 791.734 -1.5271 -1.69303 0
M  V30 8410 C 792.718 -0.388578 -1.56137 0
M  V30 8411 O 793.91 -0.636616 -1.65155 0
M  V30 8412 C 791.039 -1.51457 -3.08084 0
M  V30 8413 C 790.125 -2.70581 -3.26568 0
M  V30 8414 N 790.516 -3.9555 -3.15236 0
M  V30 8415 C 788.814 -2.66676 -3.57491 0
M  V30 8416 C 789.515 -4.75157 -3.35561 0
M  V30 8417 N 788.491 -4.06927 -3.60432 0
M  V30 8418 H 792.293 -2.47136 -1.59063 0
M  V30 8419 H 789.807 -1.41743 -0.792632 0
M  V30 8420 H 791.804 -1.54216 -3.87328 0
M  V30 8421 H 790.464 -0.581036 -3.19459 0
M  V30 8422 H 791.475 -4.2689 -2.93232 0
M  V30 8423 H 788.152 -1.82317 -3.75588 0
M  V30 8424 H 789.542 -5.84126 -3.32034 0
M  V30 8425 N 792.262 0.832906 -1.33792 0
M  V30 8426 C 793.678 1.1245 -1.13257 0
M  V30 8427 C 793.878 2.01369 0.0725832 0
M  V30 8428 O 792.934 2.41071 0.751082 0
M  V30 8429 C 794.247 1.78084 -2.42294 0
M  V30 8430 C 795.795 1.90624 -2.48257 0
M  V30 8431 C 796.27 2.59673 -3.77271 0
M  V30 8432 N 797.761 2.67181 -3.78376 0
M  V30 8433 C 798.496 3.21313 -4.74916 0
M  V30 8434 N 797.992 3.76086 -5.81835 0
M  V30 8435 N 799.785 3.19621 -4.62384 0
M  V30 8436 H 791.936 0.241244 -2.11026 0
M  V30 8437 H 794.199 0.169557 -0.932713 0
M  V30 8438 H 793.905 1.20209 -3.30519 0
M  V30 8439 H 793.779 2.78049 -2.5489 0
M  V30 8440 H 796.166 2.4765 -1.60478 0
M  V30 8441 H 796.247 0.89591 -2.39598 0
M  V30 8442 H 795.891 2.03304 -4.65435 0
M  V30 8443 H 795.821 3.61189 -3.8321 0
M  V30 8444 H 798.312 2.28346 -3.01108 0
M  V30 8445 H 798.625 4.15612 -6.51526 0
M  V30 8446 H 796.97 3.74357 -5.85561 0
M  V30 8447 H 800.161 2.76091 -3.7801 0
M  V30 8448 H 800.334 3.61504 -5.37791 0
M  V30 8449 N 793.74 1.17359 1.05189 0
M  V30 8450 C 795.156 0.920861 1.30355 0
M  V30 8451 C 795.356 -0.419993 1.97074 0
M  V30 8452 O 794.412 -1.15696 2.24434 0
M  V30 8453 C 795.725 2.07818 2.1733 0
M  V30 8454 C 797.273 2.1152 2.30712 0
M  V30 8455 C 797.748 3.26637 3.21048 0
M  V30 8456 N 799.239 3.26426 3.28634 0
M  V30 8457 C 799.974 4.12141 3.98657 0
M  V30 8458 N 799.47 5.07966 4.71107 0
M  V30 8459 N 801.263 4.00091 3.94821 0
M  V30 8460 H 793.414 2.03666 0.602821 0
M  V30 8461 H 795.677 0.889294 0.328421 0
M  V30 8462 H 795.383 3.04727 1.75597 0
M  V30 8463 H 795.257 2.02922 3.17966 0
M  V30 8464 H 797.644 1.15196 2.71687 0
M  V30 8465 H 797.725 2.20477 1.29706 0
M  V30 8466 H 797.369 4.23227 2.80788 0
M  V30 8467 H 797.299 3.14917 4.2206 0
M  V30 8468 H 799.79 2.57045 2.77013 0
M  V30 8469 H 800.103 5.69766 5.22099 0
M  V30 8470 H 798.448 5.11936 4.7005 0
M  V30 8471 H 801.639 3.24523 3.37346 0
M  V30 8472 H 801.812 4.6711 4.49123 0
M  V30 8473 N 795.218 -1.23913 0.973828 0
M  V30 8474 C 796.495 -1.87539 0.555729 0
M  V30 8475 C 796.875 -1.87641 -0.967162 0
M  V30 8476 O 796.223 -1.35335 -1.84111 0
M  V30 8477 C 796.433 -3.29359 1.15427 0
M  V30 8478 C 797.781 -4.06 1.24294 0
M  V30 8479 O 798.805 -3.38554 1.10723 0
M  V30 8480 O 797.664 -5.26689 1.45813 0
M  V30 8481 H 794.758 -0.805769 0.186188 0
M  V30 8482 H 797.304 -1.31838 1.06849 0
M  V30 8483 H 796.076 -3.23817 2.19678 0
M  V30 8484 H 795.699 -3.92642 0.625925 0
M  V30 8485 N 796.696 -0.74468 -1.38897 0
M  V30 8486 C 797.944 -0.296298 -1.99916 0
M  V30 8487 C 798.265 1.12325 -1.59399 0
M  V30 8488 O 797.535 1.76658 -0.846689 0
M  V30 8489 H 796.115 -0.106561 -0.73936 0
M  V30 8490 H 798.777 -0.956793 -1.69798 0
M  V30 8491 H 797.873 -0.352356 -3.10105 0
M  V30 8492 N 798.174 1.49689 -0.493057 0
M  V30 8493 C 799.121 2.28976 0.28959 0
M  V30 8494 C 800.091 1.35011 0.967536 0
M  V30 8495 O 801.276 1.63964 0.975736 0
M  V30 8496 C 798.416 3.1748 1.35279 0
M  V30 8497 C 797.529 4.26496 0.687418 0
M  V30 8498 C 796.664 5.02226 1.73038 0
M  V30 8499 C 795.703 6.03089 1.04645 0
M  V30 8500 N 794.84 6.72014 2.03325 0
M  V30 8501 H 799.68 2.954 -0.392798 0
M  V30 8502 H 797.217 1.45657 -0.205554 0
M  V30 8503 H 799.175 3.67162 1.98111 0
M  V30 8504 H 797.805 2.53057 2.00405 0
M  V30 8505 H 796.857 3.80362 -0.0540001 0
M  V30 8506 H 798.169 4.98578 0.14864 0
M  V30 8507 H 797.323 5.55737 2.43395 0
M  V30 8508 H 796.062 4.29899 2.303 0
M  V30 8509 H 795.067 5.48817 0.328606 0
M  V30 8510 H 796.292 6.77398 0.480428 0
M  V30 8511 H 794.238 6.02464 2.59564 0
M  V30 8512 H 794.155 7.40046 1.54492 0
M  V30 8513 H 795.423 7.30133 2.72995 0
M  V30 8514 N 799.652 0.226554 1.55963 0
M  V30 8515 C 800.898 -0.397608 1.99476 0
M  V30 8516 C 801.253 -1.57031 1.11172 0
M  V30 8517 O 800.546 -1.90907 0.162757 0
M  V30 8518 C 800.74 -0.87642 3.46488 0
M  V30 8519 C 800.569 0.248344 4.49014 0
M  V30 8520 C 799.339 0.71638 5.00196 0
M  V30 8521 C 801.537 1.06835 5.03081 0
M  V30 8522 N 799.519 1.81568 5.86435 0
M  V30 8523 C 800.89 2.01641 5.86294 0
M  V30 8524 C 802.945 1.10722 4.85433 0
M  V30 8525 C 801.648 3.0002 6.53743 0
M  V30 8526 C 803.674 2.07921 5.53645 0
M  V30 8527 C 803.036 3.01466 6.3663 0
M  V30 8528 H 799.135 -0.112024 0.773935 0
M  V30 8529 H 801.719 0.339472 1.91718 0
M  V30 8530 H 799.89 -1.58285 3.54684 0
M  V30 8531 H 801.622 -1.47382 3.76909 0
M  V30 8532 H 798.377 0.30409 4.72623 0
M  V30 8533 H 798.801 2.36748 6.34255 0
M  V30 8534 H 803.443 0.397909 4.20923 0
M  V30 8535 H 801.161 3.71911 7.17432 0
M  V30 8536 H 804.747 2.11609 5.41953 0
M  V30 8537 H 803.627 3.75451 6.88481 0
M  V30 8538 N 801.13 -1.57531 -0.0467866 0
M  V30 8539 C 802.06 -2.08425 -1.05268 0
M  V30 8540 C 803.041 -0.982941 -1.38825 0
M  V30 8541 O 804.226 -1.25716 -1.48018 0
M  V30 8542 C 801.356 -2.54897 -2.35891 0
M  V30 8543 C 800.31 -3.69132 -2.16623 0
M  V30 8544 C 799.636 -4.01747 -3.52851 0
M  V30 8545 C 800.936 -4.98243 -1.56689 0
M  V30 8546 H 802.63 -2.92716 -0.62908 0
M  V30 8547 H 800.176 -1.40816 -0.301156 0
M  V30 8548 H 802.129 -2.8912 -3.06574 0
M  V30 8549 H 800.853 -1.67666 -2.80278 0
M  V30 8550 H 799.512 -3.35231 -1.48377 0
M  V30 8551 H 799.16 -3.11608 -3.94853 0
M  V30 8552 H 798.86 -4.78681 -3.4079 0
M  V30 8553 H 800.384 -4.38487 -4.24925 0
M  V30 8554 H 801.798 -5.30535 -2.17268 0
M  V30 8555 H 800.195 -5.79669 -1.55255 0
M  V30 8556 H 801.265 -4.81986 -0.530827 0
M  V30 8557 N 802.608 0.318715 -1.54344 0
M  V30 8558 C 803.556 1.41254 -1.84798 0
M  V30 8559 C 804.55 1.53325 -0.720256 0
M  V30 8560 O 805.756 1.55653 -0.903992 0
M  V30 8561 H 802.131 0.471468 -0.585851 0
M  V30 8562 H 804.102 1.12795 -2.7626 0
M  V30 8563 C 802.851 2.77395 -2.09637 0
M  V30 8564 H 802.174 2.68881 -2.95876 0
M  V30 8565 H 803.614 3.52987 -2.34896 0
M  V30 8566 C 802.073 3.24948 -0.889398 0
M  V30 8567 O 802.603 4.01573 -0.101063 0
M  V30 8568 N 800.809 2.82051 -0.699684 0
M  V30 8569 H 800.356 2.19858 -1.3424 0
M  V30 8570 H 800.314 3.1422 0.106368 0
M  V30 8571 N 804.086 1.46499 0.581025 0
M  V30 8572 C 805.332 1.52121 1.34116 0
M  V30 8573 C 805.665 0.173031 1.93428 0
M  V30 8574 O 804.94 -0.815729 1.76568 0
M  V30 8575 C 805.223 2.62108 2.46924 0
M  V30 8576 C 805.076 4.06462 1.92636 0
M  V30 8577 C 806.395 2.68167 3.48962 0
M  V30 8578 H 803.514 0.5538 0.486287 0
M  V30 8579 H 806.156 1.78443 0.652538 0
M  V30 8580 H 804.306 2.39794 3.05665 0
M  V30 8581 H 805.978 4.40068 1.3834 0
M  V30 8582 H 804.221 4.15862 1.23455 0
M  V30 8583 H 804.892 4.79152 2.74076 0
M  V30 8584 H 807.368 2.8823 3.00104 0
M  V30 8585 H 806.244 3.46942 4.2535 0
M  V30 8586 H 806.505 1.74284 4.06297 0
M  V30 8587 N 805.565 -0.825799 1.34232 0
M  V30 8588 C 806.515 -1.92533 1.22128 0
M  V30 8589 C 807.499 -1.60444 0.121002 0
M  V30 8590 O 808.691 -1.73497 0.350385 0
M  V30 8591 C 805.82 -3.29134 0.975995 0
M  V30 8592 C 804.906 -3.6735 2.11931 0
M  V30 8593 N 805.297 -3.77154 3.37029 0
M  V30 8594 C 803.595 -3.97179 2.02891 0
M  V30 8595 C 804.296 -4.10552 4.12095 0
M  V30 8596 N 803.272 -4.23619 3.40658 0
M  V30 8597 H 807.074 -1.98287 2.16932 0
M  V30 8598 H 804.588 -1.01929 1.26429 0
M  V30 8599 H 806.585 -4.07717 0.870187 0
M  V30 8600 H 805.245 -3.24679 0.036606 0
M  V30 8601 H 806.256 -3.60723 3.71618 0
M  V30 8602 H 802.933 -4.00861 1.16692 0
M  V30 8603 H 804.323 -4.25365 5.2011 0
M  V30 8604 N 807.043 -1.17915 -1.04565 0
M  V30 8605 C 808.273 -0.994716 -1.81077 0
M  V30 8606 C 808.681 0.460146 -1.83519 0
M  V30 8607 O 808.024 1.33136 -1.26572 0
M  V30 8608 C 808.086 -1.46698 -3.28207 0
M  V30 8609 C 807.75 -2.94523 -3.49436 0
M  V30 8610 C 808.747 -3.92414 -3.41038 0
M  V30 8611 C 806.432 -3.32841 -3.76194 0
M  V30 8612 C 808.426 -5.2662 -3.59096 0
M  V30 8613 C 806.113 -4.67212 -3.93899 0
M  V30 8614 C 807.111 -5.6391 -3.8535 0
M  V30 8615 O 806.799 -6.95849 -4.02554 0
M  V30 8616 H 806.531 -0.351797 -0.577248 0
M  V30 8617 H 809.085 -1.56772 -1.32709 0
M  V30 8618 H 807.315 -0.837592 -3.7752 0
M  V30 8619 H 809.004 -1.24724 -3.86263 0
M  V30 8620 H 809.77 -3.64157 -3.20336 0
M  V30 8621 H 805.649 -2.58139 -3.81949 0
M  V30 8622 H 809.193 -6.02082 -3.52339 0
M  V30 8623 H 805.09 -4.95172 -4.14095 0
M  V30 8624 H 805.858 -7.02679 -4.19743 0
M  V30 8625 N 808.521 1.23394 -0.980386 0
M  V30 8626 C 809.471 2.22634 -0.491747 0
M  V30 8627 C 810.455 1.54958 0.433222 0
M  V30 8628 O 811.647 1.75049 0.262078 0
M  V30 8629 C 808.776 3.4269 0.204531 0
M  V30 8630 C 807.862 4.17594 -0.740007 0
M  V30 8631 N 808.253 4.69458 -1.88263 0
M  V30 8632 C 806.551 4.42554 -0.553335 0
M  V30 8633 C 807.252 5.26446 -2.47446 0
M  V30 8634 N 806.228 5.14377 -1.75834 0
M  V30 8635 H 810.03 2.60363 -1.36339 0
M  V30 8636 H 807.544 1.38924 -0.841059 0
M  V30 8637 H 809.541 4.12959 0.571901 0
M  V30 8638 H 808.201 3.06477 1.07246 0
M  V30 8639 H 809.212 4.65803 -2.26381 0
M  V30 8640 H 805.889 4.16629 0.269573 0
M  V30 8641 H 807.279 5.77195 -3.43941 0
M  V30 8642 N 809.999 0.752036 1.385 0
M  V30 8643 C 811.239 0.312408 2.01998 0
M  V30 8644 C 811.603 -1.085 1.58404 0
M  V30 8645 O 812.804 -1.62365 2.14222 0
M  V30 8646 C 811.075 0.429423 3.54811 0
M  V30 8647 S 812.634 0.0721487 4.38741 0
M  V30 8648 H 809.452 0.1213 0.700576 0
M  V30 8649 H 812.054 0.982312 1.69029 0
M  V30 8650 H 810.758 1.44743 3.84028 0
M  V30 8651 H 810.289 -0.257716 3.92555 0
M  V30 8652 H 812.304 -1.13875 4.82957 0
M  V30 8653 N 811.477 -1.49425 0.500989 0
M  V30 8654 C 812.702 -2.07356 -0.0425154 0
M  V30 8655 C 813.127 -1.35887 -1.30063 0
M  V30 8656 O 812.485 -0.41561 -1.76472 0
M  V30 8657 C 812.533 -3.59518 -0.279188 0
M  V30 8658 O 811.637 -3.89542 -1.3539 0
M  V30 8659 H 810.978 -0.663482 0.0262207 0
M  V30 8660 H 813.508 -1.92231 0.700607 0
M  V30 8661 H 813.518 -4.04791 -0.5107 0
M  V30 8662 H 812.193 -4.10946 0.640009 0
M  V30 8663 H 810.77 -3.56079 -1.10734 0
M  V30 8664 N 812.955 -0.234822 -1.55841 0
M  V30 8665 C 814.203 0.392483 -1.98252 0
M  V30 8666 C 814.524 1.59344 -1.12404 0
M  V30 8667 O 813.794 1.94834 -0.204055 0
M  V30 8668 H 812.374 0.147999 -0.732192 0
M  V30 8669 H 815.036 -0.330804 -1.92072 0
M  V30 8670 H 814.132 0.709829 -3.03921 0
M  V30 8671 N 814.433 1.57553 0.0384317 0
M  V30 8672 C 815.396 2.04927 1.02653 0
M  V30 8673 C 816.396 0.951768 1.29607 0
M  V30 8674 O 817.586 1.21568 1.24768 0
M  V30 8675 C 814.718 2.45828 2.36181 0
M  V30 8676 H 815.911 2.93474 0.617508 0
M  V30 8677 H 813.464 1.53679 0.285031 0
M  V30 8678 H 814.199 1.60408 2.8185 0
M  V30 8679 H 813.984 3.25945 2.1795 0
M  V30 8680 H 815.474 2.82939 3.0714 0
M  V30 8681 N 815.911 -0.310526 1.54511 0
M  V30 8682 C 817.322 -0.884142 1.64438 0
M  V30 8683 C 817.673 -1.88425 0.546855 0
M  V30 8684 O 816.798 -2.14049 -0.31811 0
M  V30 8685 C 817.393 -1.6104 2.9808 0
M  V30 8686 C 815.952 -2.13255 3.1016 0
M  V30 8687 C 815.099 -0.96213 2.60074 0
M  V30 8688 H 818.05 -0.0877666 1.58457 0
M  V30 8689 H 818.071 -2.47541 2.8897 0
M  V30 8690 H 817.583 -0.882255 3.77939 0
M  V30 8691 H 815.684 -2.89145 2.35002 0
M  V30 8692 H 815.797 -2.37361 4.16169 0
M  V30 8693 H 814.161 -1.34501 2.16291 0
M  V30 8694 H 814.944 -0.248098 3.42402 0
M  V30 8695 N 817.389 -1.46805 -0.573248 0
M  V30 8696 C 818.352 -1.57655 -1.66366 0
M  V30 8697 C 819.352 -0.452905 -1.5429 0
M  V30 8698 O 820.542 -0.717502 -1.58737 0
M  V30 8699 C 817.674 -1.50584 -3.05839 0
M  V30 8700 H 818.867 -2.54842 -1.581 0
M  V30 8701 H 816.42 -1.34756 -0.791868 0
M  V30 8702 H 817.155 -0.547127 -3.19651 0
M  V30 8703 H 816.94 -2.32118 -3.16012 0
M  V30 8704 H 818.43 -1.61282 -3.85199 0
M  V30 8705 N 818.867 0.818669 -1.34668 0
M  V30 8706 C 819.83 1.9114 -1.26483 0
M  V30 8707 C 820.83 1.598 -0.179044 0
M  V30 8708 O 822.02 1.6876 -0.431952 0
M  V30 8709 C 819.152 3.27285 -0.95381 0
M  V30 8710 H 820.345 1.9982 -2.23634 0
M  V30 8711 H 817.898 1.01314 -1.19018 0
M  V30 8712 H 818.633 3.24297 0.0143428 0
M  V30 8713 H 818.418 3.51416 -1.73924 0
M  V30 8714 H 819.908 4.07299 -0.921827 0
M  V30 8715 N 820.346 1.18468 1.03938 0
M  V30 8716 C 821.757 0.984808 1.58614 0
M  V30 8717 C 822.108 -0.465165 1.90606 0
M  V30 8718 O 821.233 -1.34274 1.69704 0
M  V30 8719 C 821.828 1.78135 2.8819 0
M  V30 8720 C 820.387 1.62579 3.39478 0
M  V30 8721 C 819.534 1.77501 2.13046 0
M  V30 8722 H 822.485 1.32993 0.865944 0
M  V30 8723 H 822.506 1.27119 3.58638 0
M  V30 8724 H 822.018 2.83661 2.64874 0
M  V30 8725 H 820.119 0.59595 3.67803 0
M  V30 8726 H 820.232 2.42463 4.13217 0
M  V30 8727 H 818.596 1.2046 2.24414 0
M  V30 8728 H 819.379 2.84464 1.92185 0
M  V30 8729 N 821.824 -1.22873 0.986916 0
M  V30 8730 C 822.754 -2.2688 0.552064 0
M  V30 8731 C 823.735 -1.64883 -0.418048 0
M  V30 8732 O 824.92 -1.9171 -0.30999 0
M  V30 8733 C 822.05 -3.47018 -0.139959 0
M  V30 8734 C 821.004 -4.21411 0.748091 0
M  V30 8735 C 820.33 -5.34645 -0.0765132 0
M  V30 8736 C 821.63 -4.80726 2.04206 0
M  V30 8737 H 823.324 -2.63507 1.42143 0
M  V30 8738 H 820.87 -1.26668 0.68492 0
M  V30 8739 H 822.823 -4.18931 -0.455527 0
M  V30 8740 H 821.547 -3.0947 -1.04382 0
M  V30 8741 H 820.206 -3.51325 1.04721 0
M  V30 8742 H 819.854 -4.93339 -0.981109 0
M  V30 8743 H 819.554 -5.85342 0.514606 0
M  V30 8744 H 821.078 -6.09377 -0.386313 0
M  V30 8745 H 822.492 -5.44612 1.79083 0
M  V30 8746 H 820.889 -5.41737 2.5815 0
M  V30 8747 H 821.959 -4.01109 2.72469 0
M  V30 8748 N 823.302 -0.75937 -1.38099 0
M  V30 8749 C 824.234 -0.0956547 -2.29 0
M  V30 8750 C 825.247 0.677561 -1.4803 0
M  V30 8751 O 826.436 0.517696 -1.70828 0
M  V30 8752 C 823.536 0.88844 -3.27047 0
M  V30 8753 C 822.709 0.171652 -4.37063 0
M  V30 8754 C 821.768 1.06733 -5.15262 0
M  V30 8755 O 820.794 0.535698 -5.66674 0
M  V30 8756 N 821.996 2.39486 -5.28797 0
M  V30 8757 H 824.761 -0.876354 -2.86601 0
M  V30 8758 H 822.322 -0.61065 -1.49942 0
M  V30 8759 H 824.314 1.49079 -3.76241 0
M  V30 8760 H 822.884 1.57018 -2.70304 0
M  V30 8761 H 822.104 -0.611473 -3.89429 0
M  V30 8762 H 823.392 -0.324121 -5.07767 0
M  V30 8763 H 822.79 2.85127 -4.88589 0
M  V30 8764 H 821.347 2.94758 -5.81344 0
M  V30 8765 O 824.819 1.47821 -0.650476 0
M  V30 8766 H 825.51 1.92907 -0.175142 0
M  V30 END ATOM
M  V30 BEGIN BOND
M  V30 END BOND
M  V30 END CTAB
M  END
$$$$
