drugbank_target|Q13554 Calcium/calmodulin-dependent protein kinase type II subunit beta (DB07168; DB12010)
 OpenBabel12092120403D

  0  0  0     0  0            999 V3000
M  V30 BEGIN CTAB
M  V30 COUNTS 10198 10325 0 0 0
M  V30 BEGIN ATOM
M  V30 1 H -0.908 1.98254 -0.117106 0
M  V30 2 N 0 1.576 0 0
M  V30 3 C 0.933 2.03868 1.02534 0
M  V30 4 C 1.911 0.928543 1.3348 0
M  V30 5 O 3.095 1.19667 1.45644 0
M  V30 6 C 0.222 2.43627 2.35294 0
M  V30 7 C -0.732 3.65373 2.2001 0
M  V30 8 S 0.101 5.13292 1.52614 0
M  V30 9 C 1.257 5.56322 2.86805 0
M  V30 10 H 1.49 2.90518 0.631377 0
M  V30 11 H -0.977 1.52953 0.210867 0
M  V30 12 H 0.981 2.67203 3.11629 0
M  V30 13 H -0.358 1.57376 2.7183 0
M  V30 14 H -1.165 3.90944 3.18086 0
M  V30 15 H -1.563 3.418 1.51819 0
M  V30 16 H 0.729 5.58782 3.83104 0
M  V30 17 H 1.672 6.56266 2.65933 0
M  V30 18 H 2.08 4.83886 2.90714 0
M  V30 19 N 1.4781 -0.272755 1.55222 0
M  V30 20 C 2.4411 -1.32041 1.87344 0
M  V30 21 C 3.4411 -1.42342 0.74803 0
M  V30 22 O 4.6311 -1.41488 1.0162 0
M  V30 23 C 1.7631 -2.70173 2.07893 0
M  V30 24 H 2.9561 -1.04789 2.80997 0
M  V30 25 H 0.5091 -0.51083 1.47717 0
M  V30 26 H 1.2441 -3.02605 1.16622 0
M  V30 27 H 1.0291 -2.64082 2.89833 0
M  V30 28 H 2.5191 -3.45869 2.34017 0
M  V30 29 N 2.9562 -1.48159 -0.537278 0
M  V30 30 C 4.1842 -1.59454 -1.31841 0
M  V30 31 C 4.5992 -0.252065 -1.8711 0
M  V30 32 O 3.9562 0.757621 -1.66031 0
M  V30 33 C 4.0072 -2.63546 -2.47439 0
M  V30 34 O 3.7282 -3.92583 -1.94449 0
M  V30 35 C 5.2292 -2.85212 -3.39366 0
M  V30 36 H 2.4492 -0.53785 -0.401196 0
M  V30 37 H 4.9932 -1.93932 -0.648891 0
M  V30 38 H 3.1482 -2.31946 -3.1029 0
M  V30 39 H 3.5622 -4.49629 -2.70063 0
M  V30 40 H 5.0362 -3.61863 -4.16844 0
M  V30 41 H 5.5132 -1.93765 -3.94147 0
M  V30 42 H 6.1192 -3.18086 -2.82314 0
M  V30 43 N 4.4343 0.785586 -1.36625 0
M  V30 44 C 5.6623 1.57448 -1.3423 0
M  V30 45 C 6.0773 1.88649 0.0755653 0
M  V30 46 O 5.4343 1.50414 1.03354 0
M  V30 47 C 5.4853 2.89316 -2.16745 0
M  V30 48 O 5.2063 2.59459 -3.53005 0
M  V30 49 C 6.7073 3.83606 -2.22174 0
M  V30 50 H 3.9273 0.488226 -0.4603 0
M  V30 51 H 6.4713 0.974733 -1.79775 0
M  V30 52 H 4.6263 3.4575 -1.74745 0
M  V30 53 H 5.0403 3.43804 -3.96105 0
M  V30 54 H 6.5143 4.73181 -2.8426 0
M  V30 55 H 6.9913 4.21734 -1.22627 0
M  V30 56 H 7.5973 3.33104 -2.64427 0
M  V30 57 N 5.9124 1.20967 1.01018 0
M  V30 58 C 7.1584 1.02526 1.74975 0
M  V30 59 C 7.4914 -0.4408 1.89131 0
M  V30 60 O 6.7664 -1.32718 1.42184 0
M  V30 61 C 7.0494 1.71699 3.1653 0
M  V30 62 C 6.9024 3.25791 3.10129 0
M  V30 63 C 8.2214 1.45531 4.15342 0
M  V30 64 H 5.3404 0.373863 0.635134 0
M  V30 65 H 7.9824 1.49071 1.17805 0
M  V30 66 H 6.1324 1.32128 3.65341 0
M  V30 67 H 7.8044 3.74697 2.69072 0
M  V30 68 H 6.0474 3.56363 2.47362 0
M  V30 69 H 6.7184 3.69353 4.10222 0
M  V30 70 H 9.1944 1.79872 3.75213 0
M  V30 71 H 8.0704 1.96453 5.1254 0
M  V30 72 H 8.3314 0.384237 4.40427 0
M  V30 73 N 7.3905 -1.2043 1.01659 0
M  V30 74 C 8.6185 -1.93777 0.725132 0
M  V30 75 C 9.0335 -1.74772 -0.714166 0
M  V30 76 O 8.3905 -1.06169 -1.4844 0
M  V30 77 C 8.4415 -3.45876 1.05129 0
M  V30 78 O 8.1625 -3.6426 2.43406 0
M  V30 79 C 9.6635 -4.36368 0.780891 0
M  V30 80 H 6.8835 -0.615901 0.266284 0
M  V30 81 H 9.4275 -1.52922 1.35776 0
M  V30 82 H 7.5825 -3.8461 0.464065 0
M  V30 83 H 7.9965 -4.58246 2.55169 0
M  V30 84 H 9.4705 -5.41743 1.05918 0
M  V30 85 H 9.9475 -4.38275 -0.284937 0
M  V30 86 H 10.5535 -4.03296 1.35027 0
M  V30 87 N 8.8686 -0.792821 -1.36206 0
M  V30 88 C 10.1086 -0.372238 -2.00982 0
M  V30 89 C 10.4726 1.03749 -1.61555 0
M  V30 90 O 11.6736 1.55934 -2.18948 0
M  V30 91 C 9.9446 -0.534566 -3.5338 0
M  V30 92 S 11.5036 -0.202365 -4.38333 0
M  V30 93 H 8.3216 -0.142044 -0.696667 0
M  V30 94 H 10.9236 -1.03206 -1.66039 0
M  V30 95 H 9.6276 -1.5608 -3.79562 0
M  V30 96 H 9.1586 0.141065 -3.93147 0
M  V30 97 H 11.1736 0.994869 -4.86124 0
M  V30 98 N 10.3467 1.47872 -0.545128 0
M  V30 99 C 11.5747 2.06889 -0.021084 0
M  V30 100 C 11.9897 1.39955 1.2672 0
M  V30 101 O 11.3467 0.492036 1.75742 0
M  V30 102 C 11.3977 3.60996 0.190817 0
M  V30 103 O 11.1187 4.25419 -1.04644 0
M  V30 104 C 12.6197 4.36849 0.753521 0
M  V30 105 H 9.8397 0.669785 -0.0403635 0
M  V30 106 H 12.3837 1.90049 -0.755095 0
M  V30 107 H 10.5387 3.77391 0.87492 0
M  V30 108 H 10.9527 5.17785 -0.836611 0
M  V30 109 H 12.4267 5.45399 0.851139 0
M  V30 110 H 12.9037 4.02306 1.762 0
M  V30 111 H 13.5097 4.25169 0.105503 0
M  V30 112 N 11.8248 0.280983 1.55075 0
M  V30 113 C 13.2408 -0.0729964 1.59433 0
M  V30 114 C 13.4408 -1.5411 1.29817 0
M  V30 115 O 12.4968 -2.29086 1.06187 0
M  V30 116 C 13.8098 0.306921 2.9913 0
M  V30 117 C 15.3578 0.254023 3.11968 0
M  V30 118 C 15.8328 0.608467 4.5394 0
M  V30 119 N 17.3238 0.560241 4.59799 0
M  V30 120 C 18.0588 0.80722 5.6769 0
M  V30 121 N 17.5548 1.11912 6.83701 0
M  V30 122 N 19.3478 0.735623 5.57266 0
M  V30 123 H 11.4988 1.238 1.7259 0
M  V30 124 H 13.7618 0.500547 0.805082 0
M  V30 125 H 13.4678 1.32816 3.25657 0
M  V30 126 H 13.3418 -0.349363 3.75579 0
M  V30 127 H 15.7288 -0.75794 2.852 0
M  V30 128 H 15.8098 0.944649 2.37718 0
M  V30 129 H 15.4538 1.61814 4.81434 0
M  V30 130 H 15.3838 -0.104013 5.26497 0
M  V30 131 H 17.8748 0.329288 3.76463 0
M  V30 132 H 18.1878 1.29409 7.61888 0
M  V30 133 H 16.5328 1.15695 6.85303 0
M  V30 134 H 19.7238 0.491752 4.6551 0
M  V30 135 H 19.8968 0.931482 6.4127 0
M  V30 136 N 13.3029 -1.57598 0.00835791 0
M  V30 137 C 14.5499 -1.90928 -0.674732 0
M  V30 138 C 14.8779 -0.88277 -1.73313 0
M  V30 139 O 14.1329 0.111294 -1.95383 0
M  V30 140 C 14.4319 -3.3101 -1.34787 0
M  V30 141 C 14.0979 -4.48922 -0.421861 0
M  V30 142 C 12.7599 -4.8091 -0.166927 0
M  V30 143 C 15.1119 -5.20755 0.215211 0
M  V30 144 C 12.4399 -5.821 0.733232 0
M  V30 145 C 14.7919 -6.22905 1.1033 0
M  V30 146 C 13.4559 -6.53346 1.36733 0
M  V30 147 H 12.7259 -0.698656 -0.246902 0
M  V30 148 H 15.3729 -1.91387 0.0656779 0
M  V30 149 H 13.6779 -3.26714 -2.16253 0
M  V30 150 H 15.3749 -3.54061 -1.8826 0
M  V30 151 H 11.9649 -4.23934 -0.630729 0
M  V30 152 H 16.1489 -4.9629 0.0312829 0
M  V30 153 H 11.4049 -6.04042 0.945712 0
M  V30 154 H 15.5789 -6.77694 1.60325 0
M  V30 155 H 13.2059 -7.31573 2.06652 0
M  V30 156 N 14.781 0.264519 -1.55364 0
M  V30 157 C 16.009 1.013 -1.80405 0
M  V30 158 C 16.424 1.79618 -0.581622 0
M  V30 159 O 15.781 1.76879 0.449468 0
M  V30 160 C 15.832 1.96487 -3.03439 0
M  V30 161 O 15.553 1.21341 -4.20961 0
M  V30 162 C 17.054 2.83079 -3.41147 0
M  V30 163 H 14.274 0.298875 -0.600762 0
M  V30 164 H 16.818 0.292736 -2.02394 0
M  V30 165 H 14.973 2.63965 -2.83551 0
M  V30 166 H 15.387 1.85573 -4.90574 0
M  V30 167 H 16.861 3.4565 -4.30384 0
M  V30 168 H 17.338 3.53286 -2.60932 0
M  V30 169 H 17.944 2.2108 -3.63323 0
M  V30 170 N 16.2591 1.48442 0.529413 0
M  V30 171 C 17.5361 1.46978 1.29062 0
M  V30 172 C 17.9161 0.181769 2.10316 0
M  V30 173 O 17.2641 -0.836481 2.12639 0
M  V30 174 C 17.4741 2.7321 2.17157 0
M  V30 175 C 18.8221 3.21562 2.77278 0
M  V30 176 O 19.8461 2.74131 2.27444 0
M  V30 177 O 18.7051 4.04094 3.67927 0
M  V30 178 H 15.7991 0.587003 0.582543 0
M  V30 179 H 18.3451 1.60676 0.546021 0
M  V30 180 H 17.1171 3.58465 1.56903 0
M  V30 181 H 16.7401 2.62235 2.98862 0
M  V30 182 N 17.7372 -0.778329 1.37039 0
M  V30 183 C 18.6472 -1.92253 1.34446 0
M  V30 184 C 19.6632 -1.72267 0.244991 0
M  V30 185 O 20.8392 -1.95615 0.479258 0
M  V30 186 C 17.9042 -3.27282 1.144 0
M  V30 187 C 16.9652 -3.59969 2.33925 0
M  V30 188 C 16.1982 -4.88555 2.14825 0
M  V30 189 O 16.4212 -5.59113 1.12912 0
M  V30 190 O 15.3552 -5.20153 3.02861 0
M  V30 191 H 19.1812 -1.97392 2.30803 0
M  V30 192 H 16.7662 -0.920154 1.17701 0
M  V30 193 H 18.6482 -4.08062 1.05182 0
M  V30 194 H 17.3232 -3.23011 0.211124 0
M  V30 195 H 16.2302 -2.7945 2.48714 0
M  V30 196 H 17.5632 -3.68976 3.25757 0
M  V30 197 N 19.2153 -1.21501 -1.00376 0
M  V30 198 C 20.4453 -1.05746 -1.77486 0
M  V30 199 C 20.8533 0.395655 -1.85017 0
M  V30 200 O 20.1963 1.28626 -1.31152 0
M  V30 201 C 20.2583 -1.58092 -3.22873 0
M  V30 202 C 19.9223 -3.06568 -3.38917 0
M  V30 203 C 20.9193 -4.04106 -3.271 0
M  V30 204 C 18.6043 -3.45799 -3.64319 0
M  V30 205 C 20.5983 -5.38862 -3.40451 0
M  V30 206 C 18.2853 -4.80707 -3.77311 0
M  V30 207 C 19.2833 -5.77047 -3.65384 0
M  V30 208 O 18.9713 -7.09507 -3.77961 0
M  V30 209 H 18.7033 -0.371778 -0.564586 0
M  V30 210 H 21.2573 -1.61319 -1.27143 0
M  V30 211 H 19.4873 -0.969163 -3.74358 0
M  V30 212 H 21.1763 -1.38162 -3.81662 0
M  V30 213 H 21.9423 -3.75141 -3.07399 0
M  V30 214 H 17.8213 -2.71344 -3.72684 0
M  V30 215 H 21.3653 -6.14041 -3.31058 0
M  V30 216 H 17.2623 -5.09357 -3.96517 0
M  V30 217 H 18.0303 -7.16935 -3.94901 0
M  V30 218 N 20.6934 1.19889 -1.02296 0
M  V30 219 C 21.6254 2.22334 -0.556787 0
M  V30 220 C 22.6384 1.58674 0.364199 0
M  V30 221 O 23.8274 1.77768 0.161533 0
M  V30 222 C 20.9274 3.38257 0.208694 0
M  V30 223 C 20.1004 4.31504 -0.71577 0
M  V30 224 C 19.1594 5.262 0.00325597 0
M  V30 225 O 18.1854 5.65798 -0.621357 0
M  V30 226 N 19.3874 5.66303 1.27599 0
M  V30 227 H 22.1524 2.62957 -1.43784 0
M  V30 228 H 19.7134 1.34495 -0.901261 0
M  V30 229 H 21.7054 3.98616 0.699111 0
M  V30 230 H 20.2754 2.96472 0.991102 0
M  V30 231 H 19.4954 3.69016 -1.38638 0
M  V30 232 H 20.7834 4.9072 -1.34428 0
M  V30 233 H 20.1814 5.36155 1.80429 0
M  V30 234 H 18.7384 6.28942 1.71102 0
M  V30 235 N 22.1715 0.800033 1.35784 0
M  V30 236 C 23.1015 0.220184 2.3246 0
M  V30 237 C 24.0825 -0.65073 1.57161 0
M  V30 238 O 25.2675 -0.582359 1.85263 0
M  V30 239 C 22.3975 -0.637353 3.41402 0
M  V30 240 C 21.3515 0.134531 4.27789 0
M  V30 241 C 20.6775 -0.844285 5.27992 0
M  V30 242 C 21.9775 1.32979 5.05088 0
M  V30 243 H 23.6715 1.02787 2.81203 0
M  V30 244 H 21.2175 0.495717 1.35199 0
M  V30 245 H 23.1705 -1.05302 4.08031 0
M  V30 246 H 21.8945 -1.47785 2.91251 0
M  V30 247 H 20.5535 0.531296 3.6273 0
M  V30 248 H 20.2015 -1.68011 4.74111 0
M  V30 249 H 19.9015 -0.332184 5.8666 0
M  V30 250 H 21.4255 -1.2583 5.97494 0
M  V30 251 H 22.8395 0.98934 5.64699 0
M  V30 252 H 21.2365 1.77593 5.7322 0
M  V30 253 H 22.3065 2.11978 4.36111 0
M  V30 254 N 23.6496 -1.47581 0.552962 0
M  V30 255 C 24.8796 -2.06575 0.0320091 0
M  V30 256 C 25.2876 -1.4067 -1.26525 0
M  V30 257 O 24.6306 -0.495808 -1.76883 0
M  V30 258 C 24.6926 -3.58705 -0.238913 0
M  V30 259 C 24.3566 -4.46625 0.968272 0
M  V30 260 C 25.3536 -4.85 1.87274 0
M  V30 261 C 23.0386 -4.88201 1.18175 0
M  V30 262 C 25.0326 -5.63745 2.9744 0
M  V30 263 C 22.7196 -5.66712 2.28651 0
M  V30 264 C 23.7176 -6.04394 3.18114 0
M  V30 265 O 23.4056 -6.81324 4.26676 0
M  V30 266 H 23.1376 -0.674763 0.0408689 0
M  V30 267 H 25.6916 -1.90634 0.764719 0
M  V30 268 H 23.9216 -3.72844 -1.02588 0
M  V30 269 H 25.6106 -3.99735 -0.704731 0
M  V30 270 H 26.3766 -4.53482 1.71984 0
M  V30 271 H 22.2556 -4.58339 0.494593 0
M  V30 272 H 25.7996 -5.93077 3.67296 0
M  V30 273 H 21.6966 -5.97642 2.43915 0
M  V30 274 H 22.4646 -6.99712 4.24671 0
M  V30 275 N 25.1277 -0.289203 -1.54924 0
M  V30 276 C 26.0377 0.601863 -2.26748 0
M  V30 277 C 27.0537 1.15834 -1.2984 0
M  V30 278 O 28.2297 1.18564 -1.62802 0
M  V30 279 C 25.2947 1.76299 -2.98529 0
M  V30 280 C 24.3557 1.24178 -4.10948 0
M  V30 281 C 23.5887 2.34757 -4.79296 0
M  V30 282 O 23.8117 3.54411 -4.46933 0
M  V30 283 O 22.7457 2.02115 -5.66951 0
M  V30 284 H 26.5717 0.0195879 -3.03694 0
M  V30 285 H 24.1567 -0.0560868 -1.49295 0
M  V30 286 H 26.0387 2.43973 -3.43592 0
M  V30 287 H 24.7137 2.33209 -2.24488 0
M  V30 288 H 23.6207 0.531104 -3.70311 0
M  V30 289 H 24.9537 0.718252 -4.86931 0
M  V30 290 N 26.6058 1.57591 -0.0167156 0
M  V30 291 C 27.8828 1.82547 0.702564 0
M  V30 292 C 28.2628 0.898018 1.91047 0
M  V30 293 O 27.6108 -0.0493456 2.28447 0
M  V30 294 C 27.8208 3.31459 1.09251 0
M  V30 295 C 29.1688 3.97622 1.48937 0
M  V30 296 O 30.1928 3.35881 1.18584 0
M  V30 297 O 29.0518 5.06415 2.05442 0
M  V30 298 H 26.1458 0.752268 0.343544 0
M  V30 299 H 28.6918 1.69644 -0.0434495 0
M  V30 300 H 27.4638 3.9061 0.23227 0
M  V30 301 H 27.0868 3.49422 1.89709 0
M  V30 302 N 28.0839 -0.256276 1.55502 0
M  V30 303 C 29.3329 -0.983486 1.76098 0
M  V30 304 C 29.6459 -1.86837 0.578896 0
M  V30 305 O 30.8519 -2.63163 0.667648 0
M  V30 306 C 29.3079 -1.79868 3.1173 0
M  V30 307 C 28.9159 -0.961648 4.37557 0
M  V30 308 C 30.6599 -2.51919 3.41668 0
M  V30 309 C 28.5669 -1.77219 5.64223 0
M  V30 310 H 27.4969 -0.370936 0.656447 0
M  V30 311 H 30.1479 -0.238492 1.81944 0
M  V30 312 H 28.5299 -2.58527 2.99966 0
M  V30 313 H 29.7039 -0.218048 4.60284 0
M  V30 314 H 28.0189 -0.354913 4.14885 0
M  V30 315 H 30.6159 -3.12998 4.33516 0
M  V30 316 H 30.9589 -3.23059 2.62562 0
M  V30 317 H 31.4919 -1.80278 3.54605 0
M  V30 318 H 28.2309 -1.10471 6.46124 0
M  V30 319 H 27.7509 -2.49132 5.45613 0
M  V30 320 H 29.4299 -2.34169 6.03137 0
M  V30 321 N 29.562 -1.4872 -0.521534 0
M  V30 322 C 30.81 -1.56857 -1.27437 0
M  V30 323 C 31.131 -0.247982 -1.93417 0
M  V30 324 O 30.401 0.731151 -1.81744 0
M  V30 325 H 28.981 -0.577885 -0.473347 0
M  V30 326 H 31.643 -1.85233 -0.606205 0
M  V30 327 H 30.739 -2.35402 -2.0492 0
M  V30 328 N 31.0401 0.771051 -1.3745 0
M  V30 329 C 31.9871 1.88435 -1.3327 0
M  V30 330 C 32.9571 1.64914 -0.198136 0
M  V30 331 O 34.1421 1.86821 -0.387606 0
M  V30 332 C 31.2821 3.25509 -1.14622 0
M  V30 333 C 30.3951 3.60979 -2.37314 0
M  V30 334 C 29.5301 4.87265 -2.11533 0
M  V30 335 C 28.5691 5.15469 -3.30088 0
M  V30 336 N 27.7061 6.32944 -3.03853 0
M  V30 337 H 32.5461 1.91344 -2.28455 0
M  V30 338 H 30.0831 0.935466 -1.13523 0
M  V30 339 H 32.0411 4.04582 -1.01831 0
M  V30 340 H 30.6711 3.21974 -0.230837 0
M  V30 341 H 29.7231 2.76885 -2.60842 0
M  V30 342 H 31.0351 3.77759 -3.25729 0
M  V30 343 H 30.1891 5.74244 -1.95777 0
M  V30 344 H 28.9281 4.7259 -1.20457 0
M  V30 345 H 27.9331 4.26966 -3.46382 0
M  V30 346 H 29.1581 5.32052 -4.22016 0
M  V30 347 H 27.1041 6.19625 -2.15407 0
M  V30 348 H 27.0211 6.50143 -3.85812 0
M  V30 349 H 28.2891 7.22857 -2.91716 0
M  V30 350 N 32.5182 1.22032 0.997298 0
M  V30 351 C 33.7662 1.04016 1.73278 0
M  V30 352 C 34.0872 -0.426255 1.90284 0
M  V30 353 O 33.3572 -1.30694 1.45931 0
M  V30 354 H 31.9372 0.381897 0.642 0
M  V30 355 H 34.5992 1.5347 1.20137 0
M  V30 356 H 33.6952 1.51441 2.72896 0
M  V30 357 N 33.9963 -1.19345 1.0293 0
M  V30 358 C 34.9593 -2.20793 0.615069 0
M  V30 359 C 35.9593 -1.57553 -0.321533 0
M  V30 360 O 37.1493 -1.73862 -0.108483 0
M  V30 361 C 34.2813 -3.40754 -0.0999222 0
M  V30 362 H 35.4743 -2.58955 1.51269 0
M  V30 363 H 33.0273 -1.3303 0.820534 0
M  V30 364 H 33.7623 -3.0811 -1.01187 0
M  V30 365 H 33.5473 -3.87889 0.57309 0
M  V30 366 H 35.0373 -4.15898 -0.376645 0
M  V30 367 N 35.4744 -0.807222 -1.35358 0
M  V30 368 C 36.7214 -0.387888 -1.9875 0
M  V30 369 C 37.0494 1.04509 -1.64037 0
M  V30 370 O 36.3044 1.73986 -0.895946 0
M  V30 371 C 36.6034 -0.519036 -3.53611 0
M  V30 372 C 36.2694 -1.91542 -4.08194 0
M  V30 373 C 34.9314 -2.29745 -4.22813 0
M  V30 374 C 37.2834 -2.82896 -4.37744 0
M  V30 375 C 34.6114 -3.58668 -4.643 0
M  V30 376 C 36.9634 -4.11265 -4.8067 0
M  V30 377 C 35.6274 -4.49466 -4.93494 0
M  V30 378 H 34.8974 -0.141938 -0.727279 0
M  V30 379 H 37.5444 -1.02814 -1.6156 0
M  V30 380 H 35.8494 0.204658 -3.91265 0
M  V30 381 H 37.5464 -0.175345 -4.00616 0
M  V30 382 H 34.1364 -1.60862 -3.97268 0
M  V30 383 H 38.3204 -2.54629 -4.26002 0
M  V30 384 H 33.5764 -3.88113 -4.72418 0
M  V30 385 H 37.7504 -4.82153 -5.02496 0
M  V30 386 H 35.3774 -5.49418 -5.25399 0
M  V30 387 N 36.9525 1.47285 -0.560781 0
M  V30 388 C 38.1775 2.07359 -0.0410566 0
M  V30 389 C 38.6025 1.41017 1.24483 0
M  V30 390 O 37.9605 0.486368 1.74654 0
M  V30 391 C 38.0085 3.6035 0.134123 0
M  V30 392 O 37.1125 3.94681 1.19587 0
M  V30 393 H 36.4535 0.661887 -0.0529291 0
M  V30 394 H 38.9835 1.89252 -0.777482 0
M  V30 395 H 38.9935 4.0652 0.347207 0
M  V30 396 H 37.6685 4.08034 -0.805047 0
M  V30 397 H 36.2455 3.60251 0.962987 0
M  V30 398 N 38.4306 0.297415 1.54768 0
M  V30 399 C 39.6766 -0.313376 2.00364 0
M  V30 400 C 40.0096 -1.53815 1.18553 0
M  V30 401 O 39.2846 -1.92739 0.261103 0
M  V30 402 C 39.5676 -0.673525 3.53745 0
M  V30 403 C 39.4206 0.560133 4.46299 0
M  V30 404 C 40.7396 -1.50143 4.13697 0
M  V30 405 H 37.8586 -0.112428 0.728374 0
M  V30 406 H 40.5006 0.4088 1.8555 0
M  V30 407 H 38.6506 -1.28881 3.665 0
M  V30 408 H 40.3226 1.19863 4.45455 0
M  V30 409 H 38.5656 1.19405 4.17043 0
M  V30 410 H 39.2366 0.26405 5.51368 0
M  V30 411 H 41.7126 -0.981588 4.04356 0
M  V30 412 H 40.5886 -1.72221 5.21182 0
M  V30 413 H 40.8496 -2.48952 3.65343 0
M  V30 414 N 39.9087 -1.5758 0.0250728 0
M  V30 415 C 41.1547 -1.91917 -0.655413 0
M  V30 416 C 41.4877 -0.901433 -1.72011 0
M  V30 417 O 40.7627 0.0764069 -1.9435 0
M  V30 418 C 41.0457 -3.36751 -1.27558 0
M  V30 419 C 40.8987 -4.49258 -0.220719 0
M  V30 420 C 42.2177 -3.81469 -2.19475 0
M  V30 421 H 39.3367 -0.697925 -0.23679 0
M  V30 422 H 41.9787 -1.89825 0.0815036 0
M  V30 423 H 40.1287 -3.38664 -1.90365 0
M  V30 424 H 41.8007 -4.59478 0.409601 0
M  V30 425 H 40.0437 -4.31415 0.454264 0
M  V30 426 H 40.7147 -5.47618 -0.694175 0
M  V30 427 H 43.1907 -3.81266 -1.66659 0
M  V30 428 H 42.0667 -4.83512 -2.59822 0
M  V30 429 H 42.3277 -3.16744 -3.08424 0
M  V30 430 N 41.3868 0.248026 -1.55636 0
M  V30 431 C 42.8028 0.596483 -1.48035 0
M  V30 432 C 43.0028 1.88386 -0.715039 0
M  V30 433 O 42.0588 2.51319 -0.243944 0
M  V30 434 C 43.3718 0.700258 -2.92433 0
M  V30 435 C 44.9198 0.792659 -3.02797 0
M  V30 436 C 45.3948 0.928005 -4.485 0
M  V30 437 N 46.8858 0.992903 -4.52433 0
M  V30 438 C 47.6208 1.11687 -5.62418 0
M  V30 439 N 47.1168 1.20645 -6.82214 0
M  V30 440 N 48.9098 1.14994 -5.50212 0
M  V30 441 H 41.0608 -0.597109 -2.03834 0
M  V30 442 H 43.3238 -0.205925 -0.925364 0
M  V30 443 H 43.0298 -0.175658 -3.51261 0
M  V30 444 H 42.9038 1.57255 -3.42857 0
M  V30 445 H 45.2908 1.65903 -2.4405 0
M  V30 446 H 45.3718 -0.104762 -2.55585 0
M  V30 447 H 45.0158 0.0661971 -5.07857 0
M  V30 448 H 44.9458 1.84045 -4.93391 0
M  V30 449 H 47.4368 0.935064 -3.66149 0
M  V30 450 H 47.7498 1.30008 -7.61786 0
M  V30 451 H 46.0948 1.17605 -6.84977 0
M  V30 452 H 49.2858 1.07643 -4.55555 0
M  V30 453 H 49.4588 1.24311 -6.35965 0
M  V30 454 N 42.8649 1.48995 0.513639 0
M  V30 455 C 44.2809 1.35478 0.843682 0
M  V30 456 C 44.4809 0.378213 1.97919 0
M  V30 457 O 43.5369 -0.194689 2.51748 0
M  V30 458 C 44.8499 2.75901 1.1958 0
M  V30 459 C 46.3979 2.84509 1.30474 0
M  V30 460 C 46.8729 4.25671 1.69021 0
M  V30 461 N 48.3639 4.28422 1.76094 0
M  V30 462 C 49.0989 5.34601 2.07338 0
M  V30 463 N 48.5949 6.5104 2.36894 0
M  V30 464 N 50.3879 5.22007 2.08483 0
M  V30 465 H 42.5389 2.11092 -0.235328 0
M  V30 466 H 44.8019 0.947039 -0.0426669 0
M  V30 467 H 44.5079 3.49001 0.434913 0
M  V30 468 H 44.3819 3.10467 2.1422 0
M  V30 469 H 46.7689 2.11655 2.05637 0
M  V30 470 H 46.8499 2.53542 0.339155 0
M  V30 471 H 46.4939 4.99048 0.944135 0
M  V30 472 H 46.4239 4.54094 2.66658 0
M  V30 473 H 48.9149 3.44441 1.55464 0
M  V30 474 H 49.2279 7.2779 2.59887 0
M  V30 475 H 47.5729 6.54287 2.34378 0
M  V30 476 H 50.7639 4.30051 1.84861 0
M  V30 477 H 50.9369 6.04854 2.325 0
M  V30 478 N 44.343 -0.763751 1.37857 0
M  V30 479 C 45.583 -1.53551 1.34913 0
M  V30 480 C 45.947 -1.91895 -0.0635882 0
M  V30 481 O 47.148 -2.67916 -0.217825 0
M  V30 482 C 45.419 -2.76126 2.26912 0
M  V30 483 S 46.978 -3.66105 2.41893 0
M  V30 484 H 43.796 -0.52559 0.478828 0
M  V30 485 H 46.398 -0.897435 1.73685 0
M  V30 486 H 45.102 -2.4605 3.28463 0
M  V30 487 H 44.633 -3.44887 1.89253 0
M  V30 488 H 46.648 -4.68473 1.63545 0
M  V30 489 N 45.8211 -1.22559 -0.990812 0
M  V30 490 C 47.0671 -1.05297 -1.73322 0
M  V30 491 C 47.4001 0.410655 -1.89808 0
M  V30 492 O 46.6751 1.30439 -1.44277 0
M  V30 493 C 46.9581 -1.76713 -3.13759 0
M  V30 494 C 46.8111 -3.30684 -3.04907 0
M  V30 495 C 48.1301 -1.52121 -4.12974 0
M  V30 496 H 45.2491 -0.38392 -0.629106 0
M  V30 497 H 47.8911 -1.50926 -1.15418 0
M  V30 498 H 46.0411 -1.37924 -3.63193 0
M  V30 499 H 47.7131 -3.7893 -2.63077 0
M  V30 500 H 45.9561 -3.60253 -2.41661 0
M  V30 501 H 46.6271 -3.75833 -4.04294 0
M  V30 502 H 49.1031 -1.85819 -3.72304 0
M  V30 503 H 47.9791 -2.04582 -5.0935 0
M  V30 504 H 48.2401 -0.454257 -4.3976 0
M  V30 505 N 47.2992 1.18797 -1.03562 0
M  V30 506 C 48.2462 2.22253 -0.622259 0
M  V30 507 C 49.2162 1.61987 0.36736 0
M  V30 508 O 50.4012 1.88986 0.262492 0
M  V30 509 C 47.5412 3.45097 0.0138462 0
M  V30 510 C 46.6542 4.19722 -1.02263 0
M  V30 511 C 45.7892 5.30009 -0.355573 0
M  V30 512 C 44.8282 5.96399 -1.37749 0
M  V30 513 N 43.9652 6.98234 -0.735766 0
M  V30 514 H 48.8052 2.56968 -1.50903 0
M  V30 515 H 46.3422 1.26245 -0.755017 0
M  V30 516 H 48.3002 4.15279 0.399948 0
M  V30 517 H 46.9302 3.11018 0.864158 0
M  V30 518 H 45.9822 3.48418 -1.52673 0
M  V30 519 H 47.2942 4.65227 -1.79903 0
M  V30 520 H 46.4482 6.0664 0.0850095 0
M  V30 521 H 45.1872 4.85592 0.452967 0
M  V30 522 H 44.1922 5.18512 -1.82826 0
M  V30 523 H 45.4172 6.42899 -2.18764 0
M  V30 524 H 43.3632 6.55979 0.0525597 0
M  V30 525 H 43.2802 7.41965 -1.44995 0
M  V30 526 H 44.5482 7.78845 -0.31941 0
M  V30 527 N 48.7773 0.814389 1.34928 0
M  V30 528 C 49.7073 0.244827 2.32213 0
M  V30 529 C 50.6883 -0.634024 1.57842 0
M  V30 530 O 51.8733 -0.562676 1.8587 0
M  V30 531 C 49.0033 -0.601106 3.42058 0
M  V30 532 C 47.9573 0.179896 4.27622 0
M  V30 533 C 47.2833 -0.788237 5.28858 0
M  V30 534 C 48.5833 1.38329 5.03649 0
M  V30 535 H 50.2773 1.05763 2.80097 0
M  V30 536 H 47.8233 0.510029 1.34665 0
M  V30 537 H 49.7763 -1.00968 4.09125 0
M  V30 538 H 48.5003 -1.44688 2.92802 0
M  V30 539 H 47.1593 0.569739 3.62146 0
M  V30 540 H 46.8073 -1.62973 4.75866 0
M  V30 541 H 46.5073 -0.269942 5.8698 0
M  V30 542 H 48.0313 -1.19485 5.98795 0
M  V30 543 H 49.4453 1.04918 5.63618 0
M  V30 544 H 47.8423 1.83662 5.71304 0
M  V30 545 H 48.9123 2.16592 4.33839 0
M  V30 546 N 50.2554 -1.46986 0.568584 0
M  V30 547 C 51.4954 -2.04336 0.0512999 0
M  V30 548 C 51.8594 -1.43214 -1.27881 0
M  V30 549 O 53.0604 -1.91679 -1.88448 0
M  V30 550 C 51.3314 -3.57389 -0.0282328 0
M  V30 551 S 52.8904 -4.36056 -0.489991 0
M  V30 552 H 49.7084 -0.71034 0.0306349 0
M  V30 553 H 52.3104 -1.80212 0.757891 0
M  V30 554 H 51.0144 -3.99395 0.944011 0
M  V30 555 H 50.5454 -3.86028 -0.75803 0
M  V30 556 H 52.5604 -4.6441 -1.74752 0
M  V30 557 N 51.7335 -0.305618 -1.54608 0
M  V30 558 C 52.9615 0.304775 -2.04643 0
M  V30 559 C 53.3765 1.47167 -1.18268 0
M  V30 560 O 52.7335 1.81296 -0.209328 0
M  V30 561 C 52.7845 0.756564 -3.53495 0
M  V30 562 O 52.5055 -0.36389 -4.36586 0
M  V30 563 C 54.0065 1.43163 -4.19546 0
M  V30 564 H 51.2265 0.0655481 -0.667791 0
M  V30 565 H 53.7705 -0.446592 -1.99564 0
M  V30 566 H 51.9255 1.45794 -3.58919 0
M  V30 567 H 52.3395 -0.0113121 -5.24499 0
M  V30 568 H 53.8135 1.69886 -5.25207 0
M  V30 569 H 54.2905 2.37318 -3.69563 0
M  V30 570 H 54.8965 0.773307 -4.18211 0
M  V30 571 N 53.2116 1.57565 -0.0334293 0
M  V30 572 C 54.4596 1.91598 0.642999 0
M  V30 573 C 54.7806 0.910847 1.7242 0
M  V30 574 O 54.0506 -0.0469931 1.95844 0
M  V30 575 H 52.6306 0.707228 0.240496 0
M  V30 576 H 55.2926 1.94726 -0.0822488 0
M  V30 577 H 54.3886 2.92336 1.09298 0
M  V30 578 N 54.6897 -0.239769 1.55765 0
M  V30 579 C 55.6397 -1.30002 1.87306 0
M  V30 580 C 56.6237 -1.43156 0.73452 0
M  V30 581 O 57.8157 -1.46277 0.99659 0
M  V30 582 C 54.9447 -2.65409 2.17745 0
M  V30 583 C 54.0307 -2.56231 3.37945 0
M  V30 584 N 54.4217 -2.16689 4.57033 0
M  V30 585 C 52.7197 -2.87229 3.41197 0
M  V30 586 C 53.4207 -2.18318 5.39177 0
M  V30 587 N 52.3967 -2.58098 4.78421 0
M  V30 588 H 56.1987 -0.984912 2.76906 0
M  V30 589 H 53.7127 -0.448381 1.56087 0
M  V30 590 H 55.7097 -3.41934 2.38509 0
M  V30 591 H 54.3697 -2.97781 1.29448 0
M  V30 592 H 55.3807 -1.88116 4.82528 0
M  V30 593 H 52.0577 -3.24094 2.63191 0
M  V30 594 H 53.4477 -1.90025 6.44469 0
M  V30 595 N 56.1678 -1.49265 -0.50573 0
M  V30 596 C 57.0778 -1.68312 -1.63427 0
M  V30 597 C 58.0938 -0.565682 -1.64548 0
M  V30 598 O 59.2698 -0.839801 -1.83055 0
M  V30 599 C 56.3348 -1.74107 -2.99813 0
M  V30 600 C 55.3958 -2.97653 -3.09356 0
M  V30 601 C 54.6288 -3.03163 -4.39236 0
M  V30 602 O 54.8518 -2.16396 -5.27758 0
M  V30 603 O 53.7858 -3.9558 -4.53652 0
M  V30 604 H 57.6118 -2.63907 -1.50289 0
M  V30 605 H 55.1968 -1.32951 -0.681502 0
M  V30 606 H 57.0788 -1.803 -3.80881 0
M  V30 607 H 55.7538 -0.816901 -3.13223 0
M  V30 608 H 54.6608 -2.96981 -2.27493 0
M  V30 609 H 55.9938 -3.89535 -3.00871 0
M  V30 610 N 57.6459 0.756429 -1.3826 0
M  V30 611 C 58.8759 1.54341 -1.3734 0
M  V30 612 C 59.2839 1.89159 0.0393917 0
M  V30 613 O 58.6269 1.5307 1.01565 0
M  V30 614 C 58.6889 2.87238 -2.16182 0
M  V30 615 C 58.3529 2.74973 -3.65019 0
M  V30 616 C 59.3499 2.44962 -4.58574 0
M  V30 617 C 57.0349 2.92515 -4.08338 0
M  V30 618 C 59.0289 2.32642 -5.93428 0
M  V30 619 C 56.7159 2.79815 -5.43274 0
M  V30 620 C 57.7139 2.49921 -6.35632 0
M  V30 621 O 57.4019 2.37275 -7.68086 0
M  V30 622 H 57.1339 0.484281 -0.471643 0
M  V30 623 H 59.6879 0.944152 -1.82414 0
M  V30 624 H 57.9179 3.49342 -1.65822 0
M  V30 625 H 59.6069 3.48731 -2.07705 0
M  V30 626 H 60.3729 2.31081 -4.26412 0
M  V30 627 H 56.2519 3.14781 -3.368 0
M  V30 628 H 59.7959 2.0923 -6.65484 0
M  V30 629 H 55.6929 2.93269 -5.75034 0
M  V30 630 H 56.4609 2.52509 -7.78577 0
M  V30 631 N 59.124 1.23083 0.984299 0
M  V30 632 C 60.087 1.00979 2.05757 0
M  V30 633 C 61.087 -0.0269573 1.60777 0
M  V30 634 O 62.277 0.212403 1.729 0
M  V30 635 C 59.409 0.527072 3.36801 0
M  V30 636 H 60.602 1.9622 2.26799 0
M  V30 637 H 58.155 1.05072 1.15714 0
M  V30 638 H 58.89 -0.429294 3.21446 0
M  V30 639 H 58.675 1.27515 3.70786 0
M  V30 640 H 60.165 0.392942 4.15747 0
M  V30 641 N 60.6021 -1.18246 1.0419 0
M  V30 642 C 61.5651 -2.20128 0.638452 0
M  V30 643 C 62.5651 -1.57885 -0.304805 0
M  V30 644 O 63.7551 -1.73967 -0.0900369 0
M  V30 645 C 60.8871 -3.4084 -0.0637751 0
M  V30 646 H 62.0801 -2.57336 1.54007 0
M  V30 647 H 59.6331 -1.32152 0.834598 0
M  V30 648 H 60.3681 -3.09166 -0.979136 0
M  V30 649 H 60.1531 -3.8726 0.614198 0
M  V30 650 H 61.6431 -4.16274 -0.332512 0
M  V30 651 N 62.0802 -0.821533 -1.34494 0
M  V30 652 C 63.0272 -0.240397 -2.29545 0
M  V30 653 C 63.9972 0.634031 -1.53523 0
M  V30 654 O 65.1822 0.575966 -1.81899 0
M  V30 655 C 62.3222 0.592869 -3.39969 0
M  V30 656 C 61.4352 -0.30365 -4.30932 0
M  V30 657 C 60.5702 0.539049 -5.28458 0
M  V30 658 C 59.6092 -0.356942 -6.11058 0
M  V30 659 N 58.7462 0.446603 -7.00678 0
M  V30 660 H 63.5862 -1.05632 -2.7865 0
M  V30 661 H 61.1232 -0.532413 -1.37127 0
M  V30 662 H 63.0812 1.09129 -4.02675 0
M  V30 663 H 61.7112 1.37392 -2.92102 0
M  V30 664 H 60.7632 -0.920276 -3.691 0
M  V30 665 H 62.0752 -0.992661 -4.88823 0
M  V30 666 H 61.2292 1.102 -5.96608 0
M  V30 667 H 59.9682 1.26157 -4.71101 0
M  V30 668 H 58.9732 -0.932047 -5.41842 0
M  V30 669 H 60.1982 -1.07755 -6.70497 0
M  V30 670 H 58.1442 1.15282 -6.45791 0
M  V30 671 H 58.0612 -0.184048 -7.55776 0
M  V30 672 H 59.3292 0.992352 -7.73158 0
M  V30 673 N 63.5583 1.46682 -0.576371 0
M  V30 674 C 64.8073 2.01619 -0.0572825 0
M  V30 675 C 65.1203 1.45417 1.30818 0
M  V30 676 O 66.3263 1.92133 1.91825 0
M  V30 677 C 64.7823 3.59863 -0.0518371 0
M  V30 678 C 64.3903 4.25059 -1.41523 0
M  V30 679 C 66.1343 4.2248 0.413639 0
M  V30 680 C 64.0413 5.75364 -1.36785 0
M  V30 681 H 62.9713 0.753794 -0.0176448 0
M  V30 682 H 65.6223 1.68481 -0.727076 0
M  V30 683 H 64.0043 3.90048 0.683994 0
M  V30 684 H 65.1783 4.06491 -2.17029 0
M  V30 685 H 63.4933 3.7451 -1.8202 0
M  V30 686 H 66.0903 5.3265 0.467779 0
M  V30 687 H 66.4333 3.90976 1.42982 0
M  V30 688 H 66.9663 3.96897 -0.267929 0
M  V30 689 H 63.7053 6.11518 -2.36063 0
M  V30 690 H 63.2253 5.96214 -0.654895 0
M  V30 691 H 64.9043 6.37955 -1.07805 0
M  V30 692 N 65.0364 0.313813 1.54444 0
M  V30 693 C 66.2854 -0.292519 1.99568 0
M  V30 694 C 66.5984 -1.54011 1.20582 0
M  V30 695 O 67.8044 -2.22183 1.56035 0
M  V30 696 C 66.2604 -0.571752 3.55329 0
M  V30 697 C 65.8684 0.658229 4.43138 0
M  V30 698 C 67.6124 -1.13857 4.08946 0
M  V30 699 C 65.5194 0.351439 5.90355 0
M  V30 700 H 64.4494 -0.113079 0.745472 0
M  V30 701 H 67.1004 0.424518 1.78522 0
M  V30 702 H 65.4824 -1.34872 3.72325 0
M  V30 703 H 66.6564 1.43403 4.37918 0
M  V30 704 H 64.9714 1.14458 4.0036 0
M  V30 705 H 67.5684 -1.38257 5.16516 0
M  V30 706 H 67.9114 -2.08489 3.6033 0
M  V30 707 H 68.4444 -0.423015 3.95544 0
M  V30 708 H 65.1834 1.26667 6.43145 0
M  V30 709 H 64.7034 -0.386842 5.98551 0
M  V30 710 H 66.3824 -0.0423134 6.46986 0
M  V30 711 N 66.5145 -1.57545 0.0417849 0
M  V30 712 C 67.4625 -2.12148 -0.953723 0
M  V30 713 C 68.4565 -1.05104 -1.32852 0
M  V30 714 O 69.6625 -1.23524 -1.30927 0
M  V30 715 H 66.0375 -0.677957 -0.325389 0
M  V30 716 H 68.0085 -2.94707 -0.467991 0
M  V30 717 C 66.7575 -2.6739 -2.22257 0
M  V30 718 H 66.0805 -3.49413 -1.94295 0
M  V30 719 H 67.5205 -3.09227 -2.90094 0
M  V30 720 C 65.9795 -1.60723 -2.96091 0
M  V30 721 O 66.5095 -1.01449 -3.88679 0
M  V30 722 N 64.7155 -1.32466 -2.58652 0
M  V30 723 H 64.2625 -1.80856 -1.83437 0
M  V30 724 H 64.2205 -0.61325 -3.08361 0
M  V30 725 N 67.9926 0.231505 -1.5589 0
M  V30 726 C 69.2206 0.974505 -1.82513 0
M  V30 727 C 69.6356 1.78344 -0.619591 0
M  V30 728 O 68.9926 1.77792 0.411848 0
M  V30 729 C 69.0436 1.90007 -3.07538 0
M  V30 730 O 68.7646 1.12385 -4.2344 0
M  V30 731 C 70.2656 2.75779 -3.47075 0
M  V30 732 H 67.4856 0.286065 -0.606966 0
M  V30 733 H 70.0296 0.249739 -2.02969 0
M  V30 734 H 68.1846 2.57891 -2.89086 0
M  V30 735 H 68.5986 1.75125 -4.944 0
M  V30 736 H 70.0726 3.36443 -4.37619 0
M  V30 737 H 70.5496 3.47672 -2.68367 0
M  V30 738 H 71.1556 2.13323 -3.67931 0
M  V30 739 N 69.4707 1.49531 0.497807 0
M  V30 740 C 70.4177 1.66436 1.59899 0
M  V30 741 C 71.3877 0.505793 1.58212 0
M  V30 742 O 72.5727 0.733202 1.7615 0
M  V30 743 C 69.7127 1.7399 2.98029 0
M  V30 744 C 68.8257 3.01172 3.09708 0
M  V30 745 C 67.9607 2.99686 4.38591 0
M  V30 746 C 66.9997 4.21434 4.43914 0
M  V30 747 N 66.1367 4.1784 5.64229 0
M  V30 748 H 70.9767 2.60459 1.44793 0
M  V30 749 H 68.5137 1.29137 0.704423 0
M  V30 750 H 70.4717 1.76352 3.78095 0
M  V30 751 H 69.1017 0.834301 3.11832 0
M  V30 752 H 68.1537 3.08408 2.22685 0
M  V30 753 H 69.4657 3.91165 3.09502 0
M  V30 754 H 68.6197 3.00628 5.2698 0
M  V30 755 H 67.3587 2.07477 4.41367 0
M  V30 756 H 66.3637 4.20733 3.53926 0
M  V30 757 H 67.5887 5.14839 4.42851 0
M  V30 758 H 65.5347 3.28469 5.67841 0
M  V30 759 H 65.4517 5.01571 5.65652 0
M  V30 760 H 66.7197 4.22889 6.54817 0
M  V30 761 N 70.9488 -0.749086 1.3866 0
M  V30 762 C 71.8958 -1.86291 1.36251 0
M  V30 763 C 72.8658 -1.64578 0.224347 0
M  V30 764 O 74.0508 -1.86181 0.417279 0
M  V30 765 C 71.1908 -3.23644 1.19786 0
M  V30 766 C 70.3038 -3.57158 2.43027 0
M  V30 767 C 69.4388 -4.83838 2.19258 0
M  V30 768 C 68.4778 -5.10152 3.38247 0
M  V30 769 N 67.6148 -6.28029 3.13884 0
M  V30 770 H 72.4548 -1.87685 2.3147 0
M  V30 771 H 69.9918 -0.917287 1.14997 0
M  V30 772 H 71.9498 -4.0291 1.08254 0
M  V30 773 H 70.5798 -3.21566 0.282031 0
M  V30 774 H 69.6318 -2.72701 2.65214 0
M  V30 775 H 70.9438 -3.7253 3.31697 0
M  V30 776 H 70.0978 -5.71057 2.04888 0
M  V30 777 H 68.8368 -4.70614 1.2796 0
M  V30 778 H 67.8418 -4.21401 3.53131 0
M  V30 779 H 69.0668 -5.25271 4.30427 0
M  V30 780 H 67.0128 -6.1612 2.25238 0
M  V30 781 H 66.9298 -6.43922 3.96106 0
M  V30 782 H 68.1978 -7.18124 3.03179 0
M  V30 783 N 72.4269 -1.23603 -0.977757 0
M  V30 784 C 73.3569 -1.04401 -2.0886 0
M  V30 785 C 74.3379 0.0399052 -1.70053 0
M  V30 786 O 75.5229 -0.125246 -1.93796 0
M  V30 787 C 72.6529 -0.637269 -3.41403 0
M  V30 788 C 71.6069 -1.66883 -3.94124 0
M  V30 789 C 70.9329 -1.11745 -5.22893 0
M  V30 790 C 72.2329 -3.06247 -4.23096 0
M  V30 791 H 73.9269 -1.97316 -2.25182 0
M  V30 792 H 71.4729 -0.950096 -1.08209 0
M  V30 793 H 73.4259 -0.48998 -4.18542 0
M  V30 794 H 72.1499 0.327557 -3.24953 0
M  V30 795 H 70.8089 -1.80416 -3.19133 0
M  V30 796 H 70.4569 -0.143527 -5.02795 0
M  V30 797 H 70.1569 -1.80672 -5.59134 0
M  V30 798 H 71.6809 -0.982067 -6.02651 0
M  V30 799 H 73.0949 -2.96001 -4.90975 0
M  V30 800 H 71.4919 -3.72436 -4.70544 0
M  V30 801 H 72.5619 -3.55041 -3.30263 0
M  V30 802 N 73.905 1.17692 -1.04816 0
M  V30 803 C 75.13 1.92327 -0.776207 0
M  V30 804 C 75.555 1.76082 0.661581 0
M  V30 805 O 74.913 1.076 1.45917 0
M  V30 806 C 74.961 3.41539 -1.15687 0
M  V30 807 O 74.065 4.11402 -0.286775 0
M  V30 808 H 73.406 0.599735 -0.284981 0
M  V30 809 H 75.936 1.49201 -1.4 0
M  V30 810 H 75.946 3.92269 -1.12202 0
M  V30 811 H 74.621 3.52684 -2.20425 0
M  V30 812 H 73.198 3.70939 -0.381903 0
M  V30 813 N 75.3831 0.828654 1.34056 0
M  V30 814 C 76.3461 0.259927 2.27721 0
M  V30 815 C 77.3461 -0.565478 1.50529 0
M  V30 816 O 78.5361 -0.38075 1.69988 0
M  V30 817 C 75.6681 -0.634944 3.34935 0
M  V30 818 H 76.8611 1.0863 2.79534 0
M  V30 819 H 74.4141 0.600951 1.44285 0
M  V30 820 H 75.1491 -1.48416 2.88346 0
M  V30 821 H 74.9341 -0.0444999 3.92075 0
M  V30 822 H 76.4241 -1.02648 4.04788 0
M  V30 823 N 76.8612 -1.46375 0.584142 0
M  V30 824 C 78.2772 -1.57694 0.245929 0
M  V30 825 C 78.4772 -1.57903 -1.25175 0
M  V30 826 O 77.5332 -1.49676 -2.03355 0
M  V30 827 C 78.8462 -2.87028 0.896402 0
M  V30 828 C 80.3942 -3.00662 0.870127 0
M  V30 829 C 80.8692 -4.32734 1.50017 0
M  V30 830 N 82.3602 -4.39436 1.46458 0
M  V30 831 C 83.0952 -5.40248 1.92144 0
M  V30 832 N 82.5912 -6.47726 2.4581 0
M  V30 833 N 84.3842 -5.31459 1.83052 0
M  V30 834 H 76.5352 -1.44483 1.55687 0
M  V30 835 H 78.7982 -0.689291 0.650831 0
M  V30 836 H 78.5042 -2.9269 1.95002 0
M  V30 837 H 78.3782 -3.75014 0.405486 0
M  V30 838 H 80.7652 -2.94581 -0.174871 0
M  V30 839 H 80.8462 -2.14148 1.39908 0
M  V30 840 H 80.4902 -4.39573 2.54437 0
M  V30 841 H 80.4202 -5.18025 0.946432 0
M  V30 842 H 82.9112 -3.62367 1.07231 0
M  V30 843 H 83.2242 -7.20863 2.78525 0
M  V30 844 H 81.5692 -6.48542 2.49836 0
M  V30 845 H 84.7602 -4.46396 1.40883 0
M  V30 846 H 84.9332 -6.09881 2.18973 0
M  V30 847 N 78.3393 -0.321999 -1.54275 0
M  V30 848 C 79.6163 0.335232 -1.92706 0
M  V30 849 C 79.9963 1.70006 -1.25145 0
M  V30 850 O 79.3443 2.25067 -0.394596 0
M  V30 851 C 79.5543 0.429008 -3.46353 0
M  V30 852 C 80.9023 0.690029 -4.18956 0
M  V30 853 O 81.9263 0.511992 -3.52501 0
M  V30 854 O 80.7853 1.03338 -5.36641 0
M  V30 855 H 77.8793 0.191143 -0.804608 0
M  V30 856 H 80.4253 -0.3716 -1.65581 0
M  V30 857 H 79.1973 -0.529611 -3.87699 0
M  V30 858 H 78.8203 1.18348 -3.79578 0
M  V30 859 N 79.8174 1.5752 -0.0501392 0
M  V30 860 C 80.7674 2.07981 0.934231 0
M  V30 861 C 81.7514 0.984745 1.27246 0
M  V30 862 O 82.9434 1.24809 1.25506 0
M  V30 863 C 80.0724 2.62751 2.20945 0
M  V30 864 C 79.1584 3.79225 1.89865 0
M  V30 865 N 79.5494 4.89036 1.29142 0
M  V30 866 C 77.8474 3.88111 2.19741 0
M  V30 867 C 78.5484 5.70084 1.15669 0
M  V30 868 N 77.5244 5.17659 1.65923 0
M  V30 869 H 81.3264 2.90277 0.460053 0
M  V30 870 H 78.8404 1.61665 0.15434 0
M  V30 871 H 80.8374 2.97205 2.9236 0
M  V30 872 H 79.4974 1.81894 2.6897 0
M  V30 873 H 80.5084 5.08854 0.963756 0
M  V30 874 H 77.1854 3.18194 2.70293 0
M  V30 875 H 78.5754 6.68395 0.685356 0
M  V30 876 N 81.2955 -0.223234 1.56011 0
M  V30 877 C 82.2275 -1.30006 1.88762 0
M  V30 878 C 83.2405 -1.43129 0.775746 0
M  V30 879 O 84.4295 -1.44057 1.05403 0
M  V30 880 C 81.5295 -2.67589 2.07965 0
M  V30 881 C 80.7025 -2.76434 3.38973 0
M  V30 882 C 79.7615 -3.95019 3.47629 0
M  V30 883 O 78.7875 -3.83436 4.20672 0
M  V30 884 N 79.9895 -5.09249 2.78649 0
M  V30 885 H 82.7545 -1.02238 2.81722 0
M  V30 886 H 80.3155 -0.413278 1.56536 0
M  V30 887 H 82.3075 -3.45297 2.11073 0
M  V30 888 H 80.8775 -2.87964 1.21638 0
M  V30 889 H 80.0975 -1.85216 3.47978 0
M  V30 890 H 81.3855 -2.79313 4.25278 0
M  V30 891 H 80.7835 -5.21556 2.19081 0
M  V30 892 H 79.3405 -5.85007 2.8742 0
M  V30 893 N 82.7736 -1.49793 -0.48987 0
M  V30 894 C 83.7206 -1.67281 -1.59014 0
M  V30 895 C 84.6906 -0.514177 -1.57941 0
M  V30 896 O 85.8756 -0.742533 -1.75759 0
M  V30 897 C 83.0156 -1.75569 -2.97102 0
M  V30 898 C 82.1286 -3.0281 -3.08107 0
M  V30 899 C 81.2636 -3.02008 -4.36995 0
M  V30 900 C 80.3026 -4.23782 -4.41673 0
M  V30 901 N 79.4396 -4.20826 -5.62005 0
M  V30 902 H 84.2796 -2.61224 -1.43409 0
M  V30 903 H 81.8166 -1.29508 -0.697565 0
M  V30 904 H 83.7746 -1.78354 -3.77155 0
M  V30 905 H 82.4046 -0.850827 -3.11385 0
M  V30 906 H 81.4566 -3.09584 -2.21047 0
M  V30 907 H 82.7686 -3.92801 -3.07423 0
M  V30 908 H 81.9226 -3.03418 -5.25378 0
M  V30 909 H 80.6616 -2.09815 -4.4026 0
M  V30 910 H 79.6666 -4.22604 -3.5169 0
M  V30 911 H 80.8916 -5.17181 -4.40115 0
M  V30 912 H 78.8376 -3.31476 -5.66091 0
M  V30 913 H 78.7546 -5.04564 -5.62984 0
M  V30 914 H 80.0226 -4.26355 -6.52565 0
M  V30 915 N 84.2517 0.741722 -1.39055 0
M  V30 916 C 85.1817 1.869 -1.39966 0
M  V30 917 C 86.1627 1.6804 -0.26392 0
M  V30 918 O 87.3477 1.88458 -0.468755 0
M  V30 919 C 84.4777 3.24572 -1.23574 0
M  V30 920 C 83.4317 3.58056 -2.34477 0
M  V30 921 C 82.7577 4.94593 -2.0318 0
M  V30 922 C 84.0577 3.61716 -3.76774 0
M  V30 923 H 85.7517 1.86395 -2.34302 0
M  V30 924 H 83.2977 0.895361 -1.1278 0
M  V30 925 H 85.2507 4.031 -1.22834 0
M  V30 926 H 83.9747 3.25587 -0.257045 0
M  V30 927 H 82.6337 2.81854 -2.34423 0
M  V30 928 H 82.2817 4.92181 -1.03765 0
M  V30 929 H 81.9817 5.17964 -2.77465 0
M  V30 930 H 83.5057 5.75486 -2.04079 0
M  V30 931 H 84.9197 4.30335 -3.78794 0
M  V30 932 H 83.3167 3.96603 -4.50362 0
M  V30 933 H 84.3867 2.61672 -4.08235 0
M  V30 934 N 85.7298 1.2412 0.971189 0
M  V30 935 C 86.6398 1.04747 2.09917 0
M  V30 936 C 87.6558 -0.0107162 1.73997 0
M  V30 937 O 88.8318 0.186714 2.00533 0
M  V30 938 C 85.8968 0.650828 3.40537 0
M  V30 939 C 84.9578 1.7851 3.90426 0
M  V30 940 C 84.1908 1.40729 5.14812 0
M  V30 941 O 84.4138 0.29557 5.69634 0
M  V30 942 O 83.3478 2.23168 5.58999 0
M  V30 943 H 87.1738 1.99304 2.29154 0
M  V30 944 H 84.7588 1.02908 1.08307 0
M  V30 945 H 86.6408 0.440992 4.19086 0
M  V30 946 H 85.3158 -0.265649 3.22608 0
M  V30 947 H 84.2228 2.04966 3.12953 0
M  V30 948 H 85.5558 2.68023 4.12825 0
M  V30 949 N 87.2079 -1.17134 1.05439 0
M  V30 950 C 88.6239 -1.39454 0.776201 0
M  V30 951 C 88.8239 -1.91454 -0.628307 0
M  V30 952 O 87.8799 -2.10777 -1.39031 0
M  V30 953 C 89.1929 -2.38305 1.83388 0
M  V30 954 C 90.7409 -2.52006 1.85639 0
M  V30 955 C 91.2159 -3.54133 2.90437 0
M  V30 956 N 92.7069 -3.61653 2.89415 0
M  V30 957 C 93.4419 -4.4044 3.67152 0
M  V30 958 N 92.9379 -5.22721 4.54681 0
M  V30 959 N 94.7309 -4.35337 3.55581 0
M  V30 960 H 86.8819 -0.817134 1.96053 0
M  V30 961 H 89.1449 -0.421626 0.849079 0
M  V30 962 H 88.8509 -2.07173 2.84204 0
M  V30 963 H 88.7249 -3.37841 1.67761 0
M  V30 964 H 91.1119 -2.82447 0.85486 0
M  V30 965 H 91.1929 -1.52537 2.05344 0
M  V30 966 H 90.8369 -3.24431 3.90777 0
M  V30 967 H 90.7669 -4.53313 2.67983 0
M  V30 968 H 93.2579 -3.02909 2.25952 0
M  V30 969 H 93.5709 -5.80027 5.10674 0
M  V30 970 H 91.9159 -5.22093 4.58741 0
M  V30 971 H 95.1069 -3.70112 2.86592 0
M  V30 972 H 95.2799 -4.96494 4.1641 0
M  V30 973 N 88.686 -0.835752 -1.33615 0
M  V30 974 C 89.596 -0.269088 -2.33052 0
M  V30 975 C 90.612 0.603251 -1.63208 0
M  V30 976 O 91.788 0.508112 -1.94885 0
M  V30 977 C 88.853 0.549091 -3.42324 0
M  V30 978 C 87.914 -0.347156 -4.27894 0
M  V30 979 C 87.147 0.43207 -5.31948 0
M  V30 980 O 87.37 1.66409 -5.45586 0
M  V30 981 O 86.304 -0.192298 -6.01593 0
M  V30 982 H 90.13 -1.09243 -2.83372 0
M  V30 983 H 87.715 -0.598198 -1.36901 0
M  V30 984 H 89.597 1.01414 -4.09015 0
M  V30 985 H 88.272 1.34955 -2.94226 0
M  V30 986 H 87.179 -0.859979 -3.64081 0
M  V30 987 H 88.512 -1.1123 -4.79467 0
M  V30 988 N 90.1641 1.46063 -0.591896 0
M  V30 989 C 91.1271 2.28854 0.125973 0
M  V30 990 C 92.1271 1.38903 0.810107 0
M  V30 991 O 93.3171 1.61186 0.66066 0
M  V30 992 C 90.4491 3.19526 1.1881 0
M  V30 993 H 91.6421 2.93802 -0.601717 0
M  V30 994 H 89.1951 1.52325 -0.350254 0
M  V30 995 H 89.9301 2.59345 1.94707 0
M  V30 996 H 89.7151 3.85766 0.701936 0
M  V30 997 H 91.2051 3.81817 1.69132 0
M  V30 998 N 91.6422 0.330177 1.54103 0
M  V30 999 C 93.0582 -0.0222371 1.59585 0
M  V30 1000 C 93.2582 -1.49902 1.34654 0
M  V30 1001 O 92.3142 -2.25592 1.13421 0
M  V30 1002 C 93.6272 0.401932 2.98002 0
M  V30 1003 C 95.1752 0.353145 3.11001 0
M  V30 1004 C 95.6502 0.752576 4.51775 0
M  V30 1005 N 97.1412 0.706239 4.57784 0
M  V30 1006 C 97.8762 0.987417 5.64834 0
M  V30 1007 N 97.3722 1.33607 6.79795 0
M  V30 1008 N 99.1652 0.91254 5.54643 0
M  V30 1009 H 91.3162 1.29228 1.68564 0
M  V30 1010 H 93.5792 0.525906 0.78875 0
M  V30 1011 H 93.2852 1.4311 3.21267 0
M  V30 1012 H 93.1592 -0.229699 3.765 0
M  V30 1013 H 95.5462 -0.666822 2.87467 0
M  V30 1014 H 95.6272 1.0198 2.34593 0
M  V30 1015 H 95.2712 1.77049 4.76042 0
M  V30 1016 H 95.2012 0.0635409 5.26562 0
M  V30 1017 H 97.6922 0.44889 3.75224 0
M  V30 1018 H 98.0052 1.53582 7.57385 0
M  V30 1019 H 96.3502 1.37439 6.81275 0
M  V30 1020 H 99.5412 0.639601 4.6371 0
M  V30 1021 H 99.7142 1.13503 6.37982 0
M  V30 1022 N 93.1203 -1.57491 0.0584922 0
M  V30 1023 C 94.3693 -1.92155 -0.613146 0
M  V30 1024 C 94.6823 -0.939334 -1.71569 0
M  V30 1025 O 95.8883 -1.17829 -2.44599 0
M  V30 1026 C 94.3443 -3.41303 -1.14195 0
M  V30 1027 C 93.9523 -4.47944 -0.0711265 0
M  V30 1028 C 95.6963 -3.84988 -1.78841 0
M  V30 1029 C 93.6033 -5.88212 -0.613225 0
M  V30 1030 H 92.5333 -0.717162 -0.232796 0
M  V30 1031 H 95.1843 -1.83049 0.12857 0
M  V30 1032 H 93.5663 -3.45437 -1.93621 0
M  V30 1033 H 94.7403 -4.55408 0.702836 0
M  V30 1034 H 93.0553 -4.13644 0.478313 0
M  V30 1035 H 95.6523 -4.87159 -2.20408 0
M  V30 1036 H 95.9953 -3.21632 -2.64308 0
M  V30 1037 H 96.5283 -3.83401 -1.06059 0
M  V30 1038 H 93.2673 -6.55183 0.203978 0
M  V30 1039 H 92.7873 -5.84294 -1.35501 0
M  V30 1040 H 94.4663 -6.37687 -1.09383 0
M  V30 1041 N 94.5984 0.214957 -1.56127 0
M  V30 1042 C 95.8384 0.945364 -1.81224 0
M  V30 1043 C 96.2024 1.81265 -0.633005 0
M  V30 1044 O 97.4034 2.57731 -0.763423 0
M  V30 1045 C 95.6744 1.75665 -3.1125 0
M  V30 1046 S 97.2334 2.54179 -3.57685 0
M  V30 1047 H 94.0514 0.317443 -0.6362 0
M  V30 1048 H 96.6534 0.210381 -1.94365 0
M  V30 1049 H 95.3574 1.10977 -3.9511 0
M  V30 1050 H 94.8884 2.53381 -3.00934 0
M  V30 1051 H 96.9034 3.7792 -3.21545 0
M  V30 1052 N 96.0765 1.50051 0.48192 0
M  V30 1053 C 97.4925 1.37237 0.814756 0
M  V30 1054 C 97.6925 0.420109 1.97072 0
M  V30 1055 O 96.7485 -0.141246 2.52105 0
M  V30 1056 C 98.0615 2.78375 1.13701 0
M  V30 1057 C 99.6095 2.87213 1.2441 0
M  V30 1058 C 100.084 4.29161 1.59954 0
M  V30 1059 N 101.575 4.32061 1.66967 0
M  V30 1060 C 102.31 5.38879 1.95952 0
M  V30 1061 N 101.806 6.55918 2.23031 0
M  V30 1062 N 103.599 5.26312 1.97363 0
M  V30 1063 H 95.7505 2.10546 -0.28005 0
M  V30 1064 H 98.0135 0.945921 -0.0627454 0
M  V30 1065 H 97.7195 3.49845 0.360787 0
M  V30 1066 H 97.5935 3.14941 2.07586 0
M  V30 1067 H 99.9805 2.15969 2.01101 0
M  V30 1068 H 100.061 2.54204 0.285299 0
M  V30 1069 H 99.7055 5.00938 0.838067 0
M  V30 1070 H 99.6355 4.59648 2.56966 0
M  V30 1071 H 102.126 3.47661 1.48123 0
M  V30 1072 H 102.439 7.33139 2.44391 0
M  V30 1073 H 100.784 6.59112 2.20447 0
M  V30 1074 H 103.975 4.33876 1.75697 0
M  V30 1075 H 104.148 6.09649 2.19618 0
M  V30 1076 N 97.5546 -0.734337 1.39446 0
M  V30 1077 C 98.4846 -1.86155 1.40955 0
M  V30 1078 C 99.4656 -1.67898 0.272827 0
M  V30 1079 O 100.651 -1.88207 0.478743 0
M  V30 1080 C 97.7806 -3.23912 1.25294 0
M  V30 1081 C 96.7346 -3.56808 2.36373 0
M  V30 1082 C 96.0606 -4.93508 2.058 0
M  V30 1083 C 97.3606 -3.59713 3.78687 0
M  V30 1084 H 99.0546 -1.8515 2.35287 0
M  V30 1085 H 96.6006 -0.889367 1.13253 0
M  V30 1086 H 98.5536 -4.02443 1.2497 0
M  V30 1087 H 97.2776 -3.25446 0.274308 0
M  V30 1088 H 95.9366 -2.80606 2.35914 0
M  V30 1089 H 95.5846 -4.91623 1.06374 0
M  V30 1090 H 95.2846 -5.16486 2.80208 0
M  V30 1091 H 96.8086 -5.74396 2.07128 0
M  V30 1092 H 98.2226 -4.2832 3.81071 0
M  V30 1093 H 96.6196 -3.94209 4.52459 0
M  V30 1094 H 97.6896 -2.59504 4.09617 0
M  V30 1095 N 99.0327 -1.24633 -0.964593 0
M  V30 1096 C 99.9627 -1.06611 -2.07741 0
M  V30 1097 C 100.944 0.0218666 -1.70086 0
M  V30 1098 O 102.129 -0.145793 -1.93652 0
M  V30 1099 C 99.2587 -0.673444 -3.40708 0
M  V30 1100 C 98.2127 -1.71054 -3.92332 0
M  V30 1101 C 97.5387 -1.17285 -5.21678 0
M  V30 1102 C 98.8387 -3.10718 -4.19824 0
M  V30 1103 H 100.533 -1.99693 -2.23076 0
M  V30 1104 H 98.0787 -0.96152 -1.07195 0
M  V30 1105 H 100.032 -0.534345 -4.17998 0
M  V30 1106 H 98.7557 0.293073 -3.25282 0
M  V30 1107 H 97.4147 -1.83791 -3.17201 0
M  V30 1108 H 97.0627 -0.196847 -5.02615 0
M  V30 1109 H 96.7627 -1.86592 -5.57187 0
M  V30 1110 H 98.2867 -1.04593 -6.01575 0
M  V30 1111 H 99.7007 -3.01192 -4.87808 0
M  V30 1112 H 98.0977 -3.77406 -4.66567 0
M  V30 1113 H 99.1677 -3.58524 -3.26479 0
M  V30 1114 N 100.511 1.16574 -1.06058 0
M  V30 1115 C 101.458 2.20883 -0.669263 0
M  V30 1116 C 102.428 1.62729 0.332918 0
M  V30 1117 O 103.613 1.895 0.222346 0
M  V30 1118 C 100.753 3.45049 -0.0593572 0
M  V30 1119 C 99.8658 4.17458 -1.11143 0
M  V30 1120 C 99.0008 5.29135 -0.467916 0
M  V30 1121 C 98.0398 5.93343 -1.50369 0
M  V30 1122 N 97.1768 6.96516 -0.883706 0
M  V30 1123 H 102.017 2.53709 -1.5632 0
M  V30 1124 H 99.5538 1.24616 -0.781625 0
M  V30 1125 H 101.512 4.16033 0.311771 0
M  V30 1126 H 100.142 3.12781 0.797992 0
M  V30 1127 H 99.1938 3.45101 -1.60029 0
M  V30 1128 H 100.506 4.61307 -1.89731 0
M  V30 1129 H 99.6598 6.06684 -0.0436871 0
M  V30 1130 H 98.3988 4.86443 0.349864 0
M  V30 1131 H 97.4038 5.14517 -1.93784 0
M  V30 1132 H 98.6288 6.38114 -2.32352 0
M  V30 1133 H 96.5748 6.55943 -0.086595 0
M  V30 1134 H 96.4918 7.38723 -1.607 0
M  V30 1135 H 97.7598 7.77993 -0.484543 0
M  V30 1136 N 101.989 0.842826 1.3317 0
M  V30 1137 C 102.939 0.250877 2.26616 0
M  V30 1138 C 103.923 -0.596427 1.49437 0
M  V30 1139 O 105.115 -0.447747 1.71243 0
M  V30 1140 C 102.244 -0.569779 3.38539 0
M  V30 1141 C 101.33 0.289254 4.23112 0
M  V30 1142 N 101.721 1.36987 4.86897 0
M  V30 1143 C 100.019 0.0769631 4.45934 0
M  V30 1144 C 100.72 1.89737 5.49886 0
M  V30 1145 N 99.6959 1.19827 5.30229 0
M  V30 1146 H 103.498 1.07718 2.73448 0
M  V30 1147 H 101.012 0.687693 1.47121 0
M  V30 1148 H 103.009 -1.01018 4.04476 0
M  V30 1149 H 101.669 -1.39401 2.93253 0
M  V30 1150 H 102.68 1.75277 4.87338 0
M  V30 1151 H 99.3569 -0.713507 4.11358 0
M  V30 1152 H 100.747 2.80253 6.10662 0
M  V30 1153 N 103.467 -1.45747 0.599634 0
M  V30 1154 C 104.692 -2.07178 0.0960198 0
M  V30 1155 C 105.117 -1.44268 -1.207 0
M  V30 1156 O 104.475 -0.532503 -1.73303 0
M  V30 1157 C 104.523 -3.60579 -0.0385348 0
M  V30 1158 O 103.627 -3.97713 -1.0908 0
M  V30 1159 H 102.968 -0.660251 0.0704593 0
M  V30 1160 H 105.498 -1.87124 0.827385 0
M  V30 1161 H 105.508 -4.07298 -0.239304 0
M  V30 1162 H 104.183 -4.05756 0.912947 0
M  V30 1163 H 102.76 -3.62678 -0.867135 0
M  V30 1164 N 104.945 -0.338344 -1.53925 0
M  V30 1165 C 105.893 0.536231 -2.26335 0
M  V30 1166 C 106.887 1.1063 -1.28286 0
M  V30 1167 O 108.093 1.05264 -1.46012 0
M  V30 1168 H 104.468 0.191602 -0.727181 0
M  V30 1169 H 106.439 -0.0965747 -2.98244 0
M  V30 1170 C 105.188 1.67803 -3.04528 0
M  V30 1171 H 104.511 1.24864 -3.79801 0
M  V30 1172 H 105.951 2.26526 -3.58416 0
M  V30 1173 C 104.41 2.60439 -2.13712 0
M  V30 1174 O 104.94 3.6255 -1.72975 0
M  V30 1175 N 103.146 2.29006 -1.78898 0
M  V30 1176 H 102.693 1.46011 -2.12223 0
M  V30 1177 H 102.651 2.91248 -1.18416 0
M  V30 1178 N 106.423 1.57458 -0.0668435 0
M  V30 1179 C 107.672 1.92477 0.602947 0
M  V30 1180 C 107.985 0.948419 1.71068 0
M  V30 1181 O 109.191 1.19124 2.43971 0
M  V30 1182 C 107.647 3.41903 1.12383 0
M  V30 1183 C 107.255 4.47975 0.04737 0
M  V30 1184 C 108.999 3.85931 1.76797 0
M  V30 1185 C 106.906 5.88529 0.582022 0
M  V30 1186 H 105.836 0.718387 0.22899 0
M  V30 1187 H 108.487 1.82978 -0.138276 0
M  V30 1188 H 106.869 3.46459 1.91787 0
M  V30 1189 H 108.043 4.55029 -0.726978 0
M  V30 1190 H 106.358 4.13384 -0.500243 0
M  V30 1191 H 108.955 4.88322 2.17821 0
M  V30 1192 H 109.298 3.23029 2.62599 0
M  V30 1193 H 109.831 3.83958 1.04024 0
M  V30 1194 H 106.57 6.55065 -0.238721 0
M  V30 1195 H 106.09 5.85004 1.324 0
M  V30 1196 H 107.769 6.38258 1.05999 0
M  V30 1197 N 107.901 -0.206675 1.56239 0
M  V30 1198 C 109.147 -0.930218 1.80208 0
M  V30 1199 C 109.48 -1.83387 0.638981 0
M  V30 1200 O 108.755 -1.91119 -0.361066 0
M  V30 1201 C 109.038 -1.75641 3.1436 0
M  V30 1202 C 108.891 -0.878257 4.41142 0
M  V30 1203 C 110.21 -2.73129 3.45092 0
M  V30 1204 H 107.329 -0.336742 0.655571 0
M  V30 1205 H 109.971 -0.198222 1.88963 0
M  V30 1206 H 108.121 -2.38048 3.07027 0
M  V30 1207 H 109.793 -0.269787 4.6051 0
M  V30 1208 H 108.036 -0.184385 4.33408 0
M  V30 1209 H 108.707 -1.49106 5.3148 0
M  V30 1210 H 111.183 -2.20856 3.52649 0
M  V30 1211 H 110.059 -3.28028 4.40101 0
M  V30 1212 H 110.32 -3.51606 2.68003 0
M  V30 1213 N 109.379 -1.50304 -0.473955 0
M  V30 1214 C 110.795 -1.37667 -0.807466 0
M  V30 1215 C 110.995 -0.430555 -1.96846 0
M  V30 1216 O 110.051 0.127874 -2.52176 0
M  V30 1217 C 111.364 -2.78974 -1.12223 0
M  V30 1218 C 112.912 -2.87868 -1.22885 0
M  V30 1219 C 113.387 -4.30003 -1.57676 0
M  V30 1220 N 114.878 -4.3294 -1.64673 0
M  V30 1221 C 115.613 -5.3991 -1.93091 0
M  V30 1222 N 115.109 -6.57092 -2.1955 0
M  V30 1223 N 116.902 -5.27351 -1.94569 0
M  V30 1224 H 109.053 -2.10394 0.291212 0
M  V30 1225 H 111.316 -0.945575 0.0677609 0
M  V30 1226 H 111.022 -3.50031 -0.342229 0
M  V30 1227 H 110.896 -3.16038 -2.05913 0
M  V30 1228 H 113.283 -2.17032 -1.99953 0
M  V30 1229 H 113.364 -2.54352 -0.271814 0
M  V30 1230 H 113.008 -5.01375 -0.81149 0
M  V30 1231 H 112.938 -4.61004 -2.54525 0
M  V30 1232 H 115.429 -3.48441 -1.46277 0
M  V30 1233 H 115.742 -7.34425 -2.405 0
M  V30 1234 H 114.087 -6.60272 -2.16948 0
M  V30 1235 H 117.278 -4.34801 -1.73394 0
M  V30 1236 H 117.451 -6.10805 -2.16381 0
M  V30 1237 N 110.857 0.726932 -1.39834 0
M  V30 1238 C 111.787 1.85405 -1.41941 0
M  V30 1239 C 112.768 1.67751 -0.281728 0
M  V30 1240 O 113.953 1.8795 -0.488717 0
M  V30 1241 C 111.083 3.23243 -1.2701 0
M  V30 1242 C 110.037 3.55549 -2.38262 0
M  V30 1243 C 109.363 4.9241 -2.08415 0
M  V30 1244 C 110.663 3.577 -3.80589 0
M  V30 1245 H 112.357 1.83899 -2.36266 0
M  V30 1246 H 109.903 0.883349 -1.13723 0
M  V30 1247 H 111.856 4.01775 -1.27103 0
M  V30 1248 H 110.58 3.25296 -0.291564 0
M  V30 1249 H 109.239 2.79351 -2.37399 0
M  V30 1250 H 108.887 4.91052 -1.0898 0
M  V30 1251 H 108.587 5.14992 -2.82943 0
M  V30 1252 H 110.111 5.73289 -2.10171 0
M  V30 1253 H 111.525 4.26293 -3.83337 0
M  V30 1254 H 109.922 3.91804 -4.54543 0
M  V30 1255 H 110.992 2.57328 -4.10987 0
M  V30 1256 N 112.336 1.25143 0.95797 0
M  V30 1257 C 113.286 1.01924 2.0395 0
M  V30 1258 C 114.27 -0.0427175 1.60843 0
M  V30 1259 O 115.462 0.17221 1.7616 0
M  V30 1260 C 112.591 0.636373 3.3735 0
M  V30 1261 C 111.677 1.73492 3.8699 0
M  V30 1262 N 112.068 2.96945 4.0946 0
M  V30 1263 C 110.366 1.61467 4.15746 0
M  V30 1264 C 111.067 3.68228 4.50315 0
M  V30 1265 N 110.043 2.95833 4.56053 0
M  V30 1266 H 113.845 1.95653 2.19311 0
M  V30 1267 H 111.359 1.15413 1.14253 0
M  V30 1268 H 113.356 0.451233 4.14451 0
M  V30 1269 H 112.016 -0.293621 3.2337 0
M  V30 1270 H 113.027 3.33025 3.96629 0
M  V30 1271 H 109.704 0.753394 4.10646 0
M  V30 1272 H 111.094 4.74178 4.76031 0
M  V30 1273 N 113.814 -1.1601 1.06675 0
M  V30 1274 C 115.091 -1.82679 0.699114 0
M  V30 1275 C 115.471 -1.94559 -0.819137 0
M  V30 1276 O 114.819 -1.49169 -1.73092 0
M  V30 1277 C 115.029 -3.19445 1.40555 0
M  V30 1278 C 116.377 -3.95171 1.55323 0
M  V30 1279 O 117.401 -3.28976 1.36577 0
M  V30 1280 O 116.26 -5.13833 1.86112 0
M  V30 1281 H 113.354 -0.788954 0.247951 0
M  V30 1282 H 115.9 -1.23179 1.16726 0
M  V30 1283 H 114.672 -3.05856 2.44065 0
M  V30 1284 H 114.295 -3.86625 0.927733 0
M  V30 1285 N 115.292 -0.849877 -1.32721 0
M  V30 1286 C 116.517 -0.463856 -2.02146 0
M  V30 1287 C 116.942 0.930449 -1.63476 0
M  V30 1288 O 116.3 1.61033 -0.832952 0
M  V30 1289 C 116.348 -0.604955 -3.55489 0
M  V30 1290 O 115.452 0.36425 -4.10788 0
M  V30 1291 H 114.793 -0.187046 -0.637111 0
M  V30 1292 H 117.323 -1.14775 -1.69375 0
M  V30 1293 H 117.333 -0.490696 -4.05038 0
M  V30 1294 H 116.008 -1.62174 -3.82978 0
M  V30 1295 H 114.585 0.206628 -3.72327 0
M  V30 1296 N 116.77 1.45427 -0.607355 0
M  V30 1297 C 118.019 2.01452 -0.100036 0
M  V30 1298 C 118.332 1.48159 1.27704 0
M  V30 1299 O 119.538 1.96159 1.87707 0
M  V30 1300 C 117.994 3.59672 -0.128158 0
M  V30 1301 C 117.602 4.21962 -1.50507 0
M  V30 1302 C 119.346 4.23262 0.323932 0
M  V30 1303 C 117.253 5.72333 -1.48959 0
M  V30 1304 H 116.183 0.75325 -0.0336299 0
M  V30 1305 H 118.834 1.66901 -0.76265 0
M  V30 1306 H 117.216 3.91411 0.601105 0
M  V30 1307 H 118.39 4.01796 -2.25602 0
M  V30 1308 H 116.705 3.70565 -1.89923 0
M  V30 1309 H 119.302 5.33522 0.354691 0
M  V30 1310 H 119.645 3.93921 1.34656 0
M  V30 1311 H 120.178 3.96239 -0.352056 0
M  V30 1312 H 116.917 6.06373 -2.48981 0
M  V30 1313 H 116.437 5.94691 -0.781214 0
M  V30 1314 H 118.116 6.35525 -1.21313 0
M  V30 1315 N 118.248 0.346503 1.53744 0
M  V30 1316 C 119.473 -0.253074 2.0585 0
M  V30 1317 C 119.898 -1.43202 1.21962 0
M  V30 1318 O 119.256 -1.79783 0.234073 0
M  V30 1319 C 119.304 -0.643193 3.54817 0
M  V30 1320 O 118.408 -1.74286 3.73762 0
M  V30 1321 H 117.749 -0.0413583 0.662711 0
M  V30 1322 H 120.279 0.501574 1.98357 0
M  V30 1323 H 120.289 -0.919526 3.97503 0
M  V30 1324 H 118.964 0.218966 4.15323 0
M  V30 1325 H 117.541 -1.46356 3.42979 0
M  V30 1326 N 119.726 -1.57421 0.075193 0
M  V30 1327 C 120.636 -2.1642 -0.905511 0
M  V30 1328 C 121.652 -1.12828 -1.32461 0
M  V30 1329 O 122.828 -1.45109 -1.39661 0
M  V30 1330 C 119.893 -2.71693 -2.15369 0
M  V30 1331 C 118.954 -3.90171 -1.79068 0
M  V30 1332 C 118.187 -4.42798 -2.97936 0
M  V30 1333 O 118.41 -3.94416 -4.12058 0
M  V30 1334 O 117.344 -5.34085 -2.77555 0
M  V30 1335 H 121.17 -3.00588 -0.433626 0
M  V30 1336 H 118.755 -1.48664 -0.148067 0
M  V30 1337 H 120.637 -3.07104 -2.88557 0
M  V30 1338 H 119.312 -1.90582 -2.61649 0
M  V30 1339 H 118.219 -3.59606 -1.03122 0
M  V30 1340 H 119.552 -4.72584 -1.37569 0
M  V30 1341 N 121.204 0.198386 -1.56346 0
M  V30 1342 C 122.114 1.2664 -1.97483 0
M  V30 1343 C 123.13 1.49989 -0.882002 0
M  V30 1344 O 124.306 1.62668 -1.18748 0
M  V30 1345 C 121.371 2.59141 -2.30319 0
M  V30 1346 C 120.432 2.43892 -3.53292 0
M  V30 1347 C 119.665 3.70074 -3.84553 0
M  V30 1348 O 119.888 4.74101 -3.1715 0
M  V30 1349 O 118.822 3.658 -4.7799 0
M  V30 1350 H 122.648 0.947304 -2.88548 0
M  V30 1351 H 120.233 0.403123 -1.43859 0
M  V30 1352 H 122.115 3.37352 -2.5253 0
M  V30 1353 H 120.79 2.90684 -1.42423 0
M  V30 1354 H 119.697 1.63803 -3.36332 0
M  V30 1355 H 121.03 2.17282 -4.41644 0
M  V30 1356 N 122.682 1.50554 0.465978 0
M  V30 1357 C 123.93 1.61479 1.21528 0
M  V30 1358 C 124.251 0.319596 1.92363 0
M  V30 1359 O 123.521 -0.663194 1.84333 0
M  V30 1360 H 122.101 0.595055 0.451573 0
M  V30 1361 H 124.763 1.87355 0.53704 0
M  V30 1362 H 123.859 2.42846 1.96042 0
M  V30 1363 N 124.16 -0.719506 1.40217 0
M  V30 1364 C 125.407 -1.47933 1.38283 0
M  V30 1365 C 125.735 -1.94493 -0.0161536 0
M  V30 1366 O 124.99 -1.68224 -0.999956 0
M  V30 1367 C 125.289 -2.72271 2.31524 0
M  V30 1368 C 124.955 -2.44496 3.78857 0
M  V30 1369 C 123.617 -2.36631 4.18998 0
M  V30 1370 C 125.969 -2.21104 4.71977 0
M  V30 1371 C 123.297 -2.03437 5.503 0
M  V30 1372 C 125.649 -1.89423 6.03574 0
M  V30 1373 C 124.313 -1.80038 6.42762 0
M  V30 1374 H 123.583 -0.541325 0.506012 0
M  V30 1375 H 126.23 -0.824502 1.72842 0
M  V30 1376 H 124.535 -3.42572 1.90137 0
M  V30 1377 H 126.232 -3.30348 2.27313 0
M  V30 1378 H 122.822 -2.51503 3.47051 0
M  V30 1379 H 127.006 -2.26139 4.41786 0
M  V30 1380 H 122.262 -1.94705 5.79569 0
M  V30 1381 H 126.436 -1.70336 6.75247 0
M  V30 1382 H 124.063 -1.54083 7.44421 0
M  V30 1383 N 125.638 -1.25649 -0.95132 0
M  V30 1384 C 126.588 -1.03004 -2.03406 0
M  V30 1385 C 127.572 0.034187 -1.60864 0
M  V30 1386 O 128.764 -0.181549 -1.76066 0
M  V30 1387 C 125.893 -0.654255 -3.37008 0
M  V30 1388 C 124.979 -1.75542 -3.86065 0
M  V30 1389 N 125.37 -2.99113 -4.07879 0
M  V30 1390 C 123.668 -1.63669 -4.14884 0
M  V30 1391 C 124.369 -3.70611 -4.48356 0
M  V30 1392 N 123.345 -2.98247 -4.54477 0
M  V30 1393 H 127.147 -1.96813 -2.1827 0
M  V30 1394 H 124.661 -1.16017 -1.13639 0
M  V30 1395 H 126.658 -0.473206 -4.14206 0
M  V30 1396 H 125.318 0.276468 -3.23521 0
M  V30 1397 H 126.329 -3.35124 -3.94857 0
M  V30 1398 H 123.006 -0.775161 -4.10241 0
M  V30 1399 H 124.396 -4.76695 -4.73509 0
M  V30 1400 N 127.117 1.15442 -1.07289 0
M  V30 1401 C 128.347 1.89821 -0.815576 0
M  V30 1402 C 128.755 1.7823 0.634867 0
M  V30 1403 O 128.098 1.13152 1.44715 0
M  V30 1404 C 128.16 3.40817 -1.14385 0
M  V30 1405 C 127.824 3.76193 -2.59476 0
M  V30 1406 C 128.821 3.77269 -3.57721 0
M  V30 1407 C 126.506 4.0652 -2.95037 0
M  V30 1408 C 128.5 4.08176 -4.89562 0
M  V30 1409 C 126.187 4.37092 -4.27076 0
M  V30 1410 C 127.185 4.37902 -5.24148 0
M  V30 1411 O 126.873 4.67741 -6.53815 0
M  V30 1412 H 126.605 0.608465 -0.294528 0
M  V30 1413 H 129.159 1.472 -1.43252 0
M  V30 1414 H 127.389 3.83835 -0.469865 0
M  V30 1415 H 129.078 3.96485 -0.869179 0
M  V30 1416 H 129.844 3.5394 -3.3159 0
M  V30 1417 H 125.723 4.05049 -2.20128 0
M  V30 1418 H 129.267 4.08723 -5.65324 0
M  V30 1419 H 125.164 4.59889 -4.5296 0
M  V30 1420 H 125.932 4.85509 -6.58957 0
M  V30 1421 N 128.595 0.856903 1.32268 0
M  V30 1422 C 129.525 0.31858 2.31316 0
M  V30 1423 C 130.506 -0.583487 1.59779 0
M  V30 1424 O 131.691 -0.503259 1.87566 0
M  V30 1425 C 128.821 -0.491979 3.43798 0
M  V30 1426 C 127.775 0.315849 4.26833 0
M  V30 1427 C 127.101 -0.619586 5.31098 0
M  V30 1428 C 128.401 1.54282 4.98993 0
M  V30 1429 H 130.095 1.14621 2.76591 0
M  V30 1430 H 127.641 0.552613 1.32974 0
M  V30 1431 H 129.594 -0.879012 4.1213 0
M  V30 1432 H 128.318 -1.35299 2.97257 0
M  V30 1433 H 126.977 0.684664 3.6015 0
M  V30 1434 H 126.625 -1.47751 4.8081 0
M  V30 1435 H 126.325 -0.0830621 5.87541 0
M  V30 1436 H 127.849 -1.00375 6.02293 0
M  V30 1437 H 129.263 1.22796 5.59995 0
M  V30 1438 H 127.66 2.01745 5.65172 0
M  V30 1439 H 128.73 2.30285 4.26728 0
M  V30 1440 N 130.073 -1.45103 0.615059 0
M  V30 1441 C 131.319 -2.02483 0.113347 0
M  V30 1442 C 131.652 -1.48146 -1.25564 0
M  V30 1443 O 130.927 -0.659104 -1.82992 0
M  V30 1444 C 131.21 -3.60005 0.0825278 0
M  V30 1445 C 131.063 -4.2466 1.48271 0
M  V30 1446 C 132.382 -4.35972 -0.601401 0
M  V30 1447 H 129.501 -0.735764 0.0426632 0
M  V30 1448 H 132.143 -1.72868 0.788461 0
M  V30 1449 H 130.293 -3.85367 -0.492378 0
M  V30 1450 H 131.965 -4.10458 2.10527 0
M  V30 1451 H 130.208 -3.82772 2.04127 0
M  V30 1452 H 130.879 -5.336 1.41332 0
M  V30 1453 H 133.355 -4.15947 -0.112666 0
M  V30 1454 H 132.231 -5.45697 -0.592097 0
M  V30 1455 H 132.492 -4.09391 -1.66887 0
M  V30 1456 N 131.551 -0.354651 -1.53558 0
M  V30 1457 C 132.798 0.238443 -2.01091 0
M  V30 1458 C 133.126 1.49663 -1.24222 0
M  V30 1459 O 132.381 1.93049 -0.321003 0
M  V30 1460 C 132.68 0.587121 -3.52545 0
M  V30 1461 C 132.346 -0.575472 -4.47213 0
M  V30 1462 C 131.008 -0.894497 -4.72813 0
M  V30 1463 C 133.36 -1.35489 -5.03281 0
M  V30 1464 C 130.688 -1.99511 -5.51736 0
M  V30 1465 C 133.04 -2.44583 -5.83405 0
M  V30 1466 C 131.704 -2.77033 -6.07296 0
M  V30 1467 H 130.974 0.0872526 -0.735845 0
M  V30 1468 H 133.621 -0.484859 -1.8526 0
M  V30 1469 H 131.926 1.39129 -3.66265 0
M  V30 1470 H 133.623 1.05809 -3.86789 0
M  V30 1471 H 130.213 -0.316774 -4.27428 0
M  V30 1472 H 134.397 -1.12167 -4.83459 0
M  V30 1473 H 129.653 -2.25063 -5.68469 0
M  V30 1474 H 133.827 -3.05401 -6.25862 0
M  V30 1475 H 131.454 -3.6244 -6.68237 0
M  V30 1476 N 133.029 1.57378 -0.0835403 0
M  V30 1477 C 134.306 1.85363 0.624507 0
M  V30 1478 C 134.686 0.978239 1.87066 0
M  V30 1479 O 134.034 0.0475908 2.2845 0
M  V30 1480 C 134.244 3.35795 0.950947 0
M  V30 1481 C 135.592 4.03581 1.31939 0
M  V30 1482 O 136.616 3.40609 1.04232 0
M  V30 1483 O 135.475 5.14672 1.83779 0
M  V30 1484 H 132.569 0.766162 0.311329 0
M  V30 1485 H 135.115 1.69307 -0.115362 0
M  V30 1486 H 133.887 3.91244 0.0663899 0
M  V30 1487 H 133.51 3.57154 1.74719 0
M  V30 1488 N 134.507 -0.190092 1.56449 0
M  V30 1489 C 135.437 -1.23816 1.97969 0
M  V30 1490 C 136.418 -1.47201 0.852395 0
M  V30 1491 O 137.603 -1.58854 1.1171 0
M  V30 1492 C 134.733 -2.5813 2.3235 0
M  V30 1493 C 133.687 -2.49348 3.47864 0
M  V30 1494 C 133.013 -3.8798 3.67934 0
M  V30 1495 C 134.313 -2.01424 4.81898 0
M  V30 1496 H 136.007 -0.89311 2.85769 0
M  V30 1497 H 133.553 -0.428177 1.37487 0
M  V30 1498 H 135.506 -3.31637 2.59991 0
M  V30 1499 H 134.23 -2.94386 1.41438 0
M  V30 1500 H 132.889 -1.78297 3.20321 0
M  V30 1501 H 132.537 -4.21597 2.74344 0
M  V30 1502 H 132.237 -3.82978 4.45648 0
M  V30 1503 H 133.761 -4.63101 3.97957 0
M  V30 1504 H 135.175 -2.64693 5.08538 0
M  V30 1505 H 133.572 -2.07413 5.63116 0
M  V30 1506 H 134.642 -0.967677 4.75146 0
M  V30 1507 N 135.985 -1.50799 -0.457987 0
M  V30 1508 C 137.231 -1.62683 -1.21088 0
M  V30 1509 C 137.564 -0.332268 -1.91336 0
M  V30 1510 O 136.839 0.667043 -1.82704 0
M  V30 1511 C 137.122 -2.81615 -2.24422 0
M  V30 1512 C 136.975 -4.20989 -1.58392 0
M  V30 1513 C 138.294 -2.96085 -3.2561 0
M  V30 1514 H 135.413 -0.592087 -0.438864 0
M  V30 1515 H 138.055 -1.83225 -0.50286 0
M  V30 1516 H 136.205 -2.64231 -2.84806 0
M  V30 1517 H 137.877 -4.49994 -1.01504 0
M  V30 1518 H 136.12 -4.24641 -0.886704 0
M  V30 1519 H 136.791 -5.0016 -2.33547 0
M  V30 1520 H 139.267 -3.12042 -2.75262 0
M  V30 1521 H 138.143 -3.80902 -3.95228 0
M  V30 1522 H 138.404 -2.0726 -3.90507 0
M  V30 1523 N 137.463 0.71206 -1.40597 0
M  V30 1524 C 138.691 1.50111 -1.42388 0
M  V30 1525 C 139.106 1.88784 -0.0245395 0
M  V30 1526 O 138.463 1.55681 0.952351 0
M  V30 1527 C 138.514 2.7742 -2.31776 0
M  V30 1528 O 138.235 2.40382 -3.66262 0
M  V30 1529 C 139.736 3.7129 -2.42196 0
M  V30 1530 H 136.956 0.46314 -0.485533 0
M  V30 1531 H 139.5 0.878068 -1.8469 0
M  V30 1532 H 137.655 3.36001 -1.92827 0
M  V30 1533 H 138.069 3.22324 -4.13772 0
M  V30 1534 H 139.543 4.57448 -3.08943 0
M  V30 1535 H 140.02 4.14641 -1.44809 0
M  V30 1536 H 140.626 3.18619 -2.81712 0
M  V30 1537 N 138.941 1.26152 0.944643 0
M  V30 1538 C 140.189 1.11271 1.6871 0
M  V30 1539 C 140.51 -0.345166 1.91921 0
M  V30 1540 O 139.78 -1.24387 1.51343 0
M  V30 1541 H 138.36 0.408783 0.625224 0
M  V30 1542 H 141.022 1.58427 1.1352 0
M  V30 1543 H 140.118 1.62879 2.66227 0
M  V30 1544 N 140.419 -1.14872 1.07899 0
M  V30 1545 C 141.667 -1.85422 0.803941 0
M  V30 1546 C 141.988 -1.83051 -0.67211 0
M  V30 1547 O 141.258 -1.27532 -1.48703 0
M  V30 1548 H 139.838 -0.686537 0.294408 0
M  V30 1549 H 142.5 -1.39226 1.3639 0
M  V30 1550 H 141.596 -2.90399 1.14346 0
M  V30 1551 N 141.898 -0.863906 -1.31812 0
M  V30 1552 C 142.808 -0.318461 -2.32428 0
M  V30 1553 C 143.824 0.568496 -1.64451 0
M  V30 1554 O 145 0.46666 -1.95919 0
M  V30 1555 C 142.065 0.476355 -3.43412 0
M  V30 1556 C 141.126 -0.43784 -4.27061 0
M  V30 1557 C 140.359 0.319138 -5.32745 0
M  V30 1558 O 140.582 1.54799 -5.48993 0
M  V30 1559 O 139.516 -0.319861 -6.01049 0
M  V30 1560 H 143.342 -1.15229 -2.80991 0
M  V30 1561 H 140.927 -0.627103 -1.35602 0
M  V30 1562 H 142.809 0.927156 -4.11074 0
M  V30 1563 H 141.484 1.28683 -2.97022 0
M  V30 1564 H 140.391 -0.937013 -3.62175 0
M  V30 1565 H 141.724 -1.21375 -4.77 0
M  V30 1566 N 143.376 1.44774 -0.622745 0
M  V30 1567 C 144.306 2.33382 0.0741861 0
M  V30 1568 C 145.287 1.47719 0.843387 0
M  V30 1569 O 146.472 1.76458 0.810934 0
M  V30 1570 C 143.602 3.30663 1.06204 0
M  V30 1571 C 142.556 4.26079 0.405037 0
M  V30 1572 C 141.882 5.13165 1.5022 0
M  V30 1573 C 143.182 5.1781 -0.683414 0
M  V30 1574 H 144.876 2.91905 -0.665713 0
M  V30 1575 H 142.422 1.40363 -0.321587 0
M  V30 1576 H 144.375 3.9153 1.55827 0
M  V30 1577 H 143.099 2.70331 1.83272 0
M  V30 1578 H 141.758 3.66532 -0.0704683 0
M  V30 1579 H 141.406 4.49191 2.26355 0
M  V30 1580 H 141.106 5.77812 1.06803 0
M  V30 1581 H 142.63 5.76902 2.00041 0
M  V30 1582 H 144.044 5.72661 -0.270631 0
M  V30 1583 H 142.441 5.91015 -1.04023 0
M  V30 1584 H 143.511 4.59326 -1.55395 0
M  V30 1585 N 144.854 0.36279 1.53368 0
M  V30 1586 C 146.101 -0.227776 2.01215 0
M  V30 1587 C 146.429 -1.49003 1.25014 0
M  V30 1588 O 145.684 -1.92876 0.331236 0
M  V30 1589 C 145.983 -0.568417 3.52851 0
M  V30 1590 C 145.649 0.59918 4.46901 0
M  V30 1591 C 144.311 0.919559 4.72332 0
M  V30 1592 C 146.663 1.38156 5.02556 0
M  V30 1593 C 143.991 2.02434 5.5067 0
M  V30 1594 C 146.343 2.47674 5.821 0
M  V30 1595 C 145.007 2.8025 6.05819 0
M  V30 1596 H 144.277 -0.083349 0.736297 0
M  V30 1597 H 146.924 0.494677 1.85001 0
M  V30 1598 H 145.229 -1.37185 3.66998 0
M  V30 1599 H 146.926 -1.03756 3.87344 0
M  V30 1600 H 143.516 0.339437 4.27254 0
M  V30 1601 H 147.7 1.14729 4.82857 0
M  V30 1602 H 142.956 2.28075 5.67267 0
M  V30 1603 H 147.13 3.08716 6.24234 0
M  V30 1604 H 144.757 3.65979 6.66306 0
M  V30 1605 N 146.332 -1.57332 0.0918853 0
M  V30 1606 C 147.242 -2.17368 -0.882505 0
M  V30 1607 C 148.258 -1.14226 -1.31257 0
M  V30 1608 O 149.434 -1.46582 -1.38115 0
M  V30 1609 C 146.499 -2.73962 -2.12476 0
M  V30 1610 C 145.56 -3.92048 -1.7492 0
M  V30 1611 C 144.793 -4.45933 -2.93223 0
M  V30 1612 O 145.016 -3.98764 -4.07852 0
M  V30 1613 O 143.95 -5.36999 -2.71875 0
M  V30 1614 H 147.776 -3.01031 -0.40172 0
M  V30 1615 H 145.361 -1.48813 -0.132291 0
M  V30 1616 H 147.243 -3.10147 -2.85283 0
M  V30 1617 H 145.918 -1.93347 -2.59613 0
M  V30 1618 H 144.825 -3.6068 -0.993025 0
M  V30 1619 H 146.158 -4.74017 -1.32548 0
M  V30 1620 N 147.81 0.181792 -1.56548 0
M  V30 1621 C 149.087 0.926765 -1.72251 0
M  V30 1622 C 149.467 2.00831 -0.650386 0
M  V30 1623 O 148.815 2.26008 0.336521 0
M  V30 1624 C 149.025 1.50106 -3.1507 0
M  V30 1625 C 150.373 1.97805 -3.75711 0
M  V30 1626 O 151.397 1.59922 -3.18282 0
M  V30 1627 O 150.256 2.67555 -4.76525 0
M  V30 1628 H 147.35 0.435506 -0.703039 0
M  V30 1629 H 149.896 0.170443 -1.68842 0
M  V30 1630 H 148.668 0.72212 -3.84579 0
M  V30 1631 H 148.291 2.32186 -3.22763 0
M  V30 1632 N 149.288 1.51039 0.449983 0
M  V30 1633 C 150.537 1.62317 1.19733 0
M  V30 1634 C 150.85 0.339101 1.92638 0
M  V30 1635 O 152.056 0.331069 2.69474 0
M  V30 1636 C 150.512 2.86608 2.17678 0
M  V30 1637 C 150.12 4.21972 1.50479 0
M  V30 1638 C 151.864 3.07239 2.92924 0
M  V30 1639 C 149.771 5.37426 2.46834 0
M  V30 1640 H 148.701 0.604532 0.450619 0
M  V30 1641 H 151.352 1.77494 0.465625 0
M  V30 1642 H 149.734 2.65037 2.94231 0
M  V30 1643 H 150.908 4.53878 0.795716 0
M  V30 1644 H 149.223 4.07117 0.874344 0
M  V30 1645 H 151.82 3.90668 3.65079 0
M  V30 1646 H 152.163 2.19807 3.5354 0
M  V30 1647 H 152.696 3.29091 2.23481 0
M  V30 1648 H 149.435 6.27079 1.90926 0
M  V30 1649 H 148.955 5.09912 3.15832 0
M  V30 1650 H 150.634 5.68862 3.08228 0
M  V30 1651 N 150.766 -0.704594 1.40972 0
M  V30 1652 C 152.012 -1.46675 1.40051 0
M  V30 1653 C 152.345 -1.94199 0.00641102 0
M  V30 1654 O 151.62 -1.68916 -0.964235 0
M  V30 1655 C 151.903 -2.68505 2.39952 0
M  V30 1656 C 151.756 -2.26805 3.88432 0
M  V30 1657 C 153.075 -3.70686 2.37233 0
M  V30 1658 H 150.194 -0.532015 0.510028 0
M  V30 1659 H 152.836 -0.803255 1.72185 0
M  V30 1660 H 150.986 -3.25114 2.1268 0
M  V30 1661 H 152.658 -1.75592 4.26574 0
M  V30 1662 H 150.901 -1.58685 4.03734 0
M  V30 1663 H 151.572 -3.14181 4.53866 0
M  V30 1664 H 154.048 -3.23731 2.61415 0
M  V30 1665 H 152.924 -4.53553 3.09162 0
M  V30 1666 H 153.185 -4.19754 1.38777 0
M  V30 1667 N 152.244 -1.26651 -0.937939 0
M  V30 1668 C 153.207 -1.08546 -2.01867 0
M  V30 1669 C 154.207 -0.0327327 -1.60767 0
M  V30 1670 O 155.397 -0.276427 -1.71993 0
M  V30 1671 C 152.529 -0.651711 -3.34613 0
M  V30 1672 H 153.722 -2.04502 -2.1936 0
M  V30 1673 H 151.275 -1.09294 -1.11734 0
M  V30 1674 H 152.01 0.309696 -3.22818 0
M  V30 1675 H 151.795 -1.41189 -3.65798 0
M  V30 1676 H 153.285 -0.546973 -4.14002 0
M  V30 1677 N 153.722 1.14298 -1.08507 0
M  V30 1678 C 155.138 1.37347 -0.812901 0
M  V30 1679 C 155.338 1.93052 0.577325 0
M  V30 1680 O 154.394 2.14389 1.33393 0
M  V30 1681 C 155.707 2.33359 -1.89642 0
M  V30 1682 C 157.255 2.46996 -1.92255 0
M  V30 1683 C 157.73 3.46309 -2.99724 0
M  V30 1684 N 159.221 3.53853 -2.98902 0
M  V30 1685 C 159.956 4.3055 -3.787 0
M  V30 1686 N 159.452 5.10482 -4.6838 0
M  V30 1687 N 161.245 4.25757 -3.66998 0
M  V30 1688 H 153.396 0.764867 -1.9815 0
M  V30 1689 H 155.659 0.398966 -0.859959 0
M  V30 1690 H 155.365 1.99565 -2.89597 0
M  V30 1691 H 155.239 3.33274 -1.76659 0
M  V30 1692 H 157.626 2.80081 -0.929445 0
M  V30 1693 H 157.707 1.47039 -2.09316 0
M  V30 1694 H 157.351 3.13957 -3.99241 0
M  V30 1695 H 157.281 4.46049 -2.79907 0
M  V30 1696 H 159.772 2.96812 -2.33904 0
M  V30 1697 H 160.085 5.66284 -5.25873 0
M  V30 1698 H 158.43 5.09747 -4.72422 0
M  V30 1699 H 161.621 3.62383 -2.96304 0
M  V30 1700 H 161.794 4.85279 -4.29427 0
M  V30 1701 N 155.201 0.870884 1.31352 0
M  V30 1702 C 156.111 0.330783 2.32256 0
M  V30 1703 C 157.127 -0.559767 1.6475 0
M  V30 1704 O 158.303 -0.456263 1.96164 0
M  V30 1705 C 155.368 -0.458137 3.4366 0
M  V30 1706 C 154.429 0.460482 4.26823 0
M  V30 1707 C 153.662 -0.290881 5.32907 0
M  V30 1708 O 153.885 -1.51885 5.49806 0
M  V30 1709 O 152.819 0.351732 6.00871 0
M  V30 1710 H 156.645 1.16718 2.80376 0
M  V30 1711 H 154.23 0.634285 1.35267 0
M  V30 1712 H 156.112 -0.905343 4.1156 0
M  V30 1713 H 154.787 -1.27106 2.97701 0
M  V30 1714 H 153.694 0.956207 3.61673 0
M  V30 1715 H 155.027 1.23903 4.7635 0
M  V30 1716 N 156.679 -1.44442 0.630414 0
M  V30 1717 C 157.909 -2.06115 0.141465 0
M  V30 1718 C 158.317 -1.47179 -1.1889 0
M  V30 1719 O 157.66 -0.588873 -1.74006 0
M  V30 1720 C 157.722 -3.59467 -0.0484355 0
M  V30 1721 C 157.386 -4.40864 1.20366 0
M  V30 1722 C 158.383 -4.74391 2.12719 0
M  V30 1723 C 156.068 -4.8125 1.43887 0
M  V30 1724 C 158.062 -5.47186 3.26904 0
M  V30 1725 C 155.749 -5.53795 2.5837 0
M  V30 1726 C 156.747 -5.86682 3.49705 0
M  V30 1727 O 156.435 -6.57749 4.62191 0
M  V30 1728 H 156.167 -0.671648 0.0765792 0
M  V30 1729 H 158.721 -1.86312 0.864695 0
M  V30 1730 H 156.951 -3.77758 -0.826803 0
M  V30 1731 H 158.64 -4.02909 -0.491849 0
M  V30 1732 H 159.406 -4.43728 1.95781 0
M  V30 1733 H 155.285 -4.55073 0.736853 0
M  V30 1734 H 158.829 -5.72773 3.98217 0
M  V30 1735 H 154.726 -5.83872 2.75251 0
M  V30 1736 H 155.494 -6.76217 4.61164 0
M  V30 1737 N 158.157 -0.370918 -1.53173 0
M  V30 1738 C 159.387 0.217389 -2.05453 0
M  V30 1739 C 159.795 1.42568 -1.24382 0
M  V30 1740 O 159.138 1.81571 -0.278839 0
M  V30 1741 C 159.2 0.669827 -3.53205 0
M  V30 1742 C 158.864 -0.4225 -4.55043 0
M  V30 1743 C 159.861 -1.27407 -5.04047 0
M  V30 1744 C 157.546 -0.58427 -4.9889 0
M  V30 1745 C 159.54 -2.27271 -5.95505 0
M  V30 1746 C 157.227 -1.58627 -5.90153 0
M  V30 1747 C 158.225 -2.42892 -6.38351 0
M  V30 1748 O 157.913 -3.41382 -7.27814 0
M  V30 1749 H 157.645 0.0408171 -0.674767 0
M  V30 1750 H 160.199 -0.5292 -1.98466 0
M  V30 1751 H 158.429 1.4681 -3.57748 0
M  V30 1752 H 160.118 1.18173 -3.88317 0
M  V30 1753 H 160.884 -1.16031 -4.70916 0
M  V30 1754 H 156.763 0.061851 -4.60959 0
M  V30 1755 H 160.307 -2.93079 -6.33049 0
M  V30 1756 H 156.204 -1.70048 -6.22699 0
M  V30 1757 H 156.972 -3.37173 -7.45826 0
M  V30 1758 N 159.635 1.57281 -0.100228 0
M  V30 1759 C 160.86 1.99302 0.573881 0
M  V30 1760 C 161.285 0.979059 1.60611 0
M  V30 1761 O 160.643 -0.0517803 1.81226 0
M  V30 1762 C 160.691 3.40274 1.19358 0
M  V30 1763 O 159.795 3.41676 2.30935 0
M  V30 1764 H 159.136 0.647944 0.145138 0
M  V30 1765 H 161.666 2.03779 -0.183156 0
M  V30 1766 H 161.676 3.78078 1.53365 0
M  V30 1767 H 160.351 4.13594 0.437385 0
M  V30 1768 H 158.928 3.15672 1.98509 0
M  V30 1769 N 161.113 -0.173488 1.56642 0
M  V30 1770 C 162.023 -1.23482 1.99473 0
M  V30 1771 C 163.039 -1.48567 0.905752 0
M  V30 1772 O 164.215 -1.60758 1.21321 0
M  V30 1773 C 161.28 -2.55444 2.34413 0
M  V30 1774 C 160.341 -2.38241 3.57127 0
M  V30 1775 C 159.574 -3.63909 3.90392 0
M  V30 1776 O 159.797 -4.68996 3.24653 0
M  V30 1777 O 158.731 -3.58149 4.83749 0
M  V30 1778 H 162.557 -0.901279 2.90018 0
M  V30 1779 H 160.142 -0.380185 1.44482 0
M  V30 1780 H 162.024 -3.33292 2.57865 0
M  V30 1781 H 160.699 -2.88382 1.4703 0
M  V30 1782 H 159.606 -1.58431 3.38896 0
M  V30 1783 H 160.939 -2.10228 4.45045 0
M  V30 1784 N 162.591 -1.51276 -0.441967 0
M  V30 1785 C 163.554 -1.7167 -1.51862 0
M  V30 1786 C 164.554 -0.586793 -1.49711 0
M  V30 1787 O 165.744 -0.854276 -1.51815 0
M  V30 1788 C 162.876 -1.76889 -2.91416 0
M  V30 1789 H 164.069 -2.67754 -1.35084 0
M  V30 1790 H 161.622 -1.41196 -0.670333 0
M  V30 1791 H 162.357 -0.826026 -3.13604 0
M  V30 1792 H 162.142 -2.59001 -2.94382 0
M  V30 1793 H 163.632 -1.94522 -3.69528 0
M  V30 1794 N 164.069 0.697108 -1.41344 0
M  V30 1795 C 165.346 1.45154 -1.31109 0
M  V30 1796 C 165.726 2.11009 0.0620449 0
M  V30 1797 O 165.074 2.01571 1.07618 0
M  V30 1798 C 165.284 2.47223 -2.46337 0
M  V30 1799 C 166.632 3.1252 -2.87431 0
M  V30 1800 O 167.656 2.57547 -2.46065 0
M  V30 1801 O 166.515 4.12083 -3.58957 0
M  V30 1802 H 163.609 0.646365 -0.515889 0
M  V30 1803 H 166.155 0.727716 -1.53305 0
M  V30 1804 H 164.927 1.97204 -3.37974 0
M  V30 1805 H 164.55 3.27116 -2.2601 0
M  V30 1806 N 165.547 1.27147 0.931209 0
M  V30 1807 C 166.51 1.09615 2.01289 0
M  V30 1808 C 167.51 0.0412581 1.60747 0
M  V30 1809 O 168.7 0.285545 1.71844 0
M  V30 1810 C 165.832 0.669447 3.34262 0
M  V30 1811 H 167.025 2.05662 2.18273 0
M  V30 1812 H 164.578 1.09885 1.11153 0
M  V30 1813 H 165.313 -0.292572 3.22978 0
M  V30 1814 H 165.098 1.43127 3.65044 0
M  V30 1815 H 166.588 0.568921 4.13706 0
M  V30 1816 N 167.025 -1.13721 1.09112 0
M  V30 1817 C 168.25 -1.89314 0.847053 0
M  V30 1818 C 168.675 -1.78416 -0.595774 0
M  V30 1819 O 168.033 -1.12942 -1.41823 0
M  V30 1820 C 168.081 -3.3701 1.28284 0
M  V30 1821 O 167.185 -4.10054 0.439267 0
M  V30 1822 H 166.526 -0.588745 0.307044 0
M  V30 1823 H 169.056 -1.43902 1.45442 0
M  V30 1824 H 169.066 -3.87834 1.26683 0
M  V30 1825 H 167.741 -3.4426 2.33363 0
M  V30 1826 H 166.318 -3.69266 0.519312 0
M  V30 1827 N 168.503 -0.877838 -1.30888 0
M  V30 1828 C 169.453 -0.310872 -2.25871 0
M  V30 1829 C 170.437 0.556596 -1.50966 0
M  V30 1830 O 171.629 0.402187 -1.7237 0
M  V30 1831 C 168.758 0.479821 -3.3993 0
M  V30 1832 C 167.844 -0.401333 -4.22197 0
M  V30 1833 N 168.235 -1.49848 -4.83093 0
M  V30 1834 C 166.533 -0.195167 -4.45573 0
M  V30 1835 C 167.234 -2.0425 -5.44662 0
M  V30 1836 N 166.21 -1.33843 -5.26865 0
M  V30 1837 H 170.012 -1.1493 -2.70496 0
M  V30 1838 H 167.526 -0.726458 -1.45246 0
M  V30 1839 H 169.523 0.902582 -4.07012 0
M  V30 1840 H 168.183 1.31577 -2.96846 0
M  V30 1841 H 169.194 -1.88137 -4.82519 0
M  V30 1842 H 165.871 0.604192 -4.13105 0
M  V30 1843 H 167.261 -2.96345 -6.03017 0
M  V30 1844 N 169.982 1.44106 -0.638065 0
M  V30 1845 C 171.222 2.03858 -0.148733 0
M  V30 1846 C 171.586 1.49153 1.20903 0
M  V30 1847 O 172.787 2.00452 1.79088 0
M  V30 1848 C 171.058 3.57117 -0.142314 0
M  V30 1849 S 172.617 4.37897 0.281385 0
M  V30 1850 H 169.435 0.708069 -0.0644912 0
M  V30 1851 H 172.037 1.7639 -0.843009 0
M  V30 1852 H 170.741 3.94436 -1.13349 0
M  V30 1853 H 170.272 3.89205 0.572988 0
M  V30 1854 H 172.287 4.72218 1.52395 0
M  V30 1855 N 171.46 0.379036 1.52974 0
M  V30 1856 C 172.709 -0.207612 2.00629 0
M  V30 1857 C 173.022 -1.48758 1.27006 0
M  V30 1858 O 174.228 -2.15365 1.65318 0
M  V30 1859 C 172.684 -0.42053 3.57435 0
M  V30 1860 C 172.292 0.845587 4.39948 0
M  V30 1861 C 174.036 -0.964102 4.13407 0
M  V30 1862 C 171.943 0.601513 5.88333 0
M  V30 1863 H 170.873 -0.0813591 0.749598 0
M  V30 1864 H 173.524 0.499853 1.76561 0
M  V30 1865 H 171.906 -1.18959 3.7771 0
M  V30 1866 H 173.08 1.61848 4.31442 0
M  V30 1867 H 171.395 1.31336 3.95145 0
M  V30 1868 H 173.992 -1.16225 5.21916 0
M  V30 1869 H 174.335 -1.93019 3.68849 0
M  V30 1870 H 174.868 -0.25487 3.96983 0
M  V30 1871 H 171.607 1.53831 6.37194 0
M  V30 1872 H 171.127 -0.132628 5.99653 0
M  V30 1873 H 172.806 0.232134 6.46583 0
M  V30 1874 N 172.938 -1.57226 0.108567 0
M  V30 1875 C 173.87 -2.11809 -0.875752 0
M  V30 1876 C 174.883 -1.05839 -1.23701 0
M  V30 1877 O 176.072 -1.33245 -1.18778 0
M  V30 1878 C 173.172 -2.59411 -2.18081 0
M  V30 1879 C 172.345 -3.89364 -1.99284 0
M  V30 1880 C 171.404 -4.22672 -3.13424 0
M  V30 1881 O 170.43 -4.91668 -2.86795 0
M  V30 1882 N 171.632 -3.79154 -4.3957 0
M  V30 1883 H 174.397 -2.9689 -0.409477 0
M  V30 1884 H 171.958 -1.61721 -0.076158 0
M  V30 1885 H 173.95 -2.7873 -2.93414 0
M  V30 1886 H 172.52 -1.79268 -2.5609 0
M  V30 1887 H 171.74 -3.79059 -1.08203 0
M  V30 1888 H 173.028 -4.74358 -1.84017 0
M  V30 1889 H 172.426 -3.23486 -4.64083 0
M  V30 1890 H 170.983 -4.03602 -5.11809 0
M  V30 1891 N 174.416 0.165178 -1.56732 0
M  V30 1892 C 175.348 1.22911 -1.93457 0
M  V30 1893 C 176.361 1.40152 -0.828333 0
M  V30 1894 O 177.55 1.40046 -1.10677 0
M  V30 1895 C 174.65 2.59686 -2.17753 0
M  V30 1896 C 173.823 2.63663 -3.48999 0
M  V30 1897 C 172.882 3.81845 -3.62051 0
M  V30 1898 O 171.908 3.67559 -4.34613 0
M  V30 1899 N 173.11 4.98557 -2.97357 0
M  V30 1900 H 175.875 0.917118 -2.85323 0
M  V30 1901 H 173.436 0.354895 -1.57962 0
M  V30 1902 H 175.428 3.37225 -2.23743 0
M  V30 1903 H 173.998 2.83251 -1.32242 0
M  V30 1904 H 173.218 1.72173 -3.54612 0
M  V30 1905 H 174.506 2.63336 -4.35352 0
M  V30 1906 H 173.904 5.13065 -2.38287 0
M  V30 1907 H 172.461 5.73936 -3.08934 0
M  V30 1908 N 175.894 1.51508 0.433938 0
M  V30 1909 C 177.143 1.63578 1.18005 0
M  V30 1910 C 177.456 0.359514 1.92268 0
M  V30 1911 O 178.662 0.359632 2.69108 0
M  V30 1912 C 177.118 2.88901 2.14626 0
M  V30 1913 C 176.726 4.23544 1.45995 0
M  V30 1914 C 178.47 3.10328 2.89649 0
M  V30 1915 C 176.377 5.40014 2.4112 0
M  V30 1916 H 175.307 0.609277 0.444182 0
M  V30 1917 H 177.958 1.77978 0.446773 0
M  V30 1918 H 176.34 2.68142 2.91403 0
M  V30 1919 H 177.514 4.54696 0.747532 0
M  V30 1920 H 175.829 4.08021 0.831115 0
M  V30 1921 H 178.426 3.94518 3.60915 0
M  V30 1922 H 178.769 2.23544 3.51189 0
M  V30 1923 H 179.302 3.31443 2.19978 0
M  V30 1924 H 176.041 6.29068 1.84264 0
M  V30 1925 H 175.561 5.13233 3.10406 0
M  V30 1926 H 177.24 5.72099 3.02177 0
M  V30 1927 N 177.372 -0.689602 1.41712 0
M  V30 1928 C 178.302 -1.81577 1.46806 0
M  V30 1929 C 179.283 -1.66945 0.326105 0
M  V30 1930 O 180.468 -1.86588 0.538377 0
M  V30 1931 C 177.598 -3.19762 1.35535 0
M  V30 1932 C 176.552 -3.49107 2.47605 0
M  V30 1933 C 175.878 -4.86711 2.21397 0
M  V30 1934 C 177.178 -3.47483 3.89939 0
M  V30 1935 H 178.872 -1.7757 2.41058 0
M  V30 1936 H 176.418 -0.852887 1.16025 0
M  V30 1937 H 178.371 -3.98263 1.3771 0
M  V30 1938 H 177.095 -3.24409 0.377708 0
M  V30 1939 H 175.754 -2.72959 2.44722 0
M  V30 1940 H 175.402 -4.8799 1.21961 0
M  V30 1941 H 175.102 -5.0731 2.96497 0
M  V30 1942 H 176.626 -5.67515 2.25297 0
M  V30 1943 H 178.04 -4.1598 3.94505 0
M  V30 1944 H 176.437 -3.79615 4.64771 0
M  V30 1945 H 177.507 -2.46341 4.17665 0
M  V30 1946 N 178.85 -1.27639 -0.924453 0
M  V30 1947 C 179.76 -1.12466 -2.05885 0
M  V30 1948 C 180.776 -0.053869 -1.73917 0
M  V30 1949 O 181.952 -0.261012 -1.99702 0
M  V30 1950 C 179.017 -0.776768 -3.37886 0
M  V30 1951 C 178.078 -1.92878 -3.83532 0
M  V30 1952 C 177.311 -1.59739 -5.09234 0
M  V30 1953 O 177.534 -0.506782 -5.68144 0
M  V30 1954 O 176.468 -2.43761 -5.50331 0
M  V30 1955 H 180.294 -2.07671 -2.21599 0
M  V30 1956 H 177.879 -1.06857 -1.04413 0
M  V30 1957 H 179.761 -0.596229 -4.17161 0
M  V30 1958 H 178.436 0.145732 -3.23372 0
M  V30 1959 H 177.343 -2.1644 -3.0513 0
M  V30 1960 H 178.676 -2.8316 -4.02593 0
M  V30 1961 N 180.328 1.1314 -1.09713 0
M  V30 1962 C 181.291 2.16831 -0.742751 0
M  V30 1963 C 182.291 1.59159 0.229129 0
M  V30 1964 O 183.481 1.74199 0.00693237 0
M  V30 1965 C 180.613 3.40756 -0.0989168 0
M  V30 1966 H 181.806 2.49695 -1.66109 0
M  V30 1967 H 179.359 1.2802 -0.896699 0
M  V30 1968 H 180.094 3.13485 0.830514 0
M  V30 1969 H 179.879 3.83888 -0.798265 0
M  V30 1970 H 181.369 4.17386 0.133524 0
M  V30 1971 N 181.806 0.884767 1.30421 0
M  V30 1972 C 183.052 0.503851 1.96441 0
M  V30 1973 C 183.385 -0.944518 1.69684 0
M  V30 1974 O 182.66 -1.66737 1.00145 0
M  V30 1975 C 182.943 0.779085 3.51571 0
M  V30 1976 C 182.796 2.27807 3.87846 0
M  V30 1977 C 184.115 0.255452 4.39358 0
M  V30 1978 H 181.234 0.184533 0.713524 0
M  V30 1979 H 183.876 1.10872 1.54297 0
M  V30 1980 H 182.026 0.264274 3.876 0
M  V30 1981 H 183.698 2.86127 3.61841 0
M  V30 1982 H 181.941 2.74479 3.35922 0
M  V30 1983 H 182.612 2.42125 4.96064 0
M  V30 1984 H 185.088 0.696079 4.10236 0
M  V30 1985 H 183.964 0.477361 5.4682 0
M  V30 1986 H 184.225 -0.843293 4.33983 0
M  V30 1987 N 183.284 -1.43765 0.645699 0
M  V30 1988 C 184.214 -2.33471 -0.0370477 0
M  V30 1989 C 185.195 -1.49042 -0.819779 0
M  V30 1990 O 186.38 -1.77726 -0.782758 0
M  V30 1991 C 183.51 -3.32311 -1.0093 0
M  V30 1992 C 182.464 -4.2667 -0.337201 0
M  V30 1993 C 181.79 -5.1549 -1.42037 0
M  V30 1994 C 183.09 -5.16657 0.765706 0
M  V30 1995 H 184.784 -2.90809 0.712069 0
M  V30 1996 H 182.33 -1.39834 0.343876 0
M  V30 1997 H 184.283 -3.9396 -1.49578 0
M  V30 1998 H 183.007 -2.73213 -1.78948 0
M  V30 1999 H 181.666 -3.66374 0.128771 0
M  V30 2000 H 181.314 -4.52735 -2.1918 0
M  V30 2001 H 181.014 -5.79438 -0.975966 0
M  V30 2002 H 182.538 -5.80012 -1.90838 0
M  V30 2003 H 183.952 -5.72158 0.361702 0
M  V30 2004 H 182.349 -5.89286 1.13413 0
M  V30 2005 H 183.419 -4.56796 1.62683 0
M  V30 2006 N 184.763 -0.387143 -1.52771 0
M  V30 2007 C 185.713 0.465942 -2.23188 0
M  V30 2008 C 186.697 1.03138 -1.23496 0
M  V30 2009 O 187.889 0.957845 -1.48843 0
M  V30 2010 C 185.018 1.59384 -3.04059 0
M  V30 2011 C 184.104 1.04024 -4.11144 0
M  V30 2012 N 184.495 0.211416 -5.05358 0
M  V30 2013 C 182.793 1.31295 -4.26237 0
M  V30 2014 C 183.494 -0.0941698 -5.81624 0
M  V30 2015 N 182.47 0.509207 -5.4121 0
M  V30 2016 H 186.272 -0.173856 -2.93385 0
M  V30 2017 H 183.786 -0.19633 -1.61209 0
M  V30 2018 H 185.783 2.21738 -3.53041 0
M  V30 2019 H 184.443 2.23648 -2.35397 0
M  V30 2020 H 185.454 -0.151151 -5.17679 0
M  V30 2021 H 182.131 1.95679 -3.68803 0
M  V30 2022 H 183.521 -0.765572 -6.67524 0
M  V30 2023 N 186.241 1.57166 -0.116904 0
M  V30 2024 C 187.481 1.97008 0.544715 0
M  V30 2025 C 187.845 0.998713 1.63981 0
M  V30 2026 O 189.046 1.28644 2.36018 0
M  V30 2027 C 187.317 3.41145 1.06559 0
M  V30 2028 S 188.876 4.02998 1.73603 0
M  V30 2029 H 185.694 0.688587 0.177112 0
M  V30 2030 H 188.296 1.94459 -0.201487 0
M  V30 2031 H 187 4.09592 0.257374 0
M  V30 2032 H 186.531 3.4734 1.84712 0
M  V30 2033 H 188.546 3.93585 3.02168 0
M  V30 2034 N 187.719 -0.156864 1.56817 0
M  V30 2035 C 188.669 -1.19891 1.93934 0
M  V30 2036 C 189.653 -1.39061 0.809372 0
M  V30 2037 O 190.845 -1.40789 1.07273 0
M  V30 2038 C 187.974 -2.53493 2.31508 0
M  V30 2039 C 187.06 -2.37957 3.51052 0
M  V30 2040 N 187.451 -1.92158 4.67877 0
M  V30 2041 C 185.749 -2.68739 3.55943 0
M  V30 2042 C 186.45 -1.8943 5.49992 0
M  V30 2043 N 185.426 -2.32375 4.91429 0
M  V30 2044 H 189.228 -0.836746 2.81737 0
M  V30 2045 H 186.742 -0.365012 1.58245 0
M  V30 2046 H 188.739 -3.28811 2.56299 0
M  V30 2047 H 187.399 -2.905 1.45051 0
M  V30 2048 H 188.41 -1.62274 4.91821 0
M  V30 2049 H 185.087 -3.09687 2.80001 0
M  V30 2050 H 186.477 -1.55596 6.53636 0
M  V30 2051 N 189.197 -1.51736 -0.425897 0
M  V30 2052 C 190.129 -1.70083 -1.53638 0
M  V30 2053 C 191.142 -0.581349 -1.52066 0
M  V30 2054 O 192.331 -0.856017 -1.56635 0
M  V30 2055 C 189.431 -1.71078 -2.9255 0
M  V30 2056 C 188.604 -2.99795 -3.185 0
M  V30 2057 C 187.663 -2.92825 -4.37196 0
M  V30 2058 O 186.689 -3.66756 -4.35291 0
M  V30 2059 N 187.891 -2.0946 -5.41393 0
M  V30 2060 H 190.656 -2.65882 -1.383 0
M  V30 2061 H 188.217 -1.49765 -0.614988 0
M  V30 2062 H 190.209 -1.63969 -3.69995 0
M  V30 2063 H 188.779 -0.828242 -3.01428 0
M  V30 2064 H 187.999 -3.20684 -2.2925 0
M  V30 2065 H 189.287 -3.84977 -3.32671 0
M  V30 2066 H 188.685 -1.48792 -5.45781 0
M  V30 2067 H 187.242 -2.08221 -6.17647 0
M  V30 2068 N 190.675 0.682077 -1.42076 0
M  V30 2069 C 191.608 1.80666 -1.3941 0
M  V30 2070 C 192.586 1.60518 -0.25939 0
M  V30 2071 O 193.77 1.83088 -0.448456 0
M  V30 2072 C 190.897 3.17556 -1.17796 0
M  V30 2073 C 189.943 3.56468 -2.34164 0
M  V30 2074 S 190.776 3.59729 -3.96681 0
M  V30 2075 C 191.932 4.99323 -3.77395 0
M  V30 2076 H 192.165 1.82652 -2.34575 0
M  V30 2077 H 189.698 0.852062 -1.2876 0
M  V30 2078 H 191.656 3.96575 -1.06012 0
M  V30 2079 H 190.317 3.13164 -0.242279 0
M  V30 2080 H 189.51 4.5595 -2.1477 0
M  V30 2081 H 189.112 2.84792 -2.42425 0
M  V30 2082 H 191.404 5.87202 -3.37935 0
M  V30 2083 H 192.347 5.23763 -4.76527 0
M  V30 2084 H 192.755 4.71498 -3.10403 0
M  V30 2085 N 192.153 1.28127 0.917671 0
M  V30 2086 C 193.401 1.14825 1.66312 0
M  V30 2087 C 193.722 -0.304379 1.9261 0
M  V30 2088 O 192.992 -1.21149 1.53947 0
M  V30 2089 H 191.572 0.421953 0.616413 0
M  V30 2090 H 194.234 1.608 1.10134 0
M  V30 2091 H 193.33 1.68489 2.62712 0
M  V30 2092 N 193.631 -1.12557 1.10312 0
M  V30 2093 C 194.877 -1.84311 0.846011 0
M  V30 2094 C 195.21 -1.83805 -0.626859 0
M  V30 2095 O 194.485 -1.28268 -1.46211 0
M  V30 2096 C 194.768 -3.32048 1.39341 0
M  V30 2097 C 194.621 -3.41016 2.93305 0
M  V30 2098 C 195.94 -4.27764 1.03468 0
M  V30 2099 H 193.059 -0.669192 0.30879 0
M  V30 2100 H 195.701 -1.32057 1.36605 0
M  V30 2101 H 193.851 -3.76678 0.951087 0
M  V30 2102 H 195.523 -3.05031 3.46055 0
M  V30 2103 H 193.766 -2.81603 3.29973 0
M  V30 2104 H 194.437 -4.44948 3.26689 0
M  V30 2105 H 196.913 -3.91253 1.41633 0
M  V30 2106 H 195.789 -5.29549 1.44463 0
M  V30 2107 H 196.05 -4.42064 -0.0560404 0
M  V30 2108 N 195.109 -0.891671 -1.2995 0
M  V30 2109 C 196.355 -0.514261 -1.96171 0
M  V30 2110 C 196.688 0.935506 -1.70182 0
M  V30 2111 O 195.963 1.66204 -1.01028 0
M  V30 2112 C 196.246 -0.797719 -3.51153 0
M  V30 2113 C 196.099 -2.2986 -3.86632 0
M  V30 2114 C 197.418 -0.278749 -4.39216 0
M  V30 2115 H 194.537 -0.188314 -0.712535 0
M  V30 2116 H 197.179 -1.11689 -1.53706 0
M  V30 2117 H 195.329 -0.284826 -3.87455 0
M  V30 2118 H 197.001 -2.88042 -3.60319 0
M  V30 2119 H 195.244 -2.76257 -3.34462 0
M  V30 2120 H 195.915 -2.44753 -4.94773 0
M  V30 2121 H 198.391 -0.717825 -4.09862 0
M  V30 2122 H 197.267 -0.506353 -5.46559 0
M  V30 2123 H 197.528 0.820266 -4.34424 0
M  V30 2124 N 196.587 1.43421 -0.653314 0
M  V30 2125 C 197.537 2.2792 0.060558 0
M  V30 2126 C 198.521 1.39906 0.794677 0
M  V30 2127 O 199.713 1.63536 0.677128 0
M  V30 2128 C 196.842 3.27603 1.0262 0
M  V30 2129 C 195.928 4.23104 0.290551 0
M  V30 2130 N 196.319 5.01031 -0.692967 0
M  V30 2131 C 194.617 4.42816 0.531984 0
M  V30 2132 C 195.318 5.70626 -1.12963 0
M  V30 2133 N 194.294 5.41617 -0.463867 0
M  V30 2134 H 198.096 2.85585 -0.694143 0
M  V30 2135 H 195.61 1.55126 -0.480602 0
M  V30 2136 H 197.607 3.86918 1.55242 0
M  V30 2137 H 196.267 2.71499 1.78096 0
M  V30 2138 H 197.278 5.0669 -1.07169 0
M  V30 2139 H 193.955 3.97782 1.26791 0
M  V30 2140 H 195.345 6.4318 -1.94343 0
M  V30 2141 N 198.065 0.39524 1.52563 0
M  V30 2142 C 199.481 0.0454682 1.59535 0
M  V30 2143 C 199.681 -1.44056 1.4089 0
M  V30 2144 O 198.737 -2.20579 1.22888 0
M  V30 2145 C 200.05 0.527963 2.96029 0
M  V30 2146 C 201.598 0.484733 3.09224 0
M  V30 2147 C 202.073 0.943512 4.48176 0
M  V30 2148 N 203.564 0.899765 4.54377 0
M  V30 2149 C 204.299 1.22609 5.60138 0
M  V30 2150 N 203.795 1.62319 6.73516 0
M  V30 2151 N 205.588 1.14696 5.50274 0
M  V30 2152 H 197.739 1.36261 1.62931 0
M  V30 2153 H 200.002 0.558887 0.765735 0
M  V30 2154 H 199.708 1.56607 3.14908 0
M  V30 2155 H 199.582 -0.0698056 3.77135 0
M  V30 2156 H 201.969 -0.544298 2.90037 0
M  V30 2157 H 202.05 1.11838 2.30056 0
M  V30 2158 H 201.694 1.9708 4.68104 0
M  V30 2159 H 201.624 0.286817 5.25818 0
M  V30 2160 H 204.115 0.607632 3.72983 0
M  V30 2161 H 204.428 1.85567 7.5019 0
M  V30 2162 H 202.773 1.66211 6.74833 0
M  V30 2163 H 205.964 0.835701 4.6058 0
M  V30 2164 H 206.137 1.40459 6.32594 0
M  V30 2165 N 199.544 -1.57102 0.125237 0
M  V30 2166 C 200.821 -1.86953 -0.575142 0
M  V30 2167 C 201.201 -1.02749 -1.84407 0
M  V30 2168 O 200.549 -0.108144 -2.28244 0
M  V30 2169 C 200.759 -3.38198 -0.861583 0
M  V30 2170 C 202.107 -4.06937 -1.21192 0
M  V30 2171 O 203.131 -3.43252 -0.951645 0
M  V30 2172 O 201.99 -5.19364 -1.70068 0
M  V30 2173 H 199.084 -0.774147 -0.290906 0
M  V30 2174 H 201.63 -1.68942 0.160211 0
M  V30 2175 H 200.402 -3.91282 0.0373647 0
M  V30 2176 H 200.025 -3.61661 -1.65188 0
M  V30 2177 N 201.022 0.148545 -1.56898 0
M  V30 2178 C 201.952 1.18524 -2.01182 0
M  V30 2179 C 202.933 1.4489 -0.891123 0
M  V30 2180 O 204.118 1.55836 -1.15882 0
M  V30 2181 C 201.248 2.51879 -2.39112 0
M  V30 2182 C 200.202 2.40038 -3.54353 0
M  V30 2183 C 199.528 3.78089 -3.78091 0
M  V30 2184 C 200.828 1.88577 -4.87069 0
M  V30 2185 H 202.522 0.817029 -2.88036 0
M  V30 2186 H 200.068 0.391575 -1.38574 0
M  V30 2187 H 202.021 3.24627 -2.68692 0
M  V30 2188 H 200.745 2.90532 -1.49193 0
M  V30 2189 H 199.404 1.69742 -3.24936 0
M  V30 2190 H 199.052 4.14175 -2.85426 0
M  V30 2191 H 198.752 3.71028 -4.55645 0
M  V30 2192 H 200.276 4.52387 -4.10095 0
M  V30 2193 H 201.69 2.51117 -5.15377 0
M  V30 2194 H 200.087 1.9241 -5.68417 0
M  V30 2195 H 201.157 0.84136 -4.77545 0
M  V30 2196 N 202.5 1.5196 0.417844 0
M  V30 2197 C 203.447 1.74678 1.50852 0
M  V30 2198 C 204.417 0.588947 1.55308 0
M  V30 2199 O 205.602 0.825544 1.72016 0
M  V30 2200 C 202.742 1.89544 2.88387 0
M  V30 2201 C 201.855 3.17166 2.93309 0
M  V30 2202 C 200.99 3.22513 4.22088 0
M  V30 2203 C 200.029 4.44372 4.20951 0
M  V30 2204 N 199.166 4.47161 5.41287 0
M  V30 2205 H 204.006 2.67768 1.30783 0
M  V30 2206 H 201.543 1.32689 0.63498 0
M  V30 2207 H 203.501 1.96146 3.68216 0
M  V30 2208 H 202.131 0.998424 3.06971 0
M  V30 2209 H 201.183 3.19778 2.06024 0
M  V30 2210 H 202.495 4.07021 2.88332 0
M  V30 2211 H 201.649 3.28139 5.10303 0
M  V30 2212 H 200.388 2.30581 4.29748 0
M  V30 2213 H 199.393 4.38902 3.31127 0
M  V30 2214 H 200.618 5.3759 4.14938 0
M  V30 2215 H 198.564 3.58108 5.49632 0
M  V30 2216 H 198.481 5.3085 5.3827 0
M  V30 2217 H 199.749 4.57005 6.3148 0
M  V30 2218 N 203.978 -0.674533 1.42435 0
M  V30 2219 C 205.389 -1.25514 1.38214 0
M  V30 2220 C 205.74 -1.96055 0.0755464 0
M  V30 2221 O 204.865 -2.00028 -0.8257 0
M  V30 2222 C 205.46 -2.28269 2.50357 0
M  V30 2223 C 204.019 -2.81856 2.49467 0
M  V30 2224 C 203.166 -1.56182 2.29134 0
M  V30 2225 H 206.117 -0.467902 1.51646 0
M  V30 2226 H 206.138 -3.10009 2.20624 0
M  V30 2227 H 205.65 -1.769 3.45439 0
M  V30 2228 H 203.751 -3.37346 1.58204 0
M  V30 2229 H 203.864 -3.30854 3.46515 0
M  V30 2230 H 202.228 -1.82761 1.774 0
M  V30 2231 H 203.011 -1.06778 3.26272 0
M  V30 2232 N 205.456 -1.28612 -0.910864 0
M  V30 2233 C 206.366 -1.14643 -2.0468 0
M  V30 2234 C 207.382 -0.0723121 -1.7385 0
M  V30 2235 O 208.558 -0.282178 -1.99413 0
M  V30 2236 C 205.623 -0.812561 -3.37044 0
M  V30 2237 C 204.684 -1.96935 -3.81465 0
M  V30 2238 C 203.917 -1.65131 -5.07511 0
M  V30 2239 O 204.14 -0.567013 -5.67575 0
M  V30 2240 O 203.074 -2.49585 -5.47714 0
M  V30 2241 H 206.9 -2.1001 -2.19384 0
M  V30 2242 H 204.485 -1.07958 -1.03274 0
M  V30 2243 H 206.367 -0.640441 -4.16505 0
M  V30 2244 H 205.042 0.111426 -3.23508 0
M  V30 2245 H 203.949 -2.19664 -3.02818 0
M  V30 2246 H 205.282 -2.87414 -3.99567 0
M  V30 2247 N 206.934 1.1197 -1.10907 0
M  V30 2248 C 207.882 2.19927 -0.757303 0
M  V30 2249 C 208.876 1.67564 0.248747 0
M  V30 2250 O 210.082 1.79672 0.108605 0
M  V30 2251 H 206.457 0.716925 -0.226987 0
M  V30 2252 H 208.428 2.46847 -1.67658 0
M  V30 2253 C 207.177 3.47061 -0.210671 0
M  V30 2254 H 206.5 3.87703 -0.976049 0
M  V30 2255 H 207.94 4.24 -0.0026584 0
M  V30 2256 C 206.399 3.19864 1.05777 0
M  V30 2257 O 206.929 3.40049 2.13845 0
M  V30 2258 N 205.135 2.73636 0.978349 0
M  V30 2259 H 204.682 2.5741 0.0988246 0
M  V30 2260 H 204.64 2.55815 1.82773 0
M  V30 2261 N 208.412 0.89855 1.29475 0
M  V30 2262 C 209.342 0.39201 2.30186 0
M  V30 2263 C 210.323 -0.532359 1.61555 0
M  V30 2264 O 211.508 -0.443331 1.89072 0
M  V30 2265 C 208.638 -0.382353 3.45189 0
M  V30 2266 C 207.592 0.451483 4.25612 0
M  V30 2267 C 206.918 -0.450307 5.328 0
M  V30 2268 C 208.218 1.70079 4.93832 0
M  V30 2269 H 209.912 1.23362 2.72804 0
M  V30 2270 H 207.458 0.594638 1.31149 0
M  V30 2271 H 209.411 -0.747451 4.14718 0
M  V30 2272 H 208.135 -1.25774 3.01411 0
M  V30 2273 H 206.794 0.798897 3.57789 0
M  V30 2274 H 206.442 -1.32379 4.85268 0
M  V30 2275 H 206.142 0.103902 5.87508 0
M  V30 2276 H 207.666 -0.811623 6.05182 0
M  V30 2277 H 209.08 1.40549 5.55805 0
M  V30 2278 H 207.477 2.19623 5.58467 0
M  V30 2279 H 208.547 2.43744 4.19186 0
M  V30 2280 N 209.89 -1.43072 0.660911 0
M  V30 2281 C 210.82 -2.33497 -0.0122829 0
M  V30 2282 C 211.801 -1.49903 -0.803925 0
M  V30 2283 O 212.986 -1.78546 -0.763864 0
M  V30 2284 C 210.116 -3.33363 -0.973994 0
M  V30 2285 C 209.07 -4.27003 -0.291928 0
M  V30 2286 C 208.396 -5.16967 -1.36562 0
M  V30 2287 C 209.696 -5.15816 0.820462 0
M  V30 2288 H 211.39 -2.90038 0.742873 0
M  V30 2289 H 208.936 -1.39461 0.358688 0
M  V30 2290 H 210.889 -3.95524 -1.45392 0
M  V30 2291 H 209.613 -2.75095 -1.7604 0
M  V30 2292 H 208.272 -3.66217 0.167623 0
M  V30 2293 H 207.92 -4.55034 -2.14366 0
M  V30 2294 H 207.62 -5.80441 -0.914454 0
M  V30 2295 H 209.144 -5.82003 -1.84675 0
M  V30 2296 H 210.558 -5.71742 0.422366 0
M  V30 2297 H 208.955 -5.8805 1.19656 0
M  V30 2298 H 210.025 -4.55045 1.67518 0
M  V30 2299 N 211.368 -0.403325 -1.52352 0
M  V30 2300 C 212.298 0.416205 -2.29761 0
M  V30 2301 C 213.279 1.05123 -1.33728 0
M  V30 2302 O 214.464 1.06134 -1.62632 0
M  V30 2303 C 211.594 1.53624 -3.11475 0
M  V30 2304 C 210.548 1.02653 -4.15507 0
M  V30 2305 C 209.874 2.23971 -4.85532 0
M  V30 2306 C 211.174 0.08463 -5.22231 0
M  V30 2307 H 212.868 -0.229701 -2.98518 0
M  V30 2308 H 210.414 -0.111913 -1.43564 0
M  V30 2309 H 212.367 2.1165 -3.64393 0
M  V30 2310 H 211.091 2.20994 -2.40477 0
M  V30 2311 H 209.75 0.46871 -3.63591 0
M  V30 2312 H 209.398 2.89883 -4.11068 0
M  V30 2313 H 209.098 1.90521 -5.55856 0
M  V30 2314 H 210.622 2.82614 -5.41259 0
M  V30 2315 H 212.036 0.573509 -5.70424 0
M  V30 2316 H 210.433 -0.160783 -5.99885 0
M  V30 2317 H 211.503 -0.86237 -4.7717 0
M  V30 2318 N 212.846 1.57033 -0.133567 0
M  V30 2319 C 213.809 2.14897 0.796995 0
M  V30 2320 C 214.809 1.0874 1.18458 0
M  V30 2321 O 215.999 1.34446 1.1077 0
M  V30 2322 C 213.131 2.70112 2.07973 0
M  V30 2323 H 214.324 2.98457 0.293873 0
M  V30 2324 H 211.877 1.55871 0.115787 0
M  V30 2325 H 212.612 1.9018 2.62682 0
M  V30 2326 H 212.397 3.47764 1.81115 0
M  V30 2327 H 213.887 3.14738 2.74462 0
M  V30 2328 N 214.325 -0.140222 1.56975 0
M  V30 2329 C 215.55 -0.870414 1.88251 0
M  V30 2330 C 215.975 -1.73637 0.723312 0
M  V30 2331 O 215.333 -1.78329 -0.32689 0
M  V30 2332 C 215.381 -1.69737 3.18154 0
M  V30 2333 O 214.485 -2.80229 3.02565 0
M  V30 2334 H 213.826 -0.242025 0.61832 0
M  V30 2335 H 216.356 -0.128999 2.04193 0
M  V30 2336 H 216.366 -2.09099 3.50345 0
M  V30 2337 H 215.041 -1.06152 4.02125 0
M  V30 2338 H 213.618 -2.44224 2.81796 0
M  V30 2339 N 215.803 -1.52179 -0.40978 0
M  V30 2340 C 216.75 -1.75475 -1.49924 0
M  V30 2341 C 217.72 -0.597175 -1.54994 0
M  V30 2342 O 218.905 -0.834655 -1.71575 0
M  V30 2343 C 216.045 -1.9107 -2.87378 0
M  V30 2344 C 215.158 -3.18717 -2.91622 0
M  V30 2345 C 214.293 -3.24747 -4.20372 0
M  V30 2346 C 213.332 -4.46598 -4.18588 0
M  V30 2347 N 212.469 -4.50025 -5.38908 0
M  V30 2348 H 217.309 -2.68458 -1.29361 0
M  V30 2349 H 214.846 -1.33024 -0.627934 0
M  V30 2350 H 216.804 -1.98096 -3.6717 0
M  V30 2351 H 215.434 -1.01469 -3.06437 0
M  V30 2352 H 214.486 -3.20866 -2.04326 0
M  V30 2353 H 215.798 -4.08544 -2.86169 0
M  V30 2354 H 214.952 -3.30841 -5.08556 0
M  V30 2355 H 213.691 -2.32857 -4.28519 0
M  V30 2356 H 212.696 -4.40652 -3.28794 0
M  V30 2357 H 213.921 -5.39783 -4.12081 0
M  V30 2358 H 211.867 -3.61017 -5.47725 0
M  V30 2359 H 211.784 -5.33697 -5.35447 0
M  V30 2360 H 213.052 -4.60347 -6.29048 0
M  V30 2361 N 217.281 0.66697 -1.42791 0
M  V30 2362 C 218.521 1.43892 -1.4517 0
M  V30 2363 C 218.885 1.91877 -0.0687551 0
M  V30 2364 O 220.086 2.6878 0.0327455 0
M  V30 2365 C 218.357 2.59839 -2.45395 0
M  V30 2366 S 219.916 3.48572 -2.66539 0
M  V30 2367 H 216.734 0.491356 -0.513897 0
M  V30 2368 H 219.336 0.775656 -1.79454 0
M  V30 2369 H 218.04 2.22838 -3.44632 0
M  V30 2370 H 217.571 3.3103 -2.12562 0
M  V30 2371 H 219.586 4.56094 -1.95429 0
M  V30 2372 N 218.759 1.29093 0.90403 0
M  V30 2373 C 219.706 1.13853 2.00764 0
M  V30 2374 C 220.676 0.0330084 1.66067 0
M  V30 2375 O 221.861 0.199733 1.89752 0
M  V30 2376 C 219.001 0.816537 3.35301 0
M  V30 2377 C 218.114 2.00206 3.82807 0
M  V30 2378 C 217.249 1.61983 5.059 0
M  V30 2379 C 216.288 2.77143 5.45764 0
M  V30 2380 N 215.425 2.39346 6.60044 0
M  V30 2381 H 220.265 2.08276 2.13132 0
M  V30 2382 H 217.802 1.03648 1.04381 0
M  V30 2383 H 219.76 0.610557 4.12708 0
M  V30 2384 H 218.39 -0.090779 3.22672 0
M  V30 2385 H 217.442 2.31988 3.01473 0
M  V30 2386 H 218.754 2.86512 4.08304 0
M  V30 2387 H 217.908 1.37649 5.90879 0
M  V30 2388 H 216.647 0.728202 4.82233 0
M  V30 2389 H 215.652 3.02165 4.59322 0
M  V30 2390 H 216.877 3.66964 5.71414 0
M  V30 2391 H 214.823 1.52665 6.37989 0
M  V30 2392 H 214.74 3.19185 6.85315 0
M  V30 2393 H 216.008 2.1832 7.48303 0
M  V30 2394 N 220.237 -1.11381 1.11499 0
M  V30 2395 C 221.485 -1.8277 0.862524 0
M  V30 2396 C 221.806 -1.85097 -0.613534 0
M  V30 2397 O 221.076 -1.32198 -1.4457 0
M  V30 2398 H 219.656 -0.676823 0.316101 0
M  V30 2399 H 222.318 -1.34816 1.4075 0
M  V30 2400 H 221.414 -2.86614 1.23527 0
M  V30 2401 N 221.715 -0.905404 -1.28997 0
M  V30 2402 C 222.678 -0.392253 -2.25819 0
M  V30 2403 C 223.678 0.476753 -1.5357 0
M  V30 2404 O 224.868 0.280994 -1.71919 0
M  V30 2405 C 222 0.438588 -3.38067 0
M  V30 2406 H 223.193 -1.24743 -2.72725 0
M  V30 2407 H 220.746 -0.684051 -1.40536 0
M  V30 2408 H 221.481 1.31352 -2.96508 0
M  V30 2409 H 221.266 -0.184167 -3.91667 0
M  V30 2410 H 222.756 0.78873 -4.10084 0
M  V30 2411 N 223.193 1.4272 -0.668489 0
M  V30 2412 C 224.156 2.292 0.00448567 0
M  V30 2413 C 225.156 1.43001 0.735339 0
M  V30 2414 O 226.346 1.64461 0.57429 0
M  V30 2415 C 223.478 3.25375 1.01705 0
M  V30 2416 H 224.671 2.90199 -0.756608 0
M  V30 2417 H 222.224 1.50254 -0.430506 0
M  V30 2418 H 222.959 2.69301 1.80686 0
M  V30 2419 H 222.744 3.88944 0.496463 0
M  V30 2420 H 224.234 3.90245 1.48655 0
M  V30 2421 N 224.671 0.411399 1.52136 0
M  V30 2422 C 225.917 -0.163888 2.02137 0
M  V30 2423 C 226.25 -1.44597 1.29636 0
M  V30 2424 O 225.525 -1.90272 0.403353 0
M  V30 2425 C 225.808 -0.40927 3.57767 0
M  V30 2426 C 225.661 0.889643 4.40914 0
M  V30 2427 C 226.98 -1.19042 4.23694 0
M  V30 2428 H 224.099 -0.0580896 0.734707 0
M  V30 2429 H 226.741 0.54531 1.82007 0
M  V30 2430 H 224.891 -1.0134 3.7505 0
M  V30 2431 H 226.563 1.52575 4.35337 0
M  V30 2432 H 224.806 1.50011 4.07037 0
M  V30 2433 H 225.477 0.672314 5.4789 0
M  V30 2434 H 227.953 -0.678942 4.10524 0
M  V30 2435 H 226.829 -1.33086 5.32522 0
M  V30 2436 H 227.09 -2.21166 3.82803 0
M  V30 2437 N 226.149 -1.5696 0.141893 0
M  V30 2438 C 227.096 -2.16501 -0.799737 0
M  V30 2439 C 228.066 -1.09643 -1.24771 0
M  V30 2440 O 229.251 -1.3766 -1.32115 0
M  V30 2441 C 226.391 -2.78679 -2.03549 0
M  V30 2442 C 225.504 -3.99914 -1.6338 0
M  V30 2443 C 224.639 -4.50106 -2.82096 0
M  V30 2444 C 223.678 -5.63819 -2.38275 0
M  V30 2445 N 222.815 -6.08651 -3.49983 0
M  V30 2446 H 227.655 -2.96632 -0.285179 0
M  V30 2447 H 225.192 -1.46533 -0.129053 0
M  V30 2448 H 227.15 -3.1287 -2.75986 0
M  V30 2449 H 225.78 -2.012 -2.52425 0
M  V30 2450 H 224.832 -3.71735 -0.807279 0
M  V30 2451 H 226.144 -4.82311 -1.27192 0
M  V30 2452 H 225.298 -4.86325 -3.62729 0
M  V30 2453 H 224.037 -3.66706 -3.21525 0
M  V30 2454 H 223.042 -5.2718 -1.56081 0
M  V30 2455 H 224.267 -6.49 -1.99938 0
M  V30 2456 H 222.213 -5.28188 -3.89042 0
M  V30 2457 H 222.13 -6.85961 -3.17794 0
M  V30 2458 H 223.398 -6.49515 -4.30988 0
M  V30 2459 N 227.627 0.131896 -1.57047 0
M  V30 2460 C 228.557 1.16384 -2.02428 0
M  V30 2461 C 229.538 1.43936 -0.90644 0
M  V30 2462 O 230.723 1.54599 -1.17528 0
M  V30 2463 C 227.853 2.49328 -2.4177 0
M  V30 2464 C 226.807 2.36266 -3.56879 0
M  V30 2465 C 226.133 3.74057 -3.8208 0
M  V30 2466 C 227.433 1.834 -4.89042 0
M  V30 2467 H 229.127 0.786433 -2.88887 0
M  V30 2468 H 226.673 0.376855 -1.38981 0
M  V30 2469 H 228.626 3.21759 -2.7212 0
M  V30 2470 H 227.35 2.88934 -1.52266 0
M  V30 2471 H 226.009 1.66286 -3.26718 0
M  V30 2472 H 225.657 4.11125 -2.89803 0
M  V30 2473 H 225.357 3.66174 -4.59554 0
M  V30 2474 H 226.881 4.48012 -4.1487 0
M  V30 2475 H 228.295 2.45636 -5.18011 0
M  V30 2476 H 226.692 1.8637 -5.70426 0
M  V30 2477 H 227.762 0.790662 -4.7841 0
M  V30 2478 N 229.106 1.52395 0.401703 0
M  V30 2479 C 230.069 1.75636 1.47257 0
M  V30 2480 C 231.069 0.62628 1.48103 0
M  V30 2481 O 232.259 0.894227 1.49497 0
M  V30 2482 C 229.391 1.84553 2.86624 0
M  V30 2483 H 230.584 2.71241 1.27938 0
M  V30 2484 H 228.137 1.42923 0.632662 0
M  V30 2485 H 228.872 0.908882 3.11303 0
M  V30 2486 H 228.657 2.66715 2.87412 0
M  V30 2487 H 230.147 2.04251 3.64241 0
M  V30 2488 N 230.584 -0.659388 1.43143 0
M  V30 2489 C 231.861 -1.41627 1.34912 0
M  V30 2490 C 232.241 -2.11099 -0.00607785 0
M  V30 2491 O 231.589 -2.04353 -1.02236 0
M  V30 2492 C 231.799 -2.40604 2.52805 0
M  V30 2493 C 233.147 -3.04789 2.95616 0
M  V30 2494 O 234.171 -2.50932 2.52807 0
M  V30 2495 O 233.03 -4.02421 3.69756 0
M  V30 2496 H 230.124 -0.63246 0.532844 0
M  V30 2497 H 232.67 -0.686814 1.5518 0
M  V30 2498 H 231.442 -1.88174 3.43083 0
M  V30 2499 H 231.065 -3.21009 2.34604 0
M  V30 2500 N 232.062 -1.29571 -0.897171 0
M  V30 2501 C 233.309 -1.17689 -1.6479 0
M  V30 2502 C 233.637 0.27107 -1.92602 0
M  V30 2503 O 232.892 1.21193 -1.53658 0
M  V30 2504 C 233.191 -1.9382 -3.00281 0
M  V30 2505 C 232.857 -3.43522 -2.92068 0
M  V30 2506 C 231.519 -3.84348 -2.89535 0
M  V30 2507 C 233.871 -4.38906 -2.81089 0
M  V30 2508 C 231.199 -5.18869 -2.73846 0
M  V30 2509 C 233.551 -5.73521 -2.66939 0
M  V30 2510 C 232.215 -6.13601 -2.62774 0
M  V30 2511 H 231.485 -0.430654 -0.603008 0
M  V30 2512 H 234.132 -1.60536 -1.04404 0
M  V30 2513 H 232.437 -1.4357 -3.64547 0
M  V30 2514 H 234.134 -1.82028 -3.57305 0
M  V30 2515 H 230.724 -3.11072 -2.94842 0
M  V30 2516 H 234.908 -4.08315 -2.82121 0
M  V30 2517 H 230.164 -5.4903 -2.69027 0
M  V30 2518 H 234.338 -6.47078 -2.57416 0
M  V30 2519 H 231.965 -7.17786 -2.50375 0
M  V30 2520 N 233.54 1.10788 -1.12088 0
M  V30 2521 C 234.788 1.8231 -0.872205 0
M  V30 2522 C 235.109 1.85419 0.603709 0
M  V30 2523 O 234.379 1.32963 1.43867 0
M  V30 2524 H 232.959 0.675137 -0.319686 0
M  V30 2525 H 235.621 1.34068 -1.41463 0
M  V30 2526 H 234.717 2.85955 -1.25045 0
M  V30 2527 N 235.018 0.912232 1.28515 0
M  V30 2528 C 235.948 0.416403 2.29757 0
M  V30 2529 C 236.929 -0.515194 1.6211 0
M  V30 2530 O 238.114 -0.423253 1.89532 0
M  V30 2531 C 235.244 -0.34572 3.45575 0
M  V30 2532 C 234.198 0.496599 4.25109 0
M  V30 2533 C 233.524 -0.393771 5.33248 0
M  V30 2534 C 234.824 1.75307 4.92001 0
M  V30 2535 H 236.518 1.26249 2.7148 0
M  V30 2536 H 234.064 0.608515 1.30511 0
M  V30 2537 H 236.017 -0.703422 4.15488 0
M  V30 2538 H 234.741 -1.2257 3.02728 0
M  V30 2539 H 233.4 0.8368 3.56922 0
M  V30 2540 H 233.048 -1.27225 4.86644 0
M  V30 2541 H 232.748 0.166209 5.87365 0
M  V30 2542 H 234.272 -0.747389 6.06009 0
M  V30 2543 H 235.686 1.46437 5.54283 0
M  V30 2544 H 234.083 2.25534 5.56106 0
M  V30 2545 H 235.153 2.48176 4.16577 0
M  V30 2546 N 236.496 -1.42363 0.676048 0
M  V30 2547 C 237.459 -2.29199 0.00766941 0
M  V30 2548 C 238.459 -1.43389 -0.727745 0
M  V30 2549 O 239.649 -1.64764 -0.56556 0
M  V30 2550 C 236.781 -3.2591 -0.999785 0
M  V30 2551 H 237.974 -2.89794 0.771988 0
M  V30 2552 H 235.527 -1.50024 0.438468 0
M  V30 2553 H 236.262 -2.70256 -1.79255 0
M  V30 2554 H 236.047 -3.89202 -0.475829 0
M  V30 2555 H 237.537 -3.91028 -1.46583 0
M  V30 2556 N 237.974 -0.419461 -1.51915 0
M  V30 2557 C 239.223 0.154346 -2.01109 0
M  V30 2558 C 239.536 1.45338 -1.30905 0
M  V30 2559 O 240.742 2.10906 -1.7097 0
M  V30 2560 C 239.198 0.325615 -3.58424 0
M  V30 2561 C 238.806 -0.961934 -4.37551 0
M  V30 2562 C 240.55 0.854155 -4.15818 0
M  V30 2563 C 238.457 -0.757287 -5.86531 0
M  V30 2564 H 237.387 0.0614563 -0.751491 0
M  V30 2565 H 240.038 -0.54649 -1.75173 0
M  V30 2566 H 238.42 1.08903 -3.80731 0
M  V30 2567 H 239.594 -1.7323 -4.26999 0
M  V30 2568 H 237.909 -1.41766 -3.91524 0
M  V30 2569 H 240.506 1.02346 -5.24814 0
M  V30 2570 H 240.849 1.83172 -3.73837 0
M  V30 2571 H 241.382 0.149528 -3.97519 0
M  V30 2572 H 238.121 -1.70671 -6.32892 0
M  V30 2573 H 237.641 -0.0264061 -5.99794 0
M  V30 2574 H 239.32 -0.403482 -6.45741 0
M  V30 2575 N 239.452 1.56882 -0.150215 0
M  V30 2576 C 240.362 2.20494 0.801222 0
M  V30 2577 C 241.378 1.19019 1.26927 0
M  V30 2578 O 242.554 1.51607 1.32579 0
M  V30 2579 C 239.619 2.81659 2.02161 0
M  V30 2580 C 238.68 3.9827 1.60249 0
M  V30 2581 C 237.913 4.56508 2.7647 0
M  V30 2582 O 238.136 4.13627 3.92771 0
M  V30 2583 O 237.07 5.46719 2.51757 0
M  V30 2584 H 240.896 3.02315 0.289717 0
M  V30 2585 H 238.481 1.49202 0.0769684 0
M  V30 2586 H 240.363 3.20522 2.73576 0
M  V30 2587 H 239.038 2.02849 2.52258 0
M  V30 2588 H 237.945 3.64117 0.858477 0
M  V30 2589 H 239.278 4.78609 1.14864 0
M  V30 2590 N 240.93 -0.123565 1.57115 0
M  V30 2591 C 242.176 -0.833386 1.84885 0
M  V30 2592 C 242.509 -1.79742 0.735292 0
M  V30 2593 O 241.784 -1.92764 -0.25925 0
M  V30 2594 C 242.067 -1.5873 3.23228 0
M  V30 2595 C 241.92 -0.643183 4.45178 0
M  V30 2596 C 243.239 -2.54453 3.59085 0
M  V30 2597 H 240.358 -0.301518 0.6725 0
M  V30 2598 H 243 -0.097778 1.89748 0
M  V30 2599 H 241.15 -2.21438 3.19214 0
M  V30 2600 H 242.822 -0.0253015 4.61293 0
M  V30 2601 H 241.065 0.0456139 4.33776 0
M  V30 2602 H 241.736 -1.20724 5.38637 0
M  V30 2603 H 244.212 -2.01853 3.63861 0
M  V30 2604 H 243.088 -3.04238 4.5687 0
M  V30 2605 H 243.349 -3.36906 2.86264 0
M  V30 2606 N 242.408 -1.52605 -0.393616 0
M  V30 2607 C 243.34 -1.73303 -1.49995 0
M  V30 2608 C 244.353 -0.613473 -1.50799 0
M  V30 2609 O 245.542 -0.889049 -1.54784 0
M  V30 2610 C 242.642 -1.77245 -2.88855 0
M  V30 2611 C 241.815 -3.06483 -3.12069 0
M  V30 2612 C 240.874 -3.02033 -4.30886 0
M  V30 2613 O 239.9 -3.75907 -4.27414 0
M  V30 2614 N 241.102 -2.20897 -5.36828 0
M  V30 2615 H 243.867 -2.68756 -1.32629 0
M  V30 2616 H 241.428 -1.51036 -0.583083 0
M  V30 2617 H 243.42 -1.7178 -3.66434 0
M  V30 2618 H 241.99 -0.891993 -2.99603 0
M  V30 2619 H 241.21 -3.25474 -2.22396 0
M  V30 2620 H 242.498 -3.91947 -3.2443 0
M  V30 2621 H 241.896 -1.60336 -5.42502 0
M  V30 2622 H 240.453 -2.21275 -6.13091 0
M  V30 2623 N 243.887 0.651787 -1.4349 0
M  V30 2624 C 245.135 1.40888 -1.44897 0
M  V30 2625 C 245.456 1.94856 -0.0749086 0
M  V30 2626 O 244.726 1.74518 0.889956 0
M  V30 2627 H 243.306 0.522887 -0.533478 0
M  V30 2628 H 245.968 0.768609 -1.79104 0
M  V30 2629 H 245.064 2.25052 -2.16236 0
M  V30 2630 N 245.365 1.30045 0.890287 0
M  V30 2631 C 246.642 1.09227 1.62262 0
M  V30 2632 C 247.022 -0.360305 2.08002 0
M  V30 2633 O 246.37 -1.35084 1.84295 0
M  V30 2634 C 246.58 2.08835 2.79623 0
M  V30 2635 C 247.928 2.40266 3.50082 0
M  V30 2636 O 248.952 2.07104 2.89804 0
M  V30 2637 O 247.811 2.96967 4.58773 0
M  V30 2638 H 244.905 0.419132 0.712922 0
M  V30 2639 H 247.451 1.41451 0.937529 0
M  V30 2640 H 246.223 3.06633 2.43089 0
M  V30 2641 H 245.846 1.77397 3.55832 0
M  V30 2642 N 246.843 -1.10192 1.12674 0
M  V30 2643 C 247.775 -2.16418 0.754701 0
M  V30 2644 C 248.788 -1.61309 -0.21986 0
M  V30 2645 O 249.977 -1.785 -0.000826841 0
M  V30 2646 C 247.077 -3.38762 0.096698 0
M  V30 2647 C 246.25 -4.23307 1.10136 0
M  V30 2648 C 245.309 -5.24092 0.470513 0
M  V30 2649 O 244.335 -5.57906 1.12824 0
M  V30 2650 N 245.537 -5.75491 -0.760948 0
M  V30 2651 H 248.302 -2.48943 1.66875 0
M  V30 2652 H 245.863 -1.25834 1.01869 0
M  V30 2653 H 247.855 -4.03291 -0.337384 0
M  V30 2654 H 246.425 -3.04192 -0.720153 0
M  V30 2655 H 245.645 -3.55036 1.71299 0
M  V30 2656 H 246.933 -4.76624 1.78064 0
M  V30 2657 H 246.331 -5.50222 -1.31424 0
M  V30 2658 H 244.888 -6.41792 -1.13781 0
M  V30 2659 N 248.321 -0.919034 -1.28029 0
M  V30 2660 C 249.253 -0.368762 -2.26214 0
M  V30 2661 C 250.266 0.495716 -1.55069 0
M  V30 2662 O 251.455 0.30974 -1.75792 0
M  V30 2663 C 248.555 0.491049 -3.35324 0
M  V30 2664 C 247.728 -0.352133 -4.3598 0
M  V30 2665 C 246.787 0.443622 -5.24327 0
M  V30 2666 O 245.813 -0.14566 -5.69014 0
M  V30 2667 N 247.015 1.74545 -5.53637 0
M  V30 2668 H 249.78 -1.21273 -2.74068 0
M  V30 2669 H 247.341 -0.785541 -1.41566 0
M  V30 2670 H 249.333 1.03026 -3.91366 0
M  V30 2671 H 247.903 1.23574 -2.87138 0
M  V30 2672 H 247.123 -1.07269 -3.79324 0
M  V30 2673 H 248.411 -0.928883 -5.00249 0
M  V30 2674 H 247.809 2.24666 -5.19174 0
M  V30 2675 H 246.366 2.23138 -6.12416 0
M  V30 2676 N 249.799 1.42003 -0.683588 0
M  V30 2677 C 250.762 2.29191 -0.0198243 0
M  V30 2678 C 251.762 1.43773 0.72013 0
M  V30 2679 O 252.952 1.65061 0.556815 0
M  V30 2680 C 250.084 3.26435 0.982487 0
M  V30 2681 H 251.277 2.8938 -0.787345 0
M  V30 2682 H 248.83 1.49789 -0.446418 0
M  V30 2683 H 249.565 2.71203 1.77819 0
M  V30 2684 H 249.35 3.89449 0.455182 0
M  V30 2685 H 250.84 3.918 1.44508 0
M  V30 2686 N 251.277 0.427512 1.51691 0
M  V30 2687 C 252.523 -0.134744 2.02953 0
M  V30 2688 C 252.878 -1.41235 1.30654 0
M  V30 2689 O 252.171 -1.87168 0.409713 0
M  V30 2690 C 252.365 -0.418249 3.54944 0
M  V30 2691 C 252.194 0.830327 4.41968 0
M  V30 2692 C 250.964 1.36097 4.86627 0
M  V30 2693 C 253.162 1.7137 4.84909 0
M  V30 2694 N 251.144 2.56311 5.57833 0
M  V30 2695 C 252.515 2.76195 5.55082 0
M  V30 2696 C 254.57 1.72928 4.66905 0
M  V30 2697 C 253.273 3.82512 6.09161 0
M  V30 2698 C 255.299 2.78175 5.21894 0
M  V30 2699 C 254.661 3.8172 5.92004 0
M  V30 2700 H 250.76 -0.0103958 0.781931 0
M  V30 2701 H 253.344 0.585981 1.85673 0
M  V30 2702 H 251.515 -1.10801 3.7226 0
M  V30 2703 H 253.247 -0.970999 3.92879 0
M  V30 2704 H 250.002 0.916311 4.64651 0
M  V30 2705 H 250.426 3.17242 5.98069 0
M  V30 2706 H 255.068 0.942081 4.12171 0
M  V30 2707 H 252.786 4.62077 6.62956 0
M  V30 2708 H 256.372 2.8031 5.09821 0
M  V30 2709 H 255.252 4.61821 6.33791 0
M  V30 2710 N 252.755 -1.56801 0.158532 0
M  V30 2711 C 254.002 -1.9649 -0.489679 0
M  V30 2712 C 254.33 -1.04394 -1.6411 0
M  V30 2713 O 253.585 -0.0754401 -1.95555 0
M  V30 2714 C 253.884 -3.4235 -1.02623 0
M  V30 2715 C 253.55 -4.50899 0.00794526 0
M  V30 2716 C 252.212 -4.80312 0.292207 0
M  V30 2717 C 254.564 -5.16333 0.710584 0
M  V30 2718 C 251.892 -5.72461 1.28472 0
M  V30 2719 C 254.244 -6.09553 1.69199 0
M  V30 2720 C 252.908 -6.37339 1.98383 0
M  V30 2721 H 252.178 -0.719009 -0.179186 0
M  V30 2722 H 254.825 -1.8989 0.247798 0
M  V30 2723 H 253.13 -3.45838 -1.84128 0
M  V30 2724 H 254.827 -3.70393 -1.53656 0
M  V30 2725 H 251.417 -4.28015 -0.22379 0
M  V30 2726 H 255.601 -4.93732 0.504174 0
M  V30 2727 H 250.857 -5.92278 1.51714 0
M  V30 2728 H 255.031 -6.59327 2.24189 0
M  V30 2729 H 252.658 -7.08546 2.7544 0
M  V30 2730 N 254.233 0.115231 -1.57178 0
M  V30 2731 C 255.481 0.820727 -1.84685 0
M  V30 2732 C 255.802 1.80237 -0.744279 0
M  V30 2733 O 255.072 1.94529 0.231375 0
M  V30 2734 H 253.652 0.306084 -0.681411 0
M  V30 2735 H 256.314 0.101656 -1.94635 0
M  V30 2736 H 255.41 1.36366 -2.80733 0
M  V30 2737 N 255.711 1.52812 0.385517 0
M  V30 2738 C 256.958 1.68026 1.1302 0
M  V30 2739 C 257.286 0.421934 1.89868 0
M  V30 2740 O 256.541 -0.595749 1.86412 0
M  V30 2741 C 256.84 2.86856 2.13187 0
M  V30 2742 C 256.506 4.24159 1.5297 0
M  V30 2743 C 255.168 4.61501 1.36274 0
M  V30 2744 C 257.52 5.09627 1.09223 0
M  V30 2745 C 254.848 5.81966 0.743837 0
M  V30 2746 C 257.2 6.30719 0.487411 0
M  V30 2747 C 255.864 6.6679 0.307777 0
M  V30 2748 H 255.134 0.614849 0.413571 0
M  V30 2749 H 257.781 1.86962 0.414405 0
M  V30 2750 H 256.086 2.6235 2.90998 0
M  V30 2751 H 257.783 2.95821 2.70722 0
M  V30 2752 H 254.373 3.94746 1.66954 0
M  V30 2753 H 258.557 4.81343 1.20922 0
M  V30 2754 H 253.813 6.08519 0.592891 0
M  V30 2755 H 257.987 6.96259 0.140143 0
M  V30 2756 H 255.614 7.60001 -0.173879 0
M  V30 2757 N 257.189 -0.644168 1.43834 0
M  V30 2758 C 258.152 -1.73857 1.49353 0
M  V30 2759 C 259.152 -1.56315 0.377112 0
M  V30 2760 O 260.342 -1.62048 0.639226 0
M  V30 2761 C 257.474 -3.12819 1.35488 0
M  V30 2762 H 258.667 -1.70342 2.46827 0
M  V30 2763 H 256.22 -0.856652 1.30733 0
M  V30 2764 H 256.955 -3.2194 0.390569 0
M  V30 2765 H 256.74 -3.26958 2.16428 0
M  V30 2766 H 258.23 -3.92606 1.42302 0
M  V30 2767 N 258.668 -1.30515 -0.883378 0
M  V30 2768 C 259.916 -1.19194 -1.63209 0
M  V30 2769 C 260.237 0.253205 -1.93349 0
M  V30 2770 O 259.507 1.17025 -1.57105 0
M  V30 2771 H 258.087 -0.438148 -0.605009 0
M  V30 2772 H 260.749 -1.63663 -1.05832 0
M  V30 2773 H 259.845 -1.75396 -2.58153 0
M  V30 2774 N 260.146 1.09593 -1.13257 0
M  V30 2775 C 261.374 1.855 -0.916378 0
M  V30 2776 C 261.789 1.81069 0.534738 0
M  V30 2777 O 261.146 1.20562 1.37007 0
M  V30 2778 C 261.197 3.33546 -1.39388 0
M  V30 2779 O 260.918 3.37927 -2.78813 0
M  V30 2780 C 262.419 4.26299 -1.21588 0
M  V30 2781 H 259.639 0.585991 -0.326887 0
M  V30 2782 H 262.183 1.38488 -1.5047 0
M  V30 2783 H 260.338 3.77992 -0.848597 0
M  V30 2784 H 260.752 4.30254 -2.9997 0
M  V30 2785 H 262.226 5.28341 -1.59876 0
M  V30 2786 H 262.703 4.38918 -0.157376 0
M  V30 2787 H 263.309 3.87668 -1.7491 0
M  V30 2788 N 261.624 0.925811 1.2754 0
M  V30 2789 C 263.035 0.610102 1.7645 0
M  V30 2790 C 263.386 -0.874723 1.75622 0
M  V30 2791 O 262.511 -1.68444 1.35851 0
M  V30 2792 C 263.106 1.10073 3.20421 0
M  V30 2793 C 261.665 0.835723 3.67005 0
M  V30 2794 C 260.812 1.26054 2.46993 0
M  V30 2795 H 263.763 1.10579 1.13833 0
M  V30 2796 H 263.784 0.447557 3.77859 0
M  V30 2797 H 263.296 2.18143 3.20991 0
M  V30 2798 H 261.397 -0.231249 3.71882 0
M  V30 2799 H 261.51 1.45193 4.56569 0
M  V30 2800 H 259.874 0.679111 2.45479 0
M  V30 2801 H 260.657 2.34984 2.50275 0
M  V30 2802 N 263.102 -1.41638 0.69111 0
M  V30 2803 C 264.35 -2.00902 0.219758 0
M  V30 2804 C 264.671 -1.54994 -1.18329 0
M  V30 2805 O 263.941 -0.778628 -1.79762 0
M  V30 2806 H 262.521 -0.74289 0.0782558 0
M  V30 2807 H 265.183 -1.73327 0.891271 0
M  V30 2808 H 264.279 -3.11224 0.233708 0
M  V30 2809 N 264.58 -0.43555 -1.51462 0
M  V30 2810 C 265.81 0.130053 -2.0619 0
M  V30 2811 C 266.218 1.37164 -1.30317 0
M  V30 2812 O 265.561 1.80225 -0.355598 0
M  V30 2813 C 265.623 0.519418 -3.55728 0
M  V30 2814 C 265.287 -0.615119 -4.52841 0
M  V30 2815 C 266.284 -1.48671 -4.9819 0
M  V30 2816 C 263.969 -0.795341 -4.95963 0
M  V30 2817 C 265.963 -2.52324 -5.8533 0
M  V30 2818 C 263.65 -1.83514 -5.82894 0
M  V30 2819 C 264.648 -2.69748 -6.27475 0
M  V30 2820 O 264.336 -3.71944 -7.1268 0
M  V30 2821 H 264.068 0.0121612 -0.675891 0
M  V30 2822 H 266.622 -0.6129 -1.96043 0
M  V30 2823 H 264.852 1.31505 -3.63653 0
M  V30 2824 H 266.541 1.01597 -3.92979 0
M  V30 2825 H 267.307 -1.359 -4.65571 0
M  V30 2826 H 263.186 -0.133713 -4.60806 0
M  V30 2827 H 266.73 -3.19665 -6.20048 0
M  V30 2828 H 262.627 -1.96306 -6.14926 0
M  V30 2829 H 263.395 -3.68503 -7.30854 0
M  V30 2830 N 266.058 1.56714 -0.166846 0
M  V30 2831 C 266.988 2.20754 0.760913 0
M  V30 2832 C 267.969 1.16178 1.24244 0
M  V30 2833 O 269.154 1.44592 1.29641 0
M  V30 2834 C 266.284 2.84478 1.99223 0
M  V30 2835 C 265.238 3.95053 1.64672 0
M  V30 2836 C 264.564 4.45805 2.95232 0
M  V30 2837 C 265.864 5.14865 0.878155 0
M  V30 2838 H 267.558 2.98537 0.22713 0
M  V30 2839 H 265.104 1.43596 0.107805 0
M  V30 2840 H 267.057 3.27951 2.64624 0
M  V30 2841 H 265.781 2.04056 2.55007 0
M  V30 2842 H 264.44 3.52228 1.01641 0
M  V30 2843 H 264.088 3.62181 3.49047 0
M  V30 2844 H 263.788 5.204 2.7287 0
M  V30 2845 H 265.312 4.91962 3.6167 0
M  V30 2846 H 266.726 5.55059 1.43466 0
M  V30 2847 H 265.123 5.95348 0.753738 0
M  V30 2848 H 266.193 4.84735 -0.126377 0
M  V30 2849 N 267.536 -0.106894 1.57237 0
M  V30 2850 C 268.761 -0.830287 1.90055 0
M  V30 2851 C 269.186 -1.72064 0.75998 0
M  V30 2852 O 268.544 -1.78982 -0.288991 0
M  V30 2853 C 268.592 -1.6295 3.21683 0
M  V30 2854 O 267.696 -2.73748 3.08441 0
M  V30 2855 H 267.037 -0.228855 0.623315 0
M  V30 2856 H 269.567 -0.085658 2.04421 0
M  V30 2857 H 269.577 -2.01621 3.54701 0
M  V30 2858 H 268.252 -0.975989 4.04286 0
M  V30 2859 H 266.829 -2.38192 2.86913 0
M  V30 2860 N 269.014 -1.53014 -0.377408 0
M  V30 2861 C 270.425 -1.60438 -0.954798 0
M  V30 2862 C 270.776 -0.464418 -1.90624 0
M  V30 2863 O 269.901 0.41087 -2.12464 0
M  V30 2864 C 270.496 -2.90797 -1.73847 0
M  V30 2865 C 269.055 -3.00595 -2.26538 0
M  V30 2866 C 268.202 -2.55645 -1.07429 0
M  V30 2867 H 271.153 -1.57926 -0.156575 0
M  V30 2868 H 271.174 -2.77935 -2.5987 0
M  V30 2869 H 270.686 -3.73746 -1.04574 0
M  V30 2870 H 268.787 -2.22208 -2.99089 0
M  V30 2871 H 268.9 -4.05456 -2.5523 0
M  V30 2872 H 267.264 -2.10239 -1.43777 0
M  V30 2873 H 268.047 -3.41 -0.396728 0
M  V30 2874 N 270.492 0.636531 -1.44174 0
M  V30 2875 C 271.402 1.77754 -1.53103 0
M  V30 2876 C 272.418 1.68928 -0.417034 0
M  V30 2877 O 273.594 1.89801 -0.6736 0
M  V30 2878 C 270.659 3.14115 -1.46741 0
M  V30 2879 C 269.72 3.34612 -2.68948 0
M  V30 2880 C 268.953 4.64467 -2.6288 0
M  V30 2881 O 269.176 5.44919 -1.68581 0
M  V30 2882 O 268.11 4.87049 -3.53648 0
M  V30 2883 H 271.936 1.73174 -2.49489 0
M  V30 2884 H 269.521 0.79709 -1.2636 0
M  V30 2885 H 271.403 3.95412 -1.45696 0
M  V30 2886 H 270.078 3.19249 -0.534975 0
M  V30 2887 H 268.985 2.53014 -2.75562 0
M  V30 2888 H 270.318 3.34336 -3.61221 0
M  V30 2889 N 271.97 1.30982 0.876444 0
M  V30 2890 C 273.216 1.20474 1.63138 0
M  V30 2891 C 273.549 -0.238096 1.92735 0
M  V30 2892 O 272.824 -1.1692 1.55435 0
M  V30 2893 C 273.107 2.04244 2.96574 0
M  V30 2894 C 272.96 3.56793 2.73896 0
M  V30 2895 C 274.279 1.88684 3.97601 0
M  V30 2896 H 271.398 0.439001 0.591985 0
M  V30 2897 H 274.04 1.60704 1.01361 0
M  V30 2898 H 272.19 1.70063 3.493 0
M  V30 2899 H 273.862 4.01077 2.27892 0
M  V30 2900 H 272.105 3.80548 2.08245 0
M  V30 2901 H 272.776 4.10706 3.68815 0
M  V30 2902 H 275.252 2.18584 3.54062 0
M  V30 2903 H 274.128 2.4961 4.88862 0
M  V30 2904 H 274.389 0.848343 4.33884 0
M  V30 2905 N 273.449 -1.08991 1.13837 0
M  V30 2906 C 274.379 -2.17771 0.842507 0
M  V30 2907 C 275.36 -1.6892 -0.20001 0
M  V30 2908 O 276.545 -1.94113 -0.0579731 0
M  V30 2909 C 273.675 -3.4589 0.312644 0
M  V30 2910 C 272.629 -4.08099 1.28992 0
M  V30 2911 C 271.955 -5.31098 0.619623 0
M  V30 2912 C 273.255 -4.50077 2.65005 0
M  V30 2913 H 274.949 -2.42777 1.75213 0
M  V30 2914 H 272.495 -1.16682 0.843875 0
M  V30 2915 H 274.448 -4.21297 0.0933043 0
M  V30 2916 H 273.172 -3.20419 -0.632382 0
M  V30 2917 H 271.831 -3.34717 1.49533 0
M  V30 2918 H 271.479 -5.0191 -0.33102 0
M  V30 2919 H 271.179 -5.73674 1.27167 0
M  V30 2920 H 272.703 -6.09224 0.409669 0
M  V30 2921 H 274.117 -5.16688 2.48407 0
M  V30 2922 H 272.514 -5.03553 3.26427 0
M  V30 2923 H 273.584 -3.62257 3.22332 0
M  V30 2924 N 274.927 -0.932562 -1.27047 0
M  V30 2925 C 276.343 -0.633544 -1.46487 0
M  V30 2926 C 276.543 0.815746 -1.84249 0
M  V30 2927 O 275.599 1.59319 -1.95892 0
M  V30 2928 C 276.912 -1.58758 -2.55375 0
M  V30 2929 C 278.46 -1.59634 -2.69232 0
M  V30 2930 C 278.935 -2.53747 -3.81283 0
M  V30 2931 N 280.426 -2.51982 -3.88664 0
M  V30 2932 C 281.161 -3.21491 -4.74796 0
M  V30 2933 N 280.657 -4.00395 -5.65381 0
M  V30 2934 N 282.45 -3.10485 -4.68568 0
M  V30 2935 H 274.601 -1.86946 -1.00821 0
M  V30 2936 H 276.864 -0.802897 -0.504044 0
M  V30 2937 H 276.57 -2.62172 -2.34432 0
M  V30 2938 H 276.444 -1.33301 -3.52861 0
M  V30 2939 H 278.831 -0.569488 -2.89553 0
M  V30 2940 H 278.912 -1.89142 -1.72218 0
M  V30 2941 H 278.556 -3.56545 -3.61715 0
M  V30 2942 H 278.486 -2.21532 -4.77735 0
M  V30 2943 H 280.977 -1.94681 -3.23895 0
M  V30 2944 H 281.29 -4.50406 -6.27976 0
M  V30 2945 H 279.635 -4.04498 -5.65161 0
M  V30 2946 H 282.826 -2.48331 -3.96799 0
M  V30 2947 H 282.999 -3.64925 -5.35475 0
M  V30 2948 N 276.405 1.4127 -0.698611 0
M  V30 2949 C 277.352 2.30773 -0.0352094 0
M  V30 2950 C 278.322 1.47273 0.768111 0
M  V30 2951 O 279.507 1.76053 0.735524 0
M  V30 2952 C 276.647 3.33346 0.893 0
M  V30 2953 C 275.76 4.31924 0.0809695 0
M  V30 2954 C 274.895 5.21566 1.0071 0
M  V30 2955 C 273.934 6.11811 0.188155 0
M  V30 2956 N 273.071 6.93926 1.06825 0
M  V30 2957 H 277.911 2.86943 -0.804207 0
M  V30 2958 H 275.448 1.4132 -0.408294 0
M  V30 2959 H 277.406 3.91368 1.44523 0
M  V30 2960 H 276.036 2.78719 1.62836 0
M  V30 2961 H 275.088 3.75825 -0.588224 0
M  V30 2962 H 276.4 4.95716 -0.553801 0
M  V30 2963 H 275.554 5.84437 1.62845 0
M  V30 2964 H 274.293 4.58008 1.67572 0
M  V30 2965 H 273.298 5.47986 -0.446254 0
M  V30 2966 H 274.523 6.77425 -0.476716 0
M  V30 2967 H 272.469 6.32973 1.72283 0
M  V30 2968 H 272.386 7.54416 0.489123 0
M  V30 2969 H 273.654 7.61262 1.67632 0
M  V30 2970 N 277.883 0.443576 1.51229 0
M  V30 2971 C 278.793 -0.370721 2.31652 0
M  V30 2972 C 279.809 -1.02186 1.40833 0
M  V30 2973 O 280.985 -1.01586 1.73903 0
M  V30 2974 C 278.05 -1.45376 3.14749 0
M  V30 2975 C 277.111 -0.822099 4.21355 0
M  V30 2976 C 276.344 -1.85353 5.0048 0
M  V30 2977 O 276.567 -3.07656 4.80316 0
M  V30 2978 O 275.501 -1.4406 5.84406 0
M  V30 2979 H 279.327 0.286002 3.0235 0
M  V30 2980 H 276.912 0.20598 1.47973 0
M  V30 2981 H 278.794 -2.08173 3.66391 0
M  V30 2982 H 277.469 -2.09445 2.46809 0
M  V30 2983 H 276.376 -0.155909 3.73775 0
M  V30 2984 H 277.709 -0.224797 4.91686 0
M  V30 2985 N 279.361 -1.56624 0.175154 0
M  V30 2986 C 280.324 -2.16934 -0.739738 0
M  V30 2987 C 281.324 -1.11842 -1.15533 0
M  V30 2988 O 282.514 -1.37335 -1.07167 0
M  V30 2989 C 279.646 -2.75531 -2.00738 0
M  V30 2990 H 280.839 -2.99131 -0.214639 0
M  V30 2991 H 278.392 -1.56123 -0.0744197 0
M  V30 2992 H 279.127 -1.97078 -2.57548 0
M  V30 2993 H 278.912 -3.52444 -1.71831 0
M  V30 2994 H 280.402 -3.21904 -2.66021 0
M  V30 2995 N 280.839 0.0985539 -1.57292 0
M  V30 2996 C 282.069 0.815135 -1.8984 0
M  V30 2997 C 282.477 1.7297 -0.766679 0
M  V30 2998 O 281.82 1.81698 0.270483 0
M  V30 2999 C 281.882 1.6842 -3.17608 0
M  V30 3000 C 281.546 0.94182 -4.4719 0
M  V30 3001 C 282.543 0.273212 -5.19182 0
M  V30 3002 C 280.228 0.916927 -4.9386 0
M  V30 3003 C 282.222 -0.410361 -6.36078 0
M  V30 3004 C 279.909 0.229567 -6.10669 0
M  V30 3005 C 280.907 -0.432902 -6.81627 0
M  V30 3006 O 280.595 -1.10925 -7.9621 0
M  V30 3007 H 280.327 0.238501 -0.632529 0
M  V30 3008 H 282.881 0.0812659 -2.05239 0
M  V30 3009 H 281.111 2.46022 -2.98345 0
M  V30 3010 H 282.8 2.27704 -3.36015 0
M  V30 3011 H 283.566 0.283927 -4.84168 0
M  V30 3012 H 279.445 1.42201 -4.3852 0
M  V30 3013 H 282.989 -0.928013 -6.914 0
M  V30 3014 H 278.886 0.216686 -6.45136 0
M  V30 3015 H 279.654 -1.01579 -8.12172 0
M  V30 3016 N 282.317 1.53212 0.369288 0
M  V30 3017 C 283.565 1.68881 1.11012 0
M  V30 3018 C 283.886 0.441285 1.89941 0
M  V30 3019 O 283.156 -0.544623 1.88177 0
M  V30 3020 H 281.736 0.622569 0.412816 0
M  V30 3021 H 284.398 1.90391 0.416802 0
M  V30 3022 H 283.494 2.54822 1.80201 0
M  V30 3023 N 283.795 -0.628877 1.44509 0
M  V30 3024 C 284.742 -1.74074 1.51549 0
M  V30 3025 C 285.712 -1.62084 0.363021 0
M  V30 3026 O 286.897 -1.81975 0.573567 0
M  V30 3027 C 284.037 -3.12328 1.46784 0
M  V30 3028 C 283.15 -3.35277 2.72422 0
M  V30 3029 C 282.285 -4.63515 2.59475 0
M  V30 3030 C 281.324 -4.7965 3.80266 0
M  V30 3031 N 280.461 -5.99168 3.65981 0
M  V30 3032 H 285.301 -1.67392 2.46544 0
M  V30 3033 H 282.838 -0.816527 1.22357 0
M  V30 3034 H 284.796 -3.92286 1.42012 0
M  V30 3035 H 283.426 -3.18018 0.553544 0
M  V30 3036 H 282.478 -2.49242 2.87372 0
M  V30 3037 H 283.79 -3.43078 3.62076 0
M  V30 3038 H 282.944 -5.51638 2.52548 0
M  V30 3039 H 281.683 -4.58076 1.67384 0
M  V30 3040 H 280.688 -3.89957 3.87574 0
M  V30 3041 H 281.913 -4.86902 4.73395 0
M  V30 3042 H 279.859 -5.94814 2.76644 0
M  V30 3043 H 279.776 -6.08035 4.49254 0
M  V30 3044 H 281.044 -6.89846 3.6295 0
M  V30 3045 N 285.273 -1.31445 -0.869486 0
M  V30 3046 C 286.684 -1.19042 -1.43826 0
M  V30 3047 C 287.035 0.202919 -1.95148 0
M  V30 3048 O 286.16 1.10071 -1.86315 0
M  V30 3049 C 286.755 -2.15499 -2.6143 0
M  V30 3050 C 285.314 -2.07028 -3.14351 0
M  V30 3051 C 284.461 -2.04701 -1.87063 0
M  V30 3052 H 287.412 -1.43489 -0.677984 0
M  V30 3053 H 287.433 -1.74488 -3.38134 0
M  V30 3054 H 286.945 -3.16899 -2.24046 0
M  V30 3055 H 285.046 -1.08825 -3.56354 0
M  V30 3056 H 285.159 -2.96157 -3.766 0
M  V30 3057 H 283.523 -1.49724 -2.06046 0
M  V30 3058 H 284.306 -3.07857 -1.51917 0
M  V30 3059 N 286.751 1.08385 -1.14413 0
M  V30 3060 C 287.997 1.81044 -0.913834 0
M  V30 3061 C 288.33 1.86004 0.558209 0
M  V30 3062 O 287.605 1.33606 1.4135 0
M  V30 3063 C 287.888 3.26648 -1.51569 0
M  V30 3064 C 287.741 3.29895 -3.0576 0
M  V30 3065 C 289.06 4.23629 -1.19273 0
M  V30 3066 H 286.179 0.65727 -0.333414 0
M  V30 3067 H 288.821 1.26896 -1.41412 0
M  V30 3068 H 286.971 3.72889 -1.09023 0
M  V30 3069 H 288.643 2.91977 -3.57137 0
M  V30 3070 H 286.886 2.69163 -3.40197 0
M  V30 3071 H 287.557 4.32516 -3.42977 0
M  V30 3072 H 290.033 3.85727 -1.56057 0
M  V30 3073 H 288.909 5.23822 -1.64017 0
M  V30 3074 H 289.17 4.41968 -0.108068 0
M  V30 3075 N 288.23 0.939286 1.26551 0
M  V30 3076 C 289.507 0.5038 1.89001 0
M  V30 3077 C 289.887 -1.01854 1.84903 0
M  V30 3078 O 289.235 -1.87773 1.30206 0
M  V30 3079 C 289.445 1.063 3.32417 0
M  V30 3080 C 290.793 1.13051 4.09273 0
M  V30 3081 O 291.817 1.01345 3.41479 0
M  V30 3082 O 290.676 1.31233 5.30509 0
M  V30 3083 H 287.77 0.163897 0.810597 0
M  V30 3084 H 290.316 1.03173 1.34735 0
M  V30 3085 H 289.088 2.10665 3.29752 0
M  V30 3086 H 288.711 0.517408 3.94219 0
M  V30 3087 N 289.708 -1.40897 0.706093 0
M  V30 3088 C 290.957 -2.00284 0.238574 0
M  V30 3089 C 291.27 -1.56604 -1.17194 0
M  V30 3090 O 292.476 -2.08624 -1.73748 0
M  V30 3091 C 290.932 -3.57934 0.375623 0
M  V30 3092 C 290.54 -4.10591 1.79217 0
M  V30 3093 C 292.284 -4.24488 -0.0315857 0
M  V30 3094 C 290.191 -5.60712 1.88032 0
M  V30 3095 H 289.121 -0.749144 0.0854398 0
M  V30 3096 H 291.772 -1.61251 0.875813 0
M  V30 3097 H 290.154 -3.94622 -0.330042 0
M  V30 3098 H 291.328 -3.85301 2.52745 0
M  V30 3099 H 289.643 -3.56601 2.15 0
M  V30 3100 H 292.24 -5.34698 0.0136842 0
M  V30 3101 H 292.583 -4.02261 -1.072 0
M  V30 3102 H 293.116 -3.92873 0.624181 0
M  V30 3103 H 289.855 -5.87781 2.90161 0
M  V30 3104 H 289.375 -5.87896 1.18903 0
M  V30 3105 H 291.054 -6.25658 1.64805 0
M  V30 3106 N 291.186 -0.45159 -1.50991 0
M  V30 3107 C 292.432 0.102439 -2.03142 0
M  V30 3108 C 292.787 1.39138 -1.32884 0
M  V30 3109 O 292.08 1.86493 -0.439438 0
M  V30 3110 C 292.274 0.361728 -3.55565 0
M  V30 3111 C 292.103 -0.900535 -4.40591 0
M  V30 3112 C 290.873 -1.43821 -4.844 0
M  V30 3113 C 293.071 -1.79063 -4.82121 0
M  V30 3114 N 291.053 -2.65153 -5.53685 0
M  V30 3115 C 292.424 -2.84991 -5.50618 0
M  V30 3116 C 294.479 -1.80334 -4.64095 0
M  V30 3117 C 293.182 -3.92155 -6.02998 0
M  V30 3118 C 295.208 -2.86442 -5.17402 0
M  V30 3119 C 294.57 -3.9109 -5.85857 0
M  V30 3120 H 290.669 -0.00204537 -0.781997 0
M  V30 3121 H 293.253 -0.615446 -1.84717 0
M  V30 3122 H 291.424 1.04865 -3.73976 0
M  V30 3123 H 293.156 0.908372 -3.94374 0
M  V30 3124 H 289.911 -0.990117 -4.63135 0
M  V30 3125 H 290.335 -3.26717 -5.92946 0
M  V30 3126 H 294.977 -1.00753 -4.1062 0
M  V30 3127 H 292.695 -4.72565 -6.55521 0
M  V30 3128 H 296.281 -2.88386 -5.05297 0
M  V30 3129 H 295.161 -4.71845 -6.26364 0
M  V30 3130 N 292.664 1.56529 -0.183458 0
M  V30 3131 C 293.627 2.17324 0.728223 0
M  V30 3132 C 294.627 1.12453 1.14939 0
M  V30 3133 O 295.817 1.37902 1.06437 0
M  V30 3134 C 292.949 2.76591 1.99274 0
M  V30 3135 H 294.142 2.99241 0.198772 0
M  V30 3136 H 291.695 1.5616 0.0661391 0
M  V30 3137 H 292.43 1.98441 2.56499 0
M  V30 3138 H 292.215 3.5335 1.69959 0
M  V30 3139 H 293.705 3.23311 2.6431 0
M  V30 3140 N 294.142 -0.090211 1.57342 0
M  V30 3141 C 295.382 -0.798365 1.88163 0
M  V30 3142 C 295.746 -1.75662 0.775046 0
M  V30 3143 O 296.947 -2.50849 0.965816 0
M  V30 3144 C 295.218 -1.50376 3.24225 0
M  V30 3145 S 296.777 -2.24952 3.76752 0
M  V30 3146 H 293.595 -0.265883 0.659414 0
M  V30 3147 H 296.197 -0.055264 1.95422 0
M  V30 3148 H 294.901 -0.792286 4.0268 0
M  V30 3149 H 294.432 -2.28666 3.20118 0
M  V30 3150 H 296.447 -3.51173 3.5056 0
M  V30 3151 N 295.62 -1.53406 -0.361157 0
M  V30 3152 C 296.868 -1.69467 -1.10115 0
M  V30 3153 C 297.189 -0.451352 -1.89705 0
M  V30 3154 O 296.459 0.534636 -1.88463 0
M  V30 3155 H 295.039 -0.624749 -0.409508 0
M  V30 3156 H 297.701 -1.90609 -0.406699 0
M  V30 3157 H 296.797 -2.55774 -1.78847 0
M  V30 3158 N 297.098 0.621204 -1.44841 0
M  V30 3159 C 298.344 1.3826 -1.48365 0
M  V30 3160 C 298.677 1.93831 -0.119624 0
M  V30 3161 O 297.952 1.74251 0.864111 0
M  V30 3162 C 298.235 2.54058 -2.55199 0
M  V30 3163 C 298.088 2.03772 -4.00995 0
M  V30 3164 C 299.407 3.56225 -2.58442 0
M  V30 3165 H 296.526 0.501374 -0.540179 0
M  V30 3166 H 299.168 0.7015 -1.76576 0
M  V30 3167 H 297.318 3.12162 -2.31274 0
M  V30 3168 H 298.99 1.50423 -4.36086 0
M  V30 3169 H 297.233 1.34876 -4.12299 0
M  V30 3170 H 297.904 2.87185 -4.71411 0
M  V30 3171 H 300.38 3.07939 -2.79844 0
M  V30 3172 H 299.256 4.34756 -3.3508 0
M  V30 3173 H 299.517 4.10949 -1.63013 0
M  V30 3174 N 298.576 1.31904 0.862503 0
M  V30 3175 C 299.825 1.21373 1.61094 0
M  V30 3176 C 300.138 -0.22504 1.94301 0
M  V30 3177 O 301.344 -0.452121 2.67709 0
M  V30 3178 C 299.8 2.12525 2.9045 0
M  V30 3179 C 299.408 3.61441 2.64697 0
M  V30 3180 C 301.152 2.10813 3.68454 0
M  V30 3181 C 299.059 4.44578 3.90006 0
M  V30 3182 H 297.989 0.450705 0.604468 0
M  V30 3183 H 300.64 1.56811 0.953027 0
M  V30 3184 H 299.022 1.69994 3.57656 0
M  V30 3185 H 300.196 4.12264 2.05851 0
M  V30 3186 H 298.511 3.65205 2.00036 0
M  V30 3187 H 301.108 2.70167 4.61426 0
M  V30 3188 H 301.451 1.09713 4.01583 0
M  V30 3189 H 301.984 2.51583 3.08141 0
M  V30 3190 H 298.723 5.46461 3.62023 0
M  V30 3191 H 298.243 3.98508 4.48276 0
M  V30 3192 H 299.922 4.57176 4.5782 0
M  V30 3193 N 300.054 -1.07777 1.14986 0
M  V30 3194 C 300.984 -2.16865 0.865557 0
M  V30 3195 C 301.965 -1.69123 -0.182083 0
M  V30 3196 O 303.15 -1.94164 -0.0373815 0
M  V30 3197 C 300.28 -3.45539 0.349313 0
M  V30 3198 C 299.234 -4.06708 1.33313 0
M  V30 3199 C 298.56 -5.30411 0.675918 0
M  V30 3200 C 299.86 -4.47241 2.69764 0
M  V30 3201 H 301.554 -2.40905 1.77778 0
M  V30 3202 H 299.1 -1.15781 0.856203 0
M  V30 3203 H 301.053 -4.21174 0.137983 0
M  V30 3204 H 299.777 -3.21072 -0.598362 0
M  V30 3205 H 298.436 -3.33112 1.53075 0
M  V30 3206 H 298.084 -5.02232 -0.277767 0
M  V30 3207 H 297.784 -5.72293 1.33244 0
M  V30 3208 H 299.308 -6.08755 0.474262 0
M  V30 3209 H 300.722 -5.14025 2.53873 0
M  V30 3210 H 299.119 -5.00062 3.3175 0
M  V30 3211 H 300.189 -3.58818 3.26156 0
M  V30 3212 N 301.532 -0.945985 -1.26051 0
M  V30 3213 C 302.762 -0.612136 -1.97323 0
M  V30 3214 C 303.17 0.818171 -1.70595 0
M  V30 3215 O 302.513 1.55777 -0.973613 0
M  V30 3216 C 302.575 -0.780347 -3.50929 0
M  V30 3217 C 302.239 -2.18619 -4.01317 0
M  V30 3218 C 303.236 -3.16209 -4.12683 0
M  V30 3219 C 300.921 -2.50805 -4.35203 0
M  V30 3220 C 302.915 -4.44085 -4.57238 0
M  V30 3221 C 300.602 -3.78912 -4.79446 0
M  V30 3222 C 301.6 -4.75365 -4.90425 0
M  V30 3223 O 301.288 -6.01191 -5.3369 0
M  V30 3224 H 301.02 -0.229134 -0.635982 0
M  V30 3225 H 303.574 -1.27036 -1.61404 0
M  V30 3226 H 301.804 -0.0649864 -3.86645 0
M  V30 3227 H 303.493 -0.448842 -4.03411 0
M  V30 3228 H 304.259 -2.92668 -3.86744 0
M  V30 3229 H 300.138 -1.76463 -4.2589 0
M  V30 3230 H 303.682 -5.19373 -4.65723 0
M  V30 3231 H 299.579 -4.02265 -5.0483 0
M  V30 3232 H 300.347 -6.04442 -5.51899 0
M  V30 3233 N 303.011 1.40521 -0.713556 0
M  V30 3234 C 304.26 2.00155 -0.249192 0
M  V30 3235 C 304.573 1.57224 1.16362 0
M  V30 3236 O 305.779 2.09542 1.72639 0
M  V30 3237 C 304.235 3.5773 -0.3946 0
M  V30 3238 C 303.843 4.09635 -1.81392 0
M  V30 3239 C 305.587 4.24499 0.00907364 0
M  V30 3240 C 303.494 5.59707 -1.91003 0
M  V30 3241 H 302.424 0.74868 -0.0894114 0
M  V30 3242 H 305.075 1.60784 -0.884352 0
M  V30 3243 H 303.457 3.94792 0.30911 0
M  V30 3244 H 304.631 3.83955 -2.54785 0
M  V30 3245 H 302.946 3.55456 -2.16888 0
M  V30 3246 H 305.543 5.34683 -0.0420404 0
M  V30 3247 H 305.886 4.02824 1.05065 0
M  V30 3248 H 306.419 3.92536 -0.645007 0
M  V30 3249 H 303.158 5.86234 -2.93275 0
M  V30 3250 H 302.678 5.87258 -1.22019 0
M  V30 3251 H 304.357 6.24776 -1.6812 0
M  V30 3252 N 304.489 0.459591 1.5075 0
M  V30 3253 C 305.419 -0.330644 2.31147 0
M  V30 3254 C 306.4 -1.00087 1.37538 0
M  V30 3255 O 307.585 -1.00025 1.66459 0
M  V30 3256 C 304.715 -1.41958 3.16962 0
M  V30 3257 C 303.669 -0.871608 4.19031 0
M  V30 3258 C 302.995 -2.05797 4.9351 0
M  V30 3259 C 304.295 0.109251 5.22186 0
M  V30 3260 H 305.989 0.340336 2.97459 0
M  V30 3261 H 303.535 0.165119 1.4305 0
M  V30 3262 H 305.488 -1.9798 3.71997 0
M  V30 3263 H 304.212 -2.11917 2.48513 0
M  V30 3264 H 302.871 -0.333442 3.6508 0
M  V30 3265 H 302.519 -2.74427 4.21544 0
M  V30 3266 H 302.219 -1.6976 5.62544 0
M  V30 3267 H 303.743 -2.62331 5.51375 0
M  V30 3268 H 305.157 -0.361405 5.7216 0
M  V30 3269 H 303.554 0.383316 5.98875 0
M  V30 3270 H 304.624 1.03887 4.73641 0
M  V30 3271 N 305.967 -1.56429 0.191757 0
M  V30 3272 C 306.897 -2.21937 -0.725696 0
M  V30 3273 C 307.878 -1.1814 -1.2238 0
M  V30 3274 O 309.063 -1.46636 -1.27325 0
M  V30 3275 C 306.193 -2.87611 -1.94672 0
M  V30 3276 C 305.147 -3.97623 -1.58366 0
M  V30 3277 C 304.473 -4.50446 -2.88102 0
M  V30 3278 C 305.773 -5.16197 -0.796133 0
M  V30 3279 H 307.467 -2.98861 -0.179606 0
M  V30 3280 H 305.013 -1.43749 -0.0849464 0
M  V30 3281 H 306.966 -3.3212 -2.59373 0
M  V30 3282 H 305.69 -2.08087 -2.51728 0
M  V30 3283 H 304.349 -3.53801 -0.960247 0
M  V30 3284 H 303.997 -3.67688 -3.43241 0
M  V30 3285 H 303.697 -5.24675 -2.64556 0
M  V30 3286 H 305.221 -4.97654 -3.53798 0
M  V30 3287 H 306.635 -5.57271 -1.34618 0
M  V30 3288 H 305.032 -5.96471 -0.658928 0
M  V30 3289 H 306.102 -4.84473 0.203478 0
M  V30 3290 N 307.445 0.0818655 -1.57387 0
M  V30 3291 C 308.691 0.784074 -1.8703 0
M  V30 3292 C 309.024 1.77729 -0.782689 0
M  V30 3293 O 308.299 1.93384 0.208051 0
M  V30 3294 C 308.582 1.50105 -3.27323 0
M  V30 3295 C 308.435 0.524925 -4.46727 0
M  V30 3296 C 309.754 2.44843 -3.65705 0
M  V30 3297 H 306.873 0.283582 -0.680257 0
M  V30 3298 H 309.515 0.0474352 -1.89941 0
M  V30 3299 H 307.665 2.12897 -3.24972 0
M  V30 3300 H 309.337 -0.0970111 -4.61198 0
M  V30 3301 H 307.58 -0.160606 -4.33503 0
M  V30 3302 H 308.251 1.064 -5.41648 0
M  V30 3303 H 310.727 1.92135 -3.69085 0
M  V30 3304 H 309.603 2.92018 -4.64776 0
M  V30 3305 H 309.864 3.29197 -2.95096 0
M  V30 3306 N 308.923 1.53595 0.353017 0
M  V30 3307 C 310.171 1.70049 1.09215 0
M  V30 3308 C 310.492 0.461406 1.89463 0
M  V30 3309 O 309.762 -0.524633 1.88744 0
M  V30 3310 H 308.342 0.626912 0.40619 0
M  V30 3311 H 311.004 1.90822 0.396585 0
M  V30 3312 H 310.1 2.56718 1.77488 0
M  V30 3313 N 310.401 -0.613514 1.45168 0
M  V30 3314 C 311.631 -1.39743 1.52169 0
M  V30 3315 C 312.039 -1.88596 0.151086 0
M  V30 3316 O 311.382 -1.6251 -0.856521 0
M  V30 3317 C 311.444 -2.64035 2.43979 0
M  V30 3318 C 311.108 -2.36861 3.90827 0
M  V30 3319 C 312.105 -1.97591 4.80889 0
M  V30 3320 C 309.79 -2.49956 4.35692 0
M  V30 3321 C 311.784 -1.71768 6.1382 0
M  V30 3322 C 309.471 -2.23747 5.68665 0
M  V30 3323 C 310.469 -1.84714 6.57548 0
M  V30 3324 O 310.157 -1.58809 7.88058 0
M  V30 3325 H 309.889 -0.434382 0.517966 0
M  V30 3326 H 312.443 -0.75587 1.90986 0
M  V30 3327 H 310.673 -3.3089 2.00122 0
M  V30 3328 H 312.362 -3.26069 2.41731 0
M  V30 3329 H 313.128 -1.87015 4.47493 0
M  V30 3330 H 309.007 -2.79305 3.66756 0
M  V30 3331 H 312.551 -1.41227 6.83155 0
M  V30 3332 H 308.448 -2.33938 6.01617 0
M  V30 3333 H 309.216 -1.7291 8.00028 0
M  V30 3334 N 311.879 -1.3236 -0.855495 0
M  V30 3335 C 313.29 -1.2056 -1.42556 0
M  V30 3336 C 313.641 0.182209 -1.95352 0
M  V30 3337 O 312.766 1.08088 -1.87472 0
M  V30 3338 C 313.361 -2.1826 -2.59129 0
M  V30 3339 C 311.92 -2.10351 -3.12137 0
M  V30 3340 C 311.067 -2.06674 -1.84882 0
M  V30 3341 H 314.018 -1.442 -0.662727 0
M  V30 3342 H 314.039 -1.78064 -3.36264 0
M  V30 3343 H 313.551 -3.19257 -2.20673 0
M  V30 3344 H 311.652 -1.12599 -3.55179 0
M  V30 3345 H 311.765 -3.00135 -3.73438 0
M  V30 3346 H 310.129 -1.51901 -2.04446 0
M  V30 3347 H 310.912 -3.09451 -1.48643 0
M  V30 3348 N 313.357 1.07166 -1.15556 0
M  V30 3349 C 314.768 1.6127 -0.940693 0
M  V30 3350 C 315.119 1.89251 0.517551 0
M  V30 3351 O 314.244 1.65937 1.38903 0
M  V30 3352 C 314.839 2.92993 -1.7012 0
M  V30 3353 C 313.398 3.43832 -1.53156 0
M  V30 3354 C 312.545 2.1786 -1.71558 0
M  V30 3355 H 315.496 0.90229 -1.30554 0
M  V30 3356 H 315.517 3.62007 -1.17181 0
M  V30 3357 H 315.029 2.72596 -2.76248 0
M  V30 3358 H 313.13 3.69307 -0.494294 0
M  V30 3359 H 313.243 4.19747 -2.30975 0
M  V30 3360 H 311.607 2.2765 -1.14225 0
M  V30 3361 H 312.39 1.99956 -2.79056 0
M  V30 3362 N 314.835 0.952656 1.25548 0
M  V30 3363 C 316.082 0.606373 1.93208 0
M  V30 3364 C 316.41 -0.85631 1.74636 0
M  V30 3365 O 315.665 -1.62951 1.08376 0
M  V30 3366 C 315.964 0.908818 3.45652 0
M  V30 3367 C 315.63 2.35722 3.84378 0
M  V30 3368 C 314.292 2.75312 3.9466 0
M  V30 3369 C 316.644 3.29793 4.03591 0
M  V30 3370 C 313.972 4.08047 4.21562 0
M  V30 3371 C 316.324 4.62138 4.31985 0
M  V30 3372 C 314.988 5.01528 4.40484 0
M  V30 3373 H 314.258 0.221888 0.706998 0
M  V30 3374 H 316.905 1.20132 1.49133 0
M  V30 3375 H 315.21 0.231456 3.91116 0
M  V30 3376 H 316.907 0.619498 3.96186 0
M  V30 3377 H 313.497 2.04017 3.76928 0
M  V30 3378 H 317.681 3.00397 3.95064 0
M  V30 3379 H 312.937 4.38212 4.26357 0
M  V30 3380 H 317.111 5.35012 4.45797 0
M  V30 3381 H 314.738 6.04406 4.61083 0
M  V30 3382 N 316.313 -1.40141 0.720998 0
M  V30 3383 C 317.559 -2.01572 0.272075 0
M  V30 3384 C 317.914 -1.5616 -1.12391 0
M  V30 3385 O 317.207 -0.774198 -1.75262 0
M  V30 3386 C 317.401 -3.56165 0.296892 0
M  V30 3387 C 317.23 -4.16584 1.69375 0
M  V30 3388 C 316 -4.49783 2.30269 0
M  V30 3389 C 318.198 -4.41076 2.64493 0
M  V30 3390 N 316.18 -4.95626 3.62254 0
M  V30 3391 C 317.551 -4.88971 3.81192 0
M  V30 3392 C 319.606 -4.23122 2.62435 0
M  V30 3393 C 318.309 -5.20796 4.96149 0
M  V30 3394 C 320.335 -4.56052 3.76524 0
M  V30 3395 C 319.697 -5.04141 4.91956 0
M  V30 3396 H 315.796 -0.768343 0.145511 0
M  V30 3397 H 318.38 -1.70287 0.943959 0
M  V30 3398 H 316.551 -3.86868 -0.344578 0
M  V30 3399 H 318.283 -4.04346 -0.169254 0
M  V30 3400 H 315.038 -4.37101 1.82318 0
M  V30 3401 H 315.462 -5.22923 4.29977 0
M  V30 3402 H 320.104 -3.85158 1.74393 0
M  V30 3403 H 317.822 -5.57672 5.84831 0
M  V30 3404 H 321.408 -4.43796 3.76213 0
M  V30 3405 H 320.288 -5.29142 5.78774 0
M  V30 3406 N 317.792 -0.46758 -1.50504 0
M  V30 3407 C 319.069 0.15003 -1.95024 0
M  V30 3408 C 319.449 1.57304 -1.40779 0
M  V30 3409 O 318.797 2.20281 -0.607319 0
M  V30 3410 C 319.007 0.0969324 -3.48865 0
M  V30 3411 C 320.355 0.287565 -4.23625 0
M  V30 3412 O 321.379 0.173678 -3.55776 0
M  V30 3413 O 320.238 0.517186 -5.44047 0
M  V30 3414 H 317.332 0.113582 -0.819163 0
M  V30 3415 H 319.878 -0.52773 -1.61286 0
M  V30 3416 H 318.65 -0.896732 -3.80886 0
M  V30 3417 H 318.273 0.816303 -3.8913 0
M  V30 3418 N 319.27 1.56325 -0.20005 0
M  V30 3419 C 320.18 2.22931 0.730668 0
M  V30 3420 C 321.196 1.22997 1.23076 0
M  V30 3421 O 322.372 1.55748 1.27689 0
M  V30 3422 C 319.437 2.87948 1.93098 0
M  V30 3423 C 318.498 4.03166 1.47497 0
M  V30 3424 C 317.731 4.65073 2.61807 0
M  V30 3425 O 317.954 4.25913 3.79413 0
M  V30 3426 O 316.888 5.54452 2.34237 0
M  V30 3427 H 320.714 3.03084 0.193391 0
M  V30 3428 H 318.299 1.49371 0.0294621 0
M  V30 3429 H 320.181 3.29063 2.6324 0
M  V30 3430 H 318.856 2.10771 2.45677 0
M  V30 3431 H 317.763 3.66664 0.742201 0
M  V30 3432 H 319.096 4.82022 0.995796 0
M  V30 3433 N 320.748 -0.0735177 1.57428 0
M  V30 3434 C 322.025 -0.805903 1.78226 0
M  V30 3435 C 322.405 -1.95874 0.787189 0
M  V30 3436 O 321.753 -2.2779 -0.180029 0
M  V30 3437 C 321.963 -1.28045 3.24662 0
M  V30 3438 C 323.311 -1.71453 3.88444 0
M  V30 3439 O 324.335 -1.37616 3.28543 0
M  V30 3440 O 323.194 -2.34093 4.93825 0
M  V30 3441 H 320.288 -0.386041 0.73137 0
M  V30 3442 H 322.834 -0.0537269 1.69615 0
M  V30 3443 H 321.606 -0.455476 3.8864 0
M  V30 3444 H 321.229 -2.094 3.37991 0
M  V30 3445 N 322.226 -1.5378 -0.344866 0
M  V30 3446 C 323.158 -1.77988 -1.44406 0
M  V30 3447 C 324.171 -0.661138 -1.48771 0
M  V30 3448 O 325.36 -0.937842 -1.51877 0
M  V30 3449 C 322.46 -1.86345 -2.8307 0
M  V30 3450 C 321.633 -3.16256 -3.0216 0
M  V30 3451 C 320.692 -3.15588 -4.21059 0
M  V30 3452 O 319.718 -3.89314 -4.15239 0
M  V30 3453 N 320.92 -2.37864 -5.29529 0
M  V30 3454 H 323.685 -2.72839 -1.24012 0
M  V30 3455 H 321.246 -1.52814 -0.534737 0
M  V30 3456 H 323.238 -1.83351 -3.60783 0
M  V30 3457 H 321.808 -0.986858 -2.96614 0
M  V30 3458 H 321.028 -3.32385 -2.11929 0
M  V30 3459 H 322.316 -4.0207 -3.11797 0
M  V30 3460 H 321.714 -1.77514 -5.37127 0
M  V30 3461 H 320.271 -2.40668 -6.05741 0
M  V30 3462 N 323.704 0.605807 -1.45491 0
M  V30 3463 C 324.654 1.71074 -1.50724 0
M  V30 3464 C 325.638 1.5658 -0.37033 0
M  V30 3465 O 326.83 1.65887 -0.617299 0
M  V30 3466 C 323.959 3.0983 -1.47852 0
M  V30 3467 C 323.045 3.29704 -2.66751 0
M  V30 3468 N 323.436 3.19831 -3.91844 0
M  V30 3469 C 321.734 3.60579 -2.62486 0
M  V30 3470 C 322.435 3.41083 -4.71208 0
M  V30 3471 N 321.411 3.65157 -4.02693 0
M  V30 3472 H 325.213 1.61937 -2.45263 0
M  V30 3473 H 322.727 0.80912 -1.40808 0
M  V30 3474 H 324.724 3.89101 -1.49686 0
M  V30 3475 H 323.384 3.20115 -0.543714 0
M  V30 3476 H 324.395 2.98194 -4.23439 0
M  V30 3477 H 321.072 3.7769 -1.77922 0
M  V30 3478 H 322.462 3.38828 -5.80211 0
M  V30 3479 N 325.182 1.32811 0.848464 0
M  V30 3480 C 326.129 1.22265 1.95755 0
M  V30 3481 C 327.099 0.103413 1.65778 0
M  V30 3482 O 328.284 0.280033 1.88734 0
M  V30 3483 C 325.424 0.958014 3.31536 0
M  V30 3484 C 324.537 2.16262 3.73971 0
M  V30 3485 C 323.672 1.83295 4.98575 0
M  V30 3486 C 322.711 3.00041 5.33518 0
M  V30 3487 N 321.848 2.67125 6.49299 0
M  V30 3488 H 326.688 2.17128 2.04107 0
M  V30 3489 H 324.225 1.07982 0.998913 0
M  V30 3490 H 326.183 0.785052 4.09747 0
M  V30 3491 H 324.813 0.046159 3.22767 0
M  V30 3492 H 323.865 2.44565 2.91362 0
M  V30 3493 H 325.177 3.03572 3.95785 0
M  V30 3494 H 324.331 1.62586 5.84509 0
M  V30 3495 H 323.07 0.932078 4.7871 0
M  V30 3496 H 322.075 3.21374 4.46093 0
M  V30 3497 H 323.3 3.90869 5.55336 0
M  V30 3498 H 321.246 1.79586 6.3094 0
M  V30 3499 H 321.163 3.47965 6.71161 0
M  V30 3500 H 322.431 2.49861 7.3837 0
M  V30 3501 N 326.66 -1.06551 1.16123 0
M  V30 3502 C 327.59 -2.15935 0.88851 0
M  V30 3503 C 328.571 -1.69306 -0.164135 0
M  V30 3504 O 329.756 -1.94193 -0.0167857 0
M  V30 3505 C 326.886 -3.45149 0.385942 0
M  V30 3506 C 325.84 -4.05271 1.3762 0
M  V30 3507 C 325.166 -5.29664 0.732137 0
M  V30 3508 C 326.466 -4.44355 2.74493 0
M  V30 3509 H 328.16 -2.39006 1.80323 0
M  V30 3510 H 325.706 -1.14866 0.868435 0
M  V30 3511 H 327.659 -4.21004 0.182647 0
M  V30 3512 H 326.383 -3.21689 -0.564274 0
M  V30 3513 H 325.042 -3.3147 1.56599 0
M  V30 3514 H 324.69 -5.02499 -0.224483 0
M  V30 3515 H 324.39 -5.70848 1.39307 0
M  V30 3516 H 325.914 -6.08218 0.538802 0
M  V30 3517 H 327.328 -5.11303 2.59311 0
M  V30 3518 H 325.725 -4.96515 3.37035 0
M  V30 3519 H 326.795 -3.55339 3.29943 0
M  V30 3520 N 328.138 -0.959301 -1.25041 0
M  V30 3521 C 329.368 -0.63303 -1.96663 0
M  V30 3522 C 329.776 0.800031 -1.71453 0
M  V30 3523 O 329.119 1.54736 -0.99008 0
M  V30 3524 C 329.181 -0.817523 -3.50081 0
M  V30 3525 C 328.845 -2.22863 -3.98975 0
M  V30 3526 C 329.842 -3.20569 -4.09306 0
M  V30 3527 C 327.527 -2.55407 -4.32519 0
M  V30 3528 C 329.521 -4.4891 -4.52503 0
M  V30 3529 C 327.208 -3.83976 -4.754 0
M  V30 3530 C 328.206 -4.8054 -4.85356 0
M  V30 3531 O 327.894 -6.06817 -5.27284 0
M  V30 3532 H 327.626 -0.235866 -0.633516 0
M  V30 3533 H 330.18 -1.2874 -1.60047 0
M  V30 3534 H 328.41 -0.105992 -3.86555 0
M  V30 3535 H 330.099 -0.491604 -4.02912 0
M  V30 3536 H 330.865 -2.96753 -3.83618 0
M  V30 3537 H 326.744 -1.8097 -4.23994 0
M  V30 3538 H 330.288 -5.24283 -4.60188 0
M  V30 3539 H 326.185 -4.07596 -5.00535 0
M  V30 3540 H 326.953 -6.10262 -5.45457 0
M  V30 3541 N 329.616 1.39756 -0.72842 0
M  V30 3542 C 330.548 2.29157 -0.0446202 0
M  V30 3543 C 331.561 1.46484 0.710367 0
M  V30 3544 O 332.75 1.69632 0.55562 0
M  V30 3545 C 329.85 3.24987 0.961071 0
M  V30 3546 C 329.023 4.36572 0.268967 0
M  V30 3547 C 328.082 5.12756 1.18184 0
M  V30 3548 O 327.108 5.6534 0.661794 0
M  V30 3549 N 328.31 5.23331 2.51206 0
M  V30 3550 H 331.075 2.88482 -0.812295 0
M  V30 3551 H 328.636 1.51265 -0.577098 0
M  V30 3552 H 330.628 3.72827 1.57423 0
M  V30 3553 H 329.198 2.66739 1.63 0
M  V30 3554 H 328.418 3.90694 -0.524574 0
M  V30 3555 H 329.706 5.08363 -0.210934 0
M  V30 3556 H 329.104 4.82116 2.9594 0
M  V30 3557 H 327.661 5.74634 3.07634 0
M  V30 3558 N 331.094 0.475555 1.50254 0
M  V30 3559 C 332.026 -0.352649 2.26471 0
M  V30 3560 C 333.039 -0.953165 1.3198 0
M  V30 3561 O 334.228 -0.840815 1.57457 0
M  V30 3562 C 331.328 -1.50902 3.0345 0
M  V30 3563 C 330.501 -1.02047 4.25329 0
M  V30 3564 C 329.56 -2.05142 4.84565 0
M  V30 3565 O 328.586 -1.63023 5.45355 0
M  V30 3566 N 329.788 -3.37987 4.71959 0
M  V30 3567 H 332.553 0.300767 2.98187 0
M  V30 3568 H 330.114 0.306598 1.5897 0
M  V30 3569 H 332.106 -2.19572 3.39956 0
M  V30 3570 H 330.676 -2.06705 2.34504 0
M  V30 3571 H 329.896 -0.159507 3.93877 0
M  V30 3572 H 331.184 -0.672061 5.04342 0
M  V30 3573 H 330.582 -3.74913 4.23623 0
M  V30 3574 H 329.139 -4.02443 5.12721 0
M  V30 3575 N 332.573 -1.56217 0.208337 0
M  V30 3576 C 333.822 -1.97124 -0.427204 0
M  V30 3577 C 334.135 -1.09859 -1.61835 0
M  V30 3578 O 335.341 -1.40606 -2.32255 0
M  V30 3579 C 333.797 -3.50633 -0.811442 0
M  V30 3580 C 333.405 -4.46582 0.35615 0
M  V30 3581 C 335.149 -4.00282 -1.41332 0
M  V30 3582 C 333.056 -5.91379 -0.0497852 0
M  V30 3583 H 331.986 -0.736086 -0.163381 0
M  V30 3584 H 334.637 -1.8099 0.302456 0
M  V30 3585 H 333.019 -3.62319 -1.59815 0
M  V30 3586 H 334.193 -4.46636 1.1337 0
M  V30 3587 H 332.508 -4.07202 0.870396 0
M  V30 3588 H 335.105 -5.0595 -1.72972 0
M  V30 3589 H 335.448 -3.45359 -2.32449 0
M  V30 3590 H 335.981 -3.91764 -0.690323 0
M  V30 3591 H 332.72 -6.50255 0.827529 0
M  V30 3592 H 332.24 -5.94549 -0.791926 0
M  V30 3593 H 333.919 -6.45209 -0.481042 0
M  V30 3594 N 334.051 0.0651679 -1.57465 0
M  V30 3595 C 334.998 1.07675 -2.04144 0
M  V30 3596 C 335.968 1.38071 -0.923335 0
M  V30 3597 O 337.153 1.49026 -1.19146 0
M  V30 3598 C 334.293 2.38337 -2.49579 0
M  V30 3599 C 333.406 2.14413 -3.75035 0
M  V30 3600 C 332.541 3.38686 -4.09225 0
M  V30 3601 C 331.58 3.10156 -5.27702 0
M  V30 3602 N 330.717 4.26778 -5.57499 0
M  V30 3603 H 335.557 0.671716 -2.90331 0
M  V30 3604 H 333.094 0.3201 -1.43575 0
M  V30 3605 H 335.052 3.14632 -2.73975 0
M  V30 3606 H 333.682 2.7663 -1.6636 0
M  V30 3607 H 332.734 1.2878 -3.57939 0
M  V30 3608 H 334.046 1.89344 -4.61466 0
M  V30 3609 H 333.2 4.23373 -4.34558 0
M  V30 3610 H 331.939 3.66837 -3.21374 0
M  V30 3611 H 330.944 2.23866 -5.02159 0
M  V30 3612 H 332.169 2.8332 -6.17176 0
M  V30 3613 H 330.115 4.54948 -4.72608 0
M  V30 3614 H 330.032 4.05005 -6.38362 0
M  V30 3615 H 331.3 5.12443 -5.87386 0
M  V30 3616 N 335.529 1.53961 0.336706 0
M  V30 3617 C 336.492 1.81724 1.39675 0
M  V30 3618 C 337.492 0.688532 1.45313 0
M  V30 3619 O 338.682 0.956829 1.45569 0
M  V30 3620 C 335.814 1.96543 2.78538 0
M  V30 3621 H 337.007 2.76424 1.16318 0
M  V30 3622 H 334.56 1.45478 0.571474 0
M  V30 3623 H 335.295 1.0401 3.07168 0
M  V30 3624 H 335.08 2.78665 2.75841 0
M  V30 3625 H 336.57 2.19516 3.5525 0
M  V30 3626 N 337.007 -0.598083 1.45811 0
M  V30 3627 C 338.255 -1.35413 1.50026 0
M  V30 3628 C 338.576 -1.94444 0.147177 0
M  V30 3629 O 337.846 -1.77701 -0.824571 0
M  V30 3630 H 336.426 -0.502727 0.552517 0
M  V30 3631 H 339.088 -0.701606 1.81834 0
M  V30 3632 H 338.184 -2.16871 2.2444 0
M  V30 3633 N 338.485 -1.33259 -0.841409 0
M  V30 3634 C 339.448 -1.23221 -1.9326 0
M  V30 3635 C 340.448 -0.151895 -1.60081 0
M  V30 3636 O 341.638 -0.403246 -1.69468 0
M  V30 3637 C 338.77 -0.898123 -3.28856 0
M  V30 3638 H 339.963 -2.2021 -2.03587 0
M  V30 3639 H 337.516 -1.17281 -1.03319 0
M  V30 3640 H 338.251 0.0693841 -3.24226 0
M  V30 3641 H 338.036 -1.67934 -3.54317 0
M  V30 3642 H 339.526 -0.852563 -4.08805 0
M  V30 3643 N 339.963 1.05934 -1.16686 0
M  V30 3644 C 341.193 1.82226 -0.973515 0
M  V30 3645 C 341.601 1.8297 0.481532 0
M  V30 3646 O 340.944 1.25009 1.34604 0
M  V30 3647 C 341.006 3.29897 -1.42858 0
M  V30 3648 C 340.67 3.52849 -2.90425 0
M  V30 3649 C 341.667 3.45595 -3.88407 0
M  V30 3650 C 339.352 3.80053 -3.28428 0
M  V30 3651 C 341.346 3.65217 -5.22394 0
M  V30 3652 C 339.033 3.99325 -4.62583 0
M  V30 3653 C 340.031 3.91905 -5.59374 0
M  V30 3654 O 339.719 4.10647 -6.91104 0
M  V30 3655 H 339.451 0.581314 -0.345036 0
M  V30 3656 H 342.005 1.3453 -1.55212 0
M  V30 3657 H 340.235 3.78472 -0.793477 0
M  V30 3658 H 341.924 3.87692 -1.20207 0
M  V30 3659 H 342.69 3.24564 -3.60393 0
M  V30 3660 H 338.569 3.84936 -2.53664 0
M  V30 3661 H 342.113 3.59341 -5.9793 0
M  V30 3662 H 338.01 4.19846 -4.90306 0
M  V30 3663 H 338.778 4.27915 -6.97733 0
M  V30 3664 N 341.441 0.965919 1.2453 0
M  V30 3665 C 342.718 0.543777 1.87889 0
M  V30 3666 C 343.098 -0.97909 1.87021 0
M  V30 3667 O 342.446 -1.84969 1.3416 0
M  V30 3668 C 342.656 1.13327 3.30088 0
M  V30 3669 C 344.004 1.21707 4.06783 0
M  V30 3670 O 345.028 1.08566 3.39252 0
M  V30 3671 O 343.887 1.42456 5.27606 0
M  V30 3672 H 340.981 0.181054 0.806938 0
M  V30 3673 H 343.527 1.06007 1.32516 0
M  V30 3674 H 342.299 2.17612 3.25209 0
M  V30 3675 H 341.922 0.600911 3.93033 0
M  V30 3676 N 342.919 -1.39368 0.735821 0
M  V30 3677 C 344.166 -2.00497 0.284123 0
M  V30 3678 C 344.494 -1.58387 -1.12889 0
M  V30 3679 O 343.749 -0.804359 -1.78406 0
M  V30 3680 C 344.048 -3.5583 0.334651 0
M  V30 3681 C 343.714 -4.17593 1.7008 0
M  V30 3682 C 342.376 -4.34176 2.07472 0
M  V30 3683 C 344.728 -4.51848 2.59775 0
M  V30 3684 C 342.056 -4.82304 3.34065 0
M  V30 3685 C 344.408 -5.01384 3.85741 0
M  V30 3686 C 343.072 -5.16175 4.23225 0
M  V30 3687 H 342.342 -0.73367 0.103968 0
M  V30 3688 H 344.989 -1.66683 0.942825 0
M  V30 3689 H 343.294 -3.89674 -0.407625 0
M  V30 3690 H 344.991 -4.00986 -0.0329927 0
M  V30 3691 H 341.581 -4.05087 1.40008 0
M  V30 3692 H 345.765 -4.38653 2.32157 0
M  V30 3693 H 341.021 -4.91941 3.63049 0
M  V30 3694 H 345.195 -5.26863 4.55399 0
M  V30 3695 H 342.822 -5.5323 5.21384 0
M  V30 3696 N 344.397 -0.483516 -1.5 0
M  V30 3697 C 345.808 -0.0314176 -1.86674 0
M  V30 3698 C 346.159 1.37728 -1.39733 0
M  V30 3699 O 345.284 2.02327 -0.767635 0
M  V30 3700 C 345.879 -0.0502376 -3.38763 0
M  V30 3701 C 344.438 0.346442 -3.74802 0
M  V30 3702 C 343.585 -0.430366 -2.7394 0
M  V30 3703 H 346.536 -0.697182 -1.42566 0
M  V30 3704 H 346.557 0.749116 -3.73053 0
M  V30 3705 H 346.069 -1.07563 -3.72897 0
M  V30 3706 H 344.17 1.37572 -3.46273 0
M  V30 3707 H 344.283 0.0391486 -4.79084 0
M  V30 3708 H 342.647 0.117557 -2.54429 0
M  V30 3709 H 343.43 -1.4555 -3.10918 0
M  V30 3710 N 345.875 1.56104 -0.216619 0
M  V30 3711 C 347.1 2.0301 0.424462 0
M  V30 3712 C 347.525 1.0955 1.52907 0
M  V30 3713 O 346.883 0.0827914 1.81111 0
M  V30 3714 C 346.931 3.4819 0.937883 0
M  V30 3715 O 346.035 3.57865 2.04955 0
M  V30 3716 H 345.376 0.656925 0.0966755 0
M  V30 3717 H 347.906 2.01859 -0.33381 0
M  V30 3718 H 347.916 3.88413 1.24897 0
M  V30 3719 H 346.591 4.15699 0.129387 0
M  V30 3720 H 345.168 3.29527 1.74546 0
M  V30 3721 N 347.353 -0.0568162 1.57498 0
M  V30 3722 C 348.764 -0.606858 1.76562 0
M  V30 3723 C 349.115 -1.77114 0.844094 0
M  V30 3724 O 348.24 -2.16376 0.0318911 0
M  V30 3725 C 348.835 -1.10766 3.20182 0
M  V30 3726 C 347.394 -1.60344 3.40539 0
M  V30 3727 C 346.541 -0.529311 2.72201 0
M  V30 3728 H 349.492 0.169393 1.57793 0
M  V30 3729 H 349.513 -1.97602 3.25167 0
M  V30 3730 H 349.025 -0.26006 3.87228 0
M  V30 3731 H 347.126 -2.47379 2.78629 0
M  V30 3732 H 347.239 -1.67006 4.4905 0
M  V30 3733 H 345.603 -0.977893 2.35179 0
M  V30 3734 H 346.386 0.308352 3.41912 0
M  V30 3735 N 348.832 -1.54138 -0.328536 0
M  V30 3736 C 349.742 -1.86192 -1.42723 0
M  V30 3737 C 350.758 -0.753382 -1.56844 0
M  V30 3738 O 351.934 -1.04718 -1.72035 0
M  V30 3739 C 348.999 -2.07824 -2.77507 0
M  V30 3740 C 348.06 -3.31641 -2.72603 0
M  V30 3741 C 347.293 -3.52232 -4.00959 0
M  V30 3742 O 347.516 -2.7636 -4.9898 0
M  V30 3743 O 346.45 -4.45699 -4.0452 0
M  V30 3744 H 350.276 -2.79608 -1.18547 0
M  V30 3745 H 347.861 -1.3998 -0.522104 0
M  V30 3746 H 349.743 -2.23411 -3.57303 0
M  V30 3747 H 348.418 -1.17596 -3.01584 0
M  V30 3748 H 347.325 -3.21444 -1.91376 0
M  V30 3749 H 348.658 -4.2191 -2.53481 0
M  V30 3750 N 350.31 0.590341 -1.46126 0
M  V30 3751 C 351.556 1.34874 -1.52252 0
M  V30 3752 C 351.911 1.91658 -0.168807 0
M  V30 3753 O 351.204 1.73093 0.821556 0
M  V30 3754 C 351.398 2.5032 -2.55097 0
M  V30 3755 C 351.227 2.04843 -4.00337 0
M  V30 3756 C 349.997 1.90213 -4.68132 0
M  V30 3757 C 352.195 1.61267 -4.88362 0
M  V30 3758 N 350.177 1.38727 -5.9802 0
M  V30 3759 C 351.548 1.21319 -6.08015 0
M  V30 3760 C 353.603 1.49015 -4.75078 0
M  V30 3761 C 352.306 0.7034 -7.15852 0
M  V30 3762 C 354.332 0.994401 -5.8298 0
M  V30 3763 C 353.694 0.604659 -7.018 0
M  V30 3764 H 349.793 0.486803 -0.612002 0
M  V30 3765 H 352.377 0.673007 -1.82698 0
M  V30 3766 H 350.548 3.15466 -2.26574 0
M  V30 3767 H 352.28 3.1725 -2.51266 0
M  V30 3768 H 349.035 2.11927 -4.23537 0
M  V30 3769 H 349.459 1.15168 -6.67132 0
M  V30 3770 H 354.101 1.77768 -3.83612 0
M  V30 3771 H 351.819 0.403446 -8.07092 0
M  V30 3772 H 355.405 0.903621 -5.7474 0
M  V30 3773 H 354.285 0.226963 -7.83871 0
M  V30 3774 N 351.788 1.33704 0.83433 0
M  V30 3775 C 353.065 1.16011 1.57483 0
M  V30 3776 C 353.445 -0.27176 2.09343 0
M  V30 3777 O 352.793 -1.27146 1.89858 0
M  V30 3778 C 353.003 2.20507 2.70514 0
M  V30 3779 C 354.351 2.54898 3.39577 0
M  V30 3780 O 355.375 2.19209 2.80759 0
M  V30 3781 O 354.234 3.16158 4.45765 0
M  V30 3782 H 351.328 0.448992 0.694503 0
M  V30 3783 H 353.874 1.453 0.876691 0
M  V30 3784 H 352.646 3.16667 2.29865 0
M  V30 3785 H 352.269 1.92329 3.47987 0
M  V30 3786 N 353.266 -1.05314 1.17247 0
M  V30 3787 C 354.494 -1.81971 0.984593 0
M  V30 3788 C 354.909 -1.82929 -0.467166 0
M  V30 3789 O 354.266 -1.25564 -1.32438 0
M  V30 3790 C 354.317 -3.28143 1.51672 0
M  V30 3791 O 354.038 -3.27347 2.91163 0
M  V30 3792 C 355.539 -4.21493 1.37326 0
M  V30 3793 H 352.759 -0.573455 0.348411 0
M  V30 3794 H 355.303 -1.32808 1.55506 0
M  V30 3795 H 353.458 -3.74582 0.988302 0
M  V30 3796 H 353.872 -4.18824 3.15732 0
M  V30 3797 H 355.346 -5.22043 1.79375 0
M  V30 3798 H 355.823 -4.38031 0.320169 0
M  V30 3799 H 356.429 -3.80909 1.89178 0
M  V30 3800 N 354.744 -0.972509 -1.24016 0
M  V30 3801 C 355.99 -0.637978 -1.92504 0
M  V30 3802 C 356.323 0.825383 -1.75787 0
M  V30 3803 O 355.598 1.59442 -1.11393 0
M  V30 3804 C 355.881 -1.01942 -3.45369 0
M  V30 3805 C 355.734 -2.53983 -3.71231 0
M  V30 3806 C 357.053 -0.55751 -4.36555 0
M  V30 3807 H 354.172 -0.233248 -0.699117 0
M  V30 3808 H 356.814 -1.21238 -1.46292 0
M  V30 3809 H 354.964 -0.530656 -3.84859 0
M  V30 3810 H 356.636 -3.10374 -3.41271 0
M  V30 3811 H 354.879 -2.96968 -3.16216 0
M  V30 3812 H 355.55 -2.75723 -4.78206 0
M  V30 3813 H 358.026 -0.977029 -4.04467 0
M  V30 3814 H 356.902 -0.85292 -5.42233 0
M  V30 3815 H 357.163 0.542328 -4.38761 0
M  V30 3816 N 356.222 1.38976 -0.743202 0
M  V30 3817 C 357.45 2.04636 -0.30525 0
M  V30 3818 C 357.865 1.56044 1.06281 0
M  V30 3819 O 357.222 0.728921 1.67311 0
M  V30 3820 C 357.273 3.60193 -0.307177 0
M  V30 3821 O 356.994 4.06998 -1.62124 0
M  V30 3822 C 358.495 4.4306 0.145928 0
M  V30 3823 H 355.715 0.65788 -0.132041 0
M  V30 3824 H 358.259 1.77866 -1.00915 0
M  V30 3825 H 356.414 3.85835 0.347898 0
M  V30 3826 H 356.828 5.01371 -1.54036 0
M  V30 3827 H 358.302 5.51921 0.0934183 0
M  V30 3828 H 358.779 4.22706 1.19231 0
M  V30 3829 H 359.385 4.22584 -0.479886 0
M  V30 3830 N 357.7 0.491464 1.49741 0
M  V30 3831 C 359.111 0.0413169 1.86654 0
M  V30 3832 C 359.462 -1.36985 1.40462 0
M  V30 3833 O 358.587 -2.01917 0.778354 0
M  V30 3834 C 359.182 0.0682023 3.38731 0
M  V30 3835 C 357.741 -0.32656 3.74981 0
M  V30 3836 C 356.888 0.444888 2.73708 0
M  V30 3837 H 359.839 0.704733 1.42194 0
M  V30 3838 H 359.86 -0.729322 3.73445 0
M  V30 3839 H 359.372 1.09539 3.72321 0
M  V30 3840 H 357.473 -1.35734 3.46997 0
M  V30 3841 H 357.586 -0.013741 4.79098 0
M  V30 3842 H 355.95 -0.104062 2.54487 0
M  V30 3843 H 356.733 1.47197 3.10142 0
M  V30 3844 N 359.178 -1.55987 0.224894 0
M  V30 3845 C 360.088 -2.24066 -0.69511 0
M  V30 3846 C 361.104 -1.24939 -1.21104 0
M  V30 3847 O 362.28 -1.5776 -1.25195 0
M  V30 3848 C 359.345 -2.90983 -1.88493 0
M  V30 3849 C 358.406 -4.05462 -1.41064 0
M  V30 3850 C 357.639 -4.69179 -2.54375 0
M  V30 3851 O 357.862 -4.31895 -3.72589 0
M  V30 3852 O 356.796 -5.58108 -2.25386 0
M  V30 3853 H 360.622 -3.03353 -0.145149 0
M  V30 3854 H 358.207 -1.49399 -0.00569476 0
M  V30 3855 H 360.089 -3.33209 -2.57972 0
M  V30 3856 H 358.764 -2.14653 -2.42293 0
M  V30 3857 H 357.671 -3.67798 -0.683774 0
M  V30 3858 H 359.004 -4.83545 -0.918985 0
M  V30 3859 N 360.656 0.0484629 -1.57525 0
M  V30 3860 C 361.619 1.03956 -2.04269 0
M  V30 3861 C 362.619 1.30211 -0.943496 0
M  V30 3862 O 363.809 1.25539 -1.20771 0
M  V30 3863 C 360.941 2.37742 -2.44319 0
M  V30 3864 H 362.134 0.636182 -2.93075 0
M  V30 3865 H 359.687 0.294811 -1.53494 0
M  V30 3866 H 360.422 2.82866 -1.5861 0
M  V30 3867 H 360.207 2.20021 -3.24551 0
M  V30 3868 H 361.697 3.08936 -2.80978 0
M  V30 3869 N 362.134 1.5431 0.320358 0
M  V30 3870 C 363.081 1.83918 1.39438 0
M  V30 3871 C 364.051 0.686525 1.51248 0
M  V30 3872 O 365.236 0.933269 1.66417 0
M  V30 3873 C 362.376 2.075 2.75749 0
M  V30 3874 C 361.489 3.35177 2.72544 0
M  V30 3875 C 360.624 3.48704 4.00723 0
M  V30 3876 C 359.663 4.70244 3.91838 0
M  V30 3877 N 358.8 4.80679 5.11754 0
M  V30 3878 H 363.64 2.75544 1.13489 0
M  V30 3879 H 361.177 1.36459 0.549309 0
M  V30 3880 H 363.135 2.19166 3.54996 0
M  V30 3881 H 361.765 1.19163 3 0
M  V30 3882 H 360.817 3.32233 1.85271 0
M  V30 3883 H 362.129 4.24534 2.61863 0
M  V30 3884 H 361.283 3.59928 4.88402 0
M  V30 3885 H 360.022 2.57445 4.14214 0
M  V30 3886 H 359.027 4.59072 3.02544 0
M  V30 3887 H 360.252 5.6289 3.7991 0
M  V30 3888 H 358.198 3.92337 5.25745 0
M  V30 3889 H 358.115 5.64007 5.0342 0
M  V30 3890 H 359.383 4.96239 6.01138 0
M  V30 3891 N 363.613 -0.582584 1.46437 0
M  V30 3892 C 364.561 -1.71272 1.5738 0
M  V30 3893 C 365.555 -1.63524 0.44229 0
M  V30 3894 O 366.761 -1.69016 0.619166 0
M  V30 3895 H 363.136 -0.566273 0.494813 0
M  V30 3896 H 365.107 -1.59174 2.52401 0
M  V30 3897 C 363.856 -3.09658 1.58136 0
M  V30 3898 H 363.179 -3.16291 2.44541 0
M  V30 3899 H 364.619 -3.88494 1.69847 0
M  V30 3900 C 363.078 -3.3547 0.310026 0
M  V30 3901 O 363.608 -3.97199 -0.599683 0
M  V30 3902 N 361.814 -2.89925 0.197901 0
M  V30 3903 H 361.361 -2.39873 0.93909 0
M  V30 3904 H 361.319 -3.07568 -0.65185 0
M  V30 3905 N 365.091 -1.34144 -0.827227 0
M  V30 3906 C 366.021 -1.28005 -1.95287 0
M  V30 3907 C 367.002 -0.158321 -1.69362 0
M  V30 3908 O 368.187 -0.349987 -1.9102 0
M  V30 3909 C 365.317 -1.03036 -3.31664 0
M  V30 3910 C 364.271 -2.11628 -3.72019 0
M  V30 3911 C 363.597 -1.71854 -5.0633 0
M  V30 3912 C 364.897 -3.53417 -3.8457 0
M  V30 3913 H 366.591 -2.22187 -2.00682 0
M  V30 3914 H 364.137 -1.0696 -0.964135 0
M  V30 3915 H 366.09 -0.973863 -4.09993 0
M  V30 3916 H 364.814 -0.0529391 -3.26557 0
M  V30 3917 H 363.473 -2.16339 -2.95961 0
M  V30 3918 H 363.121 -0.727841 -4.97706 0
M  V30 3919 H 362.821 -2.44531 -5.34302 0
M  V30 3920 H 364.345 -1.67692 -5.87122 0
M  V30 3921 H 365.759 -3.51142 -4.5318 0
M  V30 3922 H 364.156 -4.24679 -4.2399 0
M  V30 3923 H 365.226 -3.91072 -2.86689 0
M  V30 3924 N 366.569 1.04691 -1.17803 0
M  V30 3925 C 367.818 1.77176 -0.963931 0
M  V30 3926 C 368.131 1.88888 0.508015 0
M  V30 3927 O 369.337 2.58164 0.840465 0
M  V30 3928 C 367.793 3.18518 -1.67555 0
M  V30 3929 C 367.401 3.14919 -3.18637 0
M  V30 3930 C 369.145 3.95424 -1.54402 0
M  V30 3931 C 367.052 4.51081 -3.82466 0
M  V30 3932 H 365.982 0.664116 -0.357023 0
M  V30 3933 H 368.633 1.17303 -1.4111 0
M  V30 3934 H 367.015 3.78748 -1.15613 0
M  V30 3935 H 368.189 2.64178 -3.77554 0
M  V30 3936 H 366.504 2.51512 -3.31859 0
M  V30 3937 H 369.101 4.96106 -1.99456 0
M  V30 3938 H 369.444 4.13343 -0.495329 0
M  V30 3939 H 369.977 3.41754 -2.0359 0
M  V30 3940 H 366.716 4.38368 -4.87354 0
M  V30 3941 H 366.236 5.01951 -3.28337 0
M  V30 3942 H 367.915 5.2001 -3.84965 0
M  V30 3943 N 368.047 0.979072 1.23499 0
M  V30 3944 C 368.995 0.510604 2.26926 0
M  V30 3945 C 369.989 -0.431691 1.63807 0
M  V30 3946 O 371.195 -0.30573 1.77385 0
M  V30 3947 H 367.57 0.146688 0.737554 0
M  V30 3948 H 369.541 1.39466 2.63803 0
M  V30 3949 C 368.29 -0.172658 3.47271 0
M  V30 3950 H 367.613 0.543331 3.96091 0
M  V30 3951 H 369.053 -0.464101 4.21452 0
M  V30 3952 C 367.512 -1.40345 3.06276 0
M  V30 3953 O 368.042 -2.49978 3.14442 0
M  V30 3954 N 366.248 -1.27362 2.61203 0
M  V30 3955 H 365.795 -0.381584 2.54758 0
M  V30 3956 H 365.753 -2.09822 2.34141 0
M  V30 3957 N 369.525 -1.3858 0.750561 0
M  V30 3958 C 370.457 -2.29057 0.0810714 0
M  V30 3959 C 371.47 -1.47596 -0.686973 0
M  V30 3960 O 372.659 -1.70495 -0.528563 0
M  V30 3961 C 369.759 -3.26475 -0.909247 0
M  V30 3962 C 368.932 -4.36945 -0.199478 0
M  V30 3963 C 367.991 -5.14572 -1.10011 0
M  V30 3964 O 367.017 -5.66321 -0.57177 0
M  V30 3965 N 368.219 -5.27262 -2.42849 0
M  V30 3966 H 370.984 -2.87153 0.858087 0
M  V30 3967 H 368.545 -1.50328 0.60109 0
M  V30 3968 H 370.537 -3.75285 -1.51471 0
M  V30 3969 H 369.107 -2.69298 -1.58736 0
M  V30 3970 H 368.327 -3.8981 0.586664 0
M  V30 3971 H 369.615 -5.07963 0.291783 0
M  V30 3972 H 369.013 -4.86763 -2.88233 0
M  V30 3973 H 367.57 -5.79456 -2.98453 0
M  V30 3974 N 371.003 -0.499398 -1.49478 0
M  V30 3975 C 371.936 0.326491 -2.25852 0
M  V30 3976 C 372.914 0.971776 -1.30366 0
M  V30 3977 O 374.098 1.00219 -1.59651 0
M  V30 3978 C 371.225 1.45969 -3.05632 0
M  V30 3979 C 370.271 0.928938 -4.16261 0
M  V30 3980 S 371.104 -0.179012 -5.35201 0
M  V30 3981 C 372.26 0.957389 -6.18534 0
M  V30 3982 H 372.493 -0.321746 -2.95554 0
M  V30 3983 H 370.026 -0.284674 -1.51753 0
M  V30 3984 H 371.984 2.109 -3.52181 0
M  V30 3985 H 370.645 2.07953 -2.35402 0
M  V30 3986 H 369.838 1.77813 -4.71592 0
M  V30 3987 H 369.44 0.356869 -3.72293 0
M  V30 3988 H 371.732 1.86296 -6.51383 0
M  V30 3989 H 372.675 0.442733 -7.06715 0
M  V30 3990 H 373.083 1.224 -5.5107 0
M  V30 3991 N 372.481 1.55866 -0.233164 0
M  V30 3992 C 373.411 2.23783 0.666599 0
M  V30 3993 C 374.392 1.21343 1.19205 0
M  V30 3994 O 375.577 1.4996 1.23392 0
M  V30 3995 C 372.707 2.92671 1.86978 0
M  V30 3996 C 371.661 4.01682 1.47768 0
M  V30 3997 C 370.987 4.57926 2.76058 0
M  V30 3998 C 372.287 5.18126 0.658993 0
M  V30 3999 H 373.981 2.99232 0.100306 0
M  V30 4000 H 371.527 1.43924 0.046804 0
M  V30 4001 H 373.48 3.3888 2.50476 0
M  V30 4002 H 372.204 2.14688 2.46123 0
M  V30 4003 H 370.863 3.56222 0.866106 0
M  V30 4004 H 370.511 3.76659 3.33372 0
M  V30 4005 H 370.211 5.31505 2.50552 0
M  V30 4006 H 371.735 5.06859 3.40479 0
M  V30 4007 H 373.149 5.60644 1.19795 0
M  V30 4008 H 371.546 5.98009 0.500552 0
M  V30 4009 H 372.616 4.83763 -0.331856 0
M  V30 4010 N 373.959 -0.0401083 1.57549 0
M  V30 4011 C 375.187 -0.745196 1.93014 0
M  V30 4012 C 375.602 -1.6948 0.831984 0
M  V30 4013 O 374.959 -1.81482 -0.192463 0
M  V30 4014 C 375.01 -1.51176 3.28372 0
M  V30 4015 O 374.731 -0.600284 4.33968 0
M  V30 4016 C 376.232 -2.315 3.78051 0
M  V30 4017 H 373.452 -0.210088 0.637263 0
M  V30 4018 H 375.996 -0.000924689 2.045 0
M  V30 4019 H 374.151 -2.20801 3.18317 0
M  V30 4020 H 374.565 -1.13669 5.12035 0
M  V30 4021 H 376.039 -2.80697 4.75303 0
M  V30 4022 H 376.516 -3.12436 3.08675 0
M  V30 4023 H 377.122 -1.66971 3.91153 0
M  V30 4024 N 375.437 -1.54477 -0.31217 0
M  V30 4025 C 376.686 -1.72438 -1.04633 0
M  V30 4026 C 376.999 -0.511163 -1.88803 0
M  V30 4027 O 378.205 -0.572341 -2.65399 0
M  V30 4028 C 376.661 -3.05043 -1.9099 0
M  V30 4029 C 376.269 -4.33806 -1.11877 0
M  V30 4030 C 378.013 -3.32364 -2.64073 0
M  V30 4031 C 375.92 -5.57467 -1.97445 0
M  V30 4032 H 374.85 -0.642647 -0.394361 0
M  V30 4033 H 377.501 -1.80966 -0.303929 0
M  V30 4034 H 375.883 -2.90451 -2.69173 0
M  V30 4035 H 377.057 -4.59199 -0.383843 0
M  V30 4036 H 375.372 -4.13336 -0.504252 0
M  V30 4037 H 377.969 -4.21951 -3.28423 0
M  V30 4038 H 378.312 -2.50745 -3.32314 0
M  V30 4039 H 378.845 -3.47875 -1.92944 0
M  V30 4040 H 375.584 -6.41722 -1.33692 0
M  V30 4041 H 375.104 -5.36277 -2.6864 0
M  V30 4042 H 376.783 -5.94303 -2.5576 0
M  V30 4043 N 376.915 0.57481 -1.46744 0
M  V30 4044 C 377.863 1.70435 -1.58286 0
M  V30 4045 C 378.857 1.63287 -0.450956 0
M  V30 4046 O 380.063 1.68685 -0.628121 0
M  V30 4047 H 376.438 0.56364 -0.497809 0
M  V30 4048 H 378.409 1.57833 -2.53242 0
M  V30 4049 C 377.158 3.08815 -1.59776 0
M  V30 4050 H 376.481 3.1499 -2.46214 0
M  V30 4051 H 377.921 3.87588 -1.71905 0
M  V30 4052 C 376.38 3.35301 -0.327812 0
M  V30 4053 O 376.91 3.97511 0.57861 0
M  V30 4054 N 375.116 2.89816 -0.213274 0
M  V30 4055 H 374.663 2.39371 -0.951798 0
M  V30 4056 H 374.621 3.0791 0.63553 0
M  V30 4057 N 378.394 1.34581 0.820102 0
M  V30 4058 C 379.805 1.24298 1.39309 0
M  V30 4059 C 380.156 -0.130351 1.95767 0
M  V30 4060 O 379.281 -1.0308 1.90272 0
M  V30 4061 C 379.876 2.25054 2.53251 0
M  V30 4062 C 378.435 2.18552 3.0645 0
M  V30 4063 C 377.582 2.11503 1.79337 0
M  V30 4064 H 380.533 1.45906 0.624262 0
M  V30 4065 H 380.554 1.86917 3.31425 0
M  V30 4066 H 380.066 3.24996 2.1213 0
M  V30 4067 H 378.167 1.21976 3.52069 0
M  V30 4068 H 378.28 3.0993 3.65349 0
M  V30 4069 H 376.644 1.57268 2.00347 0
M  V30 4070 H 377.427 3.13284 1.40386 0
M  V30 4071 N 379.872 -1.04064 1.18357 0
M  V30 4072 C 380.835 -2.10243 0.912707 0
M  V30 4073 C 381.835 -1.60477 -0.101928 0
M  V30 4074 O 383.025 -1.73703 0.131517 0
M  V30 4075 C 380.157 -3.38893 0.369387 0
M  V30 4076 H 381.35 -2.35706 1.85426 0
M  V30 4077 H 378.903 -1.20489 0.995594 0
M  V30 4078 H 379.638 -3.19094 -0.578776 0
M  V30 4079 H 379.423 -3.76331 1.1008 0
M  V30 4080 H 380.913 -4.17128 0.198575 0
M  V30 4081 N 381.35 -0.985608 -1.22978 0
M  V30 4082 C 382.297 -0.529825 -2.24636 0
M  V30 4083 C 383.267 0.434028 -1.60329 0
M  V30 4084 O 384.452 0.340414 -1.87739 0
M  V30 4085 C 381.592 0.156533 -3.44745 0
M  V30 4086 C 380.705 -0.848197 -4.23591 0
M  V30 4087 C 379.84 -0.136109 -5.31026 0
M  V30 4088 C 378.879 -1.1297 -6.01585 0
M  V30 4089 N 378.016 -0.446415 -7.00679 0
M  V30 4090 H 382.856 -1.40148 -2.62988 0
M  V30 4091 H 380.393 -0.702168 -1.29259 0
M  V30 4092 H 382.351 0.571324 -4.1327 0
M  V30 4093 H 380.981 0.992025 -3.07179 0
M  V30 4094 H 380.033 -1.38135 -3.54433 0
M  V30 4095 H 381.345 -1.60512 -4.72268 0
M  V30 4096 H 380.499 0.335784 -6.0577 0
M  V30 4097 H 379.238 0.653373 -4.83304 0
M  V30 4098 H 378.243 -1.6123 -5.25628 0
M  V30 4099 H 379.468 -1.91993 -6.51395 0
M  V30 4100 H 377.414 0.323763 -6.55201 0
M  V30 4101 H 377.331 -1.1419 -7.47326 0
M  V30 4102 H 378.599 0.00291697 -7.795 0
M  V30 4103 N 382.828 1.3818 -0.7579 0
M  V30 4104 C 384.244 1.5353 -0.435972 0
M  V30 4105 C 384.444 1.71961 1.05032 0
M  V30 4106 O 383.5 1.73307 1.83633 0
M  V30 4107 C 384.813 2.73989 -1.23898 0
M  V30 4108 C 386.361 2.87841 -1.22949 0
M  V30 4109 C 386.836 4.11266 -2.01554 0
M  V30 4110 N 388.327 4.18352 -1.98837 0
M  V30 4111 C 389.062 5.12856 -2.5645 0
M  V30 4112 N 388.558 6.13005 -3.22794 0
M  V30 4113 N 390.351 5.05238 -2.46356 0
M  V30 4114 H 382.502 1.24467 -1.7211 0
M  V30 4115 H 384.765 0.604982 -0.729864 0
M  V30 4116 H 384.471 2.66789 -2.29165 0
M  V30 4117 H 384.345 3.67294 -0.858764 0
M  V30 4118 H 386.732 2.9452 -0.184854 0
M  V30 4119 H 386.813 1.95534 -1.64924 0
M  V30 4120 H 386.457 4.05349 -3.06031 0
M  V30 4121 H 386.387 5.02661 -1.5697 0
M  V30 4122 H 388.878 3.46628 -1.50524 0
M  V30 4123 H 389.191 6.81619 -3.64165 0
M  V30 4124 H 387.536 6.13325 -3.2689 0
M  V30 4125 H 390.727 4.25938 -1.9415 0
M  V30 4126 H 390.9 5.78707 -2.91552 0
M  V30 4127 N 384.306 0.507319 1.49211 0
M  V30 4128 C 385.555 -0.0368315 2.01666 0
M  V30 4129 C 385.868 -1.37459 1.39156 0
M  V30 4130 O 387.074 -2.00579 1.82976 0
M  V30 4131 C 385.53 -0.116089 3.59713 0
M  V30 4132 C 385.138 1.2154 4.31198 0
M  V30 4133 C 386.882 -0.610268 4.2009 0
M  V30 4134 C 384.789 1.09796 5.81119 0
M  V30 4135 H 383.719 -0.0175376 0.753796 0
M  V30 4136 H 386.37 0.647691 1.71689 0
M  V30 4137 H 384.752 -0.8652 3.86433 0
M  V30 4138 H 385.926 1.9783 4.16173 0
M  V30 4139 H 384.241 1.64352 3.82593 0
M  V30 4140 H 386.838 -0.715742 5.29888 0
M  V30 4141 H 387.181 -1.61064 3.8388 0
M  V30 4142 H 387.714 0.0824916 3.97714 0
M  V30 4143 H 384.453 2.0728 6.21864 0
M  V30 4144 H 383.973 0.376058 5.9862 0
M  V30 4145 H 385.652 0.779281 6.4229 0
M  V30 4146 N 385.784 -1.5574 0.241426 0
M  V30 4147 C 387.012 -2.03208 -0.389134 0
M  V30 4148 C 387.427 -1.12082 -1.51931 0
M  V30 4149 O 386.784 -0.134183 -1.82006 0
M  V30 4150 C 386.835 -3.50064 -0.902087 0
M  V30 4151 O 386.556 -4.37717 0.18305 0
M  V30 4152 C 388.057 -4.13268 -1.60389 0
M  V30 4153 H 385.277 -0.664509 -0.0931053 0
M  V30 4154 H 387.821 -2.0124 0.36369 0
M  V30 4155 H 385.976 -3.52583 -1.60511 0
M  V30 4156 H 386.39 -5.24097 -0.205579 0
M  V30 4157 H 387.864 -5.17733 -1.91458 0
M  V30 4158 H 388.341 -3.59434 -2.52397 0
M  V30 4159 H 388.947 -4.14655 -0.945576 0
M  V30 4160 N 387.262 0.0317525 -1.57568 0
M  V30 4161 C 388.225 1.01783 -2.0536 0
M  V30 4162 C 389.225 1.29203 -0.957253 0
M  V30 4163 O 390.415 1.24251 -1.22095 0
M  V30 4164 C 387.547 2.35137 -2.46827 0
M  V30 4165 H 388.74 0.605062 -2.93733 0
M  V30 4166 H 386.293 0.278514 -1.53799 0
M  V30 4167 H 387.028 2.81168 -1.61602 0
M  V30 4168 H 386.813 2.16566 -3.26866 0
M  V30 4169 H 388.303 3.05938 -2.84239 0
M  V30 4170 N 388.74 1.54641 0.303973 0
M  V30 4171 C 389.69 1.8177 1.37636 0
M  V30 4172 C 390.674 0.674697 1.46071 0
M  V30 4173 O 391.866 0.935251 1.50273 0
M  V30 4174 C 388.995 2.06584 2.74186 0
M  V30 4175 C 388.081 3.2706 2.69986 0
M  V30 4176 N 388.472 4.47682 2.35402 0
M  V30 4177 C 386.77 3.29028 3.01092 0
M  V30 4178 C 387.471 5.29689 2.40426 0
M  V30 4179 N 386.447 4.67339 2.7766 0
M  V30 4180 H 390.249 2.72596 1.09857 0
M  V30 4181 H 387.763 1.541 0.51254 0
M  V30 4182 H 389.76 2.24166 3.51504 0
M  V30 4183 H 388.42 1.17024 3.02879 0
M  V30 4184 H 389.431 4.74336 2.07908 0
M  V30 4185 H 386.108 2.49565 3.34699 0
M  V30 4186 H 387.498 6.3606 2.16512 0
M  V30 4187 N 390.218 -0.567019 1.47046 0
M  V30 4188 C 391.128 -1.70247 1.6141 0
M  V30 4189 C 392.144 -1.66746 0.497157 0
M  V30 4190 O 393.32 -1.86371 0.763389 0
M  V30 4191 C 390.385 -3.06756 1.61561 0
M  V30 4192 C 389.446 -3.21399 2.84607 0
M  V30 4193 C 388.679 -4.51396 2.84741 0
M  V30 4194 O 388.902 -5.36255 1.94388 0
M  V30 4195 O 387.836 -4.69621 3.76483 0
M  V30 4196 H 391.662 -1.61073 2.57467 0
M  V30 4197 H 389.247 -0.735894 1.30019 0
M  V30 4198 H 391.129 -3.8801 1.64396 0
M  V30 4199 H 389.804 -3.16333 0.686684 0
M  V30 4200 H 388.711 -2.39579 2.8732 0
M  V30 4201 H 390.044 -3.16721 3.76761 0
M  V30 4202 N 391.696 -1.35014 -0.812953 0
M  V30 4203 C 392.659 -1.27292 -1.90602 0
M  V30 4204 C 393.659 -0.185817 -1.59723 0
M  V30 4205 O 394.849 -0.439102 -1.68575 0
M  V30 4206 C 391.981 -0.967676 -3.26877 0
M  V30 4207 H 393.174 -2.24479 -1.9887 0
M  V30 4208 H 390.727 -1.19446 -1.00808 0
M  V30 4209 H 391.462 0.0005954 -3.243 0
M  V30 4210 H 391.247 -1.75412 -3.50675 0
M  V30 4211 H 392.737 -0.939085 -4.06904 0
M  V30 4212 N 393.175 1.03435 -1.18907 0
M  V30 4213 C 394.105 2.13503 -0.945448 0
M  V30 4214 C 395.086 1.69682 0.119189 0
M  V30 4215 O 396.271 1.94169 -0.034707 0
M  V30 4216 C 393.401 3.44004 -0.477316 0
M  V30 4217 C 392.355 4.0148 -1.48316 0
M  V30 4218 C 391.681 5.27537 -0.872311 0
M  V30 4219 C 392.981 4.36921 -2.86177 0
M  V30 4220 H 394.675 2.34141 -1.86597 0
M  V30 4221 H 392.221 1.12523 -0.898584 0
M  V30 4222 H 394.174 4.20372 -0.294204 0
M  V30 4223 H 392.898 3.23072 0.478786 0
M  V30 4224 H 391.557 3.27201 -1.65332 0
M  V30 4225 H 391.205 5.02917 0.0911752 0
M  V30 4226 H 390.905 5.66954 -1.54393 0
M  V30 4227 H 392.429 6.06576 -0.699871 0
M  V30 4228 H 393.843 5.04248 -2.72776 0
M  V30 4229 H 392.24 4.87405 -3.50081 0
M  V30 4230 H 393.31 3.46466 -3.39248 0
M  V30 4231 N 394.653 0.992116 1.22453 0
M  V30 4232 C 395.6 0.541731 2.24352 0
M  V30 4233 C 396.57 -0.425519 1.60557 0
M  V30 4234 O 397.755 -0.330453 1.87917 0
M  V30 4235 C 394.895 -0.138248 3.44823 0
M  V30 4236 C 394.008 0.870649 4.23136 0
M  V30 4237 C 393.143 0.164269 5.30946 0
M  V30 4238 C 392.182 1.16159 6.00977 0
M  V30 4239 N 391.319 0.483568 7.00433 0
M  V30 4240 H 396.159 1.41541 2.62241 0
M  V30 4241 H 393.696 0.709013 1.28885 0
M  V30 4242 H 395.654 -0.5494 4.13567 0
M  V30 4243 H 394.284 -0.975721 3.077 0
M  V30 4244 H 393.336 1.40013 3.53696 0
M  V30 4245 H 394.648 1.63014 4.7141 0
M  V30 4246 H 393.802 -0.303653 6.0594 0
M  V30 4247 H 392.541 -0.627733 4.83643 0
M  V30 4248 H 391.546 1.64015 5.24766 0
M  V30 4249 H 392.771 1.95445 6.50368 0
M  V30 4250 H 390.717 -0.289012 6.55363 0
M  V30 4251 H 390.634 1.18152 7.4671 0
M  V30 4252 H 391.902 0.0384219 7.79491 0
M  V30 4253 N 396.131 -1.37776 0.765217 0
M  V30 4254 C 397.081 -2.2768 0.12075 0
M  V30 4255 C 398.065 -1.45778 -0.680988 0
M  V30 4256 O 399.257 -1.684 -0.545033 0
M  V30 4257 C 396.386 -3.34722 -0.762626 0
M  V30 4258 C 395.472 -4.24074 0.0465881 0
M  V30 4259 N 395.863 -4.93939 1.08892 0
M  V30 4260 C 394.161 -4.45643 -0.178418 0
M  V30 4261 C 394.862 -5.59845 1.57951 0
M  V30 4262 N 393.838 -5.36218 0.892797 0
M  V30 4263 H 397.64 -2.79166 0.918889 0
M  V30 4264 H 395.154 -1.50816 0.602353 0
M  V30 4265 H 397.151 -3.98031 -1.24005 0
M  V30 4266 H 395.811 -2.84793 -1.55959 0
M  V30 4267 H 396.822 -4.96572 1.47095 0
M  V30 4268 H 393.499 -4.06599 -0.9478 0
M  V30 4269 H 394.889 -6.25703 2.44838 0
M  V30 4270 N 397.609 -0.515225 -1.4894 0
M  V30 4271 C 399.02 -0.0710067 -1.86565 0
M  V30 4272 C 399.371 1.34733 -1.42623 0
M  V30 4273 O 398.496 2.00653 -0.810379 0
M  V30 4274 C 399.091 -0.122083 -3.3858 0
M  V30 4275 C 397.65 0.266863 -3.75453 0
M  V30 4276 C 396.797 -0.488376 -2.72966 0
M  V30 4277 H 399.748 -0.727266 -1.41055 0
M  V30 4278 H 399.769 0.669818 -3.74558 0
M  V30 4279 H 399.281 -1.15448 -3.70531 0
M  V30 4280 H 397.382 1.30196 -3.49113 0
M  V30 4281 H 397.495 -0.0624811 -4.79059 0
M  V30 4282 H 395.859 0.0635622 -2.54621 0
M  V30 4283 H 396.642 -1.52113 -3.07761 0
M  V30 4284 N 399.087 1.5561 -0.249682 0
M  V30 4285 C 400.333 2.00044 0.367952 0
M  V30 4286 C 400.688 1.1349 1.55363 0
M  V30 4287 O 399.981 0.191079 1.90645 0
M  V30 4288 C 400.175 3.4775 0.824887 0
M  V30 4289 C 400.004 4.48596 -0.314973 0
M  V30 4290 C 398.774 4.99077 -0.790555 0
M  V30 4291 C 400.972 5.0144 -1.14291 0
M  V30 4292 N 398.954 5.83675 -1.90254 0
M  V30 4293 C 400.325 5.83236 -2.10322 0
M  V30 4294 C 402.38 4.83736 -1.17916 0
M  V30 4295 C 401.083 6.49217 -3.09692 0
M  V30 4296 C 403.109 5.50497 -2.16117 0
M  V30 4297 C 402.471 6.32084 -3.10884 0
M  V30 4298 H 398.57 0.775512 0.100522 0
M  V30 4299 H 401.154 1.91193 -0.367896 0
M  V30 4300 H 399.325 3.56994 1.53002 0
M  V30 4301 H 401.057 3.79056 1.4177 0
M  V30 4302 H 397.812 4.72119 -0.374218 0
M  V30 4303 H 398.236 6.30671 -2.46137 0
M  V30 4304 H 402.878 4.20286 -0.460352 0
M  V30 4305 H 400.596 7.11832 -3.8252 0
M  V30 4306 H 404.182 5.38752 -2.19631 0
M  V30 4307 H 403.062 6.82832 -3.8563 0
M  V30 4308 N 400.565 -0.0233959 1.57583 0
M  V30 4309 C 401.811 -0.714119 1.89811 0
M  V30 4310 C 402.144 -1.74702 0.848113 0
M  V30 4311 O 401.419 -1.94023 -0.136135 0
M  V30 4312 C 401.702 -1.37853 3.32669 0
M  V30 4313 C 401.555 -0.358764 4.48367 0
M  V30 4314 C 402.874 -2.31101 3.7454 0
M  V30 4315 H 399.993 -0.25814 0.690314 0
M  V30 4316 H 402.635 0.0230927 1.89986 0
M  V30 4317 H 400.785 -2.00689 3.3265 0
M  V30 4318 H 402.457 0.268115 4.6052 0
M  V30 4319 H 400.7 0.321387 4.32608 0
M  V30 4320 H 401.371 -0.862242 5.45224 0
M  V30 4321 H 403.847 -1.78304 3.75961 0
M  V30 4322 H 402.723 -2.74567 4.75294 0
M  V30 4323 H 402.984 -3.18018 3.0711 0
M  V30 4324 N 402.043 -1.548 -0.295768 0
M  V30 4325 C 403.283 -1.76069 -1.03823 0
M  V30 4326 C 403.647 -0.537992 -1.84309 0
M  V30 4327 O 404.848 -0.628514 -2.61349 0
M  V30 4328 C 403.119 -3.01705 -1.91596 0
M  V30 4329 S 404.678 -3.43998 -2.72416 0
M  V30 4330 H 401.496 -0.618852 -0.350062 0
M  V30 4331 H 404.098 -1.93009 -0.31106 0
M  V30 4332 H 402.802 -3.88812 -1.31351 0
M  V30 4333 H 402.333 -2.87366 -2.68671 0
M  V30 4334 H 404.348 -3.0148 -3.94112 0
M  V30 4335 N 403.521 0.559213 -1.47345 0
M  V30 4336 C 404.453 1.68161 -1.55738 0
M  V30 4337 C 405.466 1.56636 -0.443744 0
M  V30 4338 O 406.655 1.6363 -0.713258 0
M  V30 4339 C 403.755 3.06611 -1.4437 0
M  V30 4340 C 402.928 3.4391 -2.70268 0
M  V30 4341 C 401.987 4.61515 -2.52765 0
M  V30 4342 O 401.013 4.66197 -3.26572 0
M  V30 4343 N 402.215 5.57883 -1.6046 0
M  V30 4344 H 404.98 1.61408 -2.52522 0
M  V30 4345 H 402.541 0.7458 -1.43699 0
M  V30 4346 H 404.533 3.83117 -1.30398 0
M  V30 4347 H 403.103 3.07602 -0.556766 0
M  V30 4348 H 402.323 2.56873 -2.99015 0
M  V30 4349 H 403.611 3.65605 -3.53851 0
M  V30 4350 H 403.009 5.56855 -0.996422 0
M  V30 4351 H 401.566 6.33723 -1.52441 0
M  V30 4352 N 404.999 1.35443 0.805782 0
M  V30 4353 C 406.415 1.15499 1.10146 0
M  V30 4354 C 406.615 -0.0319975 2.01475 0
M  V30 4355 O 405.671 -0.70236 2.42535 0
M  V30 4356 C 406.984 2.45833 1.73166 0
M  V30 4357 C 408.532 2.52047 1.85583 0
M  V30 4358 C 409.007 3.82427 2.52019 0
M  V30 4359 N 410.498 3.83682 2.59504 0
M  V30 4360 C 411.233 4.81294 3.11679 0
M  V30 4361 N 410.729 5.89294 3.64287 0
M  V30 4362 N 412.522 4.6873 3.1024 0
M  V30 4363 H 404.673 2.11469 0.198678 0
M  V30 4364 H 406.936 0.93594 0.150731 0
M  V30 4365 H 406.642 3.32874 1.13526 0
M  V30 4366 H 406.516 2.6044 2.72857 0
M  V30 4367 H 408.903 1.65435 2.44367 0
M  V30 4368 H 408.984 2.41354 0.847455 0
M  V30 4369 H 408.628 4.69437 1.93885 0
M  V30 4370 H 408.558 3.90409 3.53395 0
M  V30 4371 H 411.049 3.05648 2.22234 0
M  V30 4372 H 411.362 6.59768 4.02401 0
M  V30 4373 H 409.707 5.92985 3.62483 0
M  V30 4374 H 412.898 3.83496 2.68419 0
M  V30 4375 H 413.071 5.44965 3.50596 0
M  V30 4376 N 406.477 -1.02803 1.19454 0
M  V30 4377 C 407.702 -1.80378 1.02364 0
M  V30 4378 C 408.127 -1.83282 -0.423007 0
M  V30 4379 O 407.485 -1.25945 -1.30413 0
M  V30 4380 C 407.533 -3.23248 1.59821 0
M  V30 4381 O 406.637 -4.04 0.828105 0
M  V30 4382 H 405.978 -0.556799 0.361761 0
M  V30 4383 H 408.508 -1.29385 1.58495 0
M  V30 4384 H 408.518 -3.73994 1.63073 0
M  V30 4385 H 407.193 -3.2045 2.65113 0
M  V30 4386 H 405.77 -3.62635 0.86891 0
M  V30 4387 N 407.956 -0.998596 -1.21925 0
M  V30 4388 C 409.184 -0.696286 -1.94832 0
M  V30 4389 C 409.599 0.740032 -1.73692 0
M  V30 4390 O 408.956 1.5 -1.03953 0
M  V30 4391 C 409.007 -0.999833 -3.47398 0
M  V30 4392 O 408.728 -2.37972 -3.67833 0
M  V30 4393 C 410.229 -0.716025 -4.37479 0
M  V30 4394 H 407.449 -0.257111 -0.619786 0
M  V30 4395 H 409.993 -1.33491 -1.54921 0
M  V30 4396 H 408.148 -0.406918 -3.85257 0
M  V30 4397 H 408.562 -2.48338 -4.61983 0
M  V30 4398 H 410.036 -0.978642 -5.43256 0
M  V30 4399 H 410.513 0.349968 -4.37803 0
M  V30 4400 H 411.119 -1.29025 -4.05256 0
M  V30 4401 N 409.434 1.37368 -0.772513 0
M  V30 4402 C 410.68 1.99969 -0.337681 0
M  V30 4403 C 411.013 1.61184 1.08321 0
M  V30 4404 O 410.288 0.858395 1.74533 0
M  V30 4405 C 410.571 3.56858 -0.482121 0
M  V30 4406 C 410.424 4.0555 -1.94549 0
M  V30 4407 C 411.743 4.39955 0.113143 0
M  V30 4408 H 408.862 0.726464 -0.124171 0
M  V30 4409 H 411.504 1.63034 -0.975699 0
M  V30 4410 H 409.654 3.88452 0.0610361 0
M  V30 4411 H 411.326 3.84518 -2.54841 0
M  V30 4412 H 409.569 3.57715 -2.45403 0
M  V30 4413 H 410.24 5.14587 -1.9976 0
M  V30 4414 H 412.716 4.14623 -0.35031 0
M  V30 4415 H 411.592 5.48897 -0.0180514 0
M  V30 4416 H 411.853 4.25403 1.20354 0
M  V30 4417 N 410.912 0.523116 1.48665 0
M  V30 4418 C 411.875 -0.232592 2.28017 0
M  V30 4419 C 412.875 -0.874021 1.34972 0
M  V30 4420 O 414.065 -0.735132 1.57929 0
M  V30 4421 C 411.197 -1.33586 3.13636 0
M  V30 4422 H 412.39 0.464008 2.96289 0
M  V30 4423 H 409.943 0.278816 1.53793 0
M  V30 4424 H 410.678 -2.06593 2.4998 0
M  V30 4425 H 410.463 -0.881125 3.82071 0
M  V30 4426 H 411.953 -1.86759 3.73511 0
M  V30 4427 N 412.39 -1.55475 0.257931 0
M  V30 4428 C 413.615 -2.04064 -0.370488 0
M  V30 4429 C 414.04 -1.13565 -1.49948 0
M  V30 4430 O 413.398 -0.130781 -1.80828 0
M  V30 4431 C 413.446 -3.50554 -0.845237 0
M  V30 4432 O 412.55 -3.63173 -1.95394 0
M  V30 4433 H 411.891 -0.659257 -0.0792243 0
M  V30 4434 H 414.421 -2.00903 0.387212 0
M  V30 4435 H 414.431 -3.91588 -1.14555 0
M  V30 4436 H 413.106 -4.15896 -0.0191259 0
M  V30 4437 H 411.683 -3.34039 -1.65748 0
M  V30 4438 N 413.868 0.0150385 -1.57593 0
M  V30 4439 C 414.801 1.04475 -2.0288 0
M  V30 4440 C 415.779 1.3436 -0.915764 0
M  V30 4441 O 416.963 1.46779 -1.18271 0
M  V30 4442 C 414.09 2.37608 -2.41371 0
M  V30 4443 C 413.136 2.23487 -3.63257 0
M  V30 4444 S 413.969 1.57505 -5.11813 0
M  V30 4445 C 415.125 2.921 -5.5356 0
M  V30 4446 H 415.358 0.65907 -2.89903 0
M  V30 4447 H 412.891 0.225452 -1.52745 0
M  V30 4448 H 414.849 3.14165 -2.64217 0
M  V30 4449 H 413.51 2.7332 -1.54775 0
M  V30 4450 H 412.703 3.21802 -3.87891 0
M  V30 4451 H 412.305 1.55074 -3.40335 0
M  V30 4452 H 414.597 3.88419 -5.55101 0
M  V30 4453 H 415.54 2.72184 -6.53698 0
M  V30 4454 H 415.948 2.95318 -4.8109 0
M  V30 4455 N 415.346 1.54954 0.287554 0
M  V30 4456 C 416.279 1.81737 1.3801 0
M  V30 4457 C 417.257 0.669412 1.48181 0
M  V30 4458 O 418.441 0.910839 1.65033 0
M  V30 4459 C 415.568 1.96606 2.75796 0
M  V30 4460 C 414.614 3.19098 2.82982 0
M  V30 4461 S 415.447 4.7683 2.43707 0
M  V30 4462 C 416.603 4.94653 3.83496 0
M  V30 4463 H 416.836 2.74122 1.15085 0
M  V30 4464 H 414.369 1.46538 0.486403 0
M  V30 4465 H 416.327 2.05858 3.55152 0
M  V30 4466 H 414.988 1.05136 2.95982 0
M  V30 4467 H 414.181 3.26344 3.84077 0
M  V30 4468 H 413.783 3.08361 2.11635 0
M  V30 4469 H 416.075 4.79502 4.78628 0
M  V30 4470 H 417.018 5.96728 3.8121 0
M  V30 4471 H 417.426 4.2272 3.74123 0
M  V30 4472 N 416.824 -0.551391 1.4764 0
M  V30 4473 C 417.774 -1.65362 1.56969 0
M  V30 4474 C 418.758 -1.55098 0.428189 0
M  V30 4475 O 419.95 -1.63481 0.678441 0
M  V30 4476 C 417.079 -3.04129 1.59249 0
M  V30 4477 C 416.165 -3.19576 2.78804 0
M  V30 4478 N 416.556 -3.05067 4.03445 0
M  V30 4479 C 414.854 -3.50588 2.75688 0
M  V30 4480 C 415.555 -3.2336 4.83543 0
M  V30 4481 N 414.531 -3.4996 4.15968 0
M  V30 4482 H 418.333 -1.52722 2.51104 0
M  V30 4483 H 415.847 -0.756303 1.43714 0
M  V30 4484 H 417.844 -3.83278 1.64024 0
M  V30 4485 H 416.504 -3.17877 0.662148 0
M  V30 4486 H 417.515 -2.82273 4.34215 0
M  V30 4487 H 414.192 -3.70827 1.91817 0
M  V30 4488 H 415.582 -3.17061 5.92387 0
M  V30 4489 N 418.302 -1.35869 -0.798587 0
M  V30 4490 C 419.718 -1.16082 -1.09532 0
M  V30 4491 C 419.918 0.0213124 -2.01489 0
M  V30 4492 O 418.974 0.689488 -2.42904 0
M  V30 4493 C 420.287 -2.46748 -1.7186 0
M  V30 4494 C 421.835 -2.53028 -1.84244 0
M  V30 4495 C 422.31 -3.83758 -2.49988 0
M  V30 4496 N 423.801 -3.85053 -2.57465 0
M  V30 4497 C 424.536 -4.8294 -3.09122 0
M  V30 4498 N 424.032 -5.91217 -3.61157 0
M  V30 4499 N 425.825 -4.70369 -3.0775 0
M  V30 4500 H 417.976 -2.11571 -0.187461 0
M  V30 4501 H 420.239 -0.936726 -0.145765 0
M  V30 4502 H 419.945 -3.33471 -1.11759 0
M  V30 4503 H 419.819 -2.61883 -2.71472 0
M  V30 4504 H 422.206 -1.66729 -2.43486 0
M  V30 4505 H 422.287 -2.418 -0.834643 0
M  V30 4506 H 421.931 -4.70459 -1.91393 0
M  V30 4507 H 421.861 -3.92278 -3.5132 0
M  V30 4508 H 424.352 -3.06822 -2.20609 0
M  V30 4509 H 424.665 -6.61892 -3.98896 0
M  V30 4510 H 423.01 -5.94899 -3.59333 0
M  V30 4511 H 426.201 -3.84914 -2.66381 0
M  V30 4512 H 426.374 -5.46816 -3.47701 0
M  V30 4513 N 419.78 1.02168 -1.19998 0
M  V30 4514 C 420.712 2.10705 -0.901994 0
M  V30 4515 C 421.725 1.6244 0.108216 0
M  V30 4516 O 422.914 1.78082 -0.12214 0
M  V30 4517 C 420.014 3.37291 -0.329834 0
M  V30 4518 C 419.187 4.14714 -1.39035 0
M  V30 4519 C 418.246 5.19606 -0.830432 0
M  V30 4520 O 417.272 5.48809 -1.50989 0
M  V30 4521 N 418.474 5.79366 0.362696 0
M  V30 4522 H 421.239 2.36856 -1.83628 0
M  V30 4523 H 418.8 1.18518 -1.10296 0
M  V30 4524 H 420.792 4.04657 0.0587633 0
M  V30 4525 H 419.362 3.0843 0.508891 0
M  V30 4526 H 418.582 3.42392 -1.9535 0
M  V30 4527 H 419.87 4.63226 -2.10474 0
M  V30 4528 H 419.268 5.57968 0.932081 0
M  V30 4529 H 417.825 6.48106 0.69299 0
M  V30 4530 N 421.258 1.00505 1.21394 0
M  V30 4531 C 422.168 0.574806 2.27449 0
M  V30 4532 C 423.184 -0.382206 1.6975 0
M  V30 4533 O 424.36 -0.246027 1.99892 0
M  V30 4534 C 421.425 -0.0917414 3.46579 0
M  V30 4535 C 420.486 0.909758 4.1955 0
M  V30 4536 C 419.719 0.274924 5.32991 0
M  V30 4537 O 419.942 -0.928254 5.62796 0
M  V30 4538 O 418.876 0.985877 5.93771 0
M  V30 4539 H 422.702 1.45744 2.66444 0
M  V30 4540 H 420.287 0.773923 1.27792 0
M  V30 4541 H 422.169 -0.464551 4.18832 0
M  V30 4542 H 420.844 -0.948755 3.09484 0
M  V30 4543 H 419.751 1.33372 3.49518 0
M  V30 4544 H 421.084 1.73636 4.60555 0
M  V30 4545 N 422.737 -1.36956 0.779787 0
M  V30 4546 C 423.965 -2.03755 0.359398 0
M  V30 4547 C 424.38 -1.58807 -1.02106 0
M  V30 4548 O 423.737 -0.773024 -1.6532 0
M  V30 4549 C 423.788 -3.59251 0.402568 0
M  V30 4550 O 423.509 -4.02557 1.72858 0
M  V30 4551 C 425.01 -4.43291 -0.0284068 0
M  V30 4552 H 422.23 -0.654148 0.149437 0
M  V30 4553 H 424.774 -1.75128 1.05595 0
M  V30 4554 H 422.929 -3.86621 -0.245478 0
M  V30 4555 H 423.343 -4.97111 1.67275 0
M  V30 4556 H 424.817 -5.51975 0.0529466 0
M  V30 4557 H 425.294 -4.25719 -1.07982 0
M  V30 4558 H 425.9 -4.21163 0.591758 0
M  V30 4559 N 424.215 -0.530993 -1.48385 0
M  V30 4560 C 425.461 0.00274135 -2.028 0
M  V30 4561 C 425.794 1.33838 -1.40716 0
M  V30 4562 O 425.069 1.86465 -0.553277 0
M  V30 4563 C 425.352 0.123676 -3.59888 0
M  V30 4564 C 425.205 -1.2372 -4.3245 0
M  V30 4565 C 426.524 0.849967 -4.31814 0
M  V30 4566 H 423.643 -0.000477758 -0.737 0
M  V30 4567 H 426.285 -0.688217 -1.77098 0
M  V30 4568 H 424.435 0.712157 -3.81917 0
M  V30 4569 H 426.107 -1.86687 -4.21836 0
M  V30 4570 H 424.35 -1.81882 -3.93829 0
M  V30 4571 H 425.021 -1.10557 -5.40815 0
M  V30 4572 H 427.497 0.350572 -4.14621 0
M  V30 4573 H 426.373 0.903486 -5.41413 0
M  V30 4574 H 426.634 1.90047 -3.99167 0
M  V30 4575 N 425.693 1.55336 -0.266172 0
M  V30 4576 C 426.603 2.2583 0.635458 0
M  V30 4577 C 427.619 1.28106 1.17749 0
M  V30 4578 O 428.795 1.61024 1.20968 0
M  V30 4579 C 425.86 2.95879 1.80712 0
M  V30 4580 C 424.921 4.09059 1.30265 0
M  V30 4581 C 424.154 4.75759 2.41846 0
M  V30 4582 O 424.377 4.41622 3.61007 0
M  V30 4583 O 423.311 5.63888 2.1051 0
M  V30 4584 H 427.137 3.03631 0.0646693 0
M  V30 4585 H 424.722 1.49361 -0.0339177 0
M  V30 4586 H 426.604 3.39932 2.49047 0
M  V30 4587 H 425.279 2.21002 2.36516 0
M  V30 4588 H 424.186 3.69482 0.586019 0
M  V30 4589 H 425.519 4.85811 0.790458 0
M  V30 4590 N 427.171 -0.0066808 1.57599 0
M  V30 4591 C 428.411 -0.697501 1.92131 0
M  V30 4592 C 428.775 -1.71306 0.867071 0
M  V30 4593 O 429.976 -2.45377 1.09743 0
M  V30 4594 C 428.247 -1.32978 3.3174 0
M  V30 4595 S 429.806 -2.04665 3.88146 0
M  V30 4596 H 426.624 -0.230555 0.672581 0
M  V30 4597 H 429.226 0.0484026 1.9544 0
M  V30 4598 H 427.93 -0.57772 4.06313 0
M  V30 4599 H 427.461 -2.11376 3.31789 0
M  V30 4600 H 429.476 -3.32097 3.68682 0
M  V30 4601 N 428.649 -1.55105 -0.279332 0
M  V30 4602 C 429.579 -1.90557 -1.34945 0
M  V30 4603 C 430.56 -0.766738 -1.51839 0
M  V30 4604 O 431.745 -1.02434 -1.64988 0
M  V30 4605 C 428.875 -2.17193 -2.71006 0
M  V30 4606 C 427.829 -3.33021 -2.68851 0
M  V30 4607 C 427.155 -3.45123 -4.08405 0
M  V30 4608 C 428.455 -4.69578 -2.28678 0
M  V30 4609 H 430.149 -2.80188 -1.05522 0
M  V30 4610 H 427.695 -1.34811 -0.506173 0
M  V30 4611 H 429.648 -2.40581 -3.45975 0
M  V30 4612 H 428.372 -1.24355 -3.01999 0
M  V30 4613 H 427.031 -3.0959 -1.9634 0
M  V30 4614 H 426.679 -2.49762 -4.3661 0
M  V30 4615 H 426.379 -4.22995 -4.07859 0
M  V30 4616 H 427.903 -3.70796 -4.85121 0
M  V30 4617 H 429.317 -4.92553 -2.93368 0
M  V30 4618 H 427.714 -5.5032 -2.39306 0
M  V30 4619 H 428.784 -4.68828 -1.23807 0
M  V30 4620 N 430.127 0.543554 -1.4793 0
M  V30 4621 C 431.074 1.64942 -1.6144 0
M  V30 4622 C 432.044 1.59692 -0.456903 0
M  V30 4623 O 433.229 1.78321 -0.678688 0
M  V30 4624 C 430.369 3.03238 -1.64744 0
M  V30 4625 C 429.482 3.18823 -2.91506 0
M  V30 4626 C 428.617 4.47599 -2.86057 0
M  V30 4627 C 427.656 4.56664 -4.07584 0
M  V30 4628 N 426.793 5.76811 -4.00292 0
M  V30 4629 H 431.633 1.52733 -2.55884 0
M  V30 4630 H 429.17 0.7438 -1.2691 0
M  V30 4631 H 431.128 3.83339 -1.64641 0
M  V30 4632 H 429.758 3.1425 -0.738017 0
M  V30 4633 H 428.81 2.32064 -3.01414 0
M  V30 4634 H 430.122 3.21384 -3.81463 0
M  V30 4635 H 429.276 5.35975 -2.84281 0
M  V30 4636 H 428.015 4.47538 -1.93807 0
M  V30 4637 H 427.02 3.66697 -4.09651 0
M  V30 4638 H 428.245 4.58474 -5.00978 0
M  V30 4639 H 426.191 5.77673 -3.10853 0
M  V30 4640 H 426.108 5.80808 -4.8394 0
M  V30 4641 H 427.376 6.67512 -4.02553 0
M  V30 4642 N 431.605 1.3629 0.791371 0
M  V30 4643 C 432.552 1.30458 1.90393 0
M  V30 4644 C 433.522 0.173632 1.6519 0
M  V30 4645 O 434.707 0.35983 1.87376 0
M  V30 4646 C 431.847 1.09777 3.27174 0
M  V30 4647 C 430.96 2.31929 3.64462 0
M  V30 4648 C 430.095 2.04276 4.90352 0
M  V30 4649 C 429.134 3.224 5.20312 0
M  V30 4650 N 428.271 2.94424 6.37385 0
M  V30 4651 H 433.111 2.25589 1.94714 0
M  V30 4652 H 430.648 1.12122 0.952216 0
M  V30 4653 H 432.606 0.958133 4.06049 0
M  V30 4654 H 431.236 0.183014 3.22281 0
M  V30 4655 H 430.288 2.56703 2.80727 0
M  V30 4656 H 431.6 3.20085 3.82553 0
M  V30 4657 H 430.754 1.87231 5.77087 0
M  V30 4658 H 429.493 1.13428 4.74326 0
M  V30 4659 H 428.498 3.40005 4.32061 0
M  V30 4660 H 429.723 4.14071 5.38258 0
M  V30 4661 H 427.669 2.06185 6.22755 0
M  V30 4662 H 427.586 3.76118 6.55798 0
M  V30 4663 H 428.854 2.80953 7.27108 0
M  V30 4664 N 433.083 -1.0153 1.20538 0
M  V30 4665 C 434.33 -1.75149 1.01633 0
M  V30 4666 C 434.658 -1.89189 -0.451399 0
M  V30 4667 O 433.913 -1.41551 -1.35136 0
M  V30 4668 C 434.212 -3.17213 1.64654 0
M  V30 4669 C 433.878 -3.23146 3.14464 0
M  V30 4670 C 432.54 -3.24472 3.55347 0
M  V30 4671 C 434.892 -3.21207 4.10458 0
M  V30 4672 C 432.22 -3.21532 4.90748 0
M  V30 4673 C 434.572 -3.19808 5.45807 0
M  V30 4674 C 433.236 -3.19439 5.86102 0
M  V30 4675 H 432.506 -0.640914 0.3719 0
M  V30 4676 H 435.153 -1.19071 1.49981 0
M  V30 4677 H 433.458 -3.76457 1.08571 0
M  V30 4678 H 435.155 -3.72871 1.4754 0
M  V30 4679 H 431.745 -3.2285 2.81897 0
M  V30 4680 H 435.929 -3.19351 3.79906 0
M  V30 4681 H 431.185 -3.19578 5.21229 0
M  V30 4682 H 435.359 -3.1726 6.19935 0
M  V30 4683 H 432.986 -3.16915 6.90991 0
M  V30 4684 N 434.561 -1.01147 -1.20859 0
M  V30 4685 C 435.509 -0.57059 -2.25493 0
M  V30 4686 C 436.503 0.388109 -1.64894 0
M  V30 4687 O 437.709 0.258592 -1.78133 0
M  V30 4688 H 434.084 -0.166191 -0.733406 0
M  V30 4689 H 436.055 -1.46411 -2.60012 0
M  V30 4690 C 434.804 0.0805241 -3.47607 0
M  V30 4691 H 434.127 -0.648156 -3.94511 0
M  V30 4692 H 435.567 0.352197 -4.22535 0
M  V30 4693 C 434.026 1.32175 -3.09889 0
M  V30 4694 O 434.556 2.41553 -3.20959 0
M  V30 4695 N 432.762 1.20392 -2.64488 0
M  V30 4696 H 432.309 0.313905 -2.5568 0
M  V30 4697 H 432.267 2.03541 -2.39621 0
M  V30 4698 N 436.039 1.36541 -0.78704 0
M  V30 4699 C 437.002 2.28413 -0.189778 0
M  V30 4700 C 438.002 1.48719 0.611499 0
M  V30 4701 O 439.192 1.68737 0.432842 0
M  V30 4702 C 436.324 3.32824 0.737638 0
M  V30 4703 H 437.517 2.82743 -0.999831 0
M  V30 4704 H 435.07 1.46065 -0.556298 0
M  V30 4705 H 435.805 2.83646 1.57212 0
M  V30 4706 H 435.59 3.91752 0.165044 0
M  V30 4707 H 437.08 4.0144 1.15047 0
M  V30 4708 N 437.518 0.538854 1.48102 0
M  V30 4709 C 438.934 0.19732 1.58376 0
M  V30 4710 C 439.134 -1.29971 1.5398 0
M  V30 4711 O 438.19 -2.07861 1.43352 0
M  V30 4712 C 439.503 0.807716 2.89649 0
M  V30 4713 C 441.051 0.77726 3.03196 0
M  V30 4714 C 441.526 1.36639 4.37143 0
M  V30 4715 N 443.017 1.32875 4.43732 0
M  V30 4716 C 443.752 1.7544 5.45901 0
M  V30 4717 N 443.248 2.25776 6.54979 0
M  V30 4718 N 445.041 1.66623 5.36836 0
M  V30 4719 H 437.192 1.5117 1.49202 0
M  V30 4720 H 439.455 0.629327 0.708979 0
M  V30 4721 H 439.161 1.85909 2.98548 0
M  V30 4722 H 439.035 0.289975 3.76084 0
M  V30 4723 H 441.422 -0.265374 2.93904 0
M  V30 4724 H 441.503 1.33256 2.18349 0
M  V30 4725 H 441.147 2.408 4.47189 0
M  V30 4726 H 441.077 0.786689 5.20691 0
M  V30 4727 H 443.568 0.96037 3.65493 0
M  V30 4728 H 443.881 2.56226 7.29087 0
M  V30 4729 H 442.226 2.29775 6.55918 0
M  V30 4730 H 445.417 1.27089 4.50517 0
M  V30 4731 H 445.59 2.00115 6.16326 0
M  V30 4732 N 438.996 -1.55193 0.274407 0
M  V30 4733 C 440.412 -1.59401 -0.0797543 0
M  V30 4734 C 440.612 -1.29162 -1.54659 0
M  V30 4735 O 439.668 -1.05215 -2.29534 0
M  V30 4736 C 440.981 -2.99257 0.294238 0
M  V30 4737 C 442.529 -3.12072 0.240796 0
M  V30 4738 C 443.004 -4.54194 0.589218 0
M  V30 4739 N 444.495 -4.60033 0.540744 0
M  V30 4740 C 445.23 -5.68027 0.783147 0
M  V30 4741 N 444.726 -6.8417 1.09013 0
M  V30 4742 N 446.519 -5.57572 0.711993 0
M  V30 4743 H 438.67 -1.73113 1.23067 0
M  V30 4744 H 440.933 -0.807197 0.497129 0
M  V30 4745 H 440.639 -3.26217 1.31435 0
M  V30 4746 H 440.513 -3.75427 -0.365281 0
M  V30 4747 H 442.9 -2.84877 -0.770024 0
M  V30 4748 H 442.981 -2.38117 0.934563 0
M  V30 4749 H 442.625 -4.82115 1.59772 0
M  V30 4750 H 442.555 -5.26448 -0.126331 0
M  V30 4751 H 445.046 -3.76599 0.313327 0
M  V30 4752 H 445.359 -7.6243 1.26178 0
M  V30 4753 H 443.704 -6.85787 1.12789 0
M  V30 4754 H 446.895 -4.65714 0.472014 0
M  V30 4755 H 447.068 -6.41659 0.90429 0
M  V30 4756 N 440.474 -0.00167713 -1.576 0
M  V30 4757 C 441.421 0.989195 -2.08527 0
M  V30 4758 C 442.391 1.34031 -0.981065 0
M  V30 4759 O 443.576 1.43839 -1.2536 0
M  V30 4760 C 440.716 2.27537 -2.59463 0
M  V30 4761 C 439.829 1.98314 -3.83791 0
M  V30 4762 C 438.964 3.21025 -4.23222 0
M  V30 4763 C 438.003 2.87495 -5.40382 0
M  V30 4764 N 437.14 4.02749 -5.75098 0
M  V30 4765 H 441.98 0.547973 -2.92919 0
M  V30 4766 H 439.517 0.258917 -1.44803 0
M  V30 4767 H 441.475 3.02729 -2.87073 0
M  V30 4768 H 440.105 2.69325 -1.77943 0
M  V30 4769 H 439.157 1.13482 -3.63078 0
M  V30 4770 H 440.469 1.69601 -4.69081 0
M  V30 4771 H 439.623 4.04561 -4.52123 0
M  V30 4772 H 438.362 3.52877 -3.36644 0
M  V30 4773 H 437.367 2.02367 -5.11202 0
M  V30 4774 H 438.592 2.56889 -6.28637 0
M  V30 4775 H 436.538 4.34494 -4.91478 0
M  V30 4776 H 436.455 3.77566 -6.54966 0
M  V30 4777 H 437.723 4.87068 -6.08592 0
M  V30 4778 N 441.952 1.55251 0.271103 0
M  V30 4779 C 442.882 1.9127 1.33933 0
M  V30 4780 C 443.863 0.77478 1.5143 0
M  V30 4781 O 445.048 1.03307 1.64442 0
M  V30 4782 C 442.178 2.18627 2.69851 0
M  V30 4783 C 441.132 3.34442 2.67081 0
M  V30 4784 C 440.458 3.47284 4.06569 0
M  V30 4785 C 441.758 4.70784 2.26185 0
M  V30 4786 H 443.452 2.80744 1.04035 0
M  V30 4787 H 440.998 1.35077 0.499017 0
M  V30 4788 H 442.951 2.42413 3.44694 0
M  V30 4789 H 441.675 1.25955 3.01335 0
M  V30 4790 H 440.334 3.10627 1.94695 0
M  V30 4791 H 439.982 2.52074 4.35279 0
M  V30 4792 H 439.682 4.25152 4.0561 0
M  V30 4793 H 441.206 3.73363 4.83148 0
M  V30 4794 H 442.62 4.94102 2.90751 0
M  V30 4795 H 441.017 5.51582 2.36384 0
M  V30 4796 H 442.087 4.69478 1.21319 0
M  V30 4797 N 443.43 -0.535701 1.48216 0
M  V30 4798 C 444.377 -1.64083 1.62312 0
M  V30 4799 C 445.347 -1.59448 0.465365 0
M  V30 4800 O 446.532 -1.77959 0.688135 0
M  V30 4801 C 443.672 -3.0236 1.66349 0
M  V30 4802 C 442.785 -3.17273 2.93193 0
M  V30 4803 C 441.92 -4.46075 2.88427 0
M  V30 4804 C 440.959 -4.54496 4.1 0
M  V30 4805 N 440.096 -5.7468 4.03345 0
M  V30 4806 H 444.936 -1.51374 2.5669 0
M  V30 4807 H 442.473 -0.737059 1.27302 0
M  V30 4808 H 444.431 -3.82461 1.66672 0
M  V30 4809 H 443.061 -3.13854 0.754672 0
M  V30 4810 H 442.113 -2.30462 3.02641 0
M  V30 4811 H 443.425 -3.19357 3.83162 0
M  V30 4812 H 442.579 -5.3446 2.87119 0
M  V30 4813 H 441.318 -4.46504 1.96177 0
M  V30 4814 H 440.323 -3.64519 4.11589 0
M  V30 4815 H 441.548 -4.5581 5.03402 0
M  V30 4816 H 439.494 -5.76017 3.13912 0
M  V30 4817 H 439.411 -5.78234 4.87013 0
M  V30 4818 H 440.679 -6.65367 4.06087 0
M  V30 4819 N 444.908 -1.36708 -0.784132 0
M  V30 4820 C 446.156 -1.30972 -1.53918 0
M  V30 4821 C 446.477 0.109086 -1.94695 0
M  V30 4822 O 445.747 1.05048 -1.65353 0
M  V30 4823 H 444.327 -0.481819 -0.570841 0
M  V30 4824 H 446.989 -1.71063 -0.934002 0
M  V30 4825 H 446.085 -1.94061 -2.44431 0
M  V30 4826 N 446.386 1.0089 -1.21074 0
M  V30 4827 C 447.349 2.0775 -0.968129 0
M  V30 4828 C 448.349 1.6069 0.0593445 0
M  V30 4829 O 449.539 1.73293 -0.177525 0
M  V30 4830 C 446.671 3.37794 -0.459108 0
M  V30 4831 H 447.864 2.30707 -1.9161 0
M  V30 4832 H 445.417 1.17807 -1.02719 0
M  V30 4833 H 446.152 3.20516 0.49397 0
M  V30 4834 H 445.937 3.7328 -1.20019 0
M  V30 4835 H 447.427 4.16454 -0.309099 0
M  V30 4836 N 447.864 1.01787 1.20321 0
M  V30 4837 C 449.113 0.703249 1.89043 0
M  V30 4838 C 449.426 -0.770445 1.79787 0
M  V30 4839 O 450.632 -1.19767 2.43656 0
M  V30 4840 C 449.088 1.20749 3.3904 0
M  V30 4841 C 448.696 2.70817 3.56878 0
M  V30 4842 C 450.44 0.968352 4.13308 0
M  V30 4843 C 448.347 3.14716 5.00708 0
M  V30 4844 H 447.277 0.259354 0.707991 0
M  V30 4845 H 449.928 1.23072 1.36108 0
M  V30 4846 H 448.31 0.607989 3.91305 0
M  V30 4847 H 449.484 3.36327 3.14993 0
M  V30 4848 H 447.799 2.92888 2.95983 0
M  V30 4849 H 450.396 1.27173 5.19356 0
M  V30 4850 H 450.739 -0.095149 4.16191 0
M  V30 4851 H 451.272 1.53129 3.67146 0
M  V30 4852 H 448.011 4.20347 5.02979 0
M  V30 4853 H 447.531 2.53927 5.43398 0
M  V30 4854 H 449.21 3.07426 5.69296 0
M  V30 4855 N 449.342 -1.36122 0.79427 0
M  V30 4856 C 450.272 -2.32551 0.210328 0
M  V30 4857 C 451.253 -1.56884 -0.657386 0
M  V30 4858 O 452.438 -1.85014 -0.590207 0
M  V30 4859 C 449.568 -3.41128 -0.651819 0
M  V30 4860 C 448.522 -4.27842 0.116395 0
M  V30 4861 C 447.848 -5.2763 -0.86666 0
M  V30 4862 C 449.148 -5.05647 1.30837 0
M  V30 4863 H 450.842 -2.81636 1.01594 0
M  V30 4864 H 448.388 -1.35407 0.489981 0
M  V30 4865 H 450.341 -4.07581 -1.07031 0
M  V30 4866 H 449.065 -2.90622 -1.49019 0
M  V30 4867 H 447.724 -3.62952 0.515915 0
M  V30 4868 H 447.372 -4.73395 -1.70019 0
M  V30 4869 H 447.072 -5.86514 -0.35705 0
M  V30 4870 H 448.596 -5.96955 -1.28361 0
M  V30 4871 H 450.01 -5.65113 0.965393 0
M  V30 4872 H 448.407 -5.73967 1.75161 0
M  V30 4873 H 449.477 -4.37006 2.10128 0
M  V30 4874 N 450.82 -0.546701 -1.47814 0
M  V30 4875 C 452.048 -0.0232857 -2.06887 0
M  V30 4876 C 452.463 1.26571 -1.4009 0
M  V30 4877 O 451.82 1.7569 -0.493906 0
M  V30 4878 C 451.871 0.186975 -3.61016 0
M  V30 4879 O 451.592 -1.05097 -4.25307 0
M  V30 4880 C 453.093 0.748872 -4.36929 0
M  V30 4881 H 450.313 -0.0410763 -0.669742 0
M  V30 4882 H 452.857 -0.757117 -1.89968 0
M  V30 4883 H 451.012 0.870903 -3.77484 0
M  V30 4884 H 451.426 -0.842121 -5.17695 0
M  V30 4885 H 452.9 0.845334 -5.45489 0
M  V30 4886 H 453.377 1.75772 -4.02493 0
M  V30 4887 H 453.983 0.100979 -4.2518 0
M  V30 4888 N 452.299 1.55045 -0.282633 0
M  V30 4889 C 453.527 2.04168 0.33512 0
M  V30 4890 C 453.942 1.16071 1.48906 0
M  V30 4891 O 453.299 0.182391 1.81586 0
M  V30 4892 C 453.35 3.52332 0.808957 0
M  V30 4893 O 453.071 4.37078 -0.299038 0
M  V30 4894 C 454.572 4.17375 1.49375 0
M  V30 4895 H 451.792 0.666744 0.0754543 0
M  V30 4896 H 454.336 2.00205 -0.416918 0
M  V30 4897 H 452.491 3.56715 1.51106 0
M  V30 4898 H 452.905 5.24458 0.0665514 0
M  V30 4899 H 454.379 5.22627 1.77664 0
M  V30 4900 H 454.856 3.65999 2.42778 0
M  V30 4901 H 455.462 4.17016 0.835305 0
M  V30 4902 N 453.777 0.010035 1.57597 0
M  V30 4903 C 454.71 -1.01234 2.04516 0
M  V30 4904 C 455.688 -1.32886 0.937024 0
M  V30 4905 O 456.872 -1.44879 1.20592 0
M  V30 4906 C 453.999 -2.33738 2.45121 0
M  V30 4907 C 453.045 -2.17679 3.66767 0
M  V30 4908 S 453.878 -1.49343 5.14254 0
M  V30 4909 C 455.034 -2.83256 5.58137 0
M  V30 4910 H 455.267 -0.612866 2.90914 0
M  V30 4911 H 452.8 -0.201124 1.53084 0
M  V30 4912 H 454.758 -3.09922 2.69182 0
M  V30 4913 H 453.419 -2.70823 1.59103 0
M  V30 4914 H 452.612 -3.1559 3.92962 0
M  V30 4915 H 452.214 -1.4964 3.42759 0
M  V30 4916 H 454.506 -3.79538 5.6121 0
M  V30 4917 H 455.449 -2.61749 6.57946 0
M  V30 4918 H 455.857 -2.87627 4.85727 0
M  V30 4919 N 455.255 -1.55392 -0.262866 0
M  V30 4920 C 456.185 -1.91978 -1.32917 0
M  V30 4921 C 457.166 -0.7828 -1.51017 0
M  V30 4922 O 458.351 -1.04178 -1.63892 0
M  V30 4923 C 455.481 -2.20055 -2.68687 0
M  V30 4924 C 454.435 -3.35854 -2.65304 0
M  V30 4925 C 453.761 -3.49435 -4.04721 0
M  V30 4926 C 455.061 -4.71977 -2.23685 0
M  V30 4927 H 456.755 -2.81292 -1.02544 0
M  V30 4928 H 454.301 -1.3534 -0.491846 0
M  V30 4929 H 456.254 -2.44237 -3.43404 0
M  V30 4930 H 454.978 -1.27551 -3.00663 0
M  V30 4931 H 453.637 -3.11655 -1.93045 0
M  V30 4932 H 453.285 -2.54379 -4.33936 0
M  V30 4933 H 452.985 -4.27297 -4.0335 0
M  V30 4934 H 454.509 -3.7592 -4.81161 0
M  V30 4935 H 455.923 -4.95637 -2.88127 0
M  V30 4936 H 454.32 -5.52828 -2.33456 0
M  V30 4937 H 455.39 -4.70115 -1.18827 0
M  V30 4938 N 456.733 0.527833 -1.48498 0
M  V30 4939 C 457.696 1.61439 -1.62696 0
M  V30 4940 C 458.696 1.52824 -0.500136 0
M  V30 4941 O 459.886 1.56456 -0.765976 0
M  V30 4942 C 457.018 3.01063 -1.59918 0
M  V30 4943 H 458.211 1.50189 -2.59583 0
M  V30 4944 H 455.764 0.750055 -1.37127 0
M  V30 4945 H 456.499 3.17818 -0.645163 0
M  V30 4946 H 456.284 3.08725 -2.41726 0
M  V30 4947 H 457.774 3.80057 -1.73051 0
M  V30 4948 N 458.211 1.37122 0.776871 0
M  V30 4949 C 459.439 1.3523 1.5659 0
M  V30 4950 C 459.854 -0.0635518 1.88693 0
M  V30 4951 O 459.211 -1.02394 1.51069 0
M  V30 4952 C 459.262 2.18583 2.8793 0
M  V30 4953 O 458.983 3.5465 2.57206 0
M  V30 4954 C 460.484 2.24612 3.82183 0
M  V30 4955 H 457.704 0.4634 0.485285 0
M  V30 4956 H 460.248 1.80392 0.963266 0
M  V30 4957 H 458.403 1.76943 3.4463 0
M  V30 4958 H 458.817 3.98286 3.41275 0
M  V30 4959 H 460.291 2.87267 4.71361 0
M  V30 4960 H 460.768 1.25309 4.20944 0
M  V30 4961 H 461.374 2.66543 3.31414 0
M  V30 4962 N 459.689 -1.00246 1.21608 0
M  V30 4963 C 461.105 -1.26435 0.973975 0
M  V30 4964 C 461.305 -1.98642 -0.338143 0
M  V30 4965 O 460.361 -2.29026 -1.06317 0
M  V30 4966 C 461.674 -2.08551 2.16626 0
M  V30 4967 C 463.222 -2.21769 2.20879 0
M  V30 4968 C 463.697 -3.07267 3.39633 0
M  V30 4969 N 465.188 -3.14855 3.39736 0
M  V30 4970 C 465.923 -3.81274 4.28273 0
M  V30 4971 N 465.419 -4.497 5.27012 0
M  V30 4972 N 467.212 -3.7794 4.16074 0
M  V30 4973 H 459.363 -0.518089 2.05984 0
M  V30 4974 H 461.626 -0.291368 0.902113 0
M  V30 4975 H 461.332 -1.62847 3.11727 0
M  V30 4976 H 461.206 -3.09303 2.15897 0
M  V30 4977 H 463.593 -2.66691 1.26332 0
M  V30 4978 H 463.674 -1.20478 2.25652 0
M  V30 4979 H 463.318 -2.63047 4.34475 0
M  V30 4980 H 463.248 -4.08678 3.321 0
M  V30 4981 H 465.739 -2.66147 2.6828 0
M  V30 4982 H 466.052 -4.98092 5.90867 0
M  V30 4983 H 464.397 -4.48479 5.30935 0
M  V30 4984 H 467.588 -3.23638 3.38195 0
M  V30 4985 H 467.761 -4.29424 4.85282 0
M  V30 4986 N 461.167 -1.02423 -1.1978 0
M  V30 4987 C 462.115 -0.594474 -2.24875 0
M  V30 4988 C 463.109 0.370598 -1.65296 0
M  V30 4989 O 464.315 0.239684 -1.78397 0
M  V30 4990 H 460.69 -0.173961 -0.731602 0
M  V30 4991 H 462.661 -1.4916 -2.58445 0
M  V30 4992 C 461.41 0.0436512 -3.47673 0
M  V30 4993 H 460.733 -0.689963 -3.93801 0
M  V30 4994 H 462.173 0.307362 -4.22884 0
M  V30 4995 C 460.632 1.28881 -3.11274 0
M  V30 4996 O 461.162 2.38135 -3.23503 0
M  V30 4997 N 459.368 1.1758 -2.6575 0
M  V30 4998 H 458.915 0.286769 -2.55999 0
M  V30 4999 H 458.873 2.00988 -2.41767 0
M  V30 5000 N 462.645 1.35699 -0.801477 0
M  V30 5001 C 463.892 1.98913 -0.379459 0
M  V30 5002 C 464.22 1.63592 1.05204 0
M  V30 5003 O 463.475 0.888563 1.74365 0
M  V30 5004 C 463.774 3.53828 -0.504041 0
M  V30 5005 C 463.44 4.09002 -1.8981 0
M  V30 5006 C 462.102 4.23783 -2.27951 0
M  V30 5007 C 464.454 4.38939 -2.81038 0
M  V30 5008 C 461.782 4.65816 -3.56696 0
M  V30 5009 C 464.134 4.82409 -4.09224 0
M  V30 5010 C 462.798 4.95395 -4.4737 0
M  V30 5011 H 462.068 0.727874 -0.138854 0
M  V30 5012 H 464.715 1.61994 -1.02128 0
M  V30 5013 H 463.02 3.91175 0.221242 0
M  V30 5014 H 464.717 4.00687 -0.158361 0
M  V30 5015 H 461.307 3.97946 -1.59176 0
M  V30 5016 H 465.491 4.27077 -2.52821 0
M  V30 5017 H 460.747 4.74059 -3.86106 0
M  V30 5018 H 464.921 5.04535 -4.80018 0
M  V30 5019 H 462.548 5.27724 -5.47185 0
M  V30 5020 N 464.123 0.554532 1.47522 0
M  V30 5021 C 465.348 0.0322661 2.07375 0
M  V30 5022 C 465.773 -1.25079 1.40488 0
M  V30 5023 O 465.131 -1.74859 0.47896 0
M  V30 5024 C 465.179 -0.149397 3.6029 0
M  V30 5025 O 464.283 -1.21259 3.9417 0
M  V30 5026 H 463.624 0.0501228 0.662106 0
M  V30 5027 H 466.154 0.769452 1.8958 0
M  V30 5028 H 466.164 -0.364437 4.06369 0
M  V30 5029 H 464.839 0.787743 4.08372 0
M  V30 5030 H 463.416 -0.97825 3.5984 0
M  V30 5031 N 465.601 -1.54893 0.290851 0
M  V30 5032 C 466.847 -2.0023 -0.321867 0
M  V30 5033 C 467.18 -1.179 -1.54316 0
M  V30 5034 O 466.455 -0.25293 -1.92848 0
M  V30 5035 C 466.738 -3.53456 -0.688515 0
M  V30 5036 C 466.591 -4.46532 0.541209 0
M  V30 5037 C 467.91 -4.13057 -1.51895 0
M  V30 5038 H 465.029 -0.727891 -0.115515 0
M  V30 5039 H 467.671 -1.85722 0.400931 0
M  V30 5040 H 465.821 -3.6595 -1.30433 0
M  V30 5041 H 467.493 -4.4596 1.17973 0
M  V30 5042 H 465.736 -4.17545 1.17636 0
M  V30 5043 H 466.407 -5.51475 0.240675 0
M  V30 5044 H 468.883 -4.03937 -0.99872 0
M  V30 5045 H 467.759 -5.20448 -1.74429 0
M  V30 5046 H 468.02 -3.64284 -2.50498 0
M  V30 5047 N 467.08 -0.0183926 -1.57589 0
M  V30 5048 C 468.328 0.661253 -1.90976 0
M  V30 5049 C 468.649 1.73281 -0.894353 0
M  V30 5050 O 467.919 1.9579 0.0656788 0
M  V30 5051 H 466.499 0.247233 -0.704901 0
M  V30 5052 H 469.161 -0.0636639 -1.94796 0
M  V30 5053 H 468.257 1.12083 -2.9128 0
M  V30 5054 N 468.558 1.5553 0.254621 0
M  V30 5055 C 469.974 1.4778 0.602753 0
M  V30 5056 C 470.174 0.707047 1.88688 0
M  V30 5057 O 469.23 0.233288 2.5142 0
M  V30 5058 C 470.543 2.92133 0.712648 0
M  V30 5059 C 472.091 3.02458 0.805488 0
M  V30 5060 C 472.566 4.48102 0.947009 0
M  V30 5061 N 474.057 4.52008 1.01207 0
M  V30 5062 C 474.792 5.61939 1.1407 0
M  V30 5063 N 474.288 6.81697 1.23536 0
M  V30 5064 N 476.081 5.49719 1.17325 0
M  V30 5065 H 468.232 2.04085 -0.588463 0
M  V30 5066 H 470.495 0.926229 -0.202001 0
M  V30 5067 H 470.201 3.51332 -0.160766 0
M  V30 5068 H 470.075 3.42187 1.58707 0
M  V30 5069 H 472.462 2.43344 1.66936 0
M  V30 5070 H 472.543 2.55627 -0.0939266 0
M  V30 5071 H 472.187 5.07824 0.087725 0
M  V30 5072 H 472.117 4.92607 1.86135 0
M  V30 5073 H 474.608 3.65749 0.950577 0
M  V30 5074 H 474.921 7.61228 1.33236 0
M  V30 5075 H 473.266 6.84473 1.20508 0
M  V30 5076 H 476.457 4.55095 1.09573 0
M  V30 5077 H 476.63 6.35432 1.27005 0
M  V30 5078 N 470.036 -0.519951 1.48776 0
M  V30 5079 C 470.968 -1.63973 1.60142 0
M  V30 5080 C 471.981 -1.55404 0.485117 0
M  V30 5081 O 473.17 -1.61682 0.756391 0
M  V30 5082 C 470.27 -3.02676 1.52449 0
M  V30 5083 C 469.443 -3.36624 2.79291 0
M  V30 5084 C 468.502 -4.54652 2.64912 0
M  V30 5085 O 467.528 -4.57374 3.38818 0
M  V30 5086 N 468.73 -5.53432 1.75195 0
M  V30 5087 H 471.495 -1.54656 2.56713 0
M  V30 5088 H 469.056 -0.707439 1.45626 0
M  V30 5089 H 471.048 -3.79525 1.4051 0
M  V30 5090 H 469.618 -3.06018 0.638125 0
M  V30 5091 H 468.838 -2.48855 3.0572 0
M  V30 5092 H 470.126 -3.56094 3.6342 0
M  V30 5093 H 469.524 -5.54018 1.14371 0
M  V30 5094 H 468.081 -6.29459 1.69189 0
M  V30 5095 N 471.514 -1.37532 -0.769588 0
M  V30 5096 C 472.742 -1.36059 -1.55871 0
M  V30 5097 C 473.157 0.053544 -1.88724 0
M  V30 5098 O 472.514 1.01591 -1.5161 0
M  V30 5099 C 472.565 -2.20107 -2.86767 0
M  V30 5100 O 472.286 -3.56009 -2.55321 0
M  V30 5101 C 473.787 -2.26636 -3.80987 0
M  V30 5102 H 471.007 -0.465967 -0.482821 0
M  V30 5103 H 473.551 -1.80901 -0.953686 0
M  V30 5104 H 471.706 -1.78768 -3.43687 0
M  V30 5105 H 472.12 -4.0009 -3.39158 0
M  V30 5106 H 473.594 -2.89763 -4.69831 0
M  V30 5107 H 474.071 -1.2754 -4.20274 0
M  V30 5108 H 474.677 -2.68296 -3.29996 0
M  V30 5109 N 472.992 0.995999 -1.22138 0
M  V30 5110 C 474.22 1.77066 -1.07029 0
M  V30 5111 C 474.635 1.8495 0.379357 0
M  V30 5112 O 473.992 1.3174 1.26297 0
M  V30 5113 C 474.043 3.20533 -1.67155 0
M  V30 5114 O 473.764 3.13082 -3.06449 0
M  V30 5115 C 475.265 4.14461 -1.5728 0
M  V30 5116 H 472.485 0.556179 -0.375374 0
M  V30 5117 H 475.029 1.25238 -1.61666 0
M  V30 5118 H 473.184 3.6944 -1.16589 0
M  V30 5119 H 473.598 4.03283 -3.35355 0
M  V30 5120 H 475.072 5.1289 -2.04078 0
M  V30 5121 H 475.549 4.36005 -0.528795 0
M  V30 5122 H 476.155 3.71449 -2.07136 0
M  V30 5123 N 474.47 1.03057 1.19235 0
M  V30 5124 C 475.433 0.617418 2.20727 0
M  V30 5125 C 476.433 -0.319856 1.57587 0
M  V30 5126 O 477.623 -0.106633 1.73873 0
M  V30 5127 C 474.755 -0.096296 3.40764 0
M  V30 5128 H 475.948 1.51544 2.58794 0
M  V30 5129 H 473.501 0.821949 1.32942 0
M  V30 5130 H 474.236 -1.00859 3.08217 0
M  V30 5131 H 474.021 0.577217 3.87828 0
M  V30 5132 H 475.511 -0.372219 4.15938 0
M  V30 5133 N 475.948 -1.35272 0.808662 0
M  V30 5134 C 477.359 -1.81179 0.450688 0
M  V30 5135 C 477.71 -1.67143 -1.02751 0
M  V30 5136 O 476.835 -1.20325 -1.79864 0
M  V30 5137 C 477.43 -3.28943 0.811275 0
M  V30 5138 C 475.989 -3.72985 0.505871 0
M  V30 5139 C 475.136 -2.57229 1.03578 0
M  V30 5140 H 478.087 -1.2322 1.00012 0
M  V30 5141 H 478.108 -3.80342 0.109588 0
M  V30 5142 H 477.62 -3.39127 1.88718 0
M  V30 5143 H 475.721 -3.68349 -0.561209 0
M  V30 5144 H 475.834 -4.67677 1.03995 0
M  V30 5145 H 474.198 -2.50548 0.458005 0
M  V30 5146 H 474.981 -2.7019 2.11784 0
M  V30 5147 N 477.426 -0.562348 -1.47226 0
M  V30 5148 C 478.389 0.172056 -2.28553 0
M  V30 5149 C 479.389 0.837928 -1.37242 0
M  V30 5150 O 480.579 0.693001 -1.59822 0
M  V30 5151 C 477.711 1.25223 -3.17068 0
M  V30 5152 H 478.904 -0.542401 -2.94954 0
M  V30 5153 H 476.457 -0.319493 -1.53 0
M  V30 5154 H 477.192 1.99892 -2.55369 0
M  V30 5155 H 476.977 0.779515 -3.84273 0
M  V30 5156 H 478.467 1.76791 -3.78332 0
M  V30 5157 N 478.904 1.54736 -0.299062 0
M  V30 5158 C 480.132 2.04512 0.313447 0
M  V30 5159 C 480.547 1.17643 1.47667 0
M  V30 5160 O 479.904 0.20164 1.81383 0
M  V30 5161 C 479.955 3.53171 0.771542 0
M  V30 5162 O 479.676 4.36736 -0.345379 0
M  V30 5163 C 481.177 4.18936 1.4494 0
M  V30 5164 H 478.397 0.667507 0.0683784 0
M  V30 5165 H 480.941 1.99752 -0.438129 0
M  V30 5166 H 479.096 3.58298 1.47314 0
M  V30 5167 H 479.51 5.24499 0.0109219 0
M  V30 5168 H 480.984 5.24482 1.72111 0
M  V30 5169 H 481.461 3.68554 2.38883 0
M  V30 5170 H 482.067 4.17879 0.791028 0
M  V30 5171 N 480.382 0.0267497 1.57577 0
M  V30 5172 C 481.315 -0.99059 2.05579 0
M  V30 5173 C 482.293 -1.31884 0.951065 0
M  V30 5174 O 483.477 -1.43592 1.22121 0
M  V30 5175 C 480.604 -2.31125 2.47586 0
M  V30 5176 C 479.65 -2.13777 3.69055 0
M  V30 5177 S 480.483 -1.4388 5.15809 0
M  V30 5178 C 481.639 -2.77321 5.6111 0
M  V30 5179 H 481.872 -0.581976 2.91548 0
M  V30 5180 H 479.405 -0.184876 1.53289 0
M  V30 5181 H 481.363 -3.07049 2.72454 0
M  V30 5182 H 480.024 -2.6912 1.61967 0
M  V30 5183 H 479.217 -3.11405 3.96287 0
M  V30 5184 H 478.819 -1.45996 3.44327 0
M  V30 5185 H 481.111 -3.73565 5.65204 0
M  V30 5186 H 482.054 -2.54756 6.60685 0
M  V30 5187 H 482.462 -2.82459 4.88751 0
M  V30 5188 N 481.861 -1.55662 -0.24637 0
M  V30 5189 C 483.086 -1.81914 -0.996093 0
M  V30 5190 C 483.511 -0.603875 -1.78143 0
M  V30 5191 O 482.869 0.447091 -1.75701 0
M  V30 5192 C 482.917 -3.05908 -1.90925 0
M  V30 5193 O 482.021 -2.82861 -3.00105 0
M  V30 5194 H 481.362 -0.600481 -0.283406 0
M  V30 5195 H 483.892 -2.02848 -0.267199 0
M  V30 5196 H 483.902 -3.35356 -2.3238 0
M  V30 5197 H 482.577 -3.93999 -1.33183 0
M  V30 5198 H 481.154 -2.64583 -2.62775 0
M  V30 5199 N 483.339 0.512053 -1.4905 0
M  V30 5200 C 484.567 1.29116 -1.61669 0
M  V30 5201 C 484.982 1.86655 -0.283787 0
M  V30 5202 O 484.339 1.67293 0.729331 0
M  V30 5203 C 484.39 2.4293 -2.67707 0
M  V30 5204 O 484.111 1.87758 -3.95826 0
M  V30 5205 C 485.612 3.34476 -2.90931 0
M  V30 5206 H 482.832 0.392009 -0.544583 0
M  V30 5207 H 485.376 0.615881 -1.95006 0
M  V30 5208 H 483.531 3.06308 -2.37179 0
M  V30 5209 H 483.945 2.62393 -4.54148 0
M  V30 5210 H 485.419 4.10642 -3.68886 0
M  V30 5211 H 485.896 3.90801 -2.00427 0
M  V30 5212 H 486.502 2.76874 -3.22832 0
M  V30 5213 N 484.817 1.37938 0.762283 0
M  V30 5214 C 485.78 1.34279 1.85747 0
M  V30 5215 C 486.78 0.244969 1.58923 0
M  V30 5216 O 487.97 0.501365 1.66829 0
M  V30 5217 C 485.102 1.08833 3.23061 0
M  V30 5218 H 486.295 2.31705 1.90401 0
M  V30 5219 H 483.848 1.23105 0.963057 0
M  V30 5220 H 484.583 0.119767 3.24079 0
M  V30 5221 H 484.368 1.88306 3.43923 0
M  V30 5222 H 485.858 1.08946 4.03138 0
M  V30 5223 N 486.295 -0.989507 1.22664 0
M  V30 5224 C 487.258 -2.06183 1.00106 0
M  V30 5225 C 488.258 -1.60765 -0.0337726 0
M  V30 5226 O 489.448 -1.72989 0.205072 0
M  V30 5227 C 486.58 -3.37021 0.51279 0
M  V30 5228 H 487.773 -2.27629 1.95256 0
M  V30 5229 H 485.326 -1.16158 1.0458 0
M  V30 5230 H 486.061 -3.21261 -0.442917 0
M  V30 5231 H 485.846 -3.71323 1.25942 0
M  V30 5232 H 487.336 -4.1591 0.375315 0
M  V30 5233 N 487.773 -1.03688 -1.18687 0
M  V30 5234 C 488.998 -0.757819 -1.93059 0
M  V30 5235 C 489.423 0.678353 -1.75442 0
M  V30 5236 O 488.781 1.46938 -1.06203 0
M  V30 5237 C 488.829 -1.12423 -3.42627 0
M  V30 5238 O 487.933 -0.247505 -4.11657 0
M  V30 5239 H 487.274 -0.279245 -0.602427 0
M  V30 5240 H 489.804 -1.3857 -1.5053 0
M  V30 5241 H 489.814 -1.08454 -3.93322 0
M  V30 5242 H 488.489 -2.17049 -3.54771 0
M  V30 5243 H 487.066 -0.34649 -3.71287 0
M  V30 5244 N 489.251 1.34841 -0.815825 0
M  V30 5245 C 490.499 1.98107 -0.399744 0
M  V30 5246 C 490.82 1.65019 1.03894 0
M  V30 5247 O 490.09 0.937311 1.72021 0
M  V30 5248 H 488.67 0.732827 -0.144823 0
M  V30 5249 H 491.332 1.64599 -1.0437 0
M  V30 5250 H 490.428 3.07856 -0.512965 0
M  V30 5251 N 490.729 0.570148 1.46925 0
M  V30 5252 C 491.957 0.0561966 2.06824 0
M  V30 5253 C 492.372 -1.24326 1.42086 0
M  V30 5254 O 491.729 -1.74882 0.521794 0
M  V30 5255 C 491.78 -0.129517 3.61268 0
M  V30 5256 O 491.501 1.1185 4.23581 0
M  V30 5257 C 493.002 -0.679266 4.38065 0
M  V30 5258 H 490.222 0.0517261 0.669003 0
M  V30 5259 H 492.766 0.787243 1.8874 0
M  V30 5260 H 490.921 -0.810739 3.78822 0
M  V30 5261 H 491.335 0.924375 5.1629 0
M  V30 5262 H 492.809 -0.758445 5.46765 0
M  V30 5263 H 493.286 -1.69346 4.05239 0
M  V30 5264 H 493.892 -0.0333237 4.25287 0
M  V30 5265 N 492.207 -1.54576 0.307264 0
M  V30 5266 C 493.435 -2.04675 -0.302597 0
M  V30 5267 C 493.85 -1.18425 -1.47041 0
M  V30 5268 O 493.207 -0.211257 -1.81273 0
M  V30 5269 C 493.258 -3.53575 -0.752801 0
M  V30 5270 O 492.979 -4.36547 0.368536 0
M  V30 5271 C 494.48 -4.19699 -1.42717 0
M  V30 5272 H 491.7 -0.66786 -0.0648374 0
M  V30 5273 H 494.244 -1.99516 0.448716 0
M  V30 5274 H 492.399 -3.59074 -1.45412 0
M  V30 5275 H 492.813 -5.24497 0.0168937 0
M  V30 5276 H 494.287 -5.25388 -1.69327 0
M  V30 5277 H 494.764 -3.69815 -2.36925 0
M  V30 5278 H 495.37 -4.18293 -0.768856 0
M  V30 5279 N 493.685 -0.035106 -1.57561 0
M  V30 5280 C 494.618 0.979673 -2.06101 0
M  V30 5281 C 495.596 1.31378 -0.958046 0
M  V30 5282 O 496.78 1.42942 -1.22881 0
M  V30 5283 C 493.907 2.29809 -2.48808 0
M  V30 5284 C 492.953 2.11817 -3.70184 0
M  V30 5285 S 493.786 1.41143 -5.16565 0
M  V30 5286 C 494.942 2.74341 -5.62572 0
M  V30 5287 H 495.175 0.566506 -2.91853 0
M  V30 5288 H 492.708 0.176744 -1.53385 0
M  V30 5289 H 494.666 3.056 -2.74078 0
M  V30 5290 H 493.327 2.68257 -1.63392 0
M  V30 5291 H 492.52 3.09299 -3.97933 0
M  V30 5292 H 492.122 1.44168 -3.45097 0
M  V30 5293 H 494.414 3.70562 -5.67177 0
M  V30 5294 H 495.357 2.51249 -6.62027 0
M  V30 5295 H 495.765 2.79863 -4.90242 0
M  V30 5296 N 495.163 1.55791 0.238111 0
M  V30 5297 C 496.411 1.77681 0.963001 0
M  V30 5298 C 496.732 0.600674 1.85518 0
M  V30 5299 O 496.002 -0.383182 1.92116 0
M  V30 5300 H 494.582 0.655315 0.358568 0
M  V30 5301 H 497.244 1.93239 0.253945 0
M  V30 5302 H 496.34 2.69177 1.57956 0
M  V30 5303 N 496.642 -0.504142 1.49319 0
M  V30 5304 C 497.572 -1.61473 1.68667 0
M  V30 5305 C 498.553 -1.61455 0.535378 0
M  V30 5306 O 499.738 -1.78245 0.770868 0
M  V30 5307 C 496.868 -2.99971 1.75028 0
M  V30 5308 C 495.822 -3.14854 2.89916 0
M  V30 5309 C 495.148 -4.54671 2.81387 0
M  V30 5310 C 496.448 -2.95176 4.30893 0
M  V30 5311 H 498.142 -1.45535 2.61648 0
M  V30 5312 H 495.688 -0.698711 1.25913 0
M  V30 5313 H 497.641 -3.77562 1.8715 0
M  V30 5314 H 496.365 -3.1699 0.786441 0
M  V30 5315 H 495.024 -2.39687 2.77391 0
M  V30 5316 H 494.672 -4.68562 1.82917 0
M  V30 5317 H 494.372 -4.6557 3.58494 0
M  V30 5318 H 495.896 -5.34327 2.95512 0
M  V30 5319 H 497.31 -3.62538 4.44116 0
M  V30 5320 H 495.707 -3.17549 5.09198 0
M  V30 5321 H 496.777 -1.91332 4.45556 0
M  V30 5322 N 498.12 -1.38341 -0.754957 0
M  V30 5323 C 499.366 -1.34672 -1.51628 0
M  V30 5324 C 499.699 0.0636036 -1.94096 0
M  V30 5325 O 498.974 1.0245 -1.6533 0
M  V30 5326 C 499.257 -2.30116 -2.76981 0
M  V30 5327 C 499.11 -3.80003 -2.4066 0
M  V30 5328 C 500.429 -2.23715 -3.78998 0
M  V30 5329 H 497.548 -0.490517 -0.550056 0
M  V30 5330 H 500.19 -1.69178 -0.864807 0
M  V30 5331 H 498.34 -2.00821 -3.3257 0
M  V30 5332 H 500.012 -4.19966 -1.90856 0
M  V30 5333 H 498.255 -3.97751 -1.73137 0
M  V30 5334 H 498.926 -4.42244 -3.30339 0
M  V30 5335 H 501.402 -2.49574 -3.32945 0
M  V30 5336 H 500.278 -2.9261 -4.64403 0
M  V30 5337 H 500.539 -1.23554 -4.24484 0
M  V30 5338 N 499.598 0.982988 -1.23187 0
M  V30 5339 C 500.508 2.10907 -1.02739 0
M  V30 5340 C 501.524 1.73979 0.0273188 0
M  V30 5341 O 502.7 2.00702 -0.16757 0
M  V30 5342 C 499.765 3.41142 -0.618304 0
M  V30 5343 C 498.826 3.92112 -1.74777 0
M  V30 5344 C 498.059 5.16131 -1.3581 0
M  V30 5345 O 498.282 5.6989 -0.241201 0
M  V30 5346 O 497.216 5.61103 -2.17824 0
M  V30 5347 H 501.042 2.31046 -1.97108 0
M  V30 5348 H 498.627 1.09284 -1.01869 0
M  V30 5349 H 500.509 4.19488 -0.400982 0
M  V30 5350 H 499.184 3.2234 0.296421 0
M  V30 5351 H 498.091 3.14895 -2.0197 0
M  V30 5352 H 499.424 4.15364 -2.64071 0
M  V30 5353 N 501.076 1.04316 1.18135 0
M  V30 5354 C 502.008 0.594444 2.21357 0
M  V30 5355 C 503.021 -0.337215 1.59269 0
M  V30 5356 O 504.21 -0.131337 1.78016 0
M  V30 5357 C 501.31 -0.151251 3.38562 0
M  V30 5358 C 500.483 0.788907 4.30227 0
M  V30 5359 C 499.542 0.0860572 5.2613 0
M  V30 5360 O 498.568 0.717302 5.64662 0
M  V30 5361 N 499.77 -1.17969 5.68387 0
M  V30 5362 H 502.535 1.48227 2.60478 0
M  V30 5363 H 500.096 0.92396 1.32946 0
M  V30 5364 H 502.088 -0.631352 3.99745 0
M  V30 5365 H 500.658 -0.940639 2.98112 0
M  V30 5366 H 499.878 1.44882 3.6661 0
M  V30 5367 H 501.166 1.42738 4.88368 0
M  V30 5368 H 500.564 -1.71302 5.3914 0
M  V30 5369 H 499.121 -1.60402 6.31755 0
M  V30 5370 N 502.554 -1.34406 0.822964 0
M  V30 5371 C 503.517 -2.2783 0.250271 0
M  V30 5372 C 504.517 -1.50288 -0.571854 0
M  V30 5373 O 505.707 -1.69825 -0.387952 0
M  V30 5374 C 502.839 -3.34663 -0.649137 0
M  V30 5375 H 504.032 -2.79992 1.07444 0
M  V30 5376 H 501.585 -1.44539 0.594829 0
M  V30 5377 H 502.32 -2.87714 -1.49637 0
M  V30 5378 H 502.105 -3.92052 -0.0611199 0
M  V30 5379 H 503.595 -4.04349 -1.04363 0
M  V30 5380 N 504.032 -0.577932 -1.46621 0
M  V30 5381 C 504.979 0.158048 -2.30258 0
M  V30 5382 C 505.949 0.888669 -1.40328 0
M  V30 5383 O 507.134 0.880283 -1.6928 0
M  V30 5384 C 504.274 1.16884 -3.24703 0
M  V30 5385 C 503.387 0.442163 -4.29731 0
M  V30 5386 C 502.522 1.44007 -5.11308 0
M  V30 5387 C 501.561 0.69952 -6.0809 0
M  V30 5388 N 500.698 1.64525 -6.82551 0
M  V30 5389 H 505.538 -0.561242 -2.92667 0
M  V30 5390 H 503.075 -0.288591 -1.44241 0
M  V30 5391 H 505.033 1.7677 -3.779 0
M  V30 5392 H 503.663 1.85591 -2.64113 0
M  V30 5393 H 502.715 -0.271632 -3.79429 0
M  V30 5394 H 504.027 -0.136992 -4.98612 0
M  V30 5395 H 503.181 2.11186 -5.68758 0
M  V30 5396 H 501.92 2.05315 -4.42377 0
M  V30 5397 H 500.925 0.0139217 -5.49798 0
M  V30 5398 H 502.15 0.091894 -6.79038 0
M  V30 5399 H 500.096 2.24653 -6.16334 0
M  V30 5400 H 500.013 1.11878 -7.47676 0
M  V30 5401 H 501.281 2.30754 -7.44562 0
M  V30 5402 N 505.51 1.54411 -0.315457 0
M  V30 5403 C 506.735 2.05299 0.294496 0
M  V30 5404 C 507.16 1.19052 1.4563 0
M  V30 5405 O 506.518 0.197804 1.80218 0
M  V30 5406 C 506.566 3.5345 0.714549 0
M  V30 5407 O 505.67 3.70175 1.81781 0
M  V30 5408 H 505.011 0.661743 0.0547019 0
M  V30 5409 H 507.541 1.99327 -0.461508 0
M  V30 5410 H 507.551 3.9557 0.999426 0
M  V30 5411 H 506.226 4.1568 -0.135244 0
M  V30 5412 H 504.803 3.3996 1.53236 0
M  V30 5413 N 506.988 0.0434614 1.5754 0
M  V30 5414 C 507.918 -0.931651 2.14109 0
M  V30 5415 C 508.899 -1.32971 1.06079 0
M  V30 5416 O 510.084 -1.40579 1.33982 0
M  V30 5417 C 507.214 -2.20914 2.67982 0
M  V30 5418 C 506.168 -1.95139 3.80926 0
M  V30 5419 C 505.494 -3.29276 4.21285 0
M  V30 5420 C 506.794 -1.27913 5.06395 0
M  V30 5421 H 508.488 -0.460497 2.95837 0
M  V30 5422 H 506.034 -0.220058 1.42309 0
M  V30 5423 H 507.987 -2.89522 3.06194 0
M  V30 5424 H 506.711 -2.70221 1.83434 0
M  V30 5425 H 505.37 -1.28945 3.43175 0
M  V30 5426 H 505.018 -3.76369 3.33699 0
M  V30 5427 H 504.718 -3.12831 4.97404 0
M  V30 5428 H 506.242 -3.99129 4.62091 0
M  V30 5429 H 507.656 -1.86544 5.42102 0
M  V30 5430 H 506.053 -1.2182 5.87605 0
M  V30 5431 H 507.123 -0.254066 4.84234 0
M  V30 5432 N 508.466 -1.55915 -0.229846 0
M  V30 5433 C 509.396 -1.94754 -1.28815 0
M  V30 5434 C 510.377 -0.814657 -1.49323 0
M  V30 5435 O 511.562 -1.07631 -1.61645 0
M  V30 5436 C 508.692 -2.25705 -2.63959 0
M  V30 5437 C 507.646 -3.41406 -2.5812 0
M  V30 5438 C 506.972 -3.57941 -3.97218 0
M  V30 5439 C 508.272 -4.76616 -2.13623 0
M  V30 5440 H 509.966 -2.83404 -0.965547 0
M  V30 5441 H 507.512 -1.36353 -0.463028 0
M  V30 5442 H 509.465 -2.51467 -3.38146 0
M  V30 5443 H 508.189 -1.339 -2.9789 0
M  V30 5444 H 506.848 -3.1568 -1.86391 0
M  V30 5445 H 506.496 -2.63526 -4.28443 0
M  V30 5446 H 506.196 -4.35757 -3.94195 0
M  V30 5447 H 507.72 -3.86042 -4.73079 0
M  V30 5448 H 509.134 -5.01637 -2.77549 0
M  V30 5449 H 507.531 -5.57655 -2.21677 0
M  V30 5450 H 508.601 -4.7253 -1.08829 0
M  V30 5451 N 509.944 0.496216 -1.49584 0
M  V30 5452 C 510.892 1.61805 -1.67098 0
M  V30 5453 C 511.886 1.60667 -0.536877 0
M  V30 5454 O 513.092 1.65118 -0.716654 0
M  V30 5455 H 509.467 0.53646 -0.526986 0
M  V30 5456 H 511.438 1.44187 -2.61252 0
M  V30 5457 C 510.187 2.99912 -1.75921 0
M  V30 5458 H 509.51 3.01496 -2.62565 0
M  V30 5459 H 510.95 3.77931 -1.92209 0
M  V30 5460 C 509.409 3.33092 -0.505088 0
M  V30 5461 O 509.939 4.00019 0.367085 0
M  V30 5462 N 508.145 2.88278 -0.366599 0
M  V30 5463 H 507.692 2.33989 -1.07735 0
M  V30 5464 H 507.65 3.10846 0.47142 0
M  V30 5465 N 511.423 1.38739 0.74761 0
M  V30 5466 C 512.37 1.36449 1.86146 0
M  V30 5467 C 513.34 0.226098 1.64554 0
M  V30 5468 O 514.525 0.41926 1.86137 0
M  V30 5469 C 511.665 1.2013 3.23516 0
M  V30 5470 C 510.778 2.43407 3.56899 0
M  V30 5471 C 509.913 2.19773 4.83605 0
M  V30 5472 C 508.952 3.3879 5.09792 0
M  V30 5473 N 508.089 3.14553 6.27695 0
M  V30 5474 H 512.929 2.3167 1.87438 0
M  V30 5475 H 510.466 1.15094 0.916063 0
M  V30 5476 H 512.424 1.08683 4.02795 0
M  V30 5477 H 511.054 0.285453 3.21535 0
M  V30 5478 H 510.106 2.65504 2.72418 0
M  V30 5479 H 511.418 3.32094 3.72176 0
M  V30 5480 H 510.572 2.05496 5.70838 0
M  V30 5481 H 509.311 1.28461 4.70478 0
M  V30 5482 H 508.316 3.53579 4.21025 0
M  V30 5483 H 509.541 4.30986 5.24812 0
M  V30 5484 H 507.487 2.25893 6.1588 0
M  V30 5485 H 507.404 3.96791 6.435 0
M  V30 5486 H 508.672 3.03943 7.17801 0
M  V30 5487 N 512.901 -0.976442 1.23707 0
M  V30 5488 C 513.848 -2.06952 1.02174 0
M  V30 5489 C 514.818 -1.65984 -0.0621034 0
M  V30 5490 O 516.003 -1.90584 0.0907906 0
M  V30 5491 C 513.143 -3.39425 0.62327 0
M  V30 5492 C 512.256 -3.9364 1.77966 0
M  V30 5493 C 511.391 -5.14343 1.3276 0
M  V30 5494 C 510.43 -5.60733 2.45449 0
M  V30 5495 N 509.567 -6.72662 2.01172 0
M  V30 5496 H 514.407 -2.24704 1.95734 0
M  V30 5497 H 511.944 -1.10143 0.975034 0
M  V30 5498 H 513.902 -4.15526 0.37332 0
M  V30 5499 H 512.532 -3.21624 -0.275329 0
M  V30 5500 H 511.584 -3.14258 2.14351 0
M  V30 5501 H 512.896 -4.24035 2.62671 0
M  V30 5502 H 512.05 -5.97789 1.03601 0
M  V30 5503 H 510.789 -4.8561 0.450975 0
M  V30 5504 H 509.794 -4.75865 2.75378 0
M  V30 5505 H 511.019 -5.91483 3.33654 0
M  V30 5506 H 508.965 -6.45681 1.15895 0
M  V30 5507 H 508.882 -7.02462 2.79434 0
M  V30 5508 H 510.15 -7.59572 1.75129 0
M  V30 5509 N 514.379 -1.04941 -1.1758 0
M  V30 5510 C 515.342 -0.652456 -2.19717 0
M  V30 5511 C 516.342 0.294745 -1.58076 0
M  V30 5512 O 517.532 0.0789579 -1.74021 0
M  V30 5513 C 514.664 0.0420712 -3.40874 0
M  V30 5514 H 515.857 -1.55642 -2.5635 0
M  V30 5515 H 513.41 -0.842995 -1.31618 0
M  V30 5516 H 514.145 0.95943 -3.09783 0
M  V30 5517 H 513.93 -0.638844 -3.86861 0
M  V30 5518 H 515.42 0.306 -4.16477 0
M  V30 5519 N 515.857 1.33968 -0.830081 0
M  V30 5520 C 517.134 1.92554 -0.343858 0
M  V30 5521 C 517.514 1.7573 1.16971 0
M  V30 5522 O 516.862 1.14035 1.98011 0
M  V30 5523 C 517.072 3.40147 -0.781073 0
M  V30 5524 C 518.42 4.17299 -0.78402 0
M  V30 5525 O 519.444 3.48762 -0.724112 0
M  V30 5526 O 518.303 5.39631 -0.863739 0
M  V30 5527 H 515.397 0.821469 -0.0954827 0
M  V30 5528 H 517.943 1.42897 -0.915348 0
M  V30 5529 H 516.715 3.46225 -1.82329 0
M  V30 5530 H 516.338 3.97166 -0.18567 0
M  V30 5531 N 517.335 0.585699 1.46312 0
M  V30 5532 C 518.583 0.072278 2.01971 0
M  V30 5533 C 518.904 -1.29345 1.45928 0
M  V30 5534 O 518.174 -1.84973 0.645109 0
M  V30 5535 H 516.754 0.023729 0.746623 0
M  V30 5536 H 519.416 0.762155 1.7938 0
M  V30 5537 H 518.512 0.00552767 3.121 0
M  V30 5538 N 518.813 -1.54241 0.323641 0
M  V30 5539 C 520.059 -2.00867 -0.279323 0
M  V30 5540 C 520.392 -1.21146 -1.5178 0
M  V30 5541 O 519.667 -0.29378 -1.92269 0
M  V30 5542 C 519.95 -3.54837 -0.613387 0
M  V30 5543 C 519.803 -4.45284 0.635803 0
M  V30 5544 C 521.122 -4.16186 -1.43099 0
M  V30 5545 H 518.241 -0.730177 -0.100049 0
M  V30 5546 H 520.883 -1.84829 0.440235 0
M  V30 5547 H 519.033 -3.68634 -1.22641 0
M  V30 5548 H 520.705 -4.43357 1.27406 0
M  V30 5549 H 518.948 -4.14956 1.26466 0
M  V30 5550 H 519.619 -5.5084 0.357597 0
M  V30 5551 H 522.095 -4.05964 -0.912814 0
M  V30 5552 H 520.971 -5.24031 -1.6335 0
M  V30 5553 H 521.232 -3.69516 -2.42715 0
M  V30 5554 N 520.291 -0.0518155 -1.57515 0
M  V30 5555 C 521.238 0.922352 -2.11569 0
M  V30 5556 C 522.208 1.30842 -1.02321 0
M  V30 5557 O 523.393 1.39778 -1.29872 0
M  V30 5558 C 520.533 2.19167 -2.6657 0
M  V30 5559 C 519.646 1.86003 -3.89906 0
M  V30 5560 C 518.781 3.07398 -4.33221 0
M  V30 5561 C 517.82 2.70158 -5.49255 0
M  V30 5562 N 516.957 3.84248 -5.8762 0
M  V30 5563 H 521.797 0.454506 -2.94514 0
M  V30 5564 H 519.334 0.212718 -1.45554 0
M  V30 5565 H 521.292 2.93443 -2.96559 0
M  V30 5566 H 519.922 2.63528 -1.86421 0
M  V30 5567 H 518.974 1.01874 -3.66505 0
M  V30 5568 H 520.286 1.54592 -4.74239 0
M  V30 5569 H 519.44 3.89972 -4.64765 0
M  V30 5570 H 518.179 3.41988 -3.477 0
M  V30 5571 H 517.184 1.86001 -5.17382 0
M  V30 5572 H 518.409 2.36759 -6.36492 0
M  V30 5573 H 516.355 4.18638 -5.05053 0
M  V30 5574 H 516.272 3.56538 -6.66646 0
M  V30 5575 H 517.54 4.6746 -6.2378 0
M  V30 5576 N 521.769 1.56035 0.221574 0
M  V30 5577 C 523.18 1.69229 0.788567 0
M  V30 5578 C 523.531 0.653814 1.84986 0
M  V30 5579 O 522.656 -0.195065 2.15519 0
M  V30 5580 C 523.251 3.06809 1.43713 0
M  V30 5581 C 521.81 3.21858 1.95152 0
M  V30 5582 C 520.957 2.65155 0.811685 0
M  V30 5583 H 523.908 1.587 -0.00307894 0
M  V30 5584 H 523.929 3.02666 2.30594 0
M  V30 5585 H 523.441 3.82369 0.664475 0
M  V30 5586 H 521.542 2.51167 2.7522 0
M  V30 5587 H 521.655 4.29073 2.1315 0
M  V30 5588 H 520.019 2.23635 1.21899 0
M  V30 5589 H 520.802 3.43261 0.0516987 0
M  V30 5590 N 523.247 -0.488276 1.49845 0
M  V30 5591 C 524.179 -1.60539 1.63584 0
M  V30 5592 C 525.192 -1.5434 0.517972 0
M  V30 5593 O 526.381 -1.60041 0.790516 0
M  V30 5594 C 523.481 -2.99374 1.58835 0
M  V30 5595 C 522.654 -3.30624 2.86368 0
M  V30 5596 C 521.713 -4.4893 2.74496 0
M  V30 5597 O 520.739 -4.50085 3.48443 0
M  V30 5598 N 521.941 -5.49591 1.86894 0
M  V30 5599 H 524.706 -1.49176 2.59936 0
M  V30 5600 H 522.267 -0.67639 1.47094 0
M  V30 5601 H 524.259 -3.76459 1.48529 0
M  V30 5602 H 522.829 -3.04595 0.702892 0
M  V30 5603 H 522.049 -2.42314 3.1093 0
M  V30 5604 H 523.337 -3.48305 3.70892 0
M  V30 5605 H 522.735 -5.51467 1.26097 0
M  V30 5606 H 521.292 -6.25728 1.82503 0
M  V30 5607 N 524.725 -1.39134 -0.740242 0
M  V30 5608 C 525.953 -1.39334 -1.5295 0
M  V30 5609 C 526.368 0.0135008 -1.88795 0
M  V30 5610 O 525.725 0.983524 -1.5373 0
M  V30 5611 C 525.776 -2.2614 -2.82034 0
M  V30 5612 O 525.497 -3.61345 -2.47712 0
M  V30 5613 C 526.998 -2.34666 -3.76094 0
M  V30 5614 H 524.218 -0.476103 -0.472828 0
M  V30 5615 H 526.762 -1.82883 -0.9151 0
M  V30 5616 H 524.917 -1.86018 -3.39818 0
M  V30 5617 H 525.331 -4.07194 -3.30595 0
M  V30 5618 H 526.805 -2.99663 -4.63579 0
M  V30 5619 H 527.282 -1.36426 -4.17474 0
M  V30 5620 H 527.888 -2.75236 -3.2423 0
M  V30 5621 N 526.204 0.969867 -1.24223 0
M  V30 5622 C 527.152 2.08535 -1.03034 0
M  V30 5623 C 528.146 1.69366 0.0340379 0
M  V30 5624 O 529.352 1.79597 -0.12034 0
M  V30 5625 H 525.727 0.682313 -0.316154 0
M  V30 5626 H 527.698 2.23569 -1.97635 0
M  V30 5627 C 526.447 3.4158 -0.649509 0
M  V30 5628 H 525.77 3.72177 -1.46028 0
M  V30 5629 H 527.21 4.20536 -0.540841 0
M  V30 5630 C 525.669 3.30703 0.643194 0
M  V30 5631 O 526.199 3.64443 1.68951 0
M  V30 5632 N 524.405 2.83841 0.623095 0
M  V30 5633 H 523.952 2.56583 -0.228719 0
M  V30 5634 H 523.91 2.76946 1.48823 0
M  V30 5635 N 527.682 1.05563 1.17022 0
M  V30 5636 C 528.907 0.788437 1.91829 0
M  V30 5637 C 529.332 -0.650356 1.76499 0
M  V30 5638 O 528.69 -1.45229 1.08527 0
M  V30 5639 C 528.738 1.1786 3.40795 0
M  V30 5640 O 527.842 0.312965 4.11211 0
M  V30 5641 H 527.183 0.288794 0.597908 0
M  V30 5642 H 529.713 1.40948 1.48307 0
M  V30 5643 H 529.723 1.14697 3.91546 0
M  V30 5644 H 528.398 2.22666 3.51273 0
M  V30 5645 H 526.975 0.405515 3.70689 0
M  V30 5646 N 529.16 -1.33526 0.837174 0
M  V30 5647 C 530.388 -2.02047 0.445494 0
M  V30 5648 C 530.803 -1.62995 -0.952788 0
M  V30 5649 O 530.16 -0.842447 -1.61892 0
M  V30 5650 C 530.211 -3.57221 0.554577 0
M  V30 5651 O 529.932 -3.94863 1.89776 0
M  V30 5652 C 531.433 -4.43012 0.159634 0
M  V30 5653 H 528.653 -0.647221 0.177048 0
M  V30 5654 H 531.197 -1.70492 1.12928 0
M  V30 5655 H 529.352 -3.87315 -0.0812781 0
M  V30 5656 H 529.766 -4.89569 1.88208 0
M  V30 5657 H 531.24 -5.51253 0.28701 0
M  V30 5658 H 531.717 -4.29916 -0.898289 0
M  V30 5659 H 532.323 -4.18274 0.769855 0
M  V30 5660 N 530.638 -0.59345 -1.46 0
M  V30 5661 C 531.585 0.133618 -2.30413 0
M  V30 5662 C 532.555 0.873736 -1.41262 0
M  V30 5663 O 533.74 0.862279 -1.70204 0
M  V30 5664 C 530.88 1.13434 -3.25924 0
M  V30 5665 C 529.993 0.39656 -4.30176 0
M  V30 5666 C 529.128 1.38575 -5.12806 0
M  V30 5667 C 528.167 0.634984 -6.08797 0
M  V30 5668 N 527.304 1.57276 -6.84258 0
M  V30 5669 H 532.144 -0.592252 -2.92055 0
M  V30 5670 H 529.681 -0.303874 -1.43927 0
M  V30 5671 H 531.639 1.72752 -3.79753 0
M  V30 5672 H 530.269 1.82779 -2.66067 0
M  V30 5673 H 529.321 -0.311861 -3.79119 0
M  V30 5674 H 530.633 -0.189869 -4.98438 0
M  V30 5675 H 529.787 2.05141 -5.70966 0
M  V30 5676 H 528.526 2.00611 -4.44529 0
M  V30 5677 H 527.531 -0.0443925 -5.49782 0
M  V30 5678 H 528.756 0.0198678 -6.79097 0
M  V30 5679 H 526.702 2.18103 -6.18682 0
M  V30 5680 H 526.619 1.03941 -7.48821 0
M  V30 5681 H 527.887 2.22844 -7.46968 0
M  V30 5682 N 532.116 1.54067 -0.331816 0
M  V30 5683 C 533.064 2.26105 0.54582 0
M  V30 5684 C 534.058 1.27816 1.11173 0
M  V30 5685 O 535.264 1.45565 1.05882 0
M  V30 5686 H 531.639 0.726363 0.194683 0
M  V30 5687 H 533.61 2.98282 -0.083931 0
M  V30 5688 C 532.359 3.03814 1.69092 0
M  V30 5689 H 531.682 3.79269 1.26473 0
M  V30 5690 H 533.122 3.57453 2.28043 0
M  V30 5691 C 531.581 2.12606 2.61343 0
M  V30 5692 O 532.111 1.71437 3.6328 0
M  V30 5693 N 530.317 1.77925 2.29763 0
M  V30 5694 H 529.864 2.11602 1.46909 0
M  V30 5695 H 529.822 1.1718 2.91747 0
M  V30 5696 N 533.594 0.0601682 1.57485 0
M  V30 5697 C 534.819 -0.624416 1.97777 0
M  V30 5698 C 535.244 -1.63051 0.937867 0
M  V30 5699 O 534.602 -1.81036 -0.0978845 0
M  V30 5700 C 534.65 -1.27979 3.37126 0
M  V30 5701 O 533.754 -2.39556 3.35688 0
M  V30 5702 H 533.095 -0.161581 0.64404 0
M  V30 5703 H 535.625 0.131237 2.04179 0
M  V30 5704 H 535.635 -1.62937 3.74053 0
M  V30 5705 H 534.31 -0.542501 4.12347 0
M  V30 5706 H 532.887 -2.06478 3.10517 0
M  V30 5707 N 535.072 -1.5615 -0.213296 0
M  V30 5708 C 536.035 -1.92249 -1.24792 0
M  V30 5709 C 537.035 -0.801828 -1.39382 0
M  V30 5710 O 538.225 -1.06948 -1.37506 0
M  V30 5711 C 535.357 -2.18056 -2.62039 0
M  V30 5712 H 536.55 -2.84793 -0.939845 0
M  V30 5713 H 534.103 -1.49559 -0.454062 0
M  V30 5714 H 534.838 -1.2809 -2.97932 0
M  V30 5715 H 534.623 -2.99703 -2.52825 0
M  V30 5716 H 536.113 -2.47051 -3.36683 0
M  V30 5717 N 536.55 0.480323 -1.50102 0
M  V30 5718 C 537.513 1.56181 -1.6775 0
M  V30 5719 C 538.513 1.51156 -0.548503 0
M  V30 5720 O 539.703 1.5394 -0.815363 0
M  V30 5721 C 536.835 2.95823 -1.69415 0
M  V30 5722 H 538.028 1.41855 -2.6423 0
M  V30 5723 H 535.581 0.70605 -1.39444 0
M  V30 5724 H 536.316 3.15604 -0.745948 0
M  V30 5725 H 536.101 3.00878 -2.51425 0
M  V30 5726 H 537.591 3.74359 -1.85054 0
M  V30 5727 N 538.028 1.39524 0.732853 0
M  V30 5728 C 538.991 1.38189 1.82857 0
M  V30 5729 C 539.991 0.278624 1.58368 0
M  V30 5730 O 541.181 0.536639 1.65728 0
M  V30 5731 C 538.313 1.15661 3.2068 0
M  V30 5732 H 539.506 2.35692 1.85444 0
M  V30 5733 H 537.059 1.2512 0.936728 0
M  V30 5734 H 537.794 0.188482 3.23752 0
M  V30 5735 H 537.579 1.95559 3.39852 0
M  V30 5736 H 539.069 1.17472 4.00737 0
M  V30 5737 N 539.506 -0.963266 1.24736 0
M  V30 5738 C 540.734 -1.74166 1.11686 0
M  V30 5739 C 541.149 -1.8589 -0.330187 0
M  V30 5740 O 540.506 -1.35042 -1.2276 0
M  V30 5741 C 540.557 -3.15989 1.75595 0
M  V30 5742 O 540.278 -3.04847 3.14642 0
M  V30 5743 C 541.779 -4.10145 1.68213 0
M  V30 5744 H 538.999 -0.546031 0.389989 0
M  V30 5745 H 541.543 -1.20907 1.64929 0
M  V30 5746 H 539.698 -3.66219 1.26343 0
M  V30 5747 H 540.112 -3.9425 3.4593 0
M  V30 5748 H 541.586 -5.07299 2.17604 0
M  V30 5749 H 542.063 -4.3445 0.644208 0
M  V30 5750 H 542.669 -3.65827 2.16912 0
M  V30 5751 N 540.985 -1.06182 -1.16461 0
M  V30 5752 C 542.21 -0.798599 -1.91408 0
M  V30 5753 C 542.635 0.640987 -1.76842 0
M  V30 5754 O 541.993 1.44652 -1.09296 0
M  V30 5755 C 542.041 -1.19665 -3.40165 0
M  V30 5756 O 541.145 -0.334768 -4.11039 0
M  V30 5757 H 540.486 -0.291961 -0.596368 0
M  V30 5758 H 543.016 -1.41732 -1.47557 0
M  V30 5759 H 543.026 -1.16772 -3.90933 0
M  V30 5760 H 541.701 -2.24526 -3.50087 0
M  V30 5761 H 540.278 -0.425168 -3.70468 0
M  V30 5762 N 542.463 1.3308 -0.844243 0
M  V30 5763 C 543.874 1.7992 -0.498566 0
M  V30 5764 C 544.225 1.69808 0.982834 0
M  V30 5765 O 543.35 1.25051 1.7661 0
M  V30 5766 C 543.945 3.26677 -0.898204 0
M  V30 5767 C 542.504 3.71513 -0.604583 0
M  V30 5768 C 541.651 2.54393 -1.10362 0
M  V30 5769 H 544.602 1.20526 -1.03244 0
M  V30 5770 H 544.623 3.79918 -0.21039 0
M  V30 5771 H 544.135 3.34004 -1.97643 0
M  V30 5772 H 542.236 3.69708 0.46335 0
M  V30 5773 H 542.349 4.64755 -1.16358 0
M  V30 5774 H 540.713 2.49246 -0.524273 0
M  V30 5775 H 541.496 2.6448 -2.18873 0
M  V30 5776 N 543.941 0.601185 1.45683 0
M  V30 5777 C 544.888 -0.121396 2.30481 0
M  V30 5778 C 545.858 -0.866232 1.41724 0
M  V30 5779 O 547.043 -0.85324 1.70659 0
M  V30 5780 C 544.183 -1.11704 3.26521 0
M  V30 5781 C 543.296 -0.373741 4.3038 0
M  V30 5782 C 542.431 -1.35854 5.13534 0
M  V30 5783 C 541.47 -0.602689 6.09126 0
M  V30 5784 N 540.607 -1.53645 6.85082 0
M  V30 5785 H 545.447 0.607732 2.91737 0
M  V30 5786 H 542.984 0.311502 1.43764 0
M  V30 5787 H 544.942 -1.70735 3.80664 0
M  V30 5788 H 543.572 -1.81366 2.67032 0
M  V30 5789 H 542.624 0.331962 3.78949 0
M  V30 5790 H 543.936 0.2163 4.98331 0
M  V30 5791 H 543.09 -2.02111 5.72046 0
M  V30 5792 H 541.829 -1.98251 4.45587 0
M  V30 5793 H 540.834 0.0735482 5.49751 0
M  V30 5794 H 542.059 0.0161467 6.79098 0
M  V30 5795 H 540.005 -2.14819 6.1983 0
M  V30 5796 H 539.922 -0.999688 7.49361 0
M  V30 5797 H 541.19 -2.1888 7.48139 0
M  V30 5798 N 545.419 -1.53889 0.339982 0
M  V30 5799 C 546.667 -2.00458 -0.257112 0
M  V30 5800 C 546.988 -1.22953 -1.51353 0
M  V30 5801 O 546.258 -0.335734 -1.93002 0
M  V30 5802 H 544.838 -0.740544 -0.0979965 0
M  V30 5803 H 547.5 -1.89386 0.460317 0
M  V30 5804 H 546.596 -3.08035 -0.502057 0
M  V30 5805 N 546.897 -0.0685191 -1.57451 0
M  V30 5806 C 548.125 0.610462 -1.97689 0
M  V30 5807 C 548.54 1.63346 -0.946758 0
M  V30 5808 O 547.897 1.82377 0.0669868 0
M  V30 5809 C 547.948 1.28196 -3.38006 0
M  V30 5810 O 547.669 0.299906 -4.37072 0
M  V30 5811 C 549.17 2.04907 -3.931 0
M  V30 5812 H 546.39 0.165689 -0.650222 0
M  V30 5813 H 548.934 -0.139953 -2.04021 0
M  V30 5814 H 547.089 1.98348 -3.32771 0
M  V30 5815 H 547.503 0.78126 -5.18649 0
M  V30 5816 H 548.977 2.47287 -4.93511 0
M  V30 5817 H 549.454 2.9043 -3.29465 0
M  V30 5818 H 550.06 1.39629 -4.01726 0
M  V30 5819 N 548.375 1.56261 0.205012 0
M  V30 5820 C 549.305 1.96779 1.257 0
M  V30 5821 C 550.286 0.838309 1.48008 0
M  V30 5822 O 551.471 1.10189 1.59913 0
M  V30 5823 C 548.601 2.29876 2.60335 0
M  V30 5824 C 547.555 3.45469 2.52656 0
M  V30 5825 C 546.881 3.64215 3.91473 0
M  V30 5826 C 548.181 4.79954 2.06014 0
M  V30 5827 H 549.875 2.84904 0.920338 0
M  V30 5828 H 547.421 1.37072 0.441277 0
M  V30 5829 H 549.374 2.56814 3.34102 0
M  V30 5830 H 548.098 1.38622 2.95722 0
M  V30 5831 H 546.757 3.18605 1.81345 0
M  V30 5832 H 546.405 2.70309 4.24196 0
M  V30 5833 H 546.105 4.41973 3.87213 0
M  V30 5834 H 547.629 3.93519 4.66878 0
M  V30 5835 H 549.043 5.05989 2.69533 0
M  V30 5836 H 547.44 5.61111 2.12777 0
M  V30 5837 H 548.51 4.74201 1.01297 0
M  V30 5838 N 549.853 -0.472356 1.50355 0
M  V30 5839 C 551.264 -1.05326 1.54154 0
M  V30 5840 C 551.615 -1.93155 0.344303 0
M  V30 5841 O 550.74 -2.09479 -0.542928 0
M  V30 5842 C 551.335 -1.91691 2.79356 0
M  V30 5843 C 549.894 -2.44892 2.8584 0
M  V30 5844 C 549.041 -1.23205 2.48426 0
M  V30 5845 H 551.992 -0.255027 1.56637 0
M  V30 5846 H 552.013 -2.76742 2.6114 0
M  V30 5847 H 551.525 -1.27741 3.66475 0
M  V30 5848 H 549.626 -3.12399 2.0307 0
M  V30 5849 H 549.739 -2.80086 3.88701 0
M  V30 5850 H 548.103 -1.56643 2.00836 0
M  V30 5851 H 548.886 -0.609194 3.37852 0
M  V30 5852 N 551.331 -1.39911 -0.725443 0
M  V30 5853 C 552.742 -1.33599 -1.30415 0
M  V30 5854 C 553.093 -0.00481792 -1.96199 0
M  V30 5855 O 552.218 0.897275 -1.96921 0
M  V30 5856 C 552.813 -2.41965 -2.37146 0
M  V30 5857 C 551.372 -2.39144 -2.90667 0
M  V30 5858 C 550.519 -2.23355 -1.64341 0
M  V30 5859 H 553.47 -1.4986 -0.522267 0
M  V30 5860 H 553.491 -2.09304 -3.17761 0
M  V30 5861 H 553.003 -3.38837 -1.89238 0
M  V30 5862 H 551.104 -1.4594 -3.4283 0
M  V30 5863 H 551.217 -3.34362 -3.43131 0
M  V30 5864 H 549.581 -1.70696 -1.89037 0
M  V30 5865 H 550.364 -3.2221 -1.18471 0
M  V30 5866 N 552.809 0.956637 -1.25245 0
M  V30 5867 C 553.772 2.03457 -1.05537 0
M  V30 5868 C 554.772 1.60798 -0.00886317 0
M  V30 5869 O 555.962 1.72384 -0.250865 0
M  V30 5870 C 553.094 3.35543 -0.601965 0
M  V30 5871 H 554.287 2.22372 -2.01223 0
M  V30 5872 H 551.84 1.13344 -1.07623 0
M  V30 5873 H 552.575 3.22323 0.357584 0
M  V30 5874 H 552.36 3.67854 -1.35743 0
M  V30 5875 H 553.85 4.14769 -0.485454 0
M  V30 5876 N 554.287 1.06798 1.15896 0
M  V30 5877 C 555.25 0.687328 2.18651 0
M  V30 5878 C 556.25 -0.269559 1.58524 0
M  V30 5879 O 557.44 -0.0512627 1.74125 0
M  V30 5880 C 554.572 0.0121642 3.40898 0
M  V30 5881 H 555.765 1.59701 2.53842 0
M  V30 5882 H 553.318 0.863828 1.3026 0
M  V30 5883 H 554.053 -0.910025 3.1127 0
M  V30 5884 H 553.838 0.700309 3.85795 0
M  V30 5885 H 555.328 -0.239703 4.16911 0
M  V30 5886 N 555.766 -1.3263 0.851289 0
M  V30 5887 C 556.696 -2.31449 0.308771 0
M  V30 5888 C 557.677 -1.59531 -0.590255 0
M  V30 5889 O 558.862 -1.87351 -0.511205 0
M  V30 5890 C 555.992 -3.43586 -0.506548 0
M  V30 5891 C 554.946 -4.26963 0.297753 0
M  V30 5892 C 554.272 -5.30831 -0.642094 0
M  V30 5893 C 555.572 -4.99643 1.52166 0
M  V30 5894 H 557.266 -2.77074 1.13447 0
M  V30 5895 H 554.812 -1.33207 0.546971 0
M  V30 5896 H 556.765 -4.11754 -0.896474 0
M  V30 5897 H 555.489 -2.96681 -1.36558 0
M  V30 5898 H 554.148 -3.60437 0.669391 0
M  V30 5899 H 553.796 -4.8018 -1.49788 0
M  V30 5900 H 553.496 -5.87501 -0.107968 0
M  V30 5901 H 555.02 -6.01862 -1.02927 0
M  V30 5902 H 556.434 -5.6051 1.20421 0
M  V30 5903 H 554.831 -5.66022 1.99347 0
M  V30 5904 H 555.901 -4.27701 2.28474 0
M  V30 5905 N 557.244 -0.608902 -1.45362 0
M  V30 5906 C 558.154 0.110969 -2.34337 0
M  V30 5907 C 559.17 0.859007 -1.51318 0
M  V30 5908 O 560.346 0.816296 -1.84116 0
M  V30 5909 C 557.411 1.09494 -3.28956 0
M  V30 5910 C 556.472 0.348718 -4.27881 0
M  V30 5911 C 555.705 1.28582 -5.17979 0
M  V30 5912 O 555.928 2.52369 -5.11533 0
M  V30 5913 O 554.862 0.782172 -5.96796 0
M  V30 5914 H 558.688 -0.620258 -2.97299 0
M  V30 5915 H 556.273 -0.36916 -1.44767 0
M  V30 5916 H 558.155 1.66163 -3.87257 0
M  V30 5917 H 556.83 1.80717 -2.68557 0
M  V30 5918 H 555.737 -0.260465 -3.73192 0
M  V30 5919 H 557.07 -0.323049 -4.91139 0
M  V30 5920 N 558.722 1.53707 -0.348139 0
M  V30 5921 C 560.133 1.86213 0.134797 0
M  V30 5922 C 560.484 1.26925 1.49614 0
M  V30 5923 O 559.609 0.584573 2.08355 0
M  V30 5924 C 560.204 3.37866 0.251371 0
M  V30 5925 C 558.763 3.70233 0.678543 0
M  V30 5926 C 557.91 2.76683 -0.184925 0
M  V30 5927 H 560.861 1.48204 -0.567571 0
M  V30 5928 H 560.882 3.64908 1.07806 0
M  V30 5929 H 560.394 3.80988 -0.739581 0
M  V30 5930 H 558.495 3.32659 1.67835 0
M  V30 5931 H 558.608 4.76836 0.465251 0
M  V30 5932 H 556.972 2.52374 0.343465 0
M  V30 5933 H 557.755 3.22635 -1.1731 0
M  V30 5934 N 560.2 0.0768682 1.57412 0
M  V30 5935 C 561.132 -0.918248 2.10002 0
M  V30 5936 C 562.145 -1.25808 1.03325 0
M  V30 5937 O 563.334 -1.21438 1.30824 0
M  V30 5938 C 560.434 -2.23263 2.54964 0
M  V30 5939 C 559.607 -2.07088 3.8527 0
M  V30 5940 C 558.666 -3.21876 4.16272 0
M  V30 5941 O 557.692 -2.96643 4.8579 0
M  V30 5942 N 558.894 -4.4712 3.70221 0
M  V30 5943 H 561.659 -0.469209 2.96004 0
M  V30 5944 H 559.22 -0.108725 1.61535 0
M  V30 5945 H 561.212 -2.9897 2.72762 0
M  V30 5946 H 559.782 -2.59649 1.74072 0
M  V30 5947 H 559.002 -1.15818 3.76802 0
M  V30 5948 H 560.29 -1.93537 4.70554 0
M  V30 5949 H 559.688 -4.70506 3.1407 0
M  V30 5950 H 558.245 -5.19837 3.93209 0
M  V30 5951 N 561.678 -1.56367 -0.196722 0
M  V30 5952 C 562.906 -1.84639 -0.933608 0
M  V30 5953 C 563.321 -0.659164 -1.76919 0
M  V30 5954 O 562.678 0.372142 -1.78665 0
M  V30 5955 C 562.729 -3.11694 -1.83109 0
M  V30 5956 O 562.45 -4.25838 -1.02924 0
M  V30 5957 C 563.951 -3.53132 -2.67979 0
M  V30 5958 H 561.171 -0.613188 -0.272473 0
M  V30 5959 H 563.715 -2.03475 -0.204465 0
M  V30 5960 H 561.87 -2.94759 -2.51387 0
M  V30 5961 H 562.284 -4.98178 -1.64069 0
M  V30 5962 H 563.758 -4.45005 -3.26611 0
M  V30 5963 H 564.235 -2.76045 -3.41608 0
M  V30 5964 H 564.841 -3.72592 -2.05074 0
M  V30 5965 N 563.156 0.464375 -1.50603 0
M  V30 5966 C 564.384 1.23907 -1.65695 0
M  V30 5967 C 564.799 1.85658 -0.343027 0
M  V30 5968 O 564.156 1.69529 0.675739 0
M  V30 5969 C 564.207 2.3429 -2.75301 0
M  V30 5970 O 563.928 1.7507 -4.01599 0
M  V30 5971 C 565.429 3.25051 -3.01424 0
M  V30 5972 H 562.649 0.374485 -0.556778 0
M  V30 5973 H 565.193 0.55353 -1.96866 0
M  V30 5974 H 563.348 2.98607 -2.46804 0
M  V30 5975 H 563.762 2.47812 -4.62266 0
M  V30 5976 H 565.236 3.98699 -3.81763 0
M  V30 5977 H 565.713 3.84227 -2.12758 0
M  V30 5978 H 566.319 2.66463 -3.31477 0
M  V30 5979 N 564.634 1.40294 0.718013 0
M  V30 5980 C 565.88 1.38645 1.48005 0
M  V30 5981 C 566.213 -0.0121202 1.94196 0
M  V30 5982 O 565.488 -0.980309 1.67989 0
M  V30 5983 C 565.771 2.37379 2.70782 0
M  V30 5984 C 565.624 3.8625 2.30501 0
M  V30 5985 C 566.943 2.33685 3.72933 0
M  V30 5986 H 564.062 0.504928 0.536858 0
M  V30 5987 H 566.704 1.71411 0.819649 0
M  V30 5988 H 564.854 2.09568 3.27129 0
M  V30 5989 H 566.526 4.24879 1.79655 0
M  V30 5990 H 564.769 4.02202 1.6253 0
M  V30 5991 H 565.44 4.50847 3.18498 0
M  V30 5992 H 567.916 2.58314 3.2621 0
M  V30 5993 H 566.792 3.0482 4.56482 0
M  V30 5994 H 567.053 1.34765 4.21059 0
M  V30 5995 N 566.112 -0.949982 1.2575 0
M  V30 5996 C 567.361 -1.68956 1.10168 0
M  V30 5997 C 567.674 -1.92327 -0.356309 0
M  V30 5998 O 568.88 -2.64026 -0.632657 0
M  V30 5999 C 567.336 -3.04196 1.92336 0
M  V30 6000 C 566.944 -2.88603 3.42655 0
M  V30 6001 C 568.688 -3.81904 1.85336 0
M  V30 6002 C 566.595 -4.19262 4.17101 0
M  V30 6003 H 565.525 -0.633645 0.408668 0
M  V30 6004 H 568.176 -1.05719 1.49986 0
M  V30 6005 H 566.558 -3.68363 1.45344 0
M  V30 6006 H 567.732 -2.3334 3.97353 0
M  V30 6007 H 566.047 -2.24345 3.50796 0
M  V30 6008 H 568.644 -4.78688 2.38248 0
M  V30 6009 H 568.987 -4.08099 0.822226 0
M  V30 6010 H 569.52 -3.24495 2.30104 0
M  V30 6011 H 566.259 -3.98254 5.20648 0
M  V30 6012 H 565.779 -4.74273 3.67186 0
M  V30 6013 H 567.458 -4.87775 4.25071 0
M  V30 6014 N 567.59 -1.07411 -1.15328 0
M  V30 6015 C 568.54 -0.664788 -2.18093 0
M  V30 6016 C 569.524 0.310395 -1.57878 0
M  V30 6017 O 570.716 0.124026 -1.76565 0
M  V30 6018 C 567.845 -0.0647822 -3.43239 0
M  V30 6019 C 566.931 -1.06514 -4.10506 0
M  V30 6020 N 567.322 -2.24491 -4.53252 0
M  V30 6021 C 565.62 -0.898613 -4.36853 0
M  V30 6022 C 566.321 -2.8796 -5.05424 0
M  V30 6023 N 565.297 -2.15622 -4.99007 0
M  V30 6024 H 569.099 -1.56333 -2.48872 0
M  V30 6025 H 566.613 -0.947393 -1.31902 0
M  V30 6026 H 568.61 0.246363 -4.16171 0
M  V30 6027 H 567.27 0.828866 -3.13943 0
M  V30 6028 H 568.281 -2.62205 -4.46619 0
M  V30 6029 H 564.958 -0.0579118 -4.1746 0
M  V30 6030 H 566.348 -3.88137 -5.48452 0
M  V30 6031 N 569.068 1.32177 -0.85831 0
M  V30 6032 C 570.016 2.30729 -0.294442 0
M  V30 6033 C 571.01 1.59009 0.584165 0
M  V30 6034 O 572.216 1.73713 0.471562 0
M  V30 6035 H 568.591 0.748097 -0.0765171 0
M  V30 6036 H 570.562 2.75774 -1.1398 0
M  V30 6037 C 569.311 3.44098 0.499208 0
M  V30 6038 H 568.634 3.99449 -0.167579 0
M  V30 6039 H 570.074 4.15202 0.859273 0
M  V30 6040 C 568.533 2.91684 1.68588 0
M  V30 6041 O 569.063 2.89481 2.78503 0
M  V30 6042 N 567.269 2.48036 1.51415 0
M  V30 6043 H 566.816 2.50027 0.620006 0
M  V30 6044 H 566.774 2.13322 2.30957 0
M  V30 6045 N 570.547 0.616602 1.45037 0
M  V30 6046 C 571.958 0.199359 1.85633 0
M  V30 6047 C 572.309 -1.24588 1.51566 0
M  V30 6048 O 571.434 -1.94594 0.94668 0
M  V30 6049 C 572.029 0.355033 3.36935 0
M  V30 6050 C 570.588 -0.00758748 3.76399 0
M  V30 6051 C 569.735 0.675256 2.68953 0
M  V30 6052 H 572.686 0.822708 1.3571 0
M  V30 6053 H 572.707 -0.410201 3.78282 0
M  V30 6054 H 572.219 1.40699 3.61698 0
M  V30 6055 H 570.32 -1.05837 3.57252 0
M  V30 6056 H 570.433 0.392346 4.77491 0
M  V30 6057 H 568.797 0.111992 2.54454 0
M  V30 6058 H 569.58 1.72952 2.96551 0
M  V30 6059 N 572.025 -1.5352 0.356285 0
M  V30 6060 C 573.271 -2.01414 -0.236653 0
M  V30 6061 C 573.604 -1.24339 -1.49176 0
M  V30 6062 O 572.879 -0.334496 -1.91602 0
M  V30 6063 C 573.162 -3.56059 -0.537982 0
M  V30 6064 C 573.015 -4.43835 0.730112 0
M  V30 6065 C 574.334 -4.19127 -1.34239 0
M  V30 6066 H 571.453 -0.732135 -0.0845386 0
M  V30 6067 H 574.095 -1.83854 0.479341 0
M  V30 6068 H 572.245 -3.71153 -1.14795 0
M  V30 6069 H 573.917 -4.40555 1.36782 0
M  V30 6070 H 572.16 -4.1218 1.3524 0
M  V30 6071 H 572.831 -5.49958 0.474358 0
M  V30 6072 H 575.307 -4.07809 -0.826498 0
M  V30 6073 H 574.183 -5.27378 -1.52198 0
M  V30 6074 H 574.444 -3.74581 -2.34822 0
M  V30 6075 N 573.503 -0.0852151 -1.57369 0
M  V30 6076 C 574.78 0.622534 -1.85429 0
M  V30 6077 C 575.16 1.86962 -0.980229 0
M  V30 6078 O 574.508 2.28445 -0.0500219 0
M  V30 6079 C 574.718 0.947374 -3.35896 0
M  V30 6080 C 576.066 1.31509 -4.03721 0
M  V30 6081 O 577.09 1.03869 -3.40719 0
M  V30 6082 O 575.949 1.83231 -5.14868 0
M  V30 6083 H 573.043 0.310513 -0.766492 0
M  V30 6084 H 575.589 -0.117164 -1.69295 0
M  V30 6085 H 574.361 0.0622264 -3.91251 0
M  V30 6086 H 573.984 1.74338 -3.5734 0
M  V30 6087 N 574.981 1.5647 0.188427 0
M  V30 6088 C 576.229 1.80655 0.905986 0
M  V30 6089 C 576.55 0.659391 1.83513 0
M  V30 6090 O 575.82 -0.321868 1.93238 0
M  V30 6091 H 574.4 0.666391 0.337538 0
M  V30 6092 H 577.062 1.93949 0.192339 0
M  V30 6093 H 576.158 2.74066 1.49313 0
M  V30 6094 N 576.459 -0.456382 1.50847 0
M  V30 6095 C 577.708 -1.2042 1.61808 0
M  V30 6096 C 578.021 -1.9278 0.330932 0
M  V30 6097 O 579.227 -2.69612 0.319643 0
M  V30 6098 C 577.683 -2.18891 2.85683 0
M  V30 6099 C 577.291 -1.52267 4.2133 0
M  V30 6100 C 579.035 -2.94224 3.05994 0
M  V30 6101 C 576.942 -2.4911 5.36375 0
M  V30 6102 H 575.872 -0.453177 0.602616 0
M  V30 6103 H 578.523 -0.473144 1.77295 0
M  V30 6104 H 576.905 -2.95351 2.63787 0
M  V30 6105 H 578.079 -0.814949 4.53536 0
M  V30 6106 H 576.394 -0.891594 4.06743 0
M  V30 6107 H 578.991 -3.66732 3.89117 0
M  V30 6108 H 579.334 -3.54469 2.18306 0
M  V30 6109 H 579.867 -2.24874 3.28141 0
M  V30 6110 H 576.606 -1.93582 6.26264 0
M  V30 6111 H 576.126 -3.17991 5.08569 0
M  V30 6112 H 577.805 -3.10637 5.67551 0
M  V30 6113 N 577.937 -1.40673 -0.710563 0
M  V30 6114 C 578.884 -1.41336 -1.82463 0
M  V30 6115 C 579.854 -0.269648 -1.63897 0
M  V30 6116 O 581.039 -0.468463 -1.8496 0
M  V30 6117 C 578.179 -1.28665 -3.20218 0
M  V30 6118 C 577.292 -2.52784 -3.5032 0
M  V30 6119 C 576.427 -2.32517 -4.77608 0
M  V30 6120 C 575.466 -3.52187 -5.0063 0
M  V30 6121 N 574.603 -3.31084 -6.19135 0
M  V30 6122 H 579.443 -2.36558 -1.8123 0
M  V30 6123 H 576.98 -1.17483 -0.885226 0
M  V30 6124 H 578.938 -1.19324 -3.99772 0
M  V30 6125 H 577.568 -0.370602 -3.20666 0
M  V30 6126 H 576.62 -2.72634 -2.65283 0
M  V30 6127 H 577.932 -3.41845 -3.63241 0
M  V30 6128 H 577.086 -2.20558 -5.65189 0
M  V30 6129 H 575.825 -1.40889 -4.66906 0
M  V30 6130 H 574.83 -3.64617 -4.11502 0
M  V30 6131 H 576.055 -4.44749 -5.13201 0
M  V30 6132 H 574.001 -2.42143 -6.09674 0
M  V30 6133 H 573.918 -4.13713 -6.32754 0
M  V30 6134 H 575.186 -3.22868 -7.0949 0
M  V30 6135 N 579.415 0.9433 -1.26252 0
M  V30 6136 C 580.325 2.07532 -1.09397 0
M  V30 6137 C 581.341 1.73977 -0.0280449 0
M  V30 6138 O 582.517 2.00067 -0.231337 0
M  V30 6139 C 579.582 3.39002 -0.726523 0
M  V30 6140 C 578.643 3.86353 -1.87163 0
M  V30 6141 C 577.876 5.11549 -1.52162 0
M  V30 6142 O 578.099 5.68834 -0.422385 0
M  V30 6143 O 577.033 5.53889 -2.35565 0
M  V30 6144 H 580.859 2.24658 -2.04359 0
M  V30 6145 H 578.444 1.05988 -1.05295 0
M  V30 6146 H 580.326 4.18 -0.534236 0
M  V30 6147 H 579.001 3.2312 0.193721 0
M  V30 6148 H 577.908 3.0831 -2.11886 0
M  V30 6149 H 579.241 4.06752 -2.77152 0
M  V30 6150 N 580.893 1.08022 1.14757 0
M  V30 6151 C 582.118 0.82895 1.90114 0
M  V30 6152 C 582.543 -0.612772 1.77839 0
M  V30 6153 O 581.901 -1.42895 1.11583 0
M  V30 6154 C 581.949 1.25062 3.38219 0
M  V30 6155 O 581.053 0.400119 4.10454 0
M  V30 6156 H 580.394 0.301412 0.591648 0
M  V30 6157 H 582.924 1.44062 1.45284 0
M  V30 6158 H 582.934 1.22977 3.89025 0
M  V30 6159 H 581.609 2.30067 3.46471 0
M  V30 6160 H 580.186 0.484052 3.69745 0
M  V30 6161 N 582.371 -1.3172 0.865308 0
M  V30 6162 C 583.596 -2.01591 0.487415 0
M  V30 6163 C 584.021 -1.6455 -0.911307 0
M  V30 6164 O 583.379 -0.851689 -1.6005 0
M  V30 6165 C 583.427 -3.54759 0.646401 0
M  V30 6166 O 582.531 -4.11185 -0.316284 0
M  V30 6167 H 581.872 -0.634884 0.194468 0
M  V30 6168 H 584.402 -1.68024 1.16744 0
M  V30 6169 H 584.412 -4.04438 0.537932 0
M  V30 6170 H 583.087 -3.8106 1.66632 0
M  V30 6171 H 581.664 -3.72543 -0.163162 0
M  V30 6172 N 583.85 -0.624285 -1.44708 0
M  V30 6173 C 585.127 -0.0572781 -1.95516 0
M  V30 6174 C 585.507 1.41516 -1.56641 0
M  V30 6175 O 584.855 2.12614 -0.837111 0
M  V30 6176 C 585.065 -0.272944 -3.47931 0
M  V30 6177 C 586.413 -0.162529 -4.24289 0
M  V30 6178 O 587.437 -0.203946 -3.55616 0
M  V30 6179 O 586.296 -0.0616847 -5.46465 0
M  V30 6180 H 583.389 0.0262219 -0.826584 0
M  V30 6181 H 585.936 -0.695512 -1.54793 0
M  V30 6182 H 584.707 -1.29492 -3.69253 0
M  V30 6183 H 584.331 0.399756 -3.95585 0
M  V30 6184 N 585.328 1.53329 -0.364422 0
M  V30 6185 C 586.553 2.06132 0.229033 0
M  V30 6186 C 586.978 1.23625 1.41769 0
M  V30 6187 O 586.336 0.255038 1.79497 0
M  V30 6188 C 586.384 3.55544 0.60174 0
M  V30 6189 O 585.488 3.75771 1.69912 0
M  V30 6190 H 584.829 0.663148 0.0336213 0
M  V30 6191 H 587.359 1.97758 -0.524689 0
M  V30 6192 H 587.369 3.98549 0.873073 0
M  V30 6193 H 586.044 4.15039 -0.267421 0
M  V30 6194 H 584.621 3.44663 1.42343 0
M  V30 6195 N 586.806 0.0935595 1.57322 0
M  V30 6196 C 587.769 -0.851426 2.12799 0
M  V30 6197 C 588.769 -1.21187 1.0569 0
M  V30 6198 O 589.959 -1.14156 1.31583 0
M  V30 6199 C 587.091 -2.14779 2.64731 0
M  V30 6200 H 588.284 -0.369733 2.97612 0
M  V30 6201 H 585.837 -0.155417 1.55525 0
M  V30 6202 H 586.572 -2.67437 1.83434 0
M  V30 6203 H 586.357 -1.89907 3.43042 0
M  V30 6204 H 587.847 -2.82383 3.07651 0
M  V30 6205 N 588.284 -1.56567 -0.180126 0
M  V30 6206 C 589.232 -1.96632 -1.24251 0
M  V30 6207 C 590.226 -0.853818 -1.46309 0
M  V30 6208 O 591.432 -1.0389 -1.46993 0
M  V30 6209 H 587.807 -0.625476 -0.417473 0
M  V30 6210 H 589.778 -2.85201 -0.877679 0
M  V30 6211 C 588.527 -2.33486 -2.57642 0
M  V30 6212 H 587.85 -3.18626 -2.4149 0
M  V30 6213 H 589.29 -2.65371 -3.30688 0
M  V30 6214 C 587.749 -1.17499 -3.15746 0
M  V30 6215 O 588.279 -0.457956 -3.99081 0
M  V30 6216 N 586.485 -0.94786 -2.74707 0
M  V30 6217 H 586.032 -1.53269 -2.07042 0
M  V30 6218 H 585.99 -0.173626 -3.1392 0
M  V30 6219 N 589.762 0.448376 -1.51087 0
M  V30 6220 C 590.99 1.22143 -1.66999 0
M  V30 6221 C 591.405 1.85283 -0.362699 0
M  V30 6222 O 590.762 1.70236 0.65772 0
M  V30 6223 C 590.813 2.31357 -2.7777 0
M  V30 6224 O 590.534 1.70801 -4.03434 0
M  V30 6225 C 592.035 3.21836 -3.04855 0
M  V30 6226 H 589.255 0.368558 -0.560719 0
M  V30 6227 H 591.799 0.532618 -1.97442 0
M  V30 6228 H 589.954 2.95973 -2.49958 0
M  V30 6229 H 590.368 2.42895 -4.64868 0
M  V30 6230 H 591.842 3.94627 -3.85971 0
M  V30 6231 H 592.319 3.81949 -2.16821 0
M  V30 6232 H 592.925 2.62933 -3.34285 0
M  V30 6233 N 591.24 1.41047 0.703093 0
M  V30 6234 C 592.468 1.4334 1.49202 0
M  V30 6235 C 592.883 0.0365596 1.88765 0
M  V30 6236 O 592.24 -0.942419 1.56284 0
M  V30 6237 C 592.291 2.33538 2.75939 0
M  V30 6238 O 592.012 3.67786 2.38045 0
M  V30 6239 C 593.513 2.44555 3.6974 0
M  V30 6240 H 590.733 0.488472 0.460039 0
M  V30 6241 H 593.277 1.85245 0.86629 0
M  V30 6242 H 591.432 1.94962 3.34766 0
M  V30 6243 H 591.846 4.15816 3.19683 0
M  V30 6244 H 593.32 3.11849 4.55471 0
M  V30 6245 H 593.797 1.47447 4.1371 0
M  V30 6246 H 594.403 2.83735 3.16819 0
M  V30 6247 N 592.718 -0.936591 1.26751 0
M  V30 6248 C 593.967 -1.67778 1.11953 0
M  V30 6249 C 594.28 -1.92694 -0.33589 0
M  V30 6250 O 595.486 -2.64682 -0.604618 0
M  V30 6251 C 593.942 -3.02138 1.95551 0
M  V30 6252 C 593.55 -2.84953 3.45696 0
M  V30 6253 C 595.294 -3.79917 1.89377 0
M  V30 6254 C 593.201 -4.14814 4.21525 0
M  V30 6255 H 592.131 -0.629275 0.415366 0
M  V30 6256 H 594.782 -1.04122 1.51099 0
M  V30 6257 H 593.164 -3.668 1.49243 0
M  V30 6258 H 594.338 -2.29112 3.99805 0
M  V30 6259 H 592.653 -2.20612 3.53156 0
M  V30 6260 H 595.25 -4.76134 2.43312 0
M  V30 6261 H 595.593 -4.07204 0.865464 0
M  V30 6262 H 596.126 -3.22037 2.33532 0
M  V30 6263 H 592.865 -3.92709 5.24843 0
M  V30 6264 H 592.385 -4.70352 3.72195 0
M  V30 6265 H 594.064 -4.83239 4.3022 0
M  V30 6266 N 594.196 -1.08629 -1.14182 0
M  V30 6267 C 595.106 -0.730126 -2.22949 0
M  V30 6268 C 596.122 0.26436 -1.7198 0
M  V30 6269 O 597.298 0.107742 -2.01112 0
M  V30 6270 C 594.363 -0.147227 -3.46387 0
M  V30 6271 C 593.424 -1.19662 -4.12286 0
M  V30 6272 C 592.657 -0.641437 -5.29831 0
M  V30 6273 O 592.88 0.538351 -5.67854 0
M  V30 6274 O 591.814 -1.39257 -5.85569 0
M  V30 6275 H 595.64 -1.63753 -2.55771 0
M  V30 6276 H 593.225 -0.860118 -1.22157 0
M  V30 6277 H 595.107 0.174923 -4.21037 0
M  V30 6278 H 593.782 0.733304 -3.15285 0
M  V30 6279 H 592.689 -1.57133 -3.395 0
M  V30 6280 H 594.022 -2.0495 -4.475 0
M  V30 6281 N 595.674 1.31259 -0.872281 0
M  V30 6282 C 596.951 1.91362 -0.404943 0
M  V30 6283 C 597.331 1.79362 1.11321 0
M  V30 6284 O 596.679 1.20277 1.94283 0
M  V30 6285 C 596.889 3.3749 -0.888893 0
M  V30 6286 C 598.237 4.14593 -0.916384 0
M  V30 6287 O 599.261 3.46282 -0.834701 0
M  V30 6288 O 598.12 5.3661 -1.03498 0
M  V30 6289 H 595.214 0.818016 -0.121569 0
M  V30 6290 H 597.76 1.39912 -0.960346 0
M  V30 6291 H 596.532 3.40249 -1.93251 0
M  V30 6292 H 596.155 3.96375 -0.311932 0
M  V30 6293 N 597.152 0.631951 1.44375 0
M  V30 6294 C 598.062 -0.073674 2.34484 0
M  V30 6295 C 599.078 -0.834825 1.52665 0
M  V30 6296 O 600.254 -0.786902 1.85391 0
M  V30 6297 C 597.319 -1.04247 3.30656 0
M  V30 6298 C 596.38 -0.280602 4.28382 0
M  V30 6299 C 595.613 -1.20325 5.19959 0
M  V30 6300 O 595.836 -2.44199 5.15484 0
M  V30 6301 O 594.77 -0.687128 5.97965 0
M  V30 6302 H 598.596 0.667477 2.96274 0
M  V30 6303 H 596.181 0.392144 1.44162 0
M  V30 6304 H 598.063 -1.59981 3.89851 0
M  V30 6305 H 596.738 -1.76422 2.71398 0
M  V30 6306 H 595.645 0.319804 3.72731 0
M  V30 6307 H 596.978 0.401144 4.90563 0
M  V30 6308 N 598.631 -1.53133 0.372548 0
M  V30 6309 C 599.908 -1.93704 -0.271693 0
M  V30 6310 C 600.288 -1.30667 -1.65799 0
M  V30 6311 O 599.636 -0.46838 -2.23648 0
M  V30 6312 C 599.846 -3.47576 -0.314903 0
M  V30 6313 C 601.194 -4.20998 -0.551912 0
M  V30 6314 O 602.218 -3.53994 -0.39582 0
M  V30 6315 O 601.077 -5.39748 -0.85639 0
M  V30 6316 H 598.171 -0.810457 -0.164586 0
M  V30 6317 H 600.717 -1.6427 0.425838 0
M  V30 6318 H 599.489 -3.85749 0.656792 0
M  V30 6319 H 599.112 -3.83264 -1.05804 0
M  V30 6320 N 600.109 -0.101901 -1.5727 0
M  V30 6321 C 601.072 0.840129 -2.13247 0
M  V30 6322 C 602.072 1.20625 -1.06331 0
M  V30 6323 O 603.262 1.13456 -1.32186 0
M  V30 6324 C 600.394 2.13372 -2.65867 0
M  V30 6325 H 601.587 0.353945 -2.97804 0
M  V30 6326 H 599.14 0.147167 -1.55606 0
M  V30 6327 H 599.875 2.66461 -1.84849 0
M  V30 6328 H 599.66 1.88085 -3.44044 0
M  V30 6329 H 601.15 2.80748 -3.09145 0
M  V30 6330 N 601.587 1.56661 0.17182 0
M  V30 6331 C 602.534 1.96371 1.21273 0
M  V30 6332 C 603.504 0.82756 1.44016 0
M  V30 6333 O 604.689 1.08764 1.56764 0
M  V30 6334 C 601.829 2.32838 2.54716 0
M  V30 6335 C 600.942 3.59628 2.39356 0
M  V30 6336 C 600.077 3.85311 3.65662 0
M  V30 6337 C 599.116 5.0545 3.45234 0
M  V30 6338 N 598.253 5.27268 4.63608 0
M  V30 6339 H 603.093 2.85106 0.86709 0
M  V30 6340 H 600.63 1.41073 0.416744 0
M  V30 6341 H 602.588 2.52004 3.3249 0
M  V30 6342 H 601.218 1.47214 2.87277 0
M  V30 6343 H 600.27 3.4838 1.52761 0
M  V30 6344 H 601.582 4.4756 2.20207 0
M  V30 6345 H 600.736 4.04841 4.51872 0
M  V30 6346 H 599.475 2.95753 3.8779 0
M  V30 6347 H 598.48 4.85819 2.5741 0
M  V30 6348 H 599.705 5.96538 3.24529 0
M  V30 6349 H 597.651 4.40662 4.85956 0
M  V30 6350 H 597.568 6.09422 4.4737 0
M  V30 6351 H 598.836 5.51277 5.51103 0
M  V30 6352 N 603.065 -0.440357 1.51323 0
M  V30 6353 C 604.028 -1.51679 1.71832 0
M  V30 6354 C 605.028 -1.49648 0.588386 0
M  V30 6355 O 606.218 -1.51724 0.855891 0
M  V30 6356 C 603.35 -2.91228 1.77199 0
M  V30 6357 H 604.543 -1.34799 2.67898 0
M  V30 6358 H 602.096 -0.66883 1.41267 0
M  V30 6359 H 602.831 -3.13516 0.829363 0
M  V30 6360 H 602.616 -2.94107 2.59314 0
M  V30 6361 H 604.106 -3.69321 1.94915 0
M  V30 6362 N 604.543 -1.41418 -0.695603 0
M  V30 6363 C 605.954 -1.36335 -1.27552 0
M  V30 6364 C 606.305 -0.0464336 -1.96145 0
M  V30 6365 O 605.43 0.855304 -1.9878 0
M  V30 6366 C 606.025 -2.46941 -2.3196 0
M  V30 6367 C 604.584 -2.45256 -2.85529 0
M  V30 6368 C 603.731 -2.2679 -1.59566 0
M  V30 6369 H 606.682 -1.50934 -0.490362 0
M  V30 6370 H 606.703 -2.15997 -3.1325 0
M  V30 6371 H 606.215 -3.42775 -1.82008 0
M  V30 6372 H 604.316 -1.53179 -3.39657 0
M  V30 6373 H 604.429 -3.41565 -3.35961 0
M  V30 6374 H 602.793 -1.74667 -1.85374 0
M  V30 6375 H 603.576 -3.24651 -1.1161 0
M  V30 6376 N 606.021 0.929856 -1.27246 0
M  V30 6377 C 607.437 1.20542 -1.04603 0
M  V30 6378 C 607.637 2.00276 0.221754 0
M  V30 6379 O 606.693 2.34835 0.927833 0
M  V30 6380 C 608.006 1.95566 -2.28417 0
M  V30 6381 C 609.554 2.08513 -2.33433 0
M  V30 6382 C 610.029 2.86943 -3.5697 0
M  V30 6383 N 611.52 2.94512 -3.57515 0
M  V30 6384 C 612.255 3.55656 -4.49774 0
M  V30 6385 N 611.751 4.18209 -5.52334 0
M  V30 6386 N 613.544 3.53038 -4.37402 0
M  V30 6387 H 605.695 0.397113 -2.08655 0
M  V30 6388 H 607.958 0.238277 -0.917566 0
M  V30 6389 H 607.664 1.44395 -3.20691 0
M  V30 6390 H 607.538 2.9619 -2.33563 0
M  V30 6391 H 609.925 2.58872 -1.41666 0
M  V30 6392 H 610.006 1.07117 -2.32292 0
M  V30 6393 H 609.65 2.37268 -4.49072 0
M  V30 6394 H 609.58 3.8862 -3.55362 0
M  V30 6395 H 612.071 2.50053 -2.83341 0
M  V30 6396 H 612.384 4.62796 -6.18902 0
M  V30 6397 H 610.729 4.16761 -5.56179 0
M  V30 6398 H 613.92 3.0337 -3.56489 0
M  V30 6399 H 614.093 4.004 -5.09493 0
M  V30 6400 N 607.499 1.09233 1.13605 0
M  V30 6401 C 608.745 0.828385 1.8511 0
M  V30 6402 C 609.078 -0.64437 1.83198 0
M  V30 6403 O 608.353 -1.47428 1.26867 0
M  V30 6404 C 608.636 1.36167 3.33363 0
M  V30 6405 C 608.489 2.90038 3.438 0
M  V30 6406 C 609.808 0.993819 4.28732 0
M  V30 6407 H 606.927 0.30239 0.672108 0
M  V30 6408 H 609.569 1.35339 1.33355 0
M  V30 6409 H 607.719 0.9151 3.77569 0
M  V30 6410 H 609.391 3.43128 3.08319 0
M  V30 6411 H 607.634 3.27271 2.84739 0
M  V30 6412 H 608.305 3.22428 4.48045 0
M  V30 6413 H 610.781 1.37893 3.92587 0
M  V30 6414 H 609.657 1.39403 5.30903 0
M  V30 6415 H 609.918 -0.0982206 4.41991 0
M  V30 6416 N 608.977 -1.30795 0.87923 0
M  V30 6417 C 610.388 -1.78535 0.546093 0
M  V30 6418 C 610.739 -1.72354 -0.937467 0
M  V30 6419 O 609.864 -1.2969 -1.73233 0
M  V30 6420 C 610.459 -3.24181 0.9845 0
M  V30 6421 C 609.018 -3.69779 0.702871 0
M  V30 6422 C 608.165 -2.51377 1.17068 0
M  V30 6423 H 611.116 -1.17746 1.06403 0
M  V30 6424 H 611.137 -3.79227 0.311045 0
M  V30 6425 H 610.649 -3.28647 2.06429 0
M  V30 6426 H 608.75 -3.70806 -0.365166 0
M  V30 6427 H 608.863 -4.61507 1.28639 0
M  V30 6428 H 607.227 -2.47768 0.590172 0
M  V30 6429 H 608.01 -2.58584 2.25808 0
M  V30 6430 N 610.455 -0.639598 -1.44038 0
M  V30 6431 C 611.732 -0.078012 -1.95444 0
M  V30 6432 C 612.112 1.39847 -1.58133 0
M  V30 6433 O 611.46 2.11714 -0.859614 0
M  V30 6434 C 611.67 -0.309832 -3.47622 0
M  V30 6435 C 613.018 -0.207521 -4.24093 0
M  V30 6436 O 614.042 -0.241653 -3.55379 0
M  V30 6437 O 612.901 -0.119641 -5.46369 0
M  V30 6438 H 609.995 0.0174534 -0.826816 0
M  V30 6439 H 612.541 -0.711891 -1.54046 0
M  V30 6440 H 611.313 -1.33401 -3.67858 0
M  V30 6441 H 610.936 0.357777 -3.95987 0
M  V30 6442 N 611.933 1.52934 -0.380664 0
M  V30 6443 C 613.182 2.00651 0.205477 0
M  V30 6444 C 613.495 1.27164 1.48623 0
M  V30 6445 O 614.701 1.65547 2.15189 0
M  V30 6446 C 613.157 3.57479 0.416726 0
M  V30 6447 C 612.765 4.39857 -0.850268 0
M  V30 6448 C 614.509 4.13509 0.959702 0
M  V30 6449 C 612.416 5.88269 -0.607773 0
M  V30 6450 H 611.346 0.749684 0.0805614 0
M  V30 6451 H 613.997 1.76508 -0.501732 0
M  V30 6452 H 612.379 3.77836 1.18557 0
M  V30 6453 H 613.553 4.31269 -1.62307 0
M  V30 6454 H 611.868 3.95005 -1.31756 0
M  V30 6455 H 614.465 5.22039 1.15669 0
M  V30 6456 H 614.808 3.69054 1.92626 0
M  V30 6457 H 615.341 3.9701 0.250645 0
M  V30 6458 H 612.08 6.3703 -1.54509 0
M  V30 6459 H 611.6 5.99667 0.126247 0
M  V30 6460 H 613.279 6.46558 -0.239014 0
M  V30 6461 N 613.412 0.11024 1.57214 0
M  V30 6462 C 614.342 -0.840002 2.17867 0
M  V30 6463 C 615.323 -1.28352 1.11624 0
M  V30 6464 O 616.508 -1.3477 1.39824 0
M  V30 6465 C 613.638 -2.09349 2.77111 0
M  V30 6466 C 612.592 -1.78807 3.8886 0
M  V30 6467 C 611.918 -3.11112 4.34872 0
M  V30 6468 C 613.218 -1.0632 5.11364 0
M  V30 6469 H 614.912 -0.334608 2.97524 0
M  V30 6470 H 612.458 -0.159502 1.43114 0
M  V30 6471 H 614.411 -2.76275 3.18198 0
M  V30 6472 H 613.135 -2.62198 1.9473 0
M  V30 6473 H 611.794 -1.14273 3.48335 0
M  V30 6474 H 611.442 -3.61877 3.49362 0
M  V30 6475 H 611.142 -2.91453 5.10224 0
M  V30 6476 H 612.666 -3.79171 4.78604 0
M  V30 6477 H 614.08 -1.63383 5.49526 0
M  V30 6478 H 612.477 -0.967876 5.92243 0
M  V30 6479 H 613.547 -0.0484569 4.84876 0
M  V30 6480 N 614.89 -1.56749 -0.16351 0
M  V30 6481 C 616.115 -1.86938 -0.898264 0
M  V30 6482 C 616.54 -0.697456 -1.74692 0
M  V30 6483 O 615.898 0.353327 -1.77824 0
M  V30 6484 C 615.946 -3.15599 -1.74441 0
M  V30 6485 O 615.05 -2.98371 -2.8469 0
M  V30 6486 H 614.391 -0.614659 -0.251178 0
M  V30 6487 H 616.921 -2.03979 -0.159298 0
M  V30 6488 H 616.931 -3.47202 -2.14277 0
M  V30 6489 H 615.606 -4.00505 -1.1211 0
M  V30 6490 H 614.183 -2.7814 -2.4838 0
M  V30 6491 N 616.368 0.432326 -1.51554 0
M  V30 6492 C 617.593 1.20824 -1.68571 0
M  V30 6493 C 618.018 1.84126 -0.384596 0
M  V30 6494 O 617.376 1.69025 0.655751 0
M  V30 6495 C 617.424 2.26429 -2.80646 0
M  V30 6496 O 616.528 3.32032 -2.44598 0
M  V30 6497 H 615.869 0.353765 -0.561913 0
M  V30 6498 H 618.399 0.509916 -1.98144 0
M  V30 6499 H 618.409 2.71133 -3.04878 0
M  V30 6500 H 617.084 1.79733 -3.75058 0
M  V30 6501 H 615.661 2.92769 -2.30956 0
M  V30 6502 N 617.846 1.41785 0.688094 0
M  V30 6503 C 619.092 1.41753 1.4503 0
M  V30 6504 C 619.425 0.0290745 1.94178 0
M  V30 6505 O 618.7 -0.944456 1.7003 0
M  V30 6506 C 618.983 2.43069 2.65686 0
M  V30 6507 C 618.836 3.91053 2.22256 0
M  V30 6508 C 620.155 2.41543 3.67893 0
M  V30 6509 H 617.274 0.516202 0.526027 0
M  V30 6510 H 619.916 1.73111 0.783105 0
M  V30 6511 H 618.066 2.1646 3.2261 0
M  V30 6512 H 619.738 4.28594 1.70602 0
M  V30 6513 H 617.981 4.05559 1.53963 0
M  V30 6514 H 618.652 4.57501 3.08863 0
M  V30 6515 H 621.128 2.65175 3.20658 0
M  V30 6516 H 620.004 3.14434 4.49914 0
M  V30 6517 H 620.265 1.43666 4.18106 0
M  V30 6518 N 619.324 -0.923095 1.27737 0
M  V30 6519 C 620.74 -1.19985 1.05241 0
M  V30 6520 C 620.94 -2.00391 -0.21113 0
M  V30 6521 O 619.996 -2.35324 -0.915366 0
M  V30 6522 C 621.309 -1.94352 2.29451 0
M  V30 6523 C 622.857 -2.07273 2.34536 0
M  V30 6524 C 623.332 -2.85046 3.58487 0
M  V30 6525 N 624.823 -2.92612 3.59072 0
M  V30 6526 C 625.558 -3.53266 4.51654 0
M  V30 6527 N 625.054 -4.15274 5.54545 0
M  V30 6528 N 626.847 -3.50714 4.39268 0
M  V30 6529 H 618.998 -0.386042 2.08862 0
M  V30 6530 H 621.261 -0.233407 0.918817 0
M  V30 6531 H 620.967 -1.42692 3.21453 0
M  V30 6532 H 620.841 -2.94947 2.3513 0
M  V30 6533 H 623.228 -2.58117 1.43037 0
M  V30 6534 H 623.309 -1.05884 2.32857 0
M  V30 6535 H 622.953 -2.34884 4.50324 0
M  V30 6536 H 622.883 -3.8673 3.57418 0
M  V30 6537 H 625.374 -2.48547 2.84663 0
M  V30 6538 H 625.687 -4.59507 6.21348 0
M  V30 6539 H 624.032 -4.13806 5.58382 0
M  V30 6540 H 627.223 -3.01475 3.58093 0
M  V30 6541 H 627.396 -3.97693 5.1161 0
M  V30 6542 N 620.802 -1.09834 -1.13024 0
M  V30 6543 C 622.218 -0.828875 -1.36388 0
M  V30 6544 C 622.418 0.554756 -1.93713 0
M  V30 6545 O 621.474 1.30882 -2.15931 0
M  V30 6546 C 622.787 -1.92352 -2.3113 0
M  V30 6547 C 624.335 -1.95124 -2.44735 0
M  V30 6548 C 624.81 -3.03745 -3.42787 0
M  V30 6549 N 626.301 -3.03012 -3.5034 0
M  V30 6550 C 627.036 -3.83699 -4.26101 0
M  V30 6551 N 626.532 -4.74306 -5.04981 0
M  V30 6552 N 628.325 -3.71942 -4.21445 0
M  V30 6553 H 620.476 -1.99029 -0.74169 0
M  V30 6554 H 622.739 -0.864557 -0.388903 0
M  V30 6555 H 622.445 -2.91906 -1.96172 0
M  V30 6556 H 622.319 -1.80536 -3.3119 0
M  V30 6557 H 624.706 -0.962069 -2.78977 0
M  V30 6558 H 624.787 -2.11018 -1.44586 0
M  V30 6559 H 624.431 -4.02878 -3.09276 0
M  V30 6560 H 624.361 -2.85094 -4.42752 0
M  V30 6561 H 626.852 -2.37352 -2.94062 0
M  V30 6562 H 627.165 -5.32446 -5.60108 0
M  V30 6563 H 625.51 -4.78339 -5.04199 0
M  V30 6564 H 628.701 -3.00513 -3.589 0
M  V30 6565 H 628.874 -4.35062 -4.80235 0
M  V30 6566 N 622.28 1.30327 -0.886154 0
M  V30 6567 C 623.528 1.9571 -0.504195 0
M  V30 6568 C 623.849 1.70294 0.950003 0
M  V30 6569 O 623.119 1.02718 1.66811 0
M  V30 6570 H 621.699 0.72412 -0.183465 0
M  V30 6571 H 624.361 1.58835 -1.12949 0
M  V30 6572 H 623.457 3.04704 -0.675431 0
M  V30 6573 N 623.758 0.647228 1.43697 0
M  V30 6574 C 624.983 0.164083 2.0675 0
M  V30 6575 C 625.408 -1.15892 1.48158 0
M  V30 6576 O 624.766 -1.71459 0.589194 0
M  V30 6577 C 624.814 0.0800368 3.60511 0
M  V30 6578 O 623.918 -0.959453 4.01084 0
M  V30 6579 H 623.259 0.0921288 0.657578 0
M  V30 6580 H 625.789 0.88846 1.84303 0
M  V30 6581 H 625.799 -0.105263 4.07864 0
M  V30 6582 H 624.474 1.04586 4.02535 0
M  V30 6583 H 623.051 -0.747425 3.65333 0
M  V30 6584 N 625.236 -1.5273 0.388769 0
M  V30 6585 C 626.484 -2.01174 -0.193208 0
M  V30 6586 C 626.805 -1.27705 -1.47365 0
M  V30 6587 O 626.075 -0.396966 -1.91836 0
M  V30 6588 H 624.655 -0.743287 -0.0743871 0
M  V30 6589 H 627.317 -1.87826 0.520336 0
M  V30 6590 H 626.413 -3.09477 -0.403803 0
M  V30 6591 N 626.714 -0.118576 -1.57153 0
M  V30 6592 C 627.677 0.817464 -2.14127 0
M  V30 6593 C 628.677 1.1949 -1.07604 0
M  V30 6594 O 629.867 1.12048 -1.33382 0
M  V30 6595 C 626.999 2.10541 -2.68115 0
M  V30 6596 H 628.192 0.322339 -2.98163 0
M  V30 6597 H 625.745 0.130655 -1.55753 0
M  V30 6598 H 626.48 2.64485 -1.87665 0
M  V30 6599 H 626.265 1.84425 -3.4602 0
M  V30 6600 H 627.755 2.77453 -3.12105 0
M  V30 6601 N 628.193 1.56834 0.155195 0
M  V30 6602 C 629.604 1.72421 0.716082 0
M  V30 6603 C 629.955 0.731685 1.82046 0
M  V30 6604 O 629.08 -0.103481 2.16152 0
M  V30 6605 C 629.675 3.12629 1.30571 0
M  V30 6606 C 628.234 3.29846 1.81325 0
M  V30 6607 C 627.381 2.68359 0.698494 0
M  V30 6608 H 630.332 1.58544 -0.0703861 0
M  V30 6609 H 630.353 3.12174 2.1755 0
M  V30 6610 H 629.865 3.84844 0.501701 0
M  V30 6611 H 627.966 2.62614 2.64319 0
M  V30 6612 H 628.079 4.37727 1.9476 0
M  V30 6613 H 626.443 2.28604 1.12305 0
M  V30 6614 H 627.226 3.43171 -0.0939366 0
M  V30 6615 N 629.671 -0.424282 1.51781 0
M  V30 6616 C 630.581 -1.54087 1.76902 0
M  V30 6617 C 631.597 -1.61249 0.653826 0
M  V30 6618 O 632.773 -1.78247 0.937552 0
M  V30 6619 C 629.838 -2.8996 1.90063 0
M  V30 6620 C 628.899 -2.92809 3.13945 0
M  V30 6621 C 628.132 -4.22201 3.26469 0
M  V30 6622 O 628.355 -5.15286 2.44616 0
M  V30 6623 O 627.289 -4.31599 4.1953 0
M  V30 6624 H 631.115 -1.358 2.71647 0
M  V30 6625 H 628.7 -0.608618 1.36441 0
M  V30 6626 H 630.582 -3.70575 2.0063 0
M  V30 6627 H 629.257 -3.08347 0.985067 0
M  V30 6628 H 628.164 -2.11102 3.08847 0
M  V30 6629 H 629.497 -2.79369 4.05233 0
M  V30 6630 N 631.149 -1.42148 -0.680565 0
M  V30 6631 C 632.112 -1.4488 -1.77602 0
M  V30 6632 C 633.112 -0.337209 -1.57224 0
M  V30 6633 O 634.302 -0.597778 -1.63622 0
M  V30 6634 C 631.434 -1.27483 -3.16166 0
M  V30 6635 H 632.627 -2.42412 -1.76568 0
M  V30 6636 H 630.18 -1.28511 -0.889645 0
M  V30 6637 H 630.915 -0.30851 -3.22829 0
M  V30 6638 H 630.7 -2.08037 -3.3236 0
M  V30 6639 H 632.19 -1.32265 -3.96101 0
M  V30 6640 N 632.627 0.916307 -1.28225 0
M  V30 6641 C 633.537 2.05165 -1.13775 0
M  V30 6642 C 634.553 1.73879 -0.0649418 0
M  V30 6643 O 635.729 1.99531 -0.273722 0
M  V30 6644 C 632.794 3.37385 -0.798267 0
M  V30 6645 C 631.855 3.82296 -1.95316 0
M  V30 6646 C 631.088 5.08206 -1.62978 0
M  V30 6647 O 631.311 5.6781 -0.542948 0
M  V30 6648 O 630.245 5.48768 -2.47261 0
M  V30 6649 H 634.071 2.20273 -2.09078 0
M  V30 6650 H 631.656 1.0373 -1.07519 0
M  V30 6651 H 633.538 4.16773 -0.62278 0
M  V30 6652 H 632.213 3.23458 0.125139 0
M  V30 6653 H 631.12 3.03746 -2.18378 0
M  V30 6654 H 632.453 4.00782 -2.85718 0
M  V30 6655 N 634.105 1.10431 1.1244 0
M  V30 6656 C 635.353 0.845045 1.83585 0
M  V30 6657 C 635.674 -0.631168 1.84503 0
M  V30 6658 O 634.944 -1.45825 1.30813 0
M  V30 6659 H 633.524 0.309628 0.679809 0
M  V30 6660 H 636.186 1.39458 1.36153 0
M  V30 6661 H 635.282 1.20786 2.8778 0
M  V30 6662 N 635.583 -1.29855 0.893053 0
M  V30 6663 C 636.994 -1.77946 0.564998 0
M  V30 6664 C 637.345 -1.73339 -0.919134 0
M  V30 6665 O 636.47 -1.3152 -1.71847 0
M  V30 6666 C 637.065 -3.23118 1.01883 0
M  V30 6667 C 635.624 -3.69013 0.742051 0
M  V30 6668 C 634.771 -2.50121 1.19727 0
M  V30 6669 H 637.722 -1.16611 1.07646 0
M  V30 6670 H 637.743 -3.78875 0.351249 0
M  V30 6671 H 637.255 -3.26439 2.09903 0
M  V30 6672 H 635.356 -3.71173 -0.325816 0
M  V30 6673 H 635.469 -4.60117 1.33527 0
M  V30 6674 H 633.833 -2.47128 0.616418 0
M  V30 6675 H 634.616 -2.56174 2.28538 0
M  V30 6676 N 637.061 -0.65484 -1.43351 0
M  V30 6677 C 637.991 0.0221809 -2.33489 0
M  V30 6678 C 638.972 0.810272 -1.49561 0
M  V30 6679 O 640.157 0.771426 -1.78221 0
M  V30 6680 C 637.287 0.988117 -3.32947 0
M  V30 6681 C 636.241 0.310026 -4.26876 0
M  V30 6682 C 635.567 1.38752 -5.16384 0
M  V30 6683 C 636.867 -0.798589 -5.16159 0
M  V30 6684 H 638.561 -0.730571 -2.9035 0
M  V30 6685 H 636.107 -0.352773 -1.39612 0
M  V30 6686 H 638.06 1.47067 -3.94904 0
M  V30 6687 H 636.784 1.77205 -2.74346 0
M  V30 6688 H 635.443 -0.152097 -3.66284 0
M  V30 6689 H 635.091 2.16293 -4.54121 0
M  V30 6690 H 634.791 0.939051 -5.80048 0
M  V30 6691 H 636.315 1.87141 -5.81215 0
M  V30 6692 H 637.729 -0.398126 -5.71916 0
M  V30 6693 H 636.126 -1.17163 -5.88552 0
M  V30 6694 H 637.196 -1.65588 -4.55751 0
M  V30 6695 N 638.539 1.52521 -0.396863 0
M  V30 6696 C 639.95 1.86547 0.0754868 0
M  V30 6697 C 640.301 1.31621 1.45501 0
M  V30 6698 O 639.426 0.650563 2.0639 0
M  V30 6699 C 640.021 3.38495 0.143754 0
M  V30 6700 C 638.58 3.72205 0.560413 0
M  V30 6701 C 637.727 2.75954 -0.272856 0
M  V30 6702 H 640.678 1.46323 -0.614434 0
M  V30 6703 H 640.699 3.68153 0.961425 0
M  V30 6704 H 640.211 3.78442 -0.860415 0
M  V30 6705 H 638.312 3.3783 1.57167 0
M  V30 6706 H 638.425 4.78074 0.313314 0
M  V30 6707 H 636.789 2.53339 0.263 0
M  V30 6708 H 637.572 3.1874 -1.27515 0
M  V30 6709 N 640.017 0.126909 1.57088 0
M  V30 6710 C 641.257 -0.53216 1.97351 0
M  V30 6711 C 641.621 -1.63342 1.00913 0
M  V30 6712 O 642.822 -2.35194 1.30144 0
M  V30 6713 C 641.093 -1.04385 3.41817 0
M  V30 6714 S 642.652 -1.71033 4.04095 0
M  V30 6715 H 639.47 -0.172724 0.689701 0
M  V30 6716 H 642.072 0.213865 1.94327 0
M  V30 6717 H 640.776 -0.231289 4.09748 0
M  V30 6718 H 640.307 -1.82496 3.48509 0
M  V30 6719 H 642.322 -2.99656 3.95501 0
M  V30 6720 N 641.495 -1.56914 -0.146875 0
M  V30 6721 C 642.906 -1.72799 -0.706928 0
M  V30 6722 C 643.257 -0.741329 -1.81656 0
M  V30 6723 O 642.382 0.0920162 -2.16204 0
M  V30 6724 C 642.977 -3.13317 -1.28911 0
M  V30 6725 C 641.536 -3.30803 -1.79573 0
M  V30 6726 C 640.683 -2.68725 -0.684252 0
M  V30 6727 H 643.634 -1.58504 0.0787931 0
M  V30 6728 H 643.655 -3.13323 -2.15891 0
M  V30 6729 H 643.167 -3.85104 -0.481284 0
M  V30 6730 H 641.268 -2.64012 -2.62923 0
M  V30 6731 H 641.381 -4.38754 -1.92436 0
M  V30 6732 H 639.745 -2.29196 -1.11091 0
M  V30 6733 H 640.528 -3.43117 0.112134 0
M  V30 6734 N 642.974 0.416227 -1.52004 0
M  V30 6735 C 644.199 1.19029 -1.69843 0
M  V30 6736 C 644.624 1.83708 -0.404103 0
M  V30 6737 O 643.982 1.69711 0.637787 0
M  V30 6738 C 644.03 2.23439 -2.83032 0
M  V30 6739 O 643.134 3.29419 -2.48106 0
M  V30 6740 H 642.475 0.347785 -0.565634 0
M  V30 6741 H 645.005 0.488871 -1.98674 0
M  V30 6742 H 645.015 2.67884 -3.07737 0
M  V30 6743 H 643.69 1.75745 -3.76944 0
M  V30 6744 H 642.267 2.90303 -2.34048 0
M  V30 6745 N 644.452 1.42507 0.673017 0
M  V30 6746 C 645.863 1.38347 1.25367 0
M  V30 6747 C 646.214 0.0776327 1.96046 0
M  V30 6748 O 645.339 -0.823571 2.00116 0
M  V30 6749 C 645.934 2.506 2.28002 0
M  V30 6750 C 644.493 2.49767 2.81591 0
M  V30 6751 C 643.64 2.293 1.55938 0
M  V30 6752 H 646.591 1.51695 0.466288 0
M  V30 6753 H 646.612 2.20953 3.09774 0
M  V30 6754 H 646.124 3.45627 1.76532 0
M  V30 6755 H 644.225 1.58563 3.37177 0
M  V30 6756 H 644.338 3.46867 3.30485 0
M  V30 6757 H 642.702 1.77594 1.82572 0
M  V30 6758 H 643.485 3.26385 1.06431 0
M  V30 6759 N 645.93 -0.909495 1.28709 0
M  V30 6760 C 646.893 -1.99399 1.13016 0
M  V30 6761 C 647.893 -1.60654 0.068536 0
M  V30 6762 O 649.083 -1.71334 0.314671 0
M  V30 6763 C 646.215 -3.33078 0.726085 0
M  V30 6764 H 647.408 -2.14751 2.09338 0
M  V30 6765 H 644.961 -1.09272 1.11756 0
M  V30 6766 H 645.696 -3.23428 -0.23771 0
M  V30 6767 H 645.481 -3.62562 1.49302 0
M  V30 6768 H 646.971 -4.12681 0.639058 0
M  V30 6769 N 647.408 -1.11026 -1.11852 0
M  V30 6770 C 648.819 -0.873203 -1.65021 0
M  V30 6771 C 649.17 0.595364 -1.86949 0
M  V30 6772 O 648.295 1.45645 -1.60051 0
M  V30 6773 C 648.89 -1.57859 -2.99777 0
M  V30 6774 C 647.449 -1.38807 -3.49871 0
M  V30 6775 C 646.596 -1.62403 -2.24768 0
M  V30 6776 H 649.547 -1.26712 -0.955503 0
M  V30 6777 H 649.568 -1.02111 -3.66543 0
M  V30 6778 H 649.08 -2.6474 -2.83786 0
M  V30 6779 H 647.181 -0.341163 -3.71035 0
M  V30 6780 H 647.294 -2.13421 -4.28938 0
M  V30 6781 H 645.658 -1.04714 -2.32179 0
M  V30 6782 H 646.441 -2.70549 -2.11324 0
M  V30 6783 N 648.886 1.2938 -0.899927 0
M  V30 6784 C 650.133 1.9555 -0.525963 0
M  V30 6785 C 650.461 1.70945 0.927789 0
M  V30 6786 O 649.716 1.01545 1.67293 0
M  V30 6787 C 650.015 3.49114 -0.765113 0
M  V30 6788 C 649.681 3.93796 -2.19626 0
M  V30 6789 C 648.343 4.05707 -2.58758 0
M  V30 6790 C 650.695 4.16883 -3.12823 0
M  V30 6791 C 648.023 4.38074 -3.90267 0
M  V30 6792 C 650.375 4.50725 -4.4388 0
M  V30 6793 C 649.039 4.60845 -4.82885 0
M  V30 6794 H 648.309 0.715569 -0.192463 0
M  V30 6795 H 650.956 1.53972 -1.13863 0
M  V30 6796 H 649.261 3.91738 -0.069531 0
M  V30 6797 H 650.958 3.98409 -0.455144 0
M  V30 6798 H 647.548 3.85042 -1.88256 0
M  V30 6799 H 651.732 4.07147 -2.83804 0
M  V30 6800 H 646.988 4.44112 -4.20207 0
M  V30 6801 H 651.162 4.67538 -5.16121 0
M  V30 6802 H 648.789 4.85681 -5.84823 0
M  V30 6803 N 650.364 0.662433 1.43002 0
M  V30 6804 C 651.589 0.186003 2.06564 0
M  V30 6805 C 652.014 -1.14314 1.49379 0
M  V30 6806 O 651.372 -1.70824 0.607346 0
M  V30 6807 C 651.42 0.118269 3.60406 0
M  V30 6808 O 650.524 -0.916859 4.02079 0
M  V30 6809 H 649.865 0.0990981 0.656563 0
M  V30 6810 H 652.395 0.907958 1.8335 0
M  V30 6811 H 652.405 -0.0619981 4.07953 0
M  V30 6812 H 651.08 1.08849 4.01403 0
M  V30 6813 H 649.657 -0.708635 3.66105 0
M  V30 6814 N 651.842 -1.52309 0.404946 0
M  V30 6815 C 653.253 -1.86585 -0.0655926 0
M  V30 6816 C 653.604 -1.3239 -1.44801 0
M  V30 6817 O 652.729 -0.6615 -2.06042 0
M  V30 6818 C 653.324 -3.38566 -0.125801 0
M  V30 6819 C 651.883 -3.72497 -0.540666 0
M  V30 6820 C 651.03 -2.75806 0.287487 0
M  V30 6821 H 653.981 -1.45995 0.622185 0
M  V30 6822 H 654.002 -3.68658 -0.941888 0
M  V30 6823 H 653.514 -3.77981 0.880473 0
M  V30 6824 H 651.615 -3.38659 -1.55373 0
M  V30 6825 H 651.728 -4.78234 -0.287956 0
M  V30 6826 H 650.092 -2.53474 -0.249561 0
M  V30 6827 H 650.875 -3.18059 1.29203 0
M  V30 6828 N 653.32 -0.135238 -1.57019 0
M  V30 6829 C 654.25 0.805235 -2.19176 0
M  V30 6830 C 655.231 1.2656 -1.13651 0
M  V30 6831 O 656.416 1.32528 -1.4195 0
M  V30 6832 C 653.546 2.04914 -2.80406 0
M  V30 6833 C 652.5 1.72598 -3.91655 0
M  V30 6834 C 651.826 3.04154 -4.39766 0
M  V30 6835 C 653.126 0.981709 -5.12991 0
M  V30 6836 H 654.82 0.287232 -2.98019 0
M  V30 6837 H 652.366 0.136714 -1.4335 0
M  V30 6838 H 654.319 2.71178 -3.22553 0
M  V30 6839 H 653.043 2.59067 -1.98877 0
M  V30 6840 H 651.702 1.08717 -3.50109 0
M  V30 6841 H 651.35 3.56274 -3.55075 0
M  V30 6842 H 651.05 2.83299 -5.14796 0
M  V30 6843 H 652.574 3.71509 -4.84576 0
M  V30 6844 H 653.988 1.5462 -5.52056 0
M  V30 6845 H 652.385 0.873533 -5.93708 0
M  V30 6846 H 653.455 -0.0286887 -4.84892 0
M  V30 6847 N 654.798 1.5699 0.138552 0
M  V30 6848 C 656.209 1.73171 0.697754 0
M  V30 6849 C 656.56 0.750952 1.8126 0
M  V30 6850 O 655.685 -0.080549 2.1625 0
M  V30 6851 C 656.28 3.13996 1.27248 0
M  V30 6852 C 654.839 3.3175 1.77816 0
M  V30 6853 C 653.986 2.69084 0.669991 0
M  V30 6854 H 656.937 1.5846 -0.0871979 0
M  V30 6855 H 656.958 3.14463 2.14227 0
M  V30 6856 H 656.47 3.85354 0.460855 0
M  V30 6857 H 654.571 2.65403 2.61519 0
M  V30 6858 H 654.684 4.39768 1.90107 0
M  V30 6859 H 653.048 2.29782 1.09874 0
M  V30 6860 H 653.831 3.43053 -0.130329 0
M  V30 6861 N 656.276 -0.40816 1.52223 0
M  V30 6862 C 657.239 -1.48 1.7501 0
M  V30 6863 C 658.239 -1.48367 0.619996 0
M  V30 6864 O 659.429 -1.49874 0.887881 0
M  V30 6865 C 656.561 -2.87403 1.83336 0
M  V30 6866 H 657.754 -1.29086 2.70697 0
M  V30 6867 H 655.307 -0.638715 1.42654 0
M  V30 6868 H 656.042 -3.11686 0.895677 0
M  V30 6869 H 655.827 -2.8854 2.65494 0
M  V30 6870 H 657.317 -3.65103 2.02705 0
M  V30 6871 N 657.755 -1.42862 -0.66545 0
M  V30 6872 C 659.166 -1.3901 -1.24632 0
M  V30 6873 C 659.517 -0.0880285 -1.96002 0
M  V30 6874 O 658.642 0.812947 -2.0055 0
M  V30 6875 C 659.237 -2.51806 -2.2667 0
M  V30 6876 C 657.796 -2.51257 -2.80262 0
M  V30 6877 C 656.943 -2.30124 -1.5472 0
M  V30 6878 H 659.894 -1.5194 -0.458237 0
M  V30 6879 H 659.915 -2.22593 -3.08598 0
M  V30 6880 H 659.427 -3.46558 -1.74697 0
M  V30 6881 H 657.528 -1.60349 -3.36332 0
M  V30 6882 H 657.641 -3.48614 -3.28641 0
M  V30 6883 H 656.005 -1.7856 -1.81627 0
M  V30 6884 H 656.788 -3.26945 -1.04699 0
M  V30 6885 N 659.233 0.902656 -1.29189 0
M  V30 6886 C 660.458 1.69167 -1.19989 0
M  V30 6887 C 660.883 1.86607 0.236495 0
M  V30 6888 O 660.241 1.38425 1.17082 0
M  V30 6889 C 660.289 3.05532 -1.91527 0
M  V30 6890 O 659.393 3.93621 -1.2303 0
M  V30 6891 H 658.734 0.517584 -0.415936 0
M  V30 6892 H 661.264 1.12785 -1.70706 0
M  V30 6893 H 661.274 3.55693 -1.99866 0
M  V30 6894 H 659.949 2.92156 -2.96003 0
M  V30 6895 H 658.526 3.52055 -1.22928 0
M  V30 6896 N 660.711 1.11618 1.11262 0
M  V30 6897 C 662.122 0.881942 1.64556 0
M  V30 6898 C 662.473 -0.585442 1.87262 0
M  V30 6899 O 661.598 -1.44795 1.60821 0
M  V30 6900 C 662.193 1.59446 2.98935 0
M  V30 6901 C 660.752 1.40661 3.4913 0
M  V30 6902 C 659.899 1.63593 2.23903 0
M  V30 6903 H 662.85 1.27217 0.94877 0
M  V30 6904 H 662.871 1.04054 3.65996 0
M  V30 6905 H 662.383 2.66241 2.82378 0
M  V30 6906 H 660.484 0.360835 3.70849 0
M  V30 6907 H 660.597 2.15693 4.27801 0
M  V30 6908 H 658.961 1.05944 2.3162 0
M  V30 6909 H 659.744 2.71666 2.09886 0
M  V30 6910 N 662.189 -1.289 0.906776 0
M  V30 6911 C 663.605 -1.47733 0.603902 0
M  V30 6912 C 663.805 -1.82568 -0.852702 0
M  V30 6913 O 662.861 -1.92642 -1.63234 0
M  V30 6914 C 664.174 -2.58522 1.53581 0
M  V30 6915 C 665.722 -2.72394 1.54177 0
M  V30 6916 C 666.197 -3.86318 2.46013 0
M  V30 6917 N 667.688 -3.93661 2.441 0
M  V30 6918 C 668.423 -4.81177 3.11859 0
M  V30 6919 N 667.919 -5.73333 3.88923 0
M  V30 6920 N 669.712 -4.74728 3.00981 0
M  V30 6921 H 661.863 -1.04567 1.84877 0
M  V30 6922 H 664.126 -0.520118 0.792579 0
M  V30 6923 H 663.832 -2.39667 2.57396 0
M  V30 6924 H 663.706 -3.55475 1.26165 0
M  V30 6925 H 666.093 -2.90641 0.511034 0
M  V30 6926 H 666.174 -1.75993 1.85634 0
M  V30 6927 H 665.818 -3.68826 3.49185 0
M  V30 6928 H 665.748 -4.82102 2.11862 0
M  V30 6929 H 668.239 -3.27751 1.88115 0
M  V30 6930 H 668.552 -6.36923 4.37663 0
M  V30 6931 H 666.897 -5.73196 3.93029 0
M  V30 6932 H 670.088 -4.01722 2.40286 0
M  V30 6933 H 670.261 -5.42719 3.54062 0
M  V30 6934 N 663.667 -0.670007 -1.42649 0
M  V30 6935 C 664.916 -0.187526 -2.00826 0
M  V30 6936 C 665.229 1.21142 -1.53571 0
M  V30 6937 O 666.435 1.79001 -2.04134 0
M  V30 6938 C 664.891 -0.284409 -3.58774 0
M  V30 6939 C 664.499 -1.6871 -4.15019 0
M  V30 6940 C 666.243 0.139605 -4.2427 0
M  V30 6941 C 664.15 -1.73701 -5.65316 0
M  V30 6942 H 663.08 -0.0663468 -0.751075 0
M  V30 6943 H 665.731 -0.834492 -1.63427 0
M  V30 6944 H 664.113 0.430364 -3.93655 0
M  V30 6945 H 665.287 -2.42857 -3.91608 0
M  V30 6946 H 663.602 -2.05855 -3.61957 0
M  V30 6947 H 666.199 0.122398 -5.3456 0
M  V30 6948 H 666.542 1.17403 -3.99402 0
M  V30 6949 H 667.075 -0.523995 -3.94334 0
M  V30 6950 H 663.814 -2.75109 -5.94975 0
M  V30 6951 H 663.334 -1.03903 -5.90732 0
M  V30 6952 H 665.013 -1.48829 -6.2965 0
M  V30 6953 N 665.145 1.52092 -0.413018 0
M  V30 6954 C 666.37 2.06756 0.163338 0
M  V30 6955 C 666.795 1.28073 1.37764 0
M  V30 6956 O 666.153 0.312015 1.78595 0
M  V30 6957 C 666.201 3.57278 0.488322 0
M  V30 6958 O 665.305 3.80986 1.57871 0
M  V30 6959 H 664.646 0.663882 0.0125068 0
M  V30 6960 H 667.176 1.95988 -0.587339 0
M  V30 6961 H 667.186 4.01125 0.745836 0
M  V30 6962 H 665.861 4.13978 -0.399327 0
M  V30 6963 H 664.438 3.49017 1.31306 0
M  V30 6964 N 666.623 0.143563 1.56945 0
M  V30 6965 C 667.9 -0.553285 1.87612 0
M  V30 6966 C 668.28 -1.83195 1.04894 0
M  V30 6967 O 667.628 -2.28102 0.134773 0
M  V30 6968 C 667.838 -0.822055 3.3918 0
M  V30 6969 C 669.186 -1.16435 4.08324 0
M  V30 6970 O 670.21 -0.911522 3.4434 0
M  V30 6971 O 669.069 -1.63996 5.21313 0
M  V30 6972 H 666.163 -0.281851 0.777489 0
M  V30 6973 H 668.709 0.179916 1.68744 0
M  V30 6974 H 667.481 0.0830265 3.91212 0
M  V30 6975 H 667.104 -1.60956 3.63564 0
M  V30 6976 N 668.101 -1.57061 -0.130224 0
M  V30 6977 C 669.35 -1.83446 -0.838488 0
M  V30 6978 C 669.663 -0.727468 -1.81569 0
M  V30 6979 O 670.869 -0.877394 -2.56932 0
M  V30 6980 C 669.325 -3.25201 -1.54182 0
M  V30 6981 C 668.933 -4.4388 -0.606178 0
M  V30 6982 C 670.677 -3.60844 -2.23588 0
M  V30 6983 C 668.584 -5.76661 -1.31209 0
M  V30 6984 H 667.514 -0.684185 -0.316871 0
M  V30 6985 H 670.165 -1.83273 -0.0912059 0
M  V30 6986 H 668.547 -3.1981 -2.33533 0
M  V30 6987 H 669.721 -4.60545 0.153308 0
M  V30 6988 H 668.036 -4.16395 -0.0196705 0
M  V30 6989 H 670.633 -4.57313 -2.77072 0
M  V30 6990 H 670.976 -2.87724 -3.00867 0
M  V30 6991 H 671.509 -3.67971 -1.51137 0
M  V30 6992 H 668.248 -6.52922 -0.580823 0
M  V30 6993 H 667.768 -5.63902 -2.04387 0
M  V30 6994 H 669.447 -6.20035 -1.8484 0
M  V30 6995 N 669.579 0.400081 -1.52437 0
M  V30 6996 C 670.509 1.4947 -1.7939 0
M  V30 6997 C 671.49 1.57383 -0.645329 0
M  V30 6998 O 672.675 1.72511 -0.891826 0
M  V30 6999 C 669.805 2.87201 -1.95276 0
M  V30 7000 C 668.759 2.94134 -3.10917 0
M  V30 7001 C 668.085 4.34207 -3.1204 0
M  V30 7002 C 669.385 2.64791 -4.50203 0
M  V30 7003 H 671.079 1.27165 -2.71052 0
M  V30 7004 H 668.625 0.610312 -1.30427 0
M  V30 7005 H 670.578 3.63772 -2.12715 0
M  V30 7006 H 669.302 3.10819 -1.00294 0
M  V30 7007 H 667.961 2.20009 -2.93243 0
M  V30 7008 H 667.609 4.54848 -2.14761 0
M  V30 7009 H 667.309 4.39768 -3.89715 0
M  V30 7010 H 668.833 5.127 -3.31619 0
M  V30 7011 H 670.247 3.31083 -4.68035 0
M  V30 7012 H 668.644 2.81717 -5.29864 0
M  V30 7013 H 669.714 1.60184 -4.57678 0
M  V30 7014 N 671.057 1.43213 0.657864 0
M  V30 7015 C 672.005 1.48271 1.79216 0
M  V30 7016 C 672.999 0.35675 1.65601 0
M  V30 7017 O 674.205 0.530535 1.72004 0
M  V30 7018 H 670.58 0.464729 0.591211 0
M  V30 7019 H 672.551 2.43792 1.7207 0
M  V30 7020 C 671.3 1.41837 3.17455 0
M  V30 7021 H 670.623 2.27781 3.28567 0
M  V30 7022 H 672.063 1.49438 3.96793 0
M  V30 7023 C 670.522 0.135347 3.36628 0
M  V30 7024 O 671.052 -0.805199 3.93547 0
M  V30 7025 N 669.258 0.0470316 2.90562 0
M  V30 7026 H 668.805 0.813221 2.44427 0
M  V30 7027 H 668.763 -0.810737 3.03767 0
M  V30 7028 N 672.536 -0.895792 1.29666 0
M  V30 7029 C 673.761 -1.68528 1.20885 0
M  V30 7030 C 674.186 -1.8673 -0.226595 0
M  V30 7031 O 673.544 -1.39044 -1.16347 0
M  V30 7032 C 673.592 -3.04512 1.93144 0
M  V30 7033 O 672.696 -3.92963 1.25115 0
M  V30 7034 H 672.037 -0.515371 0.418675 0
M  V30 7035 H 674.567 -1.11878 1.71302 0
M  V30 7036 H 674.577 -3.54628 2.0175 0
M  V30 7037 H 673.252 -2.90582 2.97548 0
M  V30 7038 H 671.829 -3.51399 1.24794 0
M  V30 7039 N 674.014 -1.12206 -1.10668 0
M  V30 7040 C 675.26 -0.877172 -1.82848 0
M  V30 7041 C 675.593 0.595571 -1.84842 0
M  V30 7042 O 674.868 1.44013 -1.30731 0
M  V30 7043 C 675.151 -1.44957 -3.29635 0
M  V30 7044 C 675.004 -2.99051 -3.35989 0
M  V30 7045 C 676.323 -1.10714 -4.25946 0
M  V30 7046 H 673.442 -0.320103 -0.663854 0
M  V30 7047 H 676.084 -1.38827 -1.2972 0
M  V30 7048 H 674.234 -1.01488 -3.7501 0
M  V30 7049 H 675.906 -3.51182 -2.99113 0
M  V30 7050 H 674.149 -3.34705 -2.75962 0
M  V30 7051 H 674.82 -3.34194 -4.39339 0
M  V30 7052 H 677.296 -1.48254 -3.88793 0
M  V30 7053 H 676.172 -1.5343 -5.2702 0
M  V30 7054 H 676.433 -0.019 -4.42096 0
M  V30 7055 N 675.492 1.28418 -0.913599 0
M  V30 7056 C 676.908 1.47411 -0.611728 0
M  V30 7057 C 677.108 1.83018 0.843008 0
M  V30 7058 O 676.164 1.93505 1.6221 0
M  V30 7059 C 677.477 2.57703 -1.5495 0
M  V30 7060 C 679.025 2.71572 -1.5562 0
M  V30 7061 C 679.5 3.85008 -2.48058 0
M  V30 7062 N 680.991 3.92361 -2.46184 0
M  V30 7063 C 681.726 4.79516 -3.14407 0
M  V30 7064 N 681.222 5.71262 -3.91958 0
M  V30 7065 N 683.015 4.73125 -3.03495 0
M  V30 7066 H 675.166 1.03585 -1.85429 0
M  V30 7067 H 677.429 0.515907 -0.795326 0
M  V30 7068 H 677.135 2.38298 -2.58663 0
M  V30 7069 H 677.009 3.54801 -1.28048 0
M  V30 7070 H 679.396 2.90366 -0.526441 0
M  V30 7071 H 679.477 1.75006 -1.86565 0
M  V30 7072 H 679.121 3.66969 -3.51136 0
M  V30 7073 H 679.051 4.80971 -2.14416 0
M  V30 7074 H 681.542 3.26749 -1.89851 0
M  V30 7075 H 681.855 6.34593 -4.41034 0
M  V30 7076 H 680.2 5.71103 -3.96063 0
M  V30 7077 H 683.391 4.00442 -2.42413 0
M  V30 7078 H 683.564 5.40834 -3.56935 0
M  V30 7079 N 676.97 0.677563 1.42291 0
M  V30 7080 C 678.386 0.347376 1.55774 0
M  V30 7081 C 678.586 -1.14703 1.65667 0
M  V30 7082 O 677.642 -1.93252 1.62512 0
M  V30 7083 C 678.955 1.08011 2.80631 0
M  V30 7084 C 680.503 1.06271 2.94407 0
M  V30 7085 C 680.978 1.77683 4.22129 0
M  V30 7086 N 682.469 1.74564 4.29047 0
M  V30 7087 C 683.204 2.26673 5.26694 0
M  V30 7088 N 682.7 2.87176 6.30477 0
M  V30 7089 N 684.493 2.17032 5.18511 0
M  V30 7090 H 676.644 1.64703 1.34114 0
M  V30 7091 H 678.907 0.694038 0.645768 0
M  V30 7092 H 678.613 2.13518 2.79469 0
M  V30 7093 H 678.487 0.647115 3.71608 0
M  V30 7094 H 680.874 0.0159658 2.95096 0
M  V30 7095 H 680.955 1.53461 2.04654 0
M  V30 7096 H 680.599 2.82327 4.22201 0
M  V30 7097 H 680.529 1.2794 5.10822 0
M  V30 7098 H 683.02 1.30436 3.54676 0
M  V30 7099 H 683.333 3.24551 7.01346 0
M  V30 7100 H 681.678 2.91247 6.31031 0
M  V30 7101 H 684.869 1.69451 4.36353 0
M  V30 7102 H 685.042 2.57948 5.94446 0
M  V30 7103 N 678.448 -1.51871 0.421078 0
M  V30 7104 C 679.696 -2.01539 -0.150492 0
M  V30 7105 C 680.017 -1.30803 -1.44623 0
M  V30 7106 O 679.287 -0.437568 -1.90951 0
M  V30 7107 H 677.867 -0.744698 -0.0586041 0
M  V30 7108 H 680.529 -1.8668 0.560059 0
M  V30 7109 H 679.625 -3.10264 -0.338068 0
M  V30 7110 N 679.926 -0.151884 -1.56866 0
M  V30 7111 C 681.151 0.508044 -2.01081 0
M  V30 7112 C 681.576 1.57306 -1.03134 0
M  V30 7113 O 680.934 1.81298 -0.0078309 0
M  V30 7114 C 680.982 1.08106 -3.44014 0
M  V30 7115 O 680.086 2.19577 -3.49084 0
M  V30 7116 H 679.427 0.123757 -0.652365 0
M  V30 7117 H 681.957 -0.250055 -2.03066 0
M  V30 7118 H 681.967 1.40851 -3.82916 0
M  V30 7119 H 680.642 0.301168 -4.14808 0
M  V30 7120 H 679.219 1.88023 -3.22027 0
M  V30 7121 N 681.404 1.57128 0.121893 0
M  V30 7122 C 682.652 1.84335 0.828548 0
M  V30 7123 C 682.973 0.736632 1.80551 0
M  V30 7124 O 682.243 -0.23962 1.94429 0
M  V30 7125 H 680.823 0.680108 0.30897 0
M  V30 7126 H 683.485 1.9459 0.109906 0
M  V30 7127 H 682.581 2.80152 1.37554 0
M  V30 7128 N 682.882 -0.391992 1.52647 0
M  V30 7129 C 684.11 -1.1586 1.71418 0
M  V30 7130 C 684.525 -1.8381 0.431216 0
M  V30 7131 O 683.882 -1.7256 -0.594085 0
M  V30 7132 C 683.933 -2.20888 2.86165 0
M  V30 7133 O 683.654 -1.5571 4.09495 0
M  V30 7134 C 685.155 -3.103 3.1659 0
M  V30 7135 H 682.375 -0.347494 0.574011 0
M  V30 7136 H 684.919 -0.458972 1.99283 0
M  V30 7137 H 683.074 -2.86492 2.6077 0
M  V30 7138 H 683.488 -2.25474 4.73563 0
M  V30 7139 H 684.962 -3.8003 4.00351 0
M  V30 7140 H 685.439 -3.73639 2.30848 0
M  V30 7141 H 686.045 -2.50345 3.43813 0
M  V30 7142 N 684.36 -1.4356 -0.65026 0
M  V30 7143 C 685.771 -1.40324 -1.2315 0
M  V30 7144 C 686.122 -0.108812 -1.95898 0
M  V30 7145 O 685.247 0.79163 -2.01401 0
M  V30 7146 C 685.842 -2.54195 -2.23987 0
M  V30 7147 C 684.401 -2.54215 -2.77582 0
M  V30 7148 C 683.548 -2.31752 -1.5227 0
M  V30 7149 H 686.499 -1.52418 -0.442095 0
M  V30 7150 H 686.52 -2.25854 -3.0622 0
M  V30 7151 H 686.032 -3.48392 -1.71011 0
M  V30 7152 H 684.133 -1.63907 -3.34612 0
M  V30 7153 H 684.246 -3.52081 -3.24925 0
M  V30 7154 H 682.61 -1.80476 -1.79723 0
M  V30 7155 H 683.393 -3.28037 -1.01225 0
M  V30 7156 N 685.838 0.888903 -1.30139 0
M  V30 7157 C 686.748 2.02705 -1.18101 0
M  V30 7158 C 687.764 1.73702 -0.101809 0
M  V30 7159 O 688.94 1.98906 -0.315984 0
M  V30 7160 C 686.005 3.35616 -0.869651 0
M  V30 7161 C 685.066 3.78067 -2.03381 0
M  V30 7162 C 684.299 5.04635 -1.73721 0
M  V30 7163 O 684.522 5.66531 -0.663267 0
M  V30 7164 O 683.456 5.43399 -2.58845 0
M  V30 7165 H 687.282 2.15788 -2.13704 0
M  V30 7166 H 684.867 1.01426 -1.09695 0
M  V30 7167 H 686.749 4.15358 -0.711043 0
M  V30 7168 H 685.424 3.23651 0.0565002 0
M  V30 7169 H 684.331 2.99046 -2.24772 0
M  V30 7170 H 685.664 3.94631 -2.94155 0
M  V30 7171 N 687.317 1.12792 1.10072 0
M  V30 7172 C 688.28 0.802264 2.14701 0
M  V30 7173 C 689.28 -0.18515 1.59731 0
M  V30 7174 O 690.47 0.041109 1.74151 0
M  V30 7175 C 687.602 0.19285 3.40354 0
M  V30 7176 H 688.795 1.72932 2.45019 0
M  V30 7177 H 686.348 0.931662 1.25498 0
M  V30 7178 H 687.083 -0.743748 3.15656 0
M  V30 7179 H 686.868 0.903827 3.81541 0
M  V30 7180 H 688.358 -0.0183704 4.17596 0
M  V30 7181 N 688.795 -1.27931 0.920396 0
M  V30 7182 C 689.705 -2.30824 0.419212 0
M  V30 7183 C 690.721 -1.66767 -0.496461 0
M  V30 7184 O 691.897 -1.97763 -0.38104 0
M  V30 7185 C 688.962 -3.45158 -0.326601 0
M  V30 7186 C 688.023 -4.24754 0.623098 0
M  V30 7187 C 687.256 -5.33629 -0.0872172 0
M  V30 7188 O 687.479 -5.55204 -1.30784 0
M  V30 7189 O 686.413 -5.99091 0.580875 0
M  V30 7190 H 690.239 -2.75716 1.27337 0
M  V30 7191 H 687.824 -1.32747 0.685465 0
M  V30 7192 H 689.706 -4.14716 -0.747559 0
M  V30 7193 H 688.381 -3.02336 -1.15648 0
M  V30 7194 H 687.288 -3.57759 1.09359 0
M  V30 7195 H 688.621 -4.71272 1.41998 0
M  V30 7196 N 690.273 -0.685099 -1.4193 0
M  V30 7197 C 691.521 -0.21124 -2.00993 0
M  V30 7198 C 691.842 1.18985 -1.54491 0
M  V30 7199 O 691.112 1.8009 -0.771 0
M  V30 7200 H 689.692 -0.0751059 -0.743215 0
M  V30 7201 H 692.354 -0.883915 -1.73704 0
M  V30 7202 H 691.45 -0.220513 -3.1132 0
M  V30 7203 N 691.751 1.51645 -0.429126 0
M  V30 7204 C 693.162 1.86665 0.0359003 0
M  V30 7205 C 693.513 1.34677 1.42676 0
M  V30 7206 O 692.638 0.694195 2.04963 0
M  V30 7207 C 693.233 3.38724 0.0719221 0
M  V30 7208 C 691.792 3.7331 0.481336 0
M  V30 7209 C 690.939 2.75313 -0.331329 0
M  V30 7210 H 693.89 1.44987 -0.645333 0
M  V30 7211 H 693.911 3.7011 0.883118 0
M  V30 7212 H 693.423 3.76532 -0.940495 0
M  V30 7213 H 691.524 3.41088 1.49966 0
M  V30 7214 H 691.637 4.78631 0.211837 0
M  V30 7215 H 690.001 2.53839 0.209204 0
M  V30 7216 H 690.784 3.15963 -1.34247 0
M  V30 7217 N 693.229 0.160201 1.56784 0
M  V30 7218 C 694.159 -0.770264 2.2043 0
M  V30 7219 C 695.14 -1.24736 1.15651 0
M  V30 7220 O 696.325 -1.30253 1.44041 0
M  V30 7221 C 693.455 -2.00427 2.83631 0
M  V30 7222 C 692.409 -1.66345 3.94352 0
M  V30 7223 C 691.735 -2.97119 4.4455 0
M  V30 7224 C 693.035 -0.899972 5.14488 0
M  V30 7225 H 694.729 -0.239783 2.98438 0
M  V30 7226 H 692.275 -0.113891 1.43549 0
M  V30 7227 H 694.228 -2.66012 3.26827 0
M  V30 7228 H 692.952 -2.5587 2.02973 0
M  V30 7229 H 691.611 -1.03133 3.51794 0
M  V30 7230 H 691.259 -3.5058 3.60698 0
M  V30 7231 H 690.959 -2.75073 5.19238 0
M  V30 7232 H 692.483 -3.63753 4.90425 0
M  V30 7233 H 693.897 -1.45818 5.54446 0
M  V30 7234 H 692.294 -0.778968 5.95023 0
M  V30 7235 H 693.364 0.105827 4.84785 0
M  V30 7236 N 694.707 -1.5719 -0.113559 0
M  V30 7237 C 695.932 -1.89702 -0.838336 0
M  V30 7238 C 696.357 -0.752679 -1.72384 0
M  V30 7239 O 695.715 0.296575 -1.78858 0
M  V30 7240 C 695.763 -3.20989 -1.64312 0
M  V30 7241 O 694.867 -3.07278 -2.75053 0
M  V30 7242 H 694.208 -0.622339 -0.231496 0
M  V30 7243 H 696.738 -2.04382 -0.0943228 0
M  V30 7244 H 696.748 -3.53843 -2.03123 0
M  V30 7245 H 695.423 -4.03869 -0.993119 0
M  V30 7246 H 694 -2.85901 -2.39406 0
M  V30 7247 N 696.185 0.383891 -1.52853 0
M  V30 7248 C 697.148 1.45197 -1.77343 0
M  V30 7249 C 698.148 1.47362 -0.643522 0
M  V30 7250 O 699.338 1.48443 -0.911613 0
M  V30 7251 C 696.47 2.8445 -1.87885 0
M  V30 7252 H 697.663 1.24764 -2.72716 0
M  V30 7253 H 695.216 0.615939 -1.43652 0
M  V30 7254 H 695.951 3.10222 -0.94515 0
M  V30 7255 H 695.736 2.8428 -2.70051 0
M  V30 7256 H 697.226 3.61832 -2.08488 0
M  V30 7257 N 697.663 1.43903 0.642637 0
M  V30 7258 C 698.911 1.45791 1.39962 0
M  V30 7259 C 699.232 0.0873144 1.94804 0
M  V30 7260 O 698.502 -0.878825 1.75081 0
M  V30 7261 H 697.082 0.536797 0.519479 0
M  V30 7262 H 699.744 1.7959 0.757189 0
M  V30 7263 H 698.84 2.17665 2.2367 0
M  V30 7264 N 699.141 -0.881989 1.30609 0
M  V30 7265 C 700.552 -1.44956 1.17664 0
M  V30 7266 C 700.903 -1.94945 -0.221531 0
M  V30 7267 O 700.028 -1.85257 -1.11844 0
M  V30 7268 C 700.623 -2.63474 2.12995 0
M  V30 7269 C 699.182 -3.16312 2.04019 0
M  V30 7270 C 698.329 -1.89008 2.02907 0
M  V30 7271 H 701.28 -0.691645 1.42835 0
M  V30 7272 H 701.301 -3.39783 1.71253 0
M  V30 7273 H 700.813 -2.2706 3.14746 0
M  V30 7274 H 698.914 -3.57376 1.0542 0
M  V30 7275 H 699.027 -3.79409 2.9255 0
M  V30 7276 H 697.391 -2.07465 1.47751 0
M  V30 7277 H 698.174 -1.54848 3.06394 0
M  V30 7278 N 700.619 -1.13374 -1.09472 0
M  V30 7279 C 702.03 -0.90801 -1.63132 0
M  V30 7280 C 702.381 0.555576 -1.8817 0
M  V30 7281 O 701.506 1.42218 -1.63104 0
M  V30 7282 C 702.101 -1.64182 -2.96361 0
M  V30 7283 C 700.66 -1.46197 -3.46848 0
M  V30 7284 C 699.807 -1.67134 -2.21273 0
M  V30 7285 H 702.758 -1.2871 -0.928411 0
M  V30 7286 H 702.779 -1.09863 -3.64294 0
M  V30 7287 H 702.291 -2.707 -2.78106 0
M  V30 7288 H 700.392 -0.419788 -3.70228 0
M  V30 7289 H 700.505 -2.22472 -4.24315 0
M  V30 7290 H 698.869 -1.09616 -2.29905 0
M  V30 7291 H 699.652 -2.74971 -2.05538 0
M  V30 7292 N 702.098 1.27442 -0.927168 0
M  V30 7293 C 703.509 1.76385 -0.611979 0
M  V30 7294 C 703.86 1.75715 0.872853 0
M  V30 7295 O 702.985 1.3603 1.683 0
M  V30 7296 C 703.58 3.20303 -1.10414 0
M  V30 7297 C 702.139 3.66916 -0.839628 0
M  V30 7298 C 701.286 2.46859 -1.26317 0
M  V30 7299 H 704.237 1.13716 -1.107 0
M  V30 7300 H 704.258 3.77811 -0.451578 0
M  V30 7301 H 703.77 3.20759 -2.18484 0
M  V30 7302 H 701.871 3.71906 0.227292 0
M  V30 7303 H 701.984 4.56415 -1.45679 0
M  V30 7304 H 700.348 2.45407 -0.681723 0
M  V30 7305 H 701.131 2.50025 -2.3525 0
M  V30 7306 N 703.576 0.692616 1.41565 0
M  V30 7307 C 704.816 0.226453 2.03142 0
M  V30 7308 C 705.18 -1.1512 1.5366 0
M  V30 7309 O 706.381 -1.71305 2.07143 0
M  V30 7310 C 704.652 0.27855 3.56313 0
M  V30 7311 S 706.211 -0.114001 4.38652 0
M  V30 7312 H 703.029 0.0914767 0.705091 0
M  V30 7313 H 705.631 0.909737 1.73043 0
M  V30 7314 H 704.335 1.28325 3.89821 0
M  V30 7315 H 703.866 -0.423981 3.91109 0
M  V30 7316 H 705.881 -1.34256 4.77692 0
M  V30 7317 N 705.054 -1.51416 0.437162 0
M  V30 7318 C 705.984 -2.30631 -0.364922 0
M  V30 7319 C 706.965 -1.36037 -1.02118 0
M  V30 7320 O 708.15 -1.64956 -1.02485 0
M  V30 7321 C 705.28 -3.1482 -1.46648 0
M  V30 7322 C 704.234 -4.17691 -0.933717 0
M  V30 7323 C 703.56 -4.904 -2.13101 0
M  V30 7324 C 704.86 -5.2229 0.0317201 0
M  V30 7325 H 706.554 -2.97932 0.29614 0
M  V30 7326 H 704.1 -1.4328 0.143865 0
M  V30 7327 H 706.053 -3.69017 -2.03481 0
M  V30 7328 H 704.777 -2.4534 -2.15583 0
M  V30 7329 H 703.436 -3.64545 -0.387602 0
M  V30 7330 H 703.084 -4.17423 -2.80654 0
M  V30 7331 H 702.784 -5.59962 -1.78092 0
M  V30 7332 H 704.308 -5.4742 -2.70487 0
M  V30 7333 H 705.722 -5.7156 -0.446302 0
M  V30 7334 H 704.119 -5.99378 0.29437 0
M  V30 7335 H 705.189 -4.75131 0.968447 0
M  V30 7336 N 706.532 -0.168513 -1.56696 0
M  V30 7337 C 707.757 0.486688 -2.01609 0
M  V30 7338 C 708.182 1.56203 -1.04796 0
M  V30 7339 O 707.54 1.8128 -0.0270596 0
M  V30 7340 C 707.588 1.04451 -3.45141 0
M  V30 7341 O 706.692 2.15862 -3.51393 0
M  V30 7342 H 706.033 0.116831 -0.653641 0
M  V30 7343 H 708.563 -0.271579 -2.0279 0
M  V30 7344 H 708.573 1.36782 -3.84389 0
M  V30 7345 H 707.248 0.257155 -4.15104 0
M  V30 7346 H 705.825 1.84597 -3.24004 0
M  V30 7347 N 708.01 1.57248 0.105221 0
M  V30 7348 C 709.421 1.74612 0.660865 0
M  V30 7349 C 709.772 0.789231 1.79626 0
M  V30 7350 O 708.897 -0.0346611 2.16372 0
M  V30 7351 C 709.492 3.16624 1.20559 0
M  V30 7352 C 708.051 3.35447 1.7074 0
M  V30 7353 C 707.198 2.70445 0.612764 0
M  V30 7354 H 710.149 1.5824 -0.12079 0
M  V30 7355 H 710.17 3.18937 2.07508 0
M  V30 7356 H 709.682 3.86245 0.379012 0
M  V30 7357 H 707.783 2.7089 2.5583 0
M  V30 7358 H 707.896 4.43702 1.80736 0
M  V30 7359 H 706.26 2.32061 1.04975 0
M  V30 7360 H 707.043 3.42699 -0.203066 0
M  V30 7361 N 709.488 -0.375779 1.53054 0
M  V30 7362 C 710.451 -1.44254 1.7811 0
M  V30 7363 C 711.451 -1.47018 0.651328 0
M  V30 7364 O 712.641 -1.47957 0.919472 0
M  V30 7365 C 709.773 -2.8345 1.89391 0
M  V30 7366 H 710.966 -1.23316 2.73374 0
M  V30 7367 H 708.519 -0.608312 1.43977 0
M  V30 7368 H 709.254 -3.09716 0.961589 0
M  V30 7369 H 709.039 -2.82844 2.71555 0
M  V30 7370 H 710.529 -3.60722 2.10404 0
M  V30 7371 N 710.966 -1.44241 -0.634997 0
M  V30 7372 C 711.896 -1.53632 -1.7584 0
M  V30 7373 C 712.877 -0.389603 -1.65578 0
M  V30 7374 O 714.062 -0.609219 -1.84397 0
M  V30 7375 C 711.192 -1.47644 -3.14354 0
M  V30 7376 C 710.146 -2.60752 -3.394 0
M  V30 7377 C 709.472 -2.39817 -4.77904 0
M  V30 7378 C 710.772 -4.02921 -3.32343 0
M  V30 7379 H 712.466 -2.47662 -1.68238 0
M  V30 7380 H 710.012 -1.19197 -0.807969 0
M  V30 7381 H 711.965 -1.52815 -3.92716 0
M  V30 7382 H 710.689 -0.501284 -3.2273 0
M  V30 7383 H 709.348 -2.54965 -2.63417 0
M  V30 7384 H 708.996 -1.40502 -4.82978 0
M  V30 7385 H 708.696 -3.15649 -4.9562 0
M  V30 7386 H 710.22 -2.46799 -5.585 0
M  V30 7387 H 711.634 -4.10098 -4.00615 0
M  V30 7388 H 710.031 -4.78925 -3.61595 0
M  V30 7389 H 711.101 -4.26766 -2.30215 0
M  V30 7390 N 712.444 0.87505 -1.31075 0
M  V30 7391 C 713.374 1.99775 -1.20881 0
M  V30 7392 C 714.355 1.69822 -0.0971612 0
M  V30 7393 O 715.54 1.92158 -0.280895 0
M  V30 7394 C 712.67 3.35163 -0.910118 0
M  V30 7395 C 711.624 3.79406 -1.98078 0
M  V30 7396 C 710.95 5.12197 -1.53488 0
M  V30 7397 C 712.25 3.97061 -3.39323 0
M  V30 7398 H 713.944 2.08562 -2.14808 0
M  V30 7399 H 711.49 1.00207 -1.03415 0
M  V30 7400 H 713.443 4.13237 -0.825423 0
M  V30 7401 H 712.167 3.26536 0.064822 0
M  V30 7402 H 710.826 3.03568 -2.05528 0
M  V30 7403 H 710.474 5.00007 -0.547941 0
M  V30 7404 H 710.174 5.4277 -2.2511 0
M  V30 7405 H 711.698 5.92785 -1.46417 0
M  V30 7406 H 713.112 4.65545 -3.34576 0
M  V30 7407 H 711.509 4.39025 -4.09118 0
M  V30 7408 H 712.579 3.00601 -3.80483 0
M  V30 7409 N 713.922 1.13953 1.08869 0
M  V30 7410 C 715.17 0.903023 1.80803 0
M  V30 7411 C 715.491 -0.572151 1.86417 0
M  V30 7412 O 714.761 -1.41589 1.35386 0
M  V30 7413 H 713.341 0.331099 0.669614 0
M  V30 7414 H 716.003 1.43719 1.31647 0
M  V30 7415 H 715.099 1.29881 2.83791 0
M  V30 7416 N 715.4 -1.26948 0.933913 0
M  V30 7417 C 716.811 -1.76058 0.621324 0
M  V30 7418 C 717.162 -1.76175 -0.863522 0
M  V30 7419 O 716.287 -1.36921 -1.67576 0
M  V30 7420 C 716.882 -3.19713 1.12111 0
M  V30 7421 C 715.441 -3.66465 0.859074 0
M  V30 7422 C 714.588 -2.46186 1.27624 0
M  V30 7423 H 717.539 -1.13127 1.11301 0
M  V30 7424 H 717.56 -3.77566 0.471608 0
M  V30 7425 H 717.072 -3.19596 2.20182 0
M  V30 7426 H 715.173 -3.72021 -0.207566 0
M  V30 7427 H 715.286 -4.55636 1.48098 0
M  V30 7428 H 713.65 -2.45042 0.694727 0
M  V30 7429 H 714.433 -2.48774 2.36572 0
M  V30 7430 N 716.879 -0.700114 -1.41195 0
M  V30 7431 C 717.809 -0.0521132 -2.33442 0
M  V30 7432 C 718.79 0.76228 -1.52063 0
M  V30 7433 O 719.975 0.714336 -1.80585 0
M  V30 7434 C 717.105 0.881693 -3.35922 0
M  V30 7435 C 716.059 0.174062 -4.27646 0
M  V30 7436 C 715.385 1.22254 -5.20536 0
M  V30 7437 C 716.685 -0.962396 -5.13357 0
M  V30 7438 H 718.379 -0.822574 -2.87879 0
M  V30 7439 H 715.925 -0.397011 -1.38419 0
M  V30 7440 H 717.878 1.34429 -3.99383 0
M  V30 7441 H 716.602 1.68387 -2.79845 0
M  V30 7442 H 715.261 -0.268551 -3.65615 0
M  V30 7443 H 714.909 2.01736 -4.60773 0
M  V30 7444 H 714.609 0.754038 -5.82742 0
M  V30 7445 H 716.133 1.68555 -5.86874 0
M  V30 7446 H 717.547 -0.579875 -5.7036 0
M  V30 7447 H 715.944 -1.35828 -5.84526 0
M  V30 7448 H 717.014 -1.80003 -4.50252 0
M  V30 7449 N 718.357 1.51182 -0.445186 0
M  V30 7450 C 719.582 2.07056 0.119445 0
M  V30 7451 C 720.007 1.30966 1.35016 0
M  V30 7452 O 719.365 0.349827 1.77893 0
M  V30 7453 C 719.413 3.58234 0.412428 0
M  V30 7454 O 718.517 3.84249 1.49754 0
M  V30 7455 H 717.858 0.663998 -0.00157797 0
M  V30 7456 H 720.388 1.94699 -0.628779 0
M  V30 7457 H 720.398 4.02617 0.660583 0
M  V30 7458 H 719.073 4.13038 -0.487049 0
M  V30 7459 H 717.65 3.51724 1.23873 0
M  V30 7460 N 719.835 0.176821 1.56605 0
M  V30 7461 C 721.06 -0.47599 2.01864 0
M  V30 7462 C 721.485 -1.55645 1.05623 0
M  V30 7463 O 720.843 -1.81263 0.0366729 0
M  V30 7464 C 720.891 -1.02619 3.4569 0
M  V30 7465 O 719.995 -2.13996 3.52533 0
M  V30 7466 H 719.336 -0.113363 0.654251 0
M  V30 7467 H 721.866 0.28233 2.02643 0
M  V30 7468 H 721.876 -1.34742 3.85109 0
M  V30 7469 H 720.551 -0.235138 4.15235 0
M  V30 7470 H 719.128 -1.82876 3.24978 0
M  V30 7471 N 721.313 -1.57302 -0.09688 0
M  V30 7472 C 722.724 -1.7496 -0.651595 0
M  V30 7473 C 723.075 -0.798746 -1.79205 0
M  V30 7474 O 722.2 0.0231858 -2.16388 0
M  V30 7475 C 722.795 -3.17259 -1.18878 0
M  V30 7476 C 721.354 -3.36348 -1.68958 0
M  V30 7477 C 720.501 -2.70766 -0.598413 0
M  V30 7478 H 723.452 -1.58173 0.12918 0
M  V30 7479 H 723.473 -3.20033 -2.05814 0
M  V30 7480 H 722.985 -3.8644 -0.358523 0
M  V30 7481 H 721.086 -2.72243 -2.5439 0
M  V30 7482 H 721.199 -4.44654 -1.7838 0
M  V30 7483 H 719.563 -2.32615 -1.03743 0
M  V30 7484 H 720.346 -3.42586 0.221238 0
M  V30 7485 N 722.791 0.367657 -1.53252 0
M  V30 7486 C 724.016 1.13566 -1.73544 0
M  V30 7487 C 724.441 1.82329 -0.462344 0
M  V30 7488 O 723.799 1.71655 0.583472 0
M  V30 7489 C 723.847 2.14322 -2.89997 0
M  V30 7490 O 722.951 3.21359 -2.58461 0
M  V30 7491 H 722.292 0.329614 -0.576412 0
M  V30 7492 H 724.822 0.425417 -2.00128 0
M  V30 7493 H 724.832 2.57958 -3.16104 0
M  V30 7494 H 723.507 1.63664 -3.82344 0
M  V30 7495 H 722.084 2.8271 -2.43165 0
M  V30 7496 N 724.269 1.44576 0.627338 0
M  V30 7497 C 725.68 1.42266 1.20902 0
M  V30 7498 C 726.031 0.139964 1.957 0
M  V30 7499 O 725.156 -0.759489 2.02634 0
M  V30 7500 C 725.751 2.57727 2.19914 0
M  V30 7501 C 724.31 2.58599 2.73502 0
M  V30 7502 C 723.457 2.34145 1.48564 0
M  V30 7503 H 726.408 1.53102 0.417791 0
M  V30 7504 H 726.429 2.30697 3.02588 0
M  V30 7505 H 725.941 3.51068 1.65447 0
M  V30 7506 H 724.042 1.6921 3.31962 0
M  V30 7507 H 724.155 3.57205 3.19282 0
M  V30 7508 H 722.519 1.83313 1.76829 0
M  V30 7509 H 723.302 3.29606 0.959935 0
M  V30 7510 N 725.747 -0.868086 1.31537 0
M  V30 7511 C 727.163 -1.15414 1.10235 0
M  V30 7512 C 727.363 -2.01106 -0.125947 0
M  V30 7513 O 726.419 -2.38994 -0.814734 0
M  V30 7514 C 727.732 -1.84445 2.37488 0
M  V30 7515 C 729.28 -1.97139 2.43116 0
M  V30 7516 C 729.755 -2.69585 3.70254 0
M  V30 7517 N 731.246 -2.77119 3.71159 0
M  V30 7518 C 731.981 -3.33791 4.6623 0
M  V30 7519 N 731.477 -3.9138 5.71659 0
M  V30 7520 N 733.27 -3.31767 4.53747 0
M  V30 7521 H 725.421 -0.297109 2.10312 0
M  V30 7522 H 727.684 -0.194227 0.92789 0
M  V30 7523 H 727.39 -1.2893 3.27215 0
M  V30 7524 H 727.264 -2.84709 2.47428 0
M  V30 7525 H 729.651 -2.51818 1.53856 0
M  V30 7526 H 729.732 -0.95912 2.37138 0
M  V30 7527 H 729.376 -2.15572 4.59881 0
M  V30 7528 H 729.306 -3.71223 3.73499 0
M  V30 7529 H 731.797 -2.3625 2.94948 0
M  V30 7530 H 732.11 -4.3274 6.40278 0
M  V30 7531 H 730.455 -3.8975 5.7543 0
M  V30 7532 H 733.646 -2.86016 3.70557 0
M  V30 7533 H 733.819 -3.75636 5.28017 0
M  V30 7534 N 727.225 -1.14528 -1.08264 0
M  V30 7535 C 728.474 -0.908992 -1.80056 0
M  V30 7536 C 728.787 0.565859 -1.87236 0
M  V30 7537 O 729.993 0.919454 -2.55457 0
M  V30 7538 C 728.449 -1.57681 -3.23519 0
M  V30 7539 C 728.057 -3.08803 -3.24569 0
M  V30 7540 C 729.801 -1.4217 -3.99985 0
M  V30 7541 C 727.708 -3.68414 -4.62629 0
M  V30 7542 H 726.638 -0.336432 -0.674781 0
M  V30 7543 H 729.289 -1.37437 -1.21587 0
M  V30 7544 H 727.671 -1.03911 -3.82124 0
M  V30 7545 H 728.845 -3.69252 -2.75663 0
M  V30 7546 H 727.16 -3.23968 -2.61598 0
M  V30 7547 H 729.757 -1.84106 -5.02005 0
M  V30 7548 H 730.1 -0.367989 -4.1467 0
M  V30 7549 H 730.633 -1.92984 -3.47853 0
M  V30 7550 H 727.372 -4.73644 -4.53147 0
M  V30 7551 H 726.892 -3.12746 -5.11811 0
M  V30 7552 H 728.571 -3.68793 -5.31602 0
M  V30 7553 N 728.703 1.26451 -0.940633 0
M  V30 7554 C 729.928 1.98407 -0.60412 0
M  V30 7555 C 730.353 1.69584 0.81382 0
M  V30 7556 O 729.711 0.943553 1.54812 0
M  V30 7557 C 729.759 3.50387 -0.852136 0
M  V30 7558 O 728.863 4.1233 0.076013 0
M  V30 7559 H 728.204 0.622466 -0.231153 0
M  V30 7560 H 730.734 1.60932 -1.26342 0
M  V30 7561 H 730.744 4.00614 -0.772816 0
M  V30 7562 H 729.419 3.70696 -1.88566 0
M  V30 7563 H 727.996 3.7286 -0.0543187 0
M  V30 7564 N 730.181 0.707592 1.40822 0
M  V30 7565 C 731.458 0.171172 1.9485 0
M  V30 7566 C 731.838 -1.32143 1.64625 0
M  V30 7567 O 731.186 -2.07372 0.959647 0
M  V30 7568 C 731.396 0.475334 3.45748 0
M  V30 7569 C 732.744 0.409625 4.22619 0
M  V30 7570 O 733.768 0.410934 3.53822 0
M  V30 7571 O 732.627 0.380185 5.45176 0
M  V30 7572 H 729.721 0.022015 0.826707 0
M  V30 7573 H 732.267 0.784577 1.50474 0
M  V30 7574 H 731.039 1.50801 3.61075 0
M  V30 7575 H 730.662 -0.168439 3.97243 0
M  V30 7576 N 731.66 -1.50943 0.453197 0
M  V30 7577 C 732.909 -2.01402 -0.10951 0
M  V30 7578 C 733.222 -1.3411 -1.42386 0
M  V30 7579 O 734.428 -1.75626 -2.07045 0
M  V30 7580 C 732.884 -3.5906 -0.245693 0
M  V30 7581 C 732.492 -4.353 1.05916 0
M  V30 7582 C 734.236 -4.17617 -0.761318 0
M  V30 7583 C 732.143 -5.84699 0.887752 0
M  V30 7584 H 731.073 -0.752674 -0.0447013 0
M  V30 7585 H 733.724 -1.73913 0.585375 0
M  V30 7586 H 732.106 -3.83062 -1.00395 0
M  V30 7587 H 733.28 -4.23034 1.82698 0
M  V30 7588 H 731.595 -3.88269 1.50452 0
M  V30 7589 H 734.192 -5.26963 -0.906306 0
M  V30 7590 H 734.535 -3.77824 -1.74799 0
M  V30 7591 H 735.068 -3.97753 -0.0609416 0
M  V30 7592 H 731.807 -6.28933 1.84726 0
M  V30 7593 H 731.327 -5.99587 0.160006 0
M  V30 7594 H 733.006 -6.44682 0.547223 0
M  V30 7595 N 733.138 -0.185124 -1.56509 0
M  V30 7596 C 734.068 0.735098 -2.21627 0
M  V30 7597 C 735.049 1.2288 -1.1762 0
M  V30 7598 O 736.234 1.27945 -1.46095 0
M  V30 7599 C 733.364 1.95889 -2.86783 0
M  V30 7600 C 732.318 1.6005 -3.96948 0
M  V30 7601 C 731.644 2.90009 -4.4922 0
M  V30 7602 C 732.944 0.818008 -5.15855 0
M  V30 7603 H 734.638 0.192274 -2.98782 0
M  V30 7604 H 732.184 0.0910393 -1.43712 0
M  V30 7605 H 734.137 2.60779 -3.31017 0
M  V30 7606 H 732.861 2.52608 -2.07018 0
M  V30 7607 H 731.52 0.975237 -3.5339 0
M  V30 7608 H 731.168 3.44797 -3.6623 0
M  V30 7609 H 730.868 2.66778 -5.23549 0
M  V30 7610 H 732.392 3.55904 -4.9615 0
M  V30 7611 H 733.806 1.36979 -5.56695 0
M  V30 7612 H 732.203 0.684207 -5.96187 0
M  V30 7613 H 733.273 -0.182939 -4.84555 0
M  V30 7614 N 734.616 1.57351 0.0885366 0
M  V30 7615 C 735.564 2.03542 1.12576 0
M  V30 7616 C 736.558 0.937668 1.41082 0
M  V30 7617 O 737.764 1.12283 1.40686 0
M  V30 7618 H 734.139 0.648752 0.380296 0
M  V30 7619 H 736.11 2.89833 0.709906 0
M  V30 7620 C 734.859 2.4811 2.43591 0
M  V30 7621 H 734.182 3.32164 2.22502 0
M  V30 7622 H 735.622 2.842 3.14653 0
M  V30 7623 C 734.081 1.35708 3.08359 0
M  V30 7624 O 734.611 0.689852 3.95732 0
M  V30 7625 N 732.817 1.10641 2.68713 0
M  V30 7626 H 732.364 1.6508 1.97753 0
M  V30 7627 H 732.322 0.356355 3.12374 0
M  V30 7628 N 736.094 -0.359525 1.53444 0
M  V30 7629 C 737.319 -1.12644 1.74144 0
M  V30 7630 C 737.744 -1.82082 0.472007 0
M  V30 7631 O 737.102 -1.71962 -0.57436 0
M  V30 7632 C 737.15 -2.12781 2.9113 0
M  V30 7633 O 736.254 -3.19984 2.60162 0
M  V30 7634 H 735.595 -0.326553 0.578152 0
M  V30 7635 H 738.125 -0.414798 2.00351 0
M  V30 7636 H 738.135 -2.56278 3.17467 0
M  V30 7637 H 736.81 -1.61634 3.83207 0
M  V30 7638 H 735.387 -2.81417 2.44661 0
M  V30 7639 N 737.572 -1.44907 -0.619662 0
M  V30 7640 C 738.818 -1.48512 -1.38102 0
M  V30 7641 C 739.151 -0.121686 -1.93818 0
M  V30 7642 O 738.426 0.862256 -1.74343 0
M  V30 7643 C 738.709 -2.55469 -2.53787 0
M  V30 7644 C 738.562 -4.01212 -2.03345 0
M  V30 7645 C 739.881 -2.58821 -3.55949 0
M  V30 7646 H 737 -0.540712 -0.500799 0
M  V30 7647 H 739.642 -1.7665 -0.69962 0
M  V30 7648 H 737.792 -2.31606 -3.11915 0
M  V30 7649 H 739.464 -4.36245 -1.49959 0
M  V30 7650 H 737.707 -4.12443 -1.34438 0
M  V30 7651 H 738.378 -4.71717 -2.86683 0
M  V30 7652 H 740.854 -2.80172 -3.07641 0
M  V30 7653 H 739.73 -3.35542 -4.34399 0
M  V30 7654 H 739.991 -1.63451 -4.10775 0
M  V30 7655 N 739.05 0.861098 -1.31996 0
M  V30 7656 C 740.466 1.14827 -1.10846 0
M  V30 7657 C 740.666 2.0117 0.11528 0
M  V30 7658 O 739.722 2.39423 0.802048 0
M  V30 7659 C 741.035 1.83183 -2.38462 0
M  V30 7660 C 742.583 1.95847 -2.44158 0
M  V30 7661 C 743.058 2.67617 -3.71679 0
M  V30 7662 N 744.549 2.75147 -3.72624 0
M  V30 7663 C 745.284 3.31314 -4.67994 0
M  V30 7664 N 744.78 3.88343 -5.73726 0
M  V30 7665 N 746.573 3.29356 -4.55501 0
M  V30 7666 H 738.724 0.285951 -2.10466 0
M  V30 7667 H 740.987 0.189303 -0.928907 0
M  V30 7668 H 740.693 1.27193 -3.27895 0
M  V30 7669 H 740.567 2.83393 -2.48935 0
M  V30 7670 H 742.954 2.50999 -1.55189 0
M  V30 7671 H 743.035 0.94653 -2.37644 0
M  V30 7672 H 742.679 2.13131 -4.61018 0
M  V30 7673 H 742.609 3.69237 -3.75462 0
M  V30 7674 H 745.1 2.34682 -2.96197 0
M  V30 7675 H 745.413 4.29338 -6.42564 0
M  V30 7676 H 743.758 3.86693 -5.77489 0
M  V30 7677 H 746.949 2.84047 -3.72069 0
M  V30 7678 H 747.122 3.7283 -5.30001 0
M  V30 7679 N 740.528 1.15101 1.07655 0
M  V30 7680 C 741.944 0.893004 1.32279 0
M  V30 7681 C 742.144 -0.461701 1.96139 0
M  V30 7682 O 741.2 -1.20431 2.21929 0
M  V30 7683 C 742.513 2.03161 2.21689 0
M  V30 7684 C 744.061 2.06579 2.35147 0
M  V30 7685 C 744.536 3.19754 3.27905 0
M  V30 7686 N 746.027 3.19382 3.35484 0
M  V30 7687 C 746.762 4.03592 4.07309 0
M  V30 7688 N 746.258 4.97859 4.81776 0
M  V30 7689 N 748.051 3.91626 4.03219 0
M  V30 7690 H 740.202 2.02341 0.645886 0
M  V30 7691 H 742.465 0.882127 0.347211 0
M  V30 7692 H 742.171 3.00934 1.82021 0
M  V30 7693 H 742.045 1.96132 3.22199 0
M  V30 7694 H 744.432 1.09408 2.74069 0
M  V30 7695 H 744.513 2.17676 1.34353 0
M  V30 7696 H 744.157 4.17175 2.89702 0
M  V30 7697 H 744.087 3.05893 4.28645 0
M  V30 7698 H 746.578 2.51112 2.82403 0
M  V30 7699 H 746.891 5.58563 5.34067 0
M  V30 7700 H 745.236 5.0185 4.80803 0
M  V30 7701 H 748.427 3.17295 3.44154 0
M  V30 7702 H 748.6 4.57479 4.5893 0
M  V30 7703 N 742.006 -1.2595 0.947325 0
M  V30 7704 C 743.254 -1.93081 0.596996 0
M  V30 7705 C 743.575 -1.74632 -0.867672 0
M  V30 7706 O 742.845 -1.1056 -1.6172 0
M  V30 7707 H 741.425 -0.714542 0.217805 0
M  V30 7708 H 744.087 -1.53265 1.20398 0
M  V30 7709 H 743.183 -3.01134 0.82004 0
M  V30 7710 N 743.484 -0.715051 -1.40445 0
M  V30 7711 C 744.709 -0.26254 -2.05732 0
M  V30 7712 C 745.134 1.08691 -1.53519 0
M  V30 7713 O 744.492 1.68453 -0.670328 0
M  V30 7714 C 744.54 -0.25195 -3.59719 0
M  V30 7715 O 743.644 0.766998 -4.05205 0
M  V30 7716 H 742.985 -0.123398 -0.652433 0
M  V30 7717 H 745.515 -0.975382 -1.79854 0
M  V30 7718 H 745.525 -0.0894537 -4.07902 0
M  V30 7719 H 744.2 -1.23672 -3.97087 0
M  V30 7720 H 742.777 0.572269 -3.68483 0
M  V30 7721 N 744.962 1.50701 -0.461195 0
M  V30 7722 C 746.21 2.01867 0.0970051 0
M  V30 7723 C 746.531 1.34591 1.41104 0
M  V30 7724 O 745.801 0.488041 1.89723 0
M  V30 7725 H 744.381 0.74599 0.0388392 0
M  V30 7726 H 747.043 1.85129 -0.609357 0
M  V30 7727 H 746.139 3.11051 0.255688 0
M  V30 7728 N 746.441 0.193421 1.56409 0
M  V30 7729 C 747.669 -0.451438 2.01915 0
M  V30 7730 C 748.084 -1.55306 1.07357 0
M  V30 7731 O 747.441 -1.82333 0.0781512 0
M  V30 7732 C 747.492 -1.00931 3.47124 0
M  V30 7733 O 747.213 0.0483623 4.38073 0
M  V30 7734 C 748.714 -1.73021 4.0814 0
M  V30 7735 H 745.934 -0.113495 0.661332 0
M  V30 7736 H 748.478 0.301636 2.02263 0
M  V30 7737 H 746.633 -1.71277 3.47481 0
M  V30 7738 H 747.047 -0.366644 5.23217 0
M  V30 7739 H 748.521 -2.07289 5.11601 0
M  V30 7740 H 748.998 -2.6333 3.51502 0
M  V30 7741 H 749.604 -1.07264 4.11551 0
M  V30 7742 N 747.919 -1.57396 -0.0801906 0
M  V30 7743 C 749.33 -1.75642 -0.633002 0
M  V30 7744 C 749.681 -0.817708 -1.78348 0
M  V30 7745 O 748.806 0.000233743 -2.164 0
M  V30 7746 C 749.401 -3.18502 -1.15507 0
M  V30 7747 C 747.96 -3.38121 -1.65381 0
M  V30 7748 C 747.107 -2.71386 -0.569661 0
M  V30 7749 H 750.058 -1.58027 0.145949 0
M  V30 7750 H 750.079 -3.22198 -2.02408 0
M  V30 7751 H 749.591 -3.86799 -0.317515 0
M  V30 7752 H 747.692 -2.74926 -2.51488 0
M  V30 7753 H 747.805 -4.46521 -1.73654 0
M  V30 7754 H 746.169 -2.33702 -1.0127 0
M  V30 7755 H 746.952 -3.42332 0.257561 0
M  V30 7756 N 749.397 0.351382 -1.53633 0
M  V30 7757 C 750.307 1.45471 -1.84052 0
M  V30 7758 C 751.323 1.57945 -0.730015 0
M  V30 7759 O 752.499 1.73571 -1.02153 0
M  V30 7760 C 749.564 2.80562 -2.03681 0
M  V30 7761 C 748.625 2.77497 -3.27558 0
M  V30 7762 C 747.858 4.06144 -3.46241 0
M  V30 7763 O 748.081 5.03028 -2.68922 0
M  V30 7764 O 747.015 4.11092 -4.39645 0
M  V30 7765 H 750.841 1.22684 -2.77817 0
M  V30 7766 H 748.426 0.542827 -1.3919 0
M  V30 7767 H 750.308 3.6058 -2.18082 0
M  V30 7768 H 748.983 3.03296 -1.13106 0
M  V30 7769 H 747.89 1.96126 -3.18568 0
M  V30 7770 H 749.223 2.59716 -4.18101 0
M  V30 7771 N 750.875 1.45233 0.611969 0
M  V30 7772 C 751.838 1.53189 1.70487 0
M  V30 7773 C 752.838 0.411839 1.55437 0
M  V30 7774 O 754.028 0.675164 1.60584 0
M  V30 7775 C 751.16 1.42422 3.09723 0
M  V30 7776 H 752.353 2.5056 1.64802 0
M  V30 7777 H 749.906 1.32609 0.827318 0
M  V30 7778 H 750.641 0.462185 3.2099 0
M  V30 7779 H 750.426 2.23658 3.22055 0
M  V30 7780 H 751.916 1.51012 3.89339 0
M  V30 7781 N 752.353 -0.854086 1.3245 0
M  V30 7782 C 753.263 -1.99503 1.23434 0
M  V30 7783 C 754.279 -1.73371 0.147828 0
M  V30 7784 O 755.455 -1.97998 0.368609 0
M  V30 7785 C 752.52 -3.33192 0.958328 0
M  V30 7786 C 751.581 -3.72542 2.13333 0
M  V30 7787 C 750.814 -4.99852 1.8704 0
M  V30 7788 O 751.037 -5.64573 0.813239 0
M  V30 7789 O 749.971 -5.36345 2.73161 0
M  V30 7790 H 753.797 -2.10046 2.1935 0
M  V30 7791 H 751.382 -0.984823 1.12346 0
M  V30 7792 H 753.264 -4.13327 0.820918 0
M  V30 7793 H 751.939 -3.23687 0.0293299 0
M  V30 7794 H 750.846 -2.92981 2.32622 0
M  V30 7795 H 752.179 -3.86694 3.04514 0
M  V30 7796 N 753.831 -1.1567 -1.07043 0
M  V30 7797 C 755.079 -0.931673 -1.79344 0
M  V30 7798 C 755.4 0.542421 -1.87304 0
M  V30 7799 O 754.67 1.39418 -1.37621 0
M  V30 7800 H 753.25 -0.34171 -0.664262 0
M  V30 7801 H 755.912 -1.45795 -1.29344 0
M  V30 7802 H 755.008 -1.34379 -2.81689 0
M  V30 7803 N 755.309 1.25446 -0.953992 0
M  V30 7804 C 756.72 1.75047 -0.649255 0
M  V30 7805 C 757.071 1.77527 0.835385 0
M  V30 7806 O 756.196 1.39569 1.65377 0
M  V30 7807 C 756.791 3.17889 -1.17183 0
M  V30 7808 C 755.35 3.65052 -0.917267 0
M  V30 7809 C 754.497 2.44124 -1.31525 0
M  V30 7810 H 757.448 1.11342 -1.13087 0
M  V30 7811 H 757.469 3.76768 -0.531616 0
M  V30 7812 H 756.981 3.16052 -2.25239 0
M  V30 7813 H 755.082 3.72305 0.148354 0
M  V30 7814 H 755.195 4.53222 -1.55328 0
M  V30 7815 H 753.559 2.43906 -0.733624 0
M  V30 7816 H 754.342 2.44979 -2.405 0
M  V30 7817 N 756.787 0.722489 1.40064 0
M  V30 7818 C 758.012 0.273446 2.05589 0
M  V30 7819 C 758.437 -1.07875 1.54093 0
M  V30 7820 O 757.795 -1.68095 0.679252 0
M  V30 7821 C 757.843 0.271023 3.5958 0
M  V30 7822 O 756.947 -0.745499 4.05606 0
M  V30 7823 H 756.288 0.126856 0.65177 0
M  V30 7824 H 758.818 0.984906 1.79334 0
M  V30 7825 H 758.828 0.111084 4.07849 0
M  V30 7826 H 757.503 1.25776 3.96425 0
M  V30 7827 H 756.08 -0.552719 3.68781 0
M  V30 7828 N 758.265 -1.50454 0.469181 0
M  V30 7829 C 759.676 -1.86695 0.0136034 0
M  V30 7830 C 760.027 -1.38413 -1.39055 0
M  V30 7831 O 759.152 -0.748294 -2.03051 0
M  V30 7832 C 759.747 -3.38795 0.0179098 0
M  V30 7833 C 758.306 -3.74455 -0.382191 0
M  V30 7834 C 757.453 -2.74338 0.404207 0
M  V30 7835 H 760.404 -1.43225 0.683547 0
M  V30 7836 H 760.425 -3.72321 -0.78468 0
M  V30 7837 H 759.937 -3.73906 1.04 0
M  V30 7838 H 758.038 -3.44944 -1.4087 0
M  V30 7839 H 758.151 -4.79025 -0.084862 0
M  V30 7840 H 756.515 -2.54305 -0.141829 0
M  V30 7841 H 757.298 -3.12293 1.42577 0
M  V30 7842 N 759.743 -0.201713 -1.56304 0
M  V30 7843 C 760.989 0.435952 -1.98059 0
M  V30 7844 C 761.322 1.60811 -1.08873 0
M  V30 7845 O 760.597 1.9398 -0.142128 0
M  V30 7846 C 760.88 0.889706 -3.48936 0
M  V30 7847 C 760.733 -0.284725 -4.48898 0
M  V30 7848 C 762.052 1.7529 -4.03685 0
M  V30 7849 H 759.171 0.15699 -0.720085 0
M  V30 7850 H 761.813 -0.293965 -1.87712 0
M  V30 7851 H 759.963 1.51166 -3.57884 0
M  V30 7852 H 761.635 -0.922531 -4.51981 0
M  V30 7853 H 759.878 -0.935427 -4.23594 0
M  V30 7854 H 760.549 0.0753865 -5.51949 0
M  V30 7855 H 763.025 1.2283 -3.97558 0
M  V30 7856 H 761.901 2.03933 -5.0961 0
M  V30 7857 H 762.162 2.70939 -3.49348 0
M  V30 7858 N 761.222 1.57436 0.0718424 0
M  V30 7859 C 762.47 1.86878 0.769484 0
M  V30 7860 C 762.791 0.7937 1.78116 0
M  V30 7861 O 762.061 -0.177642 1.95093 0
M  V30 7862 H 760.641 0.689593 0.287177 0
M  V30 7863 H 763.303 1.94841 0.0479427 0
M  V30 7864 H 762.399 2.84387 1.28572 0
M  V30 7865 N 762.7 -0.34323 1.53817 0
M  V30 7866 C 764.111 -0.918823 1.62525 0
M  V30 7867 C 764.462 -1.89542 0.506765 0
M  V30 7868 O 763.587 -2.13326 -0.363441 0
M  V30 7869 C 764.182 -1.67326 2.94597 0
M  V30 7870 C 762.741 -2.19786 3.05567 0
M  V30 7871 C 761.888 -1.01708 2.57974 0
M  V30 7872 H 764.839 -0.121358 1.58235 0
M  V30 7873 H 764.86 -2.53615 2.83654 0
M  V30 7874 H 764.372 -0.962223 3.75983 0
M  V30 7875 H 762.473 -2.94065 2.28816 0
M  V30 7876 H 762.586 -2.46135 4.1104 0
M  V30 7877 H 760.95 -1.39058 2.13389 0
M  V30 7878 H 761.733 -0.320671 3.41799 0
M  V30 7879 N 764.178 -1.45556 -0.604258 0
M  V30 7880 C 765.589 -1.44171 -1.18624 0
M  V30 7881 C 765.94 -0.171081 -1.95453 0
M  V30 7882 O 765.065 0.727156 -2.03817 0
M  V30 7883 C 765.66 -2.61193 -2.15786 0
M  V30 7884 C 764.219 -2.62918 -2.69353 0
M  V30 7885 C 763.366 -2.36479 -1.4482 0
M  V30 7886 H 766.317 -1.53747 -0.393381 0
M  V30 7887 H 766.338 -2.35481 -2.98879 0
M  V30 7888 H 765.85 -3.53656 -1.59841 0
M  V30 7889 H 763.951 -1.7447 -3.29228 0
M  V30 7890 H 764.064 -3.6224 -3.13559 0
M  V30 7891 H 762.428 -1.86103 -1.73891 0
M  V30 7892 H 763.211 -3.31091 -0.907376 0
M  V30 7893 N 765.656 0.84705 -1.32902 0
M  V30 7894 C 767.067 1.41785 -1.21466 0
M  V30 7895 C 767.418 1.95464 0.169767 0
M  V30 7896 O 766.543 1.88157 1.06892 0
M  V30 7897 C 767.138 2.57734 -2.19906 0
M  V30 7898 C 765.697 3.10791 -2.12334 0
M  V30 7899 C 764.844 1.83562 -2.07847 0
M  V30 7900 H 767.795 0.653532 -1.44619 0
M  V30 7901 H 767.816 3.35123 -1.80202 0
M  V30 7902 H 767.328 2.18635 -3.20656 0
M  V30 7903 H 765.429 3.54455 -1.14858 0
M  V30 7904 H 765.542 3.71519 -3.02506 0
M  V30 7905 H 763.906 2.03475 -1.53199 0
M  V30 7906 H 764.689 1.4667 -3.10392 0
M  V30 7907 N 767.134 1.16236 1.06428 0
M  V30 7908 C 768.374 0.95369 1.80787 0
M  V30 7909 C 768.738 -0.509495 1.85117 0
M  V30 7910 O 769.939 -0.836822 2.55442 0
M  V30 7911 C 768.21 1.56235 3.21443 0
M  V30 7912 S 769.769 1.49812 4.12434 0
M  V30 7913 H 766.587 0.343004 0.622792 0
M  V30 7914 H 769.189 1.47957 1.27785 0
M  V30 7915 H 767.893 2.62 3.15886 0
M  V30 7916 H 767.424 1.03574 3.79521 0
M  V30 7917 H 769.439 0.49745 4.937 0
M  V30 7918 N 768.612 -1.24939 0.960631 0
M  V30 7919 C 770.023 -1.74701 0.658529 0
M  V30 7920 C 770.374 -1.77967 -0.825959 0
M  V30 7921 O 769.499 -1.40444 -1.64634 0
M  V30 7922 C 770.094 -3.17263 1.18867 0
M  V30 7923 C 768.653 -3.64561 0.936614 0
M  V30 7924 C 767.8 -2.43423 1.32817 0
M  V30 7925 H 770.751 -1.10741 1.13676 0
M  V30 7926 H 770.772 -3.76481 0.551589 0
M  V30 7927 H 770.284 -3.14854 2.26912 0
M  V30 7928 H 768.385 -3.72378 -0.128608 0
M  V30 7929 H 768.498 -4.52392 1.57729 0
M  V30 7930 H 766.862 -2.43513 0.746548 0
M  V30 7931 H 767.645 -2.437 2.41796 0
M  V30 7932 N 770.09 -0.729906 -1.39679 0
M  V30 7933 C 771.315 -0.284345 -2.05442 0
M  V30 7934 C 771.74 1.07056 -1.54663 0
M  V30 7935 O 771.098 1.67732 -0.688157 0
M  V30 7936 C 771.146 -0.290089 -3.59431 0
M  V30 7937 O 770.25 0.723978 -4.05995 0
M  V30 7938 H 769.591 -0.130311 -0.651088 0
M  V30 7939 H 772.121 -0.994403 -1.78809 0
M  V30 7940 H 772.131 -0.132712 -4.07784 0
M  V30 7941 H 770.806 -1.27877 -3.95753 0
M  V30 7942 H 769.383 0.533154 -3.69069 0
M  V30 7943 N 771.568 1.50203 -0.477153 0
M  V30 7944 C 772.979 1.86685 -0.0235041 0
M  V30 7945 C 773.33 1.39148 1.38319 0
M  V30 7946 O 772.455 0.759051 2.02651 0
M  V30 7947 C 773.05 3.38781 -0.0358767 0
M  V30 7948 C 771.609 3.74652 0.362327 0
M  V30 7949 C 770.756 2.7412 -0.41875 0
M  V30 7950 H 773.707 1.4286 -0.691133 0
M  V30 7951 H 773.728 3.72732 0.764924 0
M  V30 7952 H 773.24 3.73349 -1.05981 0
M  V30 7953 H 771.341 3.45686 1.39039 0
M  V30 7954 H 771.454 4.79063 0.059457 0
M  V30 7955 H 769.818 2.54376 0.128341 0
M  V30 7956 H 770.601 3.11532 -1.44231 0
M  V30 7957 N 773.046 0.209999 1.56195 0
M  V30 7958 C 774.274 -0.429996 2.02382 0
M  V30 7959 C 774.689 -1.54159 1.08998 0
M  V30 7960 O 774.046 -1.82239 0.0974856 0
M  V30 7961 C 774.097 -0.972433 3.48175 0
M  V30 7962 O 773.818 0.0948231 4.37997 0
M  V30 7963 C 775.319 -1.68683 4.09952 0
M  V30 7964 H 772.539 -0.106475 0.662498 0
M  V30 7965 H 775.083 0.323072 2.01932 0
M  V30 7966 H 773.238 -1.67582 3.49278 0
M  V30 7967 H 773.652 -0.31113 5.23576 0
M  V30 7968 H 775.126 -2.01851 5.13771 0
M  V30 7969 H 775.603 -2.59587 3.54276 0
M  V30 7970 H 776.209 -1.02893 4.12666 0
M  V30 7971 N 774.524 -1.57472 -0.0634922 0
M  V30 7972 C 775.773 -1.86837 -0.759928 0
M  V30 7973 C 776.086 -0.803823 -1.7832 0
M  V30 7974 O 777.292 -0.985578 -2.52979 0
M  V30 7975 C 775.748 -3.31448 -1.4025 0
M  V30 7976 C 775.356 -4.46052 -0.417368 0
M  V30 7977 C 777.1 -3.70003 -2.08082 0
M  V30 7978 C 775.007 -5.81707 -1.06633 0
M  V30 7979 H 773.937 -0.697009 -0.287567 0
M  V30 7980 H 776.588 -1.83495 -0.0133914 0
M  V30 7981 H 774.97 -3.29427 -2.19759 0
M  V30 7982 H 776.144 -4.5948 0.348503 0
M  V30 7983 H 774.459 -4.16104 0.156955 0
M  V30 7984 H 777.056 -4.68653 -2.57426 0
M  V30 7985 H 777.399 -3.00226 -2.88393 0
M  V30 7986 H 777.932 -3.7405 -1.35394 0
M  V30 7987 H 774.671 -6.54798 -0.303374 0
M  V30 7988 H 774.191 -5.72064 -1.80286 0
M  V30 7989 H 775.87 -6.27317 -1.58376 0
M  V30 7990 N 776.003 0.335068 -1.53997 0
M  V30 7991 C 777.414 0.910191 -1.6301 0
M  V30 7992 C 777.765 1.89271 -0.516809 0
M  V30 7993 O 776.89 2.13516 0.352123 0
M  V30 7994 C 777.485 1.65761 -2.9548 0
M  V30 7995 C 776.044 2.18163 -3.06728 0
M  V30 7996 C 775.191 1.00338 -2.5851 0
M  V30 7997 H 778.142 0.112965 -1.58297 0
M  V30 7998 H 778.163 2.52107 -2.84995 0
M  V30 7999 H 777.675 0.94227 -3.76488 0
M  V30 8000 H 775.776 2.92847 -2.30372 0
M  V30 8001 H 775.889 2.43952 -4.1234 0
M  V30 8002 H 774.253 1.37925 -2.14124 0
M  V30 8003 H 775.036 0.30254 -3.41964 0
M  V30 8004 N 777.481 1.45874 0.596531 0
M  V30 8005 C 778.729 1.5017 1.35253 0
M  V30 8006 C 779.05 0.149246 1.94428 0
M  V30 8007 O 778.32 -0.82268 1.77789 0
M  V30 8008 H 776.9 0.553052 0.502138 0
M  V30 8009 H 779.562 1.81908 0.699671 0
M  V30 8010 H 778.658 2.24671 2.16632 0
M  V30 8011 N 778.959 -0.83999 1.33349 0
M  V30 8012 C 780.37 -1.41139 1.22216 0
M  V30 8013 C 780.721 -1.95551 -0.159398 0
M  V30 8014 O 779.846 -1.88721 -1.05893 0
M  V30 8015 C 780.441 -2.56564 2.21269 0
M  V30 8016 C 779 -3.09661 2.13979 0
M  V30 8017 C 778.147 -1.82457 2.08818 0
M  V30 8018 H 781.098 -0.645853 1.44964 0
M  V30 8019 H 781.119 -3.34163 1.81976 0
M  V30 8020 H 780.631 -2.16932 3.21811 0
M  V30 8021 H 778.732 -3.53841 1.16736 0
M  V30 8022 H 778.845 -3.6991 3.04472 0
M  V30 8023 H 777.209 -2.0266 1.54276 0
M  V30 8024 H 777.992 -1.45022 3.11165 0
M  V30 8025 N 780.437 -1.16799 -1.0581 0
M  V30 8026 C 781.367 -0.902241 -2.15364 0
M  V30 8027 C 782.348 0.153351 -1.69407 0
M  V30 8028 O 783.533 0.00442032 -1.94199 0
M  V30 8029 C 780.663 -0.407911 -3.44896 0
M  V30 8030 C 779.617 -1.40197 -4.04387 0
M  V30 8031 C 778.943 -0.765848 -5.29187 0
M  V30 8032 C 780.243 -2.77316 -4.42598 0
M  V30 8033 H 781.937 -1.81841 -2.37853 0
M  V30 8034 H 779.483 -0.875731 -1.14311 0
M  V30 8035 H 781.436 -0.20945 -4.20879 0
M  V30 8036 H 780.16 0.54378 -3.22041 0
M  V30 8037 H 778.819 -1.58707 -3.30466 0
M  V30 8038 H 778.467 0.192482 -5.02632 0
M  V30 8039 H 778.167 -1.42939 -5.69949 0
M  V30 8040 H 779.691 -0.577519 -6.07863 0
M  V30 8041 H 781.105 -2.62561 -5.09642 0
M  V30 8042 H 779.502 -3.4019 -4.94359 0
M  V30 8043 H 780.572 -3.32199 -3.53231 0
M  V30 8044 N 781.915 1.24427 -0.967243 0
M  V30 8045 C 783.326 1.74349 -0.667785 0
M  V30 8046 C 783.677 1.78403 0.816509 0
M  V30 8047 O 782.802 1.41315 1.63887 0
M  V30 8048 C 783.397 3.16628 -1.20548 0
M  V30 8049 C 781.956 3.64059 -0.955934 0
M  V30 8050 C 781.103 2.42715 -1.34106 0
M  V30 8051 H 784.054 1.10136 -1.14262 0
M  V30 8052 H 784.075 3.76183 -0.571547 0
M  V30 8053 H 783.587 3.13646 -2.28578 0
M  V30 8054 H 781.688 3.72441 0.108858 0
M  V30 8055 H 781.801 4.51549 -1.60126 0
M  V30 8056 H 780.165 2.43114 -0.759452 0
M  V30 8057 H 780.948 2.42414 -2.43085 0
M  V30 8058 N 783.393 0.737304 1.3929 0
M  V30 8059 C 784.621 0.296573 2.04763 0
M  V30 8060 C 785.036 -1.06941 1.55592 0
M  V30 8061 O 784.393 -1.67619 0.721822 0
M  V30 8062 C 784.444 0.291906 3.6032 0
M  V30 8063 O 784.165 1.60397 4.07682 0
M  V30 8064 C 785.666 -0.164708 4.42994 0
M  V30 8065 H 782.886 0.129251 0.658434 0
M  V30 8066 H 785.43 1.0016 1.78293 0
M  V30 8067 H 783.585 -0.364251 3.85684 0
M  V30 8068 H 783.999 1.51909 5.0202 0
M  V30 8069 H 785.473 -0.116814 5.51876 0
M  V30 8070 H 785.95 -1.21022 4.22197 0
M  V30 8071 H 786.556 0.461968 4.22784 0
M  V30 8072 N 784.871 -1.49948 0.485112 0
M  V30 8073 C 786.282 -1.8667 0.0334041 0
M  V30 8074 C 786.633 -1.3988 -1.37579 0
M  V30 8075 O 785.758 -0.769788 -2.02245 0
M  V30 8076 C 786.353 -3.38757 0.0538426 0
M  V30 8077 C 784.912 -3.74839 -0.342453 0
M  V30 8078 C 784.059 -2.73894 0.433281 0
M  V30 8079 H 787.01 -1.42492 0.698699 0
M  V30 8080 H 787.031 -3.73132 -0.745146 0
M  V30 8081 H 786.543 -3.72782 1.07959 0
M  V30 8082 H 784.644 -3.46419 -1.37203 0
M  V30 8083 H 784.757 -4.79088 -0.0340503 0
M  V30 8084 H 783.121 -2.54441 -0.114849 0
M  V30 8085 H 783.904 -3.10763 1.45881 0
M  V30 8086 N 786.349 -0.21828 -1.56081 0
M  V30 8087 C 787.574 0.422302 -2.03055 0
M  V30 8088 C 787.999 1.5279 -1.09713 0
M  V30 8089 O 787.357 1.81102 -0.0847187 0
M  V30 8090 C 787.405 0.934177 -3.48289 0
M  V30 8091 O 786.509 2.04574 -3.58083 0
M  V30 8092 H 785.85 0.0959764 -0.657027 0
M  V30 8093 H 788.38 -0.335958 -2.01823 0
M  V30 8094 H 788.39 1.24484 -3.88546 0
M  V30 8095 H 787.065 0.124963 -4.15712 0
M  V30 8096 H 785.642 1.74196 -3.29712 0
M  V30 8097 N 787.827 1.57504 0.0551401 0
M  V30 8098 C 789.243 1.54236 0.410292 0
M  V30 8099 C 789.443 0.940839 1.78187 0
M  V30 8100 O 788.499 0.550541 2.46425 0
M  V30 8101 C 789.812 2.98816 0.336064 0
M  V30 8102 C 791.36 3.10236 0.415047 0
M  V30 8103 C 791.835 4.56499 0.37055 0
M  V30 8104 N 793.326 4.61199 0.43013 0
M  V30 8105 C 794.061 5.71873 0.418179 0
M  V30 8106 N 793.557 6.91864 0.360056 0
M  V30 8107 N 795.35 5.60165 0.465977 0
M  V30 8108 H 787.501 1.94965 -0.842759 0
M  V30 8109 H 789.764 0.893096 -0.317937 0
M  V30 8110 H 789.47 3.4645 -0.605429 0
M  V30 8111 H 789.344 3.59564 1.13988 0
M  V30 8112 H 791.731 2.62566 1.34697 0
M  V30 8113 H 791.812 2.52367 -0.417648 0
M  V30 8114 H 791.456 5.0483 -0.557592 0
M  V30 8115 H 791.386 5.12249 1.221 0
M  V30 8116 H 793.877 3.74857 0.478623 0
M  V30 8117 H 794.19 7.71983 0.35532 0
M  V30 8118 H 792.535 6.94233 0.326492 0
M  V30 8119 H 795.726 4.65322 0.509194 0
M  V30 8120 H 795.899 6.46413 0.453194 0
M  V30 8121 N 789.305 -0.326896 1.54172 0
M  V30 8122 C 790.252 -1.40216 1.83325 0
M  V30 8123 C 791.222 -1.51538 0.680107 0
M  V30 8124 O 792.407 -1.66811 0.926206 0
M  V30 8125 C 789.547 -2.76626 2.0633 0
M  V30 8126 C 788.66 -2.73963 3.34019 0
M  V30 8127 C 787.795 -4.02198 3.47002 0
M  V30 8128 C 786.834 -3.93828 4.68578 0
M  V30 8129 N 785.971 -5.13787 4.78506 0
M  V30 8130 H 790.811 -1.14656 2.7506 0
M  V30 8131 H 788.348 -0.555089 1.36225 0
M  V30 8132 H 790.306 -3.55922 2.17659 0
M  V30 8133 H 788.936 -3.00503 1.1789 0
M  V30 8134 H 787.988 -1.86677 3.31445 0
M  V30 8135 H 789.3 -2.6366 4.2342 0
M  V30 8136 H 788.454 -4.89923 3.57855 0
M  V30 8137 H 787.193 -4.15302 2.55687 0
M  V30 8138 H 786.198 -3.04487 4.57786 0
M  V30 8139 H 787.423 -3.82292 5.61275 0
M  V30 8140 H 785.369 -5.27403 3.90105 0
M  V30 8141 H 785.286 -5.05807 5.61868 0
M  V30 8142 H 786.554 -6.03236 4.93686 0
M  V30 8143 N 790.784 -1.46188 -0.588786 0
M  V30 8144 C 791.716 -1.52319 -1.71265 0
M  V30 8145 C 792.729 -0.412096 -1.57498 0
M  V30 8146 O 793.918 -0.680146 -1.65034 0
M  V30 8147 C 791.018 -1.38164 -3.09458 0
M  V30 8148 C 790.191 -2.63284 -3.49286 0
M  V30 8149 C 789.25 -2.43415 -4.66514 0
M  V30 8150 O 788.276 -3.17113 -4.72682 0
M  V30 8151 N 789.478 -1.49187 -5.61002 0
M  V30 8152 H 792.243 -2.49219 -1.66463 0
M  V30 8153 H 789.804 -1.42167 -0.774601 0
M  V30 8154 H 791.796 -1.22653 -3.85666 0
M  V30 8155 H 790.366 -0.494678 -3.08661 0
M  V30 8156 H 789.586 -2.93779 -2.62845 0
M  V30 8157 H 790.874 -3.46413 -3.7266 0
M  V30 8158 H 790.272 -0.884027 -5.5875 0
M  V30 8159 H 788.829 -1.39642 -6.36666 0
M  V30 8160 N 792.262 0.832906 -1.33792 0
M  V30 8161 C 793.172 1.97514 -1.26592 0
M  V30 8162 C 794.188 1.73114 -0.175391 0
M  V30 8163 O 795.364 1.97387 -0.400062 0
M  V30 8164 C 792.429 3.31625 -1.01121 0
M  V30 8165 C 791.49 3.69101 -2.19233 0
M  V30 8166 C 790.723 4.96813 -1.94968 0
M  V30 8167 O 790.946 5.63208 -0.902955 0
M  V30 8168 O 789.88 5.31932 -2.8166 0
M  V30 8169 H 793.706 2.0653 -2.22664 0
M  V30 8170 H 791.291 0.966826 -1.13898 0
M  V30 8171 H 793.173 4.11968 -0.886571 0
M  V30 8172 H 791.848 3.23599 -0.080822 0
M  V30 8173 H 790.755 2.89243 -2.37253 0
M  V30 8174 H 792.088 3.818 -3.10628 0
M  V30 8175 N 793.74 1.17359 1.05189 0
M  V30 8176 C 794.989 0.956412 1.77583 0
M  V30 8177 C 795.302 -0.516018 1.88671 0
M  V30 8178 O 796.508 -0.851401 2.57805 0
M  V30 8179 C 794.964 1.66203 3.19225 0
M  V30 8180 C 794.572 3.17299 3.16267 0
M  V30 8181 C 796.316 1.52725 3.96075 0
M  V30 8182 C 794.223 3.8055 4.52698 0
M  V30 8183 H 793.153 0.354204 0.665624 0
M  V30 8184 H 795.804 1.40612 1.17901 0
M  V30 8185 H 794.186 1.14006 3.79234 0
M  V30 8186 H 795.36 3.76431 2.65776 0
M  V30 8187 H 793.675 3.3079 2.52917 0
M  V30 8188 H 796.272 1.97351 4.96947 0
M  V30 8189 H 796.615 0.477803 4.13549 0
M  V30 8190 H 797.148 2.02139 3.42614 0
M  V30 8191 H 793.887 4.85492 4.4043 0
M  V30 8192 H 793.407 3.26206 5.03339 0
M  V30 8193 H 795.086 3.82757 5.21638 0
M  V30 8194 N 795.218 -1.23913 0.973828 0
M  V30 8195 C 796.467 -1.91455 0.63464 0
M  V30 8196 C 796.78 -1.76893 -0.834759 0
M  V30 8197 O 797.986 -2.3918 -1.28473 0
M  V30 8198 C 796.442 -3.43172 1.08447 0
M  V30 8199 C 796.05 -3.66409 2.57776 0
M  V30 8200 C 797.794 -4.1653 0.818721 0
M  V30 8201 C 795.701 -5.11728 2.9646 0
M  V30 8202 H 794.631 -0.716881 0.233661 0
M  V30 8203 H 797.282 -1.40457 1.18085 0
M  V30 8204 H 795.664 -3.93242 0.466524 0
M  V30 8205 H 796.838 -3.26913 3.24753 0
M  V30 8206 H 795.153 -3.06349 2.82027 0
M  V30 8207 H 797.75 -5.23603 1.08367 0
M  V30 8208 H 798.093 -4.15578 -0.245128 0
M  V30 8209 H 798.626 -3.72428 1.39793 0
M  V30 8210 H 795.365 -5.17806 4.01941 0
M  V30 8211 H 794.885 -5.52199 2.34172 0
M  V30 8212 H 796.564 -5.80009 2.86703 0
M  V30 8213 N 796.696 -0.74468 -1.38897 0
M  V30 8214 C 797.643 -0.111064 -2.30533 0
M  V30 8215 C 798.613 0.719276 -1.49719 0
M  V30 8216 O 799.798 0.677244 -1.78376 0
M  V30 8217 C 796.938 0.78292 -3.36102 0
M  V30 8218 C 796.051 -0.0610817 -4.31957 0
M  V30 8219 C 795.186 0.835075 -5.24595 0
M  V30 8220 C 794.225 -0.0130974 -6.12099 0
M  V30 8221 N 793.362 0.839525 -6.97063 0
M  V30 8222 H 798.202 -0.898113 -2.84144 0
M  V30 8223 H 795.739 -0.454537 -1.39901 0
M  V30 8224 H 797.697 1.31578 -3.95908 0
M  V30 8225 H 796.327 1.53585 -2.83922 0
M  V30 8226 H 795.379 -0.711469 -3.73687 0
M  V30 8227 H 796.691 -0.716482 -4.93627 0
M  V30 8228 H 795.845 1.43542 -5.89475 0
M  V30 8229 H 794.584 1.52423 -4.63269 0
M  V30 8230 H 793.589 -0.626179 -5.46223 0
M  V30 8231 H 794.814 -0.699181 -6.75491 0
M  V30 8232 H 792.76 1.5138 -6.38295 0
M  V30 8233 H 792.677 0.240823 -7.55616 0
M  V30 8234 H 793.945 1.42513 -7.66362 0
M  V30 8235 N 798.174 1.49689 -0.493057 0
M  V30 8236 C 799.402 2.06836 0.0513141 0
M  V30 8237 C 799.817 1.35436 1.31539 0
M  V30 8238 O 799.174 0.430248 1.77356 0
M  V30 8239 C 799.225 3.60107 0.317003 0
M  V30 8240 O 798.946 4.2882 -0.896957 0
M  V30 8241 C 800.447 4.33945 0.905902 0
M  V30 8242 H 797.667 0.670787 -0.0169048 0
M  V30 8243 H 800.211 1.92574 -0.688139 0
M  V30 8244 H 798.366 3.74099 1.00642 0
M  V30 8245 H 798.78 5.20395 -0.654939 0
M  V30 8246 H 800.254 5.42087 1.04144 0
M  V30 8247 H 800.731 3.95895 1.90168 0
M  V30 8248 H 801.337 4.2454 0.254195 0
M  V30 8249 N 799.652 0.226554 1.55963 0
M  V30 8250 C 800.88 -0.408507 2.02827 0
M  V30 8251 C 801.295 -1.52994 1.10627 0
M  V30 8252 O 800.652 -1.82126 0.116809 0
M  V30 8253 C 800.703 -0.93545 3.49187 0
M  V30 8254 O 800.424 0.141273 4.37872 0
M  V30 8255 C 801.925 -1.64325 4.11719 0
M  V30 8256 H 799.145 -0.099442 0.66359 0
M  V30 8257 H 801.689 0.344471 2.01578 0
M  V30 8258 H 799.844 -1.63868 3.51036 0
M  V30 8259 H 800.258 -0.25558 5.23877 0
M  V30 8260 H 801.732 -1.9639 5.15883 0
M  V30 8261 H 802.209 -2.55815 3.57009 0
M  V30 8262 H 802.815 -0.9851 4.13734 0
M  V30 8263 N 801.13 -1.57531 -0.0467866 0
M  V30 8264 C 802.04 -2.08768 -1.07018 0
M  V30 8265 C 803.056 -1.02245 -1.40791 0
M  V30 8266 O 804.232 -1.33873 -1.50466 0
M  V30 8267 C 801.297 -2.54221 -2.35738 0
M  V30 8268 C 800.358 -3.75152 -2.08709 0
M  V30 8269 C 799.591 -4.18428 -3.31291 0
M  V30 8270 O 799.814 -3.61365 -4.4133 0
M  V30 8271 O 798.748 -5.11018 -3.18032 0
M  V30 8272 H 802.574 -2.96334 -0.664812 0
M  V30 8273 H 800.159 -1.47074 -0.262605 0
M  V30 8274 H 802.041 -2.83866 -3.11445 0
M  V30 8275 H 800.716 -1.69774 -2.75605 0
M  V30 8276 H 799.623 -3.50553 -1.30627 0
M  V30 8277 H 800.956 -4.60528 -1.73708 0
M  V30 8278 N 802.608 0.318715 -1.54344 0
M  V30 8279 C 803.54 1.41364 -1.80413 0
M  V30 8280 C 804.553 1.47627 -0.686294 0
M  V30 8281 O 805.742 1.50264 -0.963486 0
M  V30 8282 C 802.842 2.79867 -1.91123 0
M  V30 8283 C 802.015 2.96749 -3.21339 0
M  V30 8284 C 801.074 4.15642 -3.22689 0
M  V30 8285 O 800.1 4.08571 -3.96306 0
M  V30 8286 N 801.302 5.25416 -2.46817 0
M  V30 8287 H 804.067 1.19363 -2.74905 0
M  V30 8288 H 801.628 0.508722 -1.537 0
M  V30 8289 H 803.62 3.57619 -1.89448 0
M  V30 8290 H 802.19 2.94896 -1.03706 0
M  V30 8291 H 801.41 2.06257 -3.35934 0
M  V30 8292 H 802.698 3.04927 -4.07304 0
M  V30 8293 H 802.096 5.34037 -1.86605 0
M  V30 8294 H 800.653 6.01569 -2.50915 0
M  V30 8295 N 804.086 1.46499 0.581025 0
M  V30 8296 C 805.016 1.60052 1.70017 0
M  V30 8297 C 805.997 0.450788 1.64018 0
M  V30 8298 O 807.182 0.677237 1.82009 0
M  V30 8299 C 804.312 1.5921 3.08658 0
M  V30 8300 C 803.266 2.73169 3.29488 0
M  V30 8301 C 802.592 2.57389 4.68674 0
M  V30 8302 C 803.892 4.14978 3.1716 0
M  V30 8303 H 805.586 2.53735 1.5893 0
M  V30 8304 H 803.132 1.22113 0.763173 0
M  V30 8305 H 805.085 1.67285 3.86773 0
M  V30 8306 H 803.809 0.620718 3.20647 0
M  V30 8307 H 802.468 2.64566 2.53773 0
M  V30 8308 H 802.116 1.58331 4.77431 0
M  V30 8309 H 801.816 3.33826 4.83564 0
M  V30 8310 H 803.34 2.67358 5.48956 0
M  V30 8311 H 804.754 4.24684 3.85119 0
M  V30 8312 H 803.151 4.92016 3.4357 0
M  V30 8313 H 804.221 4.35016 2.14218 0
M  V30 8314 N 805.565 -0.825799 1.34232 0
M  V30 8315 C 806.814 -1.57686 1.2577 0
M  V30 8316 C 807.127 -1.94848 -0.171372 0
M  V30 8317 O 808.333 -2.68854 -0.378123 0
M  V30 8318 C 806.789 -2.84478 2.20454 0
M  V30 8319 C 806.397 -2.54629 3.68603 0
M  V30 8320 C 808.141 -3.625 2.20893 0
M  V30 8321 C 806.048 -3.77597 4.55164 0
M  V30 8322 H 804.978 -0.591809 0.467203 0
M  V30 8323 H 807.629 -0.909421 1.59379 0
M  V30 8324 H 806.011 -3.52832 1.79793 0
M  V30 8325 H 807.185 -1.94404 4.17784 0
M  V30 8326 H 805.5 -1.89888 3.70582 0
M  V30 8327 H 808.097 -4.538 2.82789 0
M  V30 8328 H 808.44 -3.98404 1.20746 0
M  V30 8329 H 808.973 -3.01086 2.59985 0
M  V30 8330 H 805.712 -3.46815 5.56237 0
M  V30 8331 H 805.232 -4.37116 4.10719 0
M  V30 8332 H 806.911 -4.45039 4.69627 0
M  V30 8333 N 807.043 -1.17915 -1.04565 0
M  V30 8334 C 807.953 -0.916449 -2.15959 0
M  V30 8335 C 808.969 0.117655 -1.73602 0
M  V30 8336 O 810.145 -0.063089 -2.01301 0
M  V30 8337 C 807.21 -0.440262 -3.43893 0
M  V30 8338 C 806.271 -1.54172 -4.00661 0
M  V30 8339 C 805.504 -1.08816 -5.22489 0
M  V30 8340 O 805.727 0.0551547 -5.70373 0
M  V30 8341 O 804.661 -1.88383 -5.7166 0
M  V30 8342 H 808.487 -1.8484 -2.40972 0
M  V30 8343 H 806.072 -0.960552 -1.14428 0
M  V30 8344 H 807.954 -0.182537 -4.21004 0
M  V30 8345 H 806.629 0.46346 -3.20365 0
M  V30 8346 H 805.536 -1.85341 -3.24961 0
M  V30 8347 H 806.869 -2.42139 -4.2852 0
M  V30 8348 N 808.521 1.23394 -0.980386 0
M  V30 8349 C 809.484 2.23092 -0.525619 0
M  V30 8350 C 810.484 1.56129 0.384745 0
M  V30 8351 O 811.674 1.73284 0.178439 0
M  V30 8352 C 808.806 3.40074 0.23712 0
M  V30 8353 H 809.999 2.64839 -1.40714 0
M  V30 8354 H 807.552 1.36227 -0.766275 0
M  V30 8355 H 808.287 3.03783 1.13518 0
M  V30 8356 H 808.072 3.89883 -0.416356 0
M  V30 8357 H 809.562 4.14043 0.543892 0
M  V30 8358 N 809.999 0.752036 1.385 0
M  V30 8359 C 811.245 0.307958 2.00448 0
M  V30 8360 C 811.578 -1.10702 1.59558 0
M  V30 8361 O 810.853 -1.75788 0.832391 0
M  V30 8362 C 811.136 0.429092 3.57534 0
M  V30 8363 C 810.989 1.88507 4.08393 0
M  V30 8364 C 812.308 -0.178442 4.39738 0
M  V30 8365 H 809.427 0.113373 0.728228 0
M  V30 8366 H 812.069 0.951389 1.64465 0
M  V30 8367 H 810.219 -0.118695 3.88319 0
M  V30 8368 H 811.891 2.49104 3.88259 0
M  V30 8369 H 810.134 2.40066 3.61318 0
M  V30 8370 H 810.805 1.92099 5.17496 0
M  V30 8371 H 813.281 0.28872 4.15097 0
M  V30 8372 H 812.157 -0.0634349 5.48863 0
M  V30 8373 H 812.418 -1.26655 4.23569 0
M  V30 8374 N 811.477 -1.49425 0.500989 0
M  V30 8375 C 812.425 -2.30771 -0.291149 0
M  V30 8376 C 813.419 -1.3938 -0.962787 0
M  V30 8377 O 814.625 -1.56431 -0.890477 0
M  V30 8378 H 811 -0.743499 -0.11275 0
M  V30 8379 H 812.971 -2.95501 0.414917 0
M  V30 8380 C 811.72 -3.20725 -1.34279 0
M  V30 8381 H 811.043 -3.90975 -0.83538 0
M  V30 8382 H 812.483 -3.80583 -1.86903 0
M  V30 8383 C 810.942 -2.40334 -2.36095 0
M  V30 8384 O 811.472 -2.10749 -3.41976 0
M  V30 8385 N 809.678 -2.02359 -2.08565 0
M  V30 8386 H 809.225 -2.26619 -1.22482 0
M  V30 8387 H 809.183 -1.48878 -2.76916 0
M  V30 8388 N 812.955 -0.234822 -1.55841 0
M  V30 8389 C 813.903 0.686145 -2.22249 0
M  V30 8390 C 814.897 1.18948 -1.20614 0
M  V30 8391 O 816.103 1.14777 -1.38659 0
M  V30 8392 H 812.478 0.239724 -0.712767 0
M  V30 8393 H 814.449 0.102762 -2.98223 0
M  V30 8394 C 813.198 1.8776 -2.92646 0
M  V30 8395 H 812.521 1.49943 -3.70617 0
M  V30 8396 H 813.961 2.4995 -3.42493 0
M  V30 8397 C 812.42 2.74127 -1.95847 0
M  V30 8398 O 812.95 3.7329 -1.48384 0
M  V30 8399 N 811.156 2.4044 -1.63209 0
M  V30 8400 H 810.703 1.59854 -2.02001 0
M  V30 8401 H 810.661 2.98504 -0.987063 0
M  V30 8402 N 814.433 1.57553 0.0384317 0
M  V30 8403 C 815.681 1.88468 0.729672 0
M  V30 8404 C 816.002 0.831302 1.76393 0
M  V30 8405 O 815.272 -0.13622 1.95426 0
M  V30 8406 H 813.852 0.695529 0.272485 0
M  V30 8407 H 816.514 1.94899 0.0066032 0
M  V30 8408 H 815.61 2.8705 1.22511 0
M  V30 8409 N 815.911 -0.310526 1.54511 0
M  V30 8410 C 817.188 -1.06593 1.64004 0
M  V30 8411 C 817.568 -2.05519 0.482216 0
M  V30 8412 O 816.916 -2.22455 -0.52212 0
M  V30 8413 C 817.126 -1.75627 3.01589 0
M  V30 8414 C 818.474 -2.28173 3.58081 0
M  V30 8415 O 819.498 -1.85674 3.03979 0
M  V30 8416 O 818.357 -3.06015 4.52788 0
M  V30 8417 H 815.451 -0.492109 0.664649 0
M  V30 8418 H 817.997 -0.309374 1.66856 0
M  V30 8419 H 816.769 -1.03743 3.77297 0
M  V30 8420 H 816.392 -2.58061 3.02473 0
M  V30 8421 N 817.389 -1.46805 -0.573248 0
M  V30 8422 C 818.636 -1.52604 -1.3311 0
M  V30 8423 C 818.964 -0.181633 -1.9365 0
M  V30 8424 O 818.219 0.823775 -1.77517 0
M  V30 8425 C 818.518 -2.58001 -2.47326 0
M  V30 8426 C 818.184 -4.01747 -2.04719 0
M  V30 8427 C 816.846 -4.40881 -1.92814 0
M  V30 8428 C 819.198 -4.92008 -1.71982 0
M  V30 8429 C 816.526 -5.68129 -1.46445 0
M  V30 8430 C 818.878 -6.19703 -1.27089 0
M  V30 8431 C 817.542 -6.57733 -1.13768 0
M  V30 8432 H 816.812 -0.558417 -0.487084 0
M  V30 8433 H 819.459 -1.80327 -0.644538 0
M  V30 8434 H 817.764 -2.23974 -3.2147 0
M  V30 8435 H 819.461 -2.59715 -3.05531 0
M  V30 8436 H 816.051 -3.70819 -2.14922 0
M  V30 8437 H 820.235 -4.62485 -1.8006 0
M  V30 8438 H 815.491 -5.96359 -1.34783 0
M  V30 8439 H 819.665 -6.89064 -1.00814 0
M  V30 8440 H 817.292 -7.56228 -0.776142 0
M  V30 8441 N 818.867 0.818669 -1.34668 0
M  V30 8442 C 819.777 1.9616 -1.2868 0
M  V30 8443 C 820.793 1.72918 -0.193742 0
M  V30 8444 O 821.969 1.96951 -0.420975 0
M  V30 8445 C 819.034 3.30534 -1.04633 0
M  V30 8446 C 818.095 3.66755 -2.23136 0
M  V30 8447 C 817.328 4.94717 -2.00227 0
M  V30 8448 O 817.551 5.62218 -0.96264 0
M  V30 8449 O 816.485 5.28915 -2.87286 0
M  V30 8450 H 820.311 2.04157 -2.24842 0
M  V30 8451 H 817.896 0.954691 -1.14917 0
M  V30 8452 H 819.778 4.11005 -0.930216 0
M  V30 8453 H 818.453 3.23495 -0.115139 0
M  V30 8454 H 817.36 2.8671 -2.40308 0
M  V30 8455 H 818.693 3.78484 -3.1466 0
M  V30 8456 N 820.346 1.18468 1.03938 0
M  V30 8457 C 821.309 0.914944 2.10146 0
M  V30 8458 C 822.309 -0.10022 1.60487 0
M  V30 8459 O 823.499 0.133365 1.73689 0
M  V30 8460 C 820.631 0.372993 3.38853 0
M  V30 8461 H 821.824 1.85677 2.35508 0
M  V30 8462 H 819.377 0.996876 1.20383 0
M  V30 8463 H 820.112 -0.57538 3.19155 0
M  V30 8464 H 819.897 1.1048 3.76213 0
M  V30 8465 H 821.387 0.203014 4.17106 0
M  V30 8466 N 821.824 -1.22873 0.986916 0
M  V30 8467 C 823.054 -1.95204 0.67668 0
M  V30 8468 C 823.462 -1.73193 -0.761641 0
M  V30 8469 O 822.805 -1.0243 -1.52492 0
M  V30 8470 C 822.867 -3.48173 0.895302 0
M  V30 8471 C 822.531 -3.93912 2.31695 0
M  V30 8472 C 823.528 -4.02064 3.29607 0
M  V30 8473 C 821.213 -4.26722 2.64978 0
M  V30 8474 C 823.207 -4.42391 4.58878 0
M  V30 8475 C 820.894 -4.66729 3.94471 0
M  V30 8476 C 821.892 -4.74531 4.91232 0
M  V30 8477 O 821.58 -5.13636 6.18412 0
M  V30 8478 H 821.312 -0.628105 0.24992 0
M  V30 8479 H 823.866 -1.5714 1.32274 0
M  V30 8480 H 822.096 -3.86223 0.192072 0
M  V30 8481 H 823.785 -4.01717 0.581233 0
M  V30 8482 H 824.551 -3.76912 3.05225 0
M  V30 8483 H 820.43 -4.19858 1.9037 0
M  V30 8484 H 823.974 -4.48395 5.34404 0
M  V30 8485 H 819.871 -4.91332 4.18645 0
M  V30 8486 H 820.639 -5.31728 6.2226 0
M  V30 8487 N 823.302 -0.75937 -1.38099 0
M  V30 8488 C 824.265 -0.14372 -2.28749 0
M  V30 8489 C 825.265 0.641338 -1.47457 0
M  V30 8490 O 826.455 0.466751 -1.67831 0
M  V30 8491 C 823.587 0.804545 -3.3127 0
M  V30 8492 H 824.78 -0.942663 -2.847 0
M  V30 8493 H 822.333 -0.526757 -1.47156 0
M  V30 8494 H 823.068 1.62895 -2.80421 0
M  V30 8495 H 822.853 0.243939 -3.9134 0
M  V30 8496 H 824.343 1.23111 -3.99041 0
M  V30 8497 N 824.78 1.49157 -0.508906 0
M  V30 8498 C 825.727 2.2927 0.265288 0
M  V30 8499 C 826.697 1.3603 0.953162 0
M  V30 8500 O 827.882 1.64989 0.958291 0
M  V30 8501 C 825.022 3.18897 1.31904 0
M  V30 8502 C 824.135 4.27201 0.642144 0
M  V30 8503 C 823.27 5.04033 1.67701 0
M  V30 8504 C 822.309 6.04165 0.982422 0
M  V30 8505 N 821.446 6.74133 1.96186 0
M  V30 8506 H 826.286 2.94967 -0.424107 0
M  V30 8507 H 823.823 1.45431 -0.220991 0
M  V30 8508 H 825.781 3.69242 1.94206 0
M  V30 8509 H 824.411 2.55168 1.97709 0
M  V30 8510 H 823.463 3.80283 -0.0943395 0
M  V30 8511 H 824.775 4.98708 0.0957507 0
M  V30 8512 H 823.929 5.58287 2.37487 0
M  V30 8513 H 822.668 4.32317 2.25728 0
M  V30 8514 H 821.673 5.49135 0.270378 0
M  V30 8515 H 822.898 6.7787 0.408554 0
M  V30 8516 H 820.844 6.05183 2.53159 0
M  V30 8517 H 820.761 7.41643 1.46634 0
M  V30 8518 H 822.029 7.32987 2.65236 0
M  V30 8519 N 826.258 0.243083 1.55714 0
M  V30 8520 C 827.507 -0.383188 1.98027 0
M  V30 8521 C 827.82 -1.59347 1.13436 0
M  V30 8522 O 829.026 -2.29065 1.45745 0
M  V30 8523 C 827.482 -0.733135 3.52354 0
M  V30 8524 C 827.09 0.455539 4.45678 0
M  V30 8525 C 828.834 -1.32381 4.03331 0
M  V30 8526 C 826.741 0.0819591 5.91343 0
M  V30 8527 H 825.671 -0.146944 0.739543 0
M  V30 8528 H 828.322 0.342697 1.80272 0
M  V30 8529 H 826.704 -1.51704 3.65789 0
M  V30 8530 H 827.878 1.23291 4.44 0
M  V30 8531 H 826.193 0.960886 4.05162 0
M  V30 8532 H 828.79 -1.61658 5.09677 0
M  V30 8533 H 829.133 -2.24698 3.50452 0
M  V30 8534 H 829.666 -0.602885 3.93205 0
M  V30 8535 H 826.405 0.972171 6.48251 0
M  V30 8536 H 825.925 -0.659291 5.96166 0
M  V30 8537 H 827.604 -0.3372 6.46121 0
M  V30 8538 N 827.736 -1.57571 -0.0300757 0
M  V30 8539 C 828.976 -1.91074 -0.725946 0
M  V30 8540 C 829.34 -0.841545 -1.72575 0
M  V30 8541 O 830.541 -1.06088 -2.46979 0
M  V30 8542 C 828.812 -3.2973 -1.37888 0
M  V30 8543 S 830.371 -3.85065 -2.10405 0
M  V30 8544 H 827.189 -0.669084 -0.240515 0
M  V30 8545 H 829.791 -1.9549 0.019384 0
M  V30 8546 H 828.495 -4.05411 -0.637974 0
M  V30 8547 H 828.026 -3.28614 -2.16278 0
M  V30 8548 H 830.041 -3.63711 -3.37533 0
M  V30 8549 N 829.214 0.302327 -1.54673 0
M  V30 8550 C 830.491 1.05721 -1.64567 0
M  V30 8551 C 830.871 2.0526 -0.493108 0
M  V30 8552 O 830.219 2.22729 0.510315 0
M  V30 8553 C 830.429 1.74025 -3.02517 0
M  V30 8554 C 831.777 2.26271 -3.59286 0
M  V30 8555 O 832.801 1.8406 -3.0496 0
M  V30 8556 O 831.66 3.0361 -4.54404 0
M  V30 8557 H 828.754 0.488577 -0.667249 0
M  V30 8558 H 831.3 0.300521 -1.67018 0
M  V30 8559 H 830.072 1.0174 -3.77842 0
M  V30 8560 H 829.695 2.56454 -3.03838 0
M  V30 8561 N 830.692 1.47107 0.565454 0
M  V30 8562 C 832.103 1.47266 1.1476 0
M  V30 8563 C 832.454 0.222841 1.9493 0
M  V30 8564 O 831.579 -0.672862 2.05673 0
M  V30 8565 C 832.174 2.66822 2.08785 0
M  V30 8566 C 830.733 2.69967 2.62288 0
M  V30 8567 C 829.88 2.40236 1.38499 0
M  V30 8568 H 832.831 1.54736 0.352479 0
M  V30 8569 H 832.852 2.43323 2.92531 0
M  V30 8570 H 832.364 3.5777 1.50408 0
M  V30 8571 H 830.465 1.83137 3.24487 0
M  V30 8572 H 830.578 3.70426 3.03845 0
M  V30 8573 H 828.942 1.90648 1.68895 0
M  V30 8574 H 829.725 3.33381 0.819274 0
M  V30 8575 N 832.17 -0.811516 1.35101 0
M  V30 8576 C 833.418 -1.56525 1.27845 0
M  V30 8577 C 833.739 -1.94435 -0.14829 0
M  V30 8578 O 833.009 -1.63203 -1.08359 0
M  V30 8579 H 831.589 -0.580433 0.47022 0
M  V30 8580 H 834.251 -0.968277 1.69146 0
M  V30 8581 H 833.347 -2.48291 1.89097 0
M  V30 8582 N 833.648 -1.19017 -1.03309 0
M  V30 8583 C 834.578 -0.94772 -2.13402 0
M  V30 8584 C 835.559 0.117383 -1.69694 0
M  V30 8585 O 836.744 -0.0367733 -1.94165 0
M  V30 8586 C 833.874 -0.480977 -3.43953 0
M  V30 8587 C 832.828 -1.48743 -4.01322 0
M  V30 8588 C 832.154 -0.877924 -5.27443 0
M  V30 8589 C 833.454 -2.86642 -4.36616 0
M  V30 8590 H 835.148 -1.86846 -2.33942 0
M  V30 8591 H 832.694 -0.899781 -1.12427 0
M  V30 8592 H 834.647 -0.298677 -4.2034 0
M  V30 8593 H 833.371 0.475348 -3.23122 0
M  V30 8594 H 832.03 -1.65681 -3.27025 0
M  V30 8595 H 831.678 0.0858232 -5.02927 0
M  V30 8596 H 831.378 -1.54996 -5.66789 0
M  V30 8597 H 832.902 -0.706326 -6.06501 0
M  V30 8598 H 834.316 -2.73312 -5.03958 0
M  V30 8599 H 832.713 -3.50599 -4.87032 0
M  V30 8600 H 833.783 -3.39617 -3.46105 0
M  V30 8601 N 835.127 1.22348 -0.993418 0
M  V30 8602 C 836.355 1.95125 -0.688021 0
M  V30 8603 C 836.77 1.73377 0.747388 0
M  V30 8604 O 836.127 1.03317 1.50439 0
M  V30 8605 C 836.178 3.47819 -0.985097 0
M  V30 8606 O 835.899 3.68838 -2.3641 0
M  V30 8607 C 837.4 4.37779 -0.697474 0
M  V30 8608 H 834.62 0.62087 -0.254481 0
M  V30 8609 H 837.164 1.55485 -1.32833 0
M  V30 8610 H 835.319 3.85426 -0.390583 0
M  V30 8611 H 835.733 4.63032 -2.46377 0
M  V30 8612 H 837.207 5.43666 -0.955604 0
M  V30 8613 H 837.684 4.37651 0.368524 0
M  V30 8614 H 838.29 4.05799 -1.27306 0
M  V30 8615 N 836.605 0.766683 1.37694 0
M  V30 8616 C 837.83 0.338715 2.04615 0
M  V30 8617 C 838.255 -1.02918 1.57447 0
M  V30 8618 O 837.613 -1.65849 0.732386 0
M  V30 8619 C 837.661 0.385284 3.58536 0
M  V30 8620 O 836.765 -0.616081 4.07772 0
M  V30 8621 H 836.106 0.147527 0.647404 0
M  V30 8622 H 838.636 1.04146 1.7611 0
M  V30 8623 H 838.646 0.240782 4.07289 0
M  V30 8624 H 837.321 1.38325 3.92223 0
M  V30 8625 H 835.898 -0.435115 3.70353 0
M  V30 8626 N 838.083 -1.48885 0.516809 0
M  V30 8627 C 839.33 -2.02488 -0.0220602 0
M  V30 8628 C 839.658 -1.39513 -1.35523 0
M  V30 8629 O 838.913 -0.52558 -1.8851 0
M  V30 8630 C 839.212 -3.56801 -0.206798 0
M  V30 8631 C 838.878 -4.38496 1.05035 0
M  V30 8632 C 837.54 -4.60538 1.39492 0
M  V30 8633 C 839.892 -4.85909 1.88525 0
M  V30 8634 C 837.22 -5.2724 2.57361 0
M  V30 8635 C 839.572 -5.53909 3.05561 0
M  V30 8636 C 838.236 -5.74193 3.4038 0
M  V30 8637 H 837.506 -0.740956 -0.00807238 0
M  V30 8638 H 840.153 -1.79014 0.680168 0
M  V30 8639 H 838.458 -3.79042 -0.991687 0
M  V30 8640 H 840.155 -3.95885 -0.638447 0
M  V30 8641 H 836.745 -4.2159 0.771984 0
M  V30 8642 H 840.929 -4.68694 1.63218 0
M  V30 8643 H 836.185 -5.41145 2.84556 0
M  V30 8644 H 840.359 -5.89619 3.7057 0
M  V30 8645 H 837.986 -6.25652 4.31814 0
M  V30 8646 N 839.561 -0.251338 -1.55583 0
M  V30 8647 C 840.471 0.656978 -2.25213 0
M  V30 8648 C 841.487 1.18966 -1.26977 0
M  V30 8649 O 842.663 1.22499 -1.59862 0
M  V30 8650 C 839.728 1.83527 -2.94141 0
M  V30 8651 C 838.789 1.34162 -4.07798 0
M  V30 8652 C 838.022 2.46375 -4.73429 0
M  V30 8653 O 838.245 3.65205 -4.38157 0
M  V30 8654 O 837.179 2.15881 -5.61853 0
M  V30 8655 H 841.005 0.0936395 -3.03556 0
M  V30 8656 H 838.59 -0.0196638 -1.49387 0
M  V30 8657 H 840.472 2.52279 -3.3754 0
M  V30 8658 H 839.147 2.38614 -2.18735 0
M  V30 8659 H 838.054 0.621249 -3.68906 0
M  V30 8660 H 839.387 0.836779 -4.85035 0
M  V30 8661 N 841.039 1.57585 0.0217189 0
M  V30 8662 C 842.45 1.7787 0.567377 0
M  V30 8663 C 842.801 0.883337 1.7519 0
M  V30 8664 O 841.926 0.0800819 2.16252 0
M  V30 8665 C 842.521 3.2257 1.03606 0
M  V30 8666 C 841.08 3.44026 1.52718 0
M  V30 8667 C 840.227 2.73313 0.468545 0
M  V30 8668 H 843.178 1.57377 -0.2045 0
M  V30 8669 H 843.199 3.29488 1.9031 0
M  V30 8670 H 842.711 3.87711 0.173739 0
M  V30 8671 H 840.812 2.8407 2.41111 0
M  V30 8672 H 840.925 4.52659 1.56962 0
M  V30 8673 H 839.289 2.37299 0.925263 0
M  V30 8674 H 840.072 3.41141 -0.384438 0
M  V30 8675 N 842.517 -0.29412 1.54831 0
M  V30 8676 C 843.427 -1.3854 1.89325 0
M  V30 8677 C 844.443 -1.55127 0.788133 0
M  V30 8678 O 845.619 -1.6966 1.08524 0
M  V30 8679 C 842.684 -2.72809 2.13954 0
M  V30 8680 C 841.745 -2.65148 3.37631 0
M  V30 8681 C 840.978 -3.93014 3.61076 0
M  V30 8682 O 841.201 -4.927 2.87406 0
M  V30 8683 O 840.135 -3.94491 4.54599 0
M  V30 8684 H 843.961 -1.12289 2.82179 0
M  V30 8685 H 841.546 -0.490793 1.41108 0
M  V30 8686 H 843.428 -3.52238 2.31315 0
M  V30 8687 H 842.103 -2.9889 1.24285 0
M  V30 8688 H 841.01 -1.84168 3.25627 0
M  V30 8689 H 842.343 -2.4402 4.27452 0
M  V30 8690 N 843.995 -1.47404 -0.557645 0
M  V30 8691 C 844.958 -1.59411 -1.64684 0
M  V30 8692 C 845.958 -0.469244 -1.53801 0
M  V30 8693 O 847.148 -0.734298 -1.57967 0
M  V30 8694 C 844.28 -1.5382 -3.04224 0
M  V30 8695 H 845.473 -2.56504 -1.55389 0
M  V30 8696 H 843.026 -1.35588 -0.777531 0
M  V30 8697 H 843.761 -0.581 -3.19053 0
M  V30 8698 H 843.546 -2.35456 -3.13533 0
M  V30 8699 H 845.036 -1.65358 -3.83466 0
M  V30 8700 N 845.473 0.80434 -1.35529 0
M  V30 8701 C 846.403 1.93086 -1.31301 0
M  V30 8702 C 847.384 1.69068 -0.187044 0
M  V30 8703 O 848.569 1.90399 -0.382359 0
M  V30 8704 C 845.699 3.29867 -1.0865 0
M  V30 8705 C 844.653 3.68373 -2.17911 0
M  V30 8706 C 843.979 5.0334 -1.80423 0
M  V30 8707 C 845.279 3.78516 -3.59893 0
M  V30 8708 H 846.973 1.96882 -2.25561 0
M  V30 8709 H 844.519 0.945841 -1.08581 0
M  V30 8710 H 846.472 4.08281 -1.04331 0
M  V30 8711 H 845.196 3.2642 -0.108359 0
M  V30 8712 H 843.855 2.92247 -2.21331 0
M  V30 8713 H 843.503 4.96399 -0.812213 0
M  V30 8714 H 843.203 5.30074 -2.53565 0
M  V30 8715 H 844.727 5.84191 -1.77633 0
M  V30 8716 H 846.141 4.47155 -3.58783 0
M  V30 8717 H 844.538 4.16721 -4.31814 0
M  V30 8718 H 845.608 2.8001 -3.95882 0
M  V30 8719 N 846.951 1.19563 1.02676 0
M  V30 8720 C 848.199 0.997593 1.75763 0
M  V30 8721 C 848.52 -0.47253 1.89188 0
M  V30 8722 O 847.79 -1.34214 1.42701 0
M  V30 8723 H 846.37 0.366128 0.651122 0
M  V30 8724 H 849.032 1.50495 1.23844 0
M  V30 8725 H 848.128 1.44741 2.76508 0
M  V30 8726 N 848.429 -1.21819 0.999893 0
M  V30 8727 C 849.377 -2.26027 0.549047 0
M  V30 8728 C 850.371 -1.64516 -0.403826 0
M  V30 8729 O 851.577 -1.77878 -0.275578 0
M  V30 8730 H 847.952 -0.734958 0.159185 0
M  V30 8731 H 849.923 -2.61398 1.43923 0
M  V30 8732 C 848.672 -3.47514 -0.11369 0
M  V30 8733 H 847.995 -3.95112 0.610482 0
M  V30 8734 H 849.435 -4.22179 -0.3925 0
M  V30 8735 C 847.894 -3.08614 -1.35126 0
M  V30 8736 O 848.424 -3.1864 -2.44605 0
M  V30 8737 N 846.63 -2.63327 -1.22911 0
M  V30 8738 H 846.177 -2.55369 -0.338288 0
M  V30 8739 H 846.135 -2.37668 -2.05818 0
M  V30 8740 N 849.908 -0.773975 -1.37286 0
M  V30 8741 C 850.838 -0.175782 -2.32837 0
M  V30 8742 C 851.819 0.680603 -1.5589 0
M  V30 8743 O 853.004 0.617607 -1.84117 0
M  V30 8744 C 850.134 0.702388 -3.40123 0
M  V30 8745 C 849.088 -0.0528687 -4.27967 0
M  V30 8746 C 848.414 0.944891 -5.26285 0
M  V30 8747 C 849.714 -1.23316 -5.07534 0
M  V30 8748 H 851.408 -0.974016 -2.83114 0
M  V30 8749 H 848.954 -0.469826 -1.3612 0
M  V30 8750 H 850.907 1.13069 -4.05947 0
M  V30 8751 H 849.631 1.53316 -2.88378 0
M  V30 8752 H 848.29 -0.461978 -3.63678 0
M  V30 8753 H 847.938 1.77028 -4.70819 0
M  V30 8754 H 847.638 0.444079 -5.8592 0
M  V30 8755 H 849.162 1.37209 -5.94984 0
M  V30 8756 H 850.576 -0.881395 -5.66484 0
M  V30 8757 H 848.973 -1.66621 -5.76504 0
M  V30 8758 H 850.043 -2.03617 -4.40077 0
M  V30 8759 N 851.386 1.48609 -0.524698 0
M  V30 8760 C 852.632 2.02797 0.0113382 0
M  V30 8761 C 852.965 1.40147 1.34433 0
M  V30 8762 O 852.24 0.545368 1.86698 0
M  V30 8763 C 852.523 3.59832 0.138931 0
M  V30 8764 C 852.376 4.32971 -1.21886 0
M  V30 8765 C 853.695 4.3145 0.868265 0
M  V30 8766 H 850.814 0.736995 0.00264645 0
M  V30 8767 H 853.456 1.77388 -0.680704 0
M  V30 8768 H 851.606 3.81612 0.72834 0
M  V30 8769 H 853.278 4.22624 -1.84897 0
M  V30 8770 H 851.521 3.94597 -1.80211 0
M  V30 8771 H 852.192 5.41279 -1.08263 0
M  V30 8772 H 854.668 4.14468 0.368145 0
M  V30 8773 H 853.544 5.41025 0.926428 0
M  V30 8774 H 853.805 3.98358 1.91737 0
M  V30 8775 N 852.864 0.259585 1.55447 0
M  V30 8776 C 853.774 -0.645026 2.25558 0
M  V30 8777 C 854.79 -1.18291 1.27606 0
M  V30 8778 O 855.966 -1.21649 1.6051 0
M  V30 8779 C 853.031 -1.81964 2.9511 0
M  V30 8780 C 852.092 -1.31997 4.08504 0
M  V30 8781 C 851.325 -2.43861 4.74729 0
M  V30 8782 O 851.548 -3.62876 4.40088 0
M  V30 8783 O 850.482 -2.12898 5.6299 0
M  V30 8784 H 854.308 -0.0775399 3.03601 0
M  V30 8785 H 851.893 0.0275859 1.49375 0
M  V30 8786 H 853.775 -2.50485 3.38873 0
M  V30 8787 H 852.45 -2.37451 2.19997 0
M  V30 8788 H 851.357 -0.601676 3.6923 0
M  V30 8789 H 852.69 -0.811045 4.85472 0
M  V30 8790 N 854.342 -1.57594 -0.0133615 0
M  V30 8791 C 855.59 -1.89605 -0.699596 0
M  V30 8792 C 855.911 -0.85926 -1.75048 0
M  V30 8793 O 855.181 0.105112 -1.95618 0
M  V30 8794 H 853.761 -0.699776 -0.261385 0
M  V30 8795 H 856.423 -1.94885 0.0244044 0
M  V30 8796 H 855.519 -2.88962 -1.17928 0
M  V30 8797 N 855.82 0.285905 -1.54985 0
M  V30 8798 C 856.753 1.37817 -1.81884 0
M  V30 8799 C 857.731 1.4811 -0.670988 0
M  V30 8800 O 858.915 1.64936 -0.912595 0
M  V30 8801 C 856.042 2.75587 -1.969 0
M  V30 8802 C 855.088 2.82643 -3.19398 0
M  V30 8803 S 855.921 2.43199 -4.7709 0
M  V30 8804 C 857.077 3.82969 -4.95061 0
M  V30 8805 H 857.31 1.14794 -2.74244 0
M  V30 8806 H 854.843 0.484843 -1.4659 0
M  V30 8807 H 856.801 3.54932 -2.06236 0
M  V30 8808 H 855.462 2.9587 -1.05451 0
M  V30 8809 H 854.655 3.8373 -3.26753 0
M  V30 8810 H 854.257 2.11306 -3.08586 0
M  V30 8811 H 856.549 4.78117 -4.80011 0
M  V30 8812 H 857.492 3.80575 -5.97133 0
M  V30 8813 H 857.9 3.73673 -4.23118 0
M  V30 8814 N 857.298 1.47698 0.54982 0
M  V30 8815 C 858.575 1.45185 1.31075 0
M  V30 8816 C 858.955 0.152768 2.10547 0
M  V30 8817 O 858.303 -0.865706 2.11466 0
M  V30 8818 C 858.513 2.70192 2.20902 0
M  V30 8819 C 859.861 3.1771 2.81683 0
M  V30 8820 O 860.885 2.70971 2.312 0
M  V30 8821 O 859.744 3.98986 3.7346 0
M  V30 8822 H 856.838 0.57892 0.590577 0
M  V30 8823 H 859.384 1.59908 0.568112 0
M  V30 8824 H 858.156 3.56269 1.61828 0
M  V30 8825 H 857.779 2.58091 3.02448 0
M  V30 8826 N 858.776 -0.797141 1.35954 0
M  V30 8827 C 860.023 -1.55468 1.29754 0
M  V30 8828 C 860.351 -1.94095 -0.125391 0
M  V30 8829 O 859.606 -1.62341 -1.09288 0
M  V30 8830 C 859.905 -2.84847 2.15863 0
M  V30 8831 C 859.571 -2.65394 3.64523 0
M  V30 8832 C 858.233 -2.59796 4.05042 0
M  V30 8833 C 860.585 -2.4727 4.58811 0
M  V30 8834 C 857.913 -2.3403 5.38002 0
M  V30 8835 C 860.265 -2.23032 5.91979 0
M  V30 8836 C 858.929 -2.15862 6.31633 0
M  V30 8837 H 858.199 -0.568897 0.474803 0
M  V30 8838 H 860.846 -0.920299 1.67937 0
M  V30 8839 H 859.151 -3.52712 1.70591 0
M  V30 8840 H 860.848 -3.42597 2.08395 0
M  V30 8841 H 857.438 -2.70602 3.32374 0
M  V30 8842 H 861.622 -2.506 4.28384 0
M  V30 8843 H 856.878 -2.26956 5.67715 0
M  V30 8844 H 861.052 -2.08001 6.64612 0
M  V30 8845 H 858.679 -1.9566 7.34589 0
M  V30 8846 N 860.254 -1.20106 -1.0204 0
M  V30 8847 C 861.204 -0.914145 -2.08872 0
M  V30 8848 C 862.188 0.124503 -1.60418 0
M  V30 8849 O 863.38 -0.0823521 -1.76808 0
M  V30 8850 C 860.509 -0.463897 -3.40151 0
M  V30 8851 C 859.595 -1.53576 -3.95317 0
M  V30 8852 N 859.986 -2.75726 -4.24038 0
M  V30 8853 C 858.284 -1.40103 -4.23423 0
M  V30 8854 C 858.985 -3.44838 -4.68468 0
M  V30 8855 N 857.961 -2.72245 -4.70514 0
M  V30 8856 H 861.763 -1.8424 -2.28982 0
M  V30 8857 H 859.277 -1.0945 -1.19977 0
M  V30 8858 H 861.274 -0.239766 -4.1621 0
M  V30 8859 H 859.934 0.457779 -3.21457 0
M  V30 8860 H 860.945 -3.12412 -4.13061 0
M  V30 8861 H 857.622 -0.543472 -4.13948 0
M  V30 8862 H 859.012 -4.49342 -4.99541 0
M  V30 8863 N 861.732 1.21287 -1.00634 0
M  V30 8864 C 863.148 1.42467 -0.719389 0
M  V30 8865 C 863.348 1.88767 0.704927 0
M  V30 8866 O 862.404 2.05004 1.47409 0
M  V30 8867 C 863.717 2.455 -1.73639 0
M  V30 8868 C 865.265 2.59281 -1.75335 0
M  V30 8869 C 865.74 3.65547 -2.75934 0
M  V30 8870 N 867.231 3.73019 -2.74611 0
M  V30 8871 C 867.966 4.54873 -3.4911 0
M  V30 8872 N 867.462 5.40614 -4.33253 0
M  V30 8873 N 869.255 4.49309 -3.37754 0
M  V30 8874 H 861.406 0.895454 -1.92602 0
M  V30 8875 H 863.669 0.455491 -0.831404 0
M  V30 8876 H 863.375 2.18455 -2.75627 0
M  V30 8877 H 863.249 3.44325 -1.54014 0
M  V30 8878 H 865.636 2.85661 -0.740377 0
M  V30 8879 H 865.717 1.60685 -1.99032 0
M  V30 8880 H 865.361 3.39911 -3.77389 0
M  V30 8881 H 865.291 4.63741 -2.49503 0
M  V30 8882 H 867.782 3.11766 -2.13565 0
M  V30 8883 H 868.095 6.0013 -4.86892 0
M  V30 8884 H 866.44 5.40151 -4.37335 0
M  V30 8885 H 869.631 3.81357 -2.71449 0
M  V30 8886 H 869.804 5.12867 -3.9607 0
M  V30 8887 N 863.21 0.781244 1.36873 0
M  V30 8888 C 864.457 0.349889 1.99454 0
M  V30 8889 C 864.785 -1.07621 1.62013 0
M  V30 8890 O 864.04 -1.75665 0.86258 0
M  V30 8891 C 864.339 0.45146 3.54537 0
M  V30 8892 C 864.005 1.83718 4.11775 0
M  V30 8893 C 862.667 2.21634 4.2712 0
M  V30 8894 C 865.019 2.7449 4.43063 0
M  V30 8895 C 862.347 3.49742 4.7106 0
M  V30 8896 C 864.699 4.02017 4.88431 0
M  V30 8897 C 863.363 4.39967 5.01982 0
M  V30 8898 H 862.633 0.128033 0.729855 0
M  V30 8899 H 865.28 0.997117 1.63493 0
M  V30 8900 H 863.585 -0.279288 3.90803 0
M  V30 8901 H 865.282 0.0988609 4.00878 0
M  V30 8902 H 861.872 1.53251 4.00265 0
M  V30 8903 H 866.056 2.46453 4.30783 0
M  V30 8904 H 861.312 3.79026 4.79738 0
M  V30 8905 H 865.486 4.72475 5.11605 0
M  V30 8906 H 863.113 5.39291 5.35788 0
M  V30 8907 N 864.689 -1.48329 0.532571 0
M  V30 8908 C 865.919 -2.066 0.00353785 0
M  V30 8909 C 866.327 -1.38913 -1.28451 0
M  V30 8910 O 865.67 -0.471385 -1.77549 0
M  V30 8911 C 865.732 -3.58342 -0.288324 0
M  V30 8912 C 865.396 -4.47917 0.906631 0
M  V30 8913 C 866.393 -4.87534 1.80572 0
M  V30 8914 C 864.078 -4.89783 1.11436 0
M  V30 8915 C 866.072 -5.6779 2.89642 0
M  V30 8916 C 863.759 -5.69809 2.20819 0
M  V30 8917 C 864.757 -6.08721 3.09755 0
M  V30 8918 O 864.445 -6.8714 4.17246 0
M  V30 8919 H 864.177 -0.675263 0.0315661 0
M  V30 8920 H 866.731 -1.91669 0.738375 0
M  V30 8921 H 864.961 -3.71395 -1.07717 0
M  V30 8922 H 866.65 -3.98726 -0.759752 0
M  V30 8923 H 867.416 -4.5581 1.65719 0
M  V30 8924 H 863.295 -4.58977 0.431382 0
M  V30 8925 H 866.839 -5.98082 3.59087 0
M  V30 8926 H 862.736 -6.00947 2.35655 0
M  V30 8927 H 863.504 -7.05498 4.14988 0
M  V30 8928 N 866.167 -0.267825 -1.55308 0
M  V30 8929 C 867.414 0.351036 -1.99434 0
M  V30 8930 C 867.742 1.56406 -1.15618 0
M  V30 8931 O 866.997 1.94548 -0.212045 0
M  V30 8932 C 867.296 0.784247 -3.48689 0
M  V30 8933 C 866.962 -0.323328 -4.49739 0
M  V30 8934 C 865.624 -0.627467 -4.77091 0
M  V30 8935 C 867.976 -1.07002 -5.10098 0
M  V30 8936 C 865.304 -1.682 -5.62073 0
M  V30 8937 C 867.656 -2.11422 -5.96224 0
M  V30 8938 C 866.32 -2.42479 -6.21901 0
M  V30 8939 H 865.59 0.128453 -0.729781 0
M  V30 8940 H 868.237 -0.380018 -1.87692 0
M  V30 8941 H 866.542 1.59485 -3.57871 0
M  V30 8942 H 868.239 1.2737 -3.80234 0
M  V30 8943 H 864.829 -0.0761528 -4.28532 0
M  V30 8944 H 869.013 -0.848302 -4.88996 0
M  V30 8945 H 864.269 -1.92772 -5.80215 0
M  V30 8946 H 868.443 -2.69759 -6.4203 0
M  V30 8947 H 866.07 -3.24328 -6.87543 0
M  V30 8948 N 867.645 1.57599 0.00500368 0
M  V30 8949 C 868.555 2.11532 1.01446 0
M  V30 8950 C 869.571 1.05941 1.3803 0
M  V30 8951 O 870.747 1.37815 1.46864 0
M  V30 8952 C 867.812 2.60382 2.28915 0
M  V30 8953 C 866.873 3.80554 1.98689 0
M  V30 8954 C 866.106 4.27064 3.20081 0
M  V30 8955 O 866.329 3.72939 4.31593 0
M  V30 8956 O 865.263 5.1927 3.04371 0
M  V30 8957 H 869.089 2.97993 0.586011 0
M  V30 8958 H 866.674 1.47718 0.223519 0
M  V30 8959 H 868.556 2.92024 3.03809 0
M  V30 8960 H 867.231 1.77022 2.71007 0
M  V30 8961 H 866.138 3.53893 1.21286 0
M  V30 8962 H 867.471 4.64972 1.61437 0
M  V30 8963 N 869.123 -0.277682 1.55134 0
M  V30 8964 C 870.071 -1.36305 1.88478 0
M  V30 8965 C 871.065 -1.51362 0.760654 0
M  V30 8966 O 872.271 -1.53202 0.944943 0
M  V30 8967 H 868.646 -0.45577 0.598146 0
M  V30 8968 H 870.617 -1.05431 2.79154 0
M  V30 8969 C 869.366 -2.71739 2.16918 0
M  V30 8970 H 868.689 -2.60942 3.02901 0
M  V30 8971 H 870.129 -3.46635 2.44172 0
M  V30 8972 C 868.588 -3.22476 0.975239 0
M  V30 8973 O 869.118 -4.01164 0.207497 0
M  V30 8974 N 867.324 -2.80097 0.774219 0
M  V30 8975 H 866.871 -2.16221 1.40022 0
M  V30 8976 H 866.829 -3.14392 -0.023021 0
M  V30 8977 N 870.601 -1.47988 -0.541979 0
M  V30 8978 C 871.531 -1.64503 -1.65713 0
M  V30 8979 C 872.512 -0.494116 -1.62765 0
M  V30 8980 O 873.697 -0.725256 -1.80149 0
M  V30 8981 C 870.827 -1.67337 -3.04328 0
M  V30 8982 C 869.781 -2.81809 -3.2213 0
M  V30 8983 C 869.107 -2.69724 -4.61685 0
M  V30 8984 C 870.407 -4.23241 -3.06046 0
M  V30 8985 H 872.101 -2.5786 -1.52147 0
M  V30 8986 H 869.647 -1.24094 -0.730529 0
M  V30 8987 H 871.6 -1.77481 -3.82202 0
M  V30 8988 H 870.324 -0.705514 -3.18889 0
M  V30 8989 H 868.983 -2.71201 -2.46669 0
M  V30 8990 H 868.631 -1.70934 -4.73065 0
M  V30 8991 H 868.331 -3.4653 -4.74543 0
M  V30 8992 H 869.855 -2.81818 -5.41674 0
M  V30 8993 H 871.269 -4.34746 -3.73723 0
M  V30 8994 H 869.666 -5.00952 -3.30405 0
M  V30 8995 H 870.736 -4.40543 -2.02609 0
M  V30 8996 N 872.079 0.78992 -1.36375 0
M  V30 8997 C 873.009 1.91683 -1.33341 0
M  V30 8998 C 873.99 1.68861 -0.204965 0
M  V30 8999 O 875.175 1.89982 -0.402531 0
M  V30 9000 C 872.305 3.28696 -1.12143 0
M  V30 9001 C 871.259 3.66041 -2.21806 0
M  V30 9002 C 870.585 5.01399 -1.85751 0
M  V30 9003 C 871.885 3.74677 -3.63888 0
M  V30 9004 H 873.579 1.94478 -2.27637 0
M  V30 9005 H 871.125 0.934271 -1.09578 0
M  V30 9006 H 873.078 4.07151 -1.08656 0
M  V30 9007 H 871.802 3.26287 -0.142974 0
M  V30 9008 H 870.461 2.89883 -2.24418 0
M  V30 9009 H 870.109 4.9551 -0.864817 0
M  V30 9010 H 869.809 5.27355 -2.59173 0
M  V30 9011 H 871.333 5.82274 -1.83819 0
M  V30 9012 H 872.747 4.43324 -3.63506 0
M  V30 9013 H 871.144 4.12118 -4.3621 0
M  V30 9014 H 872.214 2.75795 -3.9883 0
M  V30 9015 N 873.557 1.20646 1.01402 0
M  V30 9016 C 874.52 0.959314 2.08158 0
M  V30 9017 C 875.52 -0.0661558 1.60664 0
M  V30 9018 O 876.71 0.170177 1.73367 0
M  V30 9019 C 873.842 0.444785 3.37986 0
M  V30 9020 H 875.035 1.90631 2.31517 0
M  V30 9021 H 872.588 1.02219 1.18241 0
M  V30 9022 H 873.323 -0.507553 3.20304 0
M  V30 9023 H 873.108 1.18435 3.73785 0
M  V30 9024 H 874.598 0.291443 4.16582 0
M  V30 9025 N 875.035 -1.20752 1.01276 0
M  V30 9026 C 875.982 -2.234 0.579732 0
M  V30 9027 C 876.952 -1.61256 -0.398206 0
M  V30 9028 O 878.137 -1.8845 -0.29851 0
M  V30 9029 C 875.277 -3.45008 -0.0797006 0
M  V30 9030 C 874.39 -4.21597 0.942343 0
M  V30 9031 C 873.525 -5.30591 0.254364 0
M  V30 9032 C 872.564 -5.98919 1.26343 0
M  V30 9033 N 871.701 -6.99511 0.602384 0
M  V30 9034 H 876.541 -2.59801 1.45971 0
M  V30 9035 H 874.078 -1.27663 0.730787 0
M  V30 9036 H 876.036 -4.1444 -0.479125 0
M  V30 9037 H 874.666 -3.09312 -0.923354 0
M  V30 9038 H 873.718 -3.51268 1.45996 0
M  V30 9039 H 875.03 -4.68576 1.70992 0
M  V30 9040 H 874.184 -6.06368 -0.200763 0
M  V30 9041 H 872.923 -4.84639 -0.545553 0
M  V30 9042 H 871.928 -5.21906 1.72898 0
M  V30 9043 H 873.153 -6.46957 2.06456 0
M  V30 9044 H 871.099 -6.55759 -0.177734 0
M  V30 9045 H 871.016 -7.44597 1.30809 0
M  V30 9046 H 872.284 -7.79313 0.17072 0
M  V30 9047 N 876.513 -0.788492 -1.36457 0
M  V30 9048 C 877.461 -0.174192 -2.31947 0
M  V30 9049 C 878.455 0.665974 -1.5576 0
M  V30 9050 O 879.661 0.561161 -1.71029 0
M  V30 9051 H 876.036 -0.0375538 -0.751062 0
M  V30 9052 H 878.007 -0.995011 -2.81322 0
M  V30 9053 C 876.756 0.677276 -3.4104 0
M  V30 9054 H 876.079 0.0401418 -3.9978 0
M  V30 9055 H 877.519 1.07379 -4.10178 0
M  V30 9056 C 875.978 1.83512 -2.82533 0
M  V30 9057 O 876.508 2.93164 -2.74623 0
M  V30 9058 N 874.714 1.64095 -2.39836 0
M  V30 9059 H 874.261 0.749046 -2.46469 0
M  V30 9060 H 874.219 2.41726 -2.01037 0
M  V30 9061 N 877.991 1.48044 -0.54043 0
M  V30 9062 C 879.216 2.07396 -0.0124765 0
M  V30 9063 C 879.641 1.39288 1.26414 0
M  V30 9064 O 878.999 0.462252 1.75308 0
M  V30 9065 C 879.047 3.60131 0.18377 0
M  V30 9066 O 878.151 3.92995 1.25014 0
M  V30 9067 H 877.492 0.662554 -0.0438026 0
M  V30 9068 H 880.022 1.90306 -0.751327 0
M  V30 9069 H 880.032 4.06003 0.403197 0
M  V30 9070 H 878.707 4.09105 -0.74874 0
M  V30 9071 H 877.284 3.5889 1.01254 0
M  V30 9072 N 879.47 0.276058 1.55163 0
M  V30 9073 C 880.417 -0.611006 2.22565 0
M  V30 9074 C 881.387 -1.14902 1.19945 0
M  V30 9075 O 882.572 -1.19815 1.48489 0
M  V30 9076 C 879.712 -1.78885 2.95117 0
M  V30 9077 C 878.825 -1.2846 4.12458 0
M  V30 9078 C 877.96 -2.42432 4.72652 0
M  V30 9079 C 876.999 -1.89015 5.82185 0
M  V30 9080 N 876.136 -2.96463 6.36439 0
M  V30 9081 H 880.976 -0.0295849 2.97985 0
M  V30 9082 H 878.513 -0.00283607 1.471 0
M  V30 9083 H 880.471 -2.48121 3.35398 0
M  V30 9084 H 879.101 -2.34229 2.22119 0
M  V30 9085 H 878.153 -0.485312 3.77292 0
M  V30 9086 H 879.465 -0.853358 4.91446 0
M  V30 9087 H 878.619 -3.19659 5.15658 0
M  V30 9088 H 877.358 -2.88872 3.92943 0
M  V30 9089 H 876.363 -1.10267 5.38629 0
M  V30 9090 H 877.588 -1.43509 6.63763 0
M  V30 9091 H 875.534 -3.42283 5.59623 0
M  V30 9092 H 875.451 -2.57759 7.10701 0
M  V30 9093 H 876.719 -3.73663 6.84103 0
M  V30 9094 N 880.948 -1.576 0.00335426 0
M  V30 9095 C 882.359 -1.7875 -0.539008 0
M  V30 9096 C 882.71 -0.911097 -1.73763 0
M  V30 9097 O 881.835 -0.114476 -2.16097 0
M  V30 9098 C 882.43 -3.24177 -0.984611 0
M  V30 9099 C 880.989 -3.46412 -1.47226 0
M  V30 9100 C 880.136 -2.74024 -0.425004 0
M  V30 9101 H 883.087 -1.57032 0.229511 0
M  V30 9102 H 883.108 -3.32474 -1.85044 0
M  V30 9103 H 882.62 -3.87938 -0.112035 0
M  V30 9104 H 880.721 -2.8787 -2.36562 0
M  V30 9105 H 880.834 -4.55098 -1.49741 0
M  V30 9106 H 879.198 -2.38741 -0.887394 0
M  V30 9107 H 879.981 -3.40486 0.438662 0
M  V30 9108 N 882.426 0.269451 -1.5528 0
M  V30 9109 C 883.675 0.998381 -1.75258 0
M  V30 9110 C 883.988 1.87321 -0.563034 0
M  V30 9111 O 885.194 2.63719 -0.645313 0
M  V30 9112 C 883.65 1.82505 -3.10193 0
M  V30 9113 C 883.258 0.99871 -4.36726 0
M  V30 9114 C 885.002 2.54807 -3.3952 0
M  V30 9115 C 882.909 1.81997 -5.627 0
M  V30 9116 H 881.839 0.376488 -0.653278 0
M  V30 9117 H 884.49 0.253909 -1.81735 0
M  V30 9118 H 882.872 2.61061 -2.97763 0
M  V30 9119 H 884.046 0.257064 -4.60082 0
M  V30 9120 H 882.361 0.390074 -4.14569 0
M  V30 9121 H 884.958 3.16662 -4.30847 0
M  V30 9122 H 885.301 3.25273 -2.59813 0
M  V30 9123 H 885.834 1.83278 -3.53064 0
M  V30 9124 H 882.573 1.15945 -6.45164 0
M  V30 9125 H 882.093 2.53749 -5.43481 0
M  V30 9126 H 883.772 2.39274 -6.0113 0
M  V30 9127 N 883.904 1.48273 0.534124 0
M  V30 9128 C 884.854 1.58889 1.63519 0
M  V30 9129 C 885.838 0.44626 1.54588 0
M  V30 9130 O 887.03 0.697474 1.62679 0
M  V30 9131 C 884.159 1.62787 3.0225 0
M  V30 9132 C 883.245 2.82515 3.16301 0
M  V30 9133 N 883.636 4.06977 3.00338 0
M  V30 9134 C 881.934 2.7976 3.47347 0
M  V30 9135 C 882.635 4.87283 3.17694 0
M  V30 9136 N 881.611 4.20024 3.45081 0
M  V30 9137 H 885.413 2.52869 1.49781 0
M  V30 9138 H 882.927 1.44587 0.739479 0
M  V30 9139 H 884.924 1.68486 3.81337 0
M  V30 9140 H 883.584 0.699201 3.17082 0
M  V30 9141 H 884.595 4.37479 2.77186 0
M  V30 9142 H 881.272 1.96132 3.68563 0
M  V30 9143 H 882.662 5.96047 3.10126 0
M  V30 9144 N 885.382 -0.782676 1.36792 0
M  V30 9145 C 886.61 -1.57162 1.34565 0
M  V30 9146 C 887.025 -1.88664 -0.0715501 0
M  V30 9147 O 886.382 -1.50633 -1.03033 0
M  V30 9148 C 886.433 -2.88854 2.1736 0
M  V30 9149 O 886.154 -2.58707 3.53557 0
M  V30 9150 C 887.655 -3.83132 2.2299 0
M  V30 9151 H 884.875 -0.487245 0.461338 0
M  V30 9152 H 887.419 -0.970905 1.79982 0
M  V30 9153 H 885.574 -3.45377 1.7548 0
M  V30 9154 H 885.988 -3.42961 3.96835 0
M  V30 9155 H 887.462 -4.72575 2.85266 0
M  V30 9156 H 887.939 -4.21472 1.23524 0
M  V30 9157 H 888.545 -3.32541 2.65135 0
M  V30 9158 N 886.86 -1.21182 -1.00761 0
M  V30 9159 C 888.088 -1.05335 -1.78079 0
M  V30 9160 C 888.503 0.396988 -1.84579 0
M  V30 9161 O 887.86 1.27548 -1.30529 0
M  V30 9162 C 887.911 -1.64089 -3.22113 0
M  V30 9163 O 887.632 -3.03448 -3.15992 0
M  V30 9164 C 889.133 -1.53318 -4.15943 0
M  V30 9165 H 886.353 -0.37005 -0.559736 0
M  V30 9166 H 888.897 -1.60463 -1.26775 0
M  V30 9167 H 887.052 -1.13059 -3.70535 0
M  V30 9168 H 887.466 -3.31492 -4.06465 0
M  V30 9169 H 888.94 -1.99174 -5.14814 0
M  V30 9170 H 889.417 -0.487166 -4.3649 0
M  V30 9171 H 890.023 -2.03582 -3.73409 0
M  V30 9172 N 888.338 1.20213 -1.01915 0
M  V30 9173 C 889.587 1.88968 -0.705261 0
M  V30 9174 C 889.9 1.79869 0.768531 0
M  V30 9175 O 891.106 2.43783 1.19508 0
M  V30 9176 C 889.562 3.38911 -1.21109 0
M  V30 9177 C 889.17 3.5659 -2.71197 0
M  V30 9178 C 890.914 4.13204 -0.97275 0
M  V30 9179 C 888.821 5.00372 -3.15248 0
M  V30 9180 H 887.751 0.707715 -0.260107 0
M  V30 9181 H 890.402 1.35977 -1.23217 0
M  V30 9182 H 888.784 3.9124 -0.612152 0
M  V30 9183 H 889.958 3.14635 -3.36662 0
M  V30 9184 H 888.273 2.95671 -2.93202 0
M  V30 9185 H 890.87 5.19221 -1.27726 0
M  V30 9186 H 891.213 4.16201 0.09072 0
M  V30 9187 H 891.746 3.66983 -1.5352 0
M  V30 9188 H 888.485 5.02532 -4.20882 0
M  V30 9189 H 888.005 5.43127 -2.54505 0
M  V30 9190 H 889.684 5.68969 -3.08032 0
M  V30 9191 N 889.816 0.795718 1.36037 0
M  V30 9192 C 890.746 0.212803 2.32528 0
M  V30 9193 C 891.727 -0.655716 1.56953 0
M  V30 9194 O 892.912 -0.588238 1.85077 0
M  V30 9195 C 890.042 -0.648189 3.41198 0
M  V30 9196 C 888.996 0.120948 4.27829 0
M  V30 9197 C 888.322 -0.861044 5.27722 0
M  V30 9198 C 889.622 1.31375 5.05508 0
M  V30 9199 H 891.316 1.01893 2.81528 0
M  V30 9200 H 888.862 0.491422 1.35355 0
M  V30 9201 H 890.815 -1.06597 4.07695 0
M  V30 9202 H 889.539 -1.48709 2.9078 0
M  V30 9203 H 888.198 0.519777 3.62897 0
M  V30 9204 H 887.846 -1.69515 4.73575 0
M  V30 9205 H 887.546 -0.350808 5.86552 0
M  V30 9206 H 889.07 -1.27726 5.97092 0
M  V30 9207 H 890.484 0.971406 5.6501 0
M  V30 9208 H 888.881 1.75772 5.73781 0
M  V30 9209 H 889.951 2.10593 4.36782 0
M  V30 9210 N 891.294 -1.47756 0.548274 0
M  V30 9211 C 892.242 -2.3158 -0.217584 0
M  V30 9212 C 893.236 -1.42372 -0.917957 0
M  V30 9213 O 894.442 -1.59184 -0.840259 0
M  V30 9214 H 890.817 -0.74671 -0.0890388 0
M  V30 9215 H 892.788 -2.94032 0.508719 0
M  V30 9216 C 891.537 -3.24834 -1.24008 0
M  V30 9217 H 890.86 -3.93435 -0.710572 0
M  V30 9218 H 892.3 -3.86336 -1.74701 0
M  V30 9219 C 890.759 -2.47724 -2.2833 0
M  V30 9220 O 891.289 -2.21522 -3.35098 0
M  V30 9221 N 889.495 -2.08891 -2.02022 0
M  V30 9222 H 889.042 -2.30401 -1.1521 0
M  V30 9223 H 889 -1.57613 -2.7204 0
M  V30 9224 N 892.772 -0.284283 -1.55015 0
M  V30 9225 C 894.183 0.211681 -1.85496 0
M  V30 9226 C 894.534 1.54735 -1.2063 0
M  V30 9227 O 893.659 2.10594 -0.497918 0
M  V30 9228 C 894.254 0.390864 -3.36538 0
M  V30 9229 C 892.813 0.831055 -3.67111 0
M  V30 9230 C 891.96 -0.0703581 -2.77211 0
M  V30 9231 H 894.911 -0.505803 -1.50424 0
M  V30 9232 H 894.932 1.22803 -3.60138 0
M  V30 9233 H 894.444 -0.581409 -3.8372 0
M  V30 9234 H 892.545 1.81447 -3.25434 0
M  V30 9235 H 892.658 0.662026 -4.74504 0
M  V30 9236 H 891.022 0.447528 -2.50737 0
M  V30 9237 H 891.805 -1.03868 -3.2721 0
M  V30 9238 N 894.251 1.57596 -0.0117121 0
M  V30 9239 C 895.201 2.05641 0.98467 0
M  V30 9240 C 896.185 0.953422 1.2961 0
M  V30 9241 O 897.377 1.21712 1.28512 0
M  V30 9242 C 894.506 2.57285 2.27286 0
M  V30 9243 C 893.592 3.74483 1.99057 0
M  V30 9244 N 893.983 4.85741 1.41029 0
M  V30 9245 C 892.281 3.82637 2.2914 0
M  V30 9246 C 892.982 5.67094 1.29536 0
M  V30 9247 N 891.958 5.13459 1.78497 0
M  V30 9248 H 895.76 2.89069 0.530702 0
M  V30 9249 H 893.274 1.6124 0.193717 0
M  V30 9250 H 895.271 2.89988 2.99521 0
M  V30 9251 H 893.931 1.75281 2.73325 0
M  V30 9252 H 894.942 5.06352 1.08756 0
M  V30 9253 H 891.619 3.11509 2.77972 0
M  V30 9254 H 893.009 6.66525 0.848144 0
M  V30 9255 N 895.729 -0.261212 1.5542 0
M  V30 9256 C 896.975 -0.992699 1.76843 0
M  V30 9257 C 897.308 -1.8551 0.574428 0
M  V30 9258 O 896.583 -1.89739 -0.427713 0
M  V30 9259 C 896.866 -1.86532 3.08022 0
M  V30 9260 C 896.719 -1.03206 4.378 0
M  V30 9261 C 898.038 -2.85036 3.35324 0
M  V30 9262 H 895.157 -0.359473 0.643388 0
M  V30 9263 H 897.799 -0.264214 1.88154 0
M  V30 9264 H 895.949 -2.48644 2.9851 0
M  V30 9265 H 897.621 -0.430743 4.59285 0
M  V30 9266 H 895.864 -0.335911 4.32497 0
M  V30 9267 H 896.535 -1.6761 5.25938 0
M  V30 9268 H 899.011 -2.3306 3.44706 0
M  V30 9269 H 897.887 -3.43226 4.28354 0
M  V30 9270 H 898.148 -3.60768 2.55537 0
M  V30 9271 N 897.207 -1.48554 -0.526253 0
M  V30 9272 C 898.157 -1.59753 -1.62674 0
M  V30 9273 C 899.141 -0.454452 -1.54349 0
M  V30 9274 O 900.333 -0.706091 -1.62306 0
M  V30 9275 C 897.462 -1.64388 -3.01383 0
M  V30 9276 C 896.548 -2.84188 -3.14798 0
M  V30 9277 N 896.939 -4.08564 -2.98176 0
M  V30 9278 C 895.237 -2.81599 -3.45859 0
M  V30 9279 C 895.938 -4.88961 -3.15106 0
M  V30 9280 N 894.914 -4.21848 -3.42849 0
M  V30 9281 H 898.716 -2.5366 -1.48438 0
M  V30 9282 H 896.23 -1.44977 -0.731801 0
M  V30 9283 H 898.227 -1.70505 -3.80439 0
M  V30 9284 H 896.887 -0.716006 -3.16707 0
M  V30 9285 H 897.898 -4.38943 -2.74862 0
M  V30 9286 H 894.575 -1.98083 -3.67518 0
M  V30 9287 H 895.965 -5.97683 -3.0696 0
M  V30 9288 N 898.685 0.775411 -1.37205 0
M  V30 9289 C 899.931 1.53611 -1.32407 0
M  V30 9290 C 900.264 1.9398 0.0924103 0
M  V30 9291 O 899.539 1.63791 1.04893 0
M  V30 9292 C 899.822 2.80367 -2.25979 0
M  V30 9293 C 899.675 2.46275 -3.76389 0
M  V30 9294 C 900.994 3.82277 -2.18064 0
M  V30 9295 H 898.113 0.557278 -0.482297 0
M  V30 9296 H 900.755 0.889826 -1.67875 0
M  V30 9297 H 898.905 3.35515 -1.95862 0
M  V30 9298 H 900.577 1.9707 -4.17087 0
M  V30 9299 H 898.82 1.79023 -3.95137 0
M  V30 9300 H 899.491 3.36868 -4.37291 0
M  V30 9301 H 901.967 3.36613 -2.44604 0
M  V30 9302 H 900.843 4.68696 -2.85684 0
M  V30 9303 H 901.104 4.26272 -1.17239 0
M  V30 9304 N 900.163 1.21714 1.00117 0
M  V30 9305 C 901.412 1.03087 1.73367 0
M  V30 9306 C 901.725 -0.435532 1.90689 0
M  V30 9307 O 902.931 -0.741291 2.61184 0
M  V30 9308 C 901.387 1.79593 3.11888 0
M  V30 9309 C 900.995 3.30428 3.02525 0
M  V30 9310 C 902.739 1.69386 3.89241 0
M  V30 9311 C 900.646 3.99408 4.3615 0
M  V30 9312 H 899.576 0.382117 0.650002 0
M  V30 9313 H 902.227 1.45486 1.11831 0
M  V30 9314 H 900.609 1.29988 3.74058 0
M  V30 9315 H 901.783 3.87364 2.49571 0
M  V30 9316 H 900.098 3.4122 2.38659 0
M  V30 9317 H 902.695 2.18251 4.8813 0
M  V30 9318 H 903.038 0.652773 4.1115 0
M  V30 9319 H 903.571 2.16489 3.33733 0
M  V30 9320 H 900.31 5.03735 4.19442 0
M  V30 9321 H 899.83 3.47261 4.8905 0
M  V30 9322 H 901.509 4.04537 5.04934 0
M  V30 9323 N 901.641 -1.19671 1.02551 0
M  V30 9324 C 902.889 -1.88894 0.71858 0
M  V30 9325 C 903.21 -1.79797 -0.754856 0
M  V30 9326 O 902.48 -1.20621 -1.54362 0
M  V30 9327 H 901.06 -0.699244 0.262806 0
M  V30 9328 H 903.722 -1.45298 1.29902 0
M  V30 9329 H 902.818 -2.95309 1.00989 0
M  V30 9330 N 903.119 -0.802921 -1.35613 0
M  V30 9331 C 904.029 -0.212177 -2.33639 0
M  V30 9332 C 905.045 0.642871 -1.61689 0
M  V30 9333 O 906.221 0.555485 -1.93588 0
M  V30 9334 C 903.286 0.632406 -3.40883 0
M  V30 9335 C 902.347 -0.242708 -4.28613 0
M  V30 9336 C 901.58 0.56166 -5.30736 0
M  V30 9337 O 901.803 1.79664 -5.41366 0
M  V30 9338 O 900.737 -0.0455387 -6.01883 0
M  V30 9339 H 904.563 -1.023 -2.85952 0
M  V30 9340 H 902.148 -0.564636 -1.38319 0
M  V30 9341 H 904.03 1.11358 -4.0642 0
M  V30 9342 H 902.705 1.42089 -2.90848 0
M  V30 9343 H 901.612 -0.77094 -3.6607 0
M  V30 9344 H 902.945 -0.995046 -4.82037 0
M  V30 9345 N 904.597 1.47463 -0.556102 0
M  V30 9346 C 905.874 1.9557 0.0339892 0
M  V30 9347 C 906.254 1.49869 1.48669 0
M  V30 9348 O 905.602 0.737019 2.16288 0
M  V30 9349 C 905.812 3.48826 -0.110343 0
M  V30 9350 C 907.16 4.24585 0.0355716 0
M  V30 9351 O 908.184 3.5618 -0.0378356 0
M  V30 9352 O 907.043 5.46158 0.193299 0
M  V30 9353 H 904.137 0.824461 0.0647521 0
M  V30 9354 H 906.683 1.57868 -0.622547 0
M  V30 9355 H 905.455 3.74891 -1.12126 0
M  V30 9356 H 905.078 3.9329 0.583855 0
M  V30 9357 N 906.075 0.2925 1.54862 0
M  V30 9358 C 907.038 -0.574423 2.21885 0
M  V30 9359 C 908.038 -1.06791 1.20218 0
M  V30 9360 O 909.228 -0.9653 1.45009 0
M  V30 9361 C 906.36 -1.79438 2.89853 0
M  V30 9362 H 907.553 0.0110319 2.99898 0
M  V30 9363 H 905.106 0.043256 1.5624 0
M  V30 9364 H 905.841 -2.4199 2.15897 0
M  V30 9365 H 905.626 -1.44827 3.64373 0
M  V30 9366 H 907.116 -2.41048 3.41007 0
M  V30 9367 N 907.553 -1.57587 0.0200696 0
M  V30 9368 C 908.516 -2.08595 -0.949767 0
M  V30 9369 C 909.516 -0.999215 -1.25985 0
M  V30 9370 O 910.706 -1.26115 -1.2017 0
M  V30 9371 C 907.838 -2.54424 -2.26895 0
M  V30 9372 H 909.031 -2.95563 -0.508161 0
M  V30 9373 H 906.584 -1.54631 -0.227798 0
M  V30 9374 H 907.319 -1.70758 -2.75703 0
M  V30 9375 H 907.104 -3.3381 -2.05702 0
M  V30 9376 H 908.594 -2.94144 -2.96427 0
M  V30 9377 N 909.032 0.252966 -1.55557 0
M  V30 9378 C 910.272 0.989276 -1.78865 0
M  V30 9379 C 910.636 1.82755 -0.588615 0
M  V30 9380 O 911.837 2.59516 -0.700347 0
M  V30 9381 C 910.108 1.83203 -3.06874 0
M  V30 9382 S 911.667 2.62826 -3.5138 0
M  V30 9383 H 908.485 0.332863 -0.62827 0
M  V30 9384 H 911.087 0.257716 -1.93794 0
M  V30 9385 H 909.791 1.20579 -3.92287 0
M  V30 9386 H 909.322 2.60644 -2.94666 0
M  V30 9387 H 911.337 3.85648 -3.12234 0
M  V30 9388 N 910.51 1.48831 0.518367 0
M  V30 9389 C 911.759 1.5669 1.27008 0
M  V30 9390 C 912.072 0.250934 1.93984 0
M  V30 9391 O 913.278 0.207884 2.70703 0
M  V30 9392 C 911.734 2.76387 2.30517 0
M  V30 9393 C 911.342 4.14673 1.69559 0
M  V30 9394 C 913.086 2.93566 3.06625 0
M  V30 9395 C 910.993 5.25616 2.71076 0
M  V30 9396 H 909.923 0.583362 0.477708 0
M  V30 9397 H 912.574 1.75187 0.546052 0
M  V30 9398 H 910.956 2.51348 3.06006 0
M  V30 9399 H 912.13 4.49779 1.00179 0
M  V30 9400 H 910.445 4.02708 1.05902 0
M  V30 9401 H 913.042 3.7362 3.82508 0
M  V30 9402 H 913.385 2.03462 3.63193 0
M  V30 9403 H 913.918 3.18562 2.38251 0
M  V30 9404 H 910.657 6.17723 2.19313 0
M  V30 9405 H 910.177 4.94985 3.38748 0
M  V30 9406 H 911.856 5.5422 3.3384 0
M  V30 9407 N 911.988 -0.768124 1.37614 0
M  V30 9408 C 912.951 -1.86314 1.3349 0
M  V30 9409 C 913.951 -1.59025 0.23823 0
M  V30 9410 O 915.141 -1.6704 0.494288 0
M  V30 9411 C 912.273 -3.23519 1.07462 0
M  V30 9412 H 913.466 -1.91382 2.30896 0
M  V30 9413 H 911.019 -0.968267 1.22696 0
M  V30 9414 H 911.754 -3.24127 0.106028 0
M  V30 9415 H 911.539 -3.44719 1.86846 0
M  V30 9416 H 913.029 -4.03597 1.07236 0
M  V30 9417 N 913.466 -1.22244 -0.994698 0
M  V30 9418 C 914.696 -1.07062 -1.76695 0
M  V30 9419 C 915.104 0.381895 -1.85306 0
M  V30 9420 O 914.447 1.27648 -1.32105 0
M  V30 9421 C 914.509 -1.60487 -3.2169 0
M  V30 9422 C 914.173 -3.09079 -3.36629 0
M  V30 9423 C 915.17 -4.06526 -3.24088 0
M  V30 9424 C 912.855 -3.48497 -3.61739 0
M  V30 9425 C 914.849 -5.41377 -3.36437 0
M  V30 9426 C 912.536 -4.83498 -3.73729 0
M  V30 9427 C 913.534 -5.79747 -3.61086 0
M  V30 9428 O 913.222 -7.12297 -3.72678 0
M  V30 9429 H 912.954 -0.375963 -0.561807 0
M  V30 9430 H 915.508 -1.62259 -1.25941 0
M  V30 9431 H 913.738 -0.996957 -3.73628 0
M  V30 9432 H 915.427 -1.40994 -3.80625 0
M  V30 9433 H 916.193 -3.77415 -3.04602 0
M  V30 9434 H 912.072 -2.74106 -3.70657 0
M  V30 9435 H 915.616 -6.16485 -3.26485 0
M  V30 9436 H 911.513 -5.1229 -3.92721 0
M  V30 9437 H 912.281 -7.1985 -3.89562 0
M  V30 9438 N 914.944 1.19125 -1.03184 0
M  V30 9439 C 916.193 1.8821 -0.725264 0
M  V30 9440 C 916.506 1.80674 0.749411 0
M  V30 9441 O 917.712 2.45037 1.16915 0
M  V30 9442 C 916.168 3.37607 -1.24697 0
M  V30 9443 C 915.776 3.53693 -2.74964 0
M  V30 9444 C 917.52 4.12149 -1.01652 0
M  V30 9445 C 915.427 4.97001 -3.20538 0
M  V30 9446 H 914.357 0.704916 -0.267599 0
M  V30 9447 H 917.008 1.34663 -1.24652 0
M  V30 9448 H 915.39 3.90569 -0.653614 0
M  V30 9449 H 916.564 3.11046 -3.39981 0
M  V30 9450 H 914.879 2.92544 -2.96322 0
M  V30 9451 H 917.476 5.17837 -1.33226 0
M  V30 9452 H 917.819 4.16274 0.0465712 0
M  V30 9453 H 918.352 3.65334 -1.57403 0
M  V30 9454 H 915.091 4.9804 -4.26189 0
M  V30 9455 H 914.611 5.40398 -2.60251 0
M  V30 9456 H 916.29 5.65669 -3.14049 0
M  V30 9457 N 916.422 0.810101 1.35185 0
M  V30 9458 C 917.838 0.494269 1.51754 0
M  V30 9459 C 918.038 -0.983907 1.75845 0
M  V30 9460 O 917.094 -1.76882 1.80191 0
M  V30 9461 C 918.407 1.34268 2.69059 0
M  V30 9462 C 919.955 1.33848 2.82938 0
M  V30 9463 C 920.43 2.17109 4.03271 0
M  V30 9464 N 921.921 2.14664 4.10456 0
M  V30 9465 C 922.656 2.75843 5.02691 0
M  V30 9466 N 922.152 3.45962 6.00235 0
M  V30 9467 N 923.945 2.65465 4.95464 0
M  V30 9468 H 916.096 1.76736 1.17805 0
M  V30 9469 H 918.359 0.752429 0.576676 0
M  V30 9470 H 918.065 2.39183 2.57845 0
M  V30 9471 H 917.939 0.998362 3.63748 0
M  V30 9472 H 920.326 0.29716 2.936 0
M  V30 9473 H 920.407 1.72269 1.89095 0
M  V30 9474 H 920.051 3.21283 3.93369 0
M  V30 9475 H 919.981 1.76046 4.96302 0
M  V30 9476 H 922.472 1.63648 3.40628 0
M  V30 9477 H 922.785 3.89922 6.67219 0
M  V30 9478 H 921.13 3.50067 6.00398 0
M  V30 9479 H 924.321 2.1027 4.18215 0
M  V30 9480 H 924.494 3.13433 5.67154 0
M  V30 9481 N 917.9 -1.47166 0.563914 0
M  V30 9482 C 918.83 -2.32894 -0.168148 0
M  V30 9483 C 919.811 -1.44202 -0.902214 0
M  V30 9484 O 920.996 -1.73048 -0.881365 0
M  V30 9485 C 918.126 -3.26116 -1.19439 0
M  V30 9486 C 917.08 -4.24101 -0.576363 0
M  V30 9487 C 916.406 -5.06696 -1.70772 0
M  V30 9488 C 917.706 -5.20142 0.47425 0
M  V30 9489 H 919.4 -2.9435 0.547573 0
M  V30 9490 H 916.946 -1.41545 0.264778 0
M  V30 9491 H 918.899 -3.84935 -1.71474 0
M  V30 9492 H 917.623 -2.62728 -1.94014 0
M  V30 9493 H 916.282 -3.66519 -0.0772534 0
M  V30 9494 H 915.93 -4.39707 -2.44268 0
M  V30 9495 H 915.63 -5.7304 -1.29994 0
M  V30 9496 H 917.154 -5.68375 -2.2312 0
M  V30 9497 H 918.568 -5.73286 0.0397035 0
M  V30 9498 H 916.965 -5.94726 0.801287 0
M  V30 9499 H 918.035 -4.65214 1.36764 0
M  V30 9500 N 919.378 -0.300708 -1.54705 0
M  V30 9501 C 920.606 0.31127 -2.04545 0
M  V30 9502 C 921.021 1.47542 -1.178 0
M  V30 9503 O 920.378 1.81361 -0.203571 0
M  V30 9504 C 920.429 0.767783 -3.53253 0
M  V30 9505 O 920.15 -0.350027 -4.36699 0
M  V30 9506 C 921.651 1.44494 -4.1909 0
M  V30 9507 H 918.871 0.067668 -0.667579 0
M  V30 9508 H 921.415 -0.440254 -1.99705 0
M  V30 9509 H 919.57 1.46933 -3.58454 0
M  V30 9510 H 919.984 0.00534038 -5.245 0
M  V30 9511 H 921.458 1.71553 -5.24665 0
M  V30 9512 H 921.935 2.3849 -3.68808 0
M  V30 9513 H 922.541 0.786581 -4.17963 0
M  V30 9514 N 920.856 1.57574 -0.0284266 0
M  V30 9515 C 921.788 2.07079 0.982391 0
M  V30 9516 C 922.801 0.994078 1.28926 0
M  V30 9517 O 923.99 1.27028 1.25404 0
M  V30 9518 C 921.09 2.47978 2.30998 0
M  V30 9519 C 920.263 3.7872 2.18838 0
M  V30 9520 C 919.322 4.06177 3.34524 0
M  V30 9521 O 918.348 4.76438 3.11441 0
M  V30 9522 N 919.55 3.56297 4.58293 0
M  V30 9523 H 922.315 2.94421 0.560011 0
M  V30 9524 H 919.876 1.61124 0.158347 0
M  V30 9525 H 921.868 2.63439 3.07216 0
M  V30 9526 H 920.438 1.66005 2.64879 0
M  V30 9527 H 919.658 3.73062 1.27351 0
M  V30 9528 H 920.946 4.6438 2.07915 0
M  V30 9529 H 920.344 2.99453 4.79942 0
M  V30 9530 H 918.901 3.77038 5.31682 0
M  V30 9531 N 922.334 -0.244713 1.55689 0
M  V30 9532 C 923.564 -0.988508 1.81417 0
M  V30 9533 C 923.972 -1.79362 0.602143 0
M  V30 9534 O 923.315 -1.78386 -0.438639 0
M  V30 9535 C 923.377 -1.97287 3.0053 0
M  V30 9536 C 923.041 -1.35448 4.36466 0
M  V30 9537 C 924.038 -0.755874 5.14376 0
M  V30 9538 C 921.723 -1.37319 4.83165 0
M  V30 9539 C 923.717 -0.184218 6.37134 0
M  V30 9540 C 921.404 -0.797681 6.05871 0
M  V30 9541 C 922.402 -0.204224 6.82695 0
M  V30 9542 O 922.09 0.362392 8.03083 0
M  V30 9543 H 921.822 -0.296412 0.607549 0
M  V30 9544 H 924.376 -0.272185 2.03589 0
M  V30 9545 H 922.606 -2.72756 2.74119 0
M  V30 9546 H 924.295 -2.58028 3.13331 0
M  V30 9547 H 925.061 -0.733912 4.79415 0
M  V30 9548 H 920.94 -1.8245 4.23359 0
M  V30 9549 H 924.484 0.279624 6.97039 0
M  V30 9550 H 920.381 -0.816978 6.40309 0
M  V30 9551 H 921.149 0.254467 8.18104 0
M  V30 9552 N 923.813 -1.49104 -0.510467 0
M  V30 9553 C 925.062 -1.57362 -1.26175 0
M  V30 9554 C 925.375 -0.261218 -1.93848 0
M  V30 9555 O 926.581 -0.222238 -2.70589 0
M  V30 9556 C 925.037 -2.77606 -2.29048 0
M  V30 9557 C 924.645 -4.15567 -1.67357 0
M  V30 9558 C 926.389 -2.95188 -3.05064 0
M  V30 9559 C 924.296 -5.27046 -2.68285 0
M  V30 9560 H 923.226 -0.585887 -0.474608 0
M  V30 9561 H 925.877 -1.75474 -0.536753 0
M  V30 9562 H 924.259 -2.52968 -3.04669 0
M  V30 9563 H 925.433 -4.50304 -0.977924 0
M  V30 9564 H 923.748 -4.03264 -1.03765 0
M  V30 9565 H 926.345 -3.75643 -3.80521 0
M  V30 9566 H 926.688 -2.05385 -3.62108 0
M  V30 9567 H 927.221 -3.19821 -2.36558 0
M  V30 9568 H 923.96 -6.18878 -2.16034 0
M  V30 9569 H 923.48 -4.96774 -3.36118 0
M  V30 9570 H 925.159 -5.55983 -3.30896 0
M  V30 9571 N 925.291 0.760815 -1.38019 0
M  V30 9572 C 926.568 1.5098 -1.24356 0
M  V30 9573 C 926.948 2.10507 0.158169 0
M  V30 9574 O 926.296 1.96455 1.16695 0
M  V30 9575 C 926.506 2.58195 -2.34811 0
M  V30 9576 C 927.854 3.25297 -2.72886 0
M  V30 9577 O 928.878 2.68496 -2.34069 0
M  V30 9578 O 927.737 4.28018 -3.39799 0
M  V30 9579 H 924.831 0.66921 -0.485888 0
M  V30 9580 H 927.377 0.796844 -1.49828 0
M  V30 9581 H 926.149 2.12406 -3.28633 0
M  V30 9582 H 925.772 3.37079 -2.10864 0
M  V30 9583 N 926.769 1.22769 0.988202 0
M  V30 9584 C 928.017 1.05301 1.725 0
M  V30 9585 C 928.338 -0.412103 1.90596 0
M  V30 9586 O 927.608 -1.29606 1.46898 0
M  V30 9587 H 926.188 0.386658 0.639144 0
M  V30 9588 H 928.85 1.54359 1.18993 0
M  V30 9589 H 927.946 1.53465 2.71763 0
M  V30 9590 N 928.247 -1.18576 1.03814 0
M  V30 9591 C 929.179 -2.21607 0.585055 0
M  V30 9592 C 930.192 -1.59125 -0.343963 0
M  V30 9593 O 931.381 -1.77959 -0.138882 0
M  V30 9594 C 928.481 -3.38495 -0.165602 0
M  V30 9595 C 927.654 -4.30557 0.770662 0
M  V30 9596 C 926.713 -5.26161 0.0637534 0
M  V30 9597 O 925.739 -5.64961 0.693359 0
M  V30 9598 N 926.941 -5.67882 -1.20377 0
M  V30 9599 H 929.706 -2.61104 1.47121 0
M  V30 9600 H 927.267 -1.33336 0.918316 0
M  V30 9601 H 929.259 -3.99474 -0.648292 0
M  V30 9602 H 927.829 -2.97711 -0.953268 0
M  V30 9603 H 927.049 -3.67221 1.43326 0
M  V30 9604 H 928.337 -4.88969 1.40667 0
M  V30 9605 H 927.735 -5.38409 -1.73586 0
M  V30 9606 H 926.292 -6.31069 -1.63079 0
M  V30 9607 N 929.725 -0.817259 -1.34754 0
M  V30 9608 C 930.973 -0.401852 -1.98065 0
M  V30 9609 C 931.294 1.03718 -1.65129 0
M  V30 9610 O 930.564 1.71921 -0.939141 0
M  V30 9611 H 929.144 -0.145603 -0.732672 0
M  V30 9612 H 931.806 -1.04545 -1.64488 0
M  V30 9613 H 930.902 -0.516241 -3.07801 0
M  V30 9614 N 931.203 1.46865 -0.571711 0
M  V30 9615 C 932.619 1.57897 -0.23255 0
M  V30 9616 C 932.819 1.56836 1.26509 0
M  V30 9617 O 931.875 1.47947 2.04617 0
M  V30 9618 C 933.188 2.87778 -0.872036 0
M  V30 9619 C 934.736 3.01389 -0.844605 0
M  V30 9620 C 935.211 4.33991 -1.46343 0
M  V30 9621 N 936.702 4.40662 -1.42727 0
M  V30 9622 C 937.437 5.41858 -1.87557 0
M  V30 9623 N 936.933 6.49787 -2.4031 0
M  V30 9624 N 938.726 5.32992 -1.7854 0
M  V30 9625 H 930.877 1.45798 -1.54457 0
M  V30 9626 H 933.14 0.694785 -0.644964 0
M  V30 9627 H 932.846 2.94332 -1.92513 0
M  V30 9628 H 932.72 3.75345 -0.373677 0
M  V30 9629 H 935.107 2.94423 0.19984 0
M  V30 9630 H 935.188 2.15327 -1.38087 0
M  V30 9631 H 934.832 4.41714 -2.50701 0
M  V30 9632 H 934.762 5.18809 -0.902479 0
M  V30 9633 H 937.253 3.63263 -1.04155 0
M  V30 9634 H 937.566 7.23199 -2.72403 0
M  V30 9635 H 935.911 6.50637 -2.44329 0
M  V30 9636 H 939.102 4.47575 -1.37093 0
M  V30 9637 H 939.275 6.11716 -2.13794 0
M  V30 9638 N 932.681 0.308908 1.54543 0
M  V30 9639 C 934.092 -0.182144 1.85809 0
M  V30 9640 C 934.443 -1.52796 1.23076 0
M  V30 9641 O 933.568 -2.09775 0.531358 0
M  V30 9642 C 934.163 -0.337275 3.37117 0
M  V30 9643 C 932.722 -0.772545 3.68387 0
M  V30 9644 C 931.869 0.114451 2.77064 0
M  V30 9645 H 934.82 0.529671 1.496 0
M  V30 9646 H 934.841 -1.17058 3.62046 0
M  V30 9647 H 934.353 0.642382 3.82747 0
M  V30 9648 H 932.454 -1.76247 3.2828 0
M  V30 9649 H 932.567 -0.586453 4.75497 0
M  V30 9650 H 930.931 -0.407581 2.51418 0
M  V30 9651 H 931.714 1.09061 3.25516 0
M  V30 9652 N 934.159 -1.57557 0.0367827 0
M  V30 9653 C 935.575 -1.56366 -0.31967 0
M  V30 9654 C 935.775 -1.04313 -1.72398 0
M  V30 9655 O 934.831 -0.693278 -2.42796 0
M  V30 9656 C 936.144 -3.00267 -0.161274 0
M  V30 9657 C 937.692 -3.12128 -0.233464 0
M  V30 9658 C 938.167 -4.57882 -0.103767 0
M  V30 9659 N 939.658 -4.62922 -0.160506 0
M  V30 9660 C 940.393 -5.73338 -0.0840493 0
M  V30 9661 N 939.889 -6.92786 0.043933 0
M  V30 9662 N 941.682 -5.61929 -0.138592 0
M  V30 9663 H 933.833 -1.8972 0.954996 0
M  V30 9664 H 936.096 -0.87304 0.369467 0
M  V30 9665 H 935.802 -3.42331 0.80639 0
M  V30 9666 H 935.676 -3.65599 -0.928304 0
M  V30 9667 H 938.063 -2.69972 -1.19159 0
M  V30 9668 H 938.144 -2.49503 0.564075 0
M  V30 9669 H 937.788 -5.0072 0.850973 0
M  V30 9670 H 937.718 -5.18496 -0.920268 0
M  V30 9671 H 940.209 -3.7701 -0.259257 0
M  V30 9672 H 940.522 -7.72741 0.095372 0
M  V30 9673 H 938.867 -6.94955 0.0788211 0
M  V30 9674 H 942.058 -4.67499 -0.237031 0
M  V30 9675 H 942.231 -6.47956 -0.075546 0
M  V30 9676 N 935.637 0.236453 -1.55816 0
M  V30 9677 C 936.865 0.980295 -1.82203 0
M  V30 9678 C 937.28 1.7854 -0.613926 0
M  V30 9679 O 936.637 1.77661 0.417491 0
M  V30 9680 C 936.688 1.90982 -3.06933 0
M  V30 9681 O 936.409 1.13728 -4.23081 0
M  V30 9682 C 937.91 2.76879 -3.46198 0
M  V30 9683 H 935.13 0.28799 -0.606055 0
M  V30 9684 H 937.674 0.256182 -2.02889 0
M  V30 9685 H 935.829 2.58808 -2.88266 0
M  V30 9686 H 936.243 1.76694 -4.93842 0
M  V30 9687 H 937.717 3.37831 -4.36548 0
M  V30 9688 H 938.194 3.48522 -2.67262 0
M  V30 9689 H 938.8 2.1449 -3.67252 0
M  V30 9690 N 937.115 1.49373 0.502552 0
M  V30 9691 C 938.34 1.62752 1.28556 0
M  V30 9692 C 938.765 0.298285 1.8572 0
M  V30 9693 O 938.123 -0.733885 1.65782 0
M  V30 9694 C 938.171 2.69778 2.39274 0
M  V30 9695 O 937.275 2.28843 3.43081 0
M  V30 9696 H 936.616 0.544799 0.379592 0
M  V30 9697 H 939.146 1.9555 0.601792 0
M  V30 9698 H 939.156 2.91899 2.8506 0
M  V30 9699 H 937.831 3.66266 1.97033 0
M  V30 9700 H 936.408 2.17047 3.03224 0
M  V30 9701 N 938.594 -0.753485 1.38421 0
M  V30 9702 C 939.526 -1.87692 1.31547 0
M  V30 9703 C 940.539 -1.612 0.227671 0
M  V30 9704 O 941.728 -1.71778 0.485238 0
M  V30 9705 C 938.828 -3.23329 1.01545 0
M  V30 9706 C 938.001 -3.77324 2.21236 0
M  V30 9707 C 937.06 -4.91478 1.87977 0
M  V30 9708 O 936.086 -5.06106 2.60472 0
M  V30 9709 N 937.288 -5.74466 0.834796 0
M  V30 9710 H 940.053 -1.94099 2.28354 0
M  V30 9711 H 937.614 -0.933421 1.32283 0
M  V30 9712 H 939.606 -3.9724 0.773477 0
M  V30 9713 H 938.176 -3.12307 0.135334 0
M  V30 9714 H 937.396 -2.94978 2.61498 0
M  V30 9715 H 938.684 -4.10131 3.01115 0
M  V30 9716 H 938.082 -5.65217 0.233606 0
M  V30 9717 H 936.639 -6.48524 0.652703 0
M  V30 9718 N 940.072 -1.23292 -0.981677 0
M  V30 9719 C 941.297 -1.09176 -1.76339 0
M  V30 9720 C 941.722 0.352726 -1.84763 0
M  V30 9721 O 941.08 1.25509 -1.30832 0
M  V30 9722 C 941.128 -1.72046 -3.16911 0
M  V30 9723 O 940.232 -0.98174 -4.00544 0
M  V30 9724 H 939.573 -0.382755 -0.542581 0
M  V30 9725 H 942.103 -1.63319 -1.23239 0
M  V30 9726 H 942.113 -1.77232 -3.67495 0
M  V30 9727 H 940.788 -2.77154 -3.10095 0
M  V30 9728 H 939.365 -1.00672 -3.59054 0
M  V30 9729 N 941.55 1.18024 -1.04442 0
M  V30 9730 C 942.46 2.25436 -0.649276 0
M  V30 9731 C 943.476 1.70915 0.326189 0
M  V30 9732 O 944.652 2.00592 0.180174 0
M  V30 9733 C 941.717 3.46693 -0.0222558 0
M  V30 9734 C 940.778 4.16332 -1.0472 0
M  V30 9735 C 940.011 5.31799 -0.450011 0
M  V30 9736 O 940.234 5.65544 0.742717 0
M  V30 9737 O 939.168 5.90209 -1.18056 0
M  V30 9738 H 942.994 2.61508 -1.54426 0
M  V30 9739 H 940.579 1.25178 -0.81552 0
M  V30 9740 H 942.461 4.20132 0.326597 0
M  V30 9741 H 941.136 3.12436 0.84649 0
M  V30 9742 H 940.043 3.44944 -1.44792 0
M  V30 9743 H 941.376 4.54598 -1.88684 0
M  V30 9744 N 943.028 0.824394 1.34319 0
M  V30 9745 C 943.938 0.24932 2.33271 0
M  V30 9746 C 944.954 -0.617066 1.62691 0
M  V30 9747 O 946.13 -0.524616 1.94447 0
M  V30 9748 C 943.195 -0.578094 3.41846 0
M  V30 9749 C 942.256 0.310866 4.28173 0
M  V30 9750 C 941.489 -0.477153 5.31563 0
M  V30 9751 O 941.712 -1.71028 5.44156 0
M  V30 9752 O 940.646 0.141287 6.01734 0
M  V30 9753 H 944.472 1.06837 2.84288 0
M  V30 9754 H 942.057 0.58657 1.37403 0
M  V30 9755 H 943.939 -1.04878 4.0814 0
M  V30 9756 H 942.614 -1.37444 2.93071 0
M  V30 9757 H 941.521 0.829081 3.64797 0
M  V30 9758 H 942.854 1.07161 4.80393 0
M  V30 9759 N 944.506 -1.46559 0.579492 0
M  V30 9760 C 945.734 -2.06784 0.0693648 0
M  V30 9761 C 946.149 -1.42875 -1.23419 0
M  V30 9762 O 945.506 -0.532919 -1.74546 0
M  V30 9763 C 945.557 -3.61343 -0.106511 0
M  V30 9764 O 945.278 -4.22861 1.14545 0
M  V30 9765 C 946.779 -4.38489 -0.651359 0
M  V30 9766 H 943.999 -0.66866 0.0559848 0
M  V30 9767 H 946.543 -1.88235 0.799245 0
M  V30 9768 H 944.698 -3.7933 -0.786601 0
M  V30 9769 H 945.112 -5.15691 0.95723 0
M  V30 9770 H 946.586 -5.47237 -0.723615 0
M  V30 9771 H 947.063 -4.06309 -1.66763 0
M  V30 9772 H 947.669 -4.253 -0.0062433 0
M  V30 9773 N 945.984 -0.3171 -1.54377 0
M  V30 9774 C 947.4 0.035766 -1.5956 0
M  V30 9775 C 947.6 1.51038 -1.33378 0
M  V30 9776 O 946.656 2.26546 -1.11505 0
M  V30 9777 C 947.969 -0.376652 -2.98332 0
M  V30 9778 C 949.517 -0.326765 -3.1129 0
M  V30 9779 C 949.992 -0.714247 -4.52396 0
M  V30 9780 N 951.483 -0.667402 -4.58367 0
M  V30 9781 C 952.218 -0.939494 -5.65651 0
M  V30 9782 N 951.714 -1.27839 -6.80903 0
M  V30 9783 N 953.507 -0.865484 -5.55397 0
M  V30 9784 H 945.658 -1.27794 -1.69654 0
M  V30 9785 H 947.921 -0.5192 -0.79318 0
M  V30 9786 H 947.627 -1.40381 -3.22469 0
M  V30 9787 H 947.501 0.261611 -3.76292 0
M  V30 9788 H 949.888 0.69117 -2.86892 0
M  V30 9789 H 949.969 -0.999873 -2.35449 0
M  V30 9790 H 949.613 -1.73007 -4.77526 0
M  V30 9791 H 949.543 -0.0188962 -5.26597 0
M  V30 9792 H 952.034 -0.417062 -3.75592 0
M  V30 9793 H 952.347 -1.47155 -7.5866 0
M  V30 9794 H 950.692 -1.31658 -6.82416 0
M  V30 9795 H 953.883 -0.600265 -4.64235 0
M  V30 9796 H 954.056 -1.0809 -6.38921 0
M  V30 9797 N 947.462 1.57535 -0.0451378 0
M  V30 9798 C 948.708 1.92736 0.630921 0
M  V30 9799 C 949.041 0.923265 1.70849 0
M  V30 9800 O 948.316 -0.0516512 1.94431 0
M  V30 9801 C 948.599 3.38348 1.23259 0
M  V30 9802 C 948.452 4.49503 0.16349 0
M  V30 9803 C 949.771 3.84233 2.14599 0
M  V30 9804 H 946.89 0.700884 0.227883 0
M  V30 9805 H 949.532 1.89706 -0.10567 0
M  V30 9806 H 947.682 3.41061 1.86037 0
M  V30 9807 H 949.354 4.58919 -0.46808 0
M  V30 9808 H 947.597 4.30802 -0.509166 0
M  V30 9809 H 948.268 5.48457 0.624382 0
M  V30 9810 H 950.744 3.83358 1.6179 0
M  V30 9811 H 949.62 4.86781 2.53644 0
M  V30 9812 H 949.881 3.20646 3.04366 0
M  V30 9813 N 948.94 -0.228186 1.55939 0
M  V30 9814 C 950.186 -0.950604 1.7982 0
M  V30 9815 C 950.541 -1.82236 0.617079 0
M  V30 9816 O 949.834 -1.87607 -0.389102 0
M  V30 9817 C 950.028 -1.82924 3.0704 0
M  V30 9818 C 949.857 -1.04403 4.37413 0
M  V30 9819 C 948.627 -0.741613 4.99828 0
M  V30 9820 C 950.825 -0.412534 5.12643 0
M  V30 9821 N 948.807 0.0656922 6.13865 0
M  V30 9822 C 950.178 0.258471 6.19461 0
M  V30 9823 C 952.233 -0.324893 4.96839 0
M  V30 9824 C 950.936 1.00873 7.12192 0
M  V30 9825 C 952.962 0.411878 5.89964 0
M  V30 9826 C 952.324 1.07145 6.96203 0
M  V30 9827 H 948.423 -0.328336 0.709732 0
M  V30 9828 H 951.007 -0.222056 1.9343 0
M  V30 9829 H 949.178 -2.52966 2.94725 0
M  V30 9830 H 950.91 -2.48863 3.19139 0
M  V30 9831 H 947.665 -1.05801 4.61631 0
M  V30 9832 H 948.089 0.457986 6.75449 0
M  V30 9833 H 952.731 -0.820485 4.14762 0
M  V30 9834 H 950.449 1.51586 7.93755 0
M  V30 9835 H 954.035 0.480606 5.79812 0
M  V30 9836 H 952.915 1.63245 7.67021 0
M  V30 9837 N 950.418 -1.49637 -0.494624 0
M  V30 9838 C 951.368 -1.63168 -1.59249 0
M  V30 9839 C 952.352 -0.487089 -1.5335 0
M  V30 9840 O 953.544 -0.74036 -1.60772 0
M  V30 9841 C 950.673 -1.70744 -2.97828 0
M  V30 9842 C 949.759 -2.90802 -3.08699 0
M  V30 9843 N 950.15 -4.14797 -2.89442 0
M  V30 9844 C 948.448 -2.88871 -3.39808 0
M  V30 9845 C 949.149 -4.95535 -3.04663 0
M  V30 9846 N 948.125 -4.29025 -3.33824 0
M  V30 9847 H 951.927 -2.56751 -1.43024 0
M  V30 9848 H 949.441 -1.46497 -0.700885 0
M  V30 9849 H 951.438 -1.78537 -3.76736 0
M  V30 9850 H 950.098 -0.783024 -3.15117 0
M  V30 9851 H 951.109 -4.44675 -2.6549 0
M  V30 9852 H 947.786 -2.05834 -3.63233 0
M  V30 9853 H 949.176 -6.0406 -2.94214 0
M  V30 9854 N 951.896 0.746133 -1.38819 0
M  V30 9855 C 953.312 1.0502 -1.20179 0
M  V30 9856 C 953.512 2.01423 -0.0556271 0
M  V30 9857 O 952.568 2.45359 0.59625 0
M  V30 9858 C 953.881 1.62315 -2.53129 0
M  V30 9859 C 955.429 1.74449 -2.59878 0
M  V30 9860 C 955.904 2.35155 -3.93022 0
M  V30 9861 N 957.395 2.42577 -3.94602 0
M  V30 9862 C 958.13 2.9046 -4.94389 0
M  V30 9863 N 957.626 3.38322 -6.04574 0
M  V30 9864 N 959.419 2.89568 -4.81775 0
M  V30 9865 H 951.57 0.106551 -2.12133 0
M  V30 9866 H 953.833 0.109897 -0.941609 0
M  V30 9867 H 953.539 0.98946 -3.37495 0
M  V30 9868 H 953.413 2.61276 -2.72057 0
M  V30 9869 H 955.8 2.36943 -1.75903 0
M  V30 9870 H 955.881 0.741721 -2.4481 0
M  V30 9871 H 955.525 1.73292 -4.77422 0
M  V30 9872 H 955.455 3.36088 -4.05404 0
M  V30 9873 H 957.946 2.08735 -3.15021 0
M  V30 9874 H 958.259 3.73336 -6.76639 0
M  V30 9875 H 956.604 3.3636 -6.08184 0
M  V30 9876 H 959.795 2.51492 -3.94803 0
M  V30 9877 H 959.968 3.26571 -5.59692 0
M  V30 9878 N 953.375 1.23811 0.975125 0
M  V30 9879 C 954.791 1.0019 1.24234 0
M  V30 9880 C 954.991 -0.293811 1.99346 0
M  V30 9881 O 954.047 -1.01189 2.31337 0
M  V30 9882 C 955.36 2.21218 2.03674 0
M  V30 9883 C 956.908 2.25764 2.16793 0
M  V30 9884 C 957.383 3.46394 2.99626 0
M  V30 9885 N 958.874 3.46665 3.07209 0
M  V30 9886 C 959.609 4.3666 3.71639 0
M  V30 9887 N 959.105 5.36899 4.37849 0
M  V30 9888 N 960.898 4.2439 3.68578 0
M  V30 9889 H 953.049 2.07087 0.472076 0
M  V30 9890 H 955.312 0.90838 0.271201 0
M  V30 9891 H 955.018 3.15277 1.55862 0
M  V30 9892 H 954.892 2.22733 3.04417 0
M  V30 9893 H 957.279 1.32242 2.63811 0
M  V30 9894 H 957.36 2.28279 1.15422 0
M  V30 9895 H 957.004 4.40227 2.53304 0
M  V30 9896 H 956.934 3.41121 4.01178 0
M  V30 9897 H 959.425 2.74142 2.60105 0
M  V30 9898 H 959.738 6.01816 4.84807 0
M  V30 9899 H 958.083 5.40793 4.36541 0
M  V30 9900 H 961.274 3.4532 3.16025 0
M  V30 9901 H 961.447 4.94727 4.18508 0
M  V30 9902 N 954.853 -1.17469 1.05066 0
M  V30 9903 C 956.13 -1.83625 0.673872 0
M  V30 9904 C 956.51 -1.93412 -0.845871 0
M  V30 9905 O 955.858 -1.4677 -1.75131 0
M  V30 9906 C 956.068 -3.21352 1.36139 0
M  V30 9907 C 957.416 -3.97274 1.49863 0
M  V30 9908 O 958.44 -3.30827 1.3203 0
M  V30 9909 O 957.299 -5.16349 1.79013 0
M  V30 9910 H 954.393 -0.792297 0.237055 0
M  V30 9911 H 956.939 -1.24776 1.15017 0
M  V30 9912 H 955.711 -3.0919 2.39827 0
M  V30 9913 H 955.334 -3.87867 0.874364 0
M  V30 9914 N 956.331 -0.831506 -1.3388 0
M  V30 9915 C 957.579 -0.422837 -1.97627 0
M  V30 9916 C 957.9 1.01961 -1.6622 0
M  V30 9917 O 957.17 1.70916 -0.957323 0
M  V30 9918 H 955.75 -0.153365 -0.731087 0
M  V30 9919 H 958.412 -1.06284 -1.6337 0
M  V30 9920 H 957.508 -0.548858 -3.07236 0
M  V30 9921 N 957.809 1.4625 -0.587256 0
M  V30 9922 C 958.756 2.30354 0.143384 0
M  V30 9923 C 959.726 1.40891 0.879716 0
M  V30 9924 O 960.911 1.69837 0.869486 0
M  V30 9925 C 958.051 3.25441 1.14815 0
M  V30 9926 C 957.164 4.30004 0.414792 0
M  V30 9927 C 956.299 5.12214 1.40748 0
M  V30 9928 C 955.338 6.08523 0.660786 0
M  V30 9929 N 954.475 6.83585 1.60176 0
M  V30 9930 H 959.315 2.92304 -0.579866 0
M  V30 9931 H 956.852 1.44055 -0.29777 0
M  V30 9932 H 958.81 3.79018 1.7436 0
M  V30 9933 H 957.44 2.6529 1.83906 0
M  V30 9934 H 956.492 3.79248 -0.295787 0
M  V30 9935 H 957.804 4.98515 -0.168738 0
M  V30 9936 H 956.958 5.70091 2.0756 0
M  V30 9937 H 955.697 4.43675 2.02494 0
M  V30 9938 H 954.702 5.49796 -0.0210864 0
M  V30 9939 H 955.927 6.79083 0.0486551 0
M  V30 9940 H 953.873 6.17752 2.20724 0
M  V30 9941 H 953.79 7.48373 1.07115 0
M  V30 9942 H 955.058 7.46016 2.26009 0
M  V30 9943 N 959.287 0.325282 1.54207 0
M  V30 9944 C 960.533 -0.269944 2.01601 0
M  V30 9945 C 960.888 -1.49643 1.20933 0
M  V30 9946 O 960.181 -1.89486 0.283838 0
M  V30 9947 C 960.375 -0.654292 3.5136 0
M  V30 9948 C 960.204 0.533397 4.46525 0
M  V30 9949 C 958.974 1.03304 4.94628 0
M  V30 9950 C 961.172 1.38613 4.95269 0
M  V30 9951 N 959.154 2.18495 5.73701 0
M  V30 9952 C 960.525 2.38519 5.72284 0
M  V30 9953 C 962.58 1.41369 4.77409 0
M  V30 9954 C 961.283 3.40988 6.3334 0
M  V30 9955 C 963.309 2.4271 5.39301 0
M  V30 9956 C 962.671 3.41343 6.16169 0
M  V30 9957 H 958.77 -0.0625778 0.779492 0
M  V30 9958 H 961.354 0.460711 1.89171 0
M  V30 9959 H 959.525 -1.35408 3.64032 0
M  V30 9960 H 961.257 -1.23114 3.85519 0
M  V30 9961 H 958.012 0.604045 4.69732 0
M  V30 9962 H 958.436 2.76605 6.17915 0
M  V30 9963 H 963.078 0.664796 4.17541 0
M  V30 9964 H 960.796 4.16784 6.92327 0
M  V30 9965 H 964.382 2.45647 5.27398 0
M  V30 9966 H 963.262 4.18476 6.6321 0
M  V30 9967 N 960.765 -1.57509 0.0534917 0
M  V30 9968 C 961.697 -2.08616 -0.949322 0
M  V30 9969 C 962.71 -1.01446 -1.27328 0
M  V30 9970 O 963.899 -1.29007 -1.23367 0
M  V30 9971 C 960.999 -2.51622 -2.27024 0
M  V30 9972 C 960.172 -3.82154 -2.12785 0
M  V30 9973 C 959.231 -4.11448 -3.2802 0
M  V30 9974 O 958.257 -4.81333 -3.03822 0
M  V30 9975 N 959.459 -3.63543 -4.52567 0
M  V30 9976 H 962.224 -2.95275 -0.5131 0
M  V30 9977 H 959.785 -1.61355 -0.132693 0
M  V30 9978 H 961.777 -2.68293 -3.02986 0
M  V30 9979 H 960.347 -1.70198 -2.62205 0
M  V30 9980 H 959.567 -3.75041 -1.21399 0
M  V30 9981 H 960.855 -4.67629 -2.00501 0
M  V30 9982 H 960.253 -3.07051 -4.75117 0
M  V30 9983 H 958.81 -3.85448 -5.25617 0
M  V30 9984 N 962.243 0.219913 -1.56058 0
M  V30 9985 C 963.191 1.29215 -1.93407 0
M  V30 9986 C 964.185 1.48434 -0.816307 0
M  V30 9987 O 965.391 1.49589 -1.00115 0
M  V30 9988 H 961.766 0.433256 -0.614649 0
M  V30 9989 H 963.737 0.949977 -2.82875 0
M  V30 9990 C 962.486 2.63501 -2.26854 0
M  V30 9991 H 961.809 2.4952 -3.12377 0
M  V30 9992 H 963.249 3.37334 -2.56869 0
M  V30 9993 C 961.708 3.18634 -1.09425 0
M  V30 9994 O 962.238 4.00117 -0.356243 0
M  V30 9995 N 960.444 2.7703 -0.877642 0
M  V30 9996 H 959.991 2.10875 -1.47951 0
M  V30 9997 H 959.949 3.1426 -0.0936792 0
M  V30 9998 N 963.721 1.49897 0.486681 0
M  V30 9999 C 964.967 1.60342 1.2417 0
M  V30 10000 C 965.3 0.295694 1.91936 0
M  V30 10001 O 964.575 -0.701788 1.81398 0
M  V30 10002 C 964.858 2.77281 2.29755 0
M  V30 10003 C 964.711 4.1789 1.66397 0
M  V30 10004 C 966.03 2.89817 3.31201 0
M  V30 10005 H 963.149 0.583605 0.450083 0
M  V30 10006 H 965.791 1.82232 0.537734 0
M  V30 10007 H 963.941 2.58748 2.89796 0
M  V30 10008 H 965.613 4.47975 1.10073 0
M  V30 10009 H 963.856 4.22872 0.967579 0
M  V30 10010 H 964.527 4.95612 2.43049 0
M  V30 10011 H 967.003 3.06732 2.81167 0
M  V30 10012 H 965.879 3.7329 4.02425 0
M  V30 10013 H 966.14 1.9977 3.94391 0
M  V30 10014 N 965.199 -0.738761 1.39212 0
M  V30 10015 C 966.149 -1.84376 1.34125 0
M  V30 10016 C 967.133 -1.5935 0.222793 0
M  V30 10017 O 968.325 -1.70918 0.460014 0
M  V30 10018 C 965.454 -3.22261 1.18334 0
M  V30 10019 C 964.54 -3.53129 2.34864 0
M  V30 10020 N 964.931 -3.54957 3.60332 0
M  V30 10021 C 963.229 -3.83472 2.27739 0
M  V30 10022 C 963.93 -3.83513 4.3737 0
M  V30 10023 N 962.906 -4.01097 3.66909 0
M  V30 10024 H 966.708 -1.84089 2.29104 0
M  V30 10025 H 964.222 -0.936826 1.32655 0
M  V30 10026 H 966.219 -4.01358 1.12772 0
M  V30 10027 H 964.879 -3.23789 0.243016 0
M  V30 10028 H 965.89 -3.36359 3.93806 0
M  V30 10029 H 962.567 -3.92628 1.41949 0
M  V30 10030 H 963.957 -3.91427 5.46109 0
M  V30 10031 N 966.677 -1.24326 -0.968545 0
M  V30 10032 C 967.924 -1.08245 -1.71141 0
M  V30 10033 C 968.252 0.378842 -1.90775 0
M  V30 10034 O 967.507 1.29634 -1.46607 0
M  V30 10035 C 967.806 -1.76644 -3.10695 0
M  V30 10036 C 967.472 -3.26572 -3.10905 0
M  V30 10037 C 966.134 -3.67475 -3.10669 0
M  V30 10038 C 968.486 -4.22422 -3.05302 0
M  V30 10039 C 965.814 -5.02666 -3.02562 0
M  V30 10040 C 968.166 -5.57619 -2.98737 0
M  V30 10041 C 966.83 -5.9787 -2.9683 0
M  V30 10042 H 966.1 -0.396098 -0.626249 0
M  V30 10043 H 968.747 -1.54418 -1.13258 0
M  V30 10044 H 967.052 -1.22864 -3.72037 0
M  V30 10045 H 968.749 -1.61668 -3.66967 0
M  V30 10046 H 965.339 -2.94017 -3.11852 0
M  V30 10047 H 969.523 -3.91821 -3.04614 0
M  V30 10048 H 964.779 -5.3305 -2.99446 0
M  V30 10049 H 968.953 -6.31595 -2.93361 0
M  V30 10050 H 966.58 -7.02587 -2.90303 0
M  V30 10051 N 968.156 1.1691 -1.05688 0
M  V30 10052 C 969.106 2.19056 -0.632339 0
M  V30 10053 C 970.09 1.574 0.333797 0
M  V30 10054 O 971.282 1.76361 0.150223 0
M  V30 10055 C 968.411 3.43297 -0.0138209 0
M  V30 10056 C 967.497 4.12042 -1.00408 0
M  V30 10057 N 967.888 4.56535 -2.17737 0
M  V30 10058 C 966.186 4.38139 -0.833663 0
M  V30 10059 C 966.887 5.09644 -2.80425 0
M  V30 10060 N 965.863 5.02153 -2.08191 0
M  V30 10061 H 969.665 2.51165 -1.52621 0
M  V30 10062 H 967.179 1.33294 -0.927707 0
M  V30 10063 H 969.176 4.1576 0.308117 0
M  V30 10064 H 967.836 3.12677 0.87538 0
M  V30 10065 H 968.847 4.50463 -2.55546 0
M  V30 10066 H 965.524 4.175 0.00406684 0
M  V30 10067 H 966.914 5.54153 -3.79952 0
M  V30 10068 N 969.634 0.838594 1.33437 0
M  V30 10069 C 970.874 0.440239 1.99603 0
M  V30 10070 C 971.238 -0.982061 1.64984 0
M  V30 10071 O 972.439 -1.48413 2.24114 0
M  V30 10072 C 970.71 0.654201 3.51362 0
M  V30 10073 S 972.269 0.351025 4.37394 0
M  V30 10074 H 969.087 0.165608 0.691444 0
M  V30 10075 H 971.689 1.08782 1.6244 0
M  V30 10076 H 970.393 1.68873 3.74045 0
M  V30 10077 H 969.924 -0.00754449 3.93399 0
M  V30 10078 H 971.939 -0.829298 4.89221 0
M  V30 10079 N 971.112 -1.45937 0.595003 0
M  V30 10080 C 972.337 -2.07207 0.0894416 0
M  V30 10081 C 972.762 -1.43884 -1.21157 0
M  V30 10082 O 972.12 -0.526998 -1.73472 0
M  V30 10083 C 972.168 -3.60565 -0.0499828 0
M  V30 10084 O 971.272 -3.97364 -1.10342 0
M  V30 10085 H 970.613 -0.660471 0.0683627 0
M  V30 10086 H 973.143 -1.87386 0.82144 0
M  V30 10087 H 973.153 -4.0722 -0.252234 0
M  V30 10088 H 971.828 -4.06044 0.90006 0
M  V30 10089 H 970.405 -3.62401 -0.878645 0
M  V30 10090 N 972.59 -0.333456 -1.54032 0
M  V30 10091 C 973.838 0.265608 -2.00347 0
M  V30 10092 C 974.159 1.51873 -1.2231 0
M  V30 10093 O 973.429 1.93142 -0.327549 0
M  V30 10094 H 972.009 0.101135 -0.740122 0
M  V30 10095 H 974.671 -0.452285 -1.8958 0
M  V30 10096 H 973.767 0.51511 -3.0782 0
M  V30 10097 N 974.068 1.57479 -0.061844 0
M  V30 10098 C 975.031 2.1104 0.894127 0
M  V30 10099 C 976.031 1.03227 1.23292 0
M  V30 10100 O 977.221 1.29256 1.16784 0
M  V30 10101 C 974.353 2.6035 2.20069 0
M  V30 10102 H 975.546 2.96807 0.429619 0
M  V30 10103 H 973.099 1.55181 0.18672 0
M  V30 10104 H 973.834 1.78008 2.71079 0
M  V30 10105 H 973.619 3.39146 1.9678 0
M  V30 10106 H 975.109 3.019 2.88525 0
M  V30 10107 N 975.546 -0.211634 1.56173 0
M  V30 10108 C 976.957 -0.777776 1.69728 0
M  V30 10109 C 977.308 -1.84566 0.66558 0
M  V30 10110 O 976.433 -2.15639 -0.181338 0
M  V30 10111 C 977.028 -1.41757 3.07718 0
M  V30 10112 C 975.587 -1.93098 3.23094 0
M  V30 10113 C 974.734 -0.794785 2.65666 0
M  V30 10114 H 977.685 0.0131839 1.58695 0
M  V30 10115 H 977.706 -2.28662 3.04128 0
M  V30 10116 H 977.218 -0.640114 3.82785 0
M  V30 10117 H 975.319 -2.73615 2.52914 0
M  V30 10118 H 975.432 -2.10414 4.30422 0
M  V30 10119 H 973.796 -1.20473 2.24407 0
M  V30 10120 H 974.579 -0.0298408 3.43287 0
M  V30 10121 N 977.024 -1.50153 -0.478725 0
M  V30 10122 C 978.27 -1.60998 -1.23318 0
M  V30 10123 C 978.603 -0.305868 -1.91776 0
M  V30 10124 O 977.878 0.692158 -1.81767 0
M  V30 10125 C 978.161 -2.78495 -2.28282 0
M  V30 10126 C 978.014 -4.18767 -1.64178 0
M  V30 10127 C 979.333 -2.91569 -3.2966 0
M  V30 10128 H 976.452 -0.585983 -0.446982 0
M  V30 10129 H 979.094 -1.82514 -0.528063 0
M  V30 10130 H 977.244 -2.60281 -2.8842 0
M  V30 10131 H 978.916 -4.48552 -1.07696 0
M  V30 10132 H 977.159 -4.23379 -0.94514 0
M  V30 10133 H 977.83 -4.96894 -2.40417 0
M  V30 10134 H 980.306 -3.08219 -2.79536 0
M  V30 10135 H 979.182 -3.75419 -4.0044 0
M  V30 10136 H 979.443 -2.01859 -3.93326 0
M  V30 10137 N 978.502 0.731368 -1.39602 0
M  V30 10138 C 979.465 1.8271 -1.38383 0
M  V30 10139 C 980.465 1.58338 -0.280309 0
M  V30 10140 O 981.655 1.65671 -0.538402 0
M  V30 10141 C 978.787 3.20556 -1.16002 0
M  V30 10142 H 979.98 1.85193 -2.35889 0
M  V30 10143 H 977.533 0.935396 -1.2522 0
M  V30 10144 H 978.268 3.23732 -0.191927 0
M  V30 10145 H 978.053 3.39643 -1.9592 0
M  V30 10146 H 979.543 4.00612 -1.17899 0
M  V30 10147 N 979.98 1.24838 0.961938 0
M  V30 10148 C 981.391 1.08369 1.5203 0
M  V30 10149 C 981.742 -0.343005 1.93178 0
M  V30 10150 O 980.867 -1.2321 1.779 0
M  V30 10151 C 981.462 1.96102 2.76278 0
M  V30 10152 C 980.021 1.8384 3.28451 0
M  V30 10153 C 979.168 1.9069 2.01327 0
M  V30 10154 H 982.119 1.38231 0.779613 0
M  V30 10155 H 982.14 1.4967 3.49827 0
M  V30 10156 H 981.652 2.99931 2.46298 0
M  V30 10157 H 979.753 0.828653 3.63269 0
M  V30 10158 H 979.866 2.68251 3.96961 0
M  V30 10159 H 978.23 1.34488 2.16299 0
M  V30 10160 H 979.013 2.96111 1.73705 0
M  V30 10161 N 981.458 -1.16348 1.06306 0
M  V30 10162 C 982.388 -2.2291 0.695234 0
M  V30 10163 C 983.369 -1.67208 -0.312343 0
M  V30 10164 O 984.554 -1.93293 -0.187442 0
M  V30 10165 C 981.684 -3.47205 0.0810149 0
M  V30 10166 C 980.638 -4.15801 1.01458 0
M  V30 10167 C 979.964 -5.3405 0.263656 0
M  V30 10168 C 981.264 -4.66766 2.34365 0
M  V30 10169 H 982.958 -2.53934 1.58613 0
M  V30 10170 H 980.504 -1.22056 0.76409 0
M  V30 10171 H 982.457 -4.2098 -0.18818 0
M  V30 10172 H 981.181 -3.15482 -0.844897 0
M  V30 10173 H 979.84 -3.43954 1.26852 0
M  V30 10174 H 979.488 -4.9858 -0.665378 0
M  V30 10175 H 979.188 -5.80885 0.88582 0
M  V30 10176 H 980.712 -6.106 0.00200994 0
M  V30 10177 H 982.126 -5.3212 2.13356 0
M  V30 10178 H 980.523 -5.24223 2.9208 0
M  V30 10179 H 981.593 -3.82969 2.97426 0
M  V30 10180 N 982.937 -0.845659 -1.3299 0
M  V30 10181 C 983.869 -0.241097 -2.27928 0
M  V30 10182 C 984.882 0.582048 -1.5204 0
M  V30 10183 O 986.071 0.408008 -1.73774 0
M  V30 10184 C 983.171 0.678652 -3.32035 0
M  V30 10185 C 982.344 -0.106652 -4.3727 0
M  V30 10186 C 981.403 0.737478 -5.21006 0
M  V30 10187 O 980.429 0.174231 -5.68933 0
M  V30 10188 N 981.631 2.05372 -5.42957 0
M  V30 10189 H 984.396 -1.05685 -2.80448 0
M  V30 10190 H 981.957 -0.704771 -1.45755 0
M  V30 10191 H 983.949 1.24849 -3.84961 0
M  V30 10192 H 982.519 1.3951 -2.79742 0
M  V30 10193 H 981.739 -0.857897 -3.84752 0
M  V30 10194 H 983.027 -0.646386 -5.04677 0
M  V30 10195 H 982.425 2.53478 -5.05733 0
M  V30 10196 H 980.982 2.5719 -5.98913 0
M  V30 10197 O 984.454 1.43385 -0.743168 0
M  V30 10198 H 985.145 1.91402 -0.297468 0
M  V30 END ATOM
M  V30 BEGIN BOND
M  V30 END BOND
M  V30 END CTAB
M  END
$$$$
