drugbank_target|Q13526 Peptidyl-prolyl cis-trans isomerase NIMA-interacting 1 (DB01766; DB06867)
 OpenBabel12092120383D

  0  0  0     0  0            999 V3000
M  V30 BEGIN CTAB
M  V30 COUNTS 2522 2548 0 0 0
M  V30 BEGIN ATOM
M  V30 1 H -0.908 1.98254 -0.117106 0
M  V30 2 N 0 1.576 0 0
M  V30 3 C 0.933 2.03868 1.02534 0
M  V30 4 C 1.911 0.928543 1.3348 0
M  V30 5 O 3.095 1.19667 1.45644 0
M  V30 6 C 0.222 2.43627 2.35294 0
M  V30 7 C -0.732 3.65373 2.2001 0
M  V30 8 S 0.101 5.13292 1.52614 0
M  V30 9 C 1.257 5.56322 2.86805 0
M  V30 10 H 1.49 2.90518 0.631377 0
M  V30 11 H -0.977 1.52953 0.210867 0
M  V30 12 H 0.981 2.67203 3.11629 0
M  V30 13 H -0.358 1.57376 2.7183 0
M  V30 14 H -1.165 3.90944 3.18086 0
M  V30 15 H -1.563 3.418 1.51819 0
M  V30 16 H 0.729 5.58782 3.83104 0
M  V30 17 H 1.672 6.56266 2.65933 0
M  V30 18 H 2.08 4.83886 2.90714 0
M  V30 19 N 1.4781 -0.272755 1.55222 0
M  V30 20 C 2.4411 -1.32041 1.87344 0
M  V30 21 C 3.4411 -1.42342 0.74803 0
M  V30 22 O 4.6311 -1.41488 1.0162 0
M  V30 23 C 1.7631 -2.70173 2.07893 0
M  V30 24 H 2.9561 -1.04789 2.80997 0
M  V30 25 H 0.5091 -0.51083 1.47717 0
M  V30 26 H 1.2441 -3.02605 1.16622 0
M  V30 27 H 1.0291 -2.64082 2.89833 0
M  V30 28 H 2.5191 -3.45869 2.34017 0
M  V30 29 N 2.9562 -1.48159 -0.537278 0
M  V30 30 C 4.2332 -1.46291 -1.29839 0
M  V30 31 C 4.6132 -0.170613 -2.10409 0
M  V30 32 O 3.9612 0.847746 -2.12192 0
M  V30 33 C 4.1712 -2.72055 -2.18603 0
M  V30 34 C 5.5192 -3.20087 -2.7898 0
M  V30 35 O 6.5432 -2.72921 -2.28894 0
M  V30 36 O 5.4022 -4.02138 -3.70064 0
M  V30 37 H 2.4962 -0.583906 -0.585647 0
M  V30 38 H 5.0422 -1.60384 -0.554534 0
M  V30 39 H 3.8142 -3.57628 -1.58801 0
M  V30 40 H 3.4372 -2.60646 -3.00249 0
M  V30 41 N 4.4343 0.785586 -1.36625 0
M  V30 42 C 5.3443 1.92964 -1.33425 0
M  V30 43 C 6.3603 1.72394 -0.235851 0
M  V30 44 O 7.5363 1.95866 -0.468878 0
M  V30 45 C 4.6013 3.27884 -1.12662 0
M  V30 46 C 3.6623 3.61204 -2.32013 0
M  V30 47 C 2.8953 4.89687 -2.12231 0
M  V30 48 O 3.1183 5.59704 -1.09945 0
M  V30 49 O 2.0523 5.21752 -3.00098 0
M  V30 50 H 5.8783 1.98613 -2.29753 0
M  V30 51 H 3.4633 0.926384 -1.17211 0
M  V30 52 H 5.3453 4.08614 -1.03016 0
M  V30 53 H 4.0203 3.23118 -0.193991 0
M  V30 54 H 2.9273 2.80765 -2.47228 0
M  V30 55 H 4.2603 3.70698 -3.23796 0
M  V30 56 N 5.9124 1.20967 1.01018 0
M  V30 57 C 6.8224 0.980157 2.13143 0
M  V30 58 C 7.8384 -0.0660665 1.73875 0
M  V30 59 O 9.0144 0.122821 2.01025 0
M  V30 60 C 6.0794 0.54216 3.42435 0
M  V30 61 C 5.1404 1.65999 3.95908 0
M  V30 62 C 4.3734 1.2428 5.19028 0
M  V30 63 O 4.5964 0.114196 5.70286 0
M  V30 64 O 3.5304 2.05271 5.65816 0
M  V30 65 H 7.3564 1.91913 2.35379 0
M  V30 66 H 4.9414 0.994099 1.11526 0
M  V30 67 H 6.8234 0.30744 4.20277 0
M  V30 68 H 5.4984 -0.36815 3.216 0
M  V30 69 H 4.4054 1.94906 3.19316 0
M  V30 70 H 5.7384 2.54753 4.21143 0
M  V30 71 N 7.3905 -1.2043 1.01659 0
M  V30 72 C 8.3375 -2.23215 0.586822 0
M  V30 73 C 9.3075 -1.61382 -0.393085 0
M  V30 74 O 10.4925 -1.88544 -0.292525 0
M  V30 75 C 7.6325 -3.45032 -0.0687464 0
M  V30 76 C 6.7455 -4.21296 0.955724 0
M  V30 77 C 5.8805 -5.30507 0.271208 0
M  V30 78 C 4.9195 -5.98515 1.28244 0
M  V30 79 N 4.0565 -6.99316 0.62459 0
M  V30 80 H 8.8965 -2.59336 1.46796 0
M  V30 81 H 6.4335 -1.27431 0.734836 0
M  V30 82 H 8.3915 -4.1459 -0.465965 0
M  V30 83 H 7.0215 -3.09604 -0.913529 0
M  V30 84 H 6.0735 -3.50803 1.4711 0
M  V30 85 H 7.3855 -4.6803 1.72479 0
M  V30 86 H 6.5395 -6.06428 -0.18151 0
M  V30 87 H 5.2785 -4.8481 -0.530163 0
M  V30 88 H 4.2835 -5.21355 1.74554 0
M  V30 89 H 5.5085 -6.46298 2.08509 0
M  V30 90 H 3.4545 -6.55812 -0.156914 0
M  V30 91 H 3.3715 -7.44178 1.33172 0
M  V30 92 H 4.6395 -7.79255 0.195462 0
M  V30 93 N 8.8686 -0.792821 -1.36206 0
M  V30 94 C 9.7986 -0.207853 -2.32573 0
M  V30 95 C 10.7796 0.659055 -1.56813 0
M  V30 96 O 11.9646 0.592176 -1.84951 0
M  V30 97 C 9.0946 0.655449 -3.41059 0
M  V30 98 C 8.0486 -0.111842 -4.27854 0
M  V30 99 C 7.3746 0.872274 -5.27537 0
M  V30 100 C 8.6746 -1.30299 -5.05786 0
M  V30 101 H 10.3686 -1.01294 -2.81744 0
M  V30 102 H 7.9146 -0.48854 -1.3546 0
M  V30 103 H 9.8676 1.07464 -4.07467 0
M  V30 104 H 8.5916 1.49328 -2.90463 0
M  V30 105 H 7.2506 -0.512053 -3.63006 0
M  V30 106 H 6.8986 1.70523 -4.73214 0
M  V30 107 H 6.5986 0.363291 -5.86476 0
M  V30 108 H 8.1226 1.28996 -5.96818 0
M  V30 109 H 9.5366 -0.959379 -5.65216 0
M  V30 110 H 7.9336 -1.7455 -5.74154 0
M  V30 111 H 9.0036 -2.09663 -4.37229 0
M  V30 112 N 10.3467 1.47872 -0.545128 0
M  V30 113 C 11.7577 1.86384 -0.108581 0
M  V30 114 C 12.1087 1.45309 1.31832 0
M  V30 115 O 11.2337 0.850641 1.9898 0
M  V30 116 C 11.8287 3.38265 -0.190274 0
M  V30 117 C 10.3877 3.75914 0.191164 0
M  V30 118 C 9.5347 2.71926 -0.543273 0
M  V30 119 H 12.4857 1.39561 -0.755537 0
M  V30 120 H 12.5067 3.75831 0.594217 0
M  V30 121 H 12.0187 3.6813 -1.2289 0
M  V30 122 H 10.1197 3.51665 1.23136 0
M  V30 123 H 10.2327 4.78836 -0.158987 0
M  V30 124 H 8.5967 2.54697 0.0122495 0
M  V30 125 H 9.3797 3.04634 -1.58282 0
M  V30 126 N 11.8248 0.280983 1.55075 0
M  V30 127 C 13.2358 -0.215629 1.85451 0
M  V30 128 C 13.5868 -1.54991 1.203 0
M  V30 129 O 12.7118 -2.10699 0.493435 0
M  V30 130 C 13.3068 -0.398026 3.36454 0
M  V30 131 C 11.8658 -0.838866 3.66933 0
M  V30 132 C 11.0128 0.064458 2.77225 0
M  V30 133 H 13.9638 0.502601 1.50531 0
M  V30 134 H 13.9848 -1.23569 3.59876 0
M  V30 135 H 13.4968 0.573241 3.83843 0
M  V30 136 H 11.5978 -1.8214 3.25048 0
M  V30 137 H 11.7108 -0.672123 4.74362 0
M  V30 138 H 10.0748 -0.452863 2.50642 0
M  V30 139 H 10.8578 1.03172 3.2743 0
M  V30 140 N 13.3029 -1.57598 0.00835791 0
M  V30 141 C 14.5509 -1.90551 -0.6734 0
M  V30 142 C 14.8719 -0.883301 -1.73847 0
M  V30 143 O 14.1419 0.0781442 -1.95744 0
M  V30 144 H 12.7219 -0.703312 -0.251717 0
M  V30 145 H 15.3839 -1.94833 0.0512592 0
M  V30 146 H 14.4799 -2.9056 -1.13935 0
M  V30 147 N 14.781 0.264519 -1.55364 0
M  V30 148 C 16.027 0.992314 -1.77552 0
M  V30 149 C 16.382 1.83626 -0.574379 0
M  V30 150 O 15.675 1.86648 0.432782 0
M  V30 151 C 15.869 1.9004 -3.02687 0
M  V30 152 C 15.698 1.14583 -4.34857 0
M  V30 153 C 14.468 0.858068 -4.97961 0
M  V30 154 C 16.666 0.532069 -5.1154 0
M  V30 155 N 14.648 0.0775974 -6.13851 0
M  V30 156 C 16.019 -0.113823 -6.19896 0
M  V30 157 C 18.074 0.440763 -4.95945 0
M  V30 158 C 16.777 -0.842231 -7.14352 0
M  V30 159 C 18.803 -0.274072 -5.90765 0
M  V30 160 C 18.165 -0.90867 -6.98515 0
M  V30 161 H 14.264 0.344811 -0.701875 0
M  V30 162 H 16.848 0.267141 -1.92859 0
M  V30 163 H 15.019 2.59775 -2.88741 0
M  V30 164 H 16.751 2.56243 -3.13243 0
M  V30 165 H 13.506 1.16547 -4.59036 0
M  V30 166 H 13.93 -0.300216 -6.76334 0
M  V30 167 H 18.572 0.917064 -4.12735 0
M  V30 168 H 16.29 -1.33019 -7.97077 0
M  V30 169 H 19.876 -0.345151 -5.80775 0
M  V30 170 H 18.756 -1.45299 -7.70622 0
M  V30 171 N 16.2591 1.48442 0.529413 0
M  V30 172 C 17.1691 1.6569 1.66084 0
M  V30 173 C 18.1851 0.539432 1.65427 0
M  V30 174 O 19.3611 0.810572 1.84368 0
M  V30 175 C 16.4261 1.69315 3.02545 0
M  V30 176 C 15.4871 2.92694 3.14052 0
M  V30 177 C 14.7201 2.96137 4.44003 0
M  V30 178 O 14.9431 2.07973 5.31134 0
M  V30 179 O 13.8771 3.88312 4.59888 0
M  V30 180 H 17.7031 2.61483 1.54469 0
M  V30 181 H 15.2881 1.3185 0.702567 0
M  V30 182 H 17.1701 1.74217 3.83701 0
M  V30 183 H 15.8451 0.766966 3.14483 0
M  V30 184 H 14.7521 2.93324 2.32189 0
M  V30 185 H 16.0851 3.84699 3.0703 0
M  V30 186 N 17.7372 -0.778329 1.37039 0
M  V30 187 C 18.6842 -1.89139 1.32269 0
M  V30 188 C 19.6542 -1.65017 0.189387 0
M  V30 189 O 20.8392 -1.87024 0.377693 0
M  V30 190 C 17.9792 -3.26112 1.12894 0
M  V30 191 C 17.0922 -3.62233 2.35396 0
M  V30 192 C 16.2272 -4.8838 2.08946 0
M  V30 193 C 15.2662 -5.17212 3.2735 0
M  V30 194 N 14.4032 -6.34546 3.00492 0
M  V30 195 H 19.2432 -1.92552 2.27437 0
M  V30 196 H 16.7802 -0.941473 1.13025 0
M  V30 197 H 18.7382 -4.05116 0.996835 0
M  V30 198 H 17.3682 -3.22091 0.213758 0
M  V30 199 H 16.4202 -2.78265 2.5937 0
M  V30 200 H 17.7322 -3.79481 3.23721 0
M  V30 201 H 16.8862 -5.75274 1.92729 0
M  V30 202 H 15.6252 -4.73222 1.17949 0
M  V30 203 H 14.6302 -4.28796 3.44113 0
M  V30 204 H 15.8552 -5.34283 4.19188 0
M  V30 205 H 13.8012 -6.20759 2.12118 0
M  V30 206 H 13.7182 -6.52179 3.82358 0
M  V30 207 H 14.9862 -7.24394 2.87879 0
M  V30 208 N 19.2153 -1.21501 -1.00376 0
M  V30 209 C 20.6313 -0.972629 -1.26539 0
M  V30 210 C 20.8313 0.340257 -1.98606 0
M  V30 211 O 19.8873 1.06561 -2.28913 0
M  V30 212 C 21.2003 -2.16404 -2.08781 0
M  V30 213 C 22.7483 -2.20643 -2.22004 0
M  V30 214 C 23.2233 -3.39306 -3.07629 0
M  V30 215 N 24.7143 -3.39401 -3.15217 0
M  V30 216 C 25.4493 -4.27867 -3.81729 0
M  V30 217 N 24.9453 -5.26533 -4.5026 0
M  V30 218 N 26.7383 -4.15672 -3.78382 0
M  V30 219 H 18.8893 -2.05929 -0.520281 0
M  V30 220 H 21.1523 -0.901803 -0.292328 0
M  V30 221 H 20.8583 -3.11554 -1.63178 0
M  V30 222 H 20.7323 -2.15567 -3.09533 0
M  V30 223 H 23.1193 -1.26048 -2.66825 0
M  V30 224 H 23.2003 -2.25523 -1.20718 0
M  V30 225 H 22.8443 -4.34195 -2.63509 0
M  V30 226 H 22.7743 -3.31665 -4.09031 0
M  V30 227 H 25.2653 -2.67997 -2.66432 0
M  V30 228 H 25.5783 -5.90337 -4.98721 0
M  V30 229 H 23.9233 -5.30457 -4.49044 0
M  V30 230 H 27.1143 -3.3785 -3.23998 0
M  V30 231 H 27.2873 -4.84825 -4.2994 0
M  V30 232 N 20.6934 1.19889 -1.02296 0
M  V30 233 C 21.6264 2.21639 -0.543282 0
M  V30 234 C 22.6044 1.57275 0.412698 0
M  V30 235 O 23.7884 1.85568 0.331198 0
M  V30 236 C 20.9154 3.38057 0.208571 0
M  V30 237 C 19.9614 4.20751 -0.697933 0
M  V30 238 S 20.7944 4.89529 -2.17075 0
M  V30 239 C 21.9504 6.09363 -1.42923 0
M  V30 240 H 22.1834 2.61984 -1.40541 0
M  V30 241 H 19.7164 1.30041 -0.832387 0
M  V30 242 H 21.6744 4.05539 0.63624 0
M  V30 243 H 20.3354 2.96159 1.04635 0
M  V30 244 H 19.5284 5.03862 -0.117831 0
M  V30 245 H 19.1304 3.58556 -1.06366 0
M  V30 246 H 21.4224 6.73742 -0.712637 0
M  V30 247 H 22.3654 6.71845 -2.23673 0
M  V30 248 H 22.7734 5.56798 -0.929327 0
M  V30 249 N 22.1715 0.800033 1.35784 0
M  V30 250 C 23.3965 0.388511 2.03729 0
M  V30 251 C 23.8215 -0.990481 1.5991 0
M  V30 252 O 23.1795 -1.64013 0.772612 0
M  V30 253 C 23.2275 0.4726 3.5749 0
M  V30 254 O 22.3315 -0.51646 4.09153 0
M  V30 255 H 21.6725 0.163271 0.643614 0
M  V30 256 H 24.2025 1.0841 1.73518 0
M  V30 257 H 24.2125 0.34003 4.06581 0
M  V30 258 H 22.8875 1.47848 3.88734 0
M  V30 259 H 21.4645 -0.344673 3.71304 0
M  V30 260 N 23.6496 -1.47581 0.552962 0
M  V30 261 C 25.0656 -1.5818 0.212424 0
M  V30 262 C 25.2656 -1.55213 -1.28496 0
M  V30 263 O 24.3216 -1.45329 -2.06484 0
M  V30 264 C 25.6346 -2.88865 0.835318 0
M  V30 265 C 27.1826 -3.0244 0.806156 0
M  V30 266 C 27.6576 -4.35819 1.40804 0
M  V30 267 N 29.1486 -4.42444 1.37103 0
M  V30 268 C 29.8836 -5.44202 1.80641 0
M  V30 269 N 29.3796 -6.52795 2.32015 0
M  V30 270 N 31.1726 -5.35222 1.71738 0
M  V30 271 H 23.3236 -1.47753 1.52587 0
M  V30 272 H 25.5866 -0.702941 0.636064 0
M  V30 273 H 25.2926 -2.9676 1.88749 0
M  V30 274 H 25.1666 -3.7579 0.325848 0
M  V30 275 H 27.5536 -2.94144 -0.237317 0
M  V30 276 H 27.6346 -2.17068 1.35334 0
M  V30 277 H 27.2786 -4.44871 2.45056 0
M  V30 278 H 27.2086 -5.19916 0.836338 0
M  V30 279 H 29.6996 -3.6456 0.995202 0
M  V30 280 H 30.0126 -7.26609 2.63171 0
M  V30 281 H 28.3576 -6.53696 2.36023 0
M  V30 282 H 31.5486 -4.49284 1.31382 0
M  V30 283 H 31.7216 -6.14389 2.05987 0
M  V30 284 N 25.1277 -0.289203 -1.54924 0
M  V30 285 C 26.3527 0.329299 -2.04769 0
M  V30 286 C 26.7777 1.4763 -1.16564 0
M  V30 287 O 26.1357 1.80527 -0.167186 0
M  V30 288 C 26.1837 0.774438 -3.52186 0
M  V30 289 O 25.2877 1.88038 -3.67036 0
M  V30 290 H 24.6287 0.0659259 -0.660719 0
M  V30 291 H 27.1587 -0.42761 -2.00082 0
M  V30 292 H 27.1687 1.06642 -3.93816 0
M  V30 293 H 25.8437 -0.0646707 -4.1585 0
M  V30 294 H 24.4207 1.58985 -3.3731 0
M  V30 295 N 26.6058 1.57591 -0.0167156 0
M  V30 296 C 27.8308 1.9598 0.67872 0
M  V30 297 C 28.2558 0.892546 1.65575 0
M  V30 298 O 27.6138 -0.147772 1.80697 0
M  V30 299 C 27.6618 3.33468 1.37227 0
M  V30 300 O 26.7658 3.28954 2.48722 0
M  V30 301 H 26.1068 0.639339 0.17928 0
M  V30 302 H 28.6368 2.04463 -0.0748802 0
M  V30 303 H 28.6468 3.69417 1.7319 0
M  V30 304 H 27.3218 4.10694 0.656007 0
M  V30 305 H 25.8988 3.04705 2.14963 0
M  V30 306 N 28.0839 -0.256276 1.55502 0
M  V30 307 C 29.3319 -0.983672 1.76545 0
M  V30 308 C 29.6529 -1.86206 0.578982 0
M  V30 309 O 28.9229 -1.91656 -0.405577 0
M  V30 310 H 27.5029 -0.366191 0.651086 0
M  V30 311 H 30.1649 -0.276479 1.92929 0
M  V30 312 H 29.2609 -1.61087 2.67315 0
M  V30 313 N 29.562 -1.4872 -0.521534 0
M  V30 314 C 30.978 -1.35028 -0.850855 0
M  V30 315 C 31.178 -0.367712 -1.98116 0
M  V30 316 O 30.234 0.208037 -2.51642 0
M  V30 317 C 31.547 -2.75263 -1.21041 0
M  V30 318 C 33.095 -2.83813 -1.31981 0
M  V30 319 C 33.57 -4.24769 -1.71276 0
M  V30 320 N 35.061 -4.27482 -1.78363 0
M  V30 321 C 35.796 -5.33494 -2.1017 0
M  V30 322 N 35.292 -6.49775 -2.40343 0
M  V30 323 N 37.085 -5.20894 -2.11248 0
M  V30 324 H 29.236 -2.11214 0.22413 0
M  V30 325 H 31.499 -0.947252 0.0376439 0
M  V30 326 H 31.205 -3.48765 -0.453415 0
M  V30 327 H 31.079 -3.09327 -2.15863 0
M  V30 328 H 33.466 -2.10561 -2.06756 0
M  V30 329 H 33.547 -2.53358 -0.352596 0
M  V30 330 H 33.191 -4.9854 -0.970588 0
M  V30 331 H 33.121 -4.52673 -2.69062 0
M  V30 332 H 35.612 -3.43611 -1.57288 0
M  V30 333 H 35.925 -7.26402 -2.63743 0
M  V30 334 H 34.27 -6.53035 -2.37844 0
M  V30 335 H 37.461 -4.29065 -1.87139 0
M  V30 336 H 37.634 -6.03612 -2.35704 0
M  V30 337 N 31.0401 0.771051 -1.3745 0
M  V30 338 C 32.2861 1.5319 -1.32894 0
M  V30 339 C 32.6191 1.94008 0.0862511 0
M  V30 340 O 31.8941 1.64124 1.04373 0
M  V30 341 C 32.1771 2.79648 -2.26868 0
M  V30 342 C 32.0301 2.45079 -3.77169 0
M  V30 343 C 33.3491 3.81583 -2.19277 0
M  V30 344 H 30.4681 0.555744 -0.484064 0
M  V30 345 H 33.1101 0.884492 -1.68157 0
M  V30 346 H 31.2601 3.34891 -1.96926 0
M  V30 347 H 32.9321 1.95745 -4.1771 0
M  V30 348 H 31.1751 1.77767 -3.95704 0
M  V30 349 H 31.8461 3.35478 -4.38359 0
M  V30 350 H 34.3221 3.35835 -2.45671 0
M  V30 351 H 33.1981 4.67787 -2.87171 0
M  V30 352 H 33.4591 4.25897 -1.18592 0
M  V30 353 N 32.5182 1.22032 0.997298 0
M  V30 354 C 33.7482 1.06686 1.76923 0
M  V30 355 C 34.1562 -0.385838 1.85224 0
M  V30 356 O 33.4992 -1.27929 1.31833 0
M  V30 357 C 33.5612 1.59802 3.22031 0
M  V30 358 C 33.2252 3.08362 3.37286 0
M  V30 359 C 34.2222 4.05835 3.24952 0
M  V30 360 C 31.9072 3.47727 3.6248 0
M  V30 361 C 33.9012 5.4066 3.37588 0
M  V30 362 C 31.5882 4.82701 3.74757 0
M  V30 363 C 32.5862 5.78977 3.62319 0
M  V30 364 O 32.2742 7.11502 3.74193 0
M  V30 365 H 32.0062 0.374767 0.562606 0
M  V30 366 H 34.5602 1.61991 1.26286 0
M  V30 367 H 32.7902 0.989003 3.73839 0
M  V30 368 H 34.4792 1.40184 3.80924 0
M  V30 369 H 35.2452 3.76766 3.05405 0
M  V30 370 H 31.1242 2.73317 3.7124 0
M  V30 371 H 34.6682 6.15788 3.27796 0
M  V30 372 H 30.5652 5.11453 3.9381 0
M  V30 373 H 31.3332 7.19019 3.91093 0
M  V30 374 N 33.9963 -1.19345 1.0293 0
M  V30 375 C 35.2263 -1.92717 0.744563 0
M  V30 376 C 35.6343 -1.75751 -0.700579 0
M  V30 377 O 34.9773 -1.07703 -1.48815 0
M  V30 378 C 35.0393 -3.44828 1.01657 0
M  V30 379 C 34.7033 -3.85564 2.45335 0
M  V30 380 C 35.7003 -3.90286 3.43472 0
M  V30 381 C 33.3853 -4.1719 2.79746 0
M  V30 382 C 35.3793 -4.26065 4.74075 0
M  V30 383 C 33.0663 -4.52642 4.10559 0
M  V30 384 C 34.0643 -4.57054 5.07534 0
M  V30 385 O 33.7523 -4.91685 6.36004 0
M  V30 386 H 33.4843 -0.618977 0.271742 0
M  V30 387 H 36.0383 -1.52415 1.37691 0
M  V30 388 H 34.2683 -3.85314 0.327084 0
M  V30 389 H 35.9573 -3.99437 0.721427 0
M  V30 390 H 36.7233 -3.66002 3.18225 0
M  V30 391 H 32.6023 -4.1294 2.04943 0
M  V30 392 H 36.1463 -4.29423 5.49765 0
M  V30 393 H 32.0433 -4.76383 4.35579 0
M  V30 394 H 32.8113 -5.09631 6.40483 0
M  V30 395 N 35.4744 -0.807222 -1.35358 0
M  V30 396 C 36.7214 -0.387888 -1.9875 0
M  V30 397 C 37.0494 1.04509 -1.64037 0
M  V30 398 O 36.3044 1.73986 -0.895946 0
M  V30 399 C 36.6034 -0.519036 -3.53611 0
M  V30 400 C 36.2694 -1.91542 -4.08194 0
M  V30 401 C 34.9314 -2.29745 -4.22813 0
M  V30 402 C 37.2834 -2.82896 -4.37744 0
M  V30 403 C 34.6114 -3.58668 -4.643 0
M  V30 404 C 36.9634 -4.11265 -4.8067 0
M  V30 405 C 35.6274 -4.49466 -4.93494 0
M  V30 406 H 34.8974 -0.141938 -0.727279 0
M  V30 407 H 37.5444 -1.02814 -1.6156 0
M  V30 408 H 35.8494 0.204658 -3.91265 0
M  V30 409 H 37.5464 -0.175345 -4.00616 0
M  V30 410 H 34.1364 -1.60862 -3.97268 0
M  V30 411 H 38.3204 -2.54629 -4.26002 0
M  V30 412 H 33.5764 -3.88113 -4.72418 0
M  V30 413 H 37.7504 -4.82153 -5.02496 0
M  V30 414 H 35.3774 -5.49418 -5.25399 0
M  V30 415 N 36.9525 1.47285 -0.560781 0
M  V30 416 C 37.9005 2.31756 0.197942 0
M  V30 417 C 38.8945 1.43146 0.905854 0
M  V30 418 O 40.1005 1.59891 0.826733 0
M  V30 419 H 36.4755 0.747438 0.0827049 0
M  V30 420 H 38.4465 2.9359 -0.533629 0
M  V30 421 C 37.1955 3.25874 1.21249 0
M  V30 422 H 36.5185 3.94023 0.67719 0
M  V30 423 H 37.9585 3.87803 1.71419 0
M  V30 424 C 36.4175 2.49651 2.26221 0
M  V30 425 O 36.9475 2.24355 3.33208 0
M  V30 426 N 35.1535 2.10597 2.00243 0
M  V30 427 H 34.7005 2.31369 1.13252 0
M  V30 428 H 34.6585 1.59913 2.70694 0
M  V30 429 N 38.4306 0.297415 1.54768 0
M  V30 430 C 39.3806 -0.595275 2.20092 0
M  V30 431 C 40.3646 -1.10163 1.17273 0
M  V30 432 O 41.5566 -1.043 1.43006 0
M  V30 433 C 38.6856 -1.7684 2.94249 0
M  V30 434 C 37.7716 -1.27818 4.0438 0
M  V30 435 N 38.1626 -0.505695 5.03266 0
M  V30 436 C 36.4606 -1.55923 4.17857 0
M  V30 437 C 37.1616 -0.245094 5.81183 0
M  V30 438 N 36.1376 -0.823881 5.3732 0
M  V30 439 H 39.9396 0.00250837 2.939 0
M  V30 440 H 37.4536 0.102007 1.62079 0
M  V30 441 H 39.4506 -2.41944 3.39513 0
M  V30 442 H 38.1106 -2.36992 2.21957 0
M  V30 443 H 39.1216 -0.150928 5.1768 0
M  V30 444 H 35.7986 -2.16849 3.56767 0
M  V30 445 H 37.1886 0.375084 6.70852 0
M  V30 446 N 39.9087 -1.5758 0.0250728 0
M  V30 447 C 41.1577 -1.90811 -0.653767 0
M  V30 448 C 41.4707 -0.90273 -1.73523 0
M  V30 449 O 42.6767 -1.12614 -2.47043 0
M  V30 450 C 41.1327 -3.38804 -1.21409 0
M  V30 451 C 40.7407 -4.47692 -0.166126 0
M  V30 452 C 42.4847 -3.81108 -1.86967 0
M  V30 453 C 40.3917 -5.86779 -0.737856 0
M  V30 454 H 39.3217 -0.712063 -0.247956 0
M  V30 455 H 41.9727 -1.83281 0.0897137 0
M  V30 456 H 40.3547 -3.41252 -2.00905 0
M  V30 457 H 41.5287 -4.56797 0.606079 0
M  V30 458 H 39.8437 -4.14565 0.390466 0
M  V30 459 H 42.4407 -4.82375 -2.30692 0
M  V30 460 H 42.7837 -3.15953 -2.71071 0
M  V30 461 H 43.3167 -3.81065 -1.14167 0
M  V30 462 H 40.0557 -6.55468 0.0649577 0
M  V30 463 H 39.5757 -5.81288 -1.47864 0
M  V30 464 H 41.2547 -6.35223 -1.22884 0
M  V30 465 N 41.3868 0.248026 -1.55636 0
M  V30 466 C 42.6148 0.993808 -1.81469 0
M  V30 467 C 43.0298 1.78991 -0.60064 0
M  V30 468 O 42.3868 1.77345 0.430682 0
M  V30 469 C 42.4378 1.93258 -3.05506 0
M  V30 470 O 42.1588 1.16869 -4.22224 0
M  V30 471 C 43.6598 2.79444 -3.4413 0
M  V30 472 H 40.8798 0.292486 -0.603898 0
M  V30 473 H 43.4238 0.271253 -2.02693 0
M  V30 474 H 41.5788 2.60943 -2.86335 0
M  V30 475 H 41.9928 1.80359 -4.92515 0
M  V30 476 H 43.4668 3.41066 -4.34026 0
M  V30 477 H 43.9438 3.50499 -2.64665 0
M  V30 478 H 44.5498 2.17214 -3.65648 0
M  V30 479 N 42.8649 1.48995 0.513639 0
M  V30 480 C 43.8129 1.65199 1.63744 0
M  V30 481 C 44.8069 0.51809 1.61283 0
M  V30 482 O 46.0129 0.697335 1.65943 0
M  V30 483 H 42.3879 0.52069 0.542574 0
M  V30 484 H 44.3589 2.59552 1.47226 0
M  V30 485 C 43.1079 1.72409 3.01945 0
M  V30 486 H 42.4309 2.59029 3.04539 0
M  V30 487 H 43.8709 1.87785 3.80148 0
M  V30 488 C 42.3299 0.46618 3.33659 0
M  V30 489 O 42.8599 -0.413744 3.99564 0
M  V30 490 N 41.0659 0.332931 2.88687 0
M  V30 491 H 40.6129 1.04996 2.35231 0
M  V30 492 H 40.5709 -0.507665 3.10274 0
M  V30 493 N 44.343 -0.763751 1.37857 0
M  V30 494 C 45.306 -1.85889 1.34081 0
M  V30 495 C 46.306 -1.58949 0.243277 0
M  V30 496 O 47.496 -1.66882 0.499589 0
M  V30 497 C 44.628 -3.23176 1.08489 0
M  V30 498 H 45.821 -1.90648 2.31502 0
M  V30 499 H 43.374 -0.964367 1.23003 0
M  V30 500 H 44.109 -3.24091 0.116318 0
M  V30 501 H 43.894 -3.44124 1.8794 0
M  V30 502 H 45.384 -4.03254 1.08517 0
M  V30 503 N 45.8211 -1.22559 -0.990812 0
M  V30 504 C 47.0461 -1.07862 -1.77145 0
M  V30 505 C 47.4711 0.366447 -1.84496 0
M  V30 506 O 46.8291 1.26478 -1.29896 0
M  V30 507 C 46.8771 -1.69686 -3.18181 0
M  V30 508 O 45.9811 -0.951946 -4.01263 0
M  V30 509 H 45.3221 -0.378712 -0.545411 0
M  V30 510 H 47.8521 -1.62399 -1.2445 0
M  V30 511 H 47.8621 -1.74496 -3.68802 0
M  V30 512 H 46.5371 -2.74841 -3.12146 0
M  V30 513 H 45.1141 -0.980011 -3.59792 0
M  V30 514 N 47.2992 1.18797 -1.03562 0
M  V30 515 C 48.2312 2.21731 -0.580337 0
M  V30 516 C 49.2442 1.59051 0.347349 0
M  V30 517 O 50.4332 1.77929 0.142669 0
M  V30 518 C 47.5332 3.38459 0.172805 0
M  V30 519 C 46.7062 4.3072 -0.761496 0
M  V30 520 C 45.7652 5.26174 -0.0525547 0
M  V30 521 O 44.7912 5.65108 -0.681333 0
M  V30 522 N 45.9932 5.67624 1.21586 0
M  V30 523 H 48.7582 2.61417 -1.46565 0
M  V30 524 H 46.3192 1.33531 -0.915476 0
M  V30 525 H 48.3112 3.99335 0.656793 0
M  V30 526 H 46.8812 2.97507 0.959602 0
M  V30 527 H 46.1012 3.67525 -1.42544 0
M  V30 528 H 47.3892 4.89267 -1.39626 0
M  V30 529 H 46.7872 5.38038 1.74732 0
M  V30 530 H 45.3442 6.30721 1.64421 0
M  V30 531 N 48.7773 0.814389 1.34928 0
M  V30 532 C 50.0233 0.408167 1.99263 0
M  V30 533 C 50.3783 -1.0154 1.63424 0
M  V30 534 O 49.6713 -1.69607 0.891289 0
M  V30 535 C 49.8653 0.537781 3.53331 0
M  V30 536 C 49.6943 1.9724 4.04137 0
M  V30 537 C 48.4643 2.60245 4.33129 0
M  V30 538 C 50.6623 2.93801 4.2212 0
M  V30 539 N 48.6443 3.95036 4.69914 0
M  V30 540 C 50.0153 4.1348 4.6199 0
M  V30 541 C 52.0703 2.9053 4.04348 0
M  V30 542 C 50.7733 5.3033 4.85945 0
M  V30 543 C 52.7993 4.06589 4.29464 0
M  V30 544 C 52.1613 5.25017 4.69613 0
M  V30 545 H 48.2603 0.197289 0.756704 0
M  V30 546 H 50.8443 1.05728 1.63492 0
M  V30 547 H 49.0153 -0.0813868 3.88315 0
M  V30 548 H 50.7473 0.105389 4.04563 0
M  V30 549 H 47.5023 2.11545 4.23728 0
M  V30 550 H 47.9263 4.64455 4.92555 0
M  V30 551 H 52.5683 2.00115 3.72443 0
M  V30 552 H 50.2863 6.21309 5.16721 0
M  V30 553 H 53.8723 4.05447 4.17257 0
M  V30 554 H 52.7523 6.1333 4.88667 0
M  V30 555 N 50.2554 -1.46986 0.568584 0
M  V30 556 C 51.1654 -2.33942 -0.17555 0
M  V30 557 C 52.1814 -1.48891 -0.90041 0
M  V30 558 O 53.3574 -1.81794 -0.86676 0
M  V30 559 C 50.4224 -3.25811 -1.18524 0
M  V30 560 C 49.4834 -4.26757 -0.466582 0
M  V30 561 C 48.7164 -5.14236 -1.42817 0
M  V30 562 O 48.9394 -5.04379 -2.66379 0
M  V30 563 O 47.8734 -5.94412 -0.946453 0
M  V30 564 H 51.6994 -2.98896 0.538036 0
M  V30 565 H 49.2844 -1.4573 0.329097 0
M  V30 566 H 51.1664 -3.82527 -1.76779 0
M  V30 567 H 49.8414 -2.63471 -1.88055 0
M  V30 568 H 48.7484 -3.73769 0.157451 0
M  V30 569 H 50.0814 -4.91843 0.187485 0
M  V30 570 N 51.7335 -0.305618 -1.54608 0
M  V30 571 C 53.1495 0.0476228 -1.59529 0
M  V30 572 C 53.3495 1.52025 -1.32252 0
M  V30 573 O 52.4055 2.27368 -1.09818 0
M  V30 574 C 53.7185 -0.354471 -2.98603 0
M  V30 575 C 55.2665 -0.303622 -3.11524 0
M  V30 576 C 55.7415 -0.680608 -4.52915 0
M  V30 577 N 57.2325 -0.63332 -4.5885 0
M  V30 578 C 57.9675 -0.897432 -5.66334 0
M  V30 579 N 57.4635 -1.22775 -6.81834 0
M  V30 580 N 59.2565 -0.824186 -5.56025 0
M  V30 581 H 51.4075 -1.2653 -1.70599 0
M  V30 582 H 53.6705 -0.513291 -0.797017 0
M  V30 583 H 53.3765 -1.3798 -3.23503 0
M  V30 584 H 53.2505 0.289568 -3.76087 0
M  V30 585 H 55.6375 0.712472 -2.8637 0
M  V30 586 H 55.7185 -0.982348 -2.36185 0
M  V30 587 H 55.3625 -1.69453 -4.78799 0
M  V30 588 H 55.2925 0.0202385 -5.26596 0
M  V30 589 H 57.7835 -0.389138 -3.75891 0
M  V30 590 H 58.0965 -1.41513 -7.59733 0
M  V30 591 H 56.4415 -1.26583 -6.83375 0
M  V30 592 H 59.6325 -0.565748 -4.64669 0
M  V30 593 H 59.8055 -1.03338 -6.39707 0
M  V30 594 N 53.2116 1.57565 -0.0334293 0
M  V30 595 C 54.6226 1.79746 0.504798 0
M  V30 596 C 54.9736 0.944091 1.71992 0
M  V30 597 O 54.0986 0.155694 2.15839 0
M  V30 598 C 54.6936 3.25997 0.922567 0
M  V30 599 C 53.2526 3.49159 1.40588 0
M  V30 600 C 52.3996 2.74785 0.372633 0
M  V30 601 H 55.3506 1.56565 -0.259436 0
M  V30 602 H 55.3716 3.35945 1.78666 0
M  V30 603 H 54.8836 3.88081 0.0379825 0
M  V30 604 H 52.9846 2.92332 2.31025 0
M  V30 605 H 53.0976 4.57873 1.41028 0
M  V30 606 H 51.4616 2.40391 0.841672 0
M  V30 607 H 52.2446 3.39587 -0.503559 0
M  V30 608 N 54.6897 -0.239769 1.55765 0
M  V30 609 C 55.9147 -0.988373 1.82335 0
M  V30 610 C 56.3397 -1.77886 0.611421 0
M  V30 611 O 55.6977 -1.75889 -0.439639 0
M  V30 612 C 55.7457 -1.89627 3.06715 0
M  V30 613 O 54.8497 -2.98904 2.84131 0
M  V30 614 H 54.1907 -0.280858 0.601677 0
M  V30 615 H 56.7207 -0.258597 2.02959 0
M  V30 616 H 56.7307 -2.30957 3.36338 0
M  V30 617 H 55.4057 -1.31511 3.9456 0
M  V30 618 H 53.9827 -2.61651 2.65694 0
M  V30 619 N 56.1678 -1.49265 -0.50573 0
M  V30 620 C 57.4158 -1.582 -1.25766 0
M  V30 621 C 57.7368 -0.268482 -1.93143 0
M  V30 622 O 57.0068 0.711833 -1.8251 0
M  V30 623 H 55.5868 -0.582873 -0.467191 0
M  V30 624 H 58.2488 -1.85865 -0.586525 0
M  V30 625 H 57.3448 -2.37563 -2.02412 0
M  V30 626 N 57.6459 0.756429 -1.3826 0
M  V30 627 C 58.5939 1.89149 -1.35372 0
M  V30 628 C 59.5879 1.67691 -0.24004 0
M  V30 629 O 60.7939 1.75294 -0.408919 0
M  V30 630 H 57.1689 0.622271 -0.422236 0
M  V30 631 H 59.1399 1.88701 -2.31159 0
M  V30 632 C 57.8889 3.26599 -1.19284 0
M  V30 633 H 57.2119 3.43695 -2.0424 0
M  V30 634 H 58.6519 4.06274 -1.21316 0
M  V30 635 C 57.1109 3.3675 0.100454 0
M  V30 636 O 57.6409 3.86951 1.07851 0
M  V30 637 N 55.8469 2.90179 0.15633 0
M  V30 638 H 55.3939 2.49517 -0.640253 0
M  V30 639 H 55.3519 2.97352 1.02123 0
M  V30 640 N 59.124 1.23083 0.984299 0
M  V30 641 C 60.349 1.088 1.76571 0
M  V30 642 C 60.774 -0.356657 1.84688 0
M  V30 643 O 60.132 -1.25788 1.30565 0
M  V30 644 C 60.18 1.71371 3.17277 0
M  V30 645 O 59.284 0.973213 4.00752 0
M  V30 646 H 58.625 0.381599 0.543395 0
M  V30 647 H 61.155 1.63057 1.23587 0
M  V30 648 H 61.165 1.76449 3.67872 0
M  V30 649 H 59.84 2.76493 3.10684 0
M  V30 650 H 58.417 0.999078 3.59267 0
M  V30 651 N 60.6021 -1.18246 1.0419 0
M  V30 652 C 61.8271 -1.92736 0.765996 0
M  V30 653 C 62.2521 -1.75728 -0.67091 0
M  V30 654 O 61.6101 -1.06825 -1.46486 0
M  V30 655 C 61.6581 -3.42148 1.13875 0
M  V30 656 O 60.7621 -4.11548 0.264954 0
M  V30 657 H 60.1031 -0.601238 0.281797 0
M  V30 658 H 62.6331 -1.49942 1.39207 0
M  V30 659 H 62.6431 -3.92858 1.1012 0
M  V30 660 H 61.3181 -3.53848 2.18551 0
M  V30 661 H 59.8951 -3.71137 0.362226 0
M  V30 662 N 62.0802 -0.821533 -1.34494 0
M  V30 663 C 63.3052 -0.420873 -2.03085 0
M  V30 664 C 63.7302 0.964915 -1.61465 0
M  V30 665 O 63.0882 1.62763 -0.798607 0
M  V30 666 C 63.1362 -0.529414 -3.56693 0
M  V30 667 O 62.2402 0.451302 -4.09923 0
M  V30 668 H 61.5812 -0.173489 -0.640935 0
M  V30 669 H 64.1112 -1.11157 -1.71771 0
M  V30 670 H 64.1212 -0.404671 -4.05988 0
M  V30 671 H 62.7962 -1.54014 -3.86332 0
M  V30 672 H 61.3732 0.285558 -3.71805 0
M  V30 673 N 63.5583 1.46682 -0.576371 0
M  V30 674 C 64.8063 2.02013 -0.0594163 0
M  V30 675 C 65.1273 1.45101 1.30271 0
M  V30 676 O 64.3973 0.633317 1.8538 0
M  V30 677 H 62.9773 0.746759 -0.0189745 0
M  V30 678 H 65.6393 1.79862 -0.750717 0
M  V30 679 H 64.7353 3.12097 0.014345 0
M  V30 680 N 65.0364 0.313813 1.54444 0
M  V30 681 C 66.2844 -0.291099 1.99993 0
M  V30 682 C 66.6054 -1.53418 1.20366 0
M  V30 683 O 65.8754 -1.93544 0.302927 0
M  V30 684 H 64.4554 -0.110552 0.738774 0
M  V30 685 H 67.1174 0.428106 1.9014 0
M  V30 686 H 66.2134 -0.554268 3.07139 0
M  V30 687 N 66.5145 -1.57545 0.0417849 0
M  V30 688 C 67.4615 -2.10977 -0.935805 0
M  V30 689 C 68.4315 -1.01486 -1.31491 0
M  V30 690 O 69.6165 -1.2898 -1.40602 0
M  V30 691 C 66.7565 -2.65169 -2.2086 0
M  V30 692 C 65.8695 -3.88714 -1.88482 0
M  V30 693 C 65.0045 -4.31254 -3.1015 0
M  V30 694 C 64.0435 -5.47524 -2.7365 0
M  V30 695 N 63.1805 -5.85162 -3.87982 0
M  V30 696 H 68.0205 -2.94218 -0.473249 0
M  V30 697 H 65.5575 -1.45415 -0.221981 0
M  V30 698 H 67.5155 -2.94685 -2.95325 0
M  V30 699 H 66.1455 -1.8474 -2.64709 0
M  V30 700 H 65.1975 -3.65849 -1.04205 0
M  V30 701 H 66.5095 -4.73245 -1.57608 0
M  V30 702 H 65.6635 -4.62273 -3.92923 0
M  V30 703 H 64.4025 -3.45516 -3.44195 0
M  V30 704 H 63.4075 -5.16187 -1.89291 0
M  V30 705 H 64.6325 -6.34971 -2.40807 0
M  V30 706 H 62.5785 -5.02377 -4.21846 0
M  V30 707 H 62.4955 -6.64362 -3.60775 0
M  V30 708 H 63.7635 -6.20791 -4.71422 0
M  V30 709 N 67.9926 0.231505 -1.5589 0
M  V30 710 C 68.9406 1.30649 -1.92441 0
M  V30 711 C 69.9346 1.49037 -0.805254 0
M  V30 712 O 71.1406 1.50329 -0.990007 0
M  V30 713 H 67.5156 0.437812 -0.611412 0
M  V30 714 H 69.4866 0.970973 -2.82161 0
M  V30 715 C 68.2356 2.65179 -2.24889 0
M  V30 716 H 67.5586 2.51835 -3.10514 0
M  V30 717 H 68.9986 3.39234 -2.54355 0
M  V30 718 C 67.4576 3.19439 -1.07054 0
M  V30 719 O 67.9876 4.00371 -0.326499 0
M  V30 720 N 66.1936 2.77675 -0.85703 0
M  V30 721 H 65.7406 2.11969 -1.46379 0
M  V30 722 H 65.6986 3.14321 -0.0703223 0
M  V30 723 N 69.4707 1.49531 0.497807 0
M  V30 724 C 70.7187 1.58865 1.24926 0
M  V30 725 C 71.0397 0.278721 1.92998 0
M  V30 726 O 70.3097 -0.702144 1.82885 0
M  V30 727 H 68.8897 0.585343 0.464094 0
M  V30 728 H 71.5517 1.86174 0.57666 0
M  V30 729 H 70.6477 2.38633 2.01149 0
M  V30 730 N 70.9488 -0.749086 1.3866 0
M  V30 731 C 71.8808 -1.87273 1.32142 0
M  V30 732 C 72.8938 -1.61127 0.232787 0
M  V30 733 O 74.0828 -1.71623 0.49069 0
M  V30 734 C 71.1828 -3.23005 1.02571 0
M  V30 735 C 70.3558 -3.7662 2.22433 0
M  V30 736 C 69.4148 -4.90879 1.89537 0
M  V30 737 O 68.4408 -5.05276 2.62078 0
M  V30 738 N 69.6428 -5.74198 0.853031 0
M  V30 739 H 72.4078 -1.93373 2.28969 0
M  V30 740 H 69.9688 -0.929216 1.32579 0
M  V30 741 H 71.9608 -3.96992 0.786085 0
M  V30 742 H 70.5308 -3.12262 0.145249 0
M  V30 743 H 69.7508 -2.94147 2.62434 0
M  V30 744 H 71.0388 -4.09173 3.02415 0
M  V30 745 H 70.4368 -5.6514 0.25155 0
M  V30 746 H 68.9938 -6.48313 0.67329 0
M  V30 747 N 72.4269 -1.23603 -0.977757 0
M  V30 748 C 73.6749 -1.06759 -1.71601 0
M  V30 749 C 73.9959 0.395929 -1.90938 0
M  V30 750 O 73.2659 1.28356 -1.47992 0
M  V30 751 H 71.8459 -0.392062 -0.635843 0
M  V30 752 H 74.5079 -1.55362 -1.1768 0
M  V30 753 H 73.6039 -1.55763 -2.70452 0
M  V30 754 N 73.905 1.17692 -1.04816 0
M  V30 755 C 74.815 2.25229 -0.65643 0
M  V30 756 C 75.831 1.71018 0.320761 0
M  V30 757 O 77.007 2.00649 0.173805 0
M  V30 758 C 74.072 3.46684 -0.0332629 0
M  V30 759 C 73.133 4.15997 -1.06042 0
M  V30 760 C 72.366 5.31654 -0.466893 0
M  V30 761 O 72.589 5.65777 0.724758 0
M  V30 762 O 71.523 5.89831 -1.1993 0
M  V30 763 H 75.349 2.61016 -1.55255 0
M  V30 764 H 72.934 1.24919 -0.81949 0
M  V30 765 H 74.816 4.20234 0.313256 0
M  V30 766 H 73.491 3.12703 0.836566 0
M  V30 767 H 72.398 3.44482 -1.45886 0
M  V30 768 H 73.731 4.53996 -1.90127 0
M  V30 769 N 75.3831 0.828654 1.34056 0
M  V30 770 C 76.7941 0.477534 1.8049 0
M  V30 771 C 77.1451 -1.00258 1.6865 0
M  V30 772 O 76.2701 -1.78057 1.22982 0
M  V30 773 C 76.8651 0.860018 3.27703 0
M  V30 774 C 75.4241 0.561185 3.72193 0
M  V30 775 C 74.5711 1.07385 2.55663 0
M  V30 776 H 77.5221 1.0183 1.21722 0
M  V30 777 H 77.5431 0.166038 3.80138 0
M  V30 778 H 77.0551 1.93731 3.36288 0
M  V30 779 H 75.1561 -0.506465 3.69142 0
M  V30 780 H 75.2691 1.10926 4.66082 0
M  V30 781 H 73.6331 0.495149 2.49841 0
M  V30 782 H 74.4161 2.15771 2.67016 0
M  V30 783 N 76.8612 -1.46375 0.584142 0
M  V30 784 C 77.8242 -2.28784 -0.138108 0
M  V30 785 C 78.8242 -1.38471 -0.817462 0
M  V30 786 O 80.0142 -1.60833 -0.669199 0
M  V30 787 C 77.1462 -3.18892 -1.20503 0
M  V30 788 H 78.3392 -2.94117 0.586127 0
M  V30 789 H 75.8922 -1.52509 0.342171 0
M  V30 790 H 76.6272 -2.58309 -1.96079 0
M  V30 791 H 76.4122 -3.85388 -0.722384 0
M  V30 792 H 77.9022 -3.80914 -1.71155 0
M  V30 793 N 78.3393 -0.321999 -1.54275 0
M  V30 794 C 79.7553 0.0306999 -1.5957 0
M  V30 795 C 79.9553 1.50614 -1.33857 0
M  V30 796 O 79.0113 2.2619 -1.12223 0
M  V30 797 C 80.3243 -0.386122 -2.98211 0
M  V30 798 C 81.8723 -0.336647 -3.11184 0
M  V30 799 C 82.3473 -0.728607 -4.52167 0
M  V30 800 N 83.8383 -0.681952 -4.58152 0
M  V30 801 C 84.5733 -0.957449 -5.6535 0
M  V30 802 N 84.0693 -1.3 -6.80494 0
M  V30 803 N 85.8623 -0.883113 -5.55119 0
M  V30 804 H 78.0133 -1.28332 -1.69247 0
M  V30 805 H 80.2763 -0.521716 -0.791528 0
M  V30 806 H 79.9823 -1.41404 -3.22022 0
M  V30 807 H 79.8563 0.249662 -3.76373 0
M  V30 808 H 82.2433 0.682058 -2.8711 0
M  V30 809 H 82.3243 -1.00734 -2.3513 0
M  V30 810 H 81.9683 -1.74522 -4.76974 0
M  V30 811 H 81.8983 -0.0356152 -5.26588 0
M  V30 812 H 84.3893 -0.428985 -3.75457 0
M  V30 813 H 84.7023 -1.49563 -7.58189 0
M  V30 814 H 83.0473 -1.33824 -6.81994 0
M  V30 815 H 86.2383 -0.615001 -4.64042 0
M  V30 816 H 86.4113 -1.10118 -6.38575 0
M  V30 817 N 79.8174 1.5752 -0.0501392 0
M  V30 818 C 81.0634 1.92936 0.624798 0
M  V30 819 C 81.3964 0.928685 1.70555 0
M  V30 820 O 80.6714 -0.0454779 1.94447 0
M  V30 821 C 80.9544 3.38737 1.22185 0
M  V30 822 C 80.8074 4.49552 0.149218 0
M  V30 823 C 82.1264 3.84913 2.13378 0
M  V30 824 H 79.2454 0.701604 0.225657 0
M  V30 825 H 81.8874 1.89671 -0.111693 0
M  V30 826 H 80.0374 3.4165 1.84953 0
M  V30 827 H 81.7094 4.58768 -0.482648 0
M  V30 828 H 79.9524 4.30638 -0.522841 0
M  V30 829 H 80.6234 5.48653 0.606966 0
M  V30 830 H 83.0994 3.8387 1.60572 0
M  V30 831 H 81.9754 4.87584 2.52097 0
M  V30 832 H 82.2364 3.21611 3.03346 0
M  V30 833 N 81.2955 -0.223234 1.56011 0
M  V30 834 C 82.7115 -0.572856 1.48965 0
M  V30 835 C 82.9115 -1.87225 0.74492 0
M  V30 836 O 81.9675 -2.50899 0.283896 0
M  V30 837 C 83.2805 -0.653646 2.9351 0
M  V30 838 C 84.8285 -0.744386 3.0402 0
M  V30 839 C 85.3035 -0.856535 4.49919 0
M  V30 840 N 86.7945 -0.9208 4.53955 0
M  V30 841 C 87.5295 -1.02726 5.64123 0
M  V30 842 N 87.0255 -1.09777 6.84047 0
M  V30 843 N 88.8185 -1.06226 5.51971 0
M  V30 844 H 80.9695 0.629462 2.02858 0
M  V30 845 H 83.2325 0.220621 0.921971 0
M  V30 846 H 82.9385 0.231518 3.50937 0
M  V30 847 H 82.8125 -1.51781 3.45315 0
M  V30 848 H 85.1995 -1.61999 2.46658 0
M  V30 849 H 85.2805 0.14541 2.55386 0
M  V30 850 H 84.9245 0.0146069 5.07898 0
M  V30 851 H 84.8545 -1.76172 4.96257 0
M  V30 852 H 87.3455 -0.876694 3.6759 0
M  V30 853 H 87.6585 -1.17872 7.63758 0
M  V30 854 H 86.0035 -1.06693 6.86762 0
M  V30 855 H 89.1945 -1.00382 4.5721 0
M  V30 856 H 89.3675 -1.14177 6.37862 0
M  V30 857 N 82.7736 -1.49793 -0.48987 0
M  V30 858 C 84.0136 -1.61466 -1.25332 0
M  V30 859 C 84.3776 -0.299688 -1.89647 0
M  V30 860 O 85.5786 -0.291687 -2.67213 0
M  V30 861 C 83.8496 -2.74944 -2.28343 0
M  V30 862 S 85.4086 -3.06637 -3.13878 0
M  V30 863 H 82.2266 -0.569411 -0.425784 0
M  V30 864 H 84.8286 -1.875 -0.553541 0
M  V30 865 H 83.5326 -3.68994 -1.79643 0
M  V30 866 H 83.0636 -2.50938 -3.02975 0
M  V30 867 H 85.0786 -2.49015 -4.29192 0
M  V30 868 N 84.2517 0.741722 -1.39055 0
M  V30 869 C 85.4767 1.53607 -1.39354 0
M  V30 870 C 85.9017 1.88096 0.0116905 0
M  V30 871 O 85.2597 1.5143 0.996924 0
M  V30 872 C 85.3077 2.80441 -2.26682 0
M  V30 873 O 84.4117 3.76088 -1.69208 0
M  V30 874 H 83.7527 0.464142 -0.474835 0
M  V30 875 H 86.2827 0.915665 -1.82967 0
M  V30 876 H 86.2927 3.29246 -2.40959 0
M  V30 877 H 84.9677 2.5467 -3.2881 0
M  V30 878 H 83.5447 3.34833 -1.64138 0
M  V30 879 N 85.7298 1.2412 0.971189 0
M  V30 880 C 86.6798 0.997551 2.05019 0
M  V30 881 C 87.6638 -0.0597747 1.60789 0
M  V30 882 O 88.8558 0.153516 1.76333 0
M  V30 883 C 85.9848 0.600557 3.38006 0
M  V30 884 C 85.0708 1.69377 3.88809 0
M  V30 885 N 85.4618 2.92586 4.12586 0
M  V30 886 C 83.7598 1.57048 4.17435 0
M  V30 887 C 84.4608 3.63431 4.54195 0
M  V30 888 N 83.4368 2.90979 4.59165 0
M  V30 889 H 87.2388 1.93316 2.21374 0
M  V30 890 H 84.7528 1.14194 1.1547 0
M  V30 891 H 86.7498 0.40725 4.14906 0
M  V30 892 H 85.4098 -0.327903 3.2304 0
M  V30 893 H 86.4208 3.288 4.00139 0
M  V30 894 H 83.0978 0.709798 4.11422 0
M  V30 895 H 84.4878 4.69102 4.81033 0
M  V30 896 N 87.2079 -1.17134 1.05439 0
M  V30 897 C 88.1379 -2.2342 0.678649 0
M  V30 898 C 89.1189 -1.66971 -0.32476 0
M  V30 899 O 90.3039 -1.93149 -0.201802 0
M  V30 900 C 87.4339 -3.47256 0.0552099 0
M  V30 901 C 86.3879 -4.16543 0.98365 0
M  V30 902 C 85.7139 -5.34231 0.223961 0
M  V30 903 C 87.0139 -4.68495 2.3089 0
M  V30 904 H 88.7079 -2.55105 1.56722 0
M  V30 905 H 86.2539 -1.2262 0.754998 0
M  V30 906 H 88.2069 -4.20828 -0.21946 0
M  V30 907 H 86.9309 -3.14846 -0.868319 0
M  V30 908 H 85.5899 -3.44887 1.24293 0
M  V30 909 H 85.2379 -4.98071 -0.702412 0
M  V30 910 H 84.9379 -5.81527 0.842627 0
M  V30 911 H 86.4619 -6.10585 -0.0433671 0
M  V30 912 H 87.8759 -5.33691 2.09396 0
M  V30 913 H 86.2729 -5.26379 2.88176 0
M  V30 914 H 87.3429 -3.85169 2.94572 0
M  V30 915 N 88.686 -0.835752 -1.33615 0
M  V30 916 C 89.616 -0.281739 -2.31794 0
M  V30 917 C 90.597 0.608833 -1.58831 0
M  V30 918 O 91.782 0.533035 -1.86741 0
M  V30 919 C 88.912 0.546612 -3.42971 0
M  V30 920 C 87.866 -0.247904 -4.27281 0
M  V30 921 C 87.192 0.704001 -5.30045 0
M  V30 922 C 88.492 -1.46324 -5.01385 0
M  V30 923 H 90.186 -1.10206 -2.78379 0
M  V30 924 H 87.732 -0.531388 -1.33837 0
M  V30 925 H 89.685 0.944467 -4.1068 0
M  V30 926 H 88.409 1.40011 -2.95067 0
M  V30 927 H 87.068 -0.627281 -3.61194 0
M  V30 928 H 86.716 1.55381 -4.78399 0
M  V30 929 H 86.416 0.176524 -5.87335 0
M  V30 930 H 87.94 1.09944 -6.0062 0
M  V30 931 H 89.354 -1.13871 -5.61877 0
M  V30 932 H 87.751 -1.92728 -5.6831 0
M  V30 933 H 88.821 -2.23467 -4.30338 0
M  V30 934 N 90.1641 1.46063 -0.591896 0
M  V30 935 C 91.4101 2.02638 -0.0811191 0
M  V30 936 C 91.7431 1.4613 1.27905 0
M  V30 937 O 91.0181 0.629908 1.84017 0
M  V30 938 C 91.3011 3.60091 -0.0252436 0
M  V30 939 C 91.1541 4.26965 -1.41496 0
M  V30 940 C 92.4731 4.3496 0.670685 0
M  V30 941 H 89.5921 0.73635 -0.0309524 0
M  V30 942 H 92.2341 1.741 -0.760859 0
M  V30 943 H 90.3841 3.84535 0.553624 0
M  V30 944 H 92.0561 4.13756 -2.0397 0
M  V30 945 H 90.2991 3.85971 -1.98011 0
M  V30 946 H 90.9701 5.35781 -1.32825 0
M  V30 947 H 93.4461 4.15716 0.178825 0
M  V30 948 H 92.3221 5.44686 0.678837 0
M  V30 949 H 92.5831 4.06685 1.73379 0
M  V30 950 N 91.6422 0.330177 1.54103 0
M  V30 951 C 92.5892 -0.532762 2.24567 0
M  V30 952 C 93.5592 -1.10635 1.23892 0
M  V30 953 O 94.7442 -1.14546 1.5259 0
M  V30 954 C 91.8842 -1.6845 3.01195 0
M  V30 955 C 90.9972 -1.13951 4.167 0
M  V30 956 C 90.1322 -2.25746 4.80845 0
M  V30 957 C 89.1712 -1.6853 5.88442 0
M  V30 958 N 88.3082 -2.74014 6.46421 0
M  V30 959 H 93.1482 0.0746905 2.97906 0
M  V30 960 H 90.6852 0.048632 1.4702 0
M  V30 961 H 92.6432 -2.36234 3.43874 0
M  V30 962 H 91.2732 -2.26314 2.30178 0
M  V30 963 H 90.3252 -0.35301 3.78758 0
M  V30 964 H 91.6372 -0.680892 4.94131 0
M  V30 965 H 90.7912 -3.01422 5.26526 0
M  V30 966 H 89.5302 -2.74947 4.0281 0
M  V30 967 H 88.5352 -0.913543 5.42157 0
M  V30 968 H 89.7602 -1.20198 6.68378 0
M  V30 969 H 87.7062 -3.22494 5.71256 0
M  V30 970 H 87.6232 -2.32735 7.19285 0
M  V30 971 H 88.8912 -3.49499 6.96757 0
M  V30 972 N 93.1203 -1.57491 0.0584922 0
M  V30 973 C 94.0703 -2.08474 -0.923188 0
M  V30 974 C 95.0543 -0.991479 -1.26722 0
M  V30 975 O 96.2463 -1.25473 -1.24842 0
M  V30 976 C 93.3753 -2.6392 -2.19548 0
M  V30 977 C 92.4613 -3.80227 -1.87852 0
M  V30 978 N 92.8523 -4.89714 -1.26546 0
M  V30 979 C 91.1503 -3.89271 -2.17679 0
M  V30 980 C 91.8513 -5.70689 -1.12644 0
M  V30 981 N 90.8273 -5.18531 -1.63176 0
M  V30 982 H 94.6293 -2.90517 -0.444653 0
M  V30 983 H 92.1433 -1.61745 -0.145764 0
M  V30 984 H 94.1403 -2.98752 -2.9078 0
M  V30 985 H 92.8003 -1.83318 -2.68001 0
M  V30 986 H 93.8113 -5.09358 -0.936757 0
M  V30 987 H 90.4883 -3.19623 -2.68602 0
M  V30 988 H 91.8783 -6.6875 -0.6499 0
M  V30 989 N 94.5984 0.214957 -1.56127 0
M  V30 990 C 95.8234 0.95924 -1.83884 0
M  V30 991 C 96.2484 1.7689 -0.639644 0
M  V30 992 O 95.6064 1.76566 0.411601 0
M  V30 993 C 95.6544 1.84723 -3.09693 0
M  V30 994 O 94.7584 2.94346 -2.8885 0
M  V30 995 H 94.0994 0.27125 -0.606069 0
M  V30 996 H 96.6294 0.226276 -2.03345 0
M  V30 997 H 96.6394 2.25576 -3.39969 0
M  V30 998 H 95.3144 1.25218 -3.96602 0
M  V30 999 H 93.8914 2.57391 -2.69823 0
M  V30 1000 N 96.0765 1.50051 0.48192 0
M  V30 1001 C 97.0085 1.64263 1.59844 0
M  V30 1002 C 98.0215 0.52451 1.54119 0
M  V30 1003 O 99.2105 0.797293 1.59704 0
M  V30 1004 C 96.3105 1.60102 2.98698 0
M  V30 1005 C 95.4835 2.87767 3.29407 0
M  V30 1006 C 94.5425 2.76397 4.47762 0
M  V30 1007 O 93.5685 3.50348 4.48603 0
M  V30 1008 N 94.7705 1.89222 5.48794 0
M  V30 1009 H 97.5355 2.60566 1.48073 0
M  V30 1010 H 95.0965 1.47379 0.670149 0
M  V30 1011 H 97.0885 1.50123 3.75826 0
M  V30 1012 H 95.6585 0.715798 3.04294 0
M  V30 1013 H 94.8785 3.11954 2.40994 0
M  V30 1014 H 96.1665 3.72365 3.4673 0
M  V30 1015 H 95.5645 1.28434 5.50928 0
M  V30 1016 H 94.1215 1.85154 6.24949 0
M  V30 1017 N 97.5546 -0.734337 1.39446 0
M  V30 1018 C 98.7796 -1.52866 1.40167 0
M  V30 1019 C 99.2046 -1.881 -0.00171513 0
M  V30 1020 O 98.5626 -1.51957 -0.988879 0
M  V30 1021 C 98.6106 -2.79235 2.28167 0
M  V30 1022 O 97.7146 -3.75185 1.71201 0
M  V30 1023 H 97.0556 -0.461618 0.477289 0
M  V30 1024 H 99.5856 -0.905949 1.8345 0
M  V30 1025 H 99.5956 -3.27963 2.42702 0
M  V30 1026 H 98.2706 -2.52923 3.30156 0
M  V30 1027 H 96.8476 -3.33958 1.65912 0
M  V30 1028 N 99.0327 -1.24633 -0.964593 0
M  V30 1029 C 100.449 -1.01239 -1.2338 0
M  V30 1030 C 100.649 0.2769 -1.99588 0
M  V30 1031 O 99.7047 0.992241 -2.32187 0
M  V30 1032 C 101.018 -2.22937 -2.01791 0
M  V30 1033 C 102.566 -2.27594 -2.14872 0
M  V30 1034 C 103.041 -3.48921 -2.96678 0
M  V30 1035 N 104.532 -3.49257 -3.04259 0
M  V30 1036 C 105.267 -4.39795 -3.67924 0
M  V30 1037 N 104.763 -5.40591 -4.33281 0
M  V30 1038 N 106.556 -4.275 -3.64966 0
M  V30 1039 H 98.7067 -2.0748 -0.454502 0
M  V30 1040 H 100.97 -0.910647 -0.26349 0
M  V30 1041 H 100.676 -3.16587 -1.53184 0
M  V30 1042 H 100.55 -2.25306 -3.02518 0
M  V30 1043 H 102.937 -1.34473 -2.6268 0
M  V30 1044 H 103.018 -2.2925 -1.13482 0
M  V30 1045 H 102.662 -4.42359 -2.49562 0
M  V30 1046 H 102.592 -3.4451 -3.98272 0
M  V30 1047 H 105.083 -2.76337 -2.57771 0
M  V30 1048 H 105.396 -6.05904 -4.79687 0
M  V30 1049 H 103.741 -5.44475 -4.3194 0
M  V30 1050 H 106.932 -3.47987 -3.13086 0
M  V30 1051 H 107.105 -4.98258 -4.14298 0
M  V30 1052 N 100.511 1.16574 -1.06058 0
M  V30 1053 C 101.927 1.3904 -0.783585 0
M  V30 1054 C 102.127 1.91784 0.618145 0
M  V30 1055 O 101.183 2.11511 1.37911 0
M  V30 1056 C 102.496 2.37329 -1.84649 0
M  V30 1057 C 104.044 2.51018 -1.86973 0
M  V30 1058 C 104.519 3.52588 -2.92311 0
M  V30 1059 N 106.01 3.60113 -2.91329 0
M  V30 1060 C 106.745 4.38486 -3.69482 0
M  V30 1061 N 106.241 5.20302 -4.57447 0
M  V30 1062 N 108.034 4.33446 -3.57885 0
M  V30 1063 H 100.185 0.806725 -1.96483 0
M  V30 1064 H 102.448 0.417117 -0.851303 0
M  V30 1065 H 102.154 2.05663 -2.85299 0
M  V30 1066 H 102.028 3.36946 -1.6955 0
M  V30 1067 H 104.415 2.81989 -0.869827 0
M  V30 1068 H 104.496 1.51445 -2.0615 0
M  V30 1069 H 104.14 3.22354 -3.92492 0
M  V30 1070 H 104.07 4.51886 -2.70383 0
M  V30 1071 H 106.561 3.01707 -2.27555 0
M  V30 1072 H 106.874 5.77311 -5.13743 0
M  V30 1073 H 105.219 5.19653 -4.61503 0
M  V30 1074 H 108.41 3.68586 -2.88551 0
M  V30 1075 H 108.583 4.94279 -4.19037 0
M  V30 1076 N 101.989 0.842826 1.3317 0
M  V30 1077 C 103.4 0.496651 1.79973 0
M  V30 1078 C 103.751 -0.984641 1.69703 0
M  V30 1079 O 102.876 -1.76743 1.24863 0
M  V30 1080 C 103.471 0.894727 3.26772 0
M  V30 1081 C 102.03 0.600629 3.71577 0
M  V30 1082 C 101.177 1.10091 2.5451 0
M  V30 1083 H 104.128 1.03116 1.20635 0
M  V30 1084 H 104.149 0.206347 3.7994 0
M  V30 1085 H 103.661 1.97287 3.34215 0
M  V30 1086 H 101.762 -0.467284 3.69658 0
M  V30 1087 H 101.875 1.15863 4.64879 0
M  V30 1088 H 100.239 0.52162 2.49301 0
M  V30 1089 H 101.022 2.18591 2.64713 0
M  V30 1090 N 103.467 -1.45747 0.599634 0
M  V30 1091 C 104.692 -2.07178 0.0960198 0
M  V30 1092 C 105.117 -1.44268 -1.207 0
M  V30 1093 O 104.475 -0.532503 -1.73303 0
M  V30 1094 C 104.523 -3.60579 -0.0385348 0
M  V30 1095 O 103.627 -3.97713 -1.0908 0
M  V30 1096 H 102.968 -0.660251 0.0704593 0
M  V30 1097 H 105.498 -1.87124 0.827385 0
M  V30 1098 H 105.508 -4.07298 -0.239304 0
M  V30 1099 H 104.183 -4.05756 0.912947 0
M  V30 1100 H 102.76 -3.62678 -0.867135 0
M  V30 1101 N 104.945 -0.338344 -1.53925 0
M  V30 1102 C 106.17 0.263987 -2.05713 0
M  V30 1103 C 106.595 1.43847 -1.21201 0
M  V30 1104 O 105.953 1.79904 -0.224535 0
M  V30 1105 C 106.001 0.662 -3.54471 0
M  V30 1106 O 105.105 1.76265 -3.72833 0
M  V30 1107 H 104.446 0.0448722 -0.662482 0
M  V30 1108 H 106.976 -0.491048 -1.9862 0
M  V30 1109 H 106.986 0.940594 -3.9701 0
M  V30 1110 H 105.661 -0.196937 -4.15433 0
M  V30 1111 H 104.238 1.48173 -3.42198 0
M  V30 1112 N 106.423 1.57458 -0.0668435 0
M  V30 1113 C 107.669 1.94401 0.598316 0
M  V30 1114 C 108.024 0.946335 1.67518 0
M  V30 1115 O 107.317 -0.0321442 1.91573 0
M  V30 1116 C 107.511 3.35784 1.22409 0
M  V30 1117 C 107.34 4.49212 0.209367 0
M  V30 1118 C 106.11 5.04887 -0.204218 0
M  V30 1119 C 108.308 5.11335 -0.551431 0
M  V30 1120 N 106.29 6.01854 -1.21016 0
M  V30 1121 C 107.661 6.03754 -1.41 0
M  V30 1122 C 109.716 4.94173 -0.608038 0
M  V30 1123 C 108.419 6.80854 -2.32013 0
M  V30 1124 C 110.445 5.71912 -1.50566 0
M  V30 1125 C 109.807 6.63976 -2.35191 0
M  V30 1126 H 105.906 0.758538 0.190114 0
M  V30 1127 H 108.49 1.94175 -0.142832 0
M  V30 1128 H 106.661 3.36757 1.93518 0
M  V30 1129 H 108.393 3.59976 1.84931 0
M  V30 1130 H 105.148 4.73266 0.177908 0
M  V30 1131 H 105.572 6.55035 -1.71049 0
M  V30 1132 H 110.214 4.22788 0.032022 0
M  V30 1133 H 107.932 7.5152 -2.97057 0
M  V30 1134 H 111.518 5.60656 -1.55423 0
M  V30 1135 H 110.398 7.2308 -3.03522 0
M  V30 1136 N 107.901 -0.206675 1.56239 0
M  V30 1137 C 109.317 -0.557025 1.49564 0
M  V30 1138 C 109.517 -1.86424 0.764735 0
M  V30 1139 O 108.573 -2.50584 0.310491 0
M  V30 1140 C 109.886 -0.622478 2.94186 0
M  V30 1141 C 111.434 -0.712099 3.04792 0
M  V30 1142 C 111.909 -0.808767 4.50803 0
M  V30 1143 N 113.4 -0.8726 4.54907 0
M  V30 1144 C 114.135 -0.967365 5.65181 0
M  V30 1145 N 113.631 -1.02515 6.85173 0
M  V30 1146 N 115.424 -1.00366 5.53067 0
M  V30 1147 H 107.575 0.650943 2.02179 0
M  V30 1148 H 109.838 0.230387 0.919579 0
M  V30 1149 H 109.544 0.268727 3.50672 0
M  V30 1150 H 109.418 -1.4811 3.46905 0
M  V30 1151 H 111.805 -1.59374 2.48363 0
M  V30 1152 H 111.886 0.172489 2.55218 0
M  V30 1153 H 111.53 0.0684754 5.07854 0
M  V30 1154 H 111.46 -1.70899 4.98098 0
M  V30 1155 H 113.951 -0.837657 3.68499 0
M  V30 1156 H 114.264 -1.09765 7.64965 0
M  V30 1157 H 112.609 -0.994026 6.87855 0
M  V30 1158 H 115.8 -0.95527 4.58249 0
M  V30 1159 H 115.973 -1.07405 6.39037 0
M  V30 1160 N 109.379 -1.50304 -0.473955 0
M  V30 1161 C 110.311 -1.65109 -1.58971 0
M  V30 1162 C 111.324 -0.532676 -1.53839 0
M  V30 1163 O 112.513 -0.805751 -1.59279 0
M  V30 1164 C 109.613 -1.61684 -2.97845 0
M  V30 1165 C 108.786 -2.8951 -3.27876 0
M  V30 1166 C 107.845 -2.78768 -4.4629 0
M  V30 1167 O 106.871 -3.52722 -4.46739 0
M  V30 1168 N 108.073 -1.9213 -5.47783 0
M  V30 1169 H 110.838 -2.61347 -1.46689 0
M  V30 1170 H 108.399 -1.47732 -0.662324 0
M  V30 1171 H 110.391 -1.52114 -3.75024 0
M  V30 1172 H 108.961 -0.731925 -3.03911 0
M  V30 1173 H 108.181 -3.13228 -2.39336 0
M  V30 1174 H 109.469 -3.74199 -3.4475 0
M  V30 1175 H 108.867 -1.31353 -5.50239 0
M  V30 1176 H 107.424 -1.88466 -6.23958 0
M  V30 1177 N 110.857 0.726932 -1.39834 0
M  V30 1178 C 111.767 1.87131 -1.41489 0
M  V30 1179 C 112.783 1.71239 -0.308757 0
M  V30 1180 O 113.959 1.93701 -0.551529 0
M  V30 1181 C 111.024 3.22811 -1.26468 0
M  V30 1182 C 110.085 3.51039 -2.47124 0
M  V30 1183 C 109.318 4.80245 -2.3281 0
M  V30 1184 O 109.541 5.54537 -1.33585 0
M  V30 1185 O 108.475 5.08554 -3.21957 0
M  V30 1186 H 112.301 1.8869 -2.3797 0
M  V30 1187 H 109.886 0.875837 -1.21035 0
M  V30 1188 H 111.768 4.03877 -1.20255 0
M  V30 1189 H 110.443 3.22005 -0.330862 0
M  V30 1190 H 109.35 2.70027 -2.58914 0
M  V30 1191 H 110.683 3.56632 -3.39227 0
M  V30 1192 N 112.336 1.25143 0.95797 0
M  V30 1193 C 113.283 1.05235 2.05412 0
M  V30 1194 C 114.253 -0.0374561 1.66058 0
M  V30 1195 O 115.438 0.119073 1.90428 0
M  V30 1196 C 112.578 0.673589 3.38462 0
M  V30 1197 C 111.691 1.8379 3.90954 0
M  V30 1198 C 110.826 1.40381 5.12315 0
M  V30 1199 C 109.865 2.53746 5.57027 0
M  V30 1200 N 109.002 2.11136 6.69601 0
M  V30 1201 H 113.842 1.99048 2.21774 0
M  V30 1202 H 111.379 0.991277 1.08683 0
M  V30 1203 H 113.337 0.434964 4.14926 0
M  V30 1204 H 111.967 -0.227554 3.21997 0
M  V30 1205 H 111.019 2.18992 3.11041 0
M  V30 1206 H 112.331 2.68937 4.20089 0
M  V30 1207 H 111.485 1.12464 5.96185 0
M  V30 1208 H 110.224 0.523015 4.84887 0
M  V30 1209 H 109.229 2.82412 4.71724 0
M  V30 1210 H 110.454 3.42398 5.86464 0
M  V30 1211 H 108.4 1.25468 6.4389 0
M  V30 1212 H 108.317 2.89832 6.98236 0
M  V30 1213 H 109.585 1.86385 7.56889 0
M  V30 1214 N 113.814 -1.1601 1.06675 0
M  V30 1215 C 115.063 -1.85973 0.780818 0
M  V30 1216 C 115.376 -1.82819 -0.695444 0
M  V30 1217 O 116.582 -2.484 -1.09589 0
M  V30 1218 C 115.038 -3.33757 1.34665 0
M  V30 1219 C 114.646 -3.45374 2.85343 0
M  V30 1220 C 116.39 -4.0895 1.13843 0
M  V30 1221 C 114.297 -4.87266 3.35151 0
M  V30 1222 H 113.227 -0.696661 0.288407 0
M  V30 1223 H 115.878 -1.30903 1.28595 0
M  V30 1224 H 114.26 -3.88456 0.769274 0
M  V30 1225 H 115.434 -3.00816 3.49065 0
M  V30 1226 H 113.749 -2.83619 3.04876 0
M  V30 1227 H 116.346 -5.13654 1.4854 0
M  V30 1228 H 116.689 -4.16229 0.0770282 0
M  V30 1229 H 117.222 -3.605 1.68179 0
M  V30 1230 H 113.961 -4.85168 4.40786 0
M  V30 1231 H 113.481 -5.32433 2.76179 0
M  V30 1232 H 115.16 -5.56097 3.30704 0
M  V30 1233 N 115.292 -0.849877 -1.32721 0
M  V30 1234 C 116.52 -0.464754 -2.01613 0
M  V30 1235 C 116.935 0.937191 -1.63897 0
M  V30 1236 O 116.292 1.61081 -0.857856 0
M  V30 1237 C 116.343 -0.588638 -3.56675 0
M  V30 1238 O 116.064 -1.93535 -3.93034 0
M  V30 1239 C 117.565 -0.2019 -4.4284 0
M  V30 1240 H 114.785 -0.183215 -0.645502 0
M  V30 1241 H 117.329 -1.1455 -1.69407 0
M  V30 1242 H 115.484 0.0443159 -3.87375 0
M  V30 1243 H 115.898 -1.92871 -4.87751 0
M  V30 1244 H 117.372 -0.339599 -5.50954 0
M  V30 1245 H 117.849 0.857224 -4.30753 0
M  V30 1246 H 118.455 -0.809733 -4.17521 0
M  V30 1247 N 116.77 1.45427 -0.607355 0
M  V30 1248 C 118.186 1.57283 -0.270985 0
M  V30 1249 C 118.386 1.59875 1.22647 0
M  V30 1250 O 117.442 1.52893 2.00948 0
M  V30 1251 C 118.755 2.85566 -0.941952 0
M  V30 1252 C 120.303 2.9924 -0.917849 0
M  V30 1253 C 120.778 4.30293 -1.56882 0
M  V30 1254 N 122.269 4.37051 -1.5343 0
M  V30 1255 C 123.004 5.37123 -2.00715 0
M  V30 1256 N 122.5 6.43734 -2.56084 0
M  V30 1257 N 124.293 5.28479 -1.91484 0
M  V30 1258 H 116.444 1.41988 -1.57966 0
M  V30 1259 H 118.707 0.67885 -0.661715 0
M  V30 1260 H 118.413 2.8955 -1.99633 0
M  V30 1261 H 118.287 3.74322 -0.465096 0
M  V30 1262 H 120.674 2.94822 0.127984 0
M  V30 1263 H 120.755 2.11895 -1.43297 0
M  V30 1264 H 120.399 4.35469 -2.61398 0
M  V30 1265 H 120.329 5.16454 -1.02873 0
M  V30 1266 H 122.82 3.60615 -1.12982 0
M  V30 1267 H 123.133 7.16341 -2.89958 0
M  V30 1268 H 121.478 6.44485 -2.60122 0
M  V30 1269 H 124.669 4.44098 -1.47967 0
M  V30 1270 H 124.842 6.0632 -2.28648 0
M  V30 1271 N 118.248 0.346503 1.53744 0
M  V30 1272 C 119.476 -0.25041 2.05379 0
M  V30 1273 C 119.891 -1.43979 1.22129 0
M  V30 1274 O 119.248 -1.80677 0.257321 0
M  V30 1275 C 119.299 -0.662575 3.55376 0
M  V30 1276 O 119.02 0.479515 4.35468 0
M  V30 1277 C 120.521 -1.31989 4.23195 0
M  V30 1278 H 117.741 -0.0478198 0.669294 0
M  V30 1279 H 120.285 0.499346 1.9831 0
M  V30 1280 H 118.44 -1.36227 3.62658 0
M  V30 1281 H 118.854 0.15037 5.24284 0
M  V30 1282 H 120.328 -1.55902 5.29527 0
M  V30 1283 H 120.805 -2.27436 3.75725 0
M  V30 1284 H 121.411 -0.662154 4.20114 0
M  V30 1285 N 119.726 -1.57421 0.075193 0
M  V30 1286 C 120.673 -2.12915 -0.890843 0
M  V30 1287 C 121.643 -1.04252 -1.29309 0
M  V30 1288 O 122.828 -1.31933 -1.37834 0
M  V30 1289 C 119.968 -2.69795 -2.15186 0
M  V30 1290 C 119.081 -3.92624 -1.80194 0
M  V30 1291 C 118.216 -4.37736 -3.00933 0
M  V30 1292 C 117.255 -5.53205 -2.61974 0
M  V30 1293 N 116.392 -5.9326 -3.75483 0
M  V30 1294 H 121.232 -2.95156 -0.410735 0
M  V30 1295 H 118.769 -1.45854 -0.191086 0
M  V30 1296 H 120.727 -3.00883 -2.89008 0
M  V30 1297 H 119.357 -1.90313 -2.60731 0
M  V30 1298 H 118.409 -3.67977 -0.964218 0
M  V30 1299 H 119.721 -4.76482 -1.47534 0
M  V30 1300 H 118.875 -4.70503 -3.8303 0
M  V30 1301 H 117.614 -3.52739 -3.36789 0
M  V30 1302 H 116.619 -5.20086 -1.783 0
M  V30 1303 H 117.844 -6.39936 -2.27284 0
M  V30 1304 H 115.79 -5.11212 -4.11094 0
M  V30 1305 H 115.707 -6.71865 -3.46602 0
M  V30 1306 H 116.975 -6.30651 -4.58148 0
M  V30 1307 N 121.204 0.198386 -1.56346 0
M  V30 1308 C 122.114 1.2664 -1.97483 0
M  V30 1309 C 123.13 1.49989 -0.882002 0
M  V30 1310 O 124.306 1.62668 -1.18748 0
M  V30 1311 C 121.371 2.59141 -2.30319 0
M  V30 1312 C 120.432 2.43892 -3.53292 0
M  V30 1313 C 119.665 3.70074 -3.84553 0
M  V30 1314 O 119.888 4.74101 -3.1715 0
M  V30 1315 O 118.822 3.658 -4.7799 0
M  V30 1316 H 122.648 0.947304 -2.88548 0
M  V30 1317 H 120.233 0.403123 -1.43859 0
M  V30 1318 H 122.115 3.37352 -2.5253 0
M  V30 1319 H 120.79 2.90684 -1.42423 0
M  V30 1320 H 119.697 1.63803 -3.36332 0
M  V30 1321 H 121.03 2.17282 -4.41644 0
M  V30 1322 N 122.682 1.50554 0.465978 0
M  V30 1323 C 123.592 1.72585 1.58907 0
M  V30 1324 C 124.608 0.60911 1.6299 0
M  V30 1325 O 125.784 0.88804 1.80765 0
M  V30 1326 C 122.849 1.81995 2.95091 0
M  V30 1327 C 121.91 3.05751 3.01355 0
M  V30 1328 C 121.143 3.14702 4.31043 0
M  V30 1329 O 121.366 2.30313 5.21835 0
M  V30 1330 O 120.3 4.07468 4.43005 0
M  V30 1331 H 124.126 2.67799 1.43239 0
M  V30 1332 H 121.711 1.34711 0.646013 0
M  V30 1333 H 123.593 1.90335 3.75966 0
M  V30 1334 H 122.268 0.899659 3.10947 0
M  V30 1335 H 121.175 3.02908 2.19539 0
M  V30 1336 H 122.508 3.97375 2.90437 0
M  V30 1337 N 124.16 -0.719506 1.40217 0
M  V30 1338 C 125.123 -1.8153 1.39927 0
M  V30 1339 C 126.123 -1.58095 0.293723 0
M  V30 1340 O 127.313 -1.65209 0.552429 0
M  V30 1341 C 124.445 -3.19561 1.18716 0
M  V30 1342 H 125.638 -1.83186 2.37451 0
M  V30 1343 H 123.191 -0.924746 1.26008 0
M  V30 1344 H 123.926 -3.23557 0.219366 0
M  V30 1345 H 123.711 -3.3797 1.98793 0
M  V30 1346 H 125.201 -3.99598 1.21291 0
M  V30 1347 N 125.638 -1.25649 -0.95132 0
M  V30 1348 C 126.568 -1.08808 -2.06599 0
M  V30 1349 C 127.549 0.00382547 -1.701 0
M  V30 1350 O 128.734 -0.166325 -1.93486 0
M  V30 1351 C 125.864 -0.709542 -3.39975 0
M  V30 1352 C 124.818 -1.75206 -3.90496 0
M  V30 1353 C 124.144 -1.22811 -5.20405 0
M  V30 1354 C 125.444 -3.15153 -4.16504 0
M  V30 1355 H 127.138 -2.02048 -2.20946 0
M  V30 1356 H 124.684 -0.972835 -1.06169 0
M  V30 1357 H 126.637 -0.578649 -4.17408 0
M  V30 1358 H 125.361 0.258556 -3.25575 0
M  V30 1359 H 124.02 -1.87145 -3.15234 0
M  V30 1360 H 123.668 -0.250145 -5.02378 0
M  V30 1361 H 123.368 -1.92492 -5.55176 0
M  V30 1362 H 124.892 -1.10968 -6.00432 0
M  V30 1363 H 126.306 -3.06349 -4.84586 0
M  V30 1364 H 124.703 -3.82333 -4.62538 0
M  V30 1365 H 125.773 -3.61966 -3.22658 0
M  V30 1366 N 127.117 1.15442 -1.07289 0
M  V30 1367 C 128.027 2.23786 -0.704057 0
M  V30 1368 C 129.043 1.7166 0.284413 0
M  V30 1369 O 130.219 2.00972 0.131205 0
M  V30 1370 C 127.284 3.46535 -0.106792 0
M  V30 1371 C 126.345 4.13654 -1.14842 0
M  V30 1372 C 125.578 5.30544 -0.57956 0
M  V30 1373 O 125.801 5.67187 0.604585 0
M  V30 1374 O 124.735 5.87154 -1.32414 0
M  V30 1375 H 128.561 2.57664 -1.60757 0
M  V30 1376 H 126.146 1.23152 -0.845803 0
M  V30 1377 H 128.028 4.20804 0.224048 0
M  V30 1378 H 126.703 3.14407 0.770049 0
M  V30 1379 H 125.61 3.4131 -1.5316 0
M  V30 1380 H 126.943 4.49861 -1.99714 0
M  V30 1381 N 128.595 0.856903 1.32268 0
M  V30 1382 C 129.525 0.31858 2.31316 0
M  V30 1383 C 130.506 -0.583487 1.59779 0
M  V30 1384 O 131.691 -0.503259 1.87566 0
M  V30 1385 C 128.821 -0.491979 3.43798 0
M  V30 1386 C 127.775 0.315849 4.26833 0
M  V30 1387 C 127.101 -0.619586 5.31098 0
M  V30 1388 C 128.401 1.54282 4.98993 0
M  V30 1389 H 130.095 1.14621 2.76591 0
M  V30 1390 H 127.641 0.552613 1.32974 0
M  V30 1391 H 129.594 -0.879012 4.1213 0
M  V30 1392 H 128.318 -1.35299 2.97257 0
M  V30 1393 H 126.977 0.684664 3.6015 0
M  V30 1394 H 126.625 -1.47751 4.8081 0
M  V30 1395 H 126.325 -0.0830621 5.87541 0
M  V30 1396 H 127.849 -1.00375 6.02293 0
M  V30 1397 H 129.263 1.22796 5.59995 0
M  V30 1398 H 127.66 2.01745 5.65172 0
M  V30 1399 H 128.73 2.30285 4.26728 0
M  V30 1400 N 130.073 -1.45103 0.615059 0
M  V30 1401 C 131.322 -2.01396 0.110718 0
M  V30 1402 C 131.635 -1.48834 -1.26916 0
M  V30 1403 O 132.841 -1.97152 -1.86664 0
M  V30 1404 C 131.297 -3.59599 0.14723 0
M  V30 1405 C 130.905 -4.21158 1.52743 0
M  V30 1406 C 132.649 -4.23428 -0.30148 0
M  V30 1407 C 130.556 -5.71535 1.51992 0
M  V30 1408 H 129.486 -0.753061 0.0376241 0
M  V30 1409 H 132.137 -1.66494 0.77149 0
M  V30 1410 H 130.519 -3.91724 -0.580339 0
M  V30 1411 H 131.693 -4.00594 2.2773 0
M  V30 1412 H 130.008 -3.69552 1.91886 0
M  V30 1413 H 132.605 -5.33703 -0.326392 0
M  V30 1414 H 132.948 -3.94629 -1.32565 0
M  V30 1415 H 133.481 -3.96047 0.373065 0
M  V30 1416 H 130.22 -6.05044 2.52193 0
M  V30 1417 H 129.74 -5.94268 0.81274 0
M  V30 1418 H 131.419 -6.34873 1.24681 0
M  V30 1419 N 131.551 -0.354651 -1.53558 0
M  V30 1420 C 132.499 0.512195 -2.26891 0
M  V30 1421 C 133.493 1.09263 -1.29452 0
M  V30 1422 O 134.699 1.03709 -1.47121 0
M  V30 1423 H 131.074 0.183878 -0.729173 0
M  V30 1424 H 133.045 -0.128202 -2.98124 0
M  V30 1425 C 131.794 1.64563 -3.06291 0
M  V30 1426 H 131.117 1.20829 -3.81104 0
M  V30 1427 H 132.557 2.22711 -3.60799 0
M  V30 1428 C 131.016 2.58158 -2.16462 0
M  V30 1429 O 131.546 3.60695 -1.76811 0
M  V30 1430 N 129.752 2.27096 -1.81317 0
M  V30 1431 H 129.299 1.43751 -2.1376 0
M  V30 1432 H 129.257 2.89975 -1.21498 0
M  V30 1433 N 133.029 1.57378 -0.0835403 0
M  V30 1434 C 134.277 1.93547 0.581718 0
M  V30 1435 C 134.598 0.96524 1.69435 0
M  V30 1436 O 133.868 0.0153369 1.95894 0
M  V30 1437 H 132.448 0.714521 0.217874 0
M  V30 1438 H 135.11 1.94366 -0.144158 0
M  V30 1439 H 134.206 2.95665 0.999423 0
M  V30 1440 N 134.507 -0.190092 1.56449 0
M  V30 1441 C 135.737 -0.92443 1.84764 0
M  V30 1442 C 136.145 -1.77146 0.664529 0
M  V30 1443 O 135.488 -1.79812 -0.375957 0
M  V30 1444 C 135.55 -1.86651 3.07248 0
M  V30 1445 C 135.214 -1.20094 4.40938 0
M  V30 1446 C 136.211 -0.575445 5.16706 0
M  V30 1447 C 133.896 -1.2033 4.87674 0
M  V30 1448 C 135.89 0.0388111 6.37388 0
M  V30 1449 C 133.577 -0.585214 6.08291 0
M  V30 1450 C 134.575 0.0347578 6.82991 0
M  V30 1451 O 134.263 0.643147 8.01323 0
M  V30 1452 H 133.995 -0.274974 0.617548 0
M  V30 1453 H 136.549 -0.200788 2.04416 0
M  V30 1454 H 134.779 -2.62998 2.83494 0
M  V30 1455 H 136.468 -2.46907 3.22167 0
M  V30 1456 H 137.234 -0.565728 4.81689 0
M  V30 1457 H 133.113 -1.67526 4.29484 0
M  V30 1458 H 136.657 0.523329 6.95634 0
M  V30 1459 H 132.554 -0.592451 6.42775 0
M  V30 1460 H 133.322 0.540545 8.16713 0
M  V30 1461 N 135.985 -1.50799 -0.457987 0
M  V30 1462 C 137.234 -1.6168 -1.20593 0
M  V30 1463 C 137.547 -0.32888 -1.92815 0
M  V30 1464 O 138.753 -0.316773 -2.69646 0
M  V30 1465 C 137.209 -2.8545 -2.19195 0
M  V30 1466 C 136.817 -4.21168 -1.52715 0
M  V30 1467 C 138.561 -3.05681 -2.94549 0
M  V30 1468 C 136.468 -5.3611 -2.4968 0
M  V30 1469 H 135.398 -0.602134 -0.453818 0
M  V30 1470 H 138.049 -1.77245 -0.475031 0
M  V30 1471 H 136.431 -2.63472 -2.95632 0
M  V30 1472 H 137.605 -4.53449 -0.819775 0
M  V30 1473 H 135.92 -4.06648 -0.895922 0
M  V30 1474 H 138.517 -3.88727 -3.67145 0
M  V30 1475 H 138.86 -2.17929 -3.54701 0
M  V30 1476 H 139.393 -3.27901 -2.25223 0
M  V30 1477 H 136.132 -6.26057 -1.94249 0
M  V30 1478 H 135.652 -5.0823 -3.18532 0
M  V30 1479 H 137.331 -5.6722 -3.11241 0
M  V30 1480 N 137.463 0.71206 -1.40597 0
M  V30 1481 C 138.395 1.83704 -1.37061 0
M  V30 1482 C 139.408 1.60453 -0.275426 0
M  V30 1483 O 140.597 1.70262 -0.53602 0
M  V30 1484 C 137.697 3.20172 -1.11099 0
M  V30 1485 C 136.87 3.7059 -2.3234 0
M  V30 1486 C 135.929 4.85681 -2.02485 0
M  V30 1487 O 134.955 4.9815 -2.75382 0
M  V30 1488 N 136.157 5.71735 -1.00497 0
M  V30 1489 H 138.922 1.87235 -2.34016 0
M  V30 1490 H 136.483 0.893739 -1.34996 0
M  V30 1491 H 138.475 3.94768 -0.891064 0
M  V30 1492 H 137.045 3.11767 -0.227989 0
M  V30 1493 H 136.265 2.87085 -2.7014 0
M  V30 1494 H 137.553 4.01011 -3.13157 0
M  V30 1495 H 136.951 5.64275 -0.401298 0
M  V30 1496 H 135.508 6.463 -0.844942 0
M  V30 1497 N 138.941 1.26152 0.944643 0
M  V30 1498 C 139.888 1.07408 2.04285 0
M  V30 1499 C 140.858 -0.0198413 1.66088 0
M  V30 1500 O 142.043 0.139264 1.90291 0
M  V30 1501 C 139.183 0.70945 3.37729 0
M  V30 1502 C 138.296 1.87926 3.88983 0
M  V30 1503 C 137.431 1.45807 5.10797 0
M  V30 1504 C 136.47 2.5964 5.54305 0
M  V30 1505 N 135.607 2.18226 6.67324 0
M  V30 1506 H 140.447 2.01389 2.1965 0
M  V30 1507 H 137.984 1.00275 1.07626 0
M  V30 1508 H 139.942 0.478948 4.14442 0
M  V30 1509 H 138.572 -0.193389 3.2222 0
M  V30 1510 H 137.624 2.22279 3.08701 0
M  V30 1511 H 138.936 2.73377 4.17213 0
M  V30 1512 H 138.09 1.18781 5.94959 0
M  V30 1513 H 136.829 0.574414 4.84305 0
M  V30 1514 H 135.834 2.87399 4.68702 0
M  V30 1515 H 137.059 3.48599 5.828 0
M  V30 1516 H 135.005 1.3229 6.42523 0
M  V30 1517 H 134.922 2.97221 6.95123 0
M  V30 1518 H 136.19 1.94403 7.54869 0
M  V30 1519 N 140.419 -1.14872 1.07899 0
M  V30 1520 C 141.668 -1.85135 0.800499 0
M  V30 1521 C 141.981 -1.83547 -0.676014 0
M  V30 1522 O 143.187 -2.49548 -1.06948 0
M  V30 1523 C 141.643 -3.3231 1.38197 0
M  V30 1524 C 141.251 -3.42329 2.8899 0
M  V30 1525 C 142.995 -4.0772 1.18174 0
M  V30 1526 C 140.902 -4.83684 3.403 0
M  V30 1527 H 139.832 -0.693563 0.29578 0
M  V30 1528 H 142.483 -1.29532 1.29976 0
M  V30 1529 H 140.865 -3.87618 0.810431 0
M  V30 1530 H 142.039 -2.97097 3.52236 0
M  V30 1531 H 140.354 -2.80369 3.07867 0
M  V30 1532 H 142.951 -5.12049 1.5398 0
M  V30 1533 H 143.294 -4.16124 0.12117 0
M  V30 1534 H 143.827 -3.58696 1.71994 0
M  V30 1535 H 140.566 -4.80465 4.45907 0
M  V30 1536 H 140.086 -5.29474 2.81811 0
M  V30 1537 H 141.765 -5.52558 3.36584 0
M  V30 1538 N 141.898 -0.863906 -1.31812 0
M  V30 1539 C 142.845 -0.313303 -2.28664 0
M  V30 1540 C 143.815 0.584868 -1.55462 0
M  V30 1541 O 145 0.517805 -1.83639 0
M  V30 1542 C 142.14 0.48441 -3.41683 0
M  V30 1543 C 141.253 -0.440594 -4.29747 0
M  V30 1544 C 140.388 0.370652 -5.29905 0
M  V30 1545 C 139.427 -0.551164 -6.09613 0
M  V30 1546 N 138.564 0.223462 -7.01744 0
M  V30 1547 H 143.404 -1.14444 -2.75148 0
M  V30 1548 H 140.941 -0.575769 -1.35364 0
M  V30 1549 H 142.899 0.962627 -4.05943 0
M  V30 1550 H 141.529 1.28029 -2.96325 0
M  V30 1551 H 140.581 -1.03724 -3.65986 0
M  V30 1552 H 141.893 -1.14767 -4.85417 0
M  V30 1553 H 141.047 0.911638 -5.99812 0
M  V30 1554 H 139.786 1.11105 -4.74876 0
M  V30 1555 H 138.791 -1.10396 -5.38603 0
M  V30 1556 H 140.016 -1.29032 -6.66729 0
M  V30 1557 H 137.962 0.946787 -6.49132 0
M  V30 1558 H 137.879 -0.424399 -7.54808 0
M  V30 1559 H 139.147 0.745876 -7.75923 0
M  V30 1560 N 143.376 1.44774 -0.622745 0
M  V30 1561 C 144.601 2.06999 -0.128968 0
M  V30 1562 C 145.026 1.4617 1.1839 0
M  V30 1563 O 144.384 0.560007 1.72434 0
M  V30 1564 C 144.432 3.60595 -0.0188351 0
M  V30 1565 O 143.536 3.99398 1.02739 0
M  V30 1566 H 142.877 0.659047 -0.0809544 0
M  V30 1567 H 145.407 1.85784 -0.85705 0
M  V30 1568 H 145.417 4.07627 0.174476 0
M  V30 1569 H 144.092 4.04252 -0.977384 0
M  V30 1570 H 142.669 3.64011 0.809326 0
M  V30 1571 N 144.854 0.36279 1.53368 0
M  V30 1572 C 146.102 -0.227326 2.00817 0
M  V30 1573 C 146.423 -1.49511 1.25186 0
M  V30 1574 O 145.693 -1.92482 0.364348 0
M  V30 1575 H 144.273 -0.0869923 0.741917 0
M  V30 1576 H 146.935 0.488381 1.88682 0
M  V30 1577 H 146.031 -0.456273 3.08747 0
M  V30 1578 N 146.332 -1.57332 0.0918853 0
M  V30 1579 C 147.242 -2.17368 -0.882505 0
M  V30 1580 C 148.258 -1.14226 -1.31257 0
M  V30 1581 O 149.434 -1.46582 -1.38115 0
M  V30 1582 C 146.499 -2.73962 -2.12476 0
M  V30 1583 C 145.56 -3.92048 -1.7492 0
M  V30 1584 C 144.793 -4.45933 -2.93223 0
M  V30 1585 O 145.016 -3.98764 -4.07852 0
M  V30 1586 O 143.95 -5.36999 -2.71875 0
M  V30 1587 H 147.776 -3.01031 -0.40172 0
M  V30 1588 H 145.361 -1.48813 -0.132291 0
M  V30 1589 H 147.243 -3.10147 -2.85283 0
M  V30 1590 H 145.918 -1.93347 -2.59613 0
M  V30 1591 H 144.825 -3.6068 -0.993025 0
M  V30 1592 H 146.158 -4.74017 -1.32548 0
M  V30 1593 N 147.81 0.181792 -1.56548 0
M  V30 1594 C 148.72 1.24538 -1.98815 0
M  V30 1595 C 149.736 1.49045 -0.897861 0
M  V30 1596 O 150.912 1.61399 -1.20467 0
M  V30 1597 C 147.977 2.56683 -2.33055 0
M  V30 1598 C 147.038 2.40131 -3.55859 0
M  V30 1599 C 146.271 3.65975 -3.88456 0
M  V30 1600 O 146.494 4.70711 -3.22161 0
M  V30 1601 O 145.428 3.6071 -4.81842 0
M  V30 1602 H 149.254 0.916647 -2.89536 0
M  V30 1603 H 146.839 0.387842 -1.44278 0
M  V30 1604 H 148.721 3.34655 -2.56094 0
M  V30 1605 H 147.396 2.89157 -1.45498 0
M  V30 1606 H 146.303 1.60226 -3.38051 0
M  V30 1607 H 147.636 2.12585 -4.43924 0
M  V30 1608 N 149.288 1.51039 0.449983 0
M  V30 1609 C 150.565 1.53612 1.21089 0
M  V30 1610 C 150.945 0.292997 2.09057 0
M  V30 1611 O 150.293 -0.72259 2.16774 0
M  V30 1612 C 150.503 2.84337 2.0237 0
M  V30 1613 C 151.851 3.35807 2.59843 0
M  V30 1614 O 152.875 2.85802 2.12593 0
M  V30 1615 O 151.734 4.23029 3.45989 0
M  V30 1616 H 148.828 0.617057 0.550608 0
M  V30 1617 H 151.374 1.63344 0.460082 0
M  V30 1618 H 150.146 3.66278 1.37681 0
M  V30 1619 H 149.769 2.77708 2.84542 0
M  V30 1620 N 150.766 -0.704594 1.40972 0
M  V30 1621 C 152.013 -1.46458 1.39844 0
M  V30 1622 C 152.341 -1.94499 0.00447594 0
M  V30 1623 O 151.596 -1.69275 -0.982057 0
M  V30 1624 C 151.895 -2.698 2.34399 0
M  V30 1625 C 151.561 -2.40464 3.81429 0
M  V30 1626 C 150.223 -2.32174 4.21484 0
M  V30 1627 C 152.575 -2.16086 4.74296 0
M  V30 1628 C 149.903 -1.97589 5.52427 0
M  V30 1629 C 152.255 -1.83011 6.05549 0
M  V30 1630 C 150.919 -1.7321 6.44635 0
M  V30 1631 H 150.189 -0.535927 0.511725 0
M  V30 1632 H 152.836 -0.806124 1.73706 0
M  V30 1633 H 151.141 -3.40536 1.93759 0
M  V30 1634 H 152.838 -3.27919 2.30804 0
M  V30 1635 H 149.428 -2.47808 3.49699 0
M  V30 1636 H 153.612 -2.2144 4.4416 0
M  V30 1637 H 148.868 -1.88547 5.81601 0
M  V30 1638 H 153.042 -1.63164 6.77016 0
M  V30 1639 H 150.669 -1.46179 7.46013 0
M  V30 1640 N 152.244 -1.26651 -0.937939 0
M  V30 1641 C 153.154 -1.10276 -2.07066 0
M  V30 1642 C 154.17 -0.0354197 -1.73964 0
M  V30 1643 O 155.346 -0.239816 -1.99967 0
M  V30 1644 C 152.411 -0.740887 -3.38691 0
M  V30 1645 C 151.472 -1.88799 -3.85556 0
M  V30 1646 C 150.705 -1.54329 -5.10899 0
M  V30 1647 O 150.928 -0.446494 -5.6865 0
M  V30 1648 O 149.862 -2.37911 -5.52885 0
M  V30 1649 H 153.688 -2.05309 -2.23789 0
M  V30 1650 H 151.273 -1.05743 -1.0554 0
M  V30 1651 H 153.155 -0.55195 -4.1777 0
M  V30 1652 H 151.83 0.180022 -3.23199 0
M  V30 1653 H 150.737 -2.13191 -3.07409 0
M  V30 1654 H 152.07 -2.78874 -4.05574 0
M  V30 1655 N 153.722 1.14298 -1.08507 0
M  V30 1656 C 154.947 1.8976 -0.837001 0
M  V30 1657 C 155.372 1.78097 0.605228 0
M  V30 1658 O 154.73 1.12188 1.4242 0
M  V30 1659 C 154.778 3.37685 -1.26495 0
M  V30 1660 O 153.882 4.10281 -0.417514 0
M  V30 1661 H 153.223 0.590365 -0.303917 0
M  V30 1662 H 155.753 1.44672 -1.44676 0
M  V30 1663 H 155.763 3.88501 -1.24625 0
M  V30 1664 H 154.438 3.45492 -2.31534 0
M  V30 1665 H 153.015 3.69536 -0.499722 0
M  V30 1666 N 155.201 0.870884 1.31352 0
M  V30 1667 C 156.131 0.343096 2.30966 0
M  V30 1668 C 157.112 -0.566507 1.60389 0
M  V30 1669 O 158.297 -0.483336 1.88089 0
M  V30 1670 C 155.427 -0.455487 3.443 0
M  V30 1671 C 154.381 0.361103 4.26474 0
M  V30 1672 C 153.707 -0.563221 5.31725 0
M  V30 1673 C 155.007 1.59566 4.97329 0
M  V30 1674 H 156.701 1.17548 2.75359 0
M  V30 1675 H 154.247 0.566686 1.32381 0
M  V30 1676 H 156.2 -0.83525 4.13039 0
M  V30 1677 H 154.924 -1.32139 2.98675 0
M  V30 1678 H 153.583 0.722825 3.59403 0
M  V30 1679 H 153.231 -1.42643 4.82351 0
M  V30 1680 H 152.931 -0.0207409 5.87596 0
M  V30 1681 H 154.455 -0.939808 6.03324 0
M  V30 1682 H 155.869 1.28728 5.58661 0
M  V30 1683 H 154.266 2.07728 5.63 0
M  V30 1684 H 155.336 2.34798 4.24262 0
M  V30 1685 N 156.679 -1.44442 0.630414 0
M  V30 1686 C 157.642 -2.29107 -0.0652523 0
M  V30 1687 C 158.642 -1.41002 -0.772995 0
M  V30 1688 O 159.832 -1.62881 -0.617692 0
M  V30 1689 C 156.964 -3.22564 -1.10296 0
M  V30 1690 H 158.157 -2.92103 0.679401 0
M  V30 1691 H 155.71 -1.51343 0.390517 0
M  V30 1692 H 156.445 -2.64416 -1.87762 0
M  V30 1693 H 156.23 -3.87491 -0.59941 0
M  V30 1694 H 157.72 -3.86167 -1.5895 0
M  V30 1695 N 158.157 -0.370918 -1.53173 0
M  V30 1696 C 159.382 0.220293 -2.06227 0
M  V30 1697 C 159.807 1.41243 -1.24225 0
M  V30 1698 O 159.165 1.79387 -0.262645 0
M  V30 1699 C 159.213 0.586663 -3.55796 0
M  V30 1700 O 158.317 1.68317 -3.76488 0
M  V30 1701 H 157.658 0.0308099 -0.663285 0
M  V30 1702 H 160.188 -0.533068 -1.97534 0
M  V30 1703 H 160.198 0.85617 -3.98916 0
M  V30 1704 H 158.873 -0.285013 -4.14922 0
M  V30 1705 H 157.45 1.40881 -3.45264 0
M  V30 1706 N 159.635 1.57281 -0.100228 0
M  V30 1707 C 160.567 2.11342 0.886972 0
M  V30 1708 C 161.58 1.05182 1.24261 0
M  V30 1709 O 162.769 1.32613 1.19483 0
M  V30 1710 C 159.869 2.5825 2.19454 0
M  V30 1711 C 159.042 3.88302 2.01346 0
M  V30 1712 C 158.101 4.21004 3.15661 0
M  V30 1713 O 157.127 4.9014 2.89398 0
M  V30 1714 N 158.329 3.76818 4.41575 0
M  V30 1715 H 161.094 2.96668 0.425216 0
M  V30 1716 H 158.655 1.61678 0.0847334 0
M  V30 1717 H 160.647 2.7717 2.94888 0
M  V30 1718 H 159.217 1.77907 2.57037 0
M  V30 1719 H 158.437 3.7848 1.10212 0
M  V30 1720 H 159.725 4.73375 1.8653 0
M  V30 1721 H 159.123 3.2102 4.65792 0
M  V30 1722 H 157.68 4.00882 5.13942 0
M  V30 1723 N 161.113 -0.173488 1.56642 0
M  V30 1724 C 162.36 -0.890465 1.81871 0
M  V30 1725 C 162.688 -1.82339 0.67696 0
M  V30 1726 O 161.943 -1.92795 -0.335926 0
M  V30 1727 C 162.242 -1.72069 3.13252 0
M  V30 1728 C 161.908 -0.936878 4.41059 0
M  V30 1729 C 160.57 -0.720545 4.75775 0
M  V30 1730 C 162.922 -0.386919 5.19762 0
M  V30 1731 C 160.25 0.0568829 5.86672 0
M  V30 1732 C 162.602 0.37741 6.31473 0
M  V30 1733 C 161.266 0.604563 6.64757 0
M  V30 1734 H 160.536 -0.325844 0.665512 0
M  V30 1735 H 163.183 -0.155527 1.90867 0
M  V30 1736 H 161.488 -2.52496 2.99588 0
M  V30 1737 H 163.185 -2.27844 3.29982 0
M  V30 1738 H 159.775 -1.11553 4.13828 0
M  V30 1739 H 163.959 -0.541398 4.93338 0
M  V30 1740 H 159.215 0.242635 6.10918 0
M  V30 1741 H 163.389 0.810825 6.91664 0
M  V30 1742 H 161.016 1.20885 7.50527 0
M  V30 1743 N 162.591 -1.51276 -0.441967 0
M  V30 1744 C 163.816 -1.67799 -1.21895 0
M  V30 1745 C 164.241 -0.372864 -1.84367 0
M  V30 1746 O 163.599 0.666501 -1.68604 0
M  V30 1747 C 163.647 -2.79199 -2.28211 0
M  V30 1748 O 162.751 -2.42479 -3.33583 0
M  V30 1749 H 162.092 -0.559649 -0.357336 0
M  V30 1750 H 164.622 -1.97815 -0.522522 0
M  V30 1751 H 164.632 -3.03146 -2.73069 0
M  V30 1752 H 163.307 -3.73906 -1.82118 0
M  V30 1753 H 161.884 -2.29087 -2.94234 0
M  V30 1754 N 164.069 0.697108 -1.41344 0
M  V30 1755 C 165.346 1.45154 -1.31109 0
M  V30 1756 C 165.726 2.11009 0.0620449 0
M  V30 1757 O 165.074 2.01571 1.07618 0
M  V30 1758 C 165.284 2.47223 -2.46337 0
M  V30 1759 C 166.632 3.1252 -2.87431 0
M  V30 1760 O 167.656 2.57547 -2.46065 0
M  V30 1761 O 166.515 4.12083 -3.58957 0
M  V30 1762 H 163.609 0.646365 -0.515889 0
M  V30 1763 H 166.155 0.727716 -1.53305 0
M  V30 1764 H 164.927 1.97204 -3.37974 0
M  V30 1765 H 164.55 3.27116 -2.2601 0
M  V30 1766 N 165.547 1.27147 0.931209 0
M  V30 1767 C 166.787 1.14511 1.69312 0
M  V30 1768 C 167.151 -0.304638 1.89568 0
M  V30 1769 O 168.352 -0.553343 2.63043 0
M  V30 1770 C 166.623 1.90349 3.02493 0
M  V30 1771 S 168.182 1.93884 3.93642 0
M  V30 1772 H 165 0.408858 0.581684 0
M  V30 1773 H 167.602 1.61006 1.10893 0
M  V30 1774 H 166.306 2.94877 2.85439 0
M  V30 1775 H 165.837 1.44333 3.65966 0
M  V30 1776 H 167.852 1.03273 4.85334 0
M  V30 1777 N 167.025 -1.13721 1.09112 0
M  V30 1778 C 168.25 -1.89314 0.847053 0
M  V30 1779 C 168.675 -1.78416 -0.595774 0
M  V30 1780 O 168.033 -1.12942 -1.41823 0
M  V30 1781 C 168.081 -3.3701 1.28284 0
M  V30 1782 O 167.185 -4.10054 0.439267 0
M  V30 1783 H 166.526 -0.588745 0.307044 0
M  V30 1784 H 169.056 -1.43902 1.45442 0
M  V30 1785 H 169.066 -3.87834 1.26683 0
M  V30 1786 H 167.741 -3.4426 2.33363 0
M  V30 1787 H 166.318 -3.69266 0.519312 0
M  V30 1788 N 168.503 -0.877838 -1.30888 0
M  V30 1789 C 169.728 -0.506629 -2.01117 0
M  V30 1790 C 170.153 0.895564 -1.65412 0
M  V30 1791 O 169.511 1.5923 -0.866922 0
M  V30 1792 C 169.559 -0.680223 -3.54126 0
M  V30 1793 O 168.663 0.277033 -4.11468 0
M  V30 1794 H 168.004 -0.200518 -0.633 0
M  V30 1795 H 170.534 -1.18342 -1.66902 0
M  V30 1796 H 170.544 -0.5765 -4.03907 0
M  V30 1797 H 169.219 -1.70261 -3.79452 0
M  V30 1798 H 167.796 0.127606 -3.72682 0
M  V30 1799 N 169.982 1.44106 -0.638065 0
M  V30 1800 C 170.945 2.29138 0.0531013 0
M  V30 1801 C 171.945 1.41409 0.765506 0
M  V30 1802 O 173.135 1.63206 0.609046 0
M  V30 1803 C 170.267 3.23144 1.08584 0
M  V30 1804 H 171.46 2.91739 -0.694883 0
M  V30 1805 H 169.013 1.51134 -0.398538 0
M  V30 1806 H 169.748 2.65408 1.86357 0
M  V30 1807 H 169.533 3.87804 0.578852 0
M  V30 1808 H 171.023 3.87004 1.56899 0
M  V30 1809 N 171.46 0.379036 1.52974 0
M  V30 1810 C 172.407 -0.461048 2.26148 0
M  V30 1811 C 173.377 -1.06637 1.27349 0
M  V30 1812 O 174.562 -1.09633 1.56157 0
M  V30 1813 C 171.702 -1.58782 3.06402 0
M  V30 1814 C 170.815 -1.00636 4.20115 0
M  V30 1815 C 169.95 -2.10334 4.87784 0
M  V30 1816 C 168.989 -1.49724 5.93506 0
M  V30 1817 N 168.126 -2.5331 6.54812 0
M  V30 1818 H 172.966 0.169429 2.97518 0
M  V30 1819 H 170.503 0.0953806 1.4679 0
M  V30 1820 H 172.461 -2.25174 3.51215 0
M  V30 1821 H 171.091 -2.18876 2.37261 0
M  V30 1822 H 170.143 -0.232332 3.7969 0
M  V30 1823 H 171.455 -0.523343 4.96047 0
M  V30 1824 H 170.609 -2.84519 5.35849 0
M  V30 1825 H 169.348 -2.61992 4.11353 0
M  V30 1826 H 168.353 -0.740598 5.44789 0
M  V30 1827 H 169.578 -0.988732 6.71864 0
M  V30 1828 H 167.524 -3.04156 5.81227 0
M  V30 1829 H 167.441 -2.09734 7.26325 0
M  V30 1830 H 168.709 -3.27155 7.07524 0
M  V30 1831 N 172.938 -1.57226 0.108567 0
M  V30 1832 C 173.901 -2.13602 -0.831082 0
M  V30 1833 C 174.901 -1.06841 -1.20173 0
M  V30 1834 O 176.091 -1.32666 -1.12895 0
M  V30 1835 C 173.223 -2.66769 -2.12243 0
M  V30 1836 H 174.416 -2.97951 -0.341317 0
M  V30 1837 H 171.969 -1.55667 -0.14057 0
M  V30 1838 H 172.704 -1.85977 -2.65675 0
M  V30 1839 H 172.489 -3.44839 -1.86625 0
M  V30 1840 H 173.979 -3.10332 -2.79435 0
M  V30 1841 N 174.416 0.165178 -1.56732 0
M  V30 1842 C 175.832 0.517174 -1.50988 0
M  V30 1843 C 176.032 1.84331 -0.813894 0
M  V30 1844 O 175.088 2.49672 -0.37682 0
M  V30 1845 C 176.401 0.544261 -2.95733 0
M  V30 1846 C 177.949 0.631039 -3.06573 0
M  V30 1847 C 178.424 0.68896 -4.52788 0
M  V30 1848 N 179.915 0.751683 -4.5706 0
M  V30 1849 C 180.65 0.817177 -5.67547 0
M  V30 1850 N 180.146 0.843129 -6.8765 0
M  V30 1851 N 181.939 0.856668 -5.55534 0
M  V30 1852 H 174.09 -0.704318 -2.00382 0
M  V30 1853 H 176.353 -0.254687 -0.913148 0
M  V30 1854 H 176.059 -0.361607 -3.49836 0
M  V30 1855 H 175.933 1.3886 -3.5071 0
M  V30 1856 H 178.32 1.52733 -2.52501 0
M  V30 1857 H 178.401 -0.240095 -2.54671 0
M  V30 1858 H 178.045 -0.2031 -5.07494 0
M  V30 1859 H 177.975 1.57633 -5.02454 0
M  V30 1860 H 180.466 0.739661 -3.70591 0
M  V30 1861 H 180.779 0.894448 -7.67606 0
M  V30 1862 H 179.124 0.811304 -6.90248 0
M  V30 1863 H 182.315 0.833437 -4.60621 0
M  V30 1864 H 182.488 0.904247 -6.4166 0
M  V30 1865 N 175.894 1.51508 0.433938 0
M  V30 1866 C 177.142 1.6402 1.18075 0
M  V30 1867 C 177.463 0.360328 1.91642 0
M  V30 1868 O 176.733 -0.623945 1.85698 0
M  V30 1869 H 175.313 0.6045 0.43885 0
M  V30 1870 H 177.975 1.88452 0.497178 0
M  V30 1871 H 177.071 2.46949 1.90847 0
M  V30 1872 N 177.372 -0.689602 1.41712 0
M  V30 1873 C 178.649 -1.44457 1.31877 0
M  V30 1874 C 179.029 -2.11039 -0.0508537 0
M  V30 1875 O 178.377 -2.02138 -1.06547 0
M  V30 1876 C 178.587 -2.45913 2.47645 0
M  V30 1877 C 179.935 -3.10991 2.89084 0
M  V30 1878 O 180.959 -2.56238 2.47428 0
M  V30 1879 O 179.818 -4.10174 3.61137 0
M  V30 1880 H 176.912 -0.64362 0.519309 0
M  V30 1881 H 179.458 -0.719576 1.53689 0
M  V30 1882 H 178.23 -1.95409 3.39015 0
M  V30 1883 H 177.853 -3.25913 2.27742 0
M  V30 1884 N 178.85 -1.27639 -0.924453 0
M  V30 1885 C 179.78 -1.13166 -2.04244 0
M  V30 1886 C 180.761 -0.032256 -1.70069 0
M  V30 1887 O 181.946 -0.207328 -1.9309 0
M  V30 1888 C 179.076 -0.781496 -3.38393 0
M  V30 1889 C 178.03 -1.83449 -3.86692 0
M  V30 1890 C 177.356 -1.33822 -5.17683 0
M  V30 1891 C 178.656 -3.23917 -4.09726 0
M  V30 1892 H 180.35 -2.06689 -2.1661 0
M  V30 1893 H 177.896 -0.995136 -1.04082 0
M  V30 1894 H 179.849 -0.667057 -4.16087 0
M  V30 1895 H 178.573 0.189439 -3.2605 0
M  V30 1896 H 177.232 -1.93789 -3.11193 0
M  V30 1897 H 176.88 -0.35665 -5.01734 0
M  V30 1898 H 176.58 -2.04224 -5.50968 0
M  V30 1899 H 178.104 -1.23679 -5.97943 0
M  V30 1900 H 179.518 -3.16559 -4.77978 0
M  V30 1901 H 177.915 -3.92059 -4.54324 0
M  V30 1902 H 178.985 -3.68729 -3.14908 0
M  V30 1903 N 180.328 1.1314 -1.09713 0
M  V30 1904 C 181.576 1.84119 -0.833338 0
M  V30 1905 C 181.897 1.84097 0.642904 0
M  V30 1906 O 181.167 1.29881 1.46655 0
M  V30 1907 H 179.747 0.681766 -0.305293 0
M  V30 1908 H 182.409 1.37038 -1.38588 0
M  V30 1909 H 181.505 2.88543 -1.18951 0
M  V30 1910 N 181.806 0.884767 1.30421 0
M  V30 1911 C 182.769 0.356277 2.26414 0
M  V30 1912 C 183.769 -0.501124 1.52792 0
M  V30 1913 O 184.959 -0.30831 1.7145 0
M  V30 1914 C 182.091 -0.492316 3.37326 0
M  V30 1915 H 183.284 1.20389 2.74675 0
M  V30 1916 H 180.837 0.661607 1.41607 0
M  V30 1917 H 181.572 -1.36052 2.94381 0
M  V30 1918 H 181.357 0.121832 3.91911 0
M  V30 1919 H 182.847 -0.853871 4.08777 0
M  V30 1920 N 183.284 -1.43765 0.645699 0
M  V30 1921 C 184.531 -2.01898 0.15604 0
M  V30 1922 C 184.859 -1.50887 -1.22733 0
M  V30 1923 O 184.114 -0.689271 -1.8316 0
M  V30 1924 C 184.413 -3.57238 0.107679 0
M  V30 1925 C 184.079 -4.27564 1.43178 0
M  V30 1926 C 182.741 -4.46492 1.7944 0
M  V30 1927 C 185.093 -4.67454 2.30513 0
M  V30 1928 C 182.421 -5.02573 3.02716 0
M  V30 1929 C 184.773 -5.24901 3.53074 0
M  V30 1930 C 183.437 -5.42046 3.89541 0
M  V30 1931 H 182.707 -0.738797 0.057099 0
M  V30 1932 H 185.354 -1.72341 0.834912 0
M  V30 1933 H 183.659 -3.86293 -0.654618 0
M  V30 1934 H 185.356 -3.99965 -0.287938 0
M  V30 1935 H 181.946 -4.13171 1.13963 0
M  V30 1936 H 186.13 -4.5253 2.0379 0
M  V30 1937 H 181.386 -5.14033 3.31028 0
M  V30 1938 H 185.56 -5.54758 4.20971 0
M  V30 1939 H 183.187 -5.85268 4.85145 0
M  V30 1940 N 184.763 -0.387143 -1.52771 0
M  V30 1941 C 185.988 0.198407 -2.06449 0
M  V30 1942 C 186.413 1.39918 -1.25716 0
M  V30 1943 O 185.771 1.79099 -0.281657 0
M  V30 1944 C 185.819 0.548893 -3.56398 0
M  V30 1945 O 184.923 1.64315 -3.78252 0
M  V30 1946 H 184.264 0.0237731 -0.663574 0
M  V30 1947 H 186.794 -0.553989 -1.96957 0
M  V30 1948 H 186.804 0.813812 -3.99801 0
M  V30 1949 H 185.479 -0.329005 -4.14597 0
M  V30 1950 H 184.056 1.37211 -3.46738 0
M  V30 1951 N 186.241 1.57166 -0.116904 0
M  V30 1952 C 187.657 1.5779 0.239693 0
M  V30 1953 C 187.857 1.1295 1.66867 0
M  V30 1954 O 186.913 0.81592 2.38954 0
M  V30 1955 C 188.226 3.00699 0.00828202 0
M  V30 1956 C 189.774 3.12912 0.0743438 0
M  V30 1957 C 190.249 4.57817 -0.129348 0
M  V30 1958 N 191.74 4.63139 -0.075247 0
M  V30 1959 C 192.475 5.73023 -0.207788 0
M  V30 1960 N 191.971 6.91665 -0.396382 0
M  V30 1961 N 193.764 5.61906 -0.14751 0
M  V30 1962 H 185.915 1.84615 -1.05029 0
M  V30 1963 H 188.178 0.85311 -0.41341 0
M  V30 1964 H 187.884 3.37784 -0.979531 0
M  V30 1965 H 187.758 3.69848 0.741077 0
M  V30 1966 H 190.145 2.75686 1.05268 0
M  V30 1967 H 190.226 2.4631 -0.690297 0
M  V30 1968 H 189.87 4.95742 -1.10465 0
M  V30 1969 H 189.8 5.22507 0.655253 0
M  V30 1970 H 192.291 3.7784 0.0670898 0
M  V30 1971 H 192.604 7.71255 -0.488437 0
M  V30 1972 H 190.949 6.93654 -0.432329 0
M  V30 1973 H 194.14 4.681 -0.00115036 0
M  V30 1974 H 194.313 6.47501 -0.254247 0
M  V30 1975 N 187.719 -0.156864 1.56817 0
M  V30 1976 C 188.967 -0.869404 1.82444 0
M  V30 1977 C 189.288 -1.82147 0.69623 0
M  V30 1978 O 188.558 -1.93847 -0.28287 0
M  V30 1979 H 187.138 -0.324043 0.673056 0
M  V30 1980 H 189.8 -0.153224 1.94297 0
M  V30 1981 H 188.896 -1.43761 2.77019 0
M  V30 1982 N 189.197 -1.51736 -0.425897 0
M  V30 1983 C 190.129 -1.70083 -1.53638 0
M  V30 1984 C 191.142 -0.581349 -1.52066 0
M  V30 1985 O 192.331 -0.856017 -1.56635 0
M  V30 1986 C 189.431 -1.71078 -2.9255 0
M  V30 1987 C 188.604 -2.99795 -3.185 0
M  V30 1988 C 187.663 -2.92825 -4.37196 0
M  V30 1989 O 186.689 -3.66756 -4.35291 0
M  V30 1990 N 187.891 -2.0946 -5.41393 0
M  V30 1991 H 190.656 -2.65882 -1.383 0
M  V30 1992 H 188.217 -1.49765 -0.614988 0
M  V30 1993 H 190.209 -1.63969 -3.69995 0
M  V30 1994 H 188.779 -0.828242 -3.01428 0
M  V30 1995 H 187.999 -3.20684 -2.2925 0
M  V30 1996 H 189.287 -3.84977 -3.32671 0
M  V30 1997 H 188.685 -1.48792 -5.45781 0
M  V30 1998 H 187.242 -2.08221 -6.17647 0
M  V30 1999 N 190.675 0.682077 -1.42076 0
M  V30 2000 C 191.608 1.80666 -1.3941 0
M  V30 2001 C 192.586 1.60518 -0.25939 0
M  V30 2002 O 193.77 1.83088 -0.448456 0
M  V30 2003 C 190.897 3.17556 -1.17796 0
M  V30 2004 C 189.943 3.56468 -2.34164 0
M  V30 2005 S 190.776 3.59729 -3.96681 0
M  V30 2006 C 191.932 4.99323 -3.77395 0
M  V30 2007 H 192.165 1.82652 -2.34575 0
M  V30 2008 H 189.698 0.852062 -1.2876 0
M  V30 2009 H 191.656 3.96575 -1.06012 0
M  V30 2010 H 190.317 3.13164 -0.242279 0
M  V30 2011 H 189.51 4.5595 -2.1477 0
M  V30 2012 H 189.112 2.84792 -2.42425 0
M  V30 2013 H 191.404 5.87202 -3.37935 0
M  V30 2014 H 192.347 5.23763 -4.76527 0
M  V30 2015 H 192.755 4.71498 -3.10403 0
M  V30 2016 N 192.153 1.28127 0.917671 0
M  V30 2017 C 193.085 1.07517 2.02417 0
M  V30 2018 C 194.098 0.0281099 1.62776 0
M  V30 2019 O 195.287 0.270748 1.76435 0
M  V30 2020 C 192.387 0.610957 3.33347 0
M  V30 2021 C 191.56 1.73255 4.01624 0
M  V30 2022 C 190.619 1.26238 5.10833 0
M  V30 2023 O 189.645 1.96389 5.34247 0
M  V30 2024 N 190.847 0.123448 5.80369 0
M  V30 2025 H 193.612 2.02806 2.20658 0
M  V30 2026 H 191.173 1.19827 1.08871 0
M  V30 2027 H 193.165 0.280101 4.0373 0
M  V30 2028 H 191.735 -0.24898 3.11607 0
M  V30 2029 H 190.955 2.23319 3.24842 0
M  V30 2030 H 192.243 2.48503 4.43986 0
M  V30 2031 H 191.641 -0.461847 5.63812 0
M  V30 2032 H 190.198 -0.148158 6.51632 0
M  V30 2033 N 193.631 -1.12557 1.10312 0
M  V30 2034 C 194.578 -2.18247 0.750781 0
M  V30 2035 C 195.548 -1.63853 -0.272293 0
M  V30 2036 O 196.733 -1.90195 -0.151862 0
M  V30 2037 C 193.873 -3.44591 0.187379 0
M  V30 2038 C 192.986 -4.13046 1.2656 0
M  V30 2039 C 192.121 -5.27034 0.663978 0
M  V30 2040 C 191.16 -5.87353 1.72287 0
M  V30 2041 N 190.297 -6.92757 1.1416 0
M  V30 2042 H 195.137 -2.47732 1.65628 0
M  V30 2043 H 192.674 -1.21629 0.827337 0
M  V30 2044 H 194.632 -4.16904 -0.157148 0
M  V30 2045 H 193.262 -3.15527 -0.681355 0
M  V30 2046 H 192.314 -3.38924 1.72727 0
M  V30 2047 H 193.626 -4.53947 2.06721 0
M  V30 2048 H 192.78 -6.06104 0.268824 0
M  V30 2049 H 191.519 -4.87407 -0.169082 0
M  V30 2050 H 190.524 -5.06971 2.12746 0
M  V30 2051 H 191.749 -6.29051 2.55875 0
M  V30 2052 H 189.695 -6.5517 0.329984 0
M  V30 2053 H 189.612 -7.3225 1.88007 0
M  V30 2054 H 190.88 -7.75658 0.772956 0
M  V30 2055 N 195.109 -0.891671 -1.2995 0
M  V30 2056 C 196.52 -0.563104 -1.78006 0
M  V30 2057 C 196.871 0.920978 -1.73241 0
M  V30 2058 O 195.996 1.71987 -1.31337 0
M  V30 2059 C 196.591 -1.01539 -3.23226 0
M  V30 2060 C 195.15 -0.738124 -3.69092 0
M  V30 2061 C 194.297 -1.19461 -2.50249 0
M  V30 2062 H 197.248 -1.07522 -1.16725 0
M  V30 2063 H 197.269 -0.347217 -3.78912 0
M  V30 2064 H 196.781 -2.09555 -3.26662 0
M  V30 2065 H 194.882 0.329766 -3.71138 0
M  V30 2066 H 194.995 -1.33037 -4.60259 0
M  V30 2067 H 193.359 -0.613787 -2.47194 0
M  V30 2068 H 194.142 -2.28265 -2.56417 0
M  V30 2069 N 196.587 1.43421 -0.653314 0
M  V30 2070 C 197.834 2.01812 -0.166745 0
M  V30 2071 C 198.162 1.51535 1.21931 0
M  V30 2072 O 197.417 0.698975 1.82792 0
M  V30 2073 C 197.716 3.57176 -0.126623 0
M  V30 2074 C 197.382 4.26798 -1.45444 0
M  V30 2075 C 196.044 4.45534 -1.81805 0
M  V30 2076 C 198.396 4.66225 -2.32989 0
M  V30 2077 C 195.724 5.00961 -3.05377 0
M  V30 2078 C 198.076 5.23021 -3.55853 0
M  V30 2079 C 196.74 5.39973 -3.9241 0
M  V30 2080 H 196.01 0.738484 -0.0610162 0
M  V30 2081 H 198.657 1.71896 -0.84404 0
M  V30 2082 H 196.962 3.86634 0.634123 0
M  V30 2083 H 198.659 4.00112 0.266723 0
M  V30 2084 H 195.249 4.12561 -1.16153 0
M  V30 2085 H 199.433 4.51443 -2.06187 0
M  V30 2086 H 194.689 5.12271 -3.3375 0
M  V30 2087 H 198.863 5.52518 -4.23907 0
M  V30 2088 H 196.49 5.82687 -4.88242 0
M  V30 2089 N 198.065 0.39524 1.52563 0
M  V30 2090 C 198.975 -0.444232 2.30356 0
M  V30 2091 C 199.991 -1.06615 1.37511 0
M  V30 2092 O 201.167 -1.07067 1.70583 0
M  V30 2093 C 198.232 -1.55315 3.09964 0
M  V30 2094 C 197.293 -0.955734 4.18526 0
M  V30 2095 C 196.526 -2.01181 4.9433 0
M  V30 2096 O 196.749 -3.22781 4.70285 0
M  V30 2097 O 195.683 -1.62579 5.79527 0
M  V30 2098 H 199.509 0.189667 3.03107 0
M  V30 2099 H 197.094 0.1588 1.48554 0
M  V30 2100 H 198.976 -2.19724 3.59582 0
M  V30 2101 H 197.651 -2.17191 2.4002 0
M  V30 2102 H 196.558 -0.274743 3.7309 0
M  V30 2103 H 197.891 -0.381109 4.90722 0
M  V30 2104 N 199.544 -1.57102 0.125237 0
M  V30 2105 C 200.821 -1.86953 -0.575142 0
M  V30 2106 C 201.201 -1.02749 -1.84407 0
M  V30 2107 O 200.549 -0.108144 -2.28244 0
M  V30 2108 C 200.759 -3.38198 -0.861583 0
M  V30 2109 C 202.107 -4.06937 -1.21192 0
M  V30 2110 O 203.131 -3.43252 -0.951645 0
M  V30 2111 O 201.99 -5.19364 -1.70068 0
M  V30 2112 H 199.084 -0.774147 -0.290906 0
M  V30 2113 H 201.63 -1.68942 0.160211 0
M  V30 2114 H 200.402 -3.91282 0.0373647 0
M  V30 2115 H 200.025 -3.61661 -1.65188 0
M  V30 2116 N 201.022 0.148545 -1.56898 0
M  V30 2117 C 201.985 1.16736 -1.97244 0
M  V30 2118 C 202.985 1.35947 -0.858777 0
M  V30 2119 O 204.175 1.32966 -1.12542 0
M  V30 2120 C 201.307 2.52798 -2.28705 0
M  V30 2121 H 202.5 0.821279 -2.88435 0
M  V30 2122 H 200.053 0.391831 -1.51309 0
M  V30 2123 H 200.788 2.92381 -1.403 0
M  V30 2124 H 200.573 2.40216 -3.09901 0
M  V30 2125 H 202.063 3.26179 -2.60762 0
M  V30 2126 N 202.5 1.5196 0.417844 0
M  V30 2127 C 203.725 1.69717 1.1921 0
M  V30 2128 C 204.15 0.402148 1.83751 0
M  V30 2129 O 203.508 -0.639593 1.69643 0
M  V30 2130 C 203.556 2.82794 2.2374 0
M  V30 2131 O 202.66 2.47756 3.29683 0
M  V30 2132 H 202.001 0.565263 0.348387 0
M  V30 2133 H 204.531 1.98621 0.490985 0
M  V30 2134 H 204.541 3.07452 2.68212 0
M  V30 2135 H 203.216 3.76756 1.76146 0
M  V30 2136 H 201.793 2.33739 2.90552 0
M  V30 2137 N 203.978 -0.674533 1.42435 0
M  V30 2138 C 205.225 -1.43459 1.42919 0
M  V30 2139 C 205.553 -1.94446 0.0457312 0
M  V30 2140 O 204.808 -1.7132 -0.94593 0
M  V30 2141 C 205.107 -2.64767 2.40069 0
M  V30 2142 C 204.773 -2.3232 3.86443 0
M  V30 2143 C 203.435 -2.23182 4.26314 0
M  V30 2144 C 205.787 -2.05977 4.78773 0
M  V30 2145 C 203.115 -1.85827 5.56494 0
M  V30 2146 C 205.467 -1.70125 6.09295 0
M  V30 2147 C 204.131 -1.59498 6.48164 0
M  V30 2148 H 203.401 -0.524952 0.522978 0
M  V30 2149 H 206.048 -0.769097 1.75377 0
M  V30 2150 H 204.353 -3.36349 2.00939 0
M  V30 2151 H 206.05 -3.22949 2.37707 0
M  V30 2152 H 202.64 -2.40334 3.54877 0
M  V30 2153 H 206.824 -2.11969 4.48757 0
M  V30 2154 H 202.08 -1.76168 5.8547 0
M  V30 2155 H 206.254 -1.48767 6.80324 0
M  V30 2156 H 203.881 -1.30322 7.48946 0
M  V30 2157 N 205.456 -1.28612 -0.910864 0
M  V30 2158 C 206.419 -1.12803 -1.9952 0
M  V30 2159 C 207.419 -0.0668264 -1.60661 0
M  V30 2160 O 208.609 -0.312847 -1.71368 0
M  V30 2161 C 205.741 -0.72254 -3.33155 0
M  V30 2162 H 206.934 -2.09109 -2.14973 0
M  V30 2163 H 204.487 -1.11639 -1.09391 0
M  V30 2164 H 205.222 0.241152 -3.23402 0
M  V30 2165 H 205.007 -1.48916 -3.62721 0
M  V30 2166 H 206.497 -0.634666 -4.12749 0
M  V30 2167 N 206.934 1.1197 -1.10907 0
M  V30 2168 C 207.864 2.19928 -0.784473 0
M  V30 2169 C 208.845 1.6833 0.244726 0
M  V30 2170 O 210.03 1.93892 0.109418 0
M  V30 2171 C 207.16 3.46597 -0.220827 0
M  V30 2172 C 206.114 4.11376 -1.18127 0
M  V30 2173 C 205.44 5.32554 -0.478594 0
M  V30 2174 C 206.74 4.56945 -2.52979 0
M  V30 2175 H 208.434 2.47337 -1.68715 0
M  V30 2176 H 205.98 1.18879 -0.812642 0
M  V30 2177 H 207.933 4.21396 0.0184278 0
M  V30 2178 H 206.657 3.1863 0.717113 0
M  V30 2179 H 205.316 3.38564 -1.40606 0
M  V30 2180 H 204.964 5.00856 0.463976 0
M  V30 2181 H 204.664 5.76844 -1.11912 0
M  V30 2182 H 206.188 6.10096 -0.248 0
M  V30 2183 H 207.602 5.23093 -2.3462 0
M  V30 2184 H 205.999 5.1203 -3.12962 0
M  V30 2185 H 207.069 3.70676 -3.12614 0
M  V30 2186 N 208.412 0.89855 1.29475 0
M  V30 2187 C 209.828 0.594483 1.48115 0
M  V30 2188 C 210.028 -0.86431 1.82022 0
M  V30 2189 O 209.084 -1.64457 1.91599 0
M  V30 2190 C 210.397 1.51932 2.59494 0
M  V30 2191 C 211.945 1.5244 2.7337 0
M  V30 2192 C 212.42 2.43548 3.87877 0
M  V30 2193 N 213.911 2.41589 3.95208 0
M  V30 2194 C 214.646 3.08789 4.83153 0
M  V30 2195 N 214.142 3.85265 5.75798 0
M  V30 2196 N 215.935 2.97952 4.76635 0
M  V30 2197 H 208.086 1.84207 1.05742 0
M  V30 2198 H 210.349 0.789251 0.525154 0
M  V30 2199 H 210.055 2.55865 2.41301 0
M  V30 2200 H 209.929 1.23899 3.56271 0
M  V30 2201 H 212.316 0.492518 2.90961 0
M  V30 2202 H 212.397 1.8451 1.77172 0
M  V30 2203 H 212.041 3.46829 3.71041 0
M  V30 2204 H 211.971 2.08788 4.83441 0
M  V30 2205 H 214.462 1.86025 3.28943 0
M  V30 2206 H 214.775 4.33598 6.39697 0
M  V30 2207 H 213.12 3.89371 5.75687 0
M  V30 2208 H 216.311 2.37723 4.03244 0
M  V30 2209 H 216.484 3.50599 5.44962 0
M  V30 2210 N 209.89 -1.43072 0.660911 0
M  V30 2211 C 211.118 -2.06067 0.185422 0
M  V30 2212 C 211.533 -1.49582 -1.15198 0
M  V30 2213 O 210.89 -0.630134 -1.71276 0
M  V30 2214 C 210.941 -3.61371 0.0966523 0
M  V30 2215 O 210.662 -4.15758 1.38119 0
M  V30 2216 C 212.163 -4.41455 -0.403996 0
M  V30 2217 H 209.383 -0.664459 0.0934604 0
M  V30 2218 H 211.927 -1.83447 0.90373 0
M  V30 2219 H 210.082 -3.8315 -0.572259 0
M  V30 2220 H 210.496 -5.09499 1.24542 0
M  V30 2221 H 211.97 -5.50437 -0.415045 0
M  V30 2222 H 212.447 -4.15036 -1.43674 0
M  V30 2223 H 213.053 -4.24663 0.232691 0
M  V30 2224 N 211.368 -0.403325 -1.52352 0
M  V30 2225 C 212.616 0.174003 -2.0135 0
M  V30 2226 C 212.937 1.46139 -1.29106 0
M  V30 2227 O 212.207 1.91448 -0.415253 0
M  V30 2228 H 210.787 0.0672911 -0.743963 0
M  V30 2229 H 213.449 -0.538235 -1.87321 0
M  V30 2230 H 212.545 0.374254 -3.09848 0
M  V30 2231 N 212.846 1.57033 -0.133567 0
M  V30 2232 C 213.756 2.19632 0.824564 0
M  V30 2233 C 214.772 1.17666 1.28182 0
M  V30 2234 O 215.948 1.50193 1.3418 0
M  V30 2235 C 213.013 2.79499 2.05137 0
M  V30 2236 C 212.074 3.96548 1.64464 0
M  V30 2237 C 211.307 4.5355 2.81297 0
M  V30 2238 O 211.53 4.09438 3.97136 0
M  V30 2239 O 210.464 5.44018 2.57542 0
M  V30 2240 H 214.29 3.01991 0.321766 0
M  V30 2241 H 211.875 1.49112 0.0927889 0
M  V30 2242 H 213.757 3.17602 2.7696 0
M  V30 2243 H 212.432 2.00162 2.54395 0
M  V30 2244 H 211.339 3.63186 0.897048 0
M  V30 2245 H 212.672 4.77364 1.19934 0
M  V30 2246 N 214.325 -0.140222 1.56975 0
M  V30 2247 C 215.258 -1.20266 1.93936 0
M  V30 2248 C 216.236 -1.41212 0.806099 0
M  V30 2249 O 217.42 -1.55713 1.06234 0
M  V30 2250 C 214.547 -2.56037 2.21726 0
M  V30 2251 C 213.593 -2.51646 3.44349 0
M  V30 2252 S 214.426 -1.97678 4.97678 0
M  V30 2253 C 215.582 -3.35165 5.28597 0
M  V30 2254 H 215.815 -0.887358 2.83749 0
M  V30 2255 H 213.348 -0.346119 1.50471 0
M  V30 2256 H 215.306 -3.34167 2.38416 0
M  V30 2257 H 213.967 -2.84755 1.32566 0
M  V30 2258 H 213.16 -3.51608 3.61092 0
M  V30 2259 H 212.762 -1.81628 3.26936 0
M  V30 2260 H 215.054 -4.31302 5.2248 0
M  V30 2261 H 215.997 -3.23269 6.30002 0
M  V30 2262 H 216.405 -3.32614 4.56101 0
M  V30 2263 N 215.803 -1.52179 -0.40978 0
M  V30 2264 C 217.028 -1.70347 -1.18308 0
M  V30 2265 C 217.453 -0.411887 -1.83535 0
M  V30 2266 O 216.811 0.630587 -1.6998 0
M  V30 2267 C 216.859 -2.83977 -2.22238 0
M  V30 2268 O 215.963 -2.495 -3.28365 0
M  V30 2269 H 215.304 -0.567103 -0.345384 0
M  V30 2270 H 217.834 -1.98879 -0.480445 0
M  V30 2271 H 217.844 -3.0887 -2.66577 0
M  V30 2272 H 216.519 -3.77685 -1.74146 0
M  V30 2273 H 215.096 -2.35277 -2.89308 0
M  V30 2274 N 217.281 0.66697 -1.42791 0
M  V30 2275 C 218.529 1.42417 -1.43394 0
M  V30 2276 C 218.85 1.94925 -0.0542373 0
M  V30 2277 O 218.12 1.73564 0.908415 0
M  V30 2278 H 216.7 0.528515 -0.527902 0
M  V30 2279 H 219.362 0.787562 -1.78279 0
M  V30 2280 H 218.458 2.27333 -2.13837 0
M  V30 2281 N 218.759 1.29093 0.90403 0
M  V30 2282 C 220.17 1.15186 1.46932 0
M  V30 2283 C 220.521 -0.254587 1.94541 0
M  V30 2284 O 219.646 -1.14972 1.83332 0
M  V30 2285 C 220.241 2.08492 2.67051 0
M  V30 2286 C 218.8 1.98621 3.19729 0
M  V30 2287 C 217.947 1.9967 1.92425 0
M  V30 2288 H 220.898 1.41641 0.715789 0
M  V30 2289 H 220.919 1.65461 3.42641 0
M  V30 2290 H 220.431 3.10847 2.3237 0
M  V30 2291 H 218.532 0.993389 3.59114 0
M  V30 2292 H 218.645 2.86068 3.8432 0
M  V30 2293 H 217.009 1.44208 2.09943 0
M  V30 2294 H 217.792 3.03721 1.60026 0
M  V30 2295 N 220.237 -1.11381 1.11499 0
M  V30 2296 C 221.483 -1.83403 0.865512 0
M  V30 2297 C 221.816 -1.84459 -0.607329 0
M  V30 2298 O 221.091 -1.29811 -1.44842 0
M  V30 2299 C 221.374 -3.30552 1.42855 0
M  V30 2300 C 221.227 -3.37886 2.96906 0
M  V30 2301 C 222.546 -4.26643 1.08 0
M  V30 2302 H 219.665 -0.665879 0.31587 0
M  V30 2303 H 222.307 -1.30601 1.37998 0
M  V30 2304 H 220.457 -3.75648 0.990985 0
M  V30 2305 H 222.129 -3.01343 3.49271 0
M  V30 2306 H 220.372 -2.78088 3.32941 0
M  V30 2307 H 221.043 -4.41458 3.31389 0
M  V30 2308 H 223.519 -3.89729 1.45775 0
M  V30 2309 H 222.395 -5.27986 1.50072 0
M  V30 2310 H 222.656 -4.42099 -0.00915037 0
M  V30 2311 N 221.715 -0.905404 -1.28997 0
M  V30 2312 C 222.962 -0.534248 -1.95325 0
M  V30 2313 C 223.29 0.920535 -1.71337 0
M  V30 2314 O 222.545 1.66861 -1.02254 0
M  V30 2315 C 222.844 -0.779906 -3.48787 0
M  V30 2316 C 222.51 -2.21293 -3.92861 0
M  V30 2317 C 221.172 -2.60475 -4.04606 0
M  V30 2318 C 223.524 -3.14587 -4.15553 0
M  V30 2319 C 220.852 -3.9212 -4.36416 0
M  V30 2320 C 223.204 -4.45787 -4.48839 0
M  V30 2321 C 221.868 -4.84834 -4.58794 0
M  V30 2322 H 221.138 -0.195495 -0.714747 0
M  V30 2323 H 223.785 -1.14514 -1.53488 0
M  V30 2324 H 222.09 -0.0861365 -3.91705 0
M  V30 2325 H 223.787 -0.472029 -3.98212 0
M  V30 2326 H 220.377 -1.89887 -3.84241 0
M  V30 2327 H 224.561 -2.85528 -4.0594 0
M  V30 2328 H 219.817 -4.22086 -4.42327 0
M  V30 2329 H 223.991 -5.18098 -4.65346 0
M  V30 2330 H 221.618 -5.86877 -4.83197 0
M  V30 2331 N 223.193 1.4272 -0.668489 0
M  V30 2332 C 224.421 2.05966 -0.196348 0
M  V30 2333 C 224.836 1.50191 1.14403 0
M  V30 2334 O 224.193 0.639208 1.7094 0
M  V30 2335 C 224.244 3.61314 -0.115815 0
M  V30 2336 O 223.965 4.1502 -1.40322 0
M  V30 2337 C 225.466 4.41663 0.380579 0
M  V30 2338 H 222.686 0.663954 -0.0969829 0
M  V30 2339 H 225.23 1.82966 -0.913446 0
M  V30 2340 H 223.385 3.83448 0.551931 0
M  V30 2341 H 223.799 5.08832 -1.27243 0
M  V30 2342 H 225.273 5.5065 0.385848 0
M  V30 2343 H 225.75 4.15792 1.41471 0
M  V30 2344 H 226.356 4.24534 -0.255209 0
M  V30 2345 N 224.671 0.411399 1.52136 0
M  V30 2346 C 225.948 -0.222308 1.94333 0
M  V30 2347 C 226.328 -1.6242 1.34844 0
M  V30 2348 O 225.676 -2.22384 0.525145 0
M  V30 2349 C 225.886 -0.226345 3.48265 0
M  V30 2350 C 227.234 -0.444592 4.22266 0
M  V30 2351 O 228.258 -0.305602 3.54887 0
M  V30 2352 O 227.117 -0.718749 5.41753 0
M  V30 2353 H 224.211 -0.143907 0.814383 0
M  V30 2354 H 226.757 0.467506 1.63133 0
M  V30 2355 H 225.529 0.75475 3.83952 0
M  V30 2356 H 225.152 -0.960163 3.85832 0
M  V30 2357 N 226.149 -1.5696 0.141893 0
M  V30 2358 C 227.374 -2.00754 -0.520838 0
M  V30 2359 C 227.799 -1.0213 -1.57959 0
M  V30 2360 O 227.157 0.00371324 -1.813 0
M  V30 2361 C 227.205 -3.43318 -1.10294 0
M  V30 2362 O 226.309 -3.47679 -2.21795 0
M  V30 2363 H 225.65 -0.651564 -0.127908 0
M  V30 2364 H 228.18 -2.03221 0.23712 0
M  V30 2365 H 228.19 -3.82012 -1.43287 0
M  V30 2366 H 226.865 -4.14608 -0.327574 0
M  V30 2367 H 225.442 -3.20824 -1.9007 0
M  V30 2368 N 227.627 0.131896 -1.57047 0
M  V30 2369 C 228.875 0.840269 -1.83804 0
M  V30 2370 C 229.196 1.81017 -0.72512 0
M  V30 2371 O 228.466 1.94272 0.251995 0
M  V30 2372 H 227.046 0.313294 -0.678127 0
M  V30 2373 H 229.708 0.122294 -1.94516 0
M  V30 2374 H 228.804 1.39335 -2.79271 0
M  V30 2375 N 229.106 1.52395 0.401703 0
M  V30 2376 C 230.355 1.66044 1.14509 0
M  V30 2377 C 230.668 0.400216 1.91462 0
M  V30 2378 O 231.874 0.416632 2.68284 0
M  V30 2379 C 230.33 2.93388 2.0845 0
M  V30 2380 C 229.938 4.26545 1.36978 0
M  V30 2381 C 231.682 3.16402 2.83001 0
M  V30 2382 C 229.589 5.45007 2.29611 0
M  V30 2383 H 228.519 0.618562 0.431158 0
M  V30 2384 H 231.17 1.78886 0.40892 0
M  V30 2385 H 229.552 2.74263 2.8565 0
M  V30 2386 H 230.726 4.56179 0.650916 0
M  V30 2387 H 229.041 4.09692 0.74438 0
M  V30 2388 H 231.638 4.02085 3.52465 0
M  V30 2389 H 231.981 2.30943 3.46368 0
M  V30 2390 H 232.514 3.36034 2.12898 0
M  V30 2391 H 229.253 6.32835 1.70879 0
M  V30 2392 H 228.773 5.19702 2.9945 0
M  V30 2393 H 230.452 5.7838 2.89974 0
M  V30 2394 N 230.584 -0.659388 1.43143 0
M  V30 2395 C 231.534 -1.7655 1.44271 0
M  V30 2396 C 232.518 -1.57847 0.311961 0
M  V30 2397 O 233.71 -1.68064 0.555306 0
M  V30 2398 C 230.839 -3.15104 1.36251 0
M  V30 2399 C 229.925 -3.39377 2.54331 0
M  V30 2400 N 230.316 -3.34153 3.79704 0
M  V30 2401 C 228.614 -3.70072 2.48922 0
M  V30 2402 C 229.315 -3.58337 4.58225 0
M  V30 2403 N 228.291 -3.79851 3.88863 0
M  V30 2404 H 232.093 -1.70928 2.39083 0
M  V30 2405 H 229.607 -0.860823 1.37708 0
M  V30 2406 H 231.604 -3.94389 1.35141 0
M  V30 2407 H 230.264 -3.21913 0.424531 0
M  V30 2408 H 231.275 -3.13704 4.1208 0
M  V30 2409 H 227.952 -3.84034 1.63781 0
M  V30 2410 H 229.342 -3.60129 5.67236 0
M  V30 2411 N 232.062 -1.29571 -0.897171 0
M  V30 2412 C 233.311 -1.1706 -1.64256 0
M  V30 2413 C 233.624 0.276476 -1.93636 0
M  V30 2414 O 234.83 0.52294 -2.66416 0
M  V30 2415 C 233.286 -2.0475 -2.95982 0
M  V30 2416 C 232.894 -3.54295 -2.74187 0
M  V30 2417 C 234.638 -2.0097 -3.73914 0
M  V30 2418 C 232.545 -4.34081 -4.01656 0
M  V30 2419 H 231.475 -0.43452 -0.616205 0
M  V30 2420 H 234.126 -1.54229 -0.994268 0
M  V30 2421 H 232.508 -1.60452 -3.62038 0
M  V30 2422 H 233.682 -4.06662 -2.1671 0
M  V30 2423 H 231.997 -3.59773 -2.09648 0
M  V30 2424 H 234.594 -2.57838 -4.68427 0
M  V30 2425 H 234.937 -0.990273 -4.0435 0
M  V30 2426 H 235.47 -2.43325 -3.14703 0
M  V30 2427 H 232.209 -5.36671 -3.76384 0
M  V30 2428 H 231.729 -3.86483 -4.58684 0
M  V30 2429 H 233.408 -4.44877 -4.69781 0
M  V30 2430 N 233.54 1.10788 -1.12088 0
M  V30 2431 C 234.789 1.82036 -0.868659 0
M  V30 2432 C 235.102 1.85929 0.607426 0
M  V30 2433 O 236.308 2.53346 0.97613 0
M  V30 2434 C 234.764 3.26951 -1.50435 0
M  V30 2435 C 234.372 3.31367 -3.01496 0
M  V30 2436 C 236.116 4.03053 -1.33225 0
M  V30 2437 C 234.023 4.7072 -3.58017 0
M  V30 2438 H 232.953 0.682108 -0.321318 0
M  V30 2439 H 235.604 1.24618 -1.34694 0
M  V30 2440 H 233.986 3.84343 -0.953735 0
M  V30 2441 H 235.16 2.83819 -3.6302 0
M  V30 2442 H 233.475 2.6875 -3.18061 0
M  V30 2443 H 236.072 5.05981 -1.72878 0
M  V30 2444 H 236.415 4.15387 -0.275529 0
M  V30 2445 H 236.948 3.52066 -1.85188 0
M  V30 2446 H 233.687 4.63585 -4.63432 0
M  V30 2447 H 233.207 5.1865 -3.01268 0
M  V30 2448 H 234.886 5.39685 -3.56859 0
M  V30 2449 N 235.018 0.912232 1.28515 0
M  V30 2450 C 235.948 0.416403 2.29757 0
M  V30 2451 C 236.929 -0.515194 1.6211 0
M  V30 2452 O 238.114 -0.423253 1.89532 0
M  V30 2453 C 235.244 -0.34572 3.45575 0
M  V30 2454 C 234.198 0.496599 4.25109 0
M  V30 2455 C 233.524 -0.393771 5.33248 0
M  V30 2456 C 234.824 1.75307 4.92001 0
M  V30 2457 H 236.518 1.26249 2.7148 0
M  V30 2458 H 234.064 0.608515 1.30511 0
M  V30 2459 H 236.017 -0.703422 4.15488 0
M  V30 2460 H 234.741 -1.2257 3.02728 0
M  V30 2461 H 233.4 0.8368 3.56922 0
M  V30 2462 H 233.048 -1.27225 4.86644 0
M  V30 2463 H 232.748 0.166209 5.87365 0
M  V30 2464 H 234.272 -0.747389 6.06009 0
M  V30 2465 H 235.686 1.46437 5.54283 0
M  V30 2466 H 234.083 2.25534 5.56106 0
M  V30 2467 H 235.153 2.48176 4.16577 0
M  V30 2468 N 236.496 -1.42363 0.676048 0
M  V30 2469 C 237.912 -1.55811 0.345718 0
M  V30 2470 C 238.112 -1.65544 -1.14879 0
M  V30 2471 O 237.168 -1.62306 -1.93424 0
M  V30 2472 C 238.481 -2.80746 1.07713 0
M  V30 2473 C 240.029 -2.9452 1.05958 0
M  V30 2474 C 240.504 -4.22318 1.77233 0
M  V30 2475 N 241.995 -4.29233 1.74108 0
M  V30 2476 C 242.73 -5.26935 2.26113 0
M  V30 2477 N 242.226 -6.30783 2.86505 0
M  V30 2478 N 244.019 -5.18741 2.1648 0
M  V30 2479 H 236.17 -1.34289 1.6456 0
M  V30 2480 H 238.433 -0.646506 0.69335 0
M  V30 2481 H 238.139 -2.79696 2.13221 0
M  V30 2482 H 238.013 -3.71676 0.64316 0
M  V30 2483 H 240.4 -2.95097 0.0128255 0
M  V30 2484 H 240.481 -2.04817 1.53244 0
M  V30 2485 H 240.125 -4.22502 2.81877 0
M  V30 2486 H 240.055 -5.10958 1.27396 0
M  V30 2487 H 242.546 -3.54814 1.30059 0
M  V30 2488 H 242.859 -7.01691 3.23805 0
M  V30 2489 H 241.204 -6.31341 2.90575 0
M  V30 2490 H 244.395 -4.36533 1.68987 0
M  V30 2491 H 244.568 -5.94721 2.57316 0
M  V30 2492 N 237.974 -0.419461 -1.51915 0
M  V30 2493 C 239.202 0.152136 -2.0634 0
M  V30 2494 C 239.617 1.37988 -1.28859 0
M  V30 2495 O 238.974 1.79243 -0.343232 0
M  V30 2496 C 239.025 0.492266 -3.58133 0
M  V30 2497 O 238.746 -0.686736 -4.32684 0
M  V30 2498 C 240.247 1.11648 -4.2901 0
M  V30 2499 H 237.467 0.0158325 -0.670813 0
M  V30 2500 H 240.011 -0.593394 -1.95702 0
M  V30 2501 H 238.166 1.18769 -3.68745 0
M  V30 2502 H 238.58 -0.400341 -5.2297 0
M  V30 2503 H 240.054 1.3046 -5.36362 0
M  V30 2504 H 240.531 2.09251 -3.86148 0
M  V30 2505 H 241.137 0.460958 -4.22795 0
M  V30 2506 N 239.452 1.56882 -0.150215 0
M  V30 2507 C 240.362 2.20494 0.801222 0
M  V30 2508 C 241.378 1.19019 1.26927 0
M  V30 2509 O 242.554 1.51607 1.32579 0
M  V30 2510 C 239.619 2.81659 2.02161 0
M  V30 2511 C 238.68 3.9827 1.60249 0
M  V30 2512 C 237.913 4.56508 2.7647 0
M  V30 2513 O 238.136 4.13627 3.92771 0
M  V30 2514 O 237.07 5.46719 2.51757 0
M  V30 2515 H 240.896 3.02315 0.289717 0
M  V30 2516 H 238.481 1.49202 0.0769684 0
M  V30 2517 H 240.363 3.20522 2.73576 0
M  V30 2518 H 239.038 2.02849 2.52258 0
M  V30 2519 H 237.945 3.64117 0.858477 0
M  V30 2520 H 239.278 4.78609 1.14864 0
M  V30 2521 O 240.969 0.011717 1.61496 0
M  V30 2522 H 241.66 -0.603327 1.84064 0
M  V30 END ATOM
M  V30 BEGIN BOND
M  V30 END BOND
M  V30 END CTAB
M  END
$$$$
