drugbank_target|Q13946 High affinity cAMP-specific 3',5'-cyclic phosphodiesterase 7A (DB07954; DB08602)
 OpenBabel12092119373D

  0  0  0     0  0            999 V3000
M  V30 BEGIN CTAB
M  V30 COUNTS 7739 7831 0 0 0
M  V30 BEGIN ATOM
M  V30 1 H -0.908 1.98254 -0.117106 0
M  V30 2 N 0 1.576 0 0
M  V30 3 C 0.933 2.03868 1.02534 0
M  V30 4 C 1.911 0.928543 1.3348 0
M  V30 5 O 3.095 1.19667 1.45644 0
M  V30 6 C 0.222 2.43627 2.35294 0
M  V30 7 C -0.732 3.65373 2.2001 0
M  V30 8 S 0.101 5.13292 1.52614 0
M  V30 9 C 1.257 5.56322 2.86805 0
M  V30 10 H 1.49 2.90518 0.631377 0
M  V30 11 H -0.977 1.52953 0.210867 0
M  V30 12 H 0.981 2.67203 3.11629 0
M  V30 13 H -0.358 1.57376 2.7183 0
M  V30 14 H -1.165 3.90944 3.18086 0
M  V30 15 H -1.563 3.418 1.51819 0
M  V30 16 H 0.729 5.58782 3.83104 0
M  V30 17 H 1.672 6.56266 2.65933 0
M  V30 18 H 2.08 4.83886 2.90714 0
M  V30 19 N 1.4781 -0.272755 1.55222 0
M  V30 20 C 2.3881 -1.35918 1.91216 0
M  V30 21 C 3.4041 -1.54026 0.809436 0
M  V30 22 O 4.5801 -1.68148 1.10852 0
M  V30 23 C 1.6451 -2.69834 2.17693 0
M  V30 24 C 0.7061 -2.6047 3.41253 0
M  V30 25 C -0.0609 -3.88 3.66458 0
M  V30 26 O 0.1621 -4.88693 2.94169 0
M  V30 27 O -0.9039 -3.88189 4.59992 0
M  V30 28 H 2.9221 -1.0839 2.83699 0
M  V30 29 H 0.5071 -0.471301 1.41771 0
M  V30 30 H 2.3891 -3.49017 2.36147 0
M  V30 31 H 1.0641 -2.97148 1.28392 0
M  V30 32 H -0.0289 -1.79663 3.28134 0
M  V30 33 H 1.3041 -2.38106 4.30774 0
M  V30 34 N 2.9562 -1.48159 -0.537278 0
M  V30 35 C 4.2022 -1.56035 -1.29541 0
M  V30 36 C 4.5352 -0.230377 -1.92829 0
M  V30 37 O 3.8102 0.762952 -1.78911 0
M  V30 38 C 4.0932 -2.69323 -2.39034 0
M  V30 39 C 3.9462 -4.12002 -1.80485 0
M  V30 40 C 5.2652 -2.78408 -3.40847 0
M  V30 41 H 2.3842 -0.567992 -0.469632 0
M  V30 42 H 5.0262 -1.80302 -0.599277 0
M  V30 43 H 3.1762 -2.48763 -2.98412 0
M  V30 44 H 4.8482 -4.43981 -1.25215 0
M  V30 45 H 3.0912 -4.19344 -1.11055 0
M  V30 46 H 3.7622 -4.87077 -2.59731 0
M  V30 47 H 6.2382 -2.97012 -2.91416 0
M  V30 48 H 5.1142 -3.59416 -4.14863 0
M  V30 49 H 5.3752 -1.86269 -4.00944 0
M  V30 50 N 4.4343 0.785586 -1.36625 0
M  V30 51 C 5.6743 1.55678 -1.32453 0
M  V30 52 C 6.0383 1.91769 0.0941089 0
M  V30 53 O 7.2393 2.67536 0.26042 0
M  V30 54 C 5.5103 2.79701 -2.22491 0
M  V30 55 S 7.0693 3.69907 -2.36038 0
M  V30 56 H 3.8873 0.533141 -0.470405 0
M  V30 57 H 6.4893 0.924953 -1.72235 0
M  V30 58 H 5.1933 2.51244 -3.24507 0
M  V30 59 H 4.7243 3.47854 -1.83742 0
M  V30 60 H 6.7393 4.71016 -1.56072 0
M  V30 61 N 5.9124 1.20967 1.01018 0
M  V30 62 C 7.1424 1.04803 1.78044 0
M  V30 63 C 7.5504 -0.405462 1.84804 0
M  V30 64 O 6.8934 -1.2932 1.30468 0
M  V30 65 C 6.9554 1.56377 3.23707 0
M  V30 66 C 6.6194 3.04767 3.40538 0
M  V30 67 C 7.6164 4.02366 3.29239 0
M  V30 68 C 5.3014 3.43862 3.66147 0
M  V30 69 C 7.2954 5.37049 3.43304 0
M  V30 70 C 4.9824 4.78699 3.79855 0
M  V30 71 C 5.9804 5.75101 3.68439 0
M  V30 72 O 5.6684 7.07493 3.81719 0
M  V30 73 H 5.4004 0.368778 0.56655 0
M  V30 74 H 7.9544 1.60642 1.27997 0
M  V30 75 H 6.1844 0.949297 3.74867 0
M  V30 76 H 7.8734 1.36136 3.8239 0
M  V30 77 H 8.6394 3.73506 3.09384 0
M  V30 78 H 4.5184 2.69364 3.74118 0
M  V30 79 H 8.0624 6.12277 3.34309 0
M  V30 80 H 3.9594 5.07247 3.99213 0
M  V30 81 H 4.7274 7.1483 3.98697 0
M  V30 82 N 7.3905 -1.2043 1.01659 0
M  V30 83 C 8.3225 -2.22626 0.544988 0
M  V30 84 C 9.3355 -1.58479 -0.372609 0
M  V30 85 O 10.5245 -1.77679 -0.170958 0
M  V30 86 C 7.6245 -3.38141 -0.22663 0
M  V30 87 C 6.7975 -4.31877 0.692876 0
M  V30 88 C 5.8565 -5.26191 -0.0311616 0
M  V30 89 O 4.8825 -5.6612 0.591343 0
M  V30 90 N 6.0845 -5.65618 -1.30601 0
M  V30 91 H 8.8495 -2.63716 1.42388 0
M  V30 92 H 6.4105 -1.34971 0.894116 0
M  V30 93 H 8.4025 -3.98239 -0.72024 0
M  V30 94 H 6.9725 -2.95943 -1.00681 0
M  V30 95 H 6.1925 -3.69746 1.36679 0
M  V30 96 H 7.4805 -4.91426 1.31824 0
M  V30 97 H 6.8785 -5.3519 -1.83269 0
M  V30 98 H 5.4355 -6.28025 -1.74435 0
M  V30 99 N 8.8686 -0.792821 -1.36206 0
M  V30 100 C 9.7986 -0.207853 -2.32573 0
M  V30 101 C 10.7796 0.659055 -1.56813 0
M  V30 102 O 11.9646 0.592176 -1.84951 0
M  V30 103 C 9.0946 0.655449 -3.41059 0
M  V30 104 C 8.0486 -0.111842 -4.27854 0
M  V30 105 C 7.3746 0.872274 -5.27537 0
M  V30 106 C 8.6746 -1.30299 -5.05786 0
M  V30 107 H 10.3686 -1.01294 -2.81744 0
M  V30 108 H 7.9146 -0.48854 -1.3546 0
M  V30 109 H 9.8676 1.07464 -4.07467 0
M  V30 110 H 8.5916 1.49328 -2.90463 0
M  V30 111 H 7.2506 -0.512053 -3.63006 0
M  V30 112 H 6.8986 1.70523 -4.73214 0
M  V30 113 H 6.5986 0.363291 -5.86476 0
M  V30 114 H 8.1226 1.28996 -5.96818 0
M  V30 115 H 9.5366 -0.959379 -5.65216 0
M  V30 116 H 7.9336 -1.7455 -5.74154 0
M  V30 117 H 9.0036 -2.09663 -4.37229 0
M  V30 118 N 10.3467 1.47872 -0.545128 0
M  V30 119 C 11.7577 1.86384 -0.108581 0
M  V30 120 C 12.1087 1.45309 1.31832 0
M  V30 121 O 11.2337 0.850641 1.9898 0
M  V30 122 C 11.8287 3.38265 -0.190274 0
M  V30 123 C 10.3877 3.75914 0.191164 0
M  V30 124 C 9.5347 2.71926 -0.543273 0
M  V30 125 H 12.4857 1.39561 -0.755537 0
M  V30 126 H 12.5067 3.75831 0.594217 0
M  V30 127 H 12.0187 3.6813 -1.2289 0
M  V30 128 H 10.1197 3.51665 1.23136 0
M  V30 129 H 10.2327 4.78836 -0.158987 0
M  V30 130 H 8.5967 2.54697 0.0122495 0
M  V30 131 H 9.3797 3.04634 -1.58282 0
M  V30 132 N 11.8248 0.280983 1.55075 0
M  V30 133 C 13.0708 -0.33461 2.00021 0
M  V30 134 C 13.4038 -1.55063 1.16915 0
M  V30 135 O 12.6788 -1.93006 0.240646 0
M  V30 136 C 12.9618 -0.711007 3.53011 0
M  V30 137 C 12.8148 0.512766 4.46868 0
M  V30 138 C 14.1338 -1.54522 4.12081 0
M  V30 139 H 11.2528 -0.120147 0.727141 0
M  V30 140 H 13.8948 0.389097 1.85973 0
M  V30 141 H 12.0448 -1.32761 3.65112 0
M  V30 142 H 13.7168 1.15131 4.46702 0
M  V30 143 H 11.9598 1.14975 4.18286 0
M  V30 144 H 12.6308 0.205556 5.51617 0
M  V30 145 H 15.1068 -1.02442 4.03293 0
M  V30 146 H 13.9828 -1.77739 5.19327 0
M  V30 147 H 14.2438 -2.52813 3.62682 0
M  V30 148 N 13.3029 -1.57598 0.00835791 0
M  V30 149 C 14.2329 -2.1198 -0.979113 0
M  V30 150 C 15.2139 -1.03091 -1.35301 0
M  V30 151 O 16.3989 -1.30818 -1.43528 0
M  V30 152 C 13.5289 -2.62995 -2.26828 0
M  V30 153 C 12.4829 -3.76485 -2.03576 0
M  V30 154 C 11.8089 -4.13846 -3.38579 0
M  V30 155 C 13.1089 -5.0342 -1.39161 0
M  V30 156 H 14.8029 -2.94738 -0.526281 0
M  V30 157 H 12.3489 -1.41783 -0.251704 0
M  V30 158 H 14.3019 -2.99669 -2.96271 0
M  V30 159 H 13.0259 -1.7737 -2.7424 0
M  V30 160 H 11.6849 -3.40217 -1.36557 0
M  V30 161 H 11.3329 -3.25232 -3.83709 0
M  V30 162 H 11.0329 -4.90312 -3.23834 0
M  V30 163 H 12.5569 -4.53086 -4.09323 0
M  V30 164 H 13.9709 -5.37812 -1.98573 0
M  V30 165 H 12.3679 -5.84746 -1.34878 0
M  V30 166 H 13.4379 -4.83548 -0.361868 0
M  V30 167 N 14.781 0.264519 -1.55364 0
M  V30 168 C 16.192 0.834936 -1.6699 0
M  V30 169 C 16.543 1.86718 -0.602552 0
M  V30 170 O 15.668 2.14899 0.254425 0
M  V30 171 C 16.263 1.5212 -3.02729 0
M  V30 172 C 14.822 2.03954 -3.16354 0
M  V30 173 C 13.969 0.884498 -2.62815 0
M  V30 174 H 16.92 0.0406869 -1.58648 0
M  V30 175 H 16.941 2.38853 -2.96191 0
M  V30 176 H 16.453 0.769668 -3.80392 0
M  V30 177 H 14.554 2.82041 -2.43482 0
M  V30 178 H 14.667 2.24902 -4.23032 0
M  V30 179 H 13.031 1.2802 -2.20188 0
M  V30 180 H 13.814 0.14634 -3.42988 0
M  V30 181 N 16.2591 1.48442 0.529413 0
M  V30 182 C 17.1891 1.65902 1.64313 0
M  V30 183 C 18.1701 0.507897 1.6234 0
M  V30 184 O 19.3551 0.740503 1.79528 0
M  V30 185 C 16.4851 1.69911 3.02898 0
M  V30 186 C 15.4391 2.8453 3.19729 0
M  V30 187 C 14.7651 2.73629 4.59381 0
M  V30 188 C 16.0651 4.25821 3.02447 0
M  V30 189 H 17.7591 2.5914 1.49955 0
M  V30 190 H 15.3051 1.24709 0.719982 0
M  V30 191 H 17.2581 1.80715 3.80684 0
M  V30 192 H 15.9821 0.732524 3.18279 0
M  V30 193 H 14.6411 2.73283 2.44361 0
M  V30 194 H 14.2891 1.74938 4.71599 0
M  V30 195 H 13.9891 3.50541 4.71588 0
M  V30 196 H 15.5131 2.86401 5.39265 0
M  V30 197 H 16.9271 4.37898 3.70024 0
M  V30 198 H 15.3241 5.03735 3.26146 0
M  V30 199 H 16.3941 4.42244 1.98867 0
M  V30 200 N 17.7372 -0.778329 1.37039 0
M  V30 201 C 19.0142 -1.52551 1.22424 0
M  V30 202 C 19.3942 -2.10288 -0.184964 0
M  V30 203 O 18.7422 -1.94953 -1.19187 0
M  V30 204 C 18.9522 -2.61164 2.31504 0
M  V30 205 C 20.3002 -3.28746 2.68721 0
M  V30 206 O 21.3242 -2.71455 2.30631 0
M  V30 207 O 20.1832 -4.3231 3.3432 0
M  V30 208 H 17.2772 -0.675343 0.477326 0
M  V30 209 H 19.8232 -0.815859 1.48801 0
M  V30 210 H 18.5952 -2.16574 3.25901 0
M  V30 211 H 18.2182 -3.39737 2.06554 0
M  V30 212 N 19.2153 -1.21501 -1.00376 0
M  V30 213 C 20.6313 -0.972629 -1.26539 0
M  V30 214 C 20.8313 0.340257 -1.98606 0
M  V30 215 O 19.8873 1.06561 -2.28913 0
M  V30 216 C 21.2003 -2.16404 -2.08781 0
M  V30 217 C 22.7483 -2.20643 -2.22004 0
M  V30 218 C 23.2233 -3.39306 -3.07629 0
M  V30 219 N 24.7143 -3.39401 -3.15217 0
M  V30 220 C 25.4493 -4.27867 -3.81729 0
M  V30 221 N 24.9453 -5.26533 -4.5026 0
M  V30 222 N 26.7383 -4.15672 -3.78382 0
M  V30 223 H 18.8893 -2.05929 -0.520281 0
M  V30 224 H 21.1523 -0.901803 -0.292328 0
M  V30 225 H 20.8583 -3.11554 -1.63178 0
M  V30 226 H 20.7323 -2.15567 -3.09533 0
M  V30 227 H 23.1193 -1.26048 -2.66825 0
M  V30 228 H 23.2003 -2.25523 -1.20718 0
M  V30 229 H 22.8443 -4.34195 -2.63509 0
M  V30 230 H 22.7743 -3.31665 -4.09031 0
M  V30 231 H 25.2653 -2.67997 -2.66432 0
M  V30 232 H 25.5783 -5.90337 -4.98721 0
M  V30 233 H 23.9233 -5.30457 -4.49044 0
M  V30 234 H 27.1143 -3.3785 -3.23998 0
M  V30 235 H 27.2873 -4.84825 -4.2994 0
M  V30 236 N 20.6934 1.19889 -1.02296 0
M  V30 237 C 22.1044 1.71124 -0.746568 0
M  V30 238 C 22.4554 1.81939 0.734335 0
M  V30 239 O 21.5804 1.48639 1.57275 0
M  V30 240 C 22.1754 3.10804 -1.34857 0
M  V30 241 C 20.7344 3.59323 -1.1209 0
M  V30 242 C 19.8814 2.3635 -1.45031 0
M  V30 243 H 22.8324 1.04813 -1.19163 0
M  V30 244 H 22.8534 3.73186 -0.742437 0
M  V30 245 H 22.3654 3.029 -2.42638 0
M  V30 246 H 20.4664 3.7255 -0.0610337 0
M  V30 247 H 20.5794 4.4378 -1.80544 0
M  V30 248 H 18.9434 2.39399 -0.869487 0
M  V30 249 H 19.7264 2.31081 -2.53883 0
M  V30 250 N 22.1715 0.800033 1.35784 0
M  V30 251 C 23.4175 0.377901 1.99248 0
M  V30 252 C 23.7505 -1.05052 1.63333 0
M  V30 253 O 23.0255 -1.72768 0.893385 0
M  V30 254 C 23.3085 0.553922 3.55814 0
M  V30 255 C 23.1615 2.0268 4.01548 0
M  V30 256 C 24.4805 -0.0244802 4.40093 0
M  V30 257 H 21.5995 0.138782 0.723815 0
M  V30 258 H 24.2415 1.00835 1.61035 0
M  V30 259 H 22.3915 0.0172398 3.88496 0
M  V30 260 H 24.0635 2.62536 3.79305 0
M  V30 261 H 22.3065 2.5256 3.52698 0
M  V30 262 H 22.9775 2.10087 5.10458 0
M  V30 263 H 25.4535 0.433775 4.13833 0
M  V30 264 H 24.3295 0.128637 5.48749 0
M  V30 265 H 24.5905 -1.11758 4.27741 0
M  V30 266 N 23.6496 -1.47581 0.552962 0
M  V30 267 C 25.0606 -1.86324 0.118463 0
M  V30 268 C 25.4116 -1.46006 -1.3106 0
M  V30 269 O 24.5366 -0.861182 -1.98526 0
M  V30 270 C 25.1316 -3.3816 0.20821 0
M  V30 271 C 23.6906 -3.7601 -0.171226 0
M  V30 272 C 22.8376 -2.71634 0.557686 0
M  V30 273 H 25.7886 -1.39159 0.762928 0
M  V30 274 H 25.8096 -3.76141 -0.574278 0
M  V30 275 H 25.3216 -3.67473 1.24841 0
M  V30 276 H 23.4226 -3.52313 -1.21269 0
M  V30 277 H 23.5356 -4.78745 0.184379 0
M  V30 278 H 21.8996 -2.547 0.00125792 0
M  V30 279 H 22.6826 -3.0379 1.59896 0
M  V30 280 N 25.1277 -0.289203 -1.54924 0
M  V30 281 C 26.0597 0.625583 -2.20497 0
M  V30 282 C 27.0727 1.10667 -1.19402 0
M  V30 283 O 28.2617 1.02615 -1.46056 0
M  V30 284 C 25.3617 1.86702 -2.82835 0
M  V30 285 C 24.5347 1.5304 -4.09753 0
M  V30 286 C 23.5937 2.62576 -4.56005 0
M  V30 287 O 22.6197 2.28167 -5.21468 0
M  V30 288 N 23.8217 3.92901 -4.27328 0
M  V30 289 H 26.5867 0.0642801 -2.99631 0
M  V30 290 H 24.1477 -0.110896 -1.6152 0
M  V30 291 H 26.1397 2.59304 -3.10715 0
M  V30 292 H 24.7097 2.33702 -2.07611 0
M  V30 293 H 23.9297 0.637564 -3.8901 0
M  V30 294 H 25.2177 1.28072 -4.92418 0
M  V30 295 H 24.6157 4.23671 -3.74859 0
M  V30 296 H 23.1727 4.61837 -4.59946 0
M  V30 297 N 26.6058 1.57591 -0.0167156 0
M  V30 298 C 27.5558 2.05953 0.978137 0
M  V30 299 C 28.5398 0.957532 1.29306 0
M  V30 300 O 29.7318 1.22119 1.28125 0
M  V30 301 C 26.8608 2.58006 2.26468 0
M  V30 302 C 25.9468 3.75113 1.97867 0
M  V30 303 N 26.3378 4.86187 1.39486 0
M  V30 304 C 24.6358 3.83363 2.27924 0
M  V30 305 C 25.3368 5.67502 1.27735 0
M  V30 306 N 24.3128 5.14023 1.76866 0
M  V30 307 H 28.1148 2.89236 0.521522 0
M  V30 308 H 25.6288 1.61301 0.188596 0
M  V30 309 H 27.6258 2.90937 2.98599 0
M  V30 310 H 26.2858 1.76148 2.72767 0
M  V30 311 H 27.2968 5.06695 1.07147 0
M  V30 312 H 23.9738 3.1239 2.76982 0
M  V30 313 H 25.3638 6.66791 0.826978 0
M  V30 314 N 28.0839 -0.256276 1.55502 0
M  V30 315 C 29.3299 -0.987079 1.77157 0
M  V30 316 C 29.6629 -1.85327 0.580315 0
M  V30 317 O 28.9379 -1.89874 -0.421686 0
M  V30 318 C 29.2209 -1.85553 3.08613 0
M  V30 319 C 29.0739 -1.01816 4.38125 0
M  V30 320 C 30.3929 -2.8397 3.36228 0
M  V30 321 H 27.5119 -0.357428 0.644526 0
M  V30 322 H 30.1539 -0.258239 1.88237 0
M  V30 323 H 28.3039 -2.47695 2.99298 0
M  V30 324 H 29.9759 -0.416159 4.59419 0
M  V30 325 H 28.2189 -0.322178 4.32602 0
M  V30 326 H 28.8899 -1.65939 5.26468 0
M  V30 327 H 31.3659 -2.31964 3.45445 0
M  V30 328 H 30.2419 -3.41864 4.29442 0
M  V30 329 H 30.5029 -3.59955 2.56681 0
M  V30 330 N 29.562 -1.4872 -0.521534 0
M  V30 331 C 30.492 -1.66771 -1.63431 0
M  V30 332 C 31.473 -0.516499 -1.62069 0
M  V30 333 O 32.658 -0.750013 -1.79132 0
M  V30 334 C 29.788 -1.71515 -3.01993 0
M  V30 335 C 28.742 -2.86222 -3.18216 0
M  V30 336 C 28.068 -2.76061 -4.57924 0
M  V30 337 C 29.368 -4.27419 -3.00184 0
M  V30 338 H 31.062 -2.59932 -1.48579 0
M  V30 339 H 28.608 -1.25089 -0.713358 0
M  V30 340 H 30.561 -1.82731 -3.7972 0
M  V30 341 H 29.285 -0.749393 -3.17886 0
M  V30 342 H 27.944 -2.74575 -2.42908 0
M  V30 343 H 27.592 -1.77437 -4.70665 0
M  V30 344 H 27.292 -3.53037 -4.69722 0
M  V30 345 H 28.816 -2.89256 -5.37739 0
M  V30 346 H 30.23 -4.39855 -3.67697 0
M  V30 347 H 28.627 -5.05458 -3.2347 0
M  V30 348 H 29.697 -4.43293 -1.96518 0
M  V30 349 N 31.0401 0.771051 -1.3745 0
M  V30 350 C 32.2651 1.56529 -1.36065 0
M  V30 351 C 32.6901 1.88029 0.0515859 0
M  V30 352 O 32.0481 1.49282 1.02882 0
M  V30 353 C 32.0961 2.85187 -2.20683 0
M  V30 354 O 31.2001 3.79593 -1.61193 0
M  V30 355 H 30.5411 0.47411 -0.464883 0
M  V30 356 H 33.0711 0.954269 -1.80983 0
M  V30 357 H 33.0811 3.34283 -2.33921 0
M  V30 358 H 31.7561 2.61588 -3.23334 0
M  V30 359 H 30.3331 3.38239 -1.56999 0
M  V30 360 N 32.5182 1.22032 0.997298 0
M  V30 361 C 33.9342 0.979326 1.26021 0
M  V30 362 C 34.1342 -0.32972 1.98784 0
M  V30 363 O 33.1902 -1.05345 2.29475 0
M  V30 364 C 34.5032 2.17509 2.07631 0
M  V30 365 C 36.0512 2.21817 2.2083 0
M  V30 366 C 36.5262 3.40933 3.05825 0
M  V30 367 N 38.0172 3.41067 3.13412 0
M  V30 368 C 38.7522 4.29885 3.79455 0
M  V30 369 N 38.2482 5.28914 4.47462 0
M  V30 370 N 40.0412 4.17673 3.76173 0
M  V30 371 H 32.1922 2.06202 0.509352 0
M  V30 372 H 34.4552 0.90334 0.287541 0
M  V30 373 H 34.1612 3.12415 1.61524 0
M  V30 374 H 34.0352 2.17206 3.08385 0
M  V30 375 H 36.4222 1.27462 2.66153 0
M  V30 376 H 36.5032 2.2616 1.1952 0
M  V30 377 H 36.1472 4.35586 2.61203 0
M  V30 378 H 36.0772 3.33829 4.07266 0
M  V30 379 H 38.5682 2.69406 2.65007 0
M  V30 380 H 38.8812 5.92973 4.95583 0
M  V30 381 H 37.2262 5.32831 4.46224 0
M  V30 382 H 40.4172 3.39564 3.22202 0
M  V30 383 H 40.5902 4.87098 4.27363 0
M  V30 384 N 33.9963 -1.19345 1.0293 0
M  V30 385 C 35.4123 -1.41069 0.746446 0
M  V30 386 C 35.6123 -1.90078 -0.668776 0
M  V30 387 O 34.6683 -2.0778 -1.4347 0
M  V30 388 C 35.9813 -2.42141 1.78292 0
M  V30 389 C 37.5293 -2.55887 1.80252 0
M  V30 390 C 38.0043 -3.60214 2.8286 0
M  V30 391 N 39.4953 -3.67711 2.81679 0
M  V30 392 C 40.2303 -4.48128 3.57727 0
M  V30 393 N 39.7263 -5.32248 4.43491 0
M  V30 394 N 41.5193 -4.42782 3.46267 0
M  V30 395 H 33.6703 -0.858536 1.94275 0
M  V30 396 H 35.9333 -0.439541 0.839945 0
M  V30 397 H 35.6393 -2.13155 2.79746 0
M  V30 398 H 35.5133 -3.41323 1.60557 0
M  V30 399 H 37.9003 -2.84196 0.794757 0
M  V30 400 H 37.9813 -1.56858 2.02062 0
M  V30 401 H 37.6253 -3.32647 3.83807 0
M  V30 402 H 37.5553 -4.58895 2.58307 0
M  V30 403 H 40.0463 -3.07634 2.19476 0
M  V30 404 H 40.3593 -5.90729 4.98256 0
M  V30 405 H 38.7043 -5.31707 4.47564 0
M  V30 406 H 41.8953 -3.76107 2.78677 0
M  V30 407 H 42.0683 -5.05215 4.05785 0
M  V30 408 N 35.4744 -0.807222 -1.35358 0
M  V30 409 C 36.7224 -0.387122 -1.98358 0
M  V30 410 C 37.0434 1.04942 -1.64354 0
M  V30 411 O 36.3134 1.72615 -0.926339 0
M  V30 412 H 34.8934 -0.140154 -0.733734 0
M  V30 413 H 37.5554 -1.0332 -1.6526 0
M  V30 414 H 36.6514 -0.493352 -3.08176 0
M  V30 415 N 36.9525 1.47285 -0.560781 0
M  V30 416 C 37.9155 2.28535 0.174488 0
M  V30 417 C 38.9155 1.37153 0.839388 0
M  V30 418 O 40.1055 1.59748 0.694702 0
M  V30 419 C 37.2375 3.16934 1.25561 0
M  V30 420 H 38.4305 2.95012 -0.539262 0
M  V30 421 H 35.9835 1.53034 -0.317865 0
M  V30 422 H 36.7185 2.55157 2.00164 0
M  V30 423 H 36.5035 3.8419 0.783604 0
M  V30 424 H 37.9935 3.78143 1.77193 0
M  V30 425 N 38.4306 0.297415 1.54768 0
M  V30 426 C 39.6796 -0.313669 1.99246 0
M  V30 427 C 39.9926 -1.55281 1.18942 0
M  V30 428 O 41.1986 -2.23825 1.5367 0
M  V30 429 C 39.6546 -0.609407 3.54703 0
M  V30 430 C 39.2626 0.611192 4.43811 0
M  V30 431 C 41.0066 -1.18188 4.07715 0
M  V30 432 C 38.9136 0.288805 5.90694 0
M  V30 433 H 37.8436 -0.120979 0.744231 0
M  V30 434 H 40.4946 0.40556 1.78962 0
M  V30 435 H 38.8766 -1.38813 3.70873 0
M  V30 436 H 40.0506 1.3875 4.39414 0
M  V30 437 H 38.3656 1.10205 4.01552 0
M  V30 438 H 40.9626 -1.43727 5.15021 0
M  V30 439 H 41.3056 -2.12299 3.58099 0
M  V30 440 H 41.8386 -0.464944 3.95074 0
M  V30 441 H 38.5776 1.19838 6.44453 0
M  V30 442 H 38.0976 -0.450305 5.98107 0
M  V30 443 H 39.7766 -0.110933 6.46905 0
M  V30 444 N 39.9087 -1.5758 0.0250728 0
M  V30 445 C 41.1337 -1.96337 -0.668317 0
M  V30 446 C 41.5587 -0.901314 -1.651 0
M  V30 447 O 40.9167 0.138187 -1.80773 0
M  V30 448 C 40.9647 -3.34191 -1.35457 0
M  V30 449 O 40.0687 -3.30269 -2.46974 0
M  V30 450 H 39.4097 -0.640281 -0.175887 0
M  V30 451 H 41.9397 -2.0442 0.0857224 0
M  V30 452 H 41.9497 -3.70331 -1.71228 0
M  V30 453 H 40.6247 -4.11036 -0.634218 0
M  V30 454 H 39.2017 -3.05841 -2.13344 0
M  V30 455 N 41.3868 0.248026 -1.55636 0
M  V30 456 C 42.6338 0.976224 -1.77415 0
M  V30 457 C 42.9618 1.85361 -0.589193 0
M  V30 458 O 42.2168 1.90973 0.427529 0
M  V30 459 C 42.5158 1.86819 -3.04686 0
M  V30 460 C 42.1818 1.14625 -4.36087 0
M  V30 461 C 40.8438 0.946723 -4.71795 0
M  V30 462 C 43.1958 0.634463 -5.17324 0
M  V30 463 C 40.5238 0.223091 -5.86276 0
M  V30 464 C 42.8758 -0.0756959 -6.32555 0
M  V30 465 C 41.5398 -0.286711 -6.66884 0
M  V30 466 H 40.8098 0.357226 -0.649208 0
M  V30 467 H 43.4568 0.246415 -1.89908 0
M  V30 468 H 41.7618 2.66502 -2.872 0
M  V30 469 H 43.4588 2.43329 -3.18735 0
M  V30 470 H 40.0488 1.3117 -4.08035 0
M  V30 471 H 44.2328 0.77616 -4.90193 0
M  V30 472 H 39.4888 0.0491185 -6.1138 0
M  V30 473 H 43.6628 -0.479899 -6.94745 0
M  V30 474 H 41.2898 -0.849389 -7.5544 0
M  V30 475 N 42.8649 1.48995 0.513639 0
M  V30 476 C 44.0899 1.61792 1.29762 0
M  V30 477 C 44.5149 0.284475 1.85936 0
M  V30 478 O 43.8729 -0.746185 1.65232 0
M  V30 479 C 43.9209 2.67993 2.41272 0
M  V30 480 O 43.0249 2.26287 3.44772 0
M  V30 481 H 42.3659 0.541963 0.38363 0
M  V30 482 H 44.8959 1.95097 0.616307 0
M  V30 483 H 44.9059 2.89772 2.87221 0
M  V30 484 H 43.5809 3.64791 1.9975 0
M  V30 485 H 42.1579 2.14788 3.04829 0
M  V30 486 N 44.343 -0.763751 1.37857 0
M  V30 487 C 45.568 -1.55805 1.36893 0
M  V30 488 C 45.993 -1.88054 -0.0416135 0
M  V30 489 O 45.351 -1.49825 -1.02089 0
M  V30 490 C 45.399 -2.84012 2.22192 0
M  V30 491 O 44.503 -3.78732 1.63204 0
M  V30 492 H 43.844 -0.471638 0.46739 0
M  V30 493 H 46.374 -0.944657 1.81487 0
M  V30 494 H 46.384 -3.33037 2.35691 0
M  V30 495 H 45.059 -2.59869 3.24716 0
M  V30 496 H 43.636 -3.37402 1.58791 0
M  V30 497 N 45.8211 -1.22559 -0.990812 0
M  V30 498 C 47.0461 -1.07862 -1.77145 0
M  V30 499 C 47.4711 0.366447 -1.84496 0
M  V30 500 O 46.8291 1.26478 -1.29896 0
M  V30 501 C 46.8771 -1.69686 -3.18181 0
M  V30 502 O 45.9811 -0.951946 -4.01263 0
M  V30 503 H 45.3221 -0.378712 -0.545411 0
M  V30 504 H 47.8521 -1.62399 -1.2445 0
M  V30 505 H 47.8621 -1.74496 -3.68802 0
M  V30 506 H 46.5371 -2.74841 -3.12146 0
M  V30 507 H 45.1141 -0.980011 -3.59792 0
M  V30 508 N 47.2992 1.18797 -1.03562 0
M  V30 509 C 48.5242 1.9314 -0.755764 0
M  V30 510 C 48.9492 1.7537 0.68022 0
M  V30 511 O 48.3072 1.06046 1.47051 0
M  V30 512 C 48.3552 3.42747 -1.12058 0
M  V30 513 O 47.4592 4.11683 -0.243124 0
M  V30 514 H 46.8002 0.602724 -0.278604 0
M  V30 515 H 49.3302 1.50678 -1.3841 0
M  V30 516 H 49.3402 3.93437 -1.08035 0
M  V30 517 H 48.0152 3.55002 -2.16672 0
M  V30 518 H 46.5922 3.71323 -0.342539 0
M  V30 519 N 48.7773 0.814389 1.34928 0
M  V30 520 C 49.7403 0.235759 2.27984 0
M  V30 521 C 50.7403 -0.581412 1.49921 0
M  V30 522 O 51.9303 -0.398758 1.69575 0
M  V30 523 C 49.0623 -0.670433 3.34242 0
M  V30 524 H 50.2553 1.05659 2.80671 0
M  V30 525 H 47.8083 0.585614 1.44915 0
M  V30 526 H 48.5433 -1.51466 2.86755 0
M  V30 527 H 48.3283 -0.0860822 3.92005 0
M  V30 528 H 49.8183 -1.06935 4.03676 0
M  V30 529 N 50.2554 -1.46986 0.568584 0
M  V30 530 C 51.1854 -2.32946 -0.160753 0
M  V30 531 C 52.1664 -1.44487 -0.897631 0
M  V30 532 O 53.3514 -1.73327 -0.875867 0
M  V30 533 C 50.4814 -3.26494 -1.18403 0
M  V30 534 C 49.4354 -4.24282 -0.562895 0
M  V30 535 C 48.7614 -5.07236 -1.69163 0
M  V30 536 C 50.0614 -5.19989 0.490761 0
M  V30 537 H 51.7554 -2.94175 0.556916 0
M  V30 538 H 49.3014 -1.4146 0.26927 0
M  V30 539 H 51.2544 -3.85477 -1.70251 0
M  V30 540 H 49.9784 -2.63343 -1.93179 0
M  V30 541 H 48.6374 -3.66541 -0.0656164 0
M  V30 542 H 48.2854 -4.4048 -2.42871 0
M  V30 543 H 47.9854 -5.7345 -1.28174 0
M  V30 544 H 49.5094 -5.6908 -2.21314 0
M  V30 545 H 50.9234 -5.73271 0.0579047 0
M  V30 546 H 49.3204 -5.94469 0.820165 0
M  V30 547 H 50.3904 -4.64777 1.3824 0
M  V30 548 N 51.7335 -0.305618 -1.54608 0
M  V30 549 C 52.9805 0.302298 -2.00231 0
M  V30 550 C 53.3085 1.5354 -1.19398 0
M  V30 551 O 52.5635 1.93973 -0.259423 0
M  V30 552 C 52.8625 0.698983 -3.50498 0
M  V30 553 C 52.5285 -0.432903 -4.48817 0
M  V30 554 C 51.1905 -0.743622 -4.75419 0
M  V30 555 C 53.5425 -1.19409 -5.07337 0
M  V30 556 C 50.8705 -1.81857 -5.57804 0
M  V30 557 C 53.2225 -2.25899 -5.90891 0
M  V30 558 C 51.8865 -2.57572 -6.15803 0
M  V30 559 H 51.1565 0.110619 -0.732697 0
M  V30 560 H 53.8035 -0.425674 -1.86709 0
M  V30 561 H 52.1085 1.50711 -3.61654 0
M  V30 562 H 53.8055 1.1806 -3.83227 0
M  V30 563 H 50.3955 -0.18063 -4.28219 0
M  V30 564 H 54.5795 -0.967295 -4.86782 0
M  V30 565 H 49.8355 -2.06864 -5.75341 0
M  V30 566 H 54.0095 -2.85335 -6.35261 0
M  V30 567 H 51.6365 -3.40998 -6.7943 0
M  V30 568 N 53.2116 1.57565 -0.0334293 0
M  V30 569 C 54.4596 1.91598 0.642999 0
M  V30 570 C 54.7806 0.910847 1.7242 0
M  V30 571 O 54.0506 -0.0469931 1.95844 0
M  V30 572 H 52.6306 0.707228 0.240496 0
M  V30 573 H 55.2926 1.94726 -0.0822488 0
M  V30 574 H 54.3886 2.92336 1.09298 0
M  V30 575 N 54.6897 -0.239769 1.55765 0
M  V30 576 C 55.9297 -0.974076 1.79697 0
M  V30 577 C 56.2937 -1.82249 0.604088 0
M  V30 578 O 57.4947 -2.58913 0.722324 0
M  V30 579 C 55.7657 -1.80595 3.08416 0
M  V30 580 S 57.3247 -2.59838 3.53596 0
M  V30 581 H 54.1427 -0.327524 0.63107 0
M  V30 582 H 56.7447 -0.241277 1.94005 0
M  V30 583 H 55.4487 -1.17249 3.93295 0
M  V30 584 H 54.9797 -2.58137 2.96865 0
M  V30 585 H 56.9947 -3.82987 3.15492 0
M  V30 586 N 56.1678 -1.49265 -0.50573 0
M  V30 587 C 57.5788 -1.51769 -1.08734 0
M  V30 588 C 57.9298 -0.301192 -1.93874 0
M  V30 589 O 57.0548 0.589456 -2.08217 0
M  V30 590 C 57.6498 -2.75017 -1.97867 0
M  V30 591 C 56.2088 -2.80314 -2.51199 0
M  V30 592 C 55.3558 -2.4562 -1.28709 0
M  V30 593 H 58.3068 -1.56031 -0.289855 0
M  V30 594 H 58.3278 -2.5491 -2.82491 0
M  V30 595 H 57.8398 -3.63539 -1.35873 0
M  V30 596 H 55.9408 -1.96061 -3.16845 0
M  V30 597 H 56.0538 -3.82366 -2.88675 0
M  V30 598 H 54.4178 -1.97297 -1.61078 0
M  V30 599 H 55.2008 -3.36411 -0.6843 0
M  V30 600 N 57.6459 0.756429 -1.3826 0
M  V30 601 C 58.5939 1.89149 -1.35372 0
M  V30 602 C 59.5879 1.67691 -0.24004 0
M  V30 603 O 60.7939 1.75294 -0.408919 0
M  V30 604 H 57.1689 0.622271 -0.422236 0
M  V30 605 H 59.1399 1.88701 -2.31159 0
M  V30 606 C 57.8889 3.26599 -1.19284 0
M  V30 607 H 57.2119 3.43695 -2.0424 0
M  V30 608 H 58.6519 4.06274 -1.21316 0
M  V30 609 C 57.1109 3.3675 0.100454 0
M  V30 610 O 57.6409 3.86951 1.07851 0
M  V30 611 N 55.8469 2.90179 0.15633 0
M  V30 612 H 55.3939 2.49517 -0.640253 0
M  V30 613 H 55.3519 2.97352 1.02123 0
M  V30 614 N 59.124 1.23083 0.984299 0
M  V30 615 C 60.535 1.05609 1.5396 0
M  V30 616 C 60.886 -0.377793 1.92528 0
M  V30 617 O 60.011 -1.26398 1.75649 0
M  V30 618 C 60.606 1.91087 2.7977 0
M  V30 619 C 59.165 1.77885 3.31713 0
M  V30 620 C 58.312 1.87028 2.04733 0
M  V30 621 H 61.263 1.36802 0.804419 0
M  V30 622 H 61.284 1.43336 3.5247 0
M  V30 623 H 60.796 2.9544 2.51668 0
M  V30 624 H 58.897 0.762995 3.64704 0
M  V30 625 H 59.01 2.61047 4.01735 0
M  V30 626 H 57.374 1.30565 2.18689 0
M  V30 627 H 58.157 2.92929 1.79017 0
M  V30 628 N 60.6021 -1.18246 1.0419 0
M  V30 629 C 62.0181 -1.40269 0.761366 0
M  V30 630 C 62.2181 -1.90777 -0.648578 0
M  V30 631 O 61.2741 -2.0929 -1.41258 0
M  V30 632 C 62.5871 -2.40237 1.8085 0
M  V30 633 C 64.1351 -2.53961 1.82955 0
M  V30 634 C 64.6101 -3.57194 2.86664 0
M  V30 635 N 66.1011 -3.64702 2.85563 0
M  V30 636 C 66.8361 -4.44309 3.6246 0
M  V30 637 N 66.3321 -5.27514 4.49111 0
M  V30 638 N 68.1251 -4.39084 3.50944 0
M  V30 639 H 60.2761 -0.837882 1.95175 0
M  V30 640 H 62.5391 -0.430608 0.84456 0
M  V30 641 H 62.2451 -2.10176 2.81991 0
M  V30 642 H 62.1191 -3.39601 1.64168 0
M  V30 643 H 64.5061 -2.83338 0.824855 0
M  V30 644 H 64.5871 -1.54706 2.03715 0
M  V30 645 H 64.2311 -3.28558 3.87314 0
M  V30 646 H 64.1611 -4.5613 2.6316 0
M  V30 647 H 66.6521 -3.05289 2.22727 0
M  V30 648 H 66.9651 -5.85411 5.04493 0
M  V30 649 H 65.3101 -5.2693 4.53178 0
M  V30 650 H 68.5011 -3.7313 2.82651 0
M  V30 651 H 68.6741 -5.00883 4.11121 0
M  V30 652 N 62.0802 -0.821533 -1.34494 0
M  V30 653 C 63.0122 -0.199946 -2.28326 0
M  V30 654 C 64.0252 0.609377 -1.50965 0
M  V30 655 O 65.2142 0.439285 -1.7301 0
M  V30 656 C 62.3142 0.738431 -3.30757 0
M  V30 657 C 61.4872 -0.0277632 -4.37391 0
M  V30 658 C 60.5462 0.831332 -5.19591 0
M  V30 659 O 59.5722 0.276822 -5.68526 0
M  V30 660 N 60.7742 2.15132 -5.39165 0
M  V30 661 H 63.5392 -1.00609 -2.82308 0
M  V30 662 H 61.1002 -0.678366 -1.47003 0
M  V30 663 H 63.0922 1.31773 -3.82646 0
M  V30 664 H 61.6622 1.44533 -2.7718 0
M  V30 665 H 60.8822 -0.788359 -3.86236 0
M  V30 666 H 62.1702 -0.555251 -5.05761 0
M  V30 667 H 61.5682 2.62559 -5.01078 0
M  V30 668 H 60.1252 2.6795 -5.94177 0
M  V30 669 N 63.5583 1.46682 -0.576371 0
M  V30 670 C 64.4883 2.33028 0.148397 0
M  V30 671 C 65.4693 1.44961 0.889956 0
M  V30 672 O 66.6543 1.73789 0.866662 0
M  V30 673 C 63.7843 3.27117 1.1667 0
M  V30 674 C 62.7383 4.24575 0.540386 0
M  V30 675 C 62.0643 5.08126 1.6647 0
M  V30 676 C 63.3643 5.19722 -0.518331 0
M  V30 677 H 65.0583 2.93875 -0.572509 0
M  V30 678 H 62.6043 1.41315 -0.276768 0
M  V30 679 H 64.5573 3.86374 1.68204 0
M  V30 680 H 63.2813 2.64364 1.9178 0
M  V30 681 H 61.9403 3.66571 0.0461769 0
M  V30 682 H 61.5883 4.41762 2.40531 0
M  V30 683 H 61.2883 5.74122 1.25131 0
M  V30 684 H 62.8123 5.70246 2.18293 0
M  V30 685 H 64.2263 5.73232 -0.0883058 0
M  V30 686 H 62.6233 5.94026 -0.851679 0
M  V30 687 H 63.6933 4.64037 -1.40703 0
M  V30 688 N 65.0364 0.313813 1.54444 0
M  V30 689 C 66.2614 -0.296681 2.05267 0
M  V30 690 C 66.6864 -1.45757 1.18897 0
M  V30 691 O 66.0444 -1.80239 0.195886 0
M  V30 692 C 66.0924 -0.71831 3.53373 0
M  V30 693 O 65.1964 -1.82175 3.69981 0
M  V30 694 H 64.5374 -0.0554061 0.661684 0
M  V30 695 H 67.0674 0.459387 1.99376 0
M  V30 696 H 67.0774 -1.00364 3.95463 0
M  V30 697 H 65.7524 0.130821 4.15694 0
M  V30 698 H 64.3294 -1.53598 3.39797 0
M  V30 699 N 66.5145 -1.57545 0.0417849 0
M  V30 700 C 67.4465 -2.07904 -0.964799 0
M  V30 701 C 68.4595 -1.00497 -1.28079 0
M  V30 702 O 69.6485 -1.28087 -1.24322 0
M  V30 703 C 66.7485 -2.49928 -2.28887 0
M  V30 704 C 65.9215 -3.80562 -2.15619 0
M  V30 705 C 64.9805 -4.08999 -3.31069 0
M  V30 706 O 64.0065 -4.79061 -3.0739 0
M  V30 707 N 65.2085 -3.6017 -4.55256 0
M  V30 708 H 67.9735 -2.94886 -0.535029 0
M  V30 709 H 65.5345 -1.61252 -0.144681 0
M  V30 710 H 67.5265 -2.66034 -3.04972 0
M  V30 711 H 66.0965 -1.68245 -2.63463 0
M  V30 712 H 65.3165 -3.74129 -1.24183 0
M  V30 713 H 66.6045 -4.66126 -2.03971 0
M  V30 714 H 66.0025 -3.03512 -4.77386 0
M  V30 715 H 64.5595 -3.81532 -5.28466 0
M  V30 716 N 67.9926 0.231505 -1.5589 0
M  V30 717 C 69.4086 0.580748 -1.48659 0
M  V30 718 C 69.6086 1.87617 -0.73498 0
M  V30 719 O 68.6646 2.51046 -0.270586 0
M  V30 720 C 69.9776 0.669202 -2.93159 0
M  V30 721 C 71.5256 0.760499 -3.03621 0
M  V30 722 C 72.0006 0.880383 -4.49459 0
M  V30 723 N 73.4916 0.944861 -4.53461 0
M  V30 724 C 74.2266 1.05716 -5.63571 0
M  V30 725 N 73.7226 1.13403 -6.83456 0
M  V30 726 N 75.5156 1.09152 -5.514 0
M  V30 727 H 67.6666 -0.618695 -2.03189 0
M  V30 728 H 69.9296 -0.215728 -0.923128 0
M  V30 729 H 69.6356 -0.212904 -3.51055 0
M  V30 730 H 69.5096 1.5361 -3.44505 0
M  V30 731 H 71.8966 1.63305 -2.45796 0
M  V30 732 H 71.9776 -0.131864 -2.5546 0
M  V30 733 H 71.6216 0.0123284 -5.07899 0
M  V30 734 H 71.5516 1.78802 -4.95316 0
M  V30 735 H 74.0426 0.896176 -3.6712 0
M  V30 736 H 74.3556 1.21921 -7.63122 0
M  V30 737 H 72.7006 1.10333 -6.86186 0
M  V30 738 H 75.8916 1.02805 -4.56671 0
M  V30 739 H 76.0646 1.17558 -6.37247 0
M  V30 740 N 69.4707 1.49531 0.497807 0
M  V30 741 C 70.8867 1.36365 0.829266 0
M  V30 742 C 71.0867 0.399184 1.97506 0
M  V30 743 O 70.1427 -0.167977 2.51941 0
M  V30 744 C 71.4557 2.77153 1.16647 0
M  V30 745 C 73.0037 2.85877 1.27449 0
M  V30 746 C 73.4787 4.2744 1.64497 0
M  V30 747 N 74.9697 4.30265 1.7154 0
M  V30 748 C 75.7047 5.3677 2.01656 0
M  V30 749 N 75.2007 6.53516 2.29976 0
M  V30 750 N 76.9937 5.24189 2.02934 0
M  V30 751 H 69.1447 2.10831 -0.257703 0
M  V30 752 H 71.4077 0.946534 -0.0527091 0
M  V30 753 H 71.1137 3.49442 0.397872 0
M  V30 754 H 70.9877 3.12722 2.10915 0
M  V30 755 H 73.3747 2.13824 2.0338 0
M  V30 756 H 73.4557 2.53887 0.312244 0
M  V30 757 H 73.0997 5.00021 0.891151 0
M  V30 758 H 73.0297 4.56896 2.61827 0
M  V30 759 H 75.5207 3.4607 1.51802 0
M  V30 760 H 75.8337 7.30506 2.52153 0
M  V30 761 H 74.1787 6.56737 2.27425 0
M  V30 762 H 77.3697 4.31988 1.80289 0
M  V30 763 H 77.5427 6.07286 2.26071 0
M  V30 764 N 70.9488 -0.749086 1.3866 0
M  V30 765 C 72.1968 -1.50535 1.34847 0
M  V30 766 C 72.5178 -1.94909 -0.0595016 0
M  V30 767 O 71.7878 -1.67973 -1.00806 0
M  V30 768 H 70.3678 -0.558395 0.49619 0
M  V30 769 H 73.0298 -0.890165 1.73384 0
M  V30 770 H 72.1258 -2.39413 2.00219 0
M  V30 771 N 72.4269 -1.23603 -0.977757 0
M  V30 772 C 73.3899 -1.02069 -2.05218 0
M  V30 773 C 74.3899 0.0184305 -1.60789 0
M  V30 774 O 75.5799 -0.221569 -1.72785 0
M  V30 775 C 72.7119 -0.544926 -3.36517 0
M  V30 776 H 73.9049 -1.9742 -2.25755 0
M  V30 777 H 71.4579 -1.05684 -1.15155 0
M  V30 778 H 72.1929 0.412241 -3.21669 0
M  V30 779 H 71.9779 -1.2948 -3.70105 0
M  V30 780 H 73.4679 -0.414985 -4.15533 0
M  V30 781 N 73.905 1.17692 -1.04816 0
M  V30 782 C 75.154 1.87192 -0.751132 0
M  V30 783 C 75.467 1.8169 0.724441 0
M  V30 784 O 76.673 2.46625 1.13527 0
M  V30 785 C 75.129 3.35857 -1.29338 0
M  V30 786 C 74.737 3.4987 -2.79812 0
M  V30 787 C 76.481 4.10709 -1.07322 0
M  V30 788 C 74.388 4.92536 -3.27356 0
M  V30 789 H 73.318 0.701162 -0.277288 0
M  V30 790 H 75.969 1.32932 -1.26496 0
M  V30 791 H 74.351 3.89631 -0.707376 0
M  V30 792 H 75.525 3.06332 -3.44235 0
M  V30 793 H 73.84 2.88433 -3.00325 0
M  V30 794 H 76.437 5.15952 -1.4035 0
M  V30 795 H 76.78 4.16299 -0.0108001 0
M  V30 796 H 77.313 3.6313 -1.62423 0
M  V30 797 H 74.052 4.92119 -4.33012 0
M  V30 798 H 73.572 5.3676 -2.67673 0
M  V30 799 H 75.251 5.61288 -3.21815 0
M  V30 800 N 75.3831 0.828654 1.34056 0
M  V30 801 C 76.6081 0.431637 2.02859 0
M  V30 802 C 77.0331 -0.956339 1.61975 0
M  V30 803 O 76.3911 -1.62338 0.807228 0
M  V30 804 C 76.4391 0.548323 3.56407 0
M  V30 805 O 75.5431 -0.429556 4.10157 0
M  V30 806 H 74.8841 0.176886 0.640006 0
M  V30 807 H 77.4141 1.12066 1.71179 0
M  V30 808 H 77.4241 0.426196 4.05768 0
M  V30 809 H 76.0991 1.5606 3.8551 0
M  V30 810 H 74.6761 -0.265836 3.71951 0
M  V30 811 N 76.8612 -1.46375 0.584142 0
M  V30 812 C 78.0912 -2.06461 0.0758195 0
M  V30 813 C 78.4992 -1.43322 -1.23512 0
M  V30 814 O 77.8422 -0.533216 -1.75791 0
M  V30 815 C 77.9042 -3.59131 -0.162773 0
M  V30 816 C 77.5682 -4.4447 1.06279 0
M  V30 817 C 78.5652 -4.80918 1.97519 0
M  V30 818 C 76.2502 -4.85584 1.28504 0
M  V30 819 C 78.2442 -5.57309 3.09331 0
M  V30 820 C 75.9312 -5.61734 2.4062 0
M  V30 821 C 76.9292 -5.9751 3.30863 0
M  V30 822 O 76.6172 -6.72121 4.41032 0
M  V30 823 H 76.3492 -0.673745 0.0551725 0
M  V30 824 H 78.9032 -1.88969 0.804984 0
M  V30 825 H 77.1332 -3.74936 -0.946565 0
M  V30 826 H 78.8222 -4.0114 -0.619782 0
M  V30 827 H 79.5882 -4.49732 1.81565 0
M  V30 828 H 75.4672 -4.57187 0.591702 0
M  V30 829 H 79.0112 -5.85152 3.79793 0
M  V30 830 H 74.9082 -5.92334 2.56537 0
M  V30 831 H 75.6762 -6.90547 4.39417 0
M  V30 832 N 78.3393 -0.321999 -1.54275 0
M  V30 833 C 79.6163 0.335232 -1.92706 0
M  V30 834 C 79.9963 1.70006 -1.25145 0
M  V30 835 O 79.3443 2.25067 -0.394596 0
M  V30 836 C 79.5543 0.429008 -3.46353 0
M  V30 837 C 80.9023 0.690029 -4.18956 0
M  V30 838 O 81.9263 0.511992 -3.52501 0
M  V30 839 O 80.7853 1.03338 -5.36641 0
M  V30 840 H 77.8793 0.191143 -0.804608 0
M  V30 841 H 80.4253 -0.3716 -1.65581 0
M  V30 842 H 79.1973 -0.529611 -3.87699 0
M  V30 843 H 78.8203 1.18348 -3.79578 0
M  V30 844 N 79.8174 1.5752 -0.0501392 0
M  V30 845 C 81.0424 1.97376 0.636997 0
M  V30 846 C 81.4674 0.927466 1.63645 0
M  V30 847 O 80.8254 -0.10941 1.8097 0
M  V30 848 C 80.8734 3.36304 1.30123 0
M  V30 849 O 79.9774 3.34156 2.41689 0
M  V30 850 H 79.3184 0.642998 0.165679 0
M  V30 851 H 81.8484 2.04258 -0.118233 0
M  V30 852 H 81.8584 3.73008 1.65315 0
M  V30 853 H 80.5334 4.11993 0.568746 0
M  V30 854 H 79.1104 3.09196 2.08451 0
M  V30 855 N 81.2955 -0.223234 1.56011 0
M  V30 856 C 82.5205 -0.968978 1.83373 0
M  V30 857 C 82.9455 -1.77227 0.630254 0
M  V30 858 O 82.3035 -1.76345 -0.420959 0
M  V30 859 C 82.3515 -1.86363 3.08709 0
M  V30 860 O 81.4555 -2.95873 2.87285 0
M  V30 861 H 80.7965 -0.274461 0.604622 0
M  V30 862 H 83.3265 -0.237056 2.03222 0
M  V30 863 H 83.3365 -2.27376 3.38768 0
M  V30 864 H 82.0115 -1.27319 3.95933 0
M  V30 865 H 80.5885 -2.58818 2.68454 0
M  V30 866 N 82.7736 -1.49793 -0.48987 0
M  V30 867 C 84.0506 -1.50348 -1.25119 0
M  V30 868 C 84.4306 -0.237466 -2.0976 0
M  V30 869 O 83.7786 0.77981 -2.14782 0
M  V30 870 C 83.9886 -2.78872 -2.09837 0
M  V30 871 C 85.3366 -3.288 -2.68655 0
M  V30 872 O 86.3606 -2.80065 -2.20096 0
M  V30 873 O 85.2196 -4.13707 -3.57083 0
M  V30 874 H 82.3136 -0.602242 -0.566775 0
M  V30 875 H 84.8596 -1.62067 -0.503229 0
M  V30 876 H 83.6316 -3.62499 -1.47343 0
M  V30 877 H 83.2546 -2.70066 -2.91805 0
M  V30 878 N 84.2517 0.741722 -1.39055 0
M  V30 879 C 85.1837 1.8657 -1.33133 0
M  V30 880 C 86.1967 1.61001 -0.241329 0
M  V30 881 O 87.3857 1.7136 -0.499784 0
M  V30 882 C 84.4857 3.22457 -1.04283 0
M  V30 883 C 83.6587 3.75435 -2.24427 0
M  V30 884 C 82.7177 4.89867 -1.92138 0
M  V30 885 O 81.7437 5.03879 -2.64754 0
M  V30 886 N 82.9457 5.73738 -0.88347 0
M  V30 887 H 85.7107 1.92156 -2.29991 0
M  V30 888 H 83.2717 0.922172 -1.3307 0
M  V30 889 H 85.2637 3.9657 -0.807128 0
M  V30 890 H 83.8337 3.12181 -0.161807 0
M  V30 891 H 83.0537 2.92751 -2.6399 0
M  V30 892 H 84.3417 4.07563 -3.04581 0
M  V30 893 H 83.7397 5.64999 -0.281517 0
M  V30 894 H 82.2967 6.47947 -0.707662 0
M  V30 895 N 85.7298 1.2412 0.971189 0
M  V30 896 C 86.9578 1.10575 1.74874 0
M  V30 897 C 87.3728 -0.342017 1.85676 0
M  V30 898 O 86.7298 -1.23617 1.34258 0
M  V30 899 C 86.7808 1.73579 3.171 0
M  V30 900 O 86.5018 3.12695 3.06844 0
M  V30 901 C 88.0028 1.65598 4.11208 0
M  V30 902 H 85.2228 0.386504 0.548503 0
M  V30 903 H 87.7668 1.64156 1.21955 0
M  V30 904 H 85.9218 1.24009 3.67016 0
M  V30 905 H 86.3358 3.43412 3.96445 0
M  V30 906 H 87.8098 2.1437 5.08674 0
M  V30 907 H 88.2868 0.616532 4.34851 0
M  V30 908 H 88.8928 2.14578 3.67201 0
M  V30 909 N 87.2079 -1.17134 1.05439 0
M  V30 910 C 88.1709 -2.19439 0.661764 0
M  V30 911 C 89.1709 -1.58199 -0.288042 0
M  V30 912 O 90.3609 -1.74053 -0.0715803 0
M  V30 913 C 87.4929 -3.40889 -0.0276209 0
M  V30 914 H 88.6859 -2.55688 1.56728 0
M  V30 915 H 86.2389 -1.31259 0.848567 0
M  V30 916 H 86.9739 -3.10187 -0.94629 0
M  V30 917 H 86.7589 -3.86586 0.655238 0
M  V30 918 H 88.2489 -4.16603 -0.288342 0
M  V30 919 N 88.686 -0.835752 -1.33615 0
M  V30 920 C 89.616 -0.281739 -2.31794 0
M  V30 921 C 90.597 0.608833 -1.58831 0
M  V30 922 O 91.782 0.533035 -1.86741 0
M  V30 923 C 88.912 0.546612 -3.42971 0
M  V30 924 C 87.866 -0.247904 -4.27281 0
M  V30 925 C 87.192 0.704001 -5.30045 0
M  V30 926 C 88.492 -1.46324 -5.01385 0
M  V30 927 H 90.186 -1.10206 -2.78379 0
M  V30 928 H 87.732 -0.531388 -1.33837 0
M  V30 929 H 89.685 0.944467 -4.1068 0
M  V30 930 H 88.409 1.40011 -2.95067 0
M  V30 931 H 87.068 -0.627281 -3.61194 0
M  V30 932 H 86.716 1.55381 -4.78399 0
M  V30 933 H 86.416 0.176524 -5.87335 0
M  V30 934 H 87.94 1.09944 -6.0062 0
M  V30 935 H 89.354 -1.13871 -5.61877 0
M  V30 936 H 87.751 -1.92728 -5.6831 0
M  V30 937 H 88.821 -2.23467 -4.30338 0
M  V30 938 N 90.1641 1.46063 -0.591896 0
M  V30 939 C 91.3941 2.06418 -0.0867676 0
M  V30 940 C 91.8021 1.43975 1.22751 0
M  V30 941 O 91.1451 0.542531 1.75506 0
M  V30 942 C 91.2071 3.59213 0.143725 0
M  V30 943 C 90.8711 4.439 -1.08635 0
M  V30 944 C 91.8681 4.79864 -2.00067 0
M  V30 945 C 89.5531 4.84896 -1.31077 0
M  V30 946 C 91.5471 5.55661 -3.12282 0
M  V30 947 C 89.2341 5.6045 -2.43596 0
M  V30 948 C 90.2321 5.95747 -3.34027 0
M  V30 949 O 89.9201 6.69772 -4.4459 0
M  V30 950 H 89.6521 0.673443 -0.0587447 0
M  V30 951 H 92.2061 1.88539 -0.814994 0
M  V30 952 H 90.4361 3.75433 0.926668 0
M  V30 953 H 92.1251 4.01463 0.5985 0
M  V30 954 H 92.8911 4.48763 -1.83947 0
M  V30 955 H 88.7701 4.56867 -0.61594 0
M  V30 956 H 92.3141 5.8313 -3.82891 0
M  V30 957 H 88.2111 5.90965 -2.59674 0
M  V30 958 H 88.9791 6.88207 -4.43073 0
M  V30 959 N 91.6422 0.330177 1.54103 0
M  V30 960 C 92.8912 -0.271336 1.99867 0
M  V30 961 C 93.2042 -1.52723 1.22209 0
M  V30 962 O 94.4102 -2.20515 1.58383 0
M  V30 963 C 92.8662 -0.534032 3.55916 0
M  V30 964 C 92.4742 0.705193 4.42415 0
M  V30 965 C 94.2182 -1.09514 4.1013 0
M  V30 966 C 92.1252 0.414035 5.89949 0
M  V30 967 H 91.0552 -0.105166 0.74663 0
M  V30 968 H 93.7062 0.443429 1.78062 0
M  V30 969 H 92.0882 -1.30915 3.73734 0
M  V30 970 H 93.2622 1.4804 4.36372 0
M  V30 971 H 91.5772 1.18698 3.99124 0
M  V30 972 H 94.1742 -1.3277 5.17954 0
M  V30 973 H 94.5172 -2.04656 3.62521 0
M  V30 974 H 95.0502 -0.381038 3.95971 0
M  V30 975 H 91.7892 1.33481 6.41766 0
M  V30 976 H 91.3092 -0.323336 5.98928 0
M  V30 977 H 92.9882 0.0263105 6.46995 0
M  V30 978 N 93.1203 -1.57491 0.0584922 0
M  V30 979 C 94.5363 -1.56792 -0.298091 0
M  V30 980 C 94.7363 -1.06679 -1.70944 0
M  V30 981 O 93.7923 -0.726672 -2.41818 0
M  V30 982 C 95.1053 -3.00461 -0.119879 0
M  V30 983 C 96.6533 -3.1242 -0.190428 0
M  V30 984 C 97.1283 -4.57982 -0.0406567 0
M  V30 985 N 98.6193 -4.63099 -0.0966958 0
M  V30 986 C 99.3543 -5.734 -0.00502943 0
M  V30 987 N 98.8503 -6.9266 0.139402 0
M  V30 988 N 100.643 -5.62067 -0.0611391 0
M  V30 989 H 92.7943 -1.88386 0.98105 0
M  V30 990 H 95.0573 -0.867865 0.381463 0
M  V30 991 H 94.7633 -3.41187 0.85349 0
M  V30 992 H 94.6373 -3.66843 -0.877833 0
M  V30 993 H 97.0243 -2.71589 -1.15427 0
M  V30 994 H 97.1053 -2.48702 0.598405 0
M  V30 995 H 96.7493 -4.995 0.919897 0
M  V30 996 H 96.6793 -5.19715 -0.848727 0
M  V30 997 H 99.1703 -3.77331 -0.207277 0
M  V30 998 H 99.4833 -7.72536 0.201855 0
M  V30 999 H 97.8283 -6.94781 0.174586 0
M  V30 1000 H 101.019 -4.67782 -0.172583 0
M  V30 1001 H 101.192 -6.47999 0.0137562 0
M  V30 1002 N 94.5984 0.214957 -1.56127 0
M  V30 1003 C 95.5314 1.29382 -1.87977 0
M  V30 1004 C 96.5094 1.44897 -0.737807 0
M  V30 1005 O 97.6934 1.60605 -0.986833 0
M  V30 1006 C 94.8204 2.66325 -2.09258 0
M  V30 1007 C 93.8664 2.67789 -3.31951 0
M  V30 1008 S 94.6994 2.21198 -4.8768 0
M  V30 1009 C 95.8554 3.60003 -5.12004 0
M  V30 1010 H 96.0884 1.02173 -2.79192 0
M  V30 1011 H 93.6214 0.417516 -1.48648 0
M  V30 1012 H 95.5794 3.45162 -2.22201 0
M  V30 1013 H 94.2404 2.90755 -1.18829 0
M  V30 1014 H 93.4334 3.68436 -3.43906 0
M  V30 1015 H 93.0354 1.9702 -3.17898 0
M  V30 1016 H 95.3274 4.55739 -5.01307 0
M  V30 1017 H 96.2704 3.52959 -6.13861 0
M  V30 1018 H 96.6784 3.53996 -4.39712 0
M  V30 1019 N 96.0765 1.50051 0.48192 0
M  V30 1020 C 97.0065 1.71046 1.58951 0
M  V30 1021 C 97.9875 0.559288 1.60642 0
M  V30 1022 O 99.1725 0.797243 1.77081 0
M  V30 1023 C 96.3025 1.79462 2.97339 0
M  V30 1024 C 95.2565 2.94558 3.10515 0
M  V30 1025 C 94.5825 2.88105 4.50444 0
M  V30 1026 C 95.8825 4.35227 2.88747 0
M  V30 1027 H 97.5765 2.6378 1.41635 0
M  V30 1028 H 95.1225 1.26936 0.679942 0
M  V30 1029 H 97.0755 1.92734 3.74742 0
M  V30 1030 H 95.7995 0.833412 3.15788 0
M  V30 1031 H 94.4585 2.80918 2.35543 0
M  V30 1032 H 94.1065 1.89853 4.65795 0
M  V30 1033 H 93.8065 3.65366 4.60197 0
M  V30 1034 H 95.3305 3.03412 5.29881 0
M  V30 1035 H 96.7445 4.49449 3.55905 0
M  V30 1036 H 95.1415 5.13856 3.09955 0
M  V30 1037 H 96.2115 4.48347 1.84696 0
M  V30 1038 N 97.5546 -0.734337 1.39446 0
M  V30 1039 C 98.8026 -1.49096 1.36436 0
M  V30 1040 C 99.1236 -1.94961 -0.0388255 0
M  V30 1041 O 98.3936 -1.69033 -0.990191 0
M  V30 1042 H 96.9736 -0.5531 0.502085 0
M  V30 1043 H 99.6356 -0.871725 1.74319 0
M  V30 1044 H 98.7316 -2.37276 2.02747 0
M  V30 1045 N 99.0327 -1.24633 -0.964593 0
M  V30 1046 C 100.31 -0.995809 -1.68354 0
M  V30 1047 C 100.69 0.480964 -2.05548 0
M  V30 1048 O 100.038 1.45599 -1.76105 0
M  V30 1049 C 100.248 -1.92177 -2.91323 0
M  V30 1050 C 101.596 -2.19446 -3.63495 0
M  V30 1051 O 102.62 -1.89855 -3.01386 0
M  V30 1052 O 101.479 -2.69714 -4.75307 0
M  V30 1053 H 98.5727 -0.376854 -0.736146 0
M  V30 1054 H 101.119 -1.35745 -1.0184 0
M  V30 1055 H 99.8907 -2.91938 -2.60553 0
M  V30 1056 H 99.5137 -1.56349 -3.65569 0
M  V30 1057 N 100.511 1.16574 -1.06058 0
M  V30 1058 C 101.757 1.87324 -0.777022 0
M  V30 1059 C 102.09 1.81351 0.694645 0
M  V30 1060 O 101.365 1.22753 1.50871 0
M  V30 1061 C 101.648 3.36991 -1.26922 0
M  V30 1062 C 101.501 3.51667 -2.80447 0
M  V30 1063 C 102.82 4.3131 -0.87521 0
M  V30 1064 H 99.9388 0.680191 -0.28374 0
M  V30 1065 H 102.581 1.37036 -1.3161 0
M  V30 1066 H 100.731 3.79949 -0.81063 0
M  V30 1067 H 102.403 3.17664 -3.34495 0
M  V30 1068 H 100.646 2.93656 -3.19294 0
M  V30 1069 H 101.317 4.56766 -3.0995 0
M  V30 1070 H 103.793 3.9624 -1.27014 0
M  V30 1071 H 102.669 5.34545 -1.2471 0
M  V30 1072 H 102.93 4.41552 0.220071 0
M  V30 1073 N 101.989 0.842826 1.3317 0
M  V30 1074 C 103.405 0.531128 1.50503 0
M  V30 1075 C 103.605 -0.940734 1.78192 0
M  V30 1076 O 102.661 -1.72436 1.84451 0
M  V30 1077 C 103.974 1.40789 2.65705 0
M  V30 1078 C 105.522 1.40708 2.79589 0
M  V30 1079 C 105.997 2.26878 3.97857 0
M  V30 1080 N 107.488 2.24609 4.05099 0
M  V30 1081 C 108.223 2.88019 4.95815 0
M  V30 1082 N 107.719 3.60496 5.9162 0
M  V30 1083 N 109.512 2.77469 4.88843 0
M  V30 1084 H 101.663 1.79557 1.1346 0
M  V30 1085 H 103.926 0.766267 0.558156 0
M  V30 1086 H 103.632 2.454 2.51936 0
M  V30 1087 H 103.506 1.08677 3.61205 0
M  V30 1088 H 105.893 0.368668 2.92788 0
M  V30 1089 H 105.974 1.76829 1.84838 0
M  V30 1090 H 105.618 3.3078 3.85418 0
M  V30 1091 H 105.548 1.88096 4.91861 0
M  V30 1092 H 108.039 1.71906 3.36536 0
M  V30 1093 H 108.352 4.06076 6.57512 0
M  V30 1094 H 106.697 3.64604 5.91683 0
M  V30 1095 H 109.888 2.20406 4.12963 0
M  V30 1096 H 110.061 3.2717 5.59342 0
M  V30 1097 N 103.467 -1.45747 0.599634 0
M  V30 1098 C 104.713 -2.02592 0.0918643 0
M  V30 1099 C 105.046 -1.46806 -1.27128 0
M  V30 1100 O 104.321 -0.639658 -1.83681 0
M  V30 1101 C 104.604 -3.60073 0.0443398 0
M  V30 1102 C 104.457 -4.26208 1.43759 0
M  V30 1103 C 105.776 -4.35309 -0.647608 0
M  V30 1104 H 102.895 -0.736175 0.034857 0
M  V30 1105 H 105.537 -1.73694 0.770081 0
M  V30 1106 H 103.687 -3.84823 -0.533224 0
M  V30 1107 H 105.359 -4.12668 2.06162 0
M  V30 1108 H 103.602 -3.84916 2.00056 0
M  V30 1109 H 104.273 -5.35069 1.35665 0
M  V30 1110 H 106.749 -4.15805 -0.156776 0
M  V30 1111 H 105.625 -5.45038 -0.649942 0
M  V30 1112 H 105.886 -4.07598 -1.71219 0
M  V30 1113 N 104.945 -0.338344 -1.53925 0
M  V30 1114 C 106.361 0.0137736 -1.59594 0
M  V30 1115 C 106.561 1.49186 -1.35447 0
M  V30 1116 O 105.617 2.24987 -1.14616 0
M  V30 1117 C 106.93 -0.41773 -2.97784 0
M  V30 1118 C 108.478 -0.369633 -3.1081 0
M  V30 1119 C 108.953 -0.776524 -4.51369 0
M  V30 1120 N 110.444 -0.730506 -4.57403 0
M  V30 1121 C 111.179 -1.01736 -5.64303 0
M  V30 1122 N 110.675 -1.3721 -6.79077 0
M  V30 1123 N 112.468 -0.941942 -5.54151 0
M  V30 1124 H 104.619 -1.3012 -1.67876 0
M  V30 1125 H 106.882 -0.530082 -0.78595 0
M  V30 1126 H 106.588 -1.44811 -3.20504 0
M  V30 1127 H 106.462 0.209729 -3.76616 0
M  V30 1128 H 108.849 0.651568 -2.87817 0
M  V30 1129 H 108.93 -1.03223 -2.34049 0
M  V30 1130 H 108.574 -1.79571 -4.75096 0
M  V30 1131 H 108.504 -0.0914649 -5.26521 0
M  V30 1132 H 110.995 -0.468783 -3.74981 0
M  V30 1133 H 111.308 -1.57597 -7.5656 0
M  V30 1134 H 109.653 -1.4105 -6.80536 0
M  V30 1135 H 112.844 -0.664184 -4.63364 0
M  V30 1136 H 113.017 -1.16884 -6.37371 0
M  V30 1137 N 106.423 1.57458 -0.0668435 0
M  V30 1138 C 107.648 1.9804 0.616027 0
M  V30 1139 C 108.073 0.944771 1.62652 0
M  V30 1140 O 107.431 -0.0902094 1.81075 0
M  V30 1141 C 107.479 3.37665 1.26549 0
M  V30 1142 O 106.583 3.36701 2.38131 0
M  V30 1143 H 105.924 0.644719 0.158849 0
M  V30 1144 H 108.454 2.04121 -0.139891 0
M  V30 1145 H 108.464 3.7474 1.6135 0
M  V30 1146 H 107.139 4.12573 0.525016 0
M  V30 1147 H 105.716 3.1139 2.0516 0
M  V30 1148 N 107.901 -0.206675 1.56239 0
M  V30 1149 C 109.317 -0.557025 1.49564 0
M  V30 1150 C 109.517 -1.86424 0.764735 0
M  V30 1151 O 108.573 -2.50584 0.310491 0
M  V30 1152 C 109.886 -0.622478 2.94186 0
M  V30 1153 C 111.434 -0.712099 3.04792 0
M  V30 1154 C 111.909 -0.808767 4.50803 0
M  V30 1155 N 113.4 -0.8726 4.54907 0
M  V30 1156 C 114.135 -0.967365 5.65181 0
M  V30 1157 N 113.631 -1.02515 6.85173 0
M  V30 1158 N 115.424 -1.00366 5.53067 0
M  V30 1159 H 107.575 0.650943 2.02179 0
M  V30 1160 H 109.838 0.230387 0.919579 0
M  V30 1161 H 109.544 0.268727 3.50672 0
M  V30 1162 H 109.418 -1.4811 3.46905 0
M  V30 1163 H 111.805 -1.59374 2.48363 0
M  V30 1164 H 111.886 0.172489 2.55218 0
M  V30 1165 H 111.53 0.0684754 5.07854 0
M  V30 1166 H 111.46 -1.70899 4.98098 0
M  V30 1167 H 113.951 -0.837657 3.68499 0
M  V30 1168 H 114.264 -1.09765 7.64965 0
M  V30 1169 H 112.609 -0.994026 6.87855 0
M  V30 1170 H 115.8 -0.95527 4.58249 0
M  V30 1171 H 115.973 -1.07405 6.39037 0
M  V30 1172 N 109.379 -1.50304 -0.473955 0
M  V30 1173 C 110.342 -1.6841 -1.55469 0
M  V30 1174 C 111.342 -0.554905 -1.50922 0
M  V30 1175 O 112.532 -0.821882 -1.53593 0
M  V30 1176 C 109.664 -1.70667 -2.95102 0
M  V30 1177 H 110.857 -2.64828 -1.40733 0
M  V30 1178 H 108.41 -1.39742 -0.700132 0
M  V30 1179 H 109.145 -0.75932 -3.15285 0
M  V30 1180 H 108.93 -2.52698 -2.9981 0
M  V30 1181 H 110.42 -1.8664 -3.73571 0
M  V30 1182 N 110.857 0.726932 -1.39834 0
M  V30 1183 C 112.105 1.4837 -1.37225 0
M  V30 1184 C 112.426 1.94979 0.0284857 0
M  V30 1185 O 111.696 1.69555 0.981213 0
M  V30 1186 H 110.276 0.55043 -0.505011 0
M  V30 1187 H 112.938 0.862468 -1.74778 0
M  V30 1188 H 112.034 2.36198 -2.04003 0
M  V30 1189 N 112.336 1.25143 0.95797 0
M  V30 1190 C 113.583 1.09692 1.70217 0
M  V30 1191 C 113.911 -0.362654 1.91089 0
M  V30 1192 O 113.166 -1.28386 1.47701 0
M  V30 1193 C 113.465 1.79272 3.09187 0
M  V30 1194 C 113.131 3.29196 3.08125 0
M  V30 1195 C 111.793 3.70096 3.07543 0
M  V30 1196 C 114.145 4.24995 3.0171 0
M  V30 1197 C 111.473 5.05213 2.9829 0
M  V30 1198 C 113.825 5.60132 2.93999 0
M  V30 1199 C 112.489 6.00365 2.9175 0
M  V30 1200 H 111.759 0.401393 0.622868 0
M  V30 1201 H 114.406 1.55372 1.11945 0
M  V30 1202 H 112.711 1.26014 3.70982 0
M  V30 1203 H 114.408 1.64773 3.65583 0
M  V30 1204 H 110.998 2.96651 3.09348 0
M  V30 1205 H 115.182 3.9439 3.01281 0
M  V30 1206 H 110.438 5.35569 2.94916 0
M  V30 1207 H 114.612 6.3406 2.87996 0
M  V30 1208 H 112.239 7.05023 2.84336 0
M  V30 1209 N 113.814 -1.1601 1.06675 0
M  V30 1210 C 114.724 -2.24156 0.692179 0
M  V30 1211 C 115.74 -1.71507 -0.293513 0
M  V30 1212 O 116.916 -2.009 -0.141861 0
M  V30 1213 C 113.981 -3.46587 0.0884131 0
M  V30 1214 C 113.042 -4.14257 1.12646 0
M  V30 1215 C 112.275 -5.30844 0.551416 0
M  V30 1216 O 112.498 -5.66858 -0.634656 0
M  V30 1217 O 111.432 -5.87848 1.29298 0
M  V30 1218 H 115.258 -2.58513 1.59388 0
M  V30 1219 H 112.843 -1.23599 0.83926 0
M  V30 1220 H 114.725 -4.20679 -0.246361 0
M  V30 1221 H 113.4 -3.13994 -0.786712 0
M  V30 1222 H 112.307 -3.42118 1.51348 0
M  V30 1223 H 113.64 -4.50914 1.97325 0
M  V30 1224 N 115.292 -0.849877 -1.32721 0
M  V30 1225 C 116.517 -0.463856 -2.02146 0
M  V30 1226 C 116.942 0.930449 -1.63476 0
M  V30 1227 O 116.3 1.61033 -0.832952 0
M  V30 1228 C 116.348 -0.604955 -3.55489 0
M  V30 1229 O 115.452 0.36425 -4.10788 0
M  V30 1230 H 114.793 -0.187046 -0.637111 0
M  V30 1231 H 117.323 -1.14775 -1.69375 0
M  V30 1232 H 117.333 -0.490696 -4.05038 0
M  V30 1233 H 116.008 -1.62174 -3.82978 0
M  V30 1234 H 114.585 0.206628 -3.72327 0
M  V30 1235 N 116.77 1.45427 -0.607355 0
M  V30 1236 C 117.68 2.34325 0.113463 0
M  V30 1237 C 118.696 1.51226 0.860617 0
M  V30 1238 O 119.872 1.84029 0.818255 0
M  V30 1239 C 116.937 3.28839 1.09844 0
M  V30 1240 C 115.998 4.27844 0.353271 0
M  V30 1241 C 115.231 5.17842 1.29133 0
M  V30 1242 O 115.454 5.11264 2.52913 0
M  V30 1243 O 114.388 5.96713 0.788523 0
M  V30 1244 H 118.214 2.97364 -0.617094 0
M  V30 1245 H 115.799 1.44807 -0.367619 0
M  V30 1246 H 117.681 3.8708 1.66575 0
M  V30 1247 H 116.356 2.68365 1.81003 0
M  V30 1248 H 115.263 3.7322 -0.256494 0
M  V30 1249 H 116.596 4.91173 -0.317822 0
M  V30 1250 N 118.248 0.346503 1.53744 0
M  V30 1251 C 119.664 -0.00530975 1.59599 0
M  V30 1252 C 119.864 -1.48465 1.36236 0
M  V30 1253 O 118.92 -2.24376 1.15808 0
M  V30 1254 C 120.233 0.433516 2.97559 0
M  V30 1255 C 121.781 0.386111 3.10609 0
M  V30 1256 C 122.256 0.800451 4.50951 0
M  V30 1257 N 123.747 0.754753 4.5701 0
M  V30 1258 C 124.482 1.04727 5.63755 0
M  V30 1259 N 123.978 1.4081 6.7834 0
M  V30 1260 N 125.771 0.971316 5.53644 0
M  V30 1261 H 117.922 1.31009 1.67184 0
M  V30 1262 H 120.185 0.534242 0.783128 0
M  V30 1263 H 119.891 1.46509 3.19731 0
M  V30 1264 H 119.765 -0.189753 3.76722 0
M  V30 1265 H 122.152 -0.636295 2.88158 0
M  V30 1266 H 122.233 1.04462 2.33498 0
M  V30 1267 H 121.877 1.82088 4.74137 0
M  V30 1268 H 121.807 0.119386 5.26465 0
M  V30 1269 H 124.298 0.488662 3.74727 0
M  V30 1270 H 124.611 1.61607 7.55714 0
M  V30 1271 H 122.956 1.44657 6.79779 0
M  V30 1272 H 126.147 0.688748 4.63005 0
M  V30 1273 H 126.32 1.20263 6.36742 0
M  V30 1274 N 119.726 -1.57421 0.075193 0
M  V30 1275 C 121.142 -1.57099 -0.281444 0
M  V30 1276 C 121.342 -1.08486 -1.69803 0
M  V30 1277 O 120.398 -0.752279 -2.41033 0
M  V30 1278 C 121.711 -3.00571 -0.0880041 0
M  V30 1279 C 123.259 -3.12605 -0.157281 0
M  V30 1280 C 123.734 -4.57999 0.0079207 0
M  V30 1281 N 125.225 -4.63176 -0.0475725 0
M  V30 1282 C 125.96 -5.73373 0.0557876 0
M  V30 1283 N 125.456 -6.92473 0.21286 0
M  V30 1284 N 127.249 -5.621 -0.00152098 0
M  V30 1285 H 119.4 -1.87335 1.00098 0
M  V30 1286 H 121.663 -0.86377 0.390646 0
M  V30 1287 H 121.369 -3.40262 0.889629 0
M  V30 1288 H 121.243 -3.67754 -0.838875 0
M  V30 1289 H 123.63 -2.72798 -1.1254 0
M  V30 1290 H 123.711 -2.48053 0.62475 0
M  V30 1291 H 123.355 -4.98496 0.972824 0
M  V30 1292 H 123.285 -5.20586 -0.793556 0
M  V30 1293 H 125.776 -3.7753 -0.167244 0
M  V30 1294 H 126.089 -7.72279 0.283781 0
M  V30 1295 H 124.434 -6.94556 0.248267 0
M  V30 1296 H 127.625 -4.67938 -0.122958 0
M  V30 1297 H 127.798 -6.47948 0.0824844 0
M  V30 1298 N 121.204 0.198386 -1.56346 0
M  V30 1299 C 122.452 0.91747 -1.80075 0
M  V30 1300 C 122.773 1.83929 -0.647692 0
M  V30 1301 O 122.043 1.93029 0.334166 0
M  V30 1302 H 120.623 0.341774 -0.664228 0
M  V30 1303 H 123.285 0.204684 -1.93822 0
M  V30 1304 H 122.381 1.51055 -2.7311 0
M  V30 1305 N 122.682 1.50554 0.465978 0
M  V30 1306 C 123.907 1.65838 1.24549 0
M  V30 1307 C 124.332 0.343486 1.84937 0
M  V30 1308 O 123.69 -0.69324 1.67523 0
M  V30 1309 C 123.738 2.75533 2.32624 0
M  V30 1310 O 122.842 2.37142 3.37398 0
M  V30 1311 H 122.183 0.553893 0.366194 0
M  V30 1312 H 124.713 1.96959 0.553927 0
M  V30 1313 H 124.723 2.98763 2.77857 0
M  V30 1314 H 123.398 3.70962 1.88043 0
M  V30 1315 H 121.975 2.24377 2.97841 0
M  V30 1316 N 124.16 -0.719506 1.40217 0
M  V30 1317 C 125.11 -1.8251 1.36653 0
M  V30 1318 C 126.094 -1.59028 0.244732 0
M  V30 1319 O 127.286 -1.70268 0.483524 0
M  V30 1320 C 124.415 -3.20599 1.22763 0
M  V30 1321 C 123.501 -3.49858 2.39708 0
M  V30 1322 N 123.892 -3.49957 3.6519 0
M  V30 1323 C 122.19 -3.80297 2.33002 0
M  V30 1324 C 122.891 -3.77449 4.42614 0
M  V30 1325 N 121.867 -3.96002 3.72402 0
M  V30 1326 H 125.669 -1.80914 2.31619 0
M  V30 1327 H 123.183 -0.918455 1.33933 0
M  V30 1328 H 125.18 -3.99766 1.18292 0
M  V30 1329 H 123.84 -3.23424 0.287614 0
M  V30 1330 H 124.851 -3.309 3.98404 0
M  V30 1331 H 121.528 -3.90635 1.47346 0
M  V30 1332 H 122.918 -3.83863 5.51451 0
M  V30 1333 N 125.638 -1.25649 -0.95132 0
M  V30 1334 C 127.049 -1.09654 -1.51106 0
M  V30 1335 C 127.4 0.326615 -1.93462 0
M  V30 1336 O 126.525 1.21697 -1.78938 0
M  V30 1337 C 127.12 -1.98437 -2.74605 0
M  V30 1338 C 125.679 -1.86618 -3.2688 0
M  V30 1339 C 124.826 -1.9239 -1.99703 0
M  V30 1340 H 127.777 -1.38887 -0.767865 0
M  V30 1341 H 127.798 -1.5263 -3.48546 0
M  V30 1342 H 127.31 -3.02009 -2.43746 0
M  V30 1343 H 125.411 -0.859421 -3.62553 0
M  V30 1344 H 125.524 -2.71607 -3.94673 0
M  V30 1345 H 123.888 -1.36317 -2.15151 0
M  V30 1346 H 124.671 -2.97573 -1.71188 0
M  V30 1347 N 127.117 1.15442 -1.07289 0
M  V30 1348 C 128.347 1.89821 -0.815576 0
M  V30 1349 C 128.755 1.7823 0.634867 0
M  V30 1350 O 128.098 1.13152 1.44715 0
M  V30 1351 C 128.16 3.40817 -1.14385 0
M  V30 1352 C 127.824 3.76193 -2.59476 0
M  V30 1353 C 128.821 3.77269 -3.57721 0
M  V30 1354 C 126.506 4.0652 -2.95037 0
M  V30 1355 C 128.5 4.08176 -4.89562 0
M  V30 1356 C 126.187 4.37092 -4.27076 0
M  V30 1357 C 127.185 4.37902 -5.24148 0
M  V30 1358 O 126.873 4.67741 -6.53815 0
M  V30 1359 H 126.605 0.608465 -0.294528 0
M  V30 1360 H 129.159 1.472 -1.43252 0
M  V30 1361 H 127.389 3.83835 -0.469865 0
M  V30 1362 H 129.078 3.96485 -0.869179 0
M  V30 1363 H 129.844 3.5394 -3.3159 0
M  V30 1364 H 125.723 4.05049 -2.20128 0
M  V30 1365 H 129.267 4.08723 -5.65324 0
M  V30 1366 H 125.164 4.59889 -4.5296 0
M  V30 1367 H 125.932 4.85509 -6.58957 0
M  V30 1368 N 128.595 0.856903 1.32268 0
M  V30 1369 C 129.844 0.457599 1.96441 0
M  V30 1370 C 130.157 -0.992426 1.68553 0
M  V30 1371 O 131.363 -1.49727 2.26482 0
M  V30 1372 C 129.819 0.767358 3.51624 0
M  V30 1373 C 129.427 2.23326 3.88367 0
M  V30 1374 C 131.171 0.435887 4.22256 0
M  V30 1375 C 129.078 2.48613 5.36606 0
M  V30 1376 H 128.008 0.167387 0.735185 0
M  V30 1377 H 130.659 1.048 1.5063 0
M  V30 1378 H 129.041 0.106367 3.95857 0
M  V30 1379 H 130.215 2.93623 3.55137 0
M  V30 1380 H 128.53 2.52948 3.30766 0
M  V30 1381 H 131.127 0.602202 5.31298 0
M  V30 1382 H 131.47 -0.622672 4.11617 0
M  V30 1383 H 132.003 1.05286 3.83614 0
M  V30 1384 H 128.742 3.53101 5.52268 0
M  V30 1385 H 128.262 1.82896 5.71235 0
M  V30 1386 H 129.941 2.32676 6.03714 0
M  V30 1387 N 130.073 -1.45103 0.615059 0
M  V30 1388 C 131.35 -1.95549 0.0448276 0
M  V30 1389 C 131.73 -1.55737 -1.4251 0
M  V30 1390 O 131.078 -0.823556 -2.13143 0
M  V30 1391 C 131.288 -3.48098 0.250785 0
M  V30 1392 C 132.636 -4.24384 0.135509 0
M  V30 1393 O 133.66 -3.55738 0.181299 0
M  V30 1394 O 132.519 -5.46493 0.0268878 0
M  V30 1395 H 129.613 -0.8264 -0.0314845 0
M  V30 1396 H 132.159 -1.55232 0.685642 0
M  V30 1397 H 130.931 -3.7007 1.27139 0
M  V30 1398 H 130.554 -3.95323 -0.424937 0
M  V30 1399 N 131.551 -0.354651 -1.53558 0
M  V30 1400 C 132.798 0.238443 -2.01091 0
M  V30 1401 C 133.126 1.49663 -1.24222 0
M  V30 1402 O 132.381 1.93049 -0.321003 0
M  V30 1403 C 132.68 0.587121 -3.52545 0
M  V30 1404 C 132.346 -0.575472 -4.47213 0
M  V30 1405 C 131.008 -0.894497 -4.72813 0
M  V30 1406 C 133.36 -1.35489 -5.03281 0
M  V30 1407 C 130.688 -1.99511 -5.51736 0
M  V30 1408 C 133.04 -2.44583 -5.83405 0
M  V30 1409 C 131.704 -2.77033 -6.07296 0
M  V30 1410 H 130.974 0.0872526 -0.735845 0
M  V30 1411 H 133.621 -0.484859 -1.8526 0
M  V30 1412 H 131.926 1.39129 -3.66265 0
M  V30 1413 H 133.623 1.05809 -3.86789 0
M  V30 1414 H 130.213 -0.316774 -4.27428 0
M  V30 1415 H 134.397 -1.12167 -4.83459 0
M  V30 1416 H 129.653 -2.25063 -5.68469 0
M  V30 1417 H 133.827 -3.05401 -6.25862 0
M  V30 1418 H 131.454 -3.6244 -6.68237 0
M  V30 1419 N 133.029 1.57378 -0.0835403 0
M  V30 1420 C 134.445 1.57246 0.273109 0
M  V30 1421 C 134.645 1.09385 1.69225 0
M  V30 1422 O 133.701 0.765051 2.40631 0
M  V30 1423 C 135.014 3.00614 0.0720628 0
M  V30 1424 C 136.562 3.12684 0.1407 0
M  V30 1425 C 137.037 4.57989 -0.0322094 0
M  V30 1426 N 138.528 4.63194 0.0230085 0
M  V30 1427 C 139.263 5.73335 -0.0861941 0
M  V30 1428 N 138.759 6.9235 -0.24958 0
M  V30 1429 N 140.552 5.62093 -0.0282886 0
M  V30 1430 H 132.703 1.86801 -1.0109 0
M  V30 1431 H 134.966 0.861687 -0.395222 0
M  V30 1432 H 134.672 3.39786 -0.907662 0
M  V30 1433 H 134.546 3.68193 0.81936 0
M  V30 1434 H 136.933 2.73391 1.11092 0
M  V30 1435 H 137.014 2.47719 -0.637896 0
M  V30 1436 H 136.658 4.97973 -0.999247 0
M  V30 1437 H 136.588 5.21 0.765937 0
M  V30 1438 H 139.079 3.77613 0.14722 0
M  V30 1439 H 139.392 7.72117 -0.324733 0
M  V30 1440 H 137.737 6.94415 -0.285097 0
M  V30 1441 H 140.928 4.67997 0.0981408 0
M  V30 1442 H 141.101 6.47895 -0.116845 0
M  V30 1443 N 134.507 -0.190092 1.56449 0
M  V30 1444 C 135.756 -0.907912 1.80111 0
M  V30 1445 C 136.069 -1.84214 0.657619 0
M  V30 1446 O 137.275 -2.60094 0.778663 0
M  V30 1447 C 135.731 -1.66485 3.19078 0
M  V30 1448 C 135.339 -0.7752 4.41242 0
M  V30 1449 C 137.083 -2.37201 3.52045 0
M  V30 1450 C 134.99 -1.53129 5.71231 0
M  V30 1451 H 133.92 -0.34276 0.671589 0
M  V30 1452 H 136.571 -0.161109 1.82791 0
M  V30 1453 H 134.953 -2.45572 3.10661 0
M  V30 1454 H 136.127 -0.0226298 4.60794 0
M  V30 1455 H 134.442 -0.178627 4.16017 0
M  V30 1456 H 137.039 -2.94329 4.46402 0
M  V30 1457 H 137.382 -3.11632 2.76028 0
M  V30 1458 H 137.915 -1.65075 3.61932 0
M  V30 1459 H 134.654 -0.82967 6.50228 0
M  V30 1460 H 134.174 -2.25767 5.55688 0
M  V30 1461 H 135.853 -2.08377 6.12526 0
M  V30 1462 N 135.985 -1.50799 -0.457987 0
M  V30 1463 C 137.232 -1.62442 -1.20908 0
M  V30 1464 C 137.56 -0.330865 -1.91665 0
M  V30 1465 O 136.815 0.68401 -1.83357 0
M  V30 1466 C 137.114 -2.76358 -2.2663 0
M  V30 1467 C 136.78 -4.16378 -1.73033 0
M  V30 1468 C 135.442 -4.54473 -1.58138 0
M  V30 1469 C 137.794 -5.03836 -1.33413 0
M  V30 1470 C 135.122 -5.77754 -1.02065 0
M  V30 1471 C 137.474 -6.27676 -0.78778 0
M  V30 1472 C 136.138 -6.64562 -0.625561 0
M  V30 1473 H 135.408 -0.594417 -0.442435 0
M  V30 1474 H 138.055 -1.84772 -0.503136 0
M  V30 1475 H 136.36 -2.48167 -3.03184 0
M  V30 1476 H 138.057 -2.82568 -2.84528 0
M  V30 1477 H 134.647 -3.86331 -1.85598 0
M  V30 1478 H 138.831 -4.75026 -1.4375 0
M  V30 1479 H 134.087 -6.04997 -0.882547 0
M  V30 1480 H 138.261 -6.94797 -0.472177 0
M  V30 1481 H 135.888 -7.59965 -0.188926 0
M  V30 1482 N 137.463 0.71206 -1.40597 0
M  V30 1483 C 138.413 1.81783 -1.37619 0
M  V30 1484 C 139.397 1.58896 -0.253162 0
M  V30 1485 O 140.589 1.70009 -0.492547 0
M  V30 1486 C 137.718 3.19944 -1.24462 0
M  V30 1487 C 136.804 3.48582 -2.4156 0
M  V30 1488 N 137.195 3.48016 -3.67041 0
M  V30 1489 C 135.493 3.79056 -2.35016 0
M  V30 1490 C 136.194 3.75096 -4.44609 0
M  V30 1491 N 135.17 3.94022 -3.74497 0
M  V30 1492 H 138.972 1.79683 -2.32575 0
M  V30 1493 H 136.486 0.91134 -1.34419 0
M  V30 1494 H 138.483 3.99133 -1.20411 0
M  V30 1495 H 137.143 3.23267 -0.304762 0
M  V30 1496 H 138.154 3.28782 -4.00153 0
M  V30 1497 H 134.831 3.89848 -1.49415 0
M  V30 1498 H 136.221 3.80934 -5.53479 0
M  V30 1499 N 138.941 1.26152 0.944643 0
M  V30 1500 C 140.166 1.14363 1.7302 0
M  V30 1501 C 140.591 -0.29772 1.85729 0
M  V30 1502 O 139.949 -1.2157 1.34501 0
M  V30 1503 C 139.997 1.81378 3.11664 0
M  V30 1504 O 139.101 1.10022 3.97453 0
M  V30 1505 H 138.442 0.398694 0.53098 0
M  V30 1506 H 140.972 1.66906 1.18337 0
M  V30 1507 H 140.982 1.88064 3.62072 0
M  V30 1508 H 139.657 2.86237 3.0173 0
M  V30 1509 H 138.234 1.11287 3.55907 0
M  V30 1510 N 140.419 -1.14872 1.07899 0
M  V30 1511 C 141.351 -2.19425 0.662231 0
M  V30 1512 C 142.364 -1.60231 -0.288079 0
M  V30 1513 O 143.553 -1.78336 -0.076534 0
M  V30 1514 C 140.653 -3.38867 -0.0470695 0
M  V30 1515 C 139.826 -4.27597 0.920831 0
M  V30 1516 C 138.885 -5.25616 0.247805 0
M  V30 1517 O 137.911 -5.62189 0.890599 0
M  V30 1518 N 139.113 -5.71746 -1.00435 0
M  V30 1519 H 141.878 -2.55797 1.56166 0
M  V30 1520 H 139.439 -1.30042 0.964404 0
M  V30 1521 H 141.431 -4.01497 -0.50813 0
M  V30 1522 H 140.001 -3.00864 -0.848523 0
M  V30 1523 H 139.221 -3.61982 1.56087 0
M  V30 1524 H 140.509 -4.83748 1.57688 0
M  V30 1525 H 139.907 -5.44153 -1.54642 0
M  V30 1526 H 138.464 -6.36389 -1.40899 0
M  V30 1527 N 141.898 -0.863906 -1.31812 0
M  V30 1528 C 143.123 -0.48527 -2.01643 0
M  V30 1529 C 143.548 0.913058 -1.64453 0
M  V30 1530 O 142.906 1.6014 -0.849985 0
M  V30 1531 C 142.954 -0.642625 -3.54828 0
M  V30 1532 O 142.058 0.320659 -4.11151 0
M  V30 1533 H 141.399 -0.193793 -0.635091 0
M  V30 1534 H 143.929 -1.16565 -1.68148 0
M  V30 1535 H 143.939 -0.533628 -4.04495 0
M  V30 1536 H 142.614 -1.66227 -3.81237 0
M  V30 1537 H 141.191 0.167126 -3.72525 0
M  V30 1538 N 143.376 1.44774 -0.622745 0
M  V30 1539 C 144.286 2.34433 0.0886031 0
M  V30 1540 C 145.302 1.52131 0.844529 0
M  V30 1541 O 146.478 1.84886 0.798691 0
M  V30 1542 C 143.543 3.29986 1.0635 0
M  V30 1543 C 142.604 4.28195 0.307873 0
M  V30 1544 C 141.837 5.19183 1.23633 0
M  V30 1545 O 142.06 5.13918 2.47476 0
M  V30 1546 O 140.994 5.97515 0.725189 0
M  V30 1547 H 144.82 2.96693 -0.648599 0
M  V30 1548 H 142.405 1.44408 -0.382957 0
M  V30 1549 H 144.287 3.88825 1.6246 0
M  V30 1550 H 142.962 2.70269 1.78146 0
M  V30 1551 H 141.869 3.72927 -0.296064 0
M  V30 1552 H 143.202 4.90808 -0.3699 0
M  V30 1553 N 144.854 0.36279 1.53368 0
M  V30 1554 C 146.103 -0.22888 2.00397 0
M  V30 1555 C 146.416 -1.50096 1.25421 0
M  V30 1556 O 147.622 -2.17106 1.63025 0
M  V30 1557 C 146.078 -0.458417 3.56969 0
M  V30 1558 C 145.686 0.798877 4.4082 0
M  V30 1559 C 147.43 -1.00789 4.12361 0
M  V30 1560 C 145.337 0.539078 5.88938 0
M  V30 1561 H 144.267 -0.089305 0.748693 0
M  V30 1562 H 146.918 0.481099 1.77081 0
M  V30 1563 H 145.3 -1.22959 3.76427 0
M  V30 1564 H 146.474 1.57262 4.33134 0
M  V30 1565 H 144.789 1.27137 3.96516 0
M  V30 1566 H 147.386 -1.21754 5.20653 0
M  V30 1567 H 147.729 -1.9692 3.66781 0
M  V30 1568 H 148.262 -0.296961 3.9669 0
M  V30 1569 H 145.001 1.47064 6.3879 0
M  V30 1570 H 144.521 -0.196222 5.99479 0
M  V30 1571 H 146.2 0.163542 6.46793 0
M  V30 1572 N 146.332 -1.57332 0.0918853 0
M  V30 1573 C 147.242 -2.17368 -0.882505 0
M  V30 1574 C 148.258 -1.14226 -1.31257 0
M  V30 1575 O 149.434 -1.46582 -1.38115 0
M  V30 1576 C 146.499 -2.73962 -2.12476 0
M  V30 1577 C 145.56 -3.92048 -1.7492 0
M  V30 1578 C 144.793 -4.45933 -2.93223 0
M  V30 1579 O 145.016 -3.98764 -4.07852 0
M  V30 1580 O 143.95 -5.36999 -2.71875 0
M  V30 1581 H 147.776 -3.01031 -0.40172 0
M  V30 1582 H 145.361 -1.48813 -0.132291 0
M  V30 1583 H 147.243 -3.10147 -2.85283 0
M  V30 1584 H 145.918 -1.93347 -2.59613 0
M  V30 1585 H 144.825 -3.6068 -0.993025 0
M  V30 1586 H 146.158 -4.74017 -1.32548 0
M  V30 1587 N 147.81 0.181792 -1.56548 0
M  V30 1588 C 149.056 0.901431 -1.81665 0
M  V30 1589 C 149.389 1.82347 -0.668075 0
M  V30 1590 O 148.664 1.91669 0.330615 0
M  V30 1591 C 148.947 1.70618 -3.17115 0
M  V30 1592 C 148.8 0.807964 -4.42484 0
M  V30 1593 C 150.119 2.67605 -3.49393 0
M  V30 1594 H 147.238 0.32627 -0.660846 0
M  V30 1595 H 149.88 0.168134 -1.89255 0
M  V30 1596 H 148.03 2.33133 -3.10775 0
M  V30 1597 H 149.702 0.19649 -4.60881 0
M  V30 1598 H 147.945 0.115411 -4.33646 0
M  V30 1599 H 148.616 1.40632 -5.33785 0
M  V30 1600 H 151.092 2.15218 -3.56118 0
M  V30 1601 H 149.968 3.20985 -4.45264 0
M  V30 1602 H 150.229 3.47298 -2.73563 0
M  V30 1603 N 149.288 1.51039 0.449983 0
M  V30 1604 C 150.513 1.6715 1.22783 0
M  V30 1605 C 150.938 0.363081 1.84563 0
M  V30 1606 O 150.296 -0.675433 1.68249 0
M  V30 1607 C 150.344 2.77985 2.29689 0
M  V30 1608 O 149.448 2.40707 3.34864 0
M  V30 1609 H 148.789 0.557746 0.360299 0
M  V30 1610 H 151.319 1.97535 0.533005 0
M  V30 1611 H 151.329 3.01693 2.74673 0
M  V30 1612 H 150.004 3.72935 1.84098 0
M  V30 1613 H 148.581 2.27523 2.95445 0
M  V30 1614 N 150.766 -0.704594 1.40972 0
M  V30 1615 C 152.012 -1.46675 1.40051 0
M  V30 1616 C 152.345 -1.94199 0.00641102 0
M  V30 1617 O 151.62 -1.68916 -0.964235 0
M  V30 1618 C 151.903 -2.68505 2.39952 0
M  V30 1619 C 151.756 -2.26805 3.88432 0
M  V30 1620 C 153.075 -3.70686 2.37233 0
M  V30 1621 H 150.194 -0.532015 0.510028 0
M  V30 1622 H 152.836 -0.803255 1.72185 0
M  V30 1623 H 150.986 -3.25114 2.1268 0
M  V30 1624 H 152.658 -1.75592 4.26574 0
M  V30 1625 H 150.901 -1.58685 4.03734 0
M  V30 1626 H 151.572 -3.14181 4.53866 0
M  V30 1627 H 154.048 -3.23731 2.61415 0
M  V30 1628 H 152.924 -4.53553 3.09162 0
M  V30 1629 H 153.185 -4.19754 1.38777 0
M  V30 1630 N 152.244 -1.26651 -0.937939 0
M  V30 1631 C 153.469 -1.15279 -1.72411 0
M  V30 1632 C 153.894 0.287866 -1.85884 0
M  V30 1633 O 153.252 1.20855 -1.35143 0
M  V30 1634 C 153.3 -1.83028 -3.10698 0
M  V30 1635 O 152.404 -1.12128 -3.96864 0
M  V30 1636 H 151.745 -0.401504 -0.528858 0
M  V30 1637 H 154.275 -1.67531 -1.1745 0
M  V30 1638 H 154.285 -1.89981 -3.6107 0
M  V30 1639 H 152.96 -2.87833 -3.00208 0
M  V30 1640 H 151.537 -1.13173 -3.55312 0
M  V30 1641 N 153.722 1.14298 -1.08507 0
M  V30 1642 C 154.685 2.17607 -0.719711 0
M  V30 1643 C 155.685 1.58907 0.245997 0
M  V30 1644 O 156.875 1.74181 0.0254081 0
M  V30 1645 C 154.007 3.40842 -0.0627695 0
M  V30 1646 H 155.2 2.51443 -1.63452 0
M  V30 1647 H 152.753 1.28963 -0.88307 0
M  V30 1648 H 153.488 3.12587 0.863716 0
M  V30 1649 H 153.273 3.84713 -0.757504 0
M  V30 1650 H 154.763 4.17221 0.177786 0
M  V30 1651 N 155.201 0.870884 1.31352 0
M  V30 1652 C 156.617 0.562932 1.49343 0
M  V30 1653 C 156.817 -0.902725 1.80148 0
M  V30 1654 O 155.873 -1.68484 1.88067 0
M  V30 1655 C 157.186 1.46393 2.62659 0
M  V30 1656 C 158.734 1.46607 2.76542 0
M  V30 1657 C 159.209 2.35266 3.92955 0
M  V30 1658 N 160.7 2.33151 4.00243 0
M  V30 1659 C 161.435 2.98471 4.89594 0
M  V30 1660 N 160.931 3.72964 5.8384 0
M  V30 1661 N 162.724 2.87775 4.82848 0
M  V30 1662 H 154.875 1.81923 1.09626 0
M  V30 1663 H 157.138 0.777934 0.541777 0
M  V30 1664 H 156.844 2.50689 2.46674 0
M  V30 1665 H 156.718 1.16314 3.58819 0
M  V30 1666 H 159.105 0.43069 2.9194 0
M  V30 1667 H 159.186 1.8071 1.81046 0
M  V30 1668 H 158.83 3.38881 3.78315 0
M  V30 1669 H 158.76 1.98487 4.87761 0
M  V30 1670 H 161.251 1.79006 3.32814 0
M  V30 1671 H 161.564 4.19932 6.4875 0
M  V30 1672 H 159.909 3.77073 5.83816 0
M  V30 1673 H 163.1 2.29116 4.08195 0
M  V30 1674 H 163.273 3.38961 5.52277 0
M  V30 1675 N 156.679 -1.44442 0.630414 0
M  V30 1676 C 157.627 -2.32437 -0.0871428 0
M  V30 1677 C 158.621 -1.47304 -0.836525 0
M  V30 1678 O 159.827 -1.63653 -0.749506 0
M  V30 1679 H 156.202 -0.750533 -0.0469495 0
M  V30 1680 H 158.173 -2.90709 0.673096 0
M  V30 1681 C 156.922 -3.31288 -1.05563 0
M  V30 1682 H 156.245 -3.96805 -0.488426 0
M  V30 1683 H 157.685 -3.9554 -1.52721 0
M  V30 1684 C 156.144 -2.6016 -2.14052 0
M  V30 1685 O 156.674 -2.39997 -3.22124 0
M  V30 1686 N 154.88 -2.19911 -1.89967 0
M  V30 1687 H 154.427 -2.36509 -1.02085 0
M  V30 1688 H 154.385 -1.72646 -2.62756 0
M  V30 1689 N 158.157 -0.370918 -1.53173 0
M  V30 1690 C 159.406 0.218249 -2.00516 0
M  V30 1691 C 159.719 1.49429 -1.26215 0
M  V30 1692 O 160.925 2.16239 -1.64174 0
M  V30 1693 C 159.381 0.43948 -3.57207 0
M  V30 1694 C 158.989 -0.822244 -4.4039 0
M  V30 1695 C 160.733 0.986012 -4.1289 0
M  V30 1696 C 158.64 -0.570304 -5.88644 0
M  V30 1697 H 157.57 0.0853333 -0.749156 0
M  V30 1698 H 160.221 -0.490483 -1.76823 0
M  V30 1699 H 158.603 1.20961 -3.77074 0
M  V30 1700 H 159.777 -1.59557 -4.32294 0
M  V30 1701 H 158.092 -1.29238 -3.95836 0
M  V30 1702 H 160.689 1.18991 -5.21292 0
M  V30 1703 H 161.032 1.94972 -3.6782 0
M  V30 1704 H 161.565 0.27592 -3.96842 0
M  V30 1705 H 158.304 -1.50449 -6.38001 0
M  V30 1706 H 157.824 0.164427 -5.99575 0
M  V30 1707 H 159.503 -0.19784 -6.46697 0
M  V30 1708 N 159.635 1.57281 -0.100228 0
M  V30 1709 C 161.051 1.57527 0.256416 0
M  V30 1710 C 161.251 1.11173 1.68056 0
M  V30 1711 O 160.307 0.79053 2.39806 0
M  V30 1712 C 161.62 3.00673 0.0401747 0
M  V30 1713 C 163.168 3.12815 0.107528 0
M  V30 1714 C 163.643 4.57929 -0.0807834 0
M  V30 1715 N 165.134 4.63193 -0.0261207 0
M  V30 1716 C 165.869 5.73212 -0.146999 0
M  V30 1717 N 165.365 6.92047 -0.322999 0
M  V30 1718 N 167.158 5.62031 -0.0879044 0
M  V30 1719 H 159.309 1.85718 -1.03065 0
M  V30 1720 H 161.572 0.857446 -0.404339 0
M  V30 1721 H 161.278 3.38804 -0.943649 0
M  V30 1722 H 161.152 3.69042 0.780262 0
M  V30 1723 H 163.539 2.74554 1.08186 0
M  V30 1724 H 163.62 2.47028 -0.664134 0
M  V30 1725 H 163.264 4.96886 -1.05201 0
M  V30 1726 H 163.194 5.21783 0.710635 0
M  V30 1727 H 165.685 3.77748 0.107161 0
M  V30 1728 H 165.998 7.7173 -0.406608 0
M  V30 1729 H 164.343 6.94074 -0.358733 0
M  V30 1730 H 167.534 4.68075 0.048498 0
M  V30 1731 H 167.707 6.47734 -0.185557 0
M  V30 1732 N 161.113 -0.173488 1.56642 0
M  V30 1733 C 162.529 -0.525174 1.50712 0
M  V30 1734 C 162.729 -1.8476 0.804107 0
M  V30 1735 O 161.785 -2.49869 0.363574 0
M  V30 1736 C 163.098 -0.559937 2.95441 0
M  V30 1737 C 164.646 -0.647288 3.06234 0
M  V30 1738 C 165.121 -0.712963 4.52417 0
M  V30 1739 N 166.612 -0.775911 4.56655 0
M  V30 1740 C 167.347 -0.847264 5.67106 0
M  V30 1741 N 166.843 -0.879585 6.87194 0
M  V30 1742 N 168.636 -0.886117 5.55071 0
M  V30 1743 H 160.787 0.693681 2.00753 0
M  V30 1744 H 163.05 0.249841 0.914485 0
M  V30 1745 H 162.756 0.343049 3.50023 0
M  V30 1746 H 162.63 -1.40718 3.49969 0
M  V30 1747 H 165.017 -1.5407 2.51687 0
M  V30 1748 H 165.098 0.226586 2.54794 0
M  V30 1749 H 164.742 0.176183 5.07594 0
M  V30 1750 H 164.672 -1.60295 5.0161 0
M  V30 1751 H 167.163 -0.759304 3.70193 0
M  V30 1752 H 167.476 -0.935144 7.67121 0
M  V30 1753 H 165.821 -0.847898 6.89808 0
M  V30 1754 H 169.012 -0.857853 4.60172 0
M  V30 1755 H 169.185 -0.938263 6.41171 0
M  V30 1756 N 162.591 -1.51276 -0.441967 0
M  V30 1757 C 163.521 -1.752 -1.54361 0
M  V30 1758 C 164.502 -0.601682 -1.59103 0
M  V30 1759 O 165.687 -0.843913 -1.74905 0
M  V30 1760 C 162.817 -1.87282 -2.92477 0
M  V30 1761 C 161.771 -3.02687 -3.02596 0
M  V30 1762 C 161.097 -2.99947 -4.42647 0
M  V30 1763 C 162.397 -4.4273 -2.77106 0
M  V30 1764 H 164.091 -2.67442 -1.34592 0
M  V30 1765 H 161.637 -1.28694 -0.646048 0
M  V30 1766 H 163.59 -2.02602 -3.695 0
M  V30 1767 H 162.314 -0.916844 -3.13467 0
M  V30 1768 H 160.973 -2.87065 -2.28012 0
M  V30 1769 H 160.621 -2.02136 -4.60597 0
M  V30 1770 H 160.321 -3.77439 -4.50348 0
M  V30 1771 H 161.845 -3.17354 -5.2165 0
M  V30 1772 H 163.259 -4.58727 -3.43864 0
M  V30 1773 H 161.656 -5.21893 -2.96222 0
M  V30 1774 H 162.726 -4.53087 -1.72744 0
M  V30 1775 N 164.069 0.697108 -1.41344 0
M  V30 1776 C 164.999 1.82353 -1.45841 0
M  V30 1777 C 165.98 1.67115 -0.317247 0
M  V30 1778 O 167.165 1.86871 -0.528474 0
M  V30 1779 C 164.295 3.20476 -1.33838 0
M  V30 1780 C 163.249 3.50415 -2.4575 0
M  V30 1781 C 162.575 4.87878 -2.18813 0
M  V30 1782 C 163.875 3.49546 -3.88091 0
M  V30 1783 H 165.569 1.78846 -2.40113 0
M  V30 1784 H 163.115 0.859028 -1.15571 0
M  V30 1785 H 165.068 3.98988 -1.35596 0
M  V30 1786 H 163.792 3.24604 -0.360498 0
M  V30 1787 H 162.451 2.74253 -2.43271 0
M  V30 1788 H 162.099 4.8863 -1.19371 0
M  V30 1789 H 161.799 5.08875 -2.93803 0
M  V30 1790 H 163.323 5.68702 -2.22284 0
M  V30 1791 H 164.737 4.18066 -3.92293 0
M  V30 1792 H 163.134 3.82075 -4.62751 0
M  V30 1793 H 164.204 2.48552 -4.16353 0
M  V30 1794 N 165.547 1.27147 0.931209 0
M  V30 1795 C 166.772 1.16191 1.71797 0
M  V30 1796 C 167.197 -0.278004 1.86034 0
M  V30 1797 O 166.555 -1.20137 1.35782 0
M  V30 1798 C 166.603 1.84673 3.09723 0
M  V30 1799 O 165.707 1.14231 3.96264 0
M  V30 1800 H 165.048 0.404303 0.526721 0
M  V30 1801 H 167.578 1.68152 1.1656 0
M  V30 1802 H 167.588 1.91893 3.60057 0
M  V30 1803 H 166.263 2.89421 2.98677 0
M  V30 1804 H 164.84 1.15056 3.54706 0
M  V30 1805 N 167.025 -1.13721 1.09112 0
M  V30 1806 C 168.272 -1.84924 0.825192 0
M  V30 1807 C 168.6 -1.83347 -0.649151 0
M  V30 1808 O 167.855 -1.26449 -1.49362 0
M  V30 1809 C 168.154 -3.32861 1.30146 0
M  V30 1810 C 167.82 -3.54621 2.78486 0
M  V30 1811 C 166.482 -3.60268 3.18999 0
M  V30 1812 C 168.834 -3.62855 3.74146 0
M  V30 1813 C 166.162 -3.71679 4.53951 0
M  V30 1814 C 168.514 -3.75793 5.08883 0
M  V30 1815 C 167.178 -3.79692 5.4899 0
M  V30 1816 H 166.448 -0.676684 0.301959 0
M  V30 1817 H 169.095 -1.3428 1.36533 0
M  V30 1818 H 167.4 -3.85835 0.681064 0
M  V30 1819 H 169.097 -3.86395 1.07236 0
M  V30 1820 H 165.687 -3.50879 2.46134 0
M  V30 1821 H 169.871 -3.57775 3.43963 0
M  V30 1822 H 165.127 -3.72963 4.84467 0
M  V30 1823 H 169.301 -3.81107 5.82864 0
M  V30 1824 H 166.928 -3.88287 6.53558 0
M  V30 1825 N 168.503 -0.877838 -1.30888 0
M  V30 1826 C 169.435 -0.296607 -2.27273 0
M  V30 1827 C 170.448 0.544799 -1.53414 0
M  V30 1828 O 171.637 0.365511 -1.74718 0
M  V30 1829 C 168.737 0.597481 -3.33592 0
M  V30 1830 C 167.91 -0.213251 -4.3688 0
M  V30 1831 C 166.969 0.610208 -5.2265 0
M  V30 1832 O 165.995 0.035441 -5.69189 0
M  V30 1833 N 167.197 1.92071 -5.47804 0
M  V30 1834 H 169.962 -1.12492 -2.77787 0
M  V30 1835 H 167.523 -0.740105 -1.43993 0
M  V30 1836 H 169.515 1.15425 -3.87891 0
M  V30 1837 H 168.085 1.32647 -2.83061 0
M  V30 1838 H 167.305 -0.951466 -3.82545 0
M  V30 1839 H 168.593 -0.769262 -5.02951 0
M  V30 1840 H 167.991 2.4107 -5.11763 0
M  V30 1841 H 166.548 2.42508 -6.05007 0
M  V30 1842 N 169.982 1.44106 -0.638065 0
M  V30 1843 C 171.398 1.56672 -0.304286 0
M  V30 1844 C 171.598 1.6244 1.19228 0
M  V30 1845 O 170.654 1.57121 1.9766 0
M  V30 1846 C 171.967 2.83503 -1.00231 0
M  V30 1847 C 173.515 2.97226 -0.981116 0
M  V30 1848 C 173.99 4.26868 -1.65974 0
M  V30 1849 N 175.481 4.33698 -1.62666 0
M  V30 1850 C 176.216 5.32745 -2.12063 0
M  V30 1851 N 175.712 6.38157 -2.6968 0
M  V30 1852 N 177.505 5.24299 -2.02651 0
M  V30 1853 H 169.656 1.38605 -1.60942 0
M  V30 1854 H 171.919 0.664661 -0.675965 0
M  V30 1855 H 171.625 2.85251 -2.0573 0
M  V30 1856 H 171.499 3.73251 -0.54439 0
M  V30 1857 H 173.886 2.95027 0.0654188 0
M  V30 1858 H 173.967 2.08808 -1.47759 0
M  V30 1859 H 173.611 4.29826 -2.70576 0
M  V30 1860 H 173.541 5.14156 -1.13804 0
M  V30 1861 H 176.032 3.58138 -1.20606 0
M  V30 1862 H 176.345 7.10029 -3.05087 0
M  V30 1863 H 174.69 6.38823 -2.73734 0
M  V30 1864 H 177.881 4.4086 -1.57353 0
M  V30 1865 H 178.054 6.01334 -2.41457 0
M  V30 1866 N 171.46 0.379036 1.52974 0
M  V30 1867 C 172.69 -0.20649 2.05566 0
M  V30 1868 C 173.098 -1.41906 1.25137 0
M  V30 1869 O 172.441 -1.81421 0.288464 0
M  V30 1870 C 172.503 -0.651086 3.53555 0
M  V30 1871 C 172.167 0.446626 4.54812 0
M  V30 1872 C 173.164 1.30079 5.03364 0
M  V30 1873 C 170.849 0.610719 4.98573 0
M  V30 1874 C 172.843 2.30426 5.94292 0
M  V30 1875 C 170.53 1.61754 5.89304 0
M  V30 1876 C 171.528 2.46274 6.37054 0
M  V30 1877 O 171.216 3.45237 7.25994 0
M  V30 1878 H 170.948 -0.0372381 0.674974 0
M  V30 1879 H 173.502 0.539718 1.98182 0
M  V30 1880 H 171.732 -1.44911 3.58522 0
M  V30 1881 H 173.421 -1.16112 3.88938 0
M  V30 1882 H 174.187 1.18527 4.70294 0
M  V30 1883 H 170.066 -0.0374044 4.60985 0
M  V30 1884 H 173.61 2.96432 6.31485 0
M  V30 1885 H 169.507 1.73348 6.21788 0
M  V30 1886 H 170.275 3.41124 7.44027 0
M  V30 1887 N 172.938 -1.57226 0.108567 0
M  V30 1888 C 173.868 -2.17778 -0.84232 0
M  V30 1889 C 174.849 -1.11487 -1.2847 0
M  V30 1890 O 176.034 -1.39681 -1.34918 0
M  V30 1891 C 173.164 -2.76888 -2.09644 0
M  V30 1892 C 172.118 -3.88669 -1.79221 0
M  V30 1893 C 171.444 -4.34541 -3.11574 0
M  V30 1894 C 172.744 -5.11251 -1.06864 0
M  V30 1895 H 174.438 -2.97489 -0.337774 0
M  V30 1896 H 171.984 -1.43097 -0.161025 0
M  V30 1897 H 173.937 -3.17904 -2.76614 0
M  V30 1898 H 172.661 -1.94451 -2.62405 0
M  V30 1899 H 171.32 -3.48213 -1.14644 0
M  V30 1900 H 170.968 -3.48977 -3.62249 0
M  V30 1901 H 170.668 -5.09914 -2.91996 0
M  V30 1902 H 172.192 -4.782 -3.7968 0
M  V30 1903 H 173.606 -5.49352 -1.63968 0
M  V30 1904 H 172.003 -5.9214 -0.974178 0
M  V30 1905 H 173.073 -4.8487 -0.0536168 0
M  V30 1906 N 174.416 0.165178 -1.56732 0
M  V30 1907 C 175.832 0.517174 -1.50988 0
M  V30 1908 C 176.032 1.84331 -0.813894 0
M  V30 1909 O 175.088 2.49672 -0.37682 0
M  V30 1910 C 176.401 0.544261 -2.95733 0
M  V30 1911 C 177.949 0.631039 -3.06573 0
M  V30 1912 C 178.424 0.68896 -4.52788 0
M  V30 1913 N 179.915 0.751683 -4.5706 0
M  V30 1914 C 180.65 0.817177 -5.67547 0
M  V30 1915 N 180.146 0.843129 -6.8765 0
M  V30 1916 N 181.939 0.856668 -5.55534 0
M  V30 1917 H 174.09 -0.704318 -2.00382 0
M  V30 1918 H 176.353 -0.254687 -0.913148 0
M  V30 1919 H 176.059 -0.361607 -3.49836 0
M  V30 1920 H 175.933 1.3886 -3.5071 0
M  V30 1921 H 178.32 1.52733 -2.52501 0
M  V30 1922 H 178.401 -0.240095 -2.54671 0
M  V30 1923 H 178.045 -0.2031 -5.07494 0
M  V30 1924 H 177.975 1.57633 -5.02454 0
M  V30 1925 H 180.466 0.739661 -3.70591 0
M  V30 1926 H 180.779 0.894448 -7.67606 0
M  V30 1927 H 179.124 0.811304 -6.90248 0
M  V30 1928 H 182.315 0.833437 -4.60621 0
M  V30 1929 H 182.488 0.904247 -6.4166 0
M  V30 1930 N 175.894 1.51508 0.433938 0
M  V30 1931 C 177.119 1.68443 1.21003 0
M  V30 1932 C 177.544 0.382636 1.84167 0
M  V30 1933 O 176.902 -0.65755 1.68956 0
M  V30 1934 C 176.95 2.80405 2.26727 0
M  V30 1935 O 176.054 2.44245 3.32292 0
M  V30 1936 H 175.395 0.561536 0.354363 0
M  V30 1937 H 177.925 1.9809 0.512024 0
M  V30 1938 H 177.935 3.0459 2.71457 0
M  V30 1939 H 176.61 3.74867 1.80132 0
M  V30 1940 H 175.187 2.30644 2.93015 0
M  V30 1941 N 177.372 -0.689602 1.41712 0
M  V30 1942 C 178.597 -1.48329 1.44959 0
M  V30 1943 C 179.022 -1.8801 0.0581283 0
M  V30 1944 O 178.38 -1.55026 -0.940035 0
M  V30 1945 C 178.428 -2.71835 2.36935 0
M  V30 1946 O 177.532 -3.69549 1.8305 0
M  V30 1947 H 176.873 -0.446199 0.491734 0
M  V30 1948 H 179.403 -0.847127 1.86239 0
M  V30 1949 H 179.413 -3.20076 2.53013 0
M  V30 1950 H 178.088 -2.42291 3.38035 0
M  V30 1951 H 176.665 -3.2851 1.76452 0
M  V30 1952 N 178.85 -1.27639 -0.924453 0
M  V30 1953 C 180.266 -1.05113 -1.20097 0
M  V30 1954 C 180.466 0.213262 -2.00368 0
M  V30 1955 O 179.522 0.91787 -2.35226 0
M  V30 1956 C 180.835 -2.29244 -1.94596 0
M  V30 1957 C 182.383 -2.34315 -2.07522 0
M  V30 1958 C 182.858 -3.58183 -2.85427 0
M  V30 1959 N 184.349 -3.5876 -2.92994 0
M  V30 1960 C 185.084 -4.51277 -3.53746 0
M  V30 1961 N 184.58 -5.54102 -4.15863 0
M  V30 1962 N 186.373 -4.38894 -3.51181 0
M  V30 1963 H 178.524 -2.08821 -0.388264 0
M  V30 1964 H 180.787 -0.918568 -0.234385 0
M  V30 1965 H 180.493 -3.21301 -1.43034 0
M  V30 1966 H 180.367 -2.34816 -2.95197 0
M  V30 1967 H 182.754 -1.42762 -2.58269 0
M  V30 1968 H 182.835 -2.32744 -1.06131 0
M  V30 1969 H 182.479 -4.50074 -2.35363 0
M  V30 1970 H 182.409 -3.57006 -3.8711 0
M  V30 1971 H 184.9 -2.84398 -2.4885 0
M  V30 1972 H 185.213 -6.20859 -4.60168 0
M  V30 1973 H 183.558 -5.57941 -4.144 0
M  V30 1974 H 186.749 -3.57772 -3.01856 0
M  V30 1975 H 186.922 -5.11186 -3.98237 0
M  V30 1976 N 180.328 1.1314 -1.09713 0
M  V30 1977 C 181.575 1.84484 -0.834987 0
M  V30 1978 C 181.903 1.83689 0.639418 0
M  V30 1979 O 181.158 1.2724 1.4869 0
M  V30 1980 C 181.457 3.32167 -1.3191 0
M  V30 1981 C 181.123 3.53139 -2.80363 0
M  V30 1982 C 179.785 3.58571 -3.20905 0
M  V30 1983 C 182.137 3.60866 -3.76065 0
M  V30 1984 C 179.465 3.69267 -4.55916 0
M  V30 1985 C 181.817 3.73089 -5.10869 0
M  V30 1986 C 180.481 3.76775 -5.50996 0
M  V30 1987 H 179.751 0.675073 -0.305544 0
M  V30 1988 H 182.398 1.33554 -1.37243 0
M  V30 1989 H 180.703 3.85469 -0.701517 0
M  V30 1990 H 182.4 3.85821 -1.09284 0
M  V30 1991 H 178.99 3.49569 -2.47991 0
M  V30 1992 H 183.174 3.55946 -3.45855 0
M  V30 1993 H 178.43 3.70388 -4.86438 0
M  V30 1994 H 182.604 3.78011 -5.84877 0
M  V30 1995 H 180.231 3.84815 -6.55608 0
M  V30 1996 N 181.806 0.884767 1.30421 0
M  V30 1997 C 183.053 0.503105 1.96151 0
M  V30 1998 C 183.381 -0.947676 1.69851 0
M  V30 1999 O 182.636 -1.68467 0.995861 0
M  V30 2000 C 182.935 0.724318 3.49983 0
M  V30 2001 C 182.601 2.15015 3.96332 0
M  V30 2002 C 181.263 2.54005 4.08699 0
M  V30 2003 C 183.615 3.07936 4.20505 0
M  V30 2004 C 180.943 3.85128 4.42599 0
M  V30 2005 C 183.295 4.3859 4.55874 0
M  V30 2006 C 181.959 4.77474 4.66449 0
M  V30 2007 H 181.229 0.184099 0.717766 0
M  V30 2008 H 183.876 1.12058 1.55291 0
M  V30 2009 H 182.181 0.0238086 3.91793 0
M  V30 2010 H 183.878 0.408617 3.98913 0
M  V30 2011 H 180.468 1.8375 3.87213 0
M  V30 2012 H 184.652 2.79033 4.10431 0
M  V30 2013 H 179.908 4.14996 4.48986 0
M  V30 2014 H 184.082 5.10629 4.7353 0
M  V30 2015 H 181.709 5.79115 4.92473 0
M  V30 2016 N 183.284 -1.43765 0.645699 0
M  V30 2017 C 184.7 -1.56509 0.312591 0
M  V30 2018 C 184.9 -1.6307 -1.18365 0
M  V30 2019 O 183.956 -1.58167 -1.96824 0
M  V30 2020 C 185.269 -2.82968 1.01733 0
M  V30 2021 C 186.817 -2.96701 0.996865 0
M  V30 2022 C 187.292 -4.25982 1.68236 0
M  V30 2023 N 188.783 -4.32829 1.64964 0
M  V30 2024 C 189.518 -5.31613 2.14885 0
M  V30 2025 N 189.014 -6.36718 2.73061 0
M  V30 2026 N 190.807 -5.23217 2.05428 0
M  V30 2027 H 182.958 -1.3775 1.61675 0
M  V30 2028 H 185.221 -0.661067 0.679481 0
M  V30 2029 H 184.927 -2.84156 2.0724 0
M  V30 2030 H 184.801 -3.72957 0.564177 0
M  V30 2031 H 187.188 -2.95058 -0.0497719 0
M  V30 2032 H 187.269 -2.08022 1.48865 0
M  V30 2033 H 186.913 -4.28386 2.72852 0
M  V30 2034 H 186.843 -5.13545 1.16529 0
M  V30 2035 H 189.334 -3.57493 1.22503 0
M  V30 2036 H 189.647 -7.08401 3.08848 0
M  V30 2037 H 187.992 -6.37362 2.77118 0
M  V30 2038 H 191.183 -4.40019 1.59689 0
M  V30 2039 H 191.356 -6.00045 2.44643 0
M  V30 2040 N 184.763 -0.387143 -1.52771 0
M  V30 2041 C 186.011 0.195349 -2.01154 0
M  V30 2042 C 186.332 1.475 -1.27549 0
M  V30 2043 O 185.602 1.91878 -0.394924 0
M  V30 2044 H 184.182 0.075178 -0.743207 0
M  V30 2045 H 186.844 -0.518337 -1.87881 0
M  V30 2046 H 185.94 0.407096 -3.09434 0
M  V30 2047 N 186.241 1.57166 -0.116904 0
M  V30 2048 C 187.469 1.99473 0.549383 0
M  V30 2049 C 187.884 0.996541 1.60357 0
M  V30 2050 O 187.241 -0.0108731 1.82497 0
M  V30 2051 C 187.292 3.41788 1.17741 0
M  V30 2052 O 187.013 4.37788 0.165362 0
M  V30 2053 C 188.514 3.99216 1.92722 0
M  V30 2054 H 185.734 0.655009 0.145616 0
M  V30 2055 H 188.278 2.03494 -0.202625 0
M  V30 2056 H 186.433 3.38713 1.88021 0
M  V30 2057 H 186.847 5.20806 0.621403 0
M  V30 2058 H 188.321 5.00882 2.31995 0
M  V30 2059 H 188.798 3.3824 2.80161 0
M  V30 2060 H 189.404 4.0583 1.27209 0
M  V30 2061 N 187.719 -0.156864 1.56817 0
M  V30 2062 C 188.682 -1.17781 1.96622 0
M  V30 2063 C 189.682 -1.36401 0.851555 0
M  V30 2064 O 190.872 -1.33561 1.11836 0
M  V30 2065 C 188.004 -2.54008 2.27361 0
M  V30 2066 H 189.197 -0.836564 2.87996 0
M  V30 2067 H 186.75 -0.39985 1.51099 0
M  V30 2068 H 187.485 -2.9312 1.38748 0
M  V30 2069 H 187.27 -2.41856 3.08623 0
M  V30 2070 H 188.76 -3.27558 2.59029 0
M  V30 2071 N 189.197 -1.51736 -0.425897 0
M  V30 2072 C 190.443 -1.65214 -1.1761 0
M  V30 2073 C 190.776 -0.372778 -1.90589 0
M  V30 2074 O 190.051 0.628139 -1.84078 0
M  V30 2075 C 190.334 -2.86312 -2.18398 0
M  V30 2076 C 190.187 -4.24254 -1.49426 0
M  V30 2077 C 191.506 -3.02925 -3.19256 0
M  V30 2078 H 188.625 -0.601263 -0.426206 0
M  V30 2079 H 191.267 -1.8425 -0.463882 0
M  V30 2080 H 189.417 -2.70213 -2.79137 0
M  V30 2081 H 191.089 -4.52046 -0.919362 0
M  V30 2082 H 189.332 -4.26426 -0.796432 0
M  V30 2083 H 190.003 -5.05001 -2.22885 0
M  V30 2084 H 192.479 -3.1781 -2.68581 0
M  V30 2085 H 191.355 -3.89199 -3.8706 0
M  V30 2086 H 191.616 -2.15497 -3.86023 0
M  V30 2087 N 190.675 0.682077 -1.42076 0
M  V30 2088 C 191.9 1.47558 -1.45744 0
M  V30 2089 C 192.325 1.87977 -0.0680981 0
M  V30 2090 O 191.683 1.55522 0.9318 0
M  V30 2091 C 191.731 2.70575 -2.38373 0
M  V30 2092 O 190.835 3.68573 -1.85007 0
M  V30 2093 H 190.176 0.443585 -0.494093 0
M  V30 2094 H 192.706 0.837238 -1.86686 0
M  V30 2095 H 192.716 3.18729 -2.54707 0
M  V30 2096 H 191.391 2.40495 -3.39315 0
M  V30 2097 H 189.968 3.2757 -1.78192 0
M  V30 2098 N 192.153 1.28127 0.917671 0
M  V30 2099 C 193.101 1.11569 2.04096 0
M  V30 2100 C 194.095 0.0360242 1.69362 0
M  V30 2101 O 195.301 0.194501 1.78946 0
M  V30 2102 H 191.676 0.344097 0.668656 0
M  V30 2103 H 193.647 2.06711 2.15205 0
M  V30 2104 C 192.396 0.790197 3.38602 0
M  V30 2105 H 191.719 1.61293 3.6582 0
M  V30 2106 H 193.159 0.714271 4.1794 0
M  V30 2107 C 191.618 -0.505897 3.3308 0
M  V30 2108 O 192.148 -1.53736 3.71117 0
M  V30 2109 N 190.354 -0.505193 2.86175 0
M  V30 2110 H 189.901 0.334621 2.55417 0
M  V30 2111 H 189.859 -1.37243 2.82863 0
M  V30 2112 N 193.631 -1.12557 1.10312 0
M  V30 2113 C 194.856 -1.88405 0.867085 0
M  V30 2114 C 195.281 -1.79038 -0.576817 0
M  V30 2115 O 194.639 -1.14439 -1.40618 0
M  V30 2116 C 194.687 -3.3563 1.31851 0
M  V30 2117 O 193.791 -4.09565 0.482734 0
M  V30 2118 H 193.132 -0.585455 0.313271 0
M  V30 2119 H 195.662 -1.42352 1.4696 0
M  V30 2120 H 195.672 -3.86469 1.3079 0
M  V30 2121 H 194.347 -3.41765 2.37001 0
M  V30 2122 H 192.924 -3.68695 0.558448 0
M  V30 2123 N 195.109 -0.891671 -1.2995 0
M  V30 2124 C 196.039 -0.379797 -2.30391 0
M  V30 2125 C 197.02 0.540919 -1.6127 0
M  V30 2126 O 198.205 0.453352 -1.88834 0
M  V30 2127 C 195.335 0.400654 -3.44981 0
M  V30 2128 C 194.289 -0.428905 -4.25846 0
M  V30 2129 C 193.615 0.478557 -5.32554 0
M  V30 2130 C 194.915 -1.67458 -4.94727 0
M  V30 2131 H 196.609 -1.21914 -2.73454 0
M  V30 2132 H 194.155 -0.587675 -1.31462 0
M  V30 2133 H 196.108 0.769434 -4.14316 0
M  V30 2134 H 194.832 1.27371 -3.0074 0
M  V30 2135 H 193.491 -0.779911 -3.58208 0
M  V30 2136 H 193.139 1.34951 -4.84559 0
M  V30 2137 H 192.839 -0.0727433 -5.87555 0
M  V30 2138 H 194.363 0.843705 -6.04743 0
M  V30 2139 H 195.777 -1.376 -5.56542 0
M  V30 2140 H 194.174 -2.16659 -5.59624 0
M  V30 2141 H 195.244 -2.41518 -4.20473 0
M  V30 2142 N 196.587 1.43421 -0.653314 0
M  V30 2143 C 197.535 2.32546 0.0501531 0
M  V30 2144 C 198.529 1.48617 0.812985 0
M  V30 2145 O 199.735 1.64825 0.723375 0
M  V30 2146 H 196.11 0.751185 0.0350032 0
M  V30 2147 H 198.081 2.89602 -0.719261 0
M  V30 2148 C 196.83 3.32925 1.00279 0
M  V30 2149 H 196.153 3.97532 0.425236 0
M  V30 2150 H 197.593 3.9792 1.46409 0
M  V30 2151 C 196.052 2.63532 2.09886 0
M  V30 2152 O 196.582 2.45092 3.18265 0
M  V30 2153 N 194.788 2.22905 1.86445 0
M  V30 2154 H 194.335 2.38103 0.98309 0
M  V30 2155 H 194.293 1.76805 2.59976 0
M  V30 2156 N 198.065 0.39524 1.52563 0
M  V30 2157 C 199.314 -0.186321 2.00838 0
M  V30 2158 C 199.627 -1.47402 1.28577 0
M  V30 2159 O 200.833 -2.13599 1.67593 0
M  V30 2160 C 199.289 -0.382595 3.57861 0
M  V30 2161 C 198.897 0.892202 4.39026 0
M  V30 2162 C 200.641 -0.9202 4.14406 0
M  V30 2163 C 198.548 0.66388 5.87662 0
M  V30 2164 H 197.478 -0.0734041 0.750418 0
M  V30 2165 H 200.129 0.518552 1.76021 0
M  V30 2166 H 198.511 -1.14946 3.7895 0
M  V30 2167 H 199.685 1.66414 4.29701 0
M  V30 2168 H 198 1.35519 3.9373 0
M  V30 2169 H 200.597 -1.10683 5.23119 0
M  V30 2170 H 200.94 -1.89096 3.70875 0
M  V30 2171 H 201.473 -0.212751 3.97231 0
M  V30 2172 H 198.212 1.6058 6.35527 0
M  V30 2173 H 197.732 -0.0690193 5.9976 0
M  V30 2174 H 199.411 0.300699 6.46301 0
M  V30 2175 N 199.544 -1.57102 0.125237 0
M  V30 2176 C 200.474 -2.18659 -0.819174 0
M  V30 2177 C 201.455 -1.12843 -1.27281 0
M  V30 2178 O 202.64 -1.41104 -1.33429 0
M  V30 2179 C 199.77 -2.79096 -2.06695 0
M  V30 2180 C 198.724 -3.90548 -1.75088 0
M  V30 2181 C 198.05 -4.37821 -3.06948 0
M  V30 2182 C 199.35 -5.12356 -1.01435 0
M  V30 2183 H 201.044 -2.9783 -0.306202 0
M  V30 2184 H 198.59 -1.4326 -0.145839 0
M  V30 2185 H 200.543 -3.2082 -2.73226 0
M  V30 2186 H 199.267 -1.97223 -2.60328 0
M  V30 2187 H 197.926 -3.49409 -1.10944 0
M  V30 2188 H 197.574 -3.52799 -3.58527 0
M  V30 2189 H 197.274 -5.12982 -2.86571 0
M  V30 2190 H 198.798 -4.822 -3.74587 0
M  V30 2191 H 200.212 -5.5106 -1.58132 0
M  V30 2192 H 198.609 -5.9314 -0.911319 0
M  V30 2193 H 199.679 -4.849 -0.00218681 0
M  V30 2194 N 201.022 0.148545 -1.56898 0
M  V30 2195 C 202.299 0.890019 -1.74178 0
M  V30 2196 C 202.679 1.99407 -0.692839 0
M  V30 2197 O 202.027 2.26671 0.288505 0
M  V30 2198 C 202.237 1.43389 -3.18183 0
M  V30 2199 C 203.585 1.89791 -3.79822 0
M  V30 2200 O 204.609 1.53134 -3.21603 0
M  V30 2201 O 203.468 2.57387 -4.82093 0
M  V30 2202 H 200.562 0.420496 -0.712118 0
M  V30 2203 H 203.108 0.134591 -1.69165 0
M  V30 2204 H 201.88 0.640383 -3.86024 0
M  V30 2205 H 201.503 2.25287 -3.27615 0
M  V30 2206 N 202.5 1.5196 0.417844 0
M  V30 2207 C 203.777 1.56146 1.17803 0
M  V30 2208 C 204.157 0.337275 2.08388 0
M  V30 2209 O 203.505 -0.676447 2.18258 0
M  V30 2210 C 203.715 2.88566 1.96293 0
M  V30 2211 C 205.063 3.41244 2.52662 0
M  V30 2212 O 206.087 2.90247 2.06483 0
M  V30 2213 O 204.946 4.30273 3.36938 0
M  V30 2214 H 202.04 0.628598 0.537395 0
M  V30 2215 H 204.586 1.64283 0.425331 0
M  V30 2216 H 203.358 3.69116 1.2988 0
M  V30 2217 H 202.981 2.83681 2.78587 0
M  V30 2218 N 203.978 -0.674533 1.42435 0
M  V30 2219 C 205.255 -1.4305 1.33402 0
M  V30 2220 C 205.635 -2.11081 -0.0284674 0
M  V30 2221 O 204.983 -2.03257 -1.04397 0
M  V30 2222 C 205.193 -2.43272 2.50239 0
M  V30 2223 C 206.541 -3.07907 2.92367 0
M  V30 2224 O 207.565 -2.53599 2.50132 0
M  V30 2225 O 206.424 -4.0632 3.65467 0
M  V30 2226 H 203.518 -0.638076 0.526106 0
M  V30 2227 H 206.064 -0.703235 1.54443 0
M  V30 2228 H 204.836 -1.91803 3.41068 0
M  V30 2229 H 204.459 -3.23479 2.31186 0
M  V30 2230 N 205.456 -1.28612 -0.910864 0
M  V30 2231 C 206.686 -1.1862 -1.69153 0
M  V30 2232 C 207.094 0.257324 -1.87442 0
M  V30 2233 O 206.437 1.18543 -1.40332 0
M  V30 2234 C 206.499 -1.81606 -3.10257 0
M  V30 2235 C 206.163 -3.30864 -3.15243 0
M  V30 2236 C 207.16 -4.27256 -2.96223 0
M  V30 2237 C 204.845 -3.71871 -3.37664 0
M  V30 2238 C 206.839 -5.62631 -2.99541 0
M  V30 2239 C 204.526 -5.07371 -3.40614 0
M  V30 2240 C 205.524 -6.02561 -3.21573 0
M  V30 2241 O 205.212 -7.35589 -3.2429 0
M  V30 2242 H 204.944 -0.412633 -0.535453 0
M  V30 2243 H 207.498 -1.70306 -1.14827 0
M  V30 2244 H 205.728 -1.24418 -3.66138 0
M  V30 2245 H 207.417 -1.66092 -3.70362 0
M  V30 2246 H 208.183 -3.9691 -2.78725 0
M  V30 2247 H 204.062 -2.98241 -3.5153 0
M  V30 2248 H 207.606 -6.36907 -2.84597 0
M  V30 2249 H 203.503 -5.37366 -3.57642 0
M  V30 2250 H 204.271 -7.44252 -3.40633 0
M  V30 2251 N 206.934 1.1197 -1.10907 0
M  V30 2252 C 207.882 2.19927 -0.757303 0
M  V30 2253 C 208.876 1.67564 0.248747 0
M  V30 2254 O 210.082 1.79672 0.108605 0
M  V30 2255 H 206.457 0.716925 -0.226987 0
M  V30 2256 H 208.428 2.46847 -1.67658 0
M  V30 2257 C 207.177 3.47061 -0.210671 0
M  V30 2258 H 206.5 3.87703 -0.976049 0
M  V30 2259 H 207.94 4.24 -0.0026584 0
M  V30 2260 C 206.399 3.19864 1.05777 0
M  V30 2261 O 206.929 3.40049 2.13845 0
M  V30 2262 N 205.135 2.73636 0.978349 0
M  V30 2263 H 204.682 2.5741 0.0988246 0
M  V30 2264 H 204.64 2.55815 1.82773 0
M  V30 2265 N 208.412 0.89855 1.29475 0
M  V30 2266 C 209.66 0.522847 1.9522 0
M  V30 2267 C 209.981 -0.93371 1.71192 0
M  V30 2268 O 209.251 -1.65823 1.04305 0
M  V30 2269 H 207.831 0.190366 0.722336 0
M  V30 2270 H 210.493 1.14459 1.5775 0
M  V30 2271 H 209.589 0.704476 3.04045 0
M  V30 2272 N 209.89 -1.43072 0.660911 0
M  V30 2273 C 210.822 -2.29108 -0.0647641 0
M  V30 2274 C 211.835 -1.42928 -0.779448 0
M  V30 2275 O 213.024 -1.66788 -0.635921 0
M  V30 2276 C 210.124 -3.20032 -1.11503 0
M  V30 2277 C 209.297 -4.34792 -0.476955 0
M  V30 2278 C 208.356 -5.06534 -1.42513 0
M  V30 2279 O 207.382 -5.61538 -0.930771 0
M  V30 2280 N 208.584 -5.1075 -2.75889 0
M  V30 2281 H 211.349 -2.92029 0.673731 0
M  V30 2282 H 208.91 -1.53846 0.50427 0
M  V30 2283 H 210.902 -3.64892 -1.75032 0
M  V30 2284 H 209.472 -2.58658 -1.75541 0
M  V30 2285 H 208.692 -3.92752 0.337572 0
M  V30 2286 H 209.98 -5.0879 -0.0318525 0
M  V30 2287 H 209.378 -4.67447 -3.18606 0
M  V30 2288 H 207.935 -5.59302 -3.347 0
M  V30 2289 N 211.368 -0.403325 -1.52352 0
M  V30 2290 C 212.331 0.413051 -2.25447 0
M  V30 2291 C 213.331 0.978513 -1.276 0
M  V30 2292 O 214.521 0.858305 -1.51587 0
M  V30 2293 C 211.653 1.58087 -3.02029 0
M  V30 2294 H 212.846 -0.227094 -2.99039 0
M  V30 2295 H 210.399 -0.155722 -1.55522 0
M  V30 2296 H 211.134 2.25804 -2.32772 0
M  V30 2297 H 210.919 1.18195 -3.73861 0
M  V30 2298 H 212.409 2.1585 -3.57489 0
M  V30 2299 N 212.846 1.57033 -0.133567 0
M  V30 2300 C 213.793 2.16074 0.811208 0
M  V30 2301 C 214.763 1.08979 1.2535 0
M  V30 2302 O 215.948 1.36958 1.32843 0
M  V30 2303 C 213.088 2.77595 2.05024 0
M  V30 2304 C 212.201 3.99042 1.65498 0
M  V30 2305 C 211.336 4.48603 2.84479 0
M  V30 2306 C 210.375 5.62547 2.41262 0
M  V30 2307 N 209.512 6.06787 3.53206 0
M  V30 2308 H 214.352 2.96477 0.300906 0
M  V30 2309 H 211.889 1.46462 0.136822 0
M  V30 2310 H 213.847 3.11402 2.77642 0
M  V30 2311 H 212.477 1.99859 2.53488 0
M  V30 2312 H 211.529 3.71302 0.826981 0
M  V30 2313 H 212.841 4.81629 1.29748 0
M  V30 2314 H 211.995 4.84395 3.65303 0
M  V30 2315 H 210.734 3.64995 3.23465 0
M  V30 2316 H 209.739 5.26345 1.58874 0
M  V30 2317 H 210.964 6.47931 2.03377 0
M  V30 2318 H 208.91 5.26117 3.91838 0
M  V30 2319 H 208.827 6.84266 3.21427 0
M  V30 2320 H 210.095 6.4722 4.34427 0
M  V30 2321 N 214.325 -0.140222 1.56975 0
M  V30 2322 C 215.565 -0.857823 1.85528 0
M  V30 2323 C 215.929 -1.78039 0.718768 0
M  V30 2324 O 217.13 -2.53795 0.885521 0
M  V30 2325 C 215.401 -1.60615 3.19277 0
M  V30 2326 S 216.96 -2.36824 3.69405 0
M  V30 2327 H 213.778 -0.286727 0.650622 0
M  V30 2328 H 216.38 -0.117408 1.95147 0
M  V30 2329 H 215.084 -0.919994 3.99955 0
M  V30 2330 H 214.615 -2.38735 3.12681 0
M  V30 2331 H 216.63 -3.62148 3.3921 0
M  V30 2332 N 215.803 -1.52179 -0.40978 0
M  V30 2333 C 216.736 -1.70196 -1.52015 0
M  V30 2334 C 217.714 -0.549542 -1.53032 0
M  V30 2335 O 218.898 -0.776815 -1.71749 0
M  V30 2336 C 216.025 -1.74069 -2.90547 0
M  V30 2337 C 215.071 -2.95601 -3.07445 0
M  V30 2338 S 215.904 -4.55956 -2.80827 0
M  V30 2339 C 217.06 -4.62614 -4.21591 0
M  V30 2340 H 217.293 -2.64109 -1.36504 0
M  V30 2341 H 214.826 -1.4221 -0.601312 0
M  V30 2342 H 216.784 -1.76985 -3.70387 0
M  V30 2343 H 215.445 -0.812835 -3.034 0
M  V30 2344 H 214.638 -2.94791 -4.08796 0
M  V30 2345 H 214.24 -2.90569 -2.35469 0
M  V30 2346 H 216.532 -4.39951 -5.15218 0
M  V30 2347 H 217.475 -5.64548 -4.27424 0
M  V30 2348 H 217.883 -3.91654 -4.06531 0
M  V30 2349 N 217.281 0.66697 -1.42791 0
M  V30 2350 C 218.211 1.79218 -1.49677 0
M  V30 2351 C 219.192 1.66405 -0.352623 0
M  V30 2352 O 220.377 1.85708 -0.567993 0
M  V30 2353 C 217.507 3.17565 -1.40605 0
M  V30 2354 C 216.461 3.45124 -2.53127 0
M  V30 2355 C 215.787 4.83127 -2.29112 0
M  V30 2356 C 217.087 3.41236 -3.95418 0
M  V30 2357 H 218.781 1.73713 -2.43853 0
M  V30 2358 H 216.327 0.83432 -1.17367 0
M  V30 2359 H 218.28 3.96022 -1.44029 0
M  V30 2360 H 217.004 3.23767 -0.429271 0
M  V30 2361 H 215.663 2.69031 -2.49034 0
M  V30 2362 H 215.311 4.85988 -1.29709 0
M  V30 2363 H 215.011 5.02528 -3.04531 0
M  V30 2364 H 216.535 5.63859 -2.34297 0
M  V30 2365 H 217.949 4.09651 -4.01073 0
M  V30 2366 H 216.346 3.72173 -4.70752 0
M  V30 2367 H 217.416 2.39665 -4.21532 0
M  V30 2368 N 218.759 1.29093 0.90403 0
M  V30 2369 C 219.669 1.15727 2.0407 0
M  V30 2370 C 220.685 0.0815308 1.73809 0
M  V30 2371 O 221.861 0.292749 1.99261 0
M  V30 2372 C 218.926 0.830424 3.36608 0
M  V30 2373 C 217.987 1.98955 3.80415 0
M  V30 2374 C 217.22 1.6782 5.06628 0
M  V30 2375 O 217.443 0.597105 5.67266 0
M  V30 2376 O 216.377 2.52486 5.46383 0
M  V30 2377 H 220.203 2.11171 2.18267 0
M  V30 2378 H 217.788 1.08504 1.027 0
M  V30 2379 H 219.67 0.662521 4.16159 0
M  V30 2380 H 218.345 -0.0942678 3.23563 0
M  V30 2381 H 217.252 2.21267 3.01648 0
M  V30 2382 H 218.585 2.89529 3.98037 0
M  V30 2383 N 220.237 -1.11381 1.11499 0
M  V30 2384 C 221.184 -2.17439 0.773887 0
M  V30 2385 C 222.154 -1.64132 -0.254899 0
M  V30 2386 O 223.339 -1.90345 -0.13168 0
M  V30 2387 C 220.479 -3.44373 0.223917 0
M  V30 2388 C 219.592 -4.1168 1.30934 0
M  V30 2389 C 218.727 -5.263 0.71984 0
M  V30 2390 C 217.766 -5.85493 1.78507 0
M  V30 2391 N 216.903 -6.91507 1.21502 0
M  V30 2392 H 221.743 -2.45962 1.68246 0
M  V30 2393 H 219.28 -1.20744 0.840191 0
M  V30 2394 H 221.238 -4.17047 -0.112921 0
M  V30 2395 H 219.868 -3.16232 -0.647851 0
M  V30 2396 H 218.92 -3.37073 1.76312 0
M  V30 2397 H 220.232 -4.51729 2.11524 0
M  V30 2398 H 219.386 -6.05785 0.333094 0
M  V30 2399 H 218.125 -4.87559 -0.117377 0
M  V30 2400 H 217.13 -5.04686 2.18111 0
M  V30 2401 H 218.355 -6.26301 2.62533 0
M  V30 2402 H 216.301 -6.54783 0.399455 0
M  V30 2403 H 216.218 -7.30214 1.95763 0
M  V30 2404 H 217.486 -7.74795 0.855181 0
M  V30 2405 N 221.715 -0.905404 -1.28997 0
M  V30 2406 C 222.961 -0.535039 -1.95615 0
M  V30 2407 C 223.294 0.917404 -1.71165 0
M  V30 2408 O 222.569 1.65123 -1.02785 0
M  V30 2409 C 222.852 -0.834918 -3.50287 0
M  V30 2410 C 222.705 -2.33948 -3.84172 0
M  V30 2411 C 224.024 -0.325318 -4.38896 0
M  V30 2412 H 221.143 -0.195861 -0.710498 0
M  V30 2413 H 223.785 -1.13313 -1.52513 0
M  V30 2414 H 221.935 -0.325904 -3.87131 0
M  V30 2415 H 223.607 -2.91847 -3.57243 0
M  V30 2416 H 221.85 -2.79789 -3.31513 0
M  V30 2417 H 222.521 -2.49987 -4.92149 0
M  V30 2418 H 224.997 -0.761256 -4.09077 0
M  V30 2419 H 223.873 -0.564295 -5.45992 0
M  V30 2420 H 224.134 0.774144 -4.35269 0
M  V30 2421 N 223.193 1.4272 -0.668489 0
M  V30 2422 C 224.441 2.01226 -0.187769 0
M  V30 2423 C 224.762 1.53092 1.2078 0
M  V30 2424 O 224.032 0.74993 1.80977 0
M  V30 2425 H 222.612 0.744041 -0.0664272 0
M  V30 2426 H 225.274 1.74723 -0.863583 0
M  V30 2427 H 224.37 3.11556 -0.184166 0
M  V30 2428 N 224.671 0.411399 1.52136 0
M  V30 2429 C 225.619 -0.427633 2.28635 0
M  V30 2430 C 226.613 -1.04383 1.33419 0
M  V30 2431 O 227.819 -0.981772 1.50868 0
M  V30 2432 H 224.194 -0.156689 0.735495 0
M  V30 2433 H 226.165 0.238761 2.97443 0
M  V30 2434 C 224.914 -1.53082 3.12188 0
M  V30 2435 H 224.237 -1.06601 3.85326 0
M  V30 2436 H 225.677 -2.09167 3.68816 0
M  V30 2437 C 224.136 -2.49946 2.25895 0
M  V30 2438 O 224.666 -3.53884 1.90076 0
M  V30 2439 N 222.872 -2.2021 1.8962 0
M  V30 2440 H 222.419 -1.35719 2.18948 0
M  V30 2441 H 222.377 -2.85266 1.32176 0
M  V30 2442 N 226.149 -1.5696 0.141893 0
M  V30 2443 C 227.395 -1.97034 -0.504884 0
M  V30 2444 C 227.75 -1.02518 -1.62812 0
M  V30 2445 O 227.043 -0.0592943 -1.91508 0
M  V30 2446 C 227.237 -3.41242 -1.06249 0
M  V30 2447 C 227.066 -4.497 0.00519653 0
M  V30 2448 C 225.836 -5.03338 0.444873 0
M  V30 2449 C 228.034 -5.08122 0.794767 0
M  V30 2450 N 226.016 -5.95395 1.49593 0
M  V30 2451 C 227.387 -5.96339 1.69645 0
M  V30 2452 C 229.442 -4.9071 0.843122 0
M  V30 2453 C 228.145 -6.69009 2.64233 0
M  V30 2454 C 230.171 -5.64077 1.77681 0
M  V30 2455 C 229.533 -6.51999 2.66603 0
M  V30 2456 H 225.632 -0.766745 -0.153707 0
M  V30 2457 H 228.216 -1.93273 0.235313 0
M  V30 2458 H 226.387 -3.45606 -1.77231 0
M  V30 2459 H 228.119 -3.68389 -1.67546 0
M  V30 2460 H 224.874 -4.73576 0.0480959 0
M  V30 2461 H 225.298 -6.46128 2.02107 0
M  V30 2462 H 229.94 -4.22459 0.169732 0
M  V30 2463 H 227.658 -7.36492 3.32575 0
M  V30 2464 H 231.244 -5.52602 1.81996 0
M  V30 2465 H 230.124 -7.07775 3.37675 0
M  V30 2466 N 227.627 0.131896 -1.57047 0
M  V30 2467 C 228.575 1.18146 -2.0036 0
M  V30 2468 C 229.569 1.43614 -0.898406 0
M  V30 2469 O 230.775 1.43729 -1.08361 0
M  V30 2470 H 227.15 0.398042 -0.638018 0
M  V30 2471 H 229.121 0.789564 -2.87765 0
M  V30 2472 C 227.87 2.50341 -2.41298 0
M  V30 2473 H 227.193 2.31578 -3.25902 0
M  V30 2474 H 228.633 3.22371 -2.75414 0
M  V30 2475 C 227.092 3.11984 -1.27153 0
M  V30 2476 O 227.622 3.97484 -0.580459 0
M  V30 2477 N 225.828 2.71662 -1.03189 0
M  V30 2478 H 225.375 2.02231 -1.59564 0
M  V30 2479 H 225.333 3.13238 -0.270077 0
M  V30 2480 N 229.106 1.52395 0.401703 0
M  V30 2481 C 230.353 1.66817 1.14796 0
M  V30 2482 C 230.681 0.401772 1.90305 0
M  V30 2483 O 229.936 -0.615487 1.85769 0
M  V30 2484 C 230.235 2.84578 2.16217 0
M  V30 2485 C 229.901 4.22513 1.5746 0
M  V30 2486 C 228.563 4.60029 1.41161 0
M  V30 2487 C 230.915 5.0844 1.14622 0
M  V30 2488 C 228.243 5.81144 0.80552 0
M  V30 2489 C 230.595 6.30167 0.55428 0
M  V30 2490 C 229.259 6.66426 0.378482 0
M  V30 2491 H 228.529 0.610428 0.420069 0
M  V30 2492 H 231.176 1.86512 0.434212 0
M  V30 2493 H 229.481 2.59248 2.93764 0
M  V30 2494 H 231.178 2.92933 2.73845 0
M  V30 2495 H 227.768 3.92953 1.71132 0
M  V30 2496 H 231.952 4.80034 1.26021 0
M  V30 2497 H 227.208 6.07855 0.657399 0
M  V30 2498 H 231.382 6.96071 0.213983 0
M  V30 2499 H 229.009 7.60143 -0.0932606 0
M  V30 2500 N 230.584 -0.659388 1.43143 0
M  V30 2501 C 231.861 -1.41627 1.34912 0
M  V30 2502 C 232.241 -2.11099 -0.00607785 0
M  V30 2503 O 231.589 -2.04353 -1.02236 0
M  V30 2504 C 231.799 -2.40604 2.52805 0
M  V30 2505 C 233.147 -3.04789 2.95616 0
M  V30 2506 O 234.171 -2.50932 2.52807 0
M  V30 2507 O 233.03 -4.02421 3.69756 0
M  V30 2508 H 230.124 -0.63246 0.532844 0
M  V30 2509 H 232.67 -0.686814 1.5518 0
M  V30 2510 H 231.442 -1.88174 3.43083 0
M  V30 2511 H 231.065 -3.21009 2.34604 0
M  V30 2512 N 232.062 -1.29571 -0.897171 0
M  V30 2513 C 233.311 -1.1706 -1.64256 0
M  V30 2514 C 233.624 0.276476 -1.93636 0
M  V30 2515 O 234.83 0.52294 -2.66416 0
M  V30 2516 C 233.286 -2.0475 -2.95982 0
M  V30 2517 C 232.894 -3.54295 -2.74187 0
M  V30 2518 C 234.638 -2.0097 -3.73914 0
M  V30 2519 C 232.545 -4.34081 -4.01656 0
M  V30 2520 H 231.475 -0.43452 -0.616205 0
M  V30 2521 H 234.126 -1.54229 -0.994268 0
M  V30 2522 H 232.508 -1.60452 -3.62038 0
M  V30 2523 H 233.682 -4.06662 -2.1671 0
M  V30 2524 H 231.997 -3.59773 -2.09648 0
M  V30 2525 H 234.594 -2.57838 -4.68427 0
M  V30 2526 H 234.937 -0.990273 -4.0435 0
M  V30 2527 H 235.47 -2.43325 -3.14703 0
M  V30 2528 H 232.209 -5.36671 -3.76384 0
M  V30 2529 H 231.729 -3.86483 -4.58684 0
M  V30 2530 H 233.408 -4.44877 -4.69781 0
M  V30 2531 N 233.54 1.10788 -1.12088 0
M  V30 2532 C 234.787 1.82671 -0.873931 0
M  V30 2533 C 235.115 1.85004 0.600311 0
M  V30 2534 O 234.37 1.30365 1.45957 0
M  V30 2535 C 234.669 3.29294 -1.38926 0
M  V30 2536 C 234.335 3.47113 -2.87791 0
M  V30 2537 C 232.997 3.51684 -3.28439 0
M  V30 2538 C 235.349 3.52808 -3.83635 0
M  V30 2539 C 232.677 3.59513 -4.63646 0
M  V30 2540 C 235.029 3.62169 -5.18668 0
M  V30 2541 C 233.693 3.65003 -5.58864 0
M  V30 2542 H 232.963 0.668441 -0.319794 0
M  V30 2543 H 235.61 1.30613 -1.40045 0
M  V30 2544 H 233.915 3.83894 -0.783122 0
M  V30 2545 H 235.612 3.83416 -1.17443 0
M  V30 2546 H 232.202 3.4423 -2.5535 0
M  V30 2547 H 236.386 3.4853 -3.53328 0
M  V30 2548 H 231.642 3.59987 -4.94185 0
M  V30 2549 H 235.816 3.6552 -5.92763 0
M  V30 2550 H 233.443 3.70822 -6.63623 0
M  V30 2551 N 235.018 0.912232 1.28515 0
M  V30 2552 C 235.948 0.416403 2.29757 0
M  V30 2553 C 236.929 -0.515194 1.6211 0
M  V30 2554 O 238.114 -0.423253 1.89532 0
M  V30 2555 C 235.244 -0.34572 3.45575 0
M  V30 2556 C 234.198 0.496599 4.25109 0
M  V30 2557 C 233.524 -0.393771 5.33248 0
M  V30 2558 C 234.824 1.75307 4.92001 0
M  V30 2559 H 236.518 1.26249 2.7148 0
M  V30 2560 H 234.064 0.608515 1.30511 0
M  V30 2561 H 236.017 -0.703422 4.15488 0
M  V30 2562 H 234.741 -1.2257 3.02728 0
M  V30 2563 H 233.4 0.8368 3.56922 0
M  V30 2564 H 233.048 -1.27225 4.86644 0
M  V30 2565 H 232.748 0.166209 5.87365 0
M  V30 2566 H 234.272 -0.747389 6.06009 0
M  V30 2567 H 235.686 1.46437 5.54283 0
M  V30 2568 H 234.083 2.25534 5.56106 0
M  V30 2569 H 235.153 2.48176 4.16577 0
M  V30 2570 N 236.496 -1.42363 0.676048 0
M  V30 2571 C 237.743 -2.01522 0.19883 0
M  V30 2572 C 238.071 -1.53456 -1.19505 0
M  V30 2573 O 237.326 -0.727967 -1.81657 0
M  V30 2574 C 237.625 -3.56929 0.183431 0
M  V30 2575 C 237.291 -4.24431 1.52215 0
M  V30 2576 C 235.953 -4.42585 1.8887 0
M  V30 2577 C 238.305 -4.62459 2.40377 0
M  V30 2578 C 235.633 -4.96039 3.13309 0
M  V30 2579 C 237.985 -5.17294 3.64129 0
M  V30 2580 C 236.649 -5.33661 4.00951 0
M  V30 2581 H 235.919 -0.737419 0.0727571 0
M  V30 2582 H 238.566 -1.70531 0.871281 0
M  V30 2583 H 236.871 -3.87594 -0.572532 0
M  V30 2584 H 238.568 -4.00486 -0.203035 0
M  V30 2585 H 235.158 -4.10661 1.22701 0
M  V30 2586 H 239.342 -4.48105 2.13343 0
M  V30 2587 H 234.598 -5.06896 3.41857 0
M  V30 2588 H 238.772 -5.45704 4.32644 0
M  V30 2589 H 236.399 -5.74845 4.9745 0
M  V30 2590 N 237.974 -0.419461 -1.51915 0
M  V30 2591 C 239.251 0.211999 -1.94448 0
M  V30 2592 C 239.631 1.61703 -1.35703 0
M  V30 2593 O 238.979 2.22102 -0.536931 0
M  V30 2594 C 239.189 0.207872 -3.4838 0
M  V30 2595 C 240.537 0.422192 -4.22496 0
M  V30 2596 O 241.561 0.286778 -3.55044 0
M  V30 2597 O 240.42 0.690009 -5.42126 0
M  V30 2598 H 237.514 0.139586 -0.815135 0
M  V30 2599 H 240.06 -0.476151 -1.62883 0
M  V30 2600 H 238.832 -0.775102 -3.83546 0
M  V30 2601 H 238.455 0.939688 -3.86336 0
M  V30 2602 N 239.452 1.56882 -0.150215 0
M  V30 2603 C 240.868 1.58263 0.20617 0
M  V30 2604 C 241.068 1.16464 1.64434 0
M  V30 2605 O 240.124 0.866422 2.3717 0
M  V30 2606 C 241.437 3.00649 -0.0555025 0
M  V30 2607 C 242.985 3.12999 0.00795388 0
M  V30 2608 C 243.46 4.5744 -0.226429 0
M  V30 2609 N 244.951 4.62875 -0.173469 0
M  V30 2610 C 245.686 5.72454 -0.329288 0
M  V30 2611 N 245.182 6.90669 -0.543005 0
M  V30 2612 N 246.975 5.61467 -0.266666 0
M  V30 2613 H 239.126 1.82345 -1.08922 0
M  V30 2614 H 241.389 0.844149 -0.431413 0
M  V30 2615 H 241.095 3.3563 -1.05096 0
M  V30 2616 H 240.969 3.71337 0.66246 0
M  V30 2617 H 243.356 2.77857 0.993966 0
M  V30 2618 H 243.437 2.4479 -0.742388 0
M  V30 2619 H 243.081 4.93287 -1.20956 0
M  V30 2620 H 243.011 5.2378 0.544274 0
M  V30 2621 H 245.502 3.77898 -0.0130709 0
M  V30 2622 H 245.815 7.70045 -0.651922 0
M  V30 2623 H 244.16 6.92581 -0.579366 0
M  V30 2624 H 247.351 4.67992 -0.100441 0
M  V30 2625 H 247.524 6.46816 -0.391535 0
M  V30 2626 N 240.93 -0.123565 1.57115 0
M  V30 2627 C 241.86 -1.15309 2.03042 0
M  V30 2628 C 242.841 -1.43454 0.914061 0
M  V30 2629 O 244.026 -1.53973 1.18347 0
M  V30 2630 C 241.156 -2.48043 2.43089 0
M  V30 2631 C 240.11 -2.3437 3.58127 0
M  V30 2632 C 239.436 -3.72026 3.84059 0
M  V30 2633 C 240.736 -1.80804 4.90007 0
M  V30 2634 H 242.43 -0.771102 2.893 0
M  V30 2635 H 239.976 -0.369479 1.39179 0
M  V30 2636 H 241.929 -3.20311 2.73823 0
M  V30 2637 H 240.653 -2.88122 1.53796 0
M  V30 2638 H 239.312 -1.64551 3.27595 0
M  V30 2639 H 238.96 -4.09582 2.91979 0
M  V30 2640 H 238.66 -3.63732 4.6149 0
M  V30 2641 H 240.184 -4.45806 4.1724 0
M  V30 2642 H 241.598 -2.42886 5.19307 0
M  V30 2643 H 239.995 -1.83343 5.71407 0
M  V30 2644 H 241.065 -0.76528 4.78823 0
M  V30 2645 N 242.408 -1.52605 -0.393616 0
M  V30 2646 C 243.636 -1.71294 -1.16043 0
M  V30 2647 C 244.051 -0.429259 -1.83855 0
M  V30 2648 O 243.408 0.595921 -1.72496 0
M  V30 2649 C 243.459 -2.8593 -2.21193 0
M  V30 2650 O 243.18 -4.09329 -1.56146 0
M  V30 2651 C 244.681 -3.16259 -3.10636 0
M  V30 2652 H 241.901 -0.573641 -0.348104 0
M  V30 2653 H 244.445 -1.99234 -0.461092 0
M  V30 2654 H 242.6 -2.60465 -2.86769 0
M  V30 2655 H 243.014 -4.73323 -2.25978 0
M  V30 2656 H 244.488 -3.99946 -3.80456 0
M  V30 2657 H 244.965 -2.3045 -3.73884 0
M  V30 2658 H 245.571 -3.43547 -2.50711 0
M  V30 2659 N 243.887 0.651787 -1.4349 0
M  V30 2660 C 244.835 1.78586 -1.49029 0
M  V30 2661 C 245.829 1.65448 -0.363767 0
M  V30 2662 O 247.035 1.71777 -0.537821 0
M  V30 2663 H 243.41 0.589236 -0.467231 0
M  V30 2664 H 245.381 1.71035 -2.44519 0
M  V30 2665 C 244.13 3.16851 -1.43181 0
M  V30 2666 H 243.453 3.27598 -2.29171 0
M  V30 2667 H 244.893 3.96156 -1.51118 0
M  V30 2668 C 243.352 3.36568 -0.149616 0
M  V30 2669 O 243.882 3.93885 0.788509 0
M  V30 2670 N 242.088 2.90539 -0.0593484 0
M  V30 2671 H 241.635 2.4408 -0.823575 0
M  V30 2672 H 241.593 3.04108 0.797853 0
M  V30 2673 N 245.365 1.30045 0.890287 0
M  V30 2674 C 246.613 1.18327 1.63839 0
M  V30 2675 C 246.934 -0.263455 1.93212 0
M  V30 2676 O 246.204 -1.17856 1.56482 0
M  V30 2677 H 244.784 0.434933 0.607324 0
M  V30 2678 H 247.446 1.631 1.06698 0
M  V30 2679 H 246.542 1.74024 2.59079 0
M  V30 2680 N 246.843 -1.10192 1.12674 0
M  V30 2681 C 247.791 -2.18694 0.792196 0
M  V30 2682 C 248.785 -1.67938 -0.222058 0
M  V30 2683 O 249.991 -1.79822 -0.0800074 0
M  V30 2684 H 246.366 -0.713223 0.238364 0
M  V30 2685 H 248.337 -2.44149 1.71564 0
M  V30 2686 C 247.086 -3.46682 0.265859 0
M  V30 2687 H 246.409 -3.86101 1.03761 0
M  V30 2688 H 247.849 -4.23942 0.0701128 0
M  V30 2689 C 246.308 -3.21506 -1.00675 0
M  V30 2690 O 246.838 -3.43408 -2.08408 0
M  V30 2691 N 245.044 -2.75158 -0.934692 0
M  V30 2692 H 244.591 -2.57535 -0.0578604 0
M  V30 2693 H 244.549 -2.58691 -1.7868 0
M  V30 2694 N 248.321 -0.919034 -1.28029 0
M  V30 2695 C 249.546 -0.570357 -1.99403 0
M  V30 2696 C 249.971 0.842486 -1.68178 0
M  V30 2697 O 249.329 1.56391 -0.917141 0
M  V30 2698 C 249.377 -0.792541 -3.51783 0
M  V30 2699 O 248.481 0.145988 -4.12142 0
M  V30 2700 H 247.822 -0.220555 -0.6263 0
M  V30 2701 H 250.352 -1.23592 -1.63053 0
M  V30 2702 H 250.362 -0.704708 -4.01868 0
M  V30 2703 H 249.037 -1.82247 -3.73844 0
M  V30 2704 H 247.614 0.00897528 -3.72899 0
M  V30 2705 N 249.799 1.42003 -0.683588 0
M  V30 2706 C 250.729 2.33487 -0.024866 0
M  V30 2707 C 251.71 1.51163 0.779975 0
M  V30 2708 O 252.895 1.79739 0.735362 0
M  V30 2709 C 250.025 3.3487 0.920836 0
M  V30 2710 C 248.979 4.27414 0.223958 0
M  V30 2711 C 248.305 5.19074 1.2832 0
M  V30 2712 C 249.605 5.14445 -0.90242 0
M  V30 2713 H 251.299 2.88819 -0.788921 0
M  V30 2714 H 248.845 1.38873 -0.38083 0
M  V30 2715 H 250.798 3.97787 1.39081 0
M  V30 2716 H 249.522 2.77861 1.71642 0
M  V30 2717 H 248.181 3.65904 -0.225864 0
M  V30 2718 H 247.829 4.58387 2.071 0
M  V30 2719 H 247.529 5.81822 0.821995 0
M  V30 2720 H 249.053 5.84867 1.75392 0
M  V30 2721 H 250.467 5.70998 -0.513272 0
M  V30 2722 H 248.864 5.86072 -1.28997 0
M  V30 2723 H 249.934 4.52322 -1.74737 0
M  V30 2724 N 251.277 0.427512 1.51691 0
M  V30 2725 C 252.523 -0.142439 2.02299 0
M  V30 2726 C 252.856 -1.43214 1.31162 0
M  V30 2727 O 252.131 -1.89833 0.423511 0
M  V30 2728 C 252.414 -0.371301 3.58181 0
M  V30 2729 C 252.267 0.936358 4.39946 0
M  V30 2730 C 253.586 -1.14542 4.24933 0
M  V30 2731 H 250.705 -0.0502937 0.735282 0
M  V30 2732 H 253.347 0.564584 1.81418 0
M  V30 2733 H 251.497 -0.973559 3.76104 0
M  V30 2734 H 253.169 1.57184 4.33694 0
M  V30 2735 H 251.412 1.5432 4.05423 0
M  V30 2736 H 252.083 0.730388 5.47147 0
M  V30 2737 H 254.559 -0.635362 4.11221 0
M  V30 2738 H 253.435 -1.27431 5.33903 0
M  V30 2739 H 253.696 -2.17093 3.85127 0
M  V30 2740 N 252.755 -1.56801 0.158532 0
M  V30 2741 C 253.98 -2.01295 -0.499516 0
M  V30 2742 C 254.405 -1.03799 -1.56867 0
M  V30 2743 O 253.763 -0.0155162 -1.81293 0
M  V30 2744 C 253.811 -3.44469 -1.06647 0
M  V30 2745 O 252.915 -3.50012 -2.18095 0
M  V30 2746 H 252.256 -0.652884 -0.12099 0
M  V30 2747 H 254.786 -2.02958 0.258661 0
M  V30 2748 H 254.796 -3.8351 -1.39227 0
M  V30 2749 H 253.471 -4.14932 -0.283581 0
M  V30 2750 H 252.048 -3.22822 -1.86656 0
M  V30 2751 N 254.233 0.115231 -1.57178 0
M  V30 2752 C 255.163 1.1423 -2.03651 0
M  V30 2753 C 256.144 1.42967 -0.921655 0
M  V30 2754 O 257.329 1.53343 -1.19162 0
M  V30 2755 C 254.459 2.4675 -2.44401 0
M  V30 2756 C 253.413 2.32467 -3.59365 0
M  V30 2757 C 252.739 3.69984 -3.86026 0
M  V30 2758 C 254.039 1.78203 -4.90959 0
M  V30 2759 H 255.733 0.755749 -2.89705 0
M  V30 2760 H 253.279 0.362093 -1.39373 0
M  V30 2761 H 255.232 3.18854 -2.75517 0
M  V30 2762 H 253.956 2.87302 -1.55322 0
M  V30 2763 H 252.615 1.62811 -3.28463 0
M  V30 2764 H 252.263 4.08028 -2.94147 0
M  V30 2765 H 251.963 3.61279 -4.63412 0
M  V30 2766 H 253.487 4.43587 -4.19599 0
M  V30 2767 H 254.901 2.40128 -5.20587 0
M  V30 2768 H 253.298 1.8031 -5.72371 0
M  V30 2769 H 254.368 0.739876 -4.79222 0
M  V30 2770 N 255.711 1.52812 0.385517 0
M  V30 2771 C 256.939 1.71907 1.15133 0
M  V30 2772 C 257.354 0.439004 1.83625 0
M  V30 2773 O 256.711 -0.586765 1.7281 0
M  V30 2774 C 256.762 2.87099 2.19673 0
M  V30 2775 O 256.483 4.10151 1.53973 0
M  V30 2776 C 257.984 3.17902 3.08955 0
M  V30 2777 H 255.204 0.575479 0.345057 0
M  V30 2778 H 257.748 1.99476 0.45052 0
M  V30 2779 H 255.903 2.61982 2.85384 0
M  V30 2780 H 256.317 4.74514 2.23465 0
M  V30 2781 H 257.791 4.01959 3.7833 0
M  V30 2782 H 258.268 2.3243 3.72657 0
M  V30 2783 H 258.874 3.44871 2.48885 0
M  V30 2784 N 257.189 -0.644168 1.43834 0
M  V30 2785 C 258.436 -1.40395 1.4593 0
M  V30 2786 C 258.764 -1.94305 0.0869658 0
M  V30 2787 O 258.019 -1.73288 -0.909378 0
M  V30 2788 C 258.318 -2.59615 2.45631 0
M  V30 2789 C 257.984 -2.2407 3.91284 0
M  V30 2790 C 256.646 -2.14089 4.30952 0
M  V30 2791 C 258.998 -1.95775 4.83034 0
M  V30 2792 C 256.326 -1.73981 5.6031 0
M  V30 2793 C 258.678 -1.57163 6.12766 0
M  V30 2794 C 257.342 -1.45713 6.51402 0
M  V30 2795 H 256.612 -0.513741 0.533995 0
M  V30 2796 H 259.259 -0.731724 1.76969 0
M  V30 2797 H 257.564 -3.32011 2.08028 0
M  V30 2798 H 259.261 -3.17834 2.44504 0
M  V30 2799 H 255.851 -2.32753 3.59895 0
M  V30 2800 H 260.035 -2.02403 4.53152 0
M  V30 2801 H 255.291 -1.63709 5.89075 0
M  V30 2802 H 259.465 -1.34303 6.83327 0
M  V30 2803 H 257.092 -1.14406 7.51542 0
M  V30 2804 N 258.668 -1.30515 -0.883378 0
M  V30 2805 C 259.618 -1.13641 -1.9766 0
M  V30 2806 C 260.602 -0.0511314 -1.60819 0
M  V30 2807 O 261.794 -0.274623 -1.74857 0
M  V30 2808 C 258.923 -0.831976 -3.33066 0
M  V30 2809 C 258.009 -1.95759 -3.76217 0
M  V30 2810 N 258.4 -3.20313 -3.9145 0
M  V30 2811 C 256.698 -1.85431 -4.05625 0
M  V30 2812 C 257.399 -3.93856 -4.2808 0
M  V30 2813 N 256.375 -3.21919 -4.38029 0
M  V30 2814 H 260.177 -2.08106 -2.07531 0
M  V30 2815 H 257.691 -1.21877 -1.0733 0
M  V30 2816 H 259.688 -0.692102 -4.11115 0
M  V30 2817 H 258.348 0.104588 -3.24532 0
M  V30 2818 H 259.359 -3.55583 -3.76538 0
M  V30 2819 H 256.036 -0.991531 -4.05555 0
M  V30 2820 H 257.426 -5.01125 -4.47575 0
M  V30 2821 N 260.146 1.09593 -1.13257 0
M  V30 2822 C 261.076 2.18214 -0.830946 0
M  V30 2823 C 262.057 1.68812 0.208966 0
M  V30 2824 O 263.242 1.9408 0.0682666 0
M  V30 2825 C 260.372 3.46051 -0.294296 0
M  V30 2826 C 259.326 4.08778 -1.26826 0
M  V30 2827 C 258.652 5.31419 -0.591449 0
M  V30 2828 C 259.952 4.51476 -2.62615 0
M  V30 2829 H 261.646 2.43703 -1.73923 0
M  V30 2830 H 259.192 1.17128 -0.837675 0
M  V30 2831 H 261.145 4.2134 -0.0709606 0
M  V30 2832 H 259.869 3.20079 0.649366 0
M  V30 2833 H 258.528 3.35505 -1.47756 0
M  V30 2834 H 258.176 5.01727 0.357633 0
M  V30 2835 H 257.876 5.74341 -1.24123 0
M  V30 2836 H 259.4 6.09433 -0.377355 0
M  V30 2837 H 260.814 5.17999 -2.45663 0
M  V30 2838 H 259.211 5.05277 -3.23752 0
M  V30 2839 H 260.281 3.63962 -3.20406 0
M  V30 2840 N 261.624 0.925811 1.2754 0
M  V30 2841 C 262.871 0.565255 1.94451 0
M  V30 2842 C 263.199 -0.89316 1.7278 0
M  V30 2843 O 262.454 -1.65213 1.04895 0
M  V30 2844 C 262.753 0.835296 3.47502 0
M  V30 2845 C 262.419 2.27515 3.89291 0
M  V30 2846 C 261.081 2.66879 4.00411 0
M  V30 2847 C 263.433 3.21158 4.10496 0
M  V30 2848 C 260.761 3.99014 4.30122 0
M  V30 2849 C 263.113 4.52871 4.4169 0
M  V30 2850 C 261.777 4.92072 4.51023 0
M  V30 2851 H 261.047 0.206841 0.711546 0
M  V30 2852 H 263.694 1.16942 1.51647 0
M  V30 2853 H 261.999 0.148442 3.91519 0
M  V30 2854 H 263.696 0.535322 3.97411 0
M  V30 2855 H 260.286 1.95976 3.81171 0
M  V30 2856 H 264.47 2.9195 4.01346 0
M  V30 2857 H 259.726 4.2907 4.35556 0
M  V30 2858 H 263.9 5.25436 4.57045 0
M  V30 2859 H 261.527 5.9449 4.738 0
M  V30 2860 N 263.102 -1.41638 0.69111 0
M  V30 2861 C 264.327 -2.06148 0.227583 0
M  V30 2862 C 264.752 -1.51652 -1.11281 0
M  V30 2863 O 264.11 -0.64164 -1.69566 0
M  V30 2864 C 264.158 -3.60095 0.190858 0
M  V30 2865 O 263.262 -4.03845 -0.835664 0
M  V30 2866 H 262.603 -0.654434 0.112306 0
M  V30 2867 H 265.133 -1.81484 0.944714 0
M  V30 2868 H 265.143 -4.07995 0.020207 0
M  V30 2869 H 263.818 -3.99129 1.16915 0
M  V30 2870 H 262.395 -3.67458 -0.63473 0
M  V30 2871 N 264.58 -0.43555 -1.51462 0
M  V30 2872 C 265.51 0.367376 -2.30592 0
M  V30 2873 C 266.491 1.02263 -1.35928 0
M  V30 2874 O 267.676 1.02661 -1.64847 0
M  V30 2875 C 264.806 1.46983 -3.14664 0
M  V30 2876 C 263.76 0.938161 -4.17591 0
M  V30 2877 C 263.086 2.13622 -4.90173 0
M  V30 2878 C 264.386 -0.0261621 -5.22293 0
M  V30 2879 H 266.08 -0.292969 -2.97963 0
M  V30 2880 H 263.626 -0.14234 -1.43295 0
M  V30 2881 H 265.579 2.03873 -3.688 0
M  V30 2882 H 264.303 2.15843 -2.4511 0
M  V30 2883 H 262.962 0.391481 -3.64504 0
M  V30 2884 H 262.61 2.81098 -4.17124 0
M  V30 2885 H 262.31 1.78688 -5.59772 0
M  V30 2886 H 263.834 2.7107 -5.47132 0
M  V30 2887 H 265.248 0.452384 -5.71512 0
M  V30 2888 H 263.645 -0.287992 -5.99409 0
M  V30 2889 H 264.715 -0.963391 -4.75233 0
M  V30 2890 N 266.058 1.56714 -0.166846 0
M  V30 2891 C 267.008 2.14338 0.777382 0
M  V30 2892 C 267.992 1.07642 1.19591 0
M  V30 2893 O 269.184 1.33775 1.15902 0
M  V30 2894 C 266.313 2.78417 2.00846 0
M  V30 2895 C 265.399 3.92264 1.61212 0
M  V30 2896 N 265.79 4.97268 0.925104 0
M  V30 2897 C 264.088 4.03342 1.90346 0
M  V30 2898 C 264.789 5.77093 0.730627 0
M  V30 2899 N 263.765 5.2854 1.27067 0
M  V30 2900 H 267.567 2.9289 0.243466 0
M  V30 2901 H 265.081 1.62364 0.0339954 0
M  V30 2902 H 267.078 3.18073 2.69509 0
M  V30 2903 H 265.738 2.01344 2.54736 0
M  V30 2904 H 266.749 5.14601 0.583646 0
M  V30 2905 H 263.426 3.37368 2.45946 0
M  V30 2906 H 264.816 6.71638 0.187668 0
M  V30 2907 N 267.536 -0.106894 1.57237 0
M  V30 2908 C 268.784 -0.810921 1.85117 0
M  V30 2909 C 269.105 -1.7984 0.753827 0
M  V30 2910 O 268.375 -1.94649 -0.221056 0
M  V30 2911 H 266.955 -0.302466 0.683025 0
M  V30 2912 H 269.617 -0.0913324 1.94686 0
M  V30 2913 H 268.713 -1.34875 2.81452 0
M  V30 2914 N 269.014 -1.53014 -0.377408 0
M  V30 2915 C 269.944 -1.81589 -1.46791 0
M  V30 2916 C 270.925 -0.668622 -1.56408 0
M  V30 2917 O 272.11 -0.917337 -1.71168 0
M  V30 2918 C 269.24 -1.99519 -2.8427 0
M  V30 2919 C 268.194 -3.15249 -2.89486 0
M  V30 2920 C 267.52 -3.18451 -4.29527 0
M  V30 2921 C 268.82 -4.54084 -2.58079 0
M  V30 2922 H 270.514 -2.7291 -1.23127 0
M  V30 2923 H 268.06 -1.31319 -0.590883 0
M  V30 2924 H 270.013 -2.18092 -3.60575 0
M  V30 2925 H 268.737 -1.04897 -3.09296 0
M  V30 2926 H 267.396 -2.96477 -2.15631 0
M  V30 2927 H 267.044 -2.2149 -4.5161 0
M  V30 2928 H 266.744 -3.962 -4.33934 0
M  V30 2929 H 268.268 -3.39193 -5.07721 0
M  V30 2930 H 269.682 -4.72899 -3.24098 0
M  V30 2931 H 268.079 -5.33987 -2.7382 0
M  V30 2932 H 269.149 -4.60006 -1.53372 0
M  V30 2933 N 270.492 0.636531 -1.44174 0
M  V30 2934 C 271.741 1.39213 -1.45954 0
M  V30 2935 C 272.054 1.95374 -0.0939119 0
M  V30 2936 O 273.26 2.71498 0.0107767 0
M  V30 2937 C 271.716 2.52025 -2.56927 0
M  V30 2938 C 271.324 2.024 -3.99673 0
M  V30 2939 C 273.068 3.29269 -2.67922 0
M  V30 2940 C 270.975 3.12521 -5.0208 0
M  V30 2941 H 269.905 0.523132 -0.542999 0
M  V30 2942 H 272.556 0.685349 -1.70221 0
M  V30 2943 H 270.938 3.25253 -2.25891 0
M  V30 2944 H 272.112 1.36073 -4.40251 0
M  V30 2945 H 270.427 1.37987 -3.92872 0
M  V30 2946 H 273.024 4.11352 -3.41605 0
M  V30 2947 H 273.367 3.78397 -1.73555 0
M  V30 2948 H 273.9 2.63129 -2.98342 0
M  V30 2949 H 270.639 2.68343 -5.98057 0
M  V30 2950 H 270.159 3.77507 -4.66099 0
M  V30 2951 H 271.838 3.77385 -5.25538 0
M  V30 2952 N 271.97 1.30982 0.876444 0
M  V30 2953 C 272.88 1.2003 2.01569 0
M  V30 2954 C 273.896 0.11838 1.73597 0
M  V30 2955 O 275.072 0.33495 1.98595 0
M  V30 2956 C 272.137 0.901637 3.34771 0
M  V30 2957 C 271.198 2.06979 3.76109 0
M  V30 2958 C 270.431 1.78529 5.02954 0
M  V30 2959 O 270.654 0.717296 5.65872 0
M  V30 2960 O 269.588 2.64019 5.40905 0
M  V30 2961 H 273.414 2.15753 2.13739 0
M  V30 2962 H 270.999 1.10658 1.00375 0
M  V30 2963 H 272.881 0.750645 4.1466 0
M  V30 2964 H 271.556 -0.0256141 3.2369 0
M  V30 2965 H 270.463 2.27616 2.96887 0
M  V30 2966 H 271.796 2.97907 3.91807 0
M  V30 2967 N 273.449 -1.08991 1.13837 0
M  V30 2968 C 274.679 -1.84743 0.924859 0
M  V30 2969 C 275.087 -1.81629 -0.529874 0
M  V30 2970 O 274.43 -1.21397 -1.37872 0
M  V30 2971 C 274.492 -3.33568 1.34061 0
M  V30 2972 C 274.156 -3.60425 2.80968 0
M  V30 2973 C 275.153 -3.55771 3.79108 0
M  V30 2974 C 272.838 -3.88627 3.18236 0
M  V30 2975 C 274.832 -3.78939 5.12527 0
M  V30 2976 C 272.519 -4.11449 4.51833 0
M  V30 2977 C 273.517 -4.06598 5.48787 0
M  V30 2978 O 273.205 -4.28826 6.79973 0
M  V30 2979 H 272.937 -0.590258 0.329502 0
M  V30 2980 H 275.491 -1.38598 1.51591 0
M  V30 2981 H 273.721 -3.80442 0.692853 0
M  V30 2982 H 275.41 -3.90743 1.09886 0
M  V30 2983 H 276.176 -3.34005 3.51661 0
M  V30 2984 H 272.055 -3.91526 2.43369 0
M  V30 2985 H 275.599 -3.75068 5.88192 0
M  V30 2986 H 271.496 -4.32698 4.79002 0
M  V30 2987 H 272.264 -4.46264 6.86142 0
M  V30 2988 N 274.927 -0.932562 -1.27047 0
M  V30 2989 C 276.174 -0.575559 -1.94148 0
M  V30 2990 C 276.502 0.883984 -1.73251 0
M  V30 2991 O 275.757 1.64655 -1.0577 0
M  V30 2992 C 276.056 -0.853713 -3.47054 0
M  V30 2993 C 275.722 -2.29577 -3.88079 0
M  V30 2994 C 274.384 -2.68999 -3.9899 0
M  V30 2995 C 276.736 -3.23331 -4.08787 0
M  V30 2996 C 274.064 -4.01289 -4.28 0
M  V30 2997 C 276.416 -4.55207 -4.39282 0
M  V30 2998 C 275.08 -4.94457 -4.48407 0
M  V30 2999 H 274.35 -0.210612 -0.710439 0
M  V30 3000 H 276.997 -1.17744 -1.51025 0
M  V30 3001 H 275.302 -0.169204 -3.91434 0
M  V30 3002 H 276.999 -0.55639 -3.97121 0
M  V30 3003 H 273.589 -1.97994 -3.80127 0
M  V30 3004 H 277.773 -2.94074 -3.99793 0
M  V30 3005 H 273.029 -4.31374 -4.33275 0
M  V30 3006 H 277.203 -5.27852 -4.54252 0
M  V30 3007 H 274.83 -5.96994 -4.7064 0
M  V30 3008 N 276.405 1.4127 -0.698611 0
M  V30 3009 C 277.355 2.27997 -0.0119836 0
M  V30 3010 C 278.339 1.42363 0.749765 0
M  V30 3011 O 279.531 1.65607 0.624758 0
M  V30 3012 C 276.66 3.30702 0.921458 0
M  V30 3013 C 275.746 4.23814 0.155796 0
M  V30 3014 N 276.137 4.98572 -0.852015 0
M  V30 3015 C 274.435 4.44284 0.390836 0
M  V30 3016 C 275.136 5.66744 -1.3106 0
M  V30 3017 N 274.112 5.39867 -0.635944 0
M  V30 3018 H 277.914 2.83232 -0.784649 0
M  V30 3019 H 275.428 1.53518 -0.529711 0
M  V30 3020 H 277.425 3.91661 1.42854 0
M  V30 3021 H 276.085 2.77028 1.69369 0
M  V30 3022 H 277.096 5.03024 -1.23235 0
M  V30 3023 H 273.773 4.01614 1.14071 0
M  V30 3024 H 275.163 6.36672 -2.14707 0
M  V30 3025 N 277.883 0.443576 1.51229 0
M  V30 3026 C 278.813 -0.355142 2.30783 0
M  V30 3027 C 279.794 -1.0154 1.36468 0
M  V30 3028 O 280.979 -1.01785 1.65389 0
M  V30 3029 C 278.109 -1.45312 3.15439 0
M  V30 3030 C 277.063 -0.916002 4.18083 0
M  V30 3031 C 276.389 -2.1102 4.91299 0
M  V30 3032 C 277.689 0.0538602 5.22272 0
M  V30 3033 H 279.383 0.308767 2.97804 0
M  V30 3034 H 276.929 0.149937 1.43217 0
M  V30 3035 H 278.882 -2.01914 3.69876 0
M  V30 3036 H 277.606 -2.14541 2.46252 0
M  V30 3037 H 276.265 -0.372145 3.64706 0
M  V30 3038 H 275.913 -2.78882 4.18609 0
M  V30 3039 H 275.613 -1.75717 5.60712 0
M  V30 3040 H 277.137 -2.68164 5.48562 0
M  V30 3041 H 278.551 -0.422069 5.71744 0
M  V30 3042 H 276.948 0.319776 5.99247 0
M  V30 3043 H 278.018 0.98858 4.74716 0
M  V30 3044 N 279.361 -1.56624 0.175154 0
M  V30 3045 C 280.638 -1.88688 -0.515373 0
M  V30 3046 C 281.018 -1.08564 -1.81044 0
M  V30 3047 O 280.366 -0.180703 -2.27784 0
M  V30 3048 C 280.576 -3.40768 -0.753552 0
M  V30 3049 C 281.924 -4.10587 -1.08184 0
M  V30 3050 O 282.948 -3.46106 -0.841961 0
M  V30 3051 O 281.807 -5.24512 -1.53459 0
M  V30 3052 H 278.901 -0.78301 -0.26613 0
M  V30 3053 H 281.447 -1.68347 0.213877 0
M  V30 3054 H 280.219 -3.90965 0.161829 0
M  V30 3055 H 279.842 -3.66733 -1.53598 0
M  V30 3056 N 280.839 0.0985539 -1.57292 0
M  V30 3057 C 281.772 1.15082 -1.97057 0
M  V30 3058 C 282.75 1.39025 -0.843255 0
M  V30 3059 O 283.934 1.52842 -1.10325 0
M  V30 3060 C 281.061 2.50069 -2.28437 0
M  V30 3061 C 280.107 2.42428 -3.509 0
M  V30 3062 S 280.94 1.84414 -5.02744 0
M  V30 3063 C 282.096 3.21032 -5.37298 0
M  V30 3064 H 282.329 0.811815 -2.86002 0
M  V30 3065 H 279.862 0.306102 -1.51335 0
M  V30 3066 H 281.82 3.27729 -2.47192 0
M  V30 3067 H 280.481 2.8114 -1.40069 0
M  V30 3068 H 279.674 3.41911 -3.70288 0
M  V30 3069 H 279.276 1.72896 -3.31637 0
M  V30 3070 H 281.568 4.17297 -5.33731 0
M  V30 3071 H 282.511 3.06452 -6.38352 0
M  V30 3072 H 282.919 3.20404 -4.64759 0
M  V30 3073 N 282.317 1.53212 0.369288 0
M  V30 3074 C 283.25 1.74166 1.4745 0
M  V30 3075 C 284.228 0.589923 1.51521 0
M  V30 3076 O 285.412 0.822078 1.69629 0
M  V30 3077 C 282.539 1.81711 2.8583 0
M  V30 3078 C 281.585 3.03649 2.99499 0
M  V30 3079 S 282.418 4.63242 2.6864 0
M  V30 3080 C 283.574 4.7363 4.09177 0
M  V30 3081 H 283.807 2.67636 1.29454 0
M  V30 3082 H 281.34 1.43754 0.563396 0
M  V30 3083 H 283.298 1.86743 3.65564 0
M  V30 3084 H 281.959 0.89299 3.01139 0
M  V30 3085 H 281.152 3.05526 4.00836 0
M  V30 3086 H 280.754 2.9671 2.27683 0
M  V30 3087 H 283.046 4.53456 5.03372 0
M  V30 3088 H 283.989 5.75682 4.12306 0
M  V30 3089 H 284.397 4.02295 3.96004 0
M  V30 3090 N 283.795 -0.628877 1.44509 0
M  V30 3091 C 284.742 -1.74074 1.51549 0
M  V30 3092 C 285.712 -1.62084 0.363021 0
M  V30 3093 O 286.897 -1.81975 0.573567 0
M  V30 3094 C 284.037 -3.12328 1.46784 0
M  V30 3095 C 283.15 -3.35277 2.72422 0
M  V30 3096 C 282.285 -4.63515 2.59475 0
M  V30 3097 C 281.324 -4.7965 3.80266 0
M  V30 3098 N 280.461 -5.99168 3.65981 0
M  V30 3099 H 285.301 -1.67392 2.46544 0
M  V30 3100 H 282.838 -0.816527 1.22357 0
M  V30 3101 H 284.796 -3.92286 1.42012 0
M  V30 3102 H 283.426 -3.18018 0.553544 0
M  V30 3103 H 282.478 -2.49242 2.87372 0
M  V30 3104 H 283.79 -3.43078 3.62076 0
M  V30 3105 H 282.944 -5.51638 2.52548 0
M  V30 3106 H 281.683 -4.58076 1.67384 0
M  V30 3107 H 280.688 -3.89957 3.87574 0
M  V30 3108 H 281.913 -4.86902 4.73395 0
M  V30 3109 H 279.859 -5.94814 2.76644 0
M  V30 3110 H 279.776 -6.08035 4.49254 0
M  V30 3111 H 281.044 -6.89846 3.6295 0
M  V30 3112 N 285.273 -1.31445 -0.869486 0
M  V30 3113 C 286.203 -1.21727 -1.99261 0
M  V30 3114 C 287.184 -0.104359 -1.6978 0
M  V30 3115 O 288.369 -0.289038 -1.92037 0
M  V30 3116 C 285.499 -0.924317 -3.34774 0
M  V30 3117 C 284.453 -1.99685 -3.78563 0
M  V30 3118 C 283.779 -1.55658 -5.11541 0
M  V30 3119 C 285.079 -3.41003 -3.95619 0
M  V30 3120 H 286.773 -2.1569 -2.07649 0
M  V30 3121 H 284.319 -1.03839 -0.997675 0
M  V30 3122 H 286.272 -0.842934 -4.12883 0
M  V30 3123 H 284.996 0.0509793 -3.2656 0
M  V30 3124 H 283.655 -2.06813 -3.02694 0
M  V30 3125 H 283.303 -0.569132 -4.9977 0
M  V30 3126 H 283.003 -2.27409 -5.41811 0
M  V30 3127 H 284.527 -1.48928 -5.92159 0
M  V30 3128 H 285.941 -3.36547 -4.64122 0
M  V30 3129 H 284.338 -4.10975 -4.37286 0
M  V30 3130 H 285.408 -3.81754 -2.98985 0
M  V30 3131 N 286.751 1.08385 -1.14413 0
M  V30 3132 C 288.167 1.32844 -0.884563 0
M  V30 3133 C 288.367 1.95841 0.474181 0
M  V30 3134 O 287.423 2.21158 1.21842 0
M  V30 3135 C 288.736 2.22978 -2.01745 0
M  V30 3136 C 290.284 2.36458 -2.05077 0
M  V30 3137 C 290.759 3.29934 -3.1766 0
M  V30 3138 N 292.25 3.37511 -3.17239 0
M  V30 3139 C 292.985 4.09871 -4.0099 0
M  V30 3140 N 292.481 4.84936 -4.94781 0
M  V30 3141 N 294.274 4.05704 -3.89051 0
M  V30 3142 H 286.425 0.658756 -2.01926 0
M  V30 3143 H 288.688 0.352821 -0.879899 0
M  V30 3144 H 288.394 1.83934 -2.99769 0
M  V30 3145 H 288.268 3.23441 -1.94077 0
M  V30 3146 H 290.655 2.7476 -1.0766 0
M  V30 3147 H 290.736 1.35736 -2.16816 0
M  V30 3148 H 290.38 2.92352 -4.15322 0
M  V30 3149 H 290.31 4.30584 -3.03158 0
M  V30 3150 H 292.801 2.83996 -2.49308 0
M  V30 3151 H 293.114 5.37612 -5.55151 0
M  V30 3152 H 291.459 4.83988 -4.98779 0
M  V30 3153 H 294.65 3.46167 -3.15097 0
M  V30 3154 H 294.823 4.61834 -4.54547 0
M  V30 3155 N 288.23 0.939286 1.26551 0
M  V30 3156 C 289.646 0.641304 1.46149 0
M  V30 3157 C 289.846 -0.805964 1.84679 0
M  V30 3158 O 288.902 -1.58278 1.96734 0
M  V30 3159 C 290.215 1.6011 2.54529 0
M  V30 3160 C 291.763 1.6106 2.68382 0
M  V30 3161 C 292.238 2.55765 3.79932 0
M  V30 3162 N 293.729 2.5404 3.87322 0
M  V30 3163 C 294.464 3.24004 4.73085 0
M  V30 3164 N 293.96 4.03388 5.63249 0
M  V30 3165 N 295.753 3.12965 4.66914 0
M  V30 3166 H 287.904 1.87478 0.998285 0
M  V30 3167 H 290.167 0.805559 0.499779 0
M  V30 3168 H 289.873 2.63412 2.33039 0
M  V30 3169 H 289.747 1.35171 3.52149 0
M  V30 3170 H 292.134 0.584835 2.89247 0
M  V30 3171 H 292.215 1.90053 1.71212 0
M  V30 3172 H 291.859 3.58458 3.5982 0
M  V30 3173 H 291.789 2.24063 4.76554 0
M  V30 3174 H 294.28 1.96396 3.22858 0
M  V30 3175 H 294.593 4.5373 6.25579 0
M  V30 3176 H 292.938 4.07489 5.63008 0
M  V30 3177 H 296.129 2.50432 3.95476 0
M  V30 3178 H 296.302 3.67759 5.33533 0
M  V30 3179 N 289.708 -1.40897 0.706093 0
M  V30 3180 C 290.955 -2.01054 0.241531 0
M  V30 3181 C 291.283 -1.55956 -1.16223 0
M  V30 3182 O 290.538 -0.766336 -1.80072 0
M  V30 3183 C 290.837 -3.5646 0.259099 0
M  V30 3184 C 290.503 -4.21106 1.61184 0
M  V30 3185 C 289.165 -4.38479 1.98216 0
M  V30 3186 C 291.517 -4.57256 2.50132 0
M  V30 3187 C 288.845 -4.89282 3.2376 0
M  V30 3188 C 291.197 -5.09454 3.7502 0
M  V30 3189 C 289.861 -5.25037 4.12181 0
M  V30 3190 H 289.131 -0.73571 0.0883825 0
M  V30 3191 H 291.778 -1.68645 0.907257 0
M  V30 3192 H 290.083 -3.88721 -0.490189 0
M  V30 3193 H 291.78 -4.00826 -0.11804 0
M  V30 3194 H 288.37 -4.07966 1.31384 0
M  V30 3195 H 292.554 -4.43479 2.228 0
M  V30 3196 H 287.81 -4.99531 3.52532 0
M  V30 3197 H 291.984 -5.36404 4.44121 0
M  V30 3198 H 289.611 -5.64164 5.09532 0
M  V30 3199 N 291.186 -0.45159 -1.50991 0
M  V30 3200 C 292.116 0.342898 -2.30969 0
M  V30 3201 C 293.097 1.00815 -1.37005 0
M  V30 3202 O 294.282 1.00907 -1.65926 0
M  V30 3203 C 291.412 1.43637 -3.16205 0
M  V30 3204 C 290.366 0.893818 -4.18563 0
M  V30 3205 C 289.692 2.08411 -4.92411 0
M  V30 3206 C 290.992 -0.0815568 -5.22236 0
M  V30 3207 H 292.686 -0.324556 -2.97636 0
M  V30 3208 H 290.232 -0.157531 -1.43136 0
M  V30 3209 H 292.185 1.9995 -3.70942 0
M  V30 3210 H 290.909 2.13232 -2.47386 0
M  V30 3211 H 289.568 0.352798 -3.64898 0
M  V30 3212 H 289.216 2.76658 -4.20082 0
M  V30 3213 H 288.916 1.72741 -5.61636 0
M  V30 3214 H 290.44 2.65251 -5.49976 0
M  V30 3215 H 291.854 0.391742 -5.7196 0
M  V30 3216 H 290.251 -0.351551 -5.99069 0
M  V30 3217 H 291.321 -1.01374 -4.74185 0
M  V30 3218 N 292.664 1.56529 -0.183458 0
M  V30 3219 C 293.91 1.97537 0.459036 0
M  V30 3220 C 294.243 1.06989 1.62071 0
M  V30 3221 O 293.518 0.11948 1.94133 0
M  V30 3222 C 293.801 3.47874 0.930368 0
M  V30 3223 C 293.654 4.492 -0.232317 0
M  V30 3224 C 294.973 4.01612 1.79989 0
M  V30 3225 H 292.092 0.718204 0.165383 0
M  V30 3226 H 294.734 1.88042 -0.272038 0
M  V30 3227 H 292.884 3.56095 1.55333 0
M  V30 3228 H 294.556 4.53027 -0.86972 0
M  V30 3229 H 292.799 4.24657 -0.885928 0
M  V30 3230 H 293.47 5.51823 0.139796 0
M  V30 3231 H 295.946 3.96097 1.27461 0
M  V30 3232 H 294.822 5.07195 2.09867 0
M  V30 3233 H 295.083 3.46163 2.74998 0
M  V30 3234 N 294.142 -0.090211 1.57342 0
M  V30 3235 C 295.075 -1.14035 1.97664 0
M  V30 3236 C 296.053 -1.38576 0.850616 0
M  V30 3237 O 297.237 -1.52255 1.11134 0
M  V30 3238 C 294.364 -2.48854 2.2976 0
M  V30 3239 C 293.41 -2.40564 3.52181 0
M  V30 3240 S 294.243 -1.81745 5.03715 0
M  V30 3241 C 295.399 -3.18178 5.38993 0
M  V30 3242 H 295.632 -0.796636 2.86428 0
M  V30 3243 H 293.165 -0.298072 1.51496 0
M  V30 3244 H 295.123 -3.26413 2.48927 0
M  V30 3245 H 293.784 -2.80393 1.41558 0
M  V30 3246 H 292.977 -3.39942 3.72096 0
M  V30 3247 H 292.579 -1.71135 3.32549 0
M  V30 3248 H 294.871 -4.14461 5.35937 0
M  V30 3249 H 295.814 -3.03062 6.39968 0
M  V30 3250 H 296.222 -3.17935 4.66452 0
M  V30 3251 N 295.62 -1.53406 -0.361157 0
M  V30 3252 C 296.869 -1.69022 -1.10066 0
M  V30 3253 C 297.182 -0.450838 -1.90333 0
M  V30 3254 O 298.388 -0.487617 -2.67085 0
M  V30 3255 C 296.844 -2.98812 -2.00598 0
M  V30 3256 C 296.452 -4.30027 -1.25621 0
M  V30 3257 C 298.196 -3.23795 -2.74513 0
M  V30 3258 C 296.103 -5.50903 -2.1508 0
M  V30 3259 H 295.033 -0.629776 -0.414606 0
M  V30 3260 H 297.684 -1.79907 -0.361348 0
M  V30 3261 H 296.066 -2.8174 -2.78278 0
M  V30 3262 H 297.24 -4.57745 -0.529739 0
M  V30 3263 H 295.555 -4.11522 -0.635496 0
M  V30 3264 H 298.152 -4.11289 -3.41681 0
M  V30 3265 H 298.495 -2.40045 -3.40123 0
M  V30 3266 H 299.028 -3.41561 -2.03914 0
M  V30 3267 H 295.767 -6.37143 -1.54041 0
M  V30 3268 H 295.287 -5.27459 -2.85565 0
M  V30 3269 H 296.966 -5.85865 -2.74538 0
M  V30 3270 N 297.098 0.621204 -1.44841 0
M  V30 3271 C 298.03 1.74615 -1.48466 0
M  V30 3272 C 299.043 1.58377 -0.37691 0
M  V30 3273 O 300.232 1.66508 -0.643215 0
M  V30 3274 C 297.332 3.12459 -1.31236 0
M  V30 3275 C 296.505 3.55064 -2.55438 0
M  V30 3276 C 295.564 4.71821 -2.32963 0
M  V30 3277 O 294.59 4.79628 -3.06505 0
M  V30 3278 N 295.792 5.64186 -1.36654 0
M  V30 3279 H 298.557 1.71973 -2.45449 0
M  V30 3280 H 296.118 0.806077 -1.40407 0
M  V30 3281 H 298.11 3.88302 -1.14032 0
M  V30 3282 H 296.68 3.09686 -0.4258 0
M  V30 3283 H 295.9 2.69324 -2.87851 0
M  V30 3284 H 297.188 3.80284 -3.38026 0
M  V30 3285 H 296.586 5.6058 -0.759344 0
M  V30 3286 H 295.143 6.39618 -1.25425 0
M  V30 3287 N 298.576 1.31904 0.862503 0
M  V30 3288 C 299.486 1.22161 2.00285 0
M  V30 3289 C 300.502 0.136785 1.73462 0
M  V30 3290 O 301.678 0.355994 1.98229 0
M  V30 3291 C 298.743 0.937093 3.33796 0
M  V30 3292 C 297.804 2.10957 3.73893 0
M  V30 3293 C 297.037 1.83853 5.01033 0
M  V30 3294 O 297.26 0.777274 5.65079 0
M  V30 3295 O 296.194 2.69741 5.38074 0
M  V30 3296 H 300.02 2.18008 2.11439 0
M  V30 3297 H 297.605 1.11716 0.991957 0
M  V30 3298 H 299.487 0.794583 4.13841 0
M  V30 3299 H 298.162 0.00871894 3.23699 0
M  V30 3300 H 297.069 2.30752 2.94456 0
M  V30 3301 H 298.402 3.02046 3.88625 0
M  V30 3302 N 300.054 -1.07777 1.14986 0
M  V30 3303 C 301.331 -1.7699 0.832695 0
M  V30 3304 C 301.711 -2.001 -0.672561 0
M  V30 3305 O 301.059 -1.61598 -1.6155 0
M  V30 3306 C 301.269 -3.08139 1.63863 0
M  V30 3307 C 302.617 -3.8256 1.84208 0
M  V30 3308 O 303.641 -3.17939 1.60603 0
M  V30 3309 O 302.5 -4.98612 2.23714 0
M  V30 3310 H 299.594 -0.768389 0.305791 0
M  V30 3311 H 302.14 -1.14182 1.25541 0
M  V30 3312 H 300.912 -2.86909 2.6608 0
M  V30 3313 H 300.535 -3.78678 1.21197 0
M  V30 3314 N 301.532 -0.945985 -1.26051 0
M  V30 3315 C 302.762 -0.612136 -1.97323 0
M  V30 3316 C 303.17 0.818171 -1.70595 0
M  V30 3317 O 302.513 1.55777 -0.973613 0
M  V30 3318 C 302.575 -0.780347 -3.50929 0
M  V30 3319 C 302.239 -2.18619 -4.01317 0
M  V30 3320 C 303.236 -3.16209 -4.12683 0
M  V30 3321 C 300.921 -2.50805 -4.35203 0
M  V30 3322 C 302.915 -4.44085 -4.57238 0
M  V30 3323 C 300.602 -3.78912 -4.79446 0
M  V30 3324 C 301.6 -4.75365 -4.90425 0
M  V30 3325 O 301.288 -6.01191 -5.3369 0
M  V30 3326 H 301.02 -0.229134 -0.635982 0
M  V30 3327 H 303.574 -1.27036 -1.61404 0
M  V30 3328 H 301.804 -0.0649864 -3.86645 0
M  V30 3329 H 303.493 -0.448842 -4.03411 0
M  V30 3330 H 304.259 -2.92668 -3.86744 0
M  V30 3331 H 300.138 -1.76463 -4.2589 0
M  V30 3332 H 303.682 -5.19373 -4.65723 0
M  V30 3333 H 299.579 -4.02265 -5.0483 0
M  V30 3334 H 300.347 -6.04442 -5.51899 0
M  V30 3335 N 303.011 1.40521 -0.713556 0
M  V30 3336 C 303.961 2.27971 -0.036165 0
M  V30 3337 C 304.945 1.43151 0.734623 0
M  V30 3338 O 306.137 1.66261 0.607158 0
M  V30 3339 C 303.266 3.31661 0.886331 0
M  V30 3340 C 302.352 4.23955 0.110836 0
M  V30 3341 N 302.743 4.97641 -0.904847 0
M  V30 3342 C 301.041 4.44674 0.343692 0
M  V30 3343 C 301.742 5.65322 -1.37064 0
M  V30 3344 N 300.718 5.39162 -0.693168 0
M  V30 3345 H 304.52 2.82384 -0.814645 0
M  V30 3346 H 302.034 1.52948 -0.545963 0
M  V30 3347 H 304.031 3.93154 1.38692 0
M  V30 3348 H 302.691 2.78808 1.66421 0
M  V30 3349 H 303.702 5.01689 -1.28563 0
M  V30 3350 H 300.379 4.02801 1.09805 0
M  V30 3351 H 301.769 6.34359 -2.21447 0
M  V30 3352 N 304.489 0.459591 1.5075 0
M  V30 3353 C 305.714 -0.0996819 2.0716 0
M  V30 3354 C 306.139 -1.33761 1.32249 0
M  V30 3355 O 305.497 -1.77551 0.366786 0
M  V30 3356 C 305.545 -0.378226 3.58611 0
M  V30 3357 O 304.649 -1.46081 3.85661 0
M  V30 3358 H 303.99 0.00791392 0.663953 0
M  V30 3359 H 306.52 0.647329 1.9409 0
M  V30 3360 H 306.53 -0.622135 4.03229 0
M  V30 3361 H 305.205 0.526439 4.12555 0
M  V30 3362 H 303.782 -1.20511 3.5289 0
M  V30 3363 N 305.967 -1.56429 0.191757 0
M  V30 3364 C 306.899 -2.16154 -0.762245 0
M  V30 3365 C 307.912 -1.12247 -1.17917 0
M  V30 3366 O 309.101 -1.39353 -1.11548 0
M  V30 3367 C 306.201 -2.70606 -2.04024 0
M  V30 3368 C 305.374 -3.99381 -1.78364 0
M  V30 3369 C 304.433 -4.38692 -2.90578 0
M  V30 3370 O 303.459 -5.06179 -2.6033 0
M  V30 3371 N 304.661 -4.01922 -4.18854 0
M  V30 3372 H 307.426 -2.98643 -0.251526 0
M  V30 3373 H 304.987 -1.61897 0.00967373 0
M  V30 3374 H 306.979 -2.93891 -2.78227 0
M  V30 3375 H 305.549 -1.9259 -2.46227 0
M  V30 3376 H 304.769 -3.84262 -0.879581 0
M  V30 3377 H 306.057 -4.83445 -1.58614 0
M  V30 3378 H 305.455 -3.47631 -4.46283 0
M  V30 3379 H 304.012 -4.30165 -4.89695 0
M  V30 3380 N 307.445 0.0818655 -1.57387 0
M  V30 3381 C 308.393 1.11712 -2.04018 0
M  V30 3382 C 309.387 1.40683 -0.94364 0
M  V30 3383 O 310.593 1.40209 -1.12878 0
M  V30 3384 H 306.968 0.377542 -0.650358 0
M  V30 3385 H 308.939 0.697614 -2.90131 0
M  V30 3386 C 307.688 2.42537 -2.49141 0
M  V30 3387 H 307.011 2.21092 -3.33104 0
M  V30 3388 H 308.451 3.13446 -2.85531 0
M  V30 3389 C 306.91 3.0778 -1.37014 0
M  V30 3390 O 307.44 3.95436 -0.706621 0
M  V30 3391 N 305.646 2.68242 -1.11779 0
M  V30 3392 H 305.193 1.97052 -1.65917 0
M  V30 3393 H 305.151 3.1222 -0.369594 0
M  V30 3394 N 308.923 1.53595 0.353017 0
M  V30 3395 C 310.334 1.61937 0.929153 0
M  V30 3396 C 310.685 0.494686 1.89861 0
M  V30 3397 O 309.81 -0.377017 2.1309 0
M  V30 3398 C 310.405 2.93526 1.69199 0
M  V30 3399 C 308.964 3.04161 2.21727 0
M  V30 3400 C 308.111 2.57322 1.03348 0
M  V30 3401 H 311.062 1.58155 0.131431 0
M  V30 3402 H 311.083 2.82034 2.55416 0
M  V30 3403 H 310.595 3.75362 0.986144 0
M  V30 3404 H 308.696 2.26938 2.95516 0
M  V30 3405 H 308.809 4.09465 2.48748 0
M  V30 3406 H 307.173 2.12499 1.40414 0
M  V30 3407 H 307.956 3.41588 0.342428 0
M  V30 3408 N 310.401 -0.613514 1.45168 0
M  V30 3409 C 311.631 -1.39743 1.52169 0
M  V30 3410 C 312.039 -1.88596 0.151086 0
M  V30 3411 O 311.382 -1.6251 -0.856521 0
M  V30 3412 C 311.444 -2.64035 2.43979 0
M  V30 3413 C 311.108 -2.36861 3.90827 0
M  V30 3414 C 312.105 -1.97591 4.80889 0
M  V30 3415 C 309.79 -2.49956 4.35692 0
M  V30 3416 C 311.784 -1.71768 6.1382 0
M  V30 3417 C 309.471 -2.23747 5.68665 0
M  V30 3418 C 310.469 -1.84714 6.57548 0
M  V30 3419 O 310.157 -1.58809 7.88058 0
M  V30 3420 H 309.889 -0.434382 0.517966 0
M  V30 3421 H 312.443 -0.75587 1.90986 0
M  V30 3422 H 310.673 -3.3089 2.00122 0
M  V30 3423 H 312.362 -3.26069 2.41731 0
M  V30 3424 H 313.128 -1.87015 4.47493 0
M  V30 3425 H 309.007 -2.79305 3.66756 0
M  V30 3426 H 312.551 -1.41227 6.83155 0
M  V30 3427 H 308.448 -2.33938 6.01617 0
M  V30 3428 H 309.216 -1.7291 8.00028 0
M  V30 3429 N 311.879 -1.3236 -0.855495 0
M  V30 3430 C 312.829 -1.17809 -1.95205 0
M  V30 3431 C 313.813 -0.0852319 -1.60674 0
M  V30 3432 O 315.005 -0.311651 -1.74235 0
M  V30 3433 C 312.134 -0.902437 -3.31226 0
M  V30 3434 C 311.22 -2.03695 -3.7198 0
M  V30 3435 N 311.611 -3.28544 -3.84568 0
M  V30 3436 C 309.909 -1.93993 -4.016 0
M  V30 3437 C 310.61 -4.02847 -4.19629 0
M  V30 3438 N 309.586 -3.31138 -4.31102 0
M  V30 3439 H 313.388 -2.12462 -2.0307 0
M  V30 3440 H 310.902 -1.24127 -1.0472 0
M  V30 3441 H 312.899 -0.77915 -4.09554 0
M  V30 3442 H 311.559 0.0357267 -3.2468 0
M  V30 3443 H 312.57 -3.6349 -3.68911 0
M  V30 3444 H 309.247 -1.07733 -4.03361 0
M  V30 3445 H 310.637 -5.10506 -4.36845 0
M  V30 3446 N 313.357 1.07166 -1.15556 0
M  V30 3447 C 314.305 2.16517 -0.8499 0
M  V30 3448 C 315.299 1.68468 0.177454 0
M  V30 3449 O 316.505 1.79971 0.0323026 0
M  V30 3450 H 312.88 0.706652 -0.25719 0
M  V30 3451 H 314.851 2.39514 -1.77976 0
M  V30 3452 C 313.6 3.45855 -0.357682 0
M  V30 3453 H 312.923 3.83214 -1.13961 0
M  V30 3454 H 314.363 4.23607 -0.182489 0
M  V30 3455 C 312.822 3.24062 0.921152 0
M  V30 3456 O 313.352 3.48813 1.9923 0
M  V30 3457 N 311.558 2.77539 0.86141 0
M  V30 3458 H 311.105 2.57598 -0.0104408 0
M  V30 3459 H 311.063 2.63337 1.71758 0
M  V30 3460 N 314.835 0.952656 1.25548 0
M  V30 3461 C 315.798 0.475794 2.24207 0
M  V30 3462 C 316.798 -0.419428 1.55234 0
M  V30 3463 O 317.988 -0.216994 1.72843 0
M  V30 3464 C 315.12 -0.312814 3.39462 0
M  V30 3465 H 316.313 1.34779 2.67908 0
M  V30 3466 H 313.866 0.735739 1.37901 0
M  V30 3467 H 314.601 -1.20257 3.01179 0
M  V30 3468 H 314.386 0.329404 3.90714 0
M  V30 3469 H 315.876 -0.635986 4.12729 0
M  V30 3470 N 316.313 -1.40141 0.720998 0
M  V30 3471 C 317.559 -2.01084 0.263231 0
M  V30 3472 C 317.892 -1.57052 -1.14229 0
M  V30 3473 O 317.167 -0.793027 -1.77599 0
M  V30 3474 C 317.45 -3.58401 0.349344 0
M  V30 3475 C 317.303 -4.12491 1.79363 0
M  V30 3476 C 318.622 -4.39231 -0.276351 0
M  V30 3477 H 315.741 -0.730572 0.0971228 0
M  V30 3478 H 318.383 -1.66543 0.914518 0
M  V30 3479 H 316.533 -3.87958 -0.205165 0
M  V30 3480 H 318.205 -3.93711 2.40394 0
M  V30 3481 H 316.448 -3.66576 2.31958 0
M  V30 3482 H 317.119 -5.21646 1.80524 0
M  V30 3483 H 319.595 -4.15637 0.196184 0
M  V30 3484 H 318.471 -5.48586 -0.185681 0
M  V30 3485 H 318.732 -4.20643 -1.36059 0
M  V30 3486 N 317.792 -0.46758 -1.50504 0
M  V30 3487 C 318.742 0.34698 -2.25344 0
M  V30 3488 C 319.726 0.964469 -1.2879 0
M  V30 3489 O 320.918 0.8776 -1.53711 0
M  V30 3490 C 318.047 1.43042 -3.1208 0
M  V30 3491 C 317.133 0.82084 -4.16081 0
M  V30 3492 N 317.524 -0.0567602 -5.05768 0
M  V30 3493 C 315.822 1.08517 -4.32597 0
M  V30 3494 C 316.523 -0.402343 -5.80307 0
M  V30 3495 N 315.499 0.221607 -5.43148 0
M  V30 3496 H 319.301 -0.329129 -2.92051 0
M  V30 3497 H 316.815 -0.281508 -1.59942 0
M  V30 3498 H 318.812 2.02712 -3.64299 0
M  V30 3499 H 317.472 2.10856 -2.46921 0
M  V30 3500 H 318.483 -0.425349 -5.1615 0
M  V30 3501 H 315.16 1.75855 -3.78657 0
M  V30 3502 H 316.55 -1.11834 -6.62528 0
M  V30 3503 N 319.27 1.56325 -0.20005 0
M  V30 3504 C 320.233 2.18084 0.705132 0
M  V30 3505 C 321.233 1.13666 1.1374 0
M  V30 3506 O 322.423 1.39023 1.04968 0
M  V30 3507 C 319.555 2.78689 1.96329 0
M  V30 3508 H 320.748 2.99435 0.167023 0
M  V30 3509 H 318.301 1.56221 0.0495725 0
M  V30 3510 H 319.036 2.0115 2.5438 0
M  V30 3511 H 318.821 3.55133 1.66202 0
M  V30 3512 H 320.311 3.26096 2.60866 0
M  V30 3513 N 320.748 -0.0735177 1.57428 0
M  V30 3514 C 321.711 -1.07192 2.02589 0
M  V30 3515 C 322.711 -1.31695 0.922661 0
M  V30 3516 O 323.901 -1.27445 1.18758 0
M  V30 3517 C 321.033 -2.41599 2.40506 0
M  V30 3518 H 322.226 -0.682727 2.92025 0
M  V30 3519 H 319.779 -0.319193 1.53006 0
M  V30 3520 H 320.514 -2.85354 1.5409 0
M  V30 3521 H 320.299 -2.25156 3.21009 0
M  V30 3522 H 321.789 -3.13367 2.76027 0
M  V30 3523 N 322.226 -1.5378 -0.344866 0
M  V30 3524 C 323.503 -1.61589 -1.10219 0
M  V30 3525 C 323.883 -0.436316 -2.06542 0
M  V30 3526 O 323.231 0.571543 -2.21237 0
M  V30 3527 C 323.441 -2.97602 -1.82301 0
M  V30 3528 C 324.789 -3.5291 -2.36093 0
M  V30 3529 O 325.813 -2.99768 -1.924 0
M  V30 3530 O 324.672 -4.45859 -3.16026 0
M  V30 3531 H 321.766 -0.653522 -0.506792 0
M  V30 3532 H 324.312 -1.66126 -0.346465 0
M  V30 3533 H 323.084 -3.74893 -1.12121 0
M  V30 3534 H 322.707 -2.9665 -2.64735 0
M  V30 3535 N 323.704 0.605807 -1.45491 0
M  V30 3536 C 324.95 1.36679 -1.49823 0
M  V30 3537 C 325.283 1.93693 -0.140175 0
M  V30 3538 O 324.558 1.75158 0.845581 0
M  V30 3539 C 324.841 2.51337 -2.57879 0
M  V30 3540 C 324.694 1.99508 -4.03134 0
M  V30 3541 C 326.013 3.53463 -2.62205 0
M  V30 3542 H 323.132 0.495617 -0.545466 0
M  V30 3543 H 325.774 0.682732 -1.7731 0
M  V30 3544 H 323.924 3.09691 -2.34571 0
M  V30 3545 H 325.596 1.45789 -4.37656 0
M  V30 3546 H 323.839 1.30496 -4.13707 0
M  V30 3547 H 324.51 2.82169 -4.74431 0
M  V30 3548 H 326.986 3.04953 -2.83095 0
M  V30 3549 H 325.862 4.31178 -3.39672 0
M  V30 3550 H 326.123 4.09197 -1.67363 0
M  V30 3551 N 325.182 1.32811 0.848464 0
M  V30 3552 C 326.41 1.26739 1.63538 0
M  V30 3553 C 326.825 -0.163484 1.88091 0
M  V30 3554 O 326.182 -1.10258 1.45429 0
M  V30 3555 C 326.233 2.03013 2.99112 0
M  V30 3556 O 325.954 3.40518 2.75643 0
M  V30 3557 C 327.455 2.04038 3.93552 0
M  V30 3558 H 324.675 0.437024 0.509167 0
M  V30 3559 H 327.219 1.75033 1.05753 0
M  V30 3560 H 325.374 1.58426 3.53525 0
M  V30 3561 H 325.788 3.79635 3.61908 0
M  V30 3562 H 327.262 2.61877 4.85926 0
M  V30 3563 H 327.739 1.0282 4.26995 0
M  V30 3564 H 328.345 2.486 3.45077 0
M  V30 3565 N 326.66 -1.06551 1.16123 0
M  V30 3566 C 327.592 -2.13908 0.823171 0
M  V30 3567 C 328.605 -1.61926 -0.16843 0
M  V30 3568 O 329.794 -1.78412 0.055962 0
M  V30 3569 C 326.894 -3.38283 0.204424 0
M  V30 3570 C 326.067 -4.19589 1.23548 0
M  V30 3571 C 325.126 -5.2233 0.637011 0
M  V30 3572 O 324.152 -5.54034 1.30516 0
M  V30 3573 N 325.354 -5.77621 -0.577474 0
M  V30 3574 H 328.119 -2.43508 1.74711 0
M  V30 3575 H 325.68 -1.2253 1.05821 0
M  V30 3576 H 327.672 -4.0416 -0.208909 0
M  V30 3577 H 326.242 -3.06329 -0.623012 0
M  V30 3578 H 325.462 -3.49406 1.82507 0
M  V30 3579 H 326.75 -4.70718 1.93137 0
M  V30 3580 H 326.148 -5.54125 -1.13853 0
M  V30 3581 H 324.705 -6.45087 -0.933053 0
M  V30 3582 N 328.138 -0.959301 -1.25041 0
M  V30 3583 C 329.101 -0.487677 -2.23952 0
M  V30 3584 C 330.101 0.41119 -1.55454 0
M  V30 3585 O 331.291 0.207825 -1.72956 0
M  V30 3586 C 328.423 0.294807 -3.39623 0
M  V30 3587 H 329.616 -1.36198 -2.67189 0
M  V30 3588 H 327.169 -0.743042 -1.37508 0
M  V30 3589 H 327.904 1.18658 -3.01813 0
M  V30 3590 H 327.689 -0.35012 -3.90534 0
M  V30 3591 H 329.179 0.614089 -4.1306 0
M  V30 3592 N 329.616 1.39756 -0.72842 0
M  V30 3593 C 330.549 2.28176 -0.0330172 0
M  V30 3594 C 331.527 1.44035 0.754501 0
M  V30 3595 O 332.711 1.73434 0.738445 0
M  V30 3596 C 329.838 3.24795 0.960504 0
M  V30 3597 C 328.884 4.25693 0.262264 0
M  V30 3598 S 329.717 5.25714 -1.01906 0
M  V30 3599 C 330.873 6.25894 -0.0279717 0
M  V30 3600 H 331.106 2.86807 -0.78287 0
M  V30 3601 H 328.639 1.45382 -0.519951 0
M  V30 3602 H 330.597 3.80983 1.52846 0
M  V30 3603 H 329.258 2.65196 1.68315 0
M  V30 3604 H 328.451 4.93699 1.01379 0
M  V30 3605 H 328.053 3.7327 -0.233482 0
M  V30 3606 H 330.345 6.72585 0.814621 0
M  V30 3607 H 331.288 7.04876 -0.67499 0
M  V30 3608 H 331.696 5.63466 0.341489 0
M  V30 3609 N 331.094 0.475555 1.50254 0
M  V30 3610 C 332.044 -0.335025 2.25525 0
M  V30 3611 C 333.028 -0.957625 1.29299 0
M  V30 3612 O 334.22 -0.869436 1.54175 0
M  V30 3613 C 331.349 -1.41385 3.12834 0
M  V30 3614 C 330.435 -0.798762 4.1651 0
M  V30 3615 N 330.826 0.0835815 5.05731 0
M  V30 3616 C 329.124 -1.06221 4.33166 0
M  V30 3617 C 329.825 0.433113 5.80085 0
M  V30 3618 N 328.801 -0.1928 5.43258 0
M  V30 3619 H 332.603 0.344612 2.91873 0
M  V30 3620 H 330.117 0.289986 1.5979 0
M  V30 3621 H 332.114 -2.00777 3.65368 0
M  V30 3622 H 330.774 -2.09543 2.48036 0
M  V30 3623 H 331.785 0.452715 5.15918 0
M  V30 3624 H 328.462 -1.73844 3.79585 0
M  V30 3625 H 329.852 1.15346 6.61925 0
M  V30 3626 N 332.573 -1.56217 0.208337 0
M  V30 3627 C 333.813 -1.99849 -0.428927 0
M  V30 3628 C 334.177 -1.09262 -1.57879 0
M  V30 3629 O 335.378 -1.42185 -2.28116 0
M  V30 3630 C 333.649 -3.46777 -0.864879 0
M  V30 3631 S 335.208 -4.12434 -1.49811 0
M  V30 3632 H 332.026 -0.697742 -0.136665 0
M  V30 3633 H 334.628 -1.92953 0.314519 0
M  V30 3634 H 333.332 -4.10396 -0.0181326 0
M  V30 3635 H 332.863 -3.57518 -1.64147 0
M  V30 3636 H 334.878 -4.10532 -2.78707 0
M  V30 3637 N 334.051 0.0651679 -1.57465 0
M  V30 3638 C 335.281 0.774683 -1.91526 0
M  V30 3639 C 335.689 1.71305 -0.803196 0
M  V30 3640 O 335.032 1.82231 0.231881 0
M  V30 3641 C 335.094 1.61645 -3.21109 0
M  V30 3642 C 334.758 0.846753 -4.49087 0
M  V30 3643 C 335.755 0.163024 -5.19644 0
M  V30 3644 C 333.44 0.811966 -4.95694 0
M  V30 3645 C 335.434 -0.54519 -6.35064 0
M  V30 3646 C 333.121 0.0999836 -6.11018 0
M  V30 3647 C 334.119 -0.577388 -6.80555 0
M  V30 3648 O 333.807 -1.27789 -7.93678 0
M  V30 3649 H 333.539 0.225031 -0.637446 0
M  V30 3650 H 336.093 0.0377134 -2.05365 0
M  V30 3651 H 334.323 2.39638 -3.03497 0
M  V30 3652 H 336.012 2.20525 -3.40769 0
M  V30 3653 H 336.778 0.181163 -4.84662 0
M  V30 3654 H 332.657 1.32867 -4.41438 0
M  V30 3655 H 336.201 -1.07446 -6.89276 0
M  V30 3656 H 332.098 0.0797945 -6.45451 0
M  V30 3657 H 332.866 -1.18784 -8.09835 0
M  V30 3658 N 335.529 1.53961 0.336706 0
M  V30 3659 C 336.459 1.85417 1.41925 0
M  V30 3660 C 337.44 0.709856 1.5458 0
M  V30 3661 O 338.625 0.962396 1.68676 0
M  V30 3662 C 335.755 2.06985 2.78881 0
M  V30 3663 C 334.709 3.22813 2.81026 0
M  V30 3664 C 334.035 3.29727 4.20932 0
M  V30 3665 C 335.335 4.60767 2.45949 0
M  V30 3666 H 337.029 2.76079 1.15848 0
M  V30 3667 H 334.575 1.32839 0.555859 0
M  V30 3668 H 336.528 2.27575 3.54665 0
M  V30 3669 H 335.252 1.13061 3.06406 0
M  V30 3670 H 333.911 3.0209 2.07695 0
M  V30 3671 H 333.559 2.33385 4.45579 0
M  V30 3672 H 333.259 4.07566 4.23277 0
M  V30 3673 H 334.783 3.52536 4.98549 0
M  V30 3674 H 336.197 4.81325 3.11446 0
M  V30 3675 H 334.594 5.4106 2.59566 0
M  V30 3676 H 335.664 4.6391 1.41122 0
M  V30 3677 N 337.007 -0.598083 1.45811 0
M  V30 3678 C 337.954 -1.7082 1.55207 0
M  V30 3679 C 338.924 -1.61278 0.39732 0
M  V30 3680 O 340.109 -1.80717 0.612038 0
M  V30 3681 C 337.249 -3.09144 1.53376 0
M  V30 3682 C 336.362 -3.29423 2.79472 0
M  V30 3683 C 335.497 -4.57907 2.69248 0
M  V30 3684 C 334.536 -4.71476 3.90354 0
M  V30 3685 N 333.673 -5.9127 3.78608 0
M  V30 3686 H 338.513 -1.62125 2.50039 0
M  V30 3687 H 336.05 -0.790389 1.24062 0
M  V30 3688 H 338.008 -3.89186 1.50301 0
M  V30 3689 H 336.638 -3.16773 0.620876 0
M  V30 3690 H 335.69 -2.43091 2.92594 0
M  V30 3691 H 337.002 -3.3532 3.69272 0
M  V30 3692 H 336.156 -5.46157 2.64192 0
M  V30 3693 H 334.895 -4.54423 1.77063 0
M  V30 3694 H 333.9 -3.81648 3.95759 0
M  V30 3695 H 335.125 -4.76751 4.83617 0
M  V30 3696 H 333.071 -5.88813 2.89199 0
M  V30 3697 H 332.988 -5.98369 4.6205 0
M  V30 3698 H 334.256 -6.81992 3.77501 0
M  V30 3699 N 338.485 -1.33259 -0.841409 0
M  V30 3700 C 339.395 -1.25332 -1.98316 0
M  V30 3701 C 340.411 -0.164364 -1.73222 0
M  V30 3702 O 341.587 -0.387486 -1.97637 0
M  V30 3703 C 338.652 -0.990078 -3.32262 0
M  V30 3704 C 337.713 -2.16879 -3.70489 0
M  V30 3705 C 336.946 -1.91801 -4.98044 0
M  V30 3706 O 337.169 -0.867075 -5.63771 0
M  V30 3707 O 336.103 -2.78267 -5.33714 0
M  V30 3708 H 339.929 -2.21344 -2.07944 0
M  V30 3709 H 337.514 -1.1328 -0.974058 0
M  V30 3710 H 339.396 -0.860321 -4.12524 0
M  V30 3711 H 338.071 -0.0602155 -3.23644 0
M  V30 3712 H 336.978 -2.35407 -2.90748 0
M  V30 3713 H 338.311 -3.0819 -3.8377 0
M  V30 3714 N 339.963 1.05934 -1.16686 0
M  V30 3715 C 341.374 1.60263 -0.957745 0
M  V30 3716 C 341.725 1.89789 0.49745 0
M  V30 3717 O 340.85 1.67401 1.37135 0
M  V30 3718 C 341.445 2.91172 -1.73218 0
M  V30 3719 C 340.004 3.42188 -1.56794 0
M  V30 3720 C 339.151 2.16028 -1.73859 0
M  V30 3721 H 342.102 0.888392 -1.31504 0
M  V30 3722 H 342.123 3.60744 -1.21014 0
M  V30 3723 H 341.635 2.6965 -2.79124 0
M  V30 3724 H 339.736 3.68762 -0.533437 0
M  V30 3725 H 339.849 4.17273 -2.35414 0
M  V30 3726 H 338.213 2.26426 -1.16633 0
M  V30 3727 H 338.996 1.96985 -2.81161 0
M  V30 3728 N 341.441 0.965919 1.2453 0
M  V30 3729 C 342.388 0.49402 2.25451 0
M  V30 3730 C 343.358 -0.45948 1.59618 0
M  V30 3731 O 344.543 -0.370238 1.87173 0
M  V30 3732 C 341.683 -0.211359 3.44452 0
M  V30 3733 C 340.796 0.7807 4.24887 0
M  V30 3734 C 339.931 0.0516105 5.31175 0
M  V30 3735 C 338.97 1.03385 6.03306 0
M  V30 3736 N 338.107 0.334887 7.01301 0
M  V30 3737 H 342.947 1.35946 2.65184 0
M  V30 3738 H 340.484 0.681515 1.3036 0
M  V30 3739 H 342.442 -0.637 4.12308 0
M  V30 3740 H 341.072 -1.04077 3.05562 0
M  V30 3741 H 340.124 1.32479 3.56586 0
M  V30 3742 H 341.436 1.52978 4.74762 0
M  V30 3743 H 340.59 -0.432114 6.05159 0
M  V30 3744 H 339.329 -0.730179 4.82203 0
M  V30 3745 H 338.334 1.52847 5.28127 0
M  V30 3746 H 339.559 1.81606 6.54367 0
M  V30 3747 H 337.505 -0.427959 6.54603 0
M  V30 3748 H 337.422 1.02287 7.49048 0
M  V30 3749 H 338.69 -0.126928 7.79397 0
M  V30 3750 N 342.919 -1.39368 0.735821 0
M  V30 3751 C 343.849 -2.33234 0.111506 0
M  V30 3752 C 344.83 -1.53954 -0.723334 0
M  V30 3753 O 346.015 -1.82344 -0.668147 0
M  V30 3754 C 343.145 -3.38057 -0.795917 0
M  V30 3755 C 342.099 -4.2795 -0.065172 0
M  V30 3756 C 341.425 -5.23479 -1.08967 0
M  V30 3757 C 342.725 -5.10741 1.09273 0
M  V30 3758 H 344.419 -2.85692 0.895571 0
M  V30 3759 H 341.965 -1.37364 0.432109 0
M  V30 3760 H 343.918 -4.02675 -1.24221 0
M  V30 3761 H 342.642 -2.8404 -1.61211 0
M  V30 3762 H 341.301 -3.64813 0.361511 0
M  V30 3763 H 340.949 -4.65758 -1.89944 0
M  V30 3764 H 340.649 -5.84472 -0.605489 0
M  V30 3765 H 342.173 -5.90974 -1.53565 0
M  V30 3766 H 343.587 -5.68699 0.724841 0
M  V30 3767 H 341.984 -5.8088 1.50659 0
M  V30 3768 H 343.054 -4.45525 1.91404 0
M  V30 3769 N 344.397 -0.483516 -1.5 0
M  V30 3770 C 345.36 0.292965 -2.2732 0
M  V30 3771 C 346.36 0.909499 -1.32608 0
M  V30 3772 O 347.55 0.776745 -1.55924 0
M  V30 3773 C 344.682 1.41854 -3.09984 0
M  V30 3774 H 345.875 -0.385289 -2.97415 0
M  V30 3775 H 343.428 -0.237942 -1.54478 0
M  V30 3776 H 344.163 2.13148 -2.44414 0
M  V30 3777 H 343.948 0.982114 -3.79601 0
M  V30 3778 H 345.438 1.96597 -3.68429 0
M  V30 3779 N 345.875 1.56104 -0.216619 0
M  V30 3780 C 346.823 2.21434 0.712036 0
M  V30 3781 C 347.817 1.19218 1.20348 0
M  V30 3782 O 349.023 1.3731 1.16387 0
M  V30 3783 H 345.398 0.70992 0.248026 0
M  V30 3784 H 347.369 2.98083 0.137558 0
M  V30 3785 C 346.118 2.90434 1.91163 0
M  V30 3786 H 345.441 3.68842 1.54258 0
M  V30 3787 H 346.881 3.39552 2.5393 0
M  V30 3788 C 345.34 1.92635 2.76394 0
M  V30 3789 O 345.87 1.44017 3.74996 0
M  V30 3790 N 344.076 1.60392 2.42328 0
M  V30 3791 H 343.623 2.00122 1.622 0
M  V30 3792 H 343.581 0.952159 2.99635 0
M  V30 3793 N 347.353 -0.0568162 1.57498 0
M  V30 3794 C 348.578 -0.769402 1.92601 0
M  V30 3795 C 349.003 -1.69559 0.814336 0
M  V30 3796 O 348.361 -1.79811 -0.231903 0
M  V30 3797 C 348.409 -1.52634 3.26704 0
M  V30 3798 O 347.513 -2.63797 3.16994 0
M  V30 3799 H 346.854 -0.208909 0.63028 0
M  V30 3800 H 349.384 -0.0205798 2.0459 0
M  V30 3801 H 349.394 -1.90234 3.60936 0
M  V30 3802 H 348.069 -0.846875 4.07186 0
M  V30 3803 H 346.646 -2.28943 2.94346 0
M  V30 3804 N 348.832 -1.54138 -0.328536 0
M  V30 3805 C 350.078 -1.7236 -1.06865 0
M  V30 3806 C 350.411 -0.493231 -1.87832 0
M  V30 3807 O 349.686 0.5098 -1.877 0
M  V30 3808 C 349.969 -2.99621 -1.99747 0
M  V30 3809 C 349.822 -4.32899 -1.22143 0
M  V30 3810 C 351.141 -3.22615 -2.99345 0
M  V30 3811 H 348.26 -0.627151 -0.387105 0
M  V30 3812 H 350.902 -1.86827 -0.345767 0
M  V30 3813 H 349.052 -2.87418 -2.61387 0
M  V30 3814 H 350.724 -4.56978 -0.630017 0
M  V30 3815 H 348.967 -4.30628 -0.523628 0
M  V30 3816 H 349.638 -5.18154 -1.90318 0
M  V30 3817 H 352.114 -3.34248 -2.47826 0
M  V30 3818 H 350.99 -4.13027 -3.61524 0
M  V30 3819 H 351.251 -2.3961 -3.71536 0
M  V30 3820 N 350.31 0.590341 -1.46126 0
M  V30 3821 C 351.538 1.37504 -1.54597 0
M  V30 3822 C 351.953 1.87897 -0.184447 0
M  V30 3823 O 351.31 1.63192 0.816984 0
M  V30 3824 C 351.361 2.56779 -2.54454 0
M  V30 3825 O 351.082 2.08476 -3.85317 0
M  V30 3826 C 352.583 3.49427 -2.72792 0
M  V30 3827 H 349.803 0.420325 -0.523037 0
M  V30 3828 H 352.347 0.718383 -1.91467 0
M  V30 3829 H 350.502 3.1845 -2.20609 0
M  V30 3830 H 350.916 2.86097 -4.396 0
M  V30 3831 H 352.39 4.29619 -3.466 0
M  V30 3832 H 352.867 4.00876 -1.79429 0
M  V30 3833 H 353.473 2.93598 -3.07702 0
M  V30 3834 N 351.788 1.33704 0.83433 0
M  V30 3835 C 353.199 1.22813 1.4062 0
M  V30 3836 C 353.55 -0.151107 1.95617 0
M  V30 3837 O 352.675 -1.05092 1.89168 0
M  V30 3838 C 353.27 2.22355 2.55624 0
M  V30 3839 C 351.829 2.1529 3.08751 0
M  V30 3840 C 350.976 2.09589 1.8157 0
M  V30 3841 H 353.927 1.45236 0.639702 0
M  V30 3842 H 353.948 1.83391 3.33389 0
M  V30 3843 H 353.46 3.22728 2.15566 0
M  V30 3844 H 351.561 1.18235 3.53343 0
M  V30 3845 H 351.674 3.06038 3.68616 0
M  V30 3846 H 350.038 1.55134 2.02004 0
M  V30 3847 H 350.821 3.11777 1.43701 0
M  V30 3848 N 353.266 -1.05314 1.17247 0
M  V30 3849 C 354.512 -1.78699 0.971513 0
M  V30 3850 C 354.867 -1.85932 -0.494692 0
M  V30 3851 O 354.16 -1.34716 -1.36243 0
M  V30 3852 C 354.354 -3.2229 1.54479 0
M  V30 3853 C 354.183 -3.29052 3.06521 0
M  V30 3854 C 352.953 -3.3841 3.75242 0
M  V30 3855 C 355.151 -3.18095 4.04129 0
M  V30 3856 N 353.133 -3.34289 5.14902 0
M  V30 3857 C 354.504 -3.21331 5.30232 0
M  V30 3858 C 356.559 -3.02049 3.95817 0
M  V30 3859 C 355.262 -3.10169 6.4899 0
M  V30 3860 C 357.288 -2.92228 5.14156 0
M  V30 3861 C 356.65 -2.96096 6.39145 0
M  V30 3862 H 352.749 -0.66628 0.409383 0
M  V30 3863 H 355.333 -1.25553 1.4881 0
M  V30 3864 H 353.504 -3.7381 1.05455 0
M  V30 3865 H 355.236 -3.83905 1.28059 0
M  V30 3866 H 351.991 -3.43621 3.25917 0
M  V30 3867 H 352.415 -3.35702 5.87906 0
M  V30 3868 H 357.057 -2.97897 3.00029 0
M  V30 3869 H 354.775 -3.13076 7.44989 0
M  V30 3870 H 358.361 -2.80885 5.09505 0
M  V30 3871 H 357.241 -2.88568 7.29176 0
M  V30 3872 N 354.744 -0.972509 -1.24016 0
M  V30 3873 C 356.021 -0.553733 -1.87598 0
M  V30 3874 C 356.401 0.969158 -1.87538 0
M  V30 3875 O 355.749 1.84255 -1.35139 0
M  V30 3876 C 355.959 -1.15076 -3.29482 0
M  V30 3877 C 357.307 -1.23862 -4.06132 0
M  V30 3878 O 358.331 -1.10363 -3.38672 0
M  V30 3879 O 357.19 -1.45252 -5.26844 0
M  V30 3880 H 354.284 -0.185331 -0.805966 0
M  V30 3881 H 356.83 -1.06709 -1.31952 0
M  V30 3882 H 355.602 -2.19333 -3.2405 0
M  V30 3883 H 355.225 -0.621746 -3.92709 0
M  V30 3884 N 356.222 1.38976 -0.743202 0
M  V30 3885 C 357.471 1.99581 -0.291592 0
M  V30 3886 C 357.784 1.59656 1.13001 0
M  V30 3887 O 358.99 2.13157 1.68156 0
M  V30 3888 C 357.446 3.56813 -0.470391 0
M  V30 3889 C 357.054 4.05695 -1.90041 0
M  V30 3890 C 358.798 4.24423 -0.0809709 0
M  V30 3891 C 356.705 5.5553 -2.02832 0
M  V30 3892 H 355.635 0.746615 -0.105272 0
M  V30 3893 H 358.286 1.58872 -0.918258 0
M  V30 3894 H 356.668 3.95359 0.225299 0
M  V30 3895 H 357.842 3.78464 -2.62872 0
M  V30 3896 H 356.157 3.50775 -2.24379 0
M  V30 3897 H 358.754 5.34474 -0.155445 0
M  V30 3898 H 359.097 4.04962 0.96497 0
M  V30 3899 H 359.63 3.9108 -0.728124 0
M  V30 3900 H 356.369 5.79881 -3.05643 0
M  V30 3901 H 355.889 5.84537 -1.34448 0
M  V30 3902 H 357.568 6.21069 -1.81335 0
M  V30 3903 N 357.7 0.491464 1.49741 0
M  V30 3904 C 358.63 -0.28154 2.31796 0
M  V30 3905 C 359.611 -0.971473 1.3963 0
M  V30 3906 O 360.796 -0.964719 1.68543 0
M  V30 3907 C 357.926 -1.35203 3.19902 0
M  V30 3908 C 356.88 -0.782529 4.20786 0
M  V30 3909 C 356.206 -1.95283 4.97764 0
M  V30 3910 C 357.506 0.21999 5.21837 0
M  V30 3911 H 359.2 0.403355 2.96671 0
M  V30 3912 H 356.746 0.195425 1.42668 0
M  V30 3913 H 358.699 -1.90045 3.76113 0
M  V30 3914 H 357.423 -2.06598 2.52953 0
M  V30 3915 H 356.082 -0.255928 3.65706 0
M  V30 3916 H 355.73 -2.65423 4.2727 0
M  V30 3917 H 355.43 -1.57789 5.66018 0
M  V30 3918 H 356.954 -2.50577 5.56816 0
M  V30 3919 H 358.368 -0.23996 5.72798 0
M  V30 3920 H 356.765 0.51026 5.97927 0
M  V30 3921 H 357.835 1.13911 4.7133 0
M  V30 3922 N 359.178 -1.55987 0.224894 0
M  V30 3923 C 360.108 -2.23426 -0.678457 0
M  V30 3924 C 361.089 -1.20709 -1.19847 0
M  V30 3925 O 362.274 -1.49304 -1.24186 0
M  V30 3926 C 359.404 -2.91676 -1.88527 0
M  V30 3927 C 358.358 -4.00893 -1.49896 0
M  V30 3928 C 357.684 -4.56455 -2.78483 0
M  V30 3929 C 358.984 -5.17769 -0.686461 0
M  V30 3930 H 360.678 -2.99175 -0.116173 0
M  V30 3931 H 358.224 -1.43897 -0.054436 0
M  V30 3932 H 360.177 -3.37547 -2.5227 0
M  V30 3933 H 358.901 -2.1338 -2.47258 0
M  V30 3934 H 357.56 -3.55758 -0.884985 0
M  V30 3935 H 357.208 -3.74886 -3.35365 0
M  V30 3936 H 356.908 -5.30169 -2.53368 0
M  V30 3937 H 358.432 -5.05047 -3.43162 0
M  V30 3938 H 359.846 -5.60001 -1.22767 0
M  V30 3939 H 358.243 -5.97735 -0.532259 0
M  V30 3940 H 359.313 -4.83932 0.306196 0
M  V30 3941 N 360.656 0.0484629 -1.57525 0
M  V30 3942 C 361.881 0.759177 -1.93006 0
M  V30 3943 C 362.306 1.69125 -0.823317 0
M  V30 3944 O 361.664 1.79931 0.222364 0
M  V30 3945 C 361.712 1.50899 -3.27509 0
M  V30 3946 O 360.816 2.62112 -3.18388 0
M  V30 3947 H 360.157 0.205564 -0.631379 0
M  V30 3948 H 362.687 0.00972959 -2.04598 0
M  V30 3949 H 362.697 1.88317 -3.6194 0
M  V30 3950 H 361.372 0.825269 -4.0763 0
M  V30 3951 H 359.949 2.27379 -2.95556 0
M  V30 3952 N 362.134 1.5431 0.320358 0
M  V30 3953 C 363.064 1.86912 1.3995 0
M  V30 3954 C 364.045 0.726211 1.53819 0
M  V30 3955 O 365.23 0.980233 1.67646 0
M  V30 3956 C 362.36 2.09932 2.7667 0
M  V30 3957 C 361.314 3.25776 2.77586 0
M  V30 3958 C 360.64 3.34173 4.17412 0
M  V30 3959 C 361.94 4.6335 2.41048 0
M  V30 3960 H 363.634 2.77292 1.12914 0
M  V30 3961 H 361.18 1.33421 0.541738 0
M  V30 3962 H 363.133 2.31324 3.52232 0
M  V30 3963 H 361.857 1.16304 3.0519 0
M  V30 3964 H 360.516 3.04276 2.04479 0
M  V30 3965 H 360.164 2.38098 4.43078 0
M  V30 3966 H 359.864 4.12033 4.18931 0
M  V30 3967 H 361.388 3.57803 4.94782 0
M  V30 3968 H 362.802 4.84602 3.06324 0
M  V30 3969 H 361.199 5.43782 2.53813 0
M  V30 3970 H 362.269 4.65381 1.36193 0
M  V30 3971 N 363.613 -0.582584 1.46437 0
M  V30 3972 C 364.862 -1.337 1.5102 0
M  V30 3973 C 365.175 -1.94891 0.166359 0
M  V30 3974 O 366.381 -2.71351 0.0899954 0
M  V30 3975 C 364.837 -2.42315 2.66104 0
M  V30 3976 C 364.445 -1.87427 4.06909 0
M  V30 3977 C 366.189 -3.19099 2.79958 0
M  V30 3978 C 364.096 -2.93672 5.13333 0
M  V30 3979 H 363.026 -0.502619 0.562041 0
M  V30 3980 H 365.677 -0.621701 1.72647 0
M  V30 3981 H 364.059 -3.16645 2.37807 0
M  V30 3982 H 365.233 -1.19639 4.44998 0
M  V30 3983 H 363.548 -1.2331 3.97723 0
M  V30 3984 H 366.145 -3.9839 3.56636 0
M  V30 3985 H 366.488 -3.71695 1.87479 0
M  V30 3986 H 367.021 -2.51875 3.07902 0
M  V30 3987 H 363.76 -2.45962 6.07604 0
M  V30 3988 H 363.28 -3.59948 4.79789 0
M  V30 3989 H 364.959 -3.5762 5.39182 0
M  V30 3990 N 365.091 -1.34144 -0.827227 0
M  V30 3991 C 366.054 -1.25264 -1.91942 0
M  V30 3992 C 367.054 -0.168866 -1.59911 0
M  V30 3993 O 368.244 -0.421198 -1.69031 0
M  V30 3994 C 365.376 -0.932952 -3.27885 0
M  V30 3995 H 366.569 -2.22357 -2.0124 0
M  V30 3996 H 364.122 -1.1837 -1.0207 0
M  V30 3997 H 364.857 0.0349917 -3.24281 0
M  V30 3998 H 364.642 -1.71682 -3.52516 0
M  V30 3999 H 366.132 -0.895874 -4.07877 0
M  V30 4000 N 366.569 1.04691 -1.17803 0
M  V30 4001 C 367.532 2.10724 -0.901545 0
M  V30 4002 C 368.532 1.6042 0.110437 0
M  V30 4003 O 369.722 1.7377 -0.122303 0
M  V30 4004 C 366.854 3.39084 -0.351409 0
M  V30 4005 H 368.047 2.36686 -1.84174 0
M  V30 4006 H 365.6 1.21015 -0.98919 0
M  V30 4007 H 366.335 3.18782 0.59569 0
M  V30 4008 H 366.12 3.76909 -1.08083 0
M  V30 4009 H 367.61 4.17227 -0.176451 0
M  V30 4010 N 368.047 0.979072 1.23499 0
M  V30 4011 C 369.01 0.523244 2.23147 0
M  V30 4012 C 370.01 -0.386406 1.56088 0
M  V30 4013 O 371.2 -0.180283 1.73265 0
M  V30 4014 C 368.332 -0.240739 3.40049 0
M  V30 4015 H 369.525 1.40432 2.64989 0
M  V30 4016 H 367.078 0.764824 1.36309 0
M  V30 4017 H 367.813 -1.13841 3.03662 0
M  V30 4018 H 367.598 0.412207 3.89927 0
M  V30 4019 H 369.088 -0.548297 4.13985 0
M  V30 4020 N 369.525 -1.3858 0.750561 0
M  V30 4021 C 370.753 -2.04471 0.316098 0
M  V30 4022 C 371.168 -1.56606 -1.05452 0
M  V30 4023 O 370.525 -0.737784 -1.66922 0
M  V30 4024 C 370.576 -3.60025 0.326275 0
M  V30 4025 O 370.297 -4.06133 1.6428 0
M  V30 4026 C 371.798 -4.43131 -0.122429 0
M  V30 4027 H 369.018 -0.65717 0.135528 0
M  V30 4028 H 371.562 -1.77329 1.01857 0
M  V30 4029 H 369.717 -3.86014 -0.327431 0
M  V30 4030 H 370.131 -5.00547 1.56693 0
M  V30 4031 H 371.605 -5.51963 -0.0641473 0
M  V30 4032 H 372.082 -4.23333 -1.16988 0
M  V30 4033 H 372.688 -4.22323 0.50229 0
M  V30 4034 N 371.003 -0.499398 -1.49478 0
M  V30 4035 C 371.953 0.299103 -2.2603 0
M  V30 4036 C 372.937 0.936934 -1.30807 0
M  V30 4037 O 374.129 0.844798 -1.55538 0
M  V30 4038 C 371.258 1.36391 -3.15044 0
M  V30 4039 C 370.344 0.732398 -4.17728 0
M  V30 4040 N 370.735 -0.164028 -5.05534 0
M  V30 4041 C 369.033 0.993162 -4.34801 0
M  V30 4042 C 369.734 -0.525345 -5.79323 0
M  V30 4043 N 368.71 0.106348 -5.43496 0
M  V30 4044 H 372.512 -0.391003 -2.91287 0
M  V30 4045 H 370.026 -0.31537 -1.59308 0
M  V30 4046 H 372.023 1.94939 -3.68516 0
M  V30 4047 H 370.683 2.05571 -2.51338 0
M  V30 4048 H 371.694 -0.534736 -5.15132 0
M  V30 4049 H 368.371 1.67783 -3.82302 0
M  V30 4050 H 369.761 -1.25862 -6.60006 0
M  V30 4051 N 372.481 1.55866 -0.233164 0
M  V30 4052 C 373.758 1.90471 0.444988 0
M  V30 4053 C 374.138 1.15209 1.7689 0
M  V30 4054 O 373.486 0.265119 2.26957 0
M  V30 4055 C 373.696 3.4333 0.626559 0
M  V30 4056 C 375.044 4.14319 0.92871 0
M  V30 4057 O 376.068 3.48993 0.712926 0
M  V30 4058 O 374.927 5.29846 1.33887 0
M  V30 4059 H 372.021 0.792347 0.236885 0
M  V30 4060 H 374.567 1.67437 -0.276211 0
M  V30 4061 H 373.339 3.90095 -0.306822 0
M  V30 4062 H 372.962 3.72181 1.39881 0
M  V30 4063 N 373.959 -0.0401083 1.57549 0
M  V30 4064 C 374.889 -1.04384 2.08869 0
M  V30 4065 C 375.87 -1.38407 0.988817 0
M  V30 4066 O 377.055 -1.47483 1.26342 0
M  V30 4067 C 374.185 -2.34808 2.55895 0
M  V30 4068 C 373.139 -2.15057 3.70047 0
M  V30 4069 C 372.465 -3.51145 4.03239 0
M  V30 4070 C 373.765 -1.54576 4.98902 0
M  V30 4071 H 375.459 -0.616666 2.92981 0
M  V30 4072 H 373.005 -0.295184 1.40942 0
M  V30 4073 H 374.958 -3.05346 2.90417 0
M  V30 4074 H 373.682 -2.79565 1.68853 0
M  V30 4075 H 372.341 -1.46954 3.35857 0
M  V30 4076 H 371.989 -3.93529 3.13279 0
M  V30 4077 H 371.689 -3.38758 4.80122 0
M  V30 4078 H 373.213 -4.23062 4.40285 0
M  V30 4079 H 374.627 -2.15017 5.31451 0
M  V30 4080 H 373.024 -1.52796 5.80322 0
M  V30 4081 H 374.094 -0.51039 4.82206 0
M  V30 4082 N 375.437 -1.54477 -0.31217 0
M  V30 4083 C 376.714 -1.63891 -1.06767 0
M  V30 4084 C 377.094 -0.480028 -2.0557 0
M  V30 4085 O 376.442 0.524487 -2.22399 0
M  V30 4086 C 376.652 -3.01402 -1.75948 0
M  V30 4087 C 378 -3.57838 -2.28554 0
M  V30 4088 O 379.024 -3.03782 -1.85998 0
M  V30 4089 O 377.883 -4.52462 -3.06497 0
M  V30 4090 H 374.977 -0.664125 -0.492816 0
M  V30 4091 H 377.523 -1.66823 -0.311149 0
M  V30 4092 H 376.295 -3.77187 -1.04144 0
M  V30 4093 H 375.918 -3.02199 -2.58383 0
M  V30 4094 N 376.915 0.57481 -1.46744 0
M  V30 4095 C 377.865 1.67838 -1.54319 0
M  V30 4096 C 378.849 1.55759 -0.40346 0
M  V30 4097 O 380.041 1.6454 -0.652347 0
M  V30 4098 C 377.17 3.06624 -1.5439 0
M  V30 4099 C 376.256 3.23971 -2.73685 0
M  V30 4100 N 376.647 3.11447 -3.9854 0
M  V30 4101 C 374.945 3.5493 -2.70075 0
M  V30 4102 C 375.646 3.31011 -4.78337 0
M  V30 4103 N 374.622 3.56533 -4.10348 0
M  V30 4104 H 378.424 1.56698 -2.48642 0
M  V30 4105 H 375.938 0.779071 -1.42493 0
M  V30 4106 H 377.935 3.85839 -1.57905 0
M  V30 4107 H 376.595 3.1889 -0.611493 0
M  V30 4108 H 377.606 2.89145 -4.29669 0
M  V30 4109 H 374.283 3.73832 -1.85893 0
M  V30 4110 H 375.673 3.26445 -5.87268 0
M  V30 4111 N 378.394 1.34581 0.820102 0
M  V30 4112 C 379.805 1.24298 1.39309 0
M  V30 4113 C 380.156 -0.130351 1.95767 0
M  V30 4114 O 379.281 -1.0308 1.90272 0
M  V30 4115 C 379.876 2.25054 2.53251 0
M  V30 4116 C 378.435 2.18552 3.0645 0
M  V30 4117 C 377.582 2.11503 1.79337 0
M  V30 4118 H 380.533 1.45906 0.624262 0
M  V30 4119 H 380.554 1.86917 3.31425 0
M  V30 4120 H 380.066 3.24996 2.1213 0
M  V30 4121 H 378.167 1.21976 3.52069 0
M  V30 4122 H 378.28 3.0993 3.65349 0
M  V30 4123 H 376.644 1.57268 2.00347 0
M  V30 4124 H 377.427 3.13284 1.40386 0
M  V30 4125 N 379.872 -1.04064 1.18357 0
M  V30 4126 C 381.12 -1.76915 0.977013 0
M  V30 4127 C 381.441 -1.88624 -0.494577 0
M  V30 4128 O 380.711 -1.41125 -1.3587 0
M  V30 4129 H 379.291 -0.65535 0.358504 0
M  V30 4130 H 381.953 -1.25592 1.49039 0
M  V30 4131 H 381.049 -2.78178 1.41504 0
M  V30 4132 N 381.35 -0.985608 -1.22978 0
M  V30 4133 C 382.596 -0.65836 -1.91816 0
M  V30 4134 C 382.929 0.806692 -1.76653 0
M  V30 4135 O 382.204 1.58252 -1.13078 0
M  V30 4136 C 382.487 -1.056 -3.44268 0
M  V30 4137 C 382.34 -2.57906 -3.68516 0
M  V30 4138 C 383.659 -0.603781 -4.35939 0
M  V30 4139 H 380.778 -0.24065 -0.696604 0
M  V30 4140 H 383.42 -1.22783 -1.44998 0
M  V30 4141 H 381.57 -0.571445 -3.84274 0
M  V30 4142 H 383.242 -3.13976 -3.3796 0
M  V30 4143 H 381.485 -3.00305 -3.13048 0
M  V30 4144 H 382.156 -2.80779 -4.75255 0
M  V30 4145 H 384.632 -1.01987 -4.03408 0
M  V30 4146 H 383.508 -0.910383 -5.41298 0
M  V30 4147 H 383.769 0.495761 -4.39312 0
M  V30 4148 N 382.828 1.3818 -0.7579 0
M  V30 4149 C 383.776 2.32277 -0.122482 0
M  V30 4150 C 384.77 1.54238 0.700505 0
M  V30 4151 O 385.976 1.69737 0.599119 0
M  V30 4152 H 382.351 0.751712 -0.0208143 0
M  V30 4153 H 384.322 2.83469 -0.932099 0
M  V30 4154 C 383.071 3.39447 0.753076 0
M  V30 4155 H 382.394 3.99591 0.129184 0
M  V30 4156 H 383.834 4.07684 1.16489 0
M  V30 4157 C 382.293 2.78375 1.8976 0
M  V30 4158 O 382.823 2.68025 2.99208 0
M  V30 4159 N 381.029 2.36121 1.69397 0
M  V30 4160 H 380.576 2.4474 0.803762 0
M  V30 4161 H 380.534 1.95602 2.46145 0
M  V30 4162 N 384.306 0.507319 1.49211 0
M  V30 4163 C 385.238 -0.304532 2.27168 0
M  V30 4164 C 386.251 -0.924956 1.33972 0
M  V30 4165 O 387.44 -0.807227 1.59205 0
M  V30 4166 C 384.54 -1.44431 3.06583 0
M  V30 4167 C 383.713 -0.930026 4.27398 0
M  V30 4168 C 382.772 -1.94817 4.88807 0
M  V30 4169 O 381.798 -1.51418 5.4869 0
M  V30 4170 N 383 -3.279 4.79022 0
M  V30 4171 H 385.765 0.36395 2.97482 0
M  V30 4172 H 383.326 0.340249 1.58284 0
M  V30 4173 H 385.318 -2.12311 3.44537 0
M  V30 4174 H 383.888 -2.01684 2.38835 0
M  V30 4175 H 383.108 -0.0759244 3.94127 0
M  V30 4176 H 384.396 -0.564932 5.05654 0
M  V30 4177 H 383.794 -3.65843 4.3148 0
M  V30 4178 H 382.351 -3.91476 5.21142 0
M  V30 4179 N 385.784 -1.5574 0.241426 0
M  V30 4180 C 387.195 -1.84842 -0.262755 0
M  V30 4181 C 387.546 -1.16317 -1.58003 0
M  V30 4182 O 386.671 -0.439653 -2.11887 0
M  V30 4183 C 387.266 -3.35332 -0.483523 0
M  V30 4184 C 385.825 -3.6468 -0.931977 0
M  V30 4185 C 384.972 -2.77299 -0.0061151 0
M  V30 4186 H 387.923 -1.51761 0.464129 0
M  V30 4187 H 387.944 -3.56615 -1.32688 0
M  V30 4188 H 387.456 -3.85178 0.47537 0
M  V30 4189 H 385.557 -3.20307 -1.90353 0
M  V30 4190 H 385.67 -4.72498 -0.792628 0
M  V30 4191 H 384.034 -2.49408 -0.516503 0
M  V30 4192 H 384.817 -3.2995 0.948052 0
M  V30 4193 N 387.262 0.0317525 -1.57568 0
M  V30 4194 C 388.509 0.723104 -1.89149 0
M  V30 4195 C 388.837 1.75504 -0.838377 0
M  V30 4196 O 388.092 1.95037 0.160982 0
M  V30 4197 C 388.391 1.43167 -3.27472 0
M  V30 4198 C 388.057 0.535972 -4.47703 0
M  V30 4199 C 386.719 0.289262 -4.8033 0
M  V30 4200 C 389.071 -0.0826125 -5.21135 0
M  V30 4201 C 386.399 -0.584853 -5.83778 0
M  V30 4202 C 388.751 -0.944414 -6.25511 0
M  V30 4203 C 387.415 -1.20061 -6.56614 0
M  V30 4204 H 386.685 0.264602 -0.692146 0
M  V30 4205 H 389.332 -0.0169496 -1.91492 0
M  V30 4206 H 387.637 2.24497 -3.21105 0
M  V30 4207 H 389.334 1.97209 -3.49155 0
M  V30 4208 H 385.924 0.738414 -4.22191 0
M  V30 4209 H 390.108 0.0950302 -4.96209 0
M  V30 4210 H 385.364 -0.79168 -6.06253 0
M  V30 4211 H 389.538 -1.43026 -6.81554 0
M  V30 4212 H 387.165 -1.87967 -7.36595 0
M  V30 4213 N 388.74 1.54641 0.303973 0
M  V30 4214 C 389.67 1.88386 1.3796 0
M  V30 4215 C 390.651 0.742485 1.5304 0
M  V30 4216 O 391.836 0.997959 1.66597 0
M  V30 4217 C 388.966 2.12854 2.74427 0
M  V30 4218 C 387.92 3.28702 2.74115 0
M  V30 4219 C 387.246 3.38582 4.13844 0
M  V30 4220 C 388.546 4.65881 2.3612 0
M  V30 4221 H 390.24 2.78474 1.09966 0
M  V30 4222 H 387.786 1.33988 0.527556 0
M  V30 4223 H 389.739 2.35047 3.49758 0
M  V30 4224 H 388.463 1.19535 3.03939 0
M  V30 4225 H 387.122 3.06428 2.0124 0
M  V30 4226 H 386.77 2.42784 4.40528 0
M  V30 4227 H 386.47 4.16453 4.14537 0
M  V30 4228 H 387.994 3.63031 4.90959 0
M  V30 4229 H 389.408 4.87823 3.01167 0
M  V30 4230 H 387.805 5.46444 2.48031 0
M  V30 4231 H 388.875 4.66799 1.3125 0
M  V30 4232 N 390.218 -0.567019 1.47046 0
M  V30 4233 C 391.467 -1.32091 1.5243 0
M  V30 4234 C 391.78 -1.94704 0.187021 0
M  V30 4235 O 392.986 -2.7124 0.118771 0
M  V30 4236 C 391.442 -2.39479 2.68659 0
M  V30 4237 C 391.05 -1.831 4.08874 0
M  V30 4238 C 392.794 -3.16111 2.83327 0
M  V30 4239 C 390.701 -2.8821 5.16419 0
M  V30 4240 H 389.631 -0.496629 0.56734 0
M  V30 4241 H 392.282 -0.603354 1.73297 0
M  V30 4242 H 390.664 -3.14105 2.41152 0
M  V30 4243 H 391.838 -1.14913 4.46242 0
M  V30 4244 H 390.153 -1.19085 3.99008 0
M  V30 4245 H 392.75 -3.94585 3.60842 0
M  V30 4246 H 393.093 -3.69686 1.91411 0
M  V30 4247 H 393.626 -2.48595 3.10556 0
M  V30 4248 H 390.365 -2.39504 6.10179 0
M  V30 4249 H 389.885 -3.54839 4.8358 0
M  V30 4250 H 391.564 -3.51881 5.42945 0
M  V30 4251 N 391.696 -1.35014 -0.812953 0
M  V30 4252 C 392.643 -1.27412 -1.92444 0
M  V30 4253 C 393.613 -0.14733 -1.65445 0
M  V30 4254 O 394.798 -0.329974 -1.87925 0
M  V30 4255 C 391.938 -1.04558 -3.28879 0
M  V30 4256 C 391.051 -2.26101 -3.68106 0
M  V30 4257 C 390.186 -1.96449 -4.9354 0
M  V30 4258 C 389.225 -3.14081 -5.25376 0
M  V30 4259 N 388.362 -2.84246 -6.41988 0
M  V30 4260 H 393.202 -2.22463 -1.98278 0
M  V30 4261 H 390.739 -1.10593 -0.969933 0
M  V30 4262 H 392.697 -0.893413 -4.07522 0
M  V30 4263 H 391.327 -0.131719 -3.22531 0
M  V30 4264 H 390.379 -2.52204 -2.84775 0
M  V30 4265 H 391.691 -3.13959 -3.87597 0
M  V30 4266 H 390.845 -1.78026 -5.79993 0
M  V30 4267 H 389.584 -1.05867 -4.76071 0
M  V30 4268 H 388.589 -3.33089 -4.37415 0
M  V30 4269 H 389.814 -4.05455 -5.44778 0
M  V30 4270 H 387.76 -1.96252 -6.25956 0
M  V30 4271 H 387.677 -3.65637 -6.61699 0
M  V30 4272 H 388.945 -2.6935 -7.31485 0
M  V30 4273 N 393.175 1.03435 -1.18907 0
M  V30 4274 C 394.403 1.80381 -1.01342 0
M  V30 4275 C 394.818 1.83649 0.438005 0
M  V30 4276 O 394.175 1.27655 1.30424 0
M  V30 4277 C 394.226 3.25689 -1.56873 0
M  V30 4278 O 393.947 3.22673 -2.96334 0
M  V30 4279 C 395.448 4.19255 -1.44014 0
M  V30 4280 H 392.668 0.56784 -0.35749 0
M  V30 4281 H 395.212 1.30317 -1.576 0
M  V30 4282 H 393.367 3.72962 -1.04777 0
M  V30 4283 H 393.781 4.13748 -3.22355 0
M  V30 4284 H 395.255 5.19123 -1.87657 0
M  V30 4285 H 395.732 4.37467 -0.389815 0
M  V30 4286 H 396.338 3.77851 -1.95214 0
M  V30 4287 N 394.653 0.992116 1.22453 0
M  V30 4288 C 395.601 0.534644 2.26372 0
M  V30 4289 C 396.595 -0.414293 1.64256 0
M  V30 4290 O 397.801 -0.286899 1.77699 0
M  V30 4291 H 394.176 0.154502 0.735957 0
M  V30 4292 H 396.147 1.42256 2.62309 0
M  V30 4293 C 394.896 -0.135815 3.47435 0
M  V30 4294 H 394.219 0.585311 3.95492 0
M  V30 4295 H 395.659 -0.419374 4.21921 0
M  V30 4296 C 394.118 -1.37089 3.07747 0
M  V30 4297 O 394.648 -2.46629 3.17076 0
M  V30 4298 N 392.854 -1.24585 2.62539 0
M  V30 4299 H 392.401 -0.354542 2.55149 0
M  V30 4300 H 392.359 -2.07327 2.36353 0
M  V30 4301 N 396.131 -1.37776 0.765217 0
M  V30 4302 C 397.081 -2.2768 0.12075 0
M  V30 4303 C 398.065 -1.45778 -0.680988 0
M  V30 4304 O 399.257 -1.684 -0.545033 0
M  V30 4305 C 396.386 -3.34722 -0.762626 0
M  V30 4306 C 395.472 -4.24074 0.0465881 0
M  V30 4307 N 395.863 -4.93939 1.08892 0
M  V30 4308 C 394.161 -4.45643 -0.178418 0
M  V30 4309 C 394.862 -5.59845 1.57951 0
M  V30 4310 N 393.838 -5.36218 0.892797 0
M  V30 4311 H 397.64 -2.79166 0.918889 0
M  V30 4312 H 395.154 -1.50816 0.602353 0
M  V30 4313 H 397.151 -3.98031 -1.24005 0
M  V30 4314 H 395.811 -2.84793 -1.55959 0
M  V30 4315 H 396.822 -4.96572 1.47095 0
M  V30 4316 H 393.499 -4.06599 -0.9478 0
M  V30 4317 H 394.889 -6.25703 2.44838 0
M  V30 4318 N 397.609 -0.515225 -1.4894 0
M  V30 4319 C 398.839 0.0205735 -2.0659 0
M  V30 4320 C 399.247 1.30064 -1.37405 0
M  V30 4321 O 398.59 1.78087 -0.450632 0
M  V30 4322 C 398.652 0.330124 -3.57981 0
M  V30 4323 C 398.316 -0.854295 -4.48944 0
M  V30 4324 C 399.313 -1.7487 -4.89609 0
M  V30 4325 C 396.998 -1.05712 -4.9105 0
M  V30 4326 C 398.992 -2.82996 -5.71132 0
M  V30 4327 C 396.679 -2.14154 -5.72347 0
M  V30 4328 C 397.677 -3.0263 -6.12294 0
M  V30 4329 O 397.365 -4.09198 -6.91962 0
M  V30 4330 H 397.097 -0.0236833 -0.675585 0
M  V30 4331 H 399.651 -0.715956 -1.92518 0
M  V30 4332 H 397.881 1.12044 -3.70112 0
M  V30 4333 H 399.57 0.806233 -3.97812 0
M  V30 4334 H 400.336 -1.60388 -4.57712 0
M  V30 4335 H 396.215 -0.377788 -4.59449 0
M  V30 4336 H 399.759 -3.52083 -6.02232 0
M  V30 4337 H 395.656 -2.28626 -6.03656 0
M  V30 4338 H 396.424 -4.06726 -7.10293 0
M  V30 4339 N 399.087 1.5561 -0.249682 0
M  V30 4340 C 400.017 2.24477 0.642826 0
M  V30 4341 C 400.998 1.22601 1.17911 0
M  V30 4342 O 402.183 1.5126 1.21795 0
M  V30 4343 C 399.313 2.94638 1.83863 0
M  V30 4344 C 398.267 4.03227 1.435 0
M  V30 4345 C 397.593 4.60828 2.71186 0
M  V30 4346 C 398.893 5.18796 0.604002 0
M  V30 4347 H 400.587 2.99321 0.0685625 0
M  V30 4348 H 398.133 1.43965 0.0315363 0
M  V30 4349 H 400.086 3.41517 2.46868 0
M  V30 4350 H 398.81 2.17287 2.43832 0
M  V30 4351 H 397.469 3.57121 0.828275 0
M  V30 4352 H 397.117 3.80174 3.29358 0
M  V30 4353 H 396.817 5.34132 2.44901 0
M  V30 4354 H 398.341 5.10442 3.35084 0
M  V30 4355 H 399.755 5.61883 1.13842 0
M  V30 4356 H 398.152 5.98506 0.437097 0
M  V30 4357 H 399.222 4.83384 -0.383147 0
M  V30 4358 N 400.565 -0.0233959 1.57583 0
M  V30 4359 C 401.528 -1.00693 2.05897 0
M  V30 4360 C 402.528 -1.28693 0.964092 0
M  V30 4361 O 403.718 -1.23602 1.22753 0
M  V30 4362 C 400.85 -2.33825 2.4807 0
M  V30 4363 H 402.043 -0.589476 2.9405 0
M  V30 4364 H 399.596 -0.270354 1.53944 0
M  V30 4365 H 400.331 -2.80307 1.6309 0
M  V30 4366 H 400.116 -2.1483 3.2801 0
M  V30 4367 H 401.606 -3.04426 2.85857 0
M  V30 4368 N 402.043 -1.548 -0.295768 0
M  V30 4369 C 403.271 -1.78327 -1.04914 0
M  V30 4370 C 403.686 -0.545316 -1.80753 0
M  V30 4371 O 403.043 0.485013 -1.75937 0
M  V30 4372 C 403.094 -2.99418 -2.02561 0
M  V30 4373 O 402.815 -4.18431 -1.29798 0
M  V30 4374 C 404.316 -3.35375 -2.89895 0
M  V30 4375 H 401.536 -0.594618 -0.310918 0
M  V30 4376 H 404.08 -2.01763 -0.333454 0
M  V30 4377 H 402.235 -2.78175 -2.69624 0
M  V30 4378 H 402.649 -4.86736 -1.95419 0
M  V30 4379 H 404.123 -4.23332 -3.54251 0
M  V30 4380 H 404.6 -2.53761 -3.58472 0
M  V30 4381 H 405.206 -3.58796 -2.28355 0
M  V30 4382 N 403.521 0.559213 -1.47345 0
M  V30 4383 C 404.451 1.67622 -1.62558 0
M  V30 4384 C 405.432 1.63331 -0.475087 0
M  V30 4385 O 406.617 1.80983 -0.704182 0
M  V30 4386 C 403.747 3.0626 -1.63774 0
M  V30 4387 C 402.701 3.25397 -2.7803 0
M  V30 4388 C 402.027 4.64801 -2.64318 0
M  V30 4389 C 403.327 3.10965 -4.19641 0
M  V30 4390 H 405.021 1.55146 -2.56067 0
M  V30 4391 H 402.567 0.744961 -1.23233 0
M  V30 4392 H 404.52 3.84247 -1.73008 0
M  V30 4393 H 403.244 3.1969 -0.66825 0
M  V30 4394 H 401.903 2.49817 -2.68304 0
M  V30 4395 H 401.551 4.75028 -1.65401 0
M  V30 4396 H 401.251 4.78555 -3.40968 0
M  V30 4397 H 402.775 5.44926 -2.75478 0
M  V30 4398 H 404.189 3.78772 -4.30354 0
M  V30 4399 H 402.586 3.36229 -4.97062 0
M  V30 4400 H 403.656 2.07736 -4.38148 0
M  V30 4401 N 404.999 1.35443 0.805782 0
M  V30 4402 C 406.229 1.31687 1.59192 0
M  V30 4403 C 406.637 -0.10756 1.88894 0
M  V30 4404 O 405.98 -1.07017 1.49309 0
M  V30 4405 C 406.042 2.05686 2.94845 0
M  V30 4406 C 405.706 3.54868 2.87954 0
M  V30 4407 C 406.703 4.49444 2.61335 0
M  V30 4408 C 404.388 3.97528 3.07046 0
M  V30 4409 C 406.382 5.84655 2.53885 0
M  V30 4410 C 404.069 5.32833 2.99219 0
M  V30 4411 C 405.067 6.26209 2.72674 0
M  V30 4412 O 404.755 7.59032 2.64811 0
M  V30 4413 H 404.487 0.453878 0.50097 0
M  V30 4414 H 407.041 1.78892 1.0093 0
M  V30 4415 H 405.271 1.5312 3.55093 0
M  V30 4416 H 406.96 1.94998 3.55993 0
M  V30 4417 H 407.726 4.17804 2.46303 0
M  V30 4418 H 403.605 3.25233 3.26718 0
M  V30 4419 H 407.149 6.57508 2.33086 0
M  V30 4420 H 403.046 5.64087 3.13809 0
M  V30 4421 H 403.814 7.68967 2.80413 0
M  V30 4422 N 406.477 -1.02803 1.19454 0
M  V30 4423 C 407.424 -2.11099 0.933046 0
M  V30 4424 C 408.394 -1.65571 -0.132447 0
M  V30 4425 O 409.579 -1.90797 0.00987576 0
M  V30 4426 C 406.719 -3.41763 0.478747 0
M  V30 4427 C 405.832 -4.00833 1.6111 0
M  V30 4428 C 404.967 -5.19511 1.10825 0
M  V30 4429 C 404.006 -5.70639 2.21445 0
M  V30 4430 N 403.143 -6.80589 1.72461 0
M  V30 4431 H 407.983 -2.32804 1.86028 0
M  V30 4432 H 405.52 -1.14179 0.927441 0
M  V30 4433 H 407.478 -4.16736 0.196745 0
M  V30 4434 H 406.108 -3.20166 -0.411493 0
M  V30 4435 H 405.16 -3.23066 2.00829 0
M  V30 4436 H 406.472 -4.34794 2.4445 0
M  V30 4437 H 405.626 -6.01645 0.781533 0
M  V30 4438 H 404.365 -4.87086 0.244606 0
M  V30 4439 H 403.37 -4.87116 2.54947 0
M  V30 4440 H 404.595 -6.05102 3.08267 0
M  V30 4441 H 402.541 -6.50016 0.884056 0
M  V30 4442 H 402.458 -7.13681 2.49389 0
M  V30 4443 H 403.726 -7.66317 1.42755 0
M  V30 4444 N 407.956 -0.998596 -1.21925 0
M  V30 4445 C 408.904 -0.546641 -2.26085 0
M  V30 4446 C 409.898 0.405576 -1.64473 0
M  V30 4447 O 411.104 0.277471 -1.77849 0
M  V30 4448 H 407.479 -0.158403 -0.735127 0
M  V30 4449 H 409.45 -1.43645 -2.61551 0
M  V30 4450 C 408.199 0.117388 -3.47502 0
M  V30 4451 H 407.522 -0.606277 -3.95176 0
M  V30 4452 H 408.962 0.396993 -4.22137 0
M  V30 4453 C 407.421 1.35455 -3.0847 0
M  V30 4454 O 407.951 2.44944 -3.18379 0
M  V30 4455 N 406.157 1.23191 -2.63196 0
M  V30 4456 H 405.704 0.341006 -2.55333 0
M  V30 4457 H 405.662 2.06071 -2.37449 0
M  V30 4458 N 409.434 1.37368 -0.772513 0
M  V30 4459 C 410.662 2.03942 -0.348588 0
M  V30 4460 C 411.077 1.58264 1.02947 0
M  V30 4461 O 410.434 0.764246 1.65727 0
M  V30 4462 C 410.485 3.5946 -0.38351 0
M  V30 4463 O 410.206 4.03468 -1.70721 0
M  V30 4464 C 411.707 4.4327 0.0519152 0
M  V30 4465 H 408.927 0.654931 -0.145966 0
M  V30 4466 H 411.471 1.75686 -1.04665 0
M  V30 4467 H 409.626 3.86486 0.265978 0
M  V30 4468 H 410.04 4.97991 -1.64636 0
M  V30 4469 H 411.514 5.51995 -0.0236733 0
M  V30 4470 H 411.991 4.2514 1.10238 0
M  V30 4471 H 412.597 4.21471 -0.569415 0
M  V30 4472 N 410.912 0.523116 1.48665 0
M  V30 4473 C 412.137 -0.0117284 2.07397 0
M  V30 4474 C 412.562 -1.28031 1.37803 0
M  V30 4475 O 411.92 -1.75836 0.441762 0
M  V30 4476 C 411.968 -0.225786 3.59892 0
M  V30 4477 O 411.072 -1.29592 3.91509 0
M  V30 4478 H 410.413 0.0360673 0.66302 0
M  V30 4479 H 412.943 0.729066 1.9117 0
M  V30 4480 H 412.953 -0.450552 4.05505 0
M  V30 4481 H 411.628 0.700944 4.09951 0
M  V30 4482 H 410.205 -1.05436 3.57684 0
M  V30 4483 N 412.39 -1.55475 0.257931 0
M  V30 4484 C 413.636 -1.99502 -0.364266 0
M  V30 4485 C 413.969 -1.146 -1.56782 0
M  V30 4486 O 413.244 -0.211968 -1.93342 0
M  V30 4487 C 413.527 -3.51917 -0.763333 0
M  V30 4488 C 413.38 -4.4758 0.446371 0
M  V30 4489 C 414.699 -4.09742 -1.60623 0
M  V30 4490 H 411.818 -0.725277 -0.130929 0
M  V30 4491 H 414.46 -1.8653 0.361446 0
M  V30 4492 H 412.61 -3.63101 -1.38166 0
M  V30 4493 H 414.282 -4.48362 1.08487 0
M  V30 4494 H 412.525 -4.19947 1.08753 0
M  V30 4495 H 413.196 -5.51862 0.123645 0
M  V30 4496 H 415.672 -4.01727 -1.08418 0
M  V30 4497 H 414.548 -5.16631 -1.85429 0
M  V30 4498 H 414.809 -3.58889 -2.58169 0
M  V30 4499 N 413.868 0.0150385 -1.57593 0
M  V30 4500 C 414.798 1.01047 -2.10503 0
M  V30 4501 C 415.779 1.36816 -1.01071 0
M  V30 4502 O 416.964 1.45455 -1.28672 0
M  V30 4503 C 414.094 2.30708 -2.59598 0
M  V30 4504 C 413.048 2.09142 -3.73421 0
M  V30 4505 C 412.374 3.44685 -4.08774 0
M  V30 4506 C 413.674 1.46619 -5.01298 0
M  V30 4507 H 415.368 0.569978 -2.93925 0
M  V30 4508 H 412.914 0.272724 -1.41394 0
M  V30 4509 H 414.867 3.00687 -2.95238 0
M  V30 4510 H 413.591 2.76843 -1.73279 0
M  V30 4511 H 412.25 1.41592 -3.38153 0
M  V30 4512 H 411.898 3.88495 -3.195 0
M  V30 4513 H 411.598 3.31077 -4.8545 0
M  V30 4514 H 413.122 4.16004 -4.4696 0
M  V30 4515 H 414.536 2.06535 -5.34805 0
M  V30 4516 H 412.933 1.43544 -5.82679 0
M  V30 4517 H 414.003 0.433611 -4.82957 0
M  V30 4518 N 415.346 1.54954 0.287554 0
M  V30 4519 C 416.256 1.8991 1.37736 0
M  V30 4520 C 417.272 0.794701 1.54792 0
M  V30 4521 O 418.448 1.09243 1.69198 0
M  V30 4522 C 415.513 2.15108 2.71899 0
M  V30 4523 C 414.574 3.38752 2.63715 0
M  V30 4524 C 413.807 3.62739 3.91479 0
M  V30 4525 O 414.03 2.89492 4.91478 0
M  V30 4526 O 412.964 4.56267 3.92561 0
M  V30 4527 H 416.79 2.82652 1.11092 0
M  V30 4528 H 414.375 1.41315 0.484807 0
M  V30 4529 H 416.257 2.32806 3.51254 0
M  V30 4530 H 414.932 1.25551 2.9836 0
M  V30 4531 H 413.839 3.26405 1.82786 0
M  V30 4532 H 415.172 4.28483 2.42205 0
M  V30 4533 N 416.824 -0.551391 1.4764 0
M  V30 4534 C 417.772 -1.67896 1.60978 0
M  V30 4535 C 418.766 -1.62549 0.476877 0
M  V30 4536 O 419.972 -1.67664 0.654878 0
M  V30 4537 H 416.347 -0.555649 0.506713 0
M  V30 4538 H 418.318 -1.53784 2.55721 0
M  V30 4539 C 417.067 -3.06234 1.64669 0
M  V30 4540 H 416.39 -3.11033 2.51194 0
M  V30 4541 H 417.83 -3.84804 1.7805 0
M  V30 4542 C 416.289 -3.34737 0.381115 0
M  V30 4543 O 416.819 -3.98381 -0.515297 0
M  V30 4544 N 415.025 -2.8944 0.259354 0
M  V30 4545 H 414.572 -2.37827 0.98976 0
M  V30 4546 H 414.53 -3.08882 -0.586464 0
M  V30 4547 N 418.302 -1.35869 -0.798587 0
M  V30 4548 C 419.252 -1.25982 -1.90033 0
M  V30 4549 C 420.236 -0.153303 -1.60168 0
M  V30 4550 O 421.428 -0.38527 -1.72756 0
M  V30 4551 C 418.557 -1.04211 -3.27101 0
M  V30 4552 C 417.643 -2.19289 -3.63006 0
M  V30 4553 N 418.034 -3.44559 -3.70287 0
M  V30 4554 C 416.332 -2.10852 -3.93011 0
M  V30 4555 C 417.033 -4.20283 -4.02166 0
M  V30 4556 N 416.009 -3.49124 -4.16669 0
M  V30 4557 H 419.811 -2.20883 -1.93876 0
M  V30 4558 H 417.325 -1.28457 -0.993614 0
M  V30 4559 H 419.322 -0.952155 -4.05881 0
M  V30 4560 H 417.982 -0.102013 -3.2454 0
M  V30 4561 H 418.993 -3.7881 -3.53162 0
M  V30 4562 H 415.67 -1.24744 -3.98428 0
M  V30 4563 H 417.06 -5.28575 -4.14799 0
M  V30 4564 N 419.78 1.02168 -1.19998 0
M  V30 4565 C 420.73 2.08969 -0.911921 0
M  V30 4566 C 421.714 1.60404 0.12621 0
M  V30 4567 O 422.906 1.76817 -0.0804706 0
M  V30 4568 C 420.035 3.402 -0.460277 0
M  V30 4569 C 419.121 3.9548 -1.53155 0
M  V30 4570 N 419.512 4.24332 -2.75275 0
M  V30 4571 C 417.81 4.23572 -1.39653 0
M  V30 4572 C 418.511 4.68834 -3.44339 0
M  V30 4573 N 417.487 4.70804 -2.71744 0
M  V30 4574 H 421.289 2.29178 -1.83997 0
M  V30 4575 H 418.803 1.20094 -1.09322 0
M  V30 4576 H 420.8 4.16235 -0.235337 0
M  V30 4577 H 419.46 3.21408 0.4612 0
M  V30 4578 H 420.471 4.13393 -3.11973 0
M  V30 4579 H 417.148 4.14005 -0.539067 0
M  V30 4580 H 418.538 5.00019 -4.4881 0
M  V30 4581 N 421.258 1.00505 1.21394 0
M  V30 4582 C 422.504 0.698477 1.91031 0
M  V30 4583 C 422.859 -0.762448 1.76648 0
M  V30 4584 O 422.152 -1.54554 1.13241 0
M  V30 4585 C 422.346 1.0546 3.41486 0
M  V30 4586 C 422.175 2.5486 3.70508 0
M  V30 4587 C 420.945 3.21461 3.8986 0
M  V30 4588 C 423.143 3.53019 3.74008 0
M  V30 4589 N 421.125 4.60211 4.06299 0
M  V30 4590 C 422.496 4.77279 3.95733 0
M  V30 4591 C 424.551 3.47154 3.56915 0
M  V30 4592 C 423.254 5.96388 4.02137 0
M  V30 4593 C 425.28 4.65652 3.64585 0
M  V30 4594 C 424.642 5.88717 3.86771 0
M  V30 4595 H 420.741 0.30707 0.719189 0
M  V30 4596 H 423.325 1.28753 1.46051 0
M  V30 4597 H 421.496 0.494007 3.85246 0
M  V30 4598 H 423.228 0.702765 3.98552 0
M  V30 4599 H 419.983 2.71906 3.87768 0
M  V30 4600 H 420.407 5.32216 4.1842 0
M  V30 4601 H 425.049 2.53015 3.38738 0
M  V30 4602 H 422.767 6.90919 4.19114 0
M  V30 4603 H 426.353 4.62717 3.52681 0
M  V30 4604 H 425.233 6.78877 3.92549 0
M  V30 4605 N 422.737 -1.36956 0.779787 0
M  V30 4606 C 424.153 -1.52817 0.460342 0
M  V30 4607 C 424.353 -1.7361 -1.02283 0
M  V30 4608 O 423.409 -1.76207 -1.80852 0
M  V30 4609 C 424.722 -2.71983 1.28241 0
M  V30 4610 C 426.27 -2.85849 1.27512 0
M  V30 4611 C 426.745 -4.08008 2.08072 0
M  V30 4612 N 428.236 -4.15135 2.05467 0
M  V30 4613 C 428.971 -5.08711 2.64577 0
M  V30 4614 N 428.467 -6.07792 3.32506 0
M  V30 4615 N 430.26 -5.01254 2.54363 0
M  V30 4616 H 422.411 -1.21713 1.74068 0
M  V30 4617 H 424.674 -0.593294 0.739396 0
M  V30 4618 H 424.38 -2.63109 2.33381 0
M  V30 4619 H 424.254 -3.65882 0.917088 0
M  V30 4620 H 426.641 -2.94189 0.231686 0
M  V30 4621 H 426.722 -1.92886 1.68014 0
M  V30 4622 H 426.366 -4.00429 3.12441 0
M  V30 4623 H 426.296 -5.001 1.64947 0
M  V30 4624 H 428.787 -3.44189 1.5602 0
M  V30 4625 H 429.1 -6.75739 3.74963 0
M  V30 4626 H 427.445 -6.08047 3.36606 0
M  V30 4627 H 430.636 -4.22795 2.00902 0
M  V30 4628 H 430.809 -5.73995 3.00722 0
M  V30 4629 N 424.215 -0.530993 -1.48385 0
M  V30 4630 C 425.44 0.000729535 -2.074 0
M  V30 4631 C 425.865 1.27298 -1.3848 0
M  V30 4632 O 425.223 1.75599 -0.451081 0
M  V30 4633 C 425.271 0.206697 -3.60007 0
M  V30 4634 O 424.375 1.27514 -3.92191 0
M  V30 4635 H 423.716 -0.039583 -0.662819 0
M  V30 4636 H 426.246 -0.739194 -1.9078 0
M  V30 4637 H 426.256 0.42904 -4.05738 0
M  V30 4638 H 424.931 -0.722675 -4.09573 0
M  V30 4639 H 423.508 1.03537 -3.58238 0
M  V30 4640 N 425.693 1.55336 -0.266172 0
M  V30 4641 C 426.656 2.20878 0.612001 0
M  V30 4642 C 427.656 1.18388 1.08816 0
M  V30 4643 O 428.846 1.4335 0.989774 0
M  V30 4644 C 425.978 2.86765 1.84332 0
M  V30 4645 H 427.171 2.99873 0.0398718 0
M  V30 4646 H 424.724 1.56291 -0.0167309 0
M  V30 4647 H 425.459 2.11759 2.45619 0
M  V30 4648 H 425.244 3.61862 1.5099 0
M  V30 4649 H 426.734 3.36867 2.46801 0
M  V30 4650 N 427.171 -0.0066808 1.57599 0
M  V30 4651 C 428.417 -0.693947 1.90558 0
M  V30 4652 C 428.75 -1.73792 0.866594 0
M  V30 4653 O 428.025 -1.94156 -0.115548 0
M  V30 4654 C 428.308 -1.34317 3.34112 0
M  V30 4655 C 428.161 -0.311189 4.48722 0
M  V30 4656 C 429.48 -2.27116 3.7697 0
M  V30 4657 H 426.599 -0.250803 0.693013 0
M  V30 4658 H 429.241 0.043242 1.89951 0
M  V30 4659 H 427.391 -1.9715 3.3476 0
M  V30 4660 H 429.063 0.316944 4.6021 0
M  V30 4661 H 427.306 0.367253 4.32243 0
M  V30 4662 H 427.977 -0.804366 5.46108 0
M  V30 4663 H 430.453 -1.74306 3.77831 0
M  V30 4664 H 429.329 -2.69511 4.78179 0
M  V30 4665 H 429.59 -3.14743 3.10466 0
M  V30 4666 N 428.649 -1.55105 -0.279332 0
M  V30 4667 C 429.897 -1.75066 -1.00977 0
M  V30 4668 C 430.218 -0.551276 -1.87045 0
M  V30 4669 O 429.488 0.433984 -1.91032 0
M  V30 4670 H 428.068 -0.645578 -0.375816 0
M  V30 4671 H 430.73 -1.92497 -0.305089 0
M  V30 4672 H 429.826 -2.64894 -1.65038 0
M  V30 4673 N 430.127 0.543554 -1.4793 0
M  V30 4674 C 431.057 1.65888 -1.64327 0
M  V30 4675 C 432.038 1.62818 -0.492383 0
M  V30 4676 O 433.223 1.80226 -0.723338 0
M  V30 4677 C 430.353 3.04506 -1.67013 0
M  V30 4678 C 429.307 3.2243 -2.81466 0
M  V30 4679 C 428.633 4.61972 -2.69233 0
M  V30 4680 C 429.933 3.06496 -4.22915 0
M  V30 4681 H 431.627 1.52421 -2.57698 0
M  V30 4682 H 429.173 0.731849 -1.24016 0
M  V30 4683 H 431.126 3.82391 -1.77074 0
M  V30 4684 H 429.85 3.18964 -0.70212 0
M  V30 4685 H 428.509 2.46957 -2.70938 0
M  V30 4686 H 428.157 4.73247 -1.7043 0
M  V30 4687 H 427.857 4.74911 -3.46025 0
M  V30 4688 H 429.381 5.41974 -2.81242 0
M  V30 4689 H 430.795 3.74186 -4.34348 0
M  V30 4690 H 429.192 3.30938 -5.006 0
M  V30 4691 H 430.262 2.03077 -4.40327 0
M  V30 4692 N 431.605 1.3629 0.791371 0
M  V30 4693 C 432.535 1.33137 1.91825 0
M  V30 4694 C 433.516 0.203168 1.68882 0
M  V30 4695 O 434.701 0.400509 1.90025 0
M  V30 4696 C 431.831 1.11793 3.28816 0
M  V30 4697 C 430.785 2.21417 3.66277 0
M  V30 4698 C 430.111 1.85218 5.01596 0
M  V30 4699 C 431.411 3.63489 3.75064 0
M  V30 4700 H 433.105 2.2743 1.9472 0
M  V30 4701 H 430.651 1.09479 0.935437 0
M  V30 4702 H 432.604 1.08222 4.07266 0
M  V30 4703 H 431.328 0.139501 3.26302 0
M  V30 4704 H 429.987 2.2411 2.90121 0
M  V30 4705 H 429.635 0.859544 4.95602 0
M  V30 4706 H 429.335 2.58611 5.27631 0
M  V30 4707 H 430.859 1.832 5.82469 0
M  V30 4708 H 432.273 3.63034 4.43711 0
M  V30 4709 H 430.67 4.35771 4.12582 0
M  V30 4710 H 431.74 3.98536 2.76219 0
M  V30 4711 N 433.083 -1.0153 1.20538 0
M  V30 4712 C 434.499 -1.27461 0.96051 0
M  V30 4713 C 434.699 -1.98273 -0.359193 0
M  V30 4714 O 433.755 -2.27886 -1.0874 0
M  V30 4715 C 435.068 -2.10837 2.14402 0
M  V30 4716 C 436.616 -2.24099 2.18515 0
M  V30 4717 C 437.091 -3.10852 3.36355 0
M  V30 4718 N 438.582 -3.18441 3.36377 0
M  V30 4719 C 439.317 -3.85795 4.24205 0
M  V30 4720 N 438.813 -4.55264 5.22213 0
M  V30 4721 N 440.606 -3.82331 4.12043 0
M  V30 4722 H 432.757 -0.539907 2.05423 0
M  V30 4723 H 435.02 -0.30092 0.898972 0
M  V30 4724 H 434.726 -1.66144 3.09983 0
M  V30 4725 H 434.6 -3.11576 2.12604 0
M  V30 4726 H 436.987 -2.68016 1.23497 0
M  V30 4727 H 437.068 -1.22865 2.24361 0
M  V30 4728 H 436.712 -2.6764 4.31661 0
M  V30 4729 H 436.642 -4.12177 3.27746 0
M  V30 4730 H 439.133 -2.68978 2.65442 0
M  V30 4731 H 439.446 -5.04331 5.85551 0
M  V30 4732 H 437.791 -4.54085 5.26148 0
M  V30 4733 H 440.982 -3.27207 3.34743 0
M  V30 4734 H 441.155 -4.34547 4.807 0
M  V30 4735 N 434.561 -1.01147 -1.20859 0
M  V30 4736 C 435.471 -0.58686 -2.27141 0
M  V30 4737 C 436.487 0.373198 -1.69951 0
M  V30 4738 O 437.663 0.235423 -2.00019 0
M  V30 4739 C 434.728 0.0733602 -3.46622 0
M  V30 4740 C 433.789 -0.931995 -4.19061 0
M  V30 4741 C 433.022 -0.303186 -5.32838 0
M  V30 4742 O 433.245 0.898395 -5.63281 0
M  V30 4743 O 432.179 -1.01735 -5.9324 0
M  V30 4744 H 436.005 -1.47155 -2.65667 0
M  V30 4745 H 433.59 -0.780689 -1.2738 0
M  V30 4746 H 435.472 0.442333 -4.19072 0
M  V30 4747 H 434.147 0.932329 -3.09983 0
M  V30 4748 H 433.054 -1.35224 -3.48805 0
M  V30 4749 H 434.387 -1.76076 -4.59628 0
M  V30 4750 N 436.039 1.36541 -0.78704 0
M  V30 4751 C 437.264 2.0409 -0.369053 0
M  V30 4752 C 437.689 1.58957 1.00569 0
M  V30 4753 O 437.047 0.756926 1.64743 0
M  V30 4754 C 437.095 3.57924 -0.438466 0
M  V30 4755 O 436.199 4.08642 0.555479 0
M  V30 4756 H 435.54 0.645142 -0.157122 0
M  V30 4757 H 438.07 1.74545 -1.06749 0
M  V30 4758 H 438.08 4.06887 -0.301218 0
M  V30 4759 H 436.755 3.90127 -1.44132 0
M  V30 4760 H 435.332 3.70958 0.380088 0
M  V30 4761 N 437.518 0.538854 1.48102 0
M  V30 4762 C 438.766 0.00798599 2.02098 0
M  V30 4763 C 439.087 -1.33922 1.41739 0
M  V30 4764 O 438.357 -1.86932 0.585934 0
M  V30 4765 H 436.937 -3.62179e-05 0.747 0
M  V30 4766 H 439.599 0.7047 1.81714 0
M  V30 4767 H 438.695 -0.0937672 3.11959 0
M  V30 4768 N 438.996 -1.55193 0.274407 0
M  V30 4769 C 439.926 -2.25471 -0.607032 0
M  V30 4770 C 440.907 -1.24461 -1.15946 0
M  V30 4771 O 442.092 -1.53179 -1.19373 0
M  V30 4772 C 439.222 -2.97526 -1.79153 0
M  V30 4773 C 438.176 -4.05459 -1.37067 0
M  V30 4774 C 437.502 -4.65084 -2.6382 0
M  V30 4775 C 438.802 -5.19691 -0.521389 0
M  V30 4776 H 440.496 -2.99393 -0.0209343 0
M  V30 4777 H 438.042 -1.43997 -0.00862866 0
M  V30 4778 H 439.995 -3.45402 -2.41404 0
M  V30 4779 H 438.719 -2.21138 -2.40344 0
M  V30 4780 H 437.378 -3.58393 -0.771355 0
M  V30 4781 H 437.026 -3.85365 -3.23268 0
M  V30 4782 H 436.726 -5.37961 -2.36372 0
M  V30 4783 H 438.25 -5.15708 -3.26921 0
M  V30 4784 H 439.664 -5.63623 -1.04889 0
M  V30 4785 H 438.061 -5.99126 -0.341825 0
M  V30 4786 H 439.131 -4.82713 0.46 0
M  V30 4787 N 440.474 -0.00167713 -1.576 0
M  V30 4788 C 441.721 0.68282 -1.90641 0
M  V30 4789 C 442.049 1.73686 -0.875415 0
M  V30 4790 O 441.304 1.95334 0.119575 0
M  V30 4791 C 441.603 1.36189 -3.30435 0
M  V30 4792 C 441.269 0.440887 -4.48739 0
M  V30 4793 C 439.931 0.187312 -4.80835 0
M  V30 4794 C 442.283 -0.193134 -5.20842 0
M  V30 4795 C 439.611 -0.70855 -5.82406 0
M  V30 4796 C 441.963 -1.07688 -6.23367 0
M  V30 4797 C 440.627 -1.33962 -6.53919 0
M  V30 4798 H 439.897 0.249862 -0.697603 0
M  V30 4799 H 442.544 -0.0575642 -1.91413 0
M  V30 4800 H 440.849 2.17636 -3.25794 0
M  V30 4801 H 442.546 1.89759 -3.5326 0
M  V30 4802 H 439.136 0.648694 -4.23663 0
M  V30 4803 H 443.32 -0.0102445 -4.96299 0
M  V30 4804 H 438.576 -0.920097 -6.04437 0
M  V30 4805 H 442.75 -1.57451 -6.78367 0
M  V30 4806 H 440.377 -2.03549 -7.32442 0
M  V30 4807 N 441.952 1.55251 0.271103 0
M  V30 4808 C 443.177 1.80306 1.02491 0
M  V30 4809 C 443.602 0.575457 1.79081 0
M  V30 4810 O 442.96 -0.474987 1.74967 0
M  V30 4811 C 443.008 3.02832 1.95768 0
M  V30 4812 O 442.112 2.78051 3.04568 0
M  V30 4813 H 441.453 0.595896 0.292923 0
M  V30 4814 H 443.983 2.02397 0.299436 0
M  V30 4815 H 443.993 3.31616 2.37686 0
M  V30 4816 H 442.668 3.9183 1.39434 0
M  V30 4817 H 441.245 2.60369 2.66951 0
M  V30 4818 N 443.43 -0.535701 1.48216 0
M  V30 4819 C 444.38 -1.63688 1.58714 0
M  V30 4820 C 445.364 -1.54635 0.444615 0
M  V30 4821 O 446.556 -1.62753 0.695742 0
M  V30 4822 C 443.685 -3.02423 1.62466 0
M  V30 4823 C 442.771 -3.16601 2.82178 0
M  V30 4824 N 443.162 -3.00771 4.06658 0
M  V30 4825 C 441.46 -3.47645 2.79391 0
M  V30 4826 C 442.161 -3.18213 4.86945 0
M  V30 4827 N 441.137 -3.45528 4.19656 0
M  V30 4828 H 444.939 -1.5005 2.5271 0
M  V30 4829 H 442.453 -0.741018 1.44508 0
M  V30 4830 H 444.45 -3.81517 1.6808 0
M  V30 4831 H 443.11 -3.17157 0.695826 0
M  V30 4832 H 444.121 -2.77652 4.37184 0
M  V30 4833 H 440.798 -3.68771 1.95739 0
M  V30 4834 H 442.188 -3.1076 5.95716 0
M  V30 4835 N 444.908 -1.36708 -0.784132 0
M  V30 4836 C 445.838 -1.34153 -1.91116 0
M  V30 4837 C 446.819 -0.212121 -1.68772 0
M  V30 4838 O 448.004 -0.410581 -1.8981 0
M  V30 4839 C 445.134 -1.13535 -3.28218 0
M  V30 4840 C 444.088 -2.23356 -3.65097 0
M  V30 4841 C 443.414 -1.87875 -5.00607 0
M  V30 4842 C 444.714 -3.65473 -3.73131 0
M  V30 4843 H 446.408 -2.28459 -1.93512 0
M  V30 4844 H 443.954 -1.09973 -0.929618 0
M  V30 4845 H 445.907 -1.10381 -4.06687 0
M  V30 4846 H 444.631 -0.156804 -3.26223 0
M  V30 4847 H 443.29 -2.25645 -2.88929 0
M  V30 4848 H 442.938 -0.885814 -4.95139 0
M  V30 4849 H 442.638 -2.61406 -5.26252 0
M  V30 4850 H 444.162 -1.86286 -5.81489 0
M  V30 4851 H 445.576 -3.65382 -4.41779 0
M  V30 4852 H 443.973 -4.37953 -4.10265 0
M  V30 4853 H 445.043 -3.99995 -2.74102 0
M  V30 4854 N 446.386 1.0089 -1.21074 0
M  V30 4855 C 447.797 1.56056 -1.02486 0
M  V30 4856 C 448.148 1.91728 0.416506 0
M  V30 4857 O 447.273 1.73066 1.29912 0
M  V30 4858 C 447.868 2.83563 -1.85411 0
M  V30 4859 C 446.427 3.3523 -1.71166 0
M  V30 4860 C 445.574 2.0846 -1.82865 0
M  V30 4861 H 448.525 0.831818 -1.35154 0
M  V30 4862 H 448.546 3.55286 -1.36205 0
M  V30 4863 H 448.058 2.57569 -2.9031 0
M  V30 4864 H 446.159 3.66167 -0.689361 0
M  V30 4865 H 446.272 4.06913 -2.52901 0
M  V30 4866 H 444.636 2.21275 -1.26132 0
M  V30 4867 H 445.419 1.84883 -2.89263 0
M  V30 4868 N 447.864 1.01787 1.20321 0
M  V30 4869 C 448.794 0.609625 2.25401 0
M  V30 4870 C 449.775 -0.375951 1.65893 0
M  V30 4871 O 450.96 -0.261101 1.92437 0
M  V30 4872 C 448.09 -0.0515995 3.47262 0
M  V30 4873 C 447.044 0.855095 4.19371 0
M  V30 4874 C 446.37 0.0595757 5.34667 0
M  V30 4875 C 447.67 2.16374 4.75373 0
M  V30 4876 H 449.364 1.48803 2.59804 0
M  V30 4877 H 446.91 0.716934 1.24884 0
M  V30 4878 H 448.863 -0.348764 4.19954 0
M  V30 4879 H 447.587 -0.964726 3.12027 0
M  V30 4880 H 446.246 1.13628 3.48546 0
M  V30 4881 H 445.894 -0.85524 4.95676 0
M  V30 4882 H 445.594 0.663406 5.83843 0
M  V30 4883 H 447.118 -0.231105 6.10162 0
M  V30 4884 H 448.532 1.92885 5.39878 0
M  V30 4885 H 446.929 2.71853 5.34991 0
M  V30 4886 H 447.999 2.82589 3.94045 0
M  V30 4887 N 449.342 -1.36122 0.79427 0
M  V30 4888 C 450.252 -2.33769 0.197296 0
M  V30 4889 C 451.268 -1.61276 -0.653153 0
M  V30 4890 O 452.444 -1.9323 -0.5678 0
M  V30 4891 C 449.509 -3.40474 -0.654098 0
M  V30 4892 C 448.57 -4.28759 0.215411 0
M  V30 4893 C 447.803 -5.30368 -0.595443 0
M  V30 4894 O 448.026 -5.40211 -1.83107 0
M  V30 4895 O 446.96 -6.019 0.00721351 0
M  V30 4896 H 450.786 -2.86597 1.00478 0
M  V30 4897 H 448.371 -1.38676 0.555818 0
M  V30 4898 H 450.253 -4.05703 -1.13944 0
M  V30 4899 H 448.928 -2.89937 -1.43938 0
M  V30 4900 H 447.835 -3.66554 0.747615 0
M  V30 4901 H 449.168 -4.82661 0.964332 0
M  V30 4902 N 450.82 -0.546701 -1.47814 0
M  V30 4903 C 452.045 -0.021268 -2.07389 0
M  V30 4904 C 452.47 1.25822 -1.39822 0
M  V30 4905 O 451.828 1.75111 -0.46968 0
M  V30 4906 C 451.876 0.168502 -3.60206 0
M  V30 4907 O 450.98 1.23347 -3.93522 0
M  V30 4908 H 450.321 -0.0466108 -0.662362 0
M  V30 4909 H 452.851 -0.759387 -1.89985 0
M  V30 4910 H 452.861 0.385982 -4.0617 0
M  V30 4911 H 451.536 -0.766075 -4.08784 0
M  V30 4912 H 450.113 0.997319 -3.59316 0
M  V30 4913 N 452.299 1.55045 -0.282633 0
M  V30 4914 C 453.715 1.59441 0.0712997 0
M  V30 4915 C 453.915 1.2998 1.53972 0
M  V30 4916 O 452.971 1.06431 2.28973 0
M  V30 4917 C 454.284 2.99097 -0.310104 0
M  V30 4918 C 455.832 3.1194 -0.257343 0
M  V30 4919 C 456.307 4.53875 -0.613297 0
M  V30 4920 N 457.798 4.5974 -0.565134 0
M  V30 4921 C 458.533 5.67603 -0.81326 0
M  V30 4922 N 458.029 6.83582 -1.1264 0
M  V30 4923 N 459.822 5.57187 -0.741553 0
M  V30 4924 H 451.973 1.72458 -1.23984 0
M  V30 4925 H 454.236 0.804549 -0.501403 0
M  V30 4926 H 453.942 3.25516 -1.33163 0
M  V30 4927 H 453.816 3.75616 0.345366 0
M  V30 4928 H 456.203 2.85281 0.754905 0
M  V30 4929 H 456.284 2.37618 -0.947178 0
M  V30 4930 H 455.928 4.81261 -1.62327 0
M  V30 4931 H 455.858 5.26508 0.09841 0
M  V30 4932 H 458.349 3.76427 -0.333294 0
M  V30 4933 H 458.662 7.6175 -1.30219 0
M  V30 4934 H 457.007 6.85179 -1.16425 0
M  V30 4935 H 460.198 4.65457 -0.496705 0
M  V30 4936 H 460.371 6.41171 -0.938306 0
M  V30 4937 N 453.777 0.010035 1.57597 0
M  V30 4938 C 454.709 -1.00649 2.05918 0
M  V30 4939 C 455.722 -1.30077 0.978964 0
M  V30 4940 O 456.911 -1.26878 1.25556 0
M  V30 4941 C 454.011 -2.33876 2.45265 0
M  V30 4942 C 453.184 -2.23242 3.7614 0
M  V30 4943 C 452.243 -3.39242 4.02245 0
M  V30 4944 O 451.269 -3.1698 4.72771 0
M  V30 4945 N 452.471 -4.6242 3.50924 0
M  V30 4946 H 455.236 -0.594333 2.93748 0
M  V30 4947 H 452.797 -0.17714 1.60928 0
M  V30 4948 H 454.789 -3.1027 2.59836 0
M  V30 4949 H 453.359 -2.66799 1.62902 0
M  V30 4950 H 452.579 -1.31696 3.71551 0
M  V30 4951 H 453.867 -2.13321 4.61922 0
M  V30 4952 H 453.265 -4.83404 2.93832 0
M  V30 4953 H 451.822 -5.36046 3.70807 0
M  V30 4954 N 455.255 -1.55392 -0.262866 0
M  V30 4955 C 456.187 -1.85392 -1.34768 0
M  V30 4956 C 457.2 -0.739069 -1.45057 0
M  V30 4957 O 458.389 -1.01703 -1.46693 0
M  V30 4958 C 455.489 -2.01088 -2.72795 0
M  V30 4959 C 454.662 -3.31828 -2.84972 0
M  V30 4960 C 453.721 -3.37464 -4.03738 0
M  V30 4961 O 452.747 -4.10778 -3.94018 0
M  V30 4962 N 453.949 -2.65599 -5.16176 0
M  V30 4963 H 456.714 -2.79029 -1.09375 0
M  V30 4964 H 454.275 -1.55434 -0.452981 0
M  V30 4965 H 456.267 -2.02217 -3.50557 0
M  V30 4966 H 454.837 -1.1427 -2.90966 0
M  V30 4967 H 454.057 -3.43152 -1.94012 0
M  V30 4968 H 455.345 -4.18032 -2.90045 0
M  V30 4969 H 454.743 -2.05736 -5.26962 0
M  V30 4970 H 453.3 -2.72439 -5.92132 0
M  V30 4971 N 456.733 0.527833 -1.48498 0
M  V30 4972 C 457.666 1.64892 -1.57753 0
M  V30 4973 C 458.644 1.5687 -0.427867 0
M  V30 4974 O 459.828 1.77311 -0.639764 0
M  V30 4975 C 456.955 3.03301 -1.50752 0
M  V30 4976 C 456.001 3.29675 -2.70586 0
M  V30 4977 S 456.834 3.15712 -4.32535 0
M  V30 4978 C 457.99 4.56564 -4.28136 0
M  V30 4979 H 458.223 1.56792 -2.52594 0
M  V30 4980 H 455.756 0.710959 -1.37057 0
M  V30 4981 H 457.714 3.83123 -1.474 0
M  V30 4982 H 456.375 3.08839 -0.572454 0
M  V30 4983 H 455.568 4.3065 -2.61833 0
M  V30 4984 H 455.17 2.57526 -2.71212 0
M  V30 4985 H 457.462 5.48126 -3.98201 0
M  V30 4986 H 458.405 4.70371 -5.29298 0
M  V30 4987 H 458.813 4.35987 -3.58574 0
M  V30 4988 N 458.211 1.37122 0.776871 0
M  V30 4989 C 459.121 1.34651 1.9211 0
M  V30 4990 C 460.137 0.246824 1.7224 0
M  V30 4991 O 461.313 0.48134 1.95563 0
M  V30 4992 C 458.378 1.14748 3.2716 0
M  V30 4993 C 457.439 2.34308 3.5972 0
M  V30 4994 C 456.672 2.15345 4.88326 0
M  V30 4995 O 456.895 1.13507 5.58992 0
M  V30 4996 O 455.829 3.03414 5.1983 0
M  V30 4997 H 459.655 2.31013 1.97146 0
M  V30 4998 H 457.24 1.17799 0.918901 0
M  V30 4999 H 459.122 1.05616 4.0795 0
M  V30 5000 H 457.797 0.214562 3.22988 0
M  V30 5001 H 456.704 2.49011 2.79185 0
M  V30 5002 H 458.037 3.26149 3.68629 0
M  V30 5003 N 459.689 -1.00246 1.21608 0
M  V30 5004 C 460.917 -1.77631 1.06089 0
M  V30 5005 C 461.332 -1.84746 -0.38916 0
M  V30 5006 O 460.689 -1.31068 -1.26994 0
M  V30 5007 C 460.74 -3.21415 1.65453 0
M  V30 5008 O 460.461 -3.14703 3.04785 0
M  V30 5009 C 461.962 -4.15289 1.55079 0
M  V30 5010 H 459.182 -0.558162 0.37242 0
M  V30 5011 H 461.726 -1.26093 1.60999 0
M  V30 5012 H 459.881 -3.70053 1.14629 0
M  V30 5013 H 460.295 -4.05056 3.33212 0
M  V30 5014 H 461.769 -5.13965 2.01355 0
M  V30 5015 H 462.246 -4.36279 0.505665 0
M  V30 5016 H 462.852 -3.72543 2.05163 0
M  V30 5017 N 461.167 -1.02423 -1.1978 0
M  V30 5018 C 462.099 -0.559152 -2.22275 0
M  V30 5019 C 463.112 0.36251 -1.58713 0
M  V30 5020 O 464.301 0.159641 -1.77785 0
M  V30 5021 C 461.401 0.205094 -3.38279 0
M  V30 5022 C 460.574 -0.720361 -4.31427 0
M  V30 5023 C 459.633 -0.00234368 -5.262 0
M  V30 5024 O 458.659 -0.627378 -5.65732 0
M  V30 5025 N 459.861 1.26996 -5.66438 0
M  V30 5026 H 462.626 -1.44064 -2.62804 0
M  V30 5027 H 460.187 -0.902692 -1.34399 0
M  V30 5028 H 462.179 0.694868 -3.9869 0
M  V30 5029 H 460.749 0.987947 -2.96578 0
M  V30 5030 H 459.969 -1.39031 -3.68869 0
M  V30 5031 H 461.257 -1.3495 -4.90577 0
M  V30 5032 H 460.655 1.79858 -5.36347 0
M  V30 5033 H 459.212 1.70432 -6.29123 0
M  V30 5034 N 462.645 1.35699 -0.801477 0
M  V30 5035 C 463.894 1.98165 -0.375979 0
M  V30 5036 C 464.207 1.64306 1.06127 0
M  V30 5037 O 465.413 2.20097 1.58964 0
M  V30 5038 C 463.869 3.54497 -0.621305 0
M  V30 5039 C 463.477 3.9727 -2.07076 0
M  V30 5040 C 465.221 4.23697 -0.26091 0
M  V30 5041 C 463.128 5.46427 -2.26211 0
M  V30 5042 H 462.058 0.741478 -0.136844 0
M  V30 5043 H 464.709 1.54834 -0.984814 0
M  V30 5044 H 463.091 3.95958 0.0574112 0
M  V30 5045 H 464.265 3.66974 -2.78687 0
M  V30 5046 H 462.58 3.40943 -2.39054 0
M  V30 5047 H 465.177 5.33334 -0.381994 0
M  V30 5048 H 465.52 4.0869 0.792344 0
M  V30 5049 H 466.053 3.87639 -0.893339 0
M  V30 5050 H 462.792 5.66396 -3.29963 0
M  V30 5051 H 462.312 5.78309 -1.59119 0
M  V30 5052 H 463.991 6.12819 -2.07513 0
M  V30 5053 N 464.123 0.554532 1.47522 0
M  V30 5054 C 465.371 0.0294208 2.02079 0
M  V30 5055 C 465.692 -1.32411 1.43151 0
M  V30 5056 O 464.962 -1.863 0.605728 0
M  V30 5057 H 463.542 0.00788672 0.746958 0
M  V30 5058 H 466.204 0.723934 1.80956 0
M  V30 5059 H 465.3 -0.0606745 3.12041 0
M  V30 5060 N 465.601 -1.54893 0.290851 0
M  V30 5061 C 466.564 -2.21824 -0.576784 0
M  V30 5062 C 467.564 -1.20104 -1.06919 0
M  V30 5063 O 468.754 -1.44906 -0.966843 0
M  V30 5064 C 465.886 -2.89662 -1.79747 0
M  V30 5065 H 467.079 -2.99899 0.00784051 0
M  V30 5066 H 464.632 -1.56245 0.0415934 0
M  V30 5067 H 465.367 -2.15639 -2.42219 0
M  V30 5068 H 465.152 -3.64219 -1.45214 0
M  V30 5069 H 466.642 -3.4075 -2.4141 0
M  V30 5070 N 467.08 -0.0183926 -1.57589 0
M  V30 5071 C 468.01 0.965596 -2.12599 0
M  V30 5072 C 468.991 1.34641 -1.0395 0
M  V30 5073 O 470.176 1.42693 -1.31729 0
M  V30 5074 C 467.306 2.25149 -2.64434 0
M  V30 5075 C 466.26 2.01175 -3.77773 0
M  V30 5076 C 465.586 3.35937 -4.15994 0
M  V30 5077 C 466.886 1.35953 -5.04296 0
M  V30 5078 H 468.58 0.507504 -2.95067 0
M  V30 5079 H 466.126 0.242671 -1.41941 0
M  V30 5080 H 468.079 2.94357 -3.01549 0
M  V30 5081 H 466.803 2.73105 -1.79112 0
M  V30 5082 H 465.462 1.34388 -3.4108 0
M  V30 5083 H 465.11 3.81631 -3.27669 0
M  V30 5084 H 464.81 3.20705 -4.92364 0
M  V30 5085 H 466.334 4.0643 -4.55683 0
M  V30 5086 H 467.748 1.95144 -5.39065 0
M  V30 5087 H 466.145 1.31152 -5.85593 0
M  V30 5088 H 467.215 0.331071 -4.83768 0
M  V30 5089 N 468.558 1.5553 0.254621 0
M  V30 5090 C 469.807 1.76202 0.981612 0
M  V30 5091 C 470.12 0.580883 1.86776 0
M  V30 5092 O 471.326 0.670448 2.63092 0
M  V30 5093 C 469.782 3.11921 1.79537 0
M  V30 5094 C 469.39 4.37659 0.956991 0
M  V30 5095 C 471.134 3.41936 2.51555 0
M  V30 5096 C 469.041 5.64411 1.76619 0
M  V30 5097 H 467.971 0.656841 0.370237 0
M  V30 5098 H 470.622 1.81969 0.236556 0
M  V30 5099 H 469.004 3.00241 2.58208 0
M  V30 5100 H 470.178 4.60307 0.21315 0
M  V30 5101 H 468.493 4.14922 0.350497 0
M  V30 5102 H 471.09 4.33849 3.12536 0
M  V30 5103 H 471.433 2.62905 3.22779 0
M  V30 5104 H 471.966 3.54797 1.799 0
M  V30 5105 H 468.705 6.46241 1.09783 0
M  V30 5106 H 468.225 5.45877 2.48551 0
M  V30 5107 H 469.904 6.03386 2.33527 0
M  V30 5108 N 470.036 -0.519951 1.48776 0
M  V30 5109 C 470.966 -1.63253 1.66945 0
M  V30 5110 C 471.947 -1.62014 0.518224 0
M  V30 5111 O 473.132 -1.79053 0.751919 0
M  V30 5112 C 470.262 -3.0181 1.71836 0
M  V30 5113 C 469.216 -3.17911 2.8656 0
M  V30 5114 C 468.542 -4.5763 2.76548 0
M  V30 5115 C 469.842 -2.99729 4.27738 0
M  V30 5116 H 471.536 -1.48302 2.6009 0
M  V30 5117 H 469.082 -0.712026 1.25165 0
M  V30 5118 H 471.035 -3.79525 1.83135 0
M  V30 5119 H 469.759 -3.17806 0.752775 0
M  V30 5120 H 468.418 -2.42616 2.74833 0
M  V30 5121 H 468.066 -4.70476 1.77937 0
M  V30 5122 H 467.766 -4.69346 3.53536 0
M  V30 5123 H 469.29 -5.37431 2.89828 0
M  V30 5124 H 470.704 -3.67228 4.40246 0
M  V30 5125 H 469.101 -3.22932 5.05801 0
M  V30 5126 H 470.171 -1.96047 4.43502 0
M  V30 5127 N 471.514 -1.37532 -0.769588 0
M  V30 5128 C 472.477 -1.33292 -1.86456 0
M  V30 5129 C 473.477 -0.236537 -1.59051 0
M  V30 5130 O 474.667 -0.492511 -1.67093 0
M  V30 5131 C 471.799 -1.07118 -3.23633 0
M  V30 5132 H 472.992 -2.30692 -1.91628 0
M  V30 5133 H 470.545 -1.22593 -0.969572 0
M  V30 5134 H 471.28 -0.102578 -3.24138 0
M  V30 5135 H 471.065 -1.86479 -3.44917 0
M  V30 5136 H 472.555 -1.06806 -4.03711 0
M  V30 5137 N 472.992 0.995999 -1.22138 0
M  V30 5138 C 474.22 1.77066 -1.07029 0
M  V30 5139 C 474.635 1.8495 0.379357 0
M  V30 5140 O 473.992 1.3174 1.26297 0
M  V30 5141 C 474.043 3.20533 -1.67155 0
M  V30 5142 O 473.764 3.13082 -3.06449 0
M  V30 5143 C 475.265 4.14461 -1.5728 0
M  V30 5144 H 472.485 0.556179 -0.375374 0
M  V30 5145 H 475.029 1.25238 -1.61666 0
M  V30 5146 H 473.184 3.6944 -1.16589 0
M  V30 5147 H 473.598 4.03283 -3.35355 0
M  V30 5148 H 475.072 5.1289 -2.04078 0
M  V30 5149 H 475.549 4.36005 -0.528795 0
M  V30 5150 H 476.155 3.71449 -2.07136 0
M  V30 5151 N 474.47 1.03057 1.19235 0
M  V30 5152 C 475.747 0.642608 1.84743 0
M  V30 5153 C 476.127 -0.878577 1.91948 0
M  V30 5154 O 475.475 -1.77597 1.43776 0
M  V30 5155 C 475.685 1.30665 3.23616 0
M  V30 5156 C 477.033 1.43098 3.9976 0
M  V30 5157 O 478.057 1.26396 3.3302 0
M  V30 5158 O 476.916 1.70223 5.19313 0
M  V30 5159 H 474.01 0.223573 0.796206 0
M  V30 5160 H 476.556 1.12883 1.26711 0
M  V30 5161 H 475.328 2.34544 3.13217 0
M  V30 5162 H 474.951 0.808405 3.89295 0
M  V30 5163 N 475.948 -1.35272 0.808662 0
M  V30 5164 C 477.197 -1.97963 0.386483 0
M  V30 5165 C 477.51 -1.64866 -1.05255 0
M  V30 5166 O 478.716 -2.20937 -1.57794 0
M  V30 5167 C 477.172 -3.54162 0.640096 0
M  V30 5168 C 476.78 -3.96166 2.0918 0
M  V30 5169 C 478.524 -4.23553 0.283376 0
M  V30 5170 C 476.431 -5.4522 2.29106 0
M  V30 5171 H 475.361 -0.740742 0.140774 0
M  V30 5172 H 478.012 -1.5431 0.993012 0
M  V30 5173 H 476.394 -3.95983 -0.0364117 0
M  V30 5174 H 477.568 -3.65491 2.80629 0
M  V30 5175 H 475.883 -3.3967 2.40859 0
M  V30 5176 H 478.48 -5.33124 0.410273 0
M  V30 5177 H 478.823 -4.09105 -0.770659 0
M  V30 5178 H 479.356 -3.8716 0.913884 0
M  V30 5179 H 476.095 -5.64638 3.32962 0
M  V30 5180 H 475.615 -5.77457 1.62184 0
M  V30 5181 H 477.294 -6.1171 2.1076 0
M  V30 5182 N 477.426 -0.562348 -1.47226 0
M  V30 5183 C 478.651 -0.0432632 -2.07355 0
M  V30 5184 C 479.076 1.24332 -1.41149 0
M  V30 5185 O 478.434 1.74603 -0.488226 0
M  V30 5186 C 478.482 0.130288 -3.60365 0
M  V30 5187 O 477.586 1.19166 -3.94808 0
M  V30 5188 H 476.927 -0.0536334 -0.66183 0
M  V30 5189 H 479.457 -0.779495 -1.89169 0
M  V30 5190 H 479.467 0.342881 -4.06557 0
M  V30 5191 H 478.142 -0.809389 -4.07948 0
M  V30 5192 H 476.719 0.959153 -3.60354 0
M  V30 5193 N 478.904 1.54736 -0.299062 0
M  V30 5194 C 480.32 1.59507 0.0543849 0
M  V30 5195 C 480.52 1.31606 1.52585 0
M  V30 5196 O 479.576 1.08853 2.27832 0
M  V30 5197 C 480.889 2.98751 -0.34181 0
M  V30 5198 C 482.437 3.1165 -0.290414 0
M  V30 5199 C 482.912 4.53199 -0.661402 0
M  V30 5200 N 484.403 4.59114 -0.613863 0
M  V30 5201 C 485.138 5.66709 -0.873417 0
M  V30 5202 N 484.634 6.82349 -1.19884 0
M  V30 5203 N 486.427 5.56369 -0.800608 0
M  V30 5204 H 478.578 1.71133 -1.25806 0
M  V30 5205 H 480.841 0.799186 -0.509908 0
M  V30 5206 H 480.547 3.24085 -1.36608 0
M  V30 5207 H 480.421 3.75961 0.305508 0
M  V30 5208 H 482.808 2.86066 0.724605 0
M  V30 5209 H 482.889 2.366 -0.972327 0
M  V30 5210 H 482.533 4.79513 -1.67422 0
M  V30 5211 H 482.463 5.26583 0.0425612 0
M  V30 5212 H 484.954 3.76053 -0.3732 0
M  V30 5213 H 485.267 7.60326 -1.38291 0
M  V30 5214 H 483.612 6.83906 -1.23685 0
M  V30 5215 H 486.803 4.64904 -0.546045 0
M  V30 5216 H 486.976 6.40139 -1.00626 0
M  V30 5217 N 480.382 0.0267497 1.57577 0
M  V30 5218 C 481.314 -0.984594 2.06974 0
M  V30 5219 C 482.327 -1.29032 0.992705 0
M  V30 5220 O 483.516 -1.25539 1.26895 0
M  V30 5221 C 480.616 -2.31262 2.47732 0
M  V30 5222 C 479.789 -2.1924 3.78487 0
M  V30 5223 C 478.848 -3.34956 4.05821 0
M  V30 5224 O 477.874 -3.11948 4.76106 0
M  V30 5225 N 479.076 -4.58672 3.55809 0
M  V30 5226 H 481.841 -0.563143 2.94362 0
M  V30 5227 H 479.402 -0.160061 1.61107 0
M  V30 5228 H 481.394 -3.07496 2.63112 0
M  V30 5229 H 479.964 -2.65056 1.65723 0
M  V30 5230 H 479.184 -1.27747 3.72927 0
M  V30 5231 H 480.472 -2.08409 4.64158 0
M  V30 5232 H 479.87 -4.8026 2.98942 0
M  V30 5233 H 478.427 -5.32083 3.76472 0
M  V30 5234 N 481.861 -1.55662 -0.24637 0
M  V30 5235 C 482.809 -1.91186 -1.3248 0
M  V30 5236 C 483.803 -0.790996 -1.49799 0
M  V30 5237 O 485.009 -0.975617 -1.51267 0
M  V30 5238 H 481.384 -0.607207 -0.443626 0
M  V30 5239 H 483.355 -2.81221 -0.997853 0
M  V30 5240 C 482.104 -2.22349 -2.67313 0
M  V30 5241 H 481.427 -3.08097 -2.54786 0
M  V30 5242 H 482.867 -2.51107 -3.41645 0
M  V30 5243 C 481.326 -1.04001 -3.20446 0
M  V30 5244 O 481.856 -0.28828 -4.00664 0
M  V30 5245 N 480.062 -0.830494 -2.7848 0
M  V30 5246 H 479.609 -1.4435 -2.13356 0
M  V30 5247 H 479.567 -0.0403258 -3.14374 0
M  V30 5248 N 483.339 0.512053 -1.4905 0
M  V30 5249 C 484.249 1.64139 -1.67617 0
M  V30 5250 C 485.265 1.64786 -0.558701 0
M  V30 5251 O 486.441 1.8341 -0.832034 0
M  V30 5252 C 483.506 3.00548 -1.72835 0
M  V30 5253 C 482.567 3.10615 -2.96339 0
M  V30 5254 C 481.8 4.40517 -3.01298 0
M  V30 5255 O 482.023 5.28671 -2.14157 0
M  V30 5256 O 480.957 4.55325 -3.93653 0
M  V30 5257 H 484.783 1.51407 -2.63267 0
M  V30 5258 H 482.368 0.687131 -1.32661 0
M  V30 5259 H 484.25 3.81641 -1.78683 0
M  V30 5260 H 482.925 3.13566 -0.803616 0
M  V30 5261 H 481.832 2.2875 -2.96014 0
M  V30 5262 H 483.165 3.0252 -3.88256 0
M  V30 5263 N 484.817 1.37938 0.762283 0
M  V30 5264 C 486.047 1.36685 1.54922 0
M  V30 5265 C 486.455 -0.0474099 1.89141 0
M  V30 5266 O 485.798 -1.02213 1.52638 0
M  V30 5267 C 485.86 2.14963 2.88152 0
M  V30 5268 C 485.524 3.6385 2.76518 0
M  V30 5269 C 486.521 4.57531 2.46904 0
M  V30 5270 C 484.206 4.07095 2.94243 0
M  V30 5271 C 486.2 5.92436 2.35156 0
M  V30 5272 C 483.887 5.42083 2.82116 0
M  V30 5273 C 484.885 6.34567 2.52614 0
M  V30 5274 O 484.573 7.67073 2.40529 0
M  V30 5275 H 484.305 0.469586 0.486276 0
M  V30 5276 H 486.859 1.82012 0.951876 0
M  V30 5277 H 485.089 1.6434 3.50042 0
M  V30 5278 H 486.778 2.06224 3.49609 0
M  V30 5279 H 487.544 4.25428 2.32886 0
M  V30 5280 H 483.423 3.35462 3.16206 0
M  V30 5281 H 486.967 6.64591 2.12049 0
M  V30 5282 H 482.864 5.73785 2.95704 0
M  V30 5283 H 483.632 7.77499 2.55807 0
M  V30 5284 N 486.295 -0.989507 1.22664 0
M  V30 5285 C 487.225 -2.09847 1.02404 0
M  V30 5286 C 488.206 -1.70007 -0.0561303 0
M  V30 5287 O 489.391 -1.93906 0.106748 0
M  V30 5288 C 486.521 -3.41996 0.604663 0
M  V30 5289 C 485.475 -3.95699 1.63115 0
M  V30 5290 C 484.801 -5.23936 1.0675 0
M  V30 5291 C 486.101 -4.25999 3.02196 0
M  V30 5292 H 487.795 -2.27054 1.95158 0
M  V30 5293 H 485.341 -1.09111 0.939727 0
M  V30 5294 H 487.294 -4.1899 0.45002 0
M  V30 5295 H 486.018 -3.24626 -0.35855 0
M  V30 5296 H 484.677 -3.2084 1.77362 0
M  V30 5297 H 484.325 -5.02909 0.0955422 0
M  V30 5298 H 484.025 -5.60833 1.75328 0
M  V30 5299 H 485.549 -6.0356 0.924516 0
M  V30 5300 H 486.963 -4.93777 2.91303 0
M  V30 5301 H 485.36 -4.74076 3.67929 0
M  V30 5302 H 486.43 -3.33636 3.51873 0
M  V30 5303 N 487.773 -1.03688 -1.18687 0
M  V30 5304 C 488.998 -0.757819 -1.93059 0
M  V30 5305 C 489.423 0.678353 -1.75442 0
M  V30 5306 O 488.781 1.46938 -1.06203 0
M  V30 5307 C 488.829 -1.12423 -3.42627 0
M  V30 5308 O 487.933 -0.247505 -4.11657 0
M  V30 5309 H 487.274 -0.279245 -0.602427 0
M  V30 5310 H 489.804 -1.3857 -1.5053 0
M  V30 5311 H 489.814 -1.08454 -3.93322 0
M  V30 5312 H 488.489 -2.17049 -3.54771 0
M  V30 5313 H 487.066 -0.34649 -3.71287 0
M  V30 5314 N 489.251 1.34841 -0.815825 0
M  V30 5315 C 490.181 2.32187 -0.247298 0
M  V30 5316 C 491.162 1.5791 0.632344 0
M  V30 5317 O 492.347 1.8593 0.560698 0
M  V30 5318 C 489.477 3.42122 0.597466 0
M  V30 5319 C 488.431 4.27602 -0.184446 0
M  V30 5320 C 487.757 5.28942 0.782609 0
M  V30 5321 C 489.057 5.03502 -1.38865 0
M  V30 5322 H 490.751 2.79985 -1.06061 0
M  V30 5323 H 488.297 1.34611 -0.511461 0
M  V30 5324 H 490.25 4.09232 1.00533 0
M  V30 5325 H 488.974 2.92956 1.44376 0
M  V30 5326 H 487.633 3.62085 -0.573592 0
M  V30 5327 H 487.281 4.7604 1.62466 0
M  V30 5328 H 486.981 5.87008 0.263695 0
M  V30 5329 H 488.505 5.98922 1.18848 0
M  V30 5330 H 489.919 5.63506 -1.05518 0
M  V30 5331 H 488.316 5.71108 -1.8427 0
M  V30 5332 H 489.386 4.33608 -2.17054 0
M  V30 5333 N 490.729 0.570148 1.46925 0
M  V30 5334 C 491.976 0.0509529 2.02436 0
M  V30 5335 C 492.304 -1.30405 1.44308 0
M  V30 5336 O 491.559 -1.86493 0.593198 0
M  V30 5337 C 491.858 -0.0780336 3.57315 0
M  V30 5338 C 491.524 1.20775 4.34424 0
M  V30 5339 C 490.186 1.56004 4.5521 0
M  V30 5340 C 492.538 2.0592 4.78797 0
M  V30 5341 C 489.866 2.76201 5.17619 0
M  V30 5342 C 492.218 3.25332 5.42533 0
M  V30 5343 C 490.882 3.60859 5.61549 0
M  V30 5344 H 490.152 0.018645 0.740765 0
M  V30 5345 H 492.799 0.744262 1.76445 0
M  V30 5346 H 491.104 -0.854394 3.82371 0
M  V30 5347 H 492.801 -0.495312 3.97929 0
M  V30 5348 H 489.391 0.923469 4.18533 0
M  V30 5349 H 493.575 1.80008 4.62505 0
M  V30 5350 H 488.831 3.0388 5.30535 0
M  V30 5351 H 493.005 3.91586 5.75876 0
M  V30 5352 H 490.632 4.54088 6.09678 0
M  V30 5353 N 492.207 -1.54576 0.307264 0
M  V30 5354 C 493.623 -1.59534 -0.0459251 0
M  V30 5355 C 493.823 -1.32414 -1.51884 0
M  V30 5356 O 492.879 -1.1006 -2.27251 0
M  V30 5357 C 494.192 -2.98566 0.357649 0
M  V30 5358 C 495.74 -3.11491 0.306937 0
M  V30 5359 C 496.215 -4.52842 0.685427 0
M  V30 5360 N 497.706 -4.58782 0.638203 0
M  V30 5361 C 498.441 -5.66238 0.903458 0
M  V30 5362 N 497.937 -6.81703 1.23501 0
M  V30 5363 N 499.73 -5.55937 0.830102 0
M  V30 5364 H 491.881 -1.70464 1.26712 0
M  V30 5365 H 494.144 -0.79647 0.514139 0
M  V30 5366 H 493.85 -3.23356 1.38325 0
M  V30 5367 H 493.724 -3.76117 -0.285565 0
M  V30 5368 H 496.111 -2.86446 -0.709424 0
M  V30 5369 H 496.192 -2.36081 0.984861 0
M  V30 5370 H 495.836 -4.78618 1.69963 0
M  V30 5371 H 495.766 -5.26598 -0.0146346 0
M  V30 5372 H 498.257 -3.75849 0.393138 0
M  V30 5373 H 498.57 -7.59582 1.42322 0
M  V30 5374 H 496.915 -6.8324 1.27311 0
M  V30 5375 H 500.106 -4.64608 0.570693 0
M  V30 5376 H 500.279 -6.39597 1.04019 0
M  V30 5377 N 493.685 -0.035106 -1.57561 0
M  V30 5378 C 494.91 0.655802 -1.96759 0
M  V30 5379 C 495.335 1.64523 -0.911809 0
M  V30 5380 O 494.693 1.80857 0.126673 0
M  V30 5381 C 494.741 1.33326 -3.35047 0
M  V30 5382 O 493.845 2.44866 -3.31835 0
M  V30 5383 H 493.186 0.171807 -0.641388 0
M  V30 5384 H 495.716 -0.0987369 -2.04362 0
M  V30 5385 H 495.726 1.68867 -3.71413 0
M  V30 5386 H 494.401 0.608033 -4.11431 0
M  V30 5387 H 492.978 2.11392 -3.07193 0
M  V30 5388 N 495.163 1.55791 0.238111 0
M  V30 5389 C 496.113 1.87444 1.29803 0
M  V30 5390 C 497.097 0.736043 1.43078 0
M  V30 5391 O 498.289 0.998146 1.46171 0
M  V30 5392 C 495.418 2.18028 2.65177 0
M  V30 5393 C 494.504 3.38217 2.55871 0
M  V30 5394 N 494.895 4.57264 2.16202 0
M  V30 5395 C 493.193 3.41502 2.86866 0
M  V30 5396 C 493.894 5.3941 2.17744 0
M  V30 5397 N 492.87 4.78695 2.57589 0
M  V30 5398 H 496.672 2.7701 0.981965 0
M  V30 5399 H 494.186 1.56135 0.44672 0
M  V30 5400 H 496.183 2.38873 3.4168 0
M  V30 5401 H 494.843 1.29765 2.97643 0
M  V30 5402 H 495.854 4.82727 1.87602 0
M  V30 5403 H 492.531 2.63536 3.23813 0
M  V30 5404 H 493.921 6.44671 1.89339 0
M  V30 5405 N 496.642 -0.504142 1.49319 0
M  V30 5406 C 497.572 -1.61473 1.68667 0
M  V30 5407 C 498.553 -1.61455 0.535378 0
M  V30 5408 O 499.738 -1.78245 0.770868 0
M  V30 5409 C 496.868 -2.99971 1.75028 0
M  V30 5410 C 495.822 -3.14854 2.89916 0
M  V30 5411 C 495.148 -4.54671 2.81387 0
M  V30 5412 C 496.448 -2.95176 4.30893 0
M  V30 5413 H 498.142 -1.45535 2.61648 0
M  V30 5414 H 495.688 -0.698711 1.25913 0
M  V30 5415 H 497.641 -3.77562 1.8715 0
M  V30 5416 H 496.365 -3.1699 0.786441 0
M  V30 5417 H 495.024 -2.39687 2.77391 0
M  V30 5418 H 494.672 -4.68562 1.82917 0
M  V30 5419 H 494.372 -4.6557 3.58494 0
M  V30 5420 H 495.896 -5.34327 2.95512 0
M  V30 5421 H 497.31 -3.62538 4.44116 0
M  V30 5422 H 495.707 -3.17549 5.09198 0
M  V30 5423 H 496.777 -1.91332 4.45556 0
M  V30 5424 N 498.12 -1.38341 -0.754957 0
M  V30 5425 C 499.397 -1.24995 -1.50451 0
M  V30 5426 C 499.777 0.149244 -2.10572 0
M  V30 5427 O 499.125 1.15861 -1.96948 0
M  V30 5428 C 499.335 -2.35904 -2.57197 0
M  V30 5429 C 500.683 -2.74262 -3.24138 0
M  V30 5430 O 501.707 -2.35205 -2.67501 0
M  V30 5431 O 500.566 -3.4161 -4.26574 0
M  V30 5432 H 497.66 -0.48872 -0.667144 0
M  V30 5433 H 500.206 -1.50165 -0.790486 0
M  V30 5434 H 498.978 -3.2953 -2.11011 0
M  V30 5435 H 498.601 -2.12291 -3.36182 0
M  V30 5436 N 499.598 0.982988 -1.23187 0
M  V30 5437 C 501.014 1.2487 -0.993967 0
M  V30 5438 C 501.214 1.99155 0.306498 0
M  V30 5439 O 500.27 2.30688 1.0266 0
M  V30 5440 C 501.583 2.05078 -2.19917 0
M  V30 5441 C 503.131 2.18227 -2.2438 0
M  V30 5442 C 503.606 3.01825 -3.44479 0
M  V30 5443 N 505.097 3.09411 -3.44702 0
M  V30 5444 C 505.832 3.74412 -4.34285 0
M  V30 5445 N 505.328 4.41259 -5.341 0
M  V30 5446 N 507.121 3.71273 -4.22035 0
M  V30 5447 H 499.272 0.485253 -2.06783 0
M  V30 5448 H 501.535 0.276979 -0.906635 0
M  V30 5449 H 501.241 1.57867 -3.14279 0
M  V30 5450 H 501.115 3.05829 -2.2079 0
M  V30 5451 H 503.502 2.64648 -1.30559 0
M  V30 5452 H 503.583 1.16873 -2.2754 0
M  V30 5453 H 503.227 2.56102 -4.38605 0
M  V30 5454 H 503.157 4.03342 -3.38559 0
M  V30 5455 H 505.648 2.61845 -2.7248 0
M  V30 5456 H 505.961 4.88629 -5.98717 0
M  V30 5457 H 504.306 4.39975 -5.38002 0
M  V30 5458 H 507.497 3.18217 -3.43301 0
M  V30 5459 H 507.67 4.21649 -4.92053 0
M  V30 5460 N 501.076 1.04316 1.18135 0
M  V30 5461 C 502.324 0.746542 1.87806 0
M  V30 5462 C 502.645 -0.728082 1.80898 0
M  V30 5463 O 501.915 -1.52554 1.22899 0
M  V30 5464 H 500.495 0.273157 0.695265 0
M  V30 5465 H 503.157 1.32044 1.43354 0
M  V30 5466 H 502.253 1.05362 2.93778 0
M  V30 5467 N 502.554 -1.34406 0.822964 0
M  V30 5468 C 503.831 -1.92733 0.333641 0
M  V30 5469 C 504.211 -1.75107 -1.17901 0
M  V30 5470 O 503.559 -1.12983 -1.98613 0
M  V30 5471 C 503.769 -3.40557 0.763023 0
M  V30 5472 C 505.117 -4.17709 0.761879 0
M  V30 5473 O 506.141 -3.49141 0.705606 0
M  V30 5474 O 505 -5.40082 0.835109 0
M  V30 5475 H 502.094 -0.821964 0.0911249 0
M  V30 5476 H 504.64 -1.4338 0.907757 0
M  V30 5477 H 503.412 -3.47187 1.8049 0
M  V30 5478 H 503.035 -3.97259 0.164605 0
M  V30 5479 N 504.032 -0.577932 -1.46621 0
M  V30 5480 C 504.962 0.145917 -2.33044 0
M  V30 5481 C 505.943 0.888412 -1.45056 0
M  V30 5482 O 507.128 0.864812 -1.73881 0
M  V30 5483 C 504.258 1.16322 -3.27241 0
M  V30 5484 C 503.212 0.535868 -4.24632 0
M  V30 5485 C 502.538 1.65929 -5.08303 0
M  V30 5486 C 503.838 -0.523861 -5.19666 0
M  V30 5487 H 505.532 -0.575636 -2.93814 0
M  V30 5488 H 503.078 -0.278272 -1.41286 0
M  V30 5489 H 505.031 1.67793 -3.86553 0
M  V30 5490 H 503.755 1.91498 -2.64567 0
M  V30 5491 H 502.414 0.0422759 -3.66576 0
M  V30 5492 H 502.062 2.40061 -4.42018 0
M  V30 5493 H 501.762 1.2452 -5.74255 0
M  V30 5494 H 503.286 2.17686 -5.70478 0
M  V30 5495 H 504.7 -0.0944059 -5.73222 0
M  V30 5496 H 503.097 -0.858 -5.93935 0
M  V30 5497 H 504.167 -1.41197 -4.63887 0
M  V30 5498 N 505.51 1.54411 -0.315457 0
M  V30 5499 C 506.75 2.02329 0.290236 0
M  V30 5500 C 507.114 1.19878 1.49977 0
M  V30 5501 O 508.315 1.57562 2.17779 0
M  V30 5502 C 506.586 3.51912 0.623937 0
M  V30 5503 S 508.145 4.21775 1.21044 0
M  V30 5504 H 504.963 0.705499 0.0882739 0
M  V30 5505 H 507.565 1.90328 -0.446694 0
M  V30 5506 H 506.269 4.09546 -0.264624 0
M  V30 5507 H 505.8 3.67977 1.39128 0
M  V30 5508 H 507.815 4.28757 2.49764 0
M  V30 5509 N 506.988 0.0434614 1.5754 0
M  V30 5510 C 507.918 -0.931651 2.14109 0
M  V30 5511 C 508.899 -1.32971 1.06079 0
M  V30 5512 O 510.084 -1.40579 1.33982 0
M  V30 5513 C 507.214 -2.20914 2.67982 0
M  V30 5514 C 506.168 -1.95139 3.80926 0
M  V30 5515 C 505.494 -3.29276 4.21285 0
M  V30 5516 C 506.794 -1.27913 5.06395 0
M  V30 5517 H 508.488 -0.460497 2.95837 0
M  V30 5518 H 506.034 -0.220058 1.42309 0
M  V30 5519 H 507.987 -2.89522 3.06194 0
M  V30 5520 H 506.711 -2.70221 1.83434 0
M  V30 5521 H 505.37 -1.28945 3.43175 0
M  V30 5522 H 505.018 -3.76369 3.33699 0
M  V30 5523 H 504.718 -3.12831 4.97404 0
M  V30 5524 H 506.242 -3.99129 4.62091 0
M  V30 5525 H 507.656 -1.86544 5.42102 0
M  V30 5526 H 506.053 -1.2182 5.87605 0
M  V30 5527 H 507.123 -0.254066 4.84234 0
M  V30 5528 N 508.466 -1.55915 -0.229846 0
M  V30 5529 C 509.376 -1.94891 -1.30593 0
M  V30 5530 C 510.392 -0.851604 -1.51736 0
M  V30 5531 O 511.568 -1.15447 -1.65027 0
M  V30 5532 C 508.633 -2.25052 -2.63728 0
M  V30 5533 C 507.694 -3.48306 -2.5096 0
M  V30 5534 C 506.927 -3.77019 -3.77747 0
M  V30 5535 O 507.15 -3.07534 -4.80395 0
M  V30 5536 O 506.084 -4.70523 -3.75356 0
M  V30 5537 H 509.91 -2.86581 -1.00525 0
M  V30 5538 H 507.495 -1.43017 -0.432025 0
M  V30 5539 H 509.377 -2.45682 -3.42372 0
M  V30 5540 H 508.052 -1.36538 -2.93495 0
M  V30 5541 H 506.959 -3.32964 -1.70546 0
M  V30 5542 H 508.292 -4.37177 -2.26136 0
M  V30 5543 N 509.944 0.496216 -1.49584 0
M  V30 5544 C 511.221 1.25755 -1.49816 0
M  V30 5545 C 511.601 2.09859 -0.228572 0
M  V30 5546 O 510.949 2.14449 0.788908 0
M  V30 5547 C 511.159 2.11017 -2.7798 0
M  V30 5548 C 512.507 2.70047 -3.27658 0
M  V30 5549 O 513.531 2.21281 -2.79129 0
M  V30 5550 O 512.39 3.58834 -4.1219 0
M  V30 5551 H 509.484 0.569322 -0.599834 0
M  V30 5552 H 512.03 0.510094 -1.61852 0
M  V30 5553 H 510.802 1.48879 -3.61871 0
M  V30 5554 H 510.425 2.92947 -2.68827 0
M  V30 5555 N 511.423 1.38739 0.74761 0
M  V30 5556 C 512.651 1.38521 1.53686 0
M  V30 5557 C 513.066 -0.0235129 1.88785 0
M  V30 5558 O 512.423 -0.991662 1.53207 0
M  V30 5559 C 512.474 2.24641 2.83229 0
M  V30 5560 O 512.195 3.60026 2.49625 0
M  V30 5561 C 513.696 2.32669 3.77333 0
M  V30 5562 H 510.916 0.473589 0.475347 0
M  V30 5563 H 513.46 1.82395 0.924786 0
M  V30 5564 H 511.615 1.84213 3.40799 0
M  V30 5565 H 512.029 4.05435 3.3275 0
M  V30 5566 H 513.503 2.97201 4.65162 0
M  V30 5567 H 513.98 1.3421 4.18192 0
M  V30 5568 H 514.586 2.73512 3.25685 0
M  V30 5569 N 512.901 -0.976442 1.23707 0
M  V30 5570 C 514.317 -1.24341 1.00058 0
M  V30 5571 C 514.517 -1.99315 -0.295932 0
M  V30 5572 O 513.573 -2.3123 -1.01435 0
M  V30 5573 C 514.886 -2.03909 2.21001 0
M  V30 5574 C 516.434 -2.17034 2.25534 0
M  V30 5575 C 516.909 -2.99994 3.46075 0
M  V30 5576 N 518.4 -3.07578 3.46338 0
M  V30 5577 C 519.135 -3.72104 4.36264 0
M  V30 5578 N 518.631 -4.3842 5.36432 0
M  V30 5579 N 520.424 -3.69029 4.23998 0
M  V30 5580 H 512.575 -0.47428 2.07037 0
M  V30 5581 H 514.838 -0.272167 0.908091 0
M  V30 5582 H 514.544 -1.56198 3.15111 0
M  V30 5583 H 514.418 -3.04654 2.22409 0
M  V30 5584 H 516.805 -2.63951 1.31961 0
M  V30 5585 H 516.886 -1.15664 2.28156 0
M  V30 5586 H 516.53 -2.53772 4.39957 0
M  V30 5587 H 516.46 -4.01541 3.40694 0
M  V30 5588 H 518.951 -2.60397 2.73865 0
M  V30 5589 H 519.264 -4.85447 6.013 0
M  V30 5590 H 517.609 -4.37116 5.40328 0
M  V30 5591 H 520.8 -3.16392 3.44984 0
M  V30 5592 H 520.973 -4.19034 4.94282 0
M  V30 5593 N 514.379 -1.04941 -1.1758 0
M  V30 5594 C 515.329 -0.618378 -2.19454 0
M  V30 5595 C 516.313 0.343813 -1.57184 0
M  V30 5596 O 517.505 0.16145 -1.76262 0
M  V30 5597 C 514.634 0.00803847 -3.43299 0
M  V30 5598 C 513.72 -0.977827 -4.12673 0
M  V30 5599 N 514.111 -2.14826 -4.57912 0
M  V30 5600 C 512.409 -0.805748 -4.38661 0
M  V30 5601 C 513.11 -2.77174 -5.11419 0
M  V30 5602 N 512.086 -2.04989 -5.03468 0
M  V30 5603 H 515.888 -1.51018 -2.52132 0
M  V30 5604 H 513.402 -0.919201 -1.33882 0
M  V30 5605 H 515.399 0.334584 -4.15555 0
M  V30 5606 H 514.059 0.895272 -3.12114 0
M  V30 5607 H 515.07 -2.52673 -4.52081 0
M  V30 5608 H 511.747 0.0306506 -4.17489 0
M  V30 5609 H 513.137 -3.76416 -5.56562 0
M  V30 5610 N 515.857 1.33968 -0.830081 0
M  V30 5611 C 517.273 1.51003 -0.516742 0
M  V30 5612 C 517.473 1.77286 0.957694 0
M  V30 5613 O 516.529 1.82797 1.74188 0
M  V30 5614 C 517.842 2.67036 -1.38247 0
M  V30 5615 C 519.39 2.80919 -1.38034 0
M  V30 5616 C 519.865 4.00004 -2.23071 0
M  V30 5617 N 521.356 4.07224 -2.20733 0
M  V30 5618 C 522.091 4.98541 -2.83275 0
M  V30 5619 N 521.587 5.95033 -3.54835 0
M  V30 5620 N 523.38 4.91469 -2.72791 0
M  V30 5621 H 515.531 1.15168 -1.78466 0
M  V30 5622 H 517.794 0.565443 -0.760906 0
M  V30 5623 H 517.5 2.54266 -2.42985 0
M  V30 5624 H 517.374 3.62226 -1.05225 0
M  V30 5625 H 519.761 2.93127 -0.340713 0
M  V30 5626 H 519.842 1.86517 -1.75057 0
M  V30 5627 H 519.486 3.88557 -3.27087 0
M  V30 5628 H 519.416 4.93634 -1.83394 0
M  V30 5629 H 521.907 3.38162 -1.68687 0
M  V30 5630 H 522.22 6.61357 -3.99784 0
M  V30 5631 H 520.565 5.95135 -3.58942 0
M  V30 5632 H 523.756 4.15048 -2.16456 0
M  V30 5633 H 523.929 5.62439 -3.21818 0
M  V30 5634 N 517.335 0.585699 1.46312 0
M  V30 5635 C 518.285 -0.166813 2.27389 0
M  V30 5636 C 519.269 -0.859076 1.36047 0
M  V30 5637 O 520.461 -0.752678 1.60199 0
M  V30 5638 C 517.59 -1.17791 3.2246 0
M  V30 5639 C 516.676 -0.487605 4.21288 0
M  V30 5640 N 517.067 0.45849 5.03718 0
M  V30 5641 C 515.365 -0.737971 4.39852 0
M  V30 5642 C 516.066 0.862213 5.75275 0
M  V30 5643 N 515.042 0.210707 5.43191 0
M  V30 5644 H 518.844 0.560167 2.88512 0
M  V30 5645 H 516.358 0.407715 1.57199 0
M  V30 5646 H 518.355 -1.73122 3.79255 0
M  V30 5647 H 517.015 -1.90568 2.62896 0
M  V30 5648 H 518.026 0.834163 5.11138 0
M  V30 5649 H 514.703 -1.45209 3.91434 0
M  V30 5650 H 516.093 1.64128 6.51546 0
M  V30 5651 N 518.813 -1.54241 0.323641 0
M  V30 5652 C 519.743 -2.27289 -0.534993 0
M  V30 5653 C 520.724 -1.28087 -1.11927 0
M  V30 5654 O 521.909 -1.56899 -1.14439 0
M  V30 5655 C 519.039 -3.03075 -1.69596 0
M  V30 5656 C 517.993 -4.09614 -1.24098 0
M  V30 5657 C 517.319 -4.73242 -2.4889 0
M  V30 5658 C 518.619 -5.21087 -0.355789 0
M  V30 5659 H 520.313 -2.99308 0.0743257 0
M  V30 5660 H 517.859 -1.43952 0.0371874 0
M  V30 5661 H 519.812 -3.52907 -2.30293 0
M  V30 5662 H 518.536 -2.28673 -2.33187 0
M  V30 5663 H 517.195 -3.60666 -0.656945 0
M  V30 5664 H 516.843 -3.95455 -3.10845 0
M  V30 5665 H 516.543 -5.45209 -2.19138 0
M  V30 5666 H 518.067 -5.25848 -3.10348 0
M  V30 5667 H 519.481 -5.66675 -0.869042 0
M  V30 5668 H 517.878 -5.9991 -0.151045 0
M  V30 5669 H 518.948 -4.81005 0.613339 0
M  V30 5670 N 520.291 -0.0518155 -1.57515 0
M  V30 5671 C 521.537 0.622745 -1.93002 0
M  V30 5672 C 521.87 1.70456 -0.930499 0
M  V30 5673 O 521.145 1.94452 0.0434086 0
M  V30 5674 C 521.428 1.21824 -3.38867 0
M  V30 5675 C 521.281 0.144434 -4.49568 0
M  V30 5676 C 522.6 2.12968 -3.8514 0
M  V30 5677 H 519.719 0.22491 -0.701844 0
M  V30 5678 H 522.361 -0.113711 -1.89659 0
M  V30 5679 H 520.511 1.8459 -3.41846 0
M  V30 5680 H 522.183 -0.48753 -4.58717 0
M  V30 5681 H 520.426 -0.527424 -4.30582 0
M  V30 5682 H 521.097 0.601127 -5.48717 0
M  V30 5683 H 523.573 1.60163 -3.8404 0
M  V30 5684 H 522.449 2.51578 -4.87852 0
M  V30 5685 H 522.71 3.03004 -3.21934 0
M  V30 5686 N 521.769 1.56035 0.221574 0
M  V30 5687 C 522.699 1.95434 1.2778 0
M  V30 5688 C 523.68 0.822564 1.48889 0
M  V30 5689 O 524.865 1.08486 1.61072 0
M  V30 5690 C 521.995 2.27102 2.62759 0
M  V30 5691 C 520.949 3.4277 2.56306 0
M  V30 5692 C 520.275 3.60043 3.95314 0
M  V30 5693 C 521.575 4.77742 2.11093 0
M  V30 5694 H 523.269 2.83912 0.950504 0
M  V30 5695 H 520.815 1.36596 0.455791 0
M  V30 5696 H 522.768 2.53256 3.36807 0
M  V30 5697 H 521.492 1.35478 2.97176 0
M  V30 5698 H 520.151 3.16664 1.84715 0
M  V30 5699 H 519.799 2.65794 4.27039 0
M  V30 5700 H 519.499 4.37841 3.91879 0
M  V30 5701 H 521.023 3.88545 4.71025 0
M  V30 5702 H 522.437 5.03102 2.74885 0
M  V30 5703 H 520.834 5.58823 2.18716 0
M  V30 5704 H 521.904 4.731 1.06321 0
M  V30 5705 N 523.247 -0.488276 1.49845 0
M  V30 5706 C 524.179 -1.60539 1.63584 0
M  V30 5707 C 525.192 -1.5434 0.517972 0
M  V30 5708 O 526.381 -1.60041 0.790516 0
M  V30 5709 C 523.481 -2.99374 1.58835 0
M  V30 5710 C 522.654 -3.30624 2.86368 0
M  V30 5711 C 521.713 -4.4893 2.74496 0
M  V30 5712 O 520.739 -4.50085 3.48443 0
M  V30 5713 N 521.941 -5.49591 1.86894 0
M  V30 5714 H 524.706 -1.49176 2.59936 0
M  V30 5715 H 522.267 -0.67639 1.47094 0
M  V30 5716 H 524.259 -3.76459 1.48529 0
M  V30 5717 H 522.829 -3.04595 0.702892 0
M  V30 5718 H 522.049 -2.42314 3.1093 0
M  V30 5719 H 523.337 -3.48305 3.70892 0
M  V30 5720 H 522.735 -5.51467 1.26097 0
M  V30 5721 H 521.292 -6.25728 1.82503 0
M  V30 5722 N 524.725 -1.39134 -0.740242 0
M  V30 5723 C 525.658 -1.3182 -1.86276 0
M  V30 5724 C 526.636 -0.192794 -1.61453 0
M  V30 5725 O 527.82 -0.372365 -1.84786 0
M  V30 5726 C 524.947 -1.04564 -3.22155 0
M  V30 5727 C 523.993 -2.19224 -3.65846 0
M  V30 5728 S 524.826 -3.81466 -3.75824 0
M  V30 5729 C 525.982 -3.56425 -5.14502 0
M  V30 5730 H 526.215 -2.26822 -1.92195 0
M  V30 5731 H 523.748 -1.25127 -0.904576 0
M  V30 5732 H 525.706 -0.895228 -4.00619 0
M  V30 5733 H 524.367 -0.112578 -3.13898 0
M  V30 5734 H 523.56 -1.95732 -4.6444 0
M  V30 5735 H 523.162 -2.30441 -2.94572 0
M  V30 5736 H 525.454 -3.13366 -6.00673 0
M  V30 5737 H 526.397 -4.54462 -5.43019 0
M  V30 5738 H 526.805 -2.90641 -4.8393 0
M  V30 5739 N 526.204 0.969867 -1.24223 0
M  V30 5740 C 527.167 2.04564 -1.03373 0
M  V30 5741 C 528.167 1.60798 0.00819206 0
M  V30 5742 O 529.357 1.72641 -0.232567 0
M  V30 5743 C 526.489 3.36163 -0.566343 0
M  V30 5744 H 527.682 2.24494 -1.98853 0
M  V30 5745 H 525.235 1.1448 -1.06415 0
M  V30 5746 H 525.97 3.21925 0.391751 0
M  V30 5747 H 525.755 3.69273 -1.31834 0
M  V30 5748 H 527.245 4.1526 -0.441435 0
M  V30 5749 N 527.682 1.05563 1.17022 0
M  V30 5750 C 528.612 0.681026 2.23348 0
M  V30 5751 C 529.593 -0.322983 1.67005 0
M  V30 5752 O 530.778 -0.199746 1.9317 0
M  V30 5753 C 527.908 0.0589053 3.4725 0
M  V30 5754 C 526.862 0.988082 4.16438 0
M  V30 5755 C 526.188 0.229646 5.34207 0
M  V30 5756 C 527.488 2.31388 4.68249 0
M  V30 5757 H 529.182 1.56993 2.54938 0
M  V30 5758 H 526.728 0.756302 1.2254 0
M  V30 5759 H 528.681 -0.214982 4.20851 0
M  V30 5760 H 527.405 -0.864968 3.14938 0
M  V30 5761 H 526.064 1.24659 3.44754 0
M  V30 5762 H 525.712 -0.697111 4.98146 0
M  V30 5763 H 525.412 0.848815 5.81437 0
M  V30 5764 H 526.936 -0.0368694 6.10589 0
M  V30 5765 H 528.35 2.09964 5.33468 0
M  V30 5766 H 526.747 2.88736 5.26072 0
M  V30 5767 H 527.817 2.94982 3.84855 0
M  V30 5768 N 529.16 -1.33526 0.837174 0
M  V30 5769 C 530.107 -2.29248 0.267169 0
M  V30 5770 C 531.077 -1.54252 -0.616071 0
M  V30 5771 O 532.262 -1.82559 -0.554699 0
M  V30 5772 C 529.402 -3.40638 -0.553152 0
M  V30 5773 C 528.515 -4.30548 0.353921 0
M  V30 5774 C 527.65 -5.29051 -0.477339 0
M  V30 5775 C 526.689 -6.106 0.42823 0
M  V30 5776 N 525.826 -7.01152 -0.364801 0
M  V30 5777 H 530.666 -2.77398 1.08877 0
M  V30 5778 H 528.203 -1.36496 0.54838 0
M  V30 5779 H 530.161 -4.03921 -1.04422 0
M  V30 5780 H 528.791 -2.93685 -1.33973 0
M  V30 5781 H 527.843 -3.68001 0.963289 0
M  V30 5782 H 529.155 -4.87631 1.04964 0
M  V30 5783 H 528.309 -5.97853 -1.0323 0
M  V30 5784 H 527.048 -4.72541 -1.2065 0
M  V30 5785 H 526.053 -5.40718 0.995219 0
M  V30 5786 H 527.278 -6.69193 1.15573 0
M  V30 5787 H 525.224 -6.47092 -1.07738 0
M  V30 5788 H 525.141 -7.5551 0.272238 0
M  V30 5789 H 526.409 -7.74263 -0.902054 0
M  V30 5790 N 530.638 -0.59345 -1.46 0
M  V30 5791 C 531.878 -0.0859747 -2.04219 0
M  V30 5792 C 532.242 1.25432 -1.45364 0
M  V30 5793 O 533.443 1.85168 -1.9485 0
M  V30 5794 C 531.714 -0.0324314 -3.57385 0
M  V30 5795 S 533.273 0.415908 -4.36824 0
M  V30 5796 H 530.091 -0.0426872 -0.709717 0
M  V30 5797 H 532.693 -0.788369 -1.78899 0
M  V30 5798 H 531.397 -1.01166 -3.97735 0
M  V30 5799 H 530.928 0.6924 -3.87259 0
M  V30 5800 H 532.943 1.66844 -4.67309 0
M  V30 5801 N 532.116 1.54067 -0.331816 0
M  V30 5802 C 533.079 2.23275 0.517768 0
M  V30 5803 C 534.079 1.22897 1.03697 0
M  V30 5804 O 535.269 1.47419 0.928084 0
M  V30 5805 C 532.401 2.94326 1.72004 0
M  V30 5806 H 533.594 2.99773 -0.0873507 0
M  V30 5807 H 531.147 1.56079 -0.0830042 0
M  V30 5808 H 531.882 2.21986 2.36417 0
M  V30 5809 H 531.667 3.67941 1.35507 0
M  V30 5810 H 533.157 3.47031 2.32291 0
M  V30 5811 N 533.594 0.0601682 1.57485 0
M  V30 5812 C 534.871 -0.651956 1.84415 0
M  V30 5813 C 535.251 -1.88498 0.950361 0
M  V30 5814 O 534.599 -2.28496 0.0136719 0
M  V30 5815 C 534.809 -1.00069 3.34346 0
M  V30 5816 C 536.157 -1.37915 4.01578 0
M  V30 5817 O 537.181 -1.09277 3.39024 0
M  V30 5818 O 536.04 -1.91399 5.11887 0
M  V30 5819 H 533.134 -0.322668 0.761455 0
M  V30 5820 H 535.68 0.0902159 1.6946 0
M  V30 5821 H 534.452 -0.124463 3.91102 0
M  V30 5822 H 534.075 -1.80001 3.54521 0
M  V30 5823 N 535.072 -1.5615 -0.213296 0
M  V30 5824 C 536.321 -1.78743 -0.93455 0
M  V30 5825 C 536.634 -0.630199 -1.8517 0
M  V30 5826 O 537.84 -0.739966 -2.61222 0
M  V30 5827 C 536.296 -3.16571 -1.71203 0
M  V30 5828 C 535.904 -4.40043 -0.840617 0
M  V30 5829 C 537.648 -3.48485 -2.42401 0
M  V30 5830 C 535.555 -5.68895 -1.61592 0
M  V30 5831 H 534.485 -0.666426 -0.352692 0
M  V30 5832 H 537.136 -1.82532 -0.188227 0
M  V30 5833 H 535.518 -3.06981 -2.50157 0
M  V30 5834 H 536.692 -4.6071 -0.0910326 0
M  V30 5835 H 535.007 -4.15706 -0.240365 0
M  V30 5836 H 537.604 -4.41983 -3.00924 0
M  V30 5837 H 537.947 -2.71371 -3.15695 0
M  V30 5838 H 538.48 -3.59442 -1.7043 0
M  V30 5839 H 535.219 -6.48925 -0.926106 0
M  V30 5840 H 534.739 -5.52275 -2.33991 0
M  V30 5841 H 536.418 -6.09365 -2.17447 0
M  V30 5842 N 536.55 0.480323 -1.50102 0
M  V30 5843 C 537.79 1.24301 -1.62261 0
M  V30 5844 C 538.154 1.89452 -0.311758 0
M  V30 5845 O 539.355 2.67022 -0.308696 0
M  V30 5846 C 537.626 2.26588 -2.76392 0
M  V30 5847 S 539.185 3.11919 -3.08629 0
M  V30 5848 H 536.003 0.42215 -0.57211 0
M  V30 5849 H 538.605 0.541591 -1.87848 0
M  V30 5850 H 537.309 1.7729 -3.70131 0
M  V30 5851 H 536.84 3.01371 -2.52862 0
M  V30 5852 H 538.855 4.27598 -2.51742 0
M  V30 5853 N 538.028 1.39524 0.732853 0
M  V30 5854 C 538.976 1.38563 1.86824 0
M  V30 5855 C 539.97 0.268467 1.67259 0
M  V30 5856 O 541.176 0.438613 1.74574 0
M  V30 5857 H 537.551 0.432737 0.615014 0
M  V30 5858 H 539.522 2.34328 1.84751 0
M  V30 5859 C 538.271 1.2481 3.24527 0
M  V30 5860 H 537.594 2.10044 3.40179 0
M  V30 5861 H 539.034 1.28194 4.04156 0
M  V30 5862 C 537.493 -0.0432825 3.36872 0
M  V30 5863 O 538.023 -1.01268 3.88726 0
M  V30 5864 N 536.229 -0.107055 2.90403 0
M  V30 5865 H 535.776 0.682512 2.48394 0
M  V30 5866 H 535.734 -0.970618 2.99042 0
M  V30 5867 N 539.506 -0.963266 1.24736 0
M  V30 5868 C 540.917 -1.52145 1.08207 0
M  V30 5869 C 541.268 -1.93142 -0.345061 0
M  V30 5870 O 540.393 -1.77769 -1.23399 0
M  V30 5871 C 540.988 -2.76486 1.95808 0
M  V30 5872 C 539.547 -3.28646 1.8349 0
M  V30 5873 C 538.694 -2.01529 1.90476 0
M  V30 5874 H 541.645 -0.781083 1.38148 0
M  V30 5875 H 541.666 -3.49986 1.49297 0
M  V30 5876 H 541.178 -2.46617 2.99669 0
M  V30 5877 H 539.279 -3.63357 0.824787 0
M  V30 5878 H 539.392 -3.97246 2.67829 0
M  V30 5879 H 537.756 -2.16442 1.34258 0
M  V30 5880 H 538.539 -1.7402 2.95926 0
M  V30 5881 N 540.985 -1.06182 -1.16461 0
M  V30 5882 C 542.225 -0.787048 -1.8864 0
M  V30 5883 C 542.589 0.674093 -1.79778 0
M  V30 5884 O 543.79 1.06341 -2.46871 0
M  V30 5885 C 542.061 -1.2666 -3.34203 0
M  V30 5886 S 543.62 -1.12071 -4.24247 0
M  V30 5887 H 540.438 -0.285539 -0.651144 0
M  V30 5888 H 543.04 -1.35851 -1.40587 0
M  V30 5889 H 541.744 -2.32496 -3.38192 0
M  V30 5890 H 541.275 -0.689841 -3.87304 0
M  V30 5891 H 543.29 -0.0509341 -4.96174 0
M  V30 5892 N 542.463 1.3308 -0.844243 0
M  V30 5893 C 543.879 1.50447 -0.532729 0
M  V30 5894 C 544.079 1.78292 0.938837 0
M  V30 5895 O 543.135 1.84635 1.72239 0
M  V30 5896 C 544.448 2.65555 -1.41072 0
M  V30 5897 C 545.996 2.7944 -1.41005 0
M  V30 5898 C 546.471 3.97616 -2.27301 0
M  V30 5899 N 547.962 4.0486 -2.2504 0
M  V30 5900 C 548.697 4.95508 -2.88547 0
M  V30 5901 N 548.193 5.91236 -3.61126 0
M  V30 5902 N 549.986 4.88548 -2.77989 0
M  V30 5903 H 542.137 1.13269 -1.79677 0
M  V30 5904 H 544.4 0.55734 -0.766861 0
M  V30 5905 H 544.106 2.51675 -2.45668 0
M  V30 5906 H 543.98 3.61089 -1.09061 0
M  V30 5907 H 546.367 2.92749 -0.371784 0
M  V30 5908 H 546.448 1.8465 -1.77026 0
M  V30 5909 H 546.092 3.85066 -3.3119 0
M  V30 5910 H 546.022 4.91661 -1.88619 0
M  V30 5911 H 548.513 3.36353 -1.72264 0
M  V30 5912 H 548.826 6.57079 -4.06776 0
M  V30 5913 H 547.171 5.91295 -3.65234 0
M  V30 5914 H 550.362 4.12729 -2.20846 0
M  V30 5915 H 550.535 5.58994 -3.27765 0
M  V30 5916 N 543.941 0.601185 1.45683 0
M  V30 5917 C 545.169 0.100054 2.06658 0
M  V30 5918 C 545.584 -1.21285 1.44691 0
M  V30 5919 O 544.941 -1.73735 0.558772 0
M  V30 5920 C 544.992 -0.0528579 3.61461 0
M  V30 5921 O 544.713 1.20809 4.21114 0
M  V30 5922 C 546.214 -0.586193 4.39407 0
M  V30 5923 H 543.434 0.065905 0.667756 0
M  V30 5924 H 545.978 0.827101 1.87028 0
M  V30 5925 H 544.133 -0.730203 3.80456 0
M  V30 5926 H 544.547 1.03368 5.14213 0
M  V30 5927 H 546.021 -0.642297 5.4825 0
M  V30 5928 H 546.498 -1.60713 4.0874 0
M  V30 5929 H 547.104 0.0568935 4.25262 0
M  V30 5930 N 545.419 -1.53889 0.339982 0
M  V30 5931 C 546.665 -2.01849 -0.250694 0
M  V30 5932 C 547.02 -1.22356 -1.48482 0
M  V30 5933 O 546.313 -0.301906 -1.89206 0
M  V30 5934 C 546.507 -3.51968 -0.620735 0
M  V30 5935 C 546.336 -4.45996 0.575981 0
M  V30 5936 C 545.106 -4.93619 1.08019 0
M  V30 5937 C 547.304 -4.93923 1.43332 0
M  V30 5938 N 545.286 -5.7159 2.2396 0
M  V30 5939 C 546.657 -5.69982 2.43969 0
M  V30 5940 C 548.712 -4.76038 1.45918 0
M  V30 5941 C 547.415 -6.30057 3.47016 0
M  V30 5942 C 549.441 -5.36961 2.47845 0
M  V30 5943 C 548.803 -6.12884 3.47208 0
M  V30 5944 H 544.902 -0.780054 -0.0551368 0
M  V30 5945 H 547.486 -1.88722 0.478741 0
M  V30 5946 H 545.657 -3.65308 -1.31928 0
M  V30 5947 H 547.389 -3.86677 -1.19429 0
M  V30 5948 H 544.144 -4.69134 0.64884 0
M  V30 5949 H 544.568 -6.15247 2.82489 0
M  V30 5950 H 549.21 -4.16887 0.704608 0
M  V30 5951 H 546.928 -6.88319 4.23371 0
M  V30 5952 H 550.514 -5.2503 2.50668 0
M  V30 5953 H 549.394 -6.59187 4.24785 0
M  V30 5954 N 546.897 -0.0685191 -1.57451 0
M  V30 5955 C 547.807 0.914677 -2.16034 0
M  V30 5956 C 548.823 1.32938 -1.12265 0
M  V30 5957 O 549.999 1.40275 -1.44516 0
M  V30 5958 C 547.064 2.16519 -2.70777 0
M  V30 5959 C 546.125 1.80721 -3.89408 0
M  V30 5960 C 545.358 2.9981 -4.41531 0
M  V30 5961 O 545.581 4.13727 -3.92666 0
M  V30 5962 O 544.515 2.79817 -5.32903 0
M  V30 5963 H 548.341 0.446364 -3.00402 0
M  V30 5964 H 545.926 0.154367 -1.486 0
M  V30 5965 H 547.808 2.89856 -3.05878 0
M  V30 5966 H 546.483 2.62454 -1.89471 0
M  V30 5967 H 545.39 1.04646 -3.59166 0
M  V30 5968 H 546.723 1.39571 -4.71997 0
M  V30 5969 N 548.375 1.56261 0.205012 0
M  V30 5970 C 549.305 1.96779 1.257 0
M  V30 5971 C 550.286 0.838309 1.48008 0
M  V30 5972 O 551.471 1.10189 1.59913 0
M  V30 5973 C 548.601 2.29876 2.60335 0
M  V30 5974 C 547.555 3.45469 2.52656 0
M  V30 5975 C 546.881 3.64215 3.91473 0
M  V30 5976 C 548.181 4.79954 2.06014 0
M  V30 5977 H 549.875 2.84904 0.920338 0
M  V30 5978 H 547.421 1.37072 0.441277 0
M  V30 5979 H 549.374 2.56814 3.34102 0
M  V30 5980 H 548.098 1.38622 2.95722 0
M  V30 5981 H 546.757 3.18605 1.81345 0
M  V30 5982 H 546.405 2.70309 4.24196 0
M  V30 5983 H 546.105 4.41973 3.87213 0
M  V30 5984 H 547.629 3.93519 4.66878 0
M  V30 5985 H 549.043 5.05989 2.69533 0
M  V30 5986 H 547.44 5.61111 2.12777 0
M  V30 5987 H 548.51 4.74201 1.01297 0
M  V30 5988 N 549.853 -0.472356 1.50355 0
M  V30 5989 C 551.078 -1.25251 1.65309 0
M  V30 5990 C 551.503 -1.85081 0.335643 0
M  V30 5991 O 550.861 -1.67227 -0.700335 0
M  V30 5992 C 550.909 -2.3379 2.74544 0
M  V30 5993 O 550.013 -3.38401 2.35709 0
M  V30 5994 H 549.354 -0.368539 0.552336 0
M  V30 5995 H 551.884 -0.562271 1.96722 0
M  V30 5996 H 551.894 -2.79121 2.97583 0
M  V30 5997 H 550.569 -1.89614 3.70161 0
M  V30 5998 H 549.146 -2.9879 2.23112 0
M  V30 5999 N 551.331 -1.39911 -0.725443 0
M  V30 6000 C 552.278 -1.39393 -1.83952 0
M  V30 6001 C 553.248 -0.252249 -1.64173 0
M  V30 6002 O 554.433 -0.44882 -1.85446 0
M  V30 6003 C 551.573 -1.25262 -3.21564 0
M  V30 6004 C 550.686 -2.49054 -3.52982 0
M  V30 6005 C 549.821 -2.27439 -4.80047 0
M  V30 6006 C 548.86 -3.46857 -5.04338 0
M  V30 6007 N 547.997 -3.24499 -6.22611 0
M  V30 6008 H 552.837 -2.34622 -1.83729 0
M  V30 6009 H 550.374 -1.16537 -0.897636 0
M  V30 6010 H 552.332 -1.15077 -4.01015 0
M  V30 6011 H 550.962 -0.33657 -3.21041 0
M  V30 6012 H 550.014 -2.69805 -2.6816 0
M  V30 6013 H 551.326 -3.37973 -3.66846 0
M  V30 6014 H 550.48 -2.14551 -5.67497 0
M  V30 6015 H 549.219 -1.35929 -4.68374 0
M  V30 6016 H 548.224 -3.60232 -4.15346 0
M  V30 6017 H 549.449 -4.3928 -5.17889 0
M  V30 6018 H 547.395 -2.35663 -6.12208 0
M  V30 6019 H 547.312 -4.06978 -6.37106 0
M  V30 6020 H 548.58 -3.15325 -7.12875 0
M  V30 6021 N 552.809 0.956637 -1.25245 0
M  V30 6022 C 553.741 2.05628 -1.01242 0
M  V30 6023 C 554.754 1.62785 0.0219579 0
M  V30 6024 O 555.943 1.77184 -0.216365 0
M  V30 6025 C 553.043 3.35069 -0.508161 0
M  V30 6026 C 552.216 4.06761 -1.60823 0
M  V30 6027 C 551.275 5.14473 -1.1047 0
M  V30 6028 O 550.301 5.40033 -1.79868 0
M  V30 6029 N 551.503 5.80474 0.0550773 0
M  V30 6030 H 554.268 2.2679 -1.95925 0
M  V30 6031 H 551.829 1.12505 -1.16423 0
M  V30 6032 H 553.821 4.044 -0.155819 0
M  V30 6033 H 552.391 3.10694 0.344683 0
M  V30 6034 H 551.611 3.31555 -2.13224 0
M  V30 6035 H 552.899 4.51418 -2.34733 0
M  V30 6036 H 552.297 5.62125 0.635004 0
M  V30 6037 H 550.854 6.50868 0.348469 0
M  V30 6038 N 554.287 1.06798 1.15896 0
M  V30 6039 C 555.533 0.798757 1.8706 0
M  V30 6040 C 555.888 -0.667739 1.80441 0
M  V30 6041 O 555.181 -1.48334 1.21274 0
M  V30 6042 C 555.375 1.23414 3.35416 0
M  V30 6043 C 555.204 2.74142 3.56478 0
M  V30 6044 C 553.974 3.41675 3.72272 0
M  V30 6045 C 556.172 3.72348 3.5477 0
M  V30 6046 N 554.154 4.81101 3.81333 0
M  V30 6047 C 555.525 4.97585 3.69877 0
M  V30 6048 C 557.58 3.65585 3.38011 0
M  V30 6049 C 556.283 6.16866 3.69959 0
M  V30 6050 C 558.309 4.84323 3.39389 0
M  V30 6051 C 557.671 6.08391 3.5502 0
M  V30 6052 H 553.77 0.344761 0.7019 0
M  V30 6053 H 556.354 1.36314 1.3902 0
M  V30 6054 H 554.525 0.697522 3.82085 0
M  V30 6055 H 556.257 0.91304 3.94266 0
M  V30 6056 H 553.012 2.92078 3.7281 0
M  V30 6057 H 553.436 5.53647 3.8962 0
M  V30 6058 H 558.078 2.70615 3.2485 0
M  V30 6059 H 555.796 7.12164 3.819 0
M  V30 6060 H 559.382 4.80762 3.27658 0
M  V30 6061 H 558.262 6.98731 3.56012 0
M  V30 6062 N 555.766 -1.3263 0.851289 0
M  V30 6063 C 556.991 -2.02097 0.466006 0
M  V30 6064 C 557.416 -1.63574 -0.928709 0
M  V30 6065 O 556.774 -0.834665 -1.60944 0
M  V30 6066 C 556.822 -3.55425 0.608737 0
M  V30 6067 O 555.926 -4.10827 -0.359878 0
M  V30 6068 H 555.267 -0.636911 0.187724 0
M  V30 6069 H 557.797 -1.69253 1.14955 0
M  V30 6070 H 557.807 -4.04986 0.495006 0
M  V30 6071 H 556.482 -3.82806 1.62581 0
M  V30 6072 H 555.059 -3.72349 -0.202666 0
M  V30 6073 N 557.244 -0.608902 -1.45362 0
M  V30 6074 C 558.154 0.110969 -2.34337 0
M  V30 6075 C 559.17 0.859007 -1.51318 0
M  V30 6076 O 560.346 0.816296 -1.84116 0
M  V30 6077 C 557.411 1.09494 -3.28956 0
M  V30 6078 C 556.472 0.348718 -4.27881 0
M  V30 6079 C 555.705 1.28582 -5.17979 0
M  V30 6080 O 555.928 2.52369 -5.11533 0
M  V30 6081 O 554.862 0.782172 -5.96796 0
M  V30 6082 H 558.688 -0.620258 -2.97299 0
M  V30 6083 H 556.273 -0.36916 -1.44767 0
M  V30 6084 H 558.155 1.66163 -3.87257 0
M  V30 6085 H 556.83 1.80717 -2.68557 0
M  V30 6086 H 555.737 -0.260465 -3.73192 0
M  V30 6087 H 557.07 -0.323049 -4.91139 0
M  V30 6088 N 558.722 1.53707 -0.348139 0
M  V30 6089 C 559.669 2.25173 0.506518 0
M  V30 6090 C 560.639 1.25174 1.09182 0
M  V30 6091 O 561.824 1.53917 1.12757 0
M  V30 6092 C 558.964 3.03141 1.64923 0
M  V30 6093 C 558.077 4.18002 1.0908 0
M  V30 6094 C 557.212 4.83447 2.20119 0
M  V30 6095 C 556.251 5.90369 1.61651 0
M  V30 6096 N 555.388 6.49575 2.66451 0
M  V30 6097 H 560.228 2.97799 -0.109452 0
M  V30 6098 H 557.765 1.46953 -0.0657866 0
M  V30 6099 H 559.723 3.46607 2.32205 0
M  V30 6100 H 558.353 2.32803 2.23612 0
M  V30 6101 H 557.405 3.79145 0.308783 0
M  V30 6102 H 558.717 4.94892 0.623178 0
M  V30 6103 H 557.871 5.30008 2.95257 0
M  V30 6104 H 556.61 4.05991 2.70227 0
M  V30 6105 H 555.615 5.43186 0.850209 0
M  V30 6106 H 556.84 6.69735 1.1239 0
M  V30 6107 H 554.786 5.74981 3.15805 0
M  V30 6108 H 554.703 7.21952 2.24325 0
M  V30 6109 H 555.971 7.00789 3.41344 0
M  V30 6110 N 560.2 0.0768682 1.57412 0
M  V30 6111 C 561.446 -0.591961 1.93968 0
M  V30 6112 C 561.779 -1.68954 0.9575 0
M  V30 6113 O 561.054 -1.94496 -0.0124675 0
M  V30 6114 C 561.337 -1.16418 3.40762 0
M  V30 6115 C 561.19 -0.0728933 4.49741 0
M  V30 6116 C 562.509 -2.06814 3.88479 0
M  V30 6117 H 559.628 -0.213716 0.705333 0
M  V30 6118 H 562.27 0.14387 1.89455 0
M  V30 6119 H 560.42 -1.79128 3.4474 0
M  V30 6120 H 562.092 0.560446 4.57883 0
M  V30 6121 H 560.335 0.595859 4.29688 0
M  V30 6122 H 561.006 -0.513755 5.49604 0
M  V30 6123 H 563.482 -1.54033 3.8654 0
M  V30 6124 H 562.358 -2.43785 4.91793 0
M  V30 6125 H 562.619 -2.97844 3.26713 0
M  V30 6126 N 561.678 -1.56367 -0.196722 0
M  V30 6127 C 562.906 -1.84639 -0.933608 0
M  V30 6128 C 563.321 -0.659164 -1.76919 0
M  V30 6129 O 562.678 0.372142 -1.78665 0
M  V30 6130 C 562.729 -3.11694 -1.83109 0
M  V30 6131 O 562.45 -4.25838 -1.02924 0
M  V30 6132 C 563.951 -3.53132 -2.67979 0
M  V30 6133 H 561.171 -0.613188 -0.272473 0
M  V30 6134 H 563.715 -2.03475 -0.204465 0
M  V30 6135 H 561.87 -2.94759 -2.51387 0
M  V30 6136 H 562.284 -4.98178 -1.64069 0
M  V30 6137 H 563.758 -4.45005 -3.26611 0
M  V30 6138 H 564.235 -2.76045 -3.41608 0
M  V30 6139 H 564.841 -3.72592 -2.05074 0
M  V30 6140 N 563.156 0.464375 -1.50603 0
M  V30 6141 C 564.066 1.58723 -1.72754 0
M  V30 6142 C 565.082 1.62925 -0.610844 0
M  V30 6143 O 566.258 1.8067 -0.889963 0
M  V30 6144 C 563.323 2.94897 -1.82309 0
M  V30 6145 C 562.384 3.0103 -3.06071 0
M  V30 6146 C 561.617 4.30708 -3.1516 0
M  V30 6147 O 561.84 5.2159 -2.30868 0
M  V30 6148 O 560.774 4.42571 -4.0794 0
M  V30 6149 H 564.6 1.42954 -2.67951 0
M  V30 6150 H 562.185 0.644579 -1.3478 0
M  V30 6151 H 564.067 3.75764 -1.90735 0
M  V30 6152 H 562.742 3.10851 -0.902967 0
M  V30 6153 H 561.649 2.19217 -3.03142 0
M  V30 6154 H 562.982 2.90014 -3.97684 0
M  V30 6155 N 564.634 1.40294 0.718013 0
M  V30 6156 C 565.544 1.42678 1.86226 0
M  V30 6157 C 566.56 0.319655 1.71039 0
M  V30 6158 O 567.736 0.563852 1.93346 0
M  V30 6159 C 564.801 1.2852 3.21999 0
M  V30 6160 C 563.862 2.49354 3.49458 0
M  V30 6161 C 563.095 2.35863 4.78753 0
M  V30 6162 O 563.318 1.37114 5.53675 0
M  V30 6163 O 562.252 3.25189 5.06494 0
M  V30 6164 H 566.078 2.39167 1.87171 0
M  V30 6165 H 563.663 1.2159 0.868112 0
M  V30 6166 H 565.545 1.22824 4.03103 0
M  V30 6167 H 564.22 0.351359 3.21787 0
M  V30 6168 H 563.127 2.60628 2.68373 0
M  V30 6169 H 564.46 3.41491 3.54464 0
M  V30 6170 N 566.112 -0.949982 1.2575 0
M  V30 6171 C 567.359 -1.69515 1.10774 0
M  V30 6172 C 567.687 -1.91316 -0.350479 0
M  V30 6173 O 566.942 -1.48515 -1.27443 0
M  V30 6174 C 567.241 -3.08039 1.81237 0
M  V30 6175 C 566.907 -3.06023 3.31151 0
M  V30 6176 C 565.569 -3.0518 3.72047 0
M  V30 6177 C 567.921 -2.98998 4.26907 0
M  V30 6178 C 565.249 -2.95067 5.07102 0
M  V30 6179 C 567.601 -2.90426 5.61992 0
M  V30 6180 C 566.265 -2.87922 6.0221 0
M  V30 6181 H 565.535 -0.6203 0.405351 0
M  V30 6182 H 568.182 -1.10953 1.56082 0
M  V30 6183 H 566.487 -3.70172 1.28373 0
M  V30 6184 H 568.184 -3.64526 1.67098 0
M  V30 6185 H 564.774 -3.07453 2.98614 0
M  V30 6186 H 568.958 -2.98764 3.963 0
M  V30 6187 H 564.214 -2.915 5.37436 0
M  V30 6188 H 568.388 -2.83952 6.35881 0
M  V30 6189 H 566.015 -2.79841 7.06819 0
M  V30 6190 N 567.59 -1.07411 -1.15328 0
M  V30 6191 C 568.837 -0.797649 -1.86128 0
M  V30 6192 C 569.165 0.676298 -1.82364 0
M  V30 6193 O 568.42 1.51223 -1.24218 0
M  V30 6194 C 568.719 -1.25191 -3.34757 0
M  V30 6195 C 568.385 -2.73191 -3.58716 0
M  V30 6196 C 567.047 -3.13616 -3.64964 0
M  V30 6197 C 569.399 -3.68718 -3.6837 0
M  V30 6198 C 566.727 -4.48383 -3.78377 0
M  V30 6199 C 569.079 -5.03248 -3.83306 0
M  V30 6200 C 567.743 -5.43293 -3.878 0
M  V30 6201 H 567.013 -0.29188 -0.681092 0
M  V30 6202 H 569.66 -1.34524 -1.36292 0
M  V30 6203 H 567.965 -0.623712 -3.86804 0
M  V30 6204 H 569.662 -1.01489 -3.87945 0
M  V30 6205 H 566.252 -2.40898 -3.54494 0
M  V30 6206 H 570.436 -3.38614 -3.62842 0
M  V30 6207 H 565.692 -4.78877 -3.80114 0
M  V30 6208 H 569.866 -5.77142 -3.89718 0
M  V30 6209 H 567.493 -6.47721 -3.97946 0
M  V30 6210 N 569.068 1.32177 -0.85831 0
M  V30 6211 C 570.018 2.26307 -0.277307 0
M  V30 6212 C 571.002 1.50123 0.578946 0
M  V30 6213 O 572.194 1.71754 0.427731 0
M  V30 6214 C 569.323 3.39181 0.530232 0
M  V30 6215 C 568.409 4.22746 -0.338613 0
M  V30 6216 N 568.8 4.85265 -1.4266 0
M  V30 6217 C 567.098 4.45813 -0.129 0
M  V30 6218 C 567.799 5.47634 -1.96142 0
M  V30 6219 N 566.775 5.28794 -1.26007 0
M  V30 6220 H 570.577 2.72173 -1.10902 0
M  V30 6221 H 568.091 1.46308 -0.704816 0
M  V30 6222 H 570.088 4.05628 0.962904 0
M  V30 6223 H 568.748 2.9486 1.35969 0
M  V30 6224 H 569.759 4.85259 -1.80953 0
M  V30 6225 H 566.436 4.12163 0.665451 0
M  V30 6226 H 567.826 6.0735 -2.8736 0
M  V30 6227 N 570.547 0.616602 1.45037 0
M  V30 6228 C 571.479 -0.135186 2.28801 0
M  V30 6229 C 572.492 -0.82303 1.40464 0
M  V30 6230 O 573.681 -0.686909 1.64754 0
M  V30 6231 C 570.781 -1.21292 3.16451 0
M  V30 6232 C 569.954 -0.61043 4.3312 0
M  V30 6233 C 569.013 -1.58022 5.01912 0
M  V30 6234 O 568.039 -1.10301 5.58411 0
M  V30 6235 N 569.241 -2.91464 5.02025 0
M  V30 6236 H 572.006 0.583612 2.93963 0
M  V30 6237 H 569.567 0.456723 1.55324 0
M  V30 6238 H 571.559 -1.86169 3.59337 0
M  V30 6239 H 570.129 -1.83412 2.53138 0
M  V30 6240 H 569.349 0.216638 3.93604 0
M  V30 6241 H 570.637 -0.188293 5.08451 0
M  V30 6242 H 570.035 -3.32829 4.57429 0
M  V30 6243 H 568.592 -3.51741 5.48745 0
M  V30 6244 N 572.025 -1.5352 0.356285 0
M  V30 6245 C 573.273 -2.00719 -0.235837 0
M  V30 6246 C 573.594 -1.24551 -1.5004 0
M  V30 6247 O 572.864 -0.356185 -1.92635 0
M  V30 6248 H 571.444 -0.741542 -0.0901366 0
M  V30 6249 H 574.106 -1.88887 0.480378 0
M  V30 6250 H 573.202 -3.08551 -0.469357 0
M  V30 6251 N 573.503 -0.0852151 -1.57369 0
M  V30 6252 C 574.78 0.622534 -1.85429 0
M  V30 6253 C 575.16 1.86962 -0.980229 0
M  V30 6254 O 574.508 2.28445 -0.0500219 0
M  V30 6255 C 574.718 0.947374 -3.35896 0
M  V30 6256 C 576.066 1.31509 -4.03721 0
M  V30 6257 O 577.09 1.03869 -3.40719 0
M  V30 6258 O 575.949 1.83231 -5.14868 0
M  V30 6259 H 573.043 0.310513 -0.766492 0
M  V30 6260 H 575.589 -0.117164 -1.69295 0
M  V30 6261 H 574.361 0.0622264 -3.91251 0
M  V30 6262 H 573.984 1.74338 -3.5734 0
M  V30 6263 N 574.981 1.5647 0.188427 0
M  V30 6264 C 576.23 1.80207 0.905995 0
M  V30 6265 C 576.543 0.659579 1.84144 0
M  V30 6266 O 577.749 0.781431 2.60011 0
M  V30 6267 C 576.205 3.19255 1.66145 0
M  V30 6268 C 575.813 4.41324 0.770504 0
M  V30 6269 C 577.557 3.52298 2.36826 0
M  V30 6270 C 575.464 5.71394 1.52521 0
M  V30 6271 H 574.394 0.671953 0.342045 0
M  V30 6272 H 577.045 1.82808 0.159164 0
M  V30 6273 H 575.427 3.10922 2.45242 0
M  V30 6274 H 576.601 4.60797 0.0177261 0
M  V30 6275 H 574.916 4.16035 0.174199 0
M  V30 6276 H 577.513 4.46715 2.93854 0
M  V30 6277 H 577.856 2.76359 3.11338 0
M  V30 6278 H 578.389 3.62108 1.6469 0
M  V30 6279 H 575.128 6.50316 0.82275 0
M  V30 6280 H 574.648 5.55928 2.25175 0
M  V30 6281 H 576.327 6.12747 2.07725 0
M  V30 6282 N 576.459 -0.456382 1.50847 0
M  V30 6283 C 577.369 -1.57805 1.73594 0
M  V30 6284 C 578.385 -1.62599 0.619476 0
M  V30 6285 O 579.561 -1.80195 0.899532 0
M  V30 6286 C 576.626 -2.93926 1.8387 0
M  V30 6287 C 575.687 -2.99402 3.07663 0
M  V30 6288 C 574.92 -4.29031 3.1744 0
M  V30 6289 O 575.143 -5.20358 2.33631 0
M  V30 6290 O 574.077 -4.40401 4.10281 0
M  V30 6291 H 577.903 -1.41531 2.68705 0
M  V30 6292 H 575.488 -0.637422 1.3512 0
M  V30 6293 H 577.37 -3.74747 1.92725 0
M  V30 6294 H 576.045 -3.10368 0.91944 0
M  V30 6295 H 574.952 -2.17606 3.043 0
M  V30 6296 H 576.285 -2.87901 3.99216 0
M  V30 6297 N 577.937 -1.40673 -0.710563 0
M  V30 6298 C 578.884 -1.41336 -1.82463 0
M  V30 6299 C 579.854 -0.269648 -1.63897 0
M  V30 6300 O 581.039 -0.468463 -1.8496 0
M  V30 6301 C 578.179 -1.28665 -3.20218 0
M  V30 6302 C 577.292 -2.52784 -3.5032 0
M  V30 6303 C 576.427 -2.32517 -4.77608 0
M  V30 6304 C 575.466 -3.52187 -5.0063 0
M  V30 6305 N 574.603 -3.31084 -6.19135 0
M  V30 6306 H 579.443 -2.36558 -1.8123 0
M  V30 6307 H 576.98 -1.17483 -0.885226 0
M  V30 6308 H 578.938 -1.19324 -3.99772 0
M  V30 6309 H 577.568 -0.370602 -3.20666 0
M  V30 6310 H 576.62 -2.72634 -2.65283 0
M  V30 6311 H 577.932 -3.41845 -3.63241 0
M  V30 6312 H 577.086 -2.20558 -5.65189 0
M  V30 6313 H 575.825 -1.40889 -4.66906 0
M  V30 6314 H 574.83 -3.64617 -4.11502 0
M  V30 6315 H 576.055 -4.44749 -5.13201 0
M  V30 6316 H 574.001 -2.42143 -6.09674 0
M  V30 6317 H 573.918 -4.13713 -6.32754 0
M  V30 6318 H 575.186 -3.22868 -7.0949 0
M  V30 6319 N 579.415 0.9433 -1.26252 0
M  V30 6320 C 580.362 2.0417 -1.07625 0
M  V30 6321 C 581.332 1.6609 0.0180738 0
M  V30 6322 O 582.517 1.90276 -0.141289 0
M  V30 6323 C 579.657 3.37653 -0.713043 0
M  V30 6324 C 578.77 3.88783 -1.8834 0
M  V30 6325 C 577.905 5.10642 -1.4635 0
M  V30 6326 C 576.944 5.54028 -2.60229 0
M  V30 6327 N 576.081 6.67092 -2.18936 0
M  V30 6328 H 580.921 2.19436 -2.01623 0
M  V30 6329 H 578.458 1.07519 -1.00389 0
M  V30 6330 H 580.416 4.14391 -0.483358 0
M  V30 6331 H 579.046 3.22241 0.18996 0
M  V30 6332 H 578.098 3.08464 -2.22608 0
M  V30 6333 H 579.41 4.16922 -2.73821 0
M  V30 6334 H 578.564 5.94832 -1.19414 0
M  V30 6335 H 577.303 4.84244 -0.579568 0
M  V30 6336 H 576.308 4.68396 -2.87898 0
M  V30 6337 H 577.533 5.82429 -3.49219 0
M  V30 6338 H 575.479 6.42381 -1.32974 0
M  V30 6339 H 575.396 6.94806 -2.97961 0
M  V30 6340 H 576.664 7.54662 -1.95206 0
M  V30 6341 N 580.893 1.08022 1.14757 0
M  V30 6342 C 582.123 0.827646 1.89298 0
M  V30 6343 C 582.531 -0.623506 1.78631 0
M  V30 6344 O 581.874 -1.43991 1.14071 0
M  V30 6345 C 581.936 1.16553 3.40082 0
M  V30 6346 C 581.6 2.61866 3.74533 0
M  V30 6347 C 582.597 3.60116 3.74984 0
M  V30 6348 C 580.282 2.97619 4.04633 0
M  V30 6349 C 582.276 4.92151 4.05051 0
M  V30 6350 C 579.963 4.2985 4.34364 0
M  V30 6351 C 580.961 5.26926 4.34555 0
M  V30 6352 O 580.649 6.5678 4.63568 0
M  V30 6353 H 580.381 0.298396 0.606577 0
M  V30 6354 H 582.935 1.44187 1.46285 0
M  V30 6355 H 581.165 0.494296 3.83528 0
M  V30 6356 H 582.854 0.894407 3.95923 0
M  V30 6357 H 583.62 3.33837 3.51821 0
M  V30 6358 H 579.499 2.22702 4.03639 0
M  V30 6359 H 583.043 5.67915 4.05115 0
M  V30 6360 H 578.94 4.55879 4.56995 0
M  V30 6361 H 579.708 6.62035 4.81303 0
M  V30 6362 N 582.371 -1.3172 0.865308 0
M  V30 6363 C 583.321 -2.26157 0.289305 0
M  V30 6364 C 584.305 -1.50428 -0.570977 0
M  V30 6365 O 585.497 -1.71978 -0.418617 0
M  V30 6366 C 582.626 -3.39457 -0.512237 0
M  V30 6367 C 581.712 -4.22561 0.361028 0
M  V30 6368 N 582.103 -4.84501 1.45231 0
M  V30 6369 C 580.401 -4.45739 0.152641 0
M  V30 6370 C 581.102 -5.46586 1.99043 0
M  V30 6371 N 580.078 -5.28119 1.28809 0
M  V30 6372 H 583.88 -2.71581 1.12344 0
M  V30 6373 H 581.394 -1.45932 0.712565 0
M  V30 6374 H 583.391 -4.06133 -0.941379 0
M  V30 6375 H 582.051 -2.95577 -1.34404 0
M  V30 6376 H 583.062 -4.84293 1.83524 0
M  V30 6377 H 579.739 -4.1251 -0.643583 0
M  V30 6378 H 581.129 -6.05817 2.90577 0
M  V30 6379 N 583.85 -0.624285 -1.44708 0
M  V30 6380 C 584.779 0.0717025 -2.3339 0
M  V30 6381 C 585.76 0.841814 -1.47809 0
M  V30 6382 O 586.946 0.809056 -1.76544 0
M  V30 6383 C 584.076 1.05852 -3.30776 0
M  V30 6384 C 583.029 0.400503 -4.26122 0
M  V30 6385 C 582.356 1.49674 -5.13324 0
M  V30 6386 C 583.656 -0.688924 -5.17737 0
M  V30 6387 H 585.35 -0.668819 -2.91834 0
M  V30 6388 H 582.896 -0.32308 -1.40329 0
M  V30 6389 H 584.849 1.5541 -3.91696 0
M  V30 6390 H 583.572 1.82984 -2.70526 0
M  V30 6391 H 582.231 -0.0743687 -3.66525 0
M  V30 6392 H 581.88 2.25877 -4.49431 0
M  V30 6393 H 581.58 1.06188 -5.77926 0
M  V30 6394 H 583.104 1.99427 -5.77115 0
M  V30 6395 H 584.518 -0.276724 -5.72632 0
M  V30 6396 H 582.915 -1.04652 -5.90904 0
M  V30 6397 H 583.985 -1.55884 -4.5916 0
M  V30 6398 N 585.328 1.53329 -0.364422 0
M  V30 6399 C 586.576 2.00842 0.225189 0
M  V30 6400 C 586.897 1.25345 1.49378 0
M  V30 6401 O 586.167 0.366396 1.92443 0
M  V30 6402 H 584.747 0.742009 0.0862027 0
M  V30 6403 H 587.409 1.8863 -0.490389 0
M  V30 6404 H 586.505 3.08795 0.452987 0
M  V30 6405 N 586.806 0.0935595 1.57322 0
M  V30 6406 C 588.052 -0.571355 1.94585 0
M  V30 6407 C 588.385 -1.67929 0.975366 0
M  V30 6408 O 587.66 -1.94498 0.00816206 0
M  V30 6409 C 587.943 -1.12797 3.41978 0
M  V30 6410 C 587.796 -0.0251881 4.49793 0
M  V30 6411 C 589.115 -2.02682 3.90651 0
M  V30 6412 H 586.234 -0.206223 0.70756 0
M  V30 6413 H 588.876 0.163956 1.89291 0
M  V30 6414 H 587.026 -1.75461 3.4662 0
M  V30 6415 H 588.698 0.608979 4.57263 0
M  V30 6416 H 586.941 0.641399 4.29032 0
M  V30 6417 H 587.612 -0.455433 5.50118 0
M  V30 6418 H 590.088 -1.49925 3.88152 0
M  V30 6419 H 588.964 -2.38555 4.94351 0
M  V30 6420 H 589.225 -2.94362 3.29854 0
M  V30 6421 N 588.284 -1.56567 -0.180126 0
M  V30 6422 C 589.509 -1.85975 -0.918041 0
M  V30 6423 C 589.934 -0.678888 -1.75422 0
M  V30 6424 O 589.292 0.372168 -1.77439 0
M  V30 6425 C 589.34 -3.13731 -1.77779 0
M  V30 6426 O 588.444 -2.95335 -2.87838 0
M  V30 6427 H 587.785 -0.61196 -0.257683 0
M  V30 6428 H 590.315 -2.03798 -0.180923 0
M  V30 6429 H 590.325 -3.4491 -2.17948 0
M  V30 6430 H 589 -3.99293 -1.16352 0
M  V30 6431 H 587.577 -2.7549 -2.51316 0
M  V30 6432 N 589.762 0.448376 -1.51087 0
M  V30 6433 C 591.173 1.0286 -1.5581 0
M  V30 6434 C 591.524 1.92583 -0.374989 0
M  V30 6435 O 590.649 2.10316 0.509533 0
M  V30 6436 C 591.244 1.87223 -2.8237 0
M  V30 6437 C 589.803 2.40314 -2.897 0
M  V30 6438 C 588.95 1.19238 -2.50355 0
M  V30 6439 H 591.901 0.230075 -1.57023 0
M  V30 6440 H 591.922 2.72553 -2.6551 0
M  V30 6441 H 591.434 1.21894 -3.68461 0
M  V30 6442 H 589.535 3.09129 -2.08014 0
M  V30 6443 H 589.648 2.73866 -3.93108 0
M  V30 6444 H 588.012 1.53428 -2.03303 0
M  V30 6445 H 588.795 0.555367 -3.38778 0
M  V30 6446 N 591.24 1.41047 0.703093 0
M  V30 6447 C 592.17 1.45067 1.82969 0
M  V30 6448 C 593.151 0.31016 1.67248 0
M  V30 6449 O 594.336 0.520548 1.87093 0
M  V30 6450 C 591.466 1.32478 3.2104 0
M  V30 6451 C 590.42 2.44262 3.51454 0
M  V30 6452 C 589.746 2.16742 4.88801 0
M  V30 6453 C 591.046 3.86606 3.51189 0
M  V30 6454 H 592.74 2.39353 1.79863 0
M  V30 6455 H 590.286 1.15206 0.863919 0
M  V30 6456 H 592.239 1.33904 3.99559 0
M  V30 6457 H 590.963 0.346735 3.24754 0
M  V30 6458 H 589.622 2.42107 2.75282 0
M  V30 6459 H 589.27 1.17299 4.89132 0
M  V30 6460 H 588.97 2.91643 5.10116 0
M  V30 6461 H 590.494 2.19872 5.69639 0
M  V30 6462 H 591.908 3.90517 4.19725 0
M  V30 6463 H 590.305 4.61128 3.84033 0
M  V30 6464 H 591.375 4.15296 2.50315 0
M  V30 6465 N 592.718 -0.936591 1.26751 0
M  V30 6466 C 593.958 -1.69796 1.13792 0
M  V30 6467 C 594.322 -1.89437 -0.312671 0
M  V30 6468 O 595.523 -2.62806 -0.564489 0
M  V30 6469 C 593.794 -3.03297 1.89065 0
M  V30 6470 S 595.353 -3.94461 1.92214 0
M  V30 6471 H 592.171 -0.583412 0.406389 0
M  V30 6472 H 594.773 -1.11575 1.60535 0
M  V30 6473 H 593.477 -2.86687 2.93665 0
M  V30 6474 H 593.008 -3.66575 1.42781 0
M  V30 6475 H 595.023 -4.85767 1.01215 0
M  V30 6476 N 594.196 -1.08629 -1.14182 0
M  V30 6477 C 595.473 -0.73002 -1.81466 0
M  V30 6478 C 595.853 0.785996 -1.95922 0
M  V30 6479 O 595.201 1.70535 -1.52086 0
M  V30 6480 C 595.411 -1.45957 -3.17014 0
M  V30 6481 C 596.759 -1.62008 -3.92477 0
M  V30 6482 O 597.783 -1.42141 -3.26611 0
M  V30 6483 O 596.642 -1.94806 -5.106 0
M  V30 6484 H 593.736 -0.261307 -0.784632 0
M  V30 6485 H 596.282 -1.188 -1.2118 0
M  V30 6486 H 595.054 -2.49221 -3.01669 0
M  V30 6487 H 594.677 -0.993222 -3.84995 0
M  V30 6488 N 595.674 1.31259 -0.872281 0
M  V30 6489 C 597.09 1.49283 -0.564521 0
M  V30 6490 C 597.29 1.80243 0.900807 0
M  V30 6491 O 596.346 1.88246 1.68284 0
M  V30 6492 C 597.659 2.62503 -1.46673 0
M  V30 6493 C 599.207 2.76386 -1.46901 0
M  V30 6494 C 599.682 3.92705 -2.35684 0
M  V30 6495 N 601.173 3.99995 -2.33577 0
M  V30 6496 C 601.908 4.89276 -2.98992 0
M  V30 6497 N 601.404 5.83443 -3.73585 0
M  V30 6498 N 603.197 4.82541 -2.88289 0
M  V30 6499 H 595.348 1.09432 -1.82039 0
M  V30 6500 H 597.611 0.540949 -0.77851 0
M  V30 6501 H 597.317 2.46407 -2.50951 0
M  V30 6502 H 597.191 3.58695 -1.16696 0
M  V30 6503 H 599.578 2.91894 -0.433796 0
M  V30 6504 H 599.659 1.80853 -1.80903 0
M  V30 6505 H 599.303 3.77954 -3.39283 0
M  V30 6506 H 599.233 4.87549 -1.99006 0
M  V30 6507 H 601.724 3.32624 -1.7936 0
M  V30 6508 H 602.037 6.48303 -4.20622 0
M  V30 6509 H 600.382 5.83415 -3.77694 0
M  V30 6510 H 603.573 4.07951 -2.2955 0
M  V30 6511 H 603.746 5.51916 -3.39549 0
M  V30 6512 N 597.152 0.631951 1.44375 0
M  V30 6513 C 598.102 -0.0943862 2.27805 0
M  V30 6514 C 599.086 -0.815359 1.38711 0
M  V30 6515 O 600.278 -0.701331 1.62513 0
M  V30 6516 C 597.407 -1.07472 3.26044 0
M  V30 6517 C 596.493 -0.353329 4.22626 0
M  V30 6518 N 596.884 0.618512 5.02004 0
M  V30 6519 C 595.182 -0.597662 4.41977 0
M  V30 6520 C 595.883 1.0448 5.7224 0
M  V30 6521 N 594.859 0.383413 5.42246 0
M  V30 6522 H 598.661 0.651672 2.86584 0
M  V30 6523 H 596.175 0.45752 1.55822 0
M  V30 6524 H 598.172 -1.60969 3.84571 0
M  V30 6525 H 596.832 -1.82107 2.68825 0
M  V30 6526 H 597.843 0.996356 5.08226 0
M  V30 6527 H 594.52 -1.32682 3.95856 0
M  V30 6528 H 595.91 1.84773 6.45994 0
M  V30 6529 N 598.631 -1.53133 0.372548 0
M  V30 6530 C 599.859 -2.05774 -0.215515 0
M  V30 6531 C 600.274 -1.24555 -1.41886 0
M  V30 6532 O 599.631 -0.287951 -1.80214 0
M  V30 6533 C 599.682 -3.5645 -0.602161 0
M  V30 6534 O 599.403 -4.34591 0.553359 0
M  V30 6535 C 600.904 -4.25374 -1.24787 0
M  V30 6536 H 598.124 -0.670009 -0.0364529 0
M  V30 6537 H 600.668 -1.97434 0.532934 0
M  V30 6538 H 598.823 -3.64918 -1.30052 0
M  V30 6539 H 599.237 -5.23954 0.239336 0
M  V30 6540 H 600.711 -5.32097 -1.46891 0
M  V30 6541 H 601.188 -3.79531 -2.21026 0
M  V30 6542 H 601.794 -4.21177 -0.590752 0
M  V30 6543 N 600.109 -0.101901 -1.5727 0
M  V30 6544 C 601.019 0.868647 -2.17926 0
M  V30 6545 C 602.035 1.30527 -1.1506 0
M  V30 6546 O 603.211 1.37178 -1.47459 0
M  V30 6547 C 600.276 2.10727 -2.75309 0
M  V30 6548 C 599.337 1.7242 -3.93154 0
M  V30 6549 C 598.57 2.90377 -4.47791 0
M  V30 6550 O 598.793 4.05305 -4.01353 0
M  V30 6551 O 597.727 2.6845 -5.38719 0
M  V30 6552 H 601.553 0.382544 -3.01281 0
M  V30 6553 H 599.138 0.122812 -1.48894 0
M  V30 6554 H 601.02 2.83303 -3.11958 0
M  V30 6555 H 599.695 2.58376 -1.94996 0
M  V30 6556 H 598.602 0.970039 -3.61305 0
M  V30 6557 H 599.935 1.29528 -4.74851 0
M  V30 6558 N 601.587 1.56661 0.17182 0
M  V30 6559 C 602.812 1.86459 0.908165 0
M  V30 6560 C 603.237 0.688181 1.75059 0
M  V30 6561 O 602.595 -0.362753 1.77634 0
M  V30 6562 C 602.643 3.14669 1.76112 0
M  V30 6563 O 601.747 2.96858 2.86268 0
M  V30 6564 H 601.088 0.613318 0.254434 0
M  V30 6565 H 603.618 2.03892 0.170113 0
M  V30 6566 H 603.628 3.46061 2.16115 0
M  V30 6567 H 602.303 3.99905 1.14233 0
M  V30 6568 H 600.88 2.76819 2.49852 0
M  V30 6569 N 603.065 -0.440357 1.51323 0
M  V30 6570 C 604.314 -1.18697 1.63076 0
M  V30 6571 C 604.627 -1.92418 0.35136 0
M  V30 6572 O 605.833 -2.69258 0.348221 0
M  V30 6573 C 604.289 -2.15849 2.87988 0
M  V30 6574 C 603.897 -1.47789 4.22921 0
M  V30 6575 C 605.641 -2.90962 3.09098 0
M  V30 6576 C 603.548 -2.43407 5.38987 0
M  V30 6577 H 602.478 -0.44676 0.607389 0
M  V30 6578 H 605.129 -0.454313 1.77787 0
M  V30 6579 H 603.511 -2.92537 2.66905 0
M  V30 6580 H 604.685 -0.7668 4.54375 0
M  V30 6581 H 603 -0.848404 4.07665 0
M  V30 6582 H 605.597 -3.62584 3.92985 0
M  V30 6583 H 605.94 -3.52133 2.22053 0
M  V30 6584 H 606.473 -2.21381 3.30507 0
M  V30 6585 H 603.212 -1.86929 6.28282 0
M  V30 6586 H 602.732 -3.12579 5.11913 0
M  V30 6587 H 604.411 -3.046 5.70813 0
M  V30 6588 N 604.543 -1.41418 -0.695603 0
M  V30 6589 C 605.506 -1.42988 -1.79129 0
M  V30 6590 C 606.506 -0.320514 -1.57573 0
M  V30 6591 O 607.696 -0.58039 -1.64247 0
M  V30 6592 C 604.828 -1.24122 -3.175 0
M  V30 6593 H 606.021 -2.40526 -1.7913 0
M  V30 6594 H 603.574 -1.2756 -0.903225 0
M  V30 6595 H 604.309 -0.274253 -3.23138 0
M  V30 6596 H 604.094 -2.045 -3.34547 0
M  V30 6597 H 605.584 -1.28056 -3.97481 0
M  V30 6598 N 606.021 0.929856 -1.27246 0
M  V30 6599 C 606.969 2.05151 -1.09616 0
M  V30 6600 C 607.963 1.69388 -0.0198617 0
M  V30 6601 O 609.169 1.79124 -0.177417 0
M  V30 6602 H 605.544 0.671909 -0.337701 0
M  V30 6603 H 607.515 2.17168 -2.04648 0
M  V30 6604 C 606.264 3.3934 -0.757851 0
M  V30 6605 H 605.587 3.67343 -1.57795 0
M  V30 6606 H 607.027 4.18603 -0.674358 0
M  V30 6607 C 605.486 3.32582 0.537658 0
M  V30 6608 O 606.016 3.69633 1.57271 0
M  V30 6609 N 604.222 2.8568 0.532478 0
M  V30 6610 H 603.769 2.55725 -0.310233 0
M  V30 6611 H 603.727 2.81541 1.39936 0
M  V30 6612 N 607.499 1.09233 1.13605 0
M  V30 6613 C 608.748 0.82205 1.84188 0
M  V30 6614 C 609.061 -0.654548 1.84323 0
M  V30 6615 O 610.267 -1.04029 2.50779 0
M  V30 6616 C 608.723 1.42066 3.30674 0
M  V30 6617 C 608.331 2.92965 3.38933 0
M  V30 6618 C 610.075 1.22924 4.06313 0
M  V30 6619 C 607.982 3.45922 4.79679 0
M  V30 6620 H 606.912 0.303854 0.690064 0
M  V30 6621 H 609.563 1.31479 1.28006 0
M  V30 6622 H 607.945 0.855613 3.86646 0
M  V30 6623 H 609.119 3.55679 2.92966 0
M  V30 6624 H 607.434 3.11118 2.76757 0
M  V30 6625 H 610.031 1.59945 5.10217 0
M  V30 6626 H 610.374 0.169726 4.15954 0
M  V30 6627 H 610.907 1.76168 3.56665 0
M  V30 6628 H 607.646 4.51484 4.75229 0
M  V30 6629 H 607.166 2.87971 5.26149 0
M  V30 6630 H 608.845 3.43009 5.48592 0
M  V30 6631 N 608.977 -1.30795 0.87923 0
M  V30 6632 C 609.909 -2.27241 0.299025 0
M  V30 6633 C 610.922 -1.53472 -0.543166 0
M  V30 6634 O 612.111 -1.74756 -0.363651 0
M  V30 6635 C 609.211 -3.33655 -0.593931 0
M  V30 6636 C 608.384 -4.36857 0.2179 0
M  V30 6637 C 607.443 -5.22715 -0.604646 0
M  V30 6638 O 606.469 -5.69192 -0.0293838 0
M  V30 6639 N 607.671 -5.48008 -1.91488 0
M  V30 6640 H 610.436 -2.77667 1.12788 0
M  V30 6641 H 607.997 -1.43914 0.741637 0
M  V30 6642 H 609.989 -3.88013 -1.15012 0
M  V30 6643 H 608.559 -2.83202 -1.32346 0
M  V30 6644 H 607.779 -3.82444 0.955536 0
M  V30 6645 H 609.067 -5.02869 0.774614 0
M  V30 6646 H 608.465 -5.1202 -2.40525 0
M  V30 6647 H 607.022 -6.05264 -2.41864 0
M  V30 6648 N 610.455 -0.639598 -1.44038 0
M  V30 6649 C 611.704 -0.144885 -2.01179 0
M  V30 6650 C 612.017 1.24372 -1.50967 0
M  V30 6651 O 613.223 1.83291 -2.00292 0
M  V30 6652 C 611.679 -0.208244 -3.59297 0
M  V30 6653 C 611.287 -1.59869 -4.18504 0
M  V30 6654 C 613.031 0.229568 -4.23879 0
M  V30 6655 C 610.938 -1.61671 -5.68873 0
M  V30 6656 H 609.868 -0.0504005 -0.752314 0
M  V30 6657 H 612.519 -0.799639 -1.65161 0
M  V30 6658 H 610.901 0.513767 -3.92653 0
M  V30 6659 H 612.075 -2.34496 -3.96671 0
M  V30 6660 H 610.39 -1.98131 -3.66242 0
M  V30 6661 H 612.987 0.235758 -5.3418 0
M  V30 6662 H 613.33 1.25848 -3.96822 0
M  V30 6663 H 613.863 -0.440233 -3.95357 0
M  V30 6664 H 610.602 -2.62427 -6.00677 0
M  V30 6665 H 610.122 -0.913489 -5.92803 0
M  V30 6666 H 611.801 -1.35439 -6.32665 0
M  V30 6667 N 611.933 1.52934 -0.380664 0
M  V30 6668 C 613.181 2.01069 0.203874 0
M  V30 6669 C 613.502 1.26922 1.4804 0
M  V30 6670 O 612.772 0.386787 1.92044 0
M  V30 6671 H 611.352 0.742882 0.0783279 0
M  V30 6672 H 614.014 1.88099 -0.510368 0
M  V30 6673 H 613.11 3.09258 0.42021 0
M  V30 6674 N 613.412 0.11024 1.57214 0
M  V30 6675 C 614.659 -0.54987 1.94891 0
M  V30 6676 C 614.987 -1.67243 0.992984 0
M  V30 6677 O 614.242 -1.95694 0.0152703 0
M  V30 6678 C 614.541 -1.13102 3.39032 0
M  V30 6679 C 614.207 -0.130713 4.5071 0
M  V30 6680 C 612.869 0.14437 4.80983 0
M  V30 6681 C 615.221 0.551472 5.18274 0
M  V30 6682 C 612.549 1.10807 5.76141 0
M  V30 6683 C 614.901 1.50375 6.14467 0
M  V30 6684 C 613.565 1.78691 6.43138 0
M  V30 6685 H 612.835 -0.201212 0.713158 0
M  V30 6686 H 615.482 0.189288 1.90562 0
M  V30 6687 H 613.787 -1.94675 3.40013 0
M  V30 6688 H 615.484 -1.64973 3.65493 0
M  V30 6689 H 612.074 -0.355301 4.27125 0
M  V30 6690 H 616.258 0.35211 4.95049 0
M  V30 6691 H 611.514 1.3343 5.96663 0
M  V30 6692 H 615.688 2.03808 6.65909 0
M  V30 6693 H 613.315 2.53522 7.1668 0
M  V30 6694 N 614.89 -1.56749 -0.16351 0
M  V30 6695 C 615.823 -1.9213 -1.23132 0
M  V30 6696 C 616.801 -0.785047 -1.42393 0
M  V30 6697 O 617.985 -1.0391 -1.57273 0
M  V30 6698 C 615.112 -2.17901 -2.59301 0
M  V30 6699 C 614.158 -3.40576 -2.5673 0
M  V30 6700 S 614.991 -4.94689 -2.05045 0
M  V30 6701 C 616.147 -5.23564 -3.42975 0
M  V30 6702 H 616.38 -2.824 -0.929383 0
M  V30 6703 H 613.913 -1.4994 -0.368418 0
M  V30 6704 H 615.871 -2.33429 -3.3767 0
M  V30 6705 H 614.532 -1.28324 -2.86691 0
M  V30 6706 H 613.725 -3.55833 -3.5693 0
M  V30 6707 H 613.327 -3.24204 -1.86462 0
M  V30 6708 H 615.619 -5.16019 -4.3901 0
M  V30 6709 H 616.562 -6.25134 -3.32586 0
M  V30 6710 H 616.97 -4.51113 -3.39348 0
M  V30 6711 N 616.368 0.432326 -1.51554 0
M  V30 6712 C 617.596 1.20364 -1.68286 0
M  V30 6713 C 618.011 1.84888 -0.38233 0
M  V30 6714 O 617.368 1.70924 0.639627 0
M  V30 6715 C 617.419 2.28398 -2.80208 0
M  V30 6716 O 617.14 1.66512 -4.05223 0
M  V30 6717 C 618.641 3.18584 -3.08251 0
M  V30 6718 H 615.861 0.36259 -0.564596 0
M  V30 6719 H 618.405 0.511647 -1.97996 0
M  V30 6720 H 616.56 2.93305 -2.53083 0
M  V30 6721 H 616.974 2.37951 -4.67418 0
M  V30 6722 H 618.448 3.90511 -3.90135 0
M  V30 6723 H 618.925 3.79628 -2.2086 0
M  V30 6724 H 619.531 2.59372 -3.37055 0
M  V30 6725 N 617.846 1.41785 0.688094 0
M  V30 6726 C 619.076 1.44705 1.47459 0
M  V30 6727 C 619.484 0.052916 1.89126 0
M  V30 6728 O 618.827 -0.939781 1.57841 0
M  V30 6729 C 618.889 2.29935 2.76352 0
M  V30 6730 C 618.553 3.77996 2.56843 0
M  V30 6731 C 619.55 4.69976 2.22304 0
M  V30 6732 C 617.235 4.2212 2.7225 0
M  V30 6733 C 619.229 6.04068 2.03421 0
M  V30 6734 C 616.916 5.56275 2.52985 0
M  V30 6735 C 617.914 6.47065 2.18621 0
M  V30 6736 O 617.602 7.78744 1.9953 0
M  V30 6737 H 617.334 0.494703 0.460701 0
M  V30 6738 H 619.888 1.86802 0.854057 0
M  V30 6739 H 618.118 1.82664 3.40839 0
M  V30 6740 H 619.807 2.24467 3.38186 0
M  V30 6741 H 620.573 4.37175 2.10008 0
M  V30 6742 H 616.452 3.51752 2.97979 0
M  V30 6743 H 619.996 6.74897 1.76523 0
M  V30 6744 H 615.893 5.88653 2.64873 0
M  V30 6745 H 616.661 7.89966 2.14234 0
M  V30 6746 N 619.324 -0.923095 1.27737 0
M  V30 6747 C 620.254 -2.04124 1.13383 0
M  V30 6748 C 621.235 -1.70066 0.0340658 0
M  V30 6749 O 622.42 -1.93068 0.209383 0
M  V30 6750 C 619.55 -3.3831 0.785097 0
M  V30 6751 C 618.504 -3.86496 1.8386 0
M  V30 6752 C 617.83 -5.1754 1.34373 0
M  V30 6753 C 619.13 -4.09381 3.24353 0
M  V30 6754 H 620.824 -2.1639 2.06919 0
M  V30 6755 H 618.37 -1.03976 0.996243 0
M  V30 6756 H 620.323 -4.16016 0.671485 0
M  V30 6757 H 619.047 -3.2607 -0.185969 0
M  V30 6758 H 617.706 -3.10987 1.9412 0
M  V30 6759 H 617.354 -5.01696 0.361989 0
M  V30 6760 H 617.054 -5.50751 2.04811 0
M  V30 6761 H 618.578 -5.97811 1.24315 0
M  V30 6762 H 619.992 -4.77641 3.17067 0
M  V30 6763 H 618.389 -4.53906 3.92542 0
M  V30 6764 H 619.459 -3.14515 3.69064 0
M  V30 6765 N 620.802 -1.09834 -1.13024 0
M  V30 6766 C 622.048 -0.83819 -1.84668 0
M  V30 6767 C 622.381 0.634645 -1.83537 0
M  V30 6768 O 621.656 1.46753 -1.27647 0
M  V30 6769 C 621.939 -1.37933 -3.32636 0
M  V30 6770 C 621.792 -2.91857 -3.42257 0
M  V30 6771 C 623.111 -1.01654 -4.28199 0
M  V30 6772 H 620.23 -0.30595 -0.670495 0
M  V30 6773 H 622.872 -1.36044 -1.32635 0
M  V30 6774 H 621.022 -0.935111 -3.77078 0
M  V30 6775 H 622.694 -3.44759 -3.06495 0
M  V30 6776 H 620.937 -3.28776 -2.83 0
M  V30 6777 H 621.608 -3.24799 -4.46329 0
M  V30 6778 H 624.084 -1.39973 -3.9185 0
M  V30 6779 H 622.96 -1.42217 -5.30156 0
M  V30 6780 H 623.221 0.0747794 -4.42037 0
M  V30 6781 N 622.28 1.30327 -0.886154 0
M  V30 6782 C 623.19 2.31854 -0.357866 0
M  V30 6783 C 624.206 1.65392 0.540502 0
M  V30 6784 O 625.382 1.96683 0.433339 0
M  V30 6785 C 622.447 3.44171 0.417999 0
M  V30 6786 C 621.508 4.26257 -0.510263 0
M  V30 6787 C 620.741 5.3321 0.228669 0
M  V30 6788 O 620.964 5.51542 1.45458 0
M  V30 6789 O 619.898 6.0042 -0.421832 0
M  V30 6790 H 623.724 2.78995 -1.19982 0
M  V30 6791 H 621.309 1.34518 -0.650028 0
M  V30 6792 H 623.191 4.12588 0.857251 0
M  V30 6793 H 621.866 2.99164 1.23623 0
M  V30 6794 H 620.773 3.60533 -0.99835 0
M  V30 6795 H 622.106 4.74871 -1.29454 0
M  V30 6796 N 623.758 0.647228 1.43697 0
M  V30 6797 C 625.169 0.238689 1.85168 0
M  V30 6798 C 625.52 -1.21345 1.54175 0
M  V30 6799 O 624.645 -1.92542 0.987743 0
M  V30 6800 C 625.24 0.426422 3.36106 0
M  V30 6801 C 623.799 0.0722541 3.76331 0
M  V30 6802 C 622.946 0.732153 2.6746 0
M  V30 6803 H 625.897 0.851309 1.33934 0
M  V30 6804 H 625.918 -0.32987 3.79067 0
M  V30 6805 H 625.43 1.48339 3.58632 0
M  V30 6806 H 623.531 -0.982355 3.59417 0
M  V30 6807 H 623.644 0.493541 4.76551 0
M  V30 6808 H 622.008 0.16594 2.54159 0
M  V30 6809 H 622.791 1.79204 2.92816 0
M  V30 6810 N 625.236 -1.5273 0.388769 0
M  V30 6811 C 626.166 -2.29353 -0.438111 0
M  V30 6812 C 627.147 -1.32719 -1.06394 0
M  V30 6813 O 628.332 -1.61612 -1.07681 0
M  V30 6814 C 625.462 -3.09995 -1.56589 0
M  V30 6815 C 624.416 -4.14509 -1.06613 0
M  V30 6816 C 623.742 -4.83372 -2.28594 0
M  V30 6817 C 625.042 -5.22127 -0.134459 0
M  V30 6818 H 626.736 -2.98723 0.201206 0
M  V30 6819 H 624.282 -1.43665 0.0982089 0
M  V30 6820 H 626.235 -3.62357 -2.15118 0
M  V30 6821 H 624.959 -2.38357 -2.23279 0
M  V30 6822 H 623.618 -3.63128 -0.503383 0
M  V30 6823 H 623.266 -4.08283 -2.93792 0
M  V30 6824 H 622.966 -5.54012 -1.95817 0
M  V30 6825 H 624.49 -5.38538 -2.87766 0
M  V30 6826 H 625.904 -5.69851 -0.627914 0
M  V30 6827 H 624.301 -6.00011 0.103534 0
M  V30 6828 H 625.371 -4.77971 0.816798 0
M  V30 6829 N 626.714 -0.118576 -1.57153 0
M  V30 6830 C 627.961 0.539526 -1.9518 0
M  V30 6831 C 628.289 1.66714 -1.00184 0
M  V30 6832 O 627.544 1.95683 -0.0256482 0
M  V30 6833 C 627.843 1.11303 -3.39627 0
M  V30 6834 C 627.509 0.106809 -4.50773 0
M  V30 6835 C 626.171 -0.169876 -4.809 0
M  V30 6836 C 628.523 -0.57895 -5.17975 0
M  V30 6837 C 625.851 -1.13861 -5.75545 0
M  V30 6838 C 628.203 -1.53631 -6.13661 0
M  V30 6839 C 626.867 -1.82099 -6.42181 0
M  V30 6840 H 626.137 0.197427 -0.714215 0
M  V30 6841 H 628.784 -0.199391 -1.90459 0
M  V30 6842 H 627.089 1.92869 -3.4104 0
M  V30 6843 H 628.786 1.63032 -3.66363 0
M  V30 6844 H 625.376 0.332645 -4.27307 0
M  V30 6845 H 629.56 -0.378359 -4.94856 0
M  V30 6846 H 624.816 -1.36592 -5.95947 0
M  V30 6847 H 628.99 -2.07337 -6.64819 0
M  V30 6848 H 626.617 -2.57319 -7.15326 0
M  V30 6849 N 628.193 1.56834 0.155195 0
M  V30 6850 C 629.421 1.87049 0.884326 0
M  V30 6851 C 629.836 0.705839 1.7511 0
M  V30 6852 O 629.193 -0.324641 1.79589 0
M  V30 6853 C 629.244 3.1644 1.74781 0
M  V30 6854 O 628.965 4.28417 0.915978 0
M  V30 6855 C 630.466 3.60113 2.58522 0
M  V30 6856 H 627.686 0.620196 0.25612 0
M  V30 6857 H 630.23 2.03946 0.150445 0
M  V30 6858 H 628.385 3.01321 2.43484 0
M  V30 6859 H 628.799 5.02353 1.50803 0
M  V30 6860 H 630.273 4.53508 3.14698 0
M  V30 6861 H 630.75 2.85005 3.34169 0
M  V30 6862 H 631.356 3.77898 1.95124 0
M  V30 6863 N 629.671 -0.424282 1.51781 0
M  V30 6864 C 630.581 -1.54087 1.76902 0
M  V30 6865 C 631.597 -1.61249 0.653826 0
M  V30 6866 O 632.773 -1.78247 0.937552 0
M  V30 6867 C 629.838 -2.8996 1.90063 0
M  V30 6868 C 628.899 -2.92809 3.13945 0
M  V30 6869 C 628.132 -4.22201 3.26469 0
M  V30 6870 O 628.355 -5.15286 2.44616 0
M  V30 6871 O 627.289 -4.31599 4.1953 0
M  V30 6872 H 631.115 -1.358 2.71647 0
M  V30 6873 H 628.7 -0.608618 1.36441 0
M  V30 6874 H 630.582 -3.70575 2.0063 0
M  V30 6875 H 629.257 -3.08347 0.985067 0
M  V30 6876 H 628.164 -2.11102 3.08847 0
M  V30 6877 H 629.497 -2.79369 4.05233 0
M  V30 6878 N 631.149 -1.42148 -0.680565 0
M  V30 6879 C 632.395 -1.4352 -1.44131 0
M  V30 6880 C 632.75 -0.0486244 -1.92339 0
M  V30 6881 O 632.043 0.92819 -1.67616 0
M  V30 6882 C 632.237 -2.38945 -2.65782 0
M  V30 6883 C 632.066 -3.86743 -2.29477 0
M  V30 6884 C 630.836 -4.5532 -2.19115 0
M  V30 6885 C 633.034 -4.77321 -1.91491 0
M  V30 6886 N 631.016 -5.88174 -1.75853 0
M  V30 6887 C 632.387 -5.99238 -1.59103 0
M  V30 6888 C 634.442 -4.64829 -1.78432 0
M  V30 6889 C 633.145 -7.10053 -1.14968 0
M  V30 6890 C 635.171 -5.75621 -1.35702 0
M  V30 6891 C 634.533 -6.96645 -1.04234 0
M  V30 6892 H 630.632 -0.580363 -0.524121 0
M  V30 6893 H 633.216 -1.78132 -0.785939 0
M  V30 6894 H 631.387 -2.06403 -3.29017 0
M  V30 6895 H 633.119 -2.30935 -3.32342 0
M  V30 6896 H 629.874 -4.09456 -2.37998 0
M  V30 6897 H 630.298 -6.58625 -1.56661 0
M  V30 6898 H 634.94 -3.71745 -2.01409 0
M  V30 6899 H 632.658 -8.0299 -0.907365 0
M  V30 6900 H 636.244 -5.67964 -1.26126 0
M  V30 6901 H 635.124 -7.80918 -0.716707 0
M  V30 6902 N 632.627 0.916307 -1.28225 0
M  V30 6903 C 633.59 1.99996 -1.11957 0
M  V30 6904 C 634.59 1.60688 -0.0600152 0
M  V30 6905 O 635.78 1.71499 -0.30558 0
M  V30 6906 C 632.912 3.33458 -0.708411 0
M  V30 6907 H 634.105 2.15858 -2.08196 0
M  V30 6908 H 631.658 1.09863 -1.11175 0
M  V30 6909 H 632.393 3.23297 0.254859 0
M  V30 6910 H 632.178 3.63349 -1.47377 0
M  V30 6911 H 633.668 4.13014 -0.617164 0
M  V30 6912 N 634.105 1.10431 1.1244 0
M  V30 6913 C 635.521 0.836096 1.35947 0
M  V30 6914 C 635.721 -0.544475 1.94004 0
M  V30 6915 O 634.777 -1.29735 2.16622 0
M  V30 6916 C 636.09 1.93575 2.30107 0
M  V30 6917 C 637.638 1.9642 2.43697 0
M  V30 6918 C 638.113 3.05559 3.41171 0
M  V30 6919 N 639.604 3.04865 3.48728 0
M  V30 6920 C 640.339 3.85954 4.24061 0
M  V30 6921 N 639.835 4.76977 5.02458 0
M  V30 6922 N 641.628 3.74172 4.19466 0
M  V30 6923 H 633.779 1.9942 0.731124 0
M  V30 6924 H 636.042 0.866607 0.384312 0
M  V30 6925 H 635.748 2.92943 1.94621 0
M  V30 6926 H 635.622 1.8229 3.30227 0
M  V30 6927 H 638.009 0.97685 2.78463 0
M  V30 6928 H 638.09 2.11782 1.43465 0
M  V30 6929 H 637.734 4.04513 3.07135 0
M  V30 6930 H 637.664 2.87438 4.41234 0
M  V30 6931 H 640.155 2.38908 2.92799 0
M  V30 6932 H 640.468 5.35409 5.57277 0
M  V30 6933 H 638.813 4.81006 5.01655 0
M  V30 6934 H 642.004 3.02412 3.57302 0
M  V30 6935 H 642.177 4.37602 4.77921 0
M  V30 6936 N 635.583 -1.29855 0.893053 0
M  V30 6937 C 636.83 -1.95826 0.515585 0
M  V30 6938 C 637.158 -1.70451 -0.936842 0
M  V30 6939 O 636.413 -1.00657 -1.67829 0
M  V30 6940 C 636.712 -3.49515 0.746588 0
M  V30 6941 C 636.378 -3.94955 2.17535 0
M  V30 6942 C 635.04 -4.07073 2.56603 0
M  V30 6943 C 637.392 -4.18536 3.10607 0
M  V30 6944 C 634.72 -4.40138 3.87938 0
M  V30 6945 C 637.072 -4.53073 4.41484 0
M  V30 6946 C 635.736 -4.634 4.80434 0
M  V30 6947 H 635.006 -0.71658 0.188666 0
M  V30 6948 H 637.653 -1.54574 1.13045 0
M  V30 6949 H 635.958 -3.9177 0.0487551 0
M  V30 6950 H 637.655 -3.98644 0.434009 0
M  V30 6951 H 634.245 -3.86035 1.86212 0
M  V30 6952 H 638.429 -4.08646 2.81641 0
M  V30 6953 H 633.685 -4.46335 4.17846 0
M  V30 6954 H 637.859 -4.70269 5.13634 0
M  V30 6955 H 635.486 -4.88775 5.82239 0
M  V30 6956 N 637.061 -0.65484 -1.43351 0
M  V30 6957 C 638.286 -0.175046 -2.0666 0
M  V30 6958 C 638.711 1.15104 -1.4877 0
M  V30 6959 O 638.069 1.71144 -0.598279 0
M  V30 6960 C 638.117 -0.0991544 -3.60464 0
M  V30 6961 O 637.221 0.938169 -4.01587 0
M  V30 6962 H 636.562 -0.0956148 -0.65708 0
M  V30 6963 H 639.092 -0.898222 -1.83829 0
M  V30 6964 H 639.102 0.083632 -4.07914 0
M  V30 6965 H 637.777 -1.06719 -4.01975 0
M  V30 6966 H 636.354 0.72804 -3.65724 0
M  V30 6967 N 638.539 1.52521 -0.396863 0
M  V30 6968 C 639.487 2.28217 0.44943 0
M  V30 6969 C 640.481 1.32416 1.05652 0
M  V30 6970 O 641.687 1.49925 0.996124 0
M  V30 6971 H 638.062 0.733966 0.1637 0
M  V30 6972 H 640.033 2.97658 -0.210367 0
M  V30 6973 C 638.782 3.10713 1.56054 0
M  V30 6974 H 638.105 3.84291 1.10273 0
M  V30 6975 H 639.545 3.66803 2.12677 0
M  V30 6976 C 638.004 2.23499 2.52091 0
M  V30 6977 O 638.534 1.8669 3.55682 0
M  V30 6978 N 636.74 1.8751 2.2201 0
M  V30 6979 H 636.287 2.17643 1.37802 0
M  V30 6980 H 636.245 1.29448 2.86514 0
M  V30 6981 N 640.017 0.126909 1.57088 0
M  V30 6982 C 641.245 -0.53667 1.99819 0
M  V30 6983 C 641.66 -1.5972 1.00673 0
M  V30 6984 O 641.017 -1.825 0.000747365 0
M  V30 6985 C 641.068 -1.15563 3.42531 0
M  V30 6986 O 640.789 -0.137483 4.37884 0
M  V30 6987 C 642.29 -1.90176 4.00435 0
M  V30 6988 H 639.51 -0.141443 0.655923 0
M  V30 6989 H 642.054 0.215578 2.03361 0
M  V30 6990 H 640.209 -1.85861 3.39904 0
M  V30 6991 H 640.623 -0.588229 5.21191 0
M  V30 6992 H 642.097 -2.28801 5.02349 0
M  V30 6993 H 642.574 -2.78002 3.40017 0
M  V30 6994 H 643.18 -1.24623 4.06632 0
M  V30 6995 N 641.495 -1.56914 -0.146875 0
M  V30 6996 C 642.911 -1.51582 -0.499518 0
M  V30 6997 C 643.111 -0.83535 -1.83369 0
M  V30 6998 O 642.167 -0.405932 -2.49216 0
M  V30 6999 C 643.48 -2.96349 -0.509711 0
M  V30 7000 C 645.028 -3.07288 -0.595217 0
M  V30 7001 C 645.503 -4.53562 -0.636071 0
M  V30 7002 N 646.994 -4.57906 -0.69829 0
M  V30 7003 C 647.729 -5.68462 -0.750886 0
M  V30 7004 N 647.225 -6.88588 -0.76282 0
M  V30 7005 N 649.018 -5.56496 -0.791777 0
M  V30 7006 H 641.169 -1.99547 0.727656 0
M  V30 7007 H 643.432 -0.910113 0.265327 0
M  V30 7008 H 643.138 -3.4939 0.402409 0
M  V30 7009 H 643.012 -3.52307 -1.34758 0
M  V30 7010 H 645.399 -2.54266 -1.49776 0
M  V30 7011 H 645.48 -2.54373 0.2698 0
M  V30 7012 H 645.124 -5.07222 0.262313 0
M  V30 7013 H 645.054 -5.04259 -1.51758 0
M  V30 7014 H 647.545 -3.71429 -0.696362 0
M  V30 7015 H 647.858 -7.68598 -0.804804 0
M  V30 7016 H 646.203 -6.91148 -0.730694 0
M  V30 7017 H 649.394 -4.61562 -0.779624 0
M  V30 7018 H 649.567 -6.42671 -0.829301 0
M  V30 7019 N 642.974 0.416227 -1.52004 0
M  V30 7020 C 643.904 1.51365 -1.77795 0
M  V30 7021 C 644.885 1.58059 -0.628601 0
M  V30 7022 O 646.07 1.73447 -0.873478 0
M  V30 7023 C 643.2 2.89256 -1.92219 0
M  V30 7024 C 642.154 2.97415 -3.0778 0
M  V30 7025 C 641.48 4.37492 -3.07417 0
M  V30 7026 C 642.78 2.69551 -4.47369 0
M  V30 7027 H 644.474 1.30033 -2.69688 0
M  V30 7028 H 642.02 0.624112 -1.29772 0
M  V30 7029 H 643.973 3.66008 -2.08845 0
M  V30 7030 H 642.697 3.11866 -0.969917 0
M  V30 7031 H 641.356 2.23107 -2.90893 0
M  V30 7032 H 641.004 4.571 -2.09925 0
M  V30 7033 H 640.704 4.43877 -3.85029 0
M  V30 7034 H 642.228 5.16188 -3.26162 0
M  V30 7035 H 643.642 3.36028 -4.64497 0
M  V30 7036 H 642.039 2.87321 -5.26846 0
M  V30 7037 H 643.109 1.65029 -4.55953 0
M  V30 7038 N 644.452 1.42507 0.673017 0
M  V30 7039 C 645.677 1.4668 1.46627 0
M  V30 7040 C 646.102 0.080066 1.8793 0
M  V30 7041 O 645.46 -0.921879 1.56112 0
M  V30 7042 C 645.508 2.40091 2.69051 0
M  V30 7043 O 644.612 1.8735 3.67387 0
M  V30 7044 H 643.953 0.496908 0.44043 0
M  V30 7045 H 646.483 1.87215 0.825334 0
M  V30 7046 H 646.493 2.56731 3.17101 0
M  V30 7047 H 645.168 3.4084 2.3833 0
M  V30 7048 H 643.745 1.80274 3.26429 0
M  V30 7049 N 645.93 -0.909495 1.28709 0
M  V30 7050 C 646.862 -2.01729 1.08804 0
M  V30 7051 C 647.875 -1.62755 0.0384739 0
M  V30 7052 O 649.064 -1.76259 0.281977 0
M  V30 7053 C 646.164 -3.32952 0.63217 0
M  V30 7054 C 645.337 -4.00512 1.75809 0
M  V30 7055 C 644.396 -5.10019 1.29488 0
M  V30 7056 O 643.422 -5.32986 1.99787 0
M  V30 7057 N 644.624 -5.80278 0.1604 0
M  V30 7058 H 647.389 -2.19362 2.04207 0
M  V30 7059 H 644.95 -1.08106 1.20518 0
M  V30 7060 H 646.942 -4.03543 0.305802 0
M  V30 7061 H 645.512 -3.11759 -0.229134 0
M  V30 7062 H 644.732 -3.23413 2.25383 0
M  V30 7063 H 646.02 -4.42395 2.51325 0
M  V30 7064 H 645.418 -5.64094 -0.425937 0
M  V30 7065 H 643.975 -6.51713 -0.106663 0
M  V30 7066 N 647.408 -1.11026 -1.11852 0
M  V30 7067 C 648.636 -0.878818 -1.87308 0
M  V30 7068 C 649.051 0.57111 -1.79955 0
M  V30 7069 O 648.408 1.39409 -1.17777 0
M  V30 7070 C 648.459 -1.3264 -3.36287 0
M  V30 7071 O 648.18 -2.71948 -3.43476 0
M  V30 7072 C 649.681 -1.12974 -4.28663 0
M  V30 7073 H 646.901 -0.315015 -0.592458 0
M  V30 7074 H 649.445 -1.47649 -1.41492 0
M  V30 7075 H 647.6 -0.772269 -3.79625 0
M  V30 7076 H 648.014 -2.91241 -4.3621 0
M  V30 7077 H 649.488 -1.49198 -5.31454 0
M  V30 7078 H 649.965 -0.0689127 -4.39146 0
M  V30 7079 H 650.571 -1.67064 -3.91113 0
M  V30 7080 N 648.886 1.2938 -0.899927 0
M  V30 7081 C 649.819 2.25911 -0.322386 0
M  V30 7082 C 650.797 1.52447 0.565567 0
M  V30 7083 O 651.981 1.81404 0.512324 0
M  V30 7084 C 649.108 3.3436 0.540455 0
M  V30 7085 C 648.154 4.25579 -0.280211 0
M  V30 7086 S 648.987 5.08526 -1.67814 0
M  V30 7087 C 650.143 6.20476 -0.822224 0
M  V30 7088 H 650.376 2.7455 -1.1406 0
M  V30 7089 H 647.909 1.37606 -0.700285 0
M  V30 7090 H 649.867 3.97303 1.0325 0
M  V30 7091 H 648.528 2.84416 1.33291 0
M  V30 7092 H 647.721 5.02574 0.378915 0
M  V30 7093 H 647.323 3.67287 -0.705405 0
M  V30 7094 H 649.615 6.77485 -0.0457138 0
M  V30 7095 H 650.558 6.90606 -1.56426 0
M  V30 7096 H 650.966 5.63243 -0.37651 0
M  V30 7097 N 650.364 0.662433 1.43002 0
M  V30 7098 C 651.294 -0.00979809 2.33498 0
M  V30 7099 C 652.275 -0.802329 1.49989 0
M  V30 7100 O 653.46 -0.761964 1.78627 0
M  V30 7101 C 650.59 -0.970446 3.33466 0
M  V30 7102 C 649.544 -0.287383 4.27034 0
M  V30 7103 C 648.87 -1.36012 5.17112 0
M  V30 7104 C 650.17 0.82595 5.15728 0
M  V30 7105 H 651.864 0.745959 2.89958 0
M  V30 7106 H 649.41 0.360172 1.39423 0
M  V30 7107 H 651.363 -1.44971 3.95679 0
M  V30 7108 H 650.087 -1.75748 2.75282 0
M  V30 7109 H 648.746 0.17152 3.66199 0
M  V30 7110 H 648.394 -2.13882 4.55262 0
M  V30 7111 H 648.094 -0.908276 5.80538 0
M  V30 7112 H 649.618 -1.84056 5.82199 0
M  V30 7113 H 651.032 0.42845 5.71697 0
M  V30 7114 H 649.429 1.20282 5.87922 0
M  V30 7115 H 650.499 1.68003 4.54866 0
M  V30 7116 N 651.842 -1.52309 0.404946 0
M  V30 7117 C 653.09 -2.01368 -0.17186 0
M  V30 7118 C 653.411 -1.29261 -1.46002 0
M  V30 7119 O 652.681 -0.41729 -1.91404 0
M  V30 7120 H 651.261 -0.744034 -0.0664993 0
M  V30 7121 H 653.923 -1.87263 0.540228 0
M  V30 7122 H 653.019 -3.09888 -0.370957 0
M  V30 7123 N 653.32 -0.135238 -1.57019 0
M  V30 7124 C 654.27 0.820408 -2.12728 0
M  V30 7125 C 655.254 1.21735 -1.05211 0
M  V30 7126 O 656.446 1.18574 -1.31413 0
M  V30 7127 C 653.575 2.06414 -2.74314 0
M  V30 7128 C 652.661 1.69083 -3.88937 0
M  V30 7129 N 653.052 1.0251 -4.95303 0
M  V30 7130 C 651.35 1.98434 -3.99425 0
M  V30 7131 C 652.051 0.846749 -5.75504 0
M  V30 7132 N 651.027 1.3769 -5.25873 0
M  V30 7133 H 654.829 0.302426 -2.9234 0
M  V30 7134 H 652.343 0.0667009 -1.62263 0
M  V30 7135 H 654.34 2.75863 -3.12579 0
M  V30 7136 H 653 2.58741 -1.96171 0
M  V30 7137 H 654.011 0.687207 -5.1332 0
M  V30 7138 H 650.688 2.52693 -3.32344 0
M  V30 7139 H 652.078 0.322949 -6.71123 0
M  V30 7140 N 654.798 1.5699 0.138552 0
M  V30 7141 C 656.044 1.84081 0.85099 0
M  V30 7142 C 656.377 0.718107 1.80435 0
M  V30 7143 O 655.652 -0.277633 1.92508 0
M  V30 7144 C 655.935 3.21699 1.61808 0
M  V30 7145 C 655.788 4.44544 0.685633 0
M  V30 7146 C 657.107 3.5664 2.57868 0
M  V30 7147 H 654.226 0.669592 0.307922 0
M  V30 7148 H 656.868 1.89646 0.11588 0
M  V30 7149 H 655.018 3.17086 2.24474 0
M  V30 7150 H 656.69 4.61248 0.0693179 0
M  V30 7151 H 654.933 4.338 -0.00421993 0
M  V30 7152 H 655.604 5.3746 1.25858 0
M  V30 7153 H 658.08 3.61918 2.05316 0
M  V30 7154 H 656.956 4.53946 3.08584 0
M  V30 7155 H 657.217 2.83036 3.39622 0
M  V30 7156 N 656.276 -0.40816 1.52223 0
M  V30 7157 C 657.524 -1.15274 1.66001 0
M  V30 7158 C 657.845 -1.91003 0.392803 0
M  V30 7159 O 657.115 -1.8673 -0.592336 0
M  V30 7160 H 655.695 -0.428526 0.611861 0
M  V30 7161 H 658.357 -0.46512 1.89269 0
M  V30 7162 H 657.453 -1.86628 2.50153 0
M  V30 7163 N 657.755 -1.42862 -0.66545 0
M  V30 7164 C 658.685 -1.49867 -1.79059 0
M  V30 7165 C 659.666 -0.354394 -1.66367 0
M  V30 7166 O 660.851 -0.569969 -1.85647 0
M  V30 7167 C 657.981 -1.40943 -3.17415 0
M  V30 7168 C 656.935 -2.53495 -3.44854 0
M  V30 7169 C 656.261 -2.29626 -4.82883 0
M  V30 7170 C 657.561 -3.95781 -3.40815 0
M  V30 7171 H 659.255 -2.44037 -1.73453 0
M  V30 7172 H 656.801 -1.17456 -0.833071 0
M  V30 7173 H 658.754 -1.4445 -3.95869 0
M  V30 7174 H 657.478 -0.432716 -3.23721 0
M  V30 7175 H 656.137 -2.4932 -2.68766 0
M  V30 7176 H 655.785 -1.30226 -4.8585 0
M  V30 7177 H 655.485 -3.05065 -5.02204 0
M  V30 7178 H 657.009 -2.34897 -5.63609 0
M  V30 7179 H 658.423 -4.01508 -4.09224 0
M  V30 7180 H 656.82 -4.71148 -3.71672 0
M  V30 7181 H 657.89 -4.21786 -2.39216 0
M  V30 7182 N 659.233 0.902656 -1.29189 0
M  V30 7183 C 660.181 2.0278 -1.13943 0
M  V30 7184 C 661.175 1.69308 -0.055787 0
M  V30 7185 O 662.381 1.78707 -0.215371 0
M  V30 7186 H 658.756 0.664595 -0.351877 0
M  V30 7187 H 660.727 2.12778 -2.09208 0
M  V30 7188 C 659.476 3.37657 -0.82966 0
M  V30 7189 H 658.799 3.63913 -1.65551 0
M  V30 7190 H 660.239 4.17078 -0.762998 0
M  V30 7191 C 658.698 3.33648 0.466991 0
M  V30 7192 O 659.228 3.72886 1.49395 0
M  V30 7193 N 657.434 2.86745 0.471761 0
M  V30 7194 H 656.981 2.55009 -0.364406 0
M  V30 7195 H 656.939 2.84446 1.33933 0
M  V30 7196 N 660.711 1.11618 1.11262 0
M  V30 7197 C 661.658 0.7762 2.17356 0
M  V30 7198 C 662.628 -0.253152 1.6416 0
M  V30 7199 O 663.813 -0.129655 1.90359 0
M  V30 7200 C 660.953 0.227581 3.44349 0
M  V30 7201 C 660.066 1.31372 4.1154 0
M  V30 7202 C 659.201 0.72544 5.26223 0
M  V30 7203 C 658.24 1.7913 5.85302 0
M  V30 7204 N 657.377 1.22237 6.91377 0
M  V30 7205 H 662.217 1.68508 2.45783 0
M  V30 7206 H 659.754 0.841475 1.20655 0
M  V30 7207 H 661.712 -0.108483 4.17059 0
M  V30 7208 H 660.342 -0.644486 3.16301 0
M  V30 7209 H 659.394 1.7667 3.36885 0
M  V30 7210 H 660.706 2.12005 4.51504 0
M  V30 7211 H 659.86 0.339541 6.05749 0
M  V30 7212 H 658.599 -0.112188 4.87571 0
M  V30 7213 H 657.604 2.18648 5.04453 0
M  V30 7214 H 658.829 2.63199 6.26022 0
M  V30 7215 H 656.775 0.406423 6.5474 0
M  V30 7216 H 656.692 1.9654 7.30006 0
M  V30 7217 H 657.96 0.863426 7.74703 0
M  V30 7218 N 662.189 -1.289 0.906776 0
M  V30 7219 C 663.152 -2.25777 0.394656 0
M  V30 7220 C 664.152 -1.53621 -0.475119 0
M  V30 7221 O 665.342 -1.71949 -0.279165 0
M  V30 7222 C 662.474 -3.38113 -0.43499 0
M  V30 7223 H 663.667 -2.72592 1.25033 0
M  V30 7224 H 661.22 -1.40463 0.685547 0
M  V30 7225 H 661.955 -2.96648 -1.31036 0
M  V30 7226 H 661.74 -3.91647 0.188334 0
M  V30 7227 H 663.23 -4.10168 -0.784365 0
M  V30 7228 N 663.667 -0.670007 -1.42649 0
M  V30 7229 C 664.892 -0.196955 -2.06463 0
M  V30 7230 C 665.317 1.1352 -1.49983 0
M  V30 7231 O 664.675 1.705 -0.616397 0
M  V30 7232 C 664.723 -0.137381 -3.60338 0
M  V30 7233 O 663.827 0.895523 -4.02559 0
M  V30 7234 H 663.168 -0.102579 -0.656029 0
M  V30 7235 H 665.698 -0.917669 -1.82866 0
M  V30 7236 H 665.708 0.0403625 -4.0798 0
M  V30 7237 H 664.383 -1.10977 -4.0082 0
M  V30 7238 H 662.96 0.689209 -3.66476 0
M  V30 7239 N 665.145 1.52092 -0.413018 0
M  V30 7240 C 666.391 2.02815 0.154104 0
M  V30 7241 C 666.746 1.293 1.42475 0
M  V30 7242 O 666.039 0.391835 1.87551 0
M  V30 7243 C 666.233 3.54529 0.4521 0
M  V30 7244 C 666.062 4.4274 -0.788116 0
M  V30 7245 C 664.832 4.87903 -1.31447 0
M  V30 7246 C 667.03 4.86522 -1.66735 0
M  V30 7247 N 665.012 5.60254 -2.50976 0
M  V30 7248 C 666.383 5.57692 -2.70886 0
M  V30 7249 C 668.438 4.68534 -1.68465 0
M  V30 7250 C 667.141 6.12783 -3.76682 0
M  V30 7251 C 669.167 5.24524 -2.73182 0
M  V30 7252 C 668.529 5.9562 -3.76054 0
M  V30 7253 H 664.628 0.781796 0.0178567 0
M  V30 7254 H 667.212 1.86223 -0.568237 0
M  V30 7255 H 665.383 3.71186 1.14348 0
M  V30 7256 H 667.115 3.91934 1.00844 0
M  V30 7257 H 663.87 4.65504 -0.871931 0
M  V30 7258 H 664.294 6.01069 -3.11521 0
M  V30 7259 H 668.936 4.13051 -0.902708 0
M  V30 7260 H 666.654 6.67335 -4.55729 0
M  V30 7261 H 670.24 5.12473 -2.75433 0
M  V30 7262 H 669.12 6.38169 -4.55752 0
M  V30 7263 N 666.623 0.143563 1.56945 0
M  V30 7264 C 667.57 -0.797433 2.16586 0
M  V30 7265 C 668.54 -1.24654 1.09775 0
M  V30 7266 O 669.725 -1.31968 1.37801 0
M  V30 7267 C 666.865 -2.03253 2.78895 0
M  V30 7268 C 665.978 -1.62954 4.00087 0
M  V30 7269 C 665.113 -2.81617 4.50406 0
M  V30 7270 C 664.152 -2.37675 5.64072 0
M  V30 7271 N 663.289 -3.49335 6.09023 0
M  V30 7272 H 668.129 -0.282023 2.96662 0
M  V30 7273 H 665.666 -0.127494 1.46546 0
M  V30 7274 H 667.624 -2.75653 3.13163 0
M  V30 7275 H 666.254 -2.52211 2.01469 0
M  V30 7276 H 665.306 -0.803322 3.71821 0
M  V30 7277 H 666.618 -1.26679 4.82446 0
M  V30 7278 H 665.772 -3.62212 4.86711 0
M  V30 7279 H 664.511 -3.21134 3.67048 0
M  V30 7280 H 663.516 -1.55519 5.27346 0
M  V30 7281 H 664.741 -1.99247 6.49213 0
M  V30 7282 H 662.687 -3.8848 5.28601 0
M  V30 7283 H 662.604 -3.17064 6.86299 0
M  V30 7284 H 663.872 -4.30297 6.49973 0
M  V30 7285 N 668.101 -1.57061 -0.130224 0
M  V30 7286 C 669.349 -1.83893 -0.838313 0
M  V30 7287 C 669.67 -0.727046 -1.80939 0
M  V30 7288 O 668.94 0.249927 -1.94299 0
M  V30 7289 H 667.52 -0.67846 -0.312573 0
M  V30 7290 H 670.182 -1.94529 -0.120224 0
M  V30 7291 H 669.278 -2.79419 -1.39038 0
M  V30 7292 N 669.579 0.400081 -1.52437 0
M  V30 7293 C 670.509 1.4947 -1.7939 0
M  V30 7294 C 671.49 1.57383 -0.645329 0
M  V30 7295 O 672.675 1.72511 -0.891826 0
M  V30 7296 C 669.805 2.87201 -1.95276 0
M  V30 7297 C 668.759 2.94134 -3.10917 0
M  V30 7298 C 668.085 4.34207 -3.1204 0
M  V30 7299 C 669.385 2.64791 -4.50203 0
M  V30 7300 H 671.079 1.27165 -2.71052 0
M  V30 7301 H 668.625 0.610312 -1.30427 0
M  V30 7302 H 670.578 3.63772 -2.12715 0
M  V30 7303 H 669.302 3.10819 -1.00294 0
M  V30 7304 H 667.961 2.20009 -2.93243 0
M  V30 7305 H 667.609 4.54848 -2.14761 0
M  V30 7306 H 667.309 4.39768 -3.89715 0
M  V30 7307 H 668.833 5.127 -3.31619 0
M  V30 7308 H 670.247 3.31083 -4.68035 0
M  V30 7309 H 668.644 2.81717 -5.29864 0
M  V30 7310 H 669.714 1.60184 -4.57678 0
M  V30 7311 N 671.057 1.43213 0.657864 0
M  V30 7312 C 671.989 1.43974 1.78337 0
M  V30 7313 C 673.002 0.336482 1.59285 0
M  V30 7314 O 674.191 0.600631 1.68091 0
M  V30 7315 C 671.291 1.23242 3.15697 0
M  V30 7316 C 670.464 2.46319 3.61449 0
M  V30 7317 C 669.523 2.2088 4.77597 0
M  V30 7318 O 668.549 2.942 4.87273 0
M  V30 7319 N 669.751 1.22251 5.67481 0
M  V30 7320 H 672.516 2.40993 1.78164 0
M  V30 7321 H 670.077 1.3831 0.841549 0
M  V30 7322 H 672.069 1.04113 3.91079 0
M  V30 7323 H 670.639 0.346849 3.1067 0
M  V30 7324 H 669.859 2.80904 2.76563 0
M  V30 7325 H 671.147 3.28239 3.88763 0
M  V30 7326 H 670.545 0.616433 5.62331 0
M  V30 7327 H 669.102 1.09107 6.42603 0
M  V30 7328 N 672.536 -0.895792 1.29666 0
M  V30 7329 C 673.952 -1.17726 1.07763 0
M  V30 7330 C 674.152 -2.00794 -0.168576 0
M  V30 7331 O 673.208 -2.37213 -0.865244 0
M  V30 7332 C 674.521 -1.89441 2.33522 0
M  V30 7333 C 676.069 -2.02251 2.3888 0
M  V30 7334 C 676.544 -2.77378 3.64452 0
M  V30 7335 N 678.035 -2.8493 3.65198 0
M  V30 7336 C 678.77 -3.43606 4.59045 0
M  V30 7337 N 678.266 -4.03417 5.63228 0
M  V30 7338 N 680.059 -3.41317 4.46608 0
M  V30 7339 H 672.21 -0.341652 2.09634 0
M  V30 7340 H 674.473 -0.213865 0.923561 0
M  V30 7341 H 674.179 -1.35842 3.24407 0
M  V30 7342 H 674.053 -2.89893 2.41334 0
M  V30 7343 H 676.44 -2.55025 1.4848 0
M  V30 7344 H 676.521 -1.0092 2.3505 0
M  V30 7345 H 676.165 -2.25279 4.55205 0
M  V30 7346 H 676.095 -3.79062 3.65541 0
M  V30 7347 H 678.586 -2.42453 2.89871 0
M  V30 7348 H 678.899 -4.46224 6.30955 0
M  V30 7349 H 677.244 -4.01868 5.67033 0
M  V30 7350 H 680.435 -2.93812 3.64407 0
M  V30 7351 H 680.608 -3.86751 5.1993 0
M  V30 7352 N 674.014 -1.12206 -1.10668 0
M  V30 7353 C 674.924 -0.800686 -2.20513 0
M  V30 7354 C 675.94 0.209512 -1.72734 0
M  V30 7355 O 677.116 0.043705 -2.01353 0
M  V30 7356 C 674.181 -0.257353 -3.45744 0
M  V30 7357 C 673.242 -1.32718 -4.0827 0
M  V30 7358 C 672.475 -0.809674 -5.27522 0
M  V30 7359 O 672.698 0.35742 -5.69279 0
M  V30 7360 O 671.632 -1.57816 -5.80842 0
M  V30 7361 H 675.458 -1.71807 -2.50432 0
M  V30 7362 H 673.043 -0.898546 -1.19359 0
M  V30 7363 H 674.925 0.0408849 -4.2138 0
M  V30 7364 H 673.6 0.632627 -3.17458 0
M  V30 7365 H 672.507 -1.67855 -3.34329 0
M  V30 7366 H 673.84 -2.19083 -4.40753 0
M  V30 7367 N 675.492 1.28418 -0.913599 0
M  V30 7368 C 676.424 2.26368 -0.359169 0
M  V30 7369 C 677.437 1.54858 0.502285 0
M  V30 7370 O 678.626 1.75659 0.31719 0
M  V30 7371 C 675.726 3.35112 0.50526 0
M  V30 7372 C 674.899 4.36126 -0.333648 0
M  V30 7373 C 673.958 5.24134 0.465845 0
M  V30 7374 O 672.984 5.6907 -0.121538 0
M  V30 7375 N 674.186 5.52892 1.76891 0
M  V30 7376 H 676.951 2.74579 -1.2011 0
M  V30 7377 H 674.512 1.41898 -0.779532 0
M  V30 7378 H 676.504 3.90926 1.04684 0
M  V30 7379 H 675.074 2.86611 1.2479 0
M  V30 7380 H 674.294 3.79776 -1.0566 0
M  V30 7381 H 675.582 5.00638 -0.907669 0
M  V30 7382 H 674.98 5.18217 2.26865 0
M  V30 7383 H 673.537 6.11464 2.25732 0
M  V30 7384 N 676.97 0.677563 1.42291 0
M  V30 7385 C 678.195 0.207901 2.06355 0
M  V30 7386 C 678.62 -1.12723 1.50583 0
M  V30 7387 O 677.978 -1.70171 0.62543 0
M  V30 7388 C 678.026 0.156489 3.6026 0
M  V30 7389 O 677.13 -0.874162 4.03029 0
M  V30 7390 H 676.471 0.106056 0.655475 0
M  V30 7391 H 679.001 0.927354 1.82377 0
M  V30 7392 H 679.011 -0.0187258 4.07996 0
M  V30 7393 H 677.686 1.13101 4.00226 0
M  V30 7394 H 676.263 -0.669764 3.66836 0
M  V30 7395 N 678.448 -1.51871 0.421078 0
M  V30 7396 C 679.673 -2.0684 -0.152371 0
M  V30 7397 C 680.098 -1.28802 -1.37083 0
M  V30 7398 O 679.456 -0.321482 -1.78427 0
M  V30 7399 C 679.504 -3.57532 -0.469368 0
M  V30 7400 O 678.608 -3.81818 -1.55848 0
M  V30 7401 H 677.949 -0.663939 -0.00898586 0
M  V30 7402 H 680.479 -1.95674 0.597724 0
M  V30 7403 H 680.489 -4.01515 -0.724553 0
M  V30 7404 H 679.164 -4.13761 0.421276 0
M  V30 7405 H 677.741 -3.49709 -1.29453 0
M  V30 7406 N 679.926 -0.151884 -1.56866 0
M  V30 7407 C 681.151 0.508044 -2.01081 0
M  V30 7408 C 681.576 1.57306 -1.03134 0
M  V30 7409 O 680.934 1.81298 -0.0078309 0
M  V30 7410 C 680.982 1.08106 -3.44014 0
M  V30 7411 O 680.086 2.19577 -3.49084 0
M  V30 7412 H 679.427 0.123757 -0.652365 0
M  V30 7413 H 681.957 -0.250055 -2.03066 0
M  V30 7414 H 681.967 1.40851 -3.82916 0
M  V30 7415 H 680.642 0.301168 -4.14808 0
M  V30 7416 H 679.219 1.88023 -3.22027 0
M  V30 7417 N 681.404 1.57128 0.121893 0
M  V30 7418 C 682.314 2.03425 1.16857 0
M  V30 7419 C 683.33 0.954108 1.45509 0
M  V30 7420 O 684.506 1.26541 1.56682 0
M  V30 7421 C 681.571 2.42685 2.47599 0
M  V30 7422 C 680.632 3.64767 2.2637 0
M  V30 7423 C 679.865 4.02145 3.50878 0
M  V30 7424 O 680.088 3.39897 4.58068 0
M  V30 7425 O 679.022 4.95262 3.42051 0
M  V30 7426 H 682.848 2.92825 0.80544 0
M  V30 7427 H 680.433 1.45654 0.332477 0
M  V30 7428 H 682.315 2.68684 3.24634 0
M  V30 7429 H 680.99 1.56432 2.83392 0
M  V30 7430 H 679.897 3.43922 1.47203 0
M  V30 7431 H 681.23 4.51716 1.95482 0
M  V30 7432 N 682.882 -0.391992 1.52647 0
M  V30 7433 C 684.159 -1.15136 1.58123 0
M  V30 7434 C 684.539 -2.07786 0.372597 0
M  V30 7435 O 683.887 -2.19374 -0.639304 0
M  V30 7436 C 684.097 -1.91367 2.91856 0
M  V30 7437 C 685.445 -2.46833 3.45483 0
M  V30 7438 O 686.469 -2.01527 2.9371 0
M  V30 7439 O 685.328 -3.29587 4.3593 0
M  V30 7440 H 682.422 -0.526649 0.637629 0
M  V30 7441 H 684.968 -0.397386 1.64982 0
M  V30 7442 H 683.74 -1.23597 3.71268 0
M  V30 7443 H 683.363 -2.73732 2.88369 0
M  V30 7444 N 684.36 -1.4356 -0.65026 0
M  V30 7445 C 685.588 -1.48779 -1.43779 0
M  V30 7446 C 686.003 -0.106593 -1.88499 0
M  V30 7447 O 685.36 0.883766 -1.59674 0
M  V30 7448 C 685.411 -2.43618 -2.67081 0
M  V30 7449 O 685.132 -3.76367 -2.24231 0
M  V30 7450 C 686.633 -2.5811 -3.60409 0
M  V30 7451 H 683.853 -0.50521 -0.441593 0
M  V30 7452 H 686.397 -1.88332 -0.796941 0
M  V30 7453 H 684.552 -2.07253 -3.273 0
M  V30 7454 H 684.966 -4.27394 -3.0403 0
M  V30 7455 H 686.44 -3.28539 -4.43583 0
M  V30 7456 H 686.917 -1.627 -4.07953 0
M  V30 7457 H 687.523 -2.95298 -3.0607 0
M  V30 7458 N 685.838 0.888903 -1.30139 0
M  V30 7459 C 687.115 1.62145 -1.094 0
M  V30 7460 C 687.495 2.08041 0.358091 0
M  V30 7461 O 686.843 1.84438 1.34888 0
M  V30 7462 C 687.053 2.794 -2.09133 0
M  V30 7463 C 688.401 3.49826 -2.40638 0
M  V30 7464 O 689.425 2.89583 -2.07412 0
M  V30 7465 O 688.284 4.58457 -2.97455 0
M  V30 7466 H 685.378 0.712475 -0.41989 0
M  V30 7467 H 687.924 0.936023 -1.41551 0
M  V30 7468 H 686.696 2.42762 -3.06891 0
M  V30 7469 H 686.319 3.55643 -1.77776 0
M  V30 7470 N 687.317 1.12792 1.10072 0
M  V30 7471 C 688.28 0.802264 2.14701 0
M  V30 7472 C 689.28 -0.18515 1.59731 0
M  V30 7473 O 690.47 0.041109 1.74151 0
M  V30 7474 C 687.602 0.19285 3.40354 0
M  V30 7475 H 688.795 1.72932 2.45019 0
M  V30 7476 H 686.348 0.931662 1.25498 0
M  V30 7477 H 687.083 -0.743748 3.15656 0
M  V30 7478 H 686.868 0.903827 3.81541 0
M  V30 7479 H 688.358 -0.0183704 4.17596 0
M  V30 7480 N 688.795 -1.27931 0.920396 0
M  V30 7481 C 689.758 -2.25345 0.41858 0
M  V30 7482 C 690.758 -1.54116 -0.458798 0
M  V30 7483 O 691.948 -1.72235 -0.260912 0
M  V30 7484 C 689.08 -3.38556 -0.399104 0
M  V30 7485 H 690.273 -2.71251 1.27918 0
M  V30 7486 H 687.826 -1.39728 0.700406 0
M  V30 7487 H 688.561 -2.98021 -1.27882 0
M  V30 7488 H 688.346 -3.91426 0.229863 0
M  V30 7489 H 689.836 -4.10976 -0.740817 0
M  V30 7490 N 690.273 -0.685099 -1.4193 0
M  V30 7491 C 691.52 -0.211658 -2.01391 0
M  V30 7492 C 691.848 1.18526 -1.54214 0
M  V30 7493 O 691.103 1.81189 -0.739519 0
M  V30 7494 C 691.402 -0.206154 -3.56805 0
M  V30 7495 C 691.068 -1.54915 -4.23453 0
M  V30 7496 C 689.73 -1.91684 -4.41373 0
M  V30 7497 C 692.082 -2.43317 -4.60919 0
M  V30 7498 C 689.41 -3.16461 -4.94034 0
M  V30 7499 C 691.762 -3.67415 -5.14965 0
M  V30 7500 C 690.426 -4.04341 -5.31098 0
M  V30 7501 H 689.696 -0.0774511 -0.736941 0
M  V30 7502 H 692.343 -0.882121 -1.69973 0
M  V30 7503 H 690.648 0.547841 -3.87951 0
M  V30 7504 H 692.345 0.17753 -4.00607 0
M  V30 7505 H 688.935 -1.25314 -4.09871 0
M  V30 7506 H 693.119 -2.16192 -4.46738 0
M  V30 7507 H 688.375 -3.45078 -5.04709 0
M  V30 7508 H 692.549 -4.3611 -5.42938 0
M  V30 7509 H 690.176 -5.01101 -5.71666 0
M  V30 7510 N 691.751 1.51645 -0.429126 0
M  V30 7511 C 692.661 2.31288 0.392809 0
M  V30 7512 C 693.677 1.39852 1.03525 0
M  V30 7513 O 694.853 1.72926 1.03241 0
M  V30 7514 C 691.918 3.13347 1.48372 0
M  V30 7515 C 690.979 4.20551 0.862268 0
M  V30 7516 C 690.212 4.98688 1.9012 0
M  V30 7517 O 690.435 4.77359 3.12225 0
M  V30 7518 O 689.369 5.83005 1.4963 0
M  V30 7519 H 693.195 3.02609 -0.257138 0
M  V30 7520 H 690.78 1.48163 -0.191851 0
M  V30 7521 H 692.662 3.64387 2.1166 0
M  V30 7522 H 691.337 2.44799 2.1179 0
M  V30 7523 H 690.244 3.73609 0.191568 0
M  V30 7524 H 691.577 4.91449 0.271704 0
M  V30 7525 N 693.229 0.160201 1.56784 0
M  V30 7526 C 694.159 -0.770264 2.2043 0
M  V30 7527 C 695.14 -1.24736 1.15651 0
M  V30 7528 O 696.325 -1.30253 1.44041 0
M  V30 7529 C 693.455 -2.00427 2.83631 0
M  V30 7530 C 692.409 -1.66345 3.94352 0
M  V30 7531 C 691.735 -2.97119 4.4455 0
M  V30 7532 C 693.035 -0.899972 5.14488 0
M  V30 7533 H 694.729 -0.239783 2.98438 0
M  V30 7534 H 692.275 -0.113891 1.43549 0
M  V30 7535 H 694.228 -2.66012 3.26827 0
M  V30 7536 H 692.952 -2.5587 2.02973 0
M  V30 7537 H 691.611 -1.03133 3.51794 0
M  V30 7538 H 691.259 -3.5058 3.60698 0
M  V30 7539 H 690.959 -2.75073 5.19238 0
M  V30 7540 H 692.483 -3.63753 4.90425 0
M  V30 7541 H 693.897 -1.45818 5.54446 0
M  V30 7542 H 692.294 -0.778968 5.95023 0
M  V30 7543 H 693.364 0.105827 4.84785 0
M  V30 7544 N 694.707 -1.5719 -0.113559 0
M  V30 7545 C 695.655 -2.01725 -1.158 0
M  V30 7546 C 696.649 -0.915105 -1.42556 0
M  V30 7547 O 697.855 -1.10031 -1.42454 0
M  V30 7548 H 694.23 -0.64262 -0.390569 0
M  V30 7549 H 696.201 -2.88666 -0.755926 0
M  V30 7550 C 694.95 -2.44203 -2.47507 0
M  V30 7551 H 694.273 -3.28582 -2.27758 0
M  V30 7552 H 695.713 -2.79158 -3.19135 0
M  V30 7553 C 694.172 -1.30785 -3.10478 0
M  V30 7554 O 694.702 -0.626807 -3.9678 0
M  V30 7555 N 692.908 -1.06352 -2.7044 0
M  V30 7556 H 692.455 -1.61913 -2.00355 0
M  V30 7557 H 692.413 -0.306614 -3.12901 0
M  V30 7558 N 696.185 0.383891 -1.52853 0
M  V30 7559 C 697.41 1.154 -1.7233 0
M  V30 7560 C 697.835 1.82809 -0.44298 0
M  V30 7561 O 697.193 1.71026 0.601645 0
M  V30 7562 C 697.241 2.17386 -2.87708 0
M  V30 7563 O 696.345 3.24082 -2.55038 0
M  V30 7564 H 695.686 0.335709 -0.572883 0
M  V30 7565 H 698.216 0.44662 -1.99666 0
M  V30 7566 H 698.226 2.61296 -3.1335 0
M  V30 7567 H 696.901 1.6771 -3.80587 0
M  V30 7568 H 695.478 2.85273 -2.40153 0
M  V30 7569 N 697.663 1.43903 0.642637 0
M  V30 7570 C 698.595 1.45857 1.768 0
M  V30 7571 C 699.608 0.353358 1.58919 0
M  V30 7572 O 700.797 0.618426 1.67445 0
M  V30 7573 C 697.897 1.26583 3.14372 0
M  V30 7574 C 697.07 2.50139 3.58817 0
M  V30 7575 C 696.129 2.25933 4.75227 0
M  V30 7576 O 695.155 2.99351 4.84125 0
M  V30 7577 N 696.357 1.28263 5.66153 0
M  V30 7578 H 699.122 2.42869 1.75598 0
M  V30 7579 H 696.683 1.39194 0.826832 0
M  V30 7580 H 698.675 1.08255 3.89953 0
M  V30 7581 H 697.245 0.37978 3.10284 0
M  V30 7582 H 696.465 2.83821 2.73568 0
M  V30 7583 H 697.753 3.32344 3.8526 0
M  V30 7584 H 697.151 0.676041 5.61646 0
M  V30 7585 H 695.708 1.15916 6.4141 0
M  V30 7586 N 699.141 -0.881989 1.30609 0
M  V30 7587 C 700.071 -2.00413 1.1982 0
M  V30 7588 C 701.052 -1.69871 0.0881538 0
M  V30 7589 O 702.237 -1.92304 0.2707 0
M  V30 7590 C 699.367 -3.35641 0.89233 0
M  V30 7591 C 698.321 -3.80451 1.96064 0
M  V30 7592 C 697.647 -5.13003 1.5077 0
M  V30 7593 C 698.947 -3.98855 3.37213 0
M  V30 7594 H 700.641 -2.09698 2.13699 0
M  V30 7595 H 698.187 -1.00754 1.02882 0
M  V30 7596 H 700.14 -4.13669 0.803497 0
M  V30 7597 H 698.864 -3.26497 -0.0821381 0
M  V30 7598 H 697.523 -3.04654 2.03916 0
M  V30 7599 H 697.171 -5.0029 0.521417 0
M  V30 7600 H 696.871 -5.43956 2.22229 0
M  V30 7601 H 698.395 -5.93554 1.43271 0
M  V30 7602 H 699.809 -4.67312 3.32103 0
M  V30 7603 H 698.206 -4.41188 4.06784 0
M  V30 7604 H 699.276 -3.02614 3.78883 0
M  V30 7605 N 700.619 -1.13374 -1.09472 0
M  V30 7606 C 701.549 -0.833268 -2.18126 0
M  V30 7607 C 702.53 0.207169 -1.68834 0
M  V30 7608 O 703.715 0.0662012 -1.94087 0
M  V30 7609 C 700.845 -0.297979 -3.46019 0
M  V30 7610 C 699.799 -1.27261 -4.08642 0
M  V30 7611 C 699.125 -0.597104 -5.31356 0
M  V30 7612 C 700.425 -2.63095 -4.51197 0
M  V30 7613 H 702.119 -1.74182 -2.43518 0
M  V30 7614 H 699.665 -0.838921 -1.17039 0
M  V30 7615 H 701.618 -0.0754444 -4.21332 0
M  V30 7616 H 700.342 0.645959 -3.20148 0
M  V30 7617 H 699.001 -1.48113 -3.35348 0
M  V30 7618 H 698.649 0.352293 -5.01765 0
M  V30 7619 H 698.349 -1.24734 -5.74208 0
M  V30 7620 H 699.873 -0.38384 -6.09392 0
M  V30 7621 H 701.287 -2.46214 -5.17737 0
M  V30 7622 H 699.684 -3.2429 -5.04932 0
M  V30 7623 H 700.754 -3.20793 -3.6362 0
M  V30 7624 N 702.098 1.27442 -0.927168 0
M  V30 7625 C 703.509 1.76385 -0.611979 0
M  V30 7626 C 703.86 1.75715 0.872853 0
M  V30 7627 O 702.985 1.3603 1.683 0
M  V30 7628 C 703.58 3.20303 -1.10414 0
M  V30 7629 C 702.139 3.66916 -0.839628 0
M  V30 7630 C 701.286 2.46859 -1.26317 0
M  V30 7631 H 704.237 1.13716 -1.107 0
M  V30 7632 H 704.258 3.77811 -0.451578 0
M  V30 7633 H 703.77 3.20759 -2.18484 0
M  V30 7634 H 701.871 3.71906 0.227292 0
M  V30 7635 H 701.984 4.56415 -1.45679 0
M  V30 7636 H 700.348 2.45407 -0.681723 0
M  V30 7637 H 701.131 2.50025 -2.3525 0
M  V30 7638 N 703.576 0.692616 1.41565 0
M  V30 7639 C 704.508 -0.0137132 2.29196 0
M  V30 7640 C 705.521 -0.747417 1.44629 0
M  V30 7641 O 706.71 -0.598611 1.68163 0
M  V30 7642 C 703.81 -1.04347 3.22436 0
M  V30 7643 C 702.983 -0.379985 4.35746 0
M  V30 7644 C 702.042 -1.31195 5.09583 0
M  V30 7645 O 701.068 -0.805455 5.63472 0
M  V30 7646 N 702.27 -2.64443 5.16769 0
M  V30 7647 H 705.035 0.738614 2.90456 0
M  V30 7648 H 702.596 0.538415 1.52685 0
M  V30 7649 H 704.588 -1.6686 3.687 0
M  V30 7650 H 703.158 -1.69736 2.62504 0
M  V30 7651 H 702.378 0.424975 3.91903 0
M  V30 7652 H 703.666 0.0814904 5.08735 0
M  V30 7653 H 703.064 -3.08114 4.74428 0
M  V30 7654 H 701.621 -3.22159 5.66619 0
M  V30 7655 N 705.054 -1.51416 0.437162 0
M  V30 7656 C 705.964 -2.31493 -0.380537 0
M  V30 7657 C 706.98 -1.40399 -1.02782 0
M  V30 7658 O 708.156 -1.73471 -1.02323 0
M  V30 7659 C 705.221 -3.1413 -1.46709 0
M  V30 7660 C 704.282 -4.21003 -0.839953 0
M  V30 7661 C 703.515 -4.9969 -1.87473 0
M  V30 7662 O 703.738 -4.79008 -3.09689 0
M  V30 7663 O 702.672 -5.8379 -1.46536 0
M  V30 7664 H 706.498 -3.02469 0.273183 0
M  V30 7665 H 704.083 -1.48059 0.199706 0
M  V30 7666 H 705.965 -3.65505 -2.09724 0
M  V30 7667 H 704.64 -2.45919 -2.10489 0
M  V30 7668 H 703.547 -3.73706 -0.171752 0
M  V30 7669 H 704.88 -4.91587 -0.245638 0
M  V30 7670 N 706.532 -0.168513 -1.56696 0
M  V30 7671 C 707.48 0.779791 -2.19139 0
M  V30 7672 C 708.474 1.23957 -1.1546 0
M  V30 7673 O 709.68 1.20555 -1.33666 0
M  V30 7674 H 706.055 0.269739 -0.701958 0
M  V30 7675 H 708.026 0.229156 -2.97519 0
M  V30 7676 C 706.775 2.00003 -2.84419 0
M  V30 7677 H 706.098 1.65527 -3.63924 0
M  V30 7678 H 707.538 2.64251 -3.31583 0
M  V30 7679 C 705.997 2.82187 -1.84044 0
M  V30 7680 O 706.527 3.79247 -1.32418 0
M  V30 7681 N 704.733 2.47145 -1.52864 0
M  V30 7682 H 704.28 1.68277 -1.9504 0
M  V30 7683 H 704.238 3.02422 -0.859569 0
M  V30 7684 N 708.01 1.57248 0.105221 0
M  V30 7685 C 709.426 1.52853 0.459153 0
M  V30 7686 C 709.626 0.883674 1.8109 0
M  V30 7687 O 708.682 0.471864 2.48052 0
M  V30 7688 C 709.995 2.97596 0.43096 0
M  V30 7689 C 711.543 3.08758 0.513536 0
M  V30 7690 C 712.018 4.55089 0.515593 0
M  V30 7691 N 713.509 4.59597 0.576639 0
M  V30 7692 C 714.244 5.70253 0.599904 0
M  V30 7693 N 713.74 6.90368 0.579985 0
M  V30 7694 N 715.533 5.58399 0.643953 0
M  V30 7695 H 707.684 1.97547 -0.780306 0
M  V30 7696 H 709.947 0.902758 -0.289363 0
M  V30 7697 H 709.653 3.48201 -0.494903 0
M  V30 7698 H 709.527 3.55756 1.2537 0
M  V30 7699 H 711.914 2.58148 1.42982 0
M  V30 7700 H 711.995 2.53568 -0.337148 0
M  V30 7701 H 711.639 5.06348 -0.396701 0
M  V30 7702 H 711.569 5.08105 1.38335 0
M  V30 7703 H 714.06 3.73144 0.597639 0
M  V30 7704 H 714.373 7.70462 0.600741 0
M  V30 7705 H 712.718 6.92843 0.547191 0
M  V30 7706 H 715.909 4.63467 0.656975 0
M  V30 7707 H 716.082 6.44644 0.658616 0
M  V30 7708 N 709.488 -0.375779 1.53054 0
M  V30 7709 C 710.418 -1.46598 1.81745 0
M  V30 7710 C 711.399 -1.56337 0.670286 0
M  V30 7711 O 712.584 -1.71071 0.919158 0
M  V30 7712 C 709.714 -2.84058 1.99821 0
M  V30 7713 C 708.668 -2.8915 3.15557 0
M  V30 7714 C 707.994 -4.29187 3.18908 0
M  V30 7715 C 709.294 -2.57595 4.54359 0
M  V30 7716 H 710.988 -1.22837 2.73041 0
M  V30 7717 H 708.534 -0.589485 1.31381 0
M  V30 7718 H 710.487 -3.60342 2.18475 0
M  V30 7719 H 709.211 -3.09184 1.05226 0
M  V30 7720 H 707.87 -2.15316 2.96706 0
M  V30 7721 H 707.518 -4.51374 2.2197 0
M  V30 7722 H 707.218 -4.33512 3.96662 0
M  V30 7723 H 708.742 -5.07359 3.39734 0
M  V30 7724 H 710.156 -3.23595 4.73243 0
M  V30 7725 H 708.553 -2.73252 5.34279 0
M  V30 7726 H 709.623 -1.52882 4.60169 0
M  V30 7727 N 710.966 -1.44241 -0.634997 0
M  V30 7728 C 712.191 -1.50516 -1.42687 0
M  V30 7729 C 712.616 -0.129864 -1.87651 0
M  V30 7730 O 711.974 0.880164 -1.58502 0
M  V30 7731 C 712.022 -2.4714 -2.62591 0
M  V30 7732 O 711.126 -1.97025 -3.62291 0
M  V30 7733 H 710.467 -0.50841 -0.427101 0
M  V30 7734 H 712.997 -1.89337 -0.775408 0
M  V30 7735 H 713.007 -2.65048 -3.10183 0
M  V30 7736 H 711.682 -3.47039 -2.29209 0
M  V30 7737 H 710.259 -1.88866 -3.21534 0
M  V30 7738 O 712.483 0.778386 -1.41504 0
M  V30 7739 H 713.174 1.42532 -1.31165 0
M  V30 END ATOM
M  V30 BEGIN BOND
M  V30 END BOND
M  V30 END CTAB
M  END
$$$$
