drugbank_target|Q13938 Calcyphosin (DB11093; DB11348; DB14481)
 OpenBabel12092121053D

  0  0  0     0  0            999 V3000
M  V30 BEGIN CTAB
M  V30 COUNTS 2890 2911 0 0 0
M  V30 BEGIN ATOM
M  V30 1 H -0.908 1.98254 -0.117106 0
M  V30 2 N 0 1.576 0 0
M  V30 3 C 0.933 2.03868 1.02534 0
M  V30 4 C 1.911 0.928543 1.3348 0
M  V30 5 O 3.095 1.19667 1.45644 0
M  V30 6 C 0.222 2.43627 2.35294 0
M  V30 7 C -0.732 3.65373 2.2001 0
M  V30 8 S 0.101 5.13292 1.52614 0
M  V30 9 C 1.257 5.56322 2.86805 0
M  V30 10 H 1.49 2.90518 0.631377 0
M  V30 11 H -0.977 1.52953 0.210867 0
M  V30 12 H 0.981 2.67203 3.11629 0
M  V30 13 H -0.358 1.57376 2.7183 0
M  V30 14 H -1.165 3.90944 3.18086 0
M  V30 15 H -1.563 3.418 1.51819 0
M  V30 16 H 0.729 5.58782 3.83104 0
M  V30 17 H 1.672 6.56266 2.65933 0
M  V30 18 H 2.08 4.83886 2.90714 0
M  V30 19 N 1.4781 -0.272755 1.55222 0
M  V30 20 C 2.7551 -1.02562 1.66555 0
M  V30 21 C 3.1351 -2.04282 0.532189 0
M  V30 22 O 2.4831 -2.23662 -0.467717 0
M  V30 23 C 2.6931 -1.6822 3.05782 0
M  V30 24 C 4.0411 -2.19373 3.63539 0
M  V30 25 O 5.0651 -1.78206 3.08417 0
M  V30 26 O 3.9241 -2.94883 4.60115 0
M  V30 27 H 1.0181 -0.475755 0.676451 0
M  V30 28 H 3.5641 -0.268593 1.67561 0
M  V30 29 H 2.3361 -0.945112 3.79715 0
M  V30 30 H 1.9591 -2.50609 3.08676 0
M  V30 31 N 2.9562 -1.48159 -0.537278 0
M  V30 32 C 3.9192 -1.61665 -1.62472 0
M  V30 33 C 4.9192 -0.490395 -1.5314 0
M  V30 34 O 6.1092 -0.755998 -1.5694 0
M  V30 35 C 3.2412 -1.57997 -3.02076 0
M  V30 36 H 4.4342 -2.58621 -1.51839 0
M  V30 37 H 1.9872 -1.36647 -0.758771 0
M  V30 38 H 2.7222 -0.624913 -3.18222 0
M  V30 39 H 2.5072 -2.39755 -3.10258 0
M  V30 40 H 3.9972 -1.70627 -3.81151 0
M  V30 41 N 4.4343 0.785586 -1.36625 0
M  V30 42 C 5.6803 1.54591 -1.31261 0
M  V30 43 C 6.0133 1.93906 0.106823 0
M  V30 44 O 5.2883 1.63007 1.06108 0
M  V30 45 C 5.5713 2.82038 -2.23889 0
M  V30 46 C 5.4243 2.49066 -3.74548 0
M  V30 47 C 6.7433 3.83887 -2.15217 0
M  V30 48 H 3.8623 0.560846 -0.478143 0
M  V30 49 H 6.5043 0.902278 -1.67209 0
M  V30 50 H 4.6543 3.36961 -1.93363 0
M  V30 51 H 6.3263 2.00164 -4.15611 0
M  V30 52 H 4.5693 1.81954 -3.93796 0
M  V30 53 H 5.2403 3.40109 -4.34776 0
M  V30 54 H 7.7163 3.38421 -2.42096 0
M  V30 55 H 6.5923 4.70806 -2.82193 0
M  V30 56 H 6.8533 4.27131 -1.14068 0
M  V30 57 N 5.9124 1.20967 1.01018 0
M  V30 58 C 7.1894 0.93264 1.71934 0
M  V30 59 C 7.5694 -0.55692 2.03621 0
M  V30 60 O 6.9174 -1.52035 1.7058 0
M  V30 61 C 7.1274 1.81233 2.98254 0
M  V30 62 C 8.4754 2.05804 3.71389 0
M  V30 63 O 9.4994 1.78539 3.08225 0
M  V30 64 O 8.3584 2.51888 4.84989 0
M  V30 65 H 5.4524 0.349272 0.749625 0
M  V30 66 H 7.9984 1.31871 1.06808 0
M  V30 67 H 6.7704 2.82067 2.71208 0
M  V30 68 H 6.3934 1.42674 3.7112 0
M  V30 69 N 7.3905 -1.2043 1.01659 0
M  V30 70 C 8.3535 -2.21433 0.591616 0
M  V30 71 C 9.3535 -1.57203 -0.338226 0
M  V30 72 O 10.5435 -1.73737 -0.126918 0
M  V30 73 C 7.6755 -3.40628 -0.136058 0
M  V30 74 H 8.8685 -2.60545 1.48514 0
M  V30 75 H 6.4215 -1.33893 0.806379 0
M  V30 76 H 7.1565 -3.07019 -1.04449 0
M  V30 77 H 6.9415 -3.88475 0.531917 0
M  V30 78 H 8.4315 -4.15475 -0.420735 0
M  V30 79 N 8.8686 -0.792821 -1.36206 0
M  V30 80 C 10.0966 -0.378825 -2.03402 0
M  V30 81 C 10.5116 1.00586 -1.59774 0
M  V30 82 O 9.8686 1.64574 -0.788764 0
M  V30 83 C 9.9196 -0.43683 -3.58851 0
M  V30 84 O 9.6406 -1.76691 -4.00889 0
M  V30 85 C 11.1416 -0.0138943 -4.43298 0
M  V30 86 H 8.3616 -0.155673 -0.652692 0
M  V30 87 H 10.9056 -1.07261 -1.74113 0
M  V30 88 H 9.0606 0.208575 -3.86838 0
M  V30 89 H 9.4746 -1.72011 -4.95492 0
M  V30 90 H 10.9486 -0.105615 -5.51899 0
M  V30 91 H 11.4256 1.03915 -4.2673 0
M  V30 92 H 12.0316 -0.63192 -4.20579 0
M  V30 93 N 10.3467 1.47872 -0.545128 0
M  V30 94 C 11.2797 2.2675 0.256885 0
M  V30 95 C 12.2577 1.33293 0.931228 0
M  V30 96 O 13.4417 1.62657 0.95262 0
M  V30 97 C 10.5687 3.09976 1.36501 0
M  V30 98 C 9.6147 4.1892 0.800496 0
M  V30 99 S 10.4477 5.34397 -0.343505 0
M  V30 100 C 11.6037 6.21186 0.766733 0
M  V30 101 H 11.8367 2.94425 -0.412479 0
M  V30 102 H 9.3697 1.50806 -0.331204 0
M  V30 103 H 11.3277 3.585 1.9997 0
M  V30 104 H 9.9887 2.41686 2.00616 0
M  V30 105 H 9.1817 4.76836 1.63227 0
M  V30 106 H 8.7837 3.73215 0.242217 0
M  V30 107 H 11.0757 6.56804 1.66178 0
M  V30 108 H 12.0187 7.07742 0.225204 0
M  V30 109 H 12.4267 5.54574 1.05396 0
M  V30 110 N 11.8248 0.280983 1.55075 0
M  V30 111 C 12.7348 -0.61388 2.26426 0
M  V30 112 C 13.7508 -1.16521 1.29224 0
M  V30 113 O 14.9268 -1.19426 1.62171 0
M  V30 114 C 11.9918 -1.7788 2.9759 0
M  V30 115 C 11.0528 -1.26355 4.10284 0
M  V30 116 C 10.2858 -2.37295 4.78045 0
M  V30 117 O 10.5088 -3.56777 4.45047 0
M  V30 118 O 9.4428 -2.05119 5.65871 0
M  V30 119 H 13.2688 -0.0356932 3.03679 0
M  V30 120 H 10.8538 0.0481686 1.49322 0
M  V30 121 H 12.7358 -2.45791 3.42293 0
M  V30 122 H 11.4108 -2.34397 2.23249 0
M  V30 123 H 10.3178 -0.550735 3.70024 0
M  V30 124 H 11.6508 -0.744065 4.86543 0
M  V30 125 N 13.3029 -1.57598 0.00835791 0
M  V30 126 C 14.2499 -2.08945 -0.980346 0
M  V30 127 C 15.2199 -0.986738 -1.33614 0
M  V30 128 O 16.4049 -1.25968 -1.43306 0
M  V30 129 C 13.5449 -2.60425 -2.26435 0
M  V30 130 C 12.6579 -3.84628 -1.96685 0
M  V30 131 C 11.7929 -4.24579 -3.19228 0
M  V30 132 C 10.8319 -5.41596 -2.85202 0
M  V30 133 N 9.9689 -5.768 -4.00307 0
M  V30 134 H 14.8089 -2.93148 -0.535551 0
M  V30 135 H 12.3459 -1.44912 -0.252776 0
M  V30 136 H 14.3039 -2.88354 -3.01509 0
M  V30 137 H 12.9339 -1.79083 -2.68568 0
M  V30 138 H 11.9859 -3.63556 -1.11942 0
M  V30 139 H 13.2979 -4.69796 -1.67611 0
M  V30 140 H 12.4519 -4.53834 -4.02641 0
M  V30 141 H 11.1909 -3.38137 -3.51447 0
M  V30 142 H 10.1959 -5.12056 -2.00198 0
M  V30 143 H 11.4209 -6.29721 -2.54222 0
M  V30 144 H 9.3669 -4.93316 -4.32407 0
M  V30 145 H 9.2839 -6.5656 -3.74786 0
M  V30 146 H 10.5519 -6.10652 -4.84484 0
M  V30 147 N 14.781 0.264519 -1.55364 0
M  V30 148 C 15.711 1.33121 -1.91836 0
M  V30 149 C 16.692 1.51101 -0.781192 0
M  V30 150 O 17.877 1.64003 -1.04003 0
M  V30 151 C 15.007 2.68921 -2.19769 0
M  V30 152 C 13.961 2.65661 -3.35571 0
M  V30 153 C 13.287 4.05093 -3.49004 0
M  V30 154 C 14.587 2.24187 -4.71739 0
M  V30 155 H 16.281 1.02844 -2.81182 0
M  V30 156 H 13.827 0.493286 -1.35287 0
M  V30 157 H 15.78 3.43663 -2.43872 0
M  V30 158 H 14.504 3.00799 -1.27231 0
M  V30 159 H 13.163 1.93377 -3.1145 0
M  V30 160 H 12.811 4.34206 -2.53917 0
M  V30 161 H 12.511 4.03804 -4.26868 0
M  V30 162 H 14.035 4.81561 -3.75408 0
M  V30 163 H 15.449 2.88654 -4.9533 0
M  V30 164 H 13.846 2.34044 -5.52579 0
M  V30 165 H 14.916 1.19327 -4.69988 0
M  V30 166 N 16.2591 1.48442 0.529413 0
M  V30 167 C 17.6751 1.34575 0.858004 0
M  V30 168 C 17.8751 0.3572 1.98309 0
M  V30 169 O 16.9311 -0.221379 2.51528 0
M  V30 170 C 18.2441 2.74617 1.22499 0
M  V30 171 C 19.7921 2.83109 1.33484 0
M  V30 172 C 20.2671 4.23854 1.73526 0
M  V30 173 N 21.7581 4.2653 1.80628 0
M  V30 174 C 22.4931 5.32372 2.12997 0
M  V30 175 N 21.9891 6.48491 2.43786 0
M  V30 176 N 23.7821 5.19766 2.14008 0
M  V30 177 H 15.9331 2.1133 -0.212925 0
M  V30 178 H 18.1961 0.947439 -0.0326199 0
M  V30 179 H 17.9021 3.4852 0.471905 0
M  V30 180 H 17.7761 3.08177 2.17501 0
M  V30 181 H 20.1631 2.09462 2.0787 0
M  V30 182 H 20.2441 2.53168 0.366027 0
M  V30 183 H 19.8881 4.98018 0.997013 0
M  V30 184 H 19.8181 4.5124 2.71459 0
M  V30 185 H 22.3091 3.42772 1.59108 0
M  V30 186 H 22.6221 7.24993 2.67592 0
M  V30 187 H 20.9671 6.51765 2.41304 0
M  V30 188 H 24.1581 4.28066 1.89412 0
M  V30 189 H 24.3311 6.02354 2.38902 0
M  V30 190 N 17.7372 -0.778329 1.37039 0
M  V30 191 C 18.7002 -1.87301 1.32102 0
M  V30 192 C 19.7002 -1.59198 0.226405 0
M  V30 193 O 20.8902 -1.67403 0.481861 0
M  V30 194 C 18.0222 -3.24309 1.05055 0
M  V30 195 H 19.2152 -1.93093 2.29467 0
M  V30 196 H 16.7682 -0.977358 1.21973 0
M  V30 197 H 17.5032 -3.24196 0.0819373 0
M  V30 198 H 17.2882 -3.46098 1.84279 0
M  V30 199 H 18.7782 -4.04382 1.04234 0
M  V30 200 N 19.2153 -1.21501 -1.00376 0
M  V30 201 C 20.1473 -0.933174 -2.09343 0
M  V30 202 C 21.1603 0.0840896 -1.62583 0
M  V30 203 O 22.3493 -0.148563 -1.77881 0
M  V30 204 C 19.4493 -0.379869 -3.36764 0
M  V30 205 C 18.6223 -1.45176 -4.12605 0
M  V30 206 C 17.6813 -0.907476 -5.18316 0
M  V30 207 O 16.7073 -1.5912 -5.46507 0
M  V30 208 N 17.9093 0.276649 -5.7984 0
M  V30 209 H 20.6743 -1.87124 -2.34104 0
M  V30 210 H 18.2353 -1.12043 -1.16867 0
M  V30 211 H 20.2273 -0.00131488 -4.047 0
M  V30 212 H 18.7973 0.463048 -3.09151 0
M  V30 213 H 18.0173 -2.00411 -3.39454 0
M  V30 214 H 19.3053 -2.17328 -4.6005 0
M  V30 215 H 18.7033 0.849147 -5.59291 0
M  V30 216 H 17.2603 0.596702 -6.49063 0
M  V30 217 N 20.6934 1.19889 -1.02296 0
M  V30 218 C 21.9334 1.91125 -0.724602 0
M  V30 219 C 22.2974 1.77464 0.732835 0
M  V30 220 O 23.4984 2.43241 1.144 0
M  V30 221 C 21.7694 3.38187 -1.15604 0
M  V30 222 S 23.3284 4.27702 -0.980621 0
M  V30 223 H 20.1464 0.66018 -0.263976 0
M  V30 224 H 22.7484 1.44978 -1.31155 0
M  V30 225 H 21.4524 3.45653 -2.21251 0
M  V30 226 H 20.9834 3.89363 -0.562131 0
M  V30 227 H 22.9984 4.96073 0.112225 0
M  V30 228 N 22.1715 0.800033 1.35784 0
M  V30 229 C 23.1015 0.220184 2.3246 0
M  V30 230 C 24.0825 -0.65073 1.57161 0
M  V30 231 O 25.2675 -0.582359 1.85263 0
M  V30 232 C 22.3975 -0.637353 3.41402 0
M  V30 233 C 21.3515 0.134531 4.27789 0
M  V30 234 C 20.6775 -0.844285 5.27992 0
M  V30 235 C 21.9775 1.32979 5.05088 0
M  V30 236 H 23.6715 1.02787 2.81203 0
M  V30 237 H 21.2175 0.495717 1.35199 0
M  V30 238 H 23.1705 -1.05302 4.08031 0
M  V30 239 H 21.8945 -1.47785 2.91251 0
M  V30 240 H 20.5535 0.531296 3.6273 0
M  V30 241 H 20.2015 -1.68011 4.74111 0
M  V30 242 H 19.9015 -0.332184 5.8666 0
M  V30 243 H 21.4255 -1.2583 5.97494 0
M  V30 244 H 22.8395 0.98934 5.64699 0
M  V30 245 H 21.2365 1.77593 5.7322 0
M  V30 246 H 22.3065 2.11978 4.36111 0
M  V30 247 N 23.6496 -1.47581 0.552962 0
M  V30 248 C 24.8746 -2.07378 0.0300593 0
M  V30 249 C 25.2996 -1.40355 -1.25229 0
M  V30 250 O 24.6576 -0.477099 -1.7491 0
M  V30 251 C 24.7056 -3.60274 -0.153231 0
M  V30 252 O 23.8096 -3.94041 -1.21678 0
M  V30 253 H 23.1506 -0.662158 0.0494182 0
M  V30 254 H 25.6806 -1.89662 0.767434 0
M  V30 255 H 25.6906 -4.0633 -0.368761 0
M  V30 256 H 24.3656 -4.08455 0.783397 0
M  V30 257 H 22.9426 -3.59735 -0.982079 0
M  V30 258 N 25.1277 -0.289203 -1.54924 0
M  V30 259 C 26.5437 0.0645403 -1.59469 0
M  V30 260 C 26.7437 1.53419 -1.30632 0
M  V30 261 O 25.7997 2.2852 -1.074 0
M  V30 262 C 27.1127 -0.32278 -2.98963 0
M  V30 263 C 28.6607 -0.270564 -3.11828 0
M  V30 264 C 29.1357 -0.632532 -4.53611 0
M  V30 265 N 30.6267 -0.584617 -4.59496 0
M  V30 266 C 31.3617 -0.837314 -5.67254 0
M  V30 267 N 30.8577 -1.15536 -6.83098 0
M  V30 268 N 32.6507 -0.765166 -5.56868 0
M  V30 269 H 24.8017 -1.24714 -1.71931 0
M  V30 270 H 27.0647 -0.504809 -0.802416 0
M  V30 271 H 26.7707 -1.34541 -3.24948 0
M  V30 272 H 26.6447 0.32944 -3.75759 0
M  V30 273 H 29.0317 0.742805 -2.85598 0
M  V30 274 H 29.1127 -0.957242 -2.37214 0
M  V30 275 H 28.7567 -1.64365 -4.80569 0
M  V30 276 H 28.6867 0.07609 -5.26545 0
M  V30 277 H 31.1777 -0.349248 -3.76283 0
M  V30 278 H 31.4907 -1.33447 -7.61191 0
M  V30 279 H 29.8357 -1.19328 -6.84679 0
M  V30 280 H 33.0267 -0.516432 -4.65243 0
M  V30 281 H 33.1997 -0.965477 -6.40767 0
M  V30 282 N 26.6058 1.57591 -0.0167156 0
M  V30 283 C 27.8538 1.90906 0.663285 0
M  V30 284 C 28.1748 0.892509 1.73376 0
M  V30 285 O 27.4448 -0.0677623 1.95783 0
M  V30 286 H 26.0248 0.704637 0.247983 0
M  V30 287 H 28.6868 1.94803 -0.0615909 0
M  V30 288 H 27.7828 2.9116 1.12393 0
M  V30 289 N 28.0839 -0.256276 1.55502 0
M  V30 290 C 29.0469 -1.30047 1.88734 0
M  V30 291 C 30.0469 -1.4154 0.763086 0
M  V30 292 O 31.2369 -1.40403 1.03115 0
M  V30 293 C 28.3689 -2.67953 2.10747 0
M  V30 294 H 29.5619 -1.01802 2.82093 0
M  V30 295 H 27.1149 -0.495134 1.4825 0
M  V30 296 H 27.8499 -3.01351 1.19825 0
M  V30 297 H 27.6349 -2.60993 2.92617 0
M  V30 298 H 29.1249 -3.43368 2.37673 0
M  V30 299 N 29.562 -1.4872 -0.521534 0
M  V30 300 C 30.787 -1.61101 -1.30618 0
M  V30 301 C 31.212 -0.274611 -1.86085 0
M  V30 302 O 30.57 0.754937 -1.64834 0
M  V30 303 C 30.618 -2.66709 -2.4269 0
M  V30 304 O 29.722 -2.24456 -3.45967 0
M  V30 305 H 29.063 -0.539921 -0.386499 0
M  V30 306 H 31.593 -1.94767 -0.626645 0
M  V30 307 H 31.603 -2.88245 -2.88754 0
M  V30 308 H 30.278 -3.63727 -2.01682 0
M  V30 309 H 28.855 -2.13168 -3.05964 0
M  V30 310 N 31.0401 0.771051 -1.3745 0
M  V30 311 C 32.2881 1.52661 -1.32435 0
M  V30 312 C 32.6091 1.9479 0.0905024 0
M  V30 313 O 31.8791 1.66348 1.03466 0
M  V30 314 H 30.4591 0.566218 -0.487244 0
M  V30 315 H 33.1211 0.917636 -1.71946 0
M  V30 316 H 32.2171 2.42568 -1.96385 0
M  V30 317 N 32.5182 1.22032 0.997298 0
M  V30 318 C 33.7672 1.03637 1.73038 0
M  V30 319 C 34.0802 -0.429475 1.90827 0
M  V30 320 O 35.2862 -0.732995 2.61418 0
M  V30 321 C 33.7422 1.80582 3.11317 0
M  V30 322 C 33.3502 3.31387 3.01474 0
M  V30 323 C 35.0942 1.70621 3.88701 0
M  V30 324 C 33.0012 4.00791 4.3488 0
M  V30 325 H 31.9312 0.384179 0.648785 0
M  V30 326 H 34.5822 1.4584 1.11368 0
M  V30 327 H 32.9642 1.31175 3.73643 0
M  V30 328 H 34.1382 3.88155 2.4834 0
M  V30 329 H 32.4532 3.41976 2.37575 0
M  V30 330 H 35.0502 2.19799 4.87434 0
M  V30 331 H 35.3932 0.665823 4.10941 0
M  V30 332 H 35.9262 2.17547 3.33044 0
M  V30 333 H 32.6652 5.05064 4.1784 0
M  V30 334 H 32.1852 3.48811 4.87945 0
M  V30 335 H 33.8642 4.06139 5.03647 0
M  V30 336 N 33.9963 -1.19345 1.0293 0
M  V30 337 C 34.9283 -2.22036 0.56857 0
M  V30 338 C 35.9413 -1.58865 -0.355779 0
M  V30 339 O 37.1303 -1.77851 -0.152103 0
M  V30 340 C 34.2303 -3.38363 -0.190752 0
M  V30 341 C 33.4033 -4.31118 0.738643 0
M  V30 342 C 32.4623 -5.26194 0.0246497 0
M  V30 343 O 31.4883 -5.65461 0.651354 0
M  V30 344 N 32.6903 -5.66971 -1.24594 0
M  V30 345 H 35.4553 -2.6219 1.45177 0
M  V30 346 H 33.0163 -1.34015 0.908381 0
M  V30 347 H 35.0083 -3.98981 -0.677961 0
M  V30 348 H 33.5783 -2.96994 -0.975366 0
M  V30 349 H 32.7983 -3.68276 1.40593 0
M  V30 350 H 34.0863 -4.90001 1.37029 0
M  V30 351 H 33.4843 -5.37104 -1.77583 0
M  V30 352 H 32.0413 -6.2984 -1.67764 0
M  V30 353 N 35.4744 -0.807222 -1.35358 0
M  V30 354 C 36.7224 -0.387122 -1.98358 0
M  V30 355 C 37.0434 1.04942 -1.64354 0
M  V30 356 O 36.3134 1.72615 -0.926339 0
M  V30 357 H 34.8934 -0.140154 -0.733734 0
M  V30 358 H 37.5554 -1.0332 -1.6526 0
M  V30 359 H 36.6514 -0.493352 -3.08176 0
M  V30 360 N 36.9525 1.47285 -0.560781 0
M  V30 361 C 37.8825 2.32857 0.173105 0
M  V30 362 C 38.8635 1.44009 0.905281 0
M  V30 363 O 40.0485 1.7286 0.885046 0
M  V30 364 C 37.1785 3.25861 1.20133 0
M  V30 365 C 36.1325 4.23978 0.585388 0
M  V30 366 C 35.4585 5.06332 1.7185 0
M  V30 367 C 36.7585 5.20242 -0.463178 0
M  V30 368 H 38.4525 2.94466 -0.541307 0
M  V30 369 H 35.9985 1.41601 -0.261764 0
M  V30 370 H 37.9515 3.84569 1.72293 0
M  V30 371 H 36.6755 2.62315 1.94573 0
M  V30 372 H 35.3345 3.66501 0.085054 0
M  V30 373 H 34.9825 4.39186 2.45203 0
M  V30 374 H 34.6825 5.72762 1.31213 0
M  V30 375 H 36.2065 5.67899 2.24329 0
M  V30 376 H 37.6205 5.73293 -0.027502 0
M  V30 377 H 36.0175 5.94896 -0.788627 0
M  V30 378 H 37.0875 4.65504 -1.35773 0
M  V30 379 N 38.4306 0.297415 1.54768 0
M  V30 380 C 39.3936 -0.567375 2.22066 0
M  V30 381 C 40.3936 -1.06409 1.20556 0
M  V30 382 O 41.5836 -0.960691 1.45315 0
M  V30 383 C 38.7156 -1.78517 2.90421 0
M  V30 384 H 39.9086 0.0205534 2.99893 0
M  V30 385 H 37.4616 0.0482163 1.56226 0
M  V30 386 H 38.1966 -2.41303 2.16664 0
M  V30 387 H 37.9816 -1.43669 3.64831 0
M  V30 388 H 39.4716 -2.39964 3.41771 0
M  V30 389 N 39.9087 -1.5758 0.0250728 0
M  V30 390 C 41.3247 -1.56124 -0.331282 0
M  V30 391 C 41.5247 -1.03029 -1.73169 0
M  V30 392 O 40.5807 -0.675215 -2.43305 0
M  V30 393 C 41.8937 -3.00139 -0.183584 0
M  V30 394 C 43.4417 -3.11946 -0.256654 0
M  V30 395 C 43.9167 -4.57793 -0.137792 0
M  V30 396 N 45.4077 -4.6279 -0.194904 0
M  V30 397 C 46.1427 -5.7326 -0.126655 0
M  V30 398 N 45.6387 -6.928 -0.00755288 0
M  V30 399 N 47.4317 -5.61811 -0.180348 0
M  V30 400 H 39.5827 -1.90424 0.94087 0
M  V30 401 H 41.8457 -0.875761 0.362968 0
M  V30 402 H 41.5517 -3.4292 0.780927 0
M  V30 403 H 41.4257 -3.64899 -0.955448 0
M  V30 404 H 43.8127 -2.69079 -1.21162 0
M  V30 405 H 43.8937 -2.49915 0.545517 0
M  V30 406 H 43.5377 -5.01339 0.813739 0
M  V30 407 H 43.4677 -5.17798 -0.958775 0
M  V30 408 H 45.9587 -3.76807 -0.287267 0
M  V30 409 H 46.2717 -7.72791 0.0379428 0
M  V30 410 H 44.6167 -6.94995 0.0271731 0
M  V30 411 H 47.8077 -4.6731 -0.271767 0
M  V30 412 H 47.9807 -6.47882 -0.123697 0
M  V30 413 N 41.3868 0.248026 -1.55636 0
M  V30 414 C 42.6338 0.976224 -1.77415 0
M  V30 415 C 42.9618 1.85361 -0.589193 0
M  V30 416 O 42.2168 1.90973 0.427529 0
M  V30 417 C 42.5158 1.86819 -3.04686 0
M  V30 418 C 42.1818 1.14625 -4.36087 0
M  V30 419 C 40.8438 0.946723 -4.71795 0
M  V30 420 C 43.1958 0.634463 -5.17324 0
M  V30 421 C 40.5238 0.223091 -5.86276 0
M  V30 422 C 42.8758 -0.0756959 -6.32555 0
M  V30 423 C 41.5398 -0.286711 -6.66884 0
M  V30 424 H 40.8098 0.357226 -0.649208 0
M  V30 425 H 43.4568 0.246415 -1.89908 0
M  V30 426 H 41.7618 2.66502 -2.872 0
M  V30 427 H 43.4588 2.43329 -3.18735 0
M  V30 428 H 40.0488 1.3117 -4.08035 0
M  V30 429 H 44.2328 0.77616 -4.90193 0
M  V30 430 H 39.4888 0.0491185 -6.1138 0
M  V30 431 H 43.6628 -0.479899 -6.94745 0
M  V30 432 H 41.2898 -0.849389 -7.5544 0
M  V30 433 N 42.8649 1.48995 0.513639 0
M  V30 434 C 44.1119 1.57843 1.26854 0
M  V30 435 C 44.4399 0.259501 1.92761 0
M  V30 436 O 43.6949 -0.75159 1.80692 0
M  V30 437 C 43.9939 2.67756 2.36731 0
M  V30 438 C 43.6599 4.09669 1.88368 0
M  V30 439 C 42.3219 4.48291 1.74896 0
M  V30 440 C 44.6739 4.98537 1.52021 0
M  V30 441 C 42.0019 5.73568 1.23438 0
M  V30 442 C 44.3539 6.24319 1.0202 0
M  V30 443 C 43.0179 6.61783 0.871778 0
M  V30 444 H 42.2879 0.577587 0.464192 0
M  V30 445 H 44.9349 1.82778 0.571366 0
M  V30 446 H 43.2399 2.36743 3.12185 0
M  V30 447 H 44.9369 2.71813 2.9482 0
M  V30 448 H 41.5269 3.79176 1.99808 0
M  V30 449 H 45.7109 4.69363 1.61281 0
M  V30 450 H 40.9669 6.01304 1.10648 0
M  V30 451 H 45.1409 6.92566 0.729722 0
M  V30 452 H 42.7679 7.5874 0.470852 0
M  V30 453 N 44.343 -0.763751 1.37857 0
M  V30 454 C 45.759 -1.06542 1.18832 0
M  V30 455 C 45.959 -2.01478 0.0299722 0
M  V30 456 O 45.015 -2.4458 -0.627447 0
M  V30 457 C 46.328 -1.65525 2.51042 0
M  V30 458 C 47.876 -1.77745 2.57635 0
M  V30 459 C 48.351 -2.4014 3.89996 0
M  V30 460 N 49.842 -2.47582 3.91481 0
M  V30 461 C 50.577 -2.96732 4.9065 0
M  V30 462 N 50.073 -3.45993 6.00217 0
M  V30 463 N 51.866 -2.95679 4.78048 0
M  V30 464 H 44.017 -0.133556 2.1198 0
M  V30 465 H 46.28 -0.121879 0.940133 0
M  V30 466 H 45.986 -1.03236 3.36207 0
M  V30 467 H 45.86 -2.64719 2.68707 0
M  V30 468 H 48.247 -2.39164 1.72872 0
M  V30 469 H 48.328 -0.772836 2.43846 0
M  V30 470 H 47.972 -1.79358 4.75177 0
M  V30 471 H 47.902 -3.41223 4.01092 0
M  V30 472 H 50.393 -2.1273 3.12337 0
M  V30 473 H 50.706 -3.81922 6.7183 0
M  V30 474 H 49.051 -3.44077 6.03851 0
M  V30 475 H 52.242 -2.56499 3.91568 0
M  V30 476 H 52.415 -3.33672 5.55488 0
M  V30 477 N 45.8211 -1.22559 -0.990812 0
M  V30 478 C 46.7531 -0.955325 -2.08342 0
M  V30 479 C 47.7661 0.0668408 -1.62663 0
M  V30 480 O 48.9551 -0.167421 -1.77713 0
M  V30 481 C 46.0551 -0.415566 -3.36342 0
M  V30 482 C 45.2281 -1.49544 -4.11042 0
M  V30 483 C 44.2871 -0.962399 -5.17324 0
M  V30 484 O 43.3131 -1.64907 -5.44788 0
M  V30 485 N 44.5151 0.215134 -5.80101 0
M  V30 486 H 47.2801 -1.89596 -2.32106 0
M  V30 487 H 44.8411 -1.13276 -1.15673 0
M  V30 488 H 46.8331 -0.0442386 -4.04676 0
M  V30 489 H 45.4031 0.430232 -3.09625 0
M  V30 490 H 44.6231 -2.04 -3.37309 0
M  V30 491 H 45.9111 -2.22195 -4.57719 0
M  V30 492 H 45.3091 0.789779 -5.6016 0
M  V30 493 H 43.8661 0.527826 -6.49659 0
M  V30 494 N 47.2992 1.18797 -1.03562 0
M  V30 495 C 48.2292 2.24472 -0.643019 0
M  V30 496 C 49.2102 1.66433 0.351283 0
M  V30 497 O 50.3952 1.92803 0.232505 0
M  V30 498 C 47.5252 3.473 4.24935e-05 0
M  V30 499 C 46.4792 4.18055 -0.917257 0
M  V30 500 C 45.8052 5.34519 -0.138941 0
M  V30 501 C 47.1052 4.72109 -2.23407 0
M  V30 502 H 48.7992 2.57566 -1.52643 0
M  V30 503 H 46.3452 1.23806 -0.735394 0
M  V30 504 H 48.2982 4.20426 0.286383 0
M  V30 505 H 47.0222 3.13424 0.918299 0
M  V30 506 H 45.6812 3.46821 -1.1879 0
M  V30 507 H 45.3292 4.96891 0.781562 0
M  V30 508 H 45.0292 5.82794 -0.750005 0
M  V30 509 H 46.5532 6.10438 0.1405 0
M  V30 510 H 47.9672 5.36955 -2.00879 0
M  V30 511 H 46.3642 5.30897 -2.79765 0
M  V30 512 H 47.4342 3.89807 -2.88407 0
M  V30 513 N 48.7773 0.814389 1.34928 0
M  V30 514 C 50.0543 0.321363 1.92942 0
M  V30 515 C 50.4343 -1.19014 1.74353 0
M  V30 516 O 49.7823 -1.99328 1.11716 0
M  V30 517 C 49.9923 0.741323 3.41036 0
M  V30 518 C 51.3403 0.735266 4.18185 0
M  V30 519 O 52.3643 0.68336 3.49584 0
M  V30 520 O 51.2233 0.800703 5.40602 0
M  V30 521 H 48.3173 0.0858893 0.822528 0
M  V30 522 H 50.8633 0.898609 1.43955 0
M  V30 523 H 49.6353 1.78276 3.4833 0
M  V30 524 H 49.2583 0.139307 3.97356 0
M  V30 525 N 50.2554 -1.46986 0.568584 0
M  V30 526 C 51.6714 -1.57946 0.229189 0
M  V30 527 C 51.8714 -1.56567 -1.26843 0
M  V30 528 O 50.9274 -1.47511 -2.04931 0
M  V30 529 C 52.2404 -2.87963 0.865909 0
M  V30 530 C 53.7884 -3.01568 0.838188 0
M  V30 531 C 54.2634 -4.34301 1.45419 0
M  V30 532 N 55.7544 -4.40965 1.41788 0
M  V30 533 C 56.4894 -5.42256 1.86403 0
M  V30 534 N 55.9854 -6.50297 2.38926 0
M  V30 535 N 57.7784 -5.3337 1.77405 0
M  V30 536 H 49.9294 -1.46126 1.54146 0
M  V30 537 H 52.1924 -0.696156 0.643484 0
M  V30 538 H 51.8984 -2.94742 1.91886 0
M  V30 539 H 51.7724 -3.75423 0.365687 0
M  V30 540 H 54.1594 -2.94379 -0.206106 0
M  V30 541 H 54.2404 -2.1562 1.37629 0
M  V30 542 H 53.8844 -4.42247 2.49761 0
M  V30 543 H 53.8144 -5.19 0.891435 0
M  V30 544 H 56.3054 -3.63484 1.03381 0
M  V30 545 H 56.6184 -7.23777 2.70863 0
M  V30 546 H 54.9634 -6.51155 2.42944 0
M  V30 547 H 58.1544 -4.47865 1.3614 0
M  V30 548 H 58.3274 -6.12169 2.12492 0
M  V30 549 N 51.7335 -0.305618 -1.54608 0
M  V30 550 C 53.0105 0.355652 -1.92339 0
M  V30 551 C 53.3905 1.71324 -1.23335 0
M  V30 552 O 52.7385 2.25473 -0.370702 0
M  V30 553 C 52.9485 0.46572 -3.45879 0
M  V30 554 C 54.2965 0.734426 -4.182 0
M  V30 555 O 55.3205 0.54935 -3.51938 0
M  V30 556 O 54.1795 1.09024 -5.35515 0
M  V30 557 H 51.2735 0.199666 -0.802535 0
M  V30 558 H 53.8195 -0.354017 -1.65966 0
M  V30 559 H 52.5915 -0.488461 -3.88239 0
M  V30 560 H 52.2145 1.22367 -3.78301 0
M  V30 561 N 53.2116 1.57565 -0.0334293 0
M  V30 562 C 54.4596 1.91598 0.642999 0
M  V30 563 C 54.7806 0.910847 1.7242 0
M  V30 564 O 54.0506 -0.0469931 1.95844 0
M  V30 565 H 52.6306 0.707228 0.240496 0
M  V30 566 H 55.2926 1.94726 -0.0822488 0
M  V30 567 H 54.3886 2.92336 1.09298 0
M  V30 568 N 54.6897 -0.239769 1.55765 0
M  V30 569 C 55.9147 -0.988373 1.82335 0
M  V30 570 C 56.3397 -1.77886 0.611421 0
M  V30 571 O 55.6977 -1.75889 -0.439639 0
M  V30 572 C 55.7457 -1.89627 3.06715 0
M  V30 573 O 54.8497 -2.98904 2.84131 0
M  V30 574 H 54.1907 -0.280858 0.601677 0
M  V30 575 H 56.7207 -0.258597 2.02959 0
M  V30 576 H 56.7307 -2.30957 3.36338 0
M  V30 577 H 55.4057 -1.31511 3.9456 0
M  V30 578 H 53.9827 -2.61651 2.65694 0
M  V30 579 N 56.1678 -1.49265 -0.50573 0
M  V30 580 C 57.5838 -1.35923 -0.836486 0
M  V30 581 C 57.7838 -0.388704 -1.97715 0
M  V30 582 O 56.8398 0.181336 -2.51848 0
M  V30 583 C 58.1528 -2.76531 -1.18115 0
M  V30 584 C 59.7008 -2.85197 -1.28964 0
M  V30 585 C 60.1758 -4.26561 -1.66761 0
M  V30 586 N 61.6668 -4.2935 -1.73819 0
M  V30 587 C 62.4018 -5.35693 -2.045 0
M  V30 588 N 61.8978 -6.52287 -2.33438 0
M  V30 589 N 63.6908 -5.23105 -2.05711 0
M  V30 590 H 55.8418 -2.10965 0.246519 0
M  V30 591 H 58.1048 -0.9468 0.0476887 0
M  V30 592 H 57.8108 -3.49226 -0.416398 0
M  V30 593 H 57.6848 -3.11599 -2.1257 0
M  V30 594 H 60.0718 -2.12742 -2.04511 0
M  V30 595 H 60.1528 -2.53718 -0.325704 0
M  V30 596 H 59.7968 -4.99541 -0.917656 0
M  V30 597 H 59.7268 -4.55502 -2.64246 0
M  V30 598 H 62.2178 -3.4526 -1.53635 0
M  V30 599 H 62.5308 -7.29158 -2.56024 0
M  V30 600 H 60.8758 -6.55521 -2.30905 0
M  V30 601 H 64.0668 -4.31026 -1.82577 0
M  V30 602 H 64.2398 -6.06078 -2.29289 0
M  V30 603 N 57.6459 0.756429 -1.3826 0
M  V30 604 C 58.8709 1.55077 -1.37717 0
M  V30 605 C 59.2959 1.88073 0.03164 0
M  V30 606 O 58.6539 1.50364 1.01293 0
M  V30 607 C 58.7019 2.8283 -2.23695 0
M  V30 608 O 57.8059 3.77862 -1.6521 0
M  V30 609 H 57.1469 0.469152 -0.469885 0
M  V30 610 H 59.6769 0.935019 -1.81985 0
M  V30 611 H 59.6869 3.31783 -2.37453 0
M  V30 612 H 58.3619 2.58144 -3.2609 0
M  V30 613 H 56.9389 3.36555 -1.60578 0
M  V30 614 N 59.124 1.23083 0.984299 0
M  V30 615 C 60.054 1.03292 2.09411 0
M  V30 616 C 61.035 -0.048923 1.7003 0
M  V30 617 O 62.22 0.114967 1.93859 0
M  V30 618 C 59.35 0.619155 3.41736 0
M  V30 619 C 58.304 1.64791 3.95004 0
M  V30 620 C 57.63 1.0897 5.23478 0
M  V30 621 C 58.93 3.03999 4.24714 0
M  V30 622 H 60.624 1.96119 2.26225 0
M  V30 623 H 58.17 0.944344 1.08711 0
M  V30 624 H 60.123 0.467777 4.18796 0
M  V30 625 H 58.847 -0.344786 3.24775 0
M  V30 626 H 57.506 1.78721 3.20085 0
M  V30 627 H 57.154 0.11686 5.02864 0
M  V30 628 H 56.854 1.77704 5.60085 0
M  V30 629 H 58.378 0.950093 6.03163 0
M  V30 630 H 59.792 2.93393 4.92538 0
M  V30 631 H 58.189 3.69936 4.72512 0
M  V30 632 H 59.259 3.53285 3.32142 0
M  V30 633 N 60.6021 -1.18246 1.0419 0
M  V30 634 C 61.8791 -1.84121 0.660208 0
M  V30 635 C 62.2591 -1.92778 -0.860221 0
M  V30 636 O 61.6071 -1.45464 -1.76217 0
M  V30 637 C 61.8171 -3.22355 1.33747 0
M  V30 638 C 63.1651 -3.98376 1.46906 0
M  V30 639 O 64.1891 -3.31799 1.29568 0
M  V30 640 O 63.0481 -5.17665 1.75171 0
M  V30 641 H 60.1421 -0.794036 0.231161 0
M  V30 642 H 62.6881 -1.25628 1.14087 0
M  V30 643 H 61.4601 -3.10964 2.37522 0
M  V30 644 H 61.0831 -3.88506 0.845515 0
M  V30 645 N 62.0802 -0.821533 -1.34494 0
M  V30 646 C 63.0432 -0.247847 -2.27856 0
M  V30 647 C 64.0432 0.573453 -1.50227 0
M  V30 648 O 65.2332 0.389759 -1.69784 0
M  V30 649 C 62.3652 0.652698 -3.34593 0
M  V30 650 H 63.5582 -1.07146 -2.80107 0
M  V30 651 H 61.1112 -0.593291 -1.44602 0
M  V30 652 H 61.8462 1.49943 -2.87555 0
M  V30 653 H 61.6312 0.065292 -3.92046 0
M  V30 654 H 63.1212 1.04793 -4.04238 0
M  V30 655 N 63.5583 1.46682 -0.576371 0
M  V30 656 C 64.8353 1.95599 0.00703437 0
M  V30 657 C 65.2153 1.51904 1.46589 0
M  V30 658 O 64.5633 0.766755 2.15251 0
M  V30 659 C 64.7733 3.4864 -0.158404 0
M  V30 660 C 66.1213 4.24594 -0.0229439 0
M  V30 661 O 67.1453 3.56094 -0.0869173 0
M  V30 662 O 66.0043 5.46373 0.118015 0
M  V30 663 H 63.0983 0.825275 0.053384 0
M  V30 664 H 65.6443 1.56996 -0.644244 0
M  V30 665 H 64.4163 3.7331 -1.17282 0
M  V30 666 H 64.0393 3.94057 0.5296 0
M  V30 667 N 65.0364 0.313813 1.54444 0
M  V30 668 C 65.9464 -0.565714 2.27677 0
M  V30 669 C 66.9624 -1.13754 1.31666 0
M  V30 670 O 68.1384 -1.15959 1.64668 0
M  V30 671 C 65.2034 -1.71528 3.01296 0
M  V30 672 C 64.2644 -1.17624 4.12872 0
M  V30 673 C 63.4974 -2.27102 4.8297 0
M  V30 674 O 63.7204 -3.47256 4.52514 0
M  V30 675 O 62.6544 -1.9307 5.70094 0
M  V30 676 H 66.4804 0.0287296 3.03686 0
M  V30 677 H 64.0654 0.0798312 1.49187 0
M  V30 678 H 65.9474 -2.38476 3.4743 0
M  V30 679 H 64.6224 -2.29608 2.2817 0
M  V30 680 H 63.5294 -0.472124 3.71109 0
M  V30 681 H 64.8624 -0.640695 4.88012 0
M  V30 682 N 66.5145 -1.57545 0.0417849 0
M  V30 683 C 67.7615 -1.92317 -0.634082 0
M  V30 684 C 68.0895 -0.919334 -1.71402 0
M  V30 685 O 67.3445 0.0698253 -1.95575 0
M  V30 686 C 67.6435 -3.33794 -1.27735 0
M  V30 687 C 67.3095 -4.49716 -0.326543 0
M  V30 688 C 65.9715 -4.81156 -0.0648814 0
M  V30 689 C 68.3235 -5.20182 0.325623 0
M  V30 690 C 65.6515 -5.80414 0.856539 0
M  V30 691 C 68.0035 -6.20424 1.23518 0
M  V30 692 C 66.6675 -6.50298 1.5056 0
M  V30 693 H 65.9375 -0.703736 -0.232027 0
M  V30 694 H 68.5845 -1.91205 0.106259 0
M  V30 695 H 66.8895 -3.31228 -2.09274 0
M  V30 696 H 68.5865 -3.57975 -1.80707 0
M  V30 697 H 65.1765 -4.25176 -0.540665 0
M  V30 698 H 69.3605 -4.96112 0.136546 0
M  V30 699 H 64.6165 -6.019 1.07363 0
M  V30 700 H 68.7905 -6.74141 1.74664 0
M  V30 701 H 66.4175 -7.27025 2.22123 0
M  V30 702 N 67.9926 0.231505 -1.5589 0
M  V30 703 C 69.4086 0.580748 -1.48659 0
M  V30 704 C 69.6086 1.87617 -0.73498 0
M  V30 705 O 68.6646 2.51046 -0.270586 0
M  V30 706 C 69.9776 0.669202 -2.93159 0
M  V30 707 C 71.5256 0.760499 -3.03621 0
M  V30 708 C 72.0006 0.880383 -4.49459 0
M  V30 709 N 73.4916 0.944861 -4.53461 0
M  V30 710 C 74.2266 1.05716 -5.63571 0
M  V30 711 N 73.7226 1.13403 -6.83456 0
M  V30 712 N 75.5156 1.09152 -5.514 0
M  V30 713 H 67.6666 -0.618695 -2.03189 0
M  V30 714 H 69.9296 -0.215728 -0.923128 0
M  V30 715 H 69.6356 -0.212904 -3.51055 0
M  V30 716 H 69.5096 1.5361 -3.44505 0
M  V30 717 H 71.8966 1.63305 -2.45796 0
M  V30 718 H 71.9776 -0.131864 -2.5546 0
M  V30 719 H 71.6216 0.0123284 -5.07899 0
M  V30 720 H 71.5516 1.78802 -4.95316 0
M  V30 721 H 74.0426 0.896176 -3.6712 0
M  V30 722 H 74.3556 1.21921 -7.63122 0
M  V30 723 H 72.7006 1.10333 -6.86186 0
M  V30 724 H 75.8916 1.02805 -4.56671 0
M  V30 725 H 76.0646 1.17558 -6.37247 0
M  V30 726 N 69.4707 1.49531 0.497807 0
M  V30 727 C 70.4027 1.62559 1.61578 0
M  V30 728 C 71.4157 0.508134 1.54667 0
M  V30 729 O 72.6047 0.780309 1.60541 0
M  V30 730 C 69.7047 1.56925 3.00379 0
M  V30 731 C 68.8777 2.84257 3.3244 0
M  V30 732 C 67.9367 2.71632 4.50669 0
M  V30 733 O 66.9627 3.4557 4.52294 0
M  V30 734 N 68.1647 1.83391 5.5077 0
M  V30 735 H 70.9297 2.58981 1.50828 0
M  V30 736 H 68.4907 1.4666 0.685743 0
M  V30 737 H 70.4827 1.46129 3.77397 0
M  V30 738 H 69.0527 0.683483 3.05037 0
M  V30 739 H 68.2727 3.09381 2.44289 0
M  V30 740 H 69.5607 3.68666 3.5066 0
M  V30 741 H 68.9587 1.22583 5.52259 0
M  V30 742 H 67.5157 1.78515 6.26878 0
M  V30 743 N 70.9488 -0.749086 1.3866 0
M  V30 744 C 72.1968 -1.50535 1.34847 0
M  V30 745 C 72.5178 -1.94909 -0.0595016 0
M  V30 746 O 71.7878 -1.67973 -1.00806 0
M  V30 747 H 70.3678 -0.558395 0.49619 0
M  V30 748 H 73.0298 -0.890165 1.73384 0
M  V30 749 H 72.1258 -2.39413 2.00219 0
M  V30 750 N 72.4269 -1.23603 -0.977757 0
M  V30 751 C 73.3569 -1.04401 -2.0886 0
M  V30 752 C 74.3379 0.0399052 -1.70053 0
M  V30 753 O 75.5229 -0.125246 -1.93796 0
M  V30 754 C 72.6529 -0.637269 -3.41403 0
M  V30 755 C 71.6069 -1.66883 -3.94124 0
M  V30 756 C 70.9329 -1.11745 -5.22893 0
M  V30 757 C 72.2329 -3.06247 -4.23096 0
M  V30 758 H 73.9269 -1.97316 -2.25182 0
M  V30 759 H 71.4729 -0.950096 -1.08209 0
M  V30 760 H 73.4259 -0.48998 -4.18542 0
M  V30 761 H 72.1499 0.327557 -3.24953 0
M  V30 762 H 70.8089 -1.80416 -3.19133 0
M  V30 763 H 70.4569 -0.143527 -5.02795 0
M  V30 764 H 70.1569 -1.80672 -5.59134 0
M  V30 765 H 71.6809 -0.982067 -6.02651 0
M  V30 766 H 73.0949 -2.96001 -4.90975 0
M  V30 767 H 71.4919 -3.72436 -4.70544 0
M  V30 768 H 72.5619 -3.55041 -3.30263 0
M  V30 769 N 73.905 1.17692 -1.04816 0
M  V30 770 C 74.868 2.19787 -0.650117 0
M  V30 771 C 75.868 1.58044 0.296427 0
M  V30 772 O 77.058 1.74012 0.0808097 0
M  V30 773 C 74.19 3.40869 0.0456987 0
M  V30 774 H 75.383 2.56516 -1.5537 0
M  V30 775 H 72.936 1.31708 -0.841594 0
M  V30 776 H 73.671 3.09681 0.962726 0
M  V30 777 H 73.456 3.86928 -0.634727 0
M  V30 778 H 74.946 4.16445 0.310432 0
M  V30 779 N 75.3831 0.828654 1.34056 0
M  V30 780 C 76.3301 0.252567 2.29414 0
M  V30 781 C 77.3001 -0.62588 1.53857 0
M  V30 782 O 78.4851 -0.566312 1.82202 0
M  V30 783 C 75.6251 -0.574831 3.40279 0
M  V30 784 C 74.7381 0.326499 4.30764 0
M  V30 785 C 73.8731 -0.511016 5.28736 0
M  V30 786 C 72.9121 0.389342 6.1086 0
M  V30 787 N 72.0491 -0.409439 7.00905 0
M  V30 788 H 76.8891 1.07108 2.78086 0
M  V30 789 H 74.4261 0.539677 1.36843 0
M  V30 790 H 76.3841 -1.06992 4.03248 0
M  V30 791 H 75.0141 -1.35841 2.92826 0
M  V30 792 H 74.0661 0.939837 3.68607 0
M  V30 793 H 75.3781 1.01857 4.88289 0
M  V30 794 H 74.5321 -1.07035 5.97184 0
M  V30 795 H 73.2711 -1.23657 4.71763 0
M  V30 796 H 72.2761 0.960769 5.4134 0
M  V30 797 H 73.5011 1.1131 6.69916 0
M  V30 798 H 71.4471 -1.11856 6.46393 0
M  V30 799 H 71.3641 0.224126 7.55668 0
M  V30 800 H 72.6321 -0.951336 7.73673 0
M  V30 801 N 76.8612 -1.46375 0.584142 0
M  V30 802 C 77.7912 -2.33103 -0.136037 0
M  V30 803 C 78.7722 -1.45431 -0.882255 0
M  V30 804 O 79.9572 -1.74246 -0.857434 0
M  V30 805 C 77.0872 -3.27731 -1.14933 0
M  V30 806 C 76.0412 -4.24855 -0.517862 0
M  V30 807 C 75.3672 -5.09001 -1.63773 0
M  V30 808 C 76.6672 -5.19439 0.545886 0
M  V30 809 H 78.3612 -2.93568 0.588086 0
M  V30 810 H 75.9072 -1.41166 0.284259 0
M  V30 811 H 77.8602 -3.87261 -1.66153 0
M  V30 812 H 76.5842 -2.65377 -1.90375 0
M  V30 813 H 75.2432 -3.6659 -0.0267361 0
M  V30 814 H 74.8912 -4.43031 -2.38185 0
M  V30 815 H 74.5912 -5.74777 -1.22085 0
M  V30 816 H 76.1152 -5.71396 -2.15266 0
M  V30 817 H 77.5292 -5.73177 0.118704 0
M  V30 818 H 75.9262 -5.93566 0.88317 0
M  V30 819 H 76.9962 -4.63285 1.43162 0
M  V30 820 N 78.3393 -0.321999 -1.54275 0
M  V30 821 C 79.5873 0.280489 -2.00144 0
M  V30 822 C 79.9083 1.52777 -1.21178 0
M  V30 823 O 79.1783 1.9338 -0.313187 0
M  V30 824 H 77.7583 0.106632 -0.73935 0
M  V30 825 H 80.4203 -0.438184 -1.8991 0
M  V30 826 H 79.5163 0.537972 -3.07428 0
M  V30 827 N 79.8174 1.5752 -0.0501392 0
M  V30 828 C 80.7474 2.14502 0.922566 0
M  V30 829 C 81.7284 1.06642 1.3252 0
M  V30 830 O 82.9134 1.34577 1.4001 0
M  V30 831 C 80.0434 2.68916 2.19776 0
M  V30 832 C 78.9974 3.8175 1.93523 0
M  V30 833 C 78.3234 4.22677 3.27487 0
M  V30 834 C 79.6234 5.06932 1.25765 0
M  V30 835 H 81.3174 2.9603 0.447952 0
M  V30 836 H 78.8634 1.42401 0.214024 0
M  V30 837 H 80.8164 3.07419 2.88222 0
M  V30 838 H 79.5404 1.84578 2.69441 0
M  V30 839 H 78.1994 3.43718 1.27489 0
M  V30 840 H 77.8474 3.35291 3.74952 0
M  V30 841 H 77.5474 4.98725 3.1072 0
M  V30 842 H 79.0714 4.63779 3.97166 0
M  V30 843 H 80.4854 5.42888 1.84244 0
M  V30 844 H 78.8824 5.88116 1.19328 0
M  V30 845 H 79.9524 4.84337 0.233536 0
M  V30 846 N 81.2955 -0.223234 1.56011 0
M  V30 847 C 82.5415 -0.949279 1.79211 0
M  V30 848 C 82.8745 -1.84054 0.619494 0
M  V30 849 O 82.1495 -1.90726 -0.381317 0
M  V30 850 C 82.4325 -1.78965 3.12479 0
M  V30 851 C 82.2855 -0.924997 4.40186 0
M  V30 852 C 83.6045 -2.76774 3.42175 0
M  V30 853 H 80.7235 -0.343676 0.651963 0
M  V30 854 H 83.3655 -0.218253 1.88742 0
M  V30 855 H 81.5155 -2.41291 3.04485 0
M  V30 856 H 83.1875 -0.318615 4.60198 0
M  V30 857 H 81.4305 -0.230344 4.33188 0
M  V30 858 H 82.1015 -1.54735 5.29869 0
M  V30 859 H 84.5775 -2.24584 3.50287 0
M  V30 860 H 83.4535 -3.32678 4.36597 0
M  V30 861 H 83.7145 -3.54429 2.64258 0
M  V30 862 N 82.7736 -1.49793 -0.48987 0
M  V30 863 C 83.7036 -1.70201 -1.59856 0
M  V30 864 C 84.6846 -0.55076 -1.60937 0
M  V30 865 O 85.8696 -0.787841 -1.77501 0
M  V30 866 C 82.9996 -1.77882 -2.98287 0
M  V30 867 C 81.9536 -2.92907 -3.12073 0
M  V30 868 C 81.2796 -2.85712 -4.51965 0
M  V30 869 C 82.5796 -4.3369 -2.91051 0
M  V30 870 H 84.2736 -2.63025 -1.43032 0
M  V30 871 H 81.8196 -1.26574 -0.686664 0
M  V30 872 H 83.7726 -1.90744 -3.75759 0
M  V30 873 H 82.4966 -0.816653 -3.16225 0
M  V30 874 H 81.1556 -2.79665 -2.37029 0
M  V30 875 H 80.8036 -1.8738 -4.66795 0
M  V30 876 H 80.5036 -3.62921 -4.62128 0
M  V30 877 H 82.0276 -3.00598 -5.31482 0
M  V30 878 H 83.4416 -4.47555 -3.58284 0
M  V30 879 H 81.8386 -5.12205 -3.12675 0
M  V30 880 H 82.9086 -4.47362 -1.87071 0
M  V30 881 N 84.2517 0.741722 -1.39055 0
M  V30 882 C 85.5287 1.49252 -1.26425 0
M  V30 883 C 85.9087 2.10705 0.129144 0
M  V30 884 O 85.2567 1.98045 1.13976 0
M  V30 885 C 85.4667 2.54934 -2.38347 0
M  V30 886 C 86.8147 3.21506 -2.77343 0
M  V30 887 O 87.8387 2.65245 -2.37747 0
M  V30 888 O 86.6977 4.23294 -3.45665 0
M  V30 889 H 83.7917 0.662451 -0.495064 0
M  V30 890 H 86.3377 0.776121 -1.50912 0
M  V30 891 H 85.1097 2.07857 -3.31529 0
M  V30 892 H 84.7327 3.34141 -2.15489 0
M  V30 893 N 85.7298 1.2412 0.971189 0
M  V30 894 C 86.6618 0.988349 2.06795 0
M  V30 895 C 87.6748 -0.0409541 1.62748 0
M  V30 896 O 88.8638 0.195673 1.77424 0
M  V30 897 C 85.9638 0.469023 3.35639 0
M  V30 898 C 85.1368 1.56065 4.08611 0
M  V30 899 C 84.1958 1.04458 5.15728 0
M  V30 900 O 83.2218 1.73553 5.42096 0
M  V30 901 N 84.4238 -0.122817 5.8037 0
M  V30 902 H 87.1888 1.93265 2.29061 0
M  V30 903 H 84.7498 1.15102 1.13856 0
M  V30 904 H 86.7418 0.108613 4.04554 0
M  V30 905 H 85.3118 -0.380919 3.1027 0
M  V30 906 H 84.5318 2.09341 3.34021 0
M  V30 907 H 85.8198 2.29449 4.54126 0
M  V30 908 H 85.2178 -0.700563 5.61345 0
M  V30 909 H 83.7748 -0.424404 6.50417 0
M  V30 910 N 87.2079 -1.17134 1.05439 0
M  V30 911 C 88.1709 -2.19439 0.661764 0
M  V30 912 C 89.1709 -1.58199 -0.288042 0
M  V30 913 O 90.3609 -1.74053 -0.0715803 0
M  V30 914 C 87.4929 -3.40889 -0.0276209 0
M  V30 915 H 88.6859 -2.55688 1.56728 0
M  V30 916 H 86.2389 -1.31259 0.848567 0
M  V30 917 H 86.9739 -3.10187 -0.94629 0
M  V30 918 H 86.7589 -3.86586 0.655238 0
M  V30 919 H 88.2489 -4.16603 -0.288342 0
M  V30 920 N 88.686 -0.835752 -1.33615 0
M  V30 921 C 89.596 -0.269088 -2.33052 0
M  V30 922 C 90.612 0.603251 -1.63208 0
M  V30 923 O 91.788 0.508112 -1.94885 0
M  V30 924 C 88.853 0.549091 -3.42324 0
M  V30 925 C 87.914 -0.347156 -4.27894 0
M  V30 926 C 87.147 0.43207 -5.31948 0
M  V30 927 O 87.37 1.66409 -5.45586 0
M  V30 928 O 86.304 -0.192298 -6.01593 0
M  V30 929 H 90.13 -1.09243 -2.83372 0
M  V30 930 H 87.715 -0.598198 -1.36901 0
M  V30 931 H 89.597 1.01414 -4.09015 0
M  V30 932 H 88.272 1.34955 -2.94226 0
M  V30 933 H 87.179 -0.859979 -3.64081 0
M  V30 934 H 88.512 -1.1123 -4.79467 0
M  V30 935 N 90.1641 1.46063 -0.591896 0
M  V30 936 C 91.1271 2.28854 0.125973 0
M  V30 937 C 92.1271 1.38903 0.810107 0
M  V30 938 O 93.3171 1.61186 0.66066 0
M  V30 939 C 90.4491 3.19526 1.1881 0
M  V30 940 H 91.6421 2.93802 -0.601717 0
M  V30 941 H 89.1951 1.52325 -0.350254 0
M  V30 942 H 89.9301 2.59345 1.94707 0
M  V30 943 H 89.7151 3.85766 0.701936 0
M  V30 944 H 91.2051 3.81817 1.69132 0
M  V30 945 N 91.6422 0.330177 1.54103 0
M  V30 946 C 92.5522 -0.541534 2.28264 0
M  V30 947 C 93.5682 -1.12351 1.32866 0
M  V30 948 O 94.7442 -1.14206 1.65888 0
M  V30 949 C 91.8092 -1.68322 3.03098 0
M  V30 950 C 90.8702 -1.13238 4.14096 0
M  V30 951 C 90.1032 -2.21966 4.85352 0
M  V30 952 O 90.3262 -3.42437 4.56172 0
M  V30 953 O 89.2602 -1.87013 5.7211 0
M  V30 954 H 93.0862 0.060938 3.03639 0
M  V30 955 H 90.6712 0.09565 1.49093 0
M  V30 956 H 92.5532 -2.34777 3.49939 0
M  V30 957 H 91.2282 -2.27176 2.30593 0
M  V30 958 H 90.1352 -0.432736 3.71589 0
M  V30 959 H 91.4682 -0.588898 4.88664 0
M  V30 960 N 93.1203 -1.57491 0.0584922 0
M  V30 961 C 94.3683 -1.92597 -0.612436 0
M  V30 962 C 94.6893 -0.938162 -1.70949 0
M  V30 963 O 93.9593 0.0158301 -1.95894 0
M  V30 964 H 92.5393 -0.710964 -0.229214 0
M  V30 965 H 95.2013 -1.94571 0.113218 0
M  V30 966 H 94.2973 -2.94038 -1.04633 0
M  V30 967 N 94.5984 0.214957 -1.56127 0
M  V30 968 C 95.8444 0.939762 -1.79712 0
M  V30 969 C 96.1774 1.83723 -0.629247 0
M  V30 970 O 95.4524 1.90925 0.371197 0
M  V30 971 C 95.7354 1.77306 -3.13424 0
M  V30 972 C 95.5884 0.90164 -4.40671 0
M  V30 973 C 96.9074 2.74956 -3.43638 0
M  V30 974 H 94.0264 0.340214 -0.653776 0
M  V30 975 H 96.6684 0.20824 -1.88855 0
M  V30 976 H 94.8184 2.39673 -3.0576 0
M  V30 977 H 96.4904 0.294206 -4.60361 0
M  V30 978 H 94.7334 0.207368 -4.33304 0
M  V30 979 H 95.4044 1.51923 -5.30682 0
M  V30 980 H 97.8804 2.22724 -3.51473 0
M  V30 981 H 96.7564 3.30358 -4.38355 0
M  V30 982 H 97.0174 3.53023 -2.66134 0
M  V30 983 N 96.0765 1.50051 0.48192 0
M  V30 984 C 97.3165 1.62128 1.24474 0
M  V30 985 C 97.6805 0.309742 1.89485 0
M  V30 986 O 98.8815 0.305854 2.67054 0
M  V30 987 C 97.1525 2.76151 2.26882 0
M  V30 988 S 98.7115 3.08297 3.12247 0
M  V30 989 H 95.5295 0.571661 0.422759 0
M  V30 990 H 98.1315 1.87791 0.54359 0
M  V30 991 H 96.8355 3.69942 1.77683 0
M  V30 992 H 96.3665 2.52541 3.0164 0
M  V30 993 H 98.3815 2.51287 4.27866 0
M  V30 994 N 97.5546 -0.734337 1.39446 0
M  V30 995 C 98.9706 -1.03997 1.21065 0
M  V30 996 C 99.1706 -2.01369 0.0727019 0
M  V30 997 O 98.2266 -2.45856 -0.575426 0
M  V30 998 C 99.5396 -1.60163 2.54496 0
M  V30 999 C 101.088 -1.7224 2.61347 0
M  V30 1000 C 101.563 -2.31814 3.95002 0
M  V30 1001 N 103.054 -2.39223 3.96644 0
M  V30 1002 C 103.789 -2.86258 4.96834 0
M  V30 1003 N 103.285 -3.33184 6.07421 0
M  V30 1004 N 105.078 -2.85473 4.84213 0
M  V30 1005 H 97.2286 -0.0885624 2.12215 0
M  V30 1006 H 99.4916 -0.10191 0.942506 0
M  V30 1007 H 99.1976 -0.960811 3.38321 0
M  V30 1008 H 99.0716 -2.5896 2.74262 0
M  V30 1009 H 101.459 -2.35443 1.77906 0
M  V30 1010 H 101.54 -0.720939 2.4543 0
M  V30 1011 H 101.184 -1.69238 4.78875 0
M  V30 1012 H 101.114 -3.32638 4.08239 0
M  V30 1013 H 103.605 -2.06057 3.16779 0
M  V30 1014 H 103.918 -3.67586 6.7978 0
M  V30 1015 H 102.263 -3.31191 6.11013 0
M  V30 1016 H 105.454 -2.48136 3.96921 0
M  V30 1017 H 105.627 -3.21814 5.62441 0
M  V30 1018 N 99.0327 -1.24633 -0.964593 0
M  V30 1019 C 99.9797 -1.04144 -2.05968 0
M  V30 1020 C 100.95 0.046262 -1.66036 0
M  V30 1021 O 102.135 -0.108972 -1.90489 0
M  V30 1022 C 99.2747 -0.65563 -3.38815 0
M  V30 1023 C 98.3877 -1.81714 -3.91923 0
M  V30 1024 C 97.5227 -1.37662 -5.13052 0
M  V30 1025 C 96.5617 -2.50788 -5.58365 0
M  V30 1026 N 95.6987 -2.07582 -6.70712 0
M  V30 1027 H 100.539 -1.9787 -2.22827 0
M  V30 1028 H 98.0757 -0.9855 -1.09208 0
M  V30 1029 H 100.034 -0.412954 -4.15151 0
M  V30 1030 H 98.6637 0.244627 -3.21872 0
M  V30 1031 H 97.7157 -2.1734 -3.12198 0
M  V30 1032 H 99.0277 -2.66705 -4.21509 0
M  V30 1033 H 98.1817 -1.093 -5.96773 0
M  V30 1034 H 96.9207 -0.497293 -4.85158 0
M  V30 1035 H 95.9257 -2.79906 -4.73215 0
M  V30 1036 H 97.1507 -3.39283 -5.88272 0
M  V30 1037 H 95.0967 -1.22051 -6.44546 0
M  V30 1038 H 95.0137 -2.86125 -6.99763 0
M  V30 1039 H 96.2817 -1.82369 -7.57867 0
M  V30 1040 N 100.511 1.16574 -1.06058 0
M  V30 1041 C 101.757 1.87565 -0.78683 0
M  V30 1042 C 102.112 1.80012 0.679214 0
M  V30 1043 O 101.405 1.20327 1.49104 0
M  V30 1044 C 101.599 3.36195 -1.21275 0
M  V30 1045 C 101.428 3.58216 -2.71866 0
M  V30 1046 C 100.198 3.7444 -3.39298 0
M  V30 1047 C 102.396 3.57134 -3.70081 0
M  V30 1048 N 100.378 3.84389 -4.78663 0
M  V30 1049 C 101.749 3.73038 -4.9522 0
M  V30 1050 C 103.804 3.40332 -3.63426 0
M  V30 1051 C 102.507 3.73879 -6.14497 0
M  V30 1052 C 104.533 3.42466 -4.82153 0
M  V30 1053 C 103.895 3.58887 -6.06118 0
M  V30 1054 H 99.9938 0.704081 -0.340284 0
M  V30 1055 H 102.578 1.39885 -1.35426 0
M  V30 1056 H 100.749 3.82522 -0.673179 0
M  V30 1057 H 102.481 3.94839 -0.887917 0
M  V30 1058 H 99.2358 3.74662 -2.89699 0
M  V30 1059 H 99.6598 3.93138 -5.51155 0
M  V30 1060 H 104.302 3.26566 -2.68541 0
M  V30 1061 H 102.02 3.86427 -7.09718 0
M  V30 1062 H 105.606 3.30712 -4.78666 0
M  V30 1063 H 104.486 3.60454 -6.9645 0
M  V30 1064 N 101.989 0.842826 1.3317 0
M  V30 1065 C 103.266 0.362216 1.92217 0
M  V30 1066 C 103.646 -1.15289 1.76838 0
M  V30 1067 O 102.994 -1.96914 1.15919 0
M  V30 1068 C 103.204 0.813495 3.39387 0
M  V30 1069 C 104.552 0.823804 4.16532 0
M  V30 1070 O 105.576 0.757358 3.48055 0
M  V30 1071 O 104.435 0.915193 5.38782 0
M  V30 1072 H 101.529 0.103317 0.820521 0
M  V30 1073 H 104.075 0.928942 1.42017 0
M  V30 1074 H 102.847 1.85624 3.4447 0
M  V30 1075 H 102.47 0.223561 3.96971 0
M  V30 1076 N 103.467 -1.45747 0.599634 0
M  V30 1077 C 104.883 -1.57424 0.26264 0
M  V30 1078 C 105.083 -1.59222 -1.23493 0
M  V30 1079 O 104.139 -1.51825 -2.01756 0
M  V30 1080 C 105.452 -2.86061 0.926795 0
M  V30 1081 C 107 -2.99722 0.901967 0
M  V30 1082 C 107.475 -4.31119 1.54598 0
M  V30 1083 N 108.966 -4.37858 1.5111 0
M  V30 1084 C 109.701 -5.3818 1.97863 0
M  V30 1085 N 109.197 -6.45083 2.52666 0
M  V30 1086 N 110.99 -5.29487 1.88679 0
M  V30 1087 H 103.141 -1.42823 1.57211 0
M  V30 1088 H 105.404 -0.68235 0.658105 0
M  V30 1089 H 105.11 -2.90605 1.98095 0
M  V30 1090 H 104.984 -3.74563 0.445238 0
M  V30 1091 H 107.371 -2.9475 -0.143617 0
M  V30 1092 H 107.452 -2.12652 1.42171 0
M  V30 1093 H 107.096 -4.36849 2.59085 0
M  V30 1094 H 107.026 -5.16992 1.00132 0
M  V30 1095 H 109.517 -3.61209 1.11068 0
M  V30 1096 H 109.83 -7.17869 2.86155 0
M  V30 1097 H 108.175 -6.45856 2.56701 0
M  V30 1098 H 111.366 -4.44877 1.4561 0
M  V30 1099 H 111.539 -6.07524 2.25429 0
M  V30 1100 N 104.945 -0.338344 -1.53925 0
M  V30 1101 C 105.893 0.536231 -2.26335 0
M  V30 1102 C 106.887 1.1063 -1.28286 0
M  V30 1103 O 108.093 1.05264 -1.46012 0
M  V30 1104 H 104.468 0.191602 -0.727181 0
M  V30 1105 H 106.439 -0.0965747 -2.98244 0
M  V30 1106 C 105.188 1.67803 -3.04528 0
M  V30 1107 H 104.511 1.24864 -3.79801 0
M  V30 1108 H 105.951 2.26526 -3.58416 0
M  V30 1109 C 104.41 2.60439 -2.13712 0
M  V30 1110 O 104.94 3.6255 -1.72975 0
M  V30 1111 N 103.146 2.29006 -1.78898 0
M  V30 1112 H 102.693 1.46011 -2.12223 0
M  V30 1113 H 102.651 2.91248 -1.18416 0
M  V30 1114 N 106.423 1.57458 -0.0668435 0
M  V30 1115 C 107.671 1.92919 0.602214 0
M  V30 1116 C 107.992 0.947215 1.70449 0
M  V30 1117 O 107.262 -0.00544117 1.95899 0
M  V30 1118 H 105.842 0.71217 0.22544 0
M  V30 1119 H 108.504 1.94508 -0.123535 0
M  V30 1120 H 107.6 2.94589 1.03073 0
M  V30 1121 N 107.901 -0.206675 1.56239 0
M  V30 1122 C 109.126 -0.949474 1.8439 0
M  V30 1123 C 109.551 -1.76549 0.649016 0
M  V30 1124 O 108.909 -1.76782 -0.402231 0
M  V30 1125 C 108.957 -1.83078 3.10668 0
M  V30 1126 O 108.061 -2.9281 2.90407 0
M  V30 1127 H 107.402 -0.268033 0.607499 0
M  V30 1128 H 109.932 -0.215488 2.03462 0
M  V30 1129 H 109.942 -2.2377 3.41161 0
M  V30 1130 H 108.617 -1.23112 3.97261 0
M  V30 1131 H 107.194 -2.55956 2.71184 0
M  V30 1132 N 109.379 -1.50304 -0.473955 0
M  V30 1133 C 110.627 -1.60832 -1.22382 0
M  V30 1134 C 110.948 -0.30939 -1.9253 0
M  V30 1135 O 110.218 0.67296 -1.83978 0
M  V30 1136 H 108.798 -0.592652 -0.454723 0
M  V30 1137 H 111.46 -1.87068 -0.546968 0
M  V30 1138 H 110.556 -2.41803 -1.97327 0
M  V30 1139 N 110.857 0.726932 -1.39834 0
M  V30 1140 C 112.085 1.51613 -1.40787 0
M  V30 1141 C 112.5 1.88799 -0.00451505 0
M  V30 1142 O 111.857 1.54662 0.968809 0
M  V30 1143 C 111.908 2.79863 -2.28821 0
M  V30 1144 O 111.629 2.44253 -3.63692 0
M  V30 1145 C 113.13 3.73837 -2.38245 0
M  V30 1146 H 110.35 0.468264 -0.480593 0
M  V30 1147 H 112.894 0.897607 -1.83748 0
M  V30 1148 H 111.049 3.38027 -1.89252 0
M  V30 1149 H 111.463 3.26695 -4.1033 0
M  V30 1150 H 112.937 4.60699 -3.04073 0
M  V30 1151 H 113.414 4.16153 -1.40403 0
M  V30 1152 H 114.02 3.21589 -2.78317 0
M  V30 1153 N 112.336 1.25143 0.95797 0
M  V30 1154 C 113.266 1.07711 2.07173 0
M  V30 1155 C 114.247 -0.0128462 1.70095 0
M  V30 1156 O 115.432 0.156061 1.93572 0
M  V30 1157 C 112.562 0.691503 3.40346 0
M  V30 1158 C 111.516 1.73132 3.9142 0
M  V30 1159 C 110.842 1.20049 5.21049 0
M  V30 1160 C 112.142 3.1294 4.1817 0
M  V30 1161 H 113.836 2.00873 2.22014 0
M  V30 1162 H 111.382 0.967191 1.06684 0
M  V30 1163 H 113.335 0.556505 4.17709 0
M  V30 1164 H 112.059 -0.275819 3.25433 0
M  V30 1165 H 110.718 1.8547 3.16222 0
M  V30 1166 H 110.366 0.223499 5.02503 0
M  V30 1167 H 110.066 1.89545 5.56189 0
M  V30 1168 H 111.59 1.07782 6.01012 0
M  V30 1169 H 113.004 3.03775 4.86203 0
M  V30 1170 H 111.401 3.79875 4.64559 0
M  V30 1171 H 112.471 3.6025 3.24573 0
M  V30 1172 N 113.814 -1.1601 1.06675 0
M  V30 1173 C 115.091 -1.82679 0.699114 0
M  V30 1174 C 115.471 -1.94559 -0.819137 0
M  V30 1175 O 114.819 -1.49169 -1.73092 0
M  V30 1176 C 115.029 -3.19445 1.40555 0
M  V30 1177 C 116.377 -3.95171 1.55323 0
M  V30 1178 O 117.401 -3.28976 1.36577 0
M  V30 1179 O 116.26 -5.13833 1.86112 0
M  V30 1180 H 113.354 -0.788954 0.247951 0
M  V30 1181 H 115.9 -1.23179 1.16726 0
M  V30 1182 H 114.672 -3.05856 2.44065 0
M  V30 1183 H 114.295 -3.86625 0.927733 0
M  V30 1184 N 115.292 -0.849877 -1.32721 0
M  V30 1185 C 116.222 -0.306308 -2.31482 0
M  V30 1186 C 117.203 0.591952 -1.59468 0
M  V30 1187 O 118.388 0.513199 -1.87296 0
M  V30 1188 C 115.518 0.510204 -3.43532 0
M  V30 1189 C 114.472 -0.293209 -4.26994 0
M  V30 1190 C 113.798 0.647743 -5.30762 0
M  V30 1191 C 115.098 -1.51634 -4.99804 0
M  V30 1192 H 116.792 -1.13153 -2.77195 0
M  V30 1193 H 114.338 -0.545553 -1.33266 0
M  V30 1194 H 116.291 0.900856 -4.11658 0
M  V30 1195 H 115.015 1.36874 -2.96535 0
M  V30 1196 H 113.674 -0.665555 -3.60508 0
M  V30 1197 H 113.322 1.50299 -4.8002 0
M  V30 1198 H 113.022 0.11422 -5.87489 0
M  V30 1199 H 114.546 1.03567 -6.01753 0
M  V30 1200 H 115.96 -1.19824 -5.60638 0
M  V30 1201 H 114.357 -1.98745 -5.66234 0
M  V30 1202 H 115.427 -2.28018 -4.27943 0
M  V30 1203 N 116.77 1.45427 -0.607355 0
M  V30 1204 C 117.68 2.34325 0.113463 0
M  V30 1205 C 118.696 1.51226 0.860617 0
M  V30 1206 O 119.872 1.84029 0.818255 0
M  V30 1207 C 116.937 3.28839 1.09844 0
M  V30 1208 C 115.998 4.27844 0.353271 0
M  V30 1209 C 115.231 5.17842 1.29133 0
M  V30 1210 O 115.454 5.11264 2.52913 0
M  V30 1211 O 114.388 5.96713 0.788523 0
M  V30 1212 H 118.214 2.97364 -0.617094 0
M  V30 1213 H 115.799 1.44807 -0.367619 0
M  V30 1214 H 117.681 3.8708 1.66575 0
M  V30 1215 H 116.356 2.68365 1.81003 0
M  V30 1216 H 115.263 3.7322 -0.256494 0
M  V30 1217 H 116.596 4.91173 -0.317822 0
M  V30 1218 N 118.248 0.346503 1.53744 0
M  V30 1219 C 119.158 -0.517293 2.28826 0
M  V30 1220 C 120.174 -1.10935 1.3405 0
M  V30 1221 O 121.35 -1.1244 1.6709 0
M  V30 1222 C 118.415 -1.65098 3.04866 0
M  V30 1223 C 117.476 -1.0884 4.15274 0
M  V30 1224 C 116.709 -2.16806 4.87679 0
M  V30 1225 O 116.932 -3.3758 4.59778 0
M  V30 1226 O 115.866 -1.80934 5.74061 0
M  V30 1227 H 119.692 0.0931396 3.03557 0
M  V30 1228 H 117.277 0.111458 1.48984 0
M  V30 1229 H 119.159 -2.31053 3.5241 0
M  V30 1230 H 117.834 -2.24717 2.32989 0
M  V30 1231 H 116.741 -0.3933 3.72027 0
M  V30 1232 H 118.074 -0.537036 4.89261 0
M  V30 1233 N 119.726 -1.57421 0.075193 0
M  V30 1234 C 120.973 -1.93618 -0.593146 0
M  V30 1235 C 121.301 -0.955484 -1.69413 0
M  V30 1236 O 120.556 0.0283251 -1.9568 0
M  V30 1237 C 120.855 -3.36428 -1.20626 0
M  V30 1238 C 120.521 -4.50307 -0.231078 0
M  V30 1239 C 119.183 -4.81186 0.0371936 0
M  V30 1240 C 121.535 -5.19374 0.435888 0
M  V30 1241 C 118.863 -5.78466 0.979461 0
M  V30 1242 C 121.215 -6.17665 1.3665 0
M  V30 1243 C 119.879 -6.46958 1.6432 0
M  V30 1244 H 119.149 -0.708499 -0.217047 0
M  V30 1245 H 121.796 -1.90937 0.146793 0
M  V30 1246 H 120.101 -3.35592 -2.02201 0
M  V30 1247 H 121.798 -3.61727 -1.73073 0
M  V30 1248 H 118.388 -4.26227 -0.450357 0
M  V30 1249 H 122.572 -4.95711 0.241748 0
M  V30 1250 H 117.828 -5.99487 1.20106 0
M  V30 1251 H 122.002 -6.70284 1.88924 0
M  V30 1252 H 119.629 -7.2215 2.37494 0
M  V30 1253 N 121.204 0.198386 -1.56346 0
M  V30 1254 C 122.134 1.24865 -1.9731 0
M  V30 1255 C 123.115 1.47651 -0.844576 0
M  V30 1256 O 124.3 1.59444 -1.10866 0
M  V30 1257 C 121.43 2.59358 -2.30977 0
M  V30 1258 C 120.384 2.5119 -3.46537 0
M  V30 1259 C 119.71 3.89926 -3.65871 0
M  V30 1260 C 121.01 2.03977 -4.80823 0
M  V30 1261 H 122.704 0.908252 -2.85291 0
M  V30 1262 H 120.25 0.435462 -1.37258 0
M  V30 1263 H 122.203 3.33011 -2.58228 0
M  V30 1264 H 120.927 2.95132 -1.39874 0
M  V30 1265 H 119.586 1.79993 -3.19371 0
M  V30 1266 H 119.234 4.23046 -2.72105 0
M  V30 1267 H 118.934 3.85336 -4.4361 0
M  V30 1268 H 120.458 4.65205 -3.95495 0
M  V30 1269 H 121.872 2.67386 -5.07127 0
M  V30 1270 H 120.269 2.10397 -5.62008 0
M  V30 1271 H 121.339 0.992861 -4.74626 0
M  V30 1272 N 122.682 1.50554 0.465978 0
M  V30 1273 C 124.098 1.38093 0.800154 0
M  V30 1274 C 124.298 0.440988 1.96615 0
M  V30 1275 O 123.354 -0.114499 2.5224 0
M  V30 1276 C 124.667 2.79565 1.10742 0
M  V30 1277 C 126.215 2.88516 1.21357 0
M  V30 1278 C 126.69 4.30833 1.55393 0
M  V30 1279 N 128.181 4.33807 1.62375 0
M  V30 1280 C 128.916 5.40927 1.90225 0
M  V30 1281 N 128.412 6.58247 2.16062 0
M  V30 1282 N 130.205 5.28376 1.9177 0
M  V30 1283 H 122.356 2.10237 -0.302366 0
M  V30 1284 H 124.619 0.945203 -0.0727746 0
M  V30 1285 H 124.325 3.50208 0.323661 0
M  V30 1286 H 124.199 3.17125 2.04234 0
M  V30 1287 H 126.586 2.1809 1.98799 0
M  V30 1288 H 126.667 2.54492 0.258321 0
M  V30 1289 H 126.311 5.01799 0.784889 0
M  V30 1290 H 126.241 4.62347 2.52076 0
M  V30 1291 H 128.732 3.49212 1.44427 0
M  V30 1292 H 129.045 7.3569 2.36601 0
M  V30 1293 H 127.39 6.61413 2.13444 0
M  V30 1294 H 130.581 4.35715 1.71085 0
M  V30 1295 H 130.754 6.11944 2.13139 0
M  V30 1296 N 124.16 -0.719506 1.40217 0
M  V30 1297 C 125.123 -1.8153 1.39927 0
M  V30 1298 C 126.123 -1.58095 0.293723 0
M  V30 1299 O 127.313 -1.65209 0.552429 0
M  V30 1300 C 124.445 -3.19561 1.18716 0
M  V30 1301 H 125.638 -1.83186 2.37451 0
M  V30 1302 H 123.191 -0.924746 1.26008 0
M  V30 1303 H 123.926 -3.23557 0.219366 0
M  V30 1304 H 123.711 -3.3797 1.98793 0
M  V30 1305 H 125.201 -3.99598 1.21291 0
M  V30 1306 N 125.638 -1.25649 -0.95132 0
M  V30 1307 C 126.568 -1.08808 -2.06599 0
M  V30 1308 C 127.549 0.00382547 -1.701 0
M  V30 1309 O 128.734 -0.166325 -1.93486 0
M  V30 1310 C 125.864 -0.709542 -3.39975 0
M  V30 1311 C 124.818 -1.75206 -3.90496 0
M  V30 1312 C 124.144 -1.22811 -5.20405 0
M  V30 1313 C 125.444 -3.15153 -4.16504 0
M  V30 1314 H 127.138 -2.02048 -2.20946 0
M  V30 1315 H 124.684 -0.972835 -1.06169 0
M  V30 1316 H 126.637 -0.578649 -4.17408 0
M  V30 1317 H 125.361 0.258556 -3.25575 0
M  V30 1318 H 124.02 -1.87145 -3.15234 0
M  V30 1319 H 123.668 -0.250145 -5.02378 0
M  V30 1320 H 123.368 -1.92492 -5.55176 0
M  V30 1321 H 124.892 -1.10968 -6.00432 0
M  V30 1322 H 126.306 -3.06349 -4.84586 0
M  V30 1323 H 124.703 -3.82333 -4.62538 0
M  V30 1324 H 125.773 -3.61966 -3.22658 0
M  V30 1325 N 127.117 1.15442 -1.07289 0
M  V30 1326 C 128.533 1.38201 -0.798288 0
M  V30 1327 C 128.733 1.92429 0.597769 0
M  V30 1328 O 127.789 2.12962 1.3566 0
M  V30 1329 C 129.102 2.35357 -1.87156 0
M  V30 1330 C 130.65 2.49021 -1.89624 0
M  V30 1331 C 131.125 3.49468 -2.96034 0
M  V30 1332 N 132.616 3.57003 -2.95132 0
M  V30 1333 C 133.351 4.34543 -3.74112 0
M  V30 1334 N 132.847 5.15421 -4.6294 0
M  V30 1335 N 134.64 4.29625 -3.62462 0
M  V30 1336 H 126.791 0.78584 -1.97328 0
M  V30 1337 H 129.054 0.408065 -0.855679 0
M  V30 1338 H 128.76 2.02626 -2.87464 0
M  V30 1339 H 128.634 3.35129 -1.73114 0
M  V30 1340 H 131.021 2.81051 -0.899687 0
M  V30 1341 H 131.102 1.4925 -2.07745 0
M  V30 1342 H 130.746 3.18173 -3.95889 0
M  V30 1343 H 130.676 4.48992 -2.75161 0
M  V30 1344 H 133.167 2.99276 -2.30743 0
M  V30 1345 H 133.48 5.7183 -5.19837 0
M  V30 1346 H 131.825 5.14729 -4.66989 0
M  V30 1347 H 135.016 3.65505 -2.92444 0
M  V30 1348 H 135.189 4.89807 -4.24256 0
M  V30 1349 N 128.595 0.856903 1.32268 0
M  V30 1350 C 130.006 0.515711 1.79436 0
M  V30 1351 C 130.357 -0.966586 1.70738 0
M  V30 1352 O 129.482 -1.75409 1.26731 0
M  V30 1353 C 130.077 0.929335 3.25805 0
M  V30 1354 C 128.636 0.640006 3.70919 0
M  V30 1355 C 127.783 1.12784 2.53328 0
M  V30 1356 H 130.734 1.04389 1.19535 0
M  V30 1357 H 130.755 0.246633 3.797 0
M  V30 1358 H 130.267 2.00821 3.32103 0
M  V30 1359 H 128.368 -0.428051 3.70133 0
M  V30 1360 H 128.481 1.20788 4.63624 0
M  V30 1361 H 126.845 0.548033 2.48734 0
M  V30 1362 H 127.628 2.21387 2.62379 0
M  V30 1363 N 130.073 -1.45103 0.615059 0
M  V30 1364 C 131.484 -1.85654 0.197383 0
M  V30 1365 C 131.835 -1.51433 -1.24749 0
M  V30 1366 O 130.96 -0.944608 -1.94695 0
M  V30 1367 C 131.555 -3.36972 0.351448 0
M  V30 1368 C 130.114 -3.76398 -0.011593 0
M  V30 1369 C 129.261 -2.69024 0.672394 0
M  V30 1370 H 132.212 -1.35797 0.821263 0
M  V30 1371 H 132.233 -3.78239 -0.414227 0
M  V30 1372 H 131.745 -3.61847 1.40314 0
M  V30 1373 H 129.846 -3.5714 -1.06217 0
M  V30 1374 H 129.959 -4.77532 0.387265 0
M  V30 1375 H 128.323 -2.54465 0.109284 0
M  V30 1376 H 129.106 -2.96735 1.72636 0
M  V30 1377 N 131.551 -0.354651 -1.53558 0
M  V30 1378 C 132.484 0.540273 -2.21712 0
M  V30 1379 C 133.462 1.09161 -1.2051 0
M  V30 1380 O 134.646 1.14979 -1.49372 0
M  V30 1381 C 131.773 1.74435 -2.90328 0
M  V30 1382 C 130.819 1.32146 -4.05512 0
M  V30 1383 S 131.652 0.331924 -5.3447 0
M  V30 1384 C 132.808 1.54258 -6.06593 0
M  V30 1385 H 133.041 -0.0385776 -2.97275 0
M  V30 1386 H 130.574 -0.138736 -1.53775 0
M  V30 1387 H 132.532 2.43507 -3.30476 0
M  V30 1388 H 131.193 2.29444 -2.1451 0
M  V30 1389 H 130.386 2.21952 -4.52497 0
M  V30 1390 H 129.988 0.710091 -3.67197 0
M  V30 1391 H 132.28 2.47534 -6.30661 0
M  V30 1392 H 133.223 1.11431 -6.99277 0
M  V30 1393 H 133.631 1.74367 -5.36895 0
M  V30 1394 N 133.029 1.57378 -0.0835403 0
M  V30 1395 C 134.254 1.98682 0.594987 0
M  V30 1396 C 134.679 0.961969 1.61641 0
M  V30 1397 O 134.037 -0.0709989 1.81161 0
M  V30 1398 C 134.085 3.38988 1.2296 0
M  V30 1399 O 133.189 3.39208 2.34546 0
M  V30 1400 H 132.53 0.646368 0.152002 0
M  V30 1401 H 135.06 2.03961 -0.161533 0
M  V30 1402 H 135.07 3.76431 1.57366 0
M  V30 1403 H 133.745 4.13107 0.481228 0
M  V30 1404 H 132.322 3.13548 2.01846 0
M  V30 1405 N 134.507 -0.190092 1.56449 0
M  V30 1406 C 135.439 -1.25973 1.91477 0
M  V30 1407 C 136.452 -1.41452 0.805931 0
M  V30 1408 O 137.641 -1.41789 1.08435 0
M  V30 1409 C 134.741 -2.63117 2.13594 0
M  V30 1410 C 133.914 -2.69182 3.4476 0
M  V30 1411 C 132.973 -3.87557 3.5593 0
M  V30 1412 O 131.999 -3.74427 4.28711 0
M  V30 1413 N 133.201 -5.03224 2.89388 0
M  V30 1414 H 135.966 -0.962394 2.83828 0
M  V30 1415 H 133.527 -0.379981 1.57378 0
M  V30 1416 H 135.519 -3.40742 2.1835 0
M  V30 1417 H 134.089 -2.85319 1.27719 0
M  V30 1418 H 133.309 -1.77793 3.51828 0
M  V30 1419 H 134.597 -2.70229 4.31107 0
M  V30 1420 H 133.995 -5.16791 2.30094 0
M  V30 1421 H 132.552 -5.78778 2.99764 0
M  V30 1422 N 135.985 -1.50799 -0.457987 0
M  V30 1423 C 136.948 -1.7005 -1.53674 0
M  V30 1424 C 137.948 -0.570881 -1.50325 0
M  V30 1425 O 139.138 -0.838126 -1.52712 0
M  V30 1426 C 136.27 -1.73788 -2.93276 0
M  V30 1427 H 137.463 -2.66306 -1.37917 0
M  V30 1428 H 135.016 -1.40477 -0.685271 0
M  V30 1429 H 135.751 -0.792717 -3.14462 0
M  V30 1430 H 135.536 -2.55864 -2.97113 0
M  V30 1431 H 137.026 -1.90591 -3.71571 0
M  V30 1432 N 137.463 0.71206 -1.40597 0
M  V30 1433 C 138.879 1.02058 -1.22704 0
M  V30 1434 C 139.079 2.01228 -0.104729 0
M  V30 1435 O 138.135 2.4674 0.53624 0
M  V30 1436 C 139.448 1.56094 -2.57012 0
M  V30 1437 C 140.996 1.6806 -2.64054 0
M  V30 1438 C 141.471 2.25501 -3.9864 0
M  V30 1439 N 142.962 2.32882 -4.004 0
M  V30 1440 C 143.697 2.78317 -5.01325 0
M  V30 1441 N 143.193 3.23478 -6.12645 0
M  V30 1442 N 144.986 2.77733 -4.88693 0
M  V30 1443 H 137.137 0.0547896 -2.12329 0
M  V30 1444 H 139.4 0.0869027 -0.944008 0
M  V30 1445 H 139.106 0.906865 -3.39807 0
M  V30 1446 H 138.98 2.54564 -2.78347 0
M  V30 1447 H 141.367 2.32583 -1.81629 0
M  V30 1448 H 141.448 0.681802 -2.46546 0
M  V30 1449 H 141.092 1.61598 -4.81506 0
M  V30 1450 H 141.022 3.26102 -4.13479 0
M  V30 1451 H 143.513 2.00991 -3.20017 0
M  V30 1452 H 143.826 3.56725 -6.85542 0
M  V30 1453 H 142.171 3.21429 -6.16205 0
M  V30 1454 H 145.362 2.4179 -4.00818 0
M  V30 1455 H 145.535 3.12826 -5.67489 0
M  V30 1456 N 138.941 1.26152 0.944643 0
M  V30 1457 C 139.851 1.09176 2.07648 0
M  V30 1458 C 140.867 0.0261935 1.7398 0
M  V30 1459 O 142.043 0.229208 2.00091 0
M  V30 1460 C 139.108 0.722915 3.39079 0
M  V30 1461 C 138.169 1.86752 3.86552 0
M  V30 1462 C 137.402 1.51617 5.11711 0
M  V30 1463 O 137.625 0.416331 5.68879 0
M  V30 1464 O 136.559 2.34975 5.54139 0
M  V30 1465 H 140.385 2.0412 2.24875 0
M  V30 1466 H 137.97 1.05182 1.061 0
M  V30 1467 H 139.852 0.529787 4.18056 0
M  V30 1468 H 138.527 -0.197159 3.23099 0
M  V30 1469 H 137.434 2.11558 3.08535 0
M  V30 1470 H 138.767 2.76719 4.07047 0
M  V30 1471 N 140.419 -1.14872 1.07899 0
M  V30 1472 C 141.382 -2.17986 0.708161 0
M  V30 1473 C 142.382 -1.58775 -0.25442 0
M  V30 1474 O 143.572 -1.74166 -0.034645 0
M  V30 1475 C 140.704 -3.40871 0.0446929 0
M  V30 1476 H 141.897 -2.52306 1.62116 0
M  V30 1477 H 139.45 -1.2943 0.876218 0
M  V30 1478 H 140.185 -3.12124 -0.880281 0
M  V30 1479 H 139.97 -3.8511 0.737091 0
M  V30 1480 H 141.46 -4.17121 -0.19991 0
M  V30 1481 N 141.898 -0.863906 -1.31812 0
M  V30 1482 C 143.144 -0.472535 -1.97218 0
M  V30 1483 C 143.477 0.971394 -1.68159 0
M  V30 1484 O 142.752 1.68309 -0.974798 0
M  V30 1485 C 143.035 -0.723054 -3.52766 0
M  V30 1486 C 142.888 -2.21608 -3.91421 0
M  V30 1487 C 144.207 -0.185522 -4.39709 0
M  V30 1488 H 141.326 -0.173158 -0.71637 0
M  V30 1489 H 143.968 -1.08403 -1.56041 0
M  V30 1490 H 142.118 -0.202577 -3.87971 0
M  V30 1491 H 143.79 -2.80334 -3.66347 0
M  V30 1492 H 142.033 -2.691 -3.40246 0
M  V30 1493 H 142.704 -2.34203 -4.99853 0
M  V30 1494 H 145.18 -0.630726 -4.11292 0
M  V30 1495 H 144.056 -0.390306 -5.47511 0
M  V30 1496 H 144.317 0.912229 -4.32586 0
M  V30 1497 N 143.376 1.44774 -0.622745 0
M  V30 1498 C 144.625 2.01334 -0.121397 0
M  V30 1499 C 144.938 1.49505 1.26125 0
M  V30 1500 O 146.144 1.98139 1.85616 0
M  V30 1501 C 144.6 3.59516 -0.166298 0
M  V30 1502 C 144.208 4.20342 -1.54974 0
M  V30 1503 C 145.952 4.23582 0.279021 0
M  V30 1504 C 143.859 5.70721 -1.55021 0
M  V30 1505 H 142.789 0.752851 -0.0416172 0
M  V30 1506 H 145.44 1.66083 -0.780309 0
M  V30 1507 H 143.822 3.92027 0.559557 0
M  V30 1508 H 144.996 3.99381 -2.29851 0
M  V30 1509 H 143.311 3.68529 -1.93843 0
M  V30 1510 H 145.908 5.33868 0.298083 0
M  V30 1511 H 146.251 3.95327 1.30471 0
M  V30 1512 H 146.784 3.95843 -0.394063 0
M  V30 1513 H 143.523 6.03698 -2.55399 0
M  V30 1514 H 143.043 5.93829 -0.844245 0
M  V30 1515 H 144.722 6.34203 -1.28047 0
M  V30 1516 N 144.854 0.36279 1.53368 0
M  V30 1517 C 145.817 -0.472679 2.24273 0
M  V30 1518 C 146.817 -1.012 1.24961 0
M  V30 1519 O 148.007 -0.898194 1.49259 0
M  V30 1520 C 145.139 -1.66039 2.97731 0
M  V30 1521 H 146.332 0.14773 2.99536 0
M  V30 1522 H 143.885 0.114434 1.55881 0
M  V30 1523 H 144.62 -2.31896 2.26704 0
M  V30 1524 H 144.405 -1.28066 3.70596 0
M  V30 1525 H 145.895 -2.25252 3.51641 0
M  V30 1526 N 146.332 -1.57332 0.0918853 0
M  V30 1527 C 147.295 -2.12708 -0.85369 0
M  V30 1528 C 148.295 -1.05561 -1.213 0
M  V30 1529 O 149.485 -1.31461 -1.14296 0
M  V30 1530 C 146.617 -2.64503 -2.15061 0
M  V30 1531 H 147.81 -2.97573 -0.3729 0
M  V30 1532 H 145.363 -1.55509 -0.157072 0
M  V30 1533 H 146.098 -1.83149 -2.67632 0
M  V30 1534 H 145.883 -3.4284 -1.90272 0
M  V30 1535 H 147.373 -3.07351 -2.82711 0
M  V30 1536 N 147.81 0.181792 -1.56548 0
M  V30 1537 C 148.773 1.20894 -1.94724 0
M  V30 1538 C 149.773 1.37738 -0.829747 0
M  V30 1539 O 150.963 1.35323 -1.09697 0
M  V30 1540 C 148.095 2.57593 -2.23291 0
M  V30 1541 H 149.288 0.882275 -2.86629 0
M  V30 1542 H 146.841 0.423838 -1.50444 0
M  V30 1543 H 147.576 2.95291 -1.34067 0
M  V30 1544 H 147.361 2.46735 -3.04736 0
M  V30 1545 H 148.851 3.31637 -2.53785 0
M  V30 1546 N 149.288 1.51039 0.449983 0
M  V30 1547 C 150.535 1.63081 1.20045 0
M  V30 1548 C 150.863 0.341024 1.91487 0
M  V30 1549 O 150.118 -0.674276 1.83717 0
M  V30 1550 C 150.417 2.77556 2.25161 0
M  V30 1551 C 150.083 4.17289 1.70823 0
M  V30 1552 C 148.745 4.55305 1.55725 0
M  V30 1553 C 151.097 5.04536 1.3074 0
M  V30 1554 C 148.425 5.78287 0.989999 0
M  V30 1555 C 150.777 6.28085 0.754482 0
M  V30 1556 C 149.441 6.64885 0.590308 0
M  V30 1557 H 148.711 0.596755 0.439277 0
M  V30 1558 H 151.358 1.85037 0.49333 0
M  V30 1559 H 149.663 2.49771 3.01863 0
M  V30 1560 H 151.36 2.84073 2.83026 0
M  V30 1561 H 147.95 3.8731 1.83546 0
M  V30 1562 H 152.134 4.75782 1.41229 0
M  V30 1563 H 147.39 6.05456 0.850451 0
M  V30 1564 H 151.564 6.95038 0.435324 0
M  V30 1565 H 149.191 7.60055 0.14862 0
M  V30 1566 N 150.766 -0.704594 1.40972 0
M  V30 1567 C 151.729 -1.80035 1.41845 0
M  V30 1568 C 152.729 -1.57774 0.310474 0
M  V30 1569 O 153.919 -1.64613 0.56992 0
M  V30 1570 C 151.051 -3.18284 1.22098 0
M  V30 1571 H 152.244 -1.80658 2.3938 0
M  V30 1572 H 149.797 -0.911329 1.26982 0
M  V30 1573 H 150.532 -3.23306 0.253672 0
M  V30 1574 H 150.317 -3.35843 2.02366 0
M  V30 1575 H 151.807 -3.98289 1.25522 0
M  V30 1576 N 152.244 -1.26651 -0.937939 0
M  V30 1577 C 153.191 -1.0849 -2.03712 0
M  V30 1578 C 154.161 0.011033 -1.66096 0
M  V30 1579 O 155.346 -0.149353 -1.90215 0
M  V30 1580 C 152.486 -0.72735 -3.37348 0
M  V30 1581 C 151.599 -1.89986 -3.87981 0
M  V30 1582 C 150.734 -1.48513 -5.10017 0
M  V30 1583 C 149.773 -2.62575 -5.5292 0
M  V30 1584 N 148.91 -2.21762 -6.66158 0
M  V30 1585 H 153.75 -2.02551 -2.18579 0
M  V30 1586 H 151.287 -1.00844 -1.07093 0
M  V30 1587 H 153.245 -0.50092 -4.14182 0
M  V30 1588 H 151.875 0.176298 -3.22318 0
M  V30 1589 H 150.927 -2.23913 -3.07518 0
M  V30 1590 H 152.239 -2.75586 -4.15757 0
M  V30 1591 H 151.393 -1.21934 -5.94321 0
M  V30 1592 H 150.132 -0.60009 -4.83994 0
M  V30 1593 H 149.137 -2.8988 -4.67172 0
M  V30 1594 H 150.362 -3.51685 -5.80943 0
M  V30 1595 H 148.308 -1.35696 -6.41812 0
M  V30 1596 H 148.225 -3.00903 -6.93537 0
M  V30 1597 H 149.493 -1.98403 -7.53828 0
M  V30 1598 N 153.722 1.14298 -1.08507 0
M  V30 1599 C 154.652 2.21542 -0.737646 0
M  V30 1600 C 155.633 1.67773 0.280377 0
M  V30 1601 O 156.818 1.93616 0.150521 0
M  V30 1602 C 153.948 3.46988 -0.147259 0
M  V30 1603 C 152.902 4.13789 -1.09374 0
M  V30 1604 C 152.228 5.33449 -0.365524 0
M  V30 1605 C 153.528 4.62208 -2.4323 0
M  V30 1606 H 155.222 2.5086 -1.6343 0
M  V30 1607 H 152.768 1.20576 -0.787243 0
M  V30 1608 H 154.721 4.21262 0.107808 0
M  V30 1609 H 153.445 3.17037 0.784538 0
M  V30 1610 H 152.104 3.4147 -1.33393 0
M  V30 1611 H 151.752 4.99759 0.57011 0
M  V30 1612 H 151.452 5.79088 -0.996512 0
M  V30 1613 H 152.976 6.10485 -0.118534 0
M  V30 1614 H 154.39 5.27952 -2.23472 0
M  V30 1615 H 152.787 5.18553 -3.02031 0
M  V30 1616 H 153.857 3.77224 -3.04681 0
M  V30 1617 N 155.201 0.870884 1.31352 0
M  V30 1618 C 156.478 0.402907 1.91405 0
M  V30 1619 C 156.858 -1.11512 1.79244 0
M  V30 1620 O 156.206 -1.94411 1.2007 0
M  V30 1621 C 156.416 0.885301 3.37585 0
M  V30 1622 C 157.764 0.911971 4.14691 0
M  V30 1623 O 158.788 0.831016 3.46371 0
M  V30 1624 O 157.647 1.02927 5.3672 0
M  V30 1625 H 154.741 0.120698 0.818145 0
M  V30 1626 H 157.287 0.958857 1.40014 0
M  V30 1627 H 156.059 1.92889 3.40455 0
M  V30 1628 H 155.682 0.307714 3.96407 0
M  V30 1629 N 156.679 -1.44442 0.630414 0
M  V30 1630 C 158.095 -1.56832 0.295973 0
M  V30 1631 C 158.295 -1.61806 -1.20088 0
M  V30 1632 O 157.351 -1.5607 -1.9849 0
M  V30 1633 C 158.664 -2.84031 0.987264 0
M  V30 1634 C 160.212 -2.97742 0.96534 0
M  V30 1635 C 160.687 -4.27743 1.63708 0
M  V30 1636 N 162.178 -4.34555 1.60364 0
M  V30 1637 C 162.913 -5.33862 2.09234 0
M  V30 1638 N 162.409 -6.39578 2.66292 0
M  V30 1639 N 164.202 -5.25366 1.99867 0
M  V30 1640 H 156.353 -1.39457 1.60205 0
M  V30 1641 H 158.616 -0.668237 0.672431 0
M  V30 1642 H 158.322 -2.86338 2.04215 0
M  V30 1643 H 158.196 -3.73534 0.524588 0
M  V30 1644 H 160.583 -2.94989 -0.0810639 0
M  V30 1645 H 160.664 -2.09589 1.4665 0
M  V30 1646 H 160.308 -4.31255 2.68293 0
M  V30 1647 H 160.238 -5.14752 1.11076 0
M  V30 1648 H 162.729 -3.58772 1.18705 0
M  V30 1649 H 163.042 -7.11637 3.01317 0
M  V30 1650 H 161.387 -6.40265 2.70343 0
M  V30 1651 H 164.578 -4.41688 1.55013 0
M  V30 1652 H 164.751 -6.02606 2.38265 0
M  V30 1653 N 158.157 -0.370918 -1.53173 0
M  V30 1654 C 159.382 0.220293 -2.06227 0
M  V30 1655 C 159.807 1.41243 -1.24225 0
M  V30 1656 O 159.165 1.79387 -0.262645 0
M  V30 1657 C 159.213 0.586663 -3.55796 0
M  V30 1658 O 158.317 1.68317 -3.76488 0
M  V30 1659 H 157.658 0.0308099 -0.663285 0
M  V30 1660 H 160.188 -0.533068 -1.97534 0
M  V30 1661 H 160.198 0.85617 -3.98916 0
M  V30 1662 H 158.873 -0.285013 -4.14922 0
M  V30 1663 H 157.45 1.40881 -3.45264 0
M  V30 1664 N 159.635 1.57281 -0.100228 0
M  V30 1665 C 160.883 1.94153 0.561157 0
M  V30 1666 C 161.204 0.983157 1.68401 0
M  V30 1667 O 160.474 0.0361132 1.95867 0
M  V30 1668 H 159.054 0.716791 0.210283 0
M  V30 1669 H 161.716 1.94202 -0.164765 0
M  V30 1670 H 160.812 2.96709 0.968008 0
M  V30 1671 N 161.113 -0.173488 1.56642 0
M  V30 1672 C 162.39 -0.917617 1.7274 0
M  V30 1673 C 162.77 -2.00484 0.661027 0
M  V30 1674 O 162.118 -2.26184 -0.32453 0
M  V30 1675 C 162.328 -1.48433 3.15862 0
M  V30 1676 C 163.676 -1.95809 3.76754 0
M  V30 1677 O 164.7 -1.58231 3.19126 0
M  V30 1678 O 163.559 -2.65024 4.77938 0
M  V30 1679 H 160.653 -0.431772 0.705338 0
M  V30 1680 H 163.199 -0.161487 1.6893 0
M  V30 1681 H 161.971 -0.701715 3.84957 0
M  V30 1682 H 161.594 -2.30471 3.23989 0
M  V30 1683 N 162.591 -1.51276 -0.441967 0
M  V30 1684 C 163.839 -1.63392 -1.18943 0
M  V30 1685 C 164.16 -0.350159 -1.9183 0
M  V30 1686 O 163.43 0.633784 -1.85364 0
M  V30 1687 H 162.01 -0.602164 -0.442049 0
M  V30 1688 H 164.672 -1.88186 -0.507165 0
M  V30 1689 H 163.768 -2.45934 -1.92154 0
M  V30 1690 N 164.069 0.697108 -1.41344 0
M  V30 1691 C 165.315 1.4593 -1.40827 0
M  V30 1692 C 165.648 1.94193 -0.0167098 0
M  V30 1693 O 164.923 1.69425 0.955263 0
M  V30 1694 C 165.206 2.67229 -2.41373 0
M  V30 1695 C 165.059 2.24741 -3.8963 0
M  V30 1696 C 166.378 3.69423 -2.39196 0
M  V30 1697 H 163.497 0.529303 -0.512842 0
M  V30 1698 H 166.139 0.794112 -1.72609 0
M  V30 1699 H 164.289 3.23982 -2.14401 0
M  V30 1700 H 165.961 1.73327 -4.27499 0
M  V30 1701 H 164.204 1.56542 -4.0457 0
M  V30 1702 H 164.875 3.1177 -4.55525 0
M  V30 1703 H 167.351 3.2234 -2.63128 0
M  V30 1704 H 166.227 4.51907 -3.11563 0
M  V30 1705 H 166.488 4.19012 -1.41001 0
M  V30 1706 N 165.547 1.27147 0.931209 0
M  V30 1707 C 166.793 1.13446 1.68101 0
M  V30 1708 C 167.126 -0.319628 1.91552 0
M  V30 1709 O 166.401 -1.23407 1.50336 0
M  V30 1710 C 166.684 1.91482 3.0497 0
M  V30 1711 C 166.537 3.44855 2.88782 0
M  V30 1712 C 167.856 1.71651 4.05246 0
M  V30 1713 H 164.975 0.413498 0.610072 0
M  V30 1714 H 167.617 1.56261 1.08086 0
M  V30 1715 H 165.767 1.55095 3.56199 0
M  V30 1716 H 167.439 3.9105 2.44698 0
M  V30 1717 H 165.682 3.71373 2.24198 0
M  V30 1718 H 166.353 3.94694 3.85902 0
M  V30 1719 H 168.829 2.0337 3.63015 0
M  V30 1720 H 167.705 2.28651 4.99009 0
M  V30 1721 H 167.966 0.663555 4.37092 0
M  V30 1722 N 167.025 -1.13721 1.09112 0
M  V30 1723 C 168.253 -1.88773 0.846899 0
M  V30 1724 C 168.668 -1.7896 -0.601572 0
M  V30 1725 O 168.025 -1.15394 -1.41388 0
M  V30 1726 C 168.076 -3.3849 1.26913 0
M  V30 1727 O 167.797 -3.48043 2.66079 0
M  V30 1728 C 169.298 -4.30518 1.05682 0
M  V30 1729 H 166.518 -0.59772 0.304914 0
M  V30 1730 H 169.062 -1.43977 1.45227 0
M  V30 1731 H 167.217 -3.80881 0.707723 0
M  V30 1732 H 167.631 -4.4109 2.83795 0
M  V30 1733 H 169.105 -5.3391 1.40156 0
M  V30 1734 H 169.582 -4.392 -0.00563416 0
M  V30 1735 H 170.188 -3.93893 1.60402 0
M  V30 1736 N 168.503 -0.877838 -1.30888 0
M  V30 1737 C 169.749 -0.493426 -1.96706 0
M  V30 1738 C 170.082 0.953504 -1.6918 0
M  V30 1739 O 169.357 1.67266 -0.992594 0
M  V30 1740 C 169.64 -0.760429 -3.51979 0
M  V30 1741 C 169.493 -2.25747 -3.89048 0
M  V30 1742 C 170.812 -0.232148 -4.39487 0
M  V30 1743 H 167.931 -0.180746 -0.714493 0
M  V30 1744 H 170.573 -1.10052 -1.54882 0
M  V30 1745 H 168.723 -0.243715 -3.87735 0
M  V30 1746 H 170.395 -2.84204 -3.63354 0
M  V30 1747 H 168.638 -2.72694 -3.37373 0
M  V30 1748 H 169.309 -2.39491 -4.97341 0
M  V30 1749 H 171.785 -0.674314 -4.106 0
M  V30 1750 H 170.661 -0.448355 -5.47066 0
M  V30 1751 H 170.922 0.866297 -4.33529 0
M  V30 1752 N 169.982 1.44106 -0.638065 0
M  V30 1753 C 171.259 1.95453 -0.0759321 0
M  V30 1754 C 171.639 1.57984 1.40015 0
M  V30 1755 O 170.987 0.857361 2.11806 0
M  V30 1756 C 171.197 3.47655 -0.306132 0
M  V30 1757 C 172.545 4.24114 -0.203008 0
M  V30 1758 O 173.569 3.55405 -0.237871 0
M  V30 1759 O 172.428 5.46381 -0.113827 0
M  V30 1760 H 169.522 0.826797 0.0183332 0
M  V30 1761 H 172.068 1.54122 -0.710251 0
M  V30 1762 H 170.84 3.68 -1.3301 0
M  V30 1763 H 170.463 3.95949 0.361991 0
M  V30 1764 N 171.46 0.379036 1.52974 0
M  V30 1765 C 172.737 -0.263479 1.93817 0
M  V30 1766 C 173.117 -1.65244 1.31368 0
M  V30 1767 O 172.465 -2.23448 0.477856 0
M  V30 1768 C 172.675 -0.300166 3.47707 0
M  V30 1769 C 174.023 -0.534061 4.21228 0
M  V30 1770 O 175.047 -0.38081 3.54159 0
M  V30 1771 O 173.906 -0.833501 5.40106 0
M  V30 1772 H 171 -0.161149 0.811147 0
M  V30 1773 H 173.546 0.432798 1.64088 0
M  V30 1774 H 172.318 0.673138 3.85467 0
M  V30 1775 H 171.941 -1.04179 3.83709 0
M  V30 1776 N 172.938 -1.57226 0.108567 0
M  V30 1777 C 173.868 -2.17778 -0.84232 0
M  V30 1778 C 174.849 -1.11487 -1.2847 0
M  V30 1779 O 176.034 -1.39681 -1.34918 0
M  V30 1780 C 173.164 -2.76888 -2.09644 0
M  V30 1781 C 172.118 -3.88669 -1.79221 0
M  V30 1782 C 171.444 -4.34541 -3.11574 0
M  V30 1783 C 172.744 -5.11251 -1.06864 0
M  V30 1784 H 174.438 -2.97489 -0.337774 0
M  V30 1785 H 171.984 -1.43097 -0.161025 0
M  V30 1786 H 173.937 -3.17904 -2.76614 0
M  V30 1787 H 172.661 -1.94451 -2.62405 0
M  V30 1788 H 171.32 -3.48213 -1.14644 0
M  V30 1789 H 170.968 -3.48977 -3.62249 0
M  V30 1790 H 170.668 -5.09914 -2.91996 0
M  V30 1791 H 172.192 -4.782 -3.7968 0
M  V30 1792 H 173.606 -5.49352 -1.63968 0
M  V30 1793 H 172.003 -5.9214 -0.974178 0
M  V30 1794 H 173.073 -4.8487 -0.0536168 0
M  V30 1795 N 174.416 0.165178 -1.56732 0
M  V30 1796 C 175.832 0.517174 -1.50988 0
M  V30 1797 C 176.032 1.84331 -0.813894 0
M  V30 1798 O 175.088 2.49672 -0.37682 0
M  V30 1799 C 176.401 0.544261 -2.95733 0
M  V30 1800 C 177.949 0.631039 -3.06573 0
M  V30 1801 C 178.424 0.68896 -4.52788 0
M  V30 1802 N 179.915 0.751683 -4.5706 0
M  V30 1803 C 180.65 0.817177 -5.67547 0
M  V30 1804 N 180.146 0.843129 -6.8765 0
M  V30 1805 N 181.939 0.856668 -5.55534 0
M  V30 1806 H 174.09 -0.704318 -2.00382 0
M  V30 1807 H 176.353 -0.254687 -0.913148 0
M  V30 1808 H 176.059 -0.361607 -3.49836 0
M  V30 1809 H 175.933 1.3886 -3.5071 0
M  V30 1810 H 178.32 1.52733 -2.52501 0
M  V30 1811 H 178.401 -0.240095 -2.54671 0
M  V30 1812 H 178.045 -0.2031 -5.07494 0
M  V30 1813 H 177.975 1.57633 -5.02454 0
M  V30 1814 H 180.466 0.739661 -3.70591 0
M  V30 1815 H 180.779 0.894448 -7.67606 0
M  V30 1816 H 179.124 0.811304 -6.90248 0
M  V30 1817 H 182.315 0.833437 -4.60621 0
M  V30 1818 H 182.488 0.904247 -6.4166 0
M  V30 1819 N 175.894 1.51508 0.433938 0
M  V30 1820 C 177.142 1.6402 1.18075 0
M  V30 1821 C 177.463 0.360328 1.91642 0
M  V30 1822 O 176.733 -0.623945 1.85698 0
M  V30 1823 H 175.313 0.6045 0.43885 0
M  V30 1824 H 177.975 1.88452 0.497178 0
M  V30 1825 H 177.071 2.46949 1.90847 0
M  V30 1826 N 177.372 -0.689602 1.41712 0
M  V30 1827 C 178.618 -1.45181 1.41599 0
M  V30 1828 C 178.951 -1.94181 0.0270081 0
M  V30 1829 O 178.226 -1.6993 -0.946265 0
M  V30 1830 C 178.509 -2.65945 2.42787 0
M  V30 1831 C 178.362 -2.22672 3.90816 0
M  V30 1832 C 179.681 -3.68149 2.41151 0
M  V30 1833 H 176.8 -0.526576 0.515642 0
M  V30 1834 H 179.442 -0.784947 1.73028 0
M  V30 1835 H 177.592 -3.2284 2.16116 0
M  V30 1836 H 179.264 -1.71058 4.28412 0
M  V30 1837 H 177.507 -1.54394 4.05395 0
M  V30 1838 H 178.178 -3.0935 4.57172 0
M  V30 1839 H 180.654 -3.2094 2.64834 0
M  V30 1840 H 179.53 -4.50248 3.13955 0
M  V30 1841 H 179.791 -4.18259 1.43221 0
M  V30 1842 N 178.85 -1.27639 -0.924453 0
M  V30 1843 C 180.08 -1.16819 -1.70402 0
M  V30 1844 C 180.488 0.277191 -1.87158 0
M  V30 1845 O 179.831 1.20025 -1.39067 0
M  V30 1846 C 179.893 -1.78305 -3.12166 0
M  V30 1847 C 179.557 -3.27502 -3.18734 0
M  V30 1848 C 180.554 -4.2409 -3.00738 0
M  V30 1849 C 178.239 -3.68269 -3.4159 0
M  V30 1850 C 180.233 -5.59422 -3.05492 0
M  V30 1851 C 177.92 -5.0373 -3.45977 0
M  V30 1852 C 178.918 -5.99116 -3.27946 0
M  V30 1853 O 178.606 -7.32108 -3.32074 0
M  V30 1854 H 178.338 -0.406931 -0.539799 0
M  V30 1855 H 180.892 -1.69078 -1.16626 0
M  V30 1856 H 179.122 -1.20528 -3.67437 0
M  V30 1857 H 180.811 -1.62154 -3.72103 0
M  V30 1858 H 181.577 -3.93931 -2.82919 0
M  V30 1859 H 177.456 -2.94496 -3.54673 0
M  V30 1860 H 181 -6.33852 -2.91337 0
M  V30 1861 H 176.897 -5.33543 -3.63321 0
M  V30 1862 H 177.665 -7.40598 -3.48507 0
M  V30 1863 N 180.328 1.1314 -1.09713 0
M  V30 1864 C 181.553 1.88862 -0.857081 0
M  V30 1865 C 181.978 1.78729 0.586304 0
M  V30 1866 O 181.336 1.13692 1.41222 0
M  V30 1867 C 181.384 3.36325 -1.30069 0
M  V30 1868 O 180.488 4.09815 -0.461007 0
M  V30 1869 H 179.829 0.587108 -0.310162 0
M  V30 1870 H 182.359 1.43129 -1.46203 0
M  V30 1871 H 182.369 3.87157 -1.28738 0
M  V30 1872 H 181.044 3.43017 -2.35185 0
M  V30 1873 H 179.621 3.68986 -0.538888 0
M  V30 1874 N 181.806 0.884767 1.30421 0
M  V30 1875 C 183.054 0.502112 1.95763 0
M  V30 1876 C 183.375 -0.951815 1.70192 0
M  V30 1877 O 182.645 -1.6692 1.0254 0
M  V30 1878 H 181.225 0.182694 0.724315 0
M  V30 1879 H 183.887 1.1278 1.58955 0
M  V30 1880 H 182.983 0.672188 3.04775 0
M  V30 1881 N 183.284 -1.43765 0.645699 0
M  V30 1882 C 184.7 -1.56509 0.312591 0
M  V30 1883 C 184.9 -1.6307 -1.18365 0
M  V30 1884 O 183.956 -1.58167 -1.96824 0
M  V30 1885 C 185.269 -2.82968 1.01733 0
M  V30 1886 C 186.817 -2.96701 0.996865 0
M  V30 1887 C 187.292 -4.25982 1.68236 0
M  V30 1888 N 188.783 -4.32829 1.64964 0
M  V30 1889 C 189.518 -5.31613 2.14885 0
M  V30 1890 N 189.014 -6.36718 2.73061 0
M  V30 1891 N 190.807 -5.23217 2.05428 0
M  V30 1892 H 182.958 -1.3775 1.61675 0
M  V30 1893 H 185.221 -0.661067 0.679481 0
M  V30 1894 H 184.927 -2.84156 2.0724 0
M  V30 1895 H 184.801 -3.72957 0.564177 0
M  V30 1896 H 187.188 -2.95058 -0.0497719 0
M  V30 1897 H 187.269 -2.08022 1.48865 0
M  V30 1898 H 186.913 -4.28386 2.72852 0
M  V30 1899 H 186.843 -5.13545 1.16529 0
M  V30 1900 H 189.334 -3.57493 1.22503 0
M  V30 1901 H 189.647 -7.08401 3.08848 0
M  V30 1902 H 187.992 -6.37362 2.77118 0
M  V30 1903 H 191.183 -4.40019 1.59689 0
M  V30 1904 H 191.356 -6.00045 2.44643 0
M  V30 1905 N 184.763 -0.387143 -1.52771 0
M  V30 1906 C 185.726 0.436939 -2.24997 0
M  V30 1907 C 186.726 0.991991 -1.26555 0
M  V30 1908 O 187.916 0.874335 -1.50669 0
M  V30 1909 C 185.048 1.61281 -3.00335 0
M  V30 1910 H 186.241 -0.195365 -2.99263 0
M  V30 1911 H 183.794 -0.139218 -1.55679 0
M  V30 1912 H 184.529 2.2826 -2.30364 0
M  V30 1913 H 184.314 1.22154 -3.72587 0
M  V30 1914 H 185.804 2.19629 -3.5518 0
M  V30 1915 N 186.241 1.57166 -0.116904 0
M  V30 1916 C 187.191 2.11756 0.845178 0
M  V30 1917 C 188.175 1.03783 1.22955 0
M  V30 1918 O 189.367 1.3002 1.20099 0
M  V30 1919 C 186.496 2.71886 2.09602 0
M  V30 1920 C 185.582 3.86937 1.7361 0
M  V30 1921 N 185.973 4.94073 1.08284 0
M  V30 1922 C 184.271 3.97082 2.03082 0
M  V30 1923 C 184.972 5.74477 0.913855 0
M  V30 1924 N 183.948 5.2423 1.43818 0
M  V30 1925 H 187.75 2.91967 0.336523 0
M  V30 1926 H 185.264 1.62174 0.0856332 0
M  V30 1927 H 187.261 3.09338 2.79492 0
M  V30 1928 H 185.921 1.93138 2.61013 0
M  V30 1929 H 186.932 5.12483 0.747067 0
M  V30 1930 H 183.609 3.29372 2.56554 0
M  V30 1931 H 184.999 6.70701 0.40125 0
M  V30 1932 N 187.719 -0.156864 1.56817 0
M  V30 1933 C 189.13 -0.717916 1.72345 0
M  V30 1934 C 189.481 -1.82124 0.729747 0
M  V30 1935 O 188.606 -2.16141 -0.105781 0
M  V30 1936 C 189.201 -1.30904 3.12489 0
M  V30 1937 C 187.76 -1.81676 3.29653 0
M  V30 1938 C 186.907 -0.701349 2.68284 0
M  V30 1939 H 189.858 0.0686989 1.58551 0
M  V30 1940 H 189.879 -2.17882 3.11942 0
M  V30 1941 H 189.391 -0.505796 3.8479 0
M  V30 1942 H 187.492 -2.64598 2.62333 0
M  V30 1943 H 187.605 -1.95226 4.3752 0
M  V30 1944 H 185.969 -1.12548 2.28484 0
M  V30 1945 H 186.752 0.0902846 3.43181 0
M  V30 1946 N 189.197 -1.51736 -0.425897 0
M  V30 1947 C 190.144 -1.73875 -1.51776 0
M  V30 1948 C 191.114 -0.580702 -1.55618 0
M  V30 1949 O 192.299 -0.81641 -1.72451 0
M  V30 1950 C 189.439 -1.88012 -2.89388 0
M  V30 1951 C 188.552 -3.15606 -2.94986 0
M  V30 1952 C 187.687 -3.20271 -4.23793 0
M  V30 1953 C 186.726 -4.42134 -4.23302 0
M  V30 1954 N 185.863 -4.44284 -5.43651 0
M  V30 1955 H 190.703 -2.67071 -1.32201 0
M  V30 1956 H 188.24 -1.32351 -0.642008 0
M  V30 1957 H 190.198 -1.9419 -3.69251 0
M  V30 1958 H 188.828 -0.98213 -3.07496 0
M  V30 1959 H 187.88 -3.18681 -2.07717 0
M  V30 1960 H 189.192 -4.05486 -2.90486 0
M  V30 1961 H 188.346 -3.25428 -5.12036 0
M  V30 1962 H 187.085 -2.28299 -4.30965 0
M  V30 1963 H 186.09 -4.3714 -3.3345 0
M  V30 1964 H 187.315 -5.35382 -4.17783 0
M  V30 1965 H 185.261 -3.55188 -5.51523 0
M  V30 1966 H 185.178 -5.27988 -5.41078 0
M  V30 1967 H 186.446 -4.53649 -6.33895 0
M  V30 1968 N 190.675 0.682077 -1.42076 0
M  V30 1969 C 191.921 1.44428 -1.42367 0
M  V30 1970 C 192.254 1.94164 -0.0373056 0
M  V30 1971 O 191.529 1.70429 0.937239 0
M  V30 1972 C 191.812 2.64654 -2.44194 0
M  V30 1973 C 191.665 2.20596 -3.91991 0
M  V30 1974 C 192.984 3.66865 -2.431 0
M  V30 1975 H 190.103 0.523834 -0.518428 0
M  V30 1976 H 192.745 0.77576 -1.73442 0
M  V30 1977 H 190.895 3.2169 -2.17826 0
M  V30 1978 H 192.567 1.68783 -4.29313 0
M  V30 1979 H 190.81 1.52242 -4.06208 0
M  V30 1980 H 191.481 3.06921 -4.58807 0
M  V30 1981 H 193.957 3.19531 -2.66532 0
M  V30 1982 H 192.833 4.48577 -3.16339 0
M  V30 1983 H 193.094 4.17493 -1.45437 0
M  V30 1984 N 192.153 1.28127 0.917671 0
M  V30 1985 C 193.569 1.05749 1.19538 0
M  V30 1986 C 193.769 -0.202633 2.00479 0
M  V30 1987 O 192.825 -0.905382 2.3571 0
M  V30 1988 C 194.138 2.30273 1.93378 0
M  V30 1989 C 195.686 2.35412 2.06277 0
M  V30 1990 C 196.161 3.59692 2.83524 0
M  V30 1991 N 197.652 3.60309 2.91087 0
M  V30 1992 C 198.387 4.53147 3.51348 0
M  V30 1993 N 197.883 5.563 4.12919 0
M  V30 1994 N 199.676 4.40751 3.48849 0
M  V30 1995 H 191.827 2.09024 0.377184 0
M  V30 1996 H 194.09 0.919798 0.22951 0
M  V30 1997 H 193.796 3.22055 1.41328 0
M  V30 1998 H 193.67 2.36378 2.93947 0
M  V30 1999 H 196.057 1.4413 2.57508 0
M  V30 2000 H 196.138 2.33304 1.04895 0
M  V30 2001 H 195.782 4.51316 2.32973 0
M  V30 2002 H 195.712 3.59054 3.85211 0
M  V30 2003 H 198.203 2.85714 2.47338 0
M  V30 2004 H 198.516 6.2329 4.56869 0
M  V30 2005 H 196.861 5.60131 4.11435 0
M  V30 2006 H 200.052 3.59367 2.99955 0
M  V30 2007 H 200.225 5.13291 3.9552 0
M  V30 2008 N 193.631 -1.12557 1.10312 0
M  V30 2009 C 194.856 -1.88405 0.867085 0
M  V30 2010 C 195.281 -1.79038 -0.576817 0
M  V30 2011 O 194.639 -1.14439 -1.40618 0
M  V30 2012 C 194.687 -3.3563 1.31851 0
M  V30 2013 O 193.791 -4.09565 0.482734 0
M  V30 2014 H 193.132 -0.585455 0.313271 0
M  V30 2015 H 195.662 -1.42352 1.4696 0
M  V30 2016 H 195.672 -3.86469 1.3079 0
M  V30 2017 H 194.347 -3.41765 2.37001 0
M  V30 2018 H 192.924 -3.68695 0.558448 0
M  V30 2019 N 195.109 -0.891671 -1.2995 0
M  V30 2020 C 196.357 -0.512486 -1.95494 0
M  V30 2021 C 196.678 0.942776 -1.70695 0
M  V30 2022 O 195.948 1.66374 -1.03424 0
M  V30 2023 H 194.528 -0.186533 -0.723336 0
M  V30 2024 H 197.19 -1.13621 -1.58355 0
M  V30 2025 H 196.286 -0.688342 -3.04415 0
M  V30 2026 N 196.587 1.43421 -0.653314 0
M  V30 2027 C 197.497 2.34568 0.0388565 0
M  V30 2028 C 198.513 1.53888 0.81207 0
M  V30 2029 O 199.689 1.86539 0.759294 0
M  V30 2030 C 196.754 3.32167 0.993269 0
M  V30 2031 C 195.815 4.28751 0.216977 0
M  V30 2032 C 195.048 5.21688 1.12593 0
M  V30 2033 O 195.271 5.19052 2.36519 0
M  V30 2034 O 194.205 5.98919 0.598284 0
M  V30 2035 H 198.031 2.95251 -0.711386 0
M  V30 2036 H 195.616 1.43564 -0.413502 0
M  V30 2037 H 197.498 3.92183 1.54176 0
M  V30 2038 H 196.173 2.73987 1.72374 0
M  V30 2039 H 195.08 3.72215 -0.375101 0
M  V30 2040 H 196.413 4.89913 -0.473924 0
M  V30 2041 N 198.065 0.39524 1.52563 0
M  V30 2042 C 199.311 -0.177763 2.02622 0
M  V30 2043 C 199.666 -1.43974 1.27629 0
M  V30 2044 O 198.959 -1.87995 0.36992 0
M  V30 2045 C 199.153 -0.493444 3.53977 0
M  V30 2046 C 198.982 0.736392 4.4363 0
M  V30 2047 C 197.752 1.25744 4.89404 0
M  V30 2048 C 199.95 1.61046 4.88435 0
M  V30 2049 N 197.932 2.44421 5.63145 0
M  V30 2050 C 199.303 2.64359 5.60816 0
M  V30 2051 C 201.358 1.62985 4.70468 0
M  V30 2052 C 200.061 3.69505 6.17137 0
M  V30 2053 C 202.087 2.67042 5.27677 0
M  V30 2054 C 201.449 3.69077 5.99968 0
M  V30 2055 H 197.548 -0.0269794 0.781534 0
M  V30 2056 H 200.132 0.546466 1.86874 0
M  V30 2057 H 198.303 -1.18672 3.69826 0
M  V30 2058 H 200.035 -1.05412 3.90731 0
M  V30 2059 H 196.79 0.817546 4.6649 0
M  V30 2060 H 197.214 3.04485 6.04663 0
M  V30 2061 H 201.856 0.854442 4.14076 0
M  V30 2062 H 199.574 4.4791 6.72608 0
M  V30 2063 H 203.16 2.69433 5.15652 0
M  V30 2064 H 202.04 4.48273 6.43444 0
M  V30 2065 N 199.544 -1.57102 0.125237 0
M  V30 2066 C 200.772 -1.99761 -0.538797 0
M  V30 2067 C 201.187 -1.00503 -1.59827 0
M  V30 2068 O 200.544 0.00119474 -1.825 0
M  V30 2069 C 200.595 -3.42408 -1.15927 0
M  V30 2070 O 200.316 -4.37869 -0.142143 0
M  V30 2071 C 201.817 -4.00232 -1.90602 0
M  V30 2072 H 199.037 -0.655772 -0.14214 0
M  V30 2073 H 201.581 -2.03383 0.213413 0
M  V30 2074 H 199.736 -3.39706 -1.86223 0
M  V30 2075 H 200.15 -5.21128 -0.593775 0
M  V30 2076 H 201.624 -5.02105 -2.29335 0
M  V30 2077 H 202.101 -3.39721 -2.78363 0
M  V30 2078 H 202.707 -4.06499 -1.25055 0
M  V30 2079 N 201.022 0.148545 -1.56898 0
M  V30 2080 C 201.932 1.20293 -2.01412 0
M  V30 2081 C 202.948 1.47107 -0.929273 0
M  V30 2082 O 204.124 1.58807 -1.23863 0
M  V30 2083 C 201.189 2.51682 -2.38447 0
M  V30 2084 C 200.25 2.32529 -3.60872 0
M  V30 2085 C 199.483 3.57653 -3.96132 0
M  V30 2086 O 199.706 4.63771 -3.32073 0
M  V30 2087 O 198.64 3.50408 -4.89385 0
M  V30 2088 H 202.466 0.855025 -2.91416 0
M  V30 2089 H 200.051 0.357151 -1.45068 0
M  V30 2090 H 201.933 3.29147 -2.63135 0
M  V30 2091 H 200.608 2.86006 -1.51599 0
M  V30 2092 H 199.515 1.53019 -3.41373 0
M  V30 2093 H 200.848 2.03121 -4.48333 0
M  V30 2094 N 202.5 1.5196 0.417844 0
M  V30 2095 C 203.777 1.56146 1.17803 0
M  V30 2096 C 204.157 0.337275 2.08388 0
M  V30 2097 O 203.505 -0.676447 2.18258 0
M  V30 2098 C 203.715 2.88566 1.96293 0
M  V30 2099 C 205.063 3.41244 2.52662 0
M  V30 2100 O 206.087 2.90247 2.06483 0
M  V30 2101 O 204.946 4.30273 3.36938 0
M  V30 2102 H 202.04 0.628598 0.537395 0
M  V30 2103 H 204.586 1.64283 0.425331 0
M  V30 2104 H 203.358 3.69116 1.2988 0
M  V30 2105 H 202.981 2.83681 2.78587 0
M  V30 2106 N 203.978 -0.674533 1.42435 0
M  V30 2107 C 204.888 -1.81751 1.48337 0
M  V30 2108 C 205.904 -1.69975 0.372099 0
M  V30 2109 O 207.08 -1.91521 0.62304 0
M  V30 2110 C 204.145 -3.17895 1.38361 0
M  V30 2111 C 203.206 -3.41625 2.59982 0
M  V30 2112 C 202.439 -4.71274 2.50473 0
M  V30 2113 O 202.662 -5.49197 1.54075 0
M  V30 2114 O 201.596 -4.96254 3.4061 0
M  V30 2115 H 205.422 -1.79728 2.44809 0
M  V30 2116 H 203.007 -0.830312 1.24202 0
M  V30 2117 H 204.889 -3.99136 1.35161 0
M  V30 2118 H 203.564 -3.20555 0.450144 0
M  V30 2119 H 202.471 -2.60231 2.68757 0
M  V30 2120 H 203.804 -3.43796 3.52229 0
M  V30 2121 N 205.456 -1.28612 -0.910864 0
M  V30 2122 C 206.702 -1.16106 -1.66274 0
M  V30 2123 C 207.035 0.289113 -1.92036 0
M  V30 2124 O 206.31 1.21 -1.52281 0
M  V30 2125 C 206.593 -1.96309 -3.01885 0
M  V30 2126 C 206.446 -3.49405 -2.8326 0
M  V30 2127 C 207.765 -1.78076 -4.02463 0
M  V30 2128 H 204.884 -0.423152 -0.603417 0
M  V30 2129 H 207.526 -1.57961 -1.05586 0
M  V30 2130 H 205.676 -1.60742 -3.53687 0
M  V30 2131 H 207.348 -3.94894 -2.38446 0
M  V30 2132 H 205.591 -3.74893 -2.18261 0
M  V30 2133 H 206.262 -4.00784 -3.79574 0
M  V30 2134 H 208.738 -2.0912 -3.59733 0
M  V30 2135 H 207.614 -2.36561 -4.95308 0
M  V30 2136 H 207.875 -0.733008 -4.35981 0
M  V30 2137 N 206.934 1.1197 -1.10907 0
M  V30 2138 C 207.864 2.19928 -0.784473 0
M  V30 2139 C 208.845 1.6833 0.244726 0
M  V30 2140 O 210.03 1.93892 0.109418 0
M  V30 2141 C 207.16 3.46597 -0.220827 0
M  V30 2142 C 206.114 4.11376 -1.18127 0
M  V30 2143 C 205.44 5.32554 -0.478594 0
M  V30 2144 C 206.74 4.56945 -2.52979 0
M  V30 2145 H 208.434 2.47337 -1.68715 0
M  V30 2146 H 205.98 1.18879 -0.812642 0
M  V30 2147 H 207.933 4.21396 0.0184278 0
M  V30 2148 H 206.657 3.1863 0.717113 0
M  V30 2149 H 205.316 3.38564 -1.40606 0
M  V30 2150 H 204.964 5.00856 0.463976 0
M  V30 2151 H 204.664 5.76844 -1.11912 0
M  V30 2152 H 206.188 6.10096 -0.248 0
M  V30 2153 H 207.602 5.23093 -2.3462 0
M  V30 2154 H 205.999 5.1203 -3.12962 0
M  V30 2155 H 207.069 3.70676 -3.12614 0
M  V30 2156 N 208.412 0.89855 1.29475 0
M  V30 2157 C 209.828 0.594483 1.48115 0
M  V30 2158 C 210.028 -0.86431 1.82022 0
M  V30 2159 O 209.084 -1.64457 1.91599 0
M  V30 2160 C 210.397 1.51932 2.59494 0
M  V30 2161 C 211.945 1.5244 2.7337 0
M  V30 2162 C 212.42 2.43548 3.87877 0
M  V30 2163 N 213.911 2.41589 3.95208 0
M  V30 2164 C 214.646 3.08789 4.83153 0
M  V30 2165 N 214.142 3.85265 5.75798 0
M  V30 2166 N 215.935 2.97952 4.76635 0
M  V30 2167 H 208.086 1.84207 1.05742 0
M  V30 2168 H 210.349 0.789251 0.525154 0
M  V30 2169 H 210.055 2.55865 2.41301 0
M  V30 2170 H 209.929 1.23899 3.56271 0
M  V30 2171 H 212.316 0.492518 2.90961 0
M  V30 2172 H 212.397 1.8451 1.77172 0
M  V30 2173 H 212.041 3.46829 3.71041 0
M  V30 2174 H 211.971 2.08788 4.83441 0
M  V30 2175 H 214.462 1.86025 3.28943 0
M  V30 2176 H 214.775 4.33598 6.39697 0
M  V30 2177 H 213.12 3.89371 5.75687 0
M  V30 2178 H 216.311 2.37723 4.03244 0
M  V30 2179 H 216.484 3.50599 5.44962 0
M  V30 2180 N 209.89 -1.43072 0.660911 0
M  V30 2181 C 211.306 -1.56169 0.329173 0
M  V30 2182 C 211.506 -1.64317 -1.16629 0
M  V30 2183 O 210.562 -1.60245 -1.95135 0
M  V30 2184 C 211.875 -2.81873 1.04729 0
M  V30 2185 C 213.423 -2.95627 1.02828 0
M  V30 2186 C 213.898 -4.24174 1.72744 0
M  V30 2187 N 215.389 -4.31055 1.69545 0
M  V30 2188 C 216.124 -5.29304 2.20511 0
M  V30 2189 N 215.62 -6.33786 2.79799 0
M  V30 2190 N 217.413 -5.21008 2.10966 0
M  V30 2191 H 209.564 -1.36027 1.63127 0
M  V30 2192 H 211.827 -0.653823 0.686454 0
M  V30 2193 H 211.533 -2.81942 2.10242 0
M  V30 2194 H 211.407 -3.72338 0.603702 0
M  V30 2195 H 213.794 -2.95094 -0.0184742 0
M  V30 2196 H 213.875 -2.06431 1.51063 0
M  V30 2197 H 213.519 -4.25467 2.7738 0
M  V30 2198 H 213.449 -5.1228 1.2197 0
M  V30 2199 H 215.94 -3.56174 1.26288 0
M  V30 2200 H 216.253 -7.05086 3.16344 0
M  V30 2201 H 214.598 -6.34387 2.83863 0
M  V30 2202 H 217.789 -4.38301 1.64347 0
M  V30 2203 H 217.962 -5.97416 2.50993 0
M  V30 2204 N 211.368 -0.403325 -1.52352 0
M  V30 2205 C 212.615 0.174347 -2.01748 0
M  V30 2206 C 212.943 1.45636 -1.2892 0
M  V30 2207 O 212.198 1.9193 -0.382258 0
M  V30 2208 C 212.497 0.474665 -3.54234 0
M  V30 2209 C 212.163 -0.717458 -4.45155 0
M  V30 2210 C 210.825 -1.04447 -4.69728 0
M  V30 2211 C 213.177 -1.51432 -4.98716 0
M  V30 2212 C 210.505 -2.16963 -5.45109 0
M  V30 2213 C 212.857 -2.6302 -5.75329 0
M  V30 2214 C 211.521 -2.96213 -5.98175 0
M  V30 2215 H 210.791 0.0637981 -0.738248 0
M  V30 2216 H 213.438 -0.543553 -1.83624 0
M  V30 2217 H 211.743 1.27406 -3.70506 0
M  V30 2218 H 213.44 0.934496 -3.89959 0
M  V30 2219 H 210.03 -0.452596 -4.26204 0
M  V30 2220 H 214.214 -1.27491 -4.79645 0
M  V30 2221 H 209.47 -2.43034 -5.61021 0
M  V30 2222 H 213.644 -3.25158 -6.15829 0
M  V30 2223 H 211.271 -3.83516 -6.56368 0
M  V30 2224 N 212.846 1.57033 -0.133567 0
M  V30 2225 C 213.776 2.1909 0.807567 0
M  V30 2226 C 214.757 1.13517 1.26681 0
M  V30 2227 O 215.942 1.41809 1.32679 0
M  V30 2228 C 213.072 2.80188 2.05212 0
M  V30 2229 C 212.026 3.91471 1.73015 0
M  V30 2230 C 211.352 4.39443 3.04622 0
M  V30 2231 C 212.652 5.12886 0.987168 0
M  V30 2232 H 214.346 2.97988 0.290403 0
M  V30 2233 H 211.892 1.43335 0.138239 0
M  V30 2234 H 213.845 3.22264 2.71521 0
M  V30 2235 H 212.569 1.98601 2.59278 0
M  V30 2236 H 211.228 3.49993 1.0909 0
M  V30 2237 H 210.876 3.54695 3.56651 0
M  V30 2238 H 210.576 5.14495 2.83847 0
M  V30 2239 H 212.1 4.8418 3.72024 0
M  V30 2240 H 213.514 5.51891 1.55208 0
M  V30 2241 H 211.911 5.93615 0.87985 0
M  V30 2242 H 212.981 4.84894 -0.0235286 0
M  V30 2243 N 214.325 -0.140222 1.56975 0
M  V30 2244 C 215.602 -0.880769 1.74648 0
M  V30 2245 C 215.982 -1.99036 0.703404 0
M  V30 2246 O 215.33 -2.26821 -0.27648 0
M  V30 2247 C 215.54 -1.417 3.18939 0
M  V30 2248 C 216.888 -1.87774 3.80823 0
M  V30 2249 O 217.912 -1.51427 3.2241 0
M  V30 2250 O 216.771 -2.54827 4.83452 0
M  V30 2251 H 213.865 -0.416713 0.714338 0
M  V30 2252 H 216.411 -0.125618 1.69234 0
M  V30 2253 H 215.183 -0.619902 3.86359 0
M  V30 2254 H 214.806 -2.23546 3.28805 0
M  V30 2255 N 215.803 -1.52179 -0.40978 0
M  V30 2256 C 216.751 -1.76086 -1.51975 0
M  V30 2257 C 217.745 -0.627964 -1.57331 0
M  V30 2258 O 218.951 -0.809993 -1.60745 0
M  V30 2259 H 215.326 -0.556829 -0.505416 0
M  V30 2260 H 217.297 -2.69077 -1.28996 0
M  V30 2261 C 216.046 -1.92799 -2.8935 0
M  V30 2262 H 215.369 -2.79392 -2.85972 0
M  V30 2263 H 216.809 -2.13527 -3.66309 0
M  V30 2264 C 215.268 -0.694923 -3.29655 0
M  V30 2265 O 215.798 0.13751 -4.01465 0
M  V30 2266 N 214.004 -0.53101 -2.85707 0
M  V30 2267 H 213.551 -1.20952 -2.27439 0
M  V30 2268 H 213.509 0.292718 -3.13034 0
M  V30 2269 N 217.281 0.66697 -1.42791 0
M  V30 2270 C 218.528 1.42699 -1.43678 0
M  V30 2271 C 218.856 1.94419 -0.0560425 0
M  V30 2272 O 218.111 1.7182 0.936831 0
M  V30 2273 C 218.41 2.6349 -2.4147 0
M  V30 2274 C 218.076 2.30267 -3.8767 0
M  V30 2275 C 216.738 2.20918 -4.27491 0
M  V30 2276 C 219.09 2.03435 -4.79858 0
M  V30 2277 C 216.418 1.82873 -5.57471 0
M  V30 2278 C 218.77 1.66892 -6.10188 0
M  V30 2279 C 217.434 1.56058 -6.49001 0
M  V30 2280 H 216.704 0.522171 -0.525755 0
M  V30 2281 H 219.351 0.759785 -1.75783 0
M  V30 2282 H 217.656 3.35279 -2.0272 0
M  V30 2283 H 219.353 3.21684 -2.39417 0
M  V30 2284 H 215.943 2.38449 -3.56146 0
M  V30 2285 H 220.127 2.09586 -4.49875 0
M  V30 2286 H 215.383 1.7306 -5.86396 0
M  V30 2287 H 219.557 1.45157 -6.81104 0
M  V30 2288 H 217.184 1.26348 -7.49627 0
M  V30 2289 N 218.759 1.29093 0.90403 0
M  V30 2290 C 220.036 1.075 1.63411 0
M  V30 2291 C 220.416 -0.382346 2.07609 0
M  V30 2292 O 219.764 -1.37031 1.82851 0
M  V30 2293 C 219.974 2.05858 2.81822 0
M  V30 2294 C 221.322 2.36539 3.52611 0
M  V30 2295 O 222.346 2.04019 2.91984 0
M  V30 2296 O 221.205 2.92085 4.61897 0
M  V30 2297 H 218.299 0.411547 0.717327 0
M  V30 2298 H 220.845 1.40449 0.952479 0
M  V30 2299 H 219.617 3.04037 2.46327 0
M  V30 2300 H 219.24 1.73613 3.57693 0
M  V30 2301 N 220.237 -1.11381 1.11499 0
M  V30 2302 C 221.462 -1.87475 0.887019 0
M  V30 2303 C 221.887 -1.79639 -0.557796 0
M  V30 2304 O 221.245 -1.15924 -1.39396 0
M  V30 2305 C 221.293 -3.34213 1.35403 0
M  V30 2306 O 220.397 -4.0903 0.526146 0
M  V30 2307 H 219.738 -0.582099 0.319463 0
M  V30 2308 H 222.268 -1.40785 1.48461 0
M  V30 2309 H 222.278 -3.8506 1.34881 0
M  V30 2310 H 220.953 -3.39232 2.40612 0
M  V30 2311 H 219.53 -3.68082 0.597522 0
M  V30 2312 N 221.715 -0.905404 -1.28997 0
M  V30 2313 C 222.94 -0.549175 -1.99997 0
M  V30 2314 C 223.365 0.860276 -1.67275 0
M  V30 2315 O 222.723 1.57355 -0.900502 0
M  V30 2316 C 222.771 -0.755185 -3.52604 0
M  V30 2317 O 221.875 0.189692 -4.11964 0
M  V30 2318 H 221.216 -0.213899 -0.628604 0
M  V30 2319 H 223.746 -1.21856 -1.64354 0
M  V30 2320 H 223.756 -0.662045 -4.02593 0
M  V30 2321 H 222.431 -1.78271 -3.75755 0
M  V30 2322 H 221.008 0.0485257 -3.72868 0
M  V30 2323 N 223.193 1.4272 -0.668489 0
M  V30 2324 C 224.103 2.34596 0.0139753 0
M  V30 2325 C 225.119 1.5474 0.795703 0
M  V30 2326 O 226.295 1.87334 0.739466 0
M  V30 2327 C 223.36 3.33202 0.957982 0
M  V30 2328 C 222.421 4.28957 0.17149 0
M  V30 2329 C 221.654 5.22853 1.07053 0
M  V30 2330 O 221.877 5.21531 2.31001 0
M  V30 2331 O 220.811 5.9952 0.534727 0
M  V30 2332 H 224.637 2.9448 -0.742661 0
M  V30 2333 H 222.222 1.43117 -0.428705 0
M  V30 2334 H 224.104 3.93796 1.50008 0
M  V30 2335 H 222.779 2.758 1.69458 0
M  V30 2336 H 221.686 3.71796 -0.414558 0
M  V30 2337 H 223.019 4.89383 -0.52586 0
M  V30 2338 N 224.671 0.411399 1.52136 0
M  V30 2339 C 225.618 -0.412975 2.27075 0
M  V30 2340 C 226.588 -1.03912 1.29582 0
M  V30 2341 O 227.773 -1.06296 1.58448 0
M  V30 2342 C 224.913 -1.52247 3.09701 0
M  V30 2343 C 224.026 -0.917021 4.22155 0
M  V30 2344 C 223.161 -1.9994 4.92135 0
M  V30 2345 C 222.2 -1.37101 5.96548 0
M  V30 2346 N 221.337 -2.39364 6.60038 0
M  V30 2347 H 226.177 0.232499 2.97092 0
M  V30 2348 H 223.714 0.126496 1.46555 0
M  V30 2349 H 225.672 -2.17674 3.55913 0
M  V30 2350 H 224.302 -2.13794 2.41851 0
M  V30 2351 H 223.354 -0.151742 3.80097 0
M  V30 2352 H 224.666 -0.418006 4.97045 0
M  V30 2353 H 223.82 -2.73088 5.41763 0
M  V30 2354 H 222.559 -2.53208 4.16818 0
M  V30 2355 H 221.564 -0.624873 5.46237 0
M  V30 2356 H 222.789 -0.845998 6.7381 0
M  V30 2357 H 220.735 -2.91759 5.87548 0
M  V30 2358 H 220.652 -1.9428 7.3061 0
M  V30 2359 H 221.92 -3.12074 7.14304 0
M  V30 2360 N 226.149 -1.5696 0.141893 0
M  V30 2361 C 227.426 -1.87553 -0.555281 0
M  V30 2362 C 227.806 -1.04699 -1.83306 0
M  V30 2363 O 227.154 -0.132346 -2.28116 0
M  V30 2364 C 227.364 -3.39093 -0.825664 0
M  V30 2365 C 228.712 -4.08199 -1.16869 0
M  V30 2366 O 229.736 -3.44242 -0.915185 0
M  V30 2367 O 228.595 -5.21139 -1.6455 0
M  V30 2368 H 225.689 -0.777188 -0.282679 0
M  V30 2369 H 228.235 -1.68763 0.17812 0
M  V30 2370 H 227.007 -3.91221 0.0788633 0
M  V30 2371 H 226.63 -3.63393 -1.61343 0
M  V30 2372 N 227.627 0.131896 -1.57047 0
M  V30 2373 C 228.875 0.840269 -1.83804 0
M  V30 2374 C 229.196 1.81017 -0.72512 0
M  V30 2375 O 228.466 1.94272 0.251995 0
M  V30 2376 H 227.046 0.313294 -0.678127 0
M  V30 2377 H 229.708 0.122294 -1.94516 0
M  V30 2378 H 228.804 1.39335 -2.79271 0
M  V30 2379 N 229.106 1.52395 0.401703 0
M  V30 2380 C 230.038 1.72505 1.50912 0
M  V30 2381 C 231.051 0.605468 1.51122 0
M  V30 2382 O 232.24 0.880828 1.55254 0
M  V30 2383 C 229.34 1.75711 2.89791 0
M  V30 2384 C 228.513 3.04824 3.1369 0
M  V30 2385 C 227.572 2.99743 4.32482 0
M  V30 2386 O 226.598 3.73635 4.29402 0
M  V30 2387 N 227.8 2.18047 5.37992 0
M  V30 2388 H 230.565 2.68049 1.34052 0
M  V30 2389 H 228.126 1.50724 0.591084 0
M  V30 2390 H 230.118 1.69834 3.6734 0
M  V30 2391 H 228.688 0.876092 3.00072 0
M  V30 2392 H 227.908 3.2429 2.24119 0
M  V30 2393 H 229.196 3.90221 3.26504 0
M  V30 2394 H 228.594 1.57456 5.43345 0
M  V30 2395 H 227.151 2.18021 6.14256 0
M  V30 2396 N 230.584 -0.659388 1.43143 0
M  V30 2397 C 231.83 -1.42145 1.44647 0
M  V30 2398 C 232.163 -1.9408 0.0681907 0
M  V30 2399 O 231.438 -1.71899 -0.910007 0
M  V30 2400 C 231.721 -2.60735 2.48373 0
M  V30 2401 C 231.574 -2.14332 3.95451 0
M  V30 2402 C 232.893 -3.62951 2.48906 0
M  V30 2403 H 230.012 -0.51552 0.526696 0
M  V30 2404 H 232.654 -0.748069 1.74654 0
M  V30 2405 H 230.804 -3.18184 2.22916 0
M  V30 2406 H 232.476 -1.61932 4.31944 0
M  V30 2407 H 230.719 -1.4576 4.08578 0
M  V30 2408 H 231.39 -2.99583 4.63631 0
M  V30 2409 H 233.866 -3.1525 2.71582 0
M  V30 2410 H 232.742 -4.43487 3.23435 0
M  V30 2411 H 233.003 -4.15126 1.52061 0
M  V30 2412 N 232.062 -1.29571 -0.897171 0
M  V30 2413 C 233.29 -1.20583 -1.68129 0
M  V30 2414 C 233.705 0.233181 -1.87354 0
M  V30 2415 O 233.062 1.15579 -1.41236 0
M  V30 2416 C 233.113 -1.91772 -3.06441 0
M  V30 2417 O 232.834 -3.30053 -2.88091 0
M  V30 2418 C 234.335 -1.89291 -4.00854 0
M  V30 2419 H 231.555 -0.417826 -0.525036 0
M  V30 2420 H 234.099 -1.70987 -1.12177 0
M  V30 2421 H 232.254 -1.45196 -3.59161 0
M  V30 2422 H 232.668 -3.65942 -3.75748 0
M  V30 2423 H 234.142 -2.43662 -4.95311 0
M  V30 2424 H 234.619 -0.869014 -4.30517 0
M  V30 2425 H 235.225 -2.35622 -3.54066 0
M  V30 2426 N 233.54 1.10788 -1.12088 0
M  V30 2427 C 234.47 2.19083 -0.807755 0
M  V30 2428 C 235.451 1.6858 0.226859 0
M  V30 2429 O 236.636 1.93997 0.0888475 0
M  V30 2430 C 233.766 3.46344 -0.257576 0
M  V30 2431 C 232.72 4.101 -1.22483 0
M  V30 2432 C 232.046 5.32016 -0.535052 0
M  V30 2433 C 233.346 4.54236 -2.57811 0
M  V30 2434 H 235.04 2.45534 -1.71328 0
M  V30 2435 H 232.586 1.1801 -0.825205 0
M  V30 2436 H 234.539 4.21392 -0.0262679 0
M  V30 2437 H 233.263 3.19373 0.683278 0
M  V30 2438 H 231.922 3.37054 -1.44189 0
M  V30 2439 H 231.57 5.01319 0.410827 0
M  V30 2440 H 231.27 5.75625 -1.18024 0
M  V30 2441 H 232.794 6.09799 -0.312695 0
M  V30 2442 H 234.208 5.20575 -2.40155 0
M  V30 2443 H 232.605 5.08682 -3.18375 0
M  V30 2444 H 233.675 3.6734 -3.16528 0
M  V30 2445 N 235.018 0.912232 1.28515 0
M  V30 2446 C 235.981 0.404223 2.25607 0
M  V30 2447 C 236.981 -0.468602 1.53821 0
M  V30 2448 O 238.171 -0.271873 1.72065 0
M  V30 2449 C 235.303 -0.420653 3.38295 0
M  V30 2450 H 236.496 1.26188 2.7206 0
M  V30 2451 H 234.049 0.691495 1.40171 0
M  V30 2452 H 234.784 -1.29777 2.97201 0
M  V30 2453 H 234.569 0.204935 3.91564 0
M  V30 2454 H 236.059 -0.766971 4.10496 0
M  V30 2455 N 236.496 -1.42363 0.676048 0
M  V30 2456 C 237.406 -2.346 -0.00153389 0
M  V30 2457 C 238.422 -1.5516 -0.787485 0
M  V30 2458 O 239.598 -1.87723 -0.729521 0
M  V30 2459 C 236.663 -3.33705 -0.940298 0
M  V30 2460 C 235.724 -4.29042 -0.148739 0
M  V30 2461 C 234.957 -5.23413 -1.04279 0
M  V30 2462 O 235.18 -5.22749 -2.28232 0
M  V30 2463 O 234.114 -5.99795 -0.502925 0
M  V30 2464 H 237.94 -2.94082 0.758268 0
M  V30 2465 H 235.525 -1.42888 0.436289 0
M  V30 2466 H 237.407 -3.94586 -1.47917 0
M  V30 2467 H 236.082 -2.76695 -1.67993 0
M  V30 2468 H 234.989 -3.71571 0.43427 0
M  V30 2469 H 236.322 -4.89097 0.551805 0
M  V30 2470 N 237.974 -0.419461 -1.51915 0
M  V30 2471 C 239.221 0.152939 -2.01922 0
M  V30 2472 C 239.549 1.4426 -1.30458 0
M  V30 2473 O 238.804 1.91514 -0.402593 0
M  V30 2474 C 239.103 0.437067 -3.54717 0
M  V30 2475 C 238.769 -0.764632 -4.44369 0
M  V30 2476 C 237.431 -1.09423 -4.68594 0
M  V30 2477 C 239.783 -1.56713 -4.97082 0
M  V30 2478 C 237.111 -2.22732 -5.42777 0
M  V30 2479 C 239.463 -2.69107 -5.72507 0
M  V30 2480 C 238.127 -3.02541 -5.95 0
M  V30 2481 H 237.397 0.0559644 -0.738884 0
M  V30 2482 H 240.044 -0.562998 -1.83037 0
M  V30 2483 H 238.349 1.23469 -3.71837 0
M  V30 2484 H 240.046 0.893083 -3.90928 0
M  V30 2485 H 236.636 -0.497775 -4.257 0
M  V30 2486 H 240.82 -1.32571 -4.78266 0
M  V30 2487 H 236.076 -2.48971 -5.58411 0
M  V30 2488 H 240.25 -3.31671 -6.12346 0
M  V30 2489 H 237.877 -3.90457 -6.52264 0
M  V30 2490 N 239.452 1.56882 -0.150215 0
M  V30 2491 C 240.384 2.14057 0.819286 0
M  V30 2492 C 241.397 1.09082 1.20851 0
M  V30 2493 O 242.586 1.36347 1.15203 0
M  V30 2494 C 239.686 2.65102 2.11127 0
M  V30 2495 C 238.859 3.94511 1.88891 0
M  V30 2496 C 237.918 4.30834 3.02107 0
M  V30 2497 O 236.944 4.99099 2.73659 0
M  V30 2498 N 238.146 3.90676 4.29363 0
M  V30 2499 H 240.911 2.97871 0.330618 0
M  V30 2500 H 238.472 1.61866 0.0332538 0
M  V30 2501 H 240.464 2.86411 2.85921 0
M  V30 2502 H 239.034 1.85994 2.51247 0
M  V30 2503 H 238.254 3.81795 0.981152 0
M  V30 2504 H 239.542 4.7907 1.71376 0
M  V30 2505 H 238.94 3.35677 4.55343 0
M  V30 2506 H 237.497 4.1703 5.00928 0
M  V30 2507 N 240.93 -0.123565 1.57115 0
M  V30 2508 C 242.207 -0.862196 1.75572 0
M  V30 2509 C 242.587 -1.98279 0.724475 0
M  V30 2510 O 241.935 -2.27102 -0.252407 0
M  V30 2511 C 242.145 -1.38309 3.20424 0
M  V30 2512 C 243.493 -1.83724 3.82793 0
M  V30 2513 O 244.517 -1.47999 3.23998 0
M  V30 2514 O 243.376 -2.49685 4.86127 0
M  V30 2515 H 240.47 -0.409113 0.718718 0
M  V30 2516 H 243.016 -0.107661 1.69358 0
M  V30 2517 H 241.788 -0.578889 3.86994 0
M  V30 2518 H 241.411 -2.20046 3.31158 0
M  V30 2519 N 242.408 -1.52605 -0.393616 0
M  V30 2520 C 243.638 -1.71046 -1.15874 0
M  V30 2521 C 244.046 -0.426483 -1.84331 0
M  V30 2522 O 243.389 0.608513 -1.73329 0
M  V30 2523 C 243.451 -2.80118 -2.25332 0
M  V30 2524 C 243.115 -4.21381 -1.76881 0
M  V30 2525 C 244.112 -5.04697 -1.24808 0
M  V30 2526 C 241.797 -4.67683 -1.83244 0
M  V30 2527 C 243.791 -6.32393 -0.797387 0
M  V30 2528 C 241.478 -5.95364 -1.37787 0
M  V30 2529 C 242.476 -6.77549 -0.861208 0
M  V30 2530 O 242.164 -8.02837 -0.413252 0
M  V30 2531 H 241.896 -0.576155 -0.353583 0
M  V30 2532 H 244.45 -2.00018 -0.467123 0
M  V30 2533 H 242.68 -2.46557 -2.97904 0
M  V30 2534 H 244.369 -2.87006 -2.87023 0
M  V30 2535 H 245.135 -4.70111 -1.19252 0
M  V30 2536 H 241.014 -4.03805 -2.22401 0
M  V30 2537 H 244.558 -6.9649 -0.393437 0
M  V30 2538 H 240.455 -6.29455 -1.43026 0
M  V30 2539 H 241.223 -8.16749 -0.53515 0
M  V30 2540 N 243.887 0.651787 -1.4349 0
M  V30 2541 C 245.117 1.43728 -1.48411 0
M  V30 2542 C 245.525 1.8893 -0.10103 0
M  V30 2543 O 244.868 1.60182 0.899307 0
M  V30 2544 C 244.93 2.70411 -2.36893 0
M  V30 2545 C 244.594 2.4714 -3.8441 0
M  V30 2546 C 245.591 2.10271 -4.75481 0
M  V30 2547 C 243.276 2.6142 -4.28912 0
M  V30 2548 C 245.27 1.87982 -6.0905 0
M  V30 2549 C 242.957 2.38746 -5.62533 0
M  V30 2550 C 243.955 2.02083 -6.5242 0
M  V30 2551 O 243.643 1.79647 -7.8357 0
M  V30 2552 H 243.375 0.447962 -0.506267 0
M  V30 2553 H 245.929 0.80624 -1.88915 0
M  V30 2554 H 244.159 3.36079 -1.91278 0
M  V30 2555 H 245.848 3.32364 -2.33 0
M  V30 2556 H 246.614 1.98814 -4.42378 0
M  V30 2557 H 242.493 2.88931 -3.59222 0
M  V30 2558 H 246.037 1.5929 -6.7917 0
M  V30 2559 H 241.934 2.49806 -5.95203 0
M  V30 2560 H 242.702 1.9406 -7.95162 0
M  V30 2561 N 245.365 1.30045 0.890287 0
M  V30 2562 C 246.59 1.21598 1.68014 0
M  V30 2563 C 247.015 -0.218678 1.86825 0
M  V30 2564 O 246.373 -1.15756 1.39536 0
M  V30 2565 C 246.421 1.94434 3.03691 0
M  V30 2566 O 245.525 1.2678 3.92429 0
M  V30 2567 H 244.866 0.420856 0.513592 0
M  V30 2568 H 247.396 1.71775 1.11151 0
M  V30 2569 H 247.406 2.03251 3.5377 0
M  V30 2570 H 246.081 2.98777 2.89318 0
M  V30 2571 H 244.658 1.26282 3.50866 0
M  V30 2572 N 246.843 -1.10192 1.12674 0
M  V30 2573 C 248.091 -1.81845 0.881861 0
M  V30 2574 C 248.412 -1.85737 -0.593867 0
M  V30 2575 O 247.682 -1.33724 -1.4316 0
M  V30 2576 H 246.262 -0.673432 0.323261 0
M  V30 2577 H 248.924 -1.33316 1.42172 0
M  V30 2578 H 248.02 -2.85288 1.2656 0
M  V30 2579 N 248.321 -0.919034 -1.28029 0
M  V30 2580 C 249.567 -0.555757 -1.95036 0
M  V30 2581 C 249.9 0.899198 -1.72128 0
M  V30 2582 O 249.175 1.64023 -1.04531 0
M  V30 2583 C 249.458 -0.872024 -3.49382 0
M  V30 2584 C 249.311 -2.3801 -3.81669 0
M  V30 2585 C 250.63 -0.37185 -4.38526 0
M  V30 2586 H 247.749 -0.203386 -0.708381 0
M  V30 2587 H 250.391 -1.14924 -1.51303 0
M  V30 2588 H 248.541 -0.366946 -3.86763 0
M  V30 2589 H 250.213 -2.9562 -3.54128 0
M  V30 2590 H 248.456 -2.83289 -3.28526 0
M  V30 2591 H 249.127 -2.55192 -4.8947 0
M  V30 2592 H 251.603 -0.804602 -4.08247 0
M  V30 2593 H 250.479 -0.622173 -5.45362 0
M  V30 2594 H 250.74 0.727934 -4.36066 0
M  V30 2595 N 249.799 1.42003 -0.683588 0
M  V30 2596 C 251.024 2.06265 -0.216647 0
M  V30 2597 C 251.449 1.51059 1.12083 0
M  V30 2598 O 250.807 0.632638 1.69904 0
M  V30 2599 C 250.855 3.60191 -0.171759 0
M  V30 2600 O 249.959 4.03396 0.857069 0
M  V30 2601 H 249.3 0.65502 -0.108834 0
M  V30 2602 H 251.83 1.81982 -0.935077 0
M  V30 2603 H 251.84 4.08 0.0014303 0
M  V30 2604 H 250.515 3.99743 -1.14796 0
M  V30 2605 H 249.092 3.67117 0.654208 0
M  V30 2606 N 251.277 0.427512 1.51691 0
M  V30 2607 C 252.24 -0.377132 2.26076 0
M  V30 2608 C 253.24 -0.958089 1.29141 0
M  V30 2609 O 254.43 -0.83408 1.52934 0
M  V30 2610 C 251.562 -1.53262 3.04506 0
M  V30 2611 H 252.755 0.27464 2.9864 0
M  V30 2612 H 250.308 0.180445 1.55255 0
M  V30 2613 H 251.043 -2.22072 2.36335 0
M  V30 2614 H 250.828 -1.12232 3.75694 0
M  V30 2615 H 252.318 -2.10135 3.60878 0
M  V30 2616 N 252.755 -1.56801 0.158532 0
M  V30 2617 C 253.98 -2.01295 -0.499516 0
M  V30 2618 C 254.405 -1.03799 -1.56867 0
M  V30 2619 O 253.763 -0.0155162 -1.81293 0
M  V30 2620 C 253.811 -3.44469 -1.06647 0
M  V30 2621 O 252.915 -3.50012 -2.18095 0
M  V30 2622 H 252.256 -0.652884 -0.12099 0
M  V30 2623 H 254.786 -2.02958 0.258661 0
M  V30 2624 H 254.796 -3.8351 -1.39227 0
M  V30 2625 H 253.471 -4.14932 -0.283581 0
M  V30 2626 H 252.048 -3.22822 -1.86656 0
M  V30 2627 N 254.233 0.115231 -1.57178 0
M  V30 2628 C 255.166 1.17166 -1.95825 0
M  V30 2629 C 256.144 1.39912 -0.828463 0
M  V30 2630 O 257.328 1.54004 -1.08697 0
M  V30 2631 C 254.455 2.52478 -2.25771 0
M  V30 2632 C 253.501 2.46136 -3.48309 0
M  V30 2633 S 254.334 1.89736 -5.0076 0
M  V30 2634 C 255.49 3.26713 -5.33863 0
M  V30 2635 H 255.723 0.842103 -2.85124 0
M  V30 2636 H 253.256 0.322136 -1.51002 0
M  V30 2637 H 255.214 3.30332 -2.43702 0
M  V30 2638 H 253.875 2.82609 -1.37079 0
M  V30 2639 H 253.068 3.45819 -3.66641 0
M  V30 2640 H 252.67 1.76404 -3.29784 0
M  V30 2641 H 254.962 4.22935 -5.29275 0
M  V30 2642 H 255.905 3.13205 -6.35065 0
M  V30 2643 H 256.313 3.25316 -4.61335 0
M  V30 2644 N 255.711 1.52812 0.385517 0
M  V30 2645 C 256.659 1.78482 1.49155 0
M  V30 2646 C 257.653 0.652914 1.56312 0
M  V30 2647 O 258.859 0.835464 1.59436 0
M  V30 2648 H 255.234 0.5648 0.496493 0
M  V30 2649 H 257.205 2.71095 1.24699 0
M  V30 2650 C 255.954 1.97378 2.86247 0
M  V30 2651 H 255.277 2.83907 2.81491 0
M  V30 2652 H 256.717 2.19327 3.62866 0
M  V30 2653 C 255.176 0.74728 3.28508 0
M  V30 2654 O 255.706 -0.0736232 4.01633 0
M  V30 2655 N 253.912 0.576396 2.84826 0
M  V30 2656 H 253.459 1.24555 2.25486 0
M  V30 2657 H 253.417 -0.24288 3.1346 0
M  V30 2658 N 257.189 -0.644168 1.43834 0
M  V30 2659 C 258.417 -1.43147 1.49387 0
M  V30 2660 C 258.832 -1.88452 0.114583 0
M  V30 2661 O 258.189 -1.60047 -0.876989 0
M  V30 2662 C 258.24 -2.66046 2.44748 0
M  V30 2663 O 257.961 -2.22633 3.77314 0
M  V30 2664 C 259.462 -3.59311 2.59635 0
M  V30 2665 H 256.682 -0.439447 0.507077 0
M  V30 2666 H 259.226 -0.78895 1.88669 0
M  V30 2667 H 257.381 -3.26418 2.08638 0
M  V30 2668 H 257.795 -3.02216 4.28679 0
M  V30 2669 H 259.269 -4.42187 3.30416 0
M  V30 2670 H 259.746 -4.07259 1.64427 0
M  V30 2671 H 260.352 -3.04816 2.96593 0
M  V30 2672 N 258.668 -1.30515 -0.883378 0
M  V30 2673 C 259.945 -1.10086 -1.6168 0
M  V30 2674 C 260.325 0.349269 -2.08191 0
M  V30 2675 O 259.673 1.34105 -1.85008 0
M  V30 2676 C 259.883 -2.10315 -2.78511 0
M  V30 2677 C 261.231 -2.42119 -3.48803 0
M  V30 2678 O 262.255 -2.08638 -2.88702 0
M  V30 2679 O 261.114 -2.99396 -4.57192 0
M  V30 2680 H 258.208 -0.422907 -0.710689 0
M  V30 2681 H 260.754 -1.41947 -0.930015 0
M  V30 2682 H 259.526 -3.07917 -2.41459 0
M  V30 2683 H 259.149 -1.79282 -3.54886 0
M  V30 2684 N 260.146 1.09593 -1.13257 0
M  V30 2685 C 261.056 2.19739 -0.821691 0
M  V30 2686 C 262.072 1.72926 0.19302 0
M  V30 2687 O 263.248 2.01385 0.0244895 0
M  V30 2688 C 260.313 3.45482 -0.290333 0
M  V30 2689 C 259.374 4.06985 -1.36607 0
M  V30 2690 C 258.607 5.26726 -0.859975 0
M  V30 2691 O 258.83 5.69594 0.303082 0
M  V30 2692 O 257.764 5.7931 -1.63351 0
M  V30 2693 H 261.59 2.48781 -1.74189 0
M  V30 2694 H 259.175 1.18496 -0.909894 0
M  V30 2695 H 261.057 4.214 0.000674022 0
M  V30 2696 H 259.732 3.18047 0.602306 0
M  V30 2697 H 258.639 3.32712 -1.71037 0
M  V30 2698 H 259.972 4.38643 -2.23279 0
M  V30 2699 N 261.624 0.925811 1.2754 0
M  V30 2700 C 262.534 0.428993 2.30644 0
M  V30 2701 C 263.55 -0.489387 1.66976 0
M  V30 2702 O 264.726 -0.372653 1.97922 0
M  V30 2703 C 261.791 -0.311967 3.45294 0
M  V30 2704 C 260.852 0.641098 4.24486 0
M  V30 2705 C 260.085 -0.0645955 5.33661 0
M  V30 2706 O 260.308 -1.28429 5.55754 0
M  V30 2707 O 259.242 0.606265 5.98839 0
M  V30 2708 H 263.068 1.28504 2.75173 0
M  V30 2709 H 260.653 0.691086 1.32455 0
M  V30 2710 H 262.535 -0.729972 4.15029 0
M  V30 2711 H 261.21 -1.14365 3.02824 0
M  V30 2712 H 260.117 1.10874 3.57292 0
M  V30 2713 H 261.45 1.43995 4.70666 0
M  V30 2714 N 263.102 -1.41638 0.69111 0
M  V30 2715 C 264.349 -2.01299 0.220193 0
M  V30 2716 C 264.677 -1.54715 -1.17871 0
M  V30 2717 O 263.932 -0.747193 -1.80874 0
M  V30 2718 C 264.231 -3.56714 0.221277 0
M  V30 2719 C 263.897 -4.22792 1.56709 0
M  V30 2720 C 262.559 -4.40557 1.93554 0
M  V30 2721 C 264.911 -4.59883 2.45268 0
M  V30 2722 C 262.239 -4.92688 3.18552 0
M  V30 2723 C 264.591 -5.13403 3.69595 0
M  V30 2724 C 263.255 -5.29379 4.06589 0
M  V30 2725 H 262.525 -0.736606 0.0805743 0
M  V30 2726 H 265.172 -1.69598 0.889319 0
M  V30 2727 H 263.477 -3.8818 -0.531391 0
M  V30 2728 H 265.174 -4.00678 -0.160547 0
M  V30 2729 H 261.764 -4.09336 1.2705 0
M  V30 2730 H 265.948 -4.45817 2.18084 0
M  V30 2731 H 261.204 -5.03242 3.47214 0
M  V30 2732 H 265.378 -5.41084 4.38407 0
M  V30 2733 H 263.005 -5.69537 5.03519 0
M  V30 2734 N 264.58 -0.43555 -1.51462 0
M  V30 2735 C 265.826 0.131709 -2.02372 0
M  V30 2736 C 266.159 1.42516 -1.3192 0
M  V30 2737 O 265.434 1.89606 -0.433573 0
M  V30 2738 C 265.717 0.352301 -3.58373 0
M  V30 2739 C 265.57 -0.959676 -4.39443 0
M  V30 2740 C 266.889 1.12286 -4.25535 0
M  V30 2741 H 264.008 0.0463936 -0.735538 0
M  V30 2742 H 266.65 -0.574197 -1.81116 0
M  V30 2743 H 264.8 0.9536 -3.76615 0
M  V30 2744 H 266.472 -1.59482 -4.32855 0
M  V30 2745 H 264.715 -1.56468 -4.04599 0
M  V30 2746 H 265.386 -0.759394 -5.46752 0
M  V30 2747 H 267.862 0.613545 -4.11552 0
M  V30 2748 H 266.738 1.24598 -5.34571 0
M  V30 2749 H 266.999 2.15048 -3.86273 0
M  V30 2750 N 266.058 1.56714 -0.166846 0
M  V30 2751 C 267.021 2.16539 0.751232 0
M  V30 2752 C 268.021 1.11228 1.16125 0
M  V30 2753 O 269.211 1.36765 1.07894 0
M  V30 2754 C 266.343 2.74462 2.02196 0
M  V30 2755 H 267.536 2.99013 0.230499 0
M  V30 2756 H 265.089 1.56081 0.0826982 0
M  V30 2757 H 265.824 1.95709 2.58589 0
M  V30 2758 H 265.609 3.51527 1.73698 0
M  V30 2759 H 267.099 3.20489 2.67725 0
M  V30 2760 N 267.536 -0.106894 1.57237 0
M  V30 2761 C 268.469 -1.16125 1.96444 0
M  V30 2762 C 269.447 -1.3947 0.835871 0
M  V30 2763 O 270.631 -1.53425 1.09513 0
M  V30 2764 C 267.758 -2.51277 2.27107 0
M  V30 2765 C 266.804 -2.44285 3.4961 0
M  V30 2766 S 267.637 -1.87077 5.01759 0
M  V30 2767 C 268.793 -3.23877 5.35588 0
M  V30 2768 H 269.026 -0.826971 2.85567 0
M  V30 2769 H 266.559 -0.314124 1.51171 0
M  V30 2770 H 268.517 -3.29035 2.45451 0
M  V30 2771 H 267.178 -2.81879 1.38576 0
M  V30 2772 H 266.371 -3.4387 3.68469 0
M  V30 2773 H 265.973 -1.74652 3.30715 0
M  V30 2774 H 268.265 -4.20122 5.31511 0
M  V30 2775 H 269.208 -3.09833 6.36717 0
M  V30 2776 H 269.616 -3.22864 4.63054 0
M  V30 2777 N 269.014 -1.53014 -0.377408 0
M  V30 2778 C 269.947 -1.73382 -1.48371 0
M  V30 2779 C 270.925 -0.581879 -1.51832 0
M  V30 2780 O 272.109 -0.81307 -1.70063 0
M  V30 2781 C 269.236 -1.80192 -2.8679 0
M  V30 2782 C 268.282 -3.02056 -3.01105 0
M  V30 2783 S 269.115 -4.61811 -2.71093 0
M  V30 2784 C 270.271 -4.71453 -4.11683 0
M  V30 2785 H 270.504 -2.66946 -1.30872 0
M  V30 2786 H 268.037 -1.43453 -0.571012 0
M  V30 2787 H 269.995 -1.84802 -3.6655 0
M  V30 2788 H 268.656 -0.877008 -3.01608 0
M  V30 2789 H 267.849 -3.03396 -4.02451 0
M  V30 2790 H 267.451 -2.95498 -2.29253 0
M  V30 2791 H 269.743 -4.50781 -5.0577 0
M  V30 2792 H 270.686 -5.73487 -4.15353 0
M  V30 2793 H 271.094 -4.00189 -3.98132 0
M  V30 2794 N 270.492 0.636531 -1.44174 0
M  V30 2795 C 271.72 1.42353 -1.50144 0
M  V30 2796 C 272.135 1.88389 -0.124575 0
M  V30 2797 O 271.492 1.6051 0.868489 0
M  V30 2798 C 271.543 2.64744 -2.46156 0
M  V30 2799 O 271.264 2.20629 -3.7849 0
M  V30 2800 C 272.765 3.57929 -2.61537 0
M  V30 2801 H 269.985 0.436752 -0.5094 0
M  V30 2802 H 272.529 0.778933 -1.89084 0
M  V30 2803 H 270.684 3.25307 -2.10366 0
M  V30 2804 H 271.098 2.99938 -4.30276 0
M  V30 2805 H 272.572 4.40428 -3.32757 0
M  V30 2806 H 273.049 4.06382 -1.66585 0
M  V30 2807 H 273.655 3.03238 -2.98206 0
M  V30 2808 N 271.97 1.30982 0.876444 0
M  V30 2809 C 273.195 1.23373 1.66715 0
M  V30 2810 C 273.62 -0.19885 1.87046 0
M  V30 2811 O 272.978 -1.1427 1.40756 0
M  V30 2812 C 273.026 1.97644 3.01611 0
M  V30 2813 O 272.13 1.30935 3.91062 0
M  V30 2814 H 271.471 0.426279 0.509099 0
M  V30 2815 H 274.001 1.72944 1.09323 0
M  V30 2816 H 274.011 2.06992 3.51594 0
M  V30 2817 H 272.686 3.01829 2.86133 0
M  V30 2818 H 271.263 1.29996 3.49507 0
M  V30 2819 N 273.449 -1.08991 1.13837 0
M  V30 2820 C 274.412 -2.13925 0.822715 0
M  V30 2821 C 275.412 -1.599 -0.1699 0
M  V30 2822 O 276.602 -1.74104 0.0577251 0
M  V30 2823 C 273.734 -3.40155 0.225318 0
M  V30 2824 H 274.927 -2.43358 1.75262 0
M  V30 2825 H 272.48 -1.24603 0.943594 0
M  V30 2826 H 273.215 -3.16352 -0.713594 0
M  V30 2827 H 273 -3.80661 0.940193 0
M  V30 2828 H 274.49 -4.17594 0.0214784 0
M  V30 2829 N 274.927 -0.932562 -1.27047 0
M  V30 2830 C 276.173 -0.585913 -1.94778 0
M  V30 2831 C 276.528 0.864142 -1.71902 0
M  V30 2832 O 275.821 1.60894 -1.04037 0
M  V30 2833 C 276.015 -0.853713 -3.47054 0
M  V30 2834 C 275.844 -2.32825 -3.84737 0
M  V30 2835 C 274.614 -2.98184 -4.07939 0
M  V30 2836 C 276.812 -3.30612 -3.93954 0
M  V30 2837 N 274.794 -4.3574 -4.3244 0
M  V30 2838 C 276.165 -4.53395 -4.22887 0
M  V30 2839 C 278.22 -3.25755 -3.76548 0
M  V30 2840 C 276.923 -5.71927 -4.36224 0
M  V30 2841 C 278.949 -4.43604 -3.91113 0
M  V30 2842 C 278.311 -5.65166 -4.20437 0
M  V30 2843 H 274.41 -0.264617 -0.735868 0
M  V30 2844 H 276.994 -1.20019 -1.53309 0
M  V30 2845 H 275.165 -0.268557 -3.8747 0
M  V30 2846 H 276.897 -0.469202 -4.01971 0
M  V30 2847 H 273.652 -2.48835 -4.02961 0
M  V30 2848 H 274.076 -5.06915 -4.48738 0
M  V30 2849 H 278.718 -2.32835 -3.52913 0
M  V30 2850 H 276.436 -6.65308 -4.58683 0
M  V30 2851 H 280.022 -4.41368 -3.79059 0
M  V30 2852 H 278.902 -6.54836 -4.31462 0
M  V30 2853 N 276.405 1.4127 -0.698611 0
M  V30 2854 C 277.337 2.292 0.00399731 0
M  V30 2855 C 278.35 1.44944 0.741279 0
M  V30 2856 O 279.539 1.68416 0.591477 0
M  V30 2857 C 276.639 3.22875 1.02979 0
M  V30 2858 C 275.812 4.35904 0.36151 0
M  V30 2859 C 274.871 5.10134 1.29033 0
M  V30 2860 O 273.897 5.63809 0.781562 0
M  V30 2861 N 275.099 5.17885 2.6225 0
M  V30 2862 H 277.864 2.9014 -0.750921 0
M  V30 2863 H 275.425 1.52455 -0.544882 0
M  V30 2864 H 277.417 3.69404 1.65296 0
M  V30 2865 H 275.987 2.63221 1.68622 0
M  V30 2866 H 275.207 3.91719 -0.441584 0
M  V30 2867 H 276.495 5.08696 -0.103055 0
M  V30 2868 H 275.893 4.7573 3.061 0
M  V30 2869 H 274.45 5.6798 3.19754 0
M  V30 2870 N 277.883 0.443576 1.51229 0
M  V30 2871 C 278.813 -0.355142 2.30783 0
M  V30 2872 C 279.794 -1.0154 1.36468 0
M  V30 2873 O 280.979 -1.01785 1.65389 0
M  V30 2874 C 278.109 -1.45312 3.15439 0
M  V30 2875 C 277.063 -0.916002 4.18083 0
M  V30 2876 C 276.389 -2.1102 4.91299 0
M  V30 2877 C 277.689 0.0538602 5.22272 0
M  V30 2878 H 279.383 0.308767 2.97804 0
M  V30 2879 H 276.929 0.149937 1.43217 0
M  V30 2880 H 278.882 -2.01914 3.69876 0
M  V30 2881 H 277.606 -2.14541 2.46252 0
M  V30 2882 H 276.265 -0.372145 3.64706 0
M  V30 2883 H 275.913 -2.78882 4.18609 0
M  V30 2884 H 275.613 -1.75717 5.60712 0
M  V30 2885 H 277.137 -2.68164 5.48562 0
M  V30 2886 H 278.551 -0.422069 5.71744 0
M  V30 2887 H 276.948 0.319776 5.99247 0
M  V30 2888 H 278.018 0.98858 4.74716 0
M  V30 2889 O 279.4 -1.58373 0.316273 0
M  V30 2890 H 280.091 -1.92143 -0.24513 0
M  V30 END ATOM
M  V30 BEGIN BOND
M  V30 END BOND
M  V30 END CTAB
M  END
$$$$
