drugbank_target|Q13956 Retinal cone rhodopsin-sensitive cGMP 3',5'-cyclic phosphodiesterase subunit gamma (DB00203; DB00862)
 OpenBabel12092120343D

  0  0  0     0  0            999 V3000
M  V30 BEGIN CTAB
M  V30 COUNTS 1282 1300 0 0 0
M  V30 BEGIN ATOM
M  V30 1 H -0.908 1.98254 -0.117106 0
M  V30 2 N 0 1.576 0 0
M  V30 3 C 0.933 2.03868 1.02534 0
M  V30 4 C 1.911 0.928543 1.3348 0
M  V30 5 O 3.095 1.19667 1.45644 0
M  V30 6 C 0.222 2.43627 2.35294 0
M  V30 7 C -0.732 3.65373 2.2001 0
M  V30 8 S 0.101 5.13292 1.52614 0
M  V30 9 C 1.257 5.56322 2.86805 0
M  V30 10 H 1.49 2.90518 0.631377 0
M  V30 11 H -0.977 1.52953 0.210867 0
M  V30 12 H 0.981 2.67203 3.11629 0
M  V30 13 H -0.358 1.57376 2.7183 0
M  V30 14 H -1.165 3.90944 3.18086 0
M  V30 15 H -1.563 3.418 1.51819 0
M  V30 16 H 0.729 5.58782 3.83104 0
M  V30 17 H 1.672 6.56266 2.65933 0
M  V30 18 H 2.08 4.83886 2.90714 0
M  V30 19 N 1.4781 -0.272755 1.55222 0
M  V30 20 C 2.7031 -1.02683 1.80197 0
M  V30 21 C 3.1281 -1.79142 0.573551 0
M  V30 22 O 2.4861 -1.74917 -0.476849 0
M  V30 23 C 2.5341 -1.9609 3.02624 0
M  V30 24 O 1.6381 -3.04863 2.77727 0
M  V30 25 H 0.9791 -0.293557 0.595584 0
M  V30 26 H 3.5091 -0.30159 2.02365 0
M  V30 27 H 3.5191 -2.38039 3.31363 0
M  V30 28 H 2.1941 -1.39851 3.91682 0
M  V30 29 H 0.7711 -2.67228 2.60084 0
M  V30 30 N 2.9562 -1.48159 -0.537278 0
M  V30 31 C 4.2332 -1.46291 -1.29839 0
M  V30 32 C 4.6132 -0.170613 -2.10409 0
M  V30 33 O 3.9612 0.847746 -2.12192 0
M  V30 34 C 4.1712 -2.72055 -2.18603 0
M  V30 35 C 5.5192 -3.20087 -2.7898 0
M  V30 36 O 6.5432 -2.72921 -2.28894 0
M  V30 37 O 5.4022 -4.02138 -3.70064 0
M  V30 38 H 2.4962 -0.583906 -0.585647 0
M  V30 39 H 5.0422 -1.60384 -0.554534 0
M  V30 40 H 3.8142 -3.57628 -1.58801 0
M  V30 41 H 3.4372 -2.60646 -3.00249 0
M  V30 42 N 4.4343 0.785586 -1.36625 0
M  V30 43 C 5.3823 1.91978 -1.31329 0
M  V30 44 C 6.3763 1.68162 -0.204416 0
M  V30 45 O 7.5823 1.76122 -0.371645 0
M  V30 46 H 3.9573 0.631087 -0.408942 0
M  V30 47 H 5.9283 1.93562 -2.27104 0
M  V30 48 C 4.6773 3.29055 -1.12329 0
M  V30 49 H 4.0003 3.4795 -1.96903 0
M  V30 50 H 5.4403 4.08756 -1.12671 0
M  V30 51 C 3.8993 3.36461 0.171861 0
M  V30 52 O 4.4293 3.84576 1.16035 0
M  V30 53 N 2.6353 2.89782 0.217846 0
M  V30 54 H 2.1823 2.50819 -0.587183 0
M  V30 55 H 2.1403 2.95119 1.08408 0
M  V30 56 N 5.9124 1.20967 1.01018 0
M  V30 57 C 7.1404 1.04956 1.78303 0
M  V30 58 C 7.5554 -0.400915 1.84494 0
M  V30 59 O 6.9124 -1.27826 1.30257 0
M  V30 60 C 6.9634 1.63403 3.22462 0
M  V30 61 O 6.6844 3.02775 3.16637 0
M  V30 62 C 8.1854 1.52432 4.16268 0
M  V30 63 H 5.4054 0.368858 0.560522 0
M  V30 64 H 7.9494 1.60193 1.27116 0
M  V30 65 H 6.1044 1.1227 3.70775 0
M  V30 66 H 6.5184 3.30626 4.07169 0
M  V30 67 H 7.9924 1.98078 5.15237 0
M  V30 68 H 8.4694 0.477875 4.36592 0
M  V30 69 H 9.0754 2.02787 3.73841 0
M  V30 70 N 7.3905 -1.2043 1.01659 0
M  V30 71 C 8.6185 -1.93777 0.725132 0
M  V30 72 C 9.0335 -1.74772 -0.714166 0
M  V30 73 O 8.3905 -1.06169 -1.4844 0
M  V30 74 C 8.4415 -3.45876 1.05129 0
M  V30 75 O 8.1625 -3.6426 2.43406 0
M  V30 76 C 9.6635 -4.36368 0.780891 0
M  V30 77 H 6.8835 -0.615901 0.266284 0
M  V30 78 H 9.4275 -1.52922 1.35776 0
M  V30 79 H 7.5825 -3.8461 0.464065 0
M  V30 80 H 7.9965 -4.58246 2.55169 0
M  V30 81 H 9.4705 -5.41743 1.05918 0
M  V30 82 H 9.9475 -4.38275 -0.284937 0
M  V30 83 H 10.5535 -4.03296 1.35027 0
M  V30 84 N 8.8686 -0.792821 -1.36206 0
M  V30 85 C 9.7986 -0.207853 -2.32573 0
M  V30 86 C 10.7796 0.659055 -1.56813 0
M  V30 87 O 11.9646 0.592176 -1.84951 0
M  V30 88 C 9.0946 0.655449 -3.41059 0
M  V30 89 C 8.0486 -0.111842 -4.27854 0
M  V30 90 C 7.3746 0.872274 -5.27537 0
M  V30 91 C 8.6746 -1.30299 -5.05786 0
M  V30 92 H 10.3686 -1.01294 -2.81744 0
M  V30 93 H 7.9146 -0.48854 -1.3546 0
M  V30 94 H 9.8676 1.07464 -4.07467 0
M  V30 95 H 8.5916 1.49328 -2.90463 0
M  V30 96 H 7.2506 -0.512053 -3.63006 0
M  V30 97 H 6.8986 1.70523 -4.73214 0
M  V30 98 H 6.5986 0.363291 -5.86476 0
M  V30 99 H 8.1226 1.28996 -5.96818 0
M  V30 100 H 9.5366 -0.959379 -5.65216 0
M  V30 101 H 7.9336 -1.7455 -5.74154 0
M  V30 102 H 9.0036 -2.09663 -4.37229 0
M  V30 103 N 10.3467 1.47872 -0.545128 0
M  V30 104 C 11.7577 1.86384 -0.108581 0
M  V30 105 C 12.1087 1.45309 1.31832 0
M  V30 106 O 11.2337 0.850641 1.9898 0
M  V30 107 C 11.8287 3.38265 -0.190274 0
M  V30 108 C 10.3877 3.75914 0.191164 0
M  V30 109 C 9.5347 2.71926 -0.543273 0
M  V30 110 H 12.4857 1.39561 -0.755537 0
M  V30 111 H 12.5067 3.75831 0.594217 0
M  V30 112 H 12.0187 3.6813 -1.2289 0
M  V30 113 H 10.1197 3.51665 1.23136 0
M  V30 114 H 10.2327 4.78836 -0.158987 0
M  V30 115 H 8.5967 2.54697 0.0122495 0
M  V30 116 H 9.3797 3.04634 -1.58282 0
M  V30 117 N 11.8248 0.280983 1.55075 0
M  V30 118 C 12.7878 -0.590896 2.21452 0
M  V30 119 C 13.7878 -1.07682 1.19421 0
M  V30 120 O 14.9778 -0.97605 1.44288 0
M  V30 121 C 12.1098 -1.81587 2.88511 0
M  V30 122 H 13.3028 -0.0112554 2.99898 0
M  V30 123 H 10.8558 0.0316438 1.56268 0
M  V30 124 H 11.5908 -2.43587 2.14093 0
M  V30 125 H 11.3758 -1.4753 3.63287 0
M  V30 126 H 12.8658 -2.43575 3.39206 0
M  V30 127 N 13.3029 -1.57598 0.00835791 0
M  V30 128 C 14.7139 -1.7892 -0.53333 0
M  V30 129 C 15.0649 -0.916609 -1.73473 0
M  V30 130 O 14.1899 -0.121336 -2.1606 0
M  V30 131 C 14.7849 -3.24488 -0.974313 0
M  V30 132 C 13.3439 -3.46878 -1.46125 0
M  V30 133 C 12.4909 -2.74157 -0.416302 0
M  V30 134 H 15.4419 -1.56958 0.234495 0
M  V30 135 H 15.4629 -3.3306 -1.83988 0
M  V30 136 H 14.9749 -3.87972 -0.099718 0
M  V30 137 H 13.0759 -2.8862 -2.35646 0
M  V30 138 H 13.1889 -4.55572 -1.48295 0
M  V30 139 H 11.5529 -2.39022 -0.87981 0
M  V30 140 H 12.3359 -3.40345 0.44947 0
M  V30 141 N 14.781 0.264519 -1.55364 0
M  V30 142 C 15.744 1.31046 -1.88042 0
M  V30 143 C 16.744 1.41943 -0.755569 0
M  V30 144 O 17.934 1.40947 -1.02369 0
M  V30 145 C 15.066 2.69067 -2.09323 0
M  V30 146 H 16.259 1.03297 -2.81549 0
M  V30 147 H 13.812 0.502989 -1.47986 0
M  V30 148 H 14.547 3.01982 -1.18226 0
M  V30 149 H 14.332 2.62542 -2.91229 0
M  V30 150 H 15.822 3.44623 -2.35848 0
M  V30 151 N 16.2591 1.48442 0.529413 0
M  V30 152 C 17.4841 1.60406 1.31471 0
M  V30 153 C 17.9091 0.264738 1.86228 0
M  V30 154 O 17.2671 -0.763668 1.64432 0
M  V30 155 C 17.3151 2.65419 2.44101 0
M  V30 156 O 16.4191 2.22618 3.47153 0
M  V30 157 H 15.7601 0.537863 0.389357 0
M  V30 158 H 18.2901 1.94432 0.636965 0
M  V30 159 H 18.3001 2.86709 2.90279 0
M  V30 160 H 16.9751 3.62652 2.03608 0
M  V30 161 H 15.5521 2.11543 3.0709 0
M  V30 162 N 17.7372 -0.778329 1.37039 0
M  V30 163 C 18.6852 -1.91278 1.32345 0
M  V30 164 C 19.6792 -1.68051 0.213331 0
M  V30 165 O 20.8852 -1.75922 0.38098 0
M  V30 166 H 17.2602 -0.628909 0.412283 0
M  V30 167 H 19.2312 -1.92355 2.28127 0
M  V30 168 C 17.9802 -3.28455 1.14073 0
M  V30 169 H 17.3032 -3.46901 1.98746 0
M  V30 170 H 18.7432 -4.08152 1.14837 0
M  V30 171 C 17.2022 -3.36548 -0.154015 0
M  V30 172 O 17.7322 -3.85186 -1.13993 0
M  V30 173 N 15.9382 -2.89894 -0.202475 0
M  V30 174 H 15.4852 -2.50504 0.600476 0
M  V30 175 H 15.4432 -2.9569 -1.06841 0
M  V30 176 N 19.2153 -1.21501 -1.00376 0
M  V30 177 C 20.1473 -0.933174 -2.09343 0
M  V30 178 C 21.1603 0.0840896 -1.62583 0
M  V30 179 O 22.3493 -0.148563 -1.77881 0
M  V30 180 C 19.4493 -0.379869 -3.36764 0
M  V30 181 C 18.6223 -1.45176 -4.12605 0
M  V30 182 C 17.6813 -0.907476 -5.18316 0
M  V30 183 O 16.7073 -1.5912 -5.46507 0
M  V30 184 N 17.9093 0.276649 -5.7984 0
M  V30 185 H 20.6743 -1.87124 -2.34104 0
M  V30 186 H 18.2353 -1.12043 -1.16867 0
M  V30 187 H 20.2273 -0.00131488 -4.047 0
M  V30 188 H 18.7973 0.463048 -3.09151 0
M  V30 189 H 18.0173 -2.00411 -3.39454 0
M  V30 190 H 19.3053 -2.17328 -4.6005 0
M  V30 191 H 18.7033 0.849147 -5.59291 0
M  V30 192 H 17.2603 0.596702 -6.49063 0
M  V30 193 N 20.6934 1.19889 -1.02296 0
M  V30 194 C 21.9414 1.89046 -0.714558 0
M  V30 195 C 22.2624 1.79636 0.758681 0
M  V30 196 O 21.5324 1.20292 1.54618 0
M  V30 197 H 20.1124 0.699802 -0.261317 0
M  V30 198 H 22.7744 1.45574 -1.29592 0
M  V30 199 H 21.8704 2.95524 -1.0036 0
M  V30 200 N 22.1715 0.800033 1.35784 0
M  V30 201 C 23.5825 0.439142 1.81462 0
M  V30 202 C 23.9335 -1.03813 1.66485 0
M  V30 203 O 23.0585 -1.80626 1.19177 0
M  V30 204 C 23.6535 0.790314 3.29453 0
M  V30 205 C 22.2125 0.482111 3.733 0
M  V30 206 C 21.3595 1.01938 2.57883 0
M  V30 207 H 24.3105 0.992254 1.23855 0
M  V30 208 H 24.3315 0.0853677 3.80404 0
M  V30 209 H 23.8435 1.86554 3.40322 0
M  V30 210 H 21.9445 -0.584652 3.67984 0
M  V30 211 H 22.0575 1.01015 4.6833 0
M  V30 212 H 20.4215 0.442043 2.50835 0
M  V30 213 H 21.2045 2.10059 2.71533 0
M  V30 214 N 23.6496 -1.47581 0.552962 0
M  V30 215 C 24.8776 -2.06875 0.0320556 0
M  V30 216 C 25.2926 -1.40625 -1.25976 0
M  V30 217 O 24.6496 -0.501349 -1.75479 0
M  V30 218 C 24.7006 -3.61092 -0.17167 0
M  V30 219 O 24.4216 -4.24858 1.06899 0
M  V30 220 C 25.9226 -4.37242 -0.730344 0
M  V30 221 H 23.1426 -0.669561 0.043915 0
M  V30 222 H 25.6866 -1.89646 0.765163 0
M  V30 223 H 23.8416 -3.7785 -0.854894 0
M  V30 224 H 24.2556 -5.17334 0.864059 0
M  V30 225 H 25.7296 -5.45842 -0.822203 0
M  V30 226 H 26.2066 -4.03235 -1.74064 0
M  V30 227 H 26.8126 -4.25219 -0.0829543 0
M  V30 228 N 25.1277 -0.289203 -1.54924 0
M  V30 229 C 26.3557 0.326463 -2.04308 0
M  V30 230 C 26.7707 1.48413 -1.16701 0
M  V30 231 O 26.1277 1.81507 -0.190087 0
M  V30 232 C 26.1787 0.794014 -3.52672 0
M  V30 233 O 25.8997 -0.317564 -4.36948 0
M  V30 234 C 27.4007 1.47605 -4.18004 0
M  V30 235 H 24.6207 0.0726272 -0.667058 0
M  V30 236 H 27.1647 -0.425401 -2.00026 0
M  V30 237 H 25.3197 1.49593 -3.57352 0
M  V30 238 H 25.7337 0.0443186 -5.24481 0
M  V30 239 H 27.2077 1.75447 -5.23376 0
M  V30 240 H 27.6847 2.41224 -3.67025 0
M  V30 241 H 28.2907 0.81762 -4.17367 0
M  V30 242 N 26.6058 1.57591 -0.0167156 0
M  V30 243 C 28.0168 1.79201 0.523834 0
M  V30 244 C 28.3678 0.925796 1.72984 0
M  V30 245 O 27.4928 0.132792 2.15992 0
M  V30 246 C 28.0878 3.25 0.957091 0
M  V30 247 C 26.6468 3.47648 1.44283 0
M  V30 248 C 25.7938 2.74374 0.401757 0
M  V30 249 H 28.7448 1.56831 -0.242816 0
M  V30 250 H 28.7658 3.34031 1.82219 0
M  V30 251 H 28.2778 3.88019 0.0791415 0
M  V30 252 H 26.3788 2.89866 2.34113 0
M  V30 253 H 26.4918 4.56352 1.45877 0
M  V30 254 H 24.8558 2.39485 0.867121 0
M  V30 255 H 25.6388 3.40102 -0.467513 0
M  V30 256 N 28.0839 -0.256276 1.55502 0
M  V30 257 C 29.4999 -0.604325 1.47716 0
M  V30 258 C 29.6999 -1.88763 0.705039 0
M  V30 259 O 28.7559 -2.51445 0.230613 0
M  V30 260 C 30.0689 -0.715756 2.92057 0
M  V30 261 C 31.6169 -0.808706 3.02372 0
M  V30 262 C 32.0919 -0.951777 4.48001 0
M  V30 263 N 33.5829 -1.01688 4.519 0
M  V30 264 C 34.3179 -1.14668 5.61817 0
M  V30 265 N 33.8139 -1.24261 6.81565 0
M  V30 266 N 35.6069 -1.1791 5.49594 0
M  V30 267 H 27.7579 0.586291 2.04148 0
M  V30 268 H 30.0209 0.201015 0.926443 0
M  V30 269 H 29.7269 0.157027 3.51349 0
M  V30 270 H 29.6009 -1.59071 3.42018 0
M  V30 271 H 31.9879 -1.67195 2.43166 0
M  V30 272 H 32.0689 0.0912063 2.55637 0
M  V30 273 H 31.7129 -0.0931291 5.07815 0
M  V30 274 H 31.6429 -1.86659 4.92408 0
M  V30 275 H 34.1339 -0.954468 3.65648 0
M  V30 276 H 34.4469 -1.34046 7.61086 0
M  V30 277 H 32.7919 -1.21236 6.84344 0
M  V30 278 H 35.9829 -1.10057 4.54978 0
M  V30 279 H 36.1559 -1.27681 6.35296 0
M  V30 280 N 29.562 -1.4872 -0.521534 0
M  V30 281 C 30.509 -1.63871 -1.62527 0
M  V30 282 C 31.479 -0.480559 -1.58996 0
M  V30 283 O 32.664 -0.705085 -1.77294 0
M  V30 284 C 29.804 -1.69227 -3.00759 0
M  V30 285 C 28.917 -2.96207 -3.14461 0
M  V30 286 C 28.052 -2.92671 -4.43303 0
M  V30 287 C 27.091 -4.14318 -4.50563 0
M  V30 288 N 26.228 -4.0881 -5.70805 0
M  V30 289 H 31.068 -2.58123 -1.48918 0
M  V30 290 H 28.605 -1.28 -0.724878 0
M  V30 291 H 30.563 -1.70314 -3.80853 0
M  V30 292 H 29.193 -0.784586 -3.1312 0
M  V30 293 H 28.245 -3.04826 -2.27564 0
M  V30 294 H 29.557 -3.86192 -3.15686 0
M  V30 295 H 28.711 -2.92206 -5.31696 0
M  V30 296 H 27.45 -2.00429 -4.44612 0
M  V30 297 H 26.455 -4.15049 -3.60575 0
M  V30 298 H 27.68 -5.07729 -4.50986 0
M  V30 299 H 25.626 -3.19394 -5.72995 0
M  V30 300 H 25.543 -4.92509 -5.7356 0
M  V30 301 H 26.811 -4.12418 -6.61462 0
M  V30 302 N 31.0401 0.771051 -1.3745 0
M  V30 303 C 32.2881 1.52661 -1.32435 0
M  V30 304 C 32.6091 1.9479 0.0905024 0
M  V30 305 O 31.8791 1.66348 1.03466 0
M  V30 306 H 30.4591 0.566218 -0.487244 0
M  V30 307 H 33.1211 0.917636 -1.71946 0
M  V30 308 H 32.2171 2.42568 -1.96385 0
M  V30 309 N 32.5182 1.22032 0.997298 0
M  V30 310 C 33.9292 1.0397 1.55071 0
M  V30 311 C 34.2802 -0.398192 1.92117 0
M  V30 312 O 33.4052 -1.28254 1.74298 0
M  V30 313 C 34.0002 1.88109 2.81781 0
M  V30 314 C 32.5592 1.74357 3.33581 0
M  V30 315 C 31.7062 1.84846 2.06706 0
M  V30 316 H 34.6572 1.35941 0.818883 0
M  V30 317 H 34.6782 1.39589 3.53971 0
M  V30 318 H 34.1902 2.92754 2.54787 0
M  V30 319 H 32.2912 0.72427 3.65493 0
M  V30 320 H 32.4042 2.56772 4.04481 0
M  V30 321 H 30.7682 1.28238 2.20062 0
M  V30 322 H 31.5512 2.91014 1.82114 0
M  V30 323 N 33.9963 -1.19345 1.0293 0
M  V30 324 C 35.4073 -1.70725 0.755633 0
M  V30 325 C 35.7583 -1.82326 -0.724676 0
M  V30 326 O 34.8833 -1.49471 -1.56484 0
M  V30 327 C 35.4783 -3.10084 1.36503 0
M  V30 328 C 34.0373 -3.58723 1.13994 0
M  V30 329 C 33.1843 -2.35577 1.46283 0
M  V30 330 H 36.1353 -1.0418 1.19718 0
M  V30 331 H 36.1563 -3.72787 0.762217 0
M  V30 332 H 35.6683 -3.01609 2.44241 0
M  V30 333 H 33.7693 -3.72512 0.0807901 0
M  V30 334 H 33.8823 -4.42816 1.82894 0
M  V30 335 H 32.2463 -2.38935 0.88217 0
M  V30 336 H 33.0293 -2.29731 2.55105 0
M  V30 337 N 35.4744 -0.807222 -1.35358 0
M  V30 338 C 36.4214 -0.216037 -2.29787 0
M  V30 339 C 37.3914 0.650278 -1.52842 0
M  V30 340 O 38.5764 0.595227 -1.81278 0
M  V30 341 C 35.7164 0.628893 -3.39321 0
M  V30 342 C 34.8294 -0.257927 -4.31229 0
M  V30 343 C 33.9644 0.595069 -5.27856 0
M  V30 344 C 33.0034 -0.292111 -6.11403 0
M  V30 345 N 32.1404 0.520895 -7.00165 0
M  V30 346 H 36.9804 -1.02671 -2.79755 0
M  V30 347 H 34.5174 -0.517839 -1.37684 0
M  V30 348 H 36.4754 1.13393 -4.01494 0
M  V30 349 H 35.1054 1.40482 -2.90628 0
M  V30 350 H 34.1574 -0.881076 -3.70056 0
M  V30 351 H 35.4694 -0.940759 -4.89848 0
M  V30 352 H 34.6234 1.16522 -5.95405 0
M  V30 353 H 33.3624 1.31146 -4.69736 0
M  V30 354 H 32.3674 -0.874525 -5.428 0
M  V30 355 H 33.5924 -1.00638 -6.71602 0
M  V30 356 H 31.5384 1.22125 -6.44532 0
M  V30 357 H 31.4554 -0.103877 -7.55929 0
M  V30 358 H 32.7234 1.0743 -7.72062 0
M  V30 359 N 36.9525 1.47285 -0.560781 0
M  V30 360 C 38.1995 2.02464 -0.038062 0
M  V30 361 C 38.5275 1.43474 1.31322 0
M  V30 362 O 37.7825 0.581311 1.86867 0
M  V30 363 C 38.0815 3.57258 0.100784 0
M  V30 364 C 37.7475 4.35184 -1.18007 0
M  V30 365 C 36.4095 4.56194 -1.53103 0
M  V30 366 C 38.7615 4.80098 -2.02867 0
M  V30 367 C 36.0895 5.19367 -2.729 0
M  V30 368 C 38.4415 5.44593 -3.21871 0
M  V30 369 C 37.1055 5.63835 -3.57276 0
M  V30 370 H 36.3755 0.740869 -0.0139279 0
M  V30 371 H 39.0225 1.76916 -0.733012 0
M  V30 372 H 37.3275 3.81819 0.878724 0
M  V30 373 H 39.0245 3.97606 0.520639 0
M  V30 374 H 35.6145 4.19113 -0.8968 0
M  V30 375 H 39.7985 4.63642 -1.7706 0
M  V30 376 H 35.0545 5.32459 -3.00496 0
M  V30 377 H 39.2285 5.78358 -3.87911 0
M  V30 378 H 36.8555 6.12557 -4.50197 0
M  V30 379 N 38.4306 0.297415 1.54768 0
M  V30 380 C 39.3776 -0.580276 2.23386 0
M  V30 381 C 40.3476 -1.13238 1.21517 0
M  V30 382 O 41.5326 -1.17757 1.50126 0
M  V30 383 C 38.6726 -1.74801 2.97555 0
M  V30 384 C 37.7856 -1.22764 4.1419 0
M  V30 385 C 36.9206 -2.35895 4.75949 0
M  V30 386 C 35.9596 -1.80974 5.84735 0
M  V30 387 N 35.0966 -2.87664 6.40464 0
M  V30 388 H 39.9366 0.0114833 2.97998 0
M  V30 389 H 37.4736 0.0174361 1.4709 0
M  V30 390 H 39.4316 -2.43475 3.38786 0
M  V30 391 H 38.0616 -2.31145 2.25326 0
M  V30 392 H 37.1136 -0.433271 3.77924 0
M  V30 393 H 38.4256 -0.785551 4.92575 0
M  V30 394 H 37.5796 -3.12523 5.20014 0
M  V30 395 H 36.3186 -2.83429 3.96887 0
M  V30 396 H 35.3236 -1.02834 5.40097 0
M  V30 397 H 36.5486 -1.34348 6.65678 0
M  V30 398 H 34.4946 -3.34538 5.64287 0
M  V30 399 H 34.4116 -2.4794 7.14186 0
M  V30 400 H 35.6796 -3.642 6.89187 0
M  V30 401 N 39.9087 -1.5758 0.0250728 0
M  V30 402 C 40.8407 -2.06869 -0.986796 0
M  V30 403 C 41.8537 -0.991332 -1.29137 0
M  V30 404 O 43.0427 -1.26761 -1.25674 0
M  V30 405 C 40.1427 -2.47486 -2.31525 0
M  V30 406 C 39.3157 -3.78253 -2.19643 0
M  V30 407 C 38.3747 -4.05464 -3.35388 0
M  V30 408 O 37.4007 -4.75774 -3.12454 0
M  V30 409 N 38.6027 -3.55321 -4.59051 0
M  V30 410 H 41.3677 -2.94302 -0.566276 0
M  V30 411 H 38.9287 -1.6109 -0.161776 0
M  V30 412 H 40.9207 -2.62785 -3.07776 0
M  V30 413 H 39.4907 -1.65441 -2.65232 0
M  V30 414 H 38.7107 -3.7279 -1.28144 0
M  V30 415 H 39.9987 -4.63936 -2.08903 0
M  V30 416 H 39.3967 -2.98431 -4.80578 0
M  V30 417 H 37.9537 -3.75905 -5.32483 0
M  V30 418 N 41.3868 0.248026 -1.55636 0
M  V30 419 C 42.8028 0.596483 -1.48035 0
M  V30 420 C 43.0028 1.88386 -0.715039 0
M  V30 421 O 42.0588 2.51319 -0.243944 0
M  V30 422 C 43.3718 0.700258 -2.92433 0
M  V30 423 C 44.9198 0.792659 -3.02797 0
M  V30 424 C 45.3948 0.928005 -4.485 0
M  V30 425 N 46.8858 0.992903 -4.52433 0
M  V30 426 C 47.6208 1.11687 -5.62418 0
M  V30 427 N 47.1168 1.20645 -6.82214 0
M  V30 428 N 48.9098 1.14994 -5.50212 0
M  V30 429 H 41.0608 -0.597109 -2.03834 0
M  V30 430 H 43.3238 -0.205925 -0.925364 0
M  V30 431 H 43.0298 -0.175658 -3.51261 0
M  V30 432 H 42.9038 1.57255 -3.42857 0
M  V30 433 H 45.2908 1.65903 -2.4405 0
M  V30 434 H 45.3718 -0.104762 -2.55585 0
M  V30 435 H 45.0158 0.0661971 -5.07857 0
M  V30 436 H 44.9458 1.84045 -4.93391 0
M  V30 437 H 47.4368 0.935064 -3.66149 0
M  V30 438 H 47.7498 1.30008 -7.61786 0
M  V30 439 H 46.0948 1.17605 -6.84977 0
M  V30 440 H 49.2858 1.07643 -4.55555 0
M  V30 441 H 49.4588 1.24311 -6.35965 0
M  V30 442 N 42.8649 1.48995 0.513639 0
M  V30 443 C 43.7969 1.60836 1.63293 0
M  V30 444 C 44.8099 0.491701 1.55197 0
M  V30 445 O 45.9989 0.763238 1.6136 0
M  V30 446 C 43.0989 1.53731 3.02027 0
M  V30 447 C 42.2719 2.80715 3.35437 0
M  V30 448 C 41.3309 2.66837 4.53525 0
M  V30 449 O 40.3569 3.40753 4.55934 0
M  V30 450 N 41.5589 1.77539 5.52684 0
M  V30 451 H 44.3239 2.57366 1.53566 0
M  V30 452 H 41.8849 1.45925 0.701259 0
M  V30 453 H 43.8769 1.42118 3.78926 0
M  V30 454 H 42.4469 0.651092 3.05744 0
M  V30 455 H 41.6669 3.06772 2.47557 0
M  V30 456 H 42.9549 3.64927 3.54551 0
M  V30 457 H 42.3529 1.16719 5.53528 0
M  V30 458 H 40.9099 1.71856 6.28736 0
M  V30 459 N 44.343 -0.763751 1.37857 0
M  V30 460 C 45.571 -1.55293 1.36718 0
M  V30 461 C 45.986 -1.88745 -0.0455434 0
M  V30 462 O 45.343 -1.52039 -1.00947 0
M  V30 463 C 45.394 -2.85831 2.2132 0
M  V30 464 O 45.115 -2.5381 3.57089 0
M  V30 465 C 46.616 -3.80023 2.28249 0
M  V30 466 H 43.836 -0.480841 0.468009 0
M  V30 467 H 46.38 -0.946009 1.81303 0
M  V30 468 H 44.535 -3.42926 1.80223 0
M  V30 469 H 44.949 -3.37459 4.01524 0
M  V30 470 H 46.423 -4.68599 2.91752 0
M  V30 471 H 46.9 -4.1973 1.2932 0
M  V30 472 H 47.506 -3.28855 2.69693 0
M  V30 473 N 45.8211 -1.22559 -0.990812 0
M  V30 474 C 47.2371 -0.985996 -1.255 0
M  V30 475 C 47.4371 0.319173 -1.98956 0
M  V30 476 O 46.4931 1.04127 -2.3003 0
M  V30 477 C 47.8061 -2.18607 -2.06474 0
M  V30 478 C 49.3541 -2.22985 -2.19651 0
M  V30 479 C 49.8291 -3.4255 -3.04012 0
M  V30 480 N 51.3201 -3.42725 -3.11599 0
M  V30 481 C 52.0551 -4.31892 -3.7717 0
M  V30 482 N 51.5511 -5.31279 -4.44651 0
M  V30 483 N 53.3441 -4.19662 -3.73952 0
M  V30 484 H 45.4951 -2.06469 -0.49841 0
M  V30 485 H 47.7581 -0.904853 -0.282747 0
M  V30 486 H 47.4641 -3.13267 -1.59865 0
M  V30 487 H 47.3381 -2.18838 -3.07229 0
M  V30 488 H 49.7251 -1.28871 -2.65474 0
M  V30 489 H 49.8061 -2.26791 -1.18319 0
M  V30 490 H 49.4501 -4.36965 -2.58889 0
M  V30 491 H 49.3801 -3.35984 -4.0549 0
M  V30 492 H 51.8711 -2.70807 -2.63575 0
M  V30 493 H 52.1841 -5.95593 -4.92431 0
M  V30 494 H 50.5291 -5.3519 -4.43392 0
M  V30 495 H 53.7201 -3.41268 -3.20396 0
M  V30 496 H 53.8931 -4.89358 -4.24774 0
M  V30 497 N 47.2992 1.18797 -1.03562 0
M  V30 498 C 48.2312 2.21731 -0.580337 0
M  V30 499 C 49.2442 1.59051 0.347349 0
M  V30 500 O 50.4332 1.77929 0.142669 0
M  V30 501 C 47.5332 3.38459 0.172805 0
M  V30 502 C 46.7062 4.3072 -0.761496 0
M  V30 503 C 45.7652 5.26174 -0.0525547 0
M  V30 504 O 44.7912 5.65108 -0.681333 0
M  V30 505 N 45.9932 5.67624 1.21586 0
M  V30 506 H 48.7582 2.61417 -1.46565 0
M  V30 507 H 46.3192 1.33531 -0.915476 0
M  V30 508 H 48.3112 3.99335 0.656793 0
M  V30 509 H 46.8812 2.97507 0.959602 0
M  V30 510 H 46.1012 3.67525 -1.42544 0
M  V30 511 H 47.3892 4.89267 -1.39626 0
M  V30 512 H 46.7872 5.38038 1.74732 0
M  V30 513 H 45.3442 6.30721 1.64421 0
M  V30 514 N 48.7773 0.814389 1.34928 0
M  V30 515 C 50.0243 0.398423 1.98542 0
M  V30 516 C 50.3523 -1.03638 1.64589 0
M  V30 517 O 49.6073 -1.73509 0.90516 0
M  V30 518 C 49.9063 0.537781 3.53331 0
M  V30 519 C 49.5723 1.93704 4.07172 0
M  V30 520 C 48.2343 2.31984 4.21589 0
M  V30 521 C 50.5863 2.85213 4.36237 0
M  V30 522 C 47.9143 3.61125 4.62391 0
M  V30 523 C 50.2663 4.13809 4.78482 0
M  V30 524 C 48.9303 4.52077 4.91104 0
M  V30 525 H 48.2003 0.145793 0.726516 0
M  V30 526 H 50.8473 1.03669 1.61012 0
M  V30 527 H 49.1523 -0.183906 3.91368 0
M  V30 528 H 50.8493 0.196588 4.00518 0
M  V30 529 H 47.4393 1.62966 3.96409 0
M  V30 530 H 51.6233 2.56885 4.24645 0
M  V30 531 H 46.8793 3.90612 4.70353 0
M  V30 532 H 51.0533 4.84811 4.99932 0
M  V30 533 H 48.6803 5.52196 5.22478 0
M  V30 534 N 50.2554 -1.46986 0.568584 0
M  V30 535 C 51.2024 -2.30153 -0.172707 0
M  V30 536 C 52.1724 -1.39759 -0.897586 0
M  V30 537 O 53.3574 -1.68716 -0.891044 0
M  V30 538 C 50.4974 -3.23952 -1.1895 0
M  V30 539 C 49.6104 -4.29441 -0.469517 0
M  V30 540 C 48.7454 -5.1038 -1.47259 0
M  V30 541 C 47.7844 -6.07632 -0.738225 0
M  V30 542 N 46.9214 -6.8149 -1.68868 0
M  V30 543 H 51.7614 -2.93019 0.542596 0
M  V30 544 H 49.2984 -1.44422 0.279401 0
M  V30 545 H 51.2564 -3.76767 -1.79173 0
M  V30 546 H 49.8864 -2.62926 -1.87269 0
M  V30 547 H 48.9384 -3.79594 0.247467 0
M  V30 548 H 50.2504 -4.98689 0.105241 0
M  V30 549 H 49.4044 -5.67402 -2.14803 0
M  V30 550 H 48.1434 -4.4106 -2.08128 0
M  V30 551 H 47.1484 -5.49778 -0.0489293 0
M  V30 552 H 48.3734 -6.78966 -0.135129 0
M  V30 553 H 46.3194 -6.14891 -2.28573 0
M  V30 554 H 46.2364 -7.46948 -1.16636 0
M  V30 555 H 47.5044 -7.43078 -2.3549 0
M  V30 556 N 51.7335 -0.305618 -1.54608 0
M  V30 557 C 52.9585 0.307562 -2.05107 0
M  V30 558 C 53.3835 1.46385 -1.18123 0
M  V30 559 O 52.7415 1.8034 -0.186324 0
M  V30 560 C 52.7895 0.73704 -3.52987 0
M  V30 561 O 51.8935 1.84134 -3.6901 0
M  V30 562 H 51.2345 0.0589143 -0.661381 0
M  V30 563 H 53.7645 -0.448807 -1.99617 0
M  V30 564 H 53.7745 1.02459 -3.94925 0
M  V30 565 H 52.4495 -0.108773 -4.15758 0
M  V30 566 H 51.0265 1.55398 -3.38978 0
M  V30 567 N 53.2116 1.57565 -0.0334293 0
M  V30 568 C 54.1586 2.10478 0.946981 0
M  V30 569 C 55.1286 1.00787 1.32027 0
M  V30 570 O 56.3136 1.28232 1.41284 0
M  V30 571 C 53.4536 2.63994 2.22263 0
M  V30 572 C 52.5666 3.87709 1.90541 0
M  V30 573 C 51.7016 4.29604 3.12433 0
M  V30 574 C 50.7406 5.46065 2.76549 0
M  V30 575 N 49.8776 5.83096 3.9108 0
M  V30 576 H 54.7176 2.93963 0.488846 0
M  V30 577 H 52.2546 1.45296 0.22969 0
M  V30 578 H 54.2126 2.93114 2.96884 0
M  V30 579 H 52.8426 1.83333 2.65685 0
M  V30 580 H 51.8946 3.65291 1.06144 0
M  V30 581 H 53.2066 4.72403 1.60116 0
M  V30 582 H 52.3606 4.60182 3.9537 0
M  V30 583 H 51.0996 3.43685 3.46023 0
M  V30 584 H 50.1046 5.15176 1.92026 0
M  V30 585 H 51.3296 6.33685 2.44171 0
M  V30 586 H 49.2756 5.00132 4.24504 0
M  V30 587 H 49.1926 6.6244 3.64293 0
M  V30 588 H 50.4606 6.18282 4.74708 0
M  V30 589 N 54.6897 -0.239769 1.55765 0
M  V30 590 C 56.1007 -0.808263 1.68297 0
M  V30 591 C 56.4517 -1.85736 0.632181 0
M  V30 592 O 55.5767 -2.15277 -0.220204 0
M  V30 593 C 56.1717 -1.47284 3.05111 0
M  V30 594 C 54.7307 -1.98895 3.19559 0
M  V30 595 C 53.8777 -0.842575 2.64189 0
M  V30 596 H 56.8287 -0.0154422 1.58692 0
M  V30 597 H 56.8497 -2.34111 2.99954 0
M  V30 598 H 56.3617 -0.709053 3.81568 0
M  V30 599 H 54.4627 -2.78132 2.47938 0
M  V30 600 H 54.5757 -2.18143 4.26556 0
M  V30 601 H 52.9397 -1.24501 2.22197 0
M  V30 602 H 53.7227 -0.0917552 3.43177 0
M  V30 603 N 56.1678 -1.49265 -0.50573 0
M  V30 604 C 57.5788 -1.51769 -1.08734 0
M  V30 605 C 57.9298 -0.301192 -1.93874 0
M  V30 606 O 57.0548 0.589456 -2.08217 0
M  V30 607 C 57.6498 -2.75017 -1.97867 0
M  V30 608 C 56.2088 -2.80314 -2.51199 0
M  V30 609 C 55.3558 -2.4562 -1.28709 0
M  V30 610 H 58.3068 -1.56031 -0.289855 0
M  V30 611 H 58.3278 -2.5491 -2.82491 0
M  V30 612 H 57.8398 -3.63539 -1.35873 0
M  V30 613 H 55.9408 -1.96061 -3.16845 0
M  V30 614 H 56.0538 -3.82366 -2.88675 0
M  V30 615 H 54.4178 -1.97297 -1.61078 0
M  V30 616 H 55.2008 -3.36411 -0.6843 0
M  V30 617 N 57.6459 0.756429 -1.3826 0
M  V30 618 C 58.5929 1.87011 -1.35261 0
M  V30 619 C 59.5629 1.64695 -0.215616 0
M  V30 620 O 60.7479 1.864 -0.407399 0
M  V30 621 C 57.8879 3.24275 -1.18068 0
M  V30 622 C 57.0009 3.58442 -2.41129 0
M  V30 623 C 56.1359 4.84994 -2.16689 0
M  V30 624 C 55.1749 5.11939 -3.35537 0
M  V30 625 N 54.3119 6.29685 -3.10549 0
M  V30 626 H 59.1519 1.8891 -2.30472 0
M  V30 627 H 56.6889 0.923373 -1.14509 0
M  V30 628 H 58.6469 4.03479 -1.06116 0
M  V30 629 H 57.2769 3.21711 -0.264973 0
M  V30 630 H 56.3289 2.74103 -2.63764 0
M  V30 631 H 57.6409 3.74283 -3.29717 0
M  V30 632 H 56.7949 5.72135 -2.01857 0
M  V30 633 H 55.5339 4.71286 -1.25462 0
M  V30 634 H 54.5389 4.23268 -3.50891 0
M  V30 635 H 55.7639 5.27546 -4.27635 0
M  V30 636 H 53.7099 6.17306 -2.21967 0
M  V30 637 H 53.6269 6.46014 -3.92686 0
M  V30 638 H 54.8949 7.19722 -2.99367 0
M  V30 639 N 59.124 1.23083 0.984299 0
M  V30 640 C 60.071 1.00854 2.07598 0
M  V30 641 C 61.041 -0.0726709 1.65941 0
M  V30 642 O 62.226 0.0786535 1.90638 0
M  V30 643 C 59.366 0.601645 3.39815 0
M  V30 644 C 58.479 1.75456 3.94765 0
M  V30 645 C 57.614 1.29482 5.15177 0
M  V30 646 C 56.653 2.41873 5.62284 0
M  V30 647 N 55.79 1.96885 6.73929 0
M  V30 648 H 60.63 1.943 2.25946 0
M  V30 649 H 58.167 0.968001 1.10762 0
M  V30 650 H 60.125 0.346854 4.15756 0
M  V30 651 H 58.755 -0.295803 3.21442 0
M  V30 652 H 57.807 2.12346 3.15616 0
M  V30 653 H 59.119 2.59965 4.25699 0
M  V30 654 H 58.273 0.997923 5.98437 0
M  V30 655 H 57.012 0.420046 4.85888 0
M  V30 656 H 56.017 2.72342 4.77608 0
M  V30 657 H 57.242 3.29881 5.93595 0
M  V30 658 H 55.188 1.11782 6.46406 0
M  V30 659 H 55.105 2.74956 7.04227 0
M  V30 660 H 56.373 1.70289 7.60672 0
M  V30 661 N 60.6021 -1.18246 1.0419 0
M  V30 662 C 61.8501 -1.87886 0.744543 0
M  V30 663 C 62.1711 -1.8082 -0.730006 0
M  V30 664 O 61.4411 -1.22736 -1.52685 0
M  V30 665 H 60.0211 -0.695556 0.272417 0
M  V30 666 H 62.6831 -1.43494 1.31892 0
M  V30 667 H 61.7791 -2.9389 1.05049 0
M  V30 668 N 62.0802 -0.821533 -1.34494 0
M  V30 669 C 63.3262 -0.409552 -1.98622 0
M  V30 670 C 63.6592 1.0244 -1.64984 0
M  V30 671 O 62.9342 1.71325 -0.920758 0
M  V30 672 C 63.2172 -0.610458 -3.54888 0
M  V30 673 C 63.0702 -2.09043 -3.98273 0
M  V30 674 C 64.3892 -0.0455379 -4.40076 0
M  V30 675 H 61.5082 -0.15028 -0.721516 0
M  V30 676 H 64.1502 -1.03384 -1.59411 0
M  V30 677 H 62.3002 -0.079044 -3.8842 0
M  V30 678 H 63.9722 -2.68537 -3.75081 0
M  V30 679 H 62.2152 -2.58139 -3.48635 0
M  V30 680 H 62.8862 -2.18182 -5.07051 0
M  V30 681 H 65.3622 -0.499557 -4.1309 0
M  V30 682 H 64.2382 -0.215922 -5.48475 0
M  V30 683 H 64.4992 1.04939 -4.29465 0
M  V30 684 N 63.5583 1.46682 -0.576371 0
M  V30 685 C 64.5053 2.30241 0.160499 0
M  V30 686 C 65.4753 1.40233 0.890162 0
M  V30 687 O 66.6603 1.69186 0.882084 0
M  V30 688 C 63.8003 3.24578 1.1723 0
M  V30 689 C 62.9133 4.29684 0.446736 0
M  V30 690 C 62.0483 5.11154 1.44551 0
M  V30 691 C 61.0873 6.08015 0.70599 0
M  V30 692 N 60.2243 6.82376 1.65251 0
M  V30 693 H 65.0643 2.92727 -0.558127 0
M  V30 694 H 62.6013 1.44272 -0.287056 0
M  V30 695 H 64.5593 3.77711 1.77172 0
M  V30 696 H 63.1893 2.63916 1.85872 0
M  V30 697 H 62.2413 3.79458 -0.267594 0
M  V30 698 H 63.5533 4.98626 -0.131686 0
M  V30 699 H 62.7073 5.68533 2.11791 0
M  V30 700 H 61.4463 4.42158 2.05786 0
M  V30 701 H 60.4513 5.49796 0.0197725 0
M  V30 702 H 61.6763 6.79028 0.09912 0
M  V30 703 H 59.6223 6.16094 2.25308 0
M  V30 704 H 59.5393 7.47556 1.12673 0
M  V30 705 H 60.8073 7.44316 2.31546 0
M  V30 706 N 65.0364 0.313813 1.54444 0
M  V30 707 C 66.2844 -0.291099 1.99993 0
M  V30 708 C 66.6054 -1.53418 1.20366 0
M  V30 709 O 65.8754 -1.93544 0.302927 0
M  V30 710 H 64.4554 -0.110552 0.738774 0
M  V30 711 H 67.1174 0.428106 1.9014 0
M  V30 712 H 66.2134 -0.554268 3.07139 0
M  V30 713 N 66.5145 -1.57545 0.0417849 0
M  V30 714 C 67.7615 -1.92317 -0.634082 0
M  V30 715 C 68.0895 -0.919334 -1.71402 0
M  V30 716 O 67.3445 0.0698253 -1.95575 0
M  V30 717 C 67.6435 -3.33794 -1.27735 0
M  V30 718 C 67.3095 -4.49716 -0.326543 0
M  V30 719 C 65.9715 -4.81156 -0.0648814 0
M  V30 720 C 68.3235 -5.20182 0.325623 0
M  V30 721 C 65.6515 -5.80414 0.856539 0
M  V30 722 C 68.0035 -6.20424 1.23518 0
M  V30 723 C 66.6675 -6.50298 1.5056 0
M  V30 724 H 65.9375 -0.703736 -0.232027 0
M  V30 725 H 68.5845 -1.91205 0.106259 0
M  V30 726 H 66.8895 -3.31228 -2.09274 0
M  V30 727 H 68.5865 -3.57975 -1.80707 0
M  V30 728 H 65.1765 -4.25176 -0.540665 0
M  V30 729 H 69.3605 -4.96112 0.136546 0
M  V30 730 H 64.6165 -6.019 1.07363 0
M  V30 731 H 68.7905 -6.74141 1.74664 0
M  V30 732 H 66.4175 -7.27025 2.22123 0
M  V30 733 N 67.9926 0.231505 -1.5589 0
M  V30 734 C 69.2406 0.955461 -1.78088 0
M  V30 735 C 69.5616 1.85262 -0.608533 0
M  V30 736 O 68.8316 1.92277 0.375035 0
M  V30 737 H 67.4116 0.355787 -0.656829 0
M  V30 738 H 70.0736 0.245751 -1.93344 0
M  V30 739 H 69.1696 1.56814 -2.69844 0
M  V30 740 N 69.4707 1.49531 0.497807 0
M  V30 741 C 70.7477 1.49682 1.25915 0
M  V30 742 C 71.1277 0.226339 2.09883 0
M  V30 743 O 70.4757 -0.791189 2.14365 0
M  V30 744 C 70.6857 2.77755 2.11313 0
M  V30 745 C 72.0337 3.27371 2.70395 0
M  V30 746 O 73.0577 2.78894 2.21578 0
M  V30 747 O 71.9167 4.11808 3.59272 0
M  V30 748 H 69.0107 0.599228 0.56996 0
M  V30 749 H 71.5567 1.61798 0.511816 0
M  V30 750 H 70.3287 3.61713 1.49264 0
M  V30 751 H 69.9517 2.68515 2.93233 0
M  V30 752 N 70.9488 -0.749086 1.3866 0
M  V30 753 C 72.2258 -1.4992 1.25632 0
M  V30 754 C 72.6058 -2.10633 -0.140317 0
M  V30 755 O 71.9538 -1.97437 -1.15025 0
M  V30 756 C 72.1638 -2.56195 2.36992 0
M  V30 757 C 73.5118 -3.22972 2.75634 0
M  V30 758 O 74.5358 -2.66502 2.36337 0
M  V30 759 O 73.3948 -4.25122 3.43415 0
M  V30 760 H 70.4888 -0.665067 0.491544 0
M  V30 761 H 73.0348 -0.784113 1.50498 0
M  V30 762 H 71.8068 -2.09612 3.30422 0
M  V30 763 H 71.4298 -3.35279 2.13714 0
M  V30 764 N 72.4269 -1.23603 -0.977757 0
M  V30 765 C 73.6759 -1.06377 -1.71368 0
M  V30 766 C 73.9889 0.399062 -1.91486 0
M  V30 767 O 75.1949 0.691312 -2.62551 0
M  V30 768 C 73.6509 -1.85512 -3.08404 0
M  V30 769 C 73.2589 -3.36141 -2.96164 0
M  V30 770 C 75.0029 -1.76783 -3.85938 0
M  V30 771 C 72.9099 -4.07659 -4.28449 0
M  V30 772 H 71.8399 -0.394452 -0.642591 0
M  V30 773 H 74.4909 -1.47594 -1.09034 0
M  V30 774 H 72.8729 -1.37103 -3.71509 0
M  V30 775 H 74.0469 -3.92056 -2.42133 0
M  V30 776 H 72.3619 -3.45712 -2.32104 0
M  V30 777 H 74.9589 -2.27526 -4.83876 0
M  V30 778 H 75.3019 -0.731116 -4.0983 0
M  V30 779 H 75.8349 -2.22818 -3.2954 0
M  V30 780 H 72.5739 -5.11648 -4.09752 0
M  V30 781 H 72.0939 -3.5653 -4.82334 0
M  V30 782 H 73.7729 -4.141 -4.97122 0
M  V30 783 N 73.905 1.17692 -1.04816 0
M  V30 784 C 75.316 1.69501 -0.782698 0
M  V30 785 C 75.667 1.83456 0.695577 0
M  V30 786 O 74.792 1.51942 1.54086 0
M  V30 787 C 75.387 3.07874 -1.41419 0
M  V30 788 C 73.946 3.56864 -1.19686 0
M  V30 789 C 73.093 2.3322 -1.50012 0
M  V30 790 H 76.044 1.02262 -1.2136 0
M  V30 791 H 76.065 3.71528 -0.821428 0
M  V30 792 H 75.577 2.97685 -2.49009 0
M  V30 793 H 73.678 3.72337 -0.140043 0
M  V30 794 H 73.791 4.39851 -1.89916 0
M  V30 795 H 72.155 2.37501 -0.920071 0
M  V30 796 H 72.938 2.25644 -2.58727 0
M  V30 797 N 75.3831 0.828654 1.34056 0
M  V30 798 C 76.6311 0.41863 1.97717 0
M  V30 799 C 76.9521 -1.02314 1.66002 0
M  V30 800 O 76.2221 -1.71119 0.953683 0
M  V30 801 H 74.8021 0.151809 0.731412 0
M  V30 802 H 77.4641 1.05936 1.63596 0
M  V30 803 H 76.5601 0.542318 3.07352 0
M  V30 804 N 76.8612 -1.46375 0.584142 0
M  V30 805 C 77.7942 -2.27351 -0.196676 0
M  V30 806 C 78.7722 -1.35715 -0.895561 0
M  V30 807 O 79.9562 -1.65126 -0.90916 0
M  V30 808 C 77.0832 -3.13486 -1.28235 0
M  V30 809 C 76.1292 -4.20896 -0.689145 0
M  V30 810 S 76.9622 -5.33299 0.48507 0
M  V30 811 C 78.1182 -6.23 -0.601767 0
M  V30 812 H 78.3512 -2.93228 0.490395 0
M  V30 813 H 75.8842 -1.49875 0.371071 0
M  V30 814 H 77.8422 -3.63676 -1.90395 0
M  V30 815 H 76.5032 -2.4692 -1.94138 0
M  V30 816 H 75.6962 -4.80997 -1.50527 0
M  V30 817 H 75.2982 -3.73726 -0.143181 0
M  V30 818 H 77.5902 -6.60979 -1.48705 0
M  V30 819 H 78.5332 -7.0809 -0.0374799 0
M  V30 820 H 78.9412 -5.57173 -0.906557 0
M  V30 821 N 78.3393 -0.321999 -1.54275 0
M  V30 822 C 79.2493 0.553631 -2.27974 0
M  V30 823 C 80.2653 1.13054 -1.32268 0
M  V30 824 O 81.4413 1.15084 -1.6528 0
M  V30 825 C 78.5063 1.69927 -3.02201 0
M  V30 826 C 77.5673 1.15433 -4.1349 0
M  V30 827 C 76.8003 2.24537 -4.84168 0
M  V30 828 O 77.0233 3.44852 -4.5435 0
M  V30 829 O 75.9573 1.90044 -5.7111 0
M  V30 830 H 79.7833 -0.0448345 -3.03667 0
M  V30 831 H 77.3683 -0.0877418 -1.49142 0
M  V30 832 H 79.2503 2.3663 -3.48689 0
M  V30 833 H 77.9253 2.28395 -2.29385 0
M  V30 834 H 76.8323 0.452436 -3.71354 0
M  V30 835 H 78.1653 0.614805 -4.88345 0
M  V30 836 N 79.8174 1.5752 -0.0501392 0
M  V30 837 C 81.0654 1.9227 0.622642 0
M  V30 838 C 81.3864 0.929083 1.71444 0
M  V30 839 O 80.6564 -0.0262186 1.95882 0
M  V30 840 H 79.2364 0.709739 0.232981 0
M  V30 841 H 81.8984 1.94628 -0.102898 0
M  V30 842 H 80.9944 2.93479 1.06191 0
M  V30 843 N 81.2955 -0.223234 1.56011 0
M  V30 844 C 82.2255 -1.27988 1.95298 0
M  V30 845 C 83.2065 -1.48976 0.820979 0
M  V30 846 O 84.3915 -1.61188 1.08315 0
M  V30 847 C 81.5215 -2.63 2.26822 0
M  V30 848 C 80.4755 -2.56671 3.42497 0
M  V30 849 C 79.8015 -3.95697 3.59622 0
M  V30 850 C 81.1015 -2.11601 4.77517 0
M  V30 851 H 82.7955 -0.953525 2.8381 0
M  V30 852 H 80.3415 -0.457244 1.36548 0
M  V30 853 H 82.2945 -3.37077 2.52898 0
M  V30 854 H 81.0185 -2.9732 1.35161 0
M  V30 855 H 79.6775 -1.85051 3.16467 0
M  V30 856 H 79.3255 -4.27322 2.6534 0
M  V30 857 H 79.0255 -3.92345 4.37424 0
M  V30 858 H 80.5495 -4.71438 3.88044 0
M  V30 859 H 81.9635 -2.7542 5.02809 0
M  V30 860 H 80.3605 -2.19311 5.5859 0
M  V30 861 H 81.4305 -1.06824 4.72987 0
M  V30 862 N 82.7736 -1.49793 -0.48987 0
M  V30 863 C 84.0216 -1.59525 -1.24081 0
M  V30 864 C 84.3426 -0.288953 -1.92847 0
M  V30 865 O 83.6126 0.692436 -1.83254 0
M  V30 866 H 82.1926 -0.587796 -0.460983 0
M  V30 867 H 84.8546 -1.86477 -0.566778 0
M  V30 868 H 83.9506 -2.39696 -1.99881 0
M  V30 869 N 84.2517 0.741722 -1.39055 0
M  V30 870 C 85.4797 1.53098 -1.39171 0
M  V30 871 C 85.8947 1.88794 0.0155099 0
M  V30 872 O 85.2517 1.53626 0.985159 0
M  V30 873 C 85.3027 2.82274 -2.2584 0
M  V30 874 O 85.0237 2.48097 -3.61081 0
M  V30 875 C 86.5247 3.76343 -2.34266 0
M  V30 876 H 83.7447 0.473335 -0.4756 0
M  V30 877 H 86.2887 0.917045 -1.82785 0
M  V30 878 H 84.4437 3.40015 -1.85656 0
M  V30 879 H 84.8577 3.31029 -4.06842 0
M  V30 880 H 86.3317 4.63898 -2.9917 0
M  V30 881 H 86.8087 4.17619 -1.35982 0
M  V30 882 H 87.4147 3.24523 -2.74891 0
M  V30 883 N 85.7298 1.2412 0.971189 0
M  V30 884 C 87.0068 0.986867 1.6888 0
M  V30 885 C 87.3868 -0.491857 2.0529 0
M  V30 886 O 86.7348 -1.46531 1.75331 0
M  V30 887 C 86.9448 1.9063 2.92338 0
M  V30 888 C 88.2928 2.17515 3.64654 0
M  V30 889 O 89.3168 1.88254 3.02388 0
M  V30 890 O 88.1758 2.6719 4.7673 0
M  V30 891 H 85.2698 0.372944 0.738134 0
M  V30 892 H 87.8158 1.35203 1.02559 0
M  V30 893 H 86.5878 2.90552 2.62097 0
M  V30 894 H 86.2108 1.54408 3.66393 0
M  V30 895 N 87.2079 -1.17134 1.05439 0
M  V30 896 C 88.4569 -1.86791 0.761049 0
M  V30 897 C 88.7699 -1.82072 -0.714795 0
M  V30 898 O 89.9759 -2.47223 -1.12218 0
M  V30 899 C 88.4319 -3.35166 1.31117 0
M  V30 900 C 88.0399 -3.48381 2.81664 0
M  V30 901 C 89.7839 -4.10134 1.09499 0
M  V30 902 C 87.6909 -4.90793 3.29964 0
M  V30 903 H 86.6209 -0.699681 0.281002 0
M  V30 904 H 89.2719 -1.3226 1.27199 0
M  V30 905 H 87.6539 -3.8925 0.72803 0
M  V30 906 H 88.8279 -3.04502 3.45855 0
M  V30 907 H 87.1429 -2.86836 3.01851 0
M  V30 908 H 89.7399 -5.152 1.43084 0
M  V30 909 H 90.0829 -4.16287 0.0328772 0
M  V30 910 H 90.6159 -3.62264 1.64346 0
M  V30 911 H 87.3549 -4.89816 4.35616 0
M  V30 912 H 86.8749 -5.35333 2.70516 0
M  V30 913 H 88.5539 -5.59573 3.24787 0
M  V30 914 N 88.686 -0.835752 -1.33615 0
M  V30 915 C 89.914 -0.443344 -2.02094 0
M  V30 916 C 90.329 0.954522 -1.62894 0
M  V30 917 O 89.686 1.61982 -0.840723 0
M  V30 918 C 89.737 -0.550775 -3.5728 0
M  V30 919 O 89.458 -1.89356 -3.95065 0
M  V30 920 C 90.959 -0.154919 -4.43029 0
M  V30 921 H 88.179 -0.176359 -0.647409 0
M  V30 922 H 90.723 -1.12746 -1.70612 0
M  V30 923 H 88.878 0.0853997 -3.87306 0
M  V30 924 H 89.292 -1.87687 -4.89769 0
M  V30 925 H 90.766 -0.281144 -5.51284 0
M  V30 926 H 91.243 0.902863 -4.2982 0
M  V30 927 H 91.849 -0.765404 -4.18356 0
M  V30 928 N 90.1641 1.46063 -0.591896 0
M  V30 929 C 91.4101 2.02638 -0.0811191 0
M  V30 930 C 91.7431 1.4613 1.27905 0
M  V30 931 O 91.0181 0.629908 1.84017 0
M  V30 932 C 91.3011 3.60091 -0.0252436 0
M  V30 933 C 91.1541 4.26965 -1.41496 0
M  V30 934 C 92.4731 4.3496 0.670685 0
M  V30 935 H 89.5921 0.73635 -0.0309524 0
M  V30 936 H 92.2341 1.741 -0.760859 0
M  V30 937 H 90.3841 3.84535 0.553624 0
M  V30 938 H 92.0561 4.13756 -2.0397 0
M  V30 939 H 90.2991 3.85971 -1.98011 0
M  V30 940 H 90.9701 5.35781 -1.32825 0
M  V30 941 H 93.4461 4.15716 0.178825 0
M  V30 942 H 92.3221 5.44686 0.678837 0
M  V30 943 H 92.5831 4.06685 1.73379 0
M  V30 944 N 91.6422 0.330177 1.54103 0
M  V30 945 C 92.8912 -0.271336 1.99867 0
M  V30 946 C 93.2042 -1.52723 1.22209 0
M  V30 947 O 94.4102 -2.20515 1.58383 0
M  V30 948 C 92.8662 -0.534032 3.55916 0
M  V30 949 C 92.4742 0.705193 4.42415 0
M  V30 950 C 94.2182 -1.09514 4.1013 0
M  V30 951 C 92.1252 0.414035 5.89949 0
M  V30 952 H 91.0552 -0.105166 0.74663 0
M  V30 953 H 93.7062 0.443429 1.78062 0
M  V30 954 H 92.0882 -1.30915 3.73734 0
M  V30 955 H 93.2622 1.4804 4.36372 0
M  V30 956 H 91.5772 1.18698 3.99124 0
M  V30 957 H 94.1742 -1.3277 5.17954 0
M  V30 958 H 94.5172 -2.04656 3.62521 0
M  V30 959 H 95.0502 -0.381038 3.95971 0
M  V30 960 H 91.7892 1.33481 6.41766 0
M  V30 961 H 91.3092 -0.323336 5.98928 0
M  V30 962 H 92.9882 0.0263105 6.46995 0
M  V30 963 N 93.1203 -1.57491 0.0584922 0
M  V30 964 C 94.3603 -1.94851 -0.617458 0
M  V30 965 C 94.7243 -0.937165 -1.67575 0
M  V30 966 O 95.9253 -1.19795 -2.40629 0
M  V30 967 C 94.1963 -3.36955 -1.19147 0
M  V30 968 S 95.7553 -3.96277 -1.8844 0
M  V30 969 H 92.5733 -0.681539 -0.202547 0
M  V30 970 H 95.1753 -1.95073 0.129176 0
M  V30 971 H 93.8793 -4.08355 -0.409215 0
M  V30 972 H 93.4103 -3.40245 -1.97476 0
M  V30 973 H 95.4253 -3.82099 -3.16568 0
M  V30 974 N 94.5984 0.214957 -1.56127 0
M  V30 975 C 96.0094 0.781386 -1.69562 0
M  V30 976 C 96.3604 1.84707 -0.66165 0
M  V30 977 O 95.4854 2.156 0.185927 0
M  V30 978 C 96.0804 1.42411 -3.07416 0
M  V30 979 C 94.6394 1.93786 -3.22683 0
M  V30 980 C 93.7864 0.800438 -2.65496 0
M  V30 981 H 96.7374 -0.00980633 -1.58697 0
M  V30 982 H 96.7584 2.29309 -3.0364 0
M  V30 983 H 96.2704 0.64826 -3.82648 0
M  V30 984 H 94.3714 2.74152 -2.52332 0
M  V30 985 H 94.4844 2.1133 -4.29973 0
M  V30 986 H 92.8484 1.2095 -2.2415 0
M  V30 987 H 93.6314 0.0371471 -3.4328 0
M  V30 988 N 96.0765 1.50051 0.48192 0
M  V30 989 C 97.3225 1.61706 1.2338 0
M  V30 990 C 97.6775 0.308488 1.89911 0
M  V30 991 O 96.9705 -0.692798 1.78636 0
M  V30 992 C 97.1645 2.72717 2.30998 0
M  V30 993 C 96.9935 4.14242 1.75024 0
M  V30 994 C 95.7635 4.80786 1.55476 0
M  V30 995 C 97.9615 4.98846 1.25128 0
M  V30 996 N 95.9435 6.06563 0.946311 0
M  V30 997 C 97.3145 6.15258 0.765382 0
M  V30 998 C 99.3695 4.84702 1.13881 0
M  V30 999 C 98.0725 7.19079 0.178113 0
M  V30 1000 C 100.098 5.8869 0.565486 0
M  V30 1001 C 99.4605 7.04343 0.0899105 0
M  V30 1002 H 95.5595 0.645958 0.440753 0
M  V30 1003 H 98.1435 1.8713 0.537624 0
M  V30 1004 H 96.3145 2.49033 2.98055 0
M  V30 1005 H 98.0465 2.73789 2.9803 0
M  V30 1006 H 94.8015 4.37899 1.80392 0
M  V30 1007 H 95.2255 6.73767 0.660812 0
M  V30 1008 H 99.8675 3.95583 1.49244 0
M  V30 1009 H 97.5855 8.07882 -0.187749 0
M  V30 1010 H 101.171 5.79808 0.480974 0
M  V30 1011 H 100.051 7.83433 -0.346782 0
M  V30 1012 N 97.5546 -0.734337 1.39446 0
M  V30 1013 C 98.4646 -1.87879 1.40495 0
M  V30 1014 C 99.4806 -1.714 0.299672 0
M  V30 1015 O 100.657 -1.93991 0.541249 0
M  V30 1016 C 97.7216 -3.23477 1.24754 0
M  V30 1017 C 96.7826 -3.52344 2.45259 0
M  V30 1018 C 96.0156 -4.81473 2.30259 0
M  V30 1019 O 96.2386 -5.55237 1.30643 0
M  V30 1020 O 95.1726 -5.10254 3.19256 0
M  V30 1021 H 98.9986 -1.89949 2.36966 0
M  V30 1022 H 96.5836 -0.882243 1.20569 0
M  V30 1023 H 98.4656 -4.04509 1.18111 0
M  V30 1024 H 97.1406 -3.22176 0.313781 0
M  V30 1025 H 96.0476 -2.71396 2.57478 0
M  V30 1026 H 97.3806 -3.58426 3.37331 0
M  V30 1027 N 99.0327 -1.24633 -0.964593 0
M  V30 1028 C 99.9957 -1.0424 -2.04124 0
M  V30 1029 C 100.996 0.00137563 -1.608 0
M  V30 1030 O 102.186 -0.239883 -1.7254 0
M  V30 1031 C 99.3177 -0.580588 -3.3592 0
M  V30 1032 H 100.511 -1.99803 -2.23649 0
M  V30 1033 H 98.0637 -1.06899 -1.14027 0
M  V30 1034 H 98.7987 0.3781 -3.22088 0
M  V30 1035 H 98.5837 -1.33398 -3.6871 0
M  V30 1036 H 100.074 -0.459034 -4.15069 0
M  V30 1037 N 100.511 1.16574 -1.06058 0
M  V30 1038 C 101.758 1.87047 -0.775873 0
M  V30 1039 C 102.086 1.81562 0.697534 0
M  V30 1040 O 101.341 1.22445 1.52662 0
M  V30 1041 C 101.64 3.36195 -1.21275 0
M  V30 1042 C 101.306 3.6188 -2.68986 0
M  V30 1043 C 99.9678 3.68599 -3.09335 0
M  V30 1044 C 102.32 3.72648 -3.64394 0
M  V30 1045 C 99.6478 3.83584 -4.43937 0
M  V30 1046 C 102 3.89154 -4.98741 0
M  V30 1047 C 100.664 3.94114 -5.3873 0
M  V30 1048 H 99.9338 0.684452 -0.283912 0
M  V30 1049 H 102.581 1.37853 -1.32925 0
M  V30 1050 H 100.886 3.87505 -0.578528 0
M  V30 1051 H 102.583 3.89103 -0.969542 0
M  V30 1052 H 99.1728 3.57281 -2.36744 0
M  V30 1053 H 103.357 3.66769 -3.34356 0
M  V30 1054 H 98.6128 3.85677 -4.74409 0
M  V30 1055 H 102.787 3.96427 -5.72554 0
M  V30 1056 H 100.414 4.05478 -6.43033 0
M  V30 1057 N 101.989 0.842826 1.3317 0
M  V30 1058 C 103.214 0.453129 2.02389 0
M  V30 1059 C 103.639 -0.939105 1.6298 0
M  V30 1060 O 102.997 -1.61472 0.8244 0
M  V30 1061 C 103.045 0.586094 3.55805 0
M  V30 1062 O 102.149 -0.386029 4.10589 0
M  V30 1063 H 101.49 0.183664 0.638094 0
M  V30 1064 H 104.02 1.13875 1.69981 0
M  V30 1065 H 104.03 0.469209 4.05293 0
M  V30 1066 H 102.705 1.6014 3.83833 0
M  V30 1067 H 101.282 -0.226371 3.72212 0
M  V30 1068 N 103.467 -1.45747 0.599634 0
M  V30 1069 C 104.417 -2.27538 -0.145107 0
M  V30 1070 C 105.401 -1.3686 -0.846055 0
M  V30 1071 O 106.593 -1.6091 -0.737357 0
M  V30 1072 C 103.722 -3.23569 -1.14708 0
M  V30 1073 C 102.808 -4.21734 -0.447383 0
M  V30 1074 N 103.199 -5.03257 0.506535 0
M  V30 1075 C 101.497 -4.40536 -0.695966 0
M  V30 1076 C 102.198 -5.74426 0.917068 0
M  V30 1077 N 101.174 -5.42966 0.26253 0
M  V30 1078 H 104.976 -2.87965 0.587672 0
M  V30 1079 H 102.49 -1.56803 0.422697 0
M  V30 1080 H 104.487 -3.8089 -1.69495 0
M  V30 1081 H 103.147 -2.64702 -1.8805 0
M  V30 1082 H 104.158 -5.10319 0.882899 0
M  V30 1083 H 100.835 -3.92802 -1.41467 0
M  V30 1084 H 102.225 -6.4995 1.70338 0
M  V30 1085 N 104.945 -0.338344 -1.53925 0
M  V30 1086 C 105.875 0.51328 -2.27789 0
M  V30 1087 C 106.856 1.107 -1.29149 0
M  V30 1088 O 108.041 1.12937 -1.57984 0
M  V30 1089 C 105.171 1.66697 -3.04679 0
M  V30 1090 C 104.125 1.20183 -4.1078 0
M  V30 1091 C 103.451 2.44363 -4.75595 0
M  V30 1092 C 104.751 0.30605 -5.21403 0
M  V30 1093 H 106.445 -0.102883 -2.99223 0
M  V30 1094 H 103.991 -0.0509219 -1.4391 0
M  V30 1095 H 105.944 2.26915 -3.55088 0
M  V30 1096 H 104.668 2.30995 -2.30887 0
M  V30 1097 H 103.327 0.622499 -3.61276 0
M  V30 1098 H 102.975 3.07057 -3.98403 0
M  V30 1099 H 102.675 2.13925 -5.47275 0
M  V30 1100 H 104.199 3.05317 -5.28786 0
M  V30 1101 H 105.613 0.814929 -5.67478 0
M  V30 1102 H 104.01 0.0937929 -6.00027 0
M  V30 1103 H 105.08 -0.65921 -4.80398 0
M  V30 1104 N 106.423 1.57458 -0.0668435 0
M  V30 1105 C 107.333 2.15937 0.916975 0
M  V30 1106 C 108.349 1.12123 1.33058 0
M  V30 1107 O 109.525 1.44366 1.40429 0
M  V30 1108 C 106.59 2.70547 2.16807 0
M  V30 1109 C 105.651 3.89215 1.81135 0
M  V30 1110 C 104.884 4.41211 3.0028 0
M  V30 1111 O 105.107 3.92225 4.14144 0
M  V30 1112 O 104.041 5.32605 2.80384 0
M  V30 1113 H 107.867 3.00354 0.449561 0
M  V30 1114 H 105.452 1.48584 0.155949 0
M  V30 1115 H 107.334 3.0557 2.90181 0
M  V30 1116 H 106.009 1.89192 2.62656 0
M  V30 1117 H 104.916 3.59054 1.05028 0
M  V30 1118 H 106.249 4.71848 1.40073 0
M  V30 1119 N 107.901 -0.206675 1.56239 0
M  V30 1120 C 108.831 -1.25909 1.96645 0
M  V30 1121 C 109.812 -1.48097 0.836734 0
M  V30 1122 O 110.997 -1.6003 1.10019 0
M  V30 1123 C 108.127 -2.6058 2.29599 0
M  V30 1124 C 107.081 -2.53024 3.452 0
M  V30 1125 C 106.407 -3.91861 3.63798 0
M  V30 1126 C 107.707 -2.06524 4.79734 0
M  V30 1127 H 109.401 -0.923369 2.84806 0
M  V30 1128 H 106.947 -0.442735 1.37025 0
M  V30 1129 H 108.9 -3.34375 2.56459 0
M  V30 1130 H 107.624 -2.95869 1.38307 0
M  V30 1131 H 106.283 -1.81684 3.18412 0
M  V30 1132 H 105.931 -4.24483 2.69857 0
M  V30 1133 H 105.631 -3.87683 4.4156 0
M  V30 1134 H 107.155 -4.67296 3.93022 0
M  V30 1135 H 108.569 -2.70072 5.05702 0
M  V30 1136 H 106.966 -2.13374 5.60885 0
M  V30 1137 H 108.036 -1.01802 4.74093 0
M  V30 1138 N 109.379 -1.50304 -0.473955 0
M  V30 1139 C 110.329 -1.65347 -1.56985 0
M  V30 1140 C 111.313 -0.508176 -1.52664 0
M  V30 1141 O 112.505 -0.762446 -1.59737 0
M  V30 1142 C 109.634 -1.74832 -2.95447 0
M  V30 1143 C 108.72 -2.95028 -3.04662 0
M  V30 1144 N 109.111 -4.18747 -2.83698 0
M  V30 1145 C 107.409 -2.93527 -3.35795 0
M  V30 1146 C 108.11 -4.99687 -2.97805 0
M  V30 1147 N 107.086 -4.33585 -3.2788 0
M  V30 1148 H 110.888 -2.58698 -1.39472 0
M  V30 1149 H 108.402 -1.47449 -0.680629 0
M  V30 1150 H 110.399 -1.83712 -3.7424 0
M  V30 1151 H 109.059 -0.826376 -3.14008 0
M  V30 1152 H 110.07 -4.48291 -2.59337 0
M  V30 1153 H 106.747 -2.10821 -3.60362 0
M  V30 1154 H 108.137 -6.08057 -2.85861 0
M  V30 1155 N 110.857 0.726932 -1.39834 0
M  V30 1156 C 111.767 1.87131 -1.41489 0
M  V30 1157 C 112.783 1.71239 -0.308757 0
M  V30 1158 O 113.959 1.93701 -0.551529 0
M  V30 1159 C 111.024 3.22811 -1.26468 0
M  V30 1160 C 110.085 3.51039 -2.47124 0
M  V30 1161 C 109.318 4.80245 -2.3281 0
M  V30 1162 O 109.541 5.54537 -1.33585 0
M  V30 1163 O 108.475 5.08554 -3.21957 0
M  V30 1164 H 112.301 1.8869 -2.3797 0
M  V30 1165 H 109.886 0.875837 -1.21035 0
M  V30 1166 H 111.768 4.03877 -1.20255 0
M  V30 1167 H 110.443 3.22005 -0.330862 0
M  V30 1168 H 109.35 2.70027 -2.58914 0
M  V30 1169 H 110.683 3.56632 -3.39227 0
M  V30 1170 N 112.336 1.25143 0.95797 0
M  V30 1171 C 113.266 1.07711 2.07173 0
M  V30 1172 C 114.247 -0.0128462 1.70095 0
M  V30 1173 O 115.432 0.156061 1.93572 0
M  V30 1174 C 112.562 0.691503 3.40346 0
M  V30 1175 C 111.516 1.73132 3.9142 0
M  V30 1176 C 110.842 1.20049 5.21049 0
M  V30 1177 C 112.142 3.1294 4.1817 0
M  V30 1178 H 113.836 2.00873 2.22014 0
M  V30 1179 H 111.382 0.967191 1.06684 0
M  V30 1180 H 113.335 0.556505 4.17709 0
M  V30 1181 H 112.059 -0.275819 3.25433 0
M  V30 1182 H 110.718 1.8547 3.16222 0
M  V30 1183 H 110.366 0.223499 5.02503 0
M  V30 1184 H 110.066 1.89545 5.56189 0
M  V30 1185 H 111.59 1.07782 6.01012 0
M  V30 1186 H 113.004 3.03775 4.86203 0
M  V30 1187 H 111.401 3.79875 4.64559 0
M  V30 1188 H 112.471 3.6025 3.24573 0
M  V30 1189 N 113.814 -1.1601 1.06675 0
M  V30 1190 C 114.777 -2.18724 0.685001 0
M  V30 1191 C 115.777 -1.58496 -0.271246 0
M  V30 1192 O 116.967 -1.74119 -0.0531156 0
M  V30 1193 C 114.099 -3.40899 0.00853648 0
M  V30 1194 H 115.292 -2.54011 1.59431 0
M  V30 1195 H 112.845 -1.30352 0.862441 0
M  V30 1196 H 113.58 -3.11173 -0.913337 0
M  V30 1197 H 113.365 -3.8587 0.696204 0
M  V30 1198 H 114.855 -4.16886 -0.24414 0
M  V30 1199 N 115.292 -0.849877 -1.32721 0
M  V30 1200 C 116.224 -0.248332 -2.27851 0
M  V30 1201 C 117.237 0.577218 -1.52224 0
M  V30 1202 O 118.426 0.402489 -1.73903 0
M  V30 1203 C 115.526 0.668107 -3.32249 0
M  V30 1204 C 114.699 -0.120534 -4.37234 0
M  V30 1205 C 113.758 0.720932 -5.21238 0
M  V30 1206 O 112.784 0.156166 -5.68986 0
M  V30 1207 N 113.986 2.03647 -5.43607 0
M  V30 1208 H 116.751 -1.06575 -2.80111 0
M  V30 1209 H 114.312 -0.709395 -1.45531 0
M  V30 1210 H 116.304 1.23627 -3.85355 0
M  V30 1211 H 114.874 1.38621 -2.80184 0
M  V30 1212 H 114.094 -0.870108 -3.84477 0
M  V30 1213 H 115.382 -0.662406 -5.0447 0
M  V30 1214 H 114.78 2.51871 -5.06535 0
M  V30 1215 H 113.337 2.55287 -5.99727 0
M  V30 1216 N 116.77 1.45427 -0.607355 0
M  V30 1217 C 118.017 2.02241 -0.102455 0
M  V30 1218 C 118.345 1.4758 1.26691 0
M  V30 1219 O 117.6 0.640468 1.84923 0
M  V30 1220 C 117.899 3.57398 -0.0129263 0
M  V30 1221 C 117.565 4.3121 -1.31792 0
M  V30 1222 C 116.227 4.51092 -1.67539 0
M  V30 1223 C 118.579 4.73401 -2.18039 0
M  V30 1224 C 115.907 5.10422 -2.89285 0
M  V30 1225 C 118.259 5.34078 -3.39034 0
M  V30 1226 C 116.923 5.52184 -3.75033 0
M  V30 1227 H 116.193 0.740051 -0.037491 0
M  V30 1228 H 118.84 1.74494 -0.788926 0
M  V30 1229 H 117.145 3.84421 0.756806 0
M  V30 1230 H 118.842 3.99061 0.393881 0
M  V30 1231 H 115.432 4.16047 -1.02968 0
M  V30 1232 H 119.616 4.57774 -1.91721 0
M  V30 1233 H 114.872 5.22629 -3.17283 0
M  V30 1234 H 119.046 5.65724 -4.06115 0
M  V30 1235 H 116.673 5.97925 -4.69457 0
M  V30 1236 N 118.248 0.346503 1.53744 0
M  V30 1237 C 119.496 -0.248612 2.00565 0
M  V30 1238 C 119.817 -1.5083 1.23593 0
M  V30 1239 O 119.087 -1.92858 0.343912 0
M  V30 1240 H 117.667 -0.0948564 0.740953 0
M  V30 1241 H 120.329 0.468341 1.89189 0
M  V30 1242 H 119.425 -0.488994 3.08245 0
M  V30 1243 N 119.726 -1.57421 0.075193 0
M  V30 1244 C 120.975 -1.92794 -0.592731 0
M  V30 1245 C 121.288 -0.957478 -1.70563 0
M  V30 1246 O 122.494 -1.20417 -2.43335 0
M  V30 1247 C 120.95 -3.42495 -1.10569 0
M  V30 1248 C 120.558 -4.47994 -0.0236121 0
M  V30 1249 C 122.302 -3.86864 -1.74748 0
M  V30 1250 C 120.209 -5.88829 -0.550803 0
M  V30 1251 H 119.139 -0.719591 -0.225177 0
M  V30 1252 H 121.79 -1.82902 0.147978 0
M  V30 1253 H 120.172 -3.47471 -1.89947 0
M  V30 1254 H 121.346 -4.54637 0.751099 0
M  V30 1255 H 119.661 -4.13113 0.522159 0
M  V30 1256 H 122.258 -4.8947 -2.15229 0
M  V30 1257 H 122.601 -3.24417 -2.60882 0
M  V30 1258 H 123.134 -3.84504 -1.01986 0
M  V30 1259 H 119.873 -6.54929 0.273457 0
M  V30 1260 H 119.393 -5.85698 -1.29296 0
M  V30 1261 H 121.072 -6.38811 -1.02613 0
M  V30 1262 N 121.204 0.198386 -1.56346 0
M  V30 1263 C 122.453 0.917451 -1.79627 0
M  V30 1264 C 122.766 1.8456 -0.64784 0
M  V30 1265 O 123.972 2.60504 -0.764859 0
M  V30 1266 C 122.428 1.68175 -3.18191 0
M  V30 1267 C 122.036 0.798589 -4.40825 0
M  V30 1268 C 123.78 2.39065 -3.50782 0
M  V30 1269 C 121.687 1.56157 -5.70411 0
M  V30 1270 H 120.617 0.346317 -0.669762 0
M  V30 1271 H 123.268 0.170801 -1.82703 0
M  V30 1272 H 121.65 2.47216 -3.09354 0
M  V30 1273 H 122.824 0.0470665 -4.60776 0
M  V30 1274 H 121.139 0.200686 -4.15916 0
M  V30 1275 H 123.736 2.96692 -4.44835 0
M  V30 1276 H 124.079 3.13091 -2.74371 0
M  V30 1277 H 124.612 1.66993 -3.61052 0
M  V30 1278 H 121.351 0.864142 -6.49779 0
M  V30 1279 H 120.871 2.2871 -5.54483 0
M  V30 1280 H 122.55 2.11622 -6.11412 0
M  V30 1281 O 122.721 1.57802 0.343638 0
M  V30 1282 H 123.412 1.66296 0.993252 0
M  V30 END ATOM
M  V30 BEGIN BOND
M  V30 END BOND
M  V30 END CTAB
M  END
$$$$
