drugbank_target|Q14081 Carcinoembryonic antigen (DB13979)
 OpenBabel12092120223D

686698  0  0  0  0  0  0  0  0999 V2000
   -0.9080    1.9825   -0.1171 H   0  0  0  0  0 15  0  0  0  0  0  0
    0.0000    1.5760    0.0000 N   0  0  0  0  0 15  0  0  0  0  0  0
    0.9330    2.0387    1.0253 C   0  0  0  0  0 15  0  0  0  0  0  0
    1.9110    0.9285    1.3348 C   0  0  0  0  0 15  0  0  0  0  0  0
    3.0950    1.1967    1.4564 O   0  0  0  0  0 15  0  0  0  0  0  0
    0.2220    2.4363    2.3529 C   0  0  0  0  0 15  0  0  0  0  0  0
   -0.7320    3.6537    2.2001 C   0  0  0  0  0 15  0  0  0  0  0  0
    0.1010    5.1329    1.5261 S   0  0  0  0  0 15  0  0  0  0  0  0
    1.2570    5.5632    2.8680 C   0  0  0  0  0 15  0  0  0  0  0  0
    1.4900    2.9052    0.6314 H   0  0  0  0  0 15  0  0  0  0  0  0
   -0.9770    1.5295    0.2109 H   0  0  0  0  0 15  0  0  0  0  0  0
    0.9810    2.6720    3.1163 H   0  0  0  0  0 15  0  0  0  0  0  0
   -0.3580    1.5738    2.7183 H   0  0  0  0  0 15  0  0  0  0  0  0
   -1.1650    3.9094    3.1809 H   0  0  0  0  0 15  0  0  0  0  0  0
   -1.5630    3.4180    1.5182 H   0  0  0  0  0 15  0  0  0  0  0  0
    0.7290    5.5878    3.8310 H   0  0  0  0  0 15  0  0  0  0  0  0
    1.6720    6.5627    2.6593 H   0  0  0  0  0 15  0  0  0  0  0  0
    2.0800    4.8389    2.9071 H   0  0  0  0  0 15  0  0  0  0  0  0
    1.4781   -0.2728    1.5522 N   0  0  0  0  0 15  0  0  0  0  0  0
    2.3881   -1.3592    1.9122 C   0  0  0  0  0 15  0  0  0  0  0  0
    3.4041   -1.5403    0.8094 C   0  0  0  0  0 15  0  0  0  0  0  0
    4.5801   -1.6815    1.1085 O   0  0  0  0  0 15  0  0  0  0  0  0
    1.6451   -2.6983    2.1769 C   0  0  0  0  0 15  0  0  0  0  0  0
    0.7061   -2.6047    3.4125 C   0  0  0  0  0 15  0  0  0  0  0  0
   -0.0609   -3.8800    3.6646 C   0  0  0  0  0 15  0  0  0  0  0  0
    0.1621   -4.8869    2.9417 O   0  0  0  0  0 15  0  0  0  0  0  0
   -0.9039   -3.8819    4.5999 O   0  0  0  0  0 15  0  0  0  0  0  0
    2.9221   -1.0839    2.8370 H   0  0  0  0  0 15  0  0  0  0  0  0
    0.5071   -0.4713    1.4177 H   0  0  0  0  0 15  0  0  0  0  0  0
    2.3891   -3.4902    2.3615 H   0  0  0  0  0 15  0  0  0  0  0  0
    1.0641   -2.9715    1.2839 H   0  0  0  0  0 15  0  0  0  0  0  0
   -0.0289   -1.7966    3.2813 H   0  0  0  0  0 15  0  0  0  0  0  0
    1.3041   -2.3811    4.3077 H   0  0  0  0  0 15  0  0  0  0  0  0
    2.9562   -1.4816   -0.5373 N   0  0  0  0  0 15  0  0  0  0  0  0
    4.1812   -1.5971   -1.3232 C   0  0  0  0  0 15  0  0  0  0  0  0
    4.6062   -0.2549   -1.8637 C   0  0  0  0  0 15  0  0  0  0  0  0
    3.9642    0.7724   -1.6402 O   0  0  0  0  0 15  0  0  0  0  0  0
    4.0122   -2.6412   -2.4551 C   0  0  0  0  0 15  0  0  0  0  0  0
    3.1162   -2.2077   -3.4833 O   0  0  0  0  0 15  0  0  0  0  0  0
    2.4572   -0.5358   -0.3922 H   0  0  0  0  0 15  0  0  0  0  0  0
    4.9872   -1.9409   -0.6473 H   0  0  0  0  0 15  0  0  0  0  0  0
    4.9972   -2.8517   -2.9180 H   0  0  0  0  0 15  0  0  0  0  0  0
    3.6722   -3.6157   -2.0553 H   0  0  0  0  0 15  0  0  0  0  0  0
    2.2492   -2.0991   -3.0821 H   0  0  0  0  0 15  0  0  0  0  0  0
    4.4343    0.7856   -1.3662 N   0  0  0  0  0 15  0  0  0  0  0  0
    5.8453    1.3610   -1.2780 C   0  0  0  0  0 15  0  0  0  0  0  0
    6.1963    1.9603    0.0805 C   0  0  0  0  0 15  0  0  0  0  0  0
    5.3213    1.9283    0.9820 O   0  0  0  0  0 15  0  0  0  0  0  0
    5.9163    2.4744   -2.3143 C   0  0  0  0  0 15  0  0  0  0  0  0
    4.4753    3.0079   -2.2628 C   0  0  0  0  0 15  0  0  0  0  0  0
    3.6223    1.7390   -2.1600 C   0  0  0  0  0 15  0  0  0  0  0  0
    6.5733    0.5869   -1.4745 H   0  0  0  0  0 15  0  0  0  0  0  0
    6.5943    3.2656   -1.9529 H   0  0  0  0  0 15  0  0  0  0  0  0
    6.1063    2.0379   -3.3029 H   0  0  0  0  0 15  0  0  0  0  0  0
    4.2073    3.4885   -1.3090 H   0  0  0  0  0 15  0  0  0  0  0  0
    4.3203    3.5734   -3.1913 H   0  0  0  0  0 15  0  0  0  0  0  0
    2.6843    1.9628   -1.6232 H   0  0  0  0  0 15  0  0  0  0  0  0
    3.4673    1.3237   -3.1675 H   0  0  0  0  0 15  0  0  0  0  0  0
    5.9124    1.2097    1.0102 N   0  0  0  0  0 15  0  0  0  0  0  0
    7.1374    1.0503    1.7884 C   0  0  0  0  0 15  0  0  0  0  0  0
    7.5624   -0.3958    1.8389 C   0  0  0  0  0 15  0  0  0  0  0  0
    6.9204   -1.2853    1.2787 O   0  0  0  0  0 15  0  0  0  0  0  0
    6.9684    1.6460    3.2084 C   0  0  0  0  0 15  0  0  0  0  0  0
    6.0724    0.8880    4.0273 O   0  0  0  0  0 15  0  0  0  0  0  0
    5.4134    0.3700    0.5514 H   0  0  0  0  0 15  0  0  0  0  0  0
    7.9434    1.6040    1.2702 H   0  0  0  0  0 15  0  0  0  0  0  0
    7.9534    1.6861    3.7153 H   0  0  0  0  0 15  0  0  0  0  0  0
    6.6284    2.6984    3.1648 H   0  0  0  0  0 15  0  0  0  0  0  0
    5.2054    0.9226    3.6131 H   0  0  0  0  0 15  0  0  0  0  0  0
    7.3905   -1.2043    1.0166 N   0  0  0  0  0 15  0  0  0  0  0  0
    8.3535   -2.2143    0.5916 C   0  0  0  0  0 15  0  0  0  0  0  0
    9.3535   -1.5720   -0.3382 C   0  0  0  0  0 15  0  0  0  0  0  0
   10.5435   -1.7374   -0.1269 O   0  0  0  0  0 15  0  0  0  0  0  0
    7.6755   -3.4063   -0.1361 C   0  0  0  0  0 15  0  0  0  0  0  0
    8.8685   -2.6054    1.4851 H   0  0  0  0  0 15  0  0  0  0  0  0
    6.4215   -1.3389    0.8064 H   0  0  0  0  0 15  0  0  0  0  0  0
    7.1565   -3.0702   -1.0445 H   0  0  0  0  0 15  0  0  0  0  0  0
    6.9415   -3.8848    0.5319 H   0  0  0  0  0 15  0  0  0  0  0  0
    8.4315   -4.1548   -0.4207 H   0  0  0  0  0 15  0  0  0  0  0  0
    8.8686   -0.7928   -1.3621 N   0  0  0  0  0 15  0  0  0  0  0  0
   10.2796   -0.4295   -1.8169 C   0  0  0  0  0 15  0  0  0  0  0  0
   10.6306    1.0469   -1.6593 C   0  0  0  0  0 15  0  0  0  0  0  0
    9.7556    1.8126   -1.1822 O   0  0  0  0  0 15  0  0  0  0  0  0
   10.3506   -0.7728   -3.2987 C   0  0  0  0  0 15  0  0  0  0  0  0
    8.9096   -0.4623   -3.7355 C   0  0  0  0  0 15  0  0  0  0  0  0
    8.0566   -1.0057   -2.5842 C   0  0  0  0  0 15  0  0  0  0  0  0
   11.0076   -0.9857   -1.2438 H   0  0  0  0  0 15  0  0  0  0  0  0
   11.0286   -0.0652   -3.8044 H   0  0  0  0  0 15  0  0  0  0  0  0
   10.5406   -1.8475   -3.4131 H   0  0  0  0  0 15  0  0  0  0  0  0
    8.6416    0.6042   -3.6767 H   0  0  0  0  0 15  0  0  0  0  0  0
    8.7546   -0.9853   -4.6886 H   0  0  0  0  0 15  0  0  0  0  0  0
    7.1186   -0.4287   -2.5107 H   0  0  0  0  0 15  0  0  0  0  0  0
    7.9016   -2.0862   -2.7264 H   0  0  0  0  0 15  0  0  0  0  0  0
   10.3467    1.4787   -0.5451 N   0  0  0  0  0 15  0  0  0  0  0  0
   11.7577    1.8638   -0.1086 C   0  0  0  0  0 15  0  0  0  0  0  0
   12.1087    1.4531    1.3183 C   0  0  0  0  0 15  0  0  0  0  0  0
   11.2337    0.8506    1.9898 O   0  0  0  0  0 15  0  0  0  0  0  0
   11.8287    3.3827   -0.1903 C   0  0  0  0  0 15  0  0  0  0  0  0
   10.3877    3.7591    0.1912 C   0  0  0  0  0 15  0  0  0  0  0  0
    9.5347    2.7193   -0.5433 C   0  0  0  0  0 15  0  0  0  0  0  0
   12.4857    1.3956   -0.7555 H   0  0  0  0  0 15  0  0  0  0  0  0
   12.5067    3.7583    0.5942 H   0  0  0  0  0 15  0  0  0  0  0  0
   12.0187    3.6813   -1.2289 H   0  0  0  0  0 15  0  0  0  0  0  0
   10.1197    3.5167    1.2314 H   0  0  0  0  0 15  0  0  0  0  0  0
   10.2327    4.7884   -0.1590 H   0  0  0  0  0 15  0  0  0  0  0  0
    8.5967    2.5470    0.0122 H   0  0  0  0  0 15  0  0  0  0  0  0
    9.3797    3.0463   -1.5828 H   0  0  0  0  0 15  0  0  0  0  0  0
   11.8248    0.2810    1.5507 N   0  0  0  0  0 15  0  0  0  0  0  0
   12.7748   -0.6186    2.1945 C   0  0  0  0  0 15  0  0  0  0  0  0
   13.7588   -1.1140    1.1610 C   0  0  0  0  0 15  0  0  0  0  0  0
   14.9508   -1.0581    1.4189 O   0  0  0  0  0 15  0  0  0  0  0  0
   12.0798   -1.7995    2.9236 C   0  0  0  0  0 15  0  0  0  0  0  0
   11.1658   -1.3210    4.0300 C   0  0  0  0  0 15  0  0  0  0  0  0
   11.5568   -0.5590    5.0270 N   0  0  0  0  0 15  0  0  0  0  0  0
    9.8548   -1.6035    4.1618 C   0  0  0  0  0 15  0  0  0  0  0  0
   10.5558   -0.3067    5.8089 C   0  0  0  0  0 15  0  0  0  0  0  0
    9.5318   -0.8808    5.3642 N   0  0  0  0  0 15  0  0  0  0  0  0
   13.3338   -0.0287    2.9389 H   0  0  0  0  0 15  0  0  0  0  0  0
   10.8478    0.0848    1.6218 H   0  0  0  0  0 15  0  0  0  0  0  0
   12.8448   -2.4553    3.3693 H   0  0  0  0  0 15  0  0  0  0  0  0
   11.5048   -2.3933    2.1943 H   0  0  0  0  0 15  0  0  0  0  0  0
   12.5158   -0.2058    5.1749 H   0  0  0  0  0 15  0  0  0  0  0  0
    9.1928   -2.2062    3.5445 H   0  0  0  0  0 15  0  0  0  0  0  0
   10.5828    0.3039    6.7121 H   0  0  0  0  0 15  0  0  0  0  0  0
   13.3029   -1.5760    0.0084 N   0  0  0  0  0 15  0  0  0  0  0  0
   14.7189   -1.5576   -0.3478 C   0  0  0  0  0 15  0  0  0  0  0  0
   14.9189   -1.0119   -1.7425 C   0  0  0  0  0 15  0  0  0  0  0  0
   13.9749   -0.6494   -2.4401 O   0  0  0  0  0 15  0  0  0  0  0  0
   15.2879   -2.9993   -0.2154 C   0  0  0  0  0 15  0  0  0  0  0  0
   16.8359   -3.1166   -0.2897 C   0  0  0  0  0 15  0  0  0  0  0  0
   17.3109   -4.5762   -0.1863 C   0  0  0  0  0 15  0  0  0  0  0  0
   18.8019   -4.6256   -0.2440 N   0  0  0  0  0 15  0  0  0  0  0  0
   19.5369   -5.7309   -0.1874 C   0  0  0  0  0 15  0  0  0  0  0  0
   19.0329   -6.9275   -0.0810 N   0  0  0  0  0 15  0  0  0  0  0  0
   20.8259   -5.6159   -0.2399 N   0  0  0  0  0 15  0  0  0  0  0  0
   12.9769   -1.9141    0.9206 H   0  0  0  0  0 15  0  0  0  0  0  0
   15.2399   -0.8796    0.3537 H   0  0  0  0  0 15  0  0  0  0  0  0
   14.9459   -3.4373    0.7445 H   0  0  0  0  0 15  0  0  0  0  0  0
   14.8199   -3.6386   -0.9941 H   0  0  0  0  0 15  0  0  0  0  0  0
   17.2069   -2.6778   -1.2401 H   0  0  0  0  0 15  0  0  0  0  0  0
   17.2879   -2.5048    0.5190 H   0  0  0  0  0 15  0  0  0  0  0  0
   16.9319   -5.0217    0.7605 H   0  0  0  0  0 15  0  0  0  0  0  0
   16.8619   -5.1675   -1.0136 H   0  0  0  0  0 15  0  0  0  0  0  0
   19.3529   -3.7648   -0.3272 H   0  0  0  0  0 15  0  0  0  0  0  0
   19.6659   -7.7279   -0.0440 H   0  0  0  0  0 15  0  0  0  0  0  0
   18.0109   -6.9498   -0.0465 H   0  0  0  0  0 15  0  0  0  0  0  0
   21.2019   -4.6700   -0.3213 H   0  0  0  0  0 15  0  0  0  0  0  0
   21.3749   -6.4771   -0.1924 H   0  0  0  0  0 15  0  0  0  0  0  0
   14.7810    0.2645   -1.5536 N   0  0  0  0  0 15  0  0  0  0  0  0
   16.0270    0.9923   -1.7755 C   0  0  0  0  0 15  0  0  0  0  0  0
   16.3820    1.8363   -0.5744 C   0  0  0  0  0 15  0  0  0  0  0  0
   15.6750    1.8665    0.4328 O   0  0  0  0  0 15  0  0  0  0  0  0
   15.8690    1.9004   -3.0269 C   0  0  0  0  0 15  0  0  0  0  0  0
   15.6980    1.1458   -4.3486 C   0  0  0  0  0 15  0  0  0  0  0  0
   14.4680    0.8581   -4.9796 C   0  0  0  0  0 15  0  0  0  0  0  0
   16.6660    0.5321   -5.1154 C   0  0  0  0  0 15  0  0  0  0  0  0
   14.6480    0.0776   -6.1385 N   0  0  0  0  0 15  0  0  0  0  0  0
   16.0190   -0.1138   -6.1990 C   0  0  0  0  0 15  0  0  0  0  0  0
   18.0740    0.4408   -4.9595 C   0  0  0  0  0 15  0  0  0  0  0  0
   16.7770   -0.8422   -7.1435 C   0  0  0  0  0 15  0  0  0  0  0  0
   18.8030   -0.2741   -5.9076 C   0  0  0  0  0 15  0  0  0  0  0  0
   18.1650   -0.9087   -6.9851 C   0  0  0  0  0 15  0  0  0  0  0  0
   14.2640    0.3448   -0.7019 H   0  0  0  0  0 15  0  0  0  0  0  0
   16.8480    0.2671   -1.9286 H   0  0  0  0  0 15  0  0  0  0  0  0
   15.0190    2.5978   -2.8874 H   0  0  0  0  0 15  0  0  0  0  0  0
   16.7510    2.5624   -3.1324 H   0  0  0  0  0 15  0  0  0  0  0  0
   13.5060    1.1655   -4.5904 H   0  0  0  0  0 15  0  0  0  0  0  0
   13.9300   -0.3002   -6.7633 H   0  0  0  0  0 15  0  0  0  0  0  0
   18.5720    0.9171   -4.1273 H   0  0  0  0  0 15  0  0  0  0  0  0
   16.2900   -1.3302   -7.9708 H   0  0  0  0  0 15  0  0  0  0  0  0
   19.8760   -0.3452   -5.8078 H   0  0  0  0  0 15  0  0  0  0  0  0
   18.7560   -1.4530   -7.7062 H   0  0  0  0  0 15  0  0  0  0  0  0
   16.2591    1.4844    0.5294 N   0  0  0  0  0 15  0  0  0  0  0  0
   17.4991    1.5809    1.2957 C   0  0  0  0  0 15  0  0  0  0  0  0
   17.8631    0.2493    1.9037 C   0  0  0  0  0 15  0  0  0  0  0  0
   19.0641    0.2207    2.6789 O   0  0  0  0  0 15  0  0  0  0  0  0
   17.3351    2.6879    2.3555 C   0  0  0  0  0 15  0  0  0  0  0  0
   18.8941    2.9821    3.2190 S   0  0  0  0  0 15  0  0  0  0  0  0
   15.7121    0.5579    0.4407 H   0  0  0  0  0 15  0  0  0  0  0  0
   18.3141    1.8597    0.6031 H   0  0  0  0  0 15  0  0  0  0  0  0
   17.0181    3.6410    1.8936 H   0  0  0  0  0 15  0  0  0  0  0  0
   16.5491    2.4282    3.0952 H   0  0  0  0  0 15  0  0  0  0  0  0
   18.5641    2.3755    4.3564 H   0  0  0  0  0 15  0  0  0  0  0  0
   17.7372   -0.7783    1.3704 N   0  0  0  0  0 15  0  0  0  0  0  0
   18.9862   -1.5319    1.3121 C   0  0  0  0  0 15  0  0  0  0  0  0
   19.2992   -1.9533   -0.1031 C   0  0  0  0  0 15  0  0  0  0  0  0
   20.5052   -2.7001   -0.2838 O   0  0  0  0  0 15  0  0  0  0  0  0
   18.9612   -2.7659    2.3027 C   0  0  0  0  0 15  0  0  0  0  0  0
   18.5692   -2.4158    3.7729 C   0  0  0  0  0 15  0  0  0  0  0  0
   20.3132   -3.5455    2.3344 C   0  0  0  0  0 15  0  0  0  0  0  0
   18.2202   -3.6144    4.6810 C   0  0  0  0  0 15  0  0  0  0  0  0
   17.1502   -0.5751    0.4876 H   0  0  0  0  0 15  0  0  0  0  0  0
   19.8012   -0.8531    1.6246 H   0  0  0  0  0 15  0  0  0  0  0  0
   18.1832   -3.4633    1.9203 H   0  0  0  0  0 15  0  0  0  0  0  0
   19.3572   -1.7967    4.2433 H   0  0  0  0  0 15  0  0  0  0  0  0
   17.6722   -1.7681    3.7700 H   0  0  0  0  0 15  0  0  0  0  0  0
   20.2692   -4.4363    2.9849 H   0  0  0  0  0 15  0  0  0  0  0  0
   20.6122   -3.9394    1.3461 H   0  0  0  0  0 15  0  0  0  0  0  0
   21.1452   -2.9181    2.7036 H   0  0  0  0  0 15  0  0  0  0  0  0
   17.8842   -3.2714    5.6803 H   0  0  0  0  0 15  0  0  0  0  0  0
   17.4042   -4.2248    4.2576 H   0  0  0  0  0 15  0  0  0  0  0  0
   19.0832   -4.2834    4.8491 H   0  0  0  0  0 15  0  0  0  0  0  0
   19.2153   -1.2150   -1.0038 N   0  0  0  0  0 15  0  0  0  0  0  0
   20.6263   -1.0315   -1.5562 C   0  0  0  0  0 15  0  0  0  0  0  0
   20.9773    0.4084   -1.9190 C   0  0  0  0  0 15  0  0  0  0  0  0
   20.1023    1.2918   -1.7362 O   0  0  0  0  0 15  0  0  0  0  0  0
   20.6973   -1.8661   -2.8277 C   0  0  0  0  0 15  0  0  0  0  0  0
   19.2563   -1.7259   -3.3450 C   0  0  0  0  0 15  0  0  0  0  0  0
   18.4033   -1.8375   -2.0768 C   0  0  0  0  0 15  0  0  0  0  0  0
   21.3543   -1.3550   -0.8261 H   0  0  0  0  0 15  0  0  0  0  0  0
   21.3753   -1.3771   -3.5471 H   0  0  0  0  0 15  0  0  0  0  0  0
   20.8873   -2.9140   -2.5634 H   0  0  0  0  0 15  0  0  0  0  0  0
   18.9883   -0.7049   -3.6587 H   0  0  0  0  0 15  0  0  0  0  0  0
   19.1013   -2.5462   -4.0584 H   0  0  0  0  0 15  0  0  0  0  0  0
   17.4653   -1.2707   -2.2074 H   0  0  0  0  0 15  0  0  0  0  0  0
   18.2483   -2.9004   -1.8365 H   0  0  0  0  0 15  0  0  0  0  0  0
   20.6934    1.1989   -1.0230 N   0  0  0  0  0 15  0  0  0  0  0  0
   21.9394    1.8997   -0.7268 C   0  0  0  0  0 15  0  0  0  0  0  0
   22.2944    1.7776    0.7361 C   0  0  0  0  0 15  0  0  0  0  0  0
   21.5874    1.1552    1.5286 O   0  0  0  0  0 15  0  0  0  0  0  0
   21.7814    3.3988   -1.1052 C   0  0  0  0  0 15  0  0  0  0  0  0
   21.6104    3.6668   -2.6033 C   0  0  0  0  0 15  0  0  0  0  0  0
   20.3804    3.8504   -3.2721 C   0  0  0  0  0 15  0  0  0  0  0  0
   22.5784    3.6873   -3.5853 C   0  0  0  0  0 15  0  0  0  0  0  0
   20.5604    3.9942   -4.6619 N   0  0  0  0  0 15  0  0  0  0  0  0
   21.9314    3.8860   -4.8310 C   0  0  0  0  0 15  0  0  0  0  0  0
   23.9864    3.5172   -3.5241 C   0  0  0  0  0 15  0  0  0  0  0  0
   22.6894    3.9324   -6.0229 C   0  0  0  0  0 15  0  0  0  0  0  0
   24.7154    3.5763   -4.7101 C   0  0  0  0  0 15  0  0  0  0  0  0
   24.0774    3.7799   -5.9439 C   0  0  0  0  0 15  0  0  0  0  0  0
   20.1764    0.7146   -0.3177 H   0  0  0  0  0 15  0  0  0  0  0  0
   22.7604    1.4412   -1.3091 H   0  0  0  0  0 15  0  0  0  0  0  0
   20.9314    3.8447   -0.5511 H   0  0  0  0  0 15  0  0  0  0  0  0
   22.6634    3.9746   -0.7619 H   0  0  0  0  0 15  0  0  0  0  0  0
   19.4184    3.8369   -2.7763 H   0  0  0  0  0 15  0  0  0  0  0  0
   19.8424    4.1047   -5.3837 H   0  0  0  0  0 15  0  0  0  0  0  0
   24.4844    3.3494   -2.5802 H   0  0  0  0  0 15  0  0  0  0  0  0
   22.2024    4.0881   -6.9706 H   0  0  0  0  0 15  0  0  0  0  0  0
   25.7884    3.4577   -4.6790 H   0  0  0  0  0 15  0  0  0  0  0  0
   24.6684    3.8243   -6.8463 H   0  0  0  0  0 15  0  0  0  0  0  0
   22.1715    0.8000    1.3578 N   0  0  0  0  0 15  0  0  0  0  0  0
   23.1035    0.1636    2.2862 C   0  0  0  0  0 15  0  0  0  0  0  0
   24.1165   -0.6333    1.4998 C   0  0  0  0  0 15  0  0  0  0  0  0
   25.3055   -0.4668    1.7229 O   0  0  0  0  0 15  0  0  0  0  0  0
   22.4055   -0.7910    3.2954 C   0  0  0  0  0 15  0  0  0  0  0  0
   21.5785   -0.0418    4.3738 C   0  0  0  0  0 15  0  0  0  0  0  0
   20.6375   -0.9139    5.1820 C   0  0  0  0  0 15  0  0  0  0  0  0
   19.6635   -0.3672    5.6801 O   0  0  0  0  0 15  0  0  0  0  0  0
   20.8655   -2.2368    5.3567 N   0  0  0  0  0 15  0  0  0  0  0  0
   23.6305    0.9611    2.8387 H   0  0  0  0  0 15  0  0  0  0  0  0
   21.1915    0.6549    1.4806 H   0  0  0  0  0 15  0  0  0  0  0  0
   23.1835   -1.3784    3.8050 H   0  0  0  0  0 15  0  0  0  0  0  0
   21.7535   -1.4892    2.7485 H   0  0  0  0  0 15  0  0  0  0  0  0
   20.9735    0.7268    3.8744 H   0  0  0  0  0 15  0  0  0  0  0  0
   22.2615    0.4747    5.0658 H   0  0  0  0  0 15  0  0  0  0  0  0
   21.6595   -2.7050    4.9684 H   0  0  0  0  0 15  0  0  0  0  0  0
   20.2165   -2.7737    5.8984 H   0  0  0  0  0 15  0  0  0  0  0  0
   23.6496   -1.4758    0.5530 N   0  0  0  0  0 15  0  0  0  0  0  0
   25.0656   -1.5818    0.2124 C   0  0  0  0  0 15  0  0  0  0  0  0
   25.2656   -1.5521   -1.2850 C   0  0  0  0  0 15  0  0  0  0  0  0
   24.3216   -1.4533   -2.0648 O   0  0  0  0  0 15  0  0  0  0  0  0
   25.6346   -2.8886    0.8353 C   0  0  0  0  0 15  0  0  0  0  0  0
   27.1826   -3.0244    0.8062 C   0  0  0  0  0 15  0  0  0  0  0  0
   27.6576   -4.3582    1.4080 C   0  0  0  0  0 15  0  0  0  0  0  0
   29.1486   -4.4244    1.3710 N   0  0  0  0  0 15  0  0  0  0  0  0
   29.8836   -5.4420    1.8064 C   0  0  0  0  0 15  0  0  0  0  0  0
   29.3796   -6.5279    2.3202 N   0  0  0  0  0 15  0  0  0  0  0  0
   31.1726   -5.3522    1.7174 N   0  0  0  0  0 15  0  0  0  0  0  0
   23.3236   -1.4775    1.5259 H   0  0  0  0  0 15  0  0  0  0  0  0
   25.5866   -0.7029    0.6361 H   0  0  0  0  0 15  0  0  0  0  0  0
   25.2926   -2.9676    1.8875 H   0  0  0  0  0 15  0  0  0  0  0  0
   25.1666   -3.7579    0.3258 H   0  0  0  0  0 15  0  0  0  0  0  0
   27.5536   -2.9414   -0.2373 H   0  0  0  0  0 15  0  0  0  0  0  0
   27.6346   -2.1707    1.3533 H   0  0  0  0  0 15  0  0  0  0  0  0
   27.2786   -4.4487    2.4506 H   0  0  0  0  0 15  0  0  0  0  0  0
   27.2086   -5.1992    0.8363 H   0  0  0  0  0 15  0  0  0  0  0  0
   29.6996   -3.6456    0.9952 H   0  0  0  0  0 15  0  0  0  0  0  0
   30.0126   -7.2661    2.6317 H   0  0  0  0  0 15  0  0  0  0  0  0
   28.3576   -6.5370    2.3602 H   0  0  0  0  0 15  0  0  0  0  0  0
   31.5486   -4.4928    1.3138 H   0  0  0  0  0 15  0  0  0  0  0  0
   31.7216   -6.1439    2.0599 H   0  0  0  0  0 15  0  0  0  0  0  0
   25.1277   -0.2892   -1.5492 N   0  0  0  0  0 15  0  0  0  0  0  0
   26.0577    0.5855   -2.2604 C   0  0  0  0  0 15  0  0  0  0  0  0
   27.0387    1.1475   -1.2556 C   0  0  0  0  0 15  0  0  0  0  0  0
   28.2237    1.1791   -1.5431 O   0  0  0  0  0 15  0  0  0  0  0  0
   25.3537    1.7631   -2.9922 C   0  0  0  0  0 15  0  0  0  0  0  0
   24.3077    1.3319   -4.0675 C   0  0  0  0  0 15  0  0  0  0  0  0
   23.6337    2.5937   -4.6758 C   0  0  0  0  0 15  0  0  0  0  0  0
   24.9337    0.4718   -5.2016 C   0  0  0  0  0 15  0  0  0  0  0  0
   26.6277   -0.0076   -2.9940 H   0  0  0  0  0 15  0  0  0  0  0  0
   24.1737   -0.0051   -1.4400 H   0  0  0  0  0 15  0  0  0  0  0  0
   26.1267    2.3810   -3.4769 H   0  0  0  0  0 15  0  0  0  0  0  0
   24.8507    2.3822   -2.2342 H   0  0  0  0  0 15  0  0  0  0  0  0
   23.5097    0.7371   -3.5911 H   0  0  0  0  0 15  0  0  0  0  0  0
   23.1577    3.1958   -3.8843 H   0  0  0  0  0 15  0  0  0  0  0  0
   22.8577    2.3123   -5.4019 H   0  0  0  0  0 15  0  0  0  0  0  0
   24.3817    3.2198   -5.1880 H   0  0  0  0  0 15  0  0  0  0  0  0
   25.7957    0.9951   -5.6460 H   0  0  0  0  0 15  0  0  0  0  0  0
   24.1927    0.2846   -5.9942 H   0  0  0  0  0 15  0  0  0  0  0  0
   25.2627   -0.5060   -4.8225 H   0  0  0  0  0 15  0  0  0  0  0  0
   26.6058    1.5759   -0.0167 N   0  0  0  0  0 15  0  0  0  0  0  0
   27.5358    2.1250    0.9679 C   0  0  0  0  0 15  0  0  0  0  0  0
   28.5168    1.0381    1.3475 C   0  0  0  0  0 15  0  0  0  0  0  0
   29.7018    1.3158    1.4283 O   0  0  0  0  0 15  0  0  0  0  0  0
   26.8318    2.6419    2.2543 C   0  0  0  0  0 15  0  0  0  0  0  0
   25.7858    3.7756    2.0158 C   0  0  0  0  0 15  0  0  0  0  0  0
   25.1118    4.1564    3.3638 C   0  0  0  0  0 15  0  0  0  0  0  0
   26.4118    5.0415    1.3649 C   0  0  0  0  0 15  0  0  0  0  0  0
   28.1058    2.9501    0.5106 H   0  0  0  0  0 15  0  0  0  0  0  0
   25.6518    1.4191    0.2442 H   0  0  0  0  0 15  0  0  0  0  0  0
   27.6048    3.0124    2.9468 H   0  0  0  0  0 15  0  0  0  0  0  0
   26.3288    1.7882    2.7330 H   0  0  0  0  0 15  0  0  0  0  0  0
   24.9878    3.4094    1.3475 H   0  0  0  0  0 15  0  0  0  0  0  0
   24.6358    3.2726    3.8198 H   0  0  0  0  0 15  0  0  0  0  0  0
   24.3358    4.9202    3.2123 H   0  0  0  0  0 15  0  0  0  0  0  0
   25.8598    4.5525    4.0691 H   0  0  0  0  0 15  0  0  0  0  0  0
   27.2738    5.3886    1.9572 H   0  0  0  0  0 15  0  0  0  0  0  0
   25.6708    5.8545    1.3178 H   0  0  0  0  0 15  0  0  0  0  0  0
   26.7408    4.8373    0.3362 H   0  0  0  0  0 15  0  0  0  0  0  0
   28.0839   -0.2563    1.5550 N   0  0  0  0  0 15  0  0  0  0  0  0
   29.0139   -1.3210    1.9254 C   0  0  0  0  0 15  0  0  0  0  0  0
   29.9949   -1.5068    0.7892 C   0  0  0  0  0 15  0  0  0  0  0  0
   31.1799   -1.6345    1.0487 O   0  0  0  0  0 15  0  0  0  0  0  0
   28.3099   -2.6775    2.2119 C   0  0  0  0  0 15  0  0  0  0  0  0
   27.2639   -2.6388    3.3698 C   0  0  0  0  0 15  0  0  0  0  0  0
   26.5899   -4.0324    3.5115 C   0  0  0  0  0 15  0  0  0  0  0  0
   27.8899   -2.2168    4.7292 C   0  0  0  0  0 15  0  0  0  0  0  0
   29.5839   -1.0135    2.8172 H   0  0  0  0  0 15  0  0  0  0  0  0
   27.1299   -0.4861    1.3555 H   0  0  0  0  0 15  0  0  0  0  0  0
   29.0829   -3.4237    2.4569 H   0  0  0  0  0 15  0  0  0  0  0  0
   27.8069   -3.0012    1.2882 H   0  0  0  0  0 15  0  0  0  0  0  0
   26.4659   -1.9172    3.1247 H   0  0  0  0  0 15  0  0  0  0  0  0
   26.1139   -4.3285    2.5622 H   0  0  0  0  0 15  0  0  0  0  0  0
   25.8139   -4.0153    4.2900 H   0  0  0  0  0 15  0  0  0  0  0  0
   27.3379   -4.7956    3.7796 H   0  0  0  0  0 15  0  0  0  0  0  0
   28.7519   -2.8602    4.9685 H   0  0  0  0  0 15  0  0  0  0  0  0
   27.1489   -2.3111    5.5381 H   0  0  0  0  0 15  0  0  0  0  0  0
   28.2189   -1.1683    4.7061 H   0  0  0  0  0 15  0  0  0  0  0  0
   29.5620   -1.4872   -0.5215 N   0  0  0  0  0 15  0  0  0  0  0  0
   30.7900   -1.6084   -1.3014 C   0  0  0  0  0 15  0  0  0  0  0  0
   31.2050   -0.2719   -1.8683 C   0  0  0  0  0 15  0  0  0  0  0  0
   30.5620    0.7400   -1.6683 O   0  0  0  0  0 15  0  0  0  0  0  0
   30.6130   -2.6616   -2.4463 C   0  0  0  0  0 15  0  0  0  0  0  0
   30.3340   -3.9462   -1.9027 O   0  0  0  0  0 15  0  0  0  0  0  0
   31.8350   -2.8880   -3.3632 C   0  0  0  0  0 15  0  0  0  0  0  0
   29.0550   -0.5421   -0.3955 H   0  0  0  0  0 15  0  0  0  0  0  0
   31.5990   -1.9461   -0.6283 H   0  0  0  0  0 15  0  0  0  0  0  0
   29.7540   -2.3522   -3.0781 H   0  0  0  0  0 15  0  0  0  0  0  0
   30.1680   -4.5247   -2.6528 H   0  0  0  0  0 15  0  0  0  0  0  0
   31.6420   -3.6626   -4.1298 H   0  0  0  0  0 15  0  0  0  0  0  0
   32.1190   -1.9793   -3.9207 H   0  0  0  0  0 15  0  0  0  0  0  0
   32.7250   -3.2106   -2.7892 H   0  0  0  0  0 15  0  0  0  0  0  0
   31.0401    0.7711   -1.3745 N   0  0  0  0  0 15  0  0  0  0  0  0
   32.2881    1.5266   -1.3243 C   0  0  0  0  0 15  0  0  0  0  0  0
   32.6091    1.9479    0.0905 C   0  0  0  0  0 15  0  0  0  0  0  0
   31.8791    1.6635    1.0347 O   0  0  0  0  0 15  0  0  0  0  0  0
   30.4591    0.5662   -0.4872 H   0  0  0  0  0 15  0  0  0  0  0  0
   33.1211    0.9176   -1.7195 H   0  0  0  0  0 15  0  0  0  0  0  0
   32.2171    2.4257   -1.9639 H   0  0  0  0  0 15  0  0  0  0  0  0
   32.5182    1.2203    0.9973 N   0  0  0  0  0 15  0  0  0  0  0  0
   33.4282    1.0027    2.1209 C   0  0  0  0  0 15  0  0  0  0  0  0
   34.4442   -0.0476    1.7393 C   0  0  0  0  0 15  0  0  0  0  0  0
   35.6202    0.1441    2.0088 O   0  0  0  0  0 15  0  0  0  0  0  0
   32.6852    0.5784    3.4184 C   0  0  0  0  0 15  0  0  0  0  0  0
   31.7462    1.7019    3.9412 C   0  0  0  0  0 15  0  0  0  0  0  0
   30.9792    1.2978    5.1768 C   0  0  0  0  0 15  0  0  0  0  0  0
   31.2022    0.1747    5.7013 O   0  0  0  0  0 15  0  0  0  0  0  0
   30.1362    2.1126    5.6361 O   0  0  0  0  0 15  0  0  0  0  0  0
   33.9622    1.9440    2.3333 H   0  0  0  0  0 15  0  0  0  0  0  0
   31.5472    1.0059    1.1047 H   0  0  0  0  0 15  0  0  0  0  0  0
   33.4292    0.3520    4.1993 H   0  0  0  0  0 15  0  0  0  0  0  0
   32.1042   -0.3340    3.2197 H   0  0  0  0  0 15  0  0  0  0  0  0
   31.0112    1.9828    3.1723 H   0  0  0  0  0 15  0  0  0  0  0  0
   32.3442    2.5921    4.1842 H   0  0  0  0  0 15  0  0  0  0  0  0
   33.9963   -1.1934    1.0293 N   0  0  0  0  0 15  0  0  0  0  0  0
   35.2443   -1.8866    0.7246 C   0  0  0  0  0 15  0  0  0  0  0  0
   35.5653   -1.8004   -0.7491 C   0  0  0  0  0 15  0  0  0  0  0  0
   34.8353   -1.2111   -1.5398 O   0  0  0  0  0 15  0  0  0  0  0  0
   33.4153   -0.6984    0.2650 H   0  0  0  0  0 15  0  0  0  0  0  0
   36.0773   -1.4489    1.3036 H   0  0  0  0  0 15  0  0  0  0  0  0
   35.1733   -2.9499    1.0193 H   0  0  0  0  0 15  0  0  0  0  0  0
   35.4744   -0.8072   -1.3536 N   0  0  0  0  0 15  0  0  0  0  0  0
   36.8904   -0.4910   -1.5186 C   0  0  0  0  0 15  0  0  0  0  0  0
   37.0904    0.9876   -1.7564 C   0  0  0  0  0 15  0  0  0  0  0  0
   36.1464    1.7727   -1.7981 O   0  0  0  0  0 15  0  0  0  0  0  0
   37.4594   -1.3369   -2.6934 C   0  0  0  0  0 15  0  0  0  0  0  0
   39.0074   -1.3325   -2.8322 C   0  0  0  0  0 15  0  0  0  0  0  0
   39.4824   -2.1625   -4.0373 C   0  0  0  0  0 15  0  0  0  0  0  0
   40.9734   -2.1379   -4.1091 N   0  0  0  0  0 15  0  0  0  0  0  0
   41.7084   -2.7477   -5.0328 C   0  0  0  0  0 15  0  0  0  0  0  0
   41.2044   -3.4468   -6.0097 N   0  0  0  0  0 15  0  0  0  0  0  0
   42.9974   -2.6441   -4.9603 N   0  0  0  0  0 15  0  0  0  0  0  0
   35.1484   -1.7649   -1.1818 H   0  0  0  0  0 15  0  0  0  0  0  0
   37.4114   -0.7512   -0.5783 H   0  0  0  0  0 15  0  0  0  0  0  0
   37.1174   -2.3863   -2.5835 H   0  0  0  0  0 15  0  0  0  0  0  0
   36.9914   -0.9906   -3.6396 H   0  0  0  0  0 15  0  0  0  0  0  0
   39.3784   -0.2909   -2.9366 H   0  0  0  0  0 15  0  0  0  0  0  0
   39.4594   -1.7187   -1.8946 H   0  0  0  0  0 15  0  0  0  0  0  0
   39.1034   -3.2045   -3.9405 H   0  0  0  0  0 15  0  0  0  0  0  0
   39.0334   -1.7499   -4.9668 H   0  0  0  0  0 15  0  0  0  0  0  0
   41.5244   -1.6292   -3.4098 H   0  0  0  0  0 15  0  0  0  0  0  0
   41.8374   -3.8850   -6.6805 H   0  0  0  0  0 15  0  0  0  0  0  0
   40.1824   -3.4879   -6.0114 H   0  0  0  0  0 15  0  0  0  0  0  0
   43.3734   -2.0938   -4.1866 H   0  0  0  0  0 15  0  0  0  0  0  0
   43.5464   -3.1223   -5.6782 H   0  0  0  0  0 15  0  0  0  0  0  0
   36.9525    1.4729   -0.5608 N   0  0  0  0  0 15  0  0  0  0  0  0
   38.1805    2.0686   -0.0430 C   0  0  0  0  0 15  0  0  0  0  0  0
   38.5955    1.4129    1.2523 C   0  0  0  0  0 15  0  0  0  0  0  0
   37.9525    0.5106    1.7521 O   0  0  0  0  0 15  0  0  0  0  0  0
   38.0035    3.6118    0.1525 C   0  0  0  0  0 15  0  0  0  0  0  0
   37.7245    4.2429   -1.0915 O   0  0  0  0  0 15  0  0  0  0  0  0
   39.2255    4.3762    0.7071 C   0  0  0  0  0 15  0  0  0  0  0  0
   36.4455    0.6693   -0.0475 H   0  0  0  0  0 15  0  0  0  0  0  0
   38.9895    1.8924   -0.7752 H   0  0  0  0  0 15  0  0  0  0  0  0
   37.1445    3.7830    0.8348 H   0  0  0  0  0 15  0  0  0  0  0  0
   37.5585    5.1687   -0.8915 H   0  0  0  0  0 15  0  0  0  0  0  0
   39.0325    5.4627    0.7932 H   0  0  0  0  0 15  0  0  0  0  0  0
   39.5095    4.0415    1.7192 H   0  0  0  0  0 15  0  0  0  0  0  0
   40.1155    4.2526    0.0604 H   0  0  0  0  0 15  0  0  0  0  0  0
   38.4306    0.2974    1.5477 N   0  0  0  0  0 15  0  0  0  0  0  0
   39.6586   -0.3156    2.0448 C   0  0  0  0  0 15  0  0  0  0  0  0
   40.0736   -1.4779    1.1749 C   0  0  0  0  0 15  0  0  0  0  0  0
   39.4306   -1.8140    0.1997 O   0  0  0  0  0 15  0  0  0  0  0  0
   39.4816   -0.7753    3.5309 C   0  0  0  0  0 15  0  0  0  0  0  0
   39.2026    0.3407    4.3677 O   0  0  0  0  0 15  0  0  0  0  0  0
   40.7036   -1.4539    4.1878 C   0  0  0  0  0 15  0  0  0  0  0  0
   37.9236   -0.0691    0.6674 H   0  0  0  0  0 15  0  0  0  0  0  0
   40.4676    0.4360    1.9980 H   0  0  0  0  0 15  0  0  0  0  0  0
   38.6226   -1.4770    3.5814 H   0  0  0  0  0 15  0  0  0  0  0  0
   39.0366   -0.0165    5.2450 H   0  0  0  0  0 15  0  0  0  0  0  0
   40.5106   -1.7267    5.2430 H   0  0  0  0  0 15  0  0  0  0  0  0
   40.9876   -2.3927    3.6830 H   0  0  0  0  0 15  0  0  0  0  0  0
   41.5936   -0.7955    4.1779 H   0  0  0  0  0 15  0  0  0  0  0  0
   39.9087   -1.5758    0.0251 N   0  0  0  0  0 15  0  0  0  0  0  0
   41.1547   -1.9275   -0.6496 C   0  0  0  0  0 15  0  0  0  0  0  0
   41.5097   -0.9016   -1.6997 C   0  0  0  0  0 15  0  0  0  0  0  0
   40.8027    0.0829   -1.9142 O   0  0  0  0  0 15  0  0  0  0  0  0
   40.9967   -3.3242   -1.3127 C   0  0  0  0  0 15  0  0  0  0  0  0
   40.8257   -4.4850   -0.3284 C   0  0  0  0  0 15  0  0  0  0  0  0
   39.5957   -5.0525    0.0703 C   0  0  0  0  0 15  0  0  0  0  0  0
   41.7937   -5.1262    0.4157 C   0  0  0  0  0 15  0  0  0  0  0  0
   39.7757   -6.0485    1.0502 N   0  0  0  0  0 15  0  0  0  0  0  0
   41.1467   -6.0728    1.2494 C   0  0  0  0  0 15  0  0  0  0  0  0
   43.2017   -4.9561    0.4768 C   0  0  0  0  0 15  0  0  0  0  0  0
   41.9047   -6.8677    2.1388 C   0  0  0  0  0 15  0  0  0  0  0  0
   43.9307   -5.7570    1.3535 C   0  0  0  0  0 15  0  0  0  0  0  0
   43.2927   -6.6998    2.1750 C   0  0  0  0  0 15  0  0  0  0  0  0
   39.3917   -0.7532   -0.2102 H   0  0  0  0  0 15  0  0  0  0  0  0
   41.9757   -1.9449    0.0913 H   0  0  0  0  0 15  0  0  0  0  0  0
   40.1467   -3.3151   -2.0238 H   0  0  0  0  0 15  0  0  0  0  0  0
   41.8787   -3.5495   -1.9441 H   0  0  0  0  0 15  0  0  0  0  0  0
   38.6337   -4.7263   -0.3033 H   0  0  0  0  0 15  0  0  0  0  0  0
   39.0577   -6.5934    1.5362 H   0  0  0  0  0 15  0  0  0  0  0  0
   43.6997   -4.2255   -0.1441 H   0  0  0  0  0 15  0  0  0  0  0  0
   41.4177   -7.5913    2.7703 H   0  0  0  0  0 15  0  0  0  0  0  0
   45.0037   -5.6458    1.4050 H   0  0  0  0  0 15  0  0  0  0  0  0
   43.8837   -7.3087    2.8424 H   0  0  0  0  0 15  0  0  0  0  0  0
   41.3868    0.2480   -1.5564 N   0  0  0  0  0 15  0  0  0  0  0  0
   42.2968    1.3286   -1.9335 C   0  0  0  0  0 15  0  0  0  0  0  0
   43.3128    1.5272   -0.8338 C   0  0  0  0  0 15  0  0  0  0  0  0
   44.4888    1.6636   -1.1351 O   0  0  0  0  0 15  0  0  0  0  0  0
   41.5538    2.6634   -2.2196 C   0  0  0  0  0 15  0  0  0  0  0  0
   40.6148    2.5501   -3.4535 C   0  0  0  0  0 15  0  0  0  0  0  0
   39.8478    3.8212   -3.7258 C   0  0  0  0  0 15  0  0  0  0  0  0
   40.0708    4.8395   -3.0191 O   0  0  0  0  0 15  0  0  0  0  0  0
   39.0048    3.8082   -4.6611 O   0  0  0  0  0 15  0  0  0  0  0  0
   42.8308    1.0386   -2.8539 H   0  0  0  0  0 15  0  0  0  0  0  0
   40.4158    0.4487   -1.4250 H   0  0  0  0  0 15  0  0  0  0  0  0
   42.2978    3.4522   -2.4167 H   0  0  0  0  0 15  0  0  0  0  0  0
   40.9728    2.9507   -1.3310 H   0  0  0  0  0 15  0  0  0  0  0  0
   39.8798    1.7442   -3.3095 H   0  0  0  0  0 15  0  0  0  0  0  0
   41.2128    2.3122   -4.3451 H   0  0  0  0  0 15  0  0  0  0  0  0
   42.8649    1.4899    0.5136 N   0  0  0  0  0 15  0  0  0  0  0  0
   44.2809    1.3548    0.8437 C   0  0  0  0  0 15  0  0  0  0  0  0
   44.4809    0.3782    1.9792 C   0  0  0  0  0 15  0  0  0  0  0  0
   43.5369   -0.1947    2.5175 O   0  0  0  0  0 15  0  0  0  0  0  0
   44.8499    2.7590    1.1958 C   0  0  0  0  0 15  0  0  0  0  0  0
   46.3979    2.8451    1.3047 C   0  0  0  0  0 15  0  0  0  0  0  0
   46.8729    4.2567    1.6902 C   0  0  0  0  0 15  0  0  0  0  0  0
   48.3639    4.2842    1.7609 N   0  0  0  0  0 15  0  0  0  0  0  0
   49.0989    5.3460    2.0734 C   0  0  0  0  0 15  0  0  0  0  0  0
   48.5949    6.5104    2.3689 N   0  0  0  0  0 15  0  0  0  0  0  0
   50.3879    5.2201    2.0848 N   0  0  0  0  0 15  0  0  0  0  0  0
   42.5389    2.1109   -0.2353 H   0  0  0  0  0 15  0  0  0  0  0  0
   44.8019    0.9470   -0.0427 H   0  0  0  0  0 15  0  0  0  0  0  0
   44.5079    3.4900    0.4349 H   0  0  0  0  0 15  0  0  0  0  0  0
   44.3819    3.1047    2.1422 H   0  0  0  0  0 15  0  0  0  0  0  0
   46.7689    2.1165    2.0564 H   0  0  0  0  0 15  0  0  0  0  0  0
   46.8499    2.5354    0.3392 H   0  0  0  0  0 15  0  0  0  0  0  0
   46.4939    4.9905    0.9441 H   0  0  0  0  0 15  0  0  0  0  0  0
   46.4239    4.5409    2.6666 H   0  0  0  0  0 15  0  0  0  0  0  0
   48.9149    3.4444    1.5546 H   0  0  0  0  0 15  0  0  0  0  0  0
   49.2279    7.2779    2.5989 H   0  0  0  0  0 15  0  0  0  0  0  0
   47.5729    6.5429    2.3438 H   0  0  0  0  0 15  0  0  0  0  0  0
   50.7639    4.3005    1.8486 H   0  0  0  0  0 15  0  0  0  0  0  0
   50.9369    6.0485    2.3250 H   0  0  0  0  0 15  0  0  0  0  0  0
   44.3430   -0.7638    1.3786 N   0  0  0  0  0 15  0  0  0  0  0  0
   45.5890   -1.5248    1.3370 C   0  0  0  0  0 15  0  0  0  0  0  0
   45.9220   -1.9405   -0.0760 C   0  0  0  0  0 15  0  0  0  0  0  0
   45.1970   -1.6467   -1.0350 O   0  0  0  0  0 15  0  0  0  0  0  0
   45.4800   -2.7844    2.2835 C   0  0  0  0  0 15  0  0  0  0  0  0
   45.3330   -2.4308    3.7846 C   0  0  0  0  0 15  0  0  0  0  0  0
   46.6520   -3.8041    2.2130 C   0  0  0  0  0 15  0  0  0  0  0  0
   43.7710   -0.5532    0.4870 H   0  0  0  0  0 15  0  0  0  0  0  0
   46.4130   -0.8756    1.6862 H   0  0  0  0  0 15  0  0  0  0  0  0
   44.5630   -3.3384    1.9870 H   0  0  0  0  0 15  0  0  0  0  0  0
   46.2350   -1.9353    4.1874 H   0  0  0  0  0 15  0  0  0  0  0  0
   44.4780   -1.7567    3.9664 H   0  0  0  0  0 15  0  0  0  0  0  0
   45.1490   -3.3315    4.4013 H   0  0  0  0  0 15  0  0  0  0  0  0
   47.6250   -3.3453    2.4745 H   0  0  0  0  0 15  0  0  0  0  0  0
   46.5010   -4.6626    2.8965 H   0  0  0  0  0 15  0  0  0  0  0  0
   46.7620   -4.2526    1.2085 H   0  0  0  0  0 15  0  0  0  0  0  0
   45.8211   -1.2256   -0.9908 N   0  0  0  0  0 15  0  0  0  0  0  0
   47.0691   -1.0493   -1.7272 C   0  0  0  0  0 15  0  0  0  0  0  0
   47.3901    0.4162   -1.9051 C   0  0  0  0  0 15  0  0  0  0  0  0
   46.6601    1.2992   -1.4662 O   0  0  0  0  0 15  0  0  0  0  0  0
   45.2401   -0.3853   -0.6400 H   0  0  0  0  0 15  0  0  0  0  0  0
   47.9021   -1.5411   -1.1932 H   0  0  0  0  0 15  0  0  0  0  0  0
   46.9981   -1.5289   -2.7209 H   0  0  0  0  0 15  0  0  0  0  0  0
   47.2992    1.1880   -1.0356 N   0  0  0  0  0 15  0  0  0  0  0  0
   48.5472    1.8828   -0.7346 C   0  0  0  0  0 15  0  0  0  0  0  0
   48.8682    1.8043    0.7396 C   0  0  0  0  0 15  0  0  0  0  0  0
   48.1382    1.2192    1.5333 O   0  0  0  0  0 15  0  0  0  0  0  0
   46.7182    0.6970   -0.2687 H   0  0  0  0  0 15  0  0  0  0  0  0
   49.3802    1.4419   -1.3113 H   0  0  0  0  0 15  0  0  0  0  0  0
   48.4762    2.9444   -1.0349 H   0  0  0  0  0 15  0  0  0  0  0  0
   48.7773    0.8144    1.3493 N   0  0  0  0  0 15  0  0  0  0  0  0
   50.0253    0.3976    1.9815 C   0  0  0  0  0 15  0  0  0  0  0  0
   50.3463   -1.0407    1.6491 C   0  0  0  0  0 15  0  0  0  0  0  0
   49.6163   -1.7212    0.9355 O   0  0  0  0  0 15  0  0  0  0  0  0
   48.1963    0.1440    0.7330 H   0  0  0  0  0 15  0  0  0  0  0  0
   50.8583    1.0420    1.6471 H   0  0  0  0  0 15  0  0  0  0  0  0
   49.9543    0.5097    3.0791 H   0  0  0  0  0 15  0  0  0  0  0  0
   50.2554   -1.4699    0.5686 N   0  0  0  0  0 15  0  0  0  0  0  0
   51.4804   -2.0733    0.0521 C   0  0  0  0  0 15  0  0  0  0  0  0
   51.9054   -1.4167   -1.2373 C   0  0  0  0  0 15  0  0  0  0  0  0
   51.2634   -0.4956   -1.7439 O   0  0  0  0  0 15  0  0  0  0  0  0
   51.3114   -3.6042   -0.1150 C   0  0  0  0  0 15  0  0  0  0  0  0
   50.4154   -3.9531   -1.1749 O   0  0  0  0  0 15  0  0  0  0  0  0
   49.7564   -0.6616    0.0564 H   0  0  0  0  0 15  0  0  0  0  0  0
   52.2864   -1.8884    0.7875 H   0  0  0  0  0 15  0  0  0  0  0  0
   52.2964   -4.0670   -0.3256 H   0  0  0  0  0 15  0  0  0  0  0  0
   50.9714   -4.0760    0.8267 H   0  0  0  0  0 15  0  0  0  0  0  0
   49.5484   -3.6076   -0.9439 H   0  0  0  0  0 15  0  0  0  0  0  0
   51.7335   -0.3056   -1.5461 N   0  0  0  0  0 15  0  0  0  0  0  0
   52.9795    0.2956   -2.0124 C   0  0  0  0  0 15  0  0  0  0  0  0
   53.3345    1.5117   -1.1902 C   0  0  0  0  0 15  0  0  0  0  0  0
   52.6275    1.8983   -0.2597 O   0  0  0  0  0 15  0  0  0  0  0  0
   52.8215    0.6990   -3.5050 C   0  0  0  0  0 15  0  0  0  0  0  0
   52.6505   -0.4765   -4.4717 C   0  0  0  0  0 15  0  0  0  0  0  0
   51.4205   -0.9700   -4.9590 C   0  0  0  0  0 15  0  0  0  0  0  0
   53.6185   -1.3229   -4.9699 C   0  0  0  0  0 15  0  0  0  0  0  0
   51.6005   -2.1117   -5.7644 N   0  0  0  0  0 15  0  0  0  0  0  0
   52.9715   -2.3121   -5.7527 C   0  0  0  0  0 15  0  0  0  0  0  0
   55.0265   -1.3528   -4.7917 C   0  0  0  0  0 15  0  0  0  0  0  0
   53.7295   -3.3290   -6.3763 C   0  0  0  0  0 15  0  0  0  0  0  0
   55.7555   -2.3582   -5.4235 C   0  0  0  0  0 15  0  0  0  0  0  0
   55.1175   -3.3347   -6.2047 C   0  0  0  0  0 15  0  0  0  0  0  0
   51.2165    0.0725   -0.7786 H   0  0  0  0  0 15  0  0  0  0  0  0
   53.8005   -0.4366   -1.8974 H   0  0  0  0  0 15  0  0  0  0  0  0
   51.9715    1.4003   -3.6228 H   0  0  0  0  0 15  0  0  0  0  0  0
   53.7035    1.2801   -3.8392 H   0  0  0  0  0 15  0  0  0  0  0  0
   50.4585   -0.5442   -4.7046 H   0  0  0  0  0 15  0  0  0  0  0  0
   50.8825   -2.6871   -6.2139 H   0  0  0  0  0 15  0  0  0  0  0  0
   55.5245   -0.6116   -4.1835 H   0  0  0  0  0 15  0  0  0  0  0  0
   53.2425   -4.0793   -6.9758 H   0  0  0  0  0 15  0  0  0  0  0  0
   56.8285   -2.3891   -5.3048 H   0  0  0  0  0 15  0  0  0  0  0  0
   55.7085   -4.1000   -6.6849 H   0  0  0  0  0 15  0  0  0  0  0  0
   53.2116    1.5756   -0.0334 N   0  0  0  0  0 15  0  0  0  0  0  0
   54.4596    1.9160    0.6430 C   0  0  0  0  0 15  0  0  0  0  0  0
   54.7806    0.9108    1.7242 C   0  0  0  0  0 15  0  0  0  0  0  0
   54.0506   -0.0470    1.9584 O   0  0  0  0  0 15  0  0  0  0  0  0
   52.6306    0.7072    0.2405 H   0  0  0  0  0 15  0  0  0  0  0  0
   55.2926    1.9473   -0.0822 H   0  0  0  0  0 15  0  0  0  0  0  0
   54.3886    2.9234    1.0930 H   0  0  0  0  0 15  0  0  0  0  0  0
   54.6897   -0.2398    1.5577 N   0  0  0  0  0 15  0  0  0  0  0  0
   55.6197   -1.3005    1.9393 C   0  0  0  0  0 15  0  0  0  0  0  0
   56.6007   -1.4984    0.8051 C   0  0  0  0  0 15  0  0  0  0  0  0
   57.7857   -1.6233    1.0660 O   0  0  0  0  0 15  0  0  0  0  0  0
   54.9157   -2.6539    2.2402 C   0  0  0  0  0 15  0  0  0  0  0  0
   53.8697   -2.6029    3.3976 C   0  0  0  0  0 15  0  0  0  0  0  0
   53.1957   -3.9949    3.5540 C   0  0  0  0  0 15  0  0  0  0  0  0
   54.4957   -2.1665    4.7525 C   0  0  0  0  0 15  0  0  0  0  0  0
   56.1897   -0.9836    2.8278 H   0  0  0  0  0 15  0  0  0  0  0  0
   53.7357   -0.4717    1.3606 H   0  0  0  0  0 15  0  0  0  0  0  0
   55.6887   -3.3974    2.4931 H   0  0  0  0  0 15  0  0  0  0  0  0
   54.4127   -2.9874    1.3200 H   0  0  0  0  0 15  0  0  0  0  0  0
   53.0717   -1.8840    3.1449 H   0  0  0  0  0 15  0  0  0  0  0  0
   52.7197   -4.3011    2.6079 H   0  0  0  0  0 15  0  0  0  0  0  0
   52.4197   -3.9696    4.3324 H   0  0  0  0  0 15  0  0  0  0  0  0
   53.9437   -4.7553    3.8302 H   0  0  0  0  0 15  0  0  0  0  0  0
   55.3577   -2.8074    4.9986 H   0  0  0  0  0 15  0  0  0  0  0  0
   53.7547   -2.2522    5.5623 H   0  0  0  0  0 15  0  0  0  0  0  0
   54.8247   -1.1184    4.7183 H   0  0  0  0  0 15  0  0  0  0  0  0
   56.1678   -1.4927   -0.5057 N   0  0  0  0  0 15  0  0  0  0  0  0
   57.0978   -1.6850   -1.6165 C   0  0  0  0  0 15  0  0  0  0  0  0
   58.0788   -0.5337   -1.6151 C   0  0  0  0  0 15  0  0  0  0  0  0
   59.2638   -0.7690   -1.7833 O   0  0  0  0  0 15  0  0  0  0  0  0
   56.3938   -1.7471   -3.0016 C   0  0  0  0  0 15  0  0  0  0  0  0
   55.3478   -2.8958   -3.1516 C   0  0  0  0  0 15  0  0  0  0  0  0
   54.6738   -2.8090   -4.5497 C   0  0  0  0  0 15  0  0  0  0  0  0
   55.9738   -4.3058   -2.9563 C   0  0  0  0  0 15  0  0  0  0  0  0
   57.6678   -2.6149   -1.4581 H   0  0  0  0  0 15  0  0  0  0  0  0
   55.2138   -1.2584   -0.7001 H   0  0  0  0  0 15  0  0  0  0  0  0
   57.1668   -1.8675   -3.7776 H   0  0  0  0  0 15  0  0  0  0  0  0
   55.8908   -0.7831   -3.1707 H   0  0  0  0  0 15  0  0  0  0  0  0
   54.5498   -2.7714   -2.3998 H   0  0  0  0  0 15  0  0  0  0  0  0
   54.1978   -1.8242   -4.6876 H   0  0  0  0  0 15  0  0  0  0  0  0
   53.8978   -3.5800   -4.6595 H   0  0  0  0  0 15  0  0  0  0  0  0
   55.4218   -2.9494   -5.3464 H   0  0  0  0  0 15  0  0  0  0  0  0
   56.8358   -4.4373   -3.6301 H   0  0  0  0  0 15  0  0  0  0  0  0
   55.2328   -5.0886   -3.1809 H   0  0  0  0  0 15  0  0  0  0  0  0
   56.3028   -4.4535   -1.9181 H   0  0  0  0  0 15  0  0  0  0  0  0
   57.6459    0.7564   -1.3826 N   0  0  0  0  0 15  0  0  0  0  0  0
   58.8939    1.5125   -1.3405 C   0  0  0  0  0 15  0  0  0  0  0  0
   59.2149    1.9487    0.0698 C   0  0  0  0  0 15  0  0  0  0  0  0
   58.4849    1.6744    1.0170 O   0  0  0  0  0 15  0  0  0  0  0  0
   57.0649    0.5610   -0.4932 H   0  0  0  0  0 15  0  0  0  0  0  0
   59.7269    0.8993   -1.7291 H   0  0  0  0  0 15  0  0  0  0  0  0
   58.8229    2.4047   -1.9895 H   0  0  0  0  0 15  0  0  0  0  0  0
   59.1240    1.2308    0.9843 N   0  0  0  0  0 15  0  0  0  0  0  0
   60.5400    0.9926    1.2498 C   0  0  0  0  0 15  0  0  0  0  0  0
   60.7400   -0.3086    1.9912 C   0  0  0  0  0 15  0  0  0  0  0  0
   59.7960   -1.0291    2.3058 O   0  0  0  0  0 15  0  0  0  0  0  0
   61.1090    2.1970    2.0531 C   0  0  0  0  0 15  0  0  0  0  0  0
   62.6570    2.2415    2.1847 C   0  0  0  0  0 15  0  0  0  0  0  0
   63.1320    3.4416    3.0219 C   0  0  0  0  0 15  0  0  0  0  0  0
   64.6230    3.4437    3.0978 N   0  0  0  0  0 15  0  0  0  0  0  0
   65.3580    4.3389    3.7487 C   0  0  0  0  0 15  0  0  0  0  0  0
   64.8540    5.3363    4.4183 N   0  0  0  0  0 15  0  0  0  0  0  0
   66.6470    4.2164    3.7172 N   0  0  0  0  0 15  0  0  0  0  0  0
   58.7980    2.0673    0.4875 H   0  0  0  0  0 15  0  0  0  0  0  0
   61.0610    0.9063    0.2779 H   0  0  0  0  0 15  0  0  0  0  0  0
   60.7670    3.1411    1.5820 H   0  0  0  0  0 15  0  0  0  0  0  0
   60.6410    2.2046    3.0606 H   0  0  0  0  0 15  0  0  0  0  0  0
   63.0280    1.3028    2.6479 H   0  0  0  0  0 15  0  0  0  0  0  0
   63.1090    2.2742    1.1711 H   0  0  0  0  0 15  0  0  0  0  0  0
   62.7530    4.3833    2.5657 H   0  0  0  0  0 15  0  0  0  0  0  0
   62.6830    3.3813    4.0370 H   0  0  0  0  0 15  0  0  0  0  0  0
   65.1740    2.7220    2.6214 H   0  0  0  0  0 15  0  0  0  0  0  0
   65.4870    5.9820    4.8927 H   0  0  0  0  0 15  0  0  0  0  0  0
   63.8320    5.3753    4.4055 H   0  0  0  0  0 15  0  0  0  0  0  0
   67.0230    3.4296    3.1858 H   0  0  0  0  0 15  0  0  0  0  0  0
   67.1960    4.9160    4.2217 H   0  0  0  0  0 15  0  0  0  0  0  0
   60.6021   -1.1825    1.0419 N   0  0  0  0  0 15  0  0  0  0  0  0
   61.8301   -1.9220    0.7661 C   0  0  0  0  0 15  0  0  0  0  0  0
   62.2451   -1.7625   -0.6769 C   0  0  0  0  0 15  0  0  0  0  0  0
   61.6021   -1.0929   -1.4615 O   0  0  0  0  0 15  0  0  0  0  0  0
   61.6531   -3.4357    1.1244 C   0  0  0  0  0 15  0  0  0  0  0  0
   61.3741   -3.5901    2.5108 O   0  0  0  0  0 15  0  0  0  0  0  0
   62.8751   -4.3461    0.8733 C   0  0  0  0  0 15  0  0  0  0  0  0
   60.0951   -0.6101    0.2793 H   0  0  0  0  0 15  0  0  0  0  0  0
   62.6391   -1.5001    1.3899 H   0  0  0  0  0 15  0  0  0  0  0  0
   60.7941   -3.8354    0.5455 H   0  0  0  0  0 15  0  0  0  0  0  0
   61.2081   -4.5273    2.6483 H   0  0  0  0  0 15  0  0  0  0  0  0
   62.6821   -5.3937    1.1739 H   0  0  0  0  0 15  0  0  0  0  0  0
   63.1591   -4.3878   -0.1919 H   0  0  0  0  0 15  0  0  0  0  0  0
   63.7651   -4.0034    1.4355 H   0  0  0  0  0 15  0  0  0  0  0  0
   62.0802   -0.8215   -1.3449 N   0  0  0  0  0 15  0  0  0  0  0  0
   63.3282   -0.4081   -1.9794 C   0  0  0  0  0 15  0  0  0  0  0  0
   63.6492    1.0319   -1.6546 C   0  0  0  0  0 15  0  0  0  0  0  0
   62.9192    1.7162   -0.9446 O   0  0  0  0  0 15  0  0  0  0  0  0
   61.4992   -0.1479   -0.7322 H   0  0  0  0  0 15  0  0  0  0  0  0
   64.1612   -1.0507   -1.6416 H   0  0  0  0  0 15  0  0  0  0  0  0
   63.2572   -0.5260   -3.0764 H   0  0  0  0  0 15  0  0  0  0  0  0
   63.5583    1.4668   -0.5764 N   0  0  0  0  0 15  0  0  0  0  0  0
   64.4883    2.3303    0.1484 C   0  0  0  0  0 15  0  0  0  0  0  0
   65.4693    1.4496    0.8900 C   0  0  0  0  0 15  0  0  0  0  0  0
   66.6543    1.7379    0.8667 O   0  0  0  0  0 15  0  0  0  0  0  0
   63.7843    3.2712    1.1667 C   0  0  0  0  0 15  0  0  0  0  0  0
   62.7383    4.2457    0.5404 C   0  0  0  0  0 15  0  0  0  0  0  0
   62.0643    5.0813    1.6647 C   0  0  0  0  0 15  0  0  0  0  0  0
   63.3643    5.1972   -0.5183 C   0  0  0  0  0 15  0  0  0  0  0  0
   65.0583    2.9388   -0.5725 H   0  0  0  0  0 15  0  0  0  0  0  0
   62.6043    1.4132   -0.2768 H   0  0  0  0  0 15  0  0  0  0  0  0
   64.5573    3.8637    1.6820 H   0  0  0  0  0 15  0  0  0  0  0  0
   63.2813    2.6436    1.9178 H   0  0  0  0  0 15  0  0  0  0  0  0
   61.9403    3.6657    0.0462 H   0  0  0  0  0 15  0  0  0  0  0  0
   61.5883    4.4176    2.4053 H   0  0  0  0  0 15  0  0  0  0  0  0
   61.2883    5.7412    1.2513 H   0  0  0  0  0 15  0  0  0  0  0  0
   62.8123    5.7025    2.1829 H   0  0  0  0  0 15  0  0  0  0  0  0
   64.2263    5.7323   -0.0883 H   0  0  0  0  0 15  0  0  0  0  0  0
   62.6233    5.9403   -0.8517 H   0  0  0  0  0 15  0  0  0  0  0  0
   63.6933    4.6404   -1.4070 H   0  0  0  0  0 15  0  0  0  0  0  0
   65.0753    0.4559    1.5493 O   0  0  0  0  0 15  0  0  0  0  0  0
   65.7663   -0.0732    1.9356 H   0  0  0  0  0 15  0  0  0  0  0  0
M  END
$$$$
