drugbank_target|Q14123 Calcium/calmodulin-dependent 3',5'-cyclic nucleotide phosphodiesterase 1C (DB00201; DB09283)
 OpenBabel12092121003D

  0  0  0     0  0            999 V3000
M  V30 BEGIN CTAB
M  V30 COUNTS 11340 11451 0 0 0
M  V30 BEGIN ATOM
M  V30 1 H -0.908 1.98254 -0.117106 0
M  V30 2 N 0 1.576 0 0
M  V30 3 C 0.933 2.03868 1.02534 0
M  V30 4 C 1.911 0.928543 1.3348 0
M  V30 5 O 3.095 1.19667 1.45644 0
M  V30 6 C 0.222 2.43627 2.35294 0
M  V30 7 C -0.732 3.65373 2.2001 0
M  V30 8 S 0.101 5.13292 1.52614 0
M  V30 9 C 1.257 5.56322 2.86805 0
M  V30 10 H 1.49 2.90518 0.631377 0
M  V30 11 H -0.977 1.52953 0.210867 0
M  V30 12 H 0.981 2.67203 3.11629 0
M  V30 13 H -0.358 1.57376 2.7183 0
M  V30 14 H -1.165 3.90944 3.18086 0
M  V30 15 H -1.563 3.418 1.51819 0
M  V30 16 H 0.729 5.58782 3.83104 0
M  V30 17 H 1.672 6.56266 2.65933 0
M  V30 18 H 2.08 4.83886 2.90714 0
M  V30 19 N 1.4781 -0.272755 1.55222 0
M  V30 20 C 2.3881 -1.35918 1.91216 0
M  V30 21 C 3.4041 -1.54026 0.809436 0
M  V30 22 O 4.5801 -1.68148 1.10852 0
M  V30 23 C 1.6451 -2.69834 2.17693 0
M  V30 24 C 0.7061 -2.6047 3.41253 0
M  V30 25 C -0.0609 -3.88 3.66458 0
M  V30 26 O 0.1621 -4.88693 2.94169 0
M  V30 27 O -0.9039 -3.88189 4.59992 0
M  V30 28 H 2.9221 -1.0839 2.83699 0
M  V30 29 H 0.5071 -0.471301 1.41771 0
M  V30 30 H 2.3891 -3.49017 2.36147 0
M  V30 31 H 1.0641 -2.97148 1.28392 0
M  V30 32 H -0.0289 -1.79663 3.28134 0
M  V30 33 H 1.3041 -2.38106 4.30774 0
M  V30 34 N 2.9562 -1.48159 -0.537278 0
M  V30 35 C 4.1812 -1.59707 -1.32319 0
M  V30 36 C 4.6062 -0.254859 -1.86365 0
M  V30 37 O 3.9642 0.772378 -1.64024 0
M  V30 38 C 4.0122 -2.6412 -2.45505 0
M  V30 39 O 3.1162 -2.20774 -3.48328 0
M  V30 40 H 2.4572 -0.535791 -0.392204 0
M  V30 41 H 4.9872 -1.94092 -0.647268 0
M  V30 42 H 4.9972 -2.85166 -2.91795 0
M  V30 43 H 3.6722 -3.61567 -2.05528 0
M  V30 44 H 2.2492 -2.09911 -3.08207 0
M  V30 45 N 4.4343 0.785586 -1.36625 0
M  V30 46 C 5.8453 1.36101 -1.27803 0
M  V30 47 C 6.1963 1.96035 0.0804875 0
M  V30 48 O 5.3213 1.92834 0.982042 0
M  V30 49 C 5.9163 2.47442 -2.31426 0
M  V30 50 C 4.4753 3.00789 -2.26281 0
M  V30 51 C 3.6223 1.73896 -2.15999 0
M  V30 52 H 6.5733 0.586928 -1.47448 0
M  V30 53 H 6.5943 3.2656 -1.95291 0
M  V30 54 H 6.1063 2.03791 -3.30289 0
M  V30 55 H 4.2073 3.48851 -1.30896 0
M  V30 56 H 4.3203 3.57343 -3.19128 0
M  V30 57 H 2.6843 1.9628 -1.62316 0
M  V30 58 H 3.4673 1.32368 -3.16755 0
M  V30 59 N 5.9124 1.20967 1.01018 0
M  V30 60 C 7.1404 1.04956 1.78303 0
M  V30 61 C 7.5554 -0.400915 1.84494 0
M  V30 62 O 6.9124 -1.27826 1.30257 0
M  V30 63 C 6.9634 1.63403 3.22462 0
M  V30 64 O 6.6844 3.02775 3.16637 0
M  V30 65 C 8.1854 1.52432 4.16268 0
M  V30 66 H 5.4054 0.368858 0.560522 0
M  V30 67 H 7.9494 1.60193 1.27116 0
M  V30 68 H 6.1044 1.1227 3.70775 0
M  V30 69 H 6.5184 3.30626 4.07169 0
M  V30 70 H 7.9924 1.98078 5.15237 0
M  V30 71 H 8.4694 0.477875 4.36592 0
M  V30 72 H 9.0754 2.02787 3.73841 0
M  V30 73 N 7.3905 -1.2043 1.01659 0
M  V30 74 C 8.3375 -2.23215 0.586822 0
M  V30 75 C 9.3075 -1.61382 -0.393085 0
M  V30 76 O 10.4925 -1.88544 -0.292525 0
M  V30 77 C 7.6325 -3.45032 -0.0687464 0
M  V30 78 C 6.7455 -4.21296 0.955724 0
M  V30 79 C 5.8805 -5.30507 0.271208 0
M  V30 80 C 4.9195 -5.98515 1.28244 0
M  V30 81 N 4.0565 -6.99316 0.62459 0
M  V30 82 H 8.8965 -2.59336 1.46796 0
M  V30 83 H 6.4335 -1.27431 0.734836 0
M  V30 84 H 8.3915 -4.1459 -0.465965 0
M  V30 85 H 7.0215 -3.09604 -0.913529 0
M  V30 86 H 6.0735 -3.50803 1.4711 0
M  V30 87 H 7.3855 -4.6803 1.72479 0
M  V30 88 H 6.5395 -6.06428 -0.18151 0
M  V30 89 H 5.2785 -4.8481 -0.530163 0
M  V30 90 H 4.2835 -5.21355 1.74554 0
M  V30 91 H 5.5085 -6.46298 2.08509 0
M  V30 92 H 3.4545 -6.55812 -0.156914 0
M  V30 93 H 3.3715 -7.44178 1.33172 0
M  V30 94 H 4.6395 -7.79255 0.195462 0
M  V30 95 N 8.8686 -0.792821 -1.36206 0
M  V30 96 C 9.7786 -0.194808 -2.3379 0
M  V30 97 C 10.7946 0.654869 -1.61206 0
M  V30 98 O 11.9706 0.569856 -1.9317 0
M  V30 99 C 9.0356 0.657721 -3.40404 0
M  V30 100 C 8.0966 -0.210849 -4.28782 0
M  V30 101 C 7.3296 0.601086 -5.30304 0
M  V30 102 O 7.5526 1.83682 -5.40016 0
M  V30 103 O 6.4866 -0.000808277 -6.019 0
M  V30 104 H 10.3126 -1.00172 -2.86704 0
M  V30 105 H 7.8976 -0.554341 -1.38735 0
M  V30 106 H 9.7796 1.14375 -4.05581 0
M  V30 107 H 8.4546 1.44247 -2.89784 0
M  V30 108 H 7.3616 -0.743714 -3.66633 0
M  V30 109 H 8.6946 -0.959195 -4.82763 0
M  V30 110 N 10.3467 1.47872 -0.545128 0
M  V30 111 C 11.5957 2.01695 -0.0145033 0
M  V30 112 C 11.9087 1.42609 1.33873 0
M  V30 113 O 13.1147 1.88021 1.95858 0
M  V30 114 C 11.5707 3.59892 0.0245068 0
M  V30 115 C 11.1787 4.27966 -1.32475 0
M  V30 116 C 12.9227 4.21507 0.50316 0
M  V30 117 C 10.8297 5.78136 -1.2455 0
M  V30 118 H 9.7597 0.753998 -0.00165172 0
M  V30 119 H 12.4107 1.69985 -0.691175 0
M  V30 120 H 10.7927 3.88509 0.766575 0
M  V30 121 H 11.9667 4.11003 -2.08357 0
M  V30 122 H 10.2817 3.78286 -1.74036 0
M  V30 123 H 12.8787 5.31538 0.580656 0
M  V30 124 H 13.2217 3.87855 1.51243 0
M  V30 125 H 13.7547 3.97376 -0.183681 0
M  V30 126 H 10.4937 6.16388 -2.23039 0
M  V30 127 H 10.0137 5.97469 -0.528282 0
M  V30 128 H 11.6927 6.40099 -0.942488 0
M  V30 129 N 11.8248 0.280983 1.55075 0
M  V30 130 C 12.7348 -0.61388 2.26426 0
M  V30 131 C 13.7508 -1.16521 1.29224 0
M  V30 132 O 14.9268 -1.19426 1.62171 0
M  V30 133 C 11.9918 -1.7788 2.9759 0
M  V30 134 C 11.0528 -1.26355 4.10284 0
M  V30 135 C 10.2858 -2.37295 4.78045 0
M  V30 136 O 10.5088 -3.56777 4.45047 0
M  V30 137 O 9.4428 -2.05119 5.65871 0
M  V30 138 H 13.2688 -0.0356932 3.03679 0
M  V30 139 H 10.8538 0.0481686 1.49322 0
M  V30 140 H 12.7358 -2.45791 3.42293 0
M  V30 141 H 11.4108 -2.34397 2.23249 0
M  V30 142 H 10.3178 -0.550735 3.70024 0
M  V30 143 H 11.6508 -0.744065 4.86543 0
M  V30 144 N 13.3029 -1.57598 0.00835791 0
M  V30 145 C 14.2129 -2.12385 -0.996487 0
M  V30 146 C 15.2289 -1.07108 -1.37127 0
M  V30 147 O 16.4049 -1.39055 -1.4569 0
M  V30 148 C 13.4699 -2.62314 -2.26699 0
M  V30 149 C 12.5309 -3.82225 -1.95456 0
M  V30 150 C 11.7639 -4.29763 -3.16449 0
M  V30 151 O 11.9869 -3.76584 -4.28416 0
M  V30 152 O 10.9209 -5.21832 -2.99958 0
M  V30 153 H 14.7469 -2.98479 -0.560725 0
M  V30 154 H 12.3319 -1.47903 -0.210987 0
M  V30 155 H 14.2139 -2.94589 -3.01322 0
M  V30 156 H 12.8889 -1.79313 -2.69497 0
M  V30 157 H 11.7959 -3.54909 -1.18282 0
M  V30 158 H 13.1289 -4.66324 -1.57489 0
M  V30 159 N 14.781 0.264519 -1.55364 0
M  V30 160 C 16.028 0.994986 -1.7637 0
M  V30 161 C 16.356 1.85976 -0.5695 0
M  V30 162 O 15.611 1.90509 0.44776 0
M  V30 163 C 15.91 1.9004 -3.02687 0
M  V30 164 C 15.576 1.19243 -4.34847 0
M  V30 165 C 14.238 0.996709 -4.70764 0
M  V30 166 C 16.59 0.689296 -5.16622 0
M  V30 167 C 13.918 0.285261 -5.86006 0
M  V30 168 C 16.27 -0.00860079 -6.32599 0
M  V30 169 C 14.934 -0.215963 -6.67151 0
M  V30 170 H 14.204 0.364091 -0.645383 0
M  V30 171 H 16.851 0.266543 -1.89636 0
M  V30 172 H 15.156 2.69533 -2.84357 0
M  V30 173 H 16.853 2.46695 -3.16137 0
M  V30 174 H 13.443 1.3549 -4.06621 0
M  V30 175 H 17.627 0.828108 -4.89342 0
M  V30 176 H 12.883 0.113961 -6.11294 0
M  V30 177 H 17.057 -0.406186 -6.95214 0
M  V30 178 H 14.684 -0.769217 -7.56298 0
M  V30 179 N 16.2591 1.48442 0.529413 0
M  V30 180 C 17.1691 1.6569 1.66084 0
M  V30 181 C 18.1851 0.539432 1.65427 0
M  V30 182 O 19.3611 0.810572 1.84368 0
M  V30 183 C 16.4261 1.69315 3.02545 0
M  V30 184 C 15.4871 2.92694 3.14052 0
M  V30 185 C 14.7201 2.96137 4.44003 0
M  V30 186 O 14.9431 2.07973 5.31134 0
M  V30 187 O 13.8771 3.88312 4.59888 0
M  V30 188 H 17.7031 2.61483 1.54469 0
M  V30 189 H 15.2881 1.3185 0.702567 0
M  V30 190 H 17.1701 1.74217 3.83701 0
M  V30 191 H 15.8451 0.766966 3.14483 0
M  V30 192 H 14.7521 2.93324 2.32189 0
M  V30 193 H 16.0851 3.84699 3.0703 0
M  V30 194 N 17.7372 -0.778329 1.37039 0
M  V30 195 C 18.9622 -1.57248 1.35233 0
M  V30 196 C 19.3872 -1.87999 -0.0615568 0
M  V30 197 O 18.7452 -1.48734 -1.03672 0
M  V30 198 C 18.7932 -2.86353 2.19167 0
M  V30 199 O 17.8972 -3.80442 1.59178 0
M  V30 200 H 17.2382 -0.476569 0.462362 0
M  V30 201 H 19.7682 -0.963853 1.80474 0
M  V30 202 H 19.7782 -3.35519 2.32145 0
M  V30 203 H 18.4532 -2.63299 3.21942 0
M  V30 204 H 17.0302 -3.39067 1.55203 0
M  V30 205 N 19.2153 -1.21501 -1.00376 0
M  V30 206 C 20.1633 -0.972442 -2.11297 0
M  V30 207 C 21.1573 0.080731 -1.69208 0
M  V30 208 O 22.3633 -0.0707666 -1.79861 0
M  V30 209 H 18.7383 -0.297218 -0.690772 0
M  V30 210 H 20.7093 -1.91394 -2.28934 0
M  V30 211 C 19.4583 -0.555065 -3.43241 0
M  V30 212 H 18.7813 -1.35709 -3.76062 0
M  V30 213 H 20.2213 -0.424664 -4.21868 0
M  V30 214 C 18.6803 0.734147 -3.28804 0
M  V30 215 O 19.2103 1.78937 -3.59645 0
M  V30 216 N 17.4163 0.701133 -2.82015 0
M  V30 217 H 16.9633 -0.157874 -2.57116 0
M  V30 218 H 16.9213 1.56403 -2.72737 0
M  V30 219 N 20.6934 1.19889 -1.02296 0
M  V30 220 C 21.9184 1.9393 -0.735237 0
M  V30 221 C 22.3434 1.74639 0.698782 0
M  V30 222 O 21.7014 1.04481 1.48167 0
M  V30 223 C 21.7494 3.43916 -1.08417 0
M  V30 224 O 20.8534 4.11917 -0.199446 0
M  V30 225 H 20.1944 0.605645 -0.272196 0
M  V30 226 H 22.7244 1.52137 -1.36804 0
M  V30 227 H 22.7344 3.9456 -1.03856 0
M  V30 228 H 21.4094 3.5728 -2.12894 0
M  V30 229 H 19.9864 3.71666 -0.303136 0
M  V30 230 N 22.1715 0.800033 1.35784 0
M  V30 231 C 23.1015 0.220184 2.3246 0
M  V30 232 C 24.0825 -0.65073 1.57161 0
M  V30 233 O 25.2675 -0.582359 1.85263 0
M  V30 234 C 22.3975 -0.637353 3.41402 0
M  V30 235 C 21.3515 0.134531 4.27789 0
M  V30 236 C 20.6775 -0.844285 5.27992 0
M  V30 237 C 21.9775 1.32979 5.05088 0
M  V30 238 H 23.6715 1.02787 2.81203 0
M  V30 239 H 21.2175 0.495717 1.35199 0
M  V30 240 H 23.1705 -1.05302 4.08031 0
M  V30 241 H 21.8945 -1.47785 2.91251 0
M  V30 242 H 20.5535 0.531296 3.6273 0
M  V30 243 H 20.2015 -1.68011 4.74111 0
M  V30 244 H 19.9015 -0.332184 5.8666 0
M  V30 245 H 21.4255 -1.2583 5.97494 0
M  V30 246 H 22.8395 0.98934 5.64699 0
M  V30 247 H 21.2365 1.77593 5.7322 0
M  V30 248 H 22.3065 2.11978 4.36111 0
M  V30 249 N 23.6496 -1.47581 0.552962 0
M  V30 250 C 24.5966 -2.29957 -0.197108 0
M  V30 251 C 25.5666 -1.38799 -0.912359 0
M  V30 252 O 26.7516 -1.67761 -0.908888 0
M  V30 253 C 23.8916 -3.22672 -1.22379 0
M  V30 254 C 23.0046 -4.28919 -0.515038 0
M  V30 255 C 22.1396 -5.0879 -1.52664 0
M  V30 256 C 21.1786 -6.06815 -0.802631 0
M  V30 257 N 20.3156 -6.7966 -1.76086 0
M  V30 258 H 25.1556 -2.93578 0.511486 0
M  V30 259 H 22.6926 -1.4471 0.264067 0
M  V30 260 H 24.6506 -3.74845 -1.83159 0
M  V30 261 H 23.2806 -2.60925 -1.90047 0
M  V30 262 H 22.3326 -3.79835 0.207192 0
M  V30 263 H 23.6446 -4.98773 0.0523425 0
M  V30 264 H 22.7986 -5.65091 -2.20809 0
M  V30 265 H 21.5376 -4.38828 -2.12794 0
M  V30 266 H 20.5426 -5.49695 -0.107238 0
M  V30 267 H 21.7676 -6.78784 -0.207135 0
M  V30 268 H 19.7136 -6.12432 -2.35081 0
M  V30 269 H 19.6306 -7.45669 -1.24552 0
M  V30 270 H 20.8986 -7.40538 -2.43359 0
M  V30 271 N 25.1277 -0.289203 -1.54924 0
M  V30 272 C 26.3577 0.325989 -2.04012 0
M  V30 273 C 26.7657 1.48961 -1.1665 0
M  V30 274 O 26.1087 1.82794 -0.1822 0
M  V30 275 C 26.1707 0.856112 -3.49158 0
M  V30 276 C 25.8347 -0.180697 -4.56643 0
M  V30 277 C 26.8317 -1.0051 -5.10092 0
M  V30 278 C 24.5167 -0.318998 -5.01286 0
M  V30 279 C 26.5107 -1.95385 -6.06715 0
M  V30 280 C 24.1977 -1.27121 -5.97732 0
M  V30 281 C 25.1957 -2.08713 -6.50329 0
M  V30 282 O 24.8837 -3.02322 -7.44887 0
M  V30 283 H 24.6157 0.0765276 -0.671654 0
M  V30 284 H 27.1697 -0.423254 -2.00992 0
M  V30 285 H 25.3997 1.65567 -3.49463 0
M  V30 286 H 27.0887 1.38591 -3.81507 0
M  V30 287 H 27.8547 -0.90906 -4.76404 0
M  V30 288 H 23.7337 0.306108 -4.59983 0
M  V30 289 H 27.2777 -2.59111 -6.47694 0
M  V30 290 H 23.1747 -1.36801 -6.30837 0
M  V30 291 H 23.9427 -2.97165 -7.6265 0
M  V30 292 N 26.6058 1.57591 -0.0167156 0
M  V30 293 C 27.5358 2.12496 0.967858 0
M  V30 294 C 28.5168 1.03807 1.34752 0
M  V30 295 O 29.7018 1.31577 1.42833 0
M  V30 296 C 26.8318 2.64194 2.25431 0
M  V30 297 C 25.7858 3.77559 2.01576 0
M  V30 298 C 25.1118 4.15636 3.36379 0
M  V30 299 C 26.4118 5.04151 1.36489 0
M  V30 300 H 28.1058 2.95013 0.510643 0
M  V30 301 H 25.6518 1.41915 0.244181 0
M  V30 302 H 27.6048 3.01236 2.94678 0
M  V30 303 H 26.3288 1.78821 2.73296 0
M  V30 304 H 24.9878 3.40937 1.34751 0
M  V30 305 H 24.6358 3.27263 3.81979 0
M  V30 306 H 24.3358 4.92022 3.21229 0
M  V30 307 H 25.8598 4.5525 4.06915 0
M  V30 308 H 27.2738 5.38857 1.95718 0
M  V30 309 H 25.6708 5.85453 1.31776 0
M  V30 310 H 26.7408 4.83733 0.336219 0
M  V30 311 N 28.0839 -0.256276 1.55502 0
M  V30 312 C 29.0159 -1.33981 1.85962 0
M  V30 313 C 30.0289 -1.44743 0.745212 0
M  V30 314 O 31.2179 -1.4626 1.02324 0
M  V30 315 C 28.3179 -2.7194 2.02242 0
M  V30 316 C 27.4909 -2.83562 3.33033 0
M  V30 317 C 26.5499 -4.02304 3.39172 0
M  V30 318 O 25.5759 -3.92273 4.12444 0
M  V30 319 N 26.7779 -5.15045 2.67784 0
M  V30 320 H 29.5429 -1.08191 2.7949 0
M  V30 321 H 27.1039 -0.446388 1.55624 0
M  V30 322 H 29.0959 -3.49697 2.03701 0
M  V30 323 H 27.6659 -2.90479 1.15502 0
M  V30 324 H 26.8859 -1.92555 3.43971 0
M  V30 325 H 28.1739 -2.88271 4.19258 0
M  V30 326 H 27.5719 -5.26085 2.07968 0
M  V30 327 H 26.1289 -5.90972 2.74947 0
M  V30 328 N 29.562 -1.4872 -0.521534 0
M  V30 329 C 30.973 -1.50607 -1.10337 0
M  V30 330 C 31.324 -0.280612 -1.94183 0
M  V30 331 O 30.449 0.611507 -2.0758 0
M  V30 332 C 31.044 -2.72903 -2.00772 0
M  V30 333 C 29.603 -2.77634 -2.54158 0
M  V30 334 C 28.75 -2.44241 -1.31307 0
M  V30 335 H 31.701 -1.55714 -0.306388 0
M  V30 336 H 31.722 -2.519 -2.85178 0
M  V30 337 H 31.234 -3.62077 -1.39721 0
M  V30 338 H 29.335 -1.92689 -3.18907 0
M  V30 339 H 29.448 -3.79283 -2.92714 0
M  V30 340 H 27.812 -1.95577 -1.63161 0
M  V30 341 H 28.595 -3.35666 -0.719943 0
M  V30 342 N 31.0401 0.771051 -1.3745 0
M  V30 343 C 31.9501 1.91538 -1.35464 0
M  V30 344 C 32.9661 1.72134 -0.254123 0
M  V30 345 O 34.1421 1.95358 -0.489626 0
M  V30 346 C 31.2071 3.26671 -1.16134 0
M  V30 347 C 30.2681 3.58723 -2.35831 0
M  V30 348 C 29.5011 4.87409 -2.17413 0
M  V30 349 O 29.7241 5.58506 -1.15876 0
M  V30 350 O 28.6581 5.18539 -3.05615 0
M  V30 351 H 32.4841 1.96165 -2.31847 0
M  V30 352 H 30.0691 0.9139 -1.18187 0
M  V30 353 H 31.9511 4.07499 -1.07345 0
M  V30 354 H 30.6261 3.22894 -0.228251 0
M  V30 355 H 29.5331 2.78127 -2.50192 0
M  V30 356 H 30.8661 3.67243 -3.27709 0
M  V30 357 N 32.5182 1.22032 0.997298 0
M  V30 358 C 33.4502 0.944263 2.08845 0
M  V30 359 C 34.4632 -0.0754663 1.62625 0
M  V30 360 O 35.6522 0.157994 1.77799 0
M  V30 361 C 32.7522 0.397723 3.36558 0
M  V30 362 C 31.9252 1.47362 4.11829 0
M  V30 363 C 30.9842 0.934951 5.17827 0
M  V30 364 O 30.0102 1.62016 5.45655 0
M  V30 365 N 31.2122 -0.245895 5.79979 0
M  V30 366 H 33.9772 1.88363 2.33109 0
M  V30 367 H 31.5382 1.12661 1.16272 0
M  V30 368 H 33.5302 0.0227771 4.04694 0
M  V30 369 H 32.1002 -0.446646 3.09393 0
M  V30 370 H 31.3202 2.02208 3.38386 0
M  V30 371 H 32.6082 2.19764 4.58891 0
M  V30 372 H 32.0062 -0.819475 5.59733 0
M  V30 373 H 30.5632 -0.562272 6.4937 0
M  V30 374 N 33.9963 -1.19345 1.0293 0
M  V30 375 C 35.2453 -1.88363 0.721256 0
M  V30 376 C 35.5583 -1.80514 -0.753254 0
M  V30 377 O 36.7643 -2.44788 -1.17436 0
M  V30 378 C 35.2203 -3.37872 1.23978 0
M  V30 379 C 34.8283 -3.54278 2.74211 0
M  V30 380 C 36.5723 -4.12365 1.00775 0
M  V30 381 C 34.4793 -4.97682 3.19479 0
M  V30 382 H 33.4093 -0.705484 0.266098 0
M  V30 383 H 36.0603 -1.34928 1.24365 0
M  V30 384 H 34.4423 -3.90707 0.6453 0
M  V30 385 H 35.6163 -3.11769 3.39318 0
M  V30 386 H 33.9313 -2.93174 2.95699 0
M  V30 387 H 36.5283 -5.18119 1.32123 0
M  V30 388 H 36.8713 -4.16263 -0.0554308 0
M  V30 389 H 37.4043 -3.65668 1.56625 0
M  V30 390 H 34.1433 -4.98945 4.25128 0
M  V30 391 H 33.6633 -5.4095 2.591 0
M  V30 392 H 35.3423 -5.66337 3.12845 0
M  V30 393 N 35.4744 -0.807222 -1.35358 0
M  V30 394 C 36.3844 -0.219594 -2.3357 0
M  V30 395 C 37.4004 0.637734 -1.61892 0
M  V30 396 O 38.5764 0.549336 -1.93763 0
M  V30 397 C 35.6414 0.62158 -3.41083 0
M  V30 398 C 34.7024 -0.256315 -4.28534 0
M  V30 399 C 33.9354 0.544807 -5.30912 0
M  V30 400 O 34.1584 1.77944 -5.41934 0
M  V30 401 O 33.0924 -0.0646478 -6.01865 0
M  V30 402 H 36.9184 -1.03208 -2.85625 0
M  V30 403 H 34.5034 -0.569025 -1.38139 0
M  V30 404 H 36.3854 1.10067 -4.06772 0
M  V30 405 H 35.0604 1.41165 -2.91297 0
M  V30 406 H 33.9674 -0.782559 -3.65823 0
M  V30 407 H 35.3004 -1.01034 -4.81719 0
M  V30 408 N 36.9525 1.47285 -0.560781 0
M  V30 409 C 37.8995 2.30058 0.18491 0
M  V30 410 C 38.8695 1.39281 0.904986 0
M  V30 411 O 40.0545 1.68241 0.899979 0
M  V30 412 C 37.1945 3.23317 1.20666 0
M  V30 413 C 36.3075 4.29186 0.492285 0
M  V30 414 C 35.4425 5.09592 1.49964 0
M  V30 415 C 34.4815 6.07232 0.770439 0
M  V30 416 N 33.6185 6.80584 1.72479 0
M  V30 417 H 38.4585 2.93302 -0.527048 0
M  V30 418 H 35.9955 1.44568 -0.271738 0
M  V30 419 H 37.9535 3.75811 1.81168 0
M  V30 420 H 36.5835 2.61929 1.88661 0
M  V30 421 H 35.6355 3.7972 -0.227333 0
M  V30 422 H 36.9475 4.98738 -0.0787929 0
M  V30 423 H 36.1015 5.66254 2.17809 0
M  V30 424 H 34.8405 4.3995 2.10464 0
M  V30 425 H 33.8455 5.49745 0.0780846 0
M  V30 426 H 35.0705 6.78884 0.171134 0
M  V30 427 H 33.0165 6.1367 2.3183 0
M  V30 428 H 32.9335 7.46319 1.20596 0
M  V30 429 H 34.2015 7.41818 2.39428 0
M  V30 430 N 38.4306 0.297415 1.54768 0
M  V30 431 C 39.6796 -0.313669 1.99246 0
M  V30 432 C 39.9926 -1.55281 1.18942 0
M  V30 433 O 41.1986 -2.23825 1.5367 0
M  V30 434 C 39.6546 -0.609407 3.54703 0
M  V30 435 C 39.2626 0.611192 4.43811 0
M  V30 436 C 41.0066 -1.18188 4.07715 0
M  V30 437 C 38.9136 0.288805 5.90694 0
M  V30 438 H 37.8436 -0.120979 0.744231 0
M  V30 439 H 40.4946 0.40556 1.78962 0
M  V30 440 H 38.8766 -1.38813 3.70873 0
M  V30 441 H 40.0506 1.3875 4.39414 0
M  V30 442 H 38.3656 1.10205 4.01552 0
M  V30 443 H 40.9626 -1.43727 5.15021 0
M  V30 444 H 41.3056 -2.12299 3.58099 0
M  V30 445 H 41.8386 -0.464944 3.95074 0
M  V30 446 H 38.5776 1.19838 6.44453 0
M  V30 447 H 38.0976 -0.450305 5.98107 0
M  V30 448 H 39.7766 -0.110933 6.46905 0
M  V30 449 N 39.9087 -1.5758 0.0250728 0
M  V30 450 C 41.1547 -1.92746 -0.649648 0
M  V30 451 C 41.5097 -0.901588 -1.69968 0
M  V30 452 O 40.8027 0.0829251 -1.9142 0
M  V30 453 C 40.9967 -3.32421 -1.31268 0
M  V30 454 C 40.8257 -4.48499 -0.328394 0
M  V30 455 C 39.5957 -5.05251 0.070284 0
M  V30 456 C 41.7937 -5.12618 0.415665 0
M  V30 457 N 39.7757 -6.04851 1.05016 0
M  V30 458 C 41.1467 -6.0728 1.24943 0
M  V30 459 C 43.2017 -4.95612 0.476803 0
M  V30 460 C 41.9047 -6.86766 2.1388 0
M  V30 461 C 43.9307 -5.75703 1.3535 0
M  V30 462 C 43.2927 -6.69978 2.17504 0
M  V30 463 H 39.3917 -0.753231 -0.210159 0
M  V30 464 H 41.9757 -1.94486 0.0912999 0
M  V30 465 H 40.1467 -3.31508 -2.02379 0
M  V30 466 H 41.8787 -3.54946 -1.94411 0
M  V30 467 H 38.6337 -4.72628 -0.303323 0
M  V30 468 H 39.0577 -6.5934 1.53622 0
M  V30 469 H 43.6997 -4.22554 -0.144105 0
M  V30 470 H 41.4177 -7.59132 2.77027 0
M  V30 471 H 45.0037 -5.64579 1.40504 0
M  V30 472 H 43.8837 -7.30873 2.84244 0
M  V30 473 N 41.3868 0.248026 -1.55636 0
M  V30 474 C 42.3168 1.31079 -1.93237 0
M  V30 475 C 43.2978 1.50264 -0.797174 0
M  V30 476 O 44.4828 1.62891 -1.05737 0
M  V30 477 C 41.6128 2.66575 -2.22609 0
M  V30 478 C 40.5668 2.62087 -3.3837 0
M  V30 479 C 39.8928 4.01369 -3.53281 0
M  V30 480 C 41.1928 2.19171 -4.7409 0
M  V30 481 H 42.8868 0.998556 -2.82257 0
M  V30 482 H 40.4328 0.47891 -1.35803 0
M  V30 483 H 42.3858 3.41057 -2.47503 0
M  V30 484 H 41.1098 2.99432 -1.30414 0
M  V30 485 H 39.7688 1.90063 -3.13483 0
M  V30 486 H 39.4168 4.31489 -2.58508 0
M  V30 487 H 39.1168 3.99254 -4.31127 0
M  V30 488 H 40.6408 4.77552 -3.80495 0
M  V30 489 H 42.0548 2.83384 -4.98363 0
M  V30 490 H 40.4518 2.2817 -5.5503 0
M  V30 491 H 41.5218 1.14336 -4.71227 0
M  V30 492 N 42.8649 1.48995 0.513639 0
M  V30 493 C 44.2809 1.35478 0.843682 0
M  V30 494 C 44.4809 0.378213 1.97919 0
M  V30 495 O 43.5369 -0.194689 2.51748 0
M  V30 496 C 44.8499 2.75901 1.1958 0
M  V30 497 C 46.3979 2.84509 1.30474 0
M  V30 498 C 46.8729 4.25671 1.69021 0
M  V30 499 N 48.3639 4.28422 1.76094 0
M  V30 500 C 49.0989 5.34601 2.07338 0
M  V30 501 N 48.5949 6.5104 2.36894 0
M  V30 502 N 50.3879 5.22007 2.08483 0
M  V30 503 H 42.5389 2.11092 -0.235328 0
M  V30 504 H 44.8019 0.947039 -0.0426669 0
M  V30 505 H 44.5079 3.49001 0.434913 0
M  V30 506 H 44.3819 3.10467 2.1422 0
M  V30 507 H 46.7689 2.11655 2.05637 0
M  V30 508 H 46.8499 2.53542 0.339155 0
M  V30 509 H 46.4939 4.99048 0.944135 0
M  V30 510 H 46.4239 4.54094 2.66658 0
M  V30 511 H 48.9149 3.44441 1.55464 0
M  V30 512 H 49.2279 7.2779 2.59887 0
M  V30 513 H 47.5729 6.54287 2.34378 0
M  V30 514 H 50.7639 4.30051 1.84861 0
M  V30 515 H 50.9369 6.04854 2.325 0
M  V30 516 N 44.343 -0.763751 1.37857 0
M  V30 517 C 45.273 -1.89103 1.36975 0
M  V30 518 C 46.254 -1.68439 0.237152 0
M  V30 519 O 47.439 -1.8918 0.438713 0
M  V30 520 C 44.569 -3.26496 1.18395 0
M  V30 521 C 43.523 -3.61741 2.28751 0
M  V30 522 C 42.849 -4.97762 1.95286 0
M  V30 523 C 44.149 -3.67665 3.70972 0
M  V30 524 H 45.843 -1.90099 2.31307 0
M  V30 525 H 43.389 -0.91319 1.11341 0
M  V30 526 H 45.342 -4.05003 1.16406 0
M  V30 527 H 44.066 -3.25955 0.205215 0
M  V30 528 H 42.725 -2.85547 2.29909 0
M  V30 529 H 42.373 -4.93769 0.959221 0
M  V30 530 H 42.073 -5.22313 2.69189 0
M  V30 531 H 43.597 -5.7866 1.94898 0
M  V30 532 H 45.011 -4.36307 3.719 0
M  V30 533 H 43.408 -4.03718 4.43995 0
M  V30 534 H 44.478 -2.68134 4.0402 0
M  V30 535 N 45.8211 -1.22559 -0.990812 0
M  V30 536 C 47.2371 -0.985996 -1.255 0
M  V30 537 C 47.4371 0.319173 -1.98956 0
M  V30 538 O 46.4931 1.04127 -2.3003 0
M  V30 539 C 47.8061 -2.18607 -2.06474 0
M  V30 540 C 49.3541 -2.22985 -2.19651 0
M  V30 541 C 49.8291 -3.4255 -3.04012 0
M  V30 542 N 51.3201 -3.42725 -3.11599 0
M  V30 543 C 52.0551 -4.31892 -3.7717 0
M  V30 544 N 51.5511 -5.31279 -4.44651 0
M  V30 545 N 53.3441 -4.19662 -3.73952 0
M  V30 546 H 45.4951 -2.06469 -0.49841 0
M  V30 547 H 47.7581 -0.904853 -0.282747 0
M  V30 548 H 47.4641 -3.13267 -1.59865 0
M  V30 549 H 47.3381 -2.18838 -3.07229 0
M  V30 550 H 49.7251 -1.28871 -2.65474 0
M  V30 551 H 49.8061 -2.26791 -1.18319 0
M  V30 552 H 49.4501 -4.36965 -2.58889 0
M  V30 553 H 49.3801 -3.35984 -4.0549 0
M  V30 554 H 51.8711 -2.70807 -2.63575 0
M  V30 555 H 52.1841 -5.95593 -4.92431 0
M  V30 556 H 50.5291 -5.3519 -4.43392 0
M  V30 557 H 53.7201 -3.41268 -3.20396 0
M  V30 558 H 53.8931 -4.89358 -4.24774 0
M  V30 559 N 47.2992 1.18797 -1.03562 0
M  V30 560 C 48.5472 1.88278 -0.734569 0
M  V30 561 C 48.8682 1.8043 0.739586 0
M  V30 562 O 48.1382 1.21925 1.53333 0
M  V30 563 H 46.7182 0.696991 -0.268725 0
M  V30 564 H 49.3802 1.44192 -1.31129 0
M  V30 565 H 48.4762 2.94443 -1.03489 0
M  V30 566 N 48.7773 0.814389 1.34928 0
M  V30 567 C 49.7073 0.244827 2.32213 0
M  V30 568 C 50.6883 -0.634024 1.57842 0
M  V30 569 O 51.8733 -0.562676 1.8587 0
M  V30 570 C 49.0033 -0.601106 3.42058 0
M  V30 571 C 47.9573 0.179896 4.27622 0
M  V30 572 C 47.2833 -0.788237 5.28858 0
M  V30 573 C 48.5833 1.38329 5.03649 0
M  V30 574 H 50.2773 1.05763 2.80097 0
M  V30 575 H 47.8233 0.510029 1.34665 0
M  V30 576 H 49.7763 -1.00968 4.09125 0
M  V30 577 H 48.5003 -1.44688 2.92802 0
M  V30 578 H 47.1593 0.569739 3.62146 0
M  V30 579 H 46.8073 -1.62973 4.75866 0
M  V30 580 H 46.5073 -0.269942 5.8698 0
M  V30 581 H 48.0313 -1.19485 5.98795 0
M  V30 582 H 49.4453 1.04918 5.63618 0
M  V30 583 H 47.8423 1.83662 5.71304 0
M  V30 584 H 48.9123 2.16592 4.33839 0
M  V30 585 N 50.2554 -1.46986 0.568584 0
M  V30 586 C 51.6714 -1.57946 0.229189 0
M  V30 587 C 51.8714 -1.56567 -1.26843 0
M  V30 588 O 50.9274 -1.47511 -2.04931 0
M  V30 589 C 52.2404 -2.87963 0.865909 0
M  V30 590 C 53.7884 -3.01568 0.838188 0
M  V30 591 C 54.2634 -4.34301 1.45419 0
M  V30 592 N 55.7544 -4.40965 1.41788 0
M  V30 593 C 56.4894 -5.42256 1.86403 0
M  V30 594 N 55.9854 -6.50297 2.38926 0
M  V30 595 N 57.7784 -5.3337 1.77405 0
M  V30 596 H 49.9294 -1.46126 1.54146 0
M  V30 597 H 52.1924 -0.696156 0.643484 0
M  V30 598 H 51.8984 -2.94742 1.91886 0
M  V30 599 H 51.7724 -3.75423 0.365687 0
M  V30 600 H 54.1594 -2.94379 -0.206106 0
M  V30 601 H 54.2404 -2.1562 1.37629 0
M  V30 602 H 53.8844 -4.42247 2.49761 0
M  V30 603 H 53.8144 -5.19 0.891435 0
M  V30 604 H 56.3054 -3.63484 1.03381 0
M  V30 605 H 56.6184 -7.23777 2.70863 0
M  V30 606 H 54.9634 -6.51155 2.42944 0
M  V30 607 H 58.1544 -4.47865 1.3614 0
M  V30 608 H 58.3274 -6.12169 2.12492 0
M  V30 609 N 51.7335 -0.305618 -1.54608 0
M  V30 610 C 52.6805 0.568421 -2.23691 0
M  V30 611 C 53.6505 1.12592 -1.22116 0
M  V30 612 O 54.8355 1.16959 -1.50749 0
M  V30 613 C 51.9755 1.7322 -2.98477 0
M  V30 614 C 51.0885 1.20566 -4.14835 0
M  V30 615 C 50.2235 2.33368 -4.77193 0
M  V30 616 C 49.2625 1.7787 -5.85686 0
M  V30 617 N 48.3995 2.84263 -6.4198 0
M  V30 618 H 53.2395 -0.0272867 -2.97988 0
M  V30 619 H 50.7765 -0.0252363 -1.47078 0
M  V30 620 H 52.7345 2.41675 -3.40072 0
M  V30 621 H 51.3645 2.29947 -2.26548 0
M  V30 622 H 50.4165 0.413223 -3.78149 0
M  V30 623 H 51.7285 0.759417 -4.92985 0
M  V30 624 H 50.8825 3.09761 -5.21664 0
M  V30 625 H 49.6215 2.8132 -3.98385 0
M  V30 626 H 48.6265 0.99968 -5.40635 0
M  V30 627 H 49.8515 1.30816 -6.66381 0
M  V30 628 H 47.7975 3.31541 -5.66053 0
M  V30 629 H 47.7145 2.44149 -7.15491 0
M  V30 630 H 48.9825 3.6054 -6.91109 0
M  V30 631 N 53.2116 1.57565 -0.0334293 0
M  V30 632 C 54.4416 1.95996 0.653398 0
M  V30 633 C 54.8496 0.908749 1.65947 0
M  V30 634 O 54.1926 -0.117471 1.83324 0
M  V30 635 C 54.2546 3.30589 1.41249 0
M  V30 636 C 53.9186 4.53503 0.564263 0
M  V30 637 C 54.9156 5.19647 -0.16225 0
M  V30 638 C 52.6006 4.99801 0.500398 0
M  V30 639 C 54.5946 6.30412 -0.941255 0
M  V30 640 C 52.2816 6.10448 -0.282308 0
M  V30 641 C 53.2796 6.75612 -1.00184 0
M  V30 642 O 52.9676 7.84134 -1.77171 0
M  V30 643 H 52.6996 0.65027 0.184728 0
M  V30 644 H 55.2536 2.05199 -0.0907841 0
M  V30 645 H 53.4836 3.17888 2.20191 0
M  V30 646 H 55.1726 3.53892 1.98784 0
M  V30 647 H 55.9386 4.84846 -0.12227 0
M  V30 648 H 51.8176 4.48883 1.05002 0
M  V30 649 H 55.3616 6.81208 -1.50339 0
M  V30 650 H 51.2586 6.44686 -0.323989 0
M  V30 651 H 52.0266 8.00822 -1.69194 0
M  V30 652 N 54.6897 -0.239769 1.55765 0
M  V30 653 C 55.6367 -1.29696 1.90913 0
M  V30 654 C 56.6067 -1.47478 0.764164 0
M  V30 655 O 57.7917 -1.61345 1.01845 0
M  V30 656 C 54.9317 -2.64598 2.21544 0
M  V30 657 C 54.0447 -2.54765 3.48882 0
M  V30 658 C 53.1797 -3.82069 3.69049 0
M  V30 659 C 52.2187 -3.66883 4.89963 0
M  V30 660 N 51.3557 -4.86094 5.06614 0
M  V30 661 H 56.1957 -0.990224 2.81067 0
M  V30 662 H 53.7327 -0.477684 1.39128 0
M  V30 663 H 55.6907 -3.43132 2.3731 0
M  V30 664 H 54.3207 -2.93405 1.34585 0
M  V30 665 H 53.3727 -1.67763 3.41409 0
M  V30 666 H 54.6847 -2.39457 4.37563 0
M  V30 667 H 53.8387 -4.69046 3.84812 0
M  V30 668 H 52.5777 -4.00282 2.78614 0
M  V30 669 H 51.5827 -2.78289 4.74168 0
M  V30 670 H 52.8077 -3.50157 5.81865 0
M  V30 671 H 50.7537 -5.04655 4.19117 0
M  V30 672 H 50.6707 -4.73443 5.89396 0
M  V30 673 H 51.9387 -5.74549 5.26795 0
M  V30 674 N 56.1678 -1.49265 -0.50573 0
M  V30 675 C 57.1148 -1.65585 -1.6078 0
M  V30 676 C 58.0848 -0.497396 -1.58478 0
M  V30 677 O 59.2698 -0.72385 -1.76536 0
M  V30 678 C 56.4098 -1.72408 -2.98948 0
M  V30 679 C 55.5228 -2.99525 -3.11301 0
M  V30 680 C 54.6578 -2.97356 -4.40174 0
M  V30 681 C 53.6968 -4.19074 -4.46143 0
M  V30 682 N 52.8338 -4.14841 -5.66437 0
M  V30 683 H 57.6738 -2.59688 -1.46172 0
M  V30 684 H 55.2108 -1.28761 -0.711261 0
M  V30 685 H 57.1688 -1.74344 -3.79025 0
M  V30 686 H 55.7988 -0.817753 -3.1227 0
M  V30 687 H 54.8508 -3.07222 -2.24318 0
M  V30 688 H 56.1628 -3.89518 -3.11572 0
M  V30 689 H 55.3168 -2.97829 -5.28567 0
M  V30 690 H 54.0558 -2.05133 -4.42461 0
M  V30 691 H 53.0608 -4.1885 -3.56153 0
M  V30 692 H 54.2858 -5.12483 -4.45575 0
M  V30 693 H 52.2318 -3.25453 -5.69575 0
M  V30 694 H 52.1488 -4.98564 -5.68304 0
M  V30 695 H 53.4168 -4.1941 -6.57051 0
M  V30 696 N 57.6459 0.756429 -1.3826 0
M  V30 697 C 58.8739 1.54565 -1.3754 0
M  V30 698 C 59.2889 1.88767 0.0355331 0
M  V30 699 O 58.6459 1.52572 1.0014 0
M  V30 700 C 58.6969 2.84654 -2.22833 0
M  V30 701 O 58.4179 2.51912 -3.5843 0
M  V30 702 C 59.9189 3.78807 -2.30261 0
M  V30 703 H 57.1389 0.478353 -0.470553 0
M  V30 704 H 59.6829 0.936381 -1.81803 0
M  V30 705 H 57.8379 3.41965 -1.8204 0
M  V30 706 H 58.2519 3.35325 -4.03308 0
M  V30 707 H 59.7259 4.67045 -2.94233 0
M  V30 708 H 60.2029 4.19038 -1.31545 0
M  V30 709 H 60.8089 3.2742 -2.71433 0
M  V30 710 N 59.124 1.23083 0.984299 0
M  V30 711 C 60.349 1.088 1.76571 0
M  V30 712 C 60.774 -0.356657 1.84688 0
M  V30 713 O 60.132 -1.25788 1.30565 0
M  V30 714 C 60.18 1.71371 3.17277 0
M  V30 715 O 59.284 0.973213 4.00752 0
M  V30 716 H 58.625 0.381599 0.543395 0
M  V30 717 H 61.155 1.63057 1.23587 0
M  V30 718 H 61.165 1.76449 3.67872 0
M  V30 719 H 59.84 2.76493 3.10684 0
M  V30 720 H 58.417 0.999078 3.59267 0
M  V30 721 N 60.6021 -1.18246 1.0419 0
M  V30 722 C 61.5341 -2.2142 0.592088 0
M  V30 723 C 62.5471 -1.59233 -0.338909 0
M  V30 724 O 63.7361 -1.78002 -0.133231 0
M  V30 725 C 60.8361 -3.38546 -0.154854 0
M  V30 726 C 60.0091 -4.3031 0.784328 0
M  V30 727 C 59.0681 -5.26138 0.0804583 0
M  V30 728 O 58.0941 -5.64738 0.711292 0
M  V30 729 N 59.2961 -5.68261 -1.18574 0
M  V30 730 H 62.0611 -2.60636 1.47949 0
M  V30 731 H 59.6221 -1.33044 0.922544 0
M  V30 732 H 61.6141 -3.99678 -0.635606 0
M  V30 733 H 60.1841 -2.98012 -0.943811 0
M  V30 734 H 59.4041 -3.66764 1.44491 0
M  V30 735 H 60.6921 -4.8852 1.42218 0
M  V30 736 H 60.0901 -5.38957 -1.71876 0
M  V30 737 H 58.6471 -6.31584 -1.61074 0
M  V30 738 N 62.0802 -0.821533 -1.34494 0
M  V30 739 C 63.4962 -0.507117 -1.51329 0
M  V30 740 C 63.6962 0.968964 -1.76673 0
M  V30 741 O 62.7522 1.75348 -1.81685 0
M  V30 742 C 64.0652 -1.36544 -2.67911 0
M  V30 743 C 65.6132 -1.36242 -2.81793 0
M  V30 744 C 66.0882 -2.2052 -4.01416 0
M  V30 745 N 67.5792 -2.18136 -4.08621 0
M  V30 746 C 68.3142 -2.80095 -5.00334 0
M  V30 747 N 67.8102 -3.51039 -5.9728 0
M  V30 748 N 69.6032 -2.69656 -4.93196 0
M  V30 749 H 61.7542 -1.77729 -1.16302 0
M  V30 750 H 64.0172 -0.757291 -0.570276 0
M  V30 751 H 63.7232 -2.41361 -2.55808 0
M  V30 752 H 63.5972 -1.02917 -3.62888 0
M  V30 753 H 65.9842 -0.322041 -2.93338 0
M  V30 754 H 66.0652 -1.73866 -1.87628 0
M  V30 755 H 65.7092 -3.24607 -3.90631 0
M  V30 756 H 65.6392 -1.80247 -4.94791 0
M  V30 757 H 68.1302 -1.6653 -3.39229 0
M  V30 758 H 68.4432 -3.95565 -6.63889 0
M  V30 759 H 66.7882 -3.55145 -5.97409 0
M  V30 760 H 69.9792 -2.13808 -4.16418 0
M  V30 761 H 70.1522 -3.1823 -5.64476 0
M  V30 762 N 63.5583 1.46682 -0.576371 0
M  V30 763 C 64.4883 2.33028 0.148397 0
M  V30 764 C 65.4693 1.44961 0.889956 0
M  V30 765 O 66.6543 1.73789 0.866662 0
M  V30 766 C 63.7843 3.27117 1.1667 0
M  V30 767 C 62.7383 4.24575 0.540386 0
M  V30 768 C 62.0643 5.08126 1.6647 0
M  V30 769 C 63.3643 5.19722 -0.518331 0
M  V30 770 H 65.0583 2.93875 -0.572509 0
M  V30 771 H 62.6043 1.41315 -0.276768 0
M  V30 772 H 64.5573 3.86374 1.68204 0
M  V30 773 H 63.2813 2.64364 1.9178 0
M  V30 774 H 61.9403 3.66571 0.0461769 0
M  V30 775 H 61.5883 4.41762 2.40531 0
M  V30 776 H 61.2883 5.74122 1.25131 0
M  V30 777 H 62.8123 5.70246 2.18293 0
M  V30 778 H 64.2263 5.73232 -0.0883058 0
M  V30 779 H 62.6233 5.94026 -0.851679 0
M  V30 780 H 63.6933 4.64037 -1.40703 0
M  V30 781 N 65.0364 0.313813 1.54444 0
M  V30 782 C 66.4524 -0.0391619 1.59552 0
M  V30 783 C 66.6524 -1.51322 1.33056 0
M  V30 784 O 65.7084 -2.26782 1.11022 0
M  V30 785 C 67.0214 0.370302 2.98411 0
M  V30 786 C 68.5694 0.320139 3.11358 0
M  V30 787 C 69.0444 0.704617 4.52547 0
M  V30 788 N 70.5354 0.657645 4.58508 0
M  V30 789 C 71.2704 0.927453 5.6585 0
M  V30 790 N 70.7664 1.26389 6.81174 0
M  V30 791 N 72.5594 0.853662 5.5558 0
M  V30 792 H 64.7104 1.27433 1.69925 0
M  V30 793 H 66.9734 0.517511 0.794284 0
M  V30 794 H 66.6794 1.39694 3.22767 0
M  V30 795 H 66.5534 -0.269619 3.76235 0
M  V30 796 H 68.9404 -0.697275 2.86744 0
M  V30 797 H 69.0214 0.99486 2.35661 0
M  V30 798 H 68.6654 1.7199 4.77893 0
M  V30 799 H 68.5954 0.00768843 5.26599 0
M  V30 800 H 71.0864 0.409067 3.75679 0
M  V30 801 H 71.3994 1.4554 7.58972 0
M  V30 802 H 69.7444 1.30206 6.82694 0
M  V30 803 H 72.9354 0.590383 4.64362 0
M  V30 804 H 73.1084 1.0673 6.3915 0
M  V30 805 N 66.5145 -1.57545 0.0417849 0
M  V30 806 C 67.7395 -1.97035 -0.647455 0
M  V30 807 C 68.1645 -0.918775 -1.64135 0
M  V30 808 O 67.5225 0.119006 -1.80909 0
M  V30 809 C 67.5705 -3.35609 -1.31905 0
M  V30 810 O 66.6745 -3.3287 -2.43457 0
M  V30 811 H 66.0155 -0.64211 -0.169086 0
M  V30 812 H 68.5455 -2.04318 0.107399 0
M  V30 813 H 68.5555 -3.72126 -1.67291 0
M  V30 814 H 67.2305 -4.11685 -0.590586 0
M  V30 815 H 65.8075 -3.08087 -2.10088 0
M  V30 816 N 67.9926 0.231505 -1.5589 0
M  V30 817 C 68.9226 1.29022 -1.94617 0
M  V30 818 C 69.9036 1.4941 -0.813067 0
M  V30 819 O 71.0886 1.6176 -1.07459 0
M  V30 820 C 68.2186 2.64199 -2.25424 0
M  V30 821 C 67.1726 2.58484 -3.41131 0
M  V30 822 C 66.4986 3.97599 -3.57518 0
M  V30 823 C 67.7986 2.1413 -4.76388 0
M  V30 824 H 69.4926 0.968563 -2.83301 0
M  V30 825 H 67.0386 0.464479 -1.36303 0
M  V30 826 H 68.9916 3.38413 -2.51107 0
M  V30 827 H 67.7156 2.98032 -1.33583 0
M  V30 828 H 66.3746 1.86727 -3.15481 0
M  V30 829 H 66.0226 4.28723 -2.6307 0
M  V30 830 H 65.7226 3.94659 -4.35337 0
M  V30 831 H 67.2466 4.7349 -3.85538 0
M  V30 832 H 68.6606 2.78083 -5.01341 0
M  V30 833 H 67.0576 2.2227 -5.57419 0
M  V30 834 H 68.1276 1.09331 -4.72414 0
M  V30 835 N 69.4707 1.49531 0.497807 0
M  V30 836 C 70.7167 1.59415 1.25358 0
M  V30 837 C 71.0497 0.281422 1.9215 0
M  V30 838 O 70.3247 -0.715249 1.80871 0
M  V30 839 C 70.6077 2.75566 2.3181 0
M  V30 840 C 70.4607 4.16642 1.69498 0
M  V30 841 C 71.7797 2.87347 3.33346 0
M  V30 842 H 68.8987 0.580244 0.454408 0
M  V30 843 H 71.5407 1.81827 0.551262 0
M  V30 844 H 69.6907 2.56587 2.91711 0
M  V30 845 H 71.3627 4.47145 1.13399 0
M  V30 846 H 69.6057 4.22141 0.998978 0
M  V30 847 H 70.2767 4.93792 2.46725 0
M  V30 848 H 72.7527 3.04634 2.83438 0
M  V30 849 H 71.6287 3.70289 4.05188 0
M  V30 850 H 71.8897 1.96834 3.95865 0
M  V30 851 N 70.9488 -0.749086 1.3866 0
M  V30 852 C 71.8958 -1.86291 1.36251 0
M  V30 853 C 72.8658 -1.64578 0.224347 0
M  V30 854 O 74.0508 -1.86181 0.417279 0
M  V30 855 C 71.1908 -3.23644 1.19786 0
M  V30 856 C 70.3038 -3.57158 2.43027 0
M  V30 857 C 69.4388 -4.83838 2.19258 0
M  V30 858 C 68.4778 -5.10152 3.38247 0
M  V30 859 N 67.6148 -6.28029 3.13884 0
M  V30 860 H 72.4548 -1.87685 2.3147 0
M  V30 861 H 69.9918 -0.917287 1.14997 0
M  V30 862 H 71.9498 -4.0291 1.08254 0
M  V30 863 H 70.5798 -3.21566 0.282031 0
M  V30 864 H 69.6318 -2.72701 2.65214 0
M  V30 865 H 70.9438 -3.7253 3.31697 0
M  V30 866 H 70.0978 -5.71057 2.04888 0
M  V30 867 H 68.8368 -4.70614 1.2796 0
M  V30 868 H 67.8418 -4.21401 3.53131 0
M  V30 869 H 69.0668 -5.25271 4.30427 0
M  V30 870 H 67.0128 -6.1612 2.25238 0
M  V30 871 H 66.9298 -6.43922 3.96106 0
M  V30 872 H 68.1978 -7.18124 3.03179 0
M  V30 873 N 72.4269 -1.23603 -0.977757 0
M  V30 874 C 73.3589 -0.977369 -2.07317 0
M  V30 875 C 74.3719 0.0495845 -1.62724 0
M  V30 876 O 75.5609 -0.186261 -1.77526 0
M  V30 877 C 72.6609 -0.451216 -3.35883 0
M  V30 878 C 71.8339 -1.53896 -4.09432 0
M  V30 879 C 70.8929 -1.01721 -5.16274 0
M  V30 880 O 69.9189 -1.70676 -5.43009 0
M  V30 881 N 71.1209 0.153594 -5.80297 0
M  V30 882 H 73.8859 -1.92047 -2.30082 0
M  V30 883 H 71.4469 -1.14497 -1.14465 0
M  V30 884 H 73.4389 -0.0871574 -4.04606 0
M  V30 885 H 72.0089 0.397368 -3.10064 0
M  V30 886 H 71.2289 -2.07566 -3.35127 0
M  V30 887 H 72.5169 -2.27037 -4.55337 0
M  V30 888 H 71.9149 0.730323 -5.60966 0
M  V30 889 H 70.4719 0.458892 -6.50183 0
M  V30 890 N 73.905 1.17692 -1.04816 0
M  V30 891 C 74.835 2.23777 -0.666791 0
M  V30 892 C 75.816 1.66796 0.33361 0
M  V30 893 O 77.001 1.93039 0.212042 0
M  V30 894 C 74.131 3.47281 -0.0367933 0
M  V30 895 C 73.085 4.17059 -0.961546 0
M  V30 896 C 72.411 5.34342 -0.195626 0
M  V30 897 C 73.711 4.69713 -2.28402 0
M  V30 898 H 75.405 2.55933 -1.55367 0
M  V30 899 H 72.951 1.23019 -0.748484 0
M  V30 900 H 74.904 4.20706 0.241775 0
M  V30 901 H 73.628 3.14381 0.885004 0
M  V30 902 H 72.287 3.45541 -1.22462 0
M  V30 903 H 71.935 4.97692 0.728816 0
M  V30 904 H 71.635 5.81966 -0.811775 0
M  V30 905 H 73.159 6.10553 0.0757473 0
M  V30 906 H 74.573 5.34794 -2.06563 0
M  V30 907 H 72.97 5.279 -2.8538 0
M  V30 908 H 74.04 3.86726 -2.92525 0
M  V30 909 N 75.3831 0.828654 1.34056 0
M  V30 910 C 76.2931 0.256725 2.33191 0
M  V30 911 C 77.3091 -0.611898 1.62886 0
M  V30 912 O 78.4851 -0.51844 1.94613 0
M  V30 913 C 75.5501 -0.567238 3.42028 0
M  V30 914 C 74.6111 0.324458 4.28072 0
M  V30 915 C 73.8441 -0.460274 5.31712 0
M  V30 916 O 74.0671 -1.693 5.44696 0
M  V30 917 O 73.0011 0.160391 6.01686 0
M  V30 918 H 76.8271 1.07739 2.83947 0
M  V30 919 H 74.4121 0.59093 1.37217 0
M  V30 920 H 76.2941 -1.03582 4.08471 0
M  V30 921 H 74.9691 -1.36513 2.93506 0
M  V30 922 H 73.8761 0.840659 3.64532 0
M  V30 923 H 75.2091 1.08685 4.8005 0
M  V30 924 N 76.8612 -1.46375 0.584142 0
M  V30 925 C 78.2772 -1.57694 0.245929 0
M  V30 926 C 78.4772 -1.57903 -1.25175 0
M  V30 927 O 77.5332 -1.49676 -2.03355 0
M  V30 928 C 78.8462 -2.87028 0.896402 0
M  V30 929 C 80.3942 -3.00662 0.870127 0
M  V30 930 C 80.8692 -4.32734 1.50017 0
M  V30 931 N 82.3602 -4.39436 1.46458 0
M  V30 932 C 83.0952 -5.40248 1.92144 0
M  V30 933 N 82.5912 -6.47726 2.4581 0
M  V30 934 N 84.3842 -5.31459 1.83052 0
M  V30 935 H 76.5352 -1.44483 1.55687 0
M  V30 936 H 78.7982 -0.689291 0.650831 0
M  V30 937 H 78.5042 -2.9269 1.95002 0
M  V30 938 H 78.3782 -3.75014 0.405486 0
M  V30 939 H 80.7652 -2.94581 -0.174871 0
M  V30 940 H 80.8462 -2.14148 1.39908 0
M  V30 941 H 80.4902 -4.39573 2.54437 0
M  V30 942 H 80.4202 -5.18025 0.946432 0
M  V30 943 H 82.9112 -3.62367 1.07231 0
M  V30 944 H 83.2242 -7.20863 2.78525 0
M  V30 945 H 81.5692 -6.48542 2.49836 0
M  V30 946 H 84.7602 -4.46396 1.40883 0
M  V30 947 H 84.9332 -6.09881 2.18973 0
M  V30 948 N 78.3393 -0.321999 -1.54275 0
M  V30 949 C 79.5873 0.280489 -2.00144 0
M  V30 950 C 79.9083 1.52777 -1.21178 0
M  V30 951 O 79.1783 1.9338 -0.313187 0
M  V30 952 H 77.7583 0.106632 -0.73935 0
M  V30 953 H 80.4203 -0.438184 -1.8991 0
M  V30 954 H 79.5163 0.537972 -3.07428 0
M  V30 955 N 79.8174 1.5752 -0.0501392 0
M  V30 956 C 80.7274 2.14952 0.939827 0
M  V30 957 C 81.7434 1.10706 1.34239 0
M  V30 958 O 82.9194 1.42869 1.41952 0
M  V30 959 C 79.9844 2.68232 2.19665 0
M  V30 960 C 79.0454 3.87272 1.85253 0
M  V30 961 C 78.2784 4.38002 3.04943 0
M  V30 962 O 78.5014 3.87811 4.18281 0
M  V30 963 O 77.4354 5.29602 2.86017 0
M  V30 964 H 81.2614 2.9986 0.481392 0
M  V30 965 H 78.8464 1.4841 0.171699 0
M  V30 966 H 80.7284 3.02475 2.93406 0
M  V30 967 H 79.4034 1.86395 2.64648 0
M  V30 968 H 78.3104 3.5792 1.0883 0
M  V30 969 H 79.6434 4.70336 1.4507 0
M  V30 970 N 81.2955 -0.223234 1.56011 0
M  V30 971 C 82.2585 -1.26014 1.9145 0
M  V30 972 C 83.2585 -1.3989 0.792937 0
M  V30 973 O 84.4485 -1.38184 1.0607 0
M  V30 974 C 81.5805 -2.63422 2.16383 0
M  V30 975 H 82.7735 -0.95796 2.84189 0
M  V30 976 H 80.3265 -0.463576 1.49267 0
M  V30 977 H 81.0615 -2.98741 1.2619 0
M  V30 978 H 80.8465 -2.54728 2.98088 0
M  V30 979 H 82.3365 -3.38249 2.44903 0
M  V30 980 N 82.7736 -1.49793 -0.48987 0
M  V30 981 C 83.9986 -1.63836 -1.27172 0
M  V30 982 C 84.4236 -0.31402 -1.8546 0
M  V30 983 O 83.7816 0.719803 -1.66399 0
M  V30 984 C 83.8296 -2.71797 -2.36978 0
M  V30 985 O 82.9336 -2.31744 -3.41128 0
M  V30 986 H 82.2746 -0.547997 -0.37496 0
M  V30 987 H 84.8046 -1.96053 -0.585191 0
M  V30 988 H 84.8146 -2.94305 -2.82575 0
M  V30 989 H 83.4896 -3.67923 -1.93921 0
M  V30 990 H 82.0666 -2.1961 -3.01373 0
M  V30 991 N 84.2517 0.741722 -1.39055 0
M  V30 992 C 85.4977 1.50336 -1.36113 0
M  V30 993 C 85.8307 1.94148 0.0450796 0
M  V30 994 O 85.1057 1.66301 1.00868 0
M  V30 995 C 85.3887 2.74773 -2.32749 0
M  V30 996 C 85.2417 2.37023 -3.82283 0
M  V30 997 C 86.5607 3.76846 -2.27322 0
M  V30 998 H 83.6797 0.545351 -0.495743 0
M  V30 999 H 86.3217 0.848624 -1.69995 0
M  V30 1000 H 84.4717 3.30639 -2.03986 0
M  V30 1001 H 86.1437 1.8684 -4.21768 0
M  V30 1002 H 84.3867 1.69334 -3.99385 0
M  V30 1003 H 85.0577 3.26104 -4.45376 0
M  V30 1004 H 87.5337 3.30548 -2.5274 0
M  V30 1005 H 86.4097 4.6159 -2.97028 0
M  V30 1006 H 86.6707 4.23286 -1.27599 0
M  V30 1007 N 85.7298 1.2412 0.971189 0
M  V30 1008 C 86.9758 1.08041 1.71625 0
M  V30 1009 C 87.3088 -0.380407 1.90438 0
M  V30 1010 O 86.5838 -1.28127 1.46334 0
M  V30 1011 C 86.8668 1.81682 3.10908 0
M  V30 1012 C 86.7198 3.35493 2.99608 0
M  V30 1013 C 88.0388 1.58671 4.10501 0
M  V30 1014 H 85.1578 0.39388 0.622919 0
M  V30 1015 H 87.7998 1.52743 1.13003 0
M  V30 1016 H 85.9498 1.43684 3.60953 0
M  V30 1017 H 87.6218 3.83068 2.57015 0
M  V30 1018 H 85.8648 3.64052 2.35899 0
M  V30 1019 H 86.5358 3.82217 3.98264 0
M  V30 1020 H 89.0118 1.91719 3.69301 0
M  V30 1021 H 87.8878 2.1266 5.06031 0
M  V30 1022 H 88.1488 0.524161 4.38982 0
M  V30 1023 N 87.2079 -1.17134 1.05439 0
M  V30 1024 C 88.4849 -1.83411 0.679699 0
M  V30 1025 C 88.8649 -1.9368 -0.839726 0
M  V30 1026 O 88.2129 -1.47325 -1.74664 0
M  V30 1027 C 88.4229 -3.20918 1.37159 0
M  V30 1028 C 89.7709 -3.96796 1.51123 0
M  V30 1029 O 90.7949 -3.30406 1.3308 0
M  V30 1030 O 89.6539 -5.15778 1.80651 0
M  V30 1031 H 86.7479 -0.79154 0.239569 0
M  V30 1032 H 89.2939 -1.24411 1.15413 0
M  V30 1033 H 88.0659 -3.08428 2.40807 0
M  V30 1034 H 87.6889 -3.87587 0.886674 0
M  V30 1035 N 88.686 -0.835752 -1.33615 0
M  V30 1036 C 89.616 -0.281739 -2.31794 0
M  V30 1037 C 90.597 0.608833 -1.58831 0
M  V30 1038 O 91.782 0.533035 -1.86741 0
M  V30 1039 C 88.912 0.546612 -3.42971 0
M  V30 1040 C 87.866 -0.247904 -4.27281 0
M  V30 1041 C 87.192 0.704001 -5.30045 0
M  V30 1042 C 88.492 -1.46324 -5.01385 0
M  V30 1043 H 90.186 -1.10206 -2.78379 0
M  V30 1044 H 87.732 -0.531388 -1.33837 0
M  V30 1045 H 89.685 0.944467 -4.1068 0
M  V30 1046 H 88.409 1.40011 -2.95067 0
M  V30 1047 H 87.068 -0.627281 -3.61194 0
M  V30 1048 H 86.716 1.55381 -4.78399 0
M  V30 1049 H 86.416 0.176524 -5.87335 0
M  V30 1050 H 87.94 1.09944 -6.0062 0
M  V30 1051 H 89.354 -1.13871 -5.61877 0
M  V30 1052 H 87.751 -1.92728 -5.6831 0
M  V30 1053 H 88.821 -2.23467 -4.30338 0
M  V30 1054 N 90.1641 1.46063 -0.591896 0
M  V30 1055 C 91.1111 2.30399 0.136069 0
M  V30 1056 C 92.0811 1.41169 0.875238 0
M  V30 1057 O 93.2661 1.70112 0.86409 0
M  V30 1058 C 90.4061 3.25804 1.13781 0
M  V30 1059 C 89.5191 4.30134 0.401137 0
M  V30 1060 C 88.6541 5.12659 1.39121 0
M  V30 1061 C 87.6931 6.0873 0.641462 0
M  V30 1062 N 86.8301 6.8409 1.58004 0
M  V30 1063 H 91.6701 2.92118 -0.589144 0
M  V30 1064 H 89.2071 1.43959 -0.302342 0
M  V30 1065 H 91.1651 3.79569 1.73156 0
M  V30 1066 H 89.7951 2.65872 1.83062 0
M  V30 1067 H 88.8471 3.79152 -0.307826 0
M  V30 1068 H 90.1591 4.98458 -0.184565 0
M  V30 1069 H 89.3131 5.70747 2.05749 0
M  V30 1070 H 88.0521 4.44316 2.01084 0
M  V30 1071 H 87.0571 5.49786 -0.0385419 0
M  V30 1072 H 88.2821 6.79095 0.0270945 0
M  V30 1073 H 86.2281 6.18449 2.18761 0
M  V30 1074 H 86.1451 7.48709 1.04738 0
M  V30 1075 H 87.4131 7.4673 2.23639 0
M  V30 1076 N 91.6422 0.330177 1.54103 0
M  V30 1077 C 92.5892 -0.532762 2.24567 0
M  V30 1078 C 93.5592 -1.10635 1.23892 0
M  V30 1079 O 94.7442 -1.14546 1.5259 0
M  V30 1080 C 91.8842 -1.6845 3.01195 0
M  V30 1081 C 90.9972 -1.13951 4.167 0
M  V30 1082 C 90.1322 -2.25746 4.80845 0
M  V30 1083 C 89.1712 -1.6853 5.88442 0
M  V30 1084 N 88.3082 -2.74014 6.46421 0
M  V30 1085 H 93.1482 0.0746905 2.97906 0
M  V30 1086 H 90.6852 0.048632 1.4702 0
M  V30 1087 H 92.6432 -2.36234 3.43874 0
M  V30 1088 H 91.2732 -2.26314 2.30178 0
M  V30 1089 H 90.3252 -0.35301 3.78758 0
M  V30 1090 H 91.6372 -0.680892 4.94131 0
M  V30 1091 H 90.7912 -3.01422 5.26526 0
M  V30 1092 H 89.5302 -2.74947 4.0281 0
M  V30 1093 H 88.5352 -0.913543 5.42157 0
M  V30 1094 H 89.7602 -1.20198 6.68378 0
M  V30 1095 H 87.7062 -3.22494 5.71256 0
M  V30 1096 H 87.6232 -2.32735 7.19285 0
M  V30 1097 H 88.8912 -3.49499 6.96757 0
M  V30 1098 N 93.1203 -1.57491 0.0584922 0
M  V30 1099 C 94.0683 -2.13148 -0.931168 0
M  V30 1100 C 95.0623 -1.06507 -1.31729 0
M  V30 1101 O 96.2683 -1.24906 -1.29609 0
M  V30 1102 H 92.6433 -0.68137 -0.31818 0
M  V30 1103 H 94.6143 -2.95187 -0.436707 0
M  V30 1104 C 93.3633 -2.69732 -2.19408 0
M  V30 1105 H 92.6863 -3.51454 -1.90578 0
M  V30 1106 H 94.1263 -3.12287 -2.86798 0
M  V30 1107 C 92.5853 -1.63855 -2.94369 0
M  V30 1108 O 93.1153 -1.05565 -3.87581 0
M  V30 1109 N 91.3213 -1.35202 -2.57233 0
M  V30 1110 H 90.8683 -1.82791 -1.81508 0
M  V30 1111 H 90.8263 -0.645922 -3.07693 0
M  V30 1112 N 94.5984 0.214957 -1.56127 0
M  V30 1113 C 95.5284 1.2695 -1.95974 0
M  V30 1114 C 96.5094 1.48539 -0.828868 0
M  V30 1115 O 97.6944 1.60611 -1.09168 0
M  V30 1116 C 94.8244 2.61794 -2.28214 0
M  V30 1117 C 93.7784 2.54851 -3.43853 0
M  V30 1118 C 93.1044 3.93785 -3.61715 0
M  V30 1119 C 94.4044 2.09065 -4.78632 0
M  V30 1120 H 96.0984 0.93846 -2.84312 0
M  V30 1121 H 93.6444 0.449996 -1.36788 0
M  V30 1122 H 95.5974 3.35731 -2.54682 0
M  V30 1123 H 94.3214 2.96599 -1.36736 0
M  V30 1124 H 92.9804 1.8337 -3.17444 0
M  V30 1125 H 92.6284 4.25908 -2.67602 0
M  V30 1126 H 92.3284 3.90019 -4.39498 0
M  V30 1127 H 93.8524 4.69374 -3.90539 0
M  V30 1128 H 95.2664 2.7275 -5.04262 0
M  V30 1129 H 93.6634 2.16346 -5.59745 0
M  V30 1130 H 94.7334 1.04315 -4.73547 0
M  V30 1131 N 96.0765 1.50051 0.48192 0
M  V30 1132 C 96.9865 1.7089 1.60728 0
M  V30 1133 C 98.0025 0.591788 1.63627 0
M  V30 1134 O 99.1785 0.868817 1.81696 0
M  V30 1135 C 96.2435 1.78855 2.97005 0
M  V30 1136 C 95.3045 3.02537 3.04581 0
M  V30 1137 C 94.5375 3.10112 4.34357 0
M  V30 1138 O 94.7605 2.24765 5.24249 0
M  V30 1139 O 93.6945 4.02747 4.47301 0
M  V30 1140 H 97.5205 2.66264 1.46072 0
M  V30 1141 H 95.1055 1.34018 0.660264 0
M  V30 1142 H 96.9875 1.86336 3.77964 0
M  V30 1143 H 95.6625 0.866628 3.11883 0
M  V30 1144 H 94.5695 3.00563 2.22739 0
M  V30 1145 H 95.9025 3.94272 2.94636 0
M  V30 1146 N 97.5546 -0.734337 1.39446 0
M  V30 1147 C 98.7846 -1.52137 1.39778 0
M  V30 1148 C 99.1926 -1.89198 -0.00929312 0
M  V30 1149 O 98.5356 -1.54666 -0.991168 0
M  V30 1150 C 98.5976 -2.83762 2.20724 0
M  V30 1151 C 98.2616 -2.69131 3.69347 0
M  V30 1152 C 99.2586 -2.37635 4.62413 0
M  V30 1153 C 96.9436 -2.85982 4.1294 0
M  V30 1154 C 98.9376 -2.23172 5.97054 0
M  V30 1155 C 96.6246 -2.71137 5.47657 0
M  V30 1156 C 97.6226 -2.39777 6.39528 0
M  V30 1157 O 97.3106 -2.25026 7.71763 0
M  V30 1158 H 97.0426 -0.476717 0.479288 0
M  V30 1159 H 99.5966 -0.915012 1.83893 0
M  V30 1160 H 97.8266 -3.4666 1.71359 0
M  V30 1161 H 99.5156 -3.45383 2.13226 0
M  V30 1162 H 100.282 -2.24267 4.30034 0
M  V30 1163 H 96.1606 -3.09383 3.41765 0
M  V30 1164 H 99.7046 -1.98617 6.68728 0
M  V30 1165 H 95.6016 -2.84083 5.79626 0
M  V30 1166 H 96.3696 -2.40091 7.82495 0
M  V30 1167 N 99.0327 -1.24633 -0.964593 0
M  V30 1168 C 99.9957 -1.0424 -2.04124 0
M  V30 1169 C 100.996 0.00137563 -1.608 0
M  V30 1170 O 102.186 -0.239883 -1.7254 0
M  V30 1171 C 99.3177 -0.580588 -3.3592 0
M  V30 1172 H 100.511 -1.99803 -2.23649 0
M  V30 1173 H 98.0637 -1.06899 -1.14027 0
M  V30 1174 H 98.7987 0.3781 -3.22088 0
M  V30 1175 H 98.5837 -1.33398 -3.6871 0
M  V30 1176 H 100.074 -0.459034 -4.15069 0
M  V30 1177 N 100.511 1.16574 -1.06058 0
M  V30 1178 C 101.474 2.19085 -0.673392 0
M  V30 1179 C 102.474 1.5835 0.279648 0
M  V30 1180 O 103.664 1.74088 0.0623488 0
M  V30 1181 C 100.796 3.40899 0.00954234 0
M  V30 1182 H 101.989 2.54853 -1.58081 0
M  V30 1183 H 99.5418 1.30808 -0.855516 0
M  V30 1184 H 100.277 3.10684 0.929826 0
M  V30 1185 H 100.062 3.86233 -0.67573 0
M  V30 1186 H 101.552 4.1675 0.266245 0
M  V30 1187 N 101.989 0.842826 1.3317 0
M  V30 1188 C 103.217 0.454055 2.01856 0
M  V30 1189 C 103.632 -0.94587 1.63397 0
M  V30 1190 O 102.989 -1.61534 0.849302 0
M  V30 1191 C 103.04 0.569715 3.56982 0
M  V30 1192 O 102.761 1.91448 3.94055 0
M  V30 1193 C 104.262 0.178412 4.42941 0
M  V30 1194 H 101.482 0.17979 0.646465 0
M  V30 1195 H 104.026 1.1365 1.70012 0
M  V30 1196 H 102.181 -0.0648587 3.87346 0
M  V30 1197 H 102.595 1.90282 4.88767 0
M  V30 1198 H 104.069 0.310376 5.51127 0
M  V30 1199 H 104.546 -0.880056 4.30293 0
M  V30 1200 H 105.152 0.787579 4.17944 0
M  V30 1201 N 103.467 -1.45747 0.599634 0
M  V30 1202 C 104.713 -2.02592 0.0918643 0
M  V30 1203 C 105.046 -1.46806 -1.27128 0
M  V30 1204 O 104.321 -0.639658 -1.83681 0
M  V30 1205 C 104.604 -3.60073 0.0443398 0
M  V30 1206 C 104.457 -4.26208 1.43759 0
M  V30 1207 C 105.776 -4.35309 -0.647608 0
M  V30 1208 H 102.895 -0.736175 0.034857 0
M  V30 1209 H 105.537 -1.73694 0.770081 0
M  V30 1210 H 103.687 -3.84823 -0.533224 0
M  V30 1211 H 105.359 -4.12668 2.06162 0
M  V30 1212 H 103.602 -3.84916 2.00056 0
M  V30 1213 H 104.273 -5.35069 1.35665 0
M  V30 1214 H 106.749 -4.15805 -0.156776 0
M  V30 1215 H 105.625 -5.45038 -0.649942 0
M  V30 1216 H 105.886 -4.07598 -1.71219 0
M  V30 1217 N 104.945 -0.338344 -1.53925 0
M  V30 1218 C 105.875 0.51328 -2.27789 0
M  V30 1219 C 106.856 1.107 -1.29149 0
M  V30 1220 O 108.041 1.12937 -1.57984 0
M  V30 1221 C 105.171 1.66697 -3.04679 0
M  V30 1222 C 104.125 1.20183 -4.1078 0
M  V30 1223 C 103.451 2.44363 -4.75595 0
M  V30 1224 C 104.751 0.30605 -5.21403 0
M  V30 1225 H 106.445 -0.102883 -2.99223 0
M  V30 1226 H 103.991 -0.0509219 -1.4391 0
M  V30 1227 H 105.944 2.26915 -3.55088 0
M  V30 1228 H 104.668 2.30995 -2.30887 0
M  V30 1229 H 103.327 0.622499 -3.61276 0
M  V30 1230 H 102.975 3.07057 -3.98403 0
M  V30 1231 H 102.675 2.13925 -5.47275 0
M  V30 1232 H 104.199 3.05317 -5.28786 0
M  V30 1233 H 105.613 0.814929 -5.67478 0
M  V30 1234 H 104.01 0.0937929 -6.00027 0
M  V30 1235 H 105.08 -0.65921 -4.80398 0
M  V30 1236 N 106.423 1.57458 -0.0668435 0
M  V30 1237 C 107.333 2.15937 0.916975 0
M  V30 1238 C 108.349 1.12123 1.33058 0
M  V30 1239 O 109.525 1.44366 1.40429 0
M  V30 1240 C 106.59 2.70547 2.16807 0
M  V30 1241 C 105.651 3.89215 1.81135 0
M  V30 1242 C 104.884 4.41211 3.0028 0
M  V30 1243 O 105.107 3.92225 4.14144 0
M  V30 1244 O 104.041 5.32605 2.80384 0
M  V30 1245 H 107.867 3.00354 0.449561 0
M  V30 1246 H 105.452 1.48584 0.155949 0
M  V30 1247 H 107.334 3.0557 2.90181 0
M  V30 1248 H 106.009 1.89192 2.62656 0
M  V30 1249 H 104.916 3.59054 1.05028 0
M  V30 1250 H 106.249 4.71848 1.40073 0
M  V30 1251 N 107.901 -0.206675 1.56239 0
M  V30 1252 C 109.126 -0.949474 1.8439 0
M  V30 1253 C 109.551 -1.76549 0.649016 0
M  V30 1254 O 108.909 -1.76782 -0.402231 0
M  V30 1255 C 108.957 -1.83078 3.10668 0
M  V30 1256 O 108.061 -2.9281 2.90407 0
M  V30 1257 H 107.402 -0.268033 0.607499 0
M  V30 1258 H 109.932 -0.215488 2.03462 0
M  V30 1259 H 109.942 -2.2377 3.41161 0
M  V30 1260 H 108.617 -1.23112 3.97261 0
M  V30 1261 H 107.194 -2.55956 2.71184 0
M  V30 1262 N 109.379 -1.50304 -0.473955 0
M  V30 1263 C 110.625 -1.61389 -1.22806 0
M  V30 1264 C 110.958 -0.311955 -1.91678 0
M  V30 1265 O 110.233 0.686384 -1.81986 0
M  V30 1266 C 110.516 -2.79219 -2.27396 0
M  V30 1267 C 110.369 -4.19286 -1.62848 0
M  V30 1268 C 111.688 -2.92614 -3.28732 0
M  V30 1269 H 108.807 -0.587399 -0.445119 0
M  V30 1270 H 111.449 -1.82681 -0.522265 0
M  V30 1271 H 109.599 -2.61195 -2.87592 0
M  V30 1272 H 111.271 -4.48892 -1.06271 0
M  V30 1273 H 109.514 -4.23677 -0.931693 0
M  V30 1274 H 110.185 -4.97655 -2.38838 0
M  V30 1275 H 112.661 -3.09105 -2.78556 0
M  V30 1276 H 111.537 -3.76688 -3.99246 0
M  V30 1277 H 111.798 -2.03107 -3.92683 0
M  V30 1278 N 110.857 0.726932 -1.39834 0
M  V30 1279 C 112.087 1.51393 -1.40583 0
M  V30 1280 C 112.495 1.892 -0.000740625 0
M  V30 1281 O 111.838 1.55189 0.982951 0
M  V30 1282 C 111.9 2.82588 -2.22226 0
M  V30 1283 C 111.564 2.67169 -3.70769 0
M  V30 1284 C 112.561 2.3518 -4.63666 0
M  V30 1285 C 110.246 2.83788 -4.14451 0
M  V30 1286 C 112.24 2.20002 -5.98229 0
M  V30 1287 C 109.927 2.68229 -5.49087 0
M  V30 1288 C 110.925 2.36382 -6.4079 0
M  V30 1289 O 110.613 2.2093 -7.72946 0
M  V30 1290 H 110.345 0.474168 -0.48181 0
M  V30 1291 H 112.899 0.905247 -1.84376 0
M  V30 1292 H 111.129 3.45746 -1.73195 0
M  V30 1293 H 112.818 3.44247 -2.15055 0
M  V30 1294 H 113.584 2.21984 -4.31217 0
M  V30 1295 H 109.463 3.07566 -3.43401 0
M  V30 1296 H 113.007 1.95067 -6.69772 0
M  V30 1297 H 108.904 2.81006 -5.81125 0
M  V30 1298 H 109.672 2.35937 -7.83757 0
M  V30 1299 N 112.336 1.25143 0.95797 0
M  V30 1300 C 113.585 1.0909 1.69654 0
M  V30 1301 C 113.898 -0.368548 1.92097 0
M  V30 1302 O 115.104 -0.649455 2.63618 0
M  V30 1303 C 113.56 1.90395 3.05414 0
M  V30 1304 C 113.168 3.4081 2.90779 0
M  V30 1305 C 114.912 1.82901 3.83076 0
M  V30 1306 C 112.819 4.14423 4.21909 0
M  V30 1307 H 111.749 0.404625 0.636235 0
M  V30 1308 H 114.4 1.4931 1.06672 0
M  V30 1309 H 112.782 1.42996 3.69281 0
M  V30 1310 H 113.956 3.95859 2.35865 0
M  V30 1311 H 112.271 3.49361 2.26575 0
M  V30 1312 H 114.868 2.35196 4.80195 0
M  V30 1313 H 115.211 0.796224 4.08615 0
M  V30 1314 H 115.744 2.28033 3.25954 0
M  V30 1315 H 112.483 5.18102 4.01561 0
M  V30 1316 H 112.003 3.64159 4.76601 0
M  V30 1317 H 113.682 4.21956 4.90471 0
M  V30 1318 N 113.814 -1.1601 1.06675 0
M  V30 1319 C 115.091 -1.82679 0.699114 0
M  V30 1320 C 115.471 -1.94559 -0.819137 0
M  V30 1321 O 114.819 -1.49169 -1.73092 0
M  V30 1322 C 115.029 -3.19445 1.40555 0
M  V30 1323 C 116.377 -3.95171 1.55323 0
M  V30 1324 O 117.401 -3.28976 1.36577 0
M  V30 1325 O 116.26 -5.13833 1.86112 0
M  V30 1326 H 113.354 -0.788954 0.247951 0
M  V30 1327 H 115.9 -1.23179 1.16726 0
M  V30 1328 H 114.672 -3.05856 2.44065 0
M  V30 1329 H 114.295 -3.86625 0.927733 0
M  V30 1330 N 115.292 -0.849877 -1.32721 0
M  V30 1331 C 116.202 -0.293791 -2.32753 0
M  V30 1332 C 117.218 0.585906 -1.63839 0
M  V30 1333 O 118.394 0.487413 -1.95413 0
M  V30 1334 C 115.459 0.512752 -3.42887 0
M  V30 1335 C 114.52 -0.39252 -4.27502 0
M  V30 1336 C 113.753 0.375625 -5.32377 0
M  V30 1337 O 113.976 1.60613 -5.4732 0
M  V30 1338 O 112.91 -0.256094 -6.01355 0
M  V30 1339 H 116.736 -1.12242 -2.82197 0
M  V30 1340 H 114.321 -0.612685 -1.36259 0
M  V30 1341 H 116.203 0.970704 -4.10067 0
M  V30 1342 H 114.878 1.31826 -2.95641 0
M  V30 1343 H 113.785 -0.898547 -3.63149 0
M  V30 1344 H 115.118 -1.16309 -4.7826 0
M  V30 1345 N 116.77 1.45427 -0.607355 0
M  V30 1346 C 117.998 2.06614 -0.108814 0
M  V30 1347 C 118.413 1.45204 1.2067 0
M  V30 1348 O 117.77 0.566132 1.73497 0
M  V30 1349 C 117.821 3.61481 0.0375347 0
M  V30 1350 O 117.542 4.20598 -1.22593 0
M  V30 1351 C 119.043 4.39652 0.567561 0
M  V30 1352 H 116.263 0.66747 -0.0687351 0
M  V30 1353 H 118.807 1.86675 -0.835022 0
M  V30 1354 H 116.962 3.80762 0.714068 0
M  V30 1355 H 117.376 5.1377 -1.05547 0
M  V30 1356 H 118.85 5.48518 0.61905 0
M  V30 1357 H 119.327 4.09417 1.58978 0
M  V30 1358 H 119.933 4.25234 -0.0749202 0
M  V30 1359 N 118.248 0.346503 1.53744 0
M  V30 1360 C 119.664 -0.00530975 1.59599 0
M  V30 1361 C 119.864 -1.48465 1.36236 0
M  V30 1362 O 118.92 -2.24376 1.15808 0
M  V30 1363 C 120.233 0.433516 2.97559 0
M  V30 1364 C 121.781 0.386111 3.10609 0
M  V30 1365 C 122.256 0.800451 4.50951 0
M  V30 1366 N 123.747 0.754753 4.5701 0
M  V30 1367 C 124.482 1.04727 5.63755 0
M  V30 1368 N 123.978 1.4081 6.7834 0
M  V30 1369 N 125.771 0.971316 5.53644 0
M  V30 1370 H 117.922 1.31009 1.67184 0
M  V30 1371 H 120.185 0.534242 0.783128 0
M  V30 1372 H 119.891 1.46509 3.19731 0
M  V30 1373 H 119.765 -0.189753 3.76722 0
M  V30 1374 H 122.152 -0.636295 2.88158 0
M  V30 1375 H 122.233 1.04462 2.33498 0
M  V30 1376 H 121.877 1.82088 4.74137 0
M  V30 1377 H 121.807 0.119386 5.26465 0
M  V30 1378 H 124.298 0.488662 3.74727 0
M  V30 1379 H 124.611 1.61607 7.55714 0
M  V30 1380 H 122.956 1.44657 6.79779 0
M  V30 1381 H 126.147 0.688748 4.63005 0
M  V30 1382 H 126.32 1.20263 6.36742 0
M  V30 1383 N 119.726 -1.57421 0.075193 0
M  V30 1384 C 121.142 -1.57099 -0.281444 0
M  V30 1385 C 121.342 -1.08486 -1.69803 0
M  V30 1386 O 120.398 -0.752279 -2.41033 0
M  V30 1387 C 121.711 -3.00571 -0.0880041 0
M  V30 1388 C 123.259 -3.12605 -0.157281 0
M  V30 1389 C 123.734 -4.57999 0.0079207 0
M  V30 1390 N 125.225 -4.63176 -0.0475725 0
M  V30 1391 C 125.96 -5.73373 0.0557876 0
M  V30 1392 N 125.456 -6.92473 0.21286 0
M  V30 1393 N 127.249 -5.621 -0.00152098 0
M  V30 1394 H 119.4 -1.87335 1.00098 0
M  V30 1395 H 121.663 -0.86377 0.390646 0
M  V30 1396 H 121.369 -3.40262 0.889629 0
M  V30 1397 H 121.243 -3.67754 -0.838875 0
M  V30 1398 H 123.63 -2.72798 -1.1254 0
M  V30 1399 H 123.711 -2.48053 0.62475 0
M  V30 1400 H 123.355 -4.98496 0.972824 0
M  V30 1401 H 123.285 -5.20586 -0.793556 0
M  V30 1402 H 125.776 -3.7753 -0.167244 0
M  V30 1403 H 126.089 -7.72279 0.283781 0
M  V30 1404 H 124.434 -6.94556 0.248267 0
M  V30 1405 H 127.625 -4.67938 -0.122958 0
M  V30 1406 H 127.798 -6.47948 0.0824844 0
M  V30 1407 N 121.204 0.198386 -1.56346 0
M  V30 1408 C 122.134 1.24865 -1.9731 0
M  V30 1409 C 123.115 1.47651 -0.844576 0
M  V30 1410 O 124.3 1.59444 -1.10866 0
M  V30 1411 C 121.43 2.59358 -2.30977 0
M  V30 1412 C 120.384 2.5119 -3.46537 0
M  V30 1413 C 119.71 3.89926 -3.65871 0
M  V30 1414 C 121.01 2.03977 -4.80823 0
M  V30 1415 H 122.704 0.908252 -2.85291 0
M  V30 1416 H 120.25 0.435462 -1.37258 0
M  V30 1417 H 122.203 3.33011 -2.58228 0
M  V30 1418 H 120.927 2.95132 -1.39874 0
M  V30 1419 H 119.586 1.79993 -3.19371 0
M  V30 1420 H 119.234 4.23046 -2.72105 0
M  V30 1421 H 118.934 3.85336 -4.4361 0
M  V30 1422 H 120.458 4.65205 -3.95495 0
M  V30 1423 H 121.872 2.67386 -5.07127 0
M  V30 1424 H 120.269 2.10397 -5.62008 0
M  V30 1425 H 121.339 0.992861 -4.74626 0
M  V30 1426 N 122.682 1.50554 0.465978 0
M  V30 1427 C 123.612 1.72722 1.57128 0
M  V30 1428 C 124.593 0.576294 1.6004 0
M  V30 1429 O 125.778 0.81598 1.76225 0
M  V30 1430 C 122.908 1.82605 2.95419 0
M  V30 1431 C 121.862 2.97835 3.07373 0
M  V30 1432 C 121.188 2.92867 4.47363 0
M  V30 1433 C 122.488 4.38265 2.84114 0
M  V30 1434 H 124.182 2.65267 1.38829 0
M  V30 1435 H 121.728 1.2765 0.666441 0
M  V30 1436 H 123.681 1.96698 3.72677 0
M  V30 1437 H 122.405 0.866858 3.14886 0
M  V30 1438 H 121.064 2.83401 2.3255 0
M  V30 1439 H 120.712 1.94783 4.63755 0
M  V30 1440 H 120.412 3.70227 4.56296 0
M  V30 1441 H 121.936 3.09015 5.26633 0
M  V30 1442 H 123.35 4.53198 3.51118 0
M  V30 1443 H 121.747 5.17115 3.04487 0
M  V30 1444 H 122.817 4.50281 1.7993 0
M  V30 1445 N 124.16 -0.719506 1.40217 0
M  V30 1446 C 125.437 -1.47221 1.28784 0
M  V30 1447 C 125.817 -2.10883 -0.0956067 0
M  V30 1448 O 125.165 -1.99833 -1.10811 0
M  V30 1449 C 125.375 -2.5111 2.42373 0
M  V30 1450 C 126.723 -3.17053 2.82423 0
M  V30 1451 O 127.747 -2.61429 2.41937 0
M  V30 1452 O 126.606 -4.17742 3.52355 0
M  V30 1453 H 123.7 -0.654491 0.50554 0
M  V30 1454 H 126.246 -0.752014 1.52128 0
M  V30 1455 H 125.018 -2.02556 3.34793 0
M  V30 1456 H 124.641 -3.3067 2.20778 0
M  V30 1457 N 125.638 -1.25649 -0.95132 0
M  V30 1458 C 126.866 -1.13343 -1.73092 0
M  V30 1459 C 127.281 0.312434 -1.86197 0
M  V30 1460 O 126.638 1.21465 -1.36207 0
M  V30 1461 C 126.689 -1.78602 -3.14299 0
M  V30 1462 O 126.41 -3.17537 -3.01831 0
M  V30 1463 C 127.911 -1.72119 -4.08522 0
M  V30 1464 H 125.131 -0.395181 -0.542285 0
M  V30 1465 H 127.675 -1.66076 -1.19328 0
M  V30 1466 H 125.83 -1.29832 -3.64996 0
M  V30 1467 H 126.244 -3.49676 -3.90931 0
M  V30 1468 H 127.718 -2.22435 -5.052 0
M  V30 1469 H 128.195 -0.685635 -4.33815 0
M  V30 1470 H 128.801 -2.20393 -3.63741 0
M  V30 1471 N 127.117 1.15442 -1.07289 0
M  V30 1472 C 128.027 2.23786 -0.704057 0
M  V30 1473 C 129.043 1.7166 0.284413 0
M  V30 1474 O 130.219 2.00972 0.131205 0
M  V30 1475 C 127.284 3.46535 -0.106792 0
M  V30 1476 C 126.345 4.13654 -1.14842 0
M  V30 1477 C 125.578 5.30544 -0.57956 0
M  V30 1478 O 125.801 5.67187 0.604585 0
M  V30 1479 O 124.735 5.87154 -1.32414 0
M  V30 1480 H 128.561 2.57664 -1.60757 0
M  V30 1481 H 126.146 1.23152 -0.845803 0
M  V30 1482 H 128.028 4.20804 0.224048 0
M  V30 1483 H 126.703 3.14407 0.770049 0
M  V30 1484 H 125.61 3.4131 -1.5316 0
M  V30 1485 H 126.943 4.49861 -1.99714 0
M  V30 1486 N 128.595 0.856903 1.32268 0
M  V30 1487 C 129.872 0.382583 1.91822 0
M  V30 1488 C 130.252 -1.13407 1.78051 0
M  V30 1489 O 129.6 -1.95673 1.18001 0
M  V30 1490 C 129.81 0.849446 3.38505 0
M  V30 1491 C 131.158 0.867936 4.15634 0
M  V30 1492 O 132.182 0.794232 3.47232 0
M  V30 1493 O 131.041 0.972286 5.37781 0
M  V30 1494 H 128.135 0.112014 0.819379 0
M  V30 1495 H 130.681 0.943952 1.41024 0
M  V30 1496 H 129.453 1.89267 3.42482 0
M  V30 1497 H 129.076 0.265652 3.96712 0
M  V30 1498 N 130.073 -1.45103 0.615059 0
M  V30 1499 C 130.983 -2.34382 -0.101034 0
M  V30 1500 C 131.999 -1.51681 -0.852585 0
M  V30 1501 O 133.175 -1.8446 -0.808484 0
M  V30 1502 C 130.24 -3.29417 -1.08099 0
M  V30 1503 C 129.301 -4.28025 -0.330577 0
M  V30 1504 C 128.534 -5.1852 -1.26385 0
M  V30 1505 O 128.757 -5.12598 -2.50198 0
M  V30 1506 O 127.691 -5.97122 -0.756866 0
M  V30 1507 H 131.517 -2.97033 0.632855 0
M  V30 1508 H 129.102 -1.4461 0.375293 0
M  V30 1509 H 130.984 -3.87958 -1.6452 0
M  V30 1510 H 129.659 -2.69321 -1.79577 0
M  V30 1511 H 128.566 -3.73078 0.276283 0
M  V30 1512 H 129.899 -4.90997 0.343866 0
M  V30 1513 N 131.551 -0.354651 -1.53558 0
M  V30 1514 C 132.481 0.489091 -2.2832 0
M  V30 1515 C 133.462 1.09324 -1.30316 0
M  V30 1516 O 134.647 1.11255 -1.59173 0
M  V30 1517 C 131.777 1.63456 -3.0643 0
M  V30 1518 C 130.731 1.1582 -4.12031 0
M  V30 1519 C 130.057 2.39305 -4.7816 0
M  V30 1520 C 131.357 0.250731 -5.21698 0
M  V30 1521 H 133.051 -0.134614 -2.99097 0
M  V30 1522 H 130.597 -0.0661826 -1.43848 0
M  V30 1523 H 132.55 2.23136 -3.57475 0
M  V30 1524 H 131.274 2.28533 -2.33325 0
M  V30 1525 H 129.933 0.584146 -3.61916 0
M  V30 1526 H 129.581 3.02814 -4.01637 0
M  V30 1527 H 129.281 2.08109 -5.49513 0
M  V30 1528 H 130.805 2.99691 -5.31994 0
M  V30 1529 H 132.219 0.754695 -5.68311 0
M  V30 1530 H 130.616 0.0301468 -6.00092 0
M  V30 1531 H 131.686 -0.710125 -4.79672 0
M  V30 1532 N 133.029 1.57378 -0.0835403 0
M  V30 1533 C 134.254 1.98682 0.594987 0
M  V30 1534 C 134.679 0.961969 1.61641 0
M  V30 1535 O 134.037 -0.0709989 1.81161 0
M  V30 1536 C 134.085 3.38988 1.2296 0
M  V30 1537 O 133.189 3.39208 2.34546 0
M  V30 1538 H 132.53 0.646368 0.152002 0
M  V30 1539 H 135.06 2.03961 -0.161533 0
M  V30 1540 H 135.07 3.76431 1.57366 0
M  V30 1541 H 133.745 4.13107 0.481228 0
M  V30 1542 H 132.322 3.13548 2.01846 0
M  V30 1543 N 134.507 -0.190092 1.56449 0
M  V30 1544 C 135.784 -0.935886 1.71757 0
M  V30 1545 C 136.164 -2.01173 0.639726 0
M  V30 1546 O 135.512 -2.25827 -0.348502 0
M  V30 1547 C 135.722 -1.51775 3.1427 0
M  V30 1548 C 137.07 -1.99794 3.74656 0
M  V30 1549 O 138.094 -1.61607 3.1743 0
M  V30 1550 O 136.953 -2.70079 4.751 0
M  V30 1551 H 134.047 -0.439229 0.700719 0
M  V30 1552 H 136.593 -0.179395 1.68749 0
M  V30 1553 H 135.365 -0.742505 3.84191 0
M  V30 1554 H 134.988 -2.33894 3.21527 0
M  V30 1555 N 135.985 -1.50799 -0.457987 0
M  V30 1556 C 137.234 -1.6168 -1.20593 0
M  V30 1557 C 137.547 -0.32888 -1.92815 0
M  V30 1558 O 138.753 -0.316773 -2.69646 0
M  V30 1559 C 137.209 -2.8545 -2.19195 0
M  V30 1560 C 136.817 -4.21168 -1.52715 0
M  V30 1561 C 138.561 -3.05681 -2.94549 0
M  V30 1562 C 136.468 -5.3611 -2.4968 0
M  V30 1563 H 135.398 -0.602134 -0.453818 0
M  V30 1564 H 138.049 -1.77245 -0.475031 0
M  V30 1565 H 136.431 -2.63472 -2.95632 0
M  V30 1566 H 137.605 -4.53449 -0.819775 0
M  V30 1567 H 135.92 -4.06648 -0.895922 0
M  V30 1568 H 138.517 -3.88727 -3.67145 0
M  V30 1569 H 138.86 -2.17929 -3.54701 0
M  V30 1570 H 139.393 -3.27901 -2.25223 0
M  V30 1571 H 136.132 -6.26057 -1.94249 0
M  V30 1572 H 135.652 -5.0823 -3.18532 0
M  V30 1573 H 137.331 -5.6722 -3.11241 0
M  V30 1574 N 137.463 0.71206 -1.40597 0
M  V30 1575 C 138.395 1.83704 -1.37061 0
M  V30 1576 C 139.408 1.60453 -0.275426 0
M  V30 1577 O 140.597 1.70262 -0.53602 0
M  V30 1578 C 137.697 3.20172 -1.11099 0
M  V30 1579 C 136.87 3.7059 -2.3234 0
M  V30 1580 C 135.929 4.85681 -2.02485 0
M  V30 1581 O 134.955 4.9815 -2.75382 0
M  V30 1582 N 136.157 5.71735 -1.00497 0
M  V30 1583 H 138.922 1.87235 -2.34016 0
M  V30 1584 H 136.483 0.893739 -1.34996 0
M  V30 1585 H 138.475 3.94768 -0.891064 0
M  V30 1586 H 137.045 3.11767 -0.227989 0
M  V30 1587 H 136.265 2.87085 -2.7014 0
M  V30 1588 H 137.553 4.01011 -3.13157 0
M  V30 1589 H 136.951 5.64275 -0.401298 0
M  V30 1590 H 135.508 6.463 -0.844942 0
M  V30 1591 N 138.941 1.26152 0.944643 0
M  V30 1592 C 140.166 1.14363 1.7302 0
M  V30 1593 C 140.591 -0.29772 1.85729 0
M  V30 1594 O 139.949 -1.2157 1.34501 0
M  V30 1595 C 139.997 1.81378 3.11664 0
M  V30 1596 O 139.101 1.10022 3.97453 0
M  V30 1597 H 138.442 0.398694 0.53098 0
M  V30 1598 H 140.972 1.66906 1.18337 0
M  V30 1599 H 140.982 1.88064 3.62072 0
M  V30 1600 H 139.657 2.86237 3.0173 0
M  V30 1601 H 138.234 1.11287 3.55907 0
M  V30 1602 N 140.419 -1.14872 1.07899 0
M  V30 1603 C 141.696 -1.81928 0.71845 0
M  V30 1604 C 142.076 -1.95417 -0.798455 0
M  V30 1605 O 141.424 -1.50997 -1.715 0
M  V30 1606 C 141.634 -3.17937 1.43935 0
M  V30 1607 C 142.982 -3.93501 1.59506 0
M  V30 1608 O 144.006 -3.27509 1.40058 0
M  V30 1609 O 142.865 -5.1183 1.91551 0
M  V30 1610 H 139.959 -0.78628 0.256305 0
M  V30 1611 H 142.505 -1.21934 1.18026 0
M  V30 1612 H 141.277 -3.0325 2.47295 0
M  V30 1613 H 140.9 -3.85619 0.968687 0
M  V30 1614 N 141.898 -0.863906 -1.31812 0
M  V30 1615 C 142.861 -0.320212 -2.26952 0
M  V30 1616 C 143.861 0.525369 -1.51975 0
M  V30 1617 O 145.051 0.335547 -1.70938 0
M  V30 1618 C 142.183 0.545919 -3.365 0
M  V30 1619 H 143.376 -1.16004 -2.76556 0
M  V30 1620 H 140.929 -0.638995 -1.42641 0
M  V30 1621 H 141.664 1.40718 -2.92179 0
M  V30 1622 H 141.449 -0.0594674 -3.92055 0
M  V30 1623 H 142.939 0.918796 -4.07367 0
M  V30 1624 N 143.376 1.44774 -0.622745 0
M  V30 1625 C 144.622 2.0242 -0.124083 0
M  V30 1626 C 144.955 1.4881 1.24777 0
M  V30 1627 O 144.23 0.668799 1.8264 0
M  V30 1628 C 144.513 3.59957 -0.101619 0
M  V30 1629 C 144.366 4.23867 -1.50521 0
M  V30 1630 C 145.685 4.36284 0.578272 0
M  V30 1631 H 142.804 0.735528 -0.0465645 0
M  V30 1632 H 145.446 1.72447 -0.797617 0
M  V30 1633 H 143.596 3.85623 0.471934 0
M  V30 1634 H 145.268 4.09336 -2.12701 0
M  V30 1635 H 143.511 3.81684 -2.06154 0
M  V30 1636 H 144.182 5.32843 -1.4416 0
M  V30 1637 H 146.658 4.16001 0.0906057 0
M  V30 1638 H 145.534 5.46004 0.563149 0
M  V30 1639 H 145.795 4.10271 1.64713 0
M  V30 1640 N 144.854 0.36279 1.53368 0
M  V30 1641 C 146.265 -0.117022 1.86333 0
M  V30 1642 C 146.616 -1.48397 1.28347 0
M  V30 1643 O 145.741 -2.07787 0.604428 0
M  V30 1644 C 146.336 -0.21912 3.38091 0
M  V30 1645 C 144.895 -0.643184 3.70864 0
M  V30 1646 C 144.042 0.211318 2.76494 0
M  V30 1647 H 146.993 0.581687 1.47655 0
M  V30 1648 H 147.014 -1.04319 3.6592 0
M  V30 1649 H 146.526 0.775902 3.80265 0
M  V30 1650 H 144.627 -1.64654 3.34245 0
M  V30 1651 H 144.74 -0.41973 4.77258 0
M  V30 1652 H 143.104 -0.319367 2.5269 0
M  V30 1653 H 143.887 1.20383 3.21501 0
M  V30 1654 N 146.332 -1.57332 0.0918853 0
M  V30 1655 C 147.557 -1.98995 -0.584442 0
M  V30 1656 C 147.982 -0.970528 -1.61128 0
M  V30 1657 O 147.34 0.0613904 -1.81196 0
M  V30 1658 C 147.388 -3.39636 -1.21161 0
M  V30 1659 O 146.492 -3.40447 -2.32744 0
M  V30 1660 H 145.833 -0.647165 -0.148572 0
M  V30 1661 H 148.363 -2.03873 0.172347 0
M  V30 1662 H 148.373 -3.7726 -1.55367 0
M  V30 1663 H 147.048 -4.13356 -0.459313 0
M  V30 1664 H 145.625 -3.14614 -2.0018 0
M  V30 1665 N 147.81 0.181792 -1.56548 0
M  V30 1666 C 148.72 1.24538 -1.98815 0
M  V30 1667 C 149.736 1.49045 -0.897861 0
M  V30 1668 O 150.912 1.61399 -1.20467 0
M  V30 1669 C 147.977 2.56683 -2.33055 0
M  V30 1670 C 147.038 2.40131 -3.55859 0
M  V30 1671 C 146.271 3.65975 -3.88456 0
M  V30 1672 O 146.494 4.70711 -3.22161 0
M  V30 1673 O 145.428 3.6071 -4.81842 0
M  V30 1674 H 149.254 0.916647 -2.89536 0
M  V30 1675 H 146.839 0.387842 -1.44278 0
M  V30 1676 H 148.721 3.34655 -2.56094 0
M  V30 1677 H 147.396 2.89157 -1.45498 0
M  V30 1678 H 146.303 1.60226 -3.38051 0
M  V30 1679 H 147.636 2.12585 -4.43924 0
M  V30 1680 N 149.288 1.51039 0.449983 0
M  V30 1681 C 150.534 1.63322 1.20223 0
M  V30 1682 C 150.867 0.34241 1.91158 0
M  V30 1683 O 150.142 -0.657344 1.83055 0
M  V30 1684 C 150.425 2.82801 2.22925 0
M  V30 1685 C 150.278 4.21823 1.56157 0
M  V30 1686 C 151.597 2.97807 3.24035 0
M  V30 1687 H 148.716 0.594407 0.435718 0
M  V30 1688 H 151.358 1.83489 0.493136 0
M  V30 1689 H 149.508 2.65738 2.834 0
M  V30 1690 H 151.18 4.50526 0.991162 0
M  V30 1691 H 149.423 4.25105 0.864172 0
M  V30 1692 H 150.094 5.01391 2.30891 0
M  V30 1693 H 152.57 3.13497 2.73603 0
M  V30 1694 H 151.446 3.82992 3.93202 0
M  V30 1695 H 151.707 2.09328 3.89402 0
M  V30 1696 N 150.766 -0.704594 1.40972 0
M  V30 1697 C 152.182 -1.01406 1.23244 0
M  V30 1698 C 152.382 -2.01169 0.115399 0
M  V30 1699 O 151.438 -2.47021 -0.523147 0
M  V30 1700 C 152.751 -1.54728 2.57836 0
M  V30 1701 C 154.299 -1.66658 2.64942 0
M  V30 1702 C 154.774 -2.23383 3.9983 0
M  V30 1703 N 156.265 -2.30756 4.01629 0
M  V30 1704 C 157 -2.75655 5.02794 0
M  V30 1705 N 156.496 -3.20225 6.14352 0
M  V30 1706 N 158.289 -2.75138 4.90159 0
M  V30 1707 H 150.44 -0.0435285 2.12355 0
M  V30 1708 H 152.703 -0.0818951 0.944456 0
M  V30 1709 H 152.409 -0.888832 3.40283 0
M  V30 1710 H 152.283 -2.53084 2.79693 0
M  V30 1711 H 154.67 -2.31617 1.8286 0
M  V30 1712 H 154.751 -0.668717 2.46904 0
M  V30 1713 H 154.395 -1.59043 4.82357 0
M  V30 1714 H 154.325 -3.23904 4.15203 0
M  V30 1715 H 156.816 -1.99291 3.21079 0
M  V30 1716 H 157.129 -3.53084 6.87424 0
M  V30 1717 H 155.474 -3.18156 6.17901 0
M  V30 1718 H 158.665 -2.39661 4.02095 0
M  V30 1719 H 158.838 -3.09812 5.6914 0
M  V30 1720 N 152.244 -1.26651 -0.937939 0
M  V30 1721 C 153.521 -1.0313 -1.66204 0
M  V30 1722 C 153.901 0.437256 -2.06522 0
M  V30 1723 O 153.249 1.41831 -1.79154 0
M  V30 1724 C 153.459 -1.98314 -2.87181 0
M  V30 1725 C 154.807 -2.27107 -3.58758 0
M  V30 1726 O 155.831 -1.96205 -2.97291 0
M  V30 1727 O 154.69 -2.79736 -4.69479 0
M  V30 1728 H 151.784 -0.392384 -0.727986 0
M  V30 1729 H 154.33 -1.37874 -0.989382 0
M  V30 1730 H 153.102 -2.97399 -2.54302 0
M  V30 1731 H 152.725 -1.64068 -3.6217 0
M  V30 1732 N 153.722 1.14298 -1.08507 0
M  V30 1733 C 154.968 1.85854 -0.826438 0
M  V30 1734 C 155.323 1.81413 0.640878 0
M  V30 1735 O 154.616 1.23463 1.46518 0
M  V30 1736 C 154.81 3.33547 -1.28379 0
M  V30 1737 C 154.639 3.52369 -2.79403 0
M  V30 1738 C 153.409 3.67159 -3.47164 0
M  V30 1739 C 155.607 3.49203 -3.77573 0
M  V30 1740 N 153.589 3.74149 -4.86709 0
M  V30 1741 C 154.96 3.6245 -5.03021 0
M  V30 1742 C 157.015 3.32547 -3.70563 0
M  V30 1743 C 155.718 3.60761 -6.2229 0
M  V30 1744 C 157.744 3.32162 -4.89308 0
M  V30 1745 C 157.106 3.45949 -6.13595 0
M  V30 1746 H 153.205 0.696705 -0.355143 0
M  V30 1747 H 155.789 1.36981 -1.38362 0
M  V30 1748 H 153.96 3.81008 -0.754166 0
M  V30 1749 H 155.692 3.92867 -0.971469 0
M  V30 1750 H 152.447 3.68433 -2.9758 0
M  V30 1751 H 152.871 3.81359 -5.5937 0
M  V30 1752 H 157.513 3.20797 -2.75407 0
M  V30 1753 H 155.231 3.71286 -7.17755 0
M  V30 1754 H 158.817 3.20485 -4.85573 0
M  V30 1755 H 157.697 3.456 -7.03939 0
M  V30 1756 N 155.201 0.870884 1.31352 0
M  V30 1757 C 156.131 0.343096 2.30966 0
M  V30 1758 C 157.112 -0.566507 1.60389 0
M  V30 1759 O 158.297 -0.483336 1.88089 0
M  V30 1760 C 155.427 -0.455487 3.443 0
M  V30 1761 C 154.381 0.361103 4.26474 0
M  V30 1762 C 153.707 -0.563221 5.31725 0
M  V30 1763 C 155.007 1.59566 4.97329 0
M  V30 1764 H 156.701 1.17548 2.75359 0
M  V30 1765 H 154.247 0.566686 1.32381 0
M  V30 1766 H 156.2 -0.83525 4.13039 0
M  V30 1767 H 154.924 -1.32139 2.98675 0
M  V30 1768 H 153.583 0.722825 3.59403 0
M  V30 1769 H 153.231 -1.42643 4.82351 0
M  V30 1770 H 152.931 -0.0207409 5.87596 0
M  V30 1771 H 154.455 -0.939808 6.03324 0
M  V30 1772 H 155.869 1.28728 5.58661 0
M  V30 1773 H 154.266 2.07728 5.63 0
M  V30 1774 H 155.336 2.34798 4.24262 0
M  V30 1775 N 156.679 -1.44442 0.630414 0
M  V30 1776 C 157.642 -2.29107 -0.0652523 0
M  V30 1777 C 158.642 -1.41002 -0.772995 0
M  V30 1778 O 159.832 -1.62881 -0.617692 0
M  V30 1779 C 156.964 -3.22564 -1.10296 0
M  V30 1780 H 158.157 -2.92103 0.679401 0
M  V30 1781 H 155.71 -1.51343 0.390517 0
M  V30 1782 H 156.445 -2.64416 -1.87762 0
M  V30 1783 H 156.23 -3.87491 -0.59941 0
M  V30 1784 H 157.72 -3.86167 -1.5895 0
M  V30 1785 N 158.157 -0.370918 -1.53173 0
M  V30 1786 C 159.382 0.220293 -2.06227 0
M  V30 1787 C 159.807 1.41243 -1.24225 0
M  V30 1788 O 159.165 1.79387 -0.262645 0
M  V30 1789 C 159.213 0.586663 -3.55796 0
M  V30 1790 O 158.317 1.68317 -3.76488 0
M  V30 1791 H 157.658 0.0308099 -0.663285 0
M  V30 1792 H 160.188 -0.533068 -1.97534 0
M  V30 1793 H 160.198 0.85617 -3.98916 0
M  V30 1794 H 158.873 -0.285013 -4.14922 0
M  V30 1795 H 157.45 1.40881 -3.45264 0
M  V30 1796 N 159.635 1.57281 -0.100228 0
M  V30 1797 C 160.863 1.98879 0.570509 0
M  V30 1798 C 161.278 0.979476 1.61405 0
M  V30 1799 O 160.635 -0.0302288 1.82475 0
M  V30 1800 C 160.686 3.4052 1.2136 0
M  V30 1801 O 160.407 4.37588 0.211786 0
M  V30 1802 C 161.908 3.97149 1.96945 0
M  V30 1803 H 159.128 0.653428 0.152555 0
M  V30 1804 H 161.672 2.03697 -0.18103 0
M  V30 1805 H 159.827 3.367 1.91603 0
M  V30 1806 H 160.241 5.20118 0.676607 0
M  V30 1807 H 161.715 4.98393 2.37294 0
M  V30 1808 H 162.192 3.3525 2.83733 0
M  V30 1809 H 162.798 4.04458 1.31506 0
M  V30 1810 N 161.113 -0.173488 1.56642 0
M  V30 1811 C 162.36 -0.890465 1.81871 0
M  V30 1812 C 162.688 -1.82339 0.67696 0
M  V30 1813 O 161.943 -1.92795 -0.335926 0
M  V30 1814 C 162.242 -1.72069 3.13252 0
M  V30 1815 C 161.908 -0.936878 4.41059 0
M  V30 1816 C 160.57 -0.720545 4.75775 0
M  V30 1817 C 162.922 -0.386919 5.19762 0
M  V30 1818 C 160.25 0.0568829 5.86672 0
M  V30 1819 C 162.602 0.37741 6.31473 0
M  V30 1820 C 161.266 0.604563 6.64757 0
M  V30 1821 H 160.536 -0.325844 0.665512 0
M  V30 1822 H 163.183 -0.155527 1.90867 0
M  V30 1823 H 161.488 -2.52496 2.99588 0
M  V30 1824 H 163.185 -2.27844 3.29982 0
M  V30 1825 H 159.775 -1.11553 4.13828 0
M  V30 1826 H 163.959 -0.541398 4.93338 0
M  V30 1827 H 159.215 0.242635 6.10918 0
M  V30 1828 H 163.389 0.810825 6.91664 0
M  V30 1829 H 161.016 1.20885 7.50527 0
M  V30 1830 N 162.591 -1.51276 -0.441967 0
M  V30 1831 C 163.819 -1.67516 -1.21434 0
M  V30 1832 C 164.234 -0.37055 -1.85128 0
M  V30 1833 O 163.591 0.650498 -1.70513 0
M  V30 1834 C 163.642 -2.78748 -2.30177 0
M  V30 1835 O 163.363 -4.04154 -1.69089 0
M  V30 1836 C 164.864 -3.06217 -3.20541 0
M  V30 1837 H 162.084 -0.562276 -0.366178 0
M  V30 1838 H 164.628 -1.97666 -0.524244 0
M  V30 1839 H 162.783 -2.5121 -2.94911 0
M  V30 1840 H 163.197 -4.65894 -2.40922 0
M  V30 1841 H 164.671 -3.8764 -3.92987 0
M  V30 1842 H 165.148 -2.18439 -3.81026 0
M  V30 1843 H 165.754 -3.35397 -2.61513 0
M  V30 1844 N 164.069 0.697108 -1.41344 0
M  V30 1845 C 165.485 1.00751 -1.2378 0
M  V30 1846 C 165.685 2.01105 -0.126066 0
M  V30 1847 O 164.741 2.47295 0.51004 0
M  V30 1848 C 166.054 1.53359 -2.58653 0
M  V30 1849 C 167.602 1.6525 -2.65822 0
M  V30 1850 C 168.077 2.2126 -4.01009 0
M  V30 1851 N 169.568 2.28622 -4.02847 0
M  V30 1852 C 170.303 2.72984 -5.04249 0
M  V30 1853 N 169.799 3.16962 -6.16041 0
M  V30 1854 N 171.592 2.72534 -4.91611 0
M  V30 1855 H 163.743 0.0322662 -2.12375 0
M  V30 1856 H 166.006 0.0768853 -0.944877 0
M  V30 1857 H 165.712 0.870773 -3.4075 0
M  V30 1858 H 165.586 2.51597 -2.81032 0
M  V30 1859 H 167.973 2.30644 -1.84086 0
M  V30 1860 H 168.054 0.655614 -2.47256 0
M  V30 1861 H 167.698 1.56482 -4.83193 0
M  V30 1862 H 167.628 3.21698 -4.16915 0
M  V30 1863 H 170.119 1.97585 -3.22131 0
M  V30 1864 H 170.432 3.49434 -6.89287 0
M  V30 1865 H 168.777 3.14875 -6.1958 0
M  V30 1866 H 171.968 2.37525 -4.0336 0
M  V30 1867 H 172.141 3.06789 -5.70775 0
M  V30 1868 N 165.547 1.27147 0.931209 0
M  V30 1869 C 166.479 1.05364 2.03546 0
M  V30 1870 C 167.492 0.0108438 1.62796 0
M  V30 1871 O 168.681 0.25202 1.76712 0
M  V30 1872 C 165.781 0.575566 3.33977 0
M  V30 1873 C 164.954 1.68985 4.03439 0
M  V30 1874 C 164.013 1.20813 5.12143 0
M  V30 1875 O 163.039 1.90712 5.363 0
M  V30 1876 N 164.241 0.0618851 5.80467 0
M  V30 1877 H 167.006 2.00454 2.22796 0
M  V30 1878 H 164.567 1.18666 1.10136 0
M  V30 1879 H 166.559 0.237264 4.04004 0
M  V30 1880 H 165.129 -0.282016 3.11325 0
M  V30 1881 H 164.349 2.19861 3.27192 0
M  V30 1882 H 165.637 2.4378 4.46597 0
M  V30 1883 H 165.035 -0.521621 5.6329 0
M  V30 1884 H 163.592 -0.217264 6.51438 0
M  V30 1885 N 167.025 -1.13721 1.09112 0
M  V30 1886 C 167.958 -2.18094 0.67158 0
M  V30 1887 C 168.936 -1.59414 -0.320299 0
M  V30 1888 O 170.12 -1.87183 -0.222444 0
M  V30 1889 C 167.247 -3.38698 -0.0111189 0
M  V30 1890 C 166.293 -4.15966 0.942055 0
M  V30 1891 S 167.126 -4.7604 2.45246 0
M  V30 1892 C 168.282 -5.99994 1.78208 0
M  V30 1893 H 168.515 -2.53344 1.55577 0
M  V30 1894 H 166.048 -1.24967 0.906789 0
M  V30 1895 H 168.006 -4.08559 -0.398716 0
M  V30 1896 H 166.667 -3.01756 -0.871905 0
M  V30 1897 H 165.86 -5.02318 0.411396 0
M  V30 1898 H 165.462 -3.51745 1.2709 0
M  V30 1899 H 167.754 -6.68441 1.10424 0
M  V30 1900 H 168.697 -6.57662 2.62463 0
M  V30 1901 H 169.105 -5.50432 1.25238 0
M  V30 1902 N 168.503 -0.877838 -1.30888 0
M  V30 1903 C 169.751 -0.491723 -1.96027 0
M  V30 1904 C 170.072 0.960827 -1.69685 0
M  V30 1905 O 169.342 1.67462 -1.01654 0
M  V30 1906 H 167.922 -0.17885 -0.725273 0
M  V30 1907 H 170.584 -1.11935 -1.59551 0
M  V30 1908 H 169.68 -0.656016 -3.05128 0
M  V30 1909 N 169.982 1.44106 -0.638065 0
M  V30 1910 C 170.915 2.27924 0.112161 0
M  V30 1911 C 171.893 1.38945 0.844574 0
M  V30 1912 O 173.077 1.68386 0.847248 0
M  V30 1913 C 170.204 3.18029 1.16512 0
M  V30 1914 C 169.25 4.23163 0.532458 0
M  V30 1915 S 170.083 5.31131 -0.682666 0
M  V30 1916 C 171.239 6.24805 0.37013 0
M  V30 1917 H 171.472 2.91205 -0.598887 0
M  V30 1918 H 169.005 1.48394 -0.426441 0
M  V30 1919 H 170.963 3.70492 1.76766 0
M  V30 1920 H 169.624 2.53955 1.8484 0
M  V30 1921 H 168.817 4.86252 1.32571 0
M  V30 1922 H 168.419 3.74 0.00437644 0
M  V30 1923 H 170.711 6.66042 1.24071 0
M  V30 1924 H 171.654 7.07741 -0.225349 0
M  V30 1925 H 172.062 5.60154 0.699141 0
M  V30 1926 N 171.46 0.379036 1.52974 0
M  V30 1927 C 172.393 -0.504932 2.22544 0
M  V30 1928 C 173.371 -1.0723 1.22231 0
M  V30 1929 O 174.555 -1.12589 1.51182 0
M  V30 1930 C 171.682 -1.69794 2.93066 0
M  V30 1931 C 170.728 -1.25678 4.07563 0
M  V30 1932 S 171.561 -0.246852 5.34931 0
M  V30 1933 C 172.717 -1.44588 6.08971 0
M  V30 1934 H 172.95 0.0858666 2.97176 0
M  V30 1935 H 170.483 0.163183 1.53535 0
M  V30 1936 H 172.441 -2.38219 3.34308 0
M  V30 1937 H 171.102 -2.26002 2.18133 0
M  V30 1938 H 170.295 -2.14725 4.5597 0
M  V30 1939 H 169.897 -0.651584 3.6828 0
M  V30 1940 H 172.189 -2.37469 6.34519 0
M  V30 1941 H 173.132 -1.00292 7.00962 0
M  V30 1942 H 173.54 -1.65804 5.39601 0
M  V30 1943 N 172.938 -1.57226 0.108567 0
M  V30 1944 C 173.868 -2.17778 -0.84232 0
M  V30 1945 C 174.849 -1.11487 -1.2847 0
M  V30 1946 O 176.034 -1.39681 -1.34918 0
M  V30 1947 C 173.164 -2.76888 -2.09644 0
M  V30 1948 C 172.118 -3.88669 -1.79221 0
M  V30 1949 C 171.444 -4.34541 -3.11574 0
M  V30 1950 C 172.744 -5.11251 -1.06864 0
M  V30 1951 H 174.438 -2.97489 -0.337774 0
M  V30 1952 H 171.984 -1.43097 -0.161025 0
M  V30 1953 H 173.937 -3.17904 -2.76614 0
M  V30 1954 H 172.661 -1.94451 -2.62405 0
M  V30 1955 H 171.32 -3.48213 -1.14644 0
M  V30 1956 H 170.968 -3.48977 -3.62249 0
M  V30 1957 H 170.668 -5.09914 -2.91996 0
M  V30 1958 H 172.192 -4.782 -3.7968 0
M  V30 1959 H 173.606 -5.49352 -1.63968 0
M  V30 1960 H 172.003 -5.9214 -0.974178 0
M  V30 1961 H 173.073 -4.8487 -0.0536168 0
M  V30 1962 N 174.416 0.165178 -1.56732 0
M  V30 1963 C 175.832 0.517174 -1.50988 0
M  V30 1964 C 176.032 1.84331 -0.813894 0
M  V30 1965 O 175.088 2.49672 -0.37682 0
M  V30 1966 C 176.401 0.544261 -2.95733 0
M  V30 1967 C 177.949 0.631039 -3.06573 0
M  V30 1968 C 178.424 0.68896 -4.52788 0
M  V30 1969 N 179.915 0.751683 -4.5706 0
M  V30 1970 C 180.65 0.817177 -5.67547 0
M  V30 1971 N 180.146 0.843129 -6.8765 0
M  V30 1972 N 181.939 0.856668 -5.55534 0
M  V30 1973 H 174.09 -0.704318 -2.00382 0
M  V30 1974 H 176.353 -0.254687 -0.913148 0
M  V30 1975 H 176.059 -0.361607 -3.49836 0
M  V30 1976 H 175.933 1.3886 -3.5071 0
M  V30 1977 H 178.32 1.52733 -2.52501 0
M  V30 1978 H 178.401 -0.240095 -2.54671 0
M  V30 1979 H 178.045 -0.2031 -5.07494 0
M  V30 1980 H 177.975 1.57633 -5.02454 0
M  V30 1981 H 180.466 0.739661 -3.70591 0
M  V30 1982 H 180.779 0.894448 -7.67606 0
M  V30 1983 H 179.124 0.811304 -6.90248 0
M  V30 1984 H 182.315 0.833437 -4.60621 0
M  V30 1985 H 182.488 0.904247 -6.4166 0
M  V30 1986 N 175.894 1.51508 0.433938 0
M  V30 1987 C 177.31 1.39759 0.770682 0
M  V30 1988 C 177.51 0.482594 1.95636 0
M  V30 1989 O 176.566 -0.0609691 2.52426 0
M  V30 1990 C 177.879 2.81851 1.04787 0
M  V30 1991 C 179.427 2.91025 1.1521 0
M  V30 1992 C 179.902 4.34032 1.46219 0
M  V30 1993 N 181.393 4.37154 1.53136 0
M  V30 1994 C 182.128 5.4484 1.78709 0
M  V30 1995 N 181.624 6.62682 2.02051 0
M  V30 1996 N 183.417 5.32324 1.80519 0
M  V30 1997 H 175.568 2.09548 -0.346892 0
M  V30 1998 H 177.831 0.943446 -0.0928074 0
M  V30 1999 H 177.537 3.50815 0.249304 0
M  V30 2000 H 177.411 3.21386 1.97461 0
M  V30 2001 H 179.798 2.22257 1.94128 0
M  V30 2002 H 179.879 2.54983 0.204281 0
M  V30 2003 H 179.523 5.03351 0.678274 0
M  V30 2004 H 179.453 4.6759 2.42212 0
M  V30 2005 H 181.944 3.52197 1.36987 0
M  V30 2006 H 182.257 7.40543 2.20943 0
M  V30 2007 H 180.602 6.65791 1.99366 0
M  V30 2008 H 183.793 4.39246 1.61805 0
M  V30 2009 H 183.966 6.16328 2.00111 0
M  V30 2010 N 177.372 -0.689602 1.41712 0
M  V30 2011 C 178.597 -1.48329 1.44959 0
M  V30 2012 C 179.022 -1.8801 0.0581283 0
M  V30 2013 O 178.38 -1.55026 -0.940035 0
M  V30 2014 C 178.428 -2.71835 2.36935 0
M  V30 2015 O 177.532 -3.69549 1.8305 0
M  V30 2016 H 176.873 -0.446199 0.491734 0
M  V30 2017 H 179.403 -0.847127 1.86239 0
M  V30 2018 H 179.413 -3.20076 2.53013 0
M  V30 2019 H 178.088 -2.42291 3.38035 0
M  V30 2020 H 176.665 -3.2851 1.76452 0
M  V30 2021 N 178.85 -1.27639 -0.924453 0
M  V30 2022 C 180.127 -1.04887 -1.651 0
M  V30 2023 C 180.507 0.415327 -2.06974 0
M  V30 2024 O 179.855 1.39923 -1.80648 0
M  V30 2025 C 180.065 -2.01348 -2.85061 0
M  V30 2026 C 181.413 -2.30899 -3.56329 0
M  V30 2027 O 182.437 -1.99348 -2.95193 0
M  V30 2028 O 181.296 -2.84699 -4.66485 0
M  V30 2029 H 178.39 -0.400083 -0.723784 0
M  V30 2030 H 180.936 -1.38916 -0.974703 0
M  V30 2031 H 179.708 -3.0008 -2.51133 0
M  V30 2032 H 179.331 -1.679 -3.6041 0
M  V30 2033 N 180.328 1.1314 -1.09713 0
M  V30 2034 C 181.238 2.22242 -0.751367 0
M  V30 2035 C 182.254 1.72224 0.247938 0
M  V30 2036 O 183.43 2.01205 0.0885463 0
M  V30 2037 C 180.495 3.46231 -0.180274 0
M  V30 2038 C 179.556 4.11125 -1.2359 0
M  V30 2039 C 178.789 5.29195 -0.691966 0
M  V30 2040 O 179.012 5.68342 0.48414 0
M  V30 2041 O 177.946 5.84214 -1.44838 0
M  V30 2042 H 181.772 2.54197 -1.66186 0
M  V30 2043 H 179.357 1.21331 -0.871735 0
M  V30 2044 H 181.239 4.21185 0.134739 0
M  V30 2045 H 179.914 3.1597 0.703185 0
M  V30 2046 H 178.821 3.37985 -1.60366 0
M  V30 2047 H 180.154 4.45524 -2.09211 0
M  V30 2048 N 181.806 0.884767 1.30421 0
M  V30 2049 C 182.753 0.349642 2.28136 0
M  V30 2050 C 183.723 -0.560061 1.56373 0
M  V30 2051 O 184.908 -0.488524 1.8444 0
M  V30 2052 C 182.048 -0.42999 3.42411 0
M  V30 2053 C 181.161 0.508907 4.28992 0
M  V30 2054 C 180.296 -0.286301 5.30428 0
M  V30 2055 C 179.335 0.648079 6.08659 0
M  V30 2056 N 178.472 -0.111792 7.02011 0
M  V30 2057 H 183.312 1.18807 2.73293 0
M  V30 2058 H 180.849 0.597231 1.3443 0
M  V30 2059 H 182.807 -0.897923 4.07423 0
M  V30 2060 H 181.437 -1.23299 2.98324 0
M  V30 2061 H 180.489 1.09533 3.64289 0
M  V30 2062 H 181.801 1.22475 4.8353 0
M  V30 2063 H 180.955 -0.816098 6.01186 0
M  V30 2064 H 179.694 -1.03536 4.76583 0
M  V30 2065 H 178.699 1.18951 5.36778 0
M  V30 2066 H 179.924 1.39623 6.64592 0
M  V30 2067 H 177.87 -0.843395 6.50556 0
M  V30 2068 H 177.787 0.544429 7.54037 0
M  V30 2069 H 179.055 -0.622339 7.77012 0
M  V30 2070 N 183.284 -1.43765 0.645699 0
M  V30 2071 C 184.695 -1.85193 0.236719 0
M  V30 2072 C 185.046 -1.54045 -1.21509 0
M  V30 2073 O 184.171 -0.985694 -1.92647 0
M  V30 2074 C 184.766 -3.36151 0.422845 0
M  V30 2075 C 183.325 -3.76338 0.0682492 0
M  V30 2076 C 182.472 -2.67538 0.729306 0
M  V30 2077 H 185.423 -1.34025 0.849883 0
M  V30 2078 H 185.444 -3.79032 -0.333904 0
M  V30 2079 H 184.956 -3.5879 1.47958 0
M  V30 2080 H 183.057 -3.59312 -0.986179 0
M  V30 2081 H 183.17 -4.76603 0.488469 0
M  V30 2082 H 181.534 -2.54176 0.163235 0
M  V30 2083 H 182.317 -2.93006 1.78892 0
M  V30 2084 N 184.763 -0.387143 -1.52771 0
M  V30 2085 C 186.179 -0.037007 -1.59557 0
M  V30 2086 C 186.379 1.44801 -1.40124 0
M  V30 2087 O 185.435 2.21227 -1.21716 0
M  V30 2088 C 186.748 -0.512256 -2.96305 0
M  V30 2089 C 188.296 -0.468328 -3.09476 0
M  V30 2090 C 188.771 -0.919731 -4.4867 0
M  V30 2091 N 190.262 -0.875656 -4.54848 0
M  V30 2092 C 190.997 -1.19637 -5.6078 0
M  V30 2093 N 190.493 -1.58745 -6.74368 0
M  V30 2094 N 192.286 -1.11776 -5.50874 0
M  V30 2095 H 184.437 -1.35395 -1.63652 0
M  V30 2096 H 186.7 -0.554818 -0.768688 0
M  V30 2097 H 186.406 -1.54935 -3.15734 0
M  V30 2098 H 186.28 0.089805 -3.77093 0
M  V30 2099 H 188.667 0.559671 -2.89744 0
M  V30 2100 H 188.748 -1.10616 -2.30646 0
M  V30 2101 H 188.392 -1.94595 -4.69143 0
M  V30 2102 H 188.322 -0.258927 -5.25963 0
M  V30 2103 H 190.813 -0.587843 -3.733 0
M  V30 2104 H 191.126 -1.81586 -7.51163 0
M  V30 2105 H 189.471 -1.6263 -6.75705 0
M  V30 2106 H 192.662 -0.811264 -4.61016 0
M  V30 2107 H 192.835 -1.37103 -6.3333 0
M  V30 2108 N 186.241 1.57166 -0.116904 0
M  V30 2109 C 187.488 1.95123 0.541603 0
M  V30 2110 C 187.816 1.00006 1.6682 0
M  V30 2111 O 187.071 0.0235658 1.95686 0
M  V30 2112 C 187.37 3.39508 1.11664 0
M  V30 2113 C 187.036 4.50762 0.111606 0
M  V30 2114 C 185.698 4.80918 -0.164758 0
M  V30 2115 C 188.05 5.18036 -0.573438 0
M  V30 2116 C 185.378 5.75666 -1.13249 0
M  V30 2117 C 187.73 6.13824 -1.52978 0
M  V30 2118 C 186.394 6.42374 -1.81415 0
M  V30 2119 H 185.664 0.714005 0.198187 0
M  V30 2120 H 188.311 1.9048 -0.197365 0
M  V30 2121 H 186.616 3.40835 1.93232 0
M  V30 2122 H 188.313 3.66189 1.63422 0
M  V30 2123 H 184.903 4.27272 0.337192 0
M  V30 2124 H 189.087 4.94896 -0.373092 0
M  V30 2125 H 184.343 5.96092 -1.35958 0
M  V30 2126 H 188.517 6.65039 -2.06629 0
M  V30 2127 H 186.144 7.15599 -2.56557 0
M  V30 2128 N 187.719 -0.156864 1.56817 0
M  V30 2129 C 188.666 -1.19394 1.97519 0
M  V30 2130 C 189.636 -1.4322 0.841265 0
M  V30 2131 O 190.821 -1.55719 1.10255 0
M  V30 2132 C 187.961 -2.52483 2.35258 0
M  V30 2133 C 187.074 -2.35914 3.61896 0
M  V30 2134 C 186.209 -3.61969 3.88782 0
M  V30 2135 C 185.248 -3.40395 5.08722 0
M  V30 2136 N 184.385 -4.58556 5.31668 0
M  V30 2137 H 189.225 -0.839845 2.85921 0
M  V30 2138 H 186.762 -0.403264 1.41464 0
M  V30 2139 H 188.72 -3.30071 2.55165 0
M  V30 2140 H 187.35 -2.85859 1.49949 0
M  V30 2141 H 186.402 -1.49429 3.49821 0
M  V30 2142 H 187.714 -2.15926 4.49641 0
M  V30 2143 H 186.868 -4.47989 4.09135 0
M  V30 2144 H 185.607 -3.84951 2.9944 0
M  V30 2145 H 184.612 -2.52763 4.88253 0
M  V30 2146 H 185.837 -3.18822 5.99608 0
M  V30 2147 H 183.783 -4.81729 4.45279 0
M  V30 2148 H 183.7 -4.41535 6.13664 0
M  V30 2149 H 184.968 -5.45817 5.5651 0
M  V30 2150 N 189.197 -1.51736 -0.425897 0
M  V30 2151 C 190.422 -1.69082 -1.20108 0
M  V30 2152 C 190.847 -0.392398 -1.83962 0
M  V30 2153 O 190.205 0.64858 -1.69302 0
M  V30 2154 C 190.253 -2.81604 -2.25237 0
M  V30 2155 O 189.357 -2.46004 -3.30992 0
M  V30 2156 H 188.698 -0.563408 -0.35138 0
M  V30 2157 H 191.228 -1.98358 -0.501512 0
M  V30 2158 H 191.238 -3.06025 -2.69838 0
M  V30 2159 H 189.913 -3.75817 -1.78142 0
M  V30 2160 H 188.49 -2.32195 -2.91787 0
M  V30 2161 N 190.675 0.682077 -1.42076 0
M  V30 2162 C 191.924 1.43786 -1.41451 0
M  V30 2163 C 192.237 1.95574 -0.0317074 0
M  V30 2164 O 193.443 2.71326 0.0971462 0
M  V30 2165 C 191.899 2.60071 -2.48779 0
M  V30 2166 C 191.507 2.15013 -3.93031 0
M  V30 2167 C 193.251 3.37626 -2.57311 0
M  V30 2168 C 191.158 3.28336 -4.91883 0
M  V30 2169 H 190.088 0.540143 -0.526082 0
M  V30 2170 H 192.739 0.739157 -1.67955 0
M  V30 2171 H 191.121 3.32275 -2.15429 0
M  V30 2172 H 192.295 1.5001 -4.35699 0
M  V30 2173 H 190.61 1.50416 -3.88284 0
M  V30 2174 H 193.207 4.22012 -3.28345 0
M  V30 2175 H 193.55 3.83727 -1.61429 0
M  V30 2176 H 194.083 2.72488 -2.89819 0
M  V30 2177 H 190.822 2.87234 -5.89217 0
M  V30 2178 H 190.342 3.92145 -4.53853 0
M  V30 2179 H 192.021 3.93913 -5.13265 0
M  V30 2180 N 192.153 1.28127 0.917671 0
M  V30 2181 C 193.399 1.15223 1.66888 0
M  V30 2182 C 193.732 -0.299293 1.9188 0
M  V30 2183 O 193.007 -1.21805 1.51637 0
M  V30 2184 C 193.29 1.94706 3.02922 0
M  V30 2185 C 193.143 3.47898 2.85109 0
M  V30 2186 C 194.462 1.75939 4.03402 0
M  V30 2187 H 191.581 0.419946 0.605652 0
M  V30 2188 H 194.223 1.57398 1.06423 0
M  V30 2189 H 192.373 1.58864 3.54534 0
M  V30 2190 H 194.045 3.93624 2.40537 0
M  V30 2191 H 192.288 3.7373 2.20246 0
M  V30 2192 H 192.959 3.98765 3.81694 0
M  V30 2193 H 195.435 2.07209 3.60837 0
M  V30 2194 H 194.311 2.33931 4.96556 0
M  V30 2195 H 194.572 0.709877 4.36364 0
M  V30 2196 N 193.631 -1.12557 1.10312 0
M  V30 2197 C 194.581 -2.16331 0.720076 0
M  V30 2198 C 195.565 -1.58616 -0.270115 0
M  V30 2199 O 196.757 -1.76823 -0.0790507 0
M  V30 2200 C 193.886 -3.42963 0.152113 0
M  V30 2201 C 192.972 -4.07663 1.16927 0
M  V30 2202 N 193.363 -4.47392 2.35953 0
M  V30 2203 C 191.661 -4.34425 1.0095 0
M  V30 2204 C 192.362 -4.97932 3.0073 0
M  V30 2205 N 191.338 -4.93358 2.28252 0
M  V30 2206 H 195.14 -2.44813 1.62616 0
M  V30 2207 H 192.654 -1.29449 0.980654 0
M  V30 2208 H 194.651 -4.16664 -0.14037 0
M  V30 2209 H 193.311 -3.1595 -0.748701 0
M  V30 2210 H 194.322 -4.39802 2.73486 0
M  V30 2211 H 190.999 -4.17177 0.164134 0
M  V30 2212 H 192.389 -5.38397 4.01969 0
M  V30 2213 N 195.109 -0.891671 -1.2995 0
M  V30 2214 C 196.072 -0.36828 -2.26222 0
M  V30 2215 C 197.072 0.493014 -1.53056 0
M  V30 2216 O 198.262 0.299213 -1.71611 0
M  V30 2217 C 195.394 0.47442 -3.37583 0
M  V30 2218 H 196.587 -1.21844 -2.74033 0
M  V30 2219 H 194.14 -0.669107 -1.41254 0
M  V30 2220 H 194.875 1.34489 -2.95099 0
M  V30 2221 H 194.66 -0.142615 -3.91841 0
M  V30 2222 H 196.15 0.83218 -4.09224 0
M  V30 2223 N 196.587 1.43421 -0.653314 0
M  V30 2224 C 197.833 2.02111 -0.166992 0
M  V30 2225 C 198.166 1.51423 1.21592 0
M  V30 2226 O 197.441 0.707389 1.8118 0
M  V30 2227 C 197.724 3.5966 -0.177948 0
M  V30 2228 C 197.577 4.20579 -1.59478 0
M  V30 2229 C 198.896 4.37413 0.4856 0
M  V30 2230 H 196.015 0.734374 -0.0621557 0
M  V30 2231 H 198.657 1.70717 -0.834016 0
M  V30 2232 H 196.807 3.86537 0.390032 0
M  V30 2233 H 198.479 4.04732 -2.21336 0
M  V30 2234 H 196.722 3.77226 -2.14204 0
M  V30 2235 H 197.393 5.29665 -1.5543 0
M  V30 2236 H 199.869 4.161 0.00234528 0
M  V30 2237 H 198.745 5.47075 0.447207 0
M  V30 2238 H 199.006 4.13672 1.55974 0
M  V30 2239 N 198.065 0.39524 1.52563 0
M  V30 2240 C 198.997 -0.472201 2.24283 0
M  V30 2241 C 200.01 -1.02178 1.26742 0
M  V30 2242 O 201.199 -0.923097 1.52778 0
M  V30 2243 C 198.299 -1.66775 2.95024 0
M  V30 2244 C 197.472 -1.2445 4.19322 0
M  V30 2245 C 196.531 -2.30539 4.7301 0
M  V30 2246 O 195.557 -1.91702 5.35947 0
M  V30 2247 N 196.759 -3.6253 4.53379 0
M  V30 2248 H 199.524 0.142282 2.99362 0
M  V30 2249 H 197.085 0.2219 1.60372 0
M  V30 2250 H 199.077 -2.37283 3.27839 0
M  V30 2251 H 197.647 -2.18845 2.23217 0
M  V30 2252 H 196.867 -0.368069 3.92478 0
M  V30 2253 H 198.155 -0.938457 5.0007 0
M  V30 2254 H 197.553 -3.96841 4.03154 0
M  V30 2255 H 196.11 -4.29055 4.90668 0
M  V30 2256 N 199.544 -1.57102 0.125237 0
M  V30 2257 C 200.507 -2.14471 -0.80838 0
M  V30 2258 C 201.507 -1.0811 -1.19033 0
M  V30 2259 O 202.697 -1.33856 -1.11482 0
M  V30 2260 C 199.829 -2.69005 -2.09402 0
M  V30 2261 H 201.022 -2.98297 -0.309696 0
M  V30 2262 H 198.575 -1.55807 -0.124051 0
M  V30 2263 H 199.31 -1.88785 -2.63687 0
M  V30 2264 H 199.095 -3.46799 -1.82957 0
M  V30 2265 H 200.585 -3.13278 -2.76128 0
M  V30 2266 N 201.022 0.148545 -1.56898 0
M  V30 2267 C 202.27 0.859717 -1.82902 0
M  V30 2268 C 202.591 1.81775 -0.70588 0
M  V30 2269 O 201.861 1.93994 0.272586 0
M  V30 2270 H 200.441 0.320469 -0.674766 0
M  V30 2271 H 203.103 0.142918 -1.94375 0
M  V30 2272 H 202.199 1.4229 -2.77777 0
M  V30 2273 N 202.5 1.5196 0.417844 0
M  V30 2274 C 203.749 1.6482 1.16264 0
M  V30 2275 C 204.062 0.379886 1.91876 0
M  V30 2276 O 205.268 0.388154 2.68711 0
M  V30 2277 C 203.724 2.91161 2.1155 0
M  V30 2278 C 203.332 4.25068 1.41495 0
M  V30 2279 C 205.076 3.13383 2.86341 0
M  V30 2280 C 202.983 5.42541 2.35379 0
M  V30 2281 H 201.913 0.613954 0.437694 0
M  V30 2282 H 204.564 1.78442 0.427871 0
M  V30 2283 H 202.946 2.71218 2.88543 0
M  V30 2284 H 204.12 4.55463 0.699263 0
M  V30 2285 H 202.435 4.0888 0.787792 0
M  V30 2286 H 205.032 3.98324 3.5671 0
M  V30 2287 H 205.375 2.27256 3.48798 0
M  V30 2288 H 205.908 3.33757 2.1645 0
M  V30 2289 H 202.647 6.30987 1.77582 0
M  V30 2290 H 202.167 5.16497 3.04945 0
M  V30 2291 H 203.846 5.75272 2.96093 0
M  V30 2292 N 203.978 -0.674533 1.42435 0
M  V30 2293 C 205.225 -1.43459 1.42919 0
M  V30 2294 C 205.553 -1.94446 0.0457312 0
M  V30 2295 O 204.808 -1.7132 -0.94593 0
M  V30 2296 C 205.107 -2.64767 2.40069 0
M  V30 2297 C 204.773 -2.3232 3.86443 0
M  V30 2298 C 203.435 -2.23182 4.26314 0
M  V30 2299 C 205.787 -2.05977 4.78773 0
M  V30 2300 C 203.115 -1.85827 5.56494 0
M  V30 2301 C 205.467 -1.70125 6.09295 0
M  V30 2302 C 204.131 -1.59498 6.48164 0
M  V30 2303 H 203.401 -0.524952 0.522978 0
M  V30 2304 H 206.048 -0.769097 1.75377 0
M  V30 2305 H 204.353 -3.36349 2.00939 0
M  V30 2306 H 206.05 -3.22949 2.37707 0
M  V30 2307 H 202.64 -2.40334 3.54877 0
M  V30 2308 H 206.824 -2.11969 4.48757 0
M  V30 2309 H 202.08 -1.76168 5.8547 0
M  V30 2310 H 206.254 -1.48767 6.80324 0
M  V30 2311 H 203.881 -1.30322 7.48946 0
M  V30 2312 N 205.456 -1.28612 -0.910864 0
M  V30 2313 C 206.702 -1.16106 -1.66274 0
M  V30 2314 C 207.035 0.289113 -1.92036 0
M  V30 2315 O 206.31 1.21 -1.52281 0
M  V30 2316 C 206.593 -1.96309 -3.01885 0
M  V30 2317 C 206.446 -3.49405 -2.8326 0
M  V30 2318 C 207.765 -1.78076 -4.02463 0
M  V30 2319 H 204.884 -0.423152 -0.603417 0
M  V30 2320 H 207.526 -1.57961 -1.05586 0
M  V30 2321 H 205.676 -1.60742 -3.53687 0
M  V30 2322 H 207.348 -3.94894 -2.38446 0
M  V30 2323 H 205.591 -3.74893 -2.18261 0
M  V30 2324 H 206.262 -4.00784 -3.79574 0
M  V30 2325 H 208.738 -2.0912 -3.59733 0
M  V30 2326 H 207.614 -2.36561 -4.95308 0
M  V30 2327 H 207.875 -0.733008 -4.35981 0
M  V30 2328 N 206.934 1.1197 -1.10907 0
M  V30 2329 C 207.844 2.21433 -0.774896 0
M  V30 2330 C 208.86 1.72478 0.229657 0
M  V30 2331 O 210.036 2.01288 0.0672008 0
M  V30 2332 C 207.101 3.4602 -0.216986 0
M  V30 2333 C 206.162 4.09791 -1.27944 0
M  V30 2334 C 205.395 5.28431 -0.748055 0
M  V30 2335 O 205.618 5.68823 0.423833 0
M  V30 2336 O 204.552 5.82644 -1.51027 0
M  V30 2337 H 208.378 2.5242 -1.68873 0
M  V30 2338 H 205.963 1.20399 -0.884555 0
M  V30 2339 H 207.845 4.21304 0.090059 0
M  V30 2340 H 206.52 3.16698 0.669633 0
M  V30 2341 H 205.427 3.36265 -1.63941 0
M  V30 2342 H 206.76 4.4328 -2.13925 0
M  V30 2343 N 208.412 0.89855 1.29475 0
M  V30 2344 C 209.828 0.594483 1.48115 0
M  V30 2345 C 210.028 -0.86431 1.82022 0
M  V30 2346 O 209.084 -1.64457 1.91599 0
M  V30 2347 C 210.397 1.51932 2.59494 0
M  V30 2348 C 211.945 1.5244 2.7337 0
M  V30 2349 C 212.42 2.43548 3.87877 0
M  V30 2350 N 213.911 2.41589 3.95208 0
M  V30 2351 C 214.646 3.08789 4.83153 0
M  V30 2352 N 214.142 3.85265 5.75798 0
M  V30 2353 N 215.935 2.97952 4.76635 0
M  V30 2354 H 208.086 1.84207 1.05742 0
M  V30 2355 H 210.349 0.789251 0.525154 0
M  V30 2356 H 210.055 2.55865 2.41301 0
M  V30 2357 H 209.929 1.23899 3.56271 0
M  V30 2358 H 212.316 0.492518 2.90961 0
M  V30 2359 H 212.397 1.8451 1.77172 0
M  V30 2360 H 212.041 3.46829 3.71041 0
M  V30 2361 H 211.971 2.08788 4.83441 0
M  V30 2362 H 214.462 1.86025 3.28943 0
M  V30 2363 H 214.775 4.33598 6.39697 0
M  V30 2364 H 213.12 3.89371 5.75687 0
M  V30 2365 H 216.311 2.37723 4.03244 0
M  V30 2366 H 216.484 3.50599 5.44962 0
M  V30 2367 N 209.89 -1.43072 0.660911 0
M  V30 2368 C 210.823 -2.28074 -0.0758862 0
M  V30 2369 C 211.801 -1.40271 -0.822362 0
M  V30 2370 O 212.985 -1.69713 -0.820352 0
M  V30 2371 C 210.112 -3.19843 -1.11437 0
M  V30 2372 C 209.158 -4.23957 -0.465069 0
M  V30 2373 S 209.991 -5.29978 0.767078 0
M  V30 2374 C 211.147 -6.25314 -0.270682 0
M  V30 2375 H 211.38 -2.90216 0.645139 0
M  V30 2376 H 208.913 -1.47697 0.449995 0
M  V30 2377 H 210.871 -3.73257 -1.70849 0
M  V30 2378 H 209.532 -2.56863 -1.80776 0
M  V30 2379 H 208.725 -4.88299 -1.24819 0
M  V30 2380 H 208.327 -3.73959 0.0551242 0
M  V30 2381 H 210.619 -6.67932 -1.13459 0
M  V30 2382 H 211.562 -7.07293 0.337916 0
M  V30 2383 H 211.97 -5.61195 -0.609937 0
M  V30 2384 N 211.368 -0.403325 -1.52352 0
M  V30 2385 C 212.598 0.17376 -2.05868 0
M  V30 2386 C 213.006 1.39898 -1.27378 0
M  V30 2387 O 212.349 1.80939 -0.31729 0
M  V30 2388 C 212.411 0.594756 -3.54546 0
M  V30 2389 C 212.075 -0.518926 -4.54044 0
M  V30 2390 C 213.072 -1.3807 -5.01231 0
M  V30 2391 C 210.757 -0.689961 -4.97539 0
M  V30 2392 C 212.751 -2.39852 -5.90551 0
M  V30 2393 C 210.438 -1.71109 -5.86656 0
M  V30 2394 C 211.436 -2.56378 -6.33056 0
M  V30 2395 O 211.124 -3.56743 -7.20409 0
M  V30 2396 H 210.856 0.0264951 -0.675481 0
M  V30 2397 H 213.41 -0.571179 -1.97299 0
M  V30 2398 H 211.64 1.39189 -3.60782 0
M  V30 2399 H 213.329 1.0991 -3.90736 0
M  V30 2400 H 214.095 -1.25994 -4.68349 0
M  V30 2401 H 209.974 -0.035939 -4.60986 0
M  V30 2402 H 213.518 -3.06441 -6.26689 0
M  V30 2403 H 209.415 -1.83218 -6.18952 0
M  V30 2404 H 210.183 -3.52918 -7.38506 0
M  V30 2405 N 212.846 1.57033 -0.133567 0
M  V30 2406 C 214.262 1.58035 0.222944 0
M  V30 2407 C 214.462 1.14713 1.6566 0
M  V30 2408 O 213.518 0.841218 2.38075 0
M  V30 2409 C 214.831 3.00691 -0.0236116 0
M  V30 2410 C 216.379 3.12973 0.0411512 0
M  V30 2411 C 216.854 4.57654 -0.177899 0
M  V30 2412 N 218.345 4.63033 -0.124365 0
M  V30 2413 C 219.08 5.72771 -0.268553 0
M  V30 2414 N 218.576 6.91206 -0.46972 0
M  V30 2415 N 220.369 5.61718 -0.2071 0
M  V30 2416 H 212.52 1.8349 -1.06981 0
M  V30 2417 H 214.783 0.848677 -0.422436 0
M  V30 2418 H 214.489 3.36726 -1.0153 0
M  V30 2419 H 214.363 3.70614 0.701808 0
M  V30 2420 H 216.75 2.76787 1.02338 0
M  V30 2421 H 216.831 2.45564 -0.716383 0
M  V30 2422 H 216.475 4.94542 -1.15717 0
M  V30 2423 H 216.405 5.23173 0.599797 0
M  V30 2424 H 218.896 3.7789 0.027011 0
M  V30 2425 H 219.209 7.70693 -0.570212 0
M  V30 2426 H 217.554 6.93156 -0.505876 0
M  V30 2427 H 220.745 4.68072 -0.0507986 0
M  V30 2428 H 220.918 6.47195 -0.322909 0
M  V30 2429 N 214.325 -0.140222 1.56975 0
M  V30 2430 C 215.741 -0.493088 1.51792 0
M  V30 2431 C 215.941 -1.83013 0.843116 0
M  V30 2432 O 214.997 -2.49041 0.416493 0
M  V30 2433 C 216.31 -0.497144 2.96562 0
M  V30 2434 C 217.858 -0.582186 3.07538 0
M  V30 2435 C 218.333 -0.616838 4.53827 0
M  V30 2436 N 219.824 -0.678873 4.58198 0
M  V30 2437 C 220.559 -0.726782 5.68775 0
M  V30 2438 N 220.055 -0.733623 6.88905 0
M  V30 2439 N 221.848 -0.768179 5.56826 0
M  V30 2440 H 213.999 0.736108 1.99237 0
M  V30 2441 H 216.262 0.269182 0.90898 0
M  V30 2442 H 215.968 0.417217 3.49217 0
M  V30 2443 H 215.842 -1.33263 3.52875 0
M  V30 2444 H 218.229 -1.48697 2.54899 0
M  V30 2445 H 218.31 0.280581 2.54257 0
M  V30 2446 H 217.954 0.283812 5.07106 0
M  V30 2447 H 217.884 -1.49619 5.04898 0
M  V30 2448 H 220.375 -0.68061 3.7172 0
M  V30 2449 H 220.688 -0.772215 7.68932 0
M  V30 2450 H 219.033 -0.701389 6.91452 0
M  V30 2451 H 222.224 -0.760051 4.61888 0
M  V30 2452 H 222.397 -0.80205 6.43017 0
M  V30 2453 N 215.803 -1.52179 -0.40978 0
M  V30 2454 C 217.031 -1.70054 -1.17853 0
M  V30 2455 C 217.446 -0.409735 -1.843 0
M  V30 2456 O 216.803 0.614183 -1.71855 0
M  V30 2457 C 216.854 -2.83568 -2.24213 0
M  V30 2458 O 216.575 -4.0765 -1.60478 0
M  V30 2459 C 218.076 -3.12947 -3.13973 0
M  V30 2460 H 215.296 -0.569917 -0.354169 0
M  V30 2461 H 217.84 -1.98734 -0.482198 0
M  V30 2462 H 215.995 -2.57409 -2.89516 0
M  V30 2463 H 216.409 -4.70899 -2.30986 0
M  V30 2464 H 217.883 -3.95889 -3.84677 0
M  V30 2465 H 218.36 -2.26472 -3.76307 0
M  V30 2466 H 218.966 -3.40868 -2.5434 0
M  V30 2467 N 217.281 0.66697 -1.42791 0
M  V30 2468 C 218.506 1.46004 -1.47301 0
M  V30 2469 C 218.931 1.87894 -0.0880317 0
M  V30 2470 O 218.289 1.56502 0.915253 0
M  V30 2471 C 218.337 2.68031 -2.41229 0
M  V30 2472 O 217.441 3.6659 -1.88906 0
M  V30 2473 H 216.782 0.43832 -0.49877 0
M  V30 2474 H 219.312 0.817391 -1.87563 0
M  V30 2475 H 219.322 3.1601 -2.58073 0
M  V30 2476 H 217.997 2.36883 -3.41847 0
M  V30 2477 H 216.574 3.25661 -1.81656 0
M  V30 2478 N 218.759 1.29093 0.90403 0
M  V30 2479 C 219.707 1.13727 2.02901 0
M  V30 2480 C 220.701 0.0539853 1.69314 0
M  V30 2481 O 221.907 0.213469 1.7873 0
M  V30 2482 H 218.282 0.35117 0.664969 0
M  V30 2483 H 220.253 2.08982 2.13001 0
M  V30 2484 C 219.002 0.826066 3.37745 0
M  V30 2485 H 218.325 1.65164 3.64089 0
M  V30 2486 H 219.765 0.758559 4.17159 0
M  V30 2487 C 218.224 -0.470541 3.33598 0
M  V30 2488 O 218.754 -1.49792 3.72727 0
M  V30 2489 N 216.96 -0.474812 2.86695 0
M  V30 2490 H 216.507 0.361692 2.55048 0
M  V30 2491 H 216.465 -1.34236 2.84303 0
M  V30 2492 N 220.237 -1.11381 1.11499 0
M  V30 2493 C 221.17 -2.16621 0.71769 0
M  V30 2494 C 222.148 -1.60058 -0.286413 0
M  V30 2495 O 223.332 -1.87613 -0.182689 0
M  V30 2496 C 220.459 -3.38646 0.0607265 0
M  V30 2497 C 219.505 -4.13874 1.03008 0
M  V30 2498 S 220.338 -4.70731 2.55289 0
M  V30 2499 C 221.494 -5.96079 1.90895 0
M  V30 2500 H 221.727 -2.49987 1.60915 0
M  V30 2501 H 219.26 -1.23015 0.933092 0
M  V30 2502 H 221.218 -4.09313 -0.311965 0
M  V30 2503 H 219.879 -3.03537 -0.807702 0
M  V30 2504 H 219.072 -5.01333 0.517853 0
M  V30 2505 H 218.674 -3.4897 1.34522 0
M  V30 2506 H 220.966 -6.65948 1.24577 0
M  V30 2507 H 221.909 -6.51946 2.76354 0
M  V30 2508 H 222.317 -5.47652 1.36885 0
M  V30 2509 N 221.715 -0.905404 -1.28997 0
M  V30 2510 C 222.961 -0.535039 -1.95615 0
M  V30 2511 C 223.294 0.917404 -1.71165 0
M  V30 2512 O 222.569 1.65123 -1.02785 0
M  V30 2513 C 222.852 -0.834918 -3.50287 0
M  V30 2514 C 222.705 -2.33948 -3.84172 0
M  V30 2515 C 224.024 -0.325318 -4.38896 0
M  V30 2516 H 221.143 -0.195861 -0.710498 0
M  V30 2517 H 223.785 -1.13313 -1.52513 0
M  V30 2518 H 221.935 -0.325904 -3.87131 0
M  V30 2519 H 223.607 -2.91847 -3.57243 0
M  V30 2520 H 221.85 -2.79789 -3.31513 0
M  V30 2521 H 222.521 -2.49987 -4.92149 0
M  V30 2522 H 224.997 -0.761256 -4.09077 0
M  V30 2523 H 223.873 -0.564295 -5.45992 0
M  V30 2524 H 224.134 0.774144 -4.35269 0
M  V30 2525 N 223.193 1.4272 -0.668489 0
M  V30 2526 C 224.441 2.01226 -0.187769 0
M  V30 2527 C 224.762 1.53092 1.2078 0
M  V30 2528 O 224.032 0.74993 1.80977 0
M  V30 2529 H 222.612 0.744041 -0.0664272 0
M  V30 2530 H 225.274 1.74723 -0.863583 0
M  V30 2531 H 224.37 3.11556 -0.184166 0
M  V30 2532 N 224.671 0.411399 1.52136 0
M  V30 2533 C 225.601 -0.404015 2.29978 0
M  V30 2534 C 226.582 -1.04412 1.34284 0
M  V30 2535 O 227.767 -1.0527 1.63192 0
M  V30 2536 C 224.897 -1.5197 3.12286 0
M  V30 2537 C 223.851 -1.00448 4.16046 0
M  V30 2538 C 223.177 -2.21393 4.86712 0
M  V30 2539 C 224.477 -0.0569336 5.22269 0
M  V30 2540 H 226.171 0.245529 2.98392 0
M  V30 2541 H 223.717 0.119525 1.43503 0
M  V30 2542 H 225.67 -2.09715 3.6551 0
M  V30 2543 H 224.394 -2.19716 2.41646 0
M  V30 2544 H 223.053 -0.449421 3.63835 0
M  V30 2545 H 222.701 -2.87699 4.12599 0
M  V30 2546 H 222.401 -1.87571 5.56858 0
M  V30 2547 H 223.925 -2.7974 5.4275 0
M  V30 2548 H 225.339 -0.54325 5.7072 0
M  V30 2549 H 223.736 0.192594 5.99791 0
M  V30 2550 H 224.806 0.887663 4.76706 0
M  V30 2551 N 226.149 -1.5696 0.141893 0
M  V30 2552 C 227.374 -2.00754 -0.520838 0
M  V30 2553 C 227.799 -1.0213 -1.57959 0
M  V30 2554 O 227.157 0.00371324 -1.813 0
M  V30 2555 C 227.205 -3.43318 -1.10294 0
M  V30 2556 O 226.309 -3.47679 -2.21795 0
M  V30 2557 H 225.65 -0.651564 -0.127908 0
M  V30 2558 H 228.18 -2.03221 0.23712 0
M  V30 2559 H 228.19 -3.82012 -1.43287 0
M  V30 2560 H 226.865 -4.14608 -0.327574 0
M  V30 2561 H 225.442 -3.20824 -1.9007 0
M  V30 2562 N 227.627 0.131896 -1.57047 0
M  V30 2563 C 228.857 0.855219 -1.88068 0
M  V30 2564 C 229.265 1.74557 -0.729817 0
M  V30 2565 O 228.608 1.81083 0.308962 0
M  V30 2566 C 228.67 1.75119 -3.13964 0
M  V30 2567 C 228.334 1.03646 -4.45091 0
M  V30 2568 C 229.331 0.383276 -5.18485 0
M  V30 2569 C 227.016 1.02148 -4.91804 0
M  V30 2570 C 229.01 -0.275347 -6.36805 0
M  V30 2571 C 226.697 0.359047 -6.10044 0
M  V30 2572 C 227.695 -0.288222 -6.82392 0
M  V30 2573 O 227.383 -0.94011 -7.98384 0
M  V30 2574 H 227.115 0.251864 -0.627328 0
M  V30 2575 H 229.669 0.124782 -2.05021 0
M  V30 2576 H 227.899 2.52295 -2.9306 0
M  V30 2577 H 229.588 2.3478 -3.31109 0
M  V30 2578 H 230.354 0.386562 -4.83457 0
M  V30 2579 H 226.233 1.5147 -4.35405 0
M  V30 2580 H 229.777 -0.781148 -6.93213 0
M  V30 2581 H 225.674 0.35348 -6.44531 0
M  V30 2582 H 226.442 -0.84329 -8.14144 0
M  V30 2583 N 229.106 1.52395 0.401703 0
M  V30 2584 C 230.517 1.58899 0.980202 0
M  V30 2585 C 230.868 0.434032 1.91339 0
M  V30 2586 O 229.993 -0.444619 2.11783 0
M  V30 2587 C 230.588 2.87994 1.78451 0
M  V30 2588 C 229.147 2.96953 2.31292 0
M  V30 2589 C 228.294 2.53903 1.11483 0
M  V30 2590 H 231.245 1.57657 0.18168 0
M  V30 2591 H 231.266 2.73765 2.64259 0
M  V30 2592 H 230.778 3.72035 1.10506 0
M  V30 2593 H 228.879 2.17422 3.02586 0
M  V30 2594 H 228.992 4.01344 2.61649 0
M  V30 2595 H 227.356 2.07925 1.47104 0
M  V30 2596 H 228.139 3.40326 0.450928 0
M  V30 2597 N 230.584 -0.659388 1.43143 0
M  V30 2598 C 231.995 -1.24041 1.39537 0
M  V30 2599 C 232.346 -1.95963 0.0963364 0
M  V30 2600 O 231.471 -2.00892 -0.804438 0
M  V30 2601 C 232.066 -2.25601 2.52764 0
M  V30 2602 C 230.625 -2.79195 2.52443 0
M  V30 2603 C 229.772 -1.53743 2.30778 0
M  V30 2604 H 232.723 -0.451792 1.52133 0
M  V30 2605 H 232.744 -3.07651 2.23899 0
M  V30 2606 H 232.256 -1.73226 3.47296 0
M  V30 2607 H 230.357 -3.35649 1.61773 0
M  V30 2608 H 230.47 -3.2716 3.50004 0
M  V30 2609 H 228.834 -1.80869 1.79328 0
M  V30 2610 H 229.617 -1.03312 3.27386 0
M  V30 2611 N 232.062 -1.29571 -0.897171 0
M  V30 2612 C 233.025 -1.14913 -1.98312 0
M  V30 2613 C 234.025 -0.0838629 -1.60581 0
M  V30 2614 O 235.215 -0.331006 -1.71026 0
M  V30 2615 C 232.347 -0.757835 -3.3237 0
M  V30 2616 H 233.54 -2.11377 -2.12743 0
M  V30 2617 H 231.093 -1.12793 -1.08201 0
M  V30 2618 H 231.828 0.206837 -3.2364 0
M  V30 2619 H 231.613 -1.52755 -3.61121 0
M  V30 2620 H 233.103 -0.678408 -4.12053 0
M  V30 2621 N 233.54 1.10788 -1.12088 0
M  V30 2622 C 234.786 1.82942 -0.875226 0
M  V30 2623 C 235.119 1.84779 0.597538 0
M  V30 2624 O 234.394 1.30578 1.44152 0
M  V30 2625 C 234.677 3.29789 -1.44606 0
M  V30 2626 C 234.53 3.36307 -2.98693 0
M  V30 2627 C 235.849 4.26064 -1.10261 0
M  V30 2628 H 232.968 0.664195 -0.319397 0
M  V30 2629 H 235.61 1.29867 -1.38689 0
M  V30 2630 H 233.76 3.75118 -1.01089 0
M  V30 2631 H 235.432 2.99487 -3.50864 0
M  V30 2632 H 233.675 2.76318 -3.34411 0
M  V30 2633 H 234.346 4.39694 -3.33726 0
M  V30 2634 H 236.822 3.88951 -1.4784 0
M  V30 2635 H 235.698 5.27183 -1.52869 0
M  V30 2636 H 235.959 4.42098 -0.0142953 0
M  V30 2637 N 235.018 0.912232 1.28515 0
M  V30 2638 C 236.267 0.540504 1.94323 0
M  V30 2639 C 236.58 -0.920044 1.72611 0
M  V30 2640 O 237.786 -1.39986 2.32629 0
M  V30 2641 C 236.242 0.915803 3.48053 0
M  V30 2642 C 235.85 2.39598 3.78546 0
M  V30 2643 C 237.594 0.614588 4.20027 0
M  V30 2644 C 235.501 2.71148 5.25578 0
M  V30 2645 H 234.431 0.198418 0.727424 0
M  V30 2646 H 237.082 1.11094 1.46049 0
M  V30 2647 H 235.464 0.274168 3.9505 0
M  V30 2648 H 236.638 3.08422 3.42364 0
M  V30 2649 H 234.953 2.66749 3.1974 0
M  V30 2650 H 237.55 0.827002 5.28266 0
M  V30 2651 H 237.893 -0.447531 4.13887 0
M  V30 2652 H 238.426 1.21462 3.78803 0
M  V30 2653 H 235.165 3.76207 5.36794 0
M  V30 2654 H 234.685 2.0696 5.62963 0
M  V30 2655 H 236.364 2.58072 5.93302 0
M  V30 2656 N 236.496 -1.42363 0.676048 0
M  V30 2657 C 237.406 -2.346 -0.00153389 0
M  V30 2658 C 238.422 -1.5516 -0.787485 0
M  V30 2659 O 239.598 -1.87723 -0.729521 0
M  V30 2660 C 236.663 -3.33705 -0.940298 0
M  V30 2661 C 235.724 -4.29042 -0.148739 0
M  V30 2662 C 234.957 -5.23413 -1.04279 0
M  V30 2663 O 235.18 -5.22749 -2.28232 0
M  V30 2664 O 234.114 -5.99795 -0.502925 0
M  V30 2665 H 237.94 -2.94082 0.758268 0
M  V30 2666 H 235.525 -1.42888 0.436289 0
M  V30 2667 H 237.407 -3.94586 -1.47917 0
M  V30 2668 H 236.082 -2.76695 -1.67993 0
M  V30 2669 H 234.989 -3.71571 0.43427 0
M  V30 2670 H 236.322 -4.89097 0.551805 0
M  V30 2671 N 237.974 -0.419461 -1.51915 0
M  V30 2672 C 238.937 0.389116 -2.25873 0
M  V30 2673 C 239.937 0.964924 -1.28631 0
M  V30 2674 O 241.127 0.842179 -1.52489 0
M  V30 2675 C 238.259 1.54874 -3.03689 0
M  V30 2676 H 239.452 -0.258799 -2.98781 0
M  V30 2677 H 237.005 -0.172209 -1.55348 0
M  V30 2678 H 237.74 2.23323 -2.35154 0
M  V30 2679 H 237.525 1.14223 -3.75094 0
M  V30 2680 H 239.015 2.12046 -3.59759 0
M  V30 2681 N 239.452 1.56882 -0.150215 0
M  V30 2682 C 240.382 2.19935 0.784284 0
M  V30 2683 C 241.363 1.14854 1.25469 0
M  V30 2684 O 242.548 1.43209 1.31168 0
M  V30 2685 C 239.678 2.82349 2.02229 0
M  V30 2686 C 238.632 3.93285 1.68853 0
M  V30 2687 C 237.958 4.42649 2.99944 0
M  V30 2688 C 239.258 5.13904 0.932714 0
M  V30 2689 H 240.952 2.9828 0.258781 0
M  V30 2690 H 238.498 1.43473 0.123029 0
M  V30 2691 H 240.451 3.25126 2.68088 0
M  V30 2692 H 239.175 2.0134 2.57157 0
M  V30 2693 H 237.834 3.5113 1.05371 0
M  V30 2694 H 237.482 3.58458 3.52869 0
M  V30 2695 H 237.182 5.17476 2.78374 0
M  V30 2696 H 238.706 4.88099 3.66868 0
M  V30 2697 H 240.12 5.53506 1.49345 0
M  V30 2698 H 238.517 5.94515 0.81684 0
M  V30 2699 H 239.587 4.84842 -0.0749568 0
M  V30 2700 N 240.93 -0.123565 1.57115 0
M  V30 2701 C 241.877 -1.15177 2.00007 0
M  V30 2702 C 242.847 -1.41403 0.871454 0
M  V30 2703 O 244.032 -1.53346 1.13533 0
M  V30 2704 C 241.172 -2.47436 2.40561 0
M  V30 2705 C 240.285 -2.28184 3.66819 0
M  V30 2706 C 239.42 -3.53641 3.96373 0
M  V30 2707 C 238.459 -3.29528 5.15827 0
M  V30 2708 N 237.596 -4.47175 5.41275 0
M  V30 2709 H 242.436 -0.779008 2.87638 0
M  V30 2710 H 239.973 -0.373166 1.42288 0
M  V30 2711 H 241.931 -3.24584 2.62109 0
M  V30 2712 H 240.561 -2.82614 1.55978 0
M  V30 2713 H 239.613 -1.41976 3.52912 0
M  V30 2714 H 240.925 -2.0634 4.5412 0
M  V30 2715 H 240.079 -4.39209 4.18545 0
M  V30 2716 H 238.818 -3.78512 3.07538 0
M  V30 2717 H 237.823 -2.42349 4.93505 0
M  V30 2718 H 239.048 -3.06031 6.06236 0
M  V30 2719 H 236.994 -4.72175 4.55397 0
M  V30 2720 H 236.911 -4.28419 6.22891 0
M  V30 2721 H 238.179 -5.3389 5.67963 0
M  V30 2722 N 242.408 -1.52605 -0.393616 0
M  V30 2723 C 243.685 -1.58001 -1.15304 0
M  V30 2724 C 244.065 -0.370385 -2.07825 0
M  V30 2725 O 243.413 0.641638 -2.19306 0
M  V30 2726 C 243.623 -2.91652 -1.91677 0
M  V30 2727 C 244.971 -3.4522 -2.47201 0
M  V30 2728 O 245.995 -2.93495 -2.01839 0
M  V30 2729 O 244.854 -4.35579 -3.3005 0
M  V30 2730 H 241.948 -0.637068 -0.527327 0
M  V30 2731 H 244.494 -1.64939 -0.399141 0
M  V30 2732 H 243.266 -3.71136 -1.23992 0
M  V30 2733 H 242.889 -2.88077 -2.74039 0
M  V30 2734 N 243.887 0.651787 -1.4349 0
M  V30 2735 C 245.133 1.41376 -1.45398 0
M  V30 2736 C 245.466 1.94041 -0.0784823 0
M  V30 2737 O 244.741 1.72379 0.900878 0
M  V30 2738 C 245.024 2.59414 -2.49752 0
M  V30 2739 C 244.877 2.12232 -3.96582 0
M  V30 2740 C 246.196 3.61626 -2.50827 0
M  V30 2741 H 243.315 0.512719 -0.529422 0
M  V30 2742 H 245.957 0.738796 -1.75048 0
M  V30 2743 H 244.107 3.16997 -2.246 0
M  V30 2744 H 245.779 1.59639 -4.32797 0
M  V30 2745 H 244.022 1.43592 -4.09346 0
M  V30 2746 H 244.693 2.9712 -4.65214 0
M  V30 2747 H 247.169 3.13805 -2.7325 0
M  V30 2748 H 246.045 4.41766 -3.25783 0
M  V30 2749 H 246.306 4.14314 -1.5426 0
M  V30 2750 N 245.365 1.30045 0.890287 0
M  V30 2751 C 246.642 1.09227 1.62262 0
M  V30 2752 C 247.022 -0.360305 2.08002 0
M  V30 2753 O 246.37 -1.35084 1.84295 0
M  V30 2754 C 246.58 2.08835 2.79623 0
M  V30 2755 C 247.928 2.40266 3.50082 0
M  V30 2756 O 248.952 2.07104 2.89804 0
M  V30 2757 O 247.811 2.96967 4.58773 0
M  V30 2758 H 244.905 0.419132 0.712922 0
M  V30 2759 H 247.451 1.41451 0.937529 0
M  V30 2760 H 246.223 3.06633 2.43089 0
M  V30 2761 H 245.846 1.77397 3.55832 0
M  V30 2762 N 246.843 -1.10192 1.12674 0
M  V30 2763 C 247.79 -2.16606 0.796906 0
M  V30 2764 C 248.76 -1.64394 -0.237476 0
M  V30 2765 O 249.945 -1.90474 -0.111484 0
M  V30 2766 C 247.085 -3.44116 0.26043 0
M  V30 2767 C 246.198 -4.10268 1.35293 0
M  V30 2768 C 245.333 -5.25507 0.775621 0
M  V30 2769 C 244.372 -5.83567 1.84706 0
M  V30 2770 N 243.509 -6.90179 1.28829 0
M  V30 2771 H 248.349 -2.44163 1.70846 0
M  V30 2772 H 245.886 -1.19846 0.85295 0
M  V30 2773 H 247.844 -4.17143 -0.0686814 0
M  V30 2774 H 246.474 -3.16901 -0.614274 0
M  V30 2775 H 245.526 -3.35184 1.79877 0
M  V30 2776 H 246.838 -4.4946 2.16303 0
M  V30 2777 H 245.992 -6.05398 0.397327 0
M  V30 2778 H 244.731 -4.87656 -0.0656581 0
M  V30 2779 H 243.736 -5.02344 2.23452 0
M  V30 2780 H 244.961 -6.23482 2.69161 0
M  V30 2781 H 242.907 -6.54322 0.468881 0
M  V30 2782 H 242.824 -7.28097 2.03497 0
M  V30 2783 H 244.092 -7.73844 0.937311 0
M  V30 2784 N 248.321 -0.919034 -1.28029 0
M  V30 2785 C 249.567 -0.565221 -1.95389 0
M  V30 2786 C 249.922 0.882325 -1.70976 0
M  V30 2787 O 249.215 1.61988 -1.02325 0
M  V30 2788 C 249.409 -0.816855 -3.4794 0
M  V30 2789 C 249.238 -2.28731 -3.87185 0
M  V30 2790 C 248.008 -2.93841 -4.11079 0
M  V30 2791 C 250.206 -3.26415 -3.97439 0
M  V30 2792 N 248.188 -4.31129 -4.37037 0
M  V30 2793 C 249.559 -4.48884 -4.27672 0
M  V30 2794 C 251.614 -3.21742 -3.79982 0
M  V30 2795 C 250.317 -5.67268 -4.42266 0
M  V30 2796 C 252.343 -4.39431 -3.95796 0
M  V30 2797 C 251.705 -5.60675 -4.26407 0
M  V30 2798 H 247.804 -0.256797 -0.738633 0
M  V30 2799 H 250.388 -1.18386 -1.54573 0
M  V30 2800 H 248.559 -0.227445 -3.87733 0
M  V30 2801 H 250.291 -0.426542 -4.02446 0
M  V30 2802 H 247.046 -2.44547 -4.05578 0
M  V30 2803 H 247.47 -5.02127 -4.5409 0
M  V30 2804 H 252.112 -2.29079 -3.55363 0
M  V30 2805 H 249.83 -6.60406 -4.65714 0
M  V30 2806 H 253.416 -4.37323 -3.83719 0
M  V30 2807 H 252.296 -6.50223 -4.38383 0
M  V30 2808 N 249.799 1.42003 -0.683588 0
M  V30 2809 C 251.024 2.06265 -0.216647 0
M  V30 2810 C 251.449 1.51059 1.12083 0
M  V30 2811 O 250.807 0.632638 1.69904 0
M  V30 2812 C 250.855 3.60191 -0.171759 0
M  V30 2813 O 249.959 4.03396 0.857069 0
M  V30 2814 H 249.3 0.65502 -0.108834 0
M  V30 2815 H 251.83 1.81982 -0.935077 0
M  V30 2816 H 251.84 4.08 0.0014303 0
M  V30 2817 H 250.515 3.99743 -1.14796 0
M  V30 2818 H 249.092 3.67117 0.654208 0
M  V30 2819 N 251.277 0.427512 1.51691 0
M  V30 2820 C 252.524 -0.142229 2.02 0
M  V30 2821 C 252.852 -1.43566 1.31221 0
M  V30 2822 O 252.107 -1.91298 0.412744 0
M  V30 2823 C 252.406 -0.418249 3.54944 0
M  V30 2824 C 252.072 0.788187 4.43958 0
M  V30 2825 C 250.734 1.11906 4.68007 0
M  V30 2826 C 253.086 1.59347 4.96244 0
M  V30 2827 C 250.414 2.25608 5.41588 0
M  V30 2828 C 252.766 2.7214 5.71072 0
M  V30 2829 C 251.43 3.05692 5.93387 0
M  V30 2830 H 250.7 -0.0520451 0.73917 0
M  V30 2831 H 253.347 0.572697 1.82736 0
M  V30 2832 H 251.652 -1.21496 3.72486 0
M  V30 2833 H 253.349 -0.872339 3.91397 0
M  V30 2834 H 249.939 0.520344 4.2543 0
M  V30 2835 H 254.123 1.35106 4.77556 0
M  V30 2836 H 249.379 2.51929 5.57083 0
M  V30 2837 H 253.553 3.34914 6.10578 0
M  V30 2838 H 251.18 3.9391 6.50184 0
M  V30 2839 N 252.755 -1.56801 0.158532 0
M  V30 2840 C 254.032 -1.88131 -0.535357 0
M  V30 2841 C 254.412 -1.06638 -1.82186 0
M  V30 2842 O 253.76 -0.156533 -2.27963 0
M  V30 2843 C 253.97 -3.39949 -0.789653 0
M  V30 2844 C 255.318 -4.09416 -1.12533 0
M  V30 2845 O 256.342 -3.45194 -0.878622 0
M  V30 2846 O 255.201 -5.22855 -1.59014 0
M  V30 2847 H 252.295 -0.780143 -0.27442 0
M  V30 2848 H 254.841 -1.68564 0.19601 0
M  V30 2849 H 253.613 -3.91115 0.120353 0
M  V30 2850 H 253.236 -3.65084 -1.57479 0
M  V30 2851 N 254.233 0.115231 -1.57178 0
M  V30 2852 C 255.479 0.82357 -1.85325 0
M  V30 2853 C 255.812 1.79349 -0.744814 0
M  V30 2854 O 255.087 1.92899 0.249024 0
M  V30 2855 C 255.37 1.57014 -3.24066 0
M  V30 2856 C 255.223 0.619565 -4.45513 0
M  V30 2857 C 256.542 2.52545 -3.60429 0
M  V30 2858 H 253.661 0.297948 -0.674089 0
M  V30 2859 H 256.303 0.0877138 -1.89797 0
M  V30 2860 H 254.453 2.19742 -3.20383 0
M  V30 2861 H 256.125 0.000837639 -4.613 0
M  V30 2862 H 254.368 -0.0686174 -4.33746 0
M  V30 2863 H 255.039 1.17866 -5.3927 0
M  V30 2864 H 257.515 1.9992 -3.64926 0
M  V30 2865 H 256.391 3.01811 -4.58477 0
M  V30 2866 H 256.652 3.35383 -2.88047 0
M  V30 2867 N 255.711 1.52812 0.385517 0
M  V30 2868 C 256.958 1.68026 1.1302 0
M  V30 2869 C 257.286 0.421934 1.89868 0
M  V30 2870 O 256.541 -0.595749 1.86412 0
M  V30 2871 C 256.84 2.86856 2.13187 0
M  V30 2872 C 256.506 4.24159 1.5297 0
M  V30 2873 C 255.168 4.61501 1.36274 0
M  V30 2874 C 257.52 5.09627 1.09223 0
M  V30 2875 C 254.848 5.81966 0.743837 0
M  V30 2876 C 257.2 6.30719 0.487411 0
M  V30 2877 C 255.864 6.6679 0.307777 0
M  V30 2878 H 255.134 0.614849 0.413571 0
M  V30 2879 H 257.781 1.86962 0.414405 0
M  V30 2880 H 256.086 2.6235 2.90998 0
M  V30 2881 H 257.783 2.95821 2.70722 0
M  V30 2882 H 254.373 3.94746 1.66954 0
M  V30 2883 H 258.557 4.81343 1.20922 0
M  V30 2884 H 253.813 6.08519 0.592891 0
M  V30 2885 H 257.987 6.96259 0.140143 0
M  V30 2886 H 255.614 7.60001 -0.173879 0
M  V30 2887 N 257.189 -0.644168 1.43834 0
M  V30 2888 C 258.414 -1.43642 1.49605 0
M  V30 2889 C 258.839 -1.8773 0.117913 0
M  V30 2890 O 258.197 -1.57938 -0.890239 0
M  V30 2891 C 258.245 -2.6416 2.45463 0
M  V30 2892 O 257.349 -3.63538 1.94714 0
M  V30 2893 H 256.69 -0.430329 0.50568 0
M  V30 2894 H 259.22 -0.787448 1.8884 0
M  V30 2895 H 259.23 -3.11864 2.63068 0
M  V30 2896 H 257.905 -2.31414 3.45572 0
M  V30 2897 H 256.482 -3.2273 1.86814 0
M  V30 2898 N 258.668 -1.30515 -0.883378 0
M  V30 2899 C 259.598 -1.19607 -2.00541 0
M  V30 2900 C 260.579 -0.086346 -1.69881 0
M  V30 2901 O 261.764 -0.268654 -1.92333 0
M  V30 2902 C 258.894 -0.888758 -3.35736 0
M  V30 2903 C 257.848 -1.95659 -3.8066 0
M  V30 2904 C 257.174 -1.50224 -5.13164 0
M  V30 2905 C 258.474 -3.36788 -3.99213 0
M  V30 2906 H 260.168 -2.13476 -2.09925 0
M  V30 2907 H 257.714 -1.02775 -1.00863 0
M  V30 2908 H 259.667 -0.799094 -4.13754 0
M  V30 2909 H 258.391 0.0856125 -3.26488 0
M  V30 2910 H 257.05 -2.03591 -3.04871 0
M  V30 2911 H 256.698 -0.516092 -5.00345 0
M  V30 2912 H 256.398 -2.2165 -5.44192 0
M  V30 2913 H 257.922 -1.42639 -5.93706 0
M  V30 2914 H 259.336 -3.31605 -4.67665 0
M  V30 2915 H 257.733 -4.06314 -4.41621 0
M  V30 2916 H 258.803 -3.78561 -3.03017 0
M  V30 2917 N 260.146 1.09593 -1.13257 0
M  V30 2918 C 261.094 2.18271 -0.803783 0
M  V30 2919 C 262.088 1.68054 0.213148 0
M  V30 2920 O 263.294 1.79862 0.0704699 0
M  V30 2921 H 259.669 0.711949 -0.242143 0
M  V30 2922 H 261.64 2.43235 -1.72856 0
M  V30 2923 C 260.389 3.46536 -0.28424 0
M  V30 2924 H 259.712 3.85545 -1.05807 0
M  V30 2925 H 261.152 4.23899 -0.0925945 0
M  V30 2926 C 259.611 3.22036 0.989684 0
M  V30 2927 O 260.141 3.44509 2.06584 0
M  V30 2928 N 258.347 2.7565 0.920086 0
M  V30 2929 H 257.894 2.57562 0.0442019 0
M  V30 2930 H 257.852 2.59635 1.77306 0
M  V30 2931 N 261.624 0.925811 1.2754 0
M  V30 2932 C 262.534 0.428993 2.30644 0
M  V30 2933 C 263.55 -0.489387 1.66976 0
M  V30 2934 O 264.726 -0.372653 1.97922 0
M  V30 2935 C 261.791 -0.311967 3.45294 0
M  V30 2936 C 260.852 0.641098 4.24486 0
M  V30 2937 C 260.085 -0.0645955 5.33661 0
M  V30 2938 O 260.308 -1.28429 5.55754 0
M  V30 2939 O 259.242 0.606265 5.98839 0
M  V30 2940 H 263.068 1.28504 2.75173 0
M  V30 2941 H 260.653 0.691086 1.32455 0
M  V30 2942 H 262.535 -0.729972 4.15029 0
M  V30 2943 H 261.21 -1.14365 3.02824 0
M  V30 2944 H 260.117 1.10874 3.57292 0
M  V30 2945 H 261.45 1.43995 4.70666 0
M  V30 2946 N 263.102 -1.41638 0.69111 0
M  V30 2947 C 264.065 -2.29178 0.0319786 0
M  V30 2948 C 265.065 -1.44153 -0.712496 0
M  V30 2949 O 266.255 -1.65354 -0.548053 0
M  V30 2950 C 263.387 -3.26952 -0.965161 0
M  V30 2951 H 264.58 -2.88959 0.802681 0
M  V30 2952 H 262.133 -1.4955 0.454356 0
M  V30 2953 H 262.868 -2.72142 -1.76378 0
M  V30 2954 H 262.653 -3.89685 -0.434522 0
M  V30 2955 H 264.143 -3.92561 -1.42428 0
M  V30 2956 N 264.58 -0.43555 -1.51462 0
M  V30 2957 C 265.805 0.132627 -2.06976 0
M  V30 2958 C 266.23 1.35848 -1.30104 0
M  V30 2959 O 265.588 1.78112 -0.338493 0
M  V30 2960 C 265.636 0.43523 -3.57964 0
M  V30 2961 O 264.74 1.52198 -3.83288 0
M  V30 2962 H 264.081 0.00265 -0.663995 0
M  V30 2963 H 266.611 -0.616369 -1.95095 0
M  V30 2964 H 266.621 0.686206 -4.02188 0
M  V30 2965 H 265.296 -0.460739 -4.1334 0
M  V30 2966 H 263.873 1.2611 -3.50928 0
M  V30 2967 N 266.058 1.56714 -0.166846 0
M  V30 2968 C 267.306 1.96358 0.478305 0
M  V30 2969 C 267.627 1.0537 1.6408 0
M  V30 2970 O 266.897 0.119154 1.95537 0
M  V30 2971 H 265.477 0.725065 0.179692 0
M  V30 2972 H 268.139 1.93329 -0.246985 0
M  V30 2973 H 267.235 3.00547 0.841292 0
M  V30 2974 N 267.536 -0.106894 1.57237 0
M  V30 2975 C 268.813 -0.843526 1.76477 0
M  V30 2976 C 269.193 -1.97499 0.745464 0
M  V30 2977 O 268.541 -2.27357 -0.228306 0
M  V30 2978 C 268.751 -1.34903 3.21873 0
M  V30 2979 C 270.099 -1.79654 3.8472 0
M  V30 2980 O 271.123 -1.44554 3.2555 0
M  V30 2981 O 269.982 -2.44515 4.88748 0
M  V30 2982 H 267.076 -0.401468 0.723016 0
M  V30 2983 H 269.622 -0.0896927 1.69463 0
M  V30 2984 H 268.394 -0.53781 3.87586 0
M  V30 2985 H 268.017 -2.16522 3.33473 0
M  V30 2986 N 269.014 -1.53014 -0.377408 0
M  V30 2987 C 269.964 -1.74996 -1.46152 0
M  V30 2988 C 270.948 -0.604236 -1.49123 0
M  V30 2989 O 272.14 -0.862489 -1.54564 0
M  V30 2990 C 269.269 -1.93267 -2.8373 0
M  V30 2991 C 268.355 -3.13807 -2.85283 0
M  V30 2992 N 268.746 -4.35941 -2.56493 0
M  V30 2993 C 267.044 -3.14288 -3.16448 0
M  V30 2994 C 267.745 -5.17615 -2.65424 0
M  V30 2995 N 266.721 -4.53559 -2.99641 0
M  V30 2996 H 270.523 -2.67044 -1.22738 0
M  V30 2997 H 268.037 -1.51479 -0.585479 0
M  V30 2998 H 270.034 -2.0714 -3.61799 0
M  V30 2999 H 268.694 -1.0244 -3.08117 0
M  V30 3000 H 269.705 -4.63876 -2.30302 0
M  V30 3001 H 266.382 -2.33312 -3.46225 0
M  V30 3002 H 267.772 -6.25006 -2.46612 0
M  V30 3003 N 270.492 0.636531 -1.44174 0
M  V30 3004 C 271.455 1.73063 -1.50273 0
M  V30 3005 C 272.455 1.56113 -0.385397 0
M  V30 3006 O 273.645 1.61707 -0.64781 0
M  V30 3007 C 270.777 3.12096 -1.37145 0
M  V30 3008 H 271.97 1.69031 -2.47727 0
M  V30 3009 H 269.523 0.849706 -1.31186 0
M  V30 3010 H 270.258 3.21728 -0.407636 0
M  V30 3011 H 270.043 3.25805 -2.18159 0
M  V30 3012 H 271.533 3.91846 -1.44382 0
M  V30 3013 N 271.97 1.30982 0.876444 0
M  V30 3014 C 272.9 1.20668 1.99903 0
M  V30 3015 C 273.881 0.095354 1.69833 0
M  V30 3016 O 275.066 0.27885 1.92188 0
M  V30 3017 C 272.196 0.90655 3.3526 0
M  V30 3018 C 271.15 1.97675 3.79617 0
M  V30 3019 C 270.476 1.52943 5.1236 0
M  V30 3020 C 271.776 3.389 3.97422 0
M  V30 3021 H 273.47 2.14586 2.0879 0
M  V30 3022 H 271.016 1.03308 1.00317 0
M  V30 3023 H 272.969 0.821025 4.13324 0
M  V30 3024 H 271.693 -0.0682969 3.26529 0
M  V30 3025 H 270.352 2.05205 3.03787 0
M  V30 3026 H 270 0.54262 5.00065 0
M  V30 3027 H 269.7 2.24532 5.43009 0
M  V30 3028 H 271.224 1.45786 5.92941 0
M  V30 3029 H 272.638 3.34081 4.659 0
M  V30 3030 H 271.035 4.0865 4.3946 0
M  V30 3031 H 272.105 3.80163 3.01006 0
M  V30 3032 N 273.449 -1.08991 1.13837 0
M  V30 3033 C 274.396 -2.15748 0.819835 0
M  V30 3034 C 275.366 -1.64636 -0.220026 0
M  V30 3035 O 276.551 -1.90582 -0.0912757 0
M  V30 3036 C 273.691 -3.4382 0.296913 0
M  V30 3037 C 272.804 -4.0881 1.39636 0
M  V30 3038 C 271.939 -5.24655 0.831314 0
M  V30 3039 C 270.978 -5.81575 1.90886 0
M  V30 3040 N 270.115 -6.88774 1.36142 0
M  V30 3041 H 274.955 -2.42338 1.73426 0
M  V30 3042 H 272.492 -1.18935 0.865613 0
M  V30 3043 H 274.45 -4.17193 -0.0244339 0
M  V30 3044 H 273.08 -3.17535 -0.580628 0
M  V30 3045 H 272.132 -3.33258 1.83422 0
M  V30 3046 H 273.444 -4.47141 2.21058 0
M  V30 3047 H 272.598 -6.04942 0.461515 0
M  V30 3048 H 271.337 -4.87698 -0.013932 0
M  V30 3049 H 270.342 -4.99946 2.28767 0
M  V30 3050 H 271.567 -6.20592 2.75758 0
M  V30 3051 H 269.513 -6.53788 0.538254 0
M  V30 3052 H 269.43 -7.25898 2.11208 0
M  V30 3053 H 270.698 -7.72806 1.01933 0
M  V30 3054 N 274.927 -0.932562 -1.27047 0
M  V30 3055 C 276.174 -0.575559 -1.94148 0
M  V30 3056 C 276.502 0.883984 -1.73251 0
M  V30 3057 O 275.757 1.64655 -1.0577 0
M  V30 3058 C 276.056 -0.853713 -3.47054 0
M  V30 3059 C 275.722 -2.29577 -3.88079 0
M  V30 3060 C 274.384 -2.68999 -3.9899 0
M  V30 3061 C 276.736 -3.23331 -4.08787 0
M  V30 3062 C 274.064 -4.01289 -4.28 0
M  V30 3063 C 276.416 -4.55207 -4.39282 0
M  V30 3064 C 275.08 -4.94457 -4.48407 0
M  V30 3065 H 274.35 -0.210612 -0.710439 0
M  V30 3066 H 276.997 -1.17744 -1.51025 0
M  V30 3067 H 275.302 -0.169204 -3.91434 0
M  V30 3068 H 276.999 -0.55639 -3.97121 0
M  V30 3069 H 273.589 -1.97994 -3.80127 0
M  V30 3070 H 277.773 -2.94074 -3.99793 0
M  V30 3071 H 273.029 -4.31374 -4.33275 0
M  V30 3072 H 277.203 -5.27852 -4.54252 0
M  V30 3073 H 274.83 -5.96994 -4.7064 0
M  V30 3074 N 276.405 1.4127 -0.698611 0
M  V30 3075 C 277.654 2.00408 -0.227949 0
M  V30 3076 C 277.967 1.55981 1.18023 0
M  V30 3077 O 279.173 2.07699 1.74852 0
M  V30 3078 C 277.629 3.58129 -0.356636 0
M  V30 3079 C 277.237 4.11536 -1.77037 0
M  V30 3080 C 278.981 4.24466 0.0540969 0
M  V30 3081 C 276.888 5.61701 -1.85055 0
M  V30 3082 H 275.818 0.749586 -0.0814657 0
M  V30 3083 H 278.469 1.61713 -0.867249 0
M  V30 3084 H 276.851 3.94442 0.350965 0
M  V30 3085 H 278.025 3.86636 -2.50698 0
M  V30 3086 H 276.34 3.57736 -2.13105 0
M  V30 3087 H 278.937 5.34698 0.0146723 0
M  V30 3088 H 279.28 4.01687 1.09332 0
M  V30 3089 H 279.813 3.93198 -0.603337 0
M  V30 3090 H 276.552 5.89312 -2.8704 0
M  V30 3091 H 276.072 5.88519 -1.15783 0
M  V30 3092 H 277.751 6.26524 -1.61484 0
M  V30 3093 N 277.883 0.443576 1.51229 0
M  V30 3094 C 279.13 -0.120796 2.02139 0
M  V30 3095 C 279.458 -1.42166 1.32736 0
M  V30 3096 O 278.713 -1.90849 0.43301 0
M  V30 3097 C 279.012 -0.380579 3.55368 0
M  V30 3098 C 278.678 0.83523 4.43097 0
M  V30 3099 C 277.34 1.16864 4.66794 0
M  V30 3100 C 279.692 1.64601 4.94526 0
M  V30 3101 C 277.02 2.31339 5.39165 0
M  V30 3102 C 279.372 2.78181 5.68153 0
M  V30 3103 C 278.036 3.11969 5.90112 0
M  V30 3104 H 277.306 -0.0442023 0.73968 0
M  V30 3105 H 279.953 0.592046 1.82118 0
M  V30 3106 H 278.258 -1.17538 3.73754 0
M  V30 3107 H 279.955 -0.830777 3.923 0
M  V30 3108 H 276.545 0.565437 4.24854 0
M  V30 3109 H 280.729 1.40163 4.76097 0
M  V30 3110 H 275.985 2.57823 5.5438 0
M  V30 3111 H 280.159 3.41371 6.06992 0
M  V30 3112 H 277.786 4.00784 6.45969 0
M  V30 3113 N 279.361 -1.56624 0.175154 0
M  V30 3114 C 280.591 -2.01082 -0.474283 0
M  V30 3115 C 280.999 -1.05447 -1.57091 0
M  V30 3116 O 280.342 -0.0480595 -1.83637 0
M  V30 3117 C 280.404 -3.41963 -1.10911 0
M  V30 3118 C 280.068 -4.56742 -0.153666 0
M  V30 3119 C 281.065 -5.16076 0.629448 0
M  V30 3120 C 278.75 -5.02277 -0.0483776 0
M  V30 3121 C 280.744 -6.19377 1.50501 0
M  V30 3122 C 278.431 -6.05427 0.830768 0
M  V30 3123 C 279.429 -6.63849 1.60605 0
M  V30 3124 O 279.117 -7.64998 2.47049 0
M  V30 3125 H 278.849 -0.664261 -0.125432 0
M  V30 3126 H 281.403 -2.03549 0.275163 0
M  V30 3127 H 279.633 -3.36422 -1.90676 0
M  V30 3128 H 281.322 -3.70352 -1.66114 0
M  V30 3129 H 282.088 -4.81776 0.558297 0
M  V30 3130 H 277.967 -4.56513 -0.641611 0
M  V30 3131 H 281.511 -6.64906 2.1106 0
M  V30 3132 H 277.408 -6.39151 0.903107 0
M  V30 3133 H 278.176 -7.82336 2.40607 0
M  V30 3134 N 280.839 0.0985539 -1.57292 0
M  V30 3135 C 281.749 1.13824 -2.05137 0
M  V30 3136 C 282.765 1.44076 -0.975604 0
M  V30 3137 O 283.941 1.54786 -1.28853 0
M  V30 3138 C 281.006 2.43969 -2.46333 0
M  V30 3139 C 280.067 2.2093 -3.68087 0
M  V30 3140 C 279.3 3.44869 -4.0731 0
M  V30 3141 O 279.523 4.52972 -3.46659 0
M  V30 3142 O 278.457 3.34661 -5.00285 0
M  V30 3143 H 282.283 0.761881 -2.93988 0
M  V30 3144 H 279.868 0.310818 -1.46131 0
M  V30 3145 H 281.75 3.20609 -2.73473 0
M  V30 3146 H 280.425 2.81038 -1.60621 0
M  V30 3147 H 279.332 1.42081 -3.46069 0
M  V30 3148 H 280.665 1.88755 -4.54568 0
M  V30 3149 N 282.317 1.53212 0.369288 0
M  V30 3150 C 283.247 1.82365 1.45826 0
M  V30 3151 C 284.228 0.676907 1.56051 0
M  V30 3152 O 285.413 0.926401 1.70679 0
M  V30 3153 C 282.543 2.01023 2.83208 0
M  V30 3154 C 281.497 3.1678 2.8781 0
M  V30 3155 C 280.823 3.20724 4.27832 0
M  V30 3156 C 282.123 4.55447 2.55667 0
M  V30 3157 H 283.817 2.73559 1.21678 0
M  V30 3158 H 281.363 1.3163 0.583911 0
M  V30 3159 H 283.316 2.20001 3.59413 0
M  V30 3160 H 282.04 1.06536 3.08736 0
M  V30 3161 H 280.699 2.97616 2.14056 0
M  V30 3162 H 280.347 2.23882 4.50429 0
M  V30 3163 H 280.047 3.98496 4.31827 0
M  V30 3164 H 281.571 3.41881 5.05915 0
M  V30 3165 H 282.985 4.74611 3.21586 0
M  V30 3166 H 281.382 5.35432 2.70984 0
M  V30 3167 H 282.452 4.60812 1.5093 0
M  V30 3168 N 283.795 -0.628877 1.44509 0
M  V30 3169 C 284.725 -1.75187 1.54376 0
M  V30 3170 C 285.706 -1.65411 0.396618 0
M  V30 3171 O 286.891 -1.84137 0.617031 0
M  V30 3172 C 284.021 -3.13725 1.48976 0
M  V30 3173 C 282.975 -3.38291 2.62189 0
M  V30 3174 C 282.301 -4.76883 2.41841 0
M  V30 3175 C 283.601 -3.30632 4.04326 0
M  V30 3176 H 285.295 -1.67187 2.48373 0
M  V30 3177 H 282.841 -0.802909 1.19538 0
M  V30 3178 H 284.794 -3.92064 1.54478 0
M  V30 3179 H 283.518 -3.22515 0.514961 0
M  V30 3180 H 282.177 -2.62334 2.56079 0
M  V30 3181 H 281.825 -4.82378 1.42548 0
M  V30 3182 H 281.525 -4.94278 3.17747 0
M  V30 3183 H 283.049 -5.57449 2.49165 0
M  V30 3184 H 284.463 -3.98873 4.11793 0
M  V30 3185 H 282.86 -3.59561 4.80454 0
M  V30 3186 H 283.93 -2.28404 4.27738 0
M  V30 3187 N 285.273 -1.31445 -0.869486 0
M  V30 3188 C 286.501 -1.24122 -1.65534 0
M  V30 3189 C 286.916 0.193387 -1.87807 0
M  V30 3190 O 286.273 1.12557 -1.43656 0
M  V30 3191 C 286.324 -1.98229 -3.02304 0
M  V30 3192 O 286.045 -3.3609 -2.81026 0
M  V30 3193 C 287.546 -1.97751 -3.96749 0
M  V30 3194 H 284.766 -0.428868 -0.516055 0
M  V30 3195 H 287.31 -1.73328 -1.08525 0
M  V30 3196 H 285.465 -1.52782 -3.56001 0
M  V30 3197 H 285.879 -3.7383 -3.67902 0
M  V30 3198 H 287.353 -2.54114 -4.90031 0
M  V30 3199 H 287.83 -0.960137 -4.28577 0
M  V30 3200 H 288.436 -2.43079 -3.48988 0
M  V30 3201 N 286.751 1.08385 -1.14413 0
M  V30 3202 C 288.167 1.32844 -0.884563 0
M  V30 3203 C 288.367 1.95841 0.474181 0
M  V30 3204 O 287.423 2.21158 1.21842 0
M  V30 3205 C 288.736 2.22978 -2.01745 0
M  V30 3206 C 290.284 2.36458 -2.05077 0
M  V30 3207 C 290.759 3.29934 -3.1766 0
M  V30 3208 N 292.25 3.37511 -3.17239 0
M  V30 3209 C 292.985 4.09871 -4.0099 0
M  V30 3210 N 292.481 4.84936 -4.94781 0
M  V30 3211 N 294.274 4.05704 -3.89051 0
M  V30 3212 H 286.425 0.658756 -2.01926 0
M  V30 3213 H 288.688 0.352821 -0.879899 0
M  V30 3214 H 288.394 1.83934 -2.99769 0
M  V30 3215 H 288.268 3.23441 -1.94077 0
M  V30 3216 H 290.655 2.7476 -1.0766 0
M  V30 3217 H 290.736 1.35736 -2.16816 0
M  V30 3218 H 290.38 2.92352 -4.15322 0
M  V30 3219 H 290.31 4.30584 -3.03158 0
M  V30 3220 H 292.801 2.83996 -2.49308 0
M  V30 3221 H 293.114 5.37612 -5.55151 0
M  V30 3222 H 291.459 4.83988 -4.98779 0
M  V30 3223 H 294.65 3.46167 -3.15097 0
M  V30 3224 H 294.823 4.61834 -4.54547 0
M  V30 3225 N 288.23 0.939286 1.26551 0
M  V30 3226 C 289.46 0.601663 1.97645 0
M  V30 3227 C 289.868 -0.827206 1.70159 0
M  V30 3228 O 289.211 -1.56291 0.965338 0
M  V30 3229 C 289.273 0.761725 3.51337 0
M  V30 3230 C 288.937 2.16487 4.0247 0
M  V30 3231 C 289.934 3.14016 4.14355 0
M  V30 3232 C 287.619 2.48494 4.36527 0
M  V30 3233 C 289.613 4.41654 4.59587 0
M  V30 3234 C 287.3 3.76364 4.81449 0
M  V30 3235 C 288.298 4.72758 4.92939 0
M  V30 3236 O 287.986 5.98352 5.36871 0
M  V30 3237 H 287.718 0.225758 0.637189 0
M  V30 3238 H 290.272 1.26178 1.62075 0
M  V30 3239 H 288.502 0.0444808 3.86674 0
M  V30 3240 H 290.191 0.427442 4.03643 0
M  V30 3241 H 290.957 2.90613 3.8829 0
M  V30 3242 H 286.836 1.74202 4.26819 0
M  V30 3243 H 290.38 5.16896 4.68471 0
M  V30 3244 H 286.277 3.99582 5.06956 0
M  V30 3245 H 287.045 6.01507 5.55096 0
M  V30 3246 N 289.708 -1.40897 0.706093 0
M  V30 3247 C 290.985 -1.94868 0.169099 0
M  V30 3248 C 291.365 -1.64485 -1.32318 0
M  V30 3249 O 290.713 -0.95744 -2.07474 0
M  V30 3250 C 290.923 -3.45798 0.471654 0
M  V30 3251 C 292.271 -4.22663 0.405127 0
M  V30 3252 O 293.295 -3.53865 0.407168 0
M  V30 3253 O 292.154 -5.45216 0.374383 0
M  V30 3254 H 289.248 -0.82673 0.0211352 0
M  V30 3255 H 291.794 -1.50558 0.782976 0
M  V30 3256 H 290.566 -3.61235 1.50416 0
M  V30 3257 H 290.189 -3.97225 -0.172666 0
M  V30 3258 N 291.186 -0.45159 -1.50991 0
M  V30 3259 C 292.116 0.342898 -2.30969 0
M  V30 3260 C 293.097 1.00815 -1.37005 0
M  V30 3261 O 294.282 1.00907 -1.65926 0
M  V30 3262 C 291.412 1.43637 -3.16205 0
M  V30 3263 C 290.366 0.893818 -4.18563 0
M  V30 3264 C 289.692 2.08411 -4.92411 0
M  V30 3265 C 290.992 -0.0815568 -5.22236 0
M  V30 3266 H 292.686 -0.324556 -2.97636 0
M  V30 3267 H 290.232 -0.157531 -1.43136 0
M  V30 3268 H 292.185 1.9995 -3.70942 0
M  V30 3269 H 290.909 2.13232 -2.47386 0
M  V30 3270 H 289.568 0.352798 -3.64898 0
M  V30 3271 H 289.216 2.76658 -4.20082 0
M  V30 3272 H 288.916 1.72741 -5.61636 0
M  V30 3273 H 290.44 2.65251 -5.49976 0
M  V30 3274 H 291.854 0.391742 -5.7196 0
M  V30 3275 H 290.251 -0.351551 -5.99069 0
M  V30 3276 H 291.321 -1.01374 -4.74185 0
M  V30 3277 N 292.664 1.56529 -0.183458 0
M  V30 3278 C 293.913 1.96419 0.458511 0
M  V30 3279 C 294.226 1.0727 1.63562 0
M  V30 3280 O 295.432 1.36893 2.34462 0
M  V30 3281 C 293.888 3.49298 0.867122 0
M  V30 3282 C 293.496 4.47092 -0.285057 0
M  V30 3283 C 295.24 3.97983 1.47683 0
M  V30 3284 C 293.147 5.91225 0.143862 0
M  V30 3285 H 292.077 0.733394 0.175071 0
M  V30 3286 H 294.728 1.81448 -0.273624 0
M  V30 3287 H 293.11 3.59731 1.65559 0
M  V30 3288 H 294.284 4.48383 -1.0625 0
M  V30 3289 H 292.599 4.08535 -0.805503 0
M  V30 3290 H 295.196 5.03134 1.80999 0
M  V30 3291 H 295.539 3.41618 2.37914 0
M  V30 3292 H 296.072 3.90617 0.752562 0
M  V30 3293 H 292.811 6.5149 -0.723974 0
M  V30 3294 H 292.331 5.93214 0.886413 0
M  V30 3295 H 294.01 6.44362 0.583628 0
M  V30 3296 N 294.142 -0.090211 1.57342 0
M  V30 3297 C 295.367 -0.810082 1.90925 0
M  V30 3298 C 295.792 -1.71248 0.778187 0
M  V30 3299 O 295.15 -1.79278 -0.269991 0
M  V30 3300 C 295.198 -1.59529 3.23393 0
M  V30 3301 O 294.302 -2.70461 3.11327 0
M  V30 3302 H 293.643 -0.222231 0.625707 0
M  V30 3303 H 296.173 -0.0639716 2.045 0
M  V30 3304 H 296.183 -1.97847 3.5682 0
M  V30 3305 H 294.858 -0.933055 4.05299 0
M  V30 3306 H 293.435 -2.35135 2.89423 0
M  V30 3307 N 295.62 -1.53406 -0.361157 0
M  V30 3308 C 297.036 -1.43277 -0.703124 0
M  V30 3309 C 297.236 -0.575384 -1.9311 0
M  V30 3310 O 296.292 -0.0595362 -2.5243 0
M  V30 3311 C 297.605 -2.8653 -0.9122 0
M  V30 3312 C 299.153 -2.96191 -1.01193 0
M  V30 3313 C 299.628 -4.40514 -1.25345 0
M  V30 3314 N 301.119 -4.43962 -1.32105 0
M  V30 3315 C 301.854 -5.52746 -1.5251 0
M  V30 3316 N 301.35 -6.71567 -1.70203 0
M  V30 3317 N 303.143 -5.40331 -1.54916 0
M  V30 3318 H 295.294 -2.07654 0.446475 0
M  V30 3319 H 297.557 -0.937944 0.137715 0
M  V30 3320 H 297.263 -3.51605 -0.0816414 0
M  V30 3321 H 297.137 -3.30441 -1.81903 0
M  V30 3322 H 299.524 -2.31266 -1.83303 0
M  V30 3323 H 299.605 -2.55667 -0.0823929 0
M  V30 3324 H 299.249 -5.06014 -0.437346 0
M  V30 3325 H 299.179 -4.78614 -2.19627 0
M  V30 3326 H 301.67 -3.58332 -1.20028 0
M  V30 3327 H 301.983 -7.50241 -1.85359 0
M  V30 3328 H 300.328 -6.74545 -1.67373 0
M  V30 3329 H 303.519 -4.46465 -1.40663 0
M  V30 3330 H 303.692 -6.25173 -1.70477 0
M  V30 3331 N 297.098 0.621204 -1.44841 0
M  V30 3332 C 298.345 1.38055 -1.48145 0
M  V30 3333 C 298.673 1.94143 -0.117867 0
M  V30 3334 O 297.928 1.74713 0.881694 0
M  V30 3335 C 298.227 2.55675 -2.4973 0
M  V30 3336 C 297.893 2.17817 -3.94799 0
M  V30 3337 C 296.555 2.07205 -4.34303 0
M  V30 3338 C 298.907 1.88065 -4.86087 0
M  V30 3339 C 296.235 1.65045 -5.63007 0
M  V30 3340 C 298.587 1.47394 -6.15189 0
M  V30 3341 C 297.251 1.35331 -6.53637 0
M  V30 3342 H 296.521 0.505181 -0.542101 0
M  V30 3343 H 299.168 0.703477 -1.78111 0
M  V30 3344 H 297.473 3.2866 -2.13284 0
M  V30 3345 H 299.17 3.13904 -2.4953 0
M  V30 3346 H 295.76 2.26998 -3.63552 0
M  V30 3347 H 299.944 1.95168 -4.56315 0
M  V30 3348 H 295.2 1.54317 -5.91605 0
M  V30 3349 H 299.374 1.23415 -6.85377 0
M  V30 3350 H 297.001 1.02435 -7.53267 0
M  V30 3351 N 298.576 1.31904 0.862503 0
M  V30 3352 C 299.523 1.20182 1.9704 0
M  V30 3353 C 300.493 0.0858247 1.65878 0
M  V30 3354 O 301.678 0.26 1.8902 0
M  V30 3355 C 298.818 0.922797 3.32533 0
M  V30 3356 C 297.931 2.12284 3.76244 0
M  V30 3357 C 297.066 1.77996 5.00491 0
M  V30 3358 C 296.105 2.94366 5.36671 0
M  V30 3359 N 295.242 2.60223 6.52095 0
M  V30 3360 H 300.082 2.14951 2.06398 0
M  V30 3361 H 297.619 1.06917 1.01031 0
M  V30 3362 H 299.577 0.741548 4.10557 0
M  V30 3363 H 298.207 0.0119227 3.22798 0
M  V30 3364 H 297.259 2.41461 2.9394 0
M  V30 3365 H 298.571 2.99357 3.98982 0
M  V30 3366 H 297.725 1.56377 5.862 0
M  V30 3367 H 296.464 0.881252 4.79672 0
M  V30 3368 H 295.469 3.16625 4.49476 0
M  V30 3369 H 296.694 3.84957 5.59451 0
M  V30 3370 H 294.64 1.72884 6.32809 0
M  V30 3371 H 294.557 3.40827 6.74814 0
M  V30 3372 H 295.825 2.42016 7.40978 0
M  V30 3373 N 300.054 -1.07777 1.14986 0
M  V30 3374 C 301.303 -1.79669 0.916617 0
M  V30 3375 C 301.616 -1.87474 -0.557917 0
M  V30 3376 O 302.822 -2.55845 -0.908617 0
M  V30 3377 C 301.278 -3.22848 1.59051 0
M  V30 3378 C 300.886 -3.23257 3.10176 0
M  V30 3379 C 302.63 -3.99379 1.43864 0
M  V30 3380 C 300.537 -4.61063 3.70372 0
M  V30 3381 H 299.467 -0.673349 0.33929 0
M  V30 3382 H 302.118 -1.21003 1.37951 0
M  V30 3383 H 300.5 -3.8168 1.0553 0
M  V30 3384 H 301.674 -2.74095 3.70417 0
M  V30 3385 H 299.989 -2.60222 3.25074 0
M  V30 3386 H 302.586 -5.0122 1.86232 0
M  V30 3387 H 302.929 -4.14511 0.385564 0
M  V30 3388 H 303.462 -3.47032 1.94457 0
M  V30 3389 H 300.201 -4.51135 4.7556 0
M  V30 3390 H 299.721 -5.1048 3.14913 0
M  V30 3391 H 301.4 -5.30034 3.71043 0
M  V30 3392 N 301.532 -0.945985 -1.26051 0
M  V30 3393 C 302.943 -0.638096 -1.75457 0
M  V30 3394 C 303.294 0.846672 -1.76991 0
M  V30 3395 O 302.419 1.66262 -1.38513 0
M  V30 3396 C 303.014 -1.15157 -3.18629 0
M  V30 3397 C 301.573 -0.894004 -3.65629 0
M  V30 3398 C 300.72 -1.29967 -2.44957 0
M  V30 3399 H 303.671 -1.12376 -1.1206 0
M  V30 3400 H 303.692 -0.507615 -3.77099 0
M  V30 3401 H 303.204 -2.23222 -3.1748 0
M  V30 3402 H 301.305 0.172057 -3.72203 0
M  V30 3403 H 301.418 -1.52439 -4.54202 0
M  V30 3404 H 299.782 -0.718078 -2.44368 0
M  V30 3405 H 300.565 -2.38935 -2.46505 0
M  V30 3406 N 303.011 1.40521 -0.713556 0
M  V30 3407 C 304.26 2.00155 -0.249192 0
M  V30 3408 C 304.573 1.57224 1.16362 0
M  V30 3409 O 305.779 2.09542 1.72639 0
M  V30 3410 C 304.235 3.5773 -0.3946 0
M  V30 3411 C 303.843 4.09635 -1.81392 0
M  V30 3412 C 305.587 4.24499 0.00907364 0
M  V30 3413 C 303.494 5.59707 -1.91003 0
M  V30 3414 H 302.424 0.74868 -0.0894114 0
M  V30 3415 H 305.075 1.60784 -0.884352 0
M  V30 3416 H 303.457 3.94792 0.30911 0
M  V30 3417 H 304.631 3.83955 -2.54785 0
M  V30 3418 H 302.946 3.55456 -2.16888 0
M  V30 3419 H 305.543 5.34683 -0.0420404 0
M  V30 3420 H 305.886 4.02824 1.05065 0
M  V30 3421 H 306.419 3.92536 -0.645007 0
M  V30 3422 H 303.158 5.86234 -2.93275 0
M  V30 3423 H 302.678 5.87258 -1.22019 0
M  V30 3424 H 304.357 6.24776 -1.6812 0
M  V30 3425 N 304.489 0.459591 1.5075 0
M  V30 3426 C 305.714 -0.0996819 2.0716 0
M  V30 3427 C 306.139 -1.33761 1.32249 0
M  V30 3428 O 305.497 -1.77551 0.366786 0
M  V30 3429 C 305.545 -0.378226 3.58611 0
M  V30 3430 O 304.649 -1.46081 3.85661 0
M  V30 3431 H 303.99 0.00791392 0.663953 0
M  V30 3432 H 306.52 0.647329 1.9409 0
M  V30 3433 H 306.53 -0.622135 4.03229 0
M  V30 3434 H 305.205 0.526439 4.12555 0
M  V30 3435 H 303.782 -1.20511 3.5289 0
M  V30 3436 N 305.967 -1.56429 0.191757 0
M  V30 3437 C 306.93 -2.17707 -0.716688 0
M  V30 3438 C 307.93 -1.13061 -1.14341 0
M  V30 3439 O 309.12 -1.38464 -1.05704 0
M  V30 3440 C 306.252 -2.77644 -1.97804 0
M  V30 3441 H 307.445 -2.99342 -0.1829 0
M  V30 3442 H 304.998 -1.56193 -0.0578566 0
M  V30 3443 H 305.733 -1.99799 -2.55443 0
M  V30 3444 H 305.518 -3.54246 -1.68083 0
M  V30 3445 H 307.008 -3.24708 -2.62592 0
M  V30 3446 N 307.445 0.0818655 -1.57387 0
M  V30 3447 C 308.375 1.09885 -2.06028 0
M  V30 3448 C 309.356 1.4098 -0.951774 0
M  V30 3449 O 310.541 1.50781 -1.22387 0
M  V30 3450 C 307.671 2.4151 -2.4958 0
M  V30 3451 C 306.625 2.24792 -3.64215 0
M  V30 3452 C 305.951 3.61712 -3.93787 0
M  V30 3453 C 307.251 1.67749 -4.94629 0
M  V30 3454 H 308.945 0.694128 -2.91243 0
M  V30 3455 H 306.491 0.332448 -1.4011 0
M  V30 3456 H 308.444 3.12939 -2.82219 0
M  V30 3457 H 307.168 2.83943 -1.61381 0
M  V30 3458 H 305.827 1.55807 -3.31843 0
M  V30 3459 H 305.475 4.01697 -3.02735 0
M  V30 3460 H 305.175 3.51368 -4.70971 0
M  V30 3461 H 306.699 4.34587 -4.28913 0
M  V30 3462 H 308.113 2.29032 -5.25564 0
M  V30 3463 H 306.51 1.68128 -5.76067 0
M  V30 3464 H 307.58 0.638059 -4.80684 0
M  V30 3465 N 308.923 1.53595 0.353017 0
M  V30 3466 C 310.169 1.70638 1.09593 0
M  V30 3467 C 310.502 0.463286 1.88593 0
M  V30 3468 O 309.777 -0.539597 1.86865 0
M  V30 3469 C 310.06 2.96406 2.04489 0
M  V30 3470 C 309.913 4.30901 1.29014 0
M  V30 3471 C 311.232 3.17812 3.0444 0
M  V30 3472 H 308.351 0.620913 0.397034 0
M  V30 3473 H 310.993 1.86254 0.375446 0
M  V30 3474 H 309.143 2.83223 2.65927 0
M  V30 3475 H 310.815 4.55917 0.702638 0
M  V30 3476 H 309.058 4.29741 0.592071 0
M  V30 3477 H 309.729 5.1506 1.98537 0
M  V30 3478 H 312.205 3.30263 2.53112 0
M  V30 3479 H 311.081 4.07223 3.6805 0
M  V30 3480 H 311.342 2.33669 3.75301 0
M  V30 3481 N 310.401 -0.613514 1.45168 0
M  V30 3482 C 311.626 -1.40437 1.52618 0
M  V30 3483 C 312.051 -1.87438 0.157707 0
M  V30 3484 O 311.409 -1.59791 -0.856537 0
M  V30 3485 C 311.457 -2.58894 2.51011 0
M  V30 3486 O 310.561 -3.59326 2.02382 0
M  V30 3487 H 309.902 -0.419506 0.514695 0
M  V30 3488 H 312.432 -0.747215 1.90467 0
M  V30 3489 H 312.442 -3.06214 2.69624 0
M  V30 3490 H 311.117 -2.24032 3.50403 0
M  V30 3491 H 309.694 -3.18695 1.93618 0
M  V30 3492 N 311.879 -1.3236 -0.855495 0
M  V30 3493 C 313.126 -1.22872 -1.60962 0
M  V30 3494 C 313.454 0.209658 -1.93367 0
M  V30 3495 O 312.709 1.16243 -1.57436 0
M  V30 3496 C 313.008 -2.03275 -2.93963 0
M  V30 3497 C 312.674 -3.5264 -2.80991 0
M  V30 3498 C 311.336 -3.93364 -2.7716 0
M  V30 3499 C 313.688 -4.47626 -2.66983 0
M  V30 3500 C 311.016 -5.27319 -2.572 0
M  V30 3501 C 313.368 -5.81723 -2.48558 0
M  V30 3502 C 312.032 -6.2165 -2.4312 0
M  V30 3503 H 311.302 -0.44962 -0.589001 0
M  V30 3504 H 313.949 -1.63777 -0.992442 0
M  V30 3505 H 312.254 -1.55095 -3.59795 0
M  V30 3506 H 313.951 -1.93303 -3.51333 0
M  V30 3507 H 310.541 -3.20295 -2.84797 0
M  V30 3508 H 314.725 -4.17084 -2.68988 0
M  V30 3509 H 309.981 -5.57311 -2.51424 0
M  V30 3510 H 314.155 -6.5494 -2.36699 0
M  V30 3511 H 311.782 -7.25388 -2.27412 0
M  V30 3512 N 313.357 1.07166 -1.15556 0
M  V30 3513 C 314.603 1.80065 -0.932984 0
M  V30 3514 C 314.936 1.86586 0.53845 0
M  V30 3515 O 314.211 1.35098 1.39924 0
M  V30 3516 C 314.494 3.25022 -1.55025 0
M  V30 3517 C 314.347 3.26634 -3.09242 0
M  V30 3518 C 315.666 4.22341 -1.2376 0
M  V30 3519 H 312.785 0.653697 -0.340366 0
M  V30 3520 H 315.427 1.25389 -1.4275 0
M  V30 3521 H 313.577 3.71712 -1.12972 0
M  V30 3522 H 315.249 2.88173 -3.60214 0
M  V30 3523 H 313.492 2.65539 -3.43033 0
M  V30 3524 H 314.163 4.28854 -3.47546 0
M  V30 3525 H 316.639 3.8405 -1.60139 0
M  V30 3526 H 315.515 5.22053 -1.69564 0
M  V30 3527 H 315.776 4.41828 -0.154938 0
M  V30 3528 N 314.835 0.952656 1.25548 0
M  V30 3529 C 315.745 0.47782 2.29682 0
M  V30 3530 C 316.761 -0.453859 1.67977 0
M  V30 3531 O 317.937 -0.330587 1.98668 0
M  V30 3532 C 315.002 -0.238655 3.45878 0
M  V30 3533 C 314.063 0.730994 4.23031 0
M  V30 3534 C 313.296 0.0486165 5.33678 0
M  V30 3535 O 313.519 -1.16612 5.58353 0
M  V30 3536 O 312.453 0.733152 5.97418 0
M  V30 3537 H 316.279 1.34312 2.72386 0
M  V30 3538 H 313.864 0.719026 1.30959 0
M  V30 3539 H 315.746 -0.641774 4.16484 0
M  V30 3540 H 314.421 -1.07916 3.05181 0
M  V30 3541 H 313.328 1.18428 3.5486 0
M  V30 3542 H 314.661 1.53946 4.67506 0
M  V30 3543 N 316.313 -1.40141 0.720998 0
M  V30 3544 C 317.276 -2.29058 0.0805834 0
M  V30 3545 C 318.276 -1.45632 -0.681758 0
M  V30 3546 O 319.466 -1.6648 -0.512856 0
M  V30 3547 C 316.598 -3.28925 -0.895593 0
M  V30 3548 H 317.791 -2.87191 0.863793 0
M  V30 3549 H 315.344 -1.48553 0.485975 0
M  V30 3550 H 316.079 -2.75822 -1.70566 0
M  V30 3551 H 315.864 -3.90519 -0.351766 0
M  V30 3552 H 317.354 -3.95494 -1.34069 0
M  V30 3553 N 317.792 -0.46758 -1.50504 0
M  V30 3554 C 318.722 0.318381 -2.31319 0
M  V30 3555 C 319.703 0.993564 -1.38066 0
M  V30 3556 O 320.888 0.991411 -1.66987 0
M  V30 3557 C 318.018 1.40275 -3.17711 0
M  V30 3558 C 316.972 0.849373 -4.19487 0
M  V30 3559 C 316.298 2.03177 -4.94594 0
M  V30 3560 C 317.598 -0.136942 -5.2212 0
M  V30 3561 H 319.292 -0.356106 -2.97275 0
M  V30 3562 H 316.838 -0.172703 -1.42961 0
M  V30 3563 H 318.791 1.96004 -3.73042 0
M  V30 3564 H 317.515 2.10596 -2.49634 0
M  V30 3565 H 316.174 0.314076 -3.65252 0
M  V30 3566 H 315.822 2.72187 -4.22993 0
M  V30 3567 H 315.522 1.66774 -5.63436 0
M  V30 3568 H 317.046 2.59403 -5.52759 0
M  V30 3569 H 318.46 0.331056 -5.72343 0
M  V30 3570 H 316.857 -0.41507 -5.98663 0
M  V30 3571 H 317.927 -1.06398 -4.73083 0
M  V30 3572 N 319.27 1.56325 -0.20005 0
M  V30 3573 C 320.18 2.22931 0.730668 0
M  V30 3574 C 321.196 1.22997 1.23076 0
M  V30 3575 O 322.372 1.55748 1.27689 0
M  V30 3576 C 319.437 2.87948 1.93098 0
M  V30 3577 C 318.498 4.03166 1.47497 0
M  V30 3578 C 317.731 4.65073 2.61807 0
M  V30 3579 O 317.954 4.25913 3.79413 0
M  V30 3580 O 316.888 5.54452 2.34237 0
M  V30 3581 H 320.714 3.03084 0.193391 0
M  V30 3582 H 318.299 1.49371 0.0294621 0
M  V30 3583 H 320.181 3.29063 2.6324 0
M  V30 3584 H 318.856 2.10771 2.45677 0
M  V30 3585 H 317.763 3.66664 0.742201 0
M  V30 3586 H 319.096 4.82022 0.995796 0
M  V30 3587 N 320.748 -0.0735177 1.57428 0
M  V30 3588 C 321.994 -0.774145 1.87443 0
M  V30 3589 C 322.327 -1.77311 0.792103 0
M  V30 3590 O 321.602 -1.93492 -0.197793 0
M  V30 3591 C 321.885 -1.48367 3.28115 0
M  V30 3592 C 321.738 -0.501227 4.46999 0
M  V30 3593 C 323.057 -2.429 3.66998 0
M  V30 3594 H 320.176 -0.279971 0.681752 0
M  V30 3595 H 322.818 -0.0373616 1.89963 0
M  V30 3596 H 320.968 -2.11171 3.26097 0
M  V30 3597 H 322.64 0.121468 4.6114 0
M  V30 3598 H 320.883 0.183593 4.33411 0
M  V30 3599 H 321.554 -1.03526 5.42205 0
M  V30 3600 H 324.03 -1.90175 3.70098 0
M  V30 3601 H 322.906 -2.89549 4.66318 0
M  V30 3602 H 323.167 -3.27628 2.96837 0
M  V30 3603 N 322.226 -1.5378 -0.344866 0
M  V30 3604 C 323.474 -1.70625 -1.08311 0
M  V30 3605 C 323.795 -0.471447 -1.89215 0
M  V30 3606 O 323.065 0.514616 -1.8902 0
M  V30 3607 H 321.645 -0.629058 -0.402859 0
M  V30 3608 H 324.307 -1.9103 -0.386459 0
M  V30 3609 H 323.403 -2.57656 -1.76124 0
M  V30 3610 N 323.704 0.605807 -1.45491 0
M  V30 3611 C 324.934 1.38934 -1.52908 0
M  V30 3612 C 325.342 1.88513 -0.161086 0
M  V30 3613 O 324.685 1.62962 0.847891 0
M  V30 3614 C 324.747 2.62737 -2.45376 0
M  V30 3615 C 324.411 2.34785 -3.92078 0
M  V30 3616 C 325.408 1.95038 -4.8193 0
M  V30 3617 C 323.093 2.47642 -4.37011 0
M  V30 3618 C 325.087 1.68511 -6.14722 0
M  V30 3619 C 322.774 2.20728 -5.69844 0
M  V30 3620 C 323.772 1.81225 -6.58519 0
M  V30 3621 O 323.46 1.54627 -7.88889 0
M  V30 3622 H 323.192 0.431629 -0.520262 0
M  V30 3623 H 325.746 0.74573 -1.91384 0
M  V30 3624 H 323.976 3.29824 -2.01874 0
M  V30 3625 H 325.665 3.24783 -2.43456 0
M  V30 3626 H 326.431 1.84639 -4.48479 0
M  V30 3627 H 322.31 2.77356 -3.68232 0
M  V30 3628 H 325.854 1.37602 -6.83894 0
M  V30 3629 H 321.751 2.30744 -6.02849 0
M  V30 3630 H 322.519 1.68665 -8.00933 0
M  V30 3631 N 325.182 1.32811 0.848464 0
M  V30 3632 C 326.407 1.26882 1.6406 0
M  V30 3633 C 326.832 -0.15913 1.87426 0
M  V30 3634 O 326.19 -1.11258 1.43148 0
M  V30 3635 C 326.238 2.03997 2.97351 0
M  V30 3636 O 325.342 1.39201 3.88197 0
M  V30 3637 H 324.683 0.436982 0.499943 0
M  V30 3638 H 327.213 1.75224 1.0563 0
M  V30 3639 H 327.223 2.14403 3.47124 0
M  V30 3640 H 325.898 3.0783 2.79666 0
M  V30 3641 H 324.475 1.37381 3.46671 0
M  V30 3642 N 326.66 -1.06551 1.16123 0
M  V30 3643 C 327.607 -2.13961 0.865414 0
M  V30 3644 C 328.577 -1.65066 -0.185055 0
M  V30 3645 O 329.762 -1.90732 -0.05083 0
M  V30 3646 C 326.902 -3.43113 0.369776 0
M  V30 3647 C 326.015 -4.05756 1.48276 0
M  V30 3648 C 325.15 -5.22773 0.942414 0
M  V30 3649 C 324.189 -5.77395 2.03179 0
M  V30 3650 N 323.326 -6.85731 1.50721 0
M  V30 3651 H 328.166 -2.38605 1.78527 0
M  V30 3652 H 325.703 -1.17072 0.890646 0
M  V30 3653 H 327.661 -4.17151 0.0640643 0
M  V30 3654 H 326.291 -3.18695 -0.513143 0
M  V30 3655 H 325.343 -3.29292 1.9045 0
M  V30 3656 H 326.655 -4.42351 2.30493 0
M  V30 3657 H 325.809 -6.03827 0.589729 0
M  V30 3658 H 324.548 -4.87618 0.0895191 0
M  V30 3659 H 323.553 -4.94981 2.3932 0
M  V30 3660 H 324.778 -6.14603 2.8886 0
M  V30 3661 H 322.724 -6.52499 0.676811 0
M  V30 3662 H 322.641 -7.21254 2.26557 0
M  V30 3663 H 323.909 -7.7047 1.18303 0
M  V30 3664 N 328.138 -0.959301 -1.25041 0
M  V30 3665 C 329.088 -0.453888 -2.23436 0
M  V30 3666 C 330.072 0.459461 -1.542 0
M  V30 3667 O 331.264 0.291752 -1.74579 0
M  V30 3668 C 328.393 0.262667 -3.42294 0
M  V30 3669 C 327.479 -0.669022 -4.1879 0
M  V30 3670 N 327.87 -1.80267 -4.72586 0
M  V30 3671 C 326.168 -0.47814 -4.4343 0
M  V30 3672 C 326.869 -2.38475 -5.3057 0
M  V30 3673 N 325.845 -1.67078 -5.17287 0
M  V30 3674 H 329.647 -1.319 -2.6264 0
M  V30 3675 H 327.161 -0.817358 -1.40332 0
M  V30 3676 H 329.158 0.641911 -4.11929 0
M  V30 3677 H 327.818 1.12432 -3.04613 0
M  V30 3678 H 328.829 -2.18442 -4.69578 0
M  V30 3679 H 325.506 0.340249 -4.16111 0
M  V30 3680 H 326.896 -3.34094 -5.8295 0
M  V30 3681 N 329.616 1.39756 -0.72842 0
M  V30 3682 C 330.563 2.30647 -0.0841519 0
M  V30 3683 C 331.533 1.48869 0.7367 0
M  V30 3684 O 332.718 1.77574 0.698015 0
M  V30 3685 C 329.858 3.35165 0.822091 0
M  V30 3686 C 328.971 4.31999 -0.0106663 0
M  V30 3687 C 328.106 5.23585 0.896241 0
M  V30 3688 C 327.145 6.12072 0.0583381 0
M  V30 3689 N 326.282 6.96035 0.920818 0
M  V30 3690 H 331.122 2.85173 -0.864891 0
M  V30 3691 H 328.659 1.40422 -0.438179 0
M  V30 3692 H 330.617 3.94345 1.36189 0
M  V30 3693 H 329.247 2.8211 1.56888 0
M  V30 3694 H 328.299 3.74492 -0.66781 0
M  V30 3695 H 329.611 4.9443 -0.658825 0
M  V30 3696 H 328.765 5.87759 1.50412 0
M  V30 3697 H 327.504 4.61459 1.57819 0
M  V30 3698 H 326.509 5.46916 -0.562389 0
M  V30 3699 H 327.734 6.76261 -0.6203 0
M  V30 3700 H 325.68 6.36485 1.58818 0
M  V30 3701 H 325.597 7.55284 0.32899 0
M  V30 3702 H 326.865 7.64646 1.51447 0
M  V30 3703 N 331.094 0.475555 1.50254 0
M  V30 3704 C 332.042 -0.330276 2.30243 0
M  V30 3705 C 333.036 -0.986306 1.37726 0
M  V30 3706 O 334.242 -0.9169 1.54897 0
M  V30 3707 H 330.617 -0.125353 0.741479 0
M  V30 3708 H 332.588 0.364702 2.96163 0
M  V30 3709 C 331.337 -1.39704 3.18399 0
M  V30 3710 H 330.66 -0.901621 3.89501 0
M  V30 3711 H 332.1 -1.93336 3.77355 0
M  V30 3712 C 330.559 -2.4014 2.36293 0
M  V30 3713 O 331.089 -3.45504 2.04914 0
M  V30 3714 N 329.295 -2.1197 1.98789 0
M  V30 3715 H 328.842 -1.2631 2.24507 0
M  V30 3716 H 328.8 -2.79403 1.44157 0
M  V30 3717 N 332.573 -1.56217 0.208337 0
M  V30 3718 C 333.984 -1.84243 -0.301904 0
M  V30 3719 C 334.335 -1.12939 -1.60434 0
M  V30 3720 O 333.46 -0.39461 -2.12772 0
M  V30 3721 C 334.055 -3.34231 -0.554543 0
M  V30 3722 C 332.614 -3.62621 -1.00912 0
M  V30 3723 C 331.761 -2.77224 -0.064933 0
M  V30 3724 H 334.712 -1.52712 0.431833 0
M  V30 3725 H 334.733 -3.5372 -1.40223 0
M  V30 3726 H 334.245 -3.86099 0.393561 0
M  V30 3727 H 332.346 -3.16197 -1.97104 0
M  V30 3728 H 332.459 -4.7071 -0.892674 0
M  V30 3729 H 330.823 -2.48256 -0.56929 0
M  V30 3730 H 331.606 -3.31887 0.877851 0
M  V30 3731 N 334.051 0.0651679 -1.57465 0
M  V30 3732 C 335.281 0.774683 -1.91526 0
M  V30 3733 C 335.689 1.71305 -0.803196 0
M  V30 3734 O 335.032 1.82231 0.231881 0
M  V30 3735 C 335.094 1.61645 -3.21109 0
M  V30 3736 C 334.758 0.846753 -4.49087 0
M  V30 3737 C 335.755 0.163024 -5.19644 0
M  V30 3738 C 333.44 0.811966 -4.95694 0
M  V30 3739 C 335.434 -0.54519 -6.35064 0
M  V30 3740 C 333.121 0.0999836 -6.11018 0
M  V30 3741 C 334.119 -0.577388 -6.80555 0
M  V30 3742 O 333.807 -1.27789 -7.93678 0
M  V30 3743 H 333.539 0.225031 -0.637446 0
M  V30 3744 H 336.093 0.0377134 -2.05365 0
M  V30 3745 H 334.323 2.39638 -3.03497 0
M  V30 3746 H 336.012 2.20525 -3.40769 0
M  V30 3747 H 336.778 0.181163 -4.84662 0
M  V30 3748 H 332.657 1.32867 -4.41438 0
M  V30 3749 H 336.201 -1.07446 -6.89276 0
M  V30 3750 H 332.098 0.0797945 -6.45451 0
M  V30 3751 H 332.866 -1.18784 -8.09835 0
M  V30 3752 N 335.529 1.53961 0.336706 0
M  V30 3753 C 336.479 1.7881 1.41461 0
M  V30 3754 C 337.463 0.643561 1.47469 0
M  V30 3755 O 338.655 0.903166 1.52223 0
M  V30 3756 C 335.784 2.00722 2.78506 0
M  V30 3757 C 334.87 3.2126 2.76862 0
M  V30 3758 N 335.261 4.42588 2.44845 0
M  V30 3759 C 333.559 3.22568 3.08004 0
M  V30 3760 C 334.26 5.2447 2.51607 0
M  V30 3761 N 333.236 4.61344 2.87511 0
M  V30 3762 H 337.038 2.70205 1.15615 0
M  V30 3763 H 334.552 1.52978 0.545112 0
M  V30 3764 H 336.549 2.1666 3.5618 0
M  V30 3765 H 335.209 1.10573 3.05293 0
M  V30 3766 H 336.22 4.69819 2.17922 0
M  V30 3767 H 332.897 2.42409 3.39918 0
M  V30 3768 H 334.287 6.31324 2.29955 0
M  V30 3769 N 337.007 -0.598083 1.45811 0
M  V30 3770 C 337.955 -1.72932 1.55555 0
M  V30 3771 C 338.949 -1.63984 0.424921 0
M  V30 3772 O 340.155 -1.69663 0.601205 0
M  V30 3773 H 336.53 -0.571489 0.488779 0
M  V30 3774 H 338.501 -1.61842 2.50699 0
M  V30 3775 C 337.25 -3.11318 1.54843 0
M  V30 3776 H 336.573 -3.18867 2.41172 0
M  V30 3777 H 338.013 -3.90274 1.65717 0
M  V30 3778 C 336.472 -3.3578 0.274427 0
M  V30 3779 O 337.002 -3.9654 -0.641778 0
M  V30 3780 N 335.208 -2.90119 0.167139 0
M  V30 3781 H 334.755 -2.40855 0.913596 0
M  V30 3782 H 334.713 -3.0686 -0.684435 0
M  V30 3783 N 338.485 -1.33259 -0.841409 0
M  V30 3784 C 339.415 -1.25926 -1.96634 0
M  V30 3785 C 340.396 -0.140349 -1.6952 0
M  V30 3786 O 341.581 -0.329707 -1.91381 0
M  V30 3787 C 338.711 -0.99512 -3.32738 0
M  V30 3788 C 337.665 -2.0767 -3.74242 0
M  V30 3789 C 336.991 -1.66474 -5.08125 0
M  V30 3790 C 338.291 -3.49318 -3.88297 0
M  V30 3791 H 339.985 -2.20046 -2.03027 0
M  V30 3792 H 337.531 -1.05931 -0.975425 0
M  V30 3793 H 339.484 -0.930323 -4.11002 0
M  V30 3794 H 338.208 -0.0183004 -3.26595 0
M  V30 3795 H 336.867 -2.13187 -2.98239 0
M  V30 3796 H 336.515 -0.675012 -4.9845 0
M  V30 3797 H 336.215 -2.3885 -5.36865 0
M  V30 3798 H 337.739 -1.61455 -5.88867 0
M  V30 3799 H 339.153 -3.46316 -4.56879 0
M  V30 3800 H 337.55 -4.20158 -4.28471 0
M  V30 3801 H 338.62 -3.8801 -2.9082 0
M  V30 3802 N 339.963 1.05934 -1.16686 0
M  V30 3803 C 340.896 2.1295 -0.820225 0
M  V30 3804 C 341.874 1.61242 0.209722 0
M  V30 3805 O 343.058 1.88271 0.0929688 0
M  V30 3806 C 340.185 3.3797 -0.22223 0
M  V30 3807 C 339.231 4.08488 -1.22637 0
M  V30 3808 S 340.064 4.58015 -2.77457 0
M  V30 3809 C 341.22 5.86292 -2.19117 0
M  V30 3810 H 341.453 2.42025 -1.72659 0
M  V30 3811 H 338.986 1.18423 -0.990722 0
M  V30 3812 H 340.944 4.10335 0.116322 0
M  V30 3813 H 339.605 3.07045 0.66196 0
M  V30 3814 H 338.798 4.98291 -0.756455 0
M  V30 3815 H 338.4 3.42154 -1.51019 0
M  V30 3816 H 340.692 6.59246 -1.56209 0
M  V30 3817 H 341.635 6.38019 -3.07144 0
M  V30 3818 H 342.043 5.40497 -1.62858 0
M  V30 3819 N 341.441 0.965919 1.2453 0
M  V30 3820 C 342.391 0.465731 2.23193 0
M  V30 3821 C 343.375 -0.451277 1.54442 0
M  V30 3822 O 344.567 -0.282489 1.74731 0
M  V30 3823 C 341.696 -0.244511 3.42428 0
M  V30 3824 C 340.782 0.691222 4.18429 0
M  V30 3825 N 341.173 1.82771 4.71623 0
M  V30 3826 C 339.471 0.501649 4.4317 0
M  V30 3827 C 340.172 2.41285 5.29298 0
M  V30 3828 N 339.148 1.69819 5.16394 0
M  V30 3829 H 342.95 1.33291 2.61937 0
M  V30 3830 H 340.464 0.824789 1.39896 0
M  V30 3831 H 342.461 -0.620056 4.12263 0
M  V30 3832 H 341.121 -1.10815 3.05205 0
M  V30 3833 H 342.132 2.20929 4.68413 0
M  V30 3834 H 338.809 -0.318177 4.16286 0
M  V30 3835 H 340.199 3.37181 5.8117 0
M  V30 3836 N 342.919 -1.39368 0.735821 0
M  V30 3837 C 343.882 -2.2896 0.104874 0
M  V30 3838 C 344.882 -1.46347 -0.666274 0
M  V30 3839 O 346.072 -1.67014 -0.49517 0
M  V30 3840 C 343.204 -3.29857 -0.860656 0
M  V30 3841 H 344.397 -2.86259 0.894205 0
M  V30 3842 H 341.95 -1.48029 0.501704 0
M  V30 3843 H 342.685 -2.77615 -1.67631 0
M  V30 3844 H 342.47 -3.9087 -0.310327 0
M  V30 3845 H 343.96 -3.96893 -1.29867 0
M  V30 3846 N 344.397 -0.483516 -1.5 0
M  V30 3847 C 345.36 0.292965 -2.2732 0
M  V30 3848 C 346.36 0.909499 -1.32608 0
M  V30 3849 O 347.55 0.776745 -1.55924 0
M  V30 3850 C 344.682 1.41854 -3.09984 0
M  V30 3851 H 345.875 -0.385289 -2.97415 0
M  V30 3852 H 343.428 -0.237942 -1.54478 0
M  V30 3853 H 344.163 2.13148 -2.44414 0
M  V30 3854 H 343.948 0.982114 -3.79601 0
M  V30 3855 H 345.438 1.96597 -3.68429 0
M  V30 3856 N 345.875 1.56104 -0.216619 0
M  V30 3857 C 347.152 1.89988 0.465165 0
M  V30 3858 C 347.532 1.13326 1.78102 0
M  V30 3859 O 346.88 0.241033 2.27225 0
M  V30 3860 C 347.09 3.42646 0.662939 0
M  V30 3861 C 348.438 4.13311 0.972602 0
M  V30 3862 O 349.462 3.48217 0.749901 0
M  V30 3863 O 348.321 5.28396 1.39499 0
M  V30 3864 H 345.415 0.78979 0.245276 0
M  V30 3865 H 347.961 1.67721 -0.258436 0
M  V30 3866 H 346.733 3.90399 -0.26543 0
M  V30 3867 H 346.356 3.70677 1.43821 0
M  V30 3868 N 347.353 -0.0568162 1.57498 0
M  V30 3869 C 348.599 -0.75422 1.88253 0
M  V30 3870 C 348.932 -1.76461 0.810865 0
M  V30 3871 O 348.207 -1.93691 -0.177259 0
M  V30 3872 C 348.49 -1.44878 3.2967 0
M  V30 3873 C 348.343 -0.453789 4.47505 0
M  V30 3874 C 349.662 -2.38994 3.69554 0
M  V30 3875 H 346.781 -0.272724 0.684683 0
M  V30 3876 H 349.423 -0.0172113 1.89992 0
M  V30 3877 H 347.573 -2.077 3.28318 0
M  V30 3878 H 349.245 0.170371 4.60985 0
M  V30 3879 H 347.488 0.229552 4.33192 0
M  V30 3880 H 348.159 -0.977699 5.43273 0
M  V30 3881 H 350.635 -1.86239 3.72095 0
M  V30 3882 H 349.511 -2.84587 4.69363 0
M  V30 3883 H 349.772 -3.24461 3.00296 0
M  V30 3884 N 348.832 -1.54138 -0.328536 0
M  V30 3885 C 350.06 -1.76062 -1.08673 0
M  V30 3886 C 350.475 -0.506852 -1.81869 0
M  V30 3887 O 349.832 0.522223 -1.74869 0
M  V30 3888 C 349.883 -2.95054 -2.08866 0
M  V30 3889 O 349.604 -4.15583 -1.38644 0
M  V30 3890 C 351.105 -3.2915 -2.96943 0
M  V30 3891 H 348.325 -0.587889 -0.323461 0
M  V30 3892 H 350.869 -2.0101 -0.376175 0
M  V30 3893 H 349.024 -2.72394 -2.75464 0
M  V30 3894 H 349.438 -4.82481 -2.05699 0
M  V30 3895 H 350.912 -4.15723 -3.63151 0
M  V30 3896 H 351.389 -2.461 -3.63774 0
M  V30 3897 H 351.995 -3.53871 -2.35914 0
M  V30 3898 N 350.31 0.590341 -1.46126 0
M  V30 3899 C 351.242 1.71427 -1.52136 0
M  V30 3900 C 352.255 1.57542 -0.41042 0
M  V30 3901 O 353.444 1.65106 -0.678389 0
M  V30 3902 C 350.544 3.09605 -1.37834 0
M  V30 3903 C 349.717 3.49566 -2.62912 0
M  V30 3904 C 348.776 4.66773 -2.42918 0
M  V30 3905 O 347.802 4.73019 -3.1661 0
M  V30 3906 N 349.004 5.61161 -1.4859 0
M  V30 3907 H 351.769 1.66728 -2.49042 0
M  V30 3908 H 349.33 0.776113 -1.42085 0
M  V30 3909 H 351.322 3.85796 -1.22243 0
M  V30 3910 H 349.892 3.08714 -0.491393 0
M  V30 3911 H 349.112 2.63158 -2.93499 0
M  V30 3912 H 350.4 3.73028 -3.46017 0
M  V30 3913 H 349.798 5.58844 -0.87808 0
M  V30 3914 H 348.355 6.36814 -1.38965 0
M  V30 3915 N 351.788 1.33704 0.83433 0
M  V30 3916 C 353.016 1.28467 1.62185 0
M  V30 3917 C 353.431 -0.143526 1.88254 0
M  V30 3918 O 352.788 -1.08709 1.4659 0
M  V30 3919 C 352.839 2.06174 2.96942 0
M  V30 3920 O 352.56 3.43422 2.72016 0
M  V30 3921 C 354.061 2.08201 3.91366 0
M  V30 3922 H 351.281 0.4424 0.504503 0
M  V30 3923 H 353.825 1.76145 1.03891 0
M  V30 3924 H 351.98 1.62167 3.51825 0
M  V30 3925 H 352.394 3.83453 3.57861 0
M  V30 3926 H 353.868 2.67017 4.83121 0
M  V30 3927 H 354.345 1.07343 4.2588 0
M  V30 3928 H 354.951 2.52246 3.42421 0
M  V30 3929 N 353.266 -1.05314 1.17247 0
M  V30 3930 C 354.512 -1.78557 0.961513 0
M  V30 3931 C 354.845 -1.87419 -0.508697 0
M  V30 3932 O 354.12 -1.37307 -1.37757 0
M  V30 3933 C 354.403 -3.22514 1.60176 0
M  V30 3934 C 354.256 -3.21673 3.14399 0
M  V30 3935 C 355.575 -4.20318 1.30463 0
M  V30 3936 H 352.694 -0.6482 0.350723 0
M  V30 3937 H 355.336 -1.23102 1.44727 0
M  V30 3938 H 353.486 -3.69867 1.18871 0
M  V30 3939 H 355.158 -2.82405 3.64753 0
M  V30 3940 H 353.401 -2.60048 3.47214 0
M  V30 3941 H 354.072 -4.23271 3.54324 0
M  V30 3942 H 356.548 -3.81454 1.66229 0
M  V30 3943 H 355.424 -5.19289 1.77848 0
M  V30 3944 H 355.685 -4.41526 0.22521 0
M  V30 3945 N 354.744 -0.972509 -1.24016 0
M  V30 3946 C 355.694 -0.477561 -2.22942 0
M  V30 3947 C 356.678 0.44308 -1.54679 0
M  V30 3948 O 357.87 0.273219 -1.74879 0
M  V30 3949 C 354.999 0.226348 -3.42553 0
M  V30 3950 C 354.085 -0.713403 -4.18057 0
M  V30 3951 N 354.476 -1.8527 -4.70647 0
M  V30 3952 C 352.774 -0.525145 -4.42898 0
M  V30 3953 C 353.475 -2.44089 -5.28011 0
M  V30 3954 N 352.451 -1.72556 -5.15486 0
M  V30 3955 H 356.253 -1.34678 -2.61226 0
M  V30 3956 H 353.767 -0.832196 -1.39457 0
M  V30 3957 H 355.764 0.598184 -4.12586 0
M  V30 3958 H 354.424 1.09195 -3.05788 0
M  V30 3959 H 355.435 -2.2341 -4.67235 0
M  V30 3960 H 352.112 0.296096 -4.16449 0
M  V30 3961 H 353.502 -3.40259 -5.79374 0
M  V30 3962 N 356.222 1.38976 -0.743202 0
M  V30 3963 C 357.452 2.04339 -0.304807 0
M  V30 3964 C 357.86 1.56162 1.06819 0
M  V30 3965 O 357.203 0.725284 1.68776 0
M  V30 3966 C 357.265 3.58716 -0.237369 0
M  V30 3967 C 356.929 4.29905 -1.55018 0
M  V30 3968 C 357.926 4.55987 -2.49744 0
M  V30 3969 C 355.611 4.68294 -1.81675 0
M  V30 3970 C 357.605 5.19478 -3.69353 0
M  V30 3971 C 355.292 5.31512 -3.0156 0
M  V30 3972 C 356.29 5.57037 -3.9522 0
M  V30 3973 O 355.978 6.18941 -5.12998 0
M  V30 3974 H 355.71 0.663439 -0.12971 0
M  V30 3975 H 358.264 1.78852 -1.01001 0
M  V30 3976 H 356.494 3.83133 0.524003 0
M  V30 3977 H 358.183 4.05543 0.170121 0
M  V30 3978 H 358.949 4.26767 -2.30423 0
M  V30 3979 H 354.828 4.47779 -1.09615 0
M  V30 3980 H 358.372 5.39318 -4.42473 0
M  V30 3981 H 354.269 5.60153 -3.20778 0
M  V30 3982 H 355.037 6.37433 -5.13441 0
M  V30 3983 N 357.7 0.491464 1.49741 0
M  V30 3984 C 358.63 -0.28154 2.31796 0
M  V30 3985 C 359.611 -0.971473 1.3963 0
M  V30 3986 O 360.796 -0.964719 1.68543 0
M  V30 3987 C 357.926 -1.35203 3.19902 0
M  V30 3988 C 356.88 -0.782529 4.20786 0
M  V30 3989 C 356.206 -1.95283 4.97764 0
M  V30 3990 C 357.506 0.21999 5.21837 0
M  V30 3991 H 359.2 0.403355 2.96671 0
M  V30 3992 H 356.746 0.195425 1.42668 0
M  V30 3993 H 358.699 -1.90045 3.76113 0
M  V30 3994 H 357.423 -2.06598 2.52953 0
M  V30 3995 H 356.082 -0.255928 3.65706 0
M  V30 3996 H 355.73 -2.65423 4.2727 0
M  V30 3997 H 355.43 -1.57789 5.66018 0
M  V30 3998 H 356.954 -2.50577 5.56816 0
M  V30 3999 H 358.368 -0.23996 5.72798 0
M  V30 4000 H 356.765 0.51026 5.97927 0
M  V30 4001 H 357.835 1.13911 4.7133 0
M  V30 4002 N 359.178 -1.55987 0.224894 0
M  V30 4003 C 360.108 -2.23426 -0.678457 0
M  V30 4004 C 361.089 -1.20709 -1.19847 0
M  V30 4005 O 362.274 -1.49304 -1.24186 0
M  V30 4006 C 359.404 -2.91676 -1.88527 0
M  V30 4007 C 358.358 -4.00893 -1.49896 0
M  V30 4008 C 357.684 -4.56455 -2.78483 0
M  V30 4009 C 358.984 -5.17769 -0.686461 0
M  V30 4010 H 360.678 -2.99175 -0.116173 0
M  V30 4011 H 358.224 -1.43897 -0.054436 0
M  V30 4012 H 360.177 -3.37547 -2.5227 0
M  V30 4013 H 358.901 -2.1338 -2.47258 0
M  V30 4014 H 357.56 -3.55758 -0.884985 0
M  V30 4015 H 357.208 -3.74886 -3.35365 0
M  V30 4016 H 356.908 -5.30169 -2.53368 0
M  V30 4017 H 358.432 -5.05047 -3.43162 0
M  V30 4018 H 359.846 -5.60001 -1.22767 0
M  V30 4019 H 358.243 -5.97735 -0.532259 0
M  V30 4020 H 359.313 -4.83932 0.306196 0
M  V30 4021 N 360.656 0.0484629 -1.57525 0
M  V30 4022 C 361.886 0.754326 -1.92337 0
M  V30 4023 C 362.294 1.70443 -0.82132 0
M  V30 4024 O 361.637 1.82466 0.21254 0
M  V30 4025 C 361.699 1.58231 -3.22805 0
M  V30 4026 C 361.363 0.799074 -4.4996 0
M  V30 4027 C 362.36 0.1079 -5.19788 0
M  V30 4028 C 360.045 0.759345 -4.96527 0
M  V30 4029 C 362.039 -0.612516 -6.3445 0
M  V30 4030 C 359.726 0.0351713 -6.1109 0
M  V30 4031 C 360.724 -0.649537 -6.79904 0
M  V30 4032 O 360.412 -1.36199 -7.92278 0
M  V30 4033 H 360.144 0.218257 -0.639797 0
M  V30 4034 H 362.698 0.0159295 -2.05394 0
M  V30 4035 H 360.928 2.36406 -3.06021 0
M  V30 4036 H 362.617 2.16898 -3.43089 0
M  V30 4037 H 363.383 0.129748 -4.84826 0
M  V30 4038 H 359.262 1.28177 -4.42822 0
M  V30 4039 H 362.806 -1.14751 -6.88097 0
M  V30 4040 H 358.703 0.0113314 -6.45499 0
M  V30 4041 H 359.471 -1.27366 -8.0853 0
M  V30 4042 N 362.134 1.5431 0.320358 0
M  V30 4043 C 363.081 1.83918 1.39438 0
M  V30 4044 C 364.051 0.686525 1.51248 0
M  V30 4045 O 365.236 0.933269 1.66417 0
M  V30 4046 C 362.376 2.075 2.75749 0
M  V30 4047 C 361.489 3.35177 2.72544 0
M  V30 4048 C 360.624 3.48704 4.00723 0
M  V30 4049 C 359.663 4.70244 3.91838 0
M  V30 4050 N 358.8 4.80679 5.11754 0
M  V30 4051 H 363.64 2.75544 1.13489 0
M  V30 4052 H 361.177 1.36459 0.549309 0
M  V30 4053 H 363.135 2.19166 3.54996 0
M  V30 4054 H 361.765 1.19163 3 0
M  V30 4055 H 360.817 3.32233 1.85271 0
M  V30 4056 H 362.129 4.24534 2.61863 0
M  V30 4057 H 361.283 3.59928 4.88402 0
M  V30 4058 H 360.022 2.57445 4.14214 0
M  V30 4059 H 359.027 4.59072 3.02544 0
M  V30 4060 H 360.252 5.6289 3.7991 0
M  V30 4061 H 358.198 3.92337 5.25745 0
M  V30 4062 H 358.115 5.64007 5.0342 0
M  V30 4063 H 359.383 4.96239 6.01138 0
M  V30 4064 N 363.613 -0.582584 1.46437 0
M  V30 4065 C 364.841 -1.36682 1.55324 0
M  V30 4066 C 365.256 -1.87796 0.194409 0
M  V30 4067 O 364.613 -1.63623 -0.808318 0
M  V30 4068 C 364.664 -2.55426 2.55812 0
M  V30 4069 O 364.385 -2.0643 3.86417 0
M  V30 4070 C 365.886 -3.47976 2.74641 0
M  V30 4071 H 363.106 -0.417545 0.525259 0
M  V30 4072 H 365.65 -0.708219 1.91845 0
M  V30 4073 H 363.805 -3.17275 2.22295 0
M  V30 4074 H 364.219 -2.83762 4.41111 0
M  V30 4075 H 365.693 -4.27775 3.48874 0
M  V30 4076 H 366.17 -3.99919 1.81553 0
M  V30 4077 H 366.776 -2.91962 3.09255 0
M  V30 4078 N 365.091 -1.34144 -0.827227 0
M  V30 4079 C 366.339 -1.26009 -1.58007 0
M  V30 4080 C 366.66 0.170971 -1.94249 0
M  V30 4081 O 365.93 1.10256 -1.61927 0
M  V30 4082 H 364.51 -0.463414 -0.585881 0
M  V30 4083 H 367.172 -1.68005 -0.987951 0
M  V30 4084 H 366.268 -1.86187 -2.50481 0
M  V30 4085 N 366.569 1.04691 -1.17803 0
M  V30 4086 C 367.815 1.78045 -0.970969 0
M  V30 4087 C 368.148 1.87686 0.498751 0
M  V30 4088 O 367.423 1.38035 1.37027 0
M  V30 4089 C 367.706 3.2166 -1.61884 0
M  V30 4090 C 367.559 3.20001 -3.161 0
M  V30 4091 C 368.878 4.1962 -1.3269 0
M  V30 4092 H 365.997 0.64633 -0.354155 0
M  V30 4093 H 368.639 1.22333 -1.45378 0
M  V30 4094 H 366.789 3.69232 -1.20831 0
M  V30 4095 H 368.461 2.80467 -3.66246 0
M  V30 4096 H 366.704 2.58203 -3.48588 0
M  V30 4097 H 367.375 4.21386 -3.56564 0
M  V30 4098 H 369.851 3.80567 -1.68249 0
M  V30 4099 H 368.727 5.18339 -1.80599 0
M  V30 4100 H 368.988 4.414 -0.248622 0
M  V30 4101 N 368.047 0.979072 1.23499 0
M  V30 4102 C 369.01 0.523244 2.23147 0
M  V30 4103 C 370.01 -0.386406 1.56088 0
M  V30 4104 O 371.2 -0.180283 1.73265 0
M  V30 4105 C 368.332 -0.240739 3.40049 0
M  V30 4106 H 369.525 1.40432 2.64989 0
M  V30 4107 H 367.078 0.764824 1.36309 0
M  V30 4108 H 367.813 -1.13841 3.03662 0
M  V30 4109 H 367.598 0.412207 3.89927 0
M  V30 4110 H 369.088 -0.548297 4.13985 0
M  V30 4111 N 369.525 -1.3858 0.750561 0
M  V30 4112 C 370.473 -2.32339 0.110162 0
M  V30 4113 C 371.467 -1.53864 -0.708674 0
M  V30 4114 O 372.673 -1.69417 -0.608112 0
M  V30 4115 H 369.048 -0.751812 0.0168275 0
M  V30 4116 H 371.019 -2.83959 0.917053 0
M  V30 4117 C 369.768 -3.39043 -0.771067 0
M  V30 4118 H 369.091 -3.99517 -0.150374 0
M  V30 4119 H 370.531 -4.07061 -1.1865 0
M  V30 4120 C 368.99 -2.77365 -1.91234 0
M  V30 4121 O 369.52 -2.66434 -3.00626 0
M  V30 4122 N 367.726 -2.35219 -1.70646 0
M  V30 4123 H 367.273 -2.4431 -0.81673 0
M  V30 4124 H 367.231 -1.94294 -2.47178 0
M  V30 4125 N 371.003 -0.499398 -1.49478 0
M  V30 4126 C 372.249 0.0377587 -2.03365 0
M  V30 4127 C 372.604 1.3484 -1.37244 0
M  V30 4128 O 371.897 1.85 -0.498547 0
M  V30 4129 C 372.091 0.248424 -3.56536 0
M  V30 4130 C 371.92 -1.04025 -4.37503 0
M  V30 4131 C 370.69 -1.59159 -4.79579 0
M  V30 4132 C 372.888 -1.9431 -4.76181 0
M  V30 4133 N 370.87 -2.82634 -5.44969 0
M  V30 4134 C 372.241 -3.02364 -5.41272 0
M  V30 4135 C 374.296 -1.95008 -4.58123 0
M  V30 4136 C 372.999 -4.1114 -5.90217 0
M  V30 4137 C 375.025 -3.02758 -5.08027 0
M  V30 4138 C 374.387 -4.09531 -5.73118 0
M  V30 4139 H 370.486 -0.026923 -0.781536 0
M  V30 4140 H 373.07 -0.673901 -1.82665 0
M  V30 4141 H 371.241 0.929139 -3.77123 0
M  V30 4142 H 372.973 0.782445 -3.97064 0
M  V30 4143 H 369.728 -1.13696 -4.5975 0
M  V30 4144 H 370.152 -3.45416 -5.82252 0
M  V30 4145 H 374.794 -1.13766 -4.07207 0
M  V30 4146 H 372.512 -4.93181 -6.40155 0
M  V30 4147 H 376.098 -3.04315 -4.95866 0
M  V30 4148 H 374.978 -4.91534 -6.11035 0
M  V30 4149 N 372.481 1.55866 -0.233164 0
M  V30 4150 C 373.411 2.23783 0.666599 0
M  V30 4151 C 374.392 1.21343 1.19205 0
M  V30 4152 O 375.577 1.4996 1.23392 0
M  V30 4153 C 372.707 2.92671 1.86978 0
M  V30 4154 C 371.661 4.01682 1.47768 0
M  V30 4155 C 370.987 4.57926 2.76058 0
M  V30 4156 C 372.287 5.18126 0.658993 0
M  V30 4157 H 373.981 2.99232 0.100306 0
M  V30 4158 H 371.527 1.43924 0.046804 0
M  V30 4159 H 373.48 3.3888 2.50476 0
M  V30 4160 H 372.204 2.14688 2.46123 0
M  V30 4161 H 370.863 3.56222 0.866106 0
M  V30 4162 H 370.511 3.76659 3.33372 0
M  V30 4163 H 370.211 5.31505 2.50552 0
M  V30 4164 H 371.735 5.06859 3.40479 0
M  V30 4165 H 373.149 5.60644 1.19795 0
M  V30 4166 H 371.546 5.98009 0.500552 0
M  V30 4167 H 372.616 4.83763 -0.331856 0
M  V30 4168 N 373.959 -0.0401083 1.57549 0
M  V30 4169 C 375.187 -0.745196 1.93014 0
M  V30 4170 C 375.602 -1.6948 0.831984 0
M  V30 4171 O 374.959 -1.81482 -0.192463 0
M  V30 4172 C 375.01 -1.51176 3.28372 0
M  V30 4173 O 374.731 -0.600284 4.33968 0
M  V30 4174 C 376.232 -2.315 3.78051 0
M  V30 4175 H 373.452 -0.210088 0.637263 0
M  V30 4176 H 375.996 -0.000924689 2.045 0
M  V30 4177 H 374.151 -2.20801 3.18317 0
M  V30 4178 H 374.565 -1.13669 5.12035 0
M  V30 4179 H 376.039 -2.80697 4.75303 0
M  V30 4180 H 376.516 -3.12436 3.08675 0
M  V30 4181 H 377.122 -1.66971 3.91153 0
M  V30 4182 N 375.437 -1.54477 -0.31217 0
M  V30 4183 C 376.347 -1.87695 -1.4074 0
M  V30 4184 C 377.363 -0.769975 -1.56036 0
M  V30 4185 O 378.539 -1.06537 -1.70915 0
M  V30 4186 C 375.604 -2.10755 -2.75287 0
M  V30 4187 C 374.665 -3.34514 -2.69071 0
M  V30 4188 C 373.898 -3.56465 -3.97201 0
M  V30 4189 O 374.121 -2.81637 -4.96021 0
M  V30 4190 O 373.055 -4.49964 -3.9977 0
M  V30 4191 H 376.881 -2.80849 -1.15574 0
M  V30 4192 H 374.466 -1.40526 -0.507228 0
M  V30 4193 H 376.348 -2.27188 -3.54913 0
M  V30 4194 H 375.023 -1.20788 -3.0032 0
M  V30 4195 H 373.93 -3.23456 -1.87955 0
M  V30 4196 H 375.263 -4.24575 -2.48992 0
M  V30 4197 N 376.915 0.57481 -1.46744 0
M  V30 4198 C 377.845 1.69337 -1.60771 0
M  V30 4199 C 378.826 1.63825 -0.457736 0
M  V30 4200 O 380.011 1.8172 -0.684947 0
M  V30 4201 C 377.141 3.0798 -1.60517 0
M  V30 4202 C 376.095 3.28327 -2.74564 0
M  V30 4203 C 375.421 4.67578 -2.59373 0
M  V30 4204 C 376.721 3.15398 -4.16319 0
M  V30 4205 H 378.415 1.57853 -2.54407 0
M  V30 4206 H 375.961 0.75799 -1.22436 0
M  V30 4207 H 377.914 3.86061 -1.68923 0
M  V30 4208 H 376.638 3.20381 -0.634305 0
M  V30 4209 H 375.297 2.52649 -2.65639 0
M  V30 4210 H 374.945 4.76755 -1.60353 0
M  V30 4211 H 374.645 4.82144 -3.35873 0
M  V30 4212 H 376.169 5.47817 -2.69682 0
M  V30 4213 H 377.583 3.83315 -4.26313 0
M  V30 4214 H 375.98 3.41482 -4.93468 0
M  V30 4215 H 377.05 2.12372 -4.3592 0
M  V30 4216 N 378.394 1.34581 0.820102 0
M  V30 4217 C 379.304 1.28471 1.96297 0
M  V30 4218 C 380.32 0.191902 1.72939 0
M  V30 4219 O 381.496 0.418879 1.96996 0
M  V30 4220 C 378.561 1.04281 3.30645 0
M  V30 4221 C 377.622 2.22745 3.66992 0
M  V30 4222 C 376.855 1.997 4.9493 0
M  V30 4223 O 377.078 0.956656 5.6232 0
M  V30 4224 O 376.012 2.86723 5.2922 0
M  V30 4225 H 379.838 2.24624 2.04396 0
M  V30 4226 H 377.423 1.14816 0.955913 0
M  V30 4227 H 379.305 0.925841 4.11104 0
M  V30 4228 H 377.98 0.111697 3.23507 0
M  V30 4229 H 376.887 2.40003 2.86966 0
M  V30 4230 H 378.22 3.14257 3.78819 0
M  V30 4231 N 379.872 -1.04064 1.18357 0
M  V30 4232 C 381.121 -1.76662 0.973313 0
M  V30 4233 C 381.434 -1.89154 -0.497991 0
M  V30 4234 O 382.64 -2.58606 -0.826762 0
M  V30 4235 C 381.096 -3.17624 1.69242 0
M  V30 4236 C 380.704 -3.13225 3.20303 0
M  V30 4237 C 382.448 -3.946 1.56497 0
M  V30 4238 C 380.355 -4.49046 3.84853 0
M  V30 4239 H 379.285 -0.662214 0.36054 0
M  V30 4240 H 381.936 -1.16553 1.41731 0
M  V30 4241 H 380.318 -3.78129 1.1762 0
M  V30 4242 H 381.492 -2.62172 3.78949 0
M  V30 4243 H 379.807 -2.49749 3.33189 0
M  V30 4244 H 382.404 -4.95042 2.02084 0
M  V30 4245 H 382.747 -4.13074 0.517243 0
M  V30 4246 H 383.28 -3.4067 2.05399 0
M  V30 4247 H 380.019 -4.35777 4.89672 0
M  V30 4248 H 379.539 -5.00203 3.30994 0
M  V30 4249 H 381.218 -5.17961 3.87718 0
M  V30 4250 N 381.35 -0.985608 -1.22978 0
M  V30 4251 C 382.597 -0.657386 -1.91532 0
M  V30 4252 C 382.925 0.809707 -1.76845 0
M  V30 4253 O 382.18 1.60021 -1.12658 0
M  V30 4254 C 382.479 -1.00014 -3.43121 0
M  V30 4255 C 382.145 -2.4583 -3.77993 0
M  V30 4256 C 380.807 -2.85679 -3.87222 0
M  V30 4257 C 383.159 -3.40378 -3.94705 0
M  V30 4258 C 380.487 -4.19081 -4.10595 0
M  V30 4259 C 382.839 -4.73429 -4.1958 0
M  V30 4260 C 381.503 -5.1303 -4.27032 0
M  V30 4261 H 380.773 -0.240555 -0.700867 0
M  V30 4262 H 383.42 -1.24044 -1.45895 0
M  V30 4263 H 381.725 -0.335072 -3.90365 0
M  V30 4264 H 383.422 -0.724322 -3.94404 0
M  V30 4265 H 380.012 -2.13939 -3.71387 0
M  V30 4266 H 384.196 -3.10766 -3.8696 0
M  V30 4267 H 379.452 -4.49362 -4.14589 0
M  V30 4268 H 383.626 -5.46644 -4.31455 0
M  V30 4269 H 381.253 -6.16418 -4.44896 0
M  V30 4270 N 382.828 1.3818 -0.7579 0
M  V30 4271 C 383.791 2.28764 -0.141286 0
M  V30 4272 C 384.791 1.47388 0.642907 0
M  V30 4273 O 385.981 1.67781 0.468536 0
M  V30 4274 C 383.113 3.31184 0.808069 0
M  V30 4275 H 384.306 2.848 -0.939633 0
M  V30 4276 H 381.859 1.47212 -0.525191 0
M  V30 4277 H 382.594 2.80247 1.63193 0
M  V30 4278 H 382.379 3.91314 0.248104 0
M  V30 4279 H 383.869 3.98909 1.23536 0
M  V30 4280 N 384.306 0.507319 1.49211 0
M  V30 4281 C 385.555 -0.0368315 2.01666 0
M  V30 4282 C 385.868 -1.37459 1.39156 0
M  V30 4283 O 387.074 -2.00579 1.82976 0
M  V30 4284 C 385.53 -0.116089 3.59713 0
M  V30 4285 C 385.138 1.2154 4.31198 0
M  V30 4286 C 386.882 -0.610268 4.2009 0
M  V30 4287 C 384.789 1.09796 5.81119 0
M  V30 4288 H 383.719 -0.0175376 0.753796 0
M  V30 4289 H 386.37 0.647691 1.71689 0
M  V30 4290 H 384.752 -0.8652 3.86433 0
M  V30 4291 H 385.926 1.9783 4.16173 0
M  V30 4292 H 384.241 1.64352 3.82593 0
M  V30 4293 H 386.838 -0.715742 5.29888 0
M  V30 4294 H 387.181 -1.61064 3.8388 0
M  V30 4295 H 387.714 0.0824916 3.97714 0
M  V30 4296 H 384.453 2.0728 6.21864 0
M  V30 4297 H 383.973 0.376058 5.9862 0
M  V30 4298 H 385.652 0.779281 6.4229 0
M  V30 4299 N 385.784 -1.5574 0.241426 0
M  V30 4300 C 387.033 -1.97986 -0.385295 0
M  V30 4301 C 387.346 -1.13267 -1.59468 0
M  V30 4302 O 388.552 -1.45501 -2.2922 0
M  V30 4303 C 387.008 -3.52275 -0.736884 0
M  V30 4304 C 386.616 -4.45726 0.450796 0
M  V30 4305 C 388.36 -4.03189 -1.3281 0
M  V30 4306 C 386.267 -5.91352 0.0756662 0
M  V30 4307 H 385.197 -0.739386 -0.147731 0
M  V30 4308 H 387.848 -1.80308 0.340779 0
M  V30 4309 H 386.23 -3.65628 -1.52094 0
M  V30 4310 H 387.404 -4.44131 1.22819 0
M  V30 4311 H 385.719 -4.05264 0.956573 0
M  V30 4312 H 388.316 -5.09505 -1.62201 0
M  V30 4313 H 388.659 -3.50212 -2.25071 0
M  V30 4314 H 389.192 -3.93141 -0.607069 0
M  V30 4315 H 385.931 -6.48354 0.965272 0
M  V30 4316 H 385.451 -5.96095 -0.665635 0
M  V30 4317 H 387.13 -6.46084 -0.344075 0
M  V30 4318 N 387.262 0.0317525 -1.57568 0
M  V30 4319 C 388.509 0.723104 -1.89149 0
M  V30 4320 C 388.837 1.75504 -0.838377 0
M  V30 4321 O 388.092 1.95037 0.160982 0
M  V30 4322 C 388.391 1.43167 -3.27472 0
M  V30 4323 C 388.057 0.535972 -4.47703 0
M  V30 4324 C 386.719 0.289262 -4.8033 0
M  V30 4325 C 389.071 -0.0826125 -5.21135 0
M  V30 4326 C 386.399 -0.584853 -5.83778 0
M  V30 4327 C 388.751 -0.944414 -6.25511 0
M  V30 4328 C 387.415 -1.20061 -6.56614 0
M  V30 4329 H 386.685 0.264602 -0.692146 0
M  V30 4330 H 389.332 -0.0169496 -1.91492 0
M  V30 4331 H 387.637 2.24497 -3.21105 0
M  V30 4332 H 389.334 1.97209 -3.49155 0
M  V30 4333 H 385.924 0.738414 -4.22191 0
M  V30 4334 H 390.108 0.0950302 -4.96209 0
M  V30 4335 H 385.364 -0.79168 -6.06253 0
M  V30 4336 H 389.538 -1.43026 -6.81554 0
M  V30 4337 H 387.165 -1.87967 -7.36595 0
M  V30 4338 N 388.74 1.54641 0.303973 0
M  V30 4339 C 389.965 1.78092 1.06292 0
M  V30 4340 C 390.39 0.537342 1.80262 0
M  V30 4341 O 389.748 -0.511993 1.7392 0
M  V30 4342 C 389.796 2.98612 2.02147 0
M  V30 4343 O 388.9 2.71528 3.10397 0
M  V30 4344 H 388.241 0.589548 0.305497 0
M  V30 4345 H 390.771 2.01716 0.3423 0
M  V30 4346 H 390.781 3.265 2.44667 0
M  V30 4347 H 389.456 3.88785 1.47714 0
M  V30 4348 H 388.033 2.54648 2.72413 0
M  V30 4349 N 390.218 -0.567019 1.47046 0
M  V30 4350 C 391.181 -1.65696 1.58359 0
M  V30 4351 C 392.181 -1.54097 0.459441 0
M  V30 4352 O 393.371 -1.58432 0.724225 0
M  V30 4353 C 390.503 -3.05197 1.51879 0
M  V30 4354 H 391.696 -1.57019 2.5551 0
M  V30 4355 H 389.249 -0.786148 1.3509 0
M  V30 4356 H 389.984 -3.19417 0.560673 0
M  V30 4357 H 389.769 -3.15025 2.33455 0
M  V30 4358 H 391.259 -3.84511 1.62913 0
M  V30 4359 N 391.696 -1.35014 -0.812953 0
M  V30 4360 C 392.659 -1.27292 -1.90602 0
M  V30 4361 C 393.659 -0.185817 -1.59723 0
M  V30 4362 O 394.849 -0.439102 -1.68575 0
M  V30 4363 C 391.981 -0.967676 -3.26877 0
M  V30 4364 H 393.174 -2.24479 -1.9887 0
M  V30 4365 H 390.727 -1.19446 -1.00808 0
M  V30 4366 H 391.462 0.0005954 -3.243 0
M  V30 4367 H 391.247 -1.75412 -3.50675 0
M  V30 4368 H 392.737 -0.939085 -4.06904 0
M  V30 4369 N 393.175 1.03435 -1.18907 0
M  V30 4370 C 394.424 1.76143 -0.982669 0
M  V30 4371 C 394.737 1.89416 0.487953 0
M  V30 4372 O 395.943 2.59041 0.813036 0
M  V30 4373 C 394.399 3.16722 -1.70924 0
M  V30 4374 C 394.007 3.11522 -3.21959 0
M  V30 4375 C 395.751 3.93764 -1.58588 0
M  V30 4376 C 393.658 4.46999 -3.87228 0
M  V30 4377 H 392.588 0.660292 -0.364047 0
M  V30 4378 H 395.239 1.158 -1.42347 0
M  V30 4379 H 393.621 3.775 -1.19623 0
M  V30 4380 H 394.795 2.60158 -3.80335 0
M  V30 4381 H 393.11 2.47978 -3.34508 0
M  V30 4382 H 395.707 4.93963 -2.04707 0
M  V30 4383 H 396.05 4.12794 -0.539142 0
M  V30 4384 H 396.583 3.39576 -2.07203 0
M  V30 4385 H 393.322 4.33174 -4.91976 0
M  V30 4386 H 392.842 4.98441 -3.33642 0
M  V30 4387 H 394.521 5.15898 -3.90459 0
M  V30 4388 N 394.653 0.992116 1.22453 0
M  V30 4389 C 395.603 0.512969 2.22155 0
M  V30 4390 C 396.587 -0.418416 1.55364 0
M  V30 4391 O 397.779 -0.245363 1.75291 0
M  V30 4392 C 394.908 -0.171822 3.4287 0
M  V30 4393 C 393.994 0.779822 4.16869 0
M  V30 4394 N 394.385 1.92734 4.6764 0
M  V30 4395 C 392.683 0.59554 4.42006 0
M  V30 4396 C 393.384 2.52458 5.24061 0
M  V30 4397 N 392.36 1.80735 5.12675 0
M  V30 4398 H 396.162 1.38817 2.5905 0
M  V30 4399 H 393.676 0.854277 1.38115 0
M  V30 4400 H 395.673 -0.532469 4.13486 0
M  V30 4401 H 394.333 -1.04317 3.07487 0
M  V30 4402 H 395.344 2.30816 4.63621 0
M  V30 4403 H 392.021 -0.229805 4.16867 0
M  V30 4404 H 393.411 3.49433 5.73887 0
M  V30 4405 N 396.131 -1.37776 0.765217 0
M  V30 4406 C 397.408 -1.93975 0.251596 0
M  V30 4407 C 397.788 -1.69949 -1.25222 0
M  V30 4408 O 397.136 -1.04457 -2.03226 0
M  V30 4409 C 397.346 -3.43487 0.617895 0
M  V30 4410 C 398.694 -4.20564 0.584029 0
M  V30 4411 O 399.718 -3.5182 0.556888 0
M  V30 4412 O 398.577 -5.43138 0.605291 0
M  V30 4413 H 395.671 -0.82509 0.0561806 0
M  V30 4414 H 398.217 -1.47101 0.846128 0
M  V30 4415 H 396.989 -3.5453 1.65602 0
M  V30 4416 H 396.612 -3.976 -0.00403411 0
M  V30 4417 N 397.609 -0.515225 -1.4894 0
M  V30 4418 C 398.839 0.0205735 -2.0659 0
M  V30 4419 C 399.247 1.30064 -1.37405 0
M  V30 4420 O 398.59 1.78087 -0.450632 0
M  V30 4421 C 398.652 0.330124 -3.57981 0
M  V30 4422 C 398.316 -0.854295 -4.48944 0
M  V30 4423 C 399.313 -1.7487 -4.89609 0
M  V30 4424 C 396.998 -1.05712 -4.9105 0
M  V30 4425 C 398.992 -2.82996 -5.71132 0
M  V30 4426 C 396.679 -2.14154 -5.72347 0
M  V30 4427 C 397.677 -3.0263 -6.12294 0
M  V30 4428 O 397.365 -4.09198 -6.91962 0
M  V30 4429 H 397.097 -0.0236833 -0.675585 0
M  V30 4430 H 399.651 -0.715956 -1.92518 0
M  V30 4431 H 397.881 1.12044 -3.70112 0
M  V30 4432 H 399.57 0.806233 -3.97812 0
M  V30 4433 H 400.336 -1.60388 -4.57712 0
M  V30 4434 H 396.215 -0.377788 -4.59449 0
M  V30 4435 H 399.759 -3.52083 -6.02232 0
M  V30 4436 H 395.656 -2.28626 -6.03656 0
M  V30 4437 H 396.424 -4.06726 -7.10293 0
M  V30 4438 N 399.087 1.5561 -0.249682 0
M  V30 4439 C 399.997 2.25143 0.659375 0
M  V30 4440 C 401.013 1.2685 1.19101 0
M  V30 4441 O 402.189 1.59732 1.22669 0
M  V30 4442 C 399.254 2.93945 1.8384 0
M  V30 4443 C 398.315 4.07655 1.34596 0
M  V30 4444 C 397.548 4.73167 2.46878 0
M  V30 4445 O 397.771 4.37768 3.65671 0
M  V30 4446 O 396.705 5.61623 2.16478 0
M  V30 4447 H 400.531 3.03545 0.0968698 0
M  V30 4448 H 398.116 1.49389 -0.018074 0
M  V30 4449 H 399.998 3.37271 2.52638 0
M  V30 4450 H 398.673 2.18481 2.38847 0
M  V30 4451 H 397.58 3.68839 0.625174 0
M  V30 4452 H 398.913 4.84946 0.841941 0
M  V30 4453 N 400.565 -0.0233959 1.57583 0
M  V30 4454 C 401.515 -1.03023 2.03397 0
M  V30 4455 C 402.499 -1.31701 0.924315 0
M  V30 4456 O 403.691 -1.31191 1.18819 0
M  V30 4457 C 400.82 -2.32961 2.52159 0
M  V30 4458 C 399.906 -2.07349 3.69956 0
M  V30 4459 N 400.297 -1.51814 4.82479 0
M  V30 4460 C 398.595 -2.37606 3.77438 0
M  V30 4461 C 399.296 -1.42136 5.64068 0
M  V30 4462 N 398.272 -1.89891 5.09355 0
M  V30 4463 H 402.074 -0.594962 2.87815 0
M  V30 4464 H 399.588 -0.229586 1.60769 0
M  V30 4465 H 401.585 -3.05906 2.83244 0
M  V30 4466 H 400.245 -2.77162 1.69149 0
M  V30 4467 H 401.256 -1.20008 5.03804 0
M  V30 4468 H 397.933 -2.84842 3.05239 0
M  V30 4469 H 399.323 -0.996405 6.64471 0
M  V30 4470 N 402.043 -1.548 -0.295768 0
M  V30 4471 C 403.271 -1.78327 -1.04914 0
M  V30 4472 C 403.686 -0.545316 -1.80753 0
M  V30 4473 O 403.043 0.485013 -1.75937 0
M  V30 4474 C 403.094 -2.99418 -2.02561 0
M  V30 4475 O 402.815 -4.18431 -1.29798 0
M  V30 4476 C 404.316 -3.35375 -2.89895 0
M  V30 4477 H 401.536 -0.594618 -0.310918 0
M  V30 4478 H 404.08 -2.01763 -0.333454 0
M  V30 4479 H 402.235 -2.78175 -2.69624 0
M  V30 4480 H 402.649 -4.86736 -1.95419 0
M  V30 4481 H 404.123 -4.23332 -3.54251 0
M  V30 4482 H 404.6 -2.53761 -3.58472 0
M  V30 4483 H 405.206 -3.58796 -2.28355 0
M  V30 4484 N 403.521 0.559213 -1.47345 0
M  V30 4485 C 404.769 1.31388 -1.53563 0
M  V30 4486 C 405.09 1.93985 -0.198678 0
M  V30 4487 O 404.36 1.79825 0.777167 0
M  V30 4488 H 402.94 0.487901 -0.565652 0
M  V30 4489 H 405.602 0.65315 -1.8363 0
M  V30 4490 H 404.698 2.10844 -2.30111 0
M  V30 4491 N 404.999 1.35443 0.805782 0
M  V30 4492 C 406.227 1.31878 1.59423 0
M  V30 4493 C 406.642 -0.103562 1.88516 0
M  V30 4494 O 405.999 -1.05575 1.48863 0
M  V30 4495 C 406.05 2.12426 2.92502 0
M  V30 4496 O 405.771 3.49115 2.6467 0
M  V30 4497 C 407.272 2.16455 3.86862 0
M  V30 4498 H 404.492 0.453002 0.495005 0
M  V30 4499 H 407.036 1.78309 1.00131 0
M  V30 4500 H 405.191 1.69593 3.48306 0
M  V30 4501 H 405.605 3.90957 3.49647 0
M  V30 4502 H 407.079 2.77204 4.77349 0
M  V30 4503 H 407.556 1.16352 4.23508 0
M  V30 4504 H 408.162 2.59453 3.36993 0
M  V30 4505 N 406.477 -1.02803 1.19454 0
M  V30 4506 C 407.705 -1.79841 1.02297 0
M  V30 4507 C 408.12 -1.83879 -0.428259 0
M  V30 4508 O 407.477 -1.28345 -1.29745 0
M  V30 4509 C 407.528 -3.24852 1.58598 0
M  V30 4510 O 407.249 -3.21097 2.98041 0
M  V30 4511 C 408.75 -4.18485 1.46236 0
M  V30 4512 H 405.97 -0.565936 0.360496 0
M  V30 4513 H 408.514 -1.2948 1.58288 0
M  V30 4514 H 406.669 -3.72401 1.06753 0
M  V30 4515 H 407.083 -4.12033 3.24545 0
M  V30 4516 H 408.557 -5.18121 1.90407 0
M  V30 4517 H 409.034 -4.37254 0.41301 0
M  V30 4518 H 409.64 -3.76811 1.97215 0
M  V30 4519 N 407.956 -0.998596 -1.21925 0
M  V30 4520 C 408.904 -0.546641 -2.26085 0
M  V30 4521 C 409.898 0.405576 -1.64473 0
M  V30 4522 O 411.104 0.277471 -1.77849 0
M  V30 4523 H 407.479 -0.158403 -0.735127 0
M  V30 4524 H 409.45 -1.43645 -2.61551 0
M  V30 4525 C 408.199 0.117388 -3.47502 0
M  V30 4526 H 407.522 -0.606277 -3.95176 0
M  V30 4527 H 408.962 0.396993 -4.22137 0
M  V30 4528 C 407.421 1.35455 -3.0847 0
M  V30 4529 O 407.951 2.44944 -3.18379 0
M  V30 4530 N 406.157 1.23191 -2.63196 0
M  V30 4531 H 405.704 0.341006 -2.55333 0
M  V30 4532 H 405.662 2.06071 -2.37449 0
M  V30 4533 N 409.434 1.37368 -0.772513 0
M  V30 4534 C 410.382 2.32134 -0.147111 0
M  V30 4535 C 411.376 1.54972 0.684106 0
M  V30 4536 O 412.582 1.70363 0.581083 0
M  V30 4537 H 408.957 0.751449 -0.028786 0
M  V30 4538 H 410.928 2.82464 -0.962112 0
M  V30 4539 C 409.677 3.40226 0.71703 0
M  V30 4540 H 409 3.99706 0.0867951 0
M  V30 4541 H 410.44 4.08897 1.12159 0
M  V30 4542 C 408.899 2.80372 1.86797 0
M  V30 4543 O 409.429 2.71183 2.96349 0
M  V30 4544 N 407.635 2.37904 1.66883 0
M  V30 4545 H 407.182 2.45578 0.777759 0
M  V30 4546 H 407.14 1.98202 2.44056 0
M  V30 4547 N 410.912 0.523116 1.48665 0
M  V30 4548 C 412.159 -0.0134763 2.02496 0
M  V30 4549 C 412.487 -1.3493 1.40086 0
M  V30 4550 O 411.742 -1.88286 0.533567 0
M  V30 4551 C 412.041 -0.191671 3.56886 0
M  V30 4552 C 411.707 1.06893 4.38046 0
M  V30 4553 C 410.369 1.41443 4.59943 0
M  V30 4554 C 412.721 1.90584 4.85106 0
M  V30 4555 C 410.049 2.59594 5.26144 0
M  V30 4556 C 412.401 3.07907 5.52609 0
M  V30 4557 C 411.065 3.42811 5.72745 0
M  V30 4558 H 410.335 -0.00493133 0.740984 0
M  V30 4559 H 412.982 0.687751 1.78724 0
M  V30 4560 H 411.287 -0.97561 3.79459 0
M  V30 4561 H 412.984 -0.621659 3.96152 0
M  V30 4562 H 409.574 0.789848 4.21259 0
M  V30 4563 H 413.758 1.65203 4.67997 0
M  V30 4564 H 409.014 2.86847 5.39934 0
M  V30 4565 H 413.188 3.73066 5.88043 0
M  V30 4566 H 410.815 4.34462 6.23816 0
M  V30 4567 N 412.39 -1.55475 0.257931 0
M  V30 4568 C 413.34 -2.18506 -0.651094 0
M  V30 4569 C 414.324 -1.14431 -1.13112 0
M  V30 4570 O 415.516 -1.40305 -1.07905 0
M  V30 4571 C 412.645 -2.89653 -1.84272 0
M  V30 4572 C 411.731 -4.00996 -1.38068 0
M  V30 4573 N 412.122 -5.01816 -0.633609 0
M  V30 4574 C 410.42 -4.13753 -1.66506 0
M  V30 4575 C 411.121 -5.80371 -0.392922 0
M  V30 4576 N 410.097 -5.3505 -0.960359 0
M  V30 4577 H 413.899 -2.93811 -0.0722883 0
M  V30 4578 H 411.413 -1.62286 0.0607256 0
M  V30 4579 H 413.41 -3.33245 -2.50506 0
M  V30 4580 H 412.07 -2.15854 -2.42564 0
M  V30 4581 H 413.081 -5.17128 -0.282626 0
M  V30 4582 H 409.758 -3.51133 -2.25858 0
M  V30 4583 H 411.148 -6.7159 0.204235 0
M  V30 4584 N 413.868 0.0150385 -1.57593 0
M  V30 4585 C 415.117 0.702115 -1.89085 0
M  V30 4586 C 415.43 1.75764 -0.858277 0
M  V30 4587 O 416.636 2.49829 -1.0629 0
M  V30 4588 C 415.092 1.29992 -3.35604 0
M  V30 4589 C 414.7 0.280007 -4.47124 0
M  V30 4590 C 416.444 1.96606 -3.76227 0
M  V30 4591 C 414.351 0.886949 -5.84711 0
M  V30 4592 H 413.281 0.265997 -0.705522 0
M  V30 4593 H 415.932 -0.0430408 -1.8345 0
M  V30 4594 H 414.314 2.09525 -3.36029 0
M  V30 4595 H 415.488 -0.489631 -4.58191 0
M  V30 4596 H 413.803 -0.284835 -4.15425 0
M  V30 4597 H 416.4 2.42893 -4.76347 0
M  V30 4598 H 416.743 2.79024 -3.08952 0
M  V30 4599 H 417.276 1.23828 -3.78036 0
M  V30 4600 H 414.015 0.101876 -6.55421 0
M  V30 4601 H 413.535 1.6261 -5.77337 0
M  V30 4602 H 415.214 1.39011 -6.3189 0
M  V30 4603 N 415.346 1.54954 0.287554 0
M  V30 4604 C 416.278 1.83224 1.37701 0
M  V30 4605 C 417.291 0.715898 1.46215 0
M  V30 4606 O 418.48 0.993565 1.48292 0
M  V30 4607 C 415.58 1.96723 2.75959 0
M  V30 4608 C 414.753 3.27253 2.90215 0
M  V30 4609 C 413.812 3.30998 4.09056 0
M  V30 4610 O 412.838 4.04457 4.00503 0
M  V30 4611 N 414.04 2.57353 5.20336 0
M  V30 4612 H 416.805 2.77254 1.138 0
M  V30 4613 H 414.366 1.54694 0.477652 0
M  V30 4614 H 416.358 1.96615 3.5373 0
M  V30 4615 H 414.928 1.09626 2.92747 0
M  V30 4616 H 414.148 3.40022 1.99447 0
M  V30 4617 H 415.436 4.13365 2.96659 0
M  V30 4618 H 414.834 1.97327 5.30169 0
M  V30 4619 H 413.391 2.62984 5.96391 0
M  V30 4620 N 416.824 -0.551391 1.4764 0
M  V30 4621 C 418.052 -1.33357 1.58189 0
M  V30 4622 C 418.467 -1.87342 0.234199 0
M  V30 4623 O 417.824 -1.65301 -0.77343 0
M  V30 4624 C 417.875 -2.49942 2.61173 0
M  V30 4625 O 417.596 -1.98187 3.90709 0
M  V30 4626 C 419.097 -3.42072 2.8196 0
M  V30 4627 H 416.317 -0.40631 0.533998 0
M  V30 4628 H 418.861 -0.667367 1.93304 0
M  V30 4629 H 417.016 -3.12489 2.28975 0
M  V30 4630 H 417.43 -2.74342 4.47031 0
M  V30 4631 H 418.904 -4.20278 3.57869 0
M  V30 4632 H 419.381 -3.95978 1.89995 0
M  V30 4633 H 419.987 -2.85336 3.15378 0
M  V30 4634 N 418.302 -1.35869 -0.798587 0
M  V30 4635 C 419.718 -1.16082 -1.09532 0
M  V30 4636 C 419.918 0.0213124 -2.01489 0
M  V30 4637 O 418.974 0.689488 -2.42904 0
M  V30 4638 C 420.287 -2.46748 -1.7186 0
M  V30 4639 C 421.835 -2.53028 -1.84244 0
M  V30 4640 C 422.31 -3.83758 -2.49988 0
M  V30 4641 N 423.801 -3.85053 -2.57465 0
M  V30 4642 C 424.536 -4.8294 -3.09122 0
M  V30 4643 N 424.032 -5.91217 -3.61157 0
M  V30 4644 N 425.825 -4.70369 -3.0775 0
M  V30 4645 H 417.976 -2.11571 -0.187461 0
M  V30 4646 H 420.239 -0.936726 -0.145765 0
M  V30 4647 H 419.945 -3.33471 -1.11759 0
M  V30 4648 H 419.819 -2.61883 -2.71472 0
M  V30 4649 H 422.206 -1.66729 -2.43486 0
M  V30 4650 H 422.287 -2.418 -0.834643 0
M  V30 4651 H 421.931 -4.70459 -1.91393 0
M  V30 4652 H 421.861 -3.92278 -3.5132 0
M  V30 4653 H 424.352 -3.06822 -2.20609 0
M  V30 4654 H 424.665 -6.61892 -3.98896 0
M  V30 4655 H 423.01 -5.94899 -3.59333 0
M  V30 4656 H 426.201 -3.84914 -2.66381 0
M  V30 4657 H 426.374 -5.46816 -3.47701 0
M  V30 4658 N 419.78 1.02168 -1.19998 0
M  V30 4659 C 421.005 1.79833 -1.03319 0
M  V30 4660 C 421.43 1.83504 0.413281 0
M  V30 4661 O 420.788 1.26635 1.29743 0
M  V30 4662 C 420.836 3.22396 -1.61533 0
M  V30 4663 O 419.94 4.03555 -0.849519 0
M  V30 4664 H 419.281 0.554872 -0.364709 0
M  V30 4665 H 421.811 1.28542 -1.59179 0
M  V30 4666 H 421.821 3.73124 -1.65054 0
M  V30 4667 H 420.496 3.19039 -2.66809 0
M  V30 4668 H 419.073 3.62169 -0.888129 0
M  V30 4669 N 421.258 1.00505 1.21394 0
M  V30 4670 C 422.535 0.603277 1.86064 0
M  V30 4671 C 422.915 -0.919095 1.90042 0
M  V30 4672 O 422.263 -1.80607 1.39977 0
M  V30 4673 C 422.473 1.23772 3.26315 0
M  V30 4674 C 423.821 1.34586 4.02705 0
M  V30 4675 O 424.845 1.19304 3.35626 0
M  V30 4676 O 423.704 1.59169 5.22807 0
M  V30 4677 H 420.798 0.206634 0.800769 0
M  V30 4678 H 423.344 1.1017 1.29076 0
M  V30 4679 H 422.116 2.27848 3.18121 0
M  V30 4680 H 421.739 0.725648 3.90922 0
M  V30 4681 N 422.737 -1.36956 0.779787 0
M  V30 4682 C 424.148 -1.82094 0.412156 0
M  V30 4683 C 424.499 -1.64926 -1.06273 0
M  V30 4684 O 423.624 -1.16483 -1.82375 0
M  V30 4685 C 424.219 -3.3059 0.741319 0
M  V30 4686 C 422.778 -3.73974 0.426641 0
M  V30 4687 C 421.925 -2.59368 0.980987 0
M  V30 4688 H 424.876 -1.25314 0.973758 0
M  V30 4689 H 424.897 -3.80489 0.028887 0
M  V30 4690 H 424.409 -3.43054 1.81482 0
M  V30 4691 H 422.51 -3.67076 -0.639215 0
M  V30 4692 H 422.623 -4.69778 0.940515 0
M  V30 4693 H 420.987 -2.51463 0.404757 0
M  V30 4694 H 421.77 -2.74621 2.06005 0
M  V30 4695 N 424.215 -0.530993 -1.48385 0
M  V30 4696 C 425.178 0.220497 -2.28137 0
M  V30 4697 C 426.178 0.866851 -1.35434 0
M  V30 4698 O 427.368 0.726746 -1.58316 0
M  V30 4699 C 424.5 1.31921 -3.1434 0
M  V30 4700 H 425.693 -0.479714 -2.96038 0
M  V30 4701 H 423.246 -0.286968 -1.53643 0
M  V30 4702 H 423.981 2.05264 -2.51072 0
M  V30 4703 H 423.766 0.86085 -3.82533 0
M  V30 4704 H 425.256 1.84776 -3.74497 0
M  V30 4705 N 425.693 1.55336 -0.266172 0
M  V30 4706 C 426.942 1.98574 0.353749 0
M  V30 4707 C 427.255 1.15789 1.57646 0
M  V30 4708 O 428.461 1.49129 2.26876 0
M  V30 4709 C 426.917 3.53403 0.680747 0
M  V30 4710 C 426.525 4.44953 -0.52165 0
M  V30 4711 C 428.269 4.05251 1.26379 0
M  V30 4712 C 426.176 5.91156 -0.169736 0
M  V30 4713 H 425.106 0.741643 0.135949 0
M  V30 4714 H 427.757 1.79743 -0.369421 0
M  V30 4715 H 426.139 3.68001 1.46257 0
M  V30 4716 H 427.313 4.42121 -1.29869 0
M  V30 4717 H 425.628 4.03691 -1.02093 0
M  V30 4718 H 428.225 5.12021 1.54074 0
M  V30 4719 H 428.568 3.53749 2.19471 0
M  V30 4720 H 429.101 3.94057 0.544447 0
M  V30 4721 H 425.84 6.46736 -1.0683 0
M  V30 4722 H 425.36 5.97079 0.570717 0
M  V30 4723 H 427.039 6.4655 0.241245 0
M  V30 4724 N 427.171 -0.0066808 1.57599 0
M  V30 4725 C 428.101 -0.999296 2.11036 0
M  V30 4726 C 429.082 -1.36278 1.01795 0
M  V30 4727 O 430.267 -1.4477 1.29442 0
M  V30 4728 C 427.397 -2.29328 2.60818 0
M  V30 4729 C 426.351 -2.07159 3.74525 0
M  V30 4730 C 425.677 -3.42512 4.10596 0
M  V30 4731 C 426.977 -1.43959 5.02069 0
M  V30 4732 H 428.671 -0.554382 2.94223 0
M  V30 4733 H 426.217 -0.265221 1.41536 0
M  V30 4734 H 428.17 -2.99117 2.96828 0
M  V30 4735 H 426.894 -2.7592 1.74745 0
M  V30 4736 H 425.553 -1.39797 3.38899 0
M  V30 4737 H 425.201 -3.86795 3.21556 0
M  V30 4738 H 424.901 -3.28498 4.87199 0
M  V30 4739 H 426.425 -4.13628 4.4916 0
M  V30 4740 H 427.839 -2.03696 5.35893 0
M  V30 4741 H 426.236 -1.40452 5.83432 0
M  V30 4742 H 427.306 -0.407992 4.83181 0
M  V30 4743 N 428.649 -1.55105 -0.279332 0
M  V30 4744 C 429.879 -1.7917 -1.02867 0
M  V30 4745 C 430.287 -0.56204 -1.80659 0
M  V30 4746 O 429.63 0.478266 -1.77365 0
M  V30 4747 C 429.692 -2.96061 -2.03932 0
M  V30 4748 C 429.356 -4.33341 -1.45137 0
M  V30 4749 C 430.353 -5.12565 -0.870266 0
M  V30 4750 C 428.038 -4.79987 -1.48048 0
M  V30 4751 C 430.032 -6.36565 -0.326097 0
M  V30 4752 C 427.719 -6.03944 -0.932443 0
M  V30 4753 C 428.717 -6.8207 -0.356247 0
M  V30 4754 O 428.405 -8.03691 0.183412 0
M  V30 4755 H 428.137 -0.600796 -0.309872 0
M  V30 4756 H 430.691 -2.02932 -0.317468 0
M  V30 4757 H 428.921 -2.67975 -2.78794 0
M  V30 4758 H 430.61 -3.07506 -2.64943 0
M  V30 4759 H 431.376 -4.77661 -0.840521 0
M  V30 4760 H 427.255 -4.1919 -1.91835 0
M  V30 4761 H 430.799 -6.97489 0.124286 0
M  V30 4762 H 426.696 -6.3833 -0.959407 0
M  V30 4763 H 427.464 -8.18468 0.0721681 0
M  V30 4764 N 430.127 0.543554 -1.4793 0
M  V30 4765 C 431.075 1.67039 -1.61866 0
M  V30 4766 C 432.069 1.62294 -0.48549 0
M  V30 4767 O 433.275 1.67315 -0.66376 0
M  V30 4768 H 429.65 0.552954 -0.509652 0
M  V30 4769 H 431.621 1.52426 -2.56533 0
M  V30 4770 C 430.37 3.05357 -1.6629 0
M  V30 4771 H 429.693 3.09696 -2.5284 0
M  V30 4772 H 431.133 3.83855 -1.80088 0
M  V30 4773 C 429.592 3.34531 -0.398861 0
M  V30 4774 O 430.122 3.98649 0.494162 0
M  V30 4775 N 428.328 2.89299 -0.2747 0
M  V30 4776 H 427.875 2.37298 -1.00236 0
M  V30 4777 H 427.833 3.09188 0.570075 0
M  V30 4778 N 431.605 1.3629 0.791371 0
M  V30 4779 C 432.882 1.20962 1.53712 0
M  V30 4780 C 433.262 -0.205021 2.10102 0
M  V30 4781 O 432.61 -1.21042 1.93807 0
M  V30 4782 C 432.82 2.29002 2.63361 0
M  V30 4783 C 434.168 2.65572 3.31295 0
M  V30 4784 O 435.192 2.2803 2.73643 0
M  V30 4785 O 434.051 3.3018 4.35481 0
M  V30 4786 H 431.145 0.47086 0.679867 0
M  V30 4787 H 433.691 1.48016 0.830021 0
M  V30 4788 H 432.463 3.2382 2.19674 0
M  V30 4789 H 432.086 2.03303 3.41692 0
M  V30 4790 N 433.083 -1.0153 1.20538 0
M  V30 4791 C 434.499 -1.27461 0.96051 0
M  V30 4792 C 434.699 -1.98273 -0.359193 0
M  V30 4793 O 433.755 -2.27886 -1.0874 0
M  V30 4794 C 435.068 -2.10837 2.14402 0
M  V30 4795 C 436.616 -2.24099 2.18515 0
M  V30 4796 C 437.091 -3.10852 3.36355 0
M  V30 4797 N 438.582 -3.18441 3.36377 0
M  V30 4798 C 439.317 -3.85795 4.24205 0
M  V30 4799 N 438.813 -4.55264 5.22213 0
M  V30 4800 N 440.606 -3.82331 4.12043 0
M  V30 4801 H 432.757 -0.539907 2.05423 0
M  V30 4802 H 435.02 -0.30092 0.898972 0
M  V30 4803 H 434.726 -1.66144 3.09983 0
M  V30 4804 H 434.6 -3.11576 2.12604 0
M  V30 4805 H 436.987 -2.68016 1.23497 0
M  V30 4806 H 437.068 -1.22865 2.24361 0
M  V30 4807 H 436.712 -2.6764 4.31661 0
M  V30 4808 H 436.642 -4.12177 3.27746 0
M  V30 4809 H 439.133 -2.68978 2.65442 0
M  V30 4810 H 439.446 -5.04331 5.85551 0
M  V30 4811 H 437.791 -4.54085 5.26148 0
M  V30 4812 H 440.982 -3.27207 3.34743 0
M  V30 4813 H 441.155 -4.34547 4.807 0
M  V30 4814 N 434.561 -1.01147 -1.20859 0
M  V30 4815 C 435.786 -0.716698 -1.94623 0
M  V30 4816 C 436.211 0.715415 -1.73964 0
M  V30 4817 O 435.569 1.49157 -1.03062 0
M  V30 4818 C 435.617 -1.0513 -3.44935 0
M  V30 4819 O 434.721 -0.160131 -4.12089 0
M  V30 4820 H 434.062 -0.266404 -0.608214 0
M  V30 4821 H 436.592 -1.35346 -1.53436 0
M  V30 4822 H 436.602 -1.00086 -3.95533 0
M  V30 4823 H 435.277 -2.09475 -3.59295 0
M  V30 4824 H 433.854 -0.267657 -3.71938 0
M  V30 4825 N 436.039 1.36541 -0.78704 0
M  V30 4826 C 437.285 1.99599 -0.358872 0
M  V30 4827 C 437.618 1.62323 1.06606 0
M  V30 4828 O 436.893 0.876858 1.73613 0
M  V30 4829 C 437.176 3.56327 -0.519944 0
M  V30 4830 C 437.029 4.03464 -1.98839 0
M  V30 4831 C 438.348 4.4005 0.0664737 0
M  V30 4832 H 435.467 0.725107 -0.131869 0
M  V30 4833 H 438.109 1.6199 -0.992936 0
M  V30 4834 H 436.259 3.88495 0.0198321 0
M  V30 4835 H 437.931 3.81793 -2.58905 0
M  V30 4836 H 436.174 3.55092 -2.49183 0
M  V30 4837 H 436.845 5.12439 -2.05207 0
M  V30 4838 H 439.321 4.14228 -0.394267 0
M  V30 4839 H 438.197 5.48847 -0.0762682 0
M  V30 4840 H 438.458 4.26655 1.15835 0
M  V30 4841 N 437.518 0.538854 1.48102 0
M  V30 4842 C 438.448 -0.207654 2.32575 0
M  V30 4843 C 439.429 -0.926559 1.4265 0
M  V30 4844 O 440.614 -0.91061 1.71527 0
M  V30 4845 C 437.744 -1.24957 3.24042 0
M  V30 4846 C 436.698 -0.648263 4.23062 0
M  V30 4847 C 436.024 -1.79348 5.03725 0
M  V30 4848 C 437.324 0.385897 5.20872 0
M  V30 4849 H 439.018 0.497534 2.95237 0
M  V30 4850 H 436.564 0.240715 1.41974 0
M  V30 4851 H 438.517 -1.77983 3.81969 0
M  V30 4852 H 437.241 -1.98446 2.59397 0
M  V30 4853 H 435.9 -0.139452 3.66335 0
M  V30 4854 H 435.548 -2.51696 4.35498 0
M  V30 4855 H 435.248 -1.39702 5.70751 0
M  V30 4856 H 436.772 -2.32735 5.64506 0
M  V30 4857 H 438.186 -0.057607 5.73271 0
M  V30 4858 H 436.583 0.700227 5.96001 0
M  V30 4859 H 437.653 1.28848 4.67468 0
M  V30 4860 N 438.996 -1.55193 0.274407 0
M  V30 4861 C 439.906 -2.26164 -0.623473 0
M  V30 4862 C 440.922 -1.28729 -1.17068 0
M  V30 4863 O 442.098 -1.61663 -1.20112 0
M  V30 4864 C 439.163 -2.96833 -1.7914 0
M  V30 4865 C 438.224 -4.09745 -1.28093 0
M  V30 4866 C 437.457 -4.77034 -2.3932 0
M  V30 4867 O 437.68 -4.4353 -3.5866 0
M  V30 4868 O 436.614 -5.64996 -2.07516 0
M  V30 4869 H 440.44 -3.03661 -0.0485661 0
M  V30 4870 H 438.025 -1.49341 0.0418382 0
M  V30 4871 H 439.907 -3.41248 -2.4724 0
M  V30 4872 H 438.582 -2.22253 -2.35341 0
M  V30 4873 H 437.489 -3.69787 -0.566416 0
M  V30 4874 H 438.822 -4.86224 -0.764683 0
M  V30 4875 N 440.474 -0.00167713 -1.576 0
M  V30 4876 C 441.422 1.0074 -2.09652 0
M  V30 4877 C 442.416 1.35483 -1.01689 0
M  V30 4878 O 443.622 1.34028 -1.20152 0
M  V30 4879 H 439.997 0.342537 -0.669457 0
M  V30 4880 H 441.968 0.542841 -2.93421 0
M  V30 4881 C 440.717 2.2899 -2.61647 0
M  V30 4882 H 440.04 2.03124 -3.44355 0
M  V30 4883 H 441.48 2.9787 -3.01744 0
M  V30 4884 C 439.939 3.00085 -1.53136 0
M  V30 4885 O 440.469 3.91135 -0.91524 0
M  V30 4886 N 438.675 2.6194 -1.25841 0
M  V30 4887 H 438.222 1.8798 -1.76129 0
M  V30 4888 H 438.18 3.09822 -0.534576 0
M  V30 4889 N 441.952 1.55251 0.271103 0
M  V30 4890 C 442.902 1.84649 1.33749 0
M  V30 4891 C 443.886 0.705529 1.44607 0
M  V30 4892 O 445.078 0.966916 1.48256 0
M  V30 4893 C 442.207 2.12354 2.69742 0
M  V30 4894 C 441.293 3.32714 2.62988 0
M  V30 4895 N 441.684 4.52575 2.25853 0
M  V30 4896 C 439.982 3.35341 2.94045 0
M  V30 4897 C 440.683 5.34669 2.29136 0
M  V30 4898 N 439.659 4.73123 2.67685 0
M  V30 4899 H 443.461 2.74865 1.0405 0
M  V30 4900 H 440.975 1.55152 0.479738 0
M  V30 4901 H 442.972 2.31572 3.4667 0
M  V30 4902 H 441.632 1.23422 3.00328 0
M  V30 4903 H 442.643 4.78639 1.978 0
M  V30 4904 H 439.32 2.56608 3.2933 0
M  V30 4905 H 440.71 6.40509 2.02971 0
M  V30 4906 N 443.43 -0.535701 1.48216 0
M  V30 4907 C 444.38 -1.63688 1.58714 0
M  V30 4908 C 445.364 -1.54635 0.444615 0
M  V30 4909 O 446.556 -1.62753 0.695742 0
M  V30 4910 C 443.685 -3.02423 1.62466 0
M  V30 4911 C 442.771 -3.16601 2.82178 0
M  V30 4912 N 443.162 -3.00771 4.06658 0
M  V30 4913 C 441.46 -3.47645 2.79391 0
M  V30 4914 C 442.161 -3.18213 4.86945 0
M  V30 4915 N 441.137 -3.45528 4.19656 0
M  V30 4916 H 444.939 -1.5005 2.5271 0
M  V30 4917 H 442.453 -0.741018 1.44508 0
M  V30 4918 H 444.45 -3.81517 1.6808 0
M  V30 4919 H 443.11 -3.17157 0.695826 0
M  V30 4920 H 444.121 -2.77652 4.37184 0
M  V30 4921 H 440.798 -3.68771 1.95739 0
M  V30 4922 H 442.188 -3.1076 5.95716 0
M  V30 4923 N 444.908 -1.36708 -0.784132 0
M  V30 4924 C 445.838 -1.34153 -1.91116 0
M  V30 4925 C 446.819 -0.212121 -1.68772 0
M  V30 4926 O 448.004 -0.410581 -1.8981 0
M  V30 4927 C 445.134 -1.13535 -3.28218 0
M  V30 4928 C 444.088 -2.23356 -3.65097 0
M  V30 4929 C 443.414 -1.87875 -5.00607 0
M  V30 4930 C 444.714 -3.65473 -3.73131 0
M  V30 4931 H 446.408 -2.28459 -1.93512 0
M  V30 4932 H 443.954 -1.09973 -0.929618 0
M  V30 4933 H 445.907 -1.10381 -4.06687 0
M  V30 4934 H 444.631 -0.156804 -3.26223 0
M  V30 4935 H 443.29 -2.25645 -2.88929 0
M  V30 4936 H 442.938 -0.885814 -4.95139 0
M  V30 4937 H 442.638 -2.61406 -5.26252 0
M  V30 4938 H 444.162 -1.86286 -5.81489 0
M  V30 4939 H 445.576 -3.65382 -4.41779 0
M  V30 4940 H 443.973 -4.37953 -4.10265 0
M  V30 4941 H 445.043 -3.99995 -2.74102 0
M  V30 4942 N 446.386 1.0089 -1.21074 0
M  V30 4943 C 447.611 1.78727 -1.05221 0
M  V30 4944 C 448.036 1.83932 0.393795 0
M  V30 4945 O 447.394 1.28004 1.28393 0
M  V30 4946 C 447.442 3.20665 -1.64944 0
M  V30 4947 O 446.546 4.02632 -0.892273 0
M  V30 4948 H 445.887 0.550973 -0.370574 0
M  V30 4949 H 448.417 1.26847 -1.60534 0
M  V30 4950 H 448.427 3.71352 -1.69002 0
M  V30 4951 H 447.102 3.16191 -2.70177 0
M  V30 4952 H 445.679 3.61207 -0.926492 0
M  V30 4953 N 447.864 1.01787 1.20321 0
M  V30 4954 C 448.827 0.593972 2.2137 0
M  V30 4955 C 449.827 -0.336553 1.57239 0
M  V30 4956 O 451.017 -0.125069 1.7375 0
M  V30 4957 C 448.149 -0.132433 3.40643 0
M  V30 4958 H 449.342 1.48791 2.60387 0
M  V30 4959 H 446.895 0.807803 1.33807 0
M  V30 4960 H 447.63 -1.04123 3.0713 0
M  V30 4961 H 447.415 0.53605 3.88418 0
M  V30 4962 H 448.905 -0.416314 4.1552 0
M  V30 4963 N 449.342 -1.36122 0.79427 0
M  V30 4964 C 450.305 -2.28309 0.201889 0
M  V30 4965 C 451.305 -1.49041 -0.603603 0
M  V30 4966 O 452.495 -1.68964 -0.423888 0
M  V30 4967 C 449.627 -3.3321 -0.719978 0
M  V30 4968 H 450.82 -2.82208 1.01481 0
M  V30 4969 H 448.373 -1.45768 0.564037 0
M  V30 4970 H 449.108 -2.84475 -1.55706 0
M  V30 4971 H 448.893 -3.91835 -0.144266 0
M  V30 4972 H 450.383 -4.02044 -1.12916 0
M  V30 4973 N 450.82 -0.546701 -1.47814 0
M  V30 4974 C 452.05 -0.0232519 -2.06587 0
M  V30 4975 C 452.458 1.2712 -1.40133 0
M  V30 4976 O 451.801 1.77091 -0.488305 0
M  V30 4977 C 451.863 0.254117 -3.58601 0
M  V30 4978 C 451.527 -0.949331 -4.47031 0
M  V30 4979 C 452.524 -1.85216 -4.85789 0
M  V30 4980 C 450.209 -1.16104 -4.88697 0
M  V30 4981 C 452.203 -2.95047 -5.65001 0
M  V30 4982 C 449.89 -2.26247 -5.67676 0
M  V30 4983 C 450.888 -3.1555 -6.05737 0
M  V30 4984 O 450.576 -4.23784 -6.83127 0
M  V30 4985 H 450.308 -0.0380082 -0.674931 0
M  V30 4986 H 452.862 -0.756631 -1.90956 0
M  V30 4987 H 451.092 1.04168 -3.72406 0
M  V30 4988 H 452.781 0.72167 -3.99433 0
M  V30 4989 H 453.547 -1.70061 -4.54207 0
M  V30 4990 H 449.426 -0.475159 -4.58545 0
M  V30 4991 H 452.97 -3.64778 -5.94628 0
M  V30 4992 H 448.867 -2.41379 -5.98671 0
M  V30 4993 H 449.635 -4.21701 -7.01506 0
M  V30 4994 N 452.299 1.55045 -0.282633 0
M  V30 4995 C 453.715 1.59441 0.0712997 0
M  V30 4996 C 453.915 1.2998 1.53972 0
M  V30 4997 O 452.971 1.06431 2.28973 0
M  V30 4998 C 454.284 2.99097 -0.310104 0
M  V30 4999 C 455.832 3.1194 -0.257343 0
M  V30 5000 C 456.307 4.53875 -0.613297 0
M  V30 5001 N 457.798 4.5974 -0.565134 0
M  V30 5002 C 458.533 5.67603 -0.81326 0
M  V30 5003 N 458.029 6.83582 -1.1264 0
M  V30 5004 N 459.822 5.57187 -0.741553 0
M  V30 5005 H 451.973 1.72458 -1.23984 0
M  V30 5006 H 454.236 0.804549 -0.501403 0
M  V30 5007 H 453.942 3.25516 -1.33163 0
M  V30 5008 H 453.816 3.75616 0.345366 0
M  V30 5009 H 456.203 2.85281 0.754905 0
M  V30 5010 H 456.284 2.37618 -0.947178 0
M  V30 5011 H 455.928 4.81261 -1.62327 0
M  V30 5012 H 455.858 5.26508 0.09841 0
M  V30 5013 H 458.349 3.76427 -0.333294 0
M  V30 5014 H 458.662 7.6175 -1.30219 0
M  V30 5015 H 457.007 6.85179 -1.16425 0
M  V30 5016 H 460.198 4.65457 -0.496705 0
M  V30 5017 H 460.371 6.41171 -0.938306 0
M  V30 5018 N 453.777 0.010035 1.57597 0
M  V30 5019 C 454.707 -0.976857 2.12084 0
M  V30 5020 C 455.688 -1.35191 1.03235 0
M  V30 5021 O 456.873 -1.43389 1.3097 0
M  V30 5022 C 454.003 -2.26548 2.63236 0
M  V30 5023 C 452.957 -2.03175 3.76701 0
M  V30 5024 C 452.283 -3.38138 4.14206 0
M  V30 5025 C 453.583 -1.38625 5.03568 0
M  V30 5026 H 455.277 -0.523145 2.94794 0
M  V30 5027 H 452.823 -0.250195 1.4181 0
M  V30 5028 H 454.776 -2.95952 2.99984 0
M  V30 5029 H 453.5 -2.74051 1.77661 0
M  V30 5030 H 452.159 -1.36195 3.40362 0
M  V30 5031 H 451.807 -3.83363 3.25641 0
M  V30 5032 H 451.507 -3.23312 4.90656 0
M  V30 5033 H 453.031 -4.08841 4.53521 0
M  V30 5034 H 454.445 -1.98 5.38023 0
M  V30 5035 H 452.842 -1.34256 5.84889 0
M  V30 5036 H 453.912 -0.356722 4.83586 0
M  V30 5037 N 455.255 -1.55392 -0.262866 0
M  V30 5038 C 456.185 -1.91978 -1.32917 0
M  V30 5039 C 457.166 -0.7828 -1.51017 0
M  V30 5040 O 458.351 -1.04178 -1.63892 0
M  V30 5041 C 455.481 -2.20055 -2.68687 0
M  V30 5042 C 454.435 -3.35854 -2.65304 0
M  V30 5043 C 453.761 -3.49435 -4.04721 0
M  V30 5044 C 455.061 -4.71977 -2.23685 0
M  V30 5045 H 456.755 -2.81292 -1.02544 0
M  V30 5046 H 454.301 -1.3534 -0.491846 0
M  V30 5047 H 456.254 -2.44237 -3.43404 0
M  V30 5048 H 454.978 -1.27551 -3.00663 0
M  V30 5049 H 453.637 -3.11655 -1.93045 0
M  V30 5050 H 453.285 -2.54379 -4.33936 0
M  V30 5051 H 452.985 -4.27297 -4.0335 0
M  V30 5052 H 454.509 -3.7592 -4.81161 0
M  V30 5053 H 455.923 -4.95637 -2.88127 0
M  V30 5054 H 454.32 -5.52828 -2.33456 0
M  V30 5055 H 455.39 -4.70115 -1.18827 0
M  V30 5056 N 456.733 0.527833 -1.48498 0
M  V30 5057 C 457.665 1.6482 -1.5927 0
M  V30 5058 C 458.678 1.55659 -0.476869 0
M  V30 5059 O 459.867 1.62081 -0.747806 0
M  V30 5060 C 456.967 3.0348 -1.50842 0
M  V30 5061 C 456.14 3.381 -2.77502 0
M  V30 5062 C 455.199 4.5605 -2.62497 0
M  V30 5063 O 454.225 4.59165 -3.36387 0
M  V30 5064 N 455.427 5.54353 -1.72257 0
M  V30 5065 H 458.192 1.56015 -2.55889 0
M  V30 5066 H 455.753 0.715152 -1.45249 0
M  V30 5067 H 457.745 3.80264 -1.38496 0
M  V30 5068 H 456.315 3.06352 -0.621887 0
M  V30 5069 H 455.535 2.50473 -3.04396 0
M  V30 5070 H 456.823 3.58017 -3.61527 0
M  V30 5071 H 456.221 5.54617 -1.11431 0
M  V30 5072 H 454.778 6.30347 -1.65849 0
M  V30 5073 N 458.211 1.37122 0.776871 0
M  V30 5074 C 459.488 1.22586 1.52421 0
M  V30 5075 C 459.868 -0.182726 2.10308 0
M  V30 5076 O 459.216 -1.18979 1.9508 0
M  V30 5077 C 459.426 2.31782 2.60918 0
M  V30 5078 C 460.774 2.69071 3.2846 0
M  V30 5079 O 461.798 2.3092 2.71209 0
M  V30 5080 O 460.657 3.3478 4.31954 0
M  V30 5081 H 457.751 0.478045 0.674835 0
M  V30 5082 H 460.297 1.48888 0.814275 0
M  V30 5083 H 459.069 3.26131 2.16227 0
M  V30 5084 H 458.692 2.06916 3.39517 0
M  V30 5085 N 459.689 -1.00246 1.21608 0
M  V30 5086 C 460.966 -1.71336 0.943568 0
M  V30 5087 C 461.346 -2.03972 -0.543943 0
M  V30 5088 O 460.694 -1.71545 -1.50946 0
M  V30 5089 C 460.904 -2.97094 1.83128 0
M  V30 5090 C 462.252 -3.70071 2.08165 0
M  V30 5091 O 463.276 -3.07081 1.80498 0
M  V30 5092 O 462.135 -4.83376 2.54971 0
M  V30 5093 H 459.229 -0.747386 0.354039 0
M  V30 5094 H 461.775 -1.05967 1.32549 0
M  V30 5095 H 460.547 -2.69407 2.83788 0
M  V30 5096 H 460.17 -3.70204 1.45034 0
M  V30 5097 N 461.167 -1.02423 -1.1978 0
M  V30 5098 C 462.077 -0.610919 -2.26506 0
M  V30 5099 C 463.093 0.355152 -1.70337 0
M  V30 5100 O 464.269 0.214195 -2.00258 0
M  V30 5101 C 461.334 0.0365921 -3.46681 0
M  V30 5102 C 460.395 -0.976389 -4.18049 0
M  V30 5103 C 459.628 -0.359683 -5.32487 0
M  V30 5104 O 459.851 0.838601 -5.64202 0
M  V30 5105 O 458.785 -1.08022 -5.92127 0
M  V30 5106 H 462.611 -1.49965 -2.64091 0
M  V30 5107 H 460.196 -0.794156 -1.26545 0
M  V30 5108 H 462.078 0.39786 -4.19518 0
M  V30 5109 H 460.753 0.899398 -3.10954 0
M  V30 5110 H 459.66 -1.38916 -3.47352 0
M  V30 5111 H 460.993 -1.80941 -4.57735 0
M  V30 5112 N 462.645 1.35699 -0.801477 0
M  V30 5113 C 463.555 2.33661 -0.209691 0
M  V30 5114 C 464.571 1.6162 0.644591 0
M  V30 5115 O 465.747 1.93529 0.557545 0
M  V30 5116 C 462.812 3.40816 0.636033 0
M  V30 5117 C 461.873 4.28639 -0.238147 0
M  V30 5118 C 461.106 5.30676 0.567307 0
M  V30 5119 O 461.329 5.41174 1.8024 0
M  V30 5120 O 460.263 6.01887 -0.0391336 0
M  V30 5121 H 464.089 2.8606 -1.01996 0
M  V30 5122 H 461.674 1.38379 -0.563164 0
M  V30 5123 H 463.556 4.06301 1.11791 0
M  V30 5124 H 462.231 2.90696 1.42399 0
M  V30 5125 H 461.138 3.66152 -0.767044 0
M  V30 5126 H 462.471 4.82143 -0.989915 0
M  V30 5127 N 464.123 0.554532 1.47522 0
M  V30 5128 C 465.056 -0.242442 2.26908 0
M  V30 5129 C 466.034 -0.922722 1.33883 0
M  V30 5130 O 467.218 -0.942244 1.63261 0
M  V30 5131 C 464.345 -1.34525 3.10839 0
M  V30 5132 C 463.391 -0.773805 4.19422 0
M  V30 5133 S 464.224 0.377525 5.34168 0
M  V30 5134 C 465.38 -0.727164 6.21662 0
M  V30 5135 H 465.613 0.431218 2.94156 0
M  V30 5136 H 463.146 0.3408 1.50592 0
M  V30 5137 H 465.104 -1.97683 3.59766 0
M  V30 5138 H 463.765 -1.99073 2.42958 0
M  V30 5139 H 462.958 -1.60187 4.77866 0
M  V30 5140 H 462.56 -0.218448 3.73361 0
M  V30 5141 H 464.852 -1.61992 6.57849 0
M  V30 5142 H 465.795 -0.180135 7.07871 0
M  V30 5143 H 466.203 -1.01863 5.55233 0
M  V30 5144 N 465.601 -1.54893 0.290851 0
M  V30 5145 C 466.549 -2.24579 -0.605576 0
M  V30 5146 C 467.543 -1.24824 -1.14522 0
M  V30 5147 O 468.749 -1.42706 -1.09704 0
M  V30 5148 H 465.124 -0.720946 -0.213872 0
M  V30 5149 H 467.095 -2.984 0.0048173 0
M  V30 5150 C 465.844 -2.99224 -1.77088 0
M  V30 5151 H 465.167 -3.75782 -1.36484 0
M  V30 5152 H 466.607 -3.51281 -2.3744 0
M  V30 5153 C 465.066 -2.05602 -2.66888 0
M  V30 5154 O 465.596 -1.61745 -3.67698 0
M  V30 5155 N 463.802 -1.71771 -2.34399 0
M  V30 5156 H 463.349 -2.07633 -1.52468 0
M  V30 5157 H 463.307 -1.09403 -2.94751 0
M  V30 5158 N 467.08 -0.0183926 -1.57589 0
M  V30 5159 C 468.329 0.66185 -1.90532 0
M  V30 5160 C 468.642 1.73904 -0.895366 0
M  V30 5161 O 469.848 2.47518 -1.11566 0
M  V30 5162 C 468.304 1.22844 -3.38286 0
M  V30 5163 C 467.912 0.185103 -4.47617 0
M  V30 5164 C 469.656 1.88581 -3.80312 0
M  V30 5165 C 467.563 0.762723 -5.86461 0
M  V30 5166 H 466.493 0.250972 -0.711006 0
M  V30 5167 H 469.144 -0.0819435 -1.83317 0
M  V30 5168 H 467.526 2.0235 -3.40398 0
M  V30 5169 H 468.7 -0.58671 -4.5705 0
M  V30 5170 H 467.015 -0.372889 -4.14727 0
M  V30 5171 H 469.612 2.32735 -4.81392 0
M  V30 5172 H 469.955 2.72408 -3.14801 0
M  V30 5173 H 470.488 1.15782 -3.80578 0
M  V30 5174 H 467.227 -0.0371713 -6.55489 0
M  V30 5175 H 466.747 1.50327 -5.80656 0
M  V30 5176 H 468.426 1.25576 -6.34697 0
M  V30 5177 N 468.558 1.5553 0.254621 0
M  V30 5178 C 469.488 1.9268 1.31897 0
M  V30 5179 C 470.469 0.790797 1.506 0
M  V30 5180 O 471.654 1.05045 1.63337 0
M  V30 5181 C 468.784 2.21477 2.67517 0
M  V30 5182 C 467.738 3.37256 2.63519 0
M  V30 5183 C 467.064 3.51576 4.02862 0
M  V30 5184 C 468.364 4.73157 2.21179 0
M  V30 5185 H 470.058 2.81832 1.01051 0
M  V30 5186 H 467.604 1.35599 0.484662 0
M  V30 5187 H 469.557 2.46055 3.42104 0
M  V30 5188 H 468.281 1.29144 2.99982 0
M  V30 5189 H 466.94 3.12675 1.9139 0
M  V30 5190 H 466.588 2.56676 4.32581 0
M  V30 5191 H 466.288 4.2943 4.01078 0
M  V30 5192 H 467.812 3.78467 4.79161 0
M  V30 5193 H 469.226 4.97158 2.85494 0
M  V30 5194 H 467.623 5.54058 2.30521 0
M  V30 5195 H 468.693 4.70739 1.16332 0
M  V30 5196 N 470.036 -0.519951 1.48776 0
M  V30 5197 C 471.285 -1.27175 1.56555 0
M  V30 5198 C 471.598 -1.9401 0.248869 0
M  V30 5199 O 472.804 -2.70725 0.205004 0
M  V30 5200 C 471.26 -2.30811 2.76142 0
M  V30 5201 C 470.868 -1.7 4.14493 0
M  V30 5202 C 472.612 -3.06937 2.9324 0
M  V30 5203 C 470.519 -2.71635 5.25327 0
M  V30 5204 H 469.449 -0.478329 0.582853 0
M  V30 5205 H 472.1 -0.547916 1.75129 0
M  V30 5206 H 470.482 -3.06274 2.51023 0
M  V30 5207 H 471.656 -1.00658 4.49672 0
M  V30 5208 H 469.971 -1.06331 4.02595 0
M  V30 5209 H 472.568 -3.82905 3.73213 0
M  V30 5210 H 472.911 -3.63409 2.03075 0
M  V30 5211 H 473.444 -2.38589 3.18308 0
M  V30 5212 H 470.183 -2.1997 6.1749 0
M  V30 5213 H 469.703 -3.39275 4.94624 0
M  V30 5214 H 471.382 -3.34429 5.53865 0
M  V30 5215 N 471.514 -1.37532 -0.769588 0
M  V30 5216 C 472.462 -1.33561 -1.90432 0
M  V30 5217 C 473.456 -0.224027 -1.67912 0
M  V30 5218 O 474.662 -0.392174 -1.75676 0
M  V30 5219 H 471.037 -0.416279 -0.626271 0
M  V30 5220 H 473.008 -2.29348 -1.90899 0
M  V30 5221 C 471.757 -1.16162 -3.27722 0
M  V30 5222 H 471.08 -2.00951 -3.45628 0
M  V30 5223 H 472.52 -1.17434 -4.07413 0
M  V30 5224 C 470.979 0.132583 -3.36639 0
M  V30 5225 O 471.509 1.11539 -3.85904 0
M  V30 5226 N 469.715 0.184013 -2.90017 0
M  V30 5227 H 469.262 -0.616415 -2.50116 0
M  V30 5228 H 469.22 1.04956 -2.96364 0
M  V30 5229 N 472.992 0.995999 -1.22138 0
M  V30 5230 C 473.922 2.10387 -1.01289 0
M  V30 5231 C 474.903 1.69975 0.0651454 0
M  V30 5232 O 476.088 1.9396 -0.0964628 0
M  V30 5233 C 473.218 3.42312 -0.586517 0
M  V30 5234 C 472.172 3.96558 -1.61014 0
M  V30 5235 C 471.498 5.24494 -1.0397 0
M  V30 5236 C 472.798 4.27595 -2.99933 0
M  V30 5237 H 474.492 2.28086 -1.93951 0
M  V30 5238 H 472.038 1.09607 -0.933928 0
M  V30 5239 H 473.991 4.19223 -0.427793 0
M  V30 5240 H 472.715 3.24431 0.375761 0
M  V30 5241 H 471.374 3.21776 -1.75658 0
M  V30 5242 H 471.022 5.02953 -0.0688703 0
M  V30 5243 H 470.722 5.61755 -1.72352 0
M  V30 5244 H 472.246 6.04042 -0.892494 0
M  V30 5245 H 473.66 4.95315 -2.8868 0
M  V30 5246 H 472.057 4.76021 -3.6541 0
M  V30 5247 H 473.127 3.35498 -3.50099 0
M  V30 5248 N 474.47 1.03057 1.19235 0
M  V30 5249 C 475.695 0.74757 1.93458 0
M  V30 5250 C 476.12 -0.687648 1.7508 0
M  V30 5251 O 475.478 -1.47499 1.05422 0
M  V30 5252 C 475.526 1.10604 3.43219 0
M  V30 5253 O 474.63 0.225671 4.11782 0
M  V30 5254 H 473.971 0.276047 0.603899 0
M  V30 5255 H 476.501 1.3777 1.51263 0
M  V30 5256 H 476.511 1.06366 3.93891 0
M  V30 5257 H 475.186 2.15165 3.55917 0
M  V30 5258 H 473.763 0.326795 3.71465 0
M  V30 5259 N 475.948 -1.35272 0.808662 0
M  V30 5260 C 476.895 -2.29764 0.218482 0
M  V30 5261 C 477.865 -1.52911 -0.648652 0
M  V30 5262 O 479.05 -1.81341 -0.593297 0
M  V30 5263 C 476.19 -3.39388 -0.625282 0
M  V30 5264 C 475.303 -4.31202 0.262516 0
M  V30 5265 C 474.438 -5.27919 -0.589451 0
M  V30 5266 C 473.477 -6.11371 0.298617 0
M  V30 5267 N 472.614 -7.0022 -0.513443 0
M  V30 5268 H 477.454 -2.79645 1.02968 0
M  V30 5269 H 474.991 -1.37629 0.519303 0
M  V30 5270 H 476.949 -4.01615 -1.12966 0
M  V30 5271 H 475.579 -2.90777 -1.40173 0
M  V30 5272 H 474.631 -3.69962 0.885013 0
M  V30 5273 H 475.943 -4.89748 0.945971 0
M  V30 5274 H 475.097 -5.95529 -1.15888 0
M  V30 5275 H 473.836 -4.69875 -1.30647 0
M  V30 5276 H 472.841 -5.42707 0.880301 0
M  V30 5277 H 474.066 -6.71494 1.01352 0
M  V30 5278 H 472.012 -6.44662 -1.21439 0
M  V30 5279 H 471.929 -7.55917 0.111922 0
M  V30 5280 H 473.197 -7.72175 -1.06608 0
M  V30 5281 N 477.426 -0.562348 -1.47226 0
M  V30 5282 C 478.703 0.0256985 -1.95583 0
M  V30 5283 C 479.083 1.48032 -1.50498 0
M  V30 5284 O 478.431 2.15973 -0.746181 0
M  V30 5285 C 478.641 -0.125129 -3.48776 0
M  V30 5286 C 479.989 0.0175728 -4.24596 0
M  V30 5287 O 481.013 -0.0529341 -3.56161 0
M  V30 5288 O 479.872 0.170145 -5.46235 0
M  V30 5289 H 476.966 0.0612565 -0.824728 0
M  V30 5290 H 479.512 -0.629233 -1.57603 0
M  V30 5291 H 478.284 -1.13715 -3.74412 0
M  V30 5292 H 477.907 0.567178 -3.93534 0
M  V30 5293 N 478.904 1.54736 -0.299062 0
M  V30 5294 C 480.181 1.92187 0.363802 0
M  V30 5295 C 480.561 1.22607 1.71845 0
M  V30 5296 O 479.909 0.361141 2.25628 0
M  V30 5297 C 480.119 3.45678 0.480377 0
M  V30 5298 C 481.467 4.17885 0.752147 0
M  V30 5299 O 482.491 3.51702 0.564264 0
M  V30 5300 O 481.35 5.35048 1.11294 0
M  V30 5301 H 478.444 0.801681 0.203066 0
M  V30 5302 H 480.99 1.66115 -0.346978 0
M  V30 5303 H 479.762 3.88443 -0.471999 0
M  V30 5304 H 479.385 3.77779 1.2397 0
M  V30 5305 N 480.382 0.0267497 1.57577 0
M  V30 5306 C 481.628 -0.647596 1.92815 0
M  V30 5307 C 481.983 -1.69872 0.903396 0
M  V30 5308 O 481.276 -1.91429 -0.0808881 0
M  V30 5309 C 481.47 -1.30914 3.3256 0
M  V30 5310 C 481.299 -0.323621 4.48534 0
M  V30 5311 C 480.069 0.0756607 5.05243 0
M  V30 5312 C 482.267 0.42112 5.12573 0
M  V30 5313 N 480.249 1.0566 6.04739 0
M  V30 5314 C 481.62 1.25589 6.07147 0
M  V30 5315 C 483.675 0.482077 4.95561 0
M  V30 5316 C 482.378 2.1461 6.86538 0
M  V30 5317 C 484.404 1.35962 5.75559 0
M  V30 5318 C 483.766 2.18217 6.69747 0
M  V30 5319 H 479.865 -0.209357 0.753454 0
M  V30 5320 H 482.449 0.0933695 1.94476 0
M  V30 5321 H 480.62 -2.02026 3.31723 0
M  V30 5322 H 482.352 -1.94033 3.55153 0
M  V30 5323 H 479.107 -0.298294 4.7266 0
M  V30 5324 H 479.531 1.54324 6.59176 0
M  V30 5325 H 484.173 -0.139609 4.22569 0
M  V30 5326 H 481.891 2.77835 7.58837 0
M  V30 5327 H 485.477 1.41105 5.6443 0
M  V30 5328 H 484.357 2.85022 7.3057 0
M  V30 5329 N 481.861 -1.55662 -0.24637 0
M  V30 5330 C 483.277 -1.48098 -0.594907 0
M  V30 5331 C 483.477 -0.717044 -1.8831 0
M  V30 5332 O 482.533 -0.246618 -2.51293 0
M  V30 5333 C 483.846 -2.92507 -0.697146 0
M  V30 5334 C 485.394 -3.02881 -0.789436 0
M  V30 5335 C 485.869 -4.48598 -0.923232 0
M  V30 5336 N 487.36 -4.52538 -0.988088 0
M  V30 5337 C 488.095 -5.62536 -1.11089 0
M  V30 5338 N 487.591 -6.82342 -1.19919 0
M  V30 5339 N 489.384 -5.50334 -1.14408 0
M  V30 5340 H 481.535 -2.0377 0.599278 0
M  V30 5341 H 483.798 -0.925145 0.20691 0
M  V30 5342 H 483.504 -3.51242 0.179396 0
M  V30 5343 H 483.378 -3.43024 -1.5689 0
M  V30 5344 H 485.765 -2.44226 -1.65643 0
M  V30 5345 H 485.846 -2.55574 0.107482 0
M  V30 5346 H 485.49 -5.07864 -0.0607927 0
M  V30 5347 H 485.42 -4.93587 -1.8352 0
M  V30 5348 H 487.911 -3.66248 -0.931167 0
M  V30 5349 H 488.224 -7.61924 -1.29197 0
M  V30 5350 H 486.569 -6.85102 -1.16876 0
M  V30 5351 H 489.76 -4.5567 -1.07158 0
M  V30 5352 H 489.933 -6.36096 -1.23634 0
M  V30 5353 N 483.339 0.512053 -1.4905 0
M  V30 5354 C 484.249 1.64139 -1.67617 0
M  V30 5355 C 485.265 1.64786 -0.558701 0
M  V30 5356 O 486.441 1.8341 -0.832034 0
M  V30 5357 C 483.506 3.00548 -1.72835 0
M  V30 5358 C 482.567 3.10615 -2.96339 0
M  V30 5359 C 481.8 4.40517 -3.01298 0
M  V30 5360 O 482.023 5.28671 -2.14157 0
M  V30 5361 O 480.957 4.55325 -3.93653 0
M  V30 5362 H 484.783 1.51407 -2.63267 0
M  V30 5363 H 482.368 0.687131 -1.32661 0
M  V30 5364 H 484.25 3.81641 -1.78683 0
M  V30 5365 H 482.925 3.13566 -0.803616 0
M  V30 5366 H 481.832 2.2875 -2.96014 0
M  V30 5367 H 483.165 3.0252 -3.88256 0
M  V30 5368 N 484.817 1.37938 0.762283 0
M  V30 5369 C 486.064 1.33668 1.52115 0
M  V30 5370 C 486.392 -0.0759538 1.94352 0
M  V30 5371 O 485.647 -1.05121 1.6507 0
M  V30 5372 C 485.946 2.23042 2.79261 0
M  V30 5373 C 485.612 3.71159 2.56031 0
M  V30 5374 C 484.274 4.11523 2.49404 0
M  V30 5375 C 486.626 4.64955 2.35513 0
M  V30 5376 C 483.954 5.43784 2.20263 0
M  V30 5377 C 486.306 5.97464 2.07894 0
M  V30 5378 C 484.97 6.36922 1.99718 0
M  V30 5379 H 484.24 0.489127 0.556629 0
M  V30 5380 H 486.887 1.70224 0.877262 0
M  V30 5381 H 485.192 1.79512 3.48256 0
M  V30 5382 H 486.889 2.17047 3.37182 0
M  V30 5383 H 483.479 3.39153 2.62056 0
M  V30 5384 H 487.663 4.34623 2.39617 0
M  V30 5385 H 482.919 5.73307 2.12435 0
M  V30 5386 H 487.093 6.6969 1.91019 0
M  V30 5387 H 484.72 7.39331 1.76902 0
M  V30 5388 N 486.295 -0.989507 1.22664 0
M  V30 5389 C 487.711 -1.25395 0.987331 0
M  V30 5390 C 487.911 -1.9899 -0.317056 0
M  V30 5391 O 486.967 -2.30141 -1.03882 0
M  V30 5392 C 488.28 -2.06242 2.18826 0
M  V30 5393 C 489.828 -2.19413 2.23219 0
M  V30 5394 C 490.303 -3.03648 3.42873 0
M  V30 5395 N 491.794 -3.11234 3.43056 0
M  V30 5396 C 492.529 -3.7671 4.32293 0
M  V30 5397 N 492.025 -4.44085 5.31752 0
M  V30 5398 N 493.818 -3.73505 4.2006 0
M  V30 5399 H 485.969 -0.496212 2.06522 0
M  V30 5400 H 488.232 -0.281784 0.905153 0
M  V30 5401 H 487.938 -1.59531 3.13437 0
M  V30 5402 H 487.812 -3.06996 2.19165 0
M  V30 5403 H 490.199 -2.65336 1.29154 0
M  V30 5404 H 490.28 -1.18078 2.26917 0
M  V30 5405 H 489.924 -2.58424 4.37241 0
M  V30 5406 H 489.854 -4.05132 3.36416 0
M  V30 5407 H 492.345 -2.63287 2.71088 0
M  V30 5408 H 492.658 -4.91797 5.96117 0
M  V30 5409 H 491.003 -4.42822 5.35662 0
M  V30 5410 H 494.194 -3.20033 3.41609 0
M  V30 5411 H 494.367 -4.24253 4.8981 0
M  V30 5412 N 487.773 -1.03688 -1.18687 0
M  V30 5413 C 489.001 -0.757918 -1.92518 0
M  V30 5414 C 489.416 0.684398 -1.75959 0
M  V30 5415 O 488.773 1.46617 -1.08673 0
M  V30 5416 C 488.824 -1.10985 -3.44042 0
M  V30 5417 O 488.545 -2.49554 -3.60076 0
M  V30 5418 C 490.046 -0.854844 -4.3498 0
M  V30 5419 H 487.266 -0.276699 -0.611293 0
M  V30 5420 H 489.81 -1.38352 -1.50595 0
M  V30 5421 H 487.965 -0.529279 -3.83767 0
M  V30 5422 H 488.379 -2.6291 -4.53849 0
M  V30 5423 H 489.853 -1.15098 -5.39867 0
M  V30 5424 H 490.33 0.210507 -4.38695 0
M  V30 5425 H 490.936 -1.41853 -4.00946 0
M  V30 5426 N 489.251 1.34841 -0.815825 0
M  V30 5427 C 490.181 2.32187 -0.247298 0
M  V30 5428 C 491.162 1.5791 0.632344 0
M  V30 5429 O 492.347 1.8593 0.560698 0
M  V30 5430 C 489.477 3.42122 0.597466 0
M  V30 5431 C 488.431 4.27602 -0.184446 0
M  V30 5432 C 487.757 5.28942 0.782609 0
M  V30 5433 C 489.057 5.03502 -1.38865 0
M  V30 5434 H 490.751 2.79985 -1.06061 0
M  V30 5435 H 488.297 1.34611 -0.511461 0
M  V30 5436 H 490.25 4.09232 1.00533 0
M  V30 5437 H 488.974 2.92956 1.44376 0
M  V30 5438 H 487.633 3.62085 -0.573592 0
M  V30 5439 H 487.281 4.7604 1.62466 0
M  V30 5440 H 486.981 5.87008 0.263695 0
M  V30 5441 H 488.505 5.98922 1.18848 0
M  V30 5442 H 489.919 5.63506 -1.05518 0
M  V30 5443 H 488.316 5.71108 -1.8427 0
M  V30 5444 H 489.386 4.33608 -2.17054 0
M  V30 5445 N 490.729 0.570148 1.46925 0
M  V30 5446 C 491.975 0.0510284 2.02736 0
M  V30 5447 C 492.308 -1.3006 1.44215 0
M  V30 5448 O 491.583 -1.84932 0.602521 0
M  V30 5449 C 491.866 -0.028215 3.60089 0
M  V30 5450 C 491.719 1.35142 4.29018 0
M  V30 5451 C 493.038 -0.735181 4.33916 0
M  V30 5452 H 490.157 0.0200178 0.736728 0
M  V30 5453 H 492.799 0.73493 1.75211 0
M  V30 5454 H 490.949 -0.610648 3.83671 0
M  V30 5455 H 492.621 1.97806 4.16738 0
M  V30 5456 H 490.864 1.9226 3.88868 0
M  V30 5457 H 491.535 1.24857 5.37694 0
M  V30 5458 H 494.011 -0.240519 4.15404 0
M  V30 5459 H 492.887 -0.759622 5.43618 0
M  V30 5460 H 493.148 -1.79397 4.04066 0
M  V30 5461 N 492.207 -1.54576 0.307264 0
M  V30 5462 C 493.456 -1.99442 -0.300976 0
M  V30 5463 C 493.769 -1.19928 -1.5452 0
M  V30 5464 O 494.975 -1.55092 -2.22842 0
M  V30 5465 C 493.431 -3.55084 -0.586809 0
M  V30 5466 C 493.039 -4.43413 0.639438 0
M  V30 5467 C 494.783 -4.0846 -1.1559 0
M  V30 5468 C 492.69 -5.90499 0.326411 0
M  V30 5469 H 491.62 -0.744986 -0.116238 0
M  V30 5470 H 494.271 -1.787 0.416947 0
M  V30 5471 H 492.653 -3.71749 -1.36449 0
M  V30 5472 H 493.827 -4.38522 1.41545 0
M  V30 5473 H 492.142 -4.00842 1.1276 0
M  V30 5474 H 494.739 -5.15926 -1.40445 0
M  V30 5475 H 495.082 -3.59443 -2.10015 0
M  V30 5476 H 495.615 -3.95362 -0.439778 0
M  V30 5477 H 492.354 -6.43676 1.23939 0
M  V30 5478 H 491.874 -5.98382 -0.412212 0
M  V30 5479 H 493.553 -6.46962 -0.0697393 0
M  V30 5480 N 493.685 -0.035106 -1.57561 0
M  V30 5481 C 494.595 0.960295 -2.14046 0
M  V30 5482 C 495.611 1.3529 -1.0942 0
M  V30 5483 O 496.787 1.43309 -1.41508 0
M  V30 5484 C 493.852 2.22214 -2.66124 0
M  V30 5485 C 492.913 1.8894 -3.85487 0
M  V30 5486 C 492.146 3.09109 -4.35072 0
M  V30 5487 O 492.369 4.21963 -3.83802 0
M  V30 5488 O 491.303 2.91058 -5.26848 0
M  V30 5489 H 495.129 0.509983 -2.99387 0
M  V30 5490 H 492.714 0.185853 -1.48239 0
M  V30 5491 H 494.596 2.96279 -2.99661 0
M  V30 5492 H 493.271 2.66414 -1.83862 0
M  V30 5493 H 492.178 1.12241 -3.56865 0
M  V30 5494 H 493.511 1.49551 -4.6893 0
M  V30 5495 N 495.163 1.55791 0.238111 0
M  V30 5496 C 496.096 1.86036 1.32158 0
M  V30 5497 C 497.074 0.716216 1.45976 0
M  V30 5498 O 498.258 0.962882 1.62052 0
M  V30 5499 C 495.385 2.05281 2.69402 0
M  V30 5500 C 494.431 3.27939 2.72687 0
M  V30 5501 S 495.264 4.84342 2.28413 0
M  V30 5502 C 496.42 5.06604 3.67565 0
M  V30 5503 H 496.653 2.77644 1.06306 0
M  V30 5504 H 494.186 1.48012 0.439537 0
M  V30 5505 H 496.144 2.17053 3.48423 0
M  V30 5506 H 494.805 1.14499 2.92487 0
M  V30 5507 H 493.998 3.38398 3.73501 0
M  V30 5508 H 493.6 3.14938 2.01717 0
M  V30 5509 H 495.892 4.94486 4.6313 0
M  V30 5510 H 496.835 6.08554 3.62033 0
M  V30 5511 H 497.243 4.34409 3.60485 0
M  V30 5512 N 496.642 -0.504142 1.49319 0
M  V30 5513 C 497.888 -1.26033 1.58882 0
M  V30 5514 C 498.221 -1.92268 0.273274 0
M  V30 5515 O 497.496 -1.80567 -0.72291 0
M  V30 5516 C 497.779 -2.32976 2.7458 0
M  V30 5517 C 497.632 -1.71263 4.1592 0
M  V30 5518 C 498.951 -3.34561 2.85932 0
M  V30 5519 H 496.07 -0.456863 0.578312 0
M  V30 5520 H 498.712 -0.558965 1.81592 0
M  V30 5521 H 496.862 -2.92796 2.55348 0
M  V30 5522 H 498.534 -1.15294 4.4666 0
M  V30 5523 H 496.777 -1.01686 4.21714 0
M  V30 5524 H 497.448 -2.48816 4.92742 0
M  V30 5525 H 499.924 -2.84727 3.0343 0
M  V30 5526 H 498.8 -4.06754 3.68568 0
M  V30 5527 H 499.061 -3.96695 1.95154 0
M  V30 5528 N 498.12 -1.38341 -0.754957 0
M  V30 5529 C 499.053 -1.29837 -1.87663 0
M  V30 5530 C 500.031 -0.175659 -1.61648 0
M  V30 5531 O 501.215 -0.352745 -1.8517 0
M  V30 5532 C 498.342 -1.01141 -3.23246 0
M  V30 5533 C 497.388 -2.15331 -3.6815 0
M  V30 5534 S 498.221 -3.77459 -3.79849 0
M  V30 5535 C 499.377 -3.50948 -5.18253 0
M  V30 5536 H 499.61 -2.24771 -1.9459 0
M  V30 5537 H 497.143 -1.24161 -0.917796 0
M  V30 5538 H 499.101 -0.852687 -4.01546 0
M  V30 5539 H 497.762 -0.0792784 -3.14 0
M  V30 5540 H 496.955 -1.90795 -4.6649 0
M  V30 5541 H 496.557 -2.27304 -2.97 0
M  V30 5542 H 498.849 -3.06977 -6.03963 0
M  V30 5543 H 499.792 -4.48677 -5.47809 0
M  V30 5544 H 500.2 -2.85492 -4.86985 0
M  V30 5545 N 499.598 0.982988 -1.23187 0
M  V30 5546 C 500.561 2.05649 -1.01198 0
M  V30 5547 C 501.561 1.6078 0.0252464 0
M  V30 5548 O 502.751 1.72878 -0.214243 0
M  V30 5549 C 499.883 3.36744 -0.530656 0
M  V30 5550 H 501.076 2.2659 -1.96461 0
M  V30 5551 H 498.629 1.15602 -1.05195 0
M  V30 5552 H 499.364 3.21492 0.425873 0
M  V30 5553 H 499.149 3.7065 -1.2791 0
M  V30 5554 H 500.639 4.15705 -0.397366 0
M  V30 5555 N 501.076 1.04316 1.18135 0
M  V30 5556 C 502.304 0.768117 1.92113 0
M  V30 5557 C 502.719 -0.675057 1.76319 0
M  V30 5558 O 502.076 -1.46038 1.09449 0
M  V30 5559 C 502.127 1.12808 3.43448 0
M  V30 5560 O 501.848 2.5146 3.58747 0
M  V30 5561 C 503.349 0.8779 4.3452 0
M  V30 5562 H 500.569 0.279937 0.609817 0
M  V30 5563 H 503.113 1.39149 1.49859 0
M  V30 5564 H 501.268 0.549623 3.83481 0
M  V30 5565 H 501.682 2.65313 4.52448 0
M  V30 5566 H 503.156 1.17959 5.39249 0
M  V30 5567 H 503.633 -0.187239 4.38801 0
M  V30 5568 H 504.239 1.43977 4.00188 0
M  V30 5569 N 502.554 -1.34406 0.822964 0
M  V30 5570 C 503.831 -1.92733 0.333641 0
M  V30 5571 C 504.211 -1.75107 -1.17901 0
M  V30 5572 O 503.559 -1.12983 -1.98613 0
M  V30 5573 C 503.769 -3.40557 0.763023 0
M  V30 5574 C 505.117 -4.17709 0.761879 0
M  V30 5575 O 506.141 -3.49141 0.705606 0
M  V30 5576 O 505 -5.40082 0.835109 0
M  V30 5577 H 502.094 -0.821964 0.0911249 0
M  V30 5578 H 504.64 -1.4338 0.907757 0
M  V30 5579 H 503.412 -3.47187 1.8049 0
M  V30 5580 H 503.035 -3.97259 0.164605 0
M  V30 5581 N 504.032 -0.577932 -1.46621 0
M  V30 5582 C 504.965 0.206312 -2.27265 0
M  V30 5583 C 505.943 0.901306 -1.35334 0
M  V30 5584 O 507.127 0.916151 -1.64739 0
M  V30 5585 C 504.254 1.29563 -3.1294 0
M  V30 5586 C 503.3 0.706981 -4.206 0
M  V30 5587 S 504.133 -0.462459 -5.33499 0
M  V30 5588 C 505.289 0.628171 -6.2274 0
M  V30 5589 H 505.522 -0.477961 -2.93433 0
M  V30 5590 H 503.055 -0.364715 -1.50031 0
M  V30 5591 H 505.013 1.91935 -3.62865 0
M  V30 5592 H 503.674 1.95183 -2.46095 0
M  V30 5593 H 502.867 1.52565 -4.80354 0
M  V30 5594 H 502.469 0.159022 -3.73662 0
M  V30 5595 H 504.761 1.51506 -6.60342 0
M  V30 5596 H 505.704 0.0674961 -7.08068 0
M  V30 5597 H 506.112 0.930167 -5.56784 0
M  V30 5598 N 505.51 1.54411 -0.315457 0
M  V30 5599 C 506.735 2.05299 0.294496 0
M  V30 5600 C 507.16 1.19052 1.4563 0
M  V30 5601 O 506.518 0.197804 1.80218 0
M  V30 5602 C 506.566 3.5345 0.714549 0
M  V30 5603 O 505.67 3.70175 1.81781 0
M  V30 5604 H 505.011 0.661743 0.0547019 0
M  V30 5605 H 507.541 1.99327 -0.461508 0
M  V30 5606 H 507.551 3.9557 0.999426 0
M  V30 5607 H 506.226 4.1568 -0.135244 0
M  V30 5608 H 504.803 3.3996 1.53236 0
M  V30 5609 N 506.988 0.0434614 1.5754 0
M  V30 5610 C 508.228 -0.636023 1.94253 0
M  V30 5611 C 508.592 -1.68461 0.921132 0
M  V30 5612 O 509.793 -2.41762 1.17494 0
M  V30 5613 C 508.064 -1.22357 3.35803 0
M  V30 5614 S 509.623 -1.92213 3.94461 0
M  V30 5615 H 506.441 -0.209041 0.679575 0
M  V30 5616 H 509.043 0.110556 1.95187 0
M  V30 5617 H 507.747 -0.448162 4.07946 0
M  V30 5618 H 507.278 -2.00713 3.38346 0
M  V30 5619 H 509.293 -3.20199 3.79061 0
M  V30 5620 N 508.466 -1.55915 -0.229846 0
M  V30 5621 C 509.416 -1.8813 -1.28807 0
M  V30 5622 C 510.4 -0.743621 -1.42685 0
M  V30 5623 O 511.592 -1.00588 -1.4564 0
M  V30 5624 C 508.721 -2.19431 -2.64017 0
M  V30 5625 C 507.807 -3.39569 -2.54074 0
M  V30 5626 N 508.198 -4.58404 -2.13774 0
M  V30 5627 C 506.496 -3.43019 -2.85051 0
M  V30 5628 C 507.197 -5.40557 -2.1488 0
M  V30 5629 N 506.173 -4.80054 -2.55047 0
M  V30 5630 H 509.975 -2.77527 -0.967261 0
M  V30 5631 H 507.489 -1.5637 -0.438433 0
M  V30 5632 H 509.486 -2.40681 -3.40409 0
M  V30 5633 H 508.146 -1.31341 -2.9695 0
M  V30 5634 H 509.157 -4.83716 -1.8504 0
M  V30 5635 H 505.834 -2.65249 -3.22411 0
M  V30 5636 H 507.224 -6.45666 -1.85918 0
M  V30 5637 N 509.944 0.496216 -1.49584 0
M  V30 5638 C 511.191 1.25003 -1.59312 0
M  V30 5639 C 511.519 1.92445 -0.28198 0
M  V30 5640 O 510.774 1.81557 0.730452 0
M  V30 5641 C 511.073 2.3359 -2.705 0
M  V30 5642 C 510.739 1.83574 -4.11839 0
M  V30 5643 C 509.401 1.69653 -4.50302 0
M  V30 5644 C 511.753 1.46193 -5.00277 0
M  V30 5645 C 509.081 1.16736 -5.74969 0
M  V30 5646 C 511.433 0.947265 -6.25468 0
M  V30 5647 C 510.097 0.794485 -6.62755 0
M  V30 5648 H 509.367 0.45742 -0.582965 0
M  V30 5649 H 512.014 0.549996 -1.83432 0
M  V30 5650 H 510.319 3.09401 -2.40371 0
M  V30 5651 H 512.016 2.91627 -2.75235 0
M  V30 5652 H 508.606 1.9537 -3.81482 0
M  V30 5653 H 512.79 1.55793 -4.71214 0
M  V30 5654 H 508.046 1.03623 -6.02555 0
M  V30 5655 H 512.22 0.648846 -6.93371 0
M  V30 5656 H 509.847 0.382271 -7.59238 0
M  V30 5657 N 511.423 1.38739 0.74761 0
M  V30 5658 C 512.355 1.32341 1.87132 0
M  V30 5659 C 513.368 0.234502 1.61102 0
M  V30 5660 O 514.557 0.492516 1.71571 0
M  V30 5661 C 511.657 1.02915 3.22896 0
M  V30 5662 C 510.83 2.22834 3.76383 0
M  V30 5663 C 509.889 1.90059 4.90677 0
M  V30 5664 O 508.915 2.62615 5.04997 0
M  V30 5665 N 510.117 0.859141 5.74107 0
M  V30 5666 H 512.882 2.29175 1.93129 0
M  V30 5667 H 510.443 1.32678 0.927805 0
M  V30 5668 H 512.435 0.79031 3.96908 0
M  V30 5669 H 511.005 0.148572 3.12247 0
M  V30 5670 H 510.225 2.62747 2.93867 0
M  V30 5671 H 511.513 3.02851 4.08851 0
M  V30 5672 H 510.911 0.257564 5.65113 0
M  V30 5673 H 509.468 0.680189 6.48241 0
M  V30 5674 N 512.901 -0.976442 1.23707 0
M  V30 5675 C 513.833 -2.07212 0.979574 0
M  V30 5676 C 514.846 -1.6273 -0.0478528 0
M  V30 5677 O 516.035 -1.77506 0.18815 0
M  V30 5678 C 513.135 -3.35835 0.45479 0
M  V30 5679 C 512.308 -4.09268 1.54331 0
M  V30 5680 C 511.367 -5.16166 1.02271 0
M  V30 5681 O 510.393 -5.42827 1.71254 0
M  V30 5682 N 511.595 -5.80313 -0.147419 0
M  V30 5683 H 514.36 -2.29878 1.92292 0
M  V30 5684 H 511.921 -1.14343 1.14618 0
M  V30 5685 H 513.913 -4.04597 0.0914631 0
M  V30 5686 H 512.483 -3.10106 -0.394068 0
M  V30 5687 H 511.703 -3.34906 2.07923 0
M  V30 5688 H 512.991 -4.55095 2.27522 0
M  V30 5689 H 512.389 -5.61043 -0.724353 0
M  V30 5690 H 510.946 -6.50231 -0.451972 0
M  V30 5691 N 514.379 -1.04941 -1.1758 0
M  V30 5692 C 515.628 -0.753124 -1.87112 0
M  V30 5693 C 515.941 0.722507 -1.81767 0
M  V30 5694 O 517.147 1.13265 -2.46746 0
M  V30 5695 C 515.603 -1.29695 -3.35719 0
M  V30 5696 C 515.211 -2.80184 -3.49572 0
M  V30 5697 C 516.955 -1.07759 -4.10595 0
M  V30 5698 C 514.862 -3.2788 -4.92187 0
M  V30 5699 H 513.792 -0.278034 -0.700866 0
M  V30 5700 H 516.443 -1.26637 -1.32798 0
M  V30 5701 H 514.825 -0.711522 -3.89555 0
M  V30 5702 H 515.999 -3.44561 -3.05965 0
M  V30 5703 H 514.314 -3.00632 -2.88113 0
M  V30 5704 H 516.911 -1.40899 -5.15802 0
M  V30 5705 H 517.254 -0.0152302 -4.16297 0
M  V30 5706 H 517.787 -1.62809 -3.62957 0
M  V30 5707 H 514.526 -4.33535 -4.91658 0
M  V30 5708 H 514.046 -2.68245 -5.36475 0
M  V30 5709 H 515.725 -3.22412 -5.60945 0
M  V30 5710 N 515.857 1.33968 -0.830081 0
M  V30 5711 C 516.804 2.29387 -0.255008 0
M  V30 5712 C 517.774 1.53923 0.624243 0
M  V30 5713 O 518.959 1.82262 0.564372 0
M  V30 5714 C 516.099 3.4034 0.571209 0
M  V30 5715 C 515.212 4.30729 -0.331083 0
M  V30 5716 C 514.347 5.2879 0.505389 0
M  V30 5717 C 513.386 6.10819 -0.395843 0
M  V30 5718 N 512.523 7.00948 0.401979 0
M  V30 5719 H 517.363 2.77972 -1.07404 0
M  V30 5720 H 514.9 1.36785 -0.541133 0
M  V30 5721 H 516.858 4.03361 1.06562 0
M  V30 5722 H 515.488 2.9297 1.35529 0
M  V30 5723 H 514.54 3.68507 -0.943759 0
M  V30 5724 H 515.852 4.88181 -1.02377 0
M  V30 5725 H 515.006 5.97297 1.06399 0
M  V30 5726 H 513.745 4.71894 1.23155 0
M  V30 5727 H 512.75 5.41238 -0.966529 0
M  V30 5728 H 513.975 6.69797 -1.12023 0
M  V30 5729 H 511.921 6.46512 1.11168 0
M  V30 5730 H 511.838 7.55643 -0.232167 0
M  V30 5731 H 513.106 7.73774 0.943102 0
M  V30 5732 N 517.335 0.585699 1.46312 0
M  V30 5733 C 518.298 -0.135673 2.28798 0
M  V30 5734 C 519.298 -0.815988 1.38558 0
M  V30 5735 O 520.488 -0.667487 1.60904 0
M  V30 5736 C 517.62 -1.20163 3.1902 0
M  V30 5737 H 518.813 0.589257 2.94054 0
M  V30 5738 H 516.366 0.343794 1.52472 0
M  V30 5739 H 517.101 -1.95804 2.58517 0
M  V30 5740 H 516.886 -0.718282 3.85465 0
M  V30 5741 H 518.376 -1.70749 3.81096 0
M  V30 5742 N 518.813 -1.54241 0.323641 0
M  V30 5743 C 519.746 -2.20579 -0.584833 0
M  V30 5744 C 520.724 -1.18286 -1.11567 0
M  V30 5745 O 521.908 -1.47025 -1.17966 0
M  V30 5746 C 519.035 -2.86754 -1.80249 0
M  V30 5747 C 518.081 -4.02767 -1.4029 0
M  V30 5748 S 518.914 -5.33693 -0.439539 0
M  V30 5749 C 520.07 -6.03362 -1.66448 0
M  V30 5750 H 520.303 -2.97292 -0.0213238 0
M  V30 5751 H 517.836 -1.54024 0.107726 0
M  V30 5752 H 519.794 -3.25503 -2.50116 0
M  V30 5753 H 518.455 -2.09844 -2.33719 0
M  V30 5754 H 517.648 -4.47933 -2.31024 0
M  V30 5755 H 517.25 -3.65692 -0.783928 0
M  V30 5756 H 519.542 -6.25546 -2.6019 0
M  V30 5757 H 520.485 -6.9689 -1.25498 0
M  V30 5758 H 520.893 -5.33273 -1.85149 0
M  V30 5759 N 520.291 -0.0518155 -1.57515 0
M  V30 5760 C 521.238 0.922352 -2.11569 0
M  V30 5761 C 522.208 1.30842 -1.02321 0
M  V30 5762 O 523.393 1.39778 -1.29872 0
M  V30 5763 C 520.533 2.19167 -2.6657 0
M  V30 5764 C 519.646 1.86003 -3.89906 0
M  V30 5765 C 518.781 3.07398 -4.33221 0
M  V30 5766 C 517.82 2.70158 -5.49255 0
M  V30 5767 N 516.957 3.84248 -5.8762 0
M  V30 5768 H 521.797 0.454506 -2.94514 0
M  V30 5769 H 519.334 0.212718 -1.45554 0
M  V30 5770 H 521.292 2.93443 -2.96559 0
M  V30 5771 H 519.922 2.63528 -1.86421 0
M  V30 5772 H 518.974 1.01874 -3.66505 0
M  V30 5773 H 520.286 1.54592 -4.74239 0
M  V30 5774 H 519.44 3.89972 -4.64765 0
M  V30 5775 H 518.179 3.41988 -3.477 0
M  V30 5776 H 517.184 1.86001 -5.17382 0
M  V30 5777 H 518.409 2.36759 -6.36492 0
M  V30 5778 H 516.355 4.18638 -5.05053 0
M  V30 5779 H 516.272 3.56538 -6.66646 0
M  V30 5780 H 517.54 4.6746 -6.2378 0
M  V30 5781 N 521.769 1.56035 0.221574 0
M  V30 5782 C 522.997 1.8313 0.962864 0
M  V30 5783 C 523.412 0.630934 1.77946 0
M  V30 5784 O 522.769 -0.400519 1.78051 0
M  V30 5785 C 522.82 3.08742 1.88045 0
M  V30 5786 O 522.541 4.24147 1.09686 0
M  V30 5787 C 524.042 3.48824 2.73563 0
M  V30 5788 H 521.262 0.608775 0.282194 0
M  V30 5789 H 523.806 2.03124 0.23681 0
M  V30 5790 H 521.961 2.90723 2.56045 0
M  V30 5791 H 522.375 4.95505 1.71974 0
M  V30 5792 H 523.849 4.39752 3.3365 0
M  V30 5793 H 524.326 2.70575 3.45956 0
M  V30 5794 H 524.932 3.69282 2.10976 0
M  V30 5795 N 523.247 -0.488276 1.49845 0
M  V30 5796 C 524.21 -1.57069 1.66919 0
M  V30 5797 C 525.21 -1.51445 0.540479 0
M  V30 5798 O 526.4 -1.5437 0.807188 0
M  V30 5799 C 523.532 -2.96718 1.67844 0
M  V30 5800 H 524.725 -1.43254 2.63474 0
M  V30 5801 H 522.278 -0.713435 1.39068 0
M  V30 5802 H 523.013 -3.15996 0.7292 0
M  V30 5803 H 522.798 -3.02208 2.49826 0
M  V30 5804 H 524.288 -3.75335 1.83066 0
M  V30 5805 N 524.725 -1.39134 -0.740242 0
M  V30 5806 C 525.655 -1.40165 -1.86751 0
M  V30 5807 C 526.636 -0.265708 -1.68012 0
M  V30 5808 O 527.821 -0.47076 -1.88408 0
M  V30 5809 C 524.951 -1.2392 -3.2444 0
M  V30 5810 C 523.905 -2.34858 -3.57807 0
M  V30 5811 C 523.231 -2.03707 -4.94376 0
M  V30 5812 C 524.531 -3.77159 -3.61315 0
M  V30 5813 H 526.225 -2.345 -1.86145 0
M  V30 5814 H 523.771 -1.12875 -0.89416 0
M  V30 5815 H 525.724 -1.23263 -4.02969 0
M  V30 5816 H 524.448 -0.26051 -3.25559 0
M  V30 5817 H 523.107 -2.34723 -2.81604 0
M  V30 5818 H 522.755 -1.04289 -4.9207 0
M  V30 5819 H 522.455 -2.78016 -5.17669 0
M  V30 5820 H 523.979 -2.04691 -5.75268 0
M  V30 5821 H 525.393 -3.79252 -4.29931 0
M  V30 5822 H 523.79 -4.50784 -3.96124 0
M  V30 5823 H 524.86 -4.08513 -2.61238 0
M  V30 5824 N 526.204 0.969867 -1.24223 0
M  V30 5825 C 527.136 2.0669 -0.99055 0
M  V30 5826 C 528.149 1.62753 0.0392222 0
M  V30 5827 O 529.338 1.77403 -0.197561 0
M  V30 5828 C 526.438 3.35589 -0.472594 0
M  V30 5829 C 525.611 4.08444 -1.56499 0
M  V30 5830 C 524.67 5.15616 -1.05007 0
M  V30 5831 O 523.696 5.41911 -1.7413 0
M  V30 5832 N 524.898 5.80383 0.116641 0
M  V30 5833 H 527.663 2.28855 -1.93508 0
M  V30 5834 H 525.224 1.13733 -1.15223 0
M  V30 5835 H 527.216 4.04542 -0.112919 0
M  V30 5836 H 525.786 3.10311 0.377617 0
M  V30 5837 H 525.006 3.33798 -2.09696 0
M  V30 5838 H 526.294 4.53882 -2.29932 0
M  V30 5839 H 525.692 5.6142 0.694589 0
M  V30 5840 H 524.249 6.50462 0.417483 0
M  V30 5841 N 527.682 1.05563 1.17022 0
M  V30 5842 C 528.614 0.617888 2.20714 0
M  V30 5843 C 529.627 -0.320303 1.59618 0
M  V30 5844 O 530.816 -0.112449 1.78145 0
M  V30 5845 C 527.916 -0.115333 3.38704 0
M  V30 5846 C 527.089 0.834493 4.29366 0
M  V30 5847 C 526.148 0.141855 5.26009 0
M  V30 5848 O 525.174 0.777151 5.6387 0
M  V30 5849 N 526.376 -1.11934 5.69606 0
M  V30 5850 H 529.141 1.50981 2.58892 0
M  V30 5851 H 526.702 0.938008 1.31958 0
M  V30 5852 H 528.694 -0.588918 4.00392 0
M  V30 5853 H 527.264 -0.908967 2.99093 0
M  V30 5854 H 526.484 1.48762 3.65053 0
M  V30 5855 H 527.772 1.4791 4.86827 0
M  V30 5856 H 527.17 -1.65574 5.40927 0
M  V30 5857 H 525.727 -1.53692 6.33421 0
M  V30 5858 N 529.16 -1.33526 0.837174 0
M  V30 5859 C 530.571 -1.80182 0.489017 0
M  V30 5860 C 530.922 -1.69285 -0.991826 0
M  V30 5861 O 530.047 -1.24113 -1.77271 0
M  V30 5862 C 530.642 -3.27149 0.880866 0
M  V30 5863 C 529.201 -3.71828 0.584872 0
M  V30 5864 C 528.348 -2.54974 1.09011 0
M  V30 5865 H 531.299 -1.21071 1.02603 0
M  V30 5866 H 531.32 -3.80024 0.190239 0
M  V30 5867 H 530.832 -3.35048 1.95869 0
M  V30 5868 H 528.933 -3.69457 -0.48295 0
M  V30 5869 H 529.046 -4.65366 1.13892 0
M  V30 5870 H 527.41 -2.4952 0.511047 0
M  V30 5871 H 528.193 -2.65637 2.17467 0
M  V30 5872 N 530.638 -0.59345 -1.46 0
M  V30 5873 C 531.548 0.135817 -2.34207 0
M  V30 5874 C 532.564 0.875008 -1.50398 0
M  V30 5875 O 533.74 0.835778 -1.83239 0
M  V30 5876 C 530.805 1.12977 -3.27776 0
M  V30 5877 C 529.866 0.394081 -4.27487 0
M  V30 5878 C 529.099 1.34068 -5.16586 0
M  V30 5879 O 529.322 2.5778 -5.08828 0
M  V30 5880 O 528.256 0.845426 -5.95933 0
M  V30 5881 H 532.082 -0.588691 -2.9794 0
M  V30 5882 H 529.667 -0.353784 -1.45151 0
M  V30 5883 H 531.549 1.70261 -3.85473 0
M  V30 5884 H 530.224 1.83556 -2.66625 0
M  V30 5885 H 529.131 -0.220869 -3.73447 0
M  V30 5886 H 530.464 -0.270939 -4.91454 0
M  V30 5887 N 532.116 1.54067 -0.331816 0
M  V30 5888 C 533.079 2.23275 0.517768 0
M  V30 5889 C 534.079 1.22897 1.03697 0
M  V30 5890 O 535.269 1.47419 0.928084 0
M  V30 5891 C 532.401 2.94326 1.72004 0
M  V30 5892 H 533.594 2.99773 -0.0873507 0
M  V30 5893 H 531.147 1.56079 -0.0830042 0
M  V30 5894 H 531.882 2.21986 2.36417 0
M  V30 5895 H 531.667 3.67941 1.35507 0
M  V30 5896 H 533.157 3.47031 2.32291 0
M  V30 5897 N 533.594 0.0601682 1.57485 0
M  V30 5898 C 534.843 -0.611101 1.9222 0
M  V30 5899 C 535.156 -1.71469 0.941159 0
M  V30 5900 O 536.362 -2.44473 1.18089 0
M  V30 5901 C 534.818 -1.13832 3.41424 0
M  V30 5902 C 534.426 -0.0663596 4.47951 0
M  V30 5903 C 536.17 -1.78432 3.85178 0
M  V30 5904 C 534.077 -0.606965 5.88277 0
M  V30 5905 H 533.007 -0.232033 0.71741 0
M  V30 5906 H 535.658 0.130518 1.83035 0
M  V30 5907 H 534.04 -1.93254 3.45643 0
M  V30 5908 H 535.214 0.707682 4.55333 0
M  V30 5909 H 533.529 0.482715 4.13593 0
M  V30 5910 H 536.126 -2.1989 4.87394 0
M  V30 5911 H 536.469 -2.63966 3.21913 0
M  V30 5912 H 537.002 -1.05651 3.83514 0
M  V30 5913 H 533.741 0.21095 6.5516 0
M  V30 5914 H 533.261 -1.34879 5.84438 0
M  V30 5915 H 534.94 -1.08704 6.37803 0
M  V30 5916 N 535.072 -1.5615 -0.213296 0
M  V30 5917 C 535.982 -1.96265 -1.28519 0
M  V30 5918 C 536.998 -0.86765 -1.50824 0
M  V30 5919 O 538.174 -1.17191 -1.63793 0
M  V30 5920 C 535.239 -2.27836 -2.61327 0
M  V30 5921 C 534.3 -3.50949 -2.47252 0
M  V30 5922 C 533.533 -3.81004 -3.73727 0
M  V30 5923 O 533.756 -3.12612 -4.77106 0
M  V30 5924 O 532.69 -4.74477 -3.70344 0
M  V30 5925 H 536.516 -2.87631 -0.974795 0
M  V30 5926 H 534.101 -1.43467 -0.416832 0
M  V30 5927 H 535.983 -2.49299 -3.39747 0
M  V30 5928 H 534.658 -1.39643 -2.9203 0
M  V30 5929 H 533.565 -3.34754 -1.67004 0
M  V30 5930 H 534.898 -4.39551 -2.21486 0
M  V30 5931 N 536.55 0.480323 -1.50102 0
M  V30 5932 C 537.497 1.57946 -1.6829 0
M  V30 5933 C 538.467 1.57611 -0.524223 0
M  V30 5934 O 539.652 1.75282 -0.753709 0
M  V30 5935 C 536.792 2.95978 -1.77457 0
M  V30 5936 C 535.905 3.06173 -3.04766 0
M  V30 5937 C 535.04 4.35063 -3.04784 0
M  V30 5938 C 534.079 4.38966 -4.26586 0
M  V30 5939 N 533.216 5.59314 -4.24396 0
M  V30 5940 H 538.056 1.41743 -2.62131 0
M  V30 5941 H 535.593 0.689304 -1.2995 0
M  V30 5942 H 537.551 3.76011 -1.80752 0
M  V30 5943 H 536.181 3.10837 -0.870637 0
M  V30 5944 H 535.233 2.19071 -3.10986 0
M  V30 5945 H 536.545 3.04916 -3.9475 0
M  V30 5946 H 535.699 5.23436 -3.06757 0
M  V30 5947 H 534.438 4.38915 -2.12614 0
M  V30 5948 H 533.443 3.48992 -4.24835 0
M  V30 5949 H 534.668 4.36813 -5.19972 0
M  V30 5950 H 532.614 5.63969 -3.35074 0
M  V30 5951 H 532.531 5.5976 -5.08138 0
M  V30 5952 H 533.799 6.49837 -4.30502 0
M  V30 5953 N 538.028 1.39524 0.732853 0
M  V30 5954 C 539.439 1.32905 1.31122 0
M  V30 5955 C 539.79 -0.00558708 1.96199 0
M  V30 5956 O 538.915 -0.907706 1.96443 0
M  V30 5957 C 539.51 2.40704 2.38426 0
M  V30 5958 C 538.069 2.37599 2.91931 0
M  V30 5959 C 537.216 2.2248 1.65523 0
M  V30 5960 H 540.167 1.49581 0.530207 0
M  V30 5961 H 540.188 2.07616 3.18867 0
M  V30 5962 H 539.7 3.37829 1.91033 0
M  V30 5963 H 537.801 1.44119 3.43599 0
M  V30 5964 H 537.914 3.32538 3.44899 0
M  V30 5965 H 536.278 1.69691 1.8994 0
M  V30 5966 H 537.061 3.21577 1.20178 0
M  V30 5967 N 539.506 -0.963266 1.24736 0
M  V30 5968 C 540.453 -2.05857 1.04363 0
M  V30 5969 C 541.423 -1.6604 -0.0444951 0
M  V30 5970 O 542.608 -1.90477 0.110999 0
M  V30 5971 C 539.748 -3.38745 0.659235 0
M  V30 5972 C 538.861 -3.9173 1.82131 0
M  V30 5973 C 537.996 -5.12906 1.38208 0
M  V30 5974 C 537.035 -5.58098 2.51382 0
M  V30 5975 N 536.172 -6.7049 2.08295 0
M  V30 5976 H 541.012 -2.22616 1.98107 0
M  V30 5977 H 538.549 -1.09103 0.986661 0
M  V30 5978 H 540.507 -4.15107 0.417371 0
M  V30 5979 H 539.137 -3.21898 -0.241201 0
M  V30 5980 H 538.189 -3.11966 2.17672 0
M  V30 5981 H 539.501 -4.21225 2.67153 0
M  V30 5982 H 538.655 -5.96657 1.09935 0
M  V30 5983 H 537.394 -4.85105 0.502456 0
M  V30 5984 H 536.399 -4.72917 2.80409 0
M  V30 5985 H 537.624 -5.87911 3.39909 0
M  V30 5986 H 535.57 -6.44416 1.22737 0
M  V30 5987 H 535.487 -6.99458 2.86869 0
M  V30 5988 H 536.755 -7.57672 1.83175 0
M  V30 5989 N 540.985 -1.06182 -1.16461 0
M  V30 5990 C 541.948 -0.675723 -2.19013 0
M  V30 5991 C 542.948 0.277963 -1.58379 0
M  V30 5992 O 544.138 0.0604962 -1.74095 0
M  V30 5993 C 541.27 0.00591459 -3.40899 0
M  V30 5994 H 542.463 -1.58353 -2.54685 0
M  V30 5995 H 540.016 -0.856908 -1.30716 0
M  V30 5996 H 540.751 0.92652 -3.10783 0
M  V30 5997 H 540.536 -0.67984 -3.86161 0
M  V30 5998 H 542.026 0.26181 -4.16778 0
M  V30 5999 N 542.463 1.3308 -0.844243 0
M  V30 6000 C 543.393 2.3161 -0.296493 0
M  V30 6001 C 544.374 1.59215 0.598707 0
M  V30 6002 O 545.559 1.87077 0.521134 0
M  V30 6003 C 542.689 3.43313 0.524762 0
M  V30 6004 C 541.643 4.27115 -0.275106 0
M  V30 6005 C 540.969 5.30483 0.670236 0
M  V30 6006 C 542.269 5.00443 -1.49514 0
M  V30 6007 H 543.963 2.77672 -1.11976 0
M  V30 6008 H 541.509 1.33496 -0.539899 0
M  V30 6009 H 543.462 4.11273 0.918298 0
M  V30 6010 H 542.186 2.95952 1.3813 0
M  V30 6011 H 540.845 3.60787 -0.650267 0
M  V30 6012 H 540.493 4.79379 1.52332 0
M  V30 6013 H 540.193 5.87435 0.139123 0
M  V30 6014 H 541.717 6.01308 1.06117 0
M  V30 6015 H 543.131 5.61141 -1.17447 0
M  V30 6016 H 541.528 5.67071 -1.96343 0
M  V30 6017 H 542.598 4.28906 -2.26202 0
M  V30 6018 N 543.941 0.601185 1.45683 0
M  V30 6019 C 545.166 0.0982245 2.07167 0
M  V30 6020 C 545.591 -1.20546 1.44396 0
M  V30 6021 O 544.949 -1.73247 0.534347 0
M  V30 6022 C 544.997 -0.0346976 3.60583 0
M  V30 6023 O 544.101 -1.08657 3.97828 0
M  V30 6024 H 543.442 0.0711618 0.660176 0
M  V30 6025 H 545.972 0.829376 1.87036 0
M  V30 6026 H 545.982 -0.234969 4.07323 0
M  V30 6027 H 544.657 0.917265 4.05659 0
M  V30 6028 H 543.234 -0.863275 3.6277 0
M  V30 6029 N 545.419 -1.53889 0.339982 0
M  V30 6030 C 546.349 -2.27843 -0.510856 0
M  V30 6031 C 547.33 -1.29267 -1.10563 0
M  V30 6032 O 548.515 -1.58104 -1.12768 0
M  V30 6033 C 545.645 -3.04857 -1.66372 0
M  V30 6034 C 544.599 -4.10907 -1.19746 0
M  V30 6035 C 543.925 -4.75855 -2.43857 0
M  V30 6036 C 545.225 -5.21435 -0.300501 0
M  V30 6037 H 546.919 -2.99212 0.106067 0
M  V30 6038 H 544.465 -1.43904 0.0524533 0
M  V30 6039 H 546.418 -3.5533 -2.26537 0
M  V30 6040 H 545.142 -2.31133 -2.30749 0
M  V30 6041 H 543.801 -3.61342 -0.618654 0
M  V30 6042 H 543.449 -3.9873 -3.06633 0
M  V30 6043 H 543.149 -5.47502 -2.13343 0
M  V30 6044 H 544.673 -5.2911 -3.04754 0
M  V30 6045 H 546.087 -5.67565 -0.80889 0
M  V30 6046 H 544.484 -6.00036 -0.0874076 0
M  V30 6047 H 545.554 -4.80328 0.664321 0
M  V30 6048 N 546.897 -0.0685191 -1.57451 0
M  V30 6049 C 547.83 0.935736 -2.08133 0
M  V30 6050 C 548.808 1.29317 -0.985698 0
M  V30 6051 O 549.992 1.40304 -1.25886 0
M  V30 6052 C 547.119 2.2448 -2.53627 0
M  V30 6053 C 546.165 2.03917 -3.74593 0
M  V30 6054 S 546.998 1.30154 -5.19442 0
M  V30 6055 C 548.154 2.62346 -5.68265 0
M  V30 6056 H 548.387 0.504473 -2.92989 0
M  V30 6057 H 545.92 0.144169 -1.53725 0
M  V30 6058 H 547.878 2.99718 -2.80499 0
M  V30 6059 H 546.539 2.64731 -1.69045 0
M  V30 6060 H 545.732 3.00788 -4.04404 0
M  V30 6061 H 545.334 1.36815 -3.48077 0
M  V30 6062 H 547.626 3.58448 -5.7491 0
M  V30 6063 H 548.569 2.3715 -6.67207 0
M  V30 6064 H 548.977 2.69401 -4.96068 0
M  V30 6065 N 548.375 1.56261 0.205012 0
M  V30 6066 C 549.305 1.96779 1.257 0
M  V30 6067 C 550.286 0.838309 1.48008 0
M  V30 6068 O 551.471 1.10189 1.59913 0
M  V30 6069 C 548.601 2.29876 2.60335 0
M  V30 6070 C 547.555 3.45469 2.52656 0
M  V30 6071 C 546.881 3.64215 3.91473 0
M  V30 6072 C 548.181 4.79954 2.06014 0
M  V30 6073 H 549.875 2.84904 0.920338 0
M  V30 6074 H 547.421 1.37072 0.441277 0
M  V30 6075 H 549.374 2.56814 3.34102 0
M  V30 6076 H 548.098 1.38622 2.95722 0
M  V30 6077 H 546.757 3.18605 1.81345 0
M  V30 6078 H 546.405 2.70309 4.24196 0
M  V30 6079 H 546.105 4.41973 3.87213 0
M  V30 6080 H 547.629 3.93519 4.66878 0
M  V30 6081 H 549.043 5.05989 2.69533 0
M  V30 6082 H 547.44 5.61111 2.12777 0
M  V30 6083 H 548.51 4.74201 1.01297 0
M  V30 6084 N 549.853 -0.472356 1.50355 0
M  V30 6085 C 550.803 -1.56809 1.65514 0
M  V30 6086 C 551.787 -1.5261 0.509801 0
M  V30 6087 O 552.979 -1.59655 0.764145 0
M  V30 6088 C 550.108 -2.9526 1.75146 0
M  V30 6089 C 549.194 -3.04348 2.95353 0
M  V30 6090 N 549.585 -2.83253 4.19048 0
M  V30 6091 C 547.883 -3.35482 2.93884 0
M  V30 6092 C 548.584 -2.97273 5.00003 0
M  V30 6093 N 547.56 -3.27418 4.33934 0
M  V30 6094 H 551.362 -1.39197 2.58846 0
M  V30 6095 H 548.876 -0.67906 1.47521 0
M  V30 6096 H 550.873 -3.74044 1.8411 0
M  V30 6097 H 549.533 -3.1392 0.829717 0
M  V30 6098 H 550.544 -2.5886 4.48567 0
M  V30 6099 H 547.221 -3.60138 2.11204 0
M  V30 6100 H 548.611 -2.85214 6.08361 0
M  V30 6101 N 551.331 -1.39911 -0.725443 0
M  V30 6102 C 552.559 -1.40949 -1.51463 0
M  V30 6103 C 552.974 -0.0065242 -1.88799 0
M  V30 6104 O 552.331 0.967163 -1.54765 0
M  V30 6105 C 552.382 -2.29119 -2.79619 0
M  V30 6106 O 552.103 -3.63952 -2.43866 0
M  V30 6107 C 553.604 -2.38642 -3.73584 0
M  V30 6108 H 550.824 -0.481091 -0.467752 0
M  V30 6109 H 553.368 -1.83843 -0.895651 0
M  V30 6110 H 551.523 -1.89612 -3.37826 0
M  V30 6111 H 551.937 -4.10677 -3.26258 0
M  V30 6112 H 553.411 -3.04563 -4.60375 0
M  V30 6113 H 553.888 -1.40846 -4.16004 0
M  V30 6114 H 554.494 -2.78659 -3.21293 0
M  V30 6115 N 552.809 0.956637 -1.25245 0
M  V30 6116 C 553.772 2.03457 -1.05537 0
M  V30 6117 C 554.772 1.60798 -0.00886317 0
M  V30 6118 O 555.962 1.72384 -0.250865 0
M  V30 6119 C 553.094 3.35543 -0.601965 0
M  V30 6120 H 554.287 2.22372 -2.01223 0
M  V30 6121 H 551.84 1.13344 -1.07623 0
M  V30 6122 H 552.575 3.22323 0.357584 0
M  V30 6123 H 552.36 3.67854 -1.35743 0
M  V30 6124 H 553.85 4.14769 -0.485454 0
M  V30 6125 N 554.287 1.06798 1.15896 0
M  V30 6126 C 555.564 0.701057 1.82605 0
M  V30 6127 C 555.944 -0.817066 1.94646 0
M  V30 6128 O 555.292 -1.72933 1.49353 0
M  V30 6129 C 555.502 1.40895 3.19296 0
M  V30 6130 C 556.85 1.55744 3.95005 0
M  V30 6131 O 557.874 1.36927 3.28831 0
M  V30 6132 O 556.733 1.86658 5.13635 0
M  V30 6133 H 553.827 0.248791 0.78869 0
M  V30 6134 H 556.373 1.16857 1.23055 0
M  V30 6135 H 555.145 2.4439 3.05596 0
M  V30 6136 H 554.768 0.931847 3.86526 0
M  V30 6137 N 555.766 -1.3263 0.851289 0
M  V30 6138 C 557.015 -1.96633 0.449267 0
M  V30 6139 C 557.328 -1.68131 -0.999562 0
M  V30 6140 O 558.534 -2.25845 -1.50685 0
M  V30 6141 C 556.99 -3.51946 0.752446 0
M  V30 6142 C 556.598 -3.89311 2.21678 0
M  V30 6143 C 558.342 -4.22437 0.417983 0
M  V30 6144 C 556.249 -5.37655 2.46336 0
M  V30 6145 H 555.179 -0.735888 0.164269 0
M  V30 6146 H 557.83 -1.51073 1.0416 0
M  V30 6147 H 556.212 -3.95899 0.0895858 0
M  V30 6148 H 557.386 -3.56378 2.92115 0
M  V30 6149 H 555.701 -3.31836 2.51543 0
M  V30 6150 H 558.298 -5.31549 0.579674 0
M  V30 6151 H 558.641 -4.11349 -0.640115 0
M  V30 6152 H 559.174 -3.84057 1.03659 0
M  V30 6153 H 555.913 -5.5376 3.50757 0
M  V30 6154 H 555.433 -5.72005 1.80473 0
M  V30 6155 H 557.112 -6.04695 2.30115 0
M  V30 6156 N 557.244 -0.608902 -1.45362 0
M  V30 6157 C 558.469 -0.10921 -2.07112 0
M  V30 6158 C 558.894 1.19779 -1.45033 0
M  V30 6159 O 558.252 1.72961 -0.543527 0
M  V30 6160 C 558.3 0.0155745 -3.60597 0
M  V30 6161 O 557.404 1.06546 -3.98399 0
M  V30 6162 H 556.745 -0.0746619 -0.659789 0
M  V30 6163 H 559.275 -0.839283 -1.86594 0
M  V30 6164 H 559.285 0.213364 -4.07442 0
M  V30 6165 H 557.96 -0.938765 -4.05167 0
M  V30 6166 H 556.537 0.844024 -3.63223 0
M  V30 6167 N 558.722 1.53707 -0.348139 0
M  V30 6168 C 559.672 2.2193 0.522592 0
M  V30 6169 C 560.656 1.20831 1.06248 0
M  V30 6170 O 561.848 1.46357 0.995415 0
M  V30 6171 C 558.977 2.99904 1.6707 0
M  V30 6172 C 558.063 4.08364 1.14454 0
M  V30 6173 N 558.454 5.04656 0.339958 0
M  V30 6174 C 556.752 4.22757 1.421 0
M  V30 6175 C 557.453 5.81675 0.0538806 0
M  V30 6176 N 556.429 5.39739 0.646776 0
M  V30 6177 H 560.231 2.93733 -0.099135 0
M  V30 6178 H 557.745 1.61656 -0.15524 0
M  V30 6179 H 559.742 3.47284 2.30651 0
M  V30 6180 H 558.402 2.29629 2.29566 0
M  V30 6181 H 559.413 5.17896 -0.0193552 0
M  V30 6182 H 556.09 3.63704 2.05002 0
M  V30 6183 H 557.48 6.69256 -0.595443 0
M  V30 6184 N 560.2 0.0768682 1.57412 0
M  V30 6185 C 561.611 -0.455037 1.8107 0
M  V30 6186 C 561.962 -1.69323 0.991162 0
M  V30 6187 O 561.087 -2.15328 0.215156 0
M  V30 6188 C 561.682 -0.832316 3.28417 0
M  V30 6189 C 560.241 -1.30906 3.52903 0
M  V30 6190 C 559.388 -0.296714 2.75708 0
M  V30 6191 H 562.339 0.302514 1.5579 0
M  V30 6192 H 562.36 -1.69333 3.40744 0
M  V30 6193 H 561.872 0.0690532 3.88039 0
M  V30 6194 H 559.973 -2.22875 2.98592 0
M  V30 6195 H 560.086 -1.28348 4.61588 0
M  V30 6196 H 558.45 -0.775059 2.42621 0
M  V30 6197 H 559.233 0.597015 3.38069 0
M  V30 6198 N 561.678 -1.56367 -0.196722 0
M  V30 6199 C 562.641 -1.93561 -1.22746 0
M  V30 6200 C 563.641 -0.816566 -1.38524 0
M  V30 6201 O 564.831 -1.084 -1.36363 0
M  V30 6202 C 561.963 -2.20823 -2.59712 0
M  V30 6203 H 563.156 -2.85774 -0.909586 0
M  V30 6204 H 560.709 -1.50032 -0.438174 0
M  V30 6205 H 561.444 -1.31243 -2.96557 0
M  V30 6206 H 561.229 -3.02368 -2.49632 0
M  V30 6207 H 562.719 -2.50608 -3.34044 0
M  V30 6208 N 563.156 0.464375 -1.50603 0
M  V30 6209 C 564.103 1.56152 -1.69956 0
M  V30 6210 C 565.073 1.57046 -0.54091 0
M  V30 6211 O 566.258 1.74473 -0.772258 0
M  V30 6212 C 563.398 2.94079 -1.80586 0
M  V30 6213 C 562.511 3.02923 -3.07996 0
M  V30 6214 C 561.646 4.31806 -3.09382 0
M  V30 6215 C 560.685 4.34417 -4.31218 0
M  V30 6216 N 559.822 5.54782 -4.30304 0
M  V30 6217 H 564.662 1.38955 -2.6362 0
M  V30 6218 H 562.199 0.675482 -1.30674 0
M  V30 6219 H 564.157 3.74073 -1.8473 0
M  V30 6220 H 562.787 3.09896 -0.903556 0
M  V30 6221 H 561.839 2.1576 -3.13292 0
M  V30 6222 H 563.151 3.00712 -3.97962 0
M  V30 6223 H 562.305 5.20153 -3.12292 0
M  V30 6224 H 561.044 4.36636 -2.17257 0
M  V30 6225 H 560.049 3.44467 -4.28512 0
M  V30 6226 H 561.274 4.31273 -5.24576 0
M  V30 6227 H 559.22 5.60384 -3.41037 0
M  V30 6228 H 559.137 5.54339 -5.14047 0
M  V30 6229 H 560.405 6.45235 -4.3737 0
M  V30 6230 N 564.634 1.40294 0.718013 0
M  V30 6231 C 565.597 1.4012 1.81381 0
M  V30 6232 C 566.597 0.295405 1.58063 0
M  V30 6233 O 567.787 0.554187 1.6515 0
M  V30 6234 C 564.919 1.19056 3.19435 0
M  V30 6235 H 566.112 2.37645 1.82933 0
M  V30 6236 H 563.665 1.26107 0.923405 0
M  V30 6237 H 564.4 0.222809 3.23534 0
M  V30 6238 H 564.185 1.99152 3.37758 0
M  V30 6239 H 565.675 1.21716 3.99468 0
M  V30 6240 N 566.112 -0.949982 1.2575 0
M  V30 6241 C 567.358 -1.69822 1.11947 0
M  V30 6242 C 567.713 -1.89455 -0.335334 0
M  V30 6243 O 567.006 -1.45778 -1.24336 0
M  V30 6244 C 567.2 -3.08039 1.81237 0
M  V30 6245 C 567.029 -3.0189 3.33305 0
M  V30 6246 C 565.799 -3.05391 4.02573 0
M  V30 6247 C 567.997 -2.827 4.29634 0
M  V30 6248 N 565.979 -2.89449 5.4138 0
M  V30 6249 C 567.35 -2.75237 5.55558 0
M  V30 6250 C 569.405 -2.67416 4.19992 0
M  V30 6251 C 568.108 -2.54051 6.72942 0
M  V30 6252 C 570.134 -2.47602 5.37073 0
M  V30 6253 C 569.496 -2.40863 6.6194 0
M  V30 6254 H 565.595 -0.629188 0.464378 0
M  V30 6255 H 568.179 -1.1249 1.58916 0
M  V30 6256 H 566.35 -3.63528 1.36756 0
M  V30 6257 H 568.082 -3.71671 1.60134 0
M  V30 6258 H 564.837 -3.14763 3.53866 0
M  V30 6259 H 565.261 -2.84669 6.14241 0
M  V30 6260 H 569.903 -2.71398 3.24196 0
M  V30 6261 H 567.621 -2.48811 7.68842 0
M  V30 6262 H 571.207 -2.36694 5.31477 0
M  V30 6263 H 570.087 -2.25732 7.51009 0
M  V30 6264 N 567.59 -1.07411 -1.15328 0
M  V30 6265 C 568.867 -0.710732 -1.82231 0
M  V30 6266 C 569.247 0.806732 -1.95077 0
M  V30 6267 O 568.595 1.72139 -1.50268 0
M  V30 6268 C 568.805 -1.42586 -3.18544 0
M  V30 6269 C 570.153 -1.57836 -3.94174 0
M  V30 6270 O 571.177 -1.38669 -3.281 0
M  V30 6271 O 570.036 -1.8938 -5.12638 0
M  V30 6272 H 567.13 -0.25297 -0.78736 0
M  V30 6273 H 569.676 -1.17508 -1.22434 0
M  V30 6274 H 568.448 -2.46008 -3.04296 0
M  V30 6275 H 568.071 -0.952332 -3.86026 0
M  V30 6276 N 569.068 1.32177 -0.85831 0
M  V30 6277 C 569.998 2.31282 -0.321041 0
M  V30 6278 C 570.979 1.59841 0.581786 0
M  V30 6279 O 572.164 1.87619 0.501262 0
M  V30 6280 C 569.294 3.4385 0.48832 0
M  V30 6281 C 568.248 4.26799 -0.320391 0
M  V30 6282 C 567.574 5.31164 0.613934 0
M  V30 6283 C 568.874 4.98829 -1.54813 0
M  V30 6284 H 570.568 2.76469 -1.14915 0
M  V30 6285 H 568.114 1.32916 -0.554028 0
M  V30 6286 H 570.067 4.12224 0.874626 0
M  V30 6287 H 568.791 2.97401 1.34983 0
M  V30 6288 H 567.45 3.60077 -0.688497 0
M  V30 6289 H 567.098 4.80967 1.47239 0
M  V30 6290 H 566.798 5.8755 0.0768097 0
M  V30 6291 H 568.322 6.024 0.997336 0
M  V30 6292 H 569.736 5.59864 -1.23392 0
M  V30 6293 H 568.133 5.64957 -2.02346 0
M  V30 6294 H 569.203 4.26483 -2.30739 0
M  V30 6295 N 570.547 0.616602 1.45037 0
M  V30 6296 C 571.497 -0.118543 2.27692 0
M  V30 6297 C 572.481 -0.830025 1.37838 0
M  V30 6298 O 573.673 -0.718528 1.6176 0
M  V30 6299 C 570.802 -1.10924 3.24886 0
M  V30 6300 C 569.888 -0.398134 4.22227 0
M  V30 6301 N 570.279 0.565233 5.02632 0
M  V30 6302 C 568.577 -0.644506 4.41319 0
M  V30 6303 C 569.278 0.984043 5.73316 0
M  V30 6304 N 568.254 0.325879 5.42622 0
M  V30 6305 H 572.056 0.621239 2.87259 0
M  V30 6306 H 569.57 0.440968 1.56299 0
M  V30 6307 H 571.567 -1.65038 3.82842 0
M  V30 6308 H 570.227 -1.84948 2.66879 0
M  V30 6309 H 571.238 0.942395 5.09254 0
M  V30 6310 H 567.915 -1.36873 3.94426 0
M  V30 6311 H 569.305 1.77911 6.47918 0
M  V30 6312 N 572.025 -1.5352 0.356285 0
M  V30 6313 C 572.975 -2.22204 -0.510815 0
M  V30 6314 C 573.959 -1.21393 -1.05605 0
M  V30 6315 O 575.151 -1.46883 -0.987639 0
M  V30 6316 C 572.28 -3.00786 -1.65478 0
M  V30 6317 C 571.366 -4.08965 -1.12287 0
M  V30 6318 N 571.757 -5.04829 -0.313191 0
M  V30 6319 C 570.055 -4.23505 -1.39856 0
M  V30 6320 C 570.756 -5.81695 -0.0230322 0
M  V30 6321 N 569.732 -5.40074 -0.618144 0
M  V30 6322 H 573.534 -2.93676 0.114711 0
M  V30 6323 H 571.048 -1.61572 0.163811 0
M  V30 6324 H 573.045 -3.48502 -2.28806 0
M  V30 6325 H 571.705 -2.30843 -2.28345 0
M  V30 6326 H 572.716 -5.17879 0.0468202 0
M  V30 6327 H 569.393 -3.64786 -2.0307 0
M  V30 6328 H 570.783 -6.68931 0.630927 0
M  V30 6329 N 573.503 -0.0852151 -1.57369 0
M  V30 6330 C 574.919 0.271436 -1.57275 0
M  V30 6331 C 575.119 1.69109 -1.09565 0
M  V30 6332 O 574.175 2.40549 -0.767611 0
M  V30 6333 C 575.488 0.0688638 -3.00621 0
M  V30 6334 C 577.036 0.137373 -3.12698 0
M  V30 6335 C 577.511 -0.0370832 -4.57985 0
M  V30 6336 N 579.002 0.0180794 -4.63196 0
M  V30 6337 C 579.737 -0.0922953 -5.73326 0
M  V30 6338 N 579.233 -0.256948 -6.92323 0
M  V30 6339 N 581.026 -0.0342702 -5.6209 0
M  V30 6340 H 573.177 -1.01288 -1.86693 0
M  V30 6341 H 575.44 -0.396138 -0.861266 0
M  V30 6342 H 575.146 -0.911277 -3.39689 0
M  V30 6343 H 575.02 0.815442 -3.6828 0
M  V30 6344 H 577.407 1.10801 -2.73509 0
M  V30 6345 H 577.488 -0.640532 -2.47651 0
M  V30 6346 H 577.132 -1.00455 -4.97867 0
M  V30 6347 H 577.062 0.760392 -5.21081 0
M  V30 6348 H 579.553 0.143202 -3.77629 0
M  V30 6349 H 579.866 -0.332949 -7.72082 0
M  V30 6350 H 578.211 -0.292487 -6.94384 0
M  V30 6351 H 581.402 0.0931605 -4.68007 0
M  V30 6352 H 581.575 -0.12374 -6.47882 0
M  V30 6353 N 574.981 1.5647 0.188427 0
M  V30 6354 C 576.227 1.82181 0.904534 0
M  V30 6355 C 576.582 0.663258 1.80606 0
M  V30 6356 O 575.875 -0.341231 1.88537 0
M  V30 6357 C 576.069 3.11596 1.7505 0
M  V30 6358 C 575.898 4.39928 0.932372 0
M  V30 6359 C 574.668 5.01554 0.61417 0
M  V30 6360 C 576.866 5.13527 0.281936 0
M  V30 6361 N 574.848 6.13499 -0.221896 0
M  V30 6362 C 576.219 6.18603 -0.416037 0
M  V30 6363 C 578.274 4.97505 0.198345 0
M  V30 6364 C 576.977 7.09394 -1.18965 0
M  V30 6365 C 579.003 5.88725 -0.561887 0
M  V30 6366 C 578.365 6.93251 -1.24828 0
M  V30 6367 H 574.464 0.717858 0.310168 0
M  V30 6368 H 577.048 1.93932 0.172757 0
M  V30 6369 H 575.219 3.01068 2.45383 0
M  V30 6370 H 576.951 3.25369 2.4066 0
M  V30 6371 H 573.706 4.64174 0.940187 0
M  V30 6372 H 574.13 6.74065 -0.629735 0
M  V30 6373 H 578.772 4.16716 0.714665 0
M  V30 6374 H 576.49 7.8964 -1.71737 0
M  V30 6375 H 580.076 5.78401 -0.628009 0
M  V30 6376 H 578.956 7.62618 -1.82712 0
M  V30 6377 N 576.459 -0.456382 1.50847 0
M  V30 6378 C 577.687 -1.23026 1.66349 0
M  V30 6379 C 578.102 -1.85473 0.352868 0
M  V30 6380 O 577.459 -1.69885 -0.666739 0
M  V30 6381 C 577.51 -2.32827 2.76539 0
M  V30 6382 O 577.231 -1.72938 4.02522 0
M  V30 6383 C 578.732 -3.23448 3.03144 0
M  V30 6384 H 575.952 -0.371527 0.558756 0
M  V30 6385 H 578.496 -0.543082 1.97157 0
M  V30 6386 H 576.651 -2.97294 2.48384 0
M  V30 6387 H 577.065 -2.45357 4.63573 0
M  V30 6388 H 578.539 -3.96669 3.83872 0
M  V30 6389 H 579.016 -3.83094 2.14793 0
M  V30 6390 H 579.622 -2.64702 3.32886 0
M  V30 6391 N 577.937 -1.40673 -0.710563 0
M  V30 6392 C 578.87 -1.35742 -1.83438 0
M  V30 6393 C 579.848 -0.226997 -1.61008 0
M  V30 6394 O 581.032 -0.411477 -1.83954 0
M  V30 6395 C 578.159 -1.11374 -3.19865 0
M  V30 6396 C 577.205 -2.26935 -3.61113 0
M  V30 6397 S 578.038 -3.89352 -3.67648 0
M  V30 6398 C 579.194 -3.67258 -5.06826 0
M  V30 6399 H 579.427 -2.30848 -1.87341 0
M  V30 6400 H 576.96 -1.27018 -0.877831 0
M  V30 6401 H 578.918 -0.980004 -3.9863 0
M  V30 6402 H 577.579 -0.179135 -3.13589 0
M  V30 6403 H 576.772 -2.0554 -4.60184 0
M  V30 6404 H 576.374 -2.36638 -2.89618 0
M  V30 6405 H 578.666 -3.26036 -5.93891 0
M  V30 6406 H 579.609 -4.65878 -5.33257 0
M  V30 6407 H 580.017 -3.0084 -4.77656 0
M  V30 6408 N 579.415 0.9433 -1.26252 0
M  V30 6409 C 580.64 1.72898 -1.14547 0
M  V30 6410 C 581.065 1.85761 0.295743 0
M  V30 6411 O 580.423 1.3463 1.21427 0
M  V30 6412 C 580.471 3.11471 -1.8171 0
M  V30 6413 O 579.575 3.97336 -1.10445 0
M  V30 6414 H 578.916 0.530555 -0.399259 0
M  V30 6415 H 581.446 1.18159 -1.67032 0
M  V30 6416 H 581.456 3.61872 -1.88449 0
M  V30 6417 H 580.131 3.01425 -2.86558 0
M  V30 6418 H 578.708 3.55788 -1.11666 0
M  V30 6419 N 580.893 1.08022 1.14757 0
M  V30 6420 C 581.823 0.728248 2.21853 0
M  V30 6421 C 582.804 -0.287486 1.67653 0
M  V30 6422 O 583.989 -0.158727 1.9355 0
M  V30 6423 C 581.119 0.132549 3.47047 0
M  V30 6424 C 580.073 1.07619 4.14249 0
M  V30 6425 C 579.399 0.342907 5.33599 0
M  V30 6426 C 580.699 2.41268 4.63235 0
M  V30 6427 H 582.393 1.62365 2.51551 0
M  V30 6428 H 579.939 0.782125 1.20908 0
M  V30 6429 H 581.892 -0.125665 4.21213 0
M  V30 6430 H 580.616 -0.797971 3.16702 0
M  V30 6431 H 579.275 1.31944 3.42033 0
M  V30 6432 H 578.923 -0.59129 4.99513 0
M  V30 6433 H 578.623 0.971955 5.79506 0
M  V30 6434 H 580.147 0.0926538 6.1053 0
M  V30 6435 H 581.561 2.21232 5.28894 0
M  V30 6436 H 579.958 2.9983 5.19829 0
M  V30 6437 H 581.028 3.03079 3.78512 0
M  V30 6438 N 582.371 -1.3172 0.865308 0
M  V30 6439 C 583.301 -2.31109 0.333302 0
M  V30 6440 C 584.282 -1.60148 -0.573301 0
M  V30 6441 O 585.467 -1.87882 -0.491305 0
M  V30 6442 C 582.597 -3.44104 -0.470078 0
M  V30 6443 C 581.551 -4.26623 0.343021 0
M  V30 6444 C 580.877 -5.31482 -0.585756 0
M  V30 6445 C 582.177 -4.98001 1.57456 0
M  V30 6446 H 583.871 -2.75855 1.1638 0
M  V30 6447 H 581.417 -1.3262 0.561069 0
M  V30 6448 H 583.37 -4.12682 -0.852752 0
M  V30 6449 H 582.094 -2.98112 -1.33404 0
M  V30 6450 H 580.753 -3.59707 0.707583 0
M  V30 6451 H 580.401 -4.81741 -1.44686 0
M  V30 6452 H 580.101 -5.87582 -0.0456494 0
M  V30 6453 H 581.625 -6.0292 -0.965375 0
M  V30 6454 H 583.039 -5.59201 1.26359 0
M  V30 6455 H 581.436 -5.63876 2.05339 0
M  V30 6456 H 582.506 -4.25253 2.32997 0
M  V30 6457 N 583.85 -0.624285 -1.44708 0
M  V30 6458 C 584.76 0.0861083 -2.34442 0
M  V30 6459 C 585.776 0.84291 -1.5222 0
M  V30 6460 O 586.952 0.796723 -1.84971 0
M  V30 6461 C 584.017 1.05999 -3.30099 0
M  V30 6462 C 583.077 0.303316 -4.28227 0
M  V30 6463 C 582.311 1.23081 -5.19314 0
M  V30 6464 O 582.534 2.46929 -5.14181 0
M  V30 6465 O 581.468 0.71883 -5.97592 0
M  V30 6466 H 585.293 -0.651756 -2.96624 0
M  V30 6467 H 582.879 -0.384493 -1.44368 0
M  V30 6468 H 584.76 1.62046 -3.88997 0
M  V30 6469 H 583.436 1.77859 -2.70459 0
M  V30 6470 H 582.343 -0.300033 -3.72895 0
M  V30 6471 H 583.676 -0.375123 -4.90768 0
M  V30 6472 N 585.328 1.53329 -0.364422 0
M  V30 6473 C 586.238 2.29414 0.490552 0
M  V30 6474 C 587.254 1.35335 1.09363 0
M  V30 6475 O 588.43 1.68391 1.10483 0
M  V30 6476 C 585.495 3.06772 1.61529 0
M  V30 6477 C 584.556 4.16516 1.03986 0
M  V30 6478 C 583.789 4.90176 2.111 0
M  V30 6479 O 584.012 4.63687 3.32191 0
M  V30 6480 O 582.946 5.76134 1.74222 0
M  V30 6481 H 586.772 3.03428 -0.12856 0
M  V30 6482 H 584.357 1.48843 -0.128837 0
M  V30 6483 H 586.239 3.55082 2.26924 0
M  V30 6484 H 584.914 2.35596 2.21983 0
M  V30 6485 H 583.821 3.7246 0.349856 0
M  V30 6486 H 585.154 4.89855 0.4799 0
M  V30 6487 N 586.806 0.0935595 1.57322 0
M  V30 6488 C 588.053 -0.570509 1.94297 0
M  V30 6489 C 588.381 -1.68286 0.97519 0
M  V30 6490 O 587.636 -1.95699 -0.00548655 0
M  V30 6491 C 587.935 -1.16692 3.37813 0
M  V30 6492 C 587.601 -0.178509 4.50547 0
M  V30 6493 C 586.263 0.0933475 4.81109 0
M  V30 6494 C 588.615 0.496472 5.1883 0
M  V30 6495 C 585.943 1.0469 5.77284 0
M  V30 6496 C 588.295 1.43849 6.16028 0
M  V30 6497 C 586.959 1.71859 6.44997 0
M  V30 6498 H 586.229 -0.208764 0.710984 0
M  V30 6499 H 588.876 0.169066 1.90752 0
M  V30 6500 H 587.181 -1.98271 3.37929 0
M  V30 6501 H 588.878 -1.6884 3.63722 0
M  V30 6502 H 585.468 -0.400584 4.26724 0
M  V30 6503 H 589.652 0.299584 4.95395 0
M  V30 6504 H 584.908 1.27094 5.98044 0
M  V30 6505 H 589.082 1.96734 6.68034 0
M  V30 6506 H 586.709 2.45906 7.19329 0
M  V30 6507 N 588.284 -1.56567 -0.180126 0
M  V30 6508 C 589.531 -1.81492 -0.898167 0
M  V30 6509 C 589.859 -0.669225 -1.82624 0
M  V30 6510 O 589.114 0.344096 -1.92651 0
M  V30 6511 C 589.413 -3.1252 -1.73395 0
M  V30 6512 C 589.079 -4.40658 -0.955567 0
M  V30 6513 C 587.741 -4.75465 -0.740707 0
M  V30 6514 C 590.093 -5.19593 -0.408948 0
M  V30 6515 C 587.421 -5.86691 0.0320128 0
M  V30 6516 C 589.773 -6.31627 0.350638 0
M  V30 6517 C 588.437 -6.65007 0.576378 0
M  V30 6518 H 587.707 -0.664125 -0.328662 0
M  V30 6519 H 590.354 -1.908 -0.163616 0
M  V30 6520 H 588.659 -2.98515 -2.53763 0
M  V30 6521 H 590.356 -3.29013 -2.29241 0
M  V30 6522 H 586.946 -4.13352 -1.13306 0
M  V30 6523 H 591.13 -4.93104 -0.562307 0
M  V30 6524 H 586.386 -6.11016 0.216735 0
M  V30 6525 H 590.56 -6.92001 0.781497 0
M  V30 6526 H 588.187 -7.51033 1.17703 0
M  V30 6527 N 589.762 0.448376 -1.51087 0
M  V30 6528 C 591.178 0.783984 -1.39017 0
M  V30 6529 C 591.378 1.96087 -0.463904 0
M  V30 6530 O 590.434 2.52357 0.0850534 0
M  V30 6531 C 591.747 1.07471 -2.80839 0
M  V30 6532 C 593.295 1.17981 -2.89913 0
M  V30 6533 C 593.77 1.50354 -4.32617 0
M  V30 6534 N 595.261 1.57301 -4.35673 0
M  V30 6535 C 595.996 1.839 -5.4311 0
M  V30 6536 N 595.492 2.08365 -6.60724 0
M  V30 6537 N 597.285 1.8559 -5.30578 0
M  V30 6538 H 589.436 -0.326881 -2.0987 0
M  V30 6539 H 591.699 -0.0838006 -0.944289 0
M  V30 6540 H 591.405 0.282768 -3.50561 0
M  V30 6541 H 591.279 2.00519 -3.19487 0
M  V30 6542 H 593.666 1.9624 -2.20395 0
M  V30 6543 H 593.747 0.228603 -2.54776 0
M  V30 6544 H 593.391 0.726273 -5.0268 0
M  V30 6545 H 593.321 2.46663 -4.65258 0
M  V30 6546 H 595.812 1.40342 -3.50874 0
M  V30 6547 H 596.125 2.27999 -7.38401 0
M  V30 6548 H 594.47 2.0571 -6.63859 0
M  V30 6549 H 597.661 1.65989 -4.37682 0
M  V30 6550 H 597.834 2.05983 -6.1439 0
M  V30 6551 N 591.24 1.41047 0.703093 0
M  V30 6552 C 592.172 1.38228 1.82827 0
M  V30 6553 C 593.185 0.285637 1.60275 0
M  V30 6554 O 594.374 0.54685 1.69917 0
M  V30 6555 C 591.474 1.13136 3.19458 0
M  V30 6556 C 590.647 2.34695 3.69103 0
M  V30 6557 C 589.706 2.05574 4.84382 0
M  V30 6558 O 588.732 2.78549 4.96386 0
M  V30 6559 N 589.934 1.04135 5.71083 0
M  V30 6560 H 592.699 2.35203 1.85741 0
M  V30 6561 H 590.26 1.35562 0.885125 0
M  V30 6562 H 592.252 0.916183 3.94193 0
M  V30 6563 H 590.822 0.247836 3.11616 0
M  V30 6564 H 590.042 2.71963 2.85359 0
M  V30 6565 H 591.33 3.15705 3.99009 0
M  V30 6566 H 590.728 0.43722 5.64008 0
M  V30 6567 H 589.285 0.886078 6.45749 0
M  V30 6568 N 592.718 -0.936591 1.26751 0
M  V30 6569 C 593.966 -1.67998 1.12343 0
M  V30 6570 C 594.287 -1.92137 -0.332938 0
M  V30 6571 O 593.557 -1.52132 -1.23421 0
M  V30 6572 H 592.137 -0.622609 0.412756 0
M  V30 6573 H 594.799 -1.12509 1.59147 0
M  V30 6574 H 593.895 -2.65185 1.64571 0
M  V30 6575 N 594.196 -1.08629 -1.14182 0
M  V30 6576 C 595.473 -0.73002 -1.81466 0
M  V30 6577 C 595.853 0.785996 -1.95922 0
M  V30 6578 O 595.201 1.70535 -1.52086 0
M  V30 6579 C 595.411 -1.45957 -3.17014 0
M  V30 6580 C 596.759 -1.62008 -3.92477 0
M  V30 6581 O 597.783 -1.42141 -3.26611 0
M  V30 6582 O 596.642 -1.94806 -5.106 0
M  V30 6583 H 593.736 -0.261307 -0.784632 0
M  V30 6584 H 596.282 -1.188 -1.2118 0
M  V30 6585 H 595.054 -2.49221 -3.01669 0
M  V30 6586 H 594.677 -0.993222 -3.84995 0
M  V30 6587 N 595.674 1.31259 -0.872281 0
M  V30 6588 C 597.09 1.49283 -0.564521 0
M  V30 6589 C 597.29 1.80243 0.900807 0
M  V30 6590 O 596.346 1.88246 1.68284 0
M  V30 6591 C 597.659 2.62503 -1.46673 0
M  V30 6592 C 599.207 2.76386 -1.46901 0
M  V30 6593 C 599.682 3.92705 -2.35684 0
M  V30 6594 N 601.173 3.99995 -2.33577 0
M  V30 6595 C 601.908 4.89276 -2.98992 0
M  V30 6596 N 601.404 5.83443 -3.73585 0
M  V30 6597 N 603.197 4.82541 -2.88289 0
M  V30 6598 H 595.348 1.09432 -1.82039 0
M  V30 6599 H 597.611 0.540949 -0.77851 0
M  V30 6600 H 597.317 2.46407 -2.50951 0
M  V30 6601 H 597.191 3.58695 -1.16696 0
M  V30 6602 H 599.578 2.91894 -0.433796 0
M  V30 6603 H 599.659 1.80853 -1.80903 0
M  V30 6604 H 599.303 3.77954 -3.39283 0
M  V30 6605 H 599.233 4.87549 -1.99006 0
M  V30 6606 H 601.724 3.32624 -1.7936 0
M  V30 6607 H 602.037 6.48303 -4.20622 0
M  V30 6608 H 600.382 5.83415 -3.77694 0
M  V30 6609 H 603.573 4.07951 -2.2955 0
M  V30 6610 H 603.746 5.51916 -3.39549 0
M  V30 6611 N 597.152 0.631951 1.44375 0
M  V30 6612 C 598.062 -0.073674 2.34484 0
M  V30 6613 C 599.078 -0.834825 1.52665 0
M  V30 6614 O 600.254 -0.786902 1.85391 0
M  V30 6615 C 597.319 -1.04247 3.30656 0
M  V30 6616 C 596.38 -0.280602 4.28382 0
M  V30 6617 C 595.613 -1.20325 5.19959 0
M  V30 6618 O 595.836 -2.44199 5.15484 0
M  V30 6619 O 594.77 -0.687128 5.97965 0
M  V30 6620 H 598.596 0.667477 2.96274 0
M  V30 6621 H 596.181 0.392144 1.44162 0
M  V30 6622 H 598.063 -1.59981 3.89851 0
M  V30 6623 H 596.738 -1.76422 2.71398 0
M  V30 6624 H 595.645 0.319804 3.72731 0
M  V30 6625 H 596.978 0.401144 4.90563 0
M  V30 6626 N 598.631 -1.53133 0.372548 0
M  V30 6627 C 599.594 -2.24569 -0.458389 0
M  V30 6628 C 600.594 -1.25603 -1.00402 0
M  V30 6629 O 601.784 -1.49827 -0.888672 0
M  V30 6630 C 598.916 -2.98783 -1.6414 0
M  V30 6631 H 600.109 -2.99436 0.166799 0
M  V30 6632 H 597.662 -1.55805 0.124357 0
M  V30 6633 H 598.397 -2.28176 -2.30448 0
M  V30 6634 H 598.182 -3.71404 -1.25704 0
M  V30 6635 H 599.672 -3.53068 -2.23008 0
M  V30 6636 N 600.109 -0.101901 -1.5727 0
M  V30 6637 C 601.019 0.868647 -2.17926 0
M  V30 6638 C 602.035 1.30527 -1.1506 0
M  V30 6639 O 603.211 1.37178 -1.47459 0
M  V30 6640 C 600.276 2.10727 -2.75309 0
M  V30 6641 C 599.337 1.7242 -3.93154 0
M  V30 6642 C 598.57 2.90377 -4.47791 0
M  V30 6643 O 598.793 4.05305 -4.01353 0
M  V30 6644 O 597.727 2.6845 -5.38719 0
M  V30 6645 H 601.553 0.382544 -3.01281 0
M  V30 6646 H 599.138 0.122812 -1.48894 0
M  V30 6647 H 601.02 2.83303 -3.11958 0
M  V30 6648 H 599.695 2.58376 -1.94996 0
M  V30 6649 H 598.602 0.970039 -3.61305 0
M  V30 6650 H 599.935 1.29528 -4.74851 0
M  V30 6651 N 601.587 1.56661 0.17182 0
M  V30 6652 C 602.517 1.99401 1.21498 0
M  V30 6653 C 603.498 0.869516 1.46197 0
M  V30 6654 O 604.683 1.13556 1.57539 0
M  V30 6655 C 601.813 2.35346 2.55401 0
M  V30 6656 C 600.767 3.5075 2.45272 0
M  V30 6657 C 600.093 3.72437 3.8366 0
M  V30 6658 C 601.393 4.84216 1.95787 0
M  V30 6659 H 603.087 2.86792 0.859699 0
M  V30 6660 H 600.633 1.37977 0.412103 0
M  V30 6661 H 602.586 2.63843 3.2858 0
M  V30 6662 H 601.31 1.44864 2.92715 0
M  V30 6663 H 599.969 3.2238 1.74547 0
M  V30 6664 H 599.617 2.79246 4.18367 0
M  V30 6665 H 599.317 4.50087 3.77751 0
M  V30 6666 H 600.841 4.03334 4.58426 0
M  V30 6667 H 602.255 5.11592 2.5874 0
M  V30 6668 H 600.652 5.65498 2.00827 0
M  V30 6669 H 601.722 4.76243 0.912159 0
M  V30 6670 N 603.065 -0.440357 1.51323 0
M  V30 6671 C 604.313 -1.18769 1.63518 0
M  V30 6672 C 604.634 -1.91793 0.352201 0
M  V30 6673 O 603.904 -1.85432 -0.631811 0
M  V30 6674 H 602.484 -0.441408 0.602634 0
M  V30 6675 H 605.146 -0.505162 1.8824 0
M  V30 6676 H 604.242 -1.91892 2.46138 0
M  V30 6677 N 604.543 -1.41418 -0.695603 0
M  V30 6678 C 605.473 -1.46035 -1.82197 0
M  V30 6679 C 606.454 -0.319025 -1.67082 0
M  V30 6680 O 607.639 -0.530462 -1.86815 0
M  V30 6681 C 604.769 -1.34179 -3.20333 0
M  V30 6682 C 603.723 -2.46123 -3.50154 0
M  V30 6683 C 603.049 -2.19332 -4.87645 0
M  V30 6684 C 604.349 -3.88463 -3.49133 0
M  V30 6685 H 606.043 -2.40303 -1.78591 0
M  V30 6686 H 603.589 -1.15663 -0.857797 0
M  V30 6687 H 605.542 -1.36021 -3.98844 0
M  V30 6688 H 604.266 -0.363952 -3.24566 0
M  V30 6689 H 602.925 -2.43563 -2.73994 0
M  V30 6690 H 602.573 -1.19891 -4.88503 0
M  V30 6691 H 602.273 -2.94344 -5.08562 0
M  V30 6692 H 603.797 -2.22889 -5.68465 0
M  V30 6693 H 605.211 -3.92738 -4.17648 0
M  V30 6694 H 603.608 -4.63158 -3.81582 0
M  V30 6695 H 604.678 -4.16617 -2.48109 0
M  V30 6696 N 606.021 0.929856 -1.27246 0
M  V30 6697 C 607.432 1.49223 -1.12203 0
M  V30 6698 C 607.783 1.93989 0.293731 0
M  V30 6699 O 606.908 1.80978 1.18642 0
M  V30 6700 C 607.503 2.71198 -2.0307 0
M  V30 6701 C 606.062 3.23666 -1.92139 0
M  V30 6702 C 605.209 1.96409 -1.95752 0
M  V30 6703 H 608.16 0.744181 -1.4017 0
M  V30 6704 H 608.181 3.45905 -1.58524 0
M  V30 6705 H 607.693 2.38585 -3.06102 0
M  V30 6706 H 605.794 3.61042 -0.920834 0
M  V30 6707 H 605.907 3.90006 -2.78267 0
M  V30 6708 H 604.271 2.12806 -1.39949 0
M  V30 6709 H 605.054 1.66113 -3.00436 0
M  V30 6710 N 607.499 1.09233 1.13605 0
M  V30 6711 C 608.746 0.827159 1.84836 0
M  V30 6712 C 609.074 -0.647199 1.83416 0
M  V30 6713 O 608.329 -1.49228 1.26608 0
M  V30 6714 C 608.628 1.305 3.32723 0
M  V30 6715 C 608.294 2.78864 3.54325 0
M  V30 6716 C 606.956 3.19382 3.59928 0
M  V30 6717 C 609.308 3.74532 3.62457 0
M  V30 6718 C 606.636 4.54346 3.71196 0
M  V30 6719 C 608.988 5.09283 3.75252 0
M  V30 6720 C 607.652 5.49394 3.79108 0
M  V30 6721 H 606.922 0.302679 0.676363 0
M  V30 6722 H 609.569 1.36676 1.34134 0
M  V30 6723 H 607.874 0.68517 3.85762 0
M  V30 6724 H 609.571 1.07648 3.86281 0
M  V30 6725 H 606.161 2.46507 3.50617 0
M  V30 6726 H 610.345 3.44343 3.57409 0
M  V30 6727 H 605.601 4.84864 3.72447 0
M  V30 6728 H 609.775 5.83269 3.80487 0
M  V30 6729 H 607.402 6.5397 3.87591 0
M  V30 6730 N 608.977 -1.30795 0.87923 0
M  V30 6731 C 610.202 -2.01063 0.508769 0
M  V30 6732 C 610.627 -1.65508 -0.893803 0
M  V30 6733 O 609.985 -0.868616 -1.59138 0
M  V30 6734 C 610.033 -3.54054 0.683991 0
M  V30 6735 O 609.137 -4.11498 -0.272654 0
M  V30 6736 H 608.478 -0.632786 0.201191 0
M  V30 6737 H 611.008 -1.66776 1.18519 0
M  V30 6738 H 611.018 -4.03845 0.580798 0
M  V30 6739 H 609.693 -3.79271 1.70665 0
M  V30 6740 H 608.27 -3.72695 -0.12364 0
M  V30 6741 N 610.455 -0.639598 -1.44038 0
M  V30 6742 C 611.866 -0.228866 -1.85292 0
M  V30 6743 C 612.217 1.22161 -1.53529 0
M  V30 6744 O 611.342 1.93064 -0.977518 0
M  V30 6745 C 611.937 -0.408592 -3.36327 0
M  V30 6746 C 610.496 -0.0522953 -3.76364 0
M  V30 6747 C 609.643 -0.717959 -2.67844 0
M  V30 6748 H 612.594 -0.844194 -1.34384 0
M  V30 6749 H 612.615 0.349968 -3.78887 0
M  V30 6750 H 612.127 -1.46435 -3.59414 0
M  V30 6751 H 610.228 1.0014 -3.58891 0
M  V30 6752 H 610.341 -0.468261 -4.76806 0
M  V30 6753 H 608.705 -0.152459 -2.54243 0
M  V30 6754 H 609.488 -1.77648 -2.93762 0
M  V30 6755 N 611.933 1.52934 -0.380664 0
M  V30 6756 C 612.863 2.29118 0.450268 0
M  V30 6757 C 613.844 1.32153 1.07096 0
M  V30 6758 O 615.029 1.61038 1.08537 0
M  V30 6759 C 612.159 3.09161 1.58231 0
M  V30 6760 C 611.113 4.13938 1.0881 0
M  V30 6761 C 610.439 4.82153 2.31155 0
M  V30 6762 C 611.739 5.22048 0.162146 0
M  V30 6763 H 613.433 2.98826 -0.185361 0
M  V30 6764 H 610.979 1.43715 -0.0905886 0
M  V30 6765 H 612.932 3.61211 2.17036 0
M  V30 6766 H 611.656 2.3717 2.2454 0
M  V30 6767 H 610.315 3.62855 0.522633 0
M  V30 6768 H 609.963 4.06719 2.95953 0
M  V30 6769 H 609.663 5.52966 1.98752 0
M  V30 6770 H 611.187 5.37004 2.90618 0
M  V30 6771 H 612.601 5.6951 0.658126 0
M  V30 6772 H 610.998 6.00057 -0.0717122 0
M  V30 6773 H 612.068 4.78398 -0.791438 0
M  V30 6774 N 613.412 0.11024 1.57214 0
M  V30 6775 C 614.652 -0.553061 1.96775 0
M  V30 6776 C 615.016 -1.64403 0.991753 0
M  V30 6777 O 616.217 -2.36561 1.27642 0
M  V30 6778 C 614.488 -1.08004 3.4069 0
M  V30 6779 S 616.047 -1.75309 4.02259 0
M  V30 6780 H 612.865 -0.18003 0.68783 0
M  V30 6781 H 615.467 0.193242 1.94543 0
M  V30 6782 H 614.171 -0.274735 4.09479 0
M  V30 6783 H 613.702 -1.86182 3.46554 0
M  V30 6784 H 615.717 -3.03834 3.923 0
M  V30 6785 N 614.89 -1.56749 -0.16351 0
M  V30 6786 C 616.167 -1.73321 -0.906599 0
M  V30 6787 C 616.547 -0.673779 -2.00059 0
M  V30 6788 O 615.895 0.310121 -2.26386 0
M  V30 6789 C 616.105 -3.168 -1.46419 0
M  V30 6790 C 617.453 -3.77993 -1.93407 0
M  V30 6791 O 618.477 -3.20127 -1.56196 0
M  V30 6792 O 617.336 -4.79615 -2.61976 0
M  V30 6793 H 614.43 -0.708073 -0.427272 0
M  V30 6794 H 616.976 -1.69029 -0.150727 0
M  V30 6795 H 615.748 -3.85396 -0.677189 0
M  V30 6796 H 615.371 -3.2545 -2.28403 0
M  V30 6797 N 616.368 0.432326 -1.51554 0
M  V30 6798 C 617.784 0.769195 -1.39841 0
M  V30 6799 C 617.984 1.95584 -0.484675 0
M  V30 6800 O 617.04 2.52433 0.0582829 0
M  V30 6801 C 618.353 1.04487 -2.81963 0
M  V30 6802 C 619.901 1.149 -2.91148 0
M  V30 6803 C 620.376 1.45758 -4.34187 0
M  V30 6804 N 621.867 1.52671 -4.37317 0
M  V30 6805 C 622.602 1.78129 -5.4503 0
M  V30 6806 N 622.098 2.01345 -6.62897 0
M  V30 6807 N 623.891 1.79953 -5.32516 0
M  V30 6808 H 616.042 -0.349122 -2.09511 0
M  V30 6809 H 618.305 -0.0938113 -0.943347 0
M  V30 6810 H 618.011 0.24557 -3.50842 0
M  V30 6811 H 617.885 1.97119 -3.21596 0
M  V30 6812 H 620.272 1.93891 -2.22464 0
M  V30 6813 H 620.353 0.201568 -2.55005 0
M  V30 6814 H 619.997 0.672917 -5.03423 0
M  V30 6815 H 619.927 2.41715 -4.67848 0
M  V30 6816 H 622.418 1.36612 -3.52343 0
M  V30 6817 H 622.731 2.20155 -7.40778 0
M  V30 6818 H 621.076 1.98657 -6.66003 0
M  V30 6819 H 624.267 1.61337 -4.39418 0
M  V30 6820 H 624.44 1.99455 -6.1654 0
M  V30 6821 N 617.846 1.41785 0.688094 0
M  V30 6822 C 618.793 1.44221 1.80191 0
M  V30 6823 C 619.763 0.295688 1.63447 0
M  V30 6824 O 620.948 0.49783 1.84191 0
M  V30 6825 C 618.088 1.33743 3.1813 0
M  V30 6826 C 617.201 2.58325 3.46254 0
M  V30 6827 C 616.336 2.40086 4.73848 0
M  V30 6828 C 615.375 3.60107 4.94964 0
M  V30 6829 N 614.512 3.40892 6.13789 0
M  V30 6830 H 619.352 2.39411 1.77444 0
M  V30 6831 H 616.889 1.18876 0.866423 0
M  V30 6832 H 618.847 1.25669 3.97823 0
M  V30 6833 H 617.477 0.42157 3.20035 0
M  V30 6834 H 616.529 2.7682 2.60912 0
M  V30 6835 H 617.841 3.4758 3.57756 0
M  V30 6836 H 616.995 2.29522 5.61609 0
M  V30 6837 H 615.734 1.483 4.64606 0
M  V30 6838 H 614.739 3.71118 4.05649 0
M  V30 6839 H 615.964 4.52857 5.06061 0
M  V30 6840 H 613.91 2.51812 6.05745 0
M  V30 6841 H 613.827 4.23727 6.26092 0
M  V30 6842 H 615.095 3.34114 7.04264 0
M  V30 6843 N 619.324 -0.923095 1.27737 0
M  V30 6844 C 620.549 -1.71054 1.17283 0
M  V30 6845 C 620.974 -1.86208 -0.266153 0
M  V30 6846 O 620.332 -1.36545 -1.1927 0
M  V30 6847 C 620.38 -3.0854 1.86642 0
M  V30 6848 O 619.484 -3.95528 1.16752 0
M  V30 6849 H 618.825 -0.524136 0.407649 0
M  V30 6850 H 621.355 -1.15487 1.6889 0
M  V30 6851 H 621.365 -3.58828 1.94182 0
M  V30 6852 H 620.04 -2.96828 2.91317 0
M  V30 6853 H 618.617 -3.53967 1.17312 0
M  V30 6854 N 620.802 -1.09834 -1.13024 0
M  V30 6855 C 622.03 -0.858902 -1.8823 0
M  V30 6856 C 622.445 0.590164 -1.79339 0
M  V30 6857 O 621.802 1.4065 -1.16292 0
M  V30 6858 C 621.853 -1.29066 -3.37675 0
M  V30 6859 O 621.574 -2.6829 -3.46341 0
M  V30 6860 C 623.075 -1.08421 -4.29837 0
M  V30 6861 H 620.295 -0.308713 -0.595766 0
M  V30 6862 H 622.839 -1.4614 -1.4305 0
M  V30 6863 H 620.994 -0.731961 -3.80422 0
M  V30 6864 H 621.408 -2.86598 -4.39274 0
M  V30 6865 H 622.882 -1.43553 -5.33007 0
M  V30 6866 H 623.359 -0.0223315 -4.39194 0
M  V30 6867 H 623.965 -1.62907 -3.92863 0
M  V30 6868 N 622.28 1.30327 -0.886154 0
M  V30 6869 C 623.213 2.26241 -0.298407 0
M  V30 6870 C 624.191 1.51839 0.581704 0
M  V30 6871 O 625.375 1.80851 0.531536 0
M  V30 6872 C 622.502 3.33768 0.575888 0
M  V30 6873 C 621.548 4.25852 -0.235057 0
M  V30 6874 S 622.381 5.10277 -1.62411 0
M  V30 6875 C 623.537 6.21313 -0.756368 0
M  V30 6876 H 623.77 2.75744 -1.11141 0
M  V30 6877 H 621.303 1.38341 -0.685651 0
M  V30 6878 H 623.261 3.96186 1.07458 0
M  V30 6879 H 621.922 2.82986 1.363 0
M  V30 6880 H 621.115 5.02143 0.432198 0
M  V30 6881 H 620.717 3.68015 -0.666409 0
M  V30 6882 H 623.009 6.77495 0.0261451 0
M  V30 6883 H 623.952 6.92226 -1.49093 0
M  V30 6884 H 624.36 5.63611 -0.316749 0
M  V30 6885 N 623.758 0.647228 1.43697 0
M  V30 6886 C 625.004 0.158422 2.0218 0
M  V30 6887 C 625.337 -1.22233 1.50907 0
M  V30 6888 O 624.612 -1.81478 0.699702 0
M  V30 6889 C 624.895 0.1627 3.59732 0
M  V30 6890 C 624.748 1.57694 4.21251 0
M  V30 6891 C 626.067 -0.504138 4.37203 0
M  V30 6892 H 623.186 0.059042 0.734631 0
M  V30 6893 H 625.828 0.826772 1.71069 0
M  V30 6894 H 623.978 -0.406414 3.86368 0
M  V30 6895 H 625.65 2.19618 4.05667 0
M  V30 6896 H 623.893 2.12603 3.7813 0
M  V30 6897 H 624.564 1.53183 5.3032 0
M  V30 6898 H 627.04 -0.0199841 4.16095 0
M  V30 6899 H 625.916 -0.470394 5.46881 0
M  V30 6900 H 626.177 -1.57726 4.13007 0
M  V30 6901 N 625.236 -1.5273 0.388769 0
M  V30 6902 C 626.199 -2.25043 -0.434544 0
M  V30 6903 C 627.199 -1.26661 -0.990644 0
M  V30 6904 O 628.389 -1.50762 -0.872731 0
M  V30 6905 C 625.521 -3.00507 -1.60961 0
M  V30 6906 H 626.714 -2.99242 0.198549 0
M  V30 6907 H 624.267 -1.55664 0.140875 0
M  V30 6908 H 625.002 -2.30607 -2.28015 0
M  V30 6909 H 624.787 -3.72716 -1.21757 0
M  V30 6910 H 626.277 -3.55413 -2.19251 0
M  V30 6911 N 626.714 -0.118576 -1.57153 0
M  V30 6912 C 627.646 0.862247 -2.12363 0
M  V30 6913 C 628.659 1.23025 -1.06625 0
M  V30 6914 O 629.848 1.17927 -1.33998 0
M  V30 6915 C 626.948 2.16425 -2.60794 0
M  V30 6916 C 626.121 1.96801 -3.90626 0
M  V30 6917 C 625.18 3.10726 -4.2466 0
M  V30 6918 O 624.206 2.83659 -4.93484 0
M  V30 6919 N 625.408 4.37147 -3.81946 0
M  V30 6920 H 628.173 0.390564 -2.97144 0
M  V30 6921 H 625.734 0.0658591 -1.61766 0
M  V30 6922 H 627.726 2.91633 -2.80593 0
M  V30 6923 H 626.296 2.54943 -1.80895 0
M  V30 6924 H 625.516 1.05787 -3.7974 0
M  V30 6925 H 626.804 1.80993 -4.7552 0
M  V30 6926 H 626.202 4.62014 -3.26435 0
M  V30 6927 H 624.759 5.09229 -4.06853 0
M  V30 6928 N 628.193 1.56834 0.155195 0
M  V30 6929 C 629.418 1.87412 0.888337 0
M  V30 6930 C 629.843 0.70671 1.74319 0
M  V30 6931 O 629.201 -0.343892 1.78009 0
M  V30 6932 C 629.249 3.1652 1.72765 0
M  V30 6933 O 628.353 2.99877 2.83103 0
M  V30 6934 H 627.694 0.615983 0.247914 0
M  V30 6935 H 630.224 2.04061 0.148478 0
M  V30 6936 H 630.234 3.48334 2.12433 0
M  V30 6937 H 628.909 4.01094 1.09985 0
M  V30 6938 H 627.486 2.79453 2.46902 0
M  V30 6939 N 629.671 -0.424282 1.51781 0
M  V30 6940 C 630.603 -1.53457 1.70246 0
M  V30 6941 C 631.616 -1.52004 0.582967 0
M  V30 6942 O 632.805 -1.56544 0.857683 0
M  V30 6943 C 629.905 -2.92368 1.71389 0
M  V30 6944 C 629.078 -3.1818 3.00133 0
M  V30 6945 C 628.137 -4.36884 2.9329 0
M  V30 6946 O 627.163 -4.34901 3.67219 0
M  V30 6947 N 628.365 -5.4117 2.10036 0
M  V30 6948 H 631.13 -1.38017 2.66029 0
M  V30 6949 H 628.691 -0.613394 1.4983 0
M  V30 6950 H 630.683 -3.6982 1.64362 0
M  V30 6951 H 629.253 -3.0134 0.831449 0
M  V30 6952 H 628.473 -2.28908 3.20928 0
M  V30 6953 H 629.761 -3.32261 3.85331 0
M  V30 6954 H 629.159 -5.45623 1.49373 0
M  V30 6955 H 627.716 -6.17425 2.08878 0
M  V30 6956 N 631.149 -1.42148 -0.680565 0
M  V30 6957 C 632.395 -1.42521 -1.44277 0
M  V30 6958 C 632.728 -0.0393718 -1.9416 0
M  V30 6959 O 632.003 0.935425 -1.70529 0
M  V30 6960 C 632.286 -2.44475 -2.64394 0
M  V30 6961 C 632.139 -3.92226 -2.20179 0
M  V30 6962 C 633.458 -2.43491 -3.66606 0
M  V30 6963 H 630.577 -0.518985 -0.523282 0
M  V30 6964 H 633.219 -1.73524 -0.773914 0
M  V30 6965 H 631.369 -2.18168 -3.21458 0
M  V30 6966 H 633.041 -4.29493 -1.68327 0
M  V30 6967 H 631.284 -4.0637 -1.5181 0
M  V30 6968 H 631.955 -4.59133 -3.06433 0
M  V30 6969 H 634.431 -2.66872 -3.19247 0
M  V30 6970 H 633.307 -3.16816 -4.4824 0
M  V30 6971 H 633.568 -1.45881 -4.17338 0
M  V30 6972 N 632.627 0.916307 -1.28225 0
M  V30 6973 C 633.875 1.6619 -1.15002 0
M  V30 6974 C 634.196 1.92642 0.302329 0
M  V30 6975 O 633.466 1.54076 1.20985 0
M  V30 6976 H 632.046 0.615964 -0.422608 0
M  V30 6977 H 634.708 1.09963 -1.60917 0
M  V30 6978 H 633.804 2.62533 -1.68769 0
M  V30 6979 N 634.105 1.10431 1.1244 0
M  V30 6980 C 635.352 0.846717 1.83948 0
M  V30 6981 C 635.68 -0.627709 1.84093 0
M  V30 6982 O 634.935 -1.47876 1.28184 0
M  V30 6983 C 635.234 1.34022 3.3132 0
M  V30 6984 C 634.9 2.82606 3.51347 0
M  V30 6985 C 633.562 3.23182 3.56521 0
M  V30 6986 C 635.914 3.78356 3.58464 0
M  V30 6987 C 633.242 4.58258 3.66356 0
M  V30 6988 C 635.594 5.13234 3.69829 0
M  V30 6989 C 634.258 5.53384 3.73259 0
M  V30 6990 H 633.528 0.309836 0.673114 0
M  V30 6991 H 636.175 1.38091 1.32677 0
M  V30 6992 H 634.48 0.726047 3.85014 0
M  V30 6993 H 636.177 1.11739 3.85118 0
M  V30 6994 H 632.767 2.50212 3.47983 0
M  V30 6995 H 636.951 3.48115 3.53737 0
M  V30 6996 H 632.207 4.88787 3.67284 0
M  V30 6997 H 636.381 5.87272 3.74279 0
M  V30 6998 H 634.008 6.58045 3.80633 0
M  V30 6999 N 635.583 -1.29855 0.893053 0
M  V30 7000 C 636.832 -1.95104 0.511597 0
M  V30 7001 C 637.145 -1.71226 -0.945567 0
M  V30 7002 O 638.351 -2.30525 -1.43424 0
M  V30 7003 C 636.807 -3.49374 0.864034 0
M  V30 7004 C 636.415 -3.82061 2.33952 0
M  V30 7005 C 638.159 -4.20894 0.552167 0
M  V30 7006 C 636.066 -5.29546 2.63316 0
M  V30 7007 H 634.996 -0.73029 0.187597 0
M  V30 7008 H 637.647 -1.47682 1.08914 0
M  V30 7009 H 636.029 -3.95413 0.215493 0
M  V30 7010 H 637.203 -3.46904 3.03305 0
M  V30 7011 H 635.518 -3.23665 2.61973 0
M  V30 7012 H 638.115 -5.29435 0.748489 0
M  V30 7013 H 638.458 -4.13178 -0.508924 0
M  V30 7014 H 638.991 -3.80564 1.15825 0
M  V30 7015 H 635.73 -5.4232 3.68197 0
M  V30 7016 H 635.25 -5.65974 1.9858 0
M  V30 7017 H 636.929 -5.97068 2.49236 0
M  V30 7018 N 637.061 -0.65484 -1.43351 0
M  V30 7019 C 638.338 -0.0987371 -1.95351 0
M  V30 7020 C 638.718 1.38161 -1.59608 0
M  V30 7021 O 638.066 2.10791 -0.882021 0
M  V30 7022 C 638.276 -0.346684 -3.47274 0
M  V30 7023 C 639.624 -0.25249 -4.23849 0
M  V30 7024 O 640.648 -0.279332 -3.55103 0
M  V30 7025 O 639.507 -0.177584 -5.46211 0
M  V30 7026 H 636.601 0.0086829 -0.826954 0
M  V30 7027 H 639.147 -0.728189 -1.53282 0
M  V30 7028 H 637.919 -1.37296 -3.66423 0
M  V30 7029 H 637.542 0.315757 -3.96344 0
M  V30 7030 N 638.539 1.52521 -0.396863 0
M  V30 7031 C 639.786 2.01672 0.182898 0
M  V30 7032 C 640.114 1.28302 1.46181 0
M  V30 7033 O 639.369 0.374118 1.92091 0
M  V30 7034 C 639.668 3.5403 0.489677 0
M  V30 7035 C 639.334 4.45456 -0.698581 0
M  V30 7036 C 637.996 4.70166 -1.02454 0
M  V30 7037 C 640.348 4.99354 -1.49316 0
M  V30 7038 C 637.676 5.46024 -2.1465 0
M  V30 7039 C 640.028 5.76439 -2.60579 0
M  V30 7040 C 638.692 5.99426 -2.93675 0
M  V30 7041 H 637.962 0.737971 0.066927 0
M  V30 7042 H 640.609 1.83853 -0.535764 0
M  V30 7043 H 638.914 3.69963 1.28976 0
M  V30 7044 H 640.611 3.8956 0.951018 0
M  V30 7045 H 637.201 4.26392 -0.434525 0
M  V30 7046 H 641.385 4.80182 -1.25457 0
M  V30 7047 H 636.641 5.62046 -2.40654 0
M  V30 7048 H 640.815 6.17202 -3.22544 0
M  V30 7049 H 638.442 6.57988 -3.80731 0
M  V30 7050 N 640.017 0.126909 1.57088 0
M  V30 7051 C 641.266 -0.529024 1.94639 0
M  V30 7052 C 641.579 -1.67323 1.01304 0
M  V30 7053 O 642.785 -2.39245 1.28352 0
M  V30 7054 C 641.241 -0.992483 3.45945 0
M  V30 7055 C 640.849 0.123691 4.47829 0
M  V30 7056 C 642.593 -1.61934 3.924 0
M  V30 7057 C 640.5 -0.356911 5.90322 0
M  V30 7058 H 639.43 -0.201397 0.726605 0
M  V30 7059 H 642.081 0.208032 1.82317 0
M  V30 7060 H 640.463 -1.7842 3.53528 0
M  V30 7061 H 641.637 0.900168 4.51922 0
M  V30 7062 H 639.952 0.657699 4.11173 0
M  V30 7063 H 642.549 -1.9902 4.96281 0
M  V30 7064 H 642.892 -2.50075 3.32819 0
M  V30 7065 H 643.425 -0.892894 3.8765 0
M  V30 7066 H 640.164 0.488636 6.53676 0
M  V30 7067 H 639.684 -1.0997 5.89633 0
M  V30 7068 H 641.363 -0.815547 6.41839 0
M  V30 7069 N 641.495 -1.56914 -0.146875 0
M  V30 7070 C 642.741 -1.83628 -0.860741 0
M  V30 7071 C 643.074 -0.708528 -1.80813 0
M  V30 7072 O 642.349 0.287838 -1.92358 0
M  V30 7073 C 642.632 -3.20836 -1.63511 0
M  V30 7074 C 642.485 -4.44174 -0.709199 0
M  V30 7075 C 643.804 -3.55268 -2.59756 0
M  V30 7076 H 640.923 -0.667949 -0.311468 0
M  V30 7077 H 643.565 -1.89582 -0.125936 0
M  V30 7078 H 641.715 -3.15891 -2.26153 0
M  V30 7079 H 643.387 -4.61205 -0.0937781 0
M  V30 7080 H 641.63 -4.33796 -0.0187856 0
M  V30 7081 H 642.301 -5.36785 -1.28707 0
M  V30 7082 H 644.777 -3.60824 -2.07232 0
M  V30 7083 H 643.653 -4.52303 -3.10987 0
M  V30 7084 H 643.914 -2.81231 -3.41118 0
M  V30 7085 N 642.974 0.416227 -1.52004 0
M  V30 7086 C 643.884 1.53147 -1.77717 0
M  V30 7087 C 644.9 1.609 -0.662368 0
M  V30 7088 O 646.076 1.77747 -0.946991 0
M  V30 7089 C 643.141 2.88948 -1.91598 0
M  V30 7090 C 642.202 2.9114 -3.15493 0
M  V30 7091 C 641.435 4.20464 -3.28703 0
M  V30 7092 O 641.658 5.13981 -2.47345 0
M  V30 7093 O 640.592 4.29368 -4.21813 0
M  V30 7094 H 644.418 1.34357 -2.72363 0
M  V30 7095 H 642.003 0.601373 -1.36762 0
M  V30 7096 H 643.885 3.69505 -2.02593 0
M  V30 7097 H 642.56 3.07821 -1.00141 0
M  V30 7098 H 641.467 2.09461 -3.09962 0
M  V30 7099 H 642.8 2.77216 -4.06709 0
M  V30 7100 N 644.452 1.42507 0.673017 0
M  V30 7101 C 645.863 1.38347 1.25367 0
M  V30 7102 C 646.214 0.0776327 1.96046 0
M  V30 7103 O 645.339 -0.823571 2.00116 0
M  V30 7104 C 645.934 2.506 2.28002 0
M  V30 7105 C 644.493 2.49767 2.81591 0
M  V30 7106 C 643.64 2.293 1.55938 0
M  V30 7107 H 646.591 1.51695 0.466288 0
M  V30 7108 H 646.612 2.20953 3.09774 0
M  V30 7109 H 646.124 3.45627 1.76532 0
M  V30 7110 H 644.225 1.58563 3.37177 0
M  V30 7111 H 644.338 3.46867 3.30485 0
M  V30 7112 H 642.702 1.77594 1.82572 0
M  V30 7113 H 643.485 3.26385 1.06431 0
M  V30 7114 N 645.93 -0.909495 1.28709 0
M  V30 7115 C 647.158 -1.69272 1.18973 0
M  V30 7116 C 647.573 -1.87123 -0.251048 0
M  V30 7117 O 646.93 -1.40127 -1.16922 0
M  V30 7118 C 646.981 -3.08257 1.88839 0
M  V30 7119 O 646.702 -2.91228 3.27289 0
M  V30 7120 C 648.203 -4.02642 1.85457 0
M  V30 7121 H 645.423 -0.528999 0.412797 0
M  V30 7122 H 647.967 -1.13803 1.69909 0
M  V30 7123 H 646.122 -3.6053 1.41762 0
M  V30 7124 H 646.536 -3.79223 3.6234 0
M  V30 7125 H 648.01 -4.97613 2.38925 0
M  V30 7126 H 648.487 -4.31327 0.827893 0
M  V30 7127 H 649.093 -3.56298 2.32233 0
M  V30 7128 N 647.408 -1.11026 -1.11852 0
M  V30 7129 C 648.655 -0.85646 -1.83497 0
M  V30 7130 C 648.983 0.617938 -1.84423 0
M  V30 7131 O 648.238 1.47194 -1.28966 0
M  V30 7132 C 648.537 -1.35777 -3.30604 0
M  V30 7133 C 648.203 -2.84465 -3.49843 0
M  V30 7134 C 646.865 -3.25068 -3.54802 0
M  V30 7135 C 649.217 -3.80251 -3.56453 0
M  V30 7136 C 646.545 -4.60194 -3.63921 0
M  V30 7137 C 648.897 -5.15188 -3.67102 0
M  V30 7138 C 647.561 -5.55356 -3.70319 0
M  V30 7139 H 646.831 -0.313401 -0.671462 0
M  V30 7140 H 649.478 -1.38792 -1.31943 0
M  V30 7141 H 647.783 -0.746455 -3.84624 0
M  V30 7142 H 649.48 -1.13779 -3.8452 0
M  V30 7143 H 646.07 -2.52054 -3.46651 0
M  V30 7144 H 650.254 -3.49986 -3.51886 0
M  V30 7145 H 645.51 -4.90728 -3.64686 0
M  V30 7146 H 649.684 -5.89248 -3.71159 0
M  V30 7147 H 647.311 -6.60054 -3.77138 0
M  V30 7148 N 648.886 1.2938 -0.899927 0
M  V30 7149 C 650.114 1.99691 -0.541386 0
M  V30 7150 C 650.529 1.67355 0.873936 0
M  V30 7151 O 649.886 0.918728 1.57688 0
M  V30 7152 C 649.937 3.54168 -0.72438 0
M  V30 7153 O 649.658 3.85359 -2.08399 0
M  V30 7154 C 651.159 4.41746 -0.370819 0
M  V30 7155 H 648.379 0.638037 -0.207726 0
M  V30 7156 H 650.923 1.6491 -1.20934 0
M  V30 7157 H 649.078 3.87261 -0.103607 0
M  V30 7158 H 649.492 4.80032 -2.11352 0
M  V30 7159 H 650.966 5.49256 -0.549693 0
M  V30 7160 H 651.443 4.33712 0.692148 0
M  V30 7161 H 652.049 4.14125 -0.968543 0
M  V30 7162 N 650.364 0.662433 1.43002 0
M  V30 7163 C 651.61 0.179857 2.02001 0
M  V30 7164 C 651.943 -1.20625 1.52195 0
M  V30 7165 O 651.218 -1.80726 0.718911 0
M  V30 7166 C 651.501 0.200845 3.59539 0
M  V30 7167 C 651.354 1.62153 4.19555 0
M  V30 7168 C 652.673 -0.457738 4.37713 0
M  V30 7169 H 649.792 0.0668305 0.733964 0
M  V30 7170 H 652.434 0.84487 1.70182 0
M  V30 7171 H 650.584 -0.365411 3.86778 0
M  V30 7172 H 652.256 2.23908 4.03315 0
M  V30 7173 H 650.499 2.16601 3.75854 0
M  V30 7174 H 651.17 1.58799 5.28665 0
M  V30 7175 H 653.646 0.0241495 4.16093 0
M  V30 7176 H 652.522 -0.412363 5.47349 0
M  V30 7177 H 652.783 -1.53336 4.14657 0
M  V30 7178 N 651.842 -1.52309 0.404946 0
M  V30 7179 C 652.772 -2.29805 -0.41376 0
M  V30 7180 C 653.753 -1.3384 -1.0498 0
M  V30 7181 O 654.938 -1.62745 -1.05961 0
M  V30 7182 C 652.068 -3.11639 -1.53292 0
M  V30 7183 C 651.022 -4.15616 -1.02211 0
M  V30 7184 C 650.348 -4.8577 -2.23455 0
M  V30 7185 C 651.648 -5.2224 -0.0790725 0
M  V30 7186 H 653.342 -2.98493 0.232878 0
M  V30 7187 H 650.888 -1.43552 0.113441 0
M  V30 7188 H 652.841 -3.64618 -2.11262 0
M  V30 7189 H 651.565 -2.40712 -2.20738 0
M  V30 7190 H 650.224 -3.63641 -0.46484 0
M  V30 7191 H 649.872 -4.11376 -2.89445 0
M  V30 7192 H 649.572 -5.56058 -1.89929 0
M  V30 7193 H 651.096 -5.4156 -2.82038 0
M  V30 7194 H 652.51 -5.70485 -0.567438 0
M  V30 7195 H 650.907 -5.99867 0.167167 0
M  V30 7196 H 651.977 -4.77078 0.867447 0
M  V30 7197 N 653.32 -0.135238 -1.57019 0
M  V30 7198 C 654.548 0.526066 -2.001 0
M  V30 7199 C 654.963 1.59184 -1.01519 0
M  V30 7200 O 654.32 1.82497 -0.0104258 0
M  V30 7201 C 654.371 1.13744 -3.43139 0
M  V30 7202 O 654.092 0.114259 -4.37951 0
M  V30 7203 C 655.593 1.8805 -4.01438 0
M  V30 7204 H 652.813 0.137962 -0.656664 0
M  V30 7205 H 655.357 -0.226359 -2.03243 0
M  V30 7206 H 653.512 1.84056 -3.40885 0
M  V30 7207 H 653.926 0.56058 -5.21496 0
M  V30 7208 H 655.4 2.26133 -5.03555 0
M  V30 7209 H 655.877 2.76194 -3.41487 0
M  V30 7210 H 656.483 1.22464 -4.07287 0
M  V30 7211 N 654.798 1.5699 0.138552 0
M  V30 7212 C 656.075 1.74741 0.87891 0
M  V30 7213 C 656.455 0.705522 1.98961 0
M  V30 7214 O 655.803 -0.274066 2.2685 0
M  V30 7215 C 656.013 3.1909 1.4136 0
M  V30 7216 C 657.361 3.81023 1.87368 0
M  V30 7217 O 658.385 3.22571 1.51084 0
M  V30 7218 O 657.244 4.83722 2.54312 0
M  V30 7219 H 654.338 0.714781 0.415953 0
M  V30 7220 H 656.884 1.69248 0.123817 0
M  V30 7221 H 655.656 3.86424 0.61579 0
M  V30 7222 H 655.279 3.29043 2.23196 0
M  V30 7223 N 656.276 -0.40816 1.52223 0
M  V30 7224 C 657.209 -1.51834 1.70357 0
M  V30 7225 C 658.187 -1.52973 0.551171 0
M  V30 7226 O 659.371 -1.71667 0.778642 0
M  V30 7227 C 656.498 -2.90362 1.74378 0
M  V30 7228 C 655.544 -3.0713 2.95928 0
M  V30 7229 S 656.377 -2.80342 4.56255 0
M  V30 7230 C 657.533 -4.21098 4.63063 0
M  V30 7231 H 657.766 -1.36223 2.64255 0
M  V30 7232 H 655.299 -0.599798 1.42274 0
M  V30 7233 H 657.257 -3.70199 1.77379 0
M  V30 7234 H 655.918 -3.03314 0.816063 0
M  V30 7235 H 655.111 -4.08482 2.95226 0
M  V30 7236 H 654.713 -2.3516 2.90819 0
M  V30 7237 H 657.005 -5.14749 4.40499 0
M  V30 7238 H 657.948 -4.26823 5.65002 0
M  V30 7239 H 658.356 -4.06114 3.92086 0
M  V30 7240 N 657.755 -1.42862 -0.66545 0
M  V30 7241 C 658.983 -1.47246 -1.45349 0
M  V30 7242 C 659.398 -0.0865944 -1.88601 0
M  V30 7243 O 658.755 0.900652 -1.58728 0
M  V30 7244 C 658.806 -2.40772 -2.6965 0
M  V30 7245 O 658.527 -3.73968 -2.2821 0
M  V30 7246 C 660.028 -2.54272 -3.63126 0
M  V30 7247 H 657.248 -0.500497 -0.446927 0
M  V30 7248 H 659.792 -1.87477 -0.816871 0
M  V30 7249 H 657.947 -2.0377 -3.29479 0
M  V30 7250 H 658.361 -4.24146 -3.08546 0
M  V30 7251 H 659.835 -3.23815 -4.47043 0
M  V30 7252 H 660.312 -1.58364 -4.09656 0
M  V30 7253 H 660.918 -2.92036 -3.09185 0
M  V30 7254 N 659.233 0.902656 -1.29189 0
M  V30 7255 C 660.143 2.03946 -1.15944 0
M  V30 7256 C 661.159 1.738 -0.0833803 0
M  V30 7257 O 662.335 1.9923 -0.29487 0
M  V30 7258 C 659.4 3.36519 -0.834006 0
M  V30 7259 C 658.461 3.80203 -1.9936 0
M  V30 7260 C 657.694 5.06449 -1.68359 0
M  V30 7261 O 657.917 5.67202 -0.603141 0
M  V30 7262 O 656.851 5.46114 -2.53067 0
M  V30 7263 H 660.677 2.18043 -2.11403 0
M  V30 7264 H 658.262 1.02584 -1.08613 0
M  V30 7265 H 660.144 4.16089 -0.666949 0
M  V30 7266 H 658.819 3.23573 0.0908245 0
M  V30 7267 H 657.726 3.01413 -2.21588 0
M  V30 7268 H 659.059 3.97729 -2.89952 0
M  V30 7269 N 660.711 1.11618 1.11262 0
M  V30 7270 C 661.658 0.7762 2.17356 0
M  V30 7271 C 662.628 -0.253152 1.6416 0
M  V30 7272 O 663.813 -0.129655 1.90359 0
M  V30 7273 C 660.953 0.227581 3.44349 0
M  V30 7274 C 660.066 1.31372 4.1154 0
M  V30 7275 C 659.201 0.72544 5.26223 0
M  V30 7276 C 658.24 1.7913 5.85302 0
M  V30 7277 N 657.377 1.22237 6.91377 0
M  V30 7278 H 662.217 1.68508 2.45783 0
M  V30 7279 H 659.754 0.841475 1.20655 0
M  V30 7280 H 661.712 -0.108483 4.17059 0
M  V30 7281 H 660.342 -0.644486 3.16301 0
M  V30 7282 H 659.394 1.7667 3.36885 0
M  V30 7283 H 660.706 2.12005 4.51504 0
M  V30 7284 H 659.86 0.339541 6.05749 0
M  V30 7285 H 658.599 -0.112188 4.87571 0
M  V30 7286 H 657.604 2.18648 5.04453 0
M  V30 7287 H 658.829 2.63199 6.26022 0
M  V30 7288 H 656.775 0.406423 6.5474 0
M  V30 7289 H 656.692 1.9654 7.30006 0
M  V30 7290 H 657.96 0.863426 7.74703 0
M  V30 7291 N 662.189 -1.289 0.906776 0
M  V30 7292 C 663.438 -1.9455 0.532262 0
M  V30 7293 C 663.751 -1.72219 -0.927353 0
M  V30 7294 O 664.957 -2.32033 -1.40971 0
M  V30 7295 C 663.413 -3.48438 0.901041 0
M  V30 7296 C 663.021 -3.79558 2.37991 0
M  V30 7297 C 664.765 -4.20284 0.596777 0
M  V30 7298 C 662.672 -5.26723 2.68918 0
M  V30 7299 H 661.602 -0.728259 0.195333 0
M  V30 7300 H 664.253 -1.46519 1.10474 0
M  V30 7301 H 662.635 -3.95162 0.257419 0
M  V30 7302 H 663.809 -3.43668 3.06967 0
M  V30 7303 H 662.124 -3.20868 2.65391 0
M  V30 7304 H 664.721 -5.28612 0.8046 0
M  V30 7305 H 665.064 -4.13694 -0.465072 0
M  V30 7306 H 665.597 -3.79315 1.19855 0
M  V30 7307 H 662.336 -5.38384 3.73928 0
M  V30 7308 H 661.856 -5.63836 2.04571 0
M  V30 7309 H 663.535 -5.94391 2.55555 0
M  V30 7310 N 663.667 -0.670007 -1.42649 0
M  V30 7311 C 664.913 -0.190568 -2.01903 0
M  V30 7312 C 665.246 1.19817 -1.52832 0
M  V30 7313 O 664.521 1.80342 -0.728485 0
M  V30 7314 C 664.804 -0.21991 -3.59428 0
M  V30 7315 C 664.657 -1.64376 -4.18689 0
M  V30 7316 C 665.976 0.434519 -4.3795 0
M  V30 7317 H 663.095 -0.0707219 -0.733599 0
M  V30 7318 H 665.737 -0.853883 -1.69732 0
M  V30 7319 H 663.887 0.344894 -3.86966 0
M  V30 7320 H 665.559 -2.26044 -4.02122 0
M  V30 7321 H 663.802 -2.18591 -3.747 0
M  V30 7322 H 664.473 -1.61601 -5.27815 0
M  V30 7323 H 666.949 -0.0462156 -4.16074 0
M  V30 7324 H 665.825 0.38333 -5.4756 0
M  V30 7325 H 666.086 1.51135 -4.15464 0
M  V30 7326 N 665.145 1.52092 -0.413018 0
M  V30 7327 C 666.37 2.06756 0.163338 0
M  V30 7328 C 666.795 1.28073 1.37764 0
M  V30 7329 O 666.153 0.312015 1.78595 0
M  V30 7330 C 666.201 3.57278 0.488322 0
M  V30 7331 O 665.305 3.80986 1.57871 0
M  V30 7332 H 664.646 0.663882 0.0125068 0
M  V30 7333 H 667.176 1.95988 -0.587339 0
M  V30 7334 H 667.186 4.01125 0.745836 0
M  V30 7335 H 665.861 4.13978 -0.399327 0
M  V30 7336 H 664.438 3.49017 1.31306 0
M  V30 7337 N 666.623 0.143563 1.56945 0
M  V30 7338 C 668.034 -0.37783 1.82837 0
M  V30 7339 C 668.385 -1.64967 1.06209 0
M  V30 7340 O 667.51 -2.14221 0.306291 0
M  V30 7341 C 668.105 -0.692274 3.31652 0
M  V30 7342 C 666.664 -1.1582 3.58138 0
M  V30 7343 C 665.811 -0.17951 2.76718 0
M  V30 7344 H 668.762 0.368317 1.54367 0
M  V30 7345 H 668.783 -1.54729 3.47619 0
M  V30 7346 H 668.295 0.233572 3.87397 0
M  V30 7347 H 666.396 -2.10011 3.07776 0
M  V30 7348 H 666.509 -1.08655 4.66616 0
M  V30 7349 H 664.873 -0.671458 2.4569 0
M  V30 7350 H 665.656 0.739865 3.35233 0
M  V30 7351 N 668.101 -1.57061 -0.130224 0
M  V30 7352 C 669.031 -2.02552 -1.16168 0
M  V30 7353 C 670.012 -0.907971 -1.4384 0
M  V30 7354 O 671.197 -1.17693 -1.54473 0
M  V30 7355 C 668.327 -2.42035 -2.49071 0
M  V30 7356 C 667.281 -3.5713 -2.35886 0
M  V30 7357 C 666.607 -3.82478 -3.7365 0
M  V30 7358 C 667.907 -4.89236 -1.8288 0
M  V30 7359 H 669.601 -2.8897 -0.783359 0
M  V30 7360 H 667.147 -1.39021 -0.375376 0
M  V30 7361 H 669.1 -2.72462 -3.21469 0
M  V30 7362 H 667.824 -1.52573 -2.88771 0
M  V30 7363 H 666.483 -3.26895 -1.65938 0
M  V30 7364 H 666.131 -2.9024 -4.10816 0
M  V30 7365 H 665.831 -4.59944 -3.65685 0
M  V30 7366 H 667.355 -4.15347 -4.47571 0
M  V30 7367 H 668.769 -5.18272 -2.45085 0
M  V30 7368 H 667.166 -5.70624 -1.85763 0
M  V30 7369 H 668.236 -4.78494 -0.785571 0
M  V30 7370 N 669.579 0.400081 -1.52437 0
M  V30 7371 C 670.828 1.14332 -1.66166 0
M  V30 7372 C 671.141 1.91419 -0.402253 0
M  V30 7373 O 672.347 2.6824 -0.419487 0
M  V30 7374 C 670.803 2.08137 -2.9361 0
M  V30 7375 C 670.411 1.36524 -4.26691 0
M  V30 7376 C 672.155 2.82664 -3.16703 0
M  V30 7377 C 670.062 2.29031 -5.45251 0
M  V30 7378 H 668.992 0.430499 -0.61902 0
M  V30 7379 H 671.643 0.407017 -1.78929 0
M  V30 7380 H 670.025 2.85358 -2.74567 0
M  V30 7381 H 671.199 0.646061 -4.56249 0
M  V30 7382 H 669.514 0.74002 -4.09771 0
M  V30 7383 H 672.111 3.52037 -4.0246 0
M  V30 7384 H 672.454 3.46122 -2.31312 0
M  V30 7385 H 672.987 2.12541 -3.36261 0
M  V30 7386 H 669.726 1.70206 -6.33017 0
M  V30 7387 H 669.246 2.98896 -5.2002 0
M  V30 7388 H 670.925 2.89359 -5.78689 0
M  V30 7389 N 671.057 1.43213 0.657864 0
M  V30 7390 C 672.334 1.35063 1.41483 0
M  V30 7391 C 672.714 -0.0038314 2.111 0
M  V30 7392 O 672.062 -1.02018 2.04462 0
M  V30 7393 C 672.272 2.53061 2.40335 0
M  V30 7394 C 673.62 2.9594 3.04474 0
M  V30 7395 O 674.644 2.53074 2.50663 0
M  V30 7396 O 673.503 3.70184 4.02027 0
M  V30 7397 H 670.597 0.533517 0.631893 0
M  V30 7398 H 673.143 1.55253 0.685162 0
M  V30 7399 H 671.915 3.43283 1.87809 0
M  V30 7400 H 671.538 2.34945 3.20759 0
M  V30 7401 N 672.536 -0.895792 1.29666 0
M  V30 7402 C 673.446 -2.03329 1.17024 0
M  V30 7403 C 674.462 -1.73753 0.0925962 0
M  V30 7404 O 675.638 -1.99071 0.305431 0
M  V30 7405 C 672.703 -3.36072 0.851841 0
M  V30 7406 C 671.764 -3.7914 2.01373 0
M  V30 7407 C 670.997 -5.05549 1.71043 0
M  V30 7408 O 671.22 -5.66874 0.633213 0
M  V30 7409 O 670.154 -5.44764 2.5596 0
M  V30 7410 H 673.98 -2.16918 2.12556 0
M  V30 7411 H 671.565 -1.02007 1.09156 0
M  V30 7412 H 673.447 -4.15729 0.689006 0
M  V30 7413 H 672.122 -3.23616 -0.0736634 0
M  V30 7414 H 671.029 -3.00233 2.23183 0
M  V30 7415 H 672.362 -3.96186 2.92058 0
M  V30 7416 N 674.014 -1.12206 -1.10668 0
M  V30 7417 C 675.242 -0.898635 -1.86366 0
M  V30 7418 C 675.657 0.551991 -1.80551 0
M  V30 7419 O 675.014 1.38152 -1.19249 0
M  V30 7420 C 675.065 -1.36199 -3.34861 0
M  V30 7421 O 674.786 -2.75576 -3.40573 0
M  V30 7422 C 676.287 -1.17515 -4.2744 0
M  V30 7423 H 673.507 -0.321281 -0.589084 0
M  V30 7424 H 676.051 -1.49142 -1.39918 0
M  V30 7425 H 674.206 -0.81249 -3.78784 0
M  V30 7426 H 674.62 -2.95851 -4.33096 0
M  V30 7427 H 676.094 -1.54827 -5.29842 0
M  V30 7428 H 676.571 -0.115486 -4.39048 0
M  V30 7429 H 677.177 -1.71203 -3.89319 0
M  V30 7430 N 675.492 1.28418 -0.913599 0
M  V30 7431 C 676.717 1.99643 -0.561899 0
M  V30 7432 C 677.142 1.67819 0.849608 0
M  V30 7433 O 676.5 0.910503 1.56779 0
M  V30 7434 C 676.548 3.52116 -0.777622 0
M  V30 7435 O 675.652 4.12076 0.163457 0
M  V30 7436 H 674.993 0.627229 -0.217898 0
M  V30 7437 H 677.523 1.63575 -1.229 0
M  V30 7438 H 677.533 4.02163 -0.687666 0
M  V30 7439 H 676.208 3.74613 -1.8066 0
M  V30 7440 H 674.785 3.72892 0.0247827 0
M  V30 7441 N 676.97 0.677563 1.42291 0
M  V30 7442 C 677.902 -0.0380218 2.29168 0
M  V30 7443 C 678.915 -0.762714 1.43828 0
M  V30 7444 O 680.104 -0.616413 1.67519 0
M  V30 7445 C 677.204 -1.07761 3.21311 0
M  V30 7446 C 676.377 -0.42618 4.35319 0
M  V30 7447 C 675.436 -1.36592 5.08162 0
M  V30 7448 O 674.462 -0.865174 5.62586 0
M  V30 7449 N 675.664 -2.69909 5.13935 0
M  V30 7450 H 678.429 0.707766 2.91223 0
M  V30 7451 H 675.99 0.52219 1.53247 0
M  V30 7452 H 677.982 -1.70761 3.6691 0
M  V30 7453 H 676.552 -1.72511 2.60689 0
M  V30 7454 H 675.772 0.383385 3.92331 0
M  V30 7455 H 677.06 0.0275277 5.08793 0
M  V30 7456 H 676.458 -3.13129 4.71134 0
M  V30 7457 H 675.015 -3.2815 5.6317 0
M  V30 7458 N 678.448 -1.51871 0.421078 0
M  V30 7459 C 679.676 -2.06356 -0.14994 0
M  V30 7460 C 680.091 -1.29006 -1.37851 0
M  V30 7461 O 679.448 -0.345139 -1.79207 0
M  V30 7462 C 679.499 -3.58185 -0.488454 0
M  V30 7463 O 679.22 -4.32611 0.691341 0
M  V30 7464 C 680.721 -4.29129 -1.11191 0
M  V30 7465 H 677.941 -0.67083 -0.0151186 0
M  V30 7466 H 680.485 -1.95638 0.595476 0
M  V30 7467 H 678.64 -3.68871 -1.18376 0
M  V30 7468 H 679.054 -5.22927 0.405906 0
M  V30 7469 H 680.528 -5.36501 -1.29889 0
M  V30 7470 H 681.005 -3.86371 -2.0884 0
M  V30 7471 H 681.611 -4.22843 -0.456458 0
M  V30 7472 N 679.926 -0.151884 -1.56866 0
M  V30 7473 C 681.174 0.497021 -1.95893 0
M  V30 7474 C 681.495 1.65078 -1.03799 0
M  V30 7475 O 680.765 1.95642 -0.10049 0
M  V30 7476 H 679.345 0.186603 -0.723318 0
M  V30 7477 H 682.007 -0.228525 -1.93556 0
M  V30 7478 H 681.103 0.869933 -2.99731 0
M  V30 7479 N 681.404 1.57128 0.121893 0
M  V30 7480 C 682.652 1.84335 0.828548 0
M  V30 7481 C 682.973 0.736632 1.80551 0
M  V30 7482 O 682.243 -0.23962 1.94429 0
M  V30 7483 H 680.823 0.680108 0.30897 0
M  V30 7484 H 683.485 1.9459 0.109906 0
M  V30 7485 H 682.581 2.80152 1.37554 0
M  V30 7486 N 682.882 -0.391992 1.52647 0
M  V30 7487 C 684.11 -1.1586 1.71418 0
M  V30 7488 C 684.525 -1.8381 0.431216 0
M  V30 7489 O 683.882 -1.7256 -0.594085 0
M  V30 7490 C 683.933 -2.20888 2.86165 0
M  V30 7491 O 683.654 -1.5571 4.09495 0
M  V30 7492 C 685.155 -3.103 3.1659 0
M  V30 7493 H 682.375 -0.347494 0.574011 0
M  V30 7494 H 684.919 -0.458972 1.99283 0
M  V30 7495 H 683.074 -2.86492 2.6077 0
M  V30 7496 H 683.488 -2.25474 4.73563 0
M  V30 7497 H 684.962 -3.8003 4.00351 0
M  V30 7498 H 685.439 -3.73639 2.30848 0
M  V30 7499 H 686.045 -2.50345 3.43813 0
M  V30 7500 N 684.36 -1.4356 -0.65026 0
M  V30 7501 C 685.608 -1.45046 -1.40734 0
M  V30 7502 C 685.929 -0.0769822 -1.94848 0
M  V30 7503 O 685.199 0.888098 -1.74613 0
M  V30 7504 H 683.779 -0.534034 -0.522318 0
M  V30 7505 H 686.441 -1.79186 -0.766703 0
M  V30 7506 H 685.537 -2.16476 -2.24822 0
M  V30 7507 N 685.838 0.888903 -1.30139 0
M  V30 7508 C 686.77 1.99972 -1.11999 0
M  V30 7509 C 687.783 1.62673 -0.0643619 0
M  V30 7510 O 688.972 1.75788 -0.309983 0
M  V30 7511 C 686.072 3.31904 -0.685059 0
M  V30 7512 C 685.245 3.97665 -1.82158 0
M  V30 7513 C 684.304 5.07894 -1.37585 0
M  V30 7514 O 683.33 5.2974 -2.08241 0
M  V30 7515 N 684.532 5.7995 -0.252697 0
M  V30 7516 H 687.297 2.16085 -2.07671 0
M  V30 7517 H 684.858 1.06175 -1.22223 0
M  V30 7518 H 686.85 4.03005 -0.369964 0
M  V30 7519 H 685.42 3.12084 0.179507 0
M  V30 7520 H 684.64 3.19787 -2.305 0
M  V30 7521 H 685.928 4.3834 -2.58332 0
M  V30 7522 H 685.326 5.647 0.336141 0
M  V30 7523 H 683.883 6.518 0.00296813 0
M  V30 7524 N 687.317 1.12792 1.10072 0
M  V30 7525 C 688.733 0.864745 1.34143 0
M  V30 7526 C 688.933 -0.503201 1.95116 0
M  V30 7527 O 687.989 -1.25111 2.19325 0
M  V30 7528 C 689.302 1.98413 2.25949 0
M  V30 7529 C 690.85 2.01545 2.39476 0
M  V30 7530 C 691.325 3.12727 3.34613 0
M  V30 7531 N 692.816 3.12194 3.42183 0
M  V30 7532 C 693.551 3.94862 4.15779 0
M  V30 7533 N 693.047 4.87528 4.92228 0
M  V30 7534 N 694.84 3.82985 4.11435 0
M  V30 7535 H 686.991 2.00926 0.68866 0
M  V30 7536 H 689.254 0.874564 0.365844 0
M  V30 7537 H 688.96 2.97005 1.88364 0
M  V30 7538 H 688.834 1.89254 3.26287 0
M  V30 7539 H 691.221 1.0357 2.76328 0
M  V30 7540 H 691.302 2.14777 1.3894 0
M  V30 7541 H 690.946 4.10936 2.98486 0
M  V30 7542 H 690.876 2.96732 4.35037 0
M  V30 7543 H 693.367 2.45065 2.87666 0
M  V30 7544 H 693.68 5.47109 5.45794 0
M  V30 7545 H 692.025 4.91539 4.9134 0
M  V30 7546 H 695.216 3.09923 3.50807 0
M  V30 7547 H 695.389 4.47641 4.68531 0
M  V30 7548 N 688.795 -1.27931 0.920396 0
M  V30 7549 C 690.211 -1.47085 0.619537 0
M  V30 7550 C 690.411 -1.83463 -0.833291 0
M  V30 7551 O 689.467 -1.94363 -1.61181 0
M  V30 7552 C 690.78 -2.56878 1.56314 0
M  V30 7553 C 692.328 -2.70743 1.57058 0
M  V30 7554 C 692.803 -3.83687 2.50097 0
M  V30 7555 N 694.294 -3.9105 2.48262 0
M  V30 7556 C 695.029 -4.77842 3.16945 0
M  V30 7557 N 694.525 -5.69176 3.94982 0
M  V30 7558 N 696.318 -4.71509 3.06 0
M  V30 7559 H 688.469 -1.02601 1.85975 0
M  V30 7560 H 690.732 -0.511682 0.798051 0
M  V30 7561 H 690.438 -2.36923 2.59923 0
M  V30 7562 H 690.312 -3.54117 1.29928 0
M  V30 7563 H 692.699 -2.90083 0.541832 0
M  V30 7564 H 692.78 -1.74015 1.8749 0
M  V30 7565 H 692.424 -3.65101 3.53077 0
M  V30 7566 H 692.354 -4.79827 2.16964 0
M  V30 7567 H 694.845 -3.25738 1.91581 0
M  V30 7568 H 695.158 -6.32245 4.44394 0
M  V30 7569 H 693.503 -5.68995 3.99086 0
M  V30 7570 H 696.694 -3.99151 2.44533 0
M  V30 7571 H 696.867 -5.38933 3.59799 0
M  V30 7572 N 690.273 -0.685099 -1.4193 0
M  V30 7573 C 691.498 -0.218842 -2.06242 0
M  V30 7574 C 691.923 1.11923 -1.51178 0
M  V30 7575 O 691.281 1.69837 -0.634446 0
M  V30 7576 C 691.329 -0.175592 -3.60172 0
M  V30 7577 O 690.433 0.852776 -4.03487 0
M  V30 7578 H 689.774 -0.109531 -0.654904 0
M  V30 7579 H 692.304 -0.937013 -1.81882 0
M  V30 7580 H 692.314 -0.00291151 -4.08 0
M  V30 7581 H 690.989 -1.15222 -3.99621 0
M  V30 7582 H 689.566 0.650301 -3.67186 0
M  V30 7583 N 691.751 1.51645 -0.429126 0
M  V30 7584 C 692.976 2.06917 0.141399 0
M  V30 7585 C 693.401 1.29527 1.36398 0
M  V30 7586 O 692.759 0.33094 1.78254 0
M  V30 7587 C 692.807 3.57776 0.4504 0
M  V30 7588 O 691.911 3.82639 1.53821 0
M  V30 7589 H 691.252 0.663978 0.0054647 0
M  V30 7590 H 693.782 1.95355 -0.608093 0
M  V30 7591 H 693.792 4.01894 0.703249 0
M  V30 7592 H 692.467 4.13532 -0.443213 0
M  V30 7593 H 691.044 3.5039 1.27597 0
M  V30 7594 N 693.229 0.160201 1.56784 0
M  V30 7595 C 694.159 -0.770264 2.2043 0
M  V30 7596 C 695.14 -1.24736 1.15651 0
M  V30 7597 O 696.325 -1.30253 1.44041 0
M  V30 7598 C 693.455 -2.00427 2.83631 0
M  V30 7599 C 692.409 -1.66345 3.94352 0
M  V30 7600 C 691.735 -2.97119 4.4455 0
M  V30 7601 C 693.035 -0.899972 5.14488 0
M  V30 7602 H 694.729 -0.239783 2.98438 0
M  V30 7603 H 692.275 -0.113891 1.43549 0
M  V30 7604 H 694.228 -2.66012 3.26827 0
M  V30 7605 H 692.952 -2.5587 2.02973 0
M  V30 7606 H 691.611 -1.03133 3.51794 0
M  V30 7607 H 691.259 -3.5058 3.60698 0
M  V30 7608 H 690.959 -2.75073 5.19238 0
M  V30 7609 H 692.483 -3.63753 4.90425 0
M  V30 7610 H 693.897 -1.45818 5.54446 0
M  V30 7611 H 692.294 -0.778968 5.95023 0
M  V30 7612 H 693.364 0.105827 4.84785 0
M  V30 7613 N 694.707 -1.5719 -0.113559 0
M  V30 7614 C 695.655 -2.01725 -1.158 0
M  V30 7615 C 696.649 -0.915105 -1.42556 0
M  V30 7616 O 697.855 -1.10031 -1.42454 0
M  V30 7617 H 694.23 -0.64262 -0.390569 0
M  V30 7618 H 696.201 -2.88666 -0.755926 0
M  V30 7619 C 694.95 -2.44203 -2.47507 0
M  V30 7620 H 694.273 -3.28582 -2.27758 0
M  V30 7621 H 695.713 -2.79158 -3.19135 0
M  V30 7622 C 694.172 -1.30785 -3.10478 0
M  V30 7623 O 694.702 -0.626807 -3.9678 0
M  V30 7624 N 692.908 -1.06352 -2.7044 0
M  V30 7625 H 692.455 -1.61913 -2.00355 0
M  V30 7626 H 692.413 -0.306614 -3.12901 0
M  V30 7627 N 696.185 0.383891 -1.52853 0
M  V30 7628 C 697.41 1.154 -1.7233 0
M  V30 7629 C 697.835 1.82809 -0.44298 0
M  V30 7630 O 697.193 1.71026 0.601645 0
M  V30 7631 C 697.241 2.17386 -2.87708 0
M  V30 7632 O 696.345 3.24082 -2.55038 0
M  V30 7633 H 695.686 0.335709 -0.572883 0
M  V30 7634 H 698.216 0.44662 -1.99666 0
M  V30 7635 H 698.226 2.61296 -3.1335 0
M  V30 7636 H 696.901 1.6771 -3.80587 0
M  V30 7637 H 695.478 2.85273 -2.40153 0
M  V30 7638 N 697.663 1.43903 0.642637 0
M  V30 7639 C 698.912 1.45362 1.39831 0
M  V30 7640 C 699.225 0.0856289 1.95412 0
M  V30 7641 O 700.431 -0.0222856 2.71491 0
M  V30 7642 C 698.887 2.55857 2.53111 0
M  V30 7643 C 698.495 3.98811 2.04092 0
M  V30 7644 C 700.239 2.66524 3.30402 0
M  V30 7645 C 698.146 5.00751 3.14647 0
M  V30 7646 H 697.076 0.540777 0.52543 0
M  V30 7647 H 699.727 1.69929 0.692559 0
M  V30 7648 H 698.109 2.2451 3.26207 0
M  V30 7649 H 699.283 4.3967 1.37938 0
M  V30 7650 H 697.598 3.92284 1.39651 0
M  V30 7651 H 700.195 3.39858 4.12796 0
M  V30 7652 H 700.538 1.71949 3.79129 0
M  V30 7653 H 701.071 2.97224 2.64392 0
M  V30 7654 H 697.81 5.96914 2.70876 0
M  V30 7655 H 697.33 4.64495 3.79479 0
M  V30 7656 H 699.009 5.23933 3.79609 0
M  V30 7657 N 699.141 -0.881989 1.30609 0
M  V30 7658 C 700.366 -1.67236 1.22665 0
M  V30 7659 C 700.791 -1.8696 -0.206777 0
M  V30 7660 O 700.149 -1.4027 -1.14865 0
M  V30 7661 C 700.197 -3.02446 1.96363 0
M  V30 7662 O 699.301 -3.91614 1.29276 0
M  V30 7663 H 698.642 -0.510902 0.424117 0
M  V30 7664 H 701.172 -1.10055 1.72479 0
M  V30 7665 H 701.182 -3.52468 2.055 0
M  V30 7666 H 699.857 -2.8741 3.00613 0
M  V30 7667 H 698.434 -3.50055 1.28514 0
M  V30 7668 N 700.619 -1.13374 -1.09472 0
M  V30 7669 C 701.844 -0.918711 -1.85942 0
M  V30 7670 C 702.269 0.527225 -1.8056 0
M  V30 7671 O 701.627 1.37408 -1.18274 0
M  V30 7672 C 701.675 -1.41056 -3.31867 0
M  V30 7673 O 700.779 -0.595496 -4.08078 0
M  V30 7674 H 700.12 -0.329297 -0.576593 0
M  V30 7675 H 702.65 -1.50829 -1.38245 0
M  V30 7676 H 702.66 -1.41398 -3.82715 0
M  V30 7677 H 701.335 -2.46335 -3.35099 0
M  V30 7678 H 699.912 -0.659911 -3.67014 0
M  V30 7679 N 702.098 1.27442 -0.927168 0
M  V30 7680 C 703.323 1.99036 -0.583042 0
M  V30 7681 C 703.748 1.68711 0.83176 0
M  V30 7682 O 703.106 0.927081 1.55804 0
M  V30 7683 C 703.154 3.51271 -0.814925 0
M  V30 7684 O 702.258 4.12226 0.119742 0
M  V30 7685 H 701.599 0.624883 -0.224538 0
M  V30 7686 H 704.129 1.62263 -1.24628 0
M  V30 7687 H 704.139 4.01411 -0.730282 0
M  V30 7688 H 702.814 3.72676 -1.84623 0
M  V30 7689 H 701.391 3.72897 -0.0147688 0
M  V30 7690 N 703.576 0.692616 1.41565 0
M  V30 7691 C 704.853 0.150496 1.9502 0
M  V30 7692 C 705.233 -1.33881 1.63215 0
M  V30 7693 O 704.581 -2.08378 0.937598 0
M  V30 7694 C 704.791 0.438636 3.46233 0
M  V30 7695 C 706.139 0.364777 4.2303 0
M  V30 7696 O 707.163 0.373383 3.54238 0
M  V30 7697 O 706.022 0.32234 5.45549 0
M  V30 7698 H 703.116 0.0132454 0.826894 0
M  V30 7699 H 705.662 0.768574 1.51298 0
M  V30 7700 H 704.434 1.46962 3.62654 0
M  V30 7701 H 704.057 -0.210562 3.97042 0
M  V30 7702 N 705.054 -1.51416 0.437162 0
M  V30 7703 C 706.017 -2.26312 -0.362729 0
M  V30 7704 C 707.017 -1.29748 -0.949847 0
M  V30 7705 O 708.207 -1.53462 -0.824325 0
M  V30 7706 C 705.339 -3.05475 -1.5132 0
M  V30 7707 H 706.532 -2.98459 0.29365 0
M  V30 7708 H 704.085 -1.55137 0.190327 0
M  V30 7709 H 704.82 -2.37744 -2.20563 0
M  V30 7710 H 704.605 -3.76401 -1.09838 0
M  V30 7711 H 706.095 -3.62209 -2.07833 0
M  V30 7712 N 706.532 -0.168513 -1.56696 0
M  V30 7713 C 707.479 0.762875 -2.17828 0
M  V30 7714 C 708.449 1.22892 -1.11745 0
M  V30 7715 O 709.634 1.29759 -1.39883 0
M  V30 7716 C 706.774 1.9879 -2.82093 0
M  V30 7717 C 705.887 1.56568 -4.02629 0
M  V30 7718 C 705.022 2.74416 -4.54829 0
M  V30 7719 C 704.061 2.28671 -5.67782 0
M  V30 7720 N 703.198 3.39602 -6.14504 0
M  V30 7721 H 708.038 0.23479 -2.97074 0
M  V30 7722 H 705.575 0.104163 -1.46731 0
M  V30 7723 H 707.533 2.70636 -3.17509 0
M  V30 7724 H 706.163 2.48973 -2.05456 0
M  V30 7725 H 705.215 0.744067 -3.73052 0
M  V30 7726 H 706.527 1.18988 -4.844 0
M  V30 7727 H 705.681 3.54423 -4.92412 0
M  V30 7728 H 704.42 3.15254 -3.7211 0
M  V30 7729 H 703.425 1.4711 -5.29753 0
M  V30 7730 H 704.65 1.88894 -6.52301 0
M  V30 7731 H 702.596 3.80021 -5.34715 0
M  V30 7732 H 702.513 3.06105 -6.91257 0
M  V30 7733 H 703.781 4.19902 -6.56737 0
M  V30 7734 N 708.01 1.57248 0.105221 0
M  V30 7735 C 709.426 1.52853 0.459153 0
M  V30 7736 C 709.626 0.883674 1.8109 0
M  V30 7737 O 708.682 0.471864 2.48052 0
M  V30 7738 C 709.995 2.97596 0.43096 0
M  V30 7739 C 711.543 3.08758 0.513536 0
M  V30 7740 C 712.018 4.55089 0.515593 0
M  V30 7741 N 713.509 4.59597 0.576639 0
M  V30 7742 C 714.244 5.70253 0.599904 0
M  V30 7743 N 713.74 6.90368 0.579985 0
M  V30 7744 N 715.533 5.58399 0.643953 0
M  V30 7745 H 707.684 1.97547 -0.780306 0
M  V30 7746 H 709.947 0.902758 -0.289363 0
M  V30 7747 H 709.653 3.48201 -0.494903 0
M  V30 7748 H 709.527 3.55756 1.2537 0
M  V30 7749 H 711.914 2.58148 1.42982 0
M  V30 7750 H 711.995 2.53568 -0.337148 0
M  V30 7751 H 711.639 5.06348 -0.396701 0
M  V30 7752 H 711.569 5.08105 1.38335 0
M  V30 7753 H 714.06 3.73144 0.597639 0
M  V30 7754 H 714.373 7.70462 0.600741 0
M  V30 7755 H 712.718 6.92843 0.547191 0
M  V30 7756 H 715.909 4.63467 0.656975 0
M  V30 7757 H 716.082 6.44644 0.658616 0
M  V30 7758 N 709.488 -0.375779 1.53054 0
M  V30 7759 C 710.713 -1.14484 1.7294 0
M  V30 7760 C 711.138 -1.82572 0.452668 0
M  V30 7761 O 710.496 -1.71343 -0.592567 0
M  V30 7762 C 710.544 -2.15857 2.88857 0
M  V30 7763 O 709.648 -3.22725 2.56753 0
M  V30 7764 H 708.989 -0.332666 0.574656 0
M  V30 7765 H 711.519 -0.436025 1.999 0
M  V30 7766 H 711.529 -2.59631 3.14731 0
M  V30 7767 H 710.204 -1.65689 3.81471 0
M  V30 7768 H 708.781 -2.83996 2.41663 0
M  V30 7769 N 710.966 -1.44241 -0.634997 0
M  V30 7770 C 712.214 -1.46531 -1.39187 0
M  V30 7771 C 712.535 -0.0976441 -1.94755 0
M  V30 7772 O 711.805 0.869528 -1.75545 0
M  V30 7773 H 710.385 -0.539544 -0.516625 0
M  V30 7774 H 713.047 -1.79989 -0.747655 0
M  V30 7775 H 712.143 -2.18848 -2.22513 0
M  V30 7776 N 712.444 0.87505 -1.31075 0
M  V30 7777 C 713.69 1.63009 -1.20647 0
M  V30 7778 C 714.023 1.9276 0.236045 0
M  V30 7779 O 713.298 1.55559 1.16754 0
M  V30 7780 C 713.581 2.96357 -2.0456 0
M  V30 7781 C 713.434 2.73516 -3.57084 0
M  V30 7782 C 714.753 3.974 -1.89107 0
M  V30 7783 H 711.872 0.591518 -0.439631 0
M  V30 7784 H 714.514 1.0119 -1.60812 0
M  V30 7785 H 712.664 3.49119 -1.70435 0
M  V30 7786 H 714.336 2.27465 -4.01319 0
M  V30 7787 H 712.579 2.0784 -3.80769 0
M  V30 7788 H 713.25 3.68377 -4.11099 0
M  V30 7789 H 715.726 3.5383 -2.18961 0
M  V30 7790 H 714.602 4.88596 -2.5013 0
M  V30 7791 H 714.863 4.33794 -0.85296 0
M  V30 7792 N 713.922 1.13953 1.08869 0
M  V30 7793 C 714.869 0.82213 2.15661 0
M  V30 7794 C 715.839 -0.218274 1.6466 0
M  V30 7795 O 717.024 -0.0892475 1.90591 0
M  V30 7796 C 714.164 0.300572 3.43789 0
M  V30 7797 C 713.277 1.40071 4.08661 0
M  V30 7798 C 712.412 0.836897 5.24566 0
M  V30 7799 C 711.451 1.91504 5.81371 0
M  V30 7800 N 710.588 1.36875 6.88629 0
M  V30 7801 H 715.428 1.73683 2.42153 0
M  V30 7802 H 712.965 0.866879 1.18843 0
M  V30 7803 H 714.923 -0.0199943 4.17195 0
M  V30 7804 H 713.553 -0.577248 3.17597 0
M  V30 7805 H 712.605 1.83776 3.33062 0
M  V30 7806 H 713.917 2.21534 4.46905 0
M  V30 7807 H 713.071 0.467953 6.04893 0
M  V30 7808 H 711.81 -0.00874207 4.87699 0
M  V30 7809 H 710.815 2.29299 4.99702 0
M  V30 7810 H 712.04 2.76419 6.20298 0
M  V30 7811 H 709.986 0.545211 6.5373 0
M  V30 7812 H 709.903 2.1198 7.25672 0
M  V30 7813 H 711.171 1.02756 7.72698 0
M  V30 7814 N 715.4 -1.26948 0.933913 0
M  V30 7815 C 716.628 -1.98186 0.59414 0
M  V30 7816 C 717.043 -1.69614 -0.829257 0
M  V30 7817 O 716.4 -0.960213 -1.55197 0
M  V30 7818 C 716.451 -3.52123 0.818026 0
M  V30 7819 O 716.172 -3.79698 2.18543 0
M  V30 7820 C 717.673 -4.40608 0.48781 0
M  V30 7821 H 714.893 -0.632305 0.224569 0
M  V30 7822 H 717.437 -1.61646 1.25263 0
M  V30 7823 H 715.592 -3.86851 0.206246 0
M  V30 7824 H 716.006 -4.7426 2.24005 0
M  V30 7825 H 717.48 -5.47606 0.695126 0
M  V30 7826 H 717.957 -4.35394 -0.576913 0
M  V30 7827 H 718.563 -4.11411 1.078 0
M  V30 7828 N 716.879 -0.700114 -1.41195 0
M  V30 7829 C 718.104 -0.240704 -2.05998 0
M  V30 7830 C 718.529 1.10313 -1.52357 0
M  V30 7831 O 717.887 1.69154 -0.652424 0
M  V30 7832 C 717.935 -0.213783 -3.59966 0
M  V30 7833 O 717.039 0.809933 -4.04368 0
M  V30 7834 H 716.38 -0.116471 -0.653705 0
M  V30 7835 H 718.91 -0.956251 -1.80878 0
M  V30 7836 H 718.92 -0.0461852 -4.07974 0
M  V30 7837 H 717.595 -1.19454 -3.98376 0
M  V30 7838 H 716.172 0.611319 -3.67855 0
M  V30 7839 N 718.357 1.51182 -0.445186 0
M  V30 7840 C 719.605 2.01753 0.11841 0
M  V30 7841 C 719.926 1.33087 1.42523 0
M  V30 7842 O 719.196 0.467891 1.9023 0
M  V30 7843 H 717.776 0.745536 0.0467492 0
M  V30 7844 H 720.438 1.85765 -0.589688 0
M  V30 7845 H 719.534 3.10762 0.288665 0
M  V30 7846 N 719.835 0.176821 1.56605 0
M  V30 7847 C 721.06 -0.47599 2.01864 0
M  V30 7848 C 721.485 -1.55645 1.05623 0
M  V30 7849 O 720.843 -1.81263 0.0366729 0
M  V30 7850 C 720.891 -1.02619 3.4569 0
M  V30 7851 O 719.995 -2.13996 3.52533 0
M  V30 7852 H 719.336 -0.113363 0.654251 0
M  V30 7853 H 721.866 0.28233 2.02643 0
M  V30 7854 H 721.876 -1.34742 3.85109 0
M  V30 7855 H 720.551 -0.235138 4.15235 0
M  V30 7856 H 719.128 -1.82876 3.24978 0
M  V30 7857 N 721.313 -1.57302 -0.09688 0
M  V30 7858 C 722.223 -2.05258 -1.13606 0
M  V30 7859 C 723.239 -0.977137 -1.43972 0
M  V30 7860 O 724.415 -1.29018 -1.54649 0
M  V30 7861 C 721.48 -2.46593 -2.43706 0
M  V30 7862 C 720.541 -3.68322 -2.20538 0
M  V30 7863 C 719.774 -4.07676 -3.44435 0
M  V30 7864 O 719.997 -3.47141 -4.52603 0
M  V30 7865 O 718.931 -5.00641 -3.34129 0
M  V30 7866 H 722.757 -2.94069 -0.758752 0
M  V30 7867 H 720.342 -1.46164 -0.309263 0
M  V30 7868 H 722.224 -2.73814 -3.20318 0
M  V30 7869 H 720.899 -1.6092 -2.80867 0
M  V30 7870 H 719.806 -3.4622 -1.41713 0
M  V30 7871 H 721.139 -4.54769 -1.88271 0
M  V30 7872 N 722.791 0.367657 -1.53252 0
M  V30 7873 C 724.039 1.10832 -1.68999 0
M  V30 7874 C 724.36 1.89894 -0.443306 0
M  V30 7875 O 723.63 1.88235 0.54262 0
M  V30 7876 H 722.21 0.412153 -0.623008 0
M  V30 7877 H 724.872 0.414775 -1.90435 0
M  V30 7878 H 723.968 1.7993 -2.55013 0
M  V30 7879 N 724.269 1.44576 0.627338 0
M  V30 7880 C 725.494 1.51271 1.41887 0
M  V30 7881 C 725.919 0.139814 1.8758 0
M  V30 7882 O 725.277 -0.871746 1.58966 0
M  V30 7883 C 725.325 2.48529 2.61277 0
M  V30 7884 O 724.429 1.98944 3.61241 0
M  V30 7885 H 723.77 0.510668 0.424399 0
M  V30 7886 H 726.3 1.89746 0.765356 0
M  V30 7887 H 726.31 2.66689 3.08773 0
M  V30 7888 H 724.985 3.48249 2.27366 0
M  V30 7889 H 723.562 1.90568 3.20528 0
M  V30 7890 N 725.747 -0.868086 1.31537 0
M  V30 7891 C 726.71 -1.95703 1.19302 0
M  V30 7892 C 727.71 -1.60355 0.119612 0
M  V30 7893 O 728.9 -1.70247 0.36902 0
M  V30 7894 C 726.032 -3.30599 0.831684 0
M  V30 7895 H 727.225 -2.07982 2.16064 0
M  V30 7896 H 724.778 -1.05661 1.15176 0
M  V30 7897 H 725.513 -3.2402 -0.134694 0
M  V30 7898 H 725.298 -3.57629 1.60761 0
M  V30 7899 H 726.788 -4.10439 0.770026 0
M  V30 7900 N 727.225 -1.14528 -1.08264 0
M  V30 7901 C 728.636 -0.925261 -1.6216 0
M  V30 7902 C 728.987 0.535587 -1.88748 0
M  V30 7903 O 728.112 1.4048 -1.64604 0
M  V30 7904 C 728.707 -1.67316 -2.94603 0
M  V30 7905 C 727.266 -1.49868 -3.45278 0
M  V30 7906 C 726.413 -1.69471 -2.19487 0
M  V30 7907 H 729.364 -1.29687 -0.914707 0
M  V30 7908 H 729.385 -1.13721 -3.63109 0
M  V30 7909 H 728.897 -2.73635 -2.75219 0
M  V30 7910 H 726.998 -0.459032 -3.69762 0
M  V30 7911 H 727.111 -2.2696 -4.21931 0
M  V30 7912 H 725.475 -1.12048 -2.2873 0
M  V30 7913 H 726.258 -2.77136 -2.0261 0
M  V30 7914 N 728.703 1.26451 -0.940633 0
M  V30 7915 C 729.952 1.93071 -0.583656 0
M  V30 7916 C 730.265 1.74618 0.881366 0
M  V30 7917 O 731.471 2.35689 1.34769 0
M  V30 7918 C 729.927 3.45927 -0.993106 0
M  V30 7919 C 729.535 3.73115 -2.4797 0
M  V30 7920 C 731.279 4.18554 -0.707998 0
M  V30 7921 C 729.186 5.19408 -2.82788 0
M  V30 7922 H 728.116 0.722824 -0.214572 0
M  V30 7923 H 730.767 1.43538 -1.1432 0
M  V30 7924 H 729.149 3.94341 -0.362099 0
M  V30 7925 H 730.323 3.35408 -3.15971 0
M  V30 7926 H 728.638 3.13719 -2.73805 0
M  V30 7927 H 731.235 5.26293 -0.94447 0
M  V30 7928 H 731.578 4.14782 0.355225 0
M  V30 7929 H 732.111 3.76003 -1.2987 0
M  V30 7930 H 728.85 5.28281 -3.88071 0
M  V30 7931 H 728.37 5.58214 -2.19449 0
M  V30 7932 H 730.049 5.87407 -2.71224 0
M  V30 7933 N 730.181 0.707592 1.40822 0
M  V30 7934 C 731.129 0.0386643 2.32568 0
M  V30 7935 C 732.123 -0.755653 1.51612 0
M  V30 7936 O 733.329 -0.659921 1.67467 0
M  V30 7937 H 729.704 -0.00629912 0.751974 0
M  V30 7938 H 731.675 0.8293 2.86645 0
M  V30 7939 C 730.424 -0.87496 3.36511 0
M  V30 7940 H 729.747 -0.273157 3.98866 0
M  V30 7941 H 731.187 -1.31111 4.03219 0
M  V30 7942 C 729.646 -1.99672 2.71353 0
M  V30 7943 O 730.176 -3.08676 2.57064 0
M  V30 7944 N 728.382 -1.77799 2.29861 0
M  V30 7945 H 727.929 -0.89147 2.41683 0
M  V30 7946 H 727.887 -2.53036 1.86601 0
M  V30 7947 N 731.66 -1.50943 0.453197 0
M  V30 7948 C 732.608 -2.29728 -0.364419 0
M  V30 7949 C 733.602 -1.36246 -1.00664 0
M  V30 7950 O 734.808 -1.53518 -0.939794 0
M  V30 7951 H 731.183 -0.739536 -0.136347 0
M  V30 7952 H 733.154 -2.96672 0.320696 0
M  V30 7953 C 731.903 -3.1629 -1.44415 0
M  V30 7954 H 731.226 -3.88119 -0.959343 0
M  V30 7955 H 732.666 -3.74444 -1.98917 0
M  V30 7956 C 731.125 -2.32702 -2.43622 0
M  V30 7957 O 731.655 -1.99763 -3.48508 0
M  V30 7958 N 729.861 -1.95621 -2.14897 0
M  V30 7959 H 729.408 -2.22607 -1.29629 0
M  V30 7960 H 729.366 -1.39993 -2.81513 0
M  V30 7961 N 733.138 -0.185124 -1.56509 0
M  V30 7962 C 734.363 0.465278 -2.02114 0
M  V30 7963 C 734.788 1.55083 -1.06447 0
M  V30 7964 O 734.146 1.81241 -0.0462852 0
M  V30 7965 C 734.194 1.00784 -3.46229 0
M  V30 7966 O 733.298 2.12123 -3.53663 0
M  V30 7967 H 732.639 0.109891 -0.654843 0
M  V30 7968 H 735.169 -0.293072 -2.0249 0
M  V30 7969 H 735.179 1.32697 -3.85818 0
M  V30 7970 H 733.854 0.213113 -4.15354 0
M  V30 7971 H 732.431 1.8115 -3.25943 0
M  V30 7972 N 734.616 1.57351 0.0885366 0
M  V30 7973 C 735.862 1.86696 0.791996 0
M  V30 7974 C 736.195 0.775148 1.78059 0
M  V30 7975 O 735.47 -0.216247 1.93294 0
M  V30 7976 C 735.753 3.26684 1.51491 0
M  V30 7977 C 735.606 4.465 0.543858 0
M  V30 7978 C 736.925 3.64664 2.46391 0
M  V30 7979 H 734.044 0.679049 0.286463 0
M  V30 7980 H 736.686 1.89919 0.0554866 0
M  V30 7981 H 734.836 3.24067 2.14273 0
M  V30 7982 H 736.508 4.61235 -0.0774597 0
M  V30 7983 H 734.751 4.33567 -0.142228 0
M  V30 7984 H 735.422 5.41192 1.08696 0
M  V30 7985 H 737.898 3.68267 1.93698 0
M  V30 7986 H 736.774 4.63534 2.93986 0
M  V30 7987 H 737.035 2.93698 3.30445 0
M  V30 7988 N 736.094 -0.359525 1.53444 0
M  V30 7989 C 737.343 -1.09886 1.69139 0
M  V30 7990 C 737.656 -1.90285 0.452863 0
M  V30 7991 O 738.862 -2.67033 0.490459 0
M  V30 7992 C 737.318 -2.0028 2.99025 0
M  V30 7993 C 736.926 -1.25164 4.30161 0
M  V30 7994 C 738.67 -2.74168 3.24086 0
M  V30 7995 C 736.577 -2.14494 5.51132 0
M  V30 7996 H 735.507 -0.413936 0.630217 0
M  V30 7997 H 738.158 -0.359434 1.79945 0
M  V30 7998 H 736.54 -2.77978 2.82036 0
M  V30 7999 H 737.714 -0.524867 4.57801 0
M  V30 8000 H 736.029 -0.631116 4.11589 0
M  V30 8001 H 738.626 -3.41243 4.11652 0
M  V30 8002 H 738.969 -3.39868 2.40407 0
M  V30 8003 H 739.502 -2.0355 3.41778 0
M  V30 8004 H 736.241 -1.53362 6.37307 0
M  V30 8005 H 735.761 -2.85004 5.27762 0
M  V30 8006 H 737.44 -2.73914 5.86157 0
M  V30 8007 N 737.572 -1.44907 -0.619662 0
M  V30 8008 C 738.797 -1.52021 -1.41083 0
M  V30 8009 C 739.222 -0.14976 -1.87503 0
M  V30 8010 O 738.58 0.863303 -1.59426 0
M  V30 8011 C 738.628 -2.49911 -2.59955 0
M  V30 8012 O 737.732 -2.00857 -3.60181 0
M  V30 8013 H 737.073 -0.512912 -0.421684 0
M  V30 8014 H 739.603 -1.90149 -0.755282 0
M  V30 8015 H 739.613 -2.68323 -3.07354 0
M  V30 8016 H 738.288 -3.4945 -2.25516 0
M  V30 8017 H 736.865 -1.92265 -3.19513 0
M  V30 8018 N 739.05 0.861098 -1.31996 0
M  V30 8019 C 740.296 1.61721 -1.22369 0
M  V30 8020 C 740.629 1.93 0.215587 0
M  V30 8021 O 739.904 1.56789 1.15098 0
M  V30 8022 C 740.187 2.9417 -2.07691 0
M  V30 8023 C 740.04 2.69714 -3.59965 0
M  V30 8024 C 741.359 3.95372 -1.93312 0
M  V30 8025 H 738.478 0.586822 -0.44588 0
M  V30 8026 H 741.12 0.994788 -1.61876 0
M  V30 8027 H 739.27 3.47292 -1.74128 0
M  V30 8028 H 740.942 2.23196 -4.03709 0
M  V30 8029 H 739.185 2.03789 -3.82952 0
M  V30 8030 H 739.856 3.63996 -4.14983 0
M  V30 8031 H 742.332 3.51487 -2.22701 0
M  V30 8032 H 741.208 4.85916 -2.55298 0
M  V30 8033 H 741.469 4.32865 -0.898922 0
M  V30 8034 N 740.528 1.15101 1.07655 0
M  V30 8035 C 741.805 0.834578 1.76902 0
M  V30 8036 C 742.185 -0.670431 2.00171 0
M  V30 8037 O 741.533 -1.61378 1.6177 0
M  V30 8038 C 741.743 1.64191 3.07965 0
M  V30 8039 C 743.091 1.84615 3.82364 0
M  V30 8040 O 744.115 1.60941 3.17768 0
M  V30 8041 O 742.974 2.24244 4.98374 0
M  V30 8042 H 740.068 0.306608 0.768063 0
M  V30 8043 H 742.614 1.25663 1.14048 0
M  V30 8044 H 741.386 2.66386 2.86626 0
M  V30 8045 H 741.009 1.216 3.78549 0
M  V30 8046 N 742.006 -1.2595 0.947325 0
M  V30 8047 C 743.236 -1.97258 0.614235 0
M  V30 8048 C 743.644 -1.70682 -0.816355 0
M  V30 8049 O 742.987 -0.97527 -1.55673 0
M  V30 8050 C 743.049 -3.50845 0.784081 0
M  V30 8051 C 742.713 -4.01084 2.19045 0
M  V30 8052 C 743.71 -4.12347 3.16648 0
M  V30 8053 C 741.395 -4.34936 2.51268 0
M  V30 8054 C 743.389 -4.56766 4.44572 0
M  V30 8055 C 741.076 -4.79043 3.79422 0
M  V30 8056 C 742.074 -4.89919 4.75887 0
M  V30 8057 O 741.762 -5.3305 6.01758 0
M  V30 8058 H 741.494 -0.635738 0.22981 0
M  V30 8059 H 744.048 -1.61268 1.27207 0
M  V30 8060 H 742.278 -3.86638 0.069101 0
M  V30 8061 H 743.967 -4.03363 0.453135 0
M  V30 8062 H 744.733 -3.86432 2.93079 0
M  V30 8063 H 740.612 -4.25702 1.76916 0
M  V30 8064 H 744.156 -4.6517 5.19868 0
M  V30 8065 H 740.053 -5.04402 4.02802 0
M  V30 8066 H 740.821 -5.51255 6.05029 0
M  V30 8067 N 743.484 -0.715051 -1.40445 0
M  V30 8068 C 744.431 -0.0621393 -2.30716 0
M  V30 8069 C 745.401 0.750871 -1.48159 0
M  V30 8070 O 746.586 0.714928 -1.76899 0
M  V30 8071 C 743.726 0.854036 -3.34365 0
M  V30 8072 C 742.839 0.0305565 -4.31989 0
M  V30 8073 C 741.974 0.946162 -5.22706 0
M  V30 8074 C 741.013 0.116741 -6.11989 0
M  V30 8075 N 740.15 0.987194 -6.95125 0
M  V30 8076 H 744.99 -0.83764 -2.85985 0
M  V30 8077 H 742.527 -0.424759 -1.40834 0
M  V30 8078 H 744.485 1.39946 -3.93028 0
M  V30 8079 H 743.115 1.59572 -2.806 0
M  V30 8080 H 742.167 -0.632044 -3.75112 0
M  V30 8081 H 743.479 -0.611615 -4.95036 0
M  V30 8082 H 742.633 1.56014 -5.86297 0
M  V30 8083 H 741.372 1.62216 -4.59932 0
M  V30 8084 H 740.377 -0.510176 -5.47428 0
M  V30 8085 H 741.602 -0.555742 -6.76822 0
M  V30 8086 H 739.548 1.64885 -6.3494 0
M  V30 8087 H 739.465 0.401046 -7.54936 0
M  V30 8088 H 740.733 1.58737 -7.63166 0
M  V30 8089 N 744.962 1.50701 -0.461195 0
M  V30 8090 C 746.187 2.07171 0.0974773 0
M  V30 8091 C 746.612 1.32391 1.3362 0
M  V30 8092 O 745.97 0.368676 1.77512 0
M  V30 8093 C 746.018 3.58651 0.374409 0
M  V30 8094 O 745.122 3.85816 1.4567 0
M  V30 8095 H 744.463 0.663944 -0.00862047 0
M  V30 8096 H 746.993 1.94021 -0.649394 0
M  V30 8097 H 747.003 4.03295 0.617843 0
M  V30 8098 H 745.678 4.12498 -0.530829 0
M  V30 8099 H 744.255 3.53018 1.20136 0
M  V30 8100 N 746.441 0.193421 1.56409 0
M  V30 8101 C 747.688 -0.445789 1.97532 0
M  V30 8102 C 748.016 -1.61744 1.08024 0
M  V30 8103 O 747.271 -1.95338 0.118982 0
M  V30 8104 C 747.57 -0.949718 3.44551 0
M  V30 8105 C 747.236 0.108383 4.5077 0
M  V30 8106 C 745.898 0.399126 4.79542 0
M  V30 8107 C 748.25 0.825423 5.14622 0
M  V30 8108 C 745.578 1.41192 5.69457 0
M  V30 8109 C 747.93 1.82735 6.05632 0
M  V30 8110 C 746.594 2.12531 6.32761 0
M  V30 8111 H 745.864 -0.163126 0.722822 0
M  V30 8112 H 748.511 0.290035 1.89291 0
M  V30 8113 H 746.816 -1.76378 3.49854 0
M  V30 8114 H 748.513 -1.45367 3.73724 0
M  V30 8115 H 745.103 -0.128392 4.28408 0
M  V30 8116 H 749.287 0.61403 4.92487 0
M  V30 8117 H 744.543 1.6487 5.88751 0
M  V30 8118 H 748.717 2.3882 6.5417 0
M  V30 8119 H 746.344 2.91155 7.02234 0
M  V30 8120 N 747.919 -1.57396 -0.0801906 0
M  V30 8121 C 748.866 -2.03107 -1.09618 0
M  V30 8122 C 749.836 -0.910118 -1.38946 0
M  V30 8123 O 751.021 -1.17719 -1.50156 0
M  V30 8124 C 748.161 -2.47293 -2.40708 0
M  V30 8125 C 747.274 -3.72972 -2.17982 0
M  V30 8126 C 746.409 -4.05975 -3.42576 0
M  V30 8127 C 745.448 -5.24719 -3.15177 0
M  V30 8128 N 744.585 -5.53401 -4.32078 0
M  V30 8129 H 749.425 -2.89677 -0.69939 0
M  V30 8130 H 746.962 -1.43263 -0.333785 0
M  V30 8131 H 748.92 -2.7096 -3.17232 0
M  V30 8132 H 747.55 -1.63713 -2.78205 0
M  V30 8133 H 746.602 -3.56693 -1.32189 0
M  V30 8134 H 747.914 -4.59638 -1.93738 0
M  V30 8135 H 747.068 -4.30498 -4.275 0
M  V30 8136 H 745.807 -3.17859 -3.69887 0
M  V30 8137 H 744.812 -5 -2.28648 0
M  V30 8138 H 746.037 -6.14445 -2.89197 0
M  V30 8139 H 743.983 -4.68245 -4.59437 0
M  V30 8140 H 743.9 -6.34469 -4.11078 0
M  V30 8141 H 745.168 -5.8247 -5.18024 0
M  V30 8142 N 749.397 0.351382 -1.53633 0
M  V30 8143 C 750.36 1.41403 -1.80383 0
M  V30 8144 C 751.36 1.45963 -0.674635 0
M  V30 8145 O 752.55 1.46476 -0.942895 0
M  V30 8146 C 749.682 2.80401 -1.93876 0
M  V30 8147 H 750.875 1.18951 -2.75301 0
M  V30 8148 H 748.428 0.58533 -1.44926 0
M  V30 8149 H 749.163 3.08147 -1.01074 0
M  V30 8150 H 748.948 2.78488 -2.7602 0
M  V30 8151 H 750.438 3.57329 -2.16116 0
M  V30 8152 N 750.875 1.45233 0.611969 0
M  V30 8153 C 752.103 1.52539 1.39784 0
M  V30 8154 C 752.518 0.156533 1.8815 0
M  V30 8155 O 751.875 -0.84112 1.61961 0
M  V30 8156 C 751.926 2.50614 2.60528 0
M  V30 8157 O 751.647 3.8218 2.14173 0
M  V30 8158 C 753.148 2.67574 3.53439 0
M  V30 8159 H 750.368 0.51674 0.428043 0
M  V30 8160 H 752.912 1.90379 0.746727 0
M  V30 8161 H 751.067 2.15858 3.2169 0
M  V30 8162 H 751.481 4.35305 2.92592 0
M  V30 8163 H 752.955 3.40184 4.34717 0
M  V30 8164 H 753.432 1.73458 4.03496 0
M  V30 8165 H 754.038 3.0331 2.98133 0
M  V30 8166 N 752.353 -0.854086 1.3245 0
M  V30 8167 C 753.599 -1.6105 1.24235 0
M  V30 8168 C 753.954 -1.91421 -0.193877 0
M  V30 8169 O 753.247 -1.54599 -1.1318 0
M  V30 8170 C 753.441 -2.93746 2.03587 0
M  V30 8171 C 753.27 -2.76335 3.54781 0
M  V30 8172 C 752.04 -2.74687 4.24117 0
M  V30 8173 C 754.238 -2.50052 4.4942 0
M  V30 8174 N 752.22 -2.48493 5.6136 0
M  V30 8175 C 753.591 -2.33269 5.74444 0
M  V30 8176 C 755.646 -2.35525 4.38671 0
M  V30 8177 C 754.349 -2.03434 6.89933 0
M  V30 8178 C 756.375 -2.07081 5.5396 0
M  V30 8179 C 755.737 -1.91098 6.77983 0
M  V30 8180 H 751.836 -0.593008 0.50977 0
M  V30 8181 H 754.42 -1.00392 1.66822 0
M  V30 8182 H 752.591 -3.52382 1.63345 0
M  V30 8183 H 754.323 -3.58768 1.87263 0
M  V30 8184 H 751.078 -2.87647 3.7624 0
M  V30 8185 H 751.502 -2.38322 6.33665 0
M  V30 8186 H 756.144 -2.46602 3.43435 0
M  V30 8187 H 753.862 -1.91095 7.85181 0
M  V30 8188 H 757.448 -1.96618 5.4757 0
M  V30 8189 H 756.328 -1.69402 7.65684 0
M  V30 8190 N 753.831 -1.1567 -1.07043 0
M  V30 8191 C 755.059 -0.957471 -1.83412 0
M  V30 8192 C 755.474 0.494271 -1.82215 0
M  V30 8193 O 754.831 1.34288 -1.23584 0
M  V30 8194 C 754.882 -1.46784 -3.30359 0
M  V30 8195 O 754.603 -2.86271 -3.31633 0
M  V30 8196 C 756.104 -1.31054 -4.23485 0
M  V30 8197 H 753.324 -0.33986 -0.578564 0
M  V30 8198 H 755.868 -1.53518 -1.35102 0
M  V30 8199 H 754.023 -0.932586 -3.76007 0
M  V30 8200 H 754.437 -3.0948 -4.23465 0
M  V30 8201 H 755.911 -1.71605 -5.24648 0
M  V30 8202 H 756.388 -0.255107 -4.38458 0
M  V30 8203 H 756.994 -1.83503 -3.83676 0
M  V30 8204 N 755.309 1.25446 -0.953992 0
M  V30 8205 C 756.219 2.29632 -0.480264 0
M  V30 8206 C 757.235 1.68025 0.452071 0
M  V30 8207 O 758.411 1.98703 0.328472 0
M  V30 8208 C 755.476 3.45903 0.234974 0
M  V30 8209 C 754.537 4.22953 -0.735495 0
M  V30 8210 C 753.77 5.33672 -0.0542957 0
M  V30 8211 O 753.993 5.58477 1.16018 0
M  V30 8212 O 752.927 5.9734 -0.739509 0
M  V30 8213 H 756.753 2.72242 -1.34602 0
M  V30 8214 H 754.338 1.30883 -0.720419 0
M  V30 8215 H 756.22 4.16552 0.637341 0
M  V30 8216 H 754.895 3.05296 1.07592 0
M  V30 8217 H 753.802 3.54734 -1.18806 0
M  V30 8218 H 755.135 4.67341 -1.54444 0
M  V30 8219 N 756.787 0.722489 1.40064 0
M  V30 8220 C 758.033 0.265371 2.01056 0
M  V30 8221 C 758.366 -1.14062 1.57174 0
M  V30 8222 O 757.641 -1.77514 0.794916 0
M  V30 8223 C 757.924 0.353157 3.58364 0
M  V30 8224 C 757.777 1.79802 4.123 0
M  V30 8225 C 759.096 -0.271677 4.39261 0
M  V30 8226 H 756.215 0.0979002 0.730469 0
M  V30 8227 H 758.857 0.916289 1.66446 0
M  V30 8228 H 757.007 -0.201037 3.87979 0
M  V30 8229 H 758.679 2.40813 3.93455 0
M  V30 8230 H 756.922 2.32348 3.66329 0
M  V30 8231 H 757.593 1.81079 5.21454 0
M  V30 8232 H 760.069 0.200607 4.15616 0
M  V30 8233 H 758.945 -0.179843 5.48605 0
M  V30 8234 H 759.206 -1.35611 4.20787 0
M  V30 8235 N 758.265 -1.50454 0.469181 0
M  V30 8236 C 759.511 -2.02615 -0.0865971 0
M  V30 8237 C 759.844 -1.35062 -1.39542 0
M  V30 8238 O 759.119 -0.475701 -1.88593 0
M  V30 8239 C 759.402 -3.59068 -0.272385 0
M  V30 8240 C 759.255 -4.37196 1.05733 0
M  V30 8241 C 760.574 -4.2793 -1.0278 0
M  V30 8242 H 757.693 -0.736389 -0.0299977 0
M  V30 8243 H 760.335 -1.79792 0.614399 0
M  V30 8244 H 758.485 -3.78646 -0.869471 0
M  V30 8245 H 760.157 -4.29195 1.69084 0
M  V30 8246 H 758.4 -4.01013 1.65442 0
M  V30 8247 H 759.071 -5.44924 0.880997 0
M  V30 8248 H 761.547 -4.12816 -0.521718 0
M  V30 8249 H 760.423 -5.37214 -1.12659 0
M  V30 8250 H 760.684 -3.90968 -2.0639 0
M  V30 8251 N 759.743 -0.201713 -1.56304 0
M  V30 8252 C 760.693 0.729444 -2.16016 0
M  V30 8253 C 761.677 1.17164 -1.10279 0
M  V30 8254 O 762.869 1.12893 -1.36324 0
M  V30 8255 C 759.998 1.94594 -2.82822 0
M  V30 8256 C 759.084 1.52434 -3.95758 0
M  V30 8257 N 759.475 0.814106 -4.99205 0
M  V30 8258 C 757.773 1.81314 -4.07481 0
M  V30 8259 C 758.474 0.601896 -5.78578 0
M  V30 8260 N 757.45 1.15263 -5.3124 0
M  V30 8261 H 761.252 0.178163 -2.93359 0
M  V30 8262 H 758.766 -0.00218038 -1.624 0
M  V30 8263 H 760.763 2.62357 -3.23998 0
M  V30 8264 H 759.423 2.50188 -2.06969 0
M  V30 8265 H 760.434 0.468872 -5.15773 0
M  V30 8266 H 757.111 2.3837 -3.42762 0
M  V30 8267 H 758.501 0.0380119 -6.71889 0
M  V30 8268 N 761.222 1.57436 0.0718424 0
M  V30 8269 C 762.471 1.86431 0.769826 0
M  V30 8270 C 762.784 0.794355 1.78744 0
M  V30 8271 O 763.99 0.972148 2.53499 0
M  V30 8272 C 762.446 3.307 1.42006 0
M  V30 8273 C 762.054 4.45824 0.441017 0
M  V30 8274 C 763.798 3.68894 2.10041 0
M  V30 8275 C 761.705 5.81134 1.09717 0
M  V30 8276 H 760.635 0.695474 0.291259 0
M  V30 8277 H 763.286 1.83485 0.0231224 0
M  V30 8278 H 761.668 3.28257 2.21502 0
M  V30 8279 H 762.842 4.59659 -0.32413 0
M  V30 8280 H 761.157 4.16181 -0.134886 0
M  V30 8281 H 763.754 4.67281 2.59908 0
M  V30 8282 H 764.097 2.98692 2.89981 0
M  V30 8283 H 764.63 3.73326 1.37376 0
M  V30 8284 H 761.369 6.54628 0.338095 0
M  V30 8285 H 760.889 5.711 1.83317 0
M  V30 8286 H 762.568 6.26468 1.617 0
M  V30 8287 N 762.7 -0.34323 1.53817 0
M  V30 8288 C 763.648 -1.44176 1.82527 0
M  V30 8289 C 764.642 -1.54452 0.695772 0
M  V30 8290 O 765.848 -1.57072 0.879114 0
M  V30 8291 H 762.223 -0.480729 0.578277 0
M  V30 8292 H 764.194 -1.17176 2.74431 0
M  V30 8293 C 762.943 -2.80695 2.05197 0
M  V30 8294 H 762.266 -2.73554 2.91561 0
M  V30 8295 H 763.706 -3.56679 2.29251 0
M  V30 8296 C 762.165 -3.26322 0.837589 0
M  V30 8297 O 762.695 -4.01683 0.0371631 0
M  V30 8298 N 760.901 -2.83128 0.654724 0
M  V30 8299 H 760.448 -2.21965 1.30725 0
M  V30 8300 H 760.406 -3.14011 -0.156345 0
M  V30 8301 N 764.178 -1.45556 -0.604258 0
M  V30 8302 C 765.594 -1.30035 -0.925368 0
M  V30 8303 C 765.794 -0.255833 -1.99869 0
M  V30 8304 O 764.85 0.349076 -2.50075 0
M  V30 8305 C 766.163 -2.68028 -1.36314 0
M  V30 8306 C 767.711 -2.75951 -1.47717 0
M  V30 8307 C 768.186 -4.14476 -1.94868 0
M  V30 8308 N 769.677 -4.16787 -2.02097 0
M  V30 8309 C 770.412 -5.20845 -2.39809 0
M  V30 8310 N 769.908 -6.35246 -2.76467 0
M  V30 8311 N 771.701 -5.08204 -2.40177 0
M  V30 8312 H 763.852 -2.1214 0.10512 0
M  V30 8313 H 766.115 -0.947871 -0.0156303 0
M  V30 8314 H 765.821 -3.45667 -0.648628 0
M  V30 8315 H 765.695 -2.96711 -2.329 0
M  V30 8316 H 768.082 -1.98613 -2.18258 0
M  V30 8317 H 768.163 -2.50977 -0.494371 0
M  V30 8318 H 767.807 -4.923 -1.24912 0
M  V30 8319 H 767.737 -4.36843 -2.94068 0
M  V30 8320 H 770.228 -3.34233 -1.76343 0
M  V30 8321 H 770.541 -7.10438 -3.04134 0
M  V30 8322 H 768.886 -6.38642 -2.74155 0
M  V30 8323 H 772.077 -4.17874 -2.10947 0
M  V30 8324 H 772.25 -5.89417 -2.69242 0
M  V30 8325 N 765.656 0.84705 -1.32902 0
M  V30 8326 C 766.566 1.98845 -1.2449 0
M  V30 8327 C 767.582 1.7329 -0.15702 0
M  V30 8328 O 768.758 1.978 -0.379104 0
M  V30 8329 C 765.823 3.32679 -0.975985 0
M  V30 8330 C 764.884 3.71405 -2.15306 0
M  V30 8331 C 764.117 4.98853 -1.89688 0
M  V30 8332 O 764.34 5.64134 -0.843168 0
M  V30 8333 O 763.274 5.34889 -2.76002 0
M  V30 8334 H 767.1 2.0888 -2.2046 0
M  V30 8335 H 764.685 0.978852 -1.12867 0
M  V30 8336 H 766.567 4.12885 -0.842826 0
M  V30 8337 H 765.242 3.23667 -0.0464954 0
M  V30 8338 H 764.149 2.91743 -2.34172 0
M  V30 8339 H 765.482 3.85073 -3.06561 0
M  V30 8340 N 767.134 1.16236 1.06428 0
M  V30 8341 C 768.55 0.906983 1.31324 0
M  V30 8342 C 768.75 -0.440872 1.96618 0
M  V30 8343 O 767.806 -1.1807 2.23194 0
M  V30 8344 C 769.119 2.05501 2.19522 0
M  V30 8345 C 770.667 2.09061 2.32943 0
M  V30 8346 C 771.142 3.23214 3.24495 0
M  V30 8347 N 772.633 3.22922 3.32078 0
M  V30 8348 C 773.368 4.07889 4.03006 0
M  V30 8349 N 772.864 5.02941 4.76469 0
M  V30 8350 N 774.657 3.95881 3.99043 0
M  V30 8351 H 766.808 2.03015 0.624388 0
M  V30 8352 H 769.071 0.88576 0.337835 0
M  V30 8353 H 768.777 3.02847 1.78819 0
M  V30 8354 H 768.651 1.99538 3.201 0
M  V30 8355 H 771.038 1.12308 2.72893 0
M  V30 8356 H 771.119 2.19089 1.32037 0
M  V30 8357 H 770.763 4.20225 2.85261 0
M  V30 8358 H 770.693 3.10423 4.25377 0
M  V30 8359 H 773.184 2.54093 2.79724 0
M  V30 8360 H 773.497 5.64196 5.28112 0
M  V30 8361 H 771.842 5.06922 4.75453 0
M  V30 8362 H 775.033 3.20927 3.40769 0
M  V30 8363 H 775.206 4.62321 4.54052 0
M  V30 8364 N 768.612 -1.24939 0.960631 0
M  V30 8365 C 769.858 -1.93425 0.629155 0
M  V30 8366 C 770.213 -1.73784 -0.825635 0
M  V30 8367 O 769.506 -1.07595 -1.58536 0
M  V30 8368 C 769.7 -3.45066 0.930809 0
M  V30 8369 C 769.529 -3.79455 2.41337 0
M  V30 8370 C 768.299 -4.01195 3.07197 0
M  V30 8371 C 770.497 -3.86492 3.39306 0
M  V30 8372 N 768.479 -4.22626 4.45265 0
M  V30 8373 C 769.85 -4.12682 4.62702 0
M  V30 8374 C 771.905 -3.69198 3.34061 0
M  V30 8375 C 770.608 -4.23376 5.81502 0
M  V30 8376 C 772.634 -3.81135 4.52206 0
M  V30 8377 C 771.996 -4.07743 5.74391 0
M  V30 8378 H 768.095 -0.729791 0.280943 0
M  V30 8379 H 770.679 -1.50597 1.23404 0
M  V30 8380 H 768.85 -3.86776 0.354801 0
M  V30 8381 H 770.582 -4.00826 0.558627 0
M  V30 8382 H 767.337 -3.97319 2.5775 0
M  V30 8383 H 767.761 -4.37335 5.16785 0
M  V30 8384 H 772.403 -3.47639 2.40638 0
M  V30 8385 H 770.121 -4.4375 6.75361 0
M  V30 8386 H 773.707 -3.69133 4.49702 0
M  V30 8387 H 772.587 -4.16768 6.64284 0
M  V30 8388 N 770.09 -0.729906 -1.39679 0
M  V30 8389 C 771.506 -0.404951 -1.54377 0
M  V30 8390 C 771.706 1.08476 -1.6981 0
M  V30 8391 O 770.762 1.87087 -1.69572 0
M  V30 8392 C 772.075 -1.18352 -2.76429 0
M  V30 8393 C 773.623 -1.17124 -2.9026 0
M  V30 8394 C 774.098 -1.93227 -4.15244 0
M  V30 8395 N 775.589 -1.90368 -4.22273 0
M  V30 8396 C 776.324 -2.46065 -5.17918 0
M  V30 8397 N 775.82 -3.10378 -6.19385 0
M  V30 8398 N 777.613 -2.36127 -5.10099 0
M  V30 8399 H 769.764 -1.69567 -1.27909 0
M  V30 8400 H 772.027 -0.717527 -0.619564 0
M  V30 8401 H 771.733 -2.23743 -2.71352 0
M  V30 8402 H 771.607 -0.784589 -3.6895 0
M  V30 8403 H 773.994 -0.125478 -2.94833 0
M  V30 8404 H 774.075 -1.60951 -1.98817 0
M  V30 8405 H 773.719 -2.97802 -4.11432 0
M  V30 8406 H 773.649 -1.4681 -5.05722 0
M  V30 8407 H 776.14 -1.4351 -3.4959 0
M  V30 8408 H 776.453 -3.50358 -6.88817 0
M  V30 8409 H 774.798 -3.14467 -6.19787 0
M  V30 8410 H 777.989 -1.85529 -4.29763 0
M  V30 8411 H 778.162 -2.79833 -5.84463 0
M  V30 8412 N 771.568 1.50203 -0.477153 0
M  V30 8413 C 772.531 2.27194 0.302599 0
M  V30 8414 C 773.531 1.32221 0.915112 0
M  V30 8415 O 774.721 1.55593 0.783348 0
M  V30 8416 C 771.853 3.0938 1.43167 0
M  V30 8417 H 773.046 2.97575 -0.372678 0
M  V30 8418 H 770.599 1.54578 -0.231392 0
M  V30 8419 H 771.334 2.43509 2.14182 0
M  V30 8420 H 771.119 3.79181 0.998197 0
M  V30 8421 H 772.609 3.67592 1.98157 0
M  V30 8422 N 773.046 0.209999 1.56195 0
M  V30 8423 C 773.993 -0.704854 2.19774 0
M  V30 8424 C 774.963 -1.19886 1.14964 0
M  V30 8425 O 776.148 -1.26005 1.43274 0
M  V30 8426 C 773.288 -1.91241 2.87265 0
M  V30 8427 C 772.401 -1.45838 4.06639 0
M  V30 8428 C 771.536 -2.6226 4.61945 0
M  V30 8429 C 770.575 -2.13537 5.73645 0
M  V30 8430 N 769.712 -3.2319 6.23292 0
M  V30 8431 H 774.552 -0.155944 2.97592 0
M  V30 8432 H 772.089 -0.0652235 1.46955 0
M  V30 8433 H 774.047 -2.62123 3.24573 0
M  V30 8434 H 772.677 -2.43439 2.11985 0
M  V30 8435 H 771.729 -0.644897 3.74894 0
M  V30 8436 H 773.041 -1.06103 4.87384 0
M  V30 8437 H 772.195 -3.41243 5.01636 0
M  V30 8438 H 770.934 -3.05278 3.80338 0
M  V30 8439 H 769.939 -1.33013 5.33468 0
M  V30 8440 H 771.164 -1.71533 6.57079 0
M  V30 8441 H 769.11 -3.65711 5.44602 0
M  V30 8442 H 769.027 -2.8767 6.99129 0
M  V30 8443 H 770.295 -4.02342 6.67639 0
M  V30 8444 N 774.524 -1.57472 -0.0634922 0
M  V30 8445 C 775.77 -1.87932 -0.762194 0
M  V30 8446 C 776.103 -0.803377 -1.76804 0
M  V30 8447 O 775.378 0.185468 -1.93614 0
M  V30 8448 C 775.661 -3.29053 -1.46275 0
M  V30 8449 C 775.514 -4.47309 -0.472755 0
M  V30 8450 C 776.833 -3.68537 -2.40558 0
M  V30 8451 H 773.952 -0.683521 -0.275624 0
M  V30 8452 H 776.594 -1.89983 -0.0252651 0
M  V30 8453 H 774.744 -3.27435 -2.0909 0
M  V30 8454 H 776.416 -4.61053 0.150828 0
M  V30 8455 H 774.659 -4.33286 0.211187 0
M  V30 8456 H 775.33 -5.42853 -1.00072 0
M  V30 8457 H 777.806 -3.71302 -1.87814 0
M  V30 8458 H 776.682 -4.68152 -2.86574 0
M  V30 8459 H 776.943 -2.98917 -3.25731 0
M  V30 8460 N 776.003 0.335068 -1.53997 0
M  V30 8461 C 777.414 0.910191 -1.6301 0
M  V30 8462 C 777.765 1.89271 -0.516809 0
M  V30 8463 O 776.89 2.13516 0.352123 0
M  V30 8464 C 777.485 1.65761 -2.9548 0
M  V30 8465 C 776.044 2.18163 -3.06728 0
M  V30 8466 C 775.191 1.00338 -2.5851 0
M  V30 8467 H 778.142 0.112965 -1.58297 0
M  V30 8468 H 778.163 2.52107 -2.84995 0
M  V30 8469 H 777.675 0.94227 -3.76488 0
M  V30 8470 H 775.776 2.92847 -2.30372 0
M  V30 8471 H 775.889 2.43952 -4.1234 0
M  V30 8472 H 774.253 1.37925 -2.14124 0
M  V30 8473 H 775.036 0.30254 -3.41964 0
M  V30 8474 N 777.481 1.45874 0.596531 0
M  V30 8475 C 778.428 1.55389 1.70655 0
M  V30 8476 C 779.398 0.399036 1.61236 0
M  V30 8477 O 780.583 0.61396 1.80652 0
M  V30 8478 C 777.723 1.53705 3.0898 0
M  V30 8479 C 776.836 2.79823 3.29125 0
M  V30 8480 C 775.971 2.69735 4.5762 0
M  V30 8481 C 775.01 3.90856 4.71061 0
M  V30 8482 N 774.147 3.79237 5.90867 0
M  V30 8483 H 778.987 2.50211 1.61859 0
M  V30 8484 H 776.524 1.24146 0.789069 0
M  V30 8485 H 778.482 1.50715 3.89026 0
M  V30 8486 H 777.112 0.624247 3.16706 0
M  V30 8487 H 776.164 2.92852 2.42779 0
M  V30 8488 H 777.476 3.69628 3.34927 0
M  V30 8489 H 776.63 2.64773 5.45875 0
M  V30 8490 H 775.369 1.77547 4.54234 0
M  V30 8491 H 774.374 3.96164 3.81227 0
M  V30 8492 H 775.599 4.84124 4.76236 0
M  V30 8493 H 773.545 2.89825 5.88504 0
M  V30 8494 H 773.462 4.62686 5.97877 0
M  V30 8495 H 774.73 3.78227 6.8159 0
M  V30 8496 N 778.959 -0.83999 1.33349 0
M  V30 8497 C 779.869 -1.98182 1.25543 0
M  V30 8498 C 780.885 -1.73204 0.166208 0
M  V30 8499 O 782.061 -1.97596 0.389589 0
M  V30 8500 C 779.126 -3.32157 0.993614 0
M  V30 8501 C 778.187 -3.70258 2.17273 0
M  V30 8502 C 777.42 -4.9784 1.92331 0
M  V30 8503 O 777.643 -5.63679 0.873074 0
M  V30 8504 O 776.577 -5.33418 2.78835 0
M  V30 8505 H 780.403 -2.07708 2.21565 0
M  V30 8506 H 777.988 -0.972852 1.13384 0
M  V30 8507 H 779.87 -4.12433 0.864711 0
M  V30 8508 H 778.545 -3.23637 0.0636596 0
M  V30 8509 H 777.452 -2.90497 2.35716 0
M  V30 8510 H 778.785 -3.83442 3.08598 0
M  V30 8511 N 780.437 -1.16799 -1.0581 0
M  V30 8512 C 781.347 -0.893492 -2.16919 0
M  V30 8513 C 782.363 0.136061 -1.73467 0
M  V30 8514 O 783.539 -0.0417348 -2.01357 0
M  V30 8515 C 780.604 -0.403763 -3.44341 0
M  V30 8516 C 779.665 -1.49914 -4.02274 0
M  V30 8517 C 778.898 -1.03269 -5.23614 0
M  V30 8518 O 779.121 0.115647 -5.70283 0
M  V30 8519 O 778.055 -1.8231 -5.73626 0
M  V30 8520 H 781.881 -1.82274 -2.42919 0
M  V30 8521 H 779.466 -0.948361 -1.1544 0
M  V30 8522 H 781.348 -0.137874 -4.21174 0
M  V30 8523 H 780.023 0.497413 -3.19855 0
M  V30 8524 H 778.93 -1.81883 -3.26909 0
M  V30 8525 H 780.263 -2.3758 -4.31064 0
M  V30 8526 N 781.915 1.24427 -0.967243 0
M  V30 8527 C 782.862 2.25398 -0.496419 0
M  V30 8528 C 783.832 1.59667 0.457781 0
M  V30 8529 O 785.017 1.87213 0.368246 0
M  V30 8530 C 782.157 3.44474 0.207693 0
M  V30 8531 C 781.27 4.24804 -0.785221 0
M  V30 8532 C 780.405 5.31169 -0.0572631 0
M  V30 8533 C 779.444 6.03195 -1.04027 0
M  V30 8534 N 778.581 7.01265 -0.34235 0
M  V30 8535 H 783.421 2.65039 -1.36229 0
M  V30 8536 H 780.958 1.30288 -0.682902 0
M  V30 8537 H 782.916 4.12376 0.632612 0
M  V30 8538 H 781.546 3.05672 1.03752 0
M  V30 8539 H 780.598 3.56445 -1.32858 0
M  V30 8540 H 781.91 4.74599 -1.53483 0
M  V30 8541 H 781.064 6.05205 0.425674 0
M  V30 8542 H 779.803 4.8228 0.725047 0
M  V30 8543 H 778.808 5.27964 -1.53409 0
M  V30 8544 H 780.033 6.54173 -1.82302 0
M  V30 8545 H 777.979 6.54648 0.420993 0
M  V30 8546 H 777.896 7.48939 -1.03084 0
M  V30 8547 H 779.164 7.7941 0.118634 0
M  V30 8548 N 783.393 0.737304 1.3929 0
M  V30 8549 C 784.356 0.10731 2.28949 0
M  V30 8550 C 785.356 -0.664716 1.46418 0
M  V30 8551 O 786.546 -0.493392 1.67067 0
M  V30 8552 C 783.678 -0.857145 3.29948 0
M  V30 8553 H 784.871 0.89725 2.86163 0
M  V30 8554 H 782.424 0.503279 1.47976 0
M  V30 8555 H 783.159 -1.67336 2.77794 0
M  V30 8556 H 782.944 -0.306167 3.90903 0
M  V30 8557 H 784.434 -1.29444 3.97031 0
M  V30 8558 N 784.871 -1.49948 0.485112 0
M  V30 8559 C 785.818 -2.28819 -0.301729 0
M  V30 8560 C 786.788 -1.34496 -0.974683 0
M  V30 8561 O 787.973 -1.63444 -0.984418 0
M  V30 8562 C 785.113 -3.16758 -1.36961 0
M  V30 8563 C 784.226 -4.26125 -0.710027 0
M  V30 8564 C 783.361 -5.01302 -1.75699 0
M  V30 8565 C 782.4 -6.02525 -1.07841 0
M  V30 8566 N 781.537 -6.70927 -2.06886 0
M  V30 8567 H 786.377 -2.95604 0.377127 0
M  V30 8568 H 783.914 -1.45764 0.197826 0
M  V30 8569 H 785.872 -3.66106 -2.00056 0
M  V30 8570 H 784.502 -2.51991 -2.01744 0
M  V30 8571 H 783.554 -3.80385 0.0338278 0
M  V30 8572 H 784.866 -4.98493 -0.175079 0
M  V30 8573 H 784.02 -5.54438 -2.46339 0
M  V30 8574 H 782.759 -4.28672 -2.32577 0
M  V30 8575 H 781.764 -5.48635 -0.357706 0
M  V30 8576 H 782.989 -6.77134 -0.516345 0
M  V30 8577 H 780.935 -6.01079 -2.62755 0
M  V30 8578 H 780.852 -7.39216 -1.58414 0
M  V30 8579 H 782.12 -7.28675 -2.76863 0
M  V30 8580 N 786.349 -0.21828 -1.56081 0
M  V30 8581 C 787.296 0.693189 -2.20144 0
M  V30 8582 C 788.266 1.19274 -1.15598 0
M  V30 8583 O 789.451 1.25243 -1.4394 0
M  V30 8584 C 786.591 1.89715 -2.88275 0
M  V30 8585 C 785.704 1.4368 -4.07407 0
M  V30 8586 C 784.839 2.59807 -4.63329 0
M  V30 8587 C 783.878 2.10492 -5.74769 0
M  V30 8588 N 783.015 3.1988 -6.24997 0
M  V30 8589 H 787.855 0.14016 -2.9767 0
M  V30 8590 H 785.392 0.0574292 -1.46988 0
M  V30 8591 H 787.35 2.60398 -3.25958 0
M  V30 8592 H 785.98 2.42311 -2.13273 0
M  V30 8593 H 785.032 0.625007 -3.7523 0
M  V30 8594 H 786.344 1.03517 -4.8794 0
M  V30 8595 H 785.498 3.38577 -5.03438 0
M  V30 8596 H 784.237 3.03256 -3.81951 0
M  V30 8597 H 783.242 1.30182 -5.34165 0
M  V30 8598 H 784.467 1.68045 -6.5798 0
M  V30 8599 H 782.413 3.62817 -5.46534 0
M  V30 8600 H 782.33 2.83958 -7.00645 0
M  V30 8601 H 783.598 3.98796 -6.69763 0
M  V30 8602 N 787.827 1.57504 0.0551401 0
M  V30 8603 C 788.737 2.08198 1.08124 0
M  V30 8604 C 789.753 1.01496 1.41331 0
M  V30 8605 O 790.929 1.33073 1.51174 0
M  V30 8606 C 787.994 2.52968 2.37083 0
M  V30 8607 C 787.055 3.7404 2.10696 0
M  V30 8608 C 786.288 4.16665 3.33505 0
M  V30 8609 O 786.511 3.59019 4.4324 0
M  V30 8610 O 785.445 5.09324 3.20737 0
M  V30 8611 H 789.271 2.95977 0.680518 0
M  V30 8612 H 786.856 1.46933 0.270401 0
M  V30 8613 H 788.738 2.82211 3.12946 0
M  V30 8614 H 787.413 1.6831 2.76502 0
M  V30 8615 H 786.32 3.49855 1.32484 0
M  V30 8616 H 787.653 4.59601 1.76148 0
M  V30 8617 N 789.305 -0.326896 1.54172 0
M  V30 8618 C 790.268 -1.38515 1.8261 0
M  V30 8619 C 791.268 -1.44872 0.697771 0
M  V30 8620 O 792.458 -1.44957 0.966078 0
M  V30 8621 C 789.59 -2.77281 1.98313 0
M  V30 8622 H 790.783 -1.14556 2.77159 0
M  V30 8623 H 788.336 -0.562199 1.45839 0
M  V30 8624 H 789.071 -3.065 1.05964 0
M  V30 8625 H 788.856 -2.74061 2.80416 0
M  V30 8626 H 790.346 -3.53845 2.21773 0
M  V30 8627 N 790.784 -1.46188 -0.588786 0
M  V30 8628 C 791.694 -1.58865 -1.72624 0
M  V30 8629 C 792.71 -0.472348 -1.67466 0
M  V30 8630 O 793.886 -0.735638 -1.87484 0
M  V30 8631 C 790.951 -1.56989 -3.0912 0
M  V30 8632 C 790.012 -2.79804 -3.25589 0
M  V30 8633 C 789.245 -2.78009 -4.55573 0
M  V30 8634 O 789.468 -1.86406 -5.39082 0
M  V30 8635 O 788.402 -3.6947 -4.75159 0
M  V30 8636 H 792.228 -2.55047 -1.64878 0
M  V30 8637 H 789.813 -1.28912 -0.755115 0
M  V30 8638 H 791.695 -1.58618 -3.90408 0
M  V30 8639 H 790.37 -0.639648 -3.17317 0
M  V30 8640 H 789.277 -2.83732 -2.43818 0
M  V30 8641 H 790.61 -3.72017 -3.22279 0
M  V30 8642 N 792.262 0.832906 -1.33792 0
M  V30 8643 C 793.172 1.97514 -1.26592 0
M  V30 8644 C 794.188 1.73114 -0.175391 0
M  V30 8645 O 795.364 1.97387 -0.400062 0
M  V30 8646 C 792.429 3.31625 -1.01121 0
M  V30 8647 C 791.49 3.69101 -2.19233 0
M  V30 8648 C 790.723 4.96813 -1.94968 0
M  V30 8649 O 790.946 5.63208 -0.902955 0
M  V30 8650 O 789.88 5.31932 -2.8166 0
M  V30 8651 H 793.706 2.0653 -2.22664 0
M  V30 8652 H 791.291 0.966826 -1.13898 0
M  V30 8653 H 793.173 4.11968 -0.886571 0
M  V30 8654 H 791.848 3.23599 -0.080822 0
M  V30 8655 H 790.755 2.89243 -2.37253 0
M  V30 8656 H 792.088 3.818 -3.10628 0
M  V30 8657 N 793.74 1.17359 1.05189 0
M  V30 8658 C 794.687 0.890325 2.12936 0
M  V30 8659 C 795.657 -0.165779 1.65271 0
M  V30 8660 O 796.842 -0.0285672 1.90779 0
M  V30 8661 C 793.982 0.409793 3.42658 0
M  V30 8662 C 793.095 1.53002 4.03998 0
M  V30 8663 C 792.23 1.00336 5.21638 0
M  V30 8664 C 791.269 2.09903 5.74984 0
M  V30 8665 N 790.406 1.58714 6.83926 0
M  V30 8666 H 795.246 1.81299 2.36505 0
M  V30 8667 H 792.783 0.904249 1.16025 0
M  V30 8668 H 794.741 0.112743 4.17048 0
M  V30 8669 H 793.371 -0.475915 3.19272 0
M  V30 8670 H 792.423 1.9428 3.27047 0
M  V30 8671 H 793.735 2.3564 4.39631 0
M  V30 8672 H 792.889 0.660158 6.03098 0
M  V30 8673 H 791.628 0.14642 4.8748 0
M  V30 8674 H 790.633 2.45081 4.92154 0
M  V30 8675 H 791.858 2.96013 6.1119 0
M  V30 8676 H 789.804 0.752915 6.51665 0
M  V30 8677 H 789.721 2.34959 7.18561 0
M  V30 8678 H 790.989 1.27287 7.69037 0
M  V30 8679 N 795.218 -1.23913 0.973828 0
M  V30 8680 C 796.181 -2.23367 0.51378 0
M  V30 8681 C 797.181 -1.55923 -0.39302 0
M  V30 8682 O 798.371 -1.73187 -0.187626 0
M  V30 8683 C 795.503 -3.39944 -0.255152 0
M  V30 8684 H 796.696 -2.65581 1.39307 0
M  V30 8685 H 794.249 -1.36632 0.759039 0
M  V30 8686 H 794.984 -3.03177 -1.15127 0
M  V30 8687 H 794.769 -3.90098 0.395673 0
M  V30 8688 H 796.259 -4.13749 -0.565842 0
M  V30 8689 N 796.696 -0.74468 -1.38897 0
M  V30 8690 C 798.112 -0.421302 -1.53939 0
M  V30 8691 C 798.312 1.06668 -1.70951 0
M  V30 8692 O 797.368 1.85278 -1.71547 0
M  V30 8693 C 798.681 -1.21278 -2.75159 0
M  V30 8694 C 800.229 -1.20196 -2.89001 0
M  V30 8695 C 800.704 -1.97621 -4.13171 0
M  V30 8696 N 802.195 -1.94836 -4.2023 0
M  V30 8697 C 802.93 -2.51545 -5.15279 0
M  V30 8698 N 802.426 -3.1693 -6.16058 0
M  V30 8699 N 804.219 -2.41524 -5.07565 0
M  V30 8700 H 796.37 -1.70914 -1.26103 0
M  V30 8701 H 798.633 -0.724058 -0.611919 0
M  V30 8702 H 798.339 -2.26609 -2.68963 0
M  V30 8703 H 798.213 -0.823677 -3.68097 0
M  V30 8704 H 800.6 -0.156742 -2.94683 0
M  V30 8705 H 800.681 -1.63051 -1.97099 0
M  V30 8706 H 800.325 -3.02149 -4.0825 0
M  V30 8707 H 800.255 -1.52166 -5.04136 0
M  V30 8708 H 802.746 -1.4721 -3.48048 0
M  V30 8709 H 803.059 -3.57644 -6.85062 0
M  V30 8710 H 801.404 -3.21023 -6.16417 0
M  V30 8711 H 804.595 -1.90077 -4.27771 0
M  V30 8712 H 804.768 -2.86016 -5.81462 0
M  V30 8713 N 798.174 1.49689 -0.493057 0
M  V30 8714 C 799.104 2.31826 0.279073 0
M  V30 8715 C 800.085 1.39733 0.969987 0
M  V30 8716 O 801.27 1.68646 0.962925 0
M  V30 8717 C 798.4 3.20046 1.34862 0
M  V30 8718 C 797.354 4.20869 0.77805 0
M  V30 8719 C 796.68 4.97971 1.94753 0
M  V30 8720 C 797.98 5.21813 -0.225543 0
M  V30 8721 H 799.674 2.96627 -0.406512 0
M  V30 8722 H 797.22 1.42647 -0.196943 0
M  V30 8723 H 799.173 3.76315 1.89645 0
M  V30 8724 H 797.897 2.53172 2.06328 0
M  V30 8725 H 796.556 3.65733 0.252036 0
M  V30 8726 H 796.204 4.27552 2.64969 0
M  V30 8727 H 795.904 5.66186 1.57187 0
M  V30 8728 H 797.428 5.57082 2.49984 0
M  V30 8729 H 798.842 5.72823 0.233864 0
M  V30 8730 H 797.239 5.97872 -0.516622 0
M  V30 8731 H 798.309 4.71209 -1.14412 0
M  V30 8732 N 799.652 0.226554 1.55963 0
M  V30 8733 C 800.615 -0.668015 2.19249 0
M  V30 8734 C 801.615 -1.11794 1.1558 0
M  V30 8735 O 802.805 -1.02593 1.40784 0
M  V30 8736 C 799.937 -1.91571 2.81981 0
M  V30 8737 H 801.13 -0.116175 2.99675 0
M  V30 8738 H 798.683 -0.0230497 1.56283 0
M  V30 8739 H 799.418 -2.50929 2.05439 0
M  V30 8740 H 799.203 -1.6015 3.57903 0
M  V30 8741 H 800.693 -2.55294 3.30477 0
M  V30 8742 N 801.13 -1.57531 -0.0467866 0
M  V30 8743 C 802.093 -2.04379 -1.03738 0
M  V30 8744 C 803.093 -0.944881 -1.3011 0
M  V30 8745 O 804.283 -1.20904 -1.25411 0
M  V30 8746 C 801.415 -2.44572 -2.37482 0
M  V30 8747 H 802.608 -2.93142 -0.633063 0
M  V30 8748 H 800.161 -1.53526 -0.293177 0
M  V30 8749 H 800.896 -1.58911 -2.82697 0
M  V30 8750 H 800.681 -3.24785 -2.19675 0
M  V30 8751 H 802.171 -2.81307 -3.08636 0
M  V30 8752 N 802.608 0.318715 -1.54344 0
M  V30 8753 C 803.518 1.41535 -1.87097 0
M  V30 8754 C 804.534 1.56361 -0.763353 0
M  V30 8755 O 805.71 1.71365 -1.05811 0
M  V30 8756 C 802.775 2.76178 -2.09587 0
M  V30 8757 C 801.836 2.70486 -3.3337 0
M  V30 8758 C 801.069 3.98708 -3.54778 0
M  V30 8759 O 801.292 4.9721 -2.79532 0
M  V30 8760 O 800.226 4.01674 -4.48266 0
M  V30 8761 H 804.052 1.16764 -2.80357 0
M  V30 8762 H 801.637 0.51318 -1.4031 0
M  V30 8763 H 803.519 3.55873 -2.25682 0
M  V30 8764 H 802.194 3.00829 -1.19514 0
M  V30 8765 H 801.101 1.89325 -3.22656 0
M  V30 8766 H 802.434 2.50789 -4.23516 0
M  V30 8767 N 804.086 1.46499 0.581025 0
M  V30 8768 C 804.996 1.59778 1.71779 0
M  V30 8769 C 806.012 0.481223 1.67213 0
M  V30 8770 O 807.188 0.74557 1.87091 0
M  V30 8771 C 804.253 1.58626 3.08283 0
M  V30 8772 C 803.314 2.81527 3.241 0
M  V30 8773 C 802.547 2.80421 4.54092 0
M  V30 8774 O 802.77 1.89262 5.38085 0
M  V30 8775 O 801.704 3.71984 4.73193 0
M  V30 8776 H 805.53 2.55918 1.63523 0
M  V30 8777 H 803.115 1.29311 0.748267 0
M  V30 8778 H 804.997 1.60686 3.89561 0
M  V30 8779 H 803.672 0.656467 3.16973 0
M  V30 8780 H 802.579 2.85021 2.42309 0
M  V30 8781 H 803.912 3.73721 3.20302 0
M  V30 8782 N 805.565 -0.825799 1.34232 0
M  V30 8783 C 806.497 -1.94401 1.21413 0
M  V30 8784 C 807.51 -1.6218 0.141902 0
M  V30 8785 O 808.699 -1.74109 0.3935 0
M  V30 8786 C 805.799 -3.28257 0.842635 0
M  V30 8787 C 804.972 -3.88521 2.00924 0
M  V30 8788 C 804.031 -5.00752 1.61661 0
M  V30 8789 O 803.057 -5.19201 2.33279 0
M  V30 8790 N 804.259 -5.78084 0.52911 0
M  V30 8791 H 807.024 -2.05931 2.17744 0
M  V30 8792 H 804.585 -1.00223 1.27149 0
M  V30 8793 H 806.577 -4.00781 0.561822 0
M  V30 8794 H 805.147 -3.12585 -0.0304029 0
M  V30 8795 H 804.367 -3.08425 2.45495 0
M  V30 8796 H 805.655 -4.25516 2.78951 0
M  V30 8797 H 805.053 -5.65661 -0.0663322 0
M  V30 8798 H 803.61 -6.51072 0.308017 0
M  V30 8799 N 807.043 -1.17915 -1.04565 0
M  V30 8800 C 807.975 -0.859359 -2.1248 0
M  V30 8801 C 808.988 0.140922 -1.62189 0
M  V30 8802 O 810.177 -0.0862361 -1.78292 0
M  V30 8803 C 807.277 -0.261811 -3.37887 0
M  V30 8804 C 806.45 -1.30651 -4.17431 0
M  V30 8805 C 805.509 -0.725575 -5.21174 0
M  V30 8806 O 804.535 -1.39901 -5.51739 0
M  V30 8807 N 805.737 0.479351 -5.78517 0
M  V30 8808 H 808.502 -1.78818 -2.40508 0
M  V30 8809 H 806.063 -1.07885 -1.20716 0
M  V30 8810 H 808.055 0.14028 -4.04457 0
M  V30 8811 H 806.625 0.570929 -3.07342 0
M  V30 8812 H 805.845 -1.88412 -3.46258 0
M  V30 8813 H 807.133 -2.01099 -4.67372 0
M  V30 8814 H 806.531 1.04431 -5.55977 0
M  V30 8815 H 805.088 0.823427 -6.46578 0
M  V30 8816 N 808.521 1.23394 -0.980386 0
M  V30 8817 C 809.468 2.24859 -0.520298 0
M  V30 8818 C 810.438 1.60144 0.440821 0
M  V30 8819 O 811.623 1.87593 0.348369 0
M  V30 8820 C 808.763 3.44675 0.171145 0
M  V30 8821 C 807.876 4.23947 -0.830233 0
M  V30 8822 C 807.011 5.31079 -0.113597 0
M  V30 8823 C 806.05 6.02058 -1.10419 0
M  V30 8824 N 805.187 7.00862 -0.416709 0
M  V30 8825 H 810.027 2.63579 -1.39032 0
M  V30 8826 H 807.564 1.29556 -0.696682 0
M  V30 8827 H 809.522 4.13024 0.588838 0
M  V30 8828 H 808.152 3.06755 1.00504 0
M  V30 8829 H 807.204 3.55016 -1.36631 0
M  V30 8830 H 808.516 4.72945 -1.58508 0
M  V30 8831 H 807.67 6.05622 0.36146 0
M  V30 8832 H 806.409 4.83022 0.673854 0
M  V30 8833 H 805.414 5.26307 -1.59 0
M  V30 8834 H 806.639 6.52203 -1.8923 0
M  V30 8835 H 804.585 6.55057 0.351535 0
M  V30 8836 H 804.502 7.47804 -1.11021 0
M  V30 8837 H 805.77 7.79492 0.0359606 0
M  V30 8838 N 809.999 0.752036 1.385 0
M  V30 8839 C 810.909 0.125318 2.34265 0
M  V30 8840 C 811.925 -0.702437 1.59191 0
M  V30 8841 O 813.101 -0.626951 1.91393 0
M  V30 8842 C 810.166 -0.758486 3.38301 0
M  V30 8843 C 809.227 0.0834636 4.29219 0
M  V30 8844 C 808.46 -0.758252 5.28286 0
M  V30 8845 O 808.683 -1.99632 5.34325 0
M  V30 8846 O 807.617 -0.177878 6.01637 0
M  V30 8847 H 811.443 0.91617 2.89551 0
M  V30 8848 H 809.028 0.512911 1.4032 0
M  V30 8849 H 810.91 -1.26365 4.02007 0
M  V30 8850 H 809.585 -1.52786 2.85374 0
M  V30 8851 H 808.492 0.634545 3.68679 0
M  V30 8852 H 809.825 0.815455 4.85398 0
M  V30 8853 N 811.477 -1.49425 0.500989 0
M  V30 8854 C 812.41 -2.25887 -0.324087 0
M  V30 8855 C 813.388 -1.30469 -0.970388 0
M  V30 8856 O 814.572 -1.59758 -1.00049 0
M  V30 8857 C 811.699 -3.05787 -1.45643 0
M  V30 8858 C 810.745 -4.16359 -0.924508 0
M  V30 8859 S 811.578 -5.35181 0.184707 0
M  V30 8860 C 812.734 -6.18636 -0.950806 0
M  V30 8861 H 812.967 -2.95519 0.324891 0
M  V30 8862 H 810.5 -1.51723 0.286289 0
M  V30 8863 H 812.458 -3.52405 -2.10525 0
M  V30 8864 H 811.119 -2.35624 -2.07703 0
M  V30 8865 H 810.312 -4.71781 -1.77311 0
M  V30 8866 H 809.914 -3.72331 -0.352907 0
M  V30 8867 H 812.206 -6.51581 -1.85603 0
M  V30 8868 H 813.149 -7.06761 -0.435212 0
M  V30 8869 H 813.557 -5.512 -1.21813 0
M  V30 8870 N 812.955 -0.234822 -1.55841 0
M  V30 8871 C 813.865 0.680828 -2.24504 0
M  V30 8872 C 814.881 1.20306 -1.25708 0
M  V30 8873 O 816.057 1.24188 -1.58554 0
M  V30 8874 C 813.122 1.86636 -2.92178 0
M  V30 8875 C 812.183 1.3848 -4.06352 0
M  V30 8876 C 811.416 2.51382 -4.70789 0
M  V30 8877 O 811.639 3.69831 -4.34259 0
M  V30 8878 O 810.573 2.21828 -5.59532 0
M  V30 8879 H 814.399 0.12583 -3.03439 0
M  V30 8880 H 811.984 -0.00381817 -1.494 0
M  V30 8881 H 813.866 2.55845 -3.34845 0
M  V30 8882 H 812.541 2.40921 -2.16192 0
M  V30 8883 H 811.448 0.660341 -3.68226 0
M  V30 8884 H 812.781 0.888177 -4.8412 0
M  V30 8885 N 814.433 1.57553 0.0384317 0
M  V30 8886 C 815.396 2.04927 1.02653 0
M  V30 8887 C 816.396 0.951768 1.29607 0
M  V30 8888 O 817.586 1.21568 1.24768 0
M  V30 8889 C 814.718 2.45828 2.36181 0
M  V30 8890 H 815.911 2.93474 0.617508 0
M  V30 8891 H 813.464 1.53679 0.285031 0
M  V30 8892 H 814.199 1.60408 2.8185 0
M  V30 8893 H 813.984 3.25945 2.1795 0
M  V30 8894 H 815.474 2.82939 3.0714 0
M  V30 8895 N 815.911 -0.310526 1.54511 0
M  V30 8896 C 816.858 -1.38264 1.84802 0
M  V30 8897 C 817.828 -1.50808 0.696141 0
M  V30 8898 O 819.013 -1.6582 0.943846 0
M  V30 8899 C 816.153 -2.74422 2.09252 0
M  V30 8900 C 815.266 -2.70405 3.36906 0
M  V30 8901 C 814.401 -3.98495 3.51248 0
M  V30 8902 C 813.44 -3.88836 4.72729 0
M  V30 8903 N 812.577 -5.08683 4.83928 0
M  V30 8904 H 817.417 -1.11732 2.76261 0
M  V30 8905 H 814.954 -0.540609 1.36806 0
M  V30 8906 H 816.912 -3.53593 2.21422 0
M  V30 8907 H 815.542 -2.99235 1.2107 0
M  V30 8908 H 814.594 -1.83151 3.33406 0
M  V30 8909 H 815.906 -2.59155 4.26193 0
M  V30 8910 H 815.06 -4.861 3.63031 0
M  V30 8911 H 813.799 -4.12567 2.60077 0
M  V30 8912 H 812.804 -2.99615 4.60989 0
M  V30 8913 H 814.029 -3.76318 5.65298 0
M  V30 8914 H 811.975 -5.23236 3.95677 0
M  V30 8915 H 811.892 -4.99819 5.67201 0
M  V30 8916 H 813.16 -5.97966 5.00057 0
M  V30 8917 N 817.389 -1.46805 -0.573248 0
M  V30 8918 C 818.614 -1.56433 -1.36175 0
M  V30 8919 C 819.039 -0.209336 -1.86932 0
M  V30 8920 O 818.397 0.812146 -1.62092 0
M  V30 8921 C 818.445 -2.58055 -2.51873 0
M  V30 8922 O 817.549 -2.12214 -3.53609 0
M  V30 8923 H 816.89 -0.526068 -0.405153 0
M  V30 8924 H 819.42 -1.92456 -0.694405 0
M  V30 8925 H 819.43 -2.77966 -2.98662 0
M  V30 8926 H 818.105 -3.56448 -2.14284 0
M  V30 8927 H 816.682 -2.02333 -3.13234 0
M  V30 8928 N 818.867 0.818669 -1.34668 0
M  V30 8929 C 819.799 1.93754 -1.22442 0
M  V30 8930 C 820.812 1.62103 -0.150501 0
M  V30 8931 O 822.001 1.73898 -0.402728 0
M  V30 8932 C 819.101 3.27806 -0.860031 0
M  V30 8933 C 818.274 3.8745 -2.02981 0
M  V30 8934 C 817.333 4.99887 -1.64314 0
M  V30 8935 O 816.359 5.17957 -2.36029 0
M  V30 8936 N 817.561 5.77795 -0.55976 0
M  V30 8937 H 820.326 2.04773 -2.18833 0
M  V30 8938 H 817.887 0.995472 -1.27679 0
M  V30 8939 H 819.879 4.00478 -0.583068 0
M  V30 8940 H 818.449 3.12597 0.0138253 0
M  V30 8941 H 817.669 3.07119 -2.47127 0
M  V30 8942 H 818.957 4.2403 -2.81204 0
M  V30 8943 H 818.355 5.65688 0.0363329 0
M  V30 8944 H 816.912 6.50899 -0.342541 0
M  V30 8945 N 820.346 1.18468 1.03938 0
M  V30 8946 C 821.309 0.914944 2.10146 0
M  V30 8947 C 822.309 -0.10022 1.60487 0
M  V30 8948 O 823.499 0.133365 1.73689 0
M  V30 8949 C 820.631 0.372993 3.38853 0
M  V30 8950 H 821.824 1.85677 2.35508 0
M  V30 8951 H 819.377 0.996876 1.20383 0
M  V30 8952 H 820.112 -0.57538 3.19155 0
M  V30 8953 H 819.897 1.1048 3.76213 0
M  V30 8954 H 821.387 0.203014 4.17106 0
M  V30 8955 N 821.824 -1.22873 0.986916 0
M  V30 8956 C 822.734 -2.28277 0.540978 0
M  V30 8957 C 823.75 -1.69164 -0.407363 0
M  V30 8958 O 824.926 -1.99504 -0.275674 0
M  V30 8959 C 821.991 -3.46404 -0.143181 0
M  V30 8960 C 821.052 -4.20854 0.847375 0
M  V30 8961 C 820.285 -5.33341 0.19577 0
M  V30 8962 O 820.508 -5.61356 -1.0117 0
M  V30 8963 O 819.442 -5.95169 0.897623 0
M  V30 8964 H 823.268 -2.68578 1.41773 0
M  V30 8965 H 820.853 -1.28927 0.754867 0
M  V30 8966 H 822.735 -4.18096 -0.526676 0
M  V30 8967 H 821.41 -3.08041 -0.994593 0
M  V30 8968 H 820.317 -3.51459 1.28169 0
M  V30 8969 H 821.65 -4.63082 1.6678 0
M  V30 8970 N 823.302 -0.75937 -1.38099 0
M  V30 8971 C 824.212 -0.13774 -2.34195 0
M  V30 8972 C 825.228 0.693985 -1.59561 0
M  V30 8973 O 826.404 0.616792 -1.91723 0
M  V30 8974 C 823.469 0.740535 -3.38699 0
M  V30 8975 C 822.53 -0.106225 -4.29169 0
M  V30 8976 C 821.763 0.730225 -5.28681 0
M  V30 8977 O 821.986 1.96796 -5.35376 0
M  V30 8978 O 820.92 0.145969 -6.01723 0
M  V30 8979 H 824.746 -0.931512 -2.89061 0
M  V30 8980 H 822.331 -0.520345 -1.40046 0
M  V30 8981 H 824.213 1.24232 -4.02672 0
M  V30 8982 H 822.888 1.51271 -2.8618 0
M  V30 8983 H 821.795 -0.654088 -3.68337 0
M  V30 8984 H 823.128 -0.841186 -4.84959 0
M  V30 8985 N 824.78 1.49157 -0.508906 0
M  V30 8986 C 826.028 2.02073 0.0327335 0
M  V30 8987 C 826.349 1.39012 1.3675 0
M  V30 8988 O 825.619 0.548153 1.88075 0
M  V30 8989 H 824.199 0.746848 0.0150864 0
M  V30 8990 H 826.861 1.83097 -0.667946 0
M  V30 8991 H 825.957 3.11707 0.1566 0
M  V30 8992 N 826.258 0.243083 1.55714 0
M  V30 8993 C 827.221 -0.644723 2.19945 0
M  V30 8994 C 828.221 -1.10562 1.16759 0
M  V30 8995 O 829.411 -1.01095 1.41865 0
M  V30 8996 C 826.543 -1.88569 2.83997 0
M  V30 8997 H 827.736 -0.0843839 2.99781 0
M  V30 8998 H 825.289 -0.00647246 1.56299 0
M  V30 8999 H 826.024 -2.48736 2.08089 0
M  V30 9000 H 825.809 -1.56345 3.59581 0
M  V30 9001 H 827.299 -2.51774 3.33166 0
M  V30 9002 N 827.736 -1.57571 -0.0300757 0
M  V30 9003 C 828.961 -1.93879 -0.736601 0
M  V30 9004 C 829.386 -0.842998 -1.68152 0
M  V30 9005 O 828.744 0.20135 -1.80178 0
M  V30 9006 C 828.792 -3.29247 -1.47066 0
M  V30 9007 O 827.896 -3.21426 -2.58378 0
M  V30 9008 H 827.237 -0.633735 -0.198181 0
M  V30 9009 H 829.767 -2.04595 0.0141485 0
M  V30 9010 H 829.777 -3.64113 -1.84081 0
M  V30 9011 H 828.452 -4.08565 -0.77764 0
M  V30 9012 H 827.029 -2.98189 -2.23914 0
M  V30 9013 N 829.214 0.302327 -1.54673 0
M  V30 9014 C 830.462 1.03565 -1.73547 0
M  V30 9015 C 830.783 1.87843 -0.523448 0
M  V30 9016 O 830.053 1.90367 0.462295 0
M  V30 9017 H 828.633 0.385358 -0.639928 0
M  V30 9018 H 831.295 0.333632 -1.92023 0
M  V30 9019 H 830.391 1.68952 -2.62415 0
M  V30 9020 N 830.692 1.47107 0.565454 0
M  V30 9021 C 831.639 1.58974 1.6732 0
M  V30 9022 C 832.609 0.433146 1.60353 0
M  V30 9023 O 833.794 0.652141 1.79309 0
M  V30 9024 C 830.934 1.60224 3.05651 0
M  V30 9025 C 830.047 2.86741 3.23116 0
M  V30 9026 C 829.182 2.79381 4.51796 0
M  V30 9027 C 828.221 4.0076 4.62664 0
M  V30 9028 N 827.358 3.91685 5.8269 0
M  V30 9029 H 832.198 2.53588 1.56515 0
M  V30 9030 H 829.735 1.25791 0.762558 0
M  V30 9031 H 831.693 1.58933 3.85741 0
M  V30 9032 H 830.323 0.691285 3.15311 0
M  V30 9033 H 829.375 2.97936 2.36513 0
M  V30 9034 H 830.687 3.7665 3.27011 0
M  V30 9035 H 829.841 2.76293 5.40136 0
M  V30 9036 H 828.58 1.87142 4.50366 0
M  V30 9037 H 827.585 4.04162 3.72738 0
M  V30 9038 H 828.81 4.94117 4.6586 0
M  V30 9039 H 826.756 3.02243 5.82224 0
M  V30 9040 H 826.673 4.75264 5.87929 0
M  V30 9041 H 827.941 3.92599 6.73414 0
M  V30 9042 N 832.17 -0.811516 1.35101 0
M  V30 9043 C 833.133 -1.90467 1.27495 0
M  V30 9044 C 834.133 -1.59703 0.187516 0
M  V30 9045 O 835.323 -1.68528 0.440896 0
M  V30 9046 C 832.455 -3.26774 0.971154 0
M  V30 9047 H 833.648 -1.98631 2.2469 0
M  V30 9048 H 831.201 -1.00681 1.19553 0
M  V30 9049 H 831.936 -3.243 0.0028557 0
M  V30 9050 H 831.721 -3.50488 1.75785 0
M  V30 9051 H 833.211 -4.06804 0.943414 0
M  V30 9052 N 833.648 -1.19017 -1.03309 0
M  V30 9053 C 834.558 -0.939303 -2.14975 0
M  V30 9054 C 835.574 0.0992359 -1.73717 0
M  V30 9055 O 836.75 -0.0844362 -2.01223 0
M  V30 9056 C 833.815 -0.476712 -3.43407 0
M  V30 9057 C 832.876 -1.58413 -3.99003 0
M  V30 9058 C 832.109 -1.14352 -5.21305 0
M  V30 9059 O 832.332 -0.00534408 -5.704 0
M  V30 9060 O 831.266 -1.94436 -5.6963 0
M  V30 9061 H 835.092 -1.87386 -2.38998 0
M  V30 9062 H 832.677 -0.972635 -1.13403 0
M  V30 9063 H 834.559 -0.22718 -4.20787 0
M  V30 9064 H 833.234 0.429455 -3.20839 0
M  V30 9065 H 832.141 -1.88777 -3.22977 0
M  V30 9066 H 833.474 -2.4667 -4.25928 0
M  V30 9067 N 835.127 1.22348 -0.993418 0
M  V30 9068 C 836.074 2.24294 -0.544118 0
M  V30 9069 C 837.044 1.60602 0.42381 0
M  V30 9070 O 838.229 1.87952 0.328453 0
M  V30 9071 C 835.369 3.44837 0.134578 0
M  V30 9072 C 834.482 4.23043 -0.875151 0
M  V30 9073 C 833.617 5.30928 -0.169919 0
M  V30 9074 C 832.656 6.00853 -1.16798 0
M  V30 9075 N 831.793 7.00381 -0.491021 0
M  V30 9076 H 836.633 2.6209 -1.4182 0
M  V30 9077 H 834.17 1.2881 -0.710384 0
M  V30 9078 H 836.128 4.13625 0.544998 0
M  V30 9079 H 834.758 3.07804 0.972446 0
M  V30 9080 H 833.81 3.53546 -1.40389 0
M  V30 9081 H 835.122 4.71237 -1.63516 0
M  V30 9082 H 834.276 6.05972 0.297205 0
M  V30 9083 H 833.015 4.8371 0.622586 0
M  V30 9084 H 832.02 5.24591 -1.64573 0
M  V30 9085 H 833.245 6.50159 -1.96137 0
M  V30 9086 H 831.191 6.55393 0.282037 0
M  V30 9087 H 831.108 7.46584 -1.18947 0
M  V30 9088 H 832.376 7.79486 -0.0467169 0
M  V30 9089 N 836.605 0.766683 1.37694 0
M  V30 9090 C 837.552 0.147725 2.30327 0
M  V30 9091 C 838.522 -0.695366 1.50844 0
M  V30 9092 O 839.707 -0.64878 1.79431 0
M  V30 9093 C 836.847 -0.72935 3.37305 0
M  V30 9094 C 835.96 0.129795 4.31805 0
M  V30 9095 C 835.095 -0.751511 5.25857 0
M  V30 9096 C 834.134 0.110475 6.12 0
M  V30 9097 N 833.271 -0.728522 6.9831 0
M  V30 9098 H 838.111 0.943204 2.82679 0
M  V30 9099 H 835.648 0.476736 1.3916 0
M  V30 9100 H 837.606 -1.25263 3.97951 0
M  V30 9101 H 836.236 -1.49048 2.86329 0
M  V30 9102 H 835.288 0.770829 3.72508 0
M  V30 9103 H 836.6 0.794923 4.92425 0
M  V30 9104 H 835.754 -1.34146 5.91684 0
M  V30 9105 H 834.493 -1.45034 4.65636 0
M  V30 9106 H 833.498 0.712999 5.45157 0
M  V30 9107 H 834.723 0.806557 6.74293 0
M  V30 9108 H 832.669 -1.41206 6.40622 0
M  V30 9109 H 832.586 -0.12058 7.55904 0
M  V30 9110 H 833.854 -1.30303 7.68532 0
M  V30 9111 N 838.083 -1.48885 0.516809 0
M  V30 9112 C 839.311 -2.06892 -0.0184017 0
M  V30 9113 C 839.726 -1.37511 -1.29368 0
M  V30 9114 O 839.083 -0.458409 -1.76649 0
M  V30 9115 C 839.134 -3.60566 -0.259673 0
M  V30 9116 O 838.855 -4.27338 0.965065 0
M  V30 9117 C 840.356 -4.35331 -0.836751 0
M  V30 9118 H 837.576 -0.670433 0.0275743 0
M  V30 9119 H 840.12 -1.91455 0.718689 0
M  V30 9120 H 838.275 -3.75653 -0.94678 0
M  V30 9121 H 838.689 -5.19287 0.737647 0
M  V30 9122 H 840.163 -5.43675 -0.955065 0
M  V30 9123 H 840.64 -3.9887 -1.83845 0
M  V30 9124 H 841.246 -4.2489 -0.186622 0
M  V30 9125 N 839.561 -0.251338 -1.55583 0
M  V30 9126 C 840.786 0.379136 -2.03905 0
M  V30 9127 C 841.211 1.50428 -1.12929 0
M  V30 9128 O 840.569 1.80882 -0.123114 0
M  V30 9129 C 840.617 0.86009 -3.50193 0
M  V30 9130 O 839.721 1.96932 -3.62342 0
M  V30 9131 H 839.062 0.0820183 -0.658915 0
M  V30 9132 H 841.592 -0.378692 -2.01065 0
M  V30 9133 H 841.602 1.16214 -3.91099 0
M  V30 9134 H 840.277 0.0367559 -4.15884 0
M  V30 9135 H 838.854 1.67163 -3.33333 0
M  V30 9136 N 841.039 1.57585 0.0217189 0
M  V30 9137 C 842.287 1.89231 0.709641 0
M  V30 9138 C 842.608 0.849964 1.75501 0
M  V30 9139 O 841.878 -0.115485 1.95559 0
M  V30 9140 H 840.458 0.69838 0.265092 0
M  V30 9141 H 843.12 1.94895 -0.0140688 0
M  V30 9142 H 842.216 2.88333 1.19459 0
M  V30 9143 N 842.517 -0.29412 1.54831 0
M  V30 9144 C 843.427 -1.3854 1.89325 0
M  V30 9145 C 844.443 -1.55127 0.788133 0
M  V30 9146 O 845.619 -1.6966 1.08524 0
M  V30 9147 C 842.684 -2.72809 2.13954 0
M  V30 9148 C 841.745 -2.65148 3.37631 0
M  V30 9149 C 840.978 -3.93014 3.61076 0
M  V30 9150 O 841.201 -4.927 2.87406 0
M  V30 9151 O 840.135 -3.94491 4.54599 0
M  V30 9152 H 843.961 -1.12289 2.82179 0
M  V30 9153 H 841.546 -0.490793 1.41108 0
M  V30 9154 H 843.428 -3.52238 2.31315 0
M  V30 9155 H 842.103 -2.9889 1.24285 0
M  V30 9156 H 841.01 -1.84168 3.25627 0
M  V30 9157 H 842.343 -2.4402 4.27452 0
M  V30 9158 N 843.995 -1.47404 -0.557645 0
M  V30 9159 C 845.223 -1.57622 -1.34026 0
M  V30 9160 C 845.638 -0.226256 -1.87439 0
M  V30 9161 O 844.995 0.78043 -1.64971 0
M  V30 9162 C 845.046 -2.60111 -2.51047 0
M  V30 9163 O 844.767 -3.89866 -1.99841 0
M  V30 9164 C 846.268 -2.80508 -3.43264 0
M  V30 9165 H 843.488 -0.532271 -0.40857 0
M  V30 9166 H 846.032 -1.93019 -0.675555 0
M  V30 9167 H 844.187 -2.27648 -3.13457 0
M  V30 9168 H 844.601 -4.45864 -2.76234 0
M  V30 9169 H 846.075 -3.56084 -4.21792 0
M  V30 9170 H 846.552 -1.88314 -3.9678 0
M  V30 9171 H 847.158 -3.14166 -2.86671 0
M  V30 9172 N 845.473 0.80434 -1.35529 0
M  V30 9173 C 846.42 1.91629 -1.28635 0
M  V30 9174 C 847.39 1.65348 -0.157862 0
M  V30 9175 O 848.575 1.87711 -0.341934 0
M  V30 9176 C 845.715 3.28207 -1.0665 0
M  V30 9177 C 844.828 3.66659 -2.28441 0
M  V30 9178 C 843.963 4.92279 -1.99588 0
M  V30 9179 C 843.002 5.23365 -3.1742 0
M  V30 9180 N 842.139 6.40165 -2.88328 0
M  V30 9181 H 846.979 1.96858 -2.23721 0
M  V30 9182 H 844.516 0.962871 -1.11208 0
M  V30 9183 H 846.474 4.06945 -0.919343 0
M  V30 9184 H 845.104 3.22441 -0.152253 0
M  V30 9185 H 844.156 2.83164 -2.54013 0
M  V30 9186 H 845.468 3.8559 -3.1642 0
M  V30 9187 H 844.622 5.78847 -1.81715 0
M  V30 9188 H 843.361 4.75387 -1.08896 0
M  V30 9189 H 842.366 4.35285 -3.35867 0
M  V30 9190 H 843.591 5.42185 -4.08916 0
M  V30 9191 H 841.537 6.24694 -2.00233 0
M  V30 9192 H 841.454 6.59357 -3.69843 0
M  V30 9193 H 842.722 7.29755 -2.74002 0
M  V30 9194 N 846.951 1.19563 1.02676 0
M  V30 9195 C 847.899 0.931942 2.13114 0
M  V30 9196 C 848.893 -0.113007 1.69023 0
M  V30 9197 O 850.099 0.0364298 1.79963 0
M  V30 9198 H 846.474 0.283981 0.696318 0
M  V30 9199 H 848.445 1.86991 2.32545 0
M  V30 9200 C 847.194 0.489461 3.44238 0
M  V30 9201 H 846.517 1.28508 3.78584 0
M  V30 9202 H 847.957 0.34408 4.22602 0
M  V30 9203 C 846.416 -0.796761 3.27343 0
M  V30 9204 O 846.946 -1.85767 3.56165 0
M  V30 9205 N 845.152 -0.754824 2.80626 0
M  V30 9206 H 844.699 0.108778 2.5737 0
M  V30 9207 H 844.657 -1.6158 2.69702 0
M  V30 9208 N 848.429 -1.21819 0.999893 0
M  V30 9209 C 849.361 -2.23356 0.514256 0
M  V30 9210 C 850.374 -1.5795 -0.394413 0
M  V30 9211 O 851.563 -1.77427 -0.195428 0
M  V30 9212 C 848.663 -3.37797 -0.273207 0
M  V30 9213 C 847.836 -4.32791 0.633293 0
M  V30 9214 C 846.895 -5.26098 -0.103673 0
M  V30 9215 O 845.921 -5.66881 0.513269 0
M  V30 9216 N 847.123 -5.63764 -1.38383 0
M  V30 9217 H 849.888 -2.65653 1.3874 0
M  V30 9218 H 847.449 -1.3619 0.875431 0
M  V30 9219 H 849.441 -3.97209 -0.775053 0
M  V30 9220 H 848.011 -2.94527 -1.0475 0
M  V30 9221 H 847.231 -3.71595 1.31571 0
M  V30 9222 H 848.519 -4.93196 1.25039 0
M  V30 9223 H 847.917 -5.32614 -1.90627 0
M  V30 9224 H 846.474 -6.25562 -1.83073 0
M  V30 9225 N 849.908 -0.773975 -1.37286 0
M  V30 9226 C 851.154 -0.339809 -1.99933 0
M  V30 9227 C 851.487 1.0815 -1.61299 0
M  V30 9228 O 850.762 1.74442 -0.860252 0
M  V30 9229 C 851.045 -0.485919 -3.56806 0
M  V30 9230 C 850.898 -1.9498 -4.05343 0
M  V30 9231 C 852.217 0.108461 -4.39966 0
M  V30 9232 H 849.336 -0.124944 -0.726332 0
M  V30 9233 H 851.978 -0.977433 -1.6293 0
M  V30 9234 H 850.128 0.0569023 -3.88458 0
M  V30 9235 H 851.8 -2.5525 -3.84246 0
M  V30 9236 H 850.043 -2.45784 -3.57453 0
M  V30 9237 H 850.714 -2.00308 -5.14374 0
M  V30 9238 H 853.19 -0.354722 -4.14585 0
M  V30 9239 H 852.066 -0.0238926 -5.48895 0
M  V30 9240 H 852.327 1.19901 -4.25531 0
M  V30 9241 N 851.386 1.48609 -0.524698 0
M  V30 9242 C 852.334 2.31205 0.254398 0
M  V30 9243 C 853.328 1.40894 0.940491 0
M  V30 9244 O 854.534 1.57827 0.865478 0
M  V30 9245 H 850.909 0.745199 0.100907 0
M  V30 9246 H 852.88 2.94804 -0.461876 0
M  V30 9247 C 851.629 3.2282 1.2916 0
M  V30 9248 H 850.952 3.92255 0.773074 0
M  V30 9249 H 852.392 3.83508 1.80825 0
M  V30 9250 C 850.851 2.4406 2.32242 0
M  V30 9251 O 851.381 2.16163 3.3858 0
M  V30 9252 N 849.587 2.05651 2.05319 0
M  V30 9253 H 849.134 2.28539 1.18861 0
M  V30 9254 H 849.092 1.53265 2.74513 0
M  V30 9255 N 852.864 0.259585 1.55447 0
M  V30 9256 C 854.112 -0.360893 1.98852 0
M  V30 9257 C 854.433 -1.57535 1.14924 0
M  V30 9258 O 853.703 -1.94485 0.235025 0
M  V30 9259 H 852.283 -0.136332 0.734454 0
M  V30 9260 H 854.945 0.361319 1.91522 0
M  V30 9261 H 854.041 -0.661388 3.05012 0
M  V30 9262 N 854.342 -1.57594 -0.0133615 0
M  V30 9263 C 855.57 -1.94251 -0.712328 0
M  V30 9264 C 855.985 -0.86063 -1.68043 0
M  V30 9265 O 855.342 0.161632 -1.81783 0
M  V30 9266 C 855.393 -3.30891 -1.45581 0
M  V30 9267 O 855.114 -4.34924 -0.526539 0
M  V30 9268 C 856.615 -3.81926 -2.2505 0
M  V30 9269 H 853.835 -0.640737 -0.199241 0
M  V30 9270 H 856.379 -2.04472 0.0337855 0
M  V30 9271 H 854.534 -3.22019 -2.15366 0
M  V30 9272 H 854.948 -5.1389 -1.04962 0
M  V30 9273 H 856.422 -4.79999 -2.72589 0
M  V30 9274 H 856.899 -3.13934 -3.07152 0
M  V30 9275 H 857.505 -3.93931 -1.60308 0
M  V30 9276 N 855.82 0.285905 -1.54985 0
M  V30 9277 C 857.236 0.632405 -1.46536 0
M  V30 9278 C 857.436 1.90074 -0.668888 0
M  V30 9279 O 856.492 2.51839 -0.182586 0
M  V30 9280 C 857.805 0.771361 -2.90638 0
M  V30 9281 C 859.353 0.866262 -3.00774 0
M  V30 9282 C 859.828 1.0371 -4.46103 0
M  V30 9283 N 861.319 1.10294 -4.49877 0
M  V30 9284 C 862.054 1.25369 -5.59527 0
M  V30 9285 N 861.55 1.37246 -6.7907 0
M  V30 9286 N 863.343 1.28377 -5.47244 0
M  V30 9287 H 855.494 -0.547226 -2.0523 0
M  V30 9288 H 857.757 -0.183298 -0.930111 0
M  V30 9289 H 857.463 -0.0899485 -3.51585 0
M  V30 9290 H 857.337 1.65569 -3.3892 0
M  V30 9291 H 859.724 1.71805 -2.39931 0
M  V30 9292 H 859.805 -0.0424049 -2.55765 0
M  V30 9293 H 859.449 0.190021 -5.07544 0
M  V30 9294 H 859.379 1.96022 -4.88757 0
M  V30 9295 H 861.87 1.02407 -3.6376 0
M  V30 9296 H 862.183 1.48546 -7.58389 0
M  V30 9297 H 860.528 1.34274 -6.81906 0
M  V30 9298 H 863.719 1.1872 -4.52795 0
M  V30 9299 H 863.892 1.39782 -6.32744 0
M  V30 9300 N 857.298 1.47698 0.54982 0
M  V30 9301 C 858.261 1.60282 1.63837 0
M  V30 9302 C 859.261 0.477394 1.5355 0
M  V30 9303 O 860.451 0.742665 1.57576 0
M  V30 9304 C 857.583 1.55431 3.03404 0
M  V30 9305 H 858.776 2.57325 1.54026 0
M  V30 9306 H 856.329 1.35999 0.770329 0
M  V30 9307 H 857.064 0.597912 3.1874 0
M  V30 9308 H 856.849 2.37116 3.12279 0
M  V30 9309 H 858.339 1.6739 3.82584 0
M  V30 9310 N 858.776 -0.797141 1.35954 0
M  V30 9311 C 859.724 -1.93084 1.29697 0
M  V30 9312 C 860.718 -1.68329 0.190152 0
M  V30 9313 O 861.924 -1.7643 0.3567 0
M  V30 9314 H 858.299 -0.634531 0.403577 0
M  V30 9315 H 860.27 -1.95481 2.25455 0
M  V30 9316 C 859.019 -3.29996 1.09536 0
M  V30 9317 H 858.342 -3.49607 1.93946 0
M  V30 9318 H 859.782 -4.09696 1.09202 0
M  V30 9319 C 858.241 -3.36304 -0.200381 0
M  V30 9320 O 858.771 -3.83579 -1.19291 0
M  V30 9321 N 856.977 -2.89587 -0.242406 0
M  V30 9322 H 856.524 -2.51307 0.565897 0
M  V30 9323 H 856.482 -2.94189 -1.10906 0
M  V30 9324 N 860.254 -1.20106 -1.0204 0
M  V30 9325 C 861.201 -0.946468 -2.10501 0
M  V30 9326 C 862.171 0.121902 -1.65652 0
M  V30 9327 O 863.356 -0.0220244 -1.90787 0
M  V30 9328 C 860.496 -0.500499 -3.41451 0
M  V30 9329 C 859.609 -1.63659 -3.998 0
M  V30 9330 C 858.744 -1.14131 -5.18794 0
M  V30 9331 C 857.783 -2.25074 -5.69217 0
M  V30 9332 N 856.92 -1.76791 -6.79477 0
M  V30 9333 H 861.76 -1.87506 -2.31615 0
M  V30 9334 H 859.297 -0.934693 -1.13587 0
M  V30 9335 H 861.255 -0.223276 -4.16602 0
M  V30 9336 H 859.885 0.391099 -3.20422 0
M  V30 9337 H 858.937 -2.02882 -3.21781 0
M  V30 9338 H 860.249 -2.47213 -4.33229 0
M  V30 9339 H 859.403 -0.819826 -6.01135 0
M  V30 9340 H 858.142 -0.275615 -4.86921 0
M  V30 9341 H 857.147 -2.58043 -4.85483 0
M  V30 9342 H 858.372 -3.12114 -6.03127 0
M  V30 9343 H 856.318 -0.925428 -6.4944 0
M  V30 9344 H 856.235 -2.53928 -7.12079 0
M  V30 9345 H 857.503 -1.47631 -7.65392 0
M  V30 9346 N 861.732 1.21287 -1.00634 0
M  V30 9347 C 862.957 1.94925 -0.708441 0
M  V30 9348 C 863.382 1.73659 0.722783 0
M  V30 9349 O 862.74 1.02429 1.49593 0
M  V30 9350 C 862.788 3.45377 -1.03667 0
M  V30 9351 O 861.892 4.12153 -0.142661 0
M  V30 9352 H 861.233 0.609338 -0.263824 0
M  V30 9353 H 863.763 1.54008 -1.34695 0
M  V30 9354 H 863.773 3.95954 -0.984086 0
M  V30 9355 H 862.448 3.6018 -2.0795 0
M  V30 9356 H 861.025 3.72048 -0.251888 0
M  V30 9357 N 863.21 0.781244 1.36873 0
M  V30 9358 C 864.487 0.274217 1.93668 0
M  V30 9359 C 864.867 -1.2323 1.71399 0
M  V30 9360 O 864.215 -2.01993 1.06822 0
M  V30 9361 C 864.425 0.657939 3.42742 0
M  V30 9362 C 865.773 0.63307 4.19854 0
M  V30 9363 O 866.797 0.597909 3.51146 0
M  V30 9364 O 865.656 0.668636 5.42394 0
M  V30 9365 H 862.75 0.0658059 0.824378 0
M  V30 9366 H 865.296 0.863238 1.46104 0
M  V30 9367 H 864.068 1.69728 3.52573 0
M  V30 9368 H 863.691 0.0423678 3.97577 0
M  V30 9369 N 864.689 -1.48329 0.532571 0
M  V30 9370 C 865.637 -2.31336 -0.242133 0
M  V30 9371 C 866.631 -1.41391 -0.933006 0
M  V30 9372 O 867.837 -1.58284 -0.857096 0
M  V30 9373 H 864.212 -0.745724 -0.0969536 0
M  V30 9374 H 866.183 -2.94555 0.477504 0
M  V30 9375 C 864.932 -3.23501 -1.27446 0
M  V30 9376 H 864.255 -3.92659 -0.752261 0
M  V30 9377 H 865.695 -3.84461 -1.78789 0
M  V30 9378 C 864.154 -2.45288 -2.30944 0
M  V30 9379 O 864.684 -2.17955 -3.37429 0
M  V30 9380 N 862.89 -2.06737 -2.04226 0
M  V30 9381 H 862.437 -2.29166 -1.17647 0
M  V30 9382 H 862.395 -1.54719 -2.73696 0
M  V30 9383 N 866.167 -0.267825 -1.55308 0
M  V30 9384 C 867.578 0.231344 -1.85261 0
M  V30 9385 C 867.929 1.56006 -1.18982 0
M  V30 9386 O 867.054 2.1111 -0.475554 0
M  V30 9387 C 867.649 0.426537 -3.36104 0
M  V30 9388 C 866.208 0.869945 -3.66209 0
M  V30 9389 C 865.355 -0.0409522 -2.7727 0
M  V30 9390 H 868.306 -0.489821 -1.50952 0
M  V30 9391 H 868.327 1.26616 -3.58816 0
M  V30 9392 H 867.839 -0.540678 -3.84315 0
M  V30 9393 H 865.94 1.84889 -3.23492 0
M  V30 9394 H 866.053 0.712316 -4.73775 0
M  V30 9395 H 864.417 0.474097 -2.50249 0
M  V30 9396 H 865.2 -1.00392 -3.28293 0
M  V30 9397 N 867.645 1.57599 0.00500368 0
M  V30 9398 C 869.061 1.55463 0.361015 0
M  V30 9399 C 869.261 0.997051 1.75103 0
M  V30 9400 O 868.317 0.628661 2.44549 0
M  V30 9401 C 869.63 2.99734 0.240828 0
M  V30 9402 C 871.178 3.11399 0.316138 0
M  V30 9403 C 871.653 4.57446 0.22513 0
M  V30 9404 N 873.144 4.62334 0.283186 0
M  V30 9405 C 873.879 5.72914 0.23603 0
M  V30 9406 N 873.375 6.92659 0.139762 0
M  V30 9407 N 875.168 5.61364 0.287529 0
M  V30 9408 H 867.319 1.92185 -0.904359 0
M  V30 9409 H 869.582 0.882529 -0.34619 0
M  V30 9410 H 869.288 3.44348 -0.715343 0
M  V30 9411 H 869.162 3.63009 1.02491 0
M  V30 9412 H 871.549 2.66718 1.26275 0
M  V30 9413 H 871.63 2.50911 -0.497725 0
M  V30 9414 H 871.274 5.02801 -0.717917 0
M  V30 9415 H 871.204 5.15874 1.05742 0
M  V30 9416 H 873.695 3.7619 0.359123 0
M  V30 9417 H 874.008 7.72722 0.10954 0
M  V30 9418 H 872.353 6.9492 0.105462 0
M  V30 9419 H 875.544 4.66707 0.360897 0
M  V30 9420 H 875.717 6.47528 0.247313 0
M  V30 9421 N 869.123 -0.277682 1.55134 0
M  V30 9422 C 870.371 -1.00791 1.75173 0
M  V30 9423 C 870.692 -1.86987 0.553266 0
M  V30 9424 O 869.962 -1.91079 -0.43195 0
M  V30 9425 H 868.542 -0.375129 0.645978 0
M  V30 9426 H 871.204 -0.303041 1.9253 0
M  V30 9427 H 870.3 -1.64756 2.6507 0
M  V30 9428 N 870.601 -1.47988 -0.541979 0
M  V30 9429 C 871.548 -1.61615 -1.6477 0
M  V30 9430 C 872.518 -0.458602 -1.59644 0
M  V30 9431 O 873.703 -0.680585 -1.78249 0
M  V30 9432 C 870.843 -1.65066 -3.03063 0
M  V30 9433 C 869.956 -2.91845 -3.18513 0
M  V30 9434 C 869.091 -2.86534 -4.47294 0
M  V30 9435 C 868.13 -4.0807 -4.5623 0
M  V30 9436 N 867.267 -4.00905 -5.76385 0
M  V30 9437 H 872.107 -2.56046 -1.52461 0
M  V30 9438 H 869.644 -1.26989 -0.742449 0
M  V30 9439 H 871.602 -1.65049 -3.83164 0
M  V30 9440 H 870.232 -0.74136 -3.14171 0
M  V30 9441 H 869.284 -3.01661 -2.31743 0
M  V30 9442 H 870.596 -3.81804 -3.20978 0
M  V30 9443 H 869.75 -2.84851 -5.35672 0
M  V30 9444 H 868.489 -1.94283 -4.47332 0
M  V30 9445 H 867.494 -4.10041 -3.66261 0
M  V30 9446 H 868.719 -5.01465 -4.5794 0
M  V30 9447 H 866.665 -3.11467 -5.77342 0
M  V30 9448 H 866.582 -4.84557 -5.80293 0
M  V30 9449 H 867.85 -4.03263 -6.67083 0
M  V30 9450 N 872.079 0.78992 -1.36375 0
M  V30 9451 C 873.027 1.92394 -1.30719 0
M  V30 9452 C 874.021 1.68226 -0.199076 0
M  V30 9453 O 875.227 1.76239 -0.366051 0
M  V30 9454 H 871.602 0.632382 -0.406936 0
M  V30 9455 H 873.573 1.94282 -2.26488 0
M  V30 9456 C 872.322 3.2941 -1.11284 0
M  V30 9457 H 871.645 3.48573 -1.95798 0
M  V30 9458 H 873.085 4.09111 -1.11373 0
M  V30 9459 C 871.544 3.36405 0.182543 0
M  V30 9460 O 872.074 3.84206 1.17255 0
M  V30 9461 N 870.28 2.89712 0.227046 0
M  V30 9462 H 869.827 2.51004 -0.579217 0
M  V30 9463 H 869.785 2.94773 1.09344 0
M  V30 9464 N 873.557 1.20646 1.01402 0
M  V30 9465 C 874.782 1.04462 1.79172 0
M  V30 9466 C 875.207 -0.401588 1.83763 0
M  V30 9467 O 874.565 -1.28934 1.27459 0
M  V30 9468 C 874.613 1.63583 3.21361 0
M  V30 9469 O 873.717 0.875198 4.03006 0
M  V30 9470 H 873.058 0.368235 0.552539 0
M  V30 9471 H 875.588 1.59994 1.27526 0
M  V30 9472 H 875.598 1.67426 3.72065 0
M  V30 9473 H 874.273 2.68835 3.17334 0
M  V30 9474 H 872.85 0.911172 3.61597 0
M  V30 9475 N 875.035 -1.20752 1.01276 0
M  V30 9476 C 875.982 -2.234 0.579732 0
M  V30 9477 C 876.952 -1.61256 -0.398206 0
M  V30 9478 O 878.137 -1.8845 -0.29851 0
M  V30 9479 C 875.277 -3.45008 -0.0797006 0
M  V30 9480 C 874.39 -4.21597 0.942343 0
M  V30 9481 C 873.525 -5.30591 0.254364 0
M  V30 9482 C 872.564 -5.98919 1.26343 0
M  V30 9483 N 871.701 -6.99511 0.602384 0
M  V30 9484 H 876.541 -2.59801 1.45971 0
M  V30 9485 H 874.078 -1.27663 0.730787 0
M  V30 9486 H 876.036 -4.1444 -0.479125 0
M  V30 9487 H 874.666 -3.09312 -0.923354 0
M  V30 9488 H 873.718 -3.51268 1.45996 0
M  V30 9489 H 875.03 -4.68576 1.70992 0
M  V30 9490 H 874.184 -6.06368 -0.200763 0
M  V30 9491 H 872.923 -4.84639 -0.545553 0
M  V30 9492 H 871.928 -5.21906 1.72898 0
M  V30 9493 H 873.153 -6.46957 2.06456 0
M  V30 9494 H 871.099 -6.55759 -0.177734 0
M  V30 9495 H 871.016 -7.44597 1.30809 0
M  V30 9496 H 872.284 -7.79313 0.17072 0
M  V30 9497 N 876.513 -0.788492 -1.36457 0
M  V30 9498 C 877.476 -0.192209 -2.28393 0
M  V30 9499 C 878.476 0.609916 -1.48784 0
M  V30 9500 O 879.666 0.431046 -1.68783 0
M  V30 9501 C 876.798 0.734096 -3.32902 0
M  V30 9502 H 877.991 -1.00284 -2.82636 0
M  V30 9503 H 875.544 -0.557852 -1.46006 0
M  V30 9504 H 876.279 1.5691 -2.83813 0
M  V30 9505 H 876.064 0.160875 -3.9177 0
M  V30 9506 H 877.554 1.1462 -4.01562 0
M  V30 9507 N 877.991 1.48044 -0.54043 0
M  V30 9508 C 878.901 2.33565 0.220163 0
M  V30 9509 C 879.917 1.47146 0.928659 0
M  V30 9510 O 881.093 1.80107 0.901295 0
M  V30 9511 C 878.158 3.2349 1.2472 0
M  V30 9512 C 877.219 4.25789 0.547938 0
M  V30 9513 C 876.452 5.11417 1.52605 0
M  V30 9514 O 876.675 4.99204 2.75956 0
M  V30 9515 O 875.609 5.92498 1.05972 0
M  V30 9516 H 879.435 2.99868 -0.480898 0
M  V30 9517 H 877.02 1.46332 -0.301226 0
M  V30 9518 H 878.902 3.79084 1.84047 0
M  V30 9519 H 877.577 2.59835 1.93048 0
M  V30 9520 H 876.484 3.74001 -0.0860941 0
M  V30 9521 H 877.817 4.92111 -0.0935896 0
M  V30 9522 N 879.47 0.276058 1.55163 0
M  V30 9523 C 880.417 -0.611006 2.22565 0
M  V30 9524 C 881.387 -1.14902 1.19945 0
M  V30 9525 O 882.572 -1.19815 1.48489 0
M  V30 9526 C 879.712 -1.78885 2.95117 0
M  V30 9527 C 878.825 -1.2846 4.12458 0
M  V30 9528 C 877.96 -2.42432 4.72652 0
M  V30 9529 C 876.999 -1.89015 5.82185 0
M  V30 9530 N 876.136 -2.96463 6.36439 0
M  V30 9531 H 880.976 -0.0295849 2.97985 0
M  V30 9532 H 878.513 -0.00283607 1.471 0
M  V30 9533 H 880.471 -2.48121 3.35398 0
M  V30 9534 H 879.101 -2.34229 2.22119 0
M  V30 9535 H 878.153 -0.485312 3.77292 0
M  V30 9536 H 879.465 -0.853358 4.91446 0
M  V30 9537 H 878.619 -3.19659 5.15658 0
M  V30 9538 H 877.358 -2.88872 3.92943 0
M  V30 9539 H 876.363 -1.10267 5.38629 0
M  V30 9540 H 877.588 -1.43509 6.63763 0
M  V30 9541 H 875.534 -3.42283 5.59623 0
M  V30 9542 H 875.451 -2.57759 7.10701 0
M  V30 9543 H 876.719 -3.73663 6.84103 0
M  V30 9544 N 880.948 -1.576 0.00335426 0
M  V30 9545 C 882.173 -1.95398 -0.695311 0
M  V30 9546 C 882.598 -0.878476 -1.66326 0
M  V30 9547 O 881.956 0.163086 -1.80565 0
M  V30 9548 C 882.004 -3.32293 -1.40049 0
M  V30 9549 O 881.108 -3.26834 -2.51502 0
M  V30 9550 H 880.449 -0.637796 -0.184694 0
M  V30 9551 H 882.979 -2.04519 0.057543 0
M  V30 9552 H 882.989 -3.67936 -1.76316 0
M  V30 9553 H 881.664 -4.10123 -0.690803 0
M  V30 9554 H 880.241 -3.02872 -2.17539 0
M  V30 9555 N 882.426 0.269451 -1.5528 0
M  V30 9556 C 883.651 1.02299 -1.80415 0
M  V30 9557 C 884.076 1.7902 -0.577363 0
M  V30 9558 O 883.434 1.75018 0.473125 0
M  V30 9559 C 883.482 1.95445 -3.0304 0
M  V30 9560 O 882.586 3.04271 -2.78375 0
M  V30 9561 H 881.927 0.292289 -0.596207 0
M  V30 9562 H 884.457 0.297282 -2.02429 0
M  V30 9563 H 884.467 2.37333 -3.31869 0
M  V30 9564 H 883.142 1.39017 -3.91978 0
M  V30 9565 H 881.719 2.66673 -2.60653 0
M  V30 9566 N 883.904 1.48273 0.534124 0
M  V30 9567 C 885.152 1.55771 1.28762 0
M  V30 9568 C 885.473 0.231575 1.9362 0
M  V30 9569 O 884.743 -0.746533 1.81118 0
M  V30 9570 H 883.323 0.573851 0.47823 0
M  V30 9571 H 885.985 1.84712 0.621888 0
M  V30 9572 H 885.081 2.33657 2.06908 0
M  V30 9573 N 885.382 -0.782676 1.36792 0
M  V30 9574 C 886.292 -1.92679 1.33835 0
M  V30 9575 C 887.308 -1.72344 0.23952 0
M  V30 9576 O 888.484 -1.95766 0.473045 0
M  V30 9577 C 885.549 -3.27644 1.1336 0
M  V30 9578 C 884.61 -3.6071 2.32781 0
M  V30 9579 C 883.843 -4.89234 2.13273 0
M  V30 9580 O 884.066 -5.59468 1.11136 0
M  V30 9581 O 883 -5.21112 3.01208 0
M  V30 9582 H 886.826 -1.98124 2.30175 0
M  V30 9583 H 884.411 -0.923887 1.17408 0
M  V30 9584 H 886.293 -4.08394 1.03886 0
M  V30 9585 H 884.968 -3.23076 0.200868 0
M  V30 9586 H 883.875 -2.80238 2.47825 0
M  V30 9587 H 885.208 -3.70008 3.24584 0
M  V30 9588 N 886.86 -1.21182 -1.00761 0
M  V30 9589 C 887.792 -0.926523 -2.09638 0
M  V30 9590 C 888.805 0.0892511 -1.62555 0
M  V30 9591 O 889.994 -0.142915 -1.77927 0
M  V30 9592 C 887.094 -0.369175 -3.36883 0
M  V30 9593 C 886.267 -1.43866 -4.13063 0
M  V30 9594 C 885.326 -0.891015 -5.18601 0
M  V30 9595 O 884.352 -1.57384 -5.47009 0
M  V30 9596 N 885.554 0.295057 -5.7975 0
M  V30 9597 H 888.319 -1.8638 -2.34697 0
M  V30 9598 H 885.88 -1.11671 -1.17223 0
M  V30 9599 H 887.872 0.011534 -4.04698 0
M  V30 9600 H 886.442 0.472861 -3.09003 0
M  V30 9601 H 885.662 -1.99332 -3.40089 0
M  V30 9602 H 886.95 -2.15866 -4.60738 0
M  V30 9603 H 886.348 0.8669 -5.59018 0
M  V30 9604 H 884.905 0.617306 -6.4887 0
M  V30 9605 N 888.338 1.20213 -1.01915 0
M  V30 9606 C 889.27 2.2251 -0.549725 0
M  V30 9607 C 890.283 1.58558 0.369235 0
M  V30 9608 O 891.472 1.77715 0.167176 0
M  V30 9609 C 888.572 3.38189 0.219432 0
M  V30 9610 C 887.745 4.31729 -0.702066 0
M  V30 9611 C 886.804 5.26196 0.0199624 0
M  V30 9612 O 885.83 5.65993 -0.60339 0
M  V30 9613 N 887.032 5.65895 1.29397 0
M  V30 9614 H 889.797 2.63412 -1.42948 0
M  V30 9615 H 887.358 1.3478 -0.896987 0
M  V30 9616 H 889.35 3.98392 0.711763 0
M  V30 9617 H 887.92 2.96156 1.00051 0
M  V30 9618 H 887.14 3.69455 -1.37466 0
M  V30 9619 H 888.428 4.91145 -1.3287 0
M  V30 9620 H 887.826 5.35579 1.8213 0
M  V30 9621 H 886.383 6.28395 1.73098 0
M  V30 9622 N 889.816 0.795718 1.36037 0
M  V30 9623 C 890.748 0.156336 2.28666 0
M  V30 9624 C 891.761 -0.638075 1.49775 0
M  V30 9625 O 892.95 -0.472222 1.7214 0
M  V30 9626 C 890.05 -0.801417 3.29288 0
M  V30 9627 C 889.223 -0.0557118 4.37365 0
M  V30 9628 C 888.282 -0.930338 5.1791 0
M  V30 9629 O 887.308 -0.385266 5.67895 0
M  V30 9630 N 888.51 -2.25382 5.34961 0
M  V30 9631 H 891.275 0.952033 2.84177 0
M  V30 9632 H 888.836 0.650189 1.48271 0
M  V30 9633 H 890.828 -1.39051 3.80062 0
M  V30 9634 H 889.398 -1.49796 2.74372 0
M  V30 9635 H 888.618 0.714508 3.87671 0
M  V30 9636 H 889.906 0.458633 5.06729 0
M  V30 9637 H 889.304 -2.72073 4.95977 0
M  V30 9638 H 887.861 -2.79241 5.88955 0
M  V30 9639 N 891.294 -1.47756 0.548274 0
M  V30 9640 C 892.242 -2.3158 -0.217584 0
M  V30 9641 C 893.236 -1.42372 -0.917957 0
M  V30 9642 O 894.442 -1.59184 -0.840259 0
M  V30 9643 H 890.817 -0.74671 -0.0890388 0
M  V30 9644 H 892.788 -2.94032 0.508719 0
M  V30 9645 C 891.537 -3.24834 -1.24008 0
M  V30 9646 H 890.86 -3.93435 -0.710572 0
M  V30 9647 H 892.3 -3.86336 -1.74701 0
M  V30 9648 C 890.759 -2.47724 -2.2833 0
M  V30 9649 O 891.289 -2.21522 -3.35098 0
M  V30 9650 N 889.495 -2.08891 -2.02022 0
M  V30 9651 H 889.042 -2.30401 -1.1521 0
M  V30 9652 H 889 -1.57613 -2.7204 0
M  V30 9653 N 892.772 -0.284283 -1.55015 0
M  V30 9654 C 894.02 0.329212 -1.99401 0
M  V30 9655 C 894.341 1.55687 -1.17416 0
M  V30 9656 O 893.611 1.94087 -0.265937 0
M  V30 9657 H 892.191 0.12463 -0.73653 0
M  V30 9658 H 894.853 -0.391743 -1.90922 0
M  V30 9659 H 893.949 0.61278 -3.06025 0
M  V30 9660 N 894.251 1.57596 -0.0117121 0
M  V30 9661 C 895.528 1.82323 0.708356 0
M  V30 9662 C 895.908 0.891947 1.91331 0
M  V30 9663 O 895.256 -0.0565984 2.2843 0
M  V30 9664 C 895.466 3.31111 1.10303 0
M  V30 9665 C 896.814 3.97147 1.50199 0
M  V30 9666 O 897.838 3.35503 1.1965 0
M  V30 9667 O 896.697 5.0576 2.07049 0
M  V30 9668 H 893.791 0.751173 0.345931 0
M  V30 9669 H 896.337 1.69657 -0.0380632 0
M  V30 9670 H 895.109 3.90534 0.24467 0
M  V30 9671 H 894.732 3.48818 1.90818 0
M  V30 9672 N 895.729 -0.261212 1.5542 0
M  V30 9673 C 896.976 -0.99123 1.76581 0
M  V30 9674 C 897.304 -1.85854 0.573457 0
M  V30 9675 O 896.559 -1.90604 -0.443705 0
M  V30 9676 C 896.858 -1.89395 3.03091 0
M  V30 9677 C 896.524 -1.18318 4.351 0
M  V30 9678 C 895.186 -0.986688 4.70975 0
M  V30 9679 C 897.538 -0.678299 5.16767 0
M  V30 9680 C 894.866 -0.272788 5.86065 0
M  V30 9681 C 897.218 0.0220646 6.32596 0
M  V30 9682 C 895.882 0.230161 6.67103 0
M  V30 9683 H 895.152 -0.362717 0.646156 0
M  V30 9684 H 897.799 -0.262506 1.89692 0
M  V30 9685 H 896.104 -2.68927 2.8493 0
M  V30 9686 H 897.801 -2.46022 3.16661 0
M  V30 9687 H 894.391 -1.34625 4.06908 0
M  V30 9688 H 898.575 -0.817691 4.89518 0
M  V30 9689 H 893.831 -0.10095 6.11317 0
M  V30 9690 H 898.005 0.420981 6.95126 0
M  V30 9691 H 895.632 0.785312 7.56133 0
M  V30 9692 N 897.207 -1.48554 -0.526253 0
M  V30 9693 C 898.154 -1.63354 -1.63046 0
M  V30 9694 C 899.124 -0.475509 -1.59148 0
M  V30 9695 O 900.309 -0.699453 -1.77517 0
M  V30 9696 C 897.449 -1.68271 -3.01295 0
M  V30 9697 C 896.562 -2.95207 -3.15399 0
M  V30 9698 C 895.697 -2.91262 -4.4423 0
M  V30 9699 C 894.736 -4.12886 -4.51876 0
M  V30 9700 N 893.873 -4.06996 -5.721 0
M  V30 9701 H 898.713 -2.57649 -1.49737 0
M  V30 9702 H 896.25 -1.27769 -0.728938 0
M  V30 9703 H 898.208 -1.69104 -3.81392 0
M  V30 9704 H 896.838 -0.774641 -3.13367 0
M  V30 9705 H 895.89 -3.04102 -2.2853 0
M  V30 9706 H 897.202 -3.85187 -3.1691 0
M  V30 9707 H 896.356 -2.90516 -5.32621 0
M  V30 9708 H 895.095 -1.99016 -4.45246 0
M  V30 9709 H 894.1 -4.13902 -3.61891 0
M  V30 9710 H 895.325 -5.06294 -4.52596 0
M  V30 9711 H 893.271 -3.17573 -5.74006 0
M  V30 9712 H 893.188 -4.90685 -5.75121 0
M  V30 9713 H 894.456 -4.10315 -6.62768 0
M  V30 9714 N 898.685 0.775411 -1.37205 0
M  V30 9715 C 899.962 1.5229 -1.22748 0
M  V30 9716 C 900.342 2.10327 0.180487 0
M  V30 9717 O 899.69 1.95206 1.18772 0
M  V30 9718 C 899.9 2.60671 -2.3206 0
M  V30 9719 C 901.248 3.28173 -2.6942 0
M  V30 9720 O 902.272 2.70963 -2.31208 0
M  V30 9721 O 901.131 4.31598 -3.3524 0
M  V30 9722 H 898.225 0.674326 -0.478762 0
M  V30 9723 H 900.771 0.812691 -1.48975 0
M  V30 9724 H 899.543 2.1588 -3.26361 0
M  V30 9725 H 899.166 3.39296 -2.07277 0
M  V30 9726 N 900.163 1.21714 1.00117 0
M  V30 9727 C 901.411 1.03465 1.73607 0
M  V30 9728 C 901.732 -0.432295 1.90148 0
M  V30 9729 O 901.002 -1.31157 1.45515 0
M  V30 9730 H 899.582 0.379857 0.643209 0
M  V30 9731 H 902.244 1.53088 1.20624 0
M  V30 9732 H 901.34 1.50574 2.73375 0
M  V30 9733 N 901.641 -1.19671 1.02551 0
M  V30 9734 C 902.588 -2.22773 0.603394 0
M  V30 9735 C 903.558 -1.61669 -0.381081 0
M  V30 9736 O 904.743 -1.88756 -0.278505 0
M  V30 9737 C 901.883 -3.45073 -0.0431034 0
M  V30 9738 C 900.996 -4.20574 0.987006 0
M  V30 9739 C 900.131 -5.30291 0.310626 0
M  V30 9740 C 899.17 -5.97545 1.32688 0
M  V30 9741 N 898.307 -6.98833 0.676542 0
M  V30 9742 H 903.147 -2.58238 1.48719 0
M  V30 9743 H 900.684 -1.26881 0.744286 0
M  V30 9744 H 902.642 -4.14925 -0.435141 0
M  V30 9745 H 901.272 -3.10274 -0.890495 0
M  V30 9746 H 900.324 -3.497 1.49713 0
M  V30 9747 H 901.636 -4.66736 1.75952 0
M  V30 9748 H 900.79 -6.06547 -0.136438 0
M  V30 9749 H 899.529 -4.8519 -0.49412 0
M  V30 9750 H 898.534 -5.20043 1.78424 0
M  V30 9751 H 899.759 -6.4473 2.13306 0
M  V30 9752 H 897.705 -6.55911 -0.108172 0
M  V30 9753 H 897.622 -7.43168 1.38699 0
M  V30 9754 H 898.89 -7.79088 0.253367 0
M  V30 9755 N 903.119 -0.802921 -1.35613 0
M  V30 9756 C 904.067 -0.198783 -2.31749 0
M  V30 9757 C 905.061 0.649416 -1.56458 0
M  V30 9758 O 906.267 0.542989 -1.71615 0
M  V30 9759 H 902.642 -0.0455177 -0.750621 0
M  V30 9760 H 904.613 -1.02479 -2.80251 0
M  V30 9761 C 903.362 0.641066 -3.41739 0
M  V30 9762 H 902.685 -0.00226244 -3.998 0
M  V30 9763 H 904.125 1.03022 -4.11294 0
M  V30 9764 C 902.584 1.80505 -2.84464 0
M  V30 9765 O 903.114 2.90235 -2.77717 0
M  V30 9766 N 901.32 1.61542 -2.41563 0
M  V30 9767 H 900.867 0.722863 -2.4725 0
M  V30 9768 H 900.825 2.39581 -2.03589 0
M  V30 9769 N 904.597 1.47463 -0.556102 0
M  V30 9770 C 905.544 2.29998 0.192213 0
M  V30 9771 C 906.514 1.38993 0.909403 0
M  V30 9772 O 907.699 1.67954 0.905316 0
M  V30 9773 C 904.839 3.22932 1.21692 0
M  V30 9774 C 903.952 4.29027 0.505908 0
M  V30 9775 C 903.087 5.09114 1.51581 0
M  V30 9776 C 902.126 6.06984 0.789714 0
M  V30 9777 N 901.263 6.80033 1.74639 0
M  V30 9778 H 906.103 2.93468 -0.517734 0
M  V30 9779 H 903.64 1.44654 -0.267147 0
M  V30 9780 H 905.598 3.75234 1.8236 0
M  V30 9781 H 904.228 2.61329 1.89491 0
M  V30 9782 H 903.28 3.7979 -0.215276 0
M  V30 9783 H 904.592 4.9876 -0.062958 0
M  V30 9784 H 903.746 5.6556 2.19606 0
M  V30 9785 H 902.485 4.3928 2.11859 0
M  V30 9786 H 901.49 5.49717 0.0955382 0
M  V30 9787 H 902.715 6.78827 0.192688 0
M  V30 9788 H 900.661 6.12931 2.33777 0
M  V30 9789 H 900.578 7.45933 1.22965 0
M  V30 9790 H 901.846 7.41054 2.41782 0
M  V30 9791 N 906.075 0.2925 1.54862 0
M  V30 9792 C 907.303 -0.322113 2.04377 0
M  V30 9793 C 907.718 -1.48164 1.17016 0
M  V30 9794 O 907.075 -1.81466 0.19395 0
M  V30 9795 C 907.126 -0.786506 3.5284 0
M  V30 9796 O 906.847 0.326863 4.36879 0
M  V30 9797 C 908.348 -1.46715 4.18318 0
M  V30 9798 H 905.568 -0.0712074 0.667211 0
M  V30 9799 H 908.112 0.429657 1.99935 0
M  V30 9800 H 906.267 -1.48832 3.5767 0
M  V30 9801 H 906.681 -0.0331558 5.2449 0
M  V30 9802 H 908.155 -1.74333 5.23748 0
M  V30 9803 H 908.632 -2.40443 3.67538 0
M  V30 9804 H 909.238 -0.808735 4.1754 0
M  V30 9805 N 907.553 -1.57587 0.0200696 0
M  V30 9806 C 908.83 -1.82696 -0.698677 0
M  V30 9807 C 909.21 -0.902082 -1.90855 0
M  V30 9808 O 908.558 0.0444834 -2.28457 0
M  V30 9809 C 908.768 -3.31691 -1.08546 0
M  V30 9810 C 910.116 -3.97938 -1.4809 0
M  V30 9811 O 911.14 -3.36133 -1.17869 0
M  V30 9812 O 909.999 -5.06851 -2.04364 0
M  V30 9813 H 907.093 -0.752997 -0.341942 0
M  V30 9814 H 909.639 -1.69635 0.04706 0
M  V30 9815 H 908.411 -3.90659 -0.223956 0
M  V30 9816 H 908.034 -3.49825 -1.88965 0
M  V30 9817 N 909.032 0.252966 -1.55557 0
M  V30 9818 C 909.979 1.3131 -1.89806 0
M  V30 9819 C 910.949 1.48121 -0.751633 0
M  V30 9820 O 912.134 1.62202 -1.00474 0
M  V30 9821 C 909.274 2.66467 -2.19293 0
M  V30 9822 C 908.387 2.57714 -3.46709 0
M  V30 9823 C 907.522 3.85184 -3.65796 0
M  V30 9824 C 906.561 3.71023 -4.86835 0
M  V30 9825 N 905.698 4.90371 -5.02474 0
M  V30 9826 H 910.538 1.01402 -2.80217 0
M  V30 9827 H 908.075 0.489462 -1.38718 0
M  V30 9828 H 910.033 3.45132 -2.34392 0
M  V30 9829 H 908.663 2.94536 -1.32093 0
M  V30 9830 H 907.715 1.70651 -3.39974 0
M  V30 9831 H 909.027 2.43158 -4.35517 0
M  V30 9832 H 908.181 4.72292 -3.80822 0
M  V30 9833 H 906.92 4.0263 -2.7521 0
M  V30 9834 H 905.925 2.82299 -4.71792 0
M  V30 9835 H 907.15 3.55078 -5.78875 0
M  V30 9836 H 905.096 5.0819 -4.14824 0
M  V30 9837 H 905.013 4.78423 -5.85361 0
M  V30 9838 H 906.281 5.78995 -5.21905 0
M  V30 9839 N 910.51 1.48831 0.518367 0
M  V30 9840 C 911.457 1.64216 1.62178 0
M  V30 9841 C 912.427 0.483942 1.58894 0
M  V30 9842 O 913.612 0.708857 1.77144 0
M  V30 9843 C 910.752 1.69867 3.00399 0
M  V30 9844 C 909.865 2.96875 3.1383 0
M  V30 9845 C 909 2.93613 4.42679 0
M  V30 9846 C 908.039 4.15276 4.4968 0
M  V30 9847 N 907.176 4.10024 5.69934 0
M  V30 9848 H 912.016 2.58439 1.48368 0
M  V30 9849 H 909.553 1.28154 0.722152 0
M  V30 9850 H 911.511 1.71124 3.8049 0
M  V30 9851 H 910.141 0.791249 3.12952 0
M  V30 9852 H 909.193 3.0531 2.26914 0
M  V30 9853 H 910.505 3.86863 3.14863 0
M  V30 9854 H 909.659 2.93337 5.31073 0
M  V30 9855 H 908.398 2.01375 4.44184 0
M  V30 9856 H 907.403 4.15816 3.59691 0
M  V30 9857 H 908.628 5.08687 4.49904 0
M  V30 9858 H 906.574 3.20613 5.72314 0
M  V30 9859 H 906.491 4.93728 5.72511 0
M  V30 9860 H 907.759 4.13824 6.60583 0
M  V30 9861 N 911.988 -0.768124 1.37614 0
M  V30 9862 C 913.265 -1.51637 1.23554 0
M  V30 9863 C 913.645 -2.1042 -0.169331 0
M  V30 9864 O 912.993 -1.95834 -1.17735 0
M  V30 9865 C 913.203 -2.59436 2.33439 0
M  V30 9866 C 914.551 -3.2674 2.71157 0
M  V30 9867 O 915.575 -2.69733 2.32642 0
M  V30 9868 O 914.434 -4.29814 3.37524 0
M  V30 9869 H 911.528 -0.671778 0.482332 0
M  V30 9870 H 914.074 -0.804779 1.49403 0
M  V30 9871 H 912.846 -2.14146 3.27502 0
M  V30 9872 H 912.469 -3.38192 2.09073 0
M  V30 9873 N 913.466 -1.22244 -0.994698 0
M  V30 9874 C 914.416 -0.958244 -2.06886 0
M  V30 9875 C 915.4 0.0904481 -1.60646 0
M  V30 9876 O 916.592 -0.119837 -1.76594 0
M  V30 9877 C 913.721 -0.535944 -3.39091 0
M  V30 9878 C 912.807 -1.61927 -3.9197 0
M  V30 9879 N 913.198 -2.84659 -4.18094 0
M  V30 9880 C 911.496 -1.49053 -4.20356 0
M  V30 9881 C 912.197 -3.54697 -4.61048 0
M  V30 9882 N 911.173 -2.82164 -4.64634 0
M  V30 9883 H 914.975 -1.89056 -2.25022 0
M  V30 9884 H 912.489 -1.1197 -1.17629 0
M  V30 9885 H 914.486 -0.327997 -4.15608 0
M  V30 9886 H 913.146 0.38949 -3.22355 0
M  V30 9887 H 914.157 -3.21104 -4.06341 0
M  V30 9888 H 910.834 -0.631154 -4.12702 0
M  V30 9889 H 912.224 -4.59837 -4.89898 0
M  V30 9890 N 914.944 1.19125 -1.03184 0
M  V30 9891 C 916.169 1.93379 -0.749628 0
M  V30 9892 C 916.594 1.75153 0.685785 0
M  V30 9893 O 915.952 1.05579 1.47386 0
M  V30 9894 C 916 3.43101 -1.1097 0
M  V30 9895 O 915.104 4.11758 -0.230053 0
M  V30 9896 H 914.445 0.603605 -0.276689 0
M  V30 9897 H 916.975 1.51116 -1.37931 0
M  V30 9898 H 916.985 3.93778 -1.06785 0
M  V30 9899 H 915.66 3.55688 -2.15544 0
M  V30 9900 H 914.237 3.7143 -0.330748 0
M  V30 9901 N 916.422 0.810101 1.35185 0
M  V30 9902 C 917.37 0.211071 2.3164 0
M  V30 9903 C 918.364 -0.641109 1.568 0
M  V30 9904 O 919.57 -0.533881 1.719 0
M  V30 9905 H 915.945 0.0494978 0.750369 0
M  V30 9906 H 917.916 1.03964 2.79703 0
M  V30 9907 C 916.665 -0.622933 3.42074 0
M  V30 9908 H 915.988 0.0234648 3.99793 0
M  V30 9909 H 917.428 -1.0084 4.11834 0
M  V30 9910 C 915.887 -1.78994 2.85417 0
M  V30 9911 O 916.417 -2.88758 2.79252 0
M  V30 9912 N 914.623 -1.60259 2.42416 0
M  V30 9913 H 914.17 -0.70974 2.4763 0
M  V30 9914 H 914.128 -2.38498 2.04857 0
M  V30 9915 N 917.9 -1.47166 0.563914 0
M  V30 9916 C 919.149 -2.0166 0.0401871 0
M  V30 9917 C 919.462 -1.44303 -1.32046 0
M  V30 9918 O 920.668 -1.905 -1.93448 0
M  V30 9919 C 919.124 -3.59894 0.0213257 0
M  V30 9920 C 918.732 -4.26244 1.37914 0
M  V30 9921 C 920.476 -4.22114 -0.449442 0
M  V30 9922 C 918.383 -5.76503 1.31902 0
M  V30 9923 H 917.313 -0.753916 0.0112534 0
M  V30 9924 H 919.964 -1.69091 0.712766 0
M  V30 9925 H 918.346 -3.89454 -0.717038 0
M  V30 9926 H 919.52 -4.08317 2.13574 0
M  V30 9927 H 917.835 -3.76039 1.78839 0
M  V30 9928 H 920.432 -5.32234 -0.51292 0
M  V30 9929 H 920.775 -3.89749 -1.46291 0
M  V30 9930 H 921.308 -3.9711 0.23427 0
M  V30 9931 H 918.047 -6.13498 2.3087 0
M  V30 9932 H 917.567 -5.96748 0.604324 0
M  V30 9933 H 919.246 -6.38846 1.02392 0
M  V30 9934 N 919.378 -0.300708 -1.54705 0
M  V30 9935 C 920.626 0.308044 -1.99739 0
M  V30 9936 C 920.947 1.54433 -1.19061 0
M  V30 9937 O 920.217 1.93794 -0.286507 0
M  V30 9938 H 918.797 0.116811 -0.73781 0
M  V30 9939 H 921.459 -0.41197 -1.90496 0
M  V30 9940 H 920.555 0.580287 -3.06658 0
M  V30 9941 N 920.856 1.57574 -0.0284266 0
M  V30 9942 C 921.804 2.11332 0.971675 0
M  V30 9943 C 922.798 1.03974 1.33738 0
M  V30 9944 O 924.004 1.22409 1.31969 0
M  V30 9945 H 920.379 0.675174 0.331125 0
M  V30 9946 H 922.35 2.943 0.49296 0
M  V30 9947 C 921.099 2.65496 2.24516 0
M  V30 9948 H 920.422 3.47753 1.9725 0
M  V30 9949 H 921.862 3.06757 2.92705 0
M  V30 9950 C 920.321 1.58207 2.97443 0
M  V30 9951 O 920.851 0.981496 3.89525 0
M  V30 9952 N 919.057 1.30269 2.59766 0
M  V30 9953 H 918.604 1.79294 1.84963 0
M  V30 9954 H 918.562 0.587085 3.0887 0
M  V30 9955 N 922.334 -0.244713 1.55689 0
M  V30 9956 C 923.611 -0.995407 1.68378 0
M  V30 9957 C 923.991 -2.03288 0.568949 0
M  V30 9958 O 923.339 -2.24469 -0.427299 0
M  V30 9959 C 923.549 -1.62678 3.08767 0
M  V30 9960 C 924.897 -2.1278 3.67437 0
M  V30 9961 O 925.921 -1.72614 3.11581 0
M  V30 9962 O 924.78 -2.86536 4.65359 0
M  V30 9963 H 921.874 -0.463476 0.684923 0
M  V30 9964 H 924.42 -0.238326 1.68018 0
M  V30 9965 H 923.192 -0.876469 3.81358 0
M  V30 9966 H 922.815 -2.45 3.13146 0
M  V30 9967 N 923.813 -1.49104 -0.510467 0
M  V30 9968 C 925.038 -1.62068 -1.29417 0
M  V30 9969 C 925.463 -0.288432 -1.85875 0
M  V30 9970 O 924.821 0.742667 -1.65391 0
M  V30 9971 C 924.869 -2.68506 -2.40701 0
M  V30 9972 O 923.973 -2.27021 -3.4429 0
M  V30 9973 H 923.314 -0.542778 -0.382476 0
M  V30 9974 H 925.844 -1.95228 -0.612154 0
M  V30 9975 H 925.854 -2.90383 -2.86604 0
M  V30 9976 H 924.529 -3.65216 -1.98973 0
M  V30 9977 H 923.106 -2.15436 -3.04371 0
M  V30 9978 N 925.291 0.760815 -1.38019 0
M  V30 9979 C 926.238 1.8744 -1.34666 0
M  V30 9980 C 927.208 1.64762 -0.210386 0
M  V30 9981 O 928.393 1.86528 -0.401479 0
M  V30 9982 C 925.533 3.24648 -1.17037 0
M  V30 9983 C 924.646 3.59206 -2.3999 0
M  V30 9984 C 923.781 4.8568 -2.15148 0
M  V30 9985 C 922.82 5.13002 -3.3391 0
M  V30 9986 N 921.957 6.30668 -3.08549 0
M  V30 9987 H 926.797 1.8964 -2.29871 0
M  V30 9988 H 924.334 0.927004 -1.14215 0
M  V30 9989 H 926.292 4.03814 -1.04834 0
M  V30 9990 H 924.922 3.21793 -0.254758 0
M  V30 9991 H 923.974 2.74939 -2.62893 0
M  V30 9992 H 925.286 3.75328 -3.28527 0
M  V30 9993 H 924.44 5.72773 -2.00039 0
M  V30 9994 H 923.179 4.71682 -1.23965 0
M  V30 9995 H 922.184 4.2438 -3.49545 0
M  V30 9996 H 923.409 5.28901 -4.25958 0
M  V30 9997 H 921.355 6.18008 -2.20006 0
M  V30 9998 H 921.272 6.47257 -3.90633 0
M  V30 9999 H 922.54 7.20669 -2.9708 0
M  V30 10000 N 926.769 1.22769 0.988202 0
M  V30 10001 C 927.716 1.00195 2.07917 0
M  V30 10002 C 928.686 -0.0779391 1.65917 0
M  V30 10003 O 929.871 0.0726005 1.90662 0
M  V30 10004 C 927.011 0.590853 3.40004 0
M  V30 10005 C 926.124 1.74202 3.9532 0
M  V30 10006 C 925.259 1.27846 5.15586 0
M  V30 10007 C 924.298 2.40087 5.63049 0
M  V30 10008 N 923.435 1.94744 6.74551 0
M  V30 10009 H 928.275 1.93581 2.26562 0
M  V30 10010 H 925.812 0.96448 1.11068 0
M  V30 10011 H 927.77 0.333653 4.15864 0
M  V30 10012 H 926.4 -0.306007 3.21346 0
M  V30 10013 H 925.452 2.11342 3.16289 0
M  V30 10014 H 926.764 2.58612 4.26522 0
M  V30 10015 H 925.918 0.978919 5.9875 0
M  V30 10016 H 924.657 0.404617 4.86019 0
M  V30 10017 H 923.662 2.70824 4.78471 0
M  V30 10018 H 924.887 3.27995 5.9464 0
M  V30 10019 H 922.833 1.09729 6.46758 0
M  V30 10020 H 922.75 2.72718 7.05096 0
M  V30 10021 H 924.018 1.67873 7.61209 0
M  V30 10022 N 928.247 -1.18576 1.03814 0
M  V30 10023 C 929.475 -1.92437 0.759966 0
M  V30 10024 C 929.89 -1.76031 -0.682526 0
M  V30 10025 O 929.247 -1.08829 -1.46501 0
M  V30 10026 C 929.298 -3.43923 1.11351 0
M  V30 10027 O 929.019 -3.5981 2.49937 0
M  V30 10028 C 930.52 -4.34888 0.859472 0
M  V30 10029 H 927.74 -0.610998 0.277349 0
M  V30 10030 H 930.284 -1.50448 1.38512 0
M  V30 10031 H 928.439 -3.83711 0.533362 0
M  V30 10032 H 928.853 -4.53569 2.63393 0
M  V30 10033 H 930.327 -5.39744 1.15672 0
M  V30 10034 H 930.804 -4.38717 -0.205839 0
M  V30 10035 H 931.41 -4.00795 1.42279 0
M  V30 10036 N 929.725 -0.817259 -1.34754 0
M  V30 10037 C 931.002 -0.325468 -1.92873 0
M  V30 10038 C 931.382 1.18643 -1.74606 0
M  V30 10039 O 930.73 1.9909 -1.1214 0
M  V30 10040 C 930.94 -0.74858 -3.40877 0
M  V30 10041 C 932.288 -0.744165 -4.18028 0
M  V30 10042 O 933.312 -0.690799 -3.49437 0
M  V30 10043 O 932.171 -0.812207 -5.40431 0
M  V30 10044 H 929.265 -0.0876397 -0.822343 0
M  V30 10045 H 931.811 -0.901671 -1.43764 0
M  V30 10046 H 930.583 -1.79017 -3.47949 0
M  V30 10047 H 930.206 -0.147764 -3.97325 0
M  V30 10048 N 931.203 1.46865 -0.571711 0
M  V30 10049 C 932.451 2.0203 -0.0530022 0
M  V30 10050 C 932.772 1.44687 1.30731 0
M  V30 10051 O 932.042 0.627429 1.85581 0
M  V30 10052 H 930.622 0.746815 -0.0166035 0
M  V30 10053 H 933.284 1.80099 -0.745003 0
M  V30 10054 H 932.38 3.12091 0.0242538 0
M  V30 10055 N 932.681 0.308908 1.54543 0
M  V30 10056 C 933.909 -0.300418 2.04707 0
M  V30 10057 C 934.324 -1.46915 1.18581 0
M  V30 10058 O 933.681 -1.81251 0.213186 0
M  V30 10059 C 933.732 -0.749038 3.53655 0
M  V30 10060 O 933.453 0.373181 4.36508 0
M  V30 10061 C 934.954 -1.4227 4.1985 0
M  V30 10062 H 932.174 -0.0641267 0.667929 0
M  V30 10063 H 934.718 0.450839 1.99469 0
M  V30 10064 H 932.873 -1.4503 3.59228 0
M  V30 10065 H 933.287 0.0224752 5.24495 0
M  V30 10066 H 934.761 -1.68768 5.25568 0
M  V30 10067 H 935.238 -2.36531 3.70067 0
M  V30 10068 H 935.844 -0.764404 4.18374 0
M  V30 10069 N 934.159 -1.57557 0.0367827 0
M  V30 10070 C 935.106 -2.10679 -0.942499 0
M  V30 10071 C 936.076 -1.01068 -1.31812 0
M  V30 10072 O 937.261 -1.28533 -1.41011 0
M  V30 10073 C 934.401 -2.64467 -2.21701 0
M  V30 10074 C 933.514 -3.88114 -1.89715 0
M  V30 10075 C 932.649 -4.30268 -3.11518 0
M  V30 10076 C 931.688 -5.46652 -2.75387 0
M  V30 10077 N 930.825 -5.83927 -3.89838 0
M  V30 10078 H 935.665 -2.94066 -0.482588 0
M  V30 10079 H 933.202 -1.45344 -0.226597 0
M  V30 10080 H 935.16 -2.93745 -2.96259 0
M  V30 10081 H 933.79 -1.83898 -2.65295 0
M  V30 10082 H 932.842 -3.65516 -1.05366 0
M  V30 10083 H 934.154 -4.72743 -1.5911 0
M  V30 10084 H 933.308 -4.61023 -3.94389 0
M  V30 10085 H 932.047 -3.44421 -3.4529 0
M  V30 10086 H 931.052 -5.15583 -1.90929 0
M  V30 10087 H 932.277 -6.34204 -2.42822 0
M  V30 10088 H 930.223 -5.01035 -4.23438 0
M  V30 10089 H 930.14 -6.63214 -3.62883 0
M  V30 10090 H 931.408 -6.19291 -4.73391 0
M  V30 10091 N 935.637 0.236453 -1.55816 0
M  V30 10092 C 936.569 1.31602 -1.87653 0
M  V30 10093 C 937.582 1.43782 -0.763584 0
M  V30 10094 O 938.771 1.44945 -1.04178 0
M  V30 10095 C 935.871 2.69342 -2.05689 0
M  V30 10096 C 935.044 2.79298 -3.36617 0
M  V30 10097 C 934.103 3.97952 -3.44268 0
M  V30 10098 O 933.129 3.86989 -4.17406 0
M  V30 10099 N 934.331 5.11594 -2.74321 0
M  V30 10100 H 937.096 1.04623 -2.80845 0
M  V30 10101 H 934.657 0.426534 -1.5618 0
M  V30 10102 H 936.649 3.47074 -2.08138 0
M  V30 10103 H 935.219 2.88984 -1.19192 0
M  V30 10104 H 934.439 1.8816 -3.46395 0
M  V30 10105 H 935.727 2.82908 -4.22895 0
M  V30 10106 H 935.125 5.23394 -2.14651 0
M  V30 10107 H 933.682 5.87422 -2.8245 0
M  V30 10108 N 937.115 1.49373 0.502552 0
M  V30 10109 C 938.531 1.36101 0.833591 0
M  V30 10110 C 938.731 0.392911 1.97632 0
M  V30 10111 O 937.787 -0.175975 2.51886 0
M  V30 10112 C 939.1 2.76782 1.17526 0
M  V30 10113 C 940.648 2.85471 1.28356 0
M  V30 10114 C 941.123 4.26915 1.65853 0
M  V30 10115 N 942.614 4.29719 1.72905 0
M  V30 10116 C 943.349 5.36127 2.0336 0
M  V30 10117 N 942.845 6.52782 2.32049 0
M  V30 10118 N 944.638 5.23542 2.04598 0
M  V30 10119 H 936.789 2.10912 -0.251008 0
M  V30 10120 H 939.052 0.946696 -0.0497037 0
M  V30 10121 H 938.758 3.49314 0.408965 0
M  V30 10122 H 938.632 3.1205 2.11907 0
M  V30 10123 H 941.019 2.13177 2.04058 0
M  V30 10124 H 941.1 2.53787 0.320304 0
M  V30 10125 H 940.744 4.99735 0.907022 0
M  V30 10126 H 940.674 4.56063 2.63276 0
M  V30 10127 H 943.165 3.45586 1.529 0
M  V30 10128 H 943.478 7.29701 2.54471 0
M  V30 10129 H 941.823 6.56011 2.29509 0
M  V30 10130 H 945.014 4.31413 1.8166 0
M  V30 10131 H 945.187 6.06565 2.27998 0
M  V30 10132 N 938.594 -0.753485 1.38421 0
M  V30 10133 C 939.819 -1.54783 1.38047 0
M  V30 10134 C 940.244 -1.8808 -0.0276371 0
M  V30 10135 O 939.602 -1.5058 -1.00973 0
M  V30 10136 C 939.65 -2.82353 2.24297 0
M  V30 10137 O 938.754 -3.77509 1.66014 0
M  V30 10138 H 938.095 -0.468151 0.470883 0
M  V30 10139 H 940.625 -0.931144 1.82184 0
M  V30 10140 H 940.635 -3.31277 2.38159 0
M  V30 10141 H 939.31 -2.57449 3.26639 0
M  V30 10142 H 937.887 -3.36212 1.61294 0
M  V30 10143 N 940.072 -1.23292 -0.981677 0
M  V30 10144 C 941.022 -0.980133 -2.05858 0
M  V30 10145 C 942.006 0.0734044 -1.60732 0
M  V30 10146 O 943.198 -0.138561 -1.76457 0
M  V30 10147 C 940.327 -0.571879 -3.38503 0
M  V30 10148 C 939.413 -1.66075 -3.90231 0
M  V30 10149 N 939.804 -2.89077 -4.15052 0
M  V30 10150 C 938.102 -1.53503 -4.18751 0
M  V30 10151 C 938.803 -3.59567 -4.5726 0
M  V30 10152 N 937.779 -2.87076 -4.61615 0
M  V30 10153 H 941.581 -1.91432 -2.23005 0
M  V30 10154 H 939.095 -1.13211 -1.16434 0
M  V30 10155 H 941.092 -0.372059 -4.15236 0
M  V30 10156 H 939.752 0.355278 -3.2275 0
M  V30 10157 H 940.763 -3.25395 -4.02912 0
M  V30 10158 H 937.44 -0.674891 -4.12009 0
M  V30 10159 H 938.83 -4.65007 -4.84993 0
M  V30 10160 N 941.55 1.18024 -1.04442 0
M  V30 10161 C 942.798 1.87727 -0.74854 0
M  V30 10162 C 943.119 1.80975 0.726156 0
M  V30 10163 O 942.389 1.23061 1.52423 0
M  V30 10164 H 940.969 0.694974 -0.273897 0
M  V30 10165 H 943.631 1.43213 -1.32197 0
M  V30 10166 H 942.727 2.93665 -1.05674 0
M  V30 10167 N 943.028 0.824394 1.34319 0
M  V30 10168 C 944.253 0.425194 2.02995 0
M  V30 10169 C 944.678 -0.961476 1.6167 0
M  V30 10170 O 944.036 -1.62593 0.80207 0
M  V30 10171 C 944.084 0.537004 3.56579 0
M  V30 10172 O 943.188 -0.442576 4.10018 0
M  V30 10173 H 942.529 0.174853 0.640564 0
M  V30 10174 H 945.059 1.11522 1.71534 0
M  V30 10175 H 945.069 0.413311 4.05901 0
M  V30 10176 H 943.744 1.54836 3.86004 0
M  V30 10177 H 942.321 -0.277644 3.71865 0
M  V30 10178 N 944.506 -1.46559 0.579492 0
M  V30 10179 C 945.917 -1.8608 0.152052 0
M  V30 10180 C 946.268 -1.48346 -1.28405 0
M  V30 10181 O 945.393 -0.89685 -1.9694 0
M  V30 10182 C 945.988 -3.37729 0.269171 0
M  V30 10183 C 944.547 -3.76258 -0.103376 0
M  V30 10184 C 943.694 -2.70584 0.60659 0
M  V30 10185 H 946.645 -1.3776 0.787904 0
M  V30 10186 H 946.666 -3.77116 -0.506339 0
M  V30 10187 H 946.178 -3.65162 1.31448 0
M  V30 10188 H 944.279 -3.54443 -1.14895 0
M  V30 10189 H 944.392 -4.78335 0.270701 0
M  V30 10190 H 942.756 -2.54656 0.0471984 0
M  V30 10191 H 943.539 -3.00856 1.65349 0
M  V30 10192 N 945.984 -0.3171 -1.54377 0
M  V30 10193 C 946.947 0.53905 -2.22771 0
M  V30 10194 C 947.947 1.04865 -1.21901 0
M  V30 10195 O 949.137 0.942108 -1.46526 0
M  V30 10196 C 946.269 1.74804 -2.92671 0
M  V30 10197 H 947.462 -0.0587417 -2.99842 0
M  V30 10198 H 945.015 -0.068107 -1.56152 0
M  V30 10199 H 945.75 2.38524 -2.1972 0
M  V30 10200 H 945.535 1.39011 -3.66631 0
M  V30 10201 H 947.025 2.35592 -3.44799 0
M  V30 10202 N 947.462 1.57535 -0.0451378 0
M  V30 10203 C 948.873 1.80116 0.491426 0
M  V30 10204 C 949.224 0.956846 1.71286 0
M  V30 10205 O 948.349 0.17173 2.15718 0
M  V30 10206 C 948.944 3.26674 0.898315 0
M  V30 10207 C 947.503 3.50194 1.37989 0
M  V30 10208 C 946.65 2.75054 0.352202 0
M  V30 10209 H 949.601 1.56368 -0.271065 0
M  V30 10210 H 949.622 3.37263 1.76164 0
M  V30 10211 H 949.134 3.88099 0.009141 0
M  V30 10212 H 947.235 2.94041 2.28846 0
M  V30 10213 H 947.348 4.58909 1.37622 0
M  V30 10214 H 945.712 2.4101 0.823784 0
M  V30 10215 H 946.495 3.39203 -0.528782 0
M  V30 10216 N 948.94 -0.228186 1.55939 0
M  V30 10217 C 950.165 -0.974795 1.83064 0
M  V30 10218 C 950.59 -1.77426 0.624624 0
M  V30 10219 O 949.948 -1.76211 -0.426556 0
M  V30 10220 C 949.996 -1.87342 3.08116 0
M  V30 10221 O 949.1 -2.96784 2.86344 0
M  V30 10222 H 948.441 -0.276379 0.603747 0
M  V30 10223 H 950.971 -0.243507 2.03146 0
M  V30 10224 H 950.981 -2.28451 3.38045 0
M  V30 10225 H 949.656 -1.28575 3.95526 0
M  V30 10226 H 948.233 -2.59669 2.67631 0
M  V30 10227 N 950.418 -1.49637 -0.494624 0
M  V30 10228 C 951.646 -1.63164 -1.2722 0
M  V30 10229 C 952.061 -0.305552 -1.86311 0
M  V30 10230 O 951.418 0.709758 -1.68133 0
M  V30 10231 C 951.469 -2.70524 -2.39789 0
M  V30 10232 O 951.19 -3.97991 -1.83126 0
M  V30 10233 C 952.691 -2.94814 -3.31058 0
M  V30 10234 H 949.911 -0.54912 -0.385627 0
M  V30 10235 H 952.455 -1.95711 -0.593081 0
M  V30 10236 H 950.61 -2.40738 -3.03519 0
M  V30 10237 H 951.024 -4.57179 -2.57075 0
M  V30 10238 H 952.498 -3.73653 -4.06309 0
M  V30 10239 H 952.975 -2.04974 -3.88436 0
M  V30 10240 H 953.581 -3.26042 -2.73088 0
M  V30 10241 N 951.896 0.746133 -1.38819 0
M  V30 10242 C 953.121 1.54049 -1.38866 0
M  V30 10243 C 953.546 1.88092 0.0176624 0
M  V30 10244 O 952.904 1.51113 1.00173 0
M  V30 10245 C 952.952 2.8116 -2.25791 0
M  V30 10246 O 952.056 3.76623 -1.68014 0
M  V30 10247 H 951.397 0.465648 -0.473359 0
M  V30 10248 H 953.927 0.921469 -1.82675 0
M  V30 10249 H 953.937 3.30009 -2.39913 0
M  V30 10250 H 952.612 2.55713 -3.27999 0
M  V30 10251 H 951.189 3.35352 -1.63074 0
M  V30 10252 N 953.375 1.23811 0.975125 0
M  V30 10253 C 954.6 1.10109 1.75757 0
M  V30 10254 C 955.025 -0.342922 1.84948 0
M  V30 10255 O 954.383 -1.24814 1.31496 0
M  V30 10256 C 954.431 1.73724 3.15994 0
M  V30 10257 O 953.535 1.00297 4.00018 0
M  V30 10258 H 952.876 0.385627 0.540544 0
M  V30 10259 H 955.406 1.63971 1.22372 0
M  V30 10260 H 955.416 1.79178 3.6655 0
M  V30 10261 H 954.091 2.78794 3.0862 0
M  V30 10262 H 952.668 1.02575 3.58515 0
M  V30 10263 N 954.853 -1.17469 1.05066 0
M  V30 10264 C 956.081 -1.9162 0.780334 0
M  V30 10265 C 956.496 -1.76745 -0.663817 0
M  V30 10266 O 955.853 -1.10377 -1.45338 0
M  V30 10267 C 955.904 -3.42723 1.14992 0
M  V30 10268 O 955.625 -3.57139 2.53739 0
M  V30 10269 C 957.126 -4.33952 0.905549 0
M  V30 10270 H 954.346 -0.608022 0.283814 0
M  V30 10271 H 956.89 -1.4897 1.401 0
M  V30 10272 H 955.045 -3.83124 0.57403 0
M  V30 10273 H 955.459 -4.5075 2.68189 0
M  V30 10274 H 956.933 -5.38487 1.21391 0
M  V30 10275 H 957.41 -4.38911 -0.159295 0
M  V30 10276 H 958.016 -3.99263 1.46522 0
M  V30 10277 N 956.331 -0.831506 -1.3388 0
M  V30 10278 C 957.571 -0.429648 -1.99833 0
M  V30 10279 C 957.935 0.990796 -1.6446 0
M  V30 10280 O 959.136 1.49599 -2.23324 0
M  V30 10281 C 957.407 -0.635558 -3.51704 0
M  V30 10282 S 958.966 -0.327824 -4.37574 0
M  V30 10283 H 955.784 -0.161939 -0.692313 0
M  V30 10284 H 958.386 -1.07919 -1.63015 0
M  V30 10285 H 957.09 -1.66887 -3.74936 0
M  V30 10286 H 956.621 0.0284073 -3.9339 0
M  V30 10287 H 958.636 0.855231 -4.88774 0
M  V30 10288 N 957.809 1.4625 -0.587256 0
M  V30 10289 C 959.225 1.57641 -0.249284 0
M  V30 10290 C 959.425 1.58169 1.24839 0
M  V30 10291 O 958.481 1.50109 2.03036 0
M  V30 10292 C 959.794 2.86837 -0.902509 0
M  V30 10293 C 961.342 3.00476 -0.876524 0
M  V30 10294 C 961.817 4.32414 -1.50938 0
M  V30 10295 N 963.308 4.39124 -1.47392 0
M  V30 10296 C 964.043 5.39838 -1.93293 0
M  V30 10297 N 963.539 6.47202 -2.47188 0
M  V30 10298 N 965.332 5.31068 -1.84183 0
M  V30 10299 H 957.483 1.44151 -1.55994 0
M  V30 10300 H 959.746 0.687905 -0.652297 0
M  V30 10301 H 959.452 2.92274 -1.95624 0
M  V30 10302 H 959.326 3.74927 -0.413466 0
M  V30 10303 H 961.713 2.94618 0.168601 0
M  V30 10304 H 961.794 2.1385 -1.40363 0
M  V30 10305 H 961.438 4.3903 -2.55372 0
M  V30 10306 H 961.368 5.17823 -0.957455 0
M  V30 10307 H 963.859 3.62138 -1.08002 0
M  V30 10308 H 964.172 7.20269 -2.80058 0
M  V30 10309 H 962.517 6.48009 -2.51216 0
M  V30 10310 H 965.708 4.46095 -1.41833 0
M  V30 10311 H 965.881 6.09414 -2.2027 0
M  V30 10312 N 959.287 0.325282 1.54207 0
M  V30 10313 C 960.217 -0.532574 2.27345 0
M  V30 10314 C 961.198 -1.11791 1.28206 0
M  V30 10315 O 962.383 -1.14272 1.57021 0
M  V30 10316 C 959.513 -1.69274 3.03255 0
M  V30 10317 C 958.467 -1.23662 4.09746 0
M  V30 10318 C 957.793 -2.48386 4.73506 0
M  V30 10319 C 959.093 -0.350244 5.21124 0
M  V30 10320 H 960.787 0.0775108 2.993 0
M  V30 10321 H 958.333 0.0387193 1.43948 0
M  V30 10322 H 960.286 -2.29917 3.53152 0
M  V30 10323 H 959.01 -2.32944 2.28921 0
M  V30 10324 H 957.669 -0.653106 3.60735 0
M  V30 10325 H 957.317 -3.10424 3.95786 0
M  V30 10326 H 957.017 -2.18558 5.45441 0
M  V30 10327 H 958.541 -3.09789 5.26178 0
M  V30 10328 H 959.955 -0.863011 5.66767 0
M  V30 10329 H 958.352 -0.14466 5.99926 0
M  V30 10330 H 959.422 0.618457 4.8094 0
M  V30 10331 N 960.765 -1.57509 0.0534917 0
M  V30 10332 C 961.993 -1.97098 -0.629298 0
M  V30 10333 C 962.408 -0.931128 -1.64242 0
M  V30 10334 O 961.765 0.0843866 -1.82305 0
M  V30 10335 C 961.816 -3.36767 -1.31415 0
M  V30 10336 O 961.537 -4.36766 -0.341599 0
M  V30 10337 C 963.038 -3.91127 -2.08649 0
M  V30 10338 H 960.258 -0.648611 -0.171886 0
M  V30 10339 H 962.802 -2.04145 0.120479 0
M  V30 10340 H 960.957 -3.30863 -2.01515 0
M  V30 10341 H 961.371 -5.1788 -0.830715 0
M  V30 10342 H 962.845 -4.91129 -2.51985 0
M  V30 10343 H 963.322 -3.26679 -2.9356 0
M  V30 10344 H 963.928 -4.00376 -1.43456 0
M  V30 10345 N 962.243 0.219913 -1.56058 0
M  V30 10346 C 963.173 1.27572 -1.9557 0
M  V30 10347 C 964.154 1.48801 -0.824148 0
M  V30 10348 O 965.339 1.60957 -1.08658 0
M  V30 10349 C 962.469 2.62517 -2.27381 0
M  V30 10350 C 961.423 2.55941 -3.43042 0
M  V30 10351 C 960.749 3.94931 -3.60463 0
M  V30 10352 C 962.049 2.10584 -4.77966 0
M  V30 10353 H 963.743 0.947482 -2.84013 0
M  V30 10354 H 961.289 0.454337 -1.36645 0
M  V30 10355 H 963.242 3.36538 -2.53615 0
M  V30 10356 H 961.966 2.97031 -1.35794 0
M  V30 10357 H 960.625 1.84377 -3.1686 0
M  V30 10358 H 960.273 4.26756 -2.66249 0
M  V30 10359 H 959.973 3.91413 -4.38258 0
M  V30 10360 H 961.497 4.70611 -3.89046 0
M  V30 10361 H 962.911 2.74349 -5.03394 0
M  V30 10362 H 961.308 2.18122 -5.59055 0
M  V30 10363 H 962.378 1.05818 -4.73213 0
M  V30 10364 N 963.721 1.49897 0.486681 0
M  V30 10365 C 965.132 1.53142 1.06792 0
M  V30 10366 C 965.483 0.325856 1.93475 0
M  V30 10367 O 964.608 -0.562893 2.08951 0
M  V30 10368 C 965.203 2.77514 1.94348 0
M  V30 10369 C 963.762 2.83491 2.47609 0
M  V30 10370 C 962.909 2.47239 1.2557 0
M  V30 10371 H 965.86 1.56387 0.269962 0
M  V30 10372 H 965.881 2.58487 2.79221 0
M  V30 10373 H 965.393 3.65239 1.31232 0
M  V30 10374 H 963.494 2.0008 3.14323 0
M  V30 10375 H 963.607 3.86011 2.83782 0
M  V30 10376 H 961.971 1.99332 1.58552 0
M  V30 10377 H 962.754 3.37255 0.641404 0
M  V30 10378 N 965.199 -0.738761 1.39212 0
M  V30 10379 C 966.445 -1.50046 1.36433 0
M  V30 10380 C 966.778 -1.94157 -0.0409474 0
M  V30 10381 O 966.053 -1.66515 -1.00514 0
M  V30 10382 C 966.336 -2.74277 2.33333 0
M  V30 10383 C 966.189 -2.36209 3.82786 0
M  V30 10384 C 967.508 -3.76361 2.28123 0
M  V30 10385 H 964.627 -0.544294 0.496903 0
M  V30 10386 H 967.269 -0.845005 1.70175 0
M  V30 10387 H 965.419 -3.30204 2.04689 0
M  V30 10388 H 967.091 -1.85942 4.22165 0
M  V30 10389 H 965.334 -1.68483 3.99745 0
M  V30 10390 H 966.005 -3.25156 4.46069 0
M  V30 10391 H 968.481 -3.30009 2.53443 0
M  V30 10392 H 967.357 -4.60957 2.9801 0
M  V30 10393 H 967.618 -4.23013 1.28499 0
M  V30 10394 N 966.677 -1.24326 -0.968545 0
M  V30 10395 C 967.926 -1.07647 -1.70572 0
M  V30 10396 C 968.239 0.384821 -1.91777 0
M  V30 10397 O 969.445 0.671782 -2.63058 0
M  V30 10398 C 967.901 -1.87799 -3.07017 0
M  V30 10399 C 967.509 -3.38333 -2.93658 0
M  V30 10400 C 969.253 -1.79647 -3.84613 0
M  V30 10401 C 967.16 -4.10831 -4.25407 0
M  V30 10402 H 966.09 -0.399216 -0.639642 0
M  V30 10403 H 968.741 -1.484 -1.07934 0
M  V30 10404 H 967.123 -1.3986 -3.7048 0
M  V30 10405 H 968.297 -3.93845 -2.39213 0
M  V30 10406 H 966.612 -3.47427 -2.29528 0
M  V30 10407 H 969.209 -2.31116 -4.82172 0
M  V30 10408 H 969.552 -0.761553 -4.09275 0
M  V30 10409 H 970.085 -2.25261 -3.27875 0
M  V30 10410 H 966.824 -5.14679 -4.05939 0
M  V30 10411 H 966.344 -3.60105 -4.79671 0
M  V30 10412 H 968.023 -4.17783 -4.94031 0
M  V30 10413 N 968.156 1.1691 -1.05688 0
M  V30 10414 C 969.103 2.21095 -0.662246 0
M  V30 10415 C 970.073 1.62623 0.338083 0
M  V30 10416 O 971.258 1.89428 0.228362 0
M  V30 10417 C 968.398 3.45066 -0.0484018 0
M  V30 10418 C 967.511 4.17809 -1.09817 0
M  V30 10419 C 966.646 5.29281 -0.451114 0
M  V30 10420 C 965.685 5.93817 -1.48484 0
M  V30 10421 N 964.822 6.96793 -0.861588 0
M  V30 10422 H 969.662 2.54204 -1.55513 0
M  V30 10423 H 967.199 1.24863 -0.777665 0
M  V30 10424 H 969.157 4.15932 0.324978 0
M  V30 10425 H 967.787 3.12526 0.807918 0
M  V30 10426 H 966.839 3.45608 -1.58932 0
M  V30 10427 H 968.151 4.61907 -1.88265 0
M  V30 10428 H 967.305 6.06695 -0.0244251 0
M  V30 10429 H 966.044 4.8633 0.365306 0
M  V30 10430 H 965.049 5.1513 -1.92149 0
M  V30 10431 H 966.274 6.38848 -2.30325 0
M  V30 10432 H 964.22 6.55967 -0.0657688 0
M  V30 10433 H 964.137 7.39229 -1.58354 0
M  V30 10434 H 965.405 7.78142 -0.45984 0
M  V30 10435 N 969.634 0.838594 1.33437 0
M  V30 10436 C 971.045 0.490934 1.8013 0
M  V30 10437 C 971.396 -0.990024 1.6939 0
M  V30 10438 O 970.521 -1.77139 1.24302 0
M  V30 10439 C 971.116 0.884347 3.27055 0
M  V30 10440 C 969.675 0.588829 3.71766 0
M  V30 10441 C 968.822 1.09282 2.54858 0
M  V30 10442 H 971.773 1.02732 1.20962 0
M  V30 10443 H 971.794 0.194283 3.80004 0
M  V30 10444 H 971.306 1.96225 3.34839 0
M  V30 10445 H 969.407 -0.479018 3.69508 0
M  V30 10446 H 969.52 1.14387 4.65245 0
M  V30 10447 H 967.884 0.513702 2.49466 0
M  V30 10448 H 968.667 2.1775 2.65405 0
M  V30 10449 N 971.112 -1.45937 0.595003 0
M  V30 10450 C 972.523 -1.85908 0.171779 0
M  V30 10451 C 972.874 -1.497 -1.26824 0
M  V30 10452 O 971.999 -0.917688 -1.95978 0
M  V30 10453 C 972.594 -3.37425 0.304976 0
M  V30 10454 C 971.153 -3.76346 -0.0634635 0
M  V30 10455 C 970.3 -2.69926 0.635255 0
M  V30 10456 H 973.251 -1.36916 0.802471 0
M  V30 10457 H 973.272 -3.77632 -0.466313 0
M  V30 10458 H 972.784 -3.63747 1.35314 0
M  V30 10459 H 970.885 -3.55642 -1.11129 0
M  V30 10460 H 970.998 -4.78021 0.321419 0
M  V30 10461 H 969.362 -2.54592 0.0742054 0
M  V30 10462 H 970.145 -2.99086 1.68531 0
M  V30 10463 N 972.59 -0.333456 -1.54032 0
M  V30 10464 C 973.52 0.52051 -2.27625 0
M  V30 10465 C 974.501 1.1111 -1.28797 0
M  V30 10466 O 975.686 1.13438 -1.57625 0
M  V30 10467 C 972.816 1.67663 -3.04149 0
M  V30 10468 C 971.77 1.21487 -4.10396 0
M  V30 10469 C 971.096 2.45872 -4.74817 0
M  V30 10470 C 972.396 0.322603 -5.21303 0
M  V30 10471 H 974.09 -0.0933823 -2.99254 0
M  V30 10472 H 971.636 -0.0463526 -1.43925 0
M  V30 10473 H 973.589 2.28041 -3.54366 0
M  V30 10474 H 972.313 2.31727 -2.30153 0
M  V30 10475 H 970.972 0.633966 -3.61077 0
M  V30 10476 H 970.62 3.0832 -3.97426 0
M  V30 10477 H 970.32 2.15662 -5.46593 0
M  V30 10478 H 971.844 3.06994 -5.27814 0
M  V30 10479 H 973.258 0.832942 -5.67217 0
M  V30 10480 H 971.655 0.112843 -5.99994 0
M  V30 10481 H 972.725 -0.643954 -4.80605 0
M  V30 10482 N 974.068 1.57479 -0.061844 0
M  V30 10483 C 975.484 1.56855 0.294753 0
M  V30 10484 C 975.684 1.07042 1.70717 0
M  V30 10485 O 974.74 0.731817 2.41662 0
M  V30 10486 C 976.053 3.00486 0.113484 0
M  V30 10487 C 977.601 3.1246 0.183778 0
M  V30 10488 C 978.076 4.5799 0.0309092 0
M  V30 10489 N 979.567 4.63119 0.0868393 0
M  V30 10490 C 980.302 5.734 -0.00717446 0
M  V30 10491 N 979.798 6.92628 -0.154144 0
M  V30 10492 N 981.591 5.62078 0.0491763 0
M  V30 10493 H 973.742 1.88176 -0.985058 0
M  V30 10494 H 976.005 0.867051 -0.383309 0
M  V30 10495 H 975.711 3.41004 -0.86075 0
M  V30 10496 H 975.585 3.67029 0.870023 0
M  V30 10497 H 977.972 2.71834 1.14849 0
M  V30 10498 H 978.053 2.48574 -0.603697 0
M  V30 10499 H 977.697 4.99303 -0.930526 0
M  V30 10500 H 977.627 5.19895 0.837664 0
M  V30 10501 H 980.118 3.77374 0.199245 0
M  V30 10502 H 980.431 7.72492 -0.218296 0
M  V30 10503 H 978.776 6.94742 -0.189372 0
M  V30 10504 H 981.967 4.67817 0.162626 0
M  V30 10505 H 982.14 6.47994 -0.0275478 0
M  V30 10506 N 975.546 -0.211634 1.56173 0
M  V30 10507 C 976.496 -1.26602 1.8962 0
M  V30 10508 C 977.48 -1.41808 0.760222 0
M  V30 10509 O 978.672 -1.44456 1.02281 0
M  V30 10510 C 975.801 -2.61438 2.22497 0
M  V30 10511 C 974.887 -2.50094 3.42511 0
M  V30 10512 N 975.278 -2.0841 4.60868 0
M  V30 10513 C 973.576 -2.81028 3.46322 0
M  V30 10514 C 974.277 -2.08557 5.43028 0
M  V30 10515 N 973.253 -2.49427 4.82998 0
M  V30 10516 H 977.055 -0.934806 2.78637 0
M  V30 10517 H 974.569 -0.420154 1.56871 0
M  V30 10518 H 976.566 -3.37577 2.44638 0
M  V30 10519 H 975.226 -2.95397 1.34798 0
M  V30 10520 H 976.237 -1.79382 4.85842 0
M  V30 10521 H 972.914 -3.19294 2.68994 0
M  V30 10522 H 974.304 -1.7837 6.47791 0
M  V30 10523 N 977.024 -1.50153 -0.478725 0
M  V30 10524 C 978.271 -1.6076 -1.23136 0
M  V30 10525 C 978.599 -0.30442 -1.92103 0
M  V30 10526 O 977.854 0.709213 -1.82397 0
M  V30 10527 C 978.153 -2.73208 -2.30417 0
M  V30 10528 C 977.819 -4.13953 -1.78755 0
M  V30 10529 C 976.481 -4.52251 -1.64386 0
M  V30 10530 C 978.833 -5.01949 -1.40344 0
M  V30 10531 C 976.161 -5.76292 -1.10018 0
M  V30 10532 C 978.513 -6.2653 -0.874206 0
M  V30 10533 C 977.177 -6.63637 -0.717085 0
M  V30 10534 H 976.447 -0.588264 -0.450585 0
M  V30 10535 H 979.094 -1.84061 -0.528551 0
M  V30 10536 H 977.399 -2.43965 -3.06575 0
M  V30 10537 H 979.096 -2.7862 -2.88395 0
M  V30 10538 H 975.686 -3.83736 -1.90904 0
M  V30 10539 H 979.87 -4.73 -1.50283 0
M  V30 10540 H 975.126 -6.03723 -0.965838 0
M  V30 10541 H 979.3 -6.94081 -0.567883 0
M  V30 10542 H 976.927 -7.59633 -0.293639 0
M  V30 10543 N 978.502 0.731368 -1.39602 0
M  V30 10544 C 979.449 1.84541 -1.38612 0
M  V30 10545 C 980.419 1.64279 -0.245287 0
M  V30 10546 O 981.604 1.85635 -0.440954 0
M  V30 10547 C 978.744 3.22092 -1.23897 0
M  V30 10548 C 977.857 3.54034 -2.47555 0
M  V30 10549 C 976.992 4.81007 -2.25402 0
M  V30 10550 C 976.031 5.05804 -3.44716 0
M  V30 10551 N 975.168 6.23981 -3.21857 0
M  V30 10552 H 980.008 1.84722 -2.33841 0
M  V30 10553 H 977.545 0.902569 -1.16156 0
M  V30 10554 H 979.503 4.01499 -1.13376 0
M  V30 10555 H 978.133 3.2118 -0.322958 0
M  V30 10556 H 977.185 2.69301 -2.68665 0
M  V30 10557 H 978.497 3.68275 -3.36415 0
M  V30 10558 H 977.651 5.68401 -2.12143 0
M  V30 10559 H 976.39 4.68946 -1.33943 0
M  V30 10560 H 975.395 4.1687 -3.58468 0
M  V30 10561 H 976.62 5.19747 -4.37081 0
M  V30 10562 H 974.566 6.13202 -2.33065 0
M  V30 10563 H 974.483 6.38826 -4.04274 0
M  V30 10564 H 975.751 7.14205 -3.123 0
M  V30 10565 N 979.98 1.24838 0.961938 0
M  V30 10566 C 981.396 1.01502 1.23165 0
M  V30 10567 C 981.596 -0.272651 1.99647 0
M  V30 10568 O 980.652 -0.987297 2.32398 0
M  V30 10569 C 981.965 2.23366 2.01316 0
M  V30 10570 C 983.513 2.28051 2.14387 0
M  V30 10571 C 983.988 3.49552 2.95935 0
M  V30 10572 N 985.479 3.49904 3.03515 0
M  V30 10573 C 986.214 4.40577 3.66987 0
M  V30 10574 N 985.71 5.41512 4.3213 0
M  V30 10575 N 987.503 4.28275 3.64056 0
M  V30 10576 H 979.654 2.07576 0.450086 0
M  V30 10577 H 981.917 0.911205 0.261551 0
M  V30 10578 H 981.623 3.16913 1.5251 0
M  V30 10579 H 981.497 2.25949 3.02038 0
M  V30 10580 H 983.884 1.35032 2.62393 0
M  V30 10581 H 983.965 2.29491 1.12994 0
M  V30 10582 H 983.609 4.42889 2.4862 0
M  V30 10583 H 983.539 3.45357 3.97538 0
M  V30 10584 H 986.03 2.76885 2.57183 0
M  V30 10585 H 986.343 6.06924 4.78396 0
M  V30 10586 H 984.688 5.45393 4.3078 0
M  V30 10587 H 987.879 3.48653 3.12344 0
M  V30 10588 H 988.052 4.99138 4.13237 0
M  V30 10589 N 981.458 -1.16348 1.06306 0
M  V30 10590 C 982.869 -1.68491 0.80422 0
M  V30 10591 C 983.22 -1.84327 -0.672159 0
M  V30 10592 O 982.345 -1.53892 -1.52139 0
M  V30 10593 C 982.94 -3.06048 1.45328 0
M  V30 10594 C 981.499 -3.55311 1.24221 0
M  V30 10595 C 980.646 -2.31291 1.5297 0
M  V30 10596 H 983.597 -1.00708 1.22652 0
M  V30 10597 H 983.618 -3.70451 0.868674 0
M  V30 10598 H 983.13 -2.9449 2.52779 0
M  V30 10599 H 981.231 -3.72128 0.187447 0
M  V30 10600 H 981.344 -4.37397 1.95502 0
M  V30 10601 H 979.708 -2.3631 0.950241 0
M  V30 10602 H 980.491 -2.22331 2.6158 0
M  V30 10603 N 982.937 -0.845659 -1.3299 0
M  V30 10604 C 983.9 -0.288905 -2.27372 0
M  V30 10605 C 984.9 0.546263 -1.51237 0
M  V30 10606 O 986.09 0.359072 -1.70459 0
M  V30 10607 C 983.222 0.59224 -3.35716 0
M  V30 10608 H 984.415 -1.12181 -2.78128 0
M  V30 10609 H 981.968 -0.619276 -1.43508 0
M  V30 10610 H 982.703 1.44732 -2.90212 0
M  V30 10611 H 982.488 -0.00543255 -3.921 0
M  V30 10612 H 983.978 0.974848 -4.06062 0
M  V30 10613 N 984.415 1.45619 -0.602734 0
M  V30 10614 C 985.645 2.06348 -0.102105 0
M  V30 10615 C 986.053 1.44884 1.21677 0
M  V30 10616 O 985.396 0.555559 1.75098 0
M  V30 10617 C 985.458 3.59309 0.117026 0
M  V30 10618 C 985.122 4.43081 -1.11931 0
M  V30 10619 C 986.119 4.78364 -2.03627 0
M  V30 10620 C 983.804 4.83908 -1.34677 0
M  V30 10621 C 985.798 5.53325 -3.16403 0
M  V30 10622 C 983.485 5.58624 -2.47754 0
M  V30 10623 C 984.483 5.93249 -3.38445 0
M  V30 10624 O 984.171 6.6645 -4.49555 0
M  V30 10625 H 983.903 0.672988 -0.0637478 0
M  V30 10626 H 986.457 1.87928 -0.828983 0
M  V30 10627 H 984.687 3.76111 0.898742 0
M  V30 10628 H 986.376 4.01897 0.568649 0
M  V30 10629 H 987.142 4.47384 -1.87277 0
M  V30 10630 H 983.021 4.56396 -0.649875 0
M  V30 10631 H 986.565 5.80268 -3.87214 0
M  V30 10632 H 982.462 5.89019 -2.64059 0
M  V30 10633 H 983.23 6.84895 -4.48175 0
M  V30 10634 N 985.893 0.34162 1.53853 0
M  V30 10635 C 986.856 -0.503541 2.236 0
M  V30 10636 C 987.856 -1.02912 1.23554 0
M  V30 10637 O 989.046 -0.918678 1.48007 0
M  V30 10638 C 986.178 -1.70126 2.95415 0
M  V30 10639 H 987.371 0.106437 2.99711 0
M  V30 10640 H 984.924 0.0929408 1.56023 0
M  V30 10641 H 985.659 -2.34999 2.23486 0
M  V30 10642 H 985.444 -1.33161 3.68796 0
M  V30 10643 H 986.934 -2.30077 3.48503 0
M  V30 10644 N 987.371 -1.57444 0.0701946 0
M  V30 10645 C 988.596 -1.98171 -0.61181 0
M  V30 10646 C 989.021 -0.94823 -1.62451 0
M  V30 10647 O 988.379 0.0863553 -1.81094 0
M  V30 10648 C 988.427 -3.37934 -1.2583 0
M  V30 10649 O 987.531 -3.37207 -2.37414 0
M  V30 10650 H 986.872 -0.645056 -0.157477 0
M  V30 10651 H 989.402 -2.04091 0.144235 0
M  V30 10652 H 989.412 -3.75083 -1.60552 0
M  V30 10653 H 988.087 -4.12684 -0.516234 0
M  V30 10654 H 986.664 -3.11826 -2.04497 0
M  V30 10655 N 988.849 0.203349 -1.56283 0
M  V30 10656 C 990.074 0.945548 -1.84592 0
M  V30 10657 C 990.499 1.7641 -0.652772 0
M  V30 10658 O 989.857 1.76867 0.398468 0
M  V30 10659 C 989.905 1.82416 -3.11057 0
M  V30 10660 O 989.009 2.92191 -2.9103 0
M  V30 10661 H 988.35 0.266739 -0.608068 0
M  V30 10662 H 990.88 0.211158 -2.03507 0
M  V30 10663 H 990.89 2.23044 -3.41636 0
M  V30 10664 H 989.565 1.22267 -3.97522 0
M  V30 10665 H 988.142 2.55378 -2.71728 0
M  V30 10666 N 990.327 1.50405 0.470755 0
M  V30 10667 C 991.552 1.65442 1.25075 0
M  V30 10668 C 991.977 0.337612 1.85045 0
M  V30 10669 O 991.335 -0.698555 1.67302 0
M  V30 10670 C 991.383 2.74793 2.33498 0
M  V30 10671 O 990.487 2.36069 3.3815 0
M  V30 10672 H 989.828 0.552728 0.367951 0
M  V30 10673 H 992.358 1.96782 0.560177 0
M  V30 10674 H 992.368 2.97879 2.78804 0
M  V30 10675 H 991.043 3.70363 1.8922 0
M  V30 10676 H 989.62 2.2343 2.98552 0
M  V30 10677 N 991.805 -0.723954 1.39988 0
M  V30 10678 C 993.035 -1.51094 1.40905 0
M  V30 10679 C 993.443 -1.89199 0.00476744 0
M  V30 10680 O 992.786 -1.55398 -0.979646 0
M  V30 10681 C 992.848 -2.82114 2.22827 0
M  V30 10682 C 992.512 -2.66379 3.71337 0
M  V30 10683 C 993.509 -2.34192 4.64166 0
M  V30 10684 C 991.194 -2.82905 4.15054 0
M  V30 10685 C 993.188 -2.18729 5.98696 0
M  V30 10686 C 990.875 -2.67059 5.49657 0
M  V30 10687 C 991.873 -2.35018 6.41292 0
M  V30 10688 O 991.561 -2.19284 7.73414 0
M  V30 10689 H 991.293 -0.473142 0.482818 0
M  V30 10690 H 993.847 -0.901321 1.84568 0
M  V30 10691 H 992.077 -3.45377 1.7393 0
M  V30 10692 H 993.766 -3.43789 2.15787 0
M  V30 10693 H 994.532 -2.21065 4.31689 0
M  V30 10694 H 990.411 -3.06834 3.44055 0
M  V30 10695 H 993.955 -1.93641 6.70186 0
M  V30 10696 H 989.852 -2.79768 5.81722 0
M  V30 10697 H 990.62 -2.34269 7.84258 0
M  V30 10698 N 993.283 -1.25346 -0.955304 0
M  V30 10699 C 994.246 -1.05754 -2.03344 0
M  V30 10700 C 995.246 -0.0105743 -1.60797 0
M  V30 10701 O 996.436 -0.252699 -1.72357 0
M  V30 10702 C 993.568 -0.605536 -3.35479 0
M  V30 10703 H 994.761 -2.01459 -2.22158 0
M  V30 10704 H 992.314 -1.07744 -1.1323 0
M  V30 10705 H 993.049 0.354154 -3.2236 0
M  V30 10706 H 992.834 -1.36134 -3.67709 0
M  V30 10707 H 994.324 -0.489867 -4.14717 0
M  V30 10708 N 994.761 1.15782 -1.06922 0
M  V30 10709 C 996.172 1.68062 -0.813144 0
M  V30 10710 C 996.523 1.84681 0.662374 0
M  V30 10711 O 995.648 1.54696 1.51321 0
M  V30 10712 C 996.243 3.05273 -1.46949 0
M  V30 10713 C 994.802 3.54647 -1.26104 0
M  V30 10714 C 993.949 2.30477 -1.54194 0
M  V30 10715 H 996.9 1.00056 -1.23185 0
M  V30 10716 H 996.921 3.69986 -0.888308 0
M  V30 10717 H 996.433 2.93145 -2.54337 0
M  V30 10718 H 994.534 3.72024 -0.20718 0
M  V30 10719 H 994.647 4.36354 -1.97819 0
M  V30 10720 H 993.011 2.35803 -0.96276 0
M  V30 10721 H 993.794 2.2094 -2.62755 0
M  V30 10722 N 996.239 0.8527 1.3254 0
M  V30 10723 C 997.464 0.468157 2.02047 0
M  V30 10724 C 997.889 -0.926967 1.63673 0
M  V30 10725 O 997.247 -1.60855 0.836378 0
M  V30 10726 C 997.295 0.612519 3.5536 0
M  V30 10727 O 996.399 -0.355506 4.10865 0
M  V30 10728 H 995.74 0.188401 0.636711 0
M  V30 10729 H 998.27 1.15135 1.6913 0
M  V30 10730 H 998.28 0.499315 4.04933 0
M  V30 10731 H 996.955 1.62988 3.82632 0
M  V30 10732 H 995.532 -0.198703 3.7237 0
M  V30 10733 N 997.718 -1.45297 0.610449 0
M  V30 10734 C 998.964 -2.02518 0.106917 0
M  V30 10735 C 999.297 -1.47747 -1.26034 0
M  V30 10736 O 998.572 -0.65329 -1.832 0
M  V30 10737 C 998.855 -3.6003 0.0710975 0
M  V30 10738 C 998.708 -4.25128 1.46922 0
M  V30 10739 C 1000.03 -4.35778 -0.61524 0
M  V30 10740 H 997.146 -0.735896 0.040327 0
M  V30 10741 H 999.788 -1.73117 0.782968 0
M  V30 10742 H 997.938 -3.85209 -0.504611 0
M  V30 10743 H 999.61 -4.11125 2.09223 0
M  V30 10744 H 997.853 -3.83418 2.02911 0
M  V30 10745 H 998.524 -5.34046 1.39637 0
M  V30 10746 H 1001 -4.1591 -0.125871 0
M  V30 10747 H 999.876 -5.45506 -0.609419 0
M  V30 10748 H 1000.14 -4.08859 -1.68186 0
M  V30 10749 N 999.196 -0.349774 -1.5367 0
M  V30 10750 C 1000.42 0.248692 -2.05904 0
M  V30 10751 C 1000.85 1.42942 -1.22267 0
M  V30 10752 O 1000.2 1.79732 -0.237899 0
M  V30 10753 C 1000.25 0.635639 -3.54953 0
M  V30 10754 O 999.356 1.7349 -3.74132 0
M  V30 10755 H 998.697 0.0399477 -0.662797 0
M  V30 10756 H 1001.23 -0.505795 -1.9825 0
M  V30 10757 H 1001.24 0.911064 -3.97698 0
M  V30 10758 H 999.912 -0.227805 -4.15276 0
M  V30 10759 H 998.489 1.45626 -3.43289 0
M  V30 10760 N 1000.67 1.57404 -0.0785433 0
M  V30 10761 C 1001.62 2.13104 0.88631 0
M  V30 10762 C 1002.59 1.04527 1.29086 0
M  V30 10763 O 1003.78 1.32226 1.37553 0
M  V30 10764 C 1000.92 2.70252 2.14611 0
M  V30 10765 C 1000.03 3.93007 1.79358 0
M  V30 10766 C 999.164 4.38376 3 0
M  V30 10767 C 998.203 5.53761 2.60796 0
M  V30 10768 N 997.34 5.94058 3.74219 0
M  V30 10769 H 1002.18 2.95243 0.404452 0
M  V30 10770 H 999.717 1.45894 0.187982 0
M  V30 10771 H 1001.67 3.01497 2.88367 0
M  V30 10772 H 1000.3 1.90868 2.60326 0
M  V30 10773 H 999.357 3.68181 0.956384 0
M  V30 10774 H 1000.67 4.76795 1.4652 0
M  V30 10775 H 999.823 4.71317 3.82027 0
M  V30 10776 H 998.562 3.53455 3.36037 0
M  V30 10777 H 997.567 5.20464 1.77192 0
M  V30 10778 H 998.792 6.40419 2.25922 0
M  V30 10779 H 996.738 5.12085 4.10005 0
M  V30 10780 H 996.655 6.72602 3.45171 0
M  V30 10781 H 997.923 6.31624 4.56805 0
M  V30 10782 N 1002.15 -0.195058 1.56388 0
M  V30 10783 C 1003.1 -1.24175 1.94549 0
M  V30 10784 C 1004.07 -1.45229 0.806089 0
M  V30 10785 O 1005.25 -1.58362 1.06425 0
M  V30 10786 C 1002.39 -2.58145 2.29031 0
M  V30 10787 C 1001.51 -2.44669 3.56035 0
M  V30 10788 C 1000.64 -3.71342 3.7984 0
M  V30 10789 C 999.681 -3.52699 5.0027 0
M  V30 10790 N 998.818 -4.71385 5.20328 0
M  V30 10791 H 1003.66 -0.909319 2.83788 0
M  V30 10792 H 1001.19 -0.437641 1.40439 0
M  V30 10793 H 1003.15 -3.36195 2.4704 0
M  V30 10794 H 1001.78 -2.8943 1.42933 0
M  V30 10795 H 1000.83 -1.57916 3.46073 0
M  V30 10796 H 1002.15 -2.26827 4.44242 0
M  V30 10797 H 1001.3 -4.57832 3.98088 0
M  V30 10798 H 1000.04 -3.92138 2.89964 0
M  V30 10799 H 999.045 -2.64594 4.81944 0
M  V30 10800 H 1000.27 -3.33349 5.91655 0
M  V30 10801 H 998.216 -4.92444 4.33399 0
M  V30 10802 H 998.133 -4.56368 6.02714 0
M  V30 10803 H 999.401 -5.59226 5.43035 0
M  V30 10804 N 1003.63 -1.50653 -0.462772 0
M  V30 10805 C 1004.86 -1.65826 -1.23731 0
M  V30 10806 C 1005.27 -0.345002 -1.85621 0
M  V30 10807 O 1004.63 0.673935 -1.69601 0
M  V30 10808 C 1004.68 -2.7555 -2.33997 0
M  V30 10809 O 1004.4 -4.01785 -1.74643 0
M  V30 10810 C 1005.9 -3.0177 -3.2473 0
M  V30 10811 H 1003.12 -0.557177 -0.373892 0
M  V30 10812 H 1005.67 -1.96925 -0.551434 0
M  V30 10813 H 1003.82 -2.47122 -2.98345 0
M  V30 10814 H 1004.24 -4.62529 -2.4732 0
M  V30 10815 H 1005.71 -3.82188 -3.98292 0
M  V30 10816 H 1006.19 -2.13167 -3.84001 0
M  V30 10817 H 1006.79 -3.31761 -2.66111 0
M  V30 10818 N 1005.11 0.71652 -1.4037 0
M  V30 10819 C 1006.39 1.46947 -1.29097 0
M  V30 10820 C 1006.77 2.10903 0.0911182 0
M  V30 10821 O 1006.11 2.00068 1.10385 0
M  V30 10822 C 1006.32 2.50594 -2.42907 0
M  V30 10823 C 1007.67 3.16451 -2.83097 0
M  V30 10824 O 1008.7 2.60913 -2.42493 0
M  V30 10825 O 1007.55 4.16991 -3.53244 0
M  V30 10826 H 1004.65 0.653413 -0.506932 0
M  V30 10827 H 1007.19 0.748774 -1.52287 0
M  V30 10828 H 1005.97 2.01843 -3.35224 0
M  V30 10829 H 1005.59 3.302 -2.21481 0
M  V30 10830 N 1006.59 1.25851 0.948643 0
M  V30 10831 C 1007.5 1.08516 2.07994 0
M  V30 10832 C 1008.51 0.0206696 1.73988 0
M  V30 10833 O 1009.69 0.222854 2.00163 0
M  V30 10834 C 1006.75 0.712145 3.39307 0
M  V30 10835 C 1005.81 1.85523 3.87143 0
M  V30 10836 C 1005.05 1.49992 5.1219 0
M  V30 10837 O 1005.27 0.398268 5.69008 0
M  V30 10838 O 1004.2 2.33215 5.54882 0
M  V30 10839 H 1008.03 2.03405 2.25522 0
M  V30 10840 H 1005.62 1.04844 1.06433 0
M  V30 10841 H 1007.5 0.516512 4.18223 0
M  V30 10842 H 1006.17 -0.207416 3.23035 0
M  V30 10843 H 1005.08 2.10578 3.09205 0
M  V30 10844 H 1006.41 2.75425 4.07924 0
M  V30 10845 N 1008.06 -1.15214 1.07534 0
M  V30 10846 C 1009.01 -2.18022 0.667108 0
M  V30 10847 C 1010 -1.57911 -0.308714 0
M  V30 10848 O 1011.19 -1.76578 -0.122147 0
M  V30 10849 C 1008.32 -3.43232 0.0684348 0
M  V30 10850 C 1007.41 -4.10393 1.06951 0
M  V30 10851 N 1007.8 -4.53013 2.24973 0
M  V30 10852 C 1006.09 -4.36758 0.903262 0
M  V30 10853 C 1006.8 -5.05118 2.88498 0
M  V30 10854 N 1005.77 -4.98777 2.16153 0
M  V30 10855 H 1009.57 -2.48706 1.56597 0
M  V30 10856 H 1007.09 -1.31801 0.948796 0
M  V30 10857 H 1009.08 -4.16197 -0.241934 0
M  V30 10858 H 1007.74 -3.14031 -0.825525 0
M  V30 10859 H 1008.76 -4.4634 2.6268 0
M  V30 10860 H 1005.43 -4.17453 0.0623543 0
M  V30 10861 H 1006.82 -5.48039 3.8872 0
M  V30 10862 N 1009.54 -0.859717 -1.32086 0
M  V30 10863 C 1010.95 -0.519529 -1.79326 0
M  V30 10864 C 1011.3 0.96295 -1.70944 0
M  V30 10865 O 1010.43 1.75139 -1.27104 0
M  V30 10866 C 1011.02 -0.936267 -3.25606 0
M  V30 10867 C 1009.58 -0.647899 -3.70782 0
M  V30 10868 C 1008.73 -1.13323 -2.53087 0
M  V30 10869 H 1011.68 -1.04643 -1.19312 0
M  V30 10870 H 1011.7 -0.254714 -3.79646 0
M  V30 10871 H 1011.21 -2.01527 -3.31675 0
M  V30 10872 H 1009.32 0.420172 -3.70223 0
M  V30 10873 H 1009.43 -1.21774 -4.63366 0
M  V30 10874 H 1007.79 -0.553325 -2.48617 0
M  V30 10875 H 1008.58 -2.21945 -2.61907 0
M  V30 10876 N 1011.02 1.44971 -0.618145 0
M  V30 10877 C 1011.98 2.29044 0.0846739 0
M  V30 10878 C 1012.98 1.40341 0.784921 0
M  V30 10879 O 1014.17 1.62351 0.631479 0
M  V30 10880 C 1011.31 3.21617 1.13027 0
M  V30 10881 H 1012.5 2.92668 -0.654612 0
M  V30 10882 H 1010.05 1.51668 -0.377672 0
M  V30 10883 H 1010.79 2.62815 1.89997 0
M  V30 10884 H 1010.57 3.86969 0.63224 0
M  V30 10885 H 1012.06 3.84805 1.62218 0
M  V30 10886 N 1012.5 0.357919 1.53482 0
M  V30 10887 C 1013.91 0.00655107 1.59599 0
M  V30 10888 C 1014.11 -1.47449 1.37336 0
M  V30 10889 O 1013.17 -2.2351 1.17472 0
M  V30 10890 C 1014.48 0.455617 2.97228 0
M  V30 10891 C 1016.03 0.409183 3.10314 0
M  V30 10892 C 1016.51 0.833941 4.50344 0
M  V30 10893 N 1018 0.788695 4.56436 0
M  V30 10894 C 1018.73 1.08914 5.62961 0
M  V30 10895 N 1018.23 1.45847 6.77274 0
M  V30 10896 N 1020.02 1.01243 5.52907 0
M  V30 10897 H 1012.17 1.32248 1.66206 0
M  V30 10898 H 1014.44 0.540047 0.779136 0
M  V30 10899 H 1014.14 1.48881 3.18634 0
M  V30 10900 H 1014.02 -0.161751 3.76853 0
M  V30 10901 H 1016.4 -0.614863 2.88623 0
M  V30 10902 H 1016.48 1.06195 2.32715 0
M  V30 10903 H 1016.13 1.85607 4.72771 0
M  V30 10904 H 1016.06 0.158507 5.26361 0
M  V30 10905 H 1018.55 0.516497 3.74354 0
M  V30 10906 H 1018.86 1.67218 7.54492 0
M  V30 10907 H 1017.21 1.49705 6.78685 0
M  V30 10908 H 1020.4 0.723137 4.62481 0
M  V30 10909 H 1020.57 1.24991 6.35831 0
M  V30 10910 N 1013.98 -1.5736 0.0868897 0
M  V30 10911 C 1015.21 -1.981 -0.586498 0
M  V30 10912 C 1015.61 -0.96455 -1.62767 0
M  V30 10913 O 1014.96 0.0551801 -1.83617 0
M  V30 10914 C 1015.02 -3.35193 -1.29947 0
M  V30 10915 C 1014.68 -4.55157 -0.410012 0
M  V30 10916 C 1015.68 -5.18797 0.338532 0
M  V30 10917 C 1013.37 -5.01212 -0.33047 0
M  V30 10918 C 1015.36 -6.26854 1.15468 0
M  V30 10919 C 1013.05 -6.09138 0.48934 0
M  V30 10920 C 1014.04 -6.71823 1.23057 0
M  V30 10921 O 1013.73 -7.77669 2.03683 0
M  V30 10922 H 1013.46 -0.656166 -0.16255 0
M  V30 10923 H 1016.02 -2.04773 0.160379 0
M  V30 10924 H 1014.25 -3.25179 -2.09274 0
M  V30 10925 H 1015.94 -3.60435 -1.86658 0
M  V30 10926 H 1016.7 -4.84151 0.286764 0
M  V30 10927 H 1012.58 -4.52188 -0.897058 0
M  V30 10928 H 1016.13 -6.75712 1.73374 0
M  V30 10929 H 1012.02 -6.43215 0.542618 0
M  V30 10930 H 1012.79 -7.94618 1.96277 0
M  V30 10931 N 1015.45 0.186762 -1.56489 0
M  V30 10932 C 1016.4 1.23141 -1.95205 0
M  V30 10933 C 1017.37 1.44799 -0.81378 0
M  V30 10934 O 1018.56 1.57795 -1.07263 0
M  V30 10935 C 1015.7 2.56926 -2.30397 0
M  V30 10936 C 1014.81 2.42777 -3.57328 0
M  V30 10937 C 1013.94 3.69323 -3.81804 0
M  V30 10938 C 1012.98 3.50041 -5.02133 0
M  V30 10939 N 1012.12 4.68619 -5.2282 0
M  V30 10940 H 1016.96 0.894256 -2.84266 0
M  V30 10941 H 1014.5 0.430187 -1.40669 0
M  V30 10942 H 1016.46 3.3488 -2.4882 0
M  V30 10943 H 1015.09 2.88668 -1.44466 0
M  V30 10944 H 1014.14 1.56078 -3.46906 0
M  V30 10945 H 1015.45 2.24468 -4.45439 0
M  V30 10946 H 1014.6 4.55715 -4.00511 0
M  V30 10947 H 1013.34 3.90595 -2.92039 0
M  V30 10948 H 1012.35 2.62034 -4.8334 0
M  V30 10949 H 1013.57 3.30206 -5.93414 0
M  V30 10950 H 1011.52 4.90139 -4.36005 0
M  V30 10951 H 1011.44 4.53165 -6.05126 0
M  V30 10952 H 1012.7 5.56338 -5.45993 0
M  V30 10953 N 1016.93 1.50896 0.454776 0
M  V30 10954 C 1017.87 1.65608 1.57001 0
M  V30 10955 C 1018.84 0.50387 1.54596 0
M  V30 10956 O 1020.03 0.725485 1.7398 0
M  V30 10957 C 1017.15 1.65366 2.95587 0
M  V30 10958 C 1016.2 2.86344 3.16085 0
M  V30 10959 S 1017.03 4.47418 2.9424 0
M  V30 10960 C 1018.19 4.49895 4.35138 0
M  V30 10961 H 1018.42 2.59941 1.44285 0
M  V30 10962 H 1015.96 1.40362 0.643264 0
M  V30 10963 H 1017.91 1.65911 3.75478 0
M  V30 10964 H 1016.57 0.722407 3.0568 0
M  V30 10965 H 1015.77 2.82526 4.17367 0
M  V30 10966 H 1015.37 2.8345 2.43992 0
M  V30 10967 H 1017.66 4.24462 5.28051 0
M  V30 10968 H 1018.6 5.5161 4.43995 0
M  V30 10969 H 1019.01 3.79412 4.17979 0
M  V30 10970 N 1018.41 -0.709066 1.40748 0
M  V30 10971 C 1019.34 -1.83583 1.4429 0
M  V30 10972 C 1020.32 -1.67378 0.303067 0
M  V30 10973 O 1021.51 -1.87312 0.512612 0
M  V30 10974 C 1018.64 -3.21599 1.31116 0
M  V30 10975 C 1017.59 -3.52486 2.4277 0
M  V30 10976 C 1016.92 -4.89716 2.14668 0
M  V30 10977 C 1018.22 -3.52824 3.85113 0
M  V30 10978 H 1019.91 -1.80876 2.38588 0
M  V30 10979 H 1017.46 -0.868795 1.14839 0
M  V30 10980 H 1019.41 -4.00123 1.32209 0
M  V30 10981 H 1018.13 -3.24898 0.332965 0
M  V30 10982 H 1016.79 -2.76305 2.40937 0
M  V30 10983 H 1016.44 -4.89625 1.15224 0
M  V30 10984 H 1016.14 -5.11347 2.89478 0
M  V30 10985 H 1017.66 -5.70566 2.17455 0
M  V30 10986 H 1019.08 -4.21377 3.88734 0
M  V30 10987 H 1017.48 -3.85984 4.59496 0
M  V30 10988 H 1018.55 -2.52073 4.14231 0
M  V30 10989 N 1019.89 -1.26353 -0.941956 0
M  V30 10990 C 1021.17 -1.02601 -1.6653 0
M  V30 10991 C 1021.55 0.44381 -2.06382 0
M  V30 10992 O 1020.89 1.42399 -1.78703 0
M  V30 10993 C 1021.1 -1.97401 -2.87809 0
M  V30 10994 C 1022.45 -2.25967 -3.59478 0
M  V30 10995 O 1023.48 -1.95261 -2.97912 0
M  V30 10996 O 1022.34 -2.78244 -4.70364 0
M  V30 10997 H 1019.43 -0.39007 -0.729228 0
M  V30 10998 H 1021.98 -1.37559 -0.993754 0
M  V30 10999 H 1020.75 -2.9659 -2.55245 0
M  V30 11000 H 1020.37 -1.62918 -3.62689 0
M  V30 11001 N 1021.37 1.14642 -1.08144 0
M  V30 11002 C 1022.3 2.19283 -0.6669 0
M  V30 11003 C 1023.31 1.60292 0.284668 0
M  V30 11004 O 1024.5 1.78352 0.0727383 0
M  V30 11005 C 1021.6 3.38877 0.0398572 0
M  V30 11006 C 1020.77 4.274 -0.929929 0
M  V30 11007 C 1019.83 5.25562 -0.258991 0
M  V30 11008 O 1018.86 5.61999 -0.902563 0
M  V30 11009 N 1020.06 5.71958 0.992177 0
M  V30 11010 H 1022.83 2.55464 -1.5671 0
M  V30 11011 H 1020.39 1.29836 -0.96717 0
M  V30 11012 H 1022.38 4.01605 0.499583 0
M  V30 11013 H 1020.95 3.01043 0.842118 0
M  V30 11014 H 1020.17 3.61649 -1.56857 0
M  V30 11015 H 1021.46 4.83411 -1.58717 0
M  V30 11016 H 1020.86 5.44481 1.53484 0
M  V30 11017 H 1019.41 6.36687 1.39544 0
M  V30 11018 N 1022.85 0.866709 1.31628 0
M  V30 11019 C 1024.26 0.558188 1.49521 0
M  V30 11020 C 1024.46 -0.90844 1.7986 0
M  V30 11021 O 1023.52 -1.6908 1.87531 0
M  V30 11022 C 1024.83 1.45559 2.63122 0
M  V30 11023 C 1026.38 1.45728 2.77006 0
M  V30 11024 C 1026.85 2.34017 3.937 0
M  V30 11025 N 1028.34 2.31879 4.00982 0
M  V30 11026 C 1029.08 2.96915 4.90539 0
M  V30 11027 N 1028.58 3.71109 5.85021 0
M  V30 11028 N 1030.37 2.86241 4.83759 0
M  V30 11029 H 1022.52 1.81574 1.10203 0
M  V30 11030 H 1024.78 0.77621 0.544244 0
M  V30 11031 H 1024.49 2.49904 2.47469 0
M  V30 11032 H 1024.36 1.15174 3.59186 0
M  V30 11033 H 1026.75 0.421419 2.92075 0
M  V30 11034 H 1026.83 1.80134 1.81619 0
M  V30 11035 H 1026.47 3.37678 3.79389 0
M  V30 11036 H 1026.4 1.96937 4.88388 0
M  V30 11037 H 1028.9 1.77948 3.33381 0
M  V30 11038 H 1029.21 4.1787 6.5008 0
M  V30 11039 H 1027.55 3.75217 5.8501 0
M  V30 11040 H 1030.74 2.27819 4.08921 0
M  V30 11041 H 1030.92 3.37206 5.5335 0
M  V30 11042 N 1024.32 -1.44642 0.625825 0
M  V30 11043 C 1025.57 -2.01308 0.125682 0
M  V30 11044 C 1025.89 -1.49773 -1.25807 0
M  V30 11045 O 1027.09 -1.98533 -1.85194 0
M  V30 11046 C 1025.55 -3.59479 0.17395 0
M  V30 11047 C 1025.16 -4.20011 1.55868 0
M  V30 11048 C 1026.9 -4.2364 -0.270005 0
M  V30 11049 C 1024.81 -5.7039 1.56235 0
M  V30 11050 H 1023.74 -0.75276 0.0432194 0
M  V30 11051 H 1026.39 -1.65916 0.783842 0
M  V30 11052 H 1024.77 -3.92145 -0.551212 0
M  V30 11053 H 1025.94 -3.98891 2.307 0
M  V30 11054 H 1024.26 -3.68116 1.94627 0
M  V30 11055 H 1026.86 -5.33931 -0.28672 0
M  V30 11056 H 1027.2 -3.95603 -1.29629 0
M  V30 11057 H 1027.73 -3.95759 0.402487 0
M  V30 11058 H 1024.47 -6.03154 2.56683 0
M  V30 11059 H 1023.99 -5.93648 0.856881 0
M  V30 11060 H 1025.67 -6.33929 1.29396 0
M  V30 11061 N 1025.8 -0.366053 -1.5329 0
M  V30 11062 C 1026.75 0.480205 -2.25749 0
M  V30 11063 C 1027.72 1.07713 -1.2644 0
M  V30 11064 O 1028.9 1.10953 -1.55222 0
M  V30 11065 C 1026.04 1.61374 -3.05045 0
M  V30 11066 C 1025.16 1.04194 -4.19246 0
M  V30 11067 C 1024.29 2.14462 -4.85983 0
M  V30 11068 C 1023.33 1.5475 -5.92215 0
M  V30 11069 N 1022.47 2.58852 -6.52641 0
M  V30 11070 H 1027.31 -0.144199 -2.97651 0
M  V30 11071 H 1024.84 -0.0829321 -1.46866 0
M  V30 11072 H 1026.8 2.28144 -3.49294 0
M  V30 11073 H 1025.43 2.2088 -2.35397 0
M  V30 11074 H 1024.48 0.264514 -3.79479 0
M  V30 11075 H 1025.8 0.565379 -4.95585 0
M  V30 11076 H 1024.95 2.89051 -5.33418 0
M  V30 11077 H 1023.69 2.6547 -4.09117 0
M  V30 11078 H 1022.69 0.786759 -5.44142 0
M  V30 11079 H 1023.92 1.04566 -6.71001 0
M  V30 11080 H 1021.87 3.09073 -5.78627 0
M  V30 11081 H 1021.78 2.15884 -7.24521 0
M  V30 11082 H 1023.05 3.33142 -7.04724 0
M  V30 11083 N 1027.28 1.57312 -0.0952337 0
M  V30 11084 C 1028.21 2.09691 0.900274 0
M  V30 11085 C 1029.19 1.0075 1.27625 0
M  V30 11086 O 1030.37 1.28249 1.38147 0
M  V30 11087 C 1027.5 2.574 2.20142 0
M  V30 11088 C 1026.55 3.78 1.9753 0
M  V30 11089 S 1027.38 5.21577 1.21318 0
M  V30 11090 C 1028.54 5.72636 2.52663 0
M  V30 11091 H 1028.77 2.93803 0.45467 0
M  V30 11092 H 1026.3 1.53948 0.118056 0
M  V30 11093 H 1028.26 2.85546 2.94914 0
M  V30 11094 H 1026.92 1.73514 2.61824 0
M  V30 11095 H 1026.11 4.09451 2.93881 0
M  V30 11096 H 1025.72 3.50349 1.30888 0
M  V30 11097 H 1028.01 5.80911 3.48638 0
M  V30 11098 H 1028.95 6.71136 2.25791 0
M  V30 11099 H 1029.36 5.00569 2.60943 0
M  V30 11100 N 1028.76 -0.17846 1.56586 0
M  V30 11101 C 1029.7 -1.22104 1.95855 0
M  V30 11102 C 1030.67 -1.44366 0.821447 0
M  V30 11103 O 1031.86 -1.57224 1.08098 0
M  V30 11104 C 1029 -2.55701 2.31757 0
M  V30 11105 C 1028.11 -2.40879 3.5861 0
M  V30 11106 C 1027.25 -3.67293 3.83757 0
M  V30 11107 C 1026.29 -3.47373 5.03982 0
M  V30 11108 N 1025.42 -4.65839 5.25298 0
M  V30 11109 H 1030.26 -0.879168 2.84736 0
M  V30 11110 H 1027.8 -0.422721 1.40895 0
M  V30 11111 H 1029.76 -3.33556 2.50592 0
M  V30 11112 H 1028.39 -2.87898 1.45995 0
M  V30 11113 H 1027.44 -1.54236 3.47729 0
M  V30 11114 H 1028.75 -2.22102 4.46623 0
M  V30 11115 H 1027.91 -4.53584 4.02922 0
M  V30 11116 H 1026.65 -3.89041 2.94107 0
M  V30 11117 H 1025.65 -2.59467 4.84723 0
M  V30 11118 H 1026.88 -3.27055 5.95157 0
M  V30 11119 H 1024.82 -4.8782 4.38598 0
M  V30 11120 H 1024.74 -4.4995 6.0752 0
M  V30 11121 H 1026.01 -5.53435 5.48936 0
M  V30 11122 N 1030.24 -1.51135 -0.446768 0
M  V30 11123 C 1031.18 -1.71767 -1.54158 0
M  V30 11124 C 1032.15 -0.559201 -1.56404 0
M  V30 11125 O 1033.34 -0.792567 -1.7356 0
M  V30 11126 C 1030.48 -1.84006 -2.91952 0
M  V30 11127 C 1029.59 -3.11511 -2.99308 0
M  V30 11128 C 1028.73 -3.144 -4.28166 0
M  V30 11129 C 1027.76 -4.36258 -4.29355 0
M  V30 11130 N 1026.9 -4.3675 -5.49722 0
M  V30 11131 H 1031.74 -2.65224 -1.35869 0
M  V30 11132 H 1029.28 -1.31453 -0.660186 0
M  V30 11133 H 1031.24 -1.89083 -3.71892 0
M  V30 11134 H 1029.87 -0.939661 -3.08821 0
M  V30 11135 H 1028.92 -3.15788 -2.12089 0
M  V30 11136 H 1030.23 -4.01445 -2.96047 0
M  V30 11137 H 1029.38 -3.18341 -5.16473 0
M  V30 11138 H 1028.12 -2.22338 -4.3407 0
M  V30 11139 H 1027.13 -4.32503 -3.39442 0
M  V30 11140 H 1028.35 -5.29574 -4.25122 0
M  V30 11141 H 1026.3 -3.47554 -5.56365 0
M  V30 11142 H 1026.22 -5.20481 -5.48302 0
M  V30 11143 H 1027.48 -4.4487 -6.40086 0
M  V30 11144 N 1031.71 0.701592 -1.41122 0
M  V30 11145 C 1032.96 1.45722 -1.39456 0
M  V30 11146 C 1033.28 1.95599 -0.00475228 0
M  V30 11147 O 1034.48 2.71166 0.134529 0
M  V30 11148 C 1032.94 2.63475 -2.45172 0
M  V30 11149 C 1032.55 2.20409 -3.90031 0
M  V30 11150 C 1034.29 3.4114 -2.52633 0
M  V30 11151 C 1032.2 3.35084 -4.87312 0
M  V30 11152 H 1031.13 0.547341 -0.518588 0
M  V30 11153 H 1033.78 0.762233 -1.6692 0
M  V30 11154 H 1032.16 3.35212 -2.10829 0
M  V30 11155 H 1033.33 1.56 -4.3359 0
M  V30 11156 H 1031.65 1.55752 -3.86174 0
M  V30 11157 H 1034.25 4.26496 -3.22498 0
M  V30 11158 H 1034.59 3.85915 -1.56125 0
M  V30 11159 H 1035.12 2.76456 -2.86037 0
M  V30 11160 H 1031.86 2.95327 -5.85203 0
M  V30 11161 H 1031.38 3.98362 -4.48406 0
M  V30 11162 H 1033.06 4.00949 -5.07788 0
M  V30 11163 N 1033.19 1.2685 0.935242 0
M  V30 11164 C 1034.12 1.04717 2.0388 0
M  V30 11165 C 1035.14 0.00567507 1.62799 0
M  V30 11166 O 1036.33 0.246408 1.76791 0
M  V30 11167 C 1033.43 0.56496 3.34158 0
M  V30 11168 C 1032.6 1.67704 4.03973 0
M  V30 11169 C 1031.66 1.19186 5.12524 0
M  V30 11170 O 1030.68 1.89008 5.36903 0
M  V30 11171 N 1031.89 0.0434554 5.80484 0
M  V30 11172 H 1034.65 1.99746 2.23431 0
M  V30 11173 H 1032.21 1.18316 1.10512 0
M  V30 11174 H 1034.2 0.224436 4.04077 0
M  V30 11175 H 1032.77 -0.291899 3.11234 0
M  V30 11176 H 1031.99 2.18821 3.27889 0
M  V30 11177 H 1033.28 2.42361 4.47368 0
M  V30 11178 H 1032.68 -0.539502 5.63122 0
M  V30 11179 H 1031.24 -0.237946 6.51366 0
M  V30 11180 N 1034.67 -1.14067 1.0875 0
M  V30 11181 C 1035.62 -2.21332 0.715195 0
M  V30 11182 C 1036.61 -1.67059 -0.280679 0
M  V30 11183 O 1037.82 -1.79432 -0.142874 0
M  V30 11184 H 1034.19 -0.721126 0.213264 0
M  V30 11185 H 1036.16 -2.50002 1.62916 0
M  V30 11186 C 1034.91 -3.474 0.144401 0
M  V30 11187 H 1034.24 -3.89495 0.901884 0
M  V30 11188 H 1035.68 -4.23928 -0.0782564 0
M  V30 11189 C 1034.14 -3.17787 -1.11862 0
M  V30 11190 O 1034.67 -3.35906 -2.20295 0
M  V30 11191 N 1032.87 -2.71719 -1.03039 0
M  V30 11192 H 1032.42 -2.57175 -0.14793 0
M  V30 11193 H 1032.38 -2.52281 -1.87621 0
M  V30 11194 N 1036.15 -0.873678 -1.31166 0
M  V30 11195 C 1037.4 -0.482577 -1.95842 0
M  V30 11196 C 1037.71 0.970881 -1.69804 0
M  V30 11197 O 1038.92 1.4683 -2.28371 0
M  V30 11198 C 1037.37 -0.812074 -3.50619 0
M  V30 11199 C 1036.98 -2.28254 -3.85492 0
M  V30 11200 C 1038.72 -0.489624 -4.21667 0
M  V30 11201 C 1036.63 -2.55426 -5.33396 0
M  V30 11202 H 1035.56 -0.176736 -0.732994 0
M  V30 11203 H 1038.21 -1.06709 -1.49283 0
M  V30 11204 H 1036.59 -0.156769 -3.9569 0
M  V30 11205 H 1037.77 -2.98122 -3.51369 0
M  V30 11206 H 1036.08 -2.5714 -3.27518 0
M  V30 11207 H 1038.68 -0.669811 -5.30488 0
M  V30 11208 H 1039.02 0.570204 -4.12376 0
M  V30 11209 H 1039.56 -1.10163 -3.82242 0
M  V30 11210 H 1036.3 -3.60106 -5.47726 0
M  V30 11211 H 1035.82 -1.90156 -5.68859 0
M  V30 11212 H 1037.49 -2.40345 -6.00702 0
M  V30 11213 N 1037.63 1.44308 -0.633487 0
M  V30 11214 C 1038.85 2.06897 -0.144347 0
M  V30 11215 C 1039.28 1.47045 1.173 0
M  V30 11216 O 1038.63 0.572806 1.72013 0
M  V30 11217 C 1038.68 3.60571 -0.0456324 0
M  V30 11218 O 1037.79 4.0015 0.997682 0
M  V30 11219 H 1037.13 0.658427 -0.0858499 0
M  V30 11220 H 1039.66 1.85142 -0.870833 0
M  V30 11221 H 1039.67 4.07745 0.144178 0
M  V30 11222 H 1038.34 4.03515 -1.0074 0
M  V30 11223 H 1036.92 3.64603 0.782252 0
M  V30 11224 N 1039.1 0.374177 1.53094 0
M  V30 11225 C 1040.05 -0.484848 2.22785 0
M  V30 11226 C 1041.04 -1.04181 1.22617 0
M  V30 11227 O 1042.23 -0.97043 1.48026 0
M  V30 11228 C 1039.36 -1.61956 3.02696 0
M  V30 11229 C 1038.45 -1.07506 4.10248 0
M  V30 11230 N 1038.84 -0.254253 5.05161 0
M  V30 11231 C 1037.13 -1.34904 4.25108 0
M  V30 11232 C 1037.84 0.0448558 5.81683 0
M  V30 11233 N 1036.81 -0.555073 5.40759 0
M  V30 11234 H 1040.61 0.148976 2.93522 0
M  V30 11235 H 1038.13 0.182656 1.6137 0
M  V30 11236 H 1040.12 -2.24723 3.51148 0
M  V30 11237 H 1038.78 -2.25636 2.33492 0
M  V30 11238 H 1039.8 0.107256 5.17789 0
M  V30 11239 H 1036.47 -1.98799 3.67131 0
M  V30 11240 H 1037.86 0.708952 6.68149 0
M  V30 11241 N 1040.58 -1.57259 0.103575 0
M  V30 11242 C 1041.53 -2.15727 -0.869739 0
M  V30 11243 C 1042.52 -1.10236 -1.28625 0
M  V30 11244 O 1043.73 -1.28567 -1.25979 0
M  V30 11245 H 1040.11 -0.690204 -0.298535 0
M  V30 11246 H 1042.08 -2.96317 -0.351984 0
M  V30 11247 C 1040.83 -2.75905 -2.11593 0
M  V30 11248 H 1040.15 -3.56768 -1.80434 0
M  V30 11249 H 1041.59 -3.20373 -2.77736 0
M  V30 11250 C 1040.05 -1.72218 -2.89556 0
M  V30 11251 O 1040.58 -1.16623 -3.84398 0
M  V30 11252 N 1038.78 -1.42514 -2.53255 0
M  V30 11253 H 1038.33 -1.87914 -1.76198 0
M  V30 11254 H 1038.29 -0.733782 -3.05717 0
M  V30 11255 N 1042.06 0.170153 -1.56679 0
M  V30 11256 C 1043.31 0.883211 -1.83224 0
M  V30 11257 C 1043.66 1.7982 -0.68429 0
M  V30 11258 O 1042.95 1.88922 0.319204 0
M  V30 11259 C 1043.15 1.71402 -3.13618 0
M  V30 11260 C 1042.98 0.880967 -4.40986 0
M  V30 11261 C 1041.75 0.555594 -5.02236 0
M  V30 11262 C 1043.95 0.221986 -5.13821 0
M  V30 11263 N 1041.93 -0.293479 -6.13198 0
M  V30 11264 C 1043.3 -0.488202 -6.18075 0
M  V30 11265 C 1045.35 0.14027 -4.97702 0
M  V30 11266 C 1044.06 -1.27236 -7.07957 0
M  V30 11267 C 1046.08 -0.630556 -5.88029 0
M  V30 11268 C 1045.44 -1.3291 -6.91747 0
M  V30 11269 H 1041.54 0.301769 -0.721429 0
M  V30 11270 H 1044.13 0.150113 -1.9412 0
M  V30 11271 H 1042.3 2.41853 -3.03911 0
M  V30 11272 H 1044.03 2.36847 -3.28155 0
M  V30 11273 H 1040.79 0.885952 -4.6524 0
M  V30 11274 H 1041.21 -0.708359 -6.73284 0
M  V30 11275 H 1045.85 0.665983 -4.17522 0
M  V30 11276 H 1043.57 -1.80941 -7.87582 0
M  V30 11277 H 1047.16 -0.695468 -5.77628 0
M  V30 11278 H 1046.04 -1.916 -7.60433 0
M  V30 11279 N 1043.54 1.5137 0.438746 0
M  V30 11280 C 1044.49 1.73154 1.55308 0
M  V30 11281 C 1045.48 0.597825 1.58501 0
M  V30 11282 O 1046.69 0.77917 1.62262 0
M  V30 11283 H 1043.06 0.547083 0.51595 0
M  V30 11284 H 1045.03 2.66566 1.34108 0
M  V30 11285 C 1043.78 1.87242 2.92977 0
M  V30 11286 H 1043.1 2.73884 2.91252 0
M  V30 11287 H 1044.54 2.06497 3.70317 0
M  V30 11288 C 1043 0.631887 3.30921 0
M  V30 11289 O 1043.53 -0.214099 4.01129 0
M  V30 11290 N 1041.74 0.47639 2.86669 0
M  V30 11291 H 1041.29 1.16589 2.29706 0
M  V30 11292 H 1041.24 -0.352403 3.12419 0
M  V30 11293 N 1045.02 -0.694098 1.41492 0
M  V30 11294 C 1046.43 -1.00487 1.23994 0
M  V30 11295 C 1046.63 -2.01078 0.130346 0
M  V30 11296 O 1045.69 -2.47403 -0.504775 0
M  V30 11297 C 1047 -1.52808 2.58979 0
M  V30 11298 C 1048.55 -1.64684 2.66173 0
M  V30 11299 C 1049.02 -2.20406 4.01479 0
M  V30 11300 N 1050.52 -2.27765 4.03333 0
M  V30 11301 C 1051.25 -2.7191 5.04829 0
M  V30 11302 N 1050.75 -3.1565 6.16714 0
M  V30 11303 N 1052.54 -2.71487 4.9219 0
M  V30 11304 H 1044.69 -0.027746 2.12382 0
M  V30 11305 H 1046.95 -0.0748741 0.945039 0
M  V30 11306 H 1046.66 -0.863519 3.40934 0
M  V30 11307 H 1046.53 -2.50998 2.81566 0
M  V30 11308 H 1048.92 -2.30251 1.84576 0
M  V30 11309 H 1049 -0.65035 2.47395 0
M  V30 11310 H 1048.65 -1.55454 4.83525 0
M  V30 11311 H 1048.58 -3.2081 4.17599 0
M  V30 11312 H 1051.07 -1.96899 3.22551 0
M  V30 11313 H 1051.38 -3.47966 6.90029 0
M  V30 11314 H 1049.72 -3.13555 6.20248 0
M  V30 11315 H 1052.92 -2.36666 4.03865 0
M  V30 11316 H 1053.09 -3.05573 5.71427 0
M  V30 11317 N 1046.49 -1.27344 -0.928501 0
M  V30 11318 C 1047.44 -1.10001 -2.029 0
M  V30 11319 C 1048.41 -0.00131084 -1.661 0
M  V30 11320 O 1049.6 -0.163485 -1.90098 0
M  V30 11321 C 1046.74 -0.7524 -3.36798 0
M  V30 11322 C 1045.85 -1.92865 -3.86558 0
M  V30 11323 C 1044.98 -1.52299 -5.08899 0
M  V30 11324 C 1044.02 -2.66677 -5.50953 0
M  V30 11325 N 1043.16 -2.26706 -6.64491 0
M  V30 11326 H 1048 -2.0417 -2.17068 0
M  V30 11327 H 1045.54 -1.01637 -1.0634 0
M  V30 11328 H 1047.5 -0.531687 -4.13798 0
M  V30 11329 H 1046.13 0.15234 -3.2244 0
M  V30 11330 H 1045.18 -2.26192 -3.05845 0
M  V30 11331 H 1046.49 -2.78668 -4.13698 0
M  V30 11332 H 1045.64 -1.26348 -5.93398 0
M  V30 11333 H 1044.38 -0.636042 -4.83535 0
M  V30 11334 H 1043.39 -2.93344 -4.65004 0
M  V30 11335 H 1044.61 -3.55992 -5.78313 0
M  V30 11336 H 1042.56 -1.40462 -6.40786 0
M  V30 11337 H 1042.48 -3.06049 -6.91281 0
M  V30 11338 H 1043.74 -2.04 -7.52333 0
M  V30 11339 O 1048.01 1.06273 -1.21607 0
M  V30 11340 H 1048.7 1.67264 -0.976853 0
M  V30 END ATOM
M  V30 BEGIN BOND
M  V30 END BOND
M  V30 END CTAB
M  END
$$$$
