drugbank_target|Q14164 Inhibitor of nuclear factor kappa-B kinase subunit epsilon (DB12010)
 OpenBabel12092121153D

  0  0  0     0  0            999 V3000
M  V30 BEGIN CTAB
M  V30 COUNTS 11368 11478 0 0 0
M  V30 BEGIN ATOM
M  V30 1 H -0.908 1.98254 -0.117106 0
M  V30 2 N 0 1.576 0 0
M  V30 3 C 0.933 2.03868 1.02534 0
M  V30 4 C 1.911 0.928543 1.3348 0
M  V30 5 O 3.095 1.19667 1.45644 0
M  V30 6 C 0.222 2.43627 2.35294 0
M  V30 7 C -0.732 3.65373 2.2001 0
M  V30 8 S 0.101 5.13292 1.52614 0
M  V30 9 C 1.257 5.56322 2.86805 0
M  V30 10 H 1.49 2.90518 0.631377 0
M  V30 11 H -0.977 1.52953 0.210867 0
M  V30 12 H 0.981 2.67203 3.11629 0
M  V30 13 H -0.358 1.57376 2.7183 0
M  V30 14 H -1.165 3.90944 3.18086 0
M  V30 15 H -1.563 3.418 1.51819 0
M  V30 16 H 0.729 5.58782 3.83104 0
M  V30 17 H 1.672 6.56266 2.65933 0
M  V30 18 H 2.08 4.83886 2.90714 0
M  V30 19 N 1.4781 -0.272755 1.55222 0
M  V30 20 C 2.4101 -1.35946 1.8453 0
M  V30 21 C 3.4231 -1.45525 0.729818 0
M  V30 22 O 4.6121 -1.47337 1.00767 0
M  V30 23 C 1.7121 -2.74069 1.99347 0
M  V30 24 C 0.8851 -2.87079 3.30007 0
M  V30 25 C -0.0559 -4.05879 3.34886 0
M  V30 26 O -1.0299 -3.96626 4.08261 0
M  V30 27 N 0.1721 -5.17857 2.62307 0
M  V30 28 H 2.9371 -1.11149 2.78327 0
M  V30 29 H 0.4981 -0.462869 1.55142 0
M  V30 30 H 2.4901 -3.51838 1.99981 0
M  V30 31 H 1.0601 -2.91688 1.12415 0
M  V30 32 H 0.2801 -1.96193 3.41909 0
M  V30 33 H 1.5681 -2.92701 4.16177 0
M  V30 34 H 0.9661 -5.28261 2.02377 0
M  V30 35 H -0.4769 -5.93855 2.68663 0
M  V30 36 N 2.9562 -1.48159 -0.537278 0
M  V30 37 C 4.1812 -1.59707 -1.32319 0
M  V30 38 C 4.6062 -0.254859 -1.86365 0
M  V30 39 O 3.9642 0.772378 -1.64024 0
M  V30 40 C 4.0122 -2.6412 -2.45505 0
M  V30 41 O 3.1162 -2.20774 -3.48328 0
M  V30 42 H 2.4572 -0.535791 -0.392204 0
M  V30 43 H 4.9872 -1.94092 -0.647268 0
M  V30 44 H 4.9972 -2.85166 -2.91795 0
M  V30 45 H 3.6722 -3.61567 -2.05528 0
M  V30 46 H 2.2492 -2.09911 -3.08207 0
M  V30 47 N 4.4343 0.785586 -1.36625 0
M  V30 48 C 5.6623 1.57448 -1.3423 0
M  V30 49 C 6.0773 1.88649 0.0755653 0
M  V30 50 O 5.4343 1.50414 1.03354 0
M  V30 51 C 5.4853 2.89316 -2.16745 0
M  V30 52 O 5.2063 2.59459 -3.53005 0
M  V30 53 C 6.7073 3.83606 -2.22174 0
M  V30 54 H 3.9273 0.488226 -0.4603 0
M  V30 55 H 6.4713 0.974733 -1.79775 0
M  V30 56 H 4.6263 3.4575 -1.74745 0
M  V30 57 H 5.0403 3.43804 -3.96105 0
M  V30 58 H 6.5143 4.73181 -2.8426 0
M  V30 59 H 6.9913 4.21734 -1.22627 0
M  V30 60 H 7.5973 3.33104 -2.64427 0
M  V30 61 N 5.9124 1.20967 1.01018 0
M  V30 62 C 6.8754 0.965918 2.07853 0
M  V30 63 C 7.8754 -0.0610545 1.60684 0
M  V30 64 O 9.0654 0.175681 1.73312 0
M  V30 65 C 6.1974 0.455513 3.37843 0
M  V30 66 H 7.3904 1.91365 2.3091 0
M  V30 67 H 4.9434 1.02594 1.17916 0
M  V30 68 H 5.6784 -0.497381 3.20463 0
M  V30 69 H 5.4634 1.19622 3.73407 0
M  V30 70 H 6.9534 0.304667 4.16487 0
M  V30 71 N 7.3905 -1.2043 1.01659 0
M  V30 72 C 8.3385 -2.25249 0.580143 0
M  V30 73 C 9.3325 -1.65057 -0.381115 0
M  V30 74 O 10.5385 -1.78241 -0.251039 0
M  V30 75 H 6.9135 -0.732695 0.169299 0
M  V30 76 H 8.8845 -2.59389 1.47512 0
M  V30 77 C 7.6335 -3.47638 -0.065788 0
M  V30 78 H 6.9565 -3.94233 0.664874 0
M  V30 79 H 8.3965 -4.2268 -0.334282 0
M  V30 80 C 6.8555 -3.10447 -1.3086 0
M  V30 81 O 7.3855 -3.21981 -2.4019 0
M  V30 82 N 5.5915 -2.64996 -1.1927 0
M  V30 83 H 5.1385 -2.55811 -0.303064 0
M  V30 84 H 5.0965 -2.40482 -2.02523 0
M  V30 85 N 8.8686 -0.792821 -1.36206 0
M  V30 86 C 10.0986 -0.378275 -2.03107 0
M  V30 87 C 10.5066 1.01119 -1.59911 0
M  V30 88 O 9.8496 1.66052 -0.785658 0
M  V30 89 C 9.9116 -0.366535 -3.57627 0
M  V30 90 C 9.5756 -1.70416 -4.24037 0
M  V30 91 C 10.5726 -2.6602 -4.46687 0
M  V30 92 C 8.2576 -1.98439 -4.6144 0
M  V30 93 C 10.2516 -3.8784 -5.05825 0
M  V30 94 C 7.9386 -3.20525 -5.20295 0
M  V30 95 C 8.9366 -4.15044 -5.42427 0
M  V30 96 O 8.6246 -5.34978 -6.00045 0
M  V30 97 H 8.3566 -0.153543 -0.658332 0
M  V30 98 H 10.9106 -1.07383 -1.75094 0
M  V30 99 H 9.1406 0.385539 -3.84773 0
M  V30 100 H 10.8296 0.0238088 -4.05893 0
M  V30 101 H 11.5956 -2.45658 -4.18183 0
M  V30 102 H 7.4746 -1.25686 -4.43536 0
M  V30 103 H 11.0186 -4.61628 -5.23015 0
M  V30 104 H 6.9156 -3.40764 -5.48225 0
M  V30 105 H 7.6836 -5.36088 -6.18508 0
M  V30 106 N 10.3467 1.47872 -0.545128 0
M  V30 107 C 11.2767 2.32661 0.197793 0
M  V30 108 C 12.2577 1.43041 0.920504 0
M  V30 109 O 13.4427 1.71912 0.90333 0
M  V30 110 C 10.5727 3.24569 1.23582 0
M  V30 111 C 9.5267 4.23333 0.630323 0
M  V30 112 C 8.8527 5.0448 1.77211 0
M  V30 113 C 10.1527 5.20704 -0.407974 0
M  V30 114 H 11.8467 2.95024 -0.510045 0
M  V30 115 H 9.3927 1.4187 -0.246731 0
M  V30 116 H 11.3457 3.8272 1.76362 0
M  V30 117 H 10.0697 2.60236 1.97344 0
M  V30 118 H 8.7287 3.6639 0.123922 0
M  V30 119 H 8.3767 4.36561 2.49847 0
M  V30 120 H 8.0767 5.71339 1.37281 0
M  V30 121 H 9.6007 5.65487 2.3034 0
M  V30 122 H 11.0147 5.7329 0.033305 0
M  V30 123 H 9.4117 5.95699 -0.725486 0
M  V30 124 H 10.4817 4.66917 -1.30828 0
M  V30 125 N 11.8248 0.280983 1.55075 0
M  V30 126 C 13.0708 -0.327573 2.00745 0
M  V30 127 C 13.4258 -1.53045 1.16598 0
M  V30 128 O 12.7188 -1.90221 0.229451 0
M  V30 129 C 12.9128 -0.754656 3.49342 0
M  V30 130 C 12.7418 0.40529 4.4787 0
M  V30 131 C 11.5118 0.890947 4.97383 0
M  V30 132 C 13.7098 1.24371 4.99035 0
M  V30 133 N 11.6918 2.01975 5.79724 0
M  V30 134 C 13.0628 2.22031 5.7888 0
M  V30 135 C 15.1178 1.27638 4.81262 0
M  V30 136 C 13.8208 3.22709 6.42846 0
M  V30 137 C 15.8468 2.27164 5.46031 0
M  V30 138 C 15.2088 3.23556 6.25692 0
M  V30 139 H 11.3078 -0.0848774 0.77738 0
M  V30 140 H 13.8918 0.406342 1.90413 0
M  V30 141 H 12.0628 -1.45778 3.60005 0
M  V30 142 H 13.7948 -1.34105 3.81835 0
M  V30 143 H 10.5498 0.469262 4.71269 0
M  V30 144 H 10.9738 2.58794 6.25584 0
M  V30 145 H 15.6158 0.544936 4.19274 0
M  V30 146 H 13.3338 3.96784 7.0398 0
M  V30 147 H 16.9198 2.30441 5.34217 0
M  V30 148 H 15.7998 3.99309 6.74924 0
M  V30 149 N 13.3029 -1.57598 0.00835791 0
M  V30 150 C 14.2529 -2.05431 -0.989045 0
M  V30 151 C 15.2369 -0.950662 -1.29812 0
M  V30 152 O 16.4289 -1.21438 -1.28771 0
M  V30 153 C 13.5579 -2.56801 -2.27833 0
M  V30 154 C 12.6439 -3.74058 -1.99853 0
M  V30 155 N 13.0349 -4.8544 -1.42062 0
M  V30 156 C 11.3329 -3.82148 -2.29953 0
M  V30 157 C 12.0339 -5.66817 -1.30743 0
M  V30 158 N 11.0099 -5.13077 -1.7959 0
M  V30 159 H 14.8119 -2.88955 -0.536853 0
M  V30 160 H 12.3259 -1.61199 -0.197148 0
M  V30 161 H 14.3229 -2.89349 -3.00137 0
M  V30 162 H 12.9829 -1.74699 -2.73698 0
M  V30 163 H 13.9939 -5.0612 -1.09833 0
M  V30 164 H 10.6709 -3.10916 -2.78635 0
M  V30 165 H 12.0609 -6.66343 -0.862328 0
M  V30 166 N 14.781 0.264519 -1.55364 0
M  V30 167 C 16.009 1.013 -1.80405 0
M  V30 168 C 16.424 1.79618 -0.581622 0
M  V30 169 O 15.781 1.76879 0.449468 0
M  V30 170 C 15.832 1.96487 -3.03439 0
M  V30 171 O 15.553 1.21341 -4.20961 0
M  V30 172 C 17.054 2.83079 -3.41147 0
M  V30 173 H 14.274 0.298875 -0.600762 0
M  V30 174 H 16.818 0.292736 -2.02394 0
M  V30 175 H 14.973 2.63965 -2.83551 0
M  V30 176 H 15.387 1.85573 -4.90574 0
M  V30 177 H 16.861 3.4565 -4.30384 0
M  V30 178 H 17.338 3.53286 -2.60932 0
M  V30 179 H 17.944 2.2108 -3.63323 0
M  V30 180 N 16.2591 1.48442 0.529413 0
M  V30 181 C 17.5361 1.46978 1.29062 0
M  V30 182 C 17.9161 0.181769 2.10316 0
M  V30 183 O 17.2641 -0.836481 2.12639 0
M  V30 184 C 17.4741 2.7321 2.17157 0
M  V30 185 C 18.8221 3.21562 2.77278 0
M  V30 186 O 19.8461 2.74131 2.27444 0
M  V30 187 O 18.7051 4.04094 3.67927 0
M  V30 188 H 15.7991 0.587003 0.582543 0
M  V30 189 H 18.3451 1.60676 0.546021 0
M  V30 190 H 17.1171 3.58465 1.56903 0
M  V30 191 H 16.7401 2.62235 2.98862 0
M  V30 192 N 17.7372 -0.778329 1.37039 0
M  V30 193 C 19.0142 -1.52551 1.22424 0
M  V30 194 C 19.3942 -2.10288 -0.184964 0
M  V30 195 O 18.7422 -1.94953 -1.19187 0
M  V30 196 C 18.9522 -2.61164 2.31504 0
M  V30 197 C 20.3002 -3.28746 2.68721 0
M  V30 198 O 21.3242 -2.71455 2.30631 0
M  V30 199 O 20.1832 -4.3231 3.3432 0
M  V30 200 H 17.2772 -0.675343 0.477326 0
M  V30 201 H 19.8232 -0.815859 1.48801 0
M  V30 202 H 18.5952 -2.16574 3.25901 0
M  V30 203 H 18.2182 -3.39737 2.06554 0
M  V30 204 N 19.2153 -1.21501 -1.00376 0
M  V30 205 C 20.1453 -0.999478 -2.11028 0
M  V30 206 C 21.1263 0.0759671 -1.6993 0
M  V30 207 O 22.3113 -0.0841106 -1.94018 0
M  V30 208 C 19.4413 -0.564709 -3.42678 0
M  V30 209 C 18.3953 -1.58486 -3.97576 0
M  V30 210 C 17.7213 -1.00628 -5.25146 0
M  V30 211 C 19.0213 -2.97204 -4.29496 0
M  V30 212 H 20.7153 -1.92495 -2.29317 0
M  V30 213 H 18.2613 -0.92693 -1.102 0
M  V30 214 H 20.2143 -0.401091 -4.19487 0
M  V30 215 H 18.9383 0.396411 -3.24185 0
M  V30 216 H 17.5973 -1.73606 -3.22888 0
M  V30 217 H 17.2453 -0.0368439 -5.02987 0
M  V30 218 H 16.9453 -1.68771 -5.62841 0
M  V30 219 H 18.4693 -0.854015 -6.04598 0
M  V30 220 H 19.8833 -2.8552 -4.97143 0
M  V30 221 H 18.2803 -3.62372 -4.78338 0
M  V30 222 H 19.3503 -3.47956 -3.3772 0
M  V30 223 N 20.6934 1.19889 -1.02296 0
M  V30 224 C 21.6234 2.25141 -0.619174 0
M  V30 225 C 22.6044 1.66051 0.368915 0
M  V30 226 O 23.7894 1.92546 0.252941 0
M  V30 227 C 20.9194 3.4728 0.0368783 0
M  V30 228 C 19.8734 4.19005 -0.872865 0
M  V30 229 C 19.1994 5.34637 -0.0822402 0
M  V30 230 C 20.4994 4.74452 -2.18387 0
M  V30 231 H 22.1934 2.59171 -1.49903 0
M  V30 232 H 19.7394 1.24579 -0.722222 0
M  V30 233 H 21.6924 4.20098 0.330958 0
M  V30 234 H 20.4164 3.12433 0.95149 0
M  V30 235 H 19.0754 3.48061 -1.15105 0
M  V30 236 H 18.7234 4.96034 0.83422 0
M  V30 237 H 18.4234 5.83557 -0.688149 0
M  V30 238 H 19.9474 6.10255 0.205238 0
M  V30 239 H 21.3614 5.39055 -1.95172 0
M  V30 240 H 19.7584 5.33834 -2.74119 0
M  V30 241 H 20.8284 3.92844 -2.84257 0
M  V30 242 N 22.1715 0.800033 1.35784 0
M  V30 243 C 23.4195 0.376597 1.9856 0
M  V30 244 C 23.7405 -1.05812 1.63795 0
M  V30 245 O 23.0105 -1.73103 0.917171 0
M  V30 246 H 21.5905 0.136261 0.734467 0
M  V30 247 H 24.2525 1.02442 1.65806 0
M  V30 248 H 23.3485 0.477002 3.08433 0
M  V30 249 N 23.6496 -1.47581 0.552962 0
M  V30 250 C 24.5816 -2.27997 -0.234533 0
M  V30 251 C 25.5946 -1.36753 -0.883321 0
M  V30 252 O 26.7836 -1.61612 -0.757889 0
M  V30 253 C 23.8836 -3.10879 -1.34935 0
M  V30 254 C 23.0566 -4.30056 -0.798158 0
M  V30 255 C 22.1156 -4.94567 -1.79694 0
M  V30 256 O 21.1416 -5.53087 -1.34474 0
M  V30 257 N 22.3436 -4.88878 -3.13015 0
M  V30 258 H 25.1086 -2.96222 0.455255 0
M  V30 259 H 22.6696 -1.57163 0.388761 0
M  V30 260 H 24.6616 -3.50903 -2.01616 0
M  V30 261 H 23.2316 -2.44924 -1.94244 0
M  V30 262 H 22.4516 -3.94174 0.0453079 0
M  V30 263 H 23.7396 -5.07152 -0.409173 0
M  V30 264 H 23.1376 -4.42526 -3.52402 0
M  V30 265 H 21.6946 -5.32934 -3.75266 0
M  V30 266 N 25.1277 -0.289203 -1.54924 0
M  V30 267 C 26.3757 0.322879 -1.99504 0
M  V30 268 C 26.6967 1.55313 -1.1791 0
M  V30 269 O 25.9667 1.94001 -0.272097 0
M  V30 270 H 24.5467 0.122291 -0.736922 0
M  V30 271 H 27.2087 -0.397802 -1.90797 0
M  V30 272 H 26.3047 0.603061 -3.06218 0
M  V30 273 N 26.6058 1.57591 -0.0167156 0
M  V30 274 C 27.5688 2.08393 0.954204 0
M  V30 275 C 28.5688 0.996531 1.26198 0
M  V30 276 O 29.7588 1.25858 1.20438 0
M  V30 277 C 26.8908 2.5394 2.27436 0
M  V30 278 H 28.0838 2.95455 0.514451 0
M  V30 279 H 25.6368 1.54582 0.231089 0
M  V30 280 H 26.3718 1.70171 2.76066 0
M  V30 281 H 26.1568 3.33371 2.06412 0
M  V30 282 H 27.6468 2.93512 2.97053 0
M  V30 283 N 28.0839 -0.256276 1.55502 0
M  V30 284 C 29.3119 -1.00342 1.8094 0
M  V30 285 C 29.7269 -1.79307 0.59114 0
M  V30 286 O 29.0839 -1.77114 -0.440081 0
M  V30 287 C 29.1349 -1.94875 3.04476 0
M  V30 288 O 28.8559 -1.19107 4.21598 0
M  V30 289 C 30.3569 -2.81266 3.42644 0
M  V30 290 H 27.5769 -0.295685 0.602338 0
M  V30 291 H 30.1209 -0.281998 2.02546 0
M  V30 292 H 28.2759 -2.62457 2.84947 0
M  V30 293 H 28.6899 -1.82969 4.91551 0
M  V30 294 H 30.1639 -3.43362 4.32211 0
M  V30 295 H 30.6409 -3.51897 2.62802 0
M  V30 296 H 31.2469 -2.1915 3.64491 0
M  V30 297 N 29.562 -1.4872 -0.521534 0
M  V30 298 C 30.525 -1.63379 -1.60748 0
M  V30 299 C 31.525 -0.50661 -1.52611 0
M  V30 300 O 32.715 -0.772601 -1.5613 0
M  V30 301 C 29.847 -1.61192 -3.00383 0
M  V30 302 H 31.04 -2.60217 -1.49087 0
M  V30 303 H 28.593 -1.37444 -0.744235 0
M  V30 304 H 29.328 -0.65863 -3.17541 0
M  V30 305 H 29.113 -2.43032 -3.07698 0
M  V30 306 H 30.603 -1.7466 -3.7932 0
M  V30 307 N 31.0401 0.771051 -1.3745 0
M  V30 308 C 32.2651 1.56529 -1.36065 0
M  V30 309 C 32.6901 1.88029 0.0515859 0
M  V30 310 O 32.0481 1.49282 1.02882 0
M  V30 311 C 32.0961 2.85187 -2.20683 0
M  V30 312 O 31.2001 3.79593 -1.61193 0
M  V30 313 H 30.5411 0.47411 -0.464883 0
M  V30 314 H 33.0711 0.954269 -1.80983 0
M  V30 315 H 33.0811 3.34283 -2.33921 0
M  V30 316 H 31.7561 2.61588 -3.23334 0
M  V30 317 H 30.3331 3.38239 -1.56999 0
M  V30 318 N 32.5182 1.22032 0.997298 0
M  V30 319 C 33.7642 1.04376 1.73878 0
M  V30 320 C 34.0972 -0.420716 1.89588 0
M  V30 321 O 33.3722 -1.31202 1.43583 0
M  V30 322 C 33.6552 1.75047 3.14691 0
M  V30 323 C 33.5082 3.29062 3.06656 0
M  V30 324 C 34.8272 1.49928 4.13775 0
M  V30 325 H 31.9462 0.380578 0.631133 0
M  V30 326 H 34.5882 1.50312 1.16217 0
M  V30 327 H 32.7382 1.35996 3.63919 0
M  V30 328 H 34.4102 3.7753 2.65083 0
M  V30 329 H 32.6532 3.58967 2.43568 0
M  V30 330 H 33.3242 3.73683 4.06282 0
M  V30 331 H 35.8002 1.83842 3.73285 0
M  V30 332 H 34.6762 2.01878 5.10428 0
M  V30 333 H 34.9372 0.430929 4.39995 0
M  V30 334 N 33.9963 -1.19345 1.0293 0
M  V30 335 C 35.2263 -1.92717 0.744563 0
M  V30 336 C 35.6343 -1.75751 -0.700579 0
M  V30 337 O 34.9773 -1.07703 -1.48815 0
M  V30 338 C 35.0393 -3.44828 1.01657 0
M  V30 339 C 34.7033 -3.85564 2.45335 0
M  V30 340 C 35.7003 -3.90286 3.43472 0
M  V30 341 C 33.3853 -4.1719 2.79746 0
M  V30 342 C 35.3793 -4.26065 4.74075 0
M  V30 343 C 33.0663 -4.52642 4.10559 0
M  V30 344 C 34.0643 -4.57054 5.07534 0
M  V30 345 O 33.7523 -4.91685 6.36004 0
M  V30 346 H 33.4843 -0.618977 0.271742 0
M  V30 347 H 36.0383 -1.52415 1.37691 0
M  V30 348 H 34.2683 -3.85314 0.327084 0
M  V30 349 H 35.9573 -3.99437 0.721427 0
M  V30 350 H 36.7233 -3.66002 3.18225 0
M  V30 351 H 32.6023 -4.1294 2.04943 0
M  V30 352 H 36.1463 -4.29423 5.49765 0
M  V30 353 H 32.0433 -4.76383 4.35579 0
M  V30 354 H 32.8113 -5.09631 6.40483 0
M  V30 355 N 35.4744 -0.807222 -1.35358 0
M  V30 356 C 36.4214 -0.216037 -2.29787 0
M  V30 357 C 37.3914 0.650278 -1.52842 0
M  V30 358 O 38.5764 0.595227 -1.81278 0
M  V30 359 C 35.7164 0.628893 -3.39321 0
M  V30 360 C 34.8294 -0.257927 -4.31229 0
M  V30 361 C 33.9644 0.595069 -5.27856 0
M  V30 362 C 33.0034 -0.292111 -6.11403 0
M  V30 363 N 32.1404 0.520895 -7.00165 0
M  V30 364 H 36.9804 -1.02671 -2.79755 0
M  V30 365 H 34.5174 -0.517839 -1.37684 0
M  V30 366 H 36.4754 1.13393 -4.01494 0
M  V30 367 H 35.1054 1.40482 -2.90628 0
M  V30 368 H 34.1574 -0.881076 -3.70056 0
M  V30 369 H 35.4694 -0.940759 -4.89848 0
M  V30 370 H 34.6234 1.16522 -5.95405 0
M  V30 371 H 33.3624 1.31146 -4.69736 0
M  V30 372 H 32.3674 -0.874525 -5.428 0
M  V30 373 H 33.5924 -1.00638 -6.71602 0
M  V30 374 H 31.5384 1.22125 -6.44532 0
M  V30 375 H 31.4554 -0.103877 -7.55929 0
M  V30 376 H 32.7234 1.0743 -7.72062 0
M  V30 377 N 36.9525 1.47285 -0.560781 0
M  V30 378 C 37.9155 2.28535 0.174488 0
M  V30 379 C 38.9155 1.37153 0.839388 0
M  V30 380 O 40.1055 1.59748 0.694702 0
M  V30 381 C 37.2375 3.16934 1.25561 0
M  V30 382 H 38.4305 2.95012 -0.539262 0
M  V30 383 H 35.9835 1.53034 -0.317865 0
M  V30 384 H 36.7185 2.55157 2.00164 0
M  V30 385 H 36.5035 3.8419 0.783604 0
M  V30 386 H 37.9935 3.78143 1.77193 0
M  V30 387 N 38.4306 0.297415 1.54768 0
M  V30 388 C 39.8466 -0.0560823 1.59501 0
M  V30 389 C 40.0466 -1.52725 1.31444 0
M  V30 390 O 39.1026 -2.27947 1.08611 0
M  V30 391 C 40.4156 0.338631 2.98787 0
M  V30 392 C 41.9636 0.287097 3.11681 0
M  V30 393 C 42.4386 0.656579 4.53269 0
M  V30 394 N 43.9296 0.608977 4.59179 0
M  V30 395 C 44.6646 0.867385 5.66802 0
M  V30 396 N 44.1606 1.19157 6.82476 0
M  V30 397 N 45.9536 0.794687 5.56454 0
M  V30 398 H 38.1046 1.25624 1.71267 0
M  V30 399 H 40.3676 0.509057 0.799728 0
M  V30 400 H 40.0736 1.36263 3.2423 0
M  V30 401 H 39.9476 -0.309508 3.75928 0
M  V30 402 H 42.3346 -0.727649 2.85988 0
M  V30 403 H 42.4156 0.969809 2.36703 0
M  V30 404 H 42.0596 1.66912 4.7969 0
M  V30 405 H 41.9896 -0.0481649 5.26578 0
M  V30 406 H 44.4806 0.369198 3.76092 0
M  V30 407 H 44.7936 1.37482 7.60473 0
M  V30 408 H 43.1386 1.22958 6.84037 0
M  V30 409 H 46.3296 0.541098 4.64962 0
M  V30 410 H 46.5026 0.999445 6.40246 0
M  V30 411 N 39.9087 -1.5758 0.0250728 0
M  V30 412 C 40.8567 -2.11125 -0.97617 0
M  V30 413 C 41.8507 -1.03689 -1.33959 0
M  V30 414 O 43.0567 -1.22128 -1.3223 0
M  V30 415 H 39.4317 -0.674468 -0.332561 0
M  V30 416 H 41.4027 -2.94194 -0.499223 0
M  V30 417 C 40.1517 -2.65017 -2.2508 0
M  V30 418 H 39.4747 -3.47333 -1.9799 0
M  V30 419 H 40.9147 -3.06133 -2.93357 0
M  V30 420 C 39.3737 -1.57574 -2.97779 0
M  V30 421 O 39.9037 -0.973203 -3.89733 0
M  V30 422 N 38.1097 -1.29716 -2.60043 0
M  V30 423 H 37.6567 -1.789 -1.85345 0
M  V30 424 H 37.6147 -0.58051 -3.08994 0
M  V30 425 N 41.3868 0.248026 -1.55636 0
M  V30 426 C 42.3338 1.30707 -1.90222 0
M  V30 427 C 43.3038 1.47881 -0.756332 0
M  V30 428 O 44.4888 1.61883 -1.00988 0
M  V30 429 C 41.6288 2.65769 -2.20138 0
M  V30 430 C 40.7418 2.56612 -3.47526 0
M  V30 431 C 39.8768 3.8402 -3.67017 0
M  V30 432 C 38.9158 3.69476 -4.8801 0
M  V30 433 N 38.0528 4.88774 -5.04029 0
M  V30 434 H 42.8928 1.00512 -2.80538 0
M  V30 435 H 40.4298 0.485055 -1.38873 0
M  V30 436 H 42.3878 3.44386 -2.35487 0
M  V30 437 H 41.0178 2.94115 -1.33027 0
M  V30 438 H 40.0698 1.69571 -3.40514 0
M  V30 439 H 41.3818 2.41774 -4.36287 0
M  V30 440 H 40.5358 4.7108 -3.8232 0
M  V30 441 H 39.2748 4.01754 -2.76487 0
M  V30 442 H 38.2798 2.80799 -4.72686 0
M  V30 443 H 39.5048 3.53238 -5.8 0
M  V30 444 H 37.4508 5.0687 -4.16435 0
M  V30 445 H 37.3678 4.76562 -5.86877 0
M  V30 446 H 38.6358 5.77335 -5.23741 0
M  V30 447 N 42.8649 1.48995 0.513639 0
M  V30 448 C 43.8119 1.6473 1.61656 0
M  V30 449 C 44.7819 0.488984 1.58739 0
M  V30 450 O 45.9669 0.714478 1.76918 0
M  V30 451 C 43.1069 1.7082 2.99858 0
M  V30 452 C 42.2199 2.9787 3.12885 0
M  V30 453 C 41.3549 2.95017 4.41744 0
M  V30 454 C 40.3939 4.16702 4.48359 0
M  V30 455 N 39.5309 4.11832 5.68629 0
M  V30 456 H 44.3709 2.58909 1.47547 0
M  V30 457 H 41.9079 1.28382 0.71808 0
M  V30 458 H 43.8659 1.72331 3.79944 0
M  V30 459 H 42.4959 0.801181 3.12699 0
M  V30 460 H 41.5479 3.06029 2.25944 0
M  V30 461 H 42.8599 3.8786 3.13633 0
M  V30 462 H 42.0139 2.95021 5.30139 0
M  V30 463 H 40.7529 2.02784 4.43542 0
M  V30 464 H 39.7579 4.16955 3.58369 0
M  V30 465 H 40.9829 5.10113 4.48287 0
M  V30 466 H 38.9289 3.22428 5.71293 0
M  V30 467 H 38.8459 4.95543 5.7094 0
M  V30 468 H 40.1139 4.1592 6.59266 0
M  V30 469 N 44.343 -0.763751 1.37857 0
M  V30 470 C 45.568 -1.55805 1.36893 0
M  V30 471 C 45.993 -1.88054 -0.0416135 0
M  V30 472 O 45.351 -1.49825 -1.02089 0
M  V30 473 C 45.399 -2.84012 2.22192 0
M  V30 474 O 44.503 -3.78732 1.63204 0
M  V30 475 H 43.844 -0.471638 0.46739 0
M  V30 476 H 46.374 -0.944657 1.81487 0
M  V30 477 H 46.384 -3.33037 2.35691 0
M  V30 478 H 45.059 -2.59869 3.24716 0
M  V30 479 H 43.636 -3.37402 1.58791 0
M  V30 480 N 45.8211 -1.22559 -0.990812 0
M  V30 481 C 47.0691 -1.04933 -1.72724 0
M  V30 482 C 47.3901 0.416158 -1.90508 0
M  V30 483 O 46.6601 1.29918 -1.46622 0
M  V30 484 H 45.2401 -0.385296 -0.639965 0
M  V30 485 H 47.9021 -1.54105 -1.19322 0
M  V30 486 H 46.9981 -1.52886 -2.72089 0
M  V30 487 N 47.2992 1.18797 -1.03562 0
M  V30 488 C 48.2092 2.25913 -0.632505 0
M  V30 489 C 49.2252 1.70668 0.338882 0
M  V30 490 O 50.4012 2.00453 0.195076 0
M  V30 491 C 47.4662 3.467 0.00350942 0
M  V30 492 C 46.5272 4.17098 -1.01624 0
M  V30 493 C 45.7602 5.32119 -0.410478 0
M  V30 494 O 45.9832 5.64976 0.784725 0
M  V30 495 O 44.9172 5.9107 -1.13667 0
M  V30 496 H 48.7432 2.62648 -1.52478 0
M  V30 497 H 46.3282 1.25781 -0.806195 0
M  V30 498 H 48.2102 4.19878 0.35781 0
M  V30 499 H 46.8852 3.11798 0.869686 0
M  V30 500 H 45.7922 3.4601 -1.42224 0
M  V30 501 H 47.1252 4.55987 -1.85301 0
M  V30 502 N 48.7773 0.814389 1.34928 0
M  V30 503 C 49.7073 0.244827 2.32213 0
M  V30 504 C 50.6883 -0.634024 1.57842 0
M  V30 505 O 51.8733 -0.562676 1.8587 0
M  V30 506 C 49.0033 -0.601106 3.42058 0
M  V30 507 C 47.9573 0.179896 4.27622 0
M  V30 508 C 47.2833 -0.788237 5.28858 0
M  V30 509 C 48.5833 1.38329 5.03649 0
M  V30 510 H 50.2773 1.05763 2.80097 0
M  V30 511 H 47.8233 0.510029 1.34665 0
M  V30 512 H 49.7763 -1.00968 4.09125 0
M  V30 513 H 48.5003 -1.44688 2.92802 0
M  V30 514 H 47.1593 0.569739 3.62146 0
M  V30 515 H 46.8073 -1.62973 4.75866 0
M  V30 516 H 46.5073 -0.269942 5.8698 0
M  V30 517 H 48.0313 -1.19485 5.98795 0
M  V30 518 H 49.4453 1.04918 5.63618 0
M  V30 519 H 47.8423 1.83662 5.71304 0
M  V30 520 H 48.9123 2.16592 4.33839 0
M  V30 521 N 50.2554 -1.46986 0.568584 0
M  V30 522 C 51.5014 -2.02741 0.0488709 0
M  V30 523 C 51.8344 -1.44077 -1.30214 0
M  V30 524 O 51.1094 -0.600552 -1.84996 0
M  V30 525 C 51.3924 -3.60086 -0.032047 0
M  V30 526 C 51.2454 -4.29162 1.34686 0
M  V30 527 C 52.5644 -4.33838 -0.739798 0
M  V30 528 H 49.6834 -0.736749 0.0192338 0
M  V30 529 H 52.3254 -1.75289 0.733065 0
M  V30 530 H 50.4754 -3.83606 -0.61473 0
M  V30 531 H 52.1474 -4.16948 1.97362 0
M  V30 532 H 50.3904 -3.89073 1.91846 0
M  V30 533 H 51.0614 -5.37826 1.24285 0
M  V30 534 H 53.5374 -4.15378 -0.244939 0
M  V30 535 H 52.4134 -5.43537 -0.765406 0
M  V30 536 H 52.6744 -4.03875 -1.79827 0
M  V30 537 N 51.7335 -0.305618 -1.54608 0
M  V30 538 C 52.6965 0.555591 -2.22364 0
M  V30 539 C 53.6965 1.05768 -1.21119 0
M  V30 540 O 54.8865 0.952972 -1.45822 0
M  V30 541 C 52.0185 1.76974 -2.91364 0
M  V30 542 H 53.2115 -0.0364572 -2.99878 0
M  V30 543 H 50.7645 -0.0565007 -1.56198 0
M  V30 544 H 51.4995 2.40151 -2.17941 0
M  V30 545 H 51.2845 1.41732 -3.65588 0
M  V30 546 H 52.7745 2.38148 -3.43038 0
M  V30 547 N 53.2116 1.57565 -0.0334293 0
M  V30 548 C 54.4576 1.92262 0.645226 0
M  V30 549 C 54.7906 0.910543 1.71531 0
M  V30 550 O 54.0656 -0.066099 1.94388 0
M  V30 551 C 54.3486 3.37422 1.2577 0
M  V30 552 C 54.2016 4.49369 0.196891 0
M  V30 553 C 55.5206 3.82628 2.17449 0
M  V30 554 H 52.6396 0.699171 0.233085 0
M  V30 555 H 55.2816 1.89779 -0.0915694 0
M  V30 556 H 53.4316 3.39669 1.88566 0
M  V30 557 H 55.1036 4.59254 -0.433962 0
M  V30 558 H 53.3466 4.31168 -0.477137 0
M  V30 559 H 54.0176 5.47978 0.665124 0
M  V30 560 H 56.4936 3.82145 1.64634 0
M  V30 561 H 55.3696 4.84883 2.57254 0
M  V30 562 H 55.6306 3.18376 3.0674 0
M  V30 563 N 54.6897 -0.239769 1.55765 0
M  V30 564 C 55.6367 -1.29696 1.90913 0
M  V30 565 C 56.6067 -1.47478 0.764164 0
M  V30 566 O 57.7917 -1.61345 1.01845 0
M  V30 567 C 54.9317 -2.64598 2.21544 0
M  V30 568 C 54.0447 -2.54765 3.48882 0
M  V30 569 C 53.1797 -3.82069 3.69049 0
M  V30 570 C 52.2187 -3.66883 4.89963 0
M  V30 571 N 51.3557 -4.86094 5.06614 0
M  V30 572 H 56.1957 -0.990224 2.81067 0
M  V30 573 H 53.7327 -0.477684 1.39128 0
M  V30 574 H 55.6907 -3.43132 2.3731 0
M  V30 575 H 54.3207 -2.93405 1.34585 0
M  V30 576 H 53.3727 -1.67763 3.41409 0
M  V30 577 H 54.6847 -2.39457 4.37563 0
M  V30 578 H 53.8387 -4.69046 3.84812 0
M  V30 579 H 52.5777 -4.00282 2.78614 0
M  V30 580 H 51.5827 -2.78289 4.74168 0
M  V30 581 H 52.8077 -3.50157 5.81865 0
M  V30 582 H 50.7537 -5.04655 4.19117 0
M  V30 583 H 50.6707 -4.73443 5.89396 0
M  V30 584 H 51.9387 -5.74549 5.26795 0
M  V30 585 N 56.1678 -1.49265 -0.50573 0
M  V30 586 C 57.4138 -1.58748 -1.26202 0
M  V30 587 C 57.7468 -0.271227 -1.92297 0
M  V30 588 O 57.0218 0.724831 -1.80489 0
M  V30 589 C 57.3048 -2.74332 -2.33268 0
M  V30 590 C 57.1578 -4.15737 -1.71705 0
M  V30 591 C 58.4768 -2.85576 -3.34865 0
M  V30 592 H 55.5958 -0.577826 -0.457478 0
M  V30 593 H 58.2378 -1.81532 -0.560897 0
M  V30 594 H 56.3878 -2.55036 -2.93068 0
M  V30 595 H 58.0598 -4.46537 -1.15769 0
M  V30 596 H 56.3028 -4.21605 -1.02135 0
M  V30 597 H 56.9738 -4.92477 -2.49341 0
M  V30 598 H 59.4498 -3.03127 -2.8505 0
M  V30 599 H 58.3258 -3.68135 -4.07146 0
M  V30 600 H 58.5868 -1.94732 -3.96903 0
M  V30 601 N 57.6459 0.756429 -1.3826 0
M  V30 602 C 58.8929 1.51547 -1.34312 0
M  V30 603 C 59.2209 1.94382 0.0677144 0
M  V30 604 O 58.4759 1.65514 1.04421 0
M  V30 605 C 58.7749 2.78313 -2.24224 0
M  V30 606 C 58.4409 2.54455 -3.72241 0
M  V30 607 C 57.1029 2.47657 -4.12576 0
M  V30 608 C 59.4549 2.3354 -4.65949 0
M  V30 609 C 56.7829 2.17956 -5.44713 0
M  V30 610 C 59.1349 2.05359 -5.9834 0
M  V30 611 C 57.7989 1.97016 -6.37762 0
M  V30 612 H 57.0689 0.55455 -0.491482 0
M  V30 613 H 59.7159 0.870039 -1.70595 0
M  V30 614 H 58.0209 3.47492 -1.80987 0
M  V30 615 H 59.7179 3.36259 -2.18474 0
M  V30 616 H 56.3079 2.60616 -3.40261 0
M  V30 617 H 60.4919 2.37772 -4.35635 0
M  V30 618 H 55.7479 2.10003 -5.74203 0
M  V30 619 H 59.9219 1.88179 -6.70494 0
M  V30 620 H 57.5489 1.73766 -7.40074 0
M  V30 621 N 59.124 1.23083 0.984299 0
M  V30 622 C 60.072 1.00593 2.09723 0
M  V30 623 C 61.066 -0.0538014 1.69315 0
M  V30 624 O 62.272 0.0993719 1.79725 0
M  V30 625 H 58.647 0.30817 0.685956 0
M  V30 626 H 60.618 1.95012 2.2586 0
M  V30 627 C 59.367 0.609601 3.42314 0
M  V30 628 H 58.69 1.41675 3.73856 0
M  V30 629 H 60.13 0.491726 4.21139 0
M  V30 630 C 58.589 -0.681745 3.2993 0
M  V30 631 O 59.119 -1.73192 3.62446 0
M  V30 632 N 57.325 -0.656178 2.83095 0
M  V30 633 H 56.872 0.198759 2.56832 0
M  V30 634 H 56.83 -1.52044 2.75191 0
M  V30 635 N 60.6021 -1.18246 1.0419 0
M  V30 636 C 61.8301 -1.92195 0.766072 0
M  V30 637 C 62.2451 -1.76247 -0.676933 0
M  V30 638 O 61.6021 -1.09293 -1.46155 0
M  V30 639 C 61.6531 -3.43568 1.12442 0
M  V30 640 O 61.3741 -3.59015 2.51078 0
M  V30 641 C 62.8751 -4.34613 0.873275 0
M  V30 642 H 60.0951 -0.610114 0.279288 0
M  V30 643 H 62.6391 -1.50007 1.38989 0
M  V30 644 H 60.7941 -3.8354 0.545542 0
M  V30 645 H 61.2081 -4.5273 2.64831 0
M  V30 646 H 62.6821 -5.39374 1.17385 0
M  V30 647 H 63.1591 -4.38781 -0.191909 0
M  V30 648 H 63.7651 -4.00341 1.43551 0
M  V30 649 N 62.0802 -0.821533 -1.34494 0
M  V30 650 C 63.3082 -0.421884 -2.02553 0
M  V30 651 C 63.7232 0.971745 -1.61872 0
M  V30 652 O 63.0802 1.62864 -0.823496 0
M  V30 653 C 63.1312 -0.51285 -3.57844 0
M  V30 654 O 62.8522 -1.85155 -3.97051 0
M  V30 655 C 64.3532 -0.107921 -4.43169 0
M  V30 656 H 61.5732 -0.169482 -0.649243 0
M  V30 657 H 64.1172 -1.1093 -1.71798 0
M  V30 658 H 62.2722 0.126474 -3.87193 0
M  V30 659 H 62.6862 -1.82482 -4.91732 0
M  V30 660 H 64.1602 -0.222657 -5.51551 0
M  V30 661 H 64.6372 0.948401 -4.28838 0
M  V30 662 H 65.2432 -0.720989 -4.19144 0
M  V30 663 N 63.5583 1.46682 -0.576371 0
M  V30 664 C 64.7833 2.07304 -0.0630475 0
M  V30 665 C 65.2083 1.42329 1.2298 0
M  V30 666 O 64.5663 0.504865 1.74129 0
M  V30 667 C 64.6143 3.60472 0.095895 0
M  V30 668 O 63.7183 3.95927 1.15394 0
M  V30 669 H 63.0593 0.661288 -0.0599463 0
M  V30 670 H 65.5893 1.88417 -0.797511 0
M  V30 671 H 65.5993 4.06865 0.304071 0
M  V30 672 H 64.2743 4.07157 -0.84828 0
M  V30 673 H 62.8513 3.61252 0.924724 0
M  V30 674 N 65.0364 0.313813 1.54444 0
M  V30 675 C 66.2664 -0.293491 2.04505 0
M  V30 676 C 66.6744 -1.47086 1.19005 0
M  V30 677 O 66.0174 -1.82481 0.211257 0
M  V30 678 C 66.0794 -0.800455 3.50475 0
M  V30 679 C 65.7434 0.253322 4.56297 0
M  V30 680 C 66.7404 1.08612 5.08428 0
M  V30 681 C 64.4254 0.398708 5.00715 0
M  V30 682 C 66.4194 2.05013 6.0353 0
M  V30 683 C 64.1064 1.36614 5.95634 0
M  V30 684 C 65.1044 2.19033 6.46926 0
M  V30 685 O 64.7924 3.14134 7.39983 0
M  V30 686 H 64.5244 -0.0658325 0.672787 0
M  V30 687 H 67.0784 0.455177 2.00293 0
M  V30 688 H 65.3084 -1.59987 3.52053 0
M  V30 689 H 66.9974 -1.32504 3.83663 0
M  V30 690 H 67.7634 0.984736 4.74898 0
M  V30 691 H 63.6424 -0.23289 4.60411 0
M  V30 692 H 67.1864 2.69382 6.4349 0
M  V30 693 H 63.0834 1.4682 6.28581 0
M  V30 694 H 63.8514 3.0926 7.57826 0
M  V30 695 N 66.5145 -1.57545 0.0417849 0
M  V30 696 C 67.4445 -2.14009 -0.933929 0
M  V30 697 C 68.4255 -1.05938 -1.33083 0
M  V30 698 O 69.6105 -1.33833 -1.40721 0
M  V30 699 C 66.7405 -2.67747 -2.21199 0
M  V30 700 C 65.6945 -3.80718 -1.95544 0
M  V30 701 C 65.0205 -4.20935 -3.29724 0
M  V30 702 C 66.3205 -5.06258 -1.28452 0
M  V30 703 H 68.0145 -2.95788 -0.463645 0
M  V30 704 H 65.5605 -1.42285 -0.221573 0
M  V30 705 H 67.5135 -3.05886 -2.89848 0
M  V30 706 H 66.2375 -1.83147 -2.70416 0
M  V30 707 H 64.8965 -3.43037 -1.2931 0
M  V30 708 H 64.5445 -3.33298 -3.76724 0
M  V30 709 H 64.2445 -4.9707 -3.13361 0
M  V30 710 H 65.7685 -4.61666 -3.9962 0
M  V30 711 H 67.1825 -5.41903 -1.8712 0
M  V30 712 H 65.5795 -5.87475 -1.22445 0
M  V30 713 H 66.6495 -4.84207 -0.259219 0
M  V30 714 N 67.9926 0.231505 -1.5589 0
M  V30 715 C 69.4086 0.580748 -1.48659 0
M  V30 716 C 69.6086 1.87617 -0.73498 0
M  V30 717 O 68.6646 2.51046 -0.270586 0
M  V30 718 C 69.9776 0.669202 -2.93159 0
M  V30 719 C 71.5256 0.760499 -3.03621 0
M  V30 720 C 72.0006 0.880383 -4.49459 0
M  V30 721 N 73.4916 0.944861 -4.53461 0
M  V30 722 C 74.2266 1.05716 -5.63571 0
M  V30 723 N 73.7226 1.13403 -6.83456 0
M  V30 724 N 75.5156 1.09152 -5.514 0
M  V30 725 H 67.6666 -0.618695 -2.03189 0
M  V30 726 H 69.9296 -0.215728 -0.923128 0
M  V30 727 H 69.6356 -0.212904 -3.51055 0
M  V30 728 H 69.5096 1.5361 -3.44505 0
M  V30 729 H 71.8966 1.63305 -2.45796 0
M  V30 730 H 71.9776 -0.131864 -2.5546 0
M  V30 731 H 71.6216 0.0123284 -5.07899 0
M  V30 732 H 71.5516 1.78802 -4.95316 0
M  V30 733 H 74.0426 0.896176 -3.6712 0
M  V30 734 H 74.3556 1.21921 -7.63122 0
M  V30 735 H 72.7006 1.10333 -6.86186 0
M  V30 736 H 75.8916 1.02805 -4.56671 0
M  V30 737 H 76.0646 1.17558 -6.37247 0
M  V30 738 N 69.4707 1.49531 0.497807 0
M  V30 739 C 70.8817 1.52344 1.07927 0
M  V30 740 C 71.2327 0.311469 1.93712 0
M  V30 741 O 70.3577 -0.578405 2.08527 0
M  V30 742 C 70.9527 2.76062 1.96405 0
M  V30 743 C 69.5117 2.81643 2.49709 0
M  V30 744 C 68.6587 2.46299 1.27404 0
M  V30 745 H 71.6097 1.56182 0.281576 0
M  V30 746 H 71.6307 2.56405 2.81135 0
M  V30 747 H 71.1427 3.64254 1.33943 0
M  V30 748 H 69.2437 1.97739 3.15801 0
M  V30 749 H 69.3567 3.83891 2.86643 0
M  V30 750 H 67.7207 1.98148 1.60029 0
M  V30 751 H 68.5037 3.36769 0.66645 0
M  V30 752 N 70.9488 -0.749086 1.3866 0
M  V30 753 C 72.3648 -1.05276 1.19955 0
M  V30 754 C 72.5648 -2.01435 0.05134 0
M  V30 755 O 71.6208 -2.45232 -0.60147 0
M  V30 756 C 72.9338 -1.62853 2.52783 0
M  V30 757 C 74.4818 -1.75002 2.59506 0
M  V30 758 C 74.9568 -2.35991 3.92521 0
M  V30 759 N 76.4478 -2.43416 3.94085 0
M  V30 760 C 77.1828 -2.91511 4.9377 0
M  V30 761 N 76.6788 -3.39608 6.03853 0
M  V30 762 N 78.4718 -2.90592 4.81157 0
M  V30 763 H 70.6228 -0.111066 2.12109 0
M  V30 764 H 72.8858 -0.111901 0.941373 0
M  V30 765 H 72.5918 -0.99664 3.37283 0
M  V30 766 H 72.4658 -2.61854 2.715 0
M  V30 767 H 74.8528 -2.37317 1.75398 0
M  V30 768 H 74.9338 -0.74693 2.44652 0
M  V30 769 H 74.5778 -1.74308 4.77053 0
M  V30 770 H 74.5078 -3.3695 4.04688 0
M  V30 771 H 76.9988 -2.09405 3.14576 0
M  V30 772 H 77.3118 -3.74775 6.75843 0
M  V30 773 H 75.6568 -3.37653 6.07466 0
M  V30 774 H 78.8478 -2.52332 3.94267 0
M  V30 775 H 79.0208 -3.27762 5.58996 0
M  V30 776 N 72.4269 -1.23603 -0.977757 0
M  V30 777 C 73.3369 -1.03632 -2.1047 0
M  V30 778 C 74.3529 0.0199435 -1.73989 0
M  V30 779 O 75.5289 -0.176076 -2.00629 0
M  V30 780 C 72.5939 -0.63276 -3.40877 0
M  V30 781 C 71.6549 -1.76437 -3.91367 0
M  V30 782 C 70.8879 -1.37997 -5.15551 0
M  V30 783 O 71.1109 -0.265357 -5.69782 0
M  V30 784 O 70.0449 -2.20201 -5.60174 0
M  V30 785 H 73.8709 -1.98086 -2.30208 0
M  V30 786 H 71.4559 -1.02332 -1.08851 0
M  V30 787 H 73.3379 -0.418761 -4.19314 0
M  V30 788 H 72.0129 0.282754 -3.22463 0
M  V30 789 H 70.9199 -2.03304 -3.14036 0
M  V30 790 H 72.2529 -2.6583 -4.14241 0
M  V30 791 N 73.905 1.17692 -1.04816 0
M  V30 792 C 75.151 1.88137 -0.75711 0
M  V30 793 C 75.484 1.80604 0.713841 0
M  V30 794 O 74.759 1.21146 1.52164 0
M  V30 795 C 75.042 3.38318 -1.2334 0
M  V30 796 C 74.895 3.54622 -2.76701 0
M  V30 797 C 76.214 4.32214 -0.829415 0
M  V30 798 H 73.333 0.683163 -0.27651 0
M  V30 799 H 75.975 1.38424 -1.30149 0
M  V30 800 H 74.125 3.80787 -0.770286 0
M  V30 801 H 75.797 3.21194 -3.31107 0
M  V30 802 H 74.04 2.97026 -3.16161 0
M  V30 803 H 74.711 4.60028 -3.05088 0
M  V30 804 H 77.187 3.97565 -1.22805 0
M  V30 805 H 76.063 5.35838 -1.19033 0
M  V30 806 H 76.324 4.41294 0.266891 0
M  V30 807 N 75.3831 0.828654 1.34056 0
M  V30 808 C 76.3151 0.212052 2.28217 0
M  V30 809 C 77.3281 -0.601362 1.51286 0
M  V30 810 O 78.5171 -0.430104 1.73241 0
M  V30 811 C 75.6171 -0.72088 3.31144 0
M  V30 812 C 74.7901 0.0509587 4.3737 0
M  V30 813 C 73.8491 -0.803766 5.20025 0
M  V30 814 O 72.8751 -0.246667 5.68665 0
M  V30 815 N 74.0771 -2.1227 5.40298 0
M  V30 816 H 76.8421 1.02105 2.81771 0
M  V30 817 H 74.4031 0.686153 1.46641 0
M  V30 818 H 76.3951 -1.29742 3.8334 0
M  V30 819 H 74.9651 -1.43061 2.77943 0
M  V30 820 H 74.1851 0.808831 3.85813 0
M  V30 821 H 75.4731 0.582065 5.0546 0
M  V30 822 H 74.8711 -2.59898 5.02464 0
M  V30 823 H 73.4281 -2.64796 5.95589 0
M  V30 824 N 76.8612 -1.46375 0.584142 0
M  V30 825 C 78.1072 -2.02678 0.0703716 0
M  V30 826 C 78.4402 -1.4545 -1.28678 0
M  V30 827 O 77.7152 -0.62014 -1.84349 0
M  V30 828 C 77.9982 -3.60099 0.00614674 0
M  V30 829 C 77.8512 -4.27709 1.3923 0
M  V30 830 C 79.1702 -4.34598 -0.693742 0
M  V30 831 H 76.2892 -0.736504 0.027047 0
M  V30 832 H 78.9312 -1.74501 0.751615 0
M  V30 833 H 77.0812 -3.84236 -0.574009 0
M  V30 834 H 78.7532 -4.14832 2.01773 0
M  V30 835 H 76.9962 -3.87016 1.95962 0
M  V30 836 H 77.6672 -5.36478 1.29982 0
M  V30 837 H 80.1432 -4.15615 -0.200869 0
M  V30 838 H 79.0192 -5.44318 -0.707714 0
M  V30 839 H 79.2802 -4.05759 -1.75533 0
M  V30 840 N 78.3393 -0.321999 -1.54275 0
M  V30 841 C 79.7553 0.0306999 -1.5957 0
M  V30 842 C 79.9553 1.50614 -1.33857 0
M  V30 843 O 79.0113 2.2619 -1.12223 0
M  V30 844 C 80.3243 -0.386122 -2.98211 0
M  V30 845 C 81.8723 -0.336647 -3.11184 0
M  V30 846 C 82.3473 -0.728607 -4.52167 0
M  V30 847 N 83.8383 -0.681952 -4.58152 0
M  V30 848 C 84.5733 -0.957449 -5.6535 0
M  V30 849 N 84.0693 -1.3 -6.80494 0
M  V30 850 N 85.8623 -0.883113 -5.55119 0
M  V30 851 H 78.0133 -1.28332 -1.69247 0
M  V30 852 H 80.2763 -0.521716 -0.791528 0
M  V30 853 H 79.9823 -1.41404 -3.22022 0
M  V30 854 H 79.8563 0.249662 -3.76373 0
M  V30 855 H 82.2433 0.682058 -2.8711 0
M  V30 856 H 82.3243 -1.00734 -2.3513 0
M  V30 857 H 81.9683 -1.74522 -4.76974 0
M  V30 858 H 81.8983 -0.0356152 -5.26588 0
M  V30 859 H 84.3893 -0.428985 -3.75457 0
M  V30 860 H 84.7023 -1.49563 -7.58189 0
M  V30 861 H 83.0473 -1.33824 -6.81994 0
M  V30 862 H 86.2383 -0.615001 -4.64042 0
M  V30 863 H 86.4113 -1.10118 -6.38575 0
M  V30 864 N 79.8174 1.5752 -0.0501392 0
M  V30 865 C 80.7274 2.14952 0.939827 0
M  V30 866 C 81.7434 1.10706 1.34239 0
M  V30 867 O 82.9194 1.42869 1.41952 0
M  V30 868 C 79.9844 2.68232 2.19665 0
M  V30 869 C 79.0454 3.87272 1.85253 0
M  V30 870 C 78.2784 4.38002 3.04943 0
M  V30 871 O 78.5014 3.87811 4.18281 0
M  V30 872 O 77.4354 5.29602 2.86017 0
M  V30 873 H 81.2614 2.9986 0.481392 0
M  V30 874 H 78.8464 1.4841 0.171699 0
M  V30 875 H 80.7284 3.02475 2.93406 0
M  V30 876 H 79.4034 1.86395 2.64648 0
M  V30 877 H 78.3104 3.5792 1.0883 0
M  V30 878 H 79.6434 4.70336 1.4507 0
M  V30 879 N 81.2955 -0.223234 1.56011 0
M  V30 880 C 82.5425 -0.947875 1.78946 0
M  V30 881 C 82.8705 -1.844 0.618608 0
M  V30 882 O 82.1255 -1.91629 -0.397093 0
M  V30 883 C 82.4245 -1.81948 3.0762 0
M  V30 884 C 82.0905 -1.07672 4.37856 0
M  V30 885 C 80.7525 -0.871544 4.73242 0
M  V30 886 C 83.1045 -0.552081 5.18268 0
M  V30 887 C 80.4325 -0.129791 5.86556 0
M  V30 888 C 82.7845 0.17632 6.32354 0
M  V30 889 C 81.4485 0.39277 6.66343 0
M  V30 890 H 80.7185 -0.346852 0.654809 0
M  V30 891 H 83.3655 -0.216171 1.90276 0
M  V30 892 H 81.6705 -2.61899 2.91404 0
M  V30 893 H 83.3675 -2.38227 3.22566 0
M  V30 894 H 79.9575 -1.24662 4.1007 0
M  V30 895 H 84.1415 -0.698076 4.91366 0
M  V30 896 H 79.3975 0.048153 6.11381 0
M  V30 897 H 83.5715 0.590367 6.93893 0
M  V30 898 H 81.1985 0.969466 7.53993 0
M  V30 899 N 82.7736 -1.49793 -0.48987 0
M  V30 900 C 83.6836 -1.70036 -1.61632 0
M  V30 901 C 84.6996 -0.583102 -1.63939 0
M  V30 902 O 85.8756 -0.859169 -1.82154 0
M  V30 903 C 82.9406 -1.77277 -2.97949 0
M  V30 904 C 82.0016 -3.00918 -3.06181 0
M  V30 905 C 81.2346 -3.07804 -4.35996 0
M  V30 906 O 81.4576 -2.21982 -5.25433 0
M  V30 907 O 80.3916 -4.00369 -4.49431 0
M  V30 908 H 84.2176 -2.65486 -1.47482 0
M  V30 909 H 81.8026 -1.33666 -0.667362 0
M  V30 910 H 83.6846 -1.84329 -3.78947 0
M  V30 911 H 82.3596 -0.850076 -3.12339 0
M  V30 912 H 81.2666 -2.99377 -2.2433 0
M  V30 913 H 82.5996 -3.92704 -2.96723 0
M  V30 914 N 84.2517 0.741722 -1.39055 0
M  V30 915 C 85.4977 1.50336 -1.36113 0
M  V30 916 C 85.8307 1.94148 0.0450796 0
M  V30 917 O 85.1057 1.66301 1.00868 0
M  V30 918 C 85.3887 2.74773 -2.32749 0
M  V30 919 C 85.2417 2.37023 -3.82283 0
M  V30 920 C 86.5607 3.76846 -2.27322 0
M  V30 921 H 83.6797 0.545351 -0.495743 0
M  V30 922 H 86.3217 0.848624 -1.69995 0
M  V30 923 H 84.4717 3.30639 -2.03986 0
M  V30 924 H 86.1437 1.8684 -4.21768 0
M  V30 925 H 84.3867 1.69334 -3.99385 0
M  V30 926 H 85.0577 3.26104 -4.45376 0
M  V30 927 H 87.5337 3.30548 -2.5274 0
M  V30 928 H 86.4097 4.6159 -2.97028 0
M  V30 929 H 86.6707 4.23286 -1.27599 0
M  V30 930 N 85.7298 1.2412 0.971189 0
M  V30 931 C 86.6598 1.05508 2.08304 0
M  V30 932 C 87.6408 -0.0308864 1.70072 0
M  V30 933 O 88.8258 0.135521 1.93727 0
M  V30 934 C 85.9558 0.655365 3.4106 0
M  V30 935 C 84.9098 1.68971 3.93234 0
M  V30 936 C 84.2358 1.14516 5.22293 0
M  V30 937 C 85.5358 3.08487 4.21465 0
M  V30 938 H 87.2298 1.98507 2.24132 0
M  V30 939 H 84.7758 0.955821 1.07704 0
M  V30 940 H 86.7288 0.51217 4.18276 0
M  V30 941 H 85.4528 -0.31032 3.25122 0
M  V30 942 H 84.1118 1.82106 3.18171 0
M  V30 943 H 83.7598 0.170189 5.02712 0
M  V30 944 H 83.4598 1.83635 5.58168 0
M  V30 945 H 84.9838 1.01401 6.02121 0
M  V30 946 H 86.3978 2.98601 4.89398 0
M  V30 947 H 84.7948 3.74926 4.68562 0
M  V30 948 H 85.8648 3.56787 3.28376 0
M  V30 949 N 87.2079 -1.17134 1.05439 0
M  V30 950 C 88.6239 -1.39454 0.776201 0
M  V30 951 C 88.8239 -1.91454 -0.628307 0
M  V30 952 O 87.8799 -2.10777 -1.39031 0
M  V30 953 C 89.1929 -2.38305 1.83388 0
M  V30 954 C 90.7409 -2.52006 1.85639 0
M  V30 955 C 91.2159 -3.54133 2.90437 0
M  V30 956 N 92.7069 -3.61653 2.89415 0
M  V30 957 C 93.4419 -4.4044 3.67152 0
M  V30 958 N 92.9379 -5.22721 4.54681 0
M  V30 959 N 94.7309 -4.35337 3.55581 0
M  V30 960 H 86.8819 -0.817134 1.96053 0
M  V30 961 H 89.1449 -0.421626 0.849079 0
M  V30 962 H 88.8509 -2.07173 2.84204 0
M  V30 963 H 88.7249 -3.37841 1.67761 0
M  V30 964 H 91.1119 -2.82447 0.85486 0
M  V30 965 H 91.1929 -1.52537 2.05344 0
M  V30 966 H 90.8369 -3.24431 3.90777 0
M  V30 967 H 90.7669 -4.53313 2.67983 0
M  V30 968 H 93.2579 -3.02909 2.25952 0
M  V30 969 H 93.5709 -5.80027 5.10674 0
M  V30 970 H 91.9159 -5.22093 4.58741 0
M  V30 971 H 95.1069 -3.70112 2.86592 0
M  V30 972 H 95.2799 -4.96494 4.1641 0
M  V30 973 N 88.686 -0.835752 -1.33615 0
M  V30 974 C 89.633 -0.26473 -2.29277 0
M  V30 975 C 90.603 0.617712 -1.54187 0
M  V30 976 O 91.788 0.556641 -1.825 0
M  V30 977 C 88.928 0.556777 -3.40579 0
M  V30 978 C 88.041 -0.349339 -4.30585 0
M  V30 979 C 87.176 0.482969 -5.29 0
M  V30 980 C 86.215 -0.421732 -6.10645 0
M  V30 981 N 85.352 0.372262 -7.01112 0
M  V30 982 H 90.192 -1.08582 -2.77514 0
M  V30 983 H 87.729 -0.546927 -1.36554 0
M  V30 984 H 89.687 1.04852 -4.03809 0
M  V30 985 H 88.317 1.34286 -2.93542 0
M  V30 986 H 87.369 -0.959372 -3.68104 0
M  V30 987 H 88.681 -1.04445 -4.87742 0
M  V30 988 H 87.835 1.03866 -5.97743 0
M  V30 989 H 86.574 1.21153 -4.72412 0
M  V30 990 H 85.579 -0.989464 -5.40823 0
M  V30 991 H 86.804 -1.14861 -6.69316 0
M  V30 992 H 84.75 1.08426 -6.46977 0
M  V30 993 H 84.667 -0.264198 -7.55538 0
M  V30 994 H 85.935 0.910293 -7.74167 0
M  V30 995 N 90.1641 1.46063 -0.591896 0
M  V30 996 C 91.0941 2.33172 0.123673 0
M  V30 997 C 92.0751 1.45897 0.87453 0
M  V30 998 O 93.2601 1.74698 0.848181 0
M  V30 999 C 90.3901 3.28336 1.13194 0
M  V30 1000 C 89.3441 4.25124 0.495324 0
M  V30 1001 C 88.6701 5.09863 1.61071 0
M  V30 1002 C 89.9701 5.19143 -0.573425 0
M  V30 1003 H 91.6641 2.93252 -0.603646 0
M  V30 1004 H 89.2101 1.41014 -0.291741 0
M  V30 1005 H 91.1631 3.88137 1.64097 0
M  V30 1006 H 89.8871 2.66383 1.88965 0
M  V30 1007 H 88.5461 3.66599 0.00729452 0
M  V30 1008 H 88.1941 4.44288 2.35832 0
M  V30 1009 H 87.8941 5.75417 1.19035 0
M  V30 1010 H 89.4181 5.72529 2.12233 0
M  V30 1011 H 90.8321 5.73106 -0.1491 0
M  V30 1012 H 89.2291 5.93089 -0.914636 0
M  V30 1013 H 90.2991 4.62519 -1.45617 0
M  V30 1014 N 91.6422 0.330177 1.54103 0
M  V30 1015 C 92.5902 -0.548226 2.26047 0
M  V30 1016 C 93.5842 -1.11309 1.27698 0
M  V30 1017 O 94.7902 -1.06036 1.45452 0
M  V30 1018 H 91.1652 -0.195456 0.726155 0
M  V30 1019 H 93.1362 0.0807567 2.98291 0
M  V30 1020 C 91.8852 -1.69415 3.03634 0
M  V30 1021 H 91.2082 -1.26876 3.79134 0
M  V30 1022 H 92.6482 -2.28423 3.5721 0
M  V30 1023 C 91.1072 -2.61569 2.12328 0
M  V30 1024 O 91.6372 -3.63462 1.7105 0
M  V30 1025 N 89.8432 -2.29952 1.77681 0
M  V30 1026 H 89.3902 -1.47134 2.11446 0
M  V30 1027 H 89.3482 -2.91871 1.16869 0
M  V30 1028 N 93.1203 -1.57491 0.0584922 0
M  V30 1029 C 94.0703 -2.08474 -0.923188 0
M  V30 1030 C 95.0543 -0.991479 -1.26722 0
M  V30 1031 O 96.2463 -1.25473 -1.24842 0
M  V30 1032 C 93.3753 -2.6392 -2.19548 0
M  V30 1033 C 92.4613 -3.80227 -1.87852 0
M  V30 1034 N 92.8523 -4.89714 -1.26546 0
M  V30 1035 C 91.1503 -3.89271 -2.17679 0
M  V30 1036 C 91.8513 -5.70689 -1.12644 0
M  V30 1037 N 90.8273 -5.18531 -1.63176 0
M  V30 1038 H 94.6293 -2.90517 -0.444653 0
M  V30 1039 H 92.1433 -1.61745 -0.145764 0
M  V30 1040 H 94.1403 -2.98752 -2.9078 0
M  V30 1041 H 92.8003 -1.83318 -2.68001 0
M  V30 1042 H 93.8113 -5.09358 -0.936757 0
M  V30 1043 H 90.4883 -3.19623 -2.68602 0
M  V30 1044 H 91.8783 -6.6875 -0.6499 0
M  V30 1045 N 94.5984 0.214957 -1.56127 0
M  V30 1046 C 95.5304 1.29004 -1.89448 0
M  V30 1047 C 96.5434 1.42716 -0.783326 0
M  V30 1048 O 97.7324 1.43496 -1.06166 0
M  V30 1049 C 94.8324 2.66482 -2.09381 0
M  V30 1050 C 94.0054 2.74633 -3.40434 0
M  V30 1051 C 93.0644 3.9317 -3.49719 0
M  V30 1052 O 92.0904 3.812 -4.227 0
M  V30 1053 N 93.2924 5.07765 -2.81346 0
M  V30 1054 H 96.0574 1.00743 -2.82261 0
M  V30 1055 H 93.6184 0.40497 -1.56753 0
M  V30 1056 H 95.6104 3.44173 -2.12901 0
M  V30 1057 H 94.1804 2.87314 -1.23163 0
M  V30 1058 H 93.4004 1.83368 -3.48955 0
M  V30 1059 H 94.6884 2.77054 -4.26754 0
M  V30 1060 H 94.0864 5.20386 -2.21843 0
M  V30 1061 H 92.6434 5.83474 -2.90519 0
M  V30 1062 N 96.0765 1.50051 0.48192 0
M  V30 1063 C 97.0245 1.68635 1.60203 0
M  V30 1064 C 98.0185 0.552184 1.60148 0
M  V30 1065 O 99.2245 0.732377 1.64427 0
M  V30 1066 H 95.5995 0.532081 0.531407 0
M  V30 1067 H 97.5705 2.62616 1.41688 0
M  V30 1068 C 96.3195 1.78775 2.9822 0
M  V30 1069 H 95.6425 2.6543 2.98976 0
M  V30 1070 H 97.0825 1.95806 3.7608 0
M  V30 1071 C 95.5415 0.536849 3.32595 0
M  V30 1072 O 96.0715 -0.328897 4.00351 0
M  V30 1073 N 94.2775 0.394091 2.87915 0
M  V30 1074 H 93.8245 1.09962 2.32951 0
M  V30 1075 H 93.7825 -0.441737 3.11281 0
M  V30 1076 N 97.5546 -0.734337 1.39446 0
M  V30 1077 C 98.8036 -1.48937 1.36017 0
M  V30 1078 C 99.1166 -1.95557 -0.0409005 0
M  V30 1079 O 100.323 -2.70779 -0.19778 0
M  V30 1080 C 98.7786 -2.69125 2.38955 0
M  V30 1081 C 98.3866 -2.29452 3.8478 0
M  V30 1082 C 100.131 -3.46944 2.44603 0
M  V30 1083 C 98.0376 -3.46366 4.79358 0
M  V30 1084 H 96.9676 -0.559296 0.505672 0
M  V30 1085 H 99.6186 -0.800983 1.65095 0
M  V30 1086 H 98.0006 -3.40041 2.02948 0
M  V30 1087 H 99.1746 -1.66077 4.29831 0
M  V30 1088 H 97.4896 -1.64723 3.82433 0
M  V30 1089 H 100.087 -4.33907 3.12456 0
M  V30 1090 H 100.43 -3.89454 1.47076 0
M  V30 1091 H 100.963 -2.83056 2.79507 0
M  V30 1092 H 97.7016 -3.08905 5.78151 0
M  V30 1093 H 97.2216 -4.08719 4.38986 0
M  V30 1094 H 98.9006 -4.12691 4.98292 0
M  V30 1095 N 99.0327 -1.24633 -0.964593 0
M  V30 1096 C 100.279 -1.08949 -1.71049 0
M  V30 1097 C 100.612 0.370302 -1.90637 0
M  V30 1098 O 99.8867 1.27349 -1.47011 0
M  V30 1099 C 100.17 -1.83329 -3.0994 0
M  V30 1100 C 100.023 -3.37077 -2.97824 0
M  V30 1101 C 101.342 -1.60846 -4.09654 0
M  V30 1102 H 98.4607 -0.397178 -0.620821 0
M  V30 1103 H 101.103 -1.5334 -1.12191 0
M  V30 1104 H 99.2527 -1.45597 -3.60186 0
M  V30 1105 H 100.925 -3.84425 -2.5498 0
M  V30 1106 H 99.1677 -3.65298 -2.33965 0
M  V30 1107 H 99.8387 -3.84324 -3.96231 0
M  V30 1108 H 102.315 -1.93674 -3.68279 0
M  V30 1109 H 101.191 -2.1534 -5.04896 0
M  V30 1110 H 101.452 -0.547434 -4.38698 0
M  V30 1111 N 100.511 1.16574 -1.06058 0
M  V30 1112 C 101.458 2.20883 -0.669263 0
M  V30 1113 C 102.428 1.62729 0.332918 0
M  V30 1114 O 103.613 1.895 0.222346 0
M  V30 1115 C 100.753 3.45049 -0.0593572 0
M  V30 1116 C 99.8658 4.17458 -1.11143 0
M  V30 1117 C 99.0008 5.29135 -0.467916 0
M  V30 1118 C 98.0398 5.93343 -1.50369 0
M  V30 1119 N 97.1768 6.96516 -0.883706 0
M  V30 1120 H 102.017 2.53709 -1.5632 0
M  V30 1121 H 99.5538 1.24616 -0.781625 0
M  V30 1122 H 101.512 4.16033 0.311771 0
M  V30 1123 H 100.142 3.12781 0.797992 0
M  V30 1124 H 99.1938 3.45101 -1.60029 0
M  V30 1125 H 100.506 4.61307 -1.89731 0
M  V30 1126 H 99.6598 6.06684 -0.0436871 0
M  V30 1127 H 98.3988 4.86443 0.349864 0
M  V30 1128 H 97.4038 5.14517 -1.93784 0
M  V30 1129 H 98.6288 6.38114 -2.32352 0
M  V30 1130 H 96.5748 6.55943 -0.086595 0
M  V30 1131 H 96.4918 7.38723 -1.607 0
M  V30 1132 H 97.7598 7.77993 -0.484543 0
M  V30 1133 N 101.989 0.842826 1.3317 0
M  V30 1134 C 102.919 0.294028 2.31641 0
M  V30 1135 C 103.9 -0.600401 1.59151 0
M  V30 1136 O 105.085 -0.523124 1.87022 0
M  V30 1137 C 102.215 -0.528416 3.43257 0
M  V30 1138 C 101.169 0.27056 4.27144 0
M  V30 1139 C 100.495 -0.675881 5.30411 0
M  V30 1140 C 101.795 1.48981 5.00602 0
M  V30 1141 H 103.489 1.11681 2.77791 0
M  V30 1142 H 101.035 0.538478 1.33553 0
M  V30 1143 H 102.988 -0.922674 4.11175 0
M  V30 1144 H 101.712 -1.38445 2.95805 0
M  V30 1145 H 100.371 0.646427 3.60856 0
M  V30 1146 H 100.019 -1.52842 4.79216 0
M  V30 1147 H 99.7189 -0.145374 5.8742 0
M  V30 1148 H 101.243 -1.06757 6.01195 0
M  V30 1149 H 102.657 1.16849 5.61266 0
M  V30 1150 H 101.054 1.95739 5.6728 0
M  V30 1151 H 102.124 2.25746 4.29147 0
M  V30 1152 N 103.467 -1.45747 0.599634 0
M  V30 1153 C 104.714 -2.02292 0.0917284 0
M  V30 1154 C 105.042 -1.46906 -1.27472 0
M  V30 1155 O 104.297 -0.630652 -1.8526 0
M  V30 1156 C 104.596 -3.57399 -0.00602758 0
M  V30 1157 C 104.262 -4.31902 1.29503 0
M  V30 1158 C 102.924 -4.51974 1.65144 0
M  V30 1159 C 105.276 -4.74551 2.15525 0
M  V30 1160 C 102.604 -5.11949 2.86574 0
M  V30 1161 C 104.956 -5.35868 3.36196 0
M  V30 1162 C 103.62 -5.54165 3.72099 0
M  V30 1163 H 102.89 -0.740239 0.0335658 0
M  V30 1164 H 105.537 -1.7491 0.779661 0
M  V30 1165 H 103.842 -3.84014 -0.777183 0
M  V30 1166 H 105.539 -3.98846 -0.415038 0
M  V30 1167 H 102.129 -4.16588 1.00761 0
M  V30 1168 H 106.313 -4.58784 1.8929 0
M  V30 1169 H 101.569 -5.24305 3.14507 0
M  V30 1170 H 105.743 -5.6787 4.03109 0
M  V30 1171 H 103.37 -6.00406 4.6628 0
M  V30 1172 N 104.945 -0.338344 -1.53925 0
M  V30 1173 C 105.908 0.508299 -2.23493 0
M  V30 1174 C 106.908 1.03175 -1.23335 0
M  V30 1175 O 108.098 0.921826 -1.47811 0
M  V30 1176 C 105.23 1.70754 -2.95052 0
M  V30 1177 H 106.423 -0.100058 -2.99733 0
M  V30 1178 H 103.976 -0.0896198 -1.56043 0
M  V30 1179 H 104.711 2.35474 -2.22986 0
M  V30 1180 H 104.496 1.33946 -3.68512 0
M  V30 1181 H 105.986 2.30818 -3.48013 0
M  V30 1182 N 106.423 1.57458 -0.0668435 0
M  V30 1183 C 107.669 1.93587 0.6043 0
M  V30 1184 C 108.002 0.946722 1.69561 0
M  V30 1185 O 107.277 -0.0248516 1.94484 0
M  V30 1186 C 107.56 3.40014 1.18585 0
M  V30 1187 C 107.413 4.49685 0.101529 0
M  V30 1188 C 108.732 3.87154 2.09284 0
M  V30 1189 H 105.851 0.703958 0.218202 0
M  V30 1190 H 108.493 1.89542 -0.131804 0
M  V30 1191 H 106.643 3.43592 1.81319 0
M  V30 1192 H 108.315 4.5823 -0.531279 0
M  V30 1193 H 106.558 4.30059 -0.568487 0
M  V30 1194 H 107.229 5.49266 0.54874 0
M  V30 1195 H 109.705 3.85551 1.56491 0
M  V30 1196 H 108.581 4.90231 2.46911 0
M  V30 1197 H 108.842 3.2481 2.99918 0
M  V30 1198 N 107.901 -0.206675 1.56239 0
M  V30 1199 C 108.811 -1.27686 1.96808 0
M  V30 1200 C 109.827 -1.50455 0.874035 0
M  V30 1201 O 111.003 -1.63295 1.17884 0
M  V30 1202 C 108.068 -2.60358 2.28942 0
M  V30 1203 C 107.129 -2.45762 3.51994 0
M  V30 1204 C 106.362 -3.72108 3.82585 0
M  V30 1205 O 106.585 -4.75776 3.14631 0
M  V30 1206 O 105.519 -3.6833 4.76043 0
M  V30 1207 H 109.345 -0.962593 2.88041 0
M  V30 1208 H 106.93 -0.410746 1.43643 0
M  V30 1209 H 108.812 -3.38687 2.50737 0
M  V30 1210 H 107.487 -2.91435 1.4088 0
M  V30 1211 H 106.394 -1.65584 3.35459 0
M  V30 1212 H 107.727 -2.19621 4.40486 0
M  V30 1213 N 109.379 -1.50304 -0.473955 0
M  V30 1214 C 110.289 -1.7174 -1.5982 0
M  V30 1215 C 111.305 -0.600457 -1.63311 0
M  V30 1216 O 112.481 -0.878441 -1.81233 0
M  V30 1217 C 109.546 -1.80427 -2.96052 0
M  V30 1218 C 108.607 -3.04148 -3.02972 0
M  V30 1219 C 107.84 -3.12411 -4.32706 0
M  V30 1220 O 108.063 -2.27542 -5.23049 0
M  V30 1221 O 106.997 -4.05113 -4.45159 0
M  V30 1222 H 110.823 -2.67035 -1.44657 0
M  V30 1223 H 108.408 -1.34366 -0.653148 0
M  V30 1224 H 110.29 -1.88338 -3.7697 0
M  V30 1225 H 108.965 -0.883156 -3.11419 0
M  V30 1226 H 107.872 -3.0174 -2.21142 0
M  V30 1227 H 109.205 -3.95829 -2.92541 0
M  V30 1228 N 110.857 0.726932 -1.39834 0
M  V30 1229 C 112.085 1.51613 -1.40787 0
M  V30 1230 C 112.5 1.88799 -0.00451505 0
M  V30 1231 O 111.857 1.54662 0.968809 0
M  V30 1232 C 111.908 2.79863 -2.28821 0
M  V30 1233 O 111.629 2.44253 -3.63692 0
M  V30 1234 C 113.13 3.73837 -2.38245 0
M  V30 1235 H 110.35 0.468264 -0.480593 0
M  V30 1236 H 112.894 0.897607 -1.83748 0
M  V30 1237 H 111.049 3.38027 -1.89252 0
M  V30 1238 H 111.463 3.26695 -4.1033 0
M  V30 1239 H 112.937 4.60699 -3.04073 0
M  V30 1240 H 113.414 4.16153 -1.40403 0
M  V30 1241 H 114.02 3.21589 -2.78317 0
M  V30 1242 N 112.336 1.25143 0.95797 0
M  V30 1243 C 113.584 1.09476 1.69881 0
M  V30 1244 C 113.905 -0.365502 1.91544 0
M  V30 1245 O 113.175 -1.25985 1.50015 0
M  V30 1246 H 111.755 0.402128 0.629525 0
M  V30 1247 H 114.417 1.57214 1.15194 0
M  V30 1248 H 113.513 1.60046 2.6794 0
M  V30 1249 N 113.814 -1.1601 1.06675 0
M  V30 1250 C 115.062 -1.86264 0.784229 0
M  V30 1251 C 115.383 -1.82328 -0.691488 0
M  V30 1252 O 114.653 -1.25947 -1.50047 0
M  V30 1253 H 113.233 -0.689621 0.28711 0
M  V30 1254 H 115.895 -1.40664 1.34906 0
M  V30 1255 H 114.991 -2.91595 1.11259 0
M  V30 1256 N 115.292 -0.849877 -1.32721 0
M  V30 1257 C 116.517 -0.463856 -2.02146 0
M  V30 1258 C 116.942 0.930449 -1.63476 0
M  V30 1259 O 116.3 1.61033 -0.832952 0
M  V30 1260 C 116.348 -0.604955 -3.55489 0
M  V30 1261 O 115.452 0.36425 -4.10788 0
M  V30 1262 H 114.793 -0.187046 -0.637111 0
M  V30 1263 H 117.323 -1.14775 -1.69375 0
M  V30 1264 H 117.333 -0.490696 -4.05038 0
M  V30 1265 H 116.008 -1.62174 -3.82978 0
M  V30 1266 H 114.585 0.206628 -3.72327 0
M  V30 1267 N 116.77 1.45427 -0.607355 0
M  V30 1268 C 118.186 1.57283 -0.270985 0
M  V30 1269 C 118.386 1.59875 1.22647 0
M  V30 1270 O 117.442 1.52893 2.00948 0
M  V30 1271 C 118.755 2.85566 -0.941952 0
M  V30 1272 C 120.303 2.9924 -0.917849 0
M  V30 1273 C 120.778 4.30293 -1.56882 0
M  V30 1274 N 122.269 4.37051 -1.5343 0
M  V30 1275 C 123.004 5.37123 -2.00715 0
M  V30 1276 N 122.5 6.43734 -2.56084 0
M  V30 1277 N 124.293 5.28479 -1.91484 0
M  V30 1278 H 116.444 1.41988 -1.57966 0
M  V30 1279 H 118.707 0.67885 -0.661715 0
M  V30 1280 H 118.413 2.8955 -1.99633 0
M  V30 1281 H 118.287 3.74322 -0.465096 0
M  V30 1282 H 120.674 2.94822 0.127984 0
M  V30 1283 H 120.755 2.11895 -1.43297 0
M  V30 1284 H 120.399 4.35469 -2.61398 0
M  V30 1285 H 120.329 5.16454 -1.02873 0
M  V30 1286 H 122.82 3.60615 -1.12982 0
M  V30 1287 H 123.133 7.16341 -2.89958 0
M  V30 1288 H 121.478 6.44485 -2.60122 0
M  V30 1289 H 124.669 4.44098 -1.47967 0
M  V30 1290 H 124.842 6.0632 -2.28648 0
M  V30 1291 N 118.248 0.346503 1.53744 0
M  V30 1292 C 119.18 -0.543316 2.22667 0
M  V30 1293 C 120.193 -1.06159 1.23427 0
M  V30 1294 O 121.382 -0.971235 1.49764 0
M  V30 1295 C 118.482 -1.76076 2.89569 0
M  V30 1296 C 117.655 -1.37727 4.15151 0
M  V30 1297 C 116.714 -2.45471 4.65436 0
M  V30 1298 O 115.74 -2.08655 5.29577 0
M  V30 1299 N 116.942 -3.7677 4.41616 0
M  V30 1300 H 119.707 0.0469703 2.99663 0
M  V30 1301 H 117.268 0.170766 1.60997 0
M  V30 1302 H 119.26 -2.47593 3.20125 0
M  V30 1303 H 117.83 -2.25835 2.16142 0
M  V30 1304 H 117.05 -0.492746 3.91108 0
M  V30 1305 H 118.338 -1.09708 4.96832 0
M  V30 1306 H 117.736 -4.09467 3.90325 0
M  V30 1307 H 116.293 -4.44448 4.7677 0
M  V30 1308 N 119.726 -1.57421 0.075193 0
M  V30 1309 C 120.673 -2.12915 -0.890843 0
M  V30 1310 C 121.643 -1.04252 -1.29309 0
M  V30 1311 O 122.828 -1.31933 -1.37834 0
M  V30 1312 C 119.968 -2.69795 -2.15186 0
M  V30 1313 C 119.081 -3.92624 -1.80194 0
M  V30 1314 C 118.216 -4.37736 -3.00933 0
M  V30 1315 C 117.255 -5.53205 -2.61974 0
M  V30 1316 N 116.392 -5.9326 -3.75483 0
M  V30 1317 H 121.232 -2.95156 -0.410735 0
M  V30 1318 H 118.769 -1.45854 -0.191086 0
M  V30 1319 H 120.727 -3.00883 -2.89008 0
M  V30 1320 H 119.357 -1.90313 -2.60731 0
M  V30 1321 H 118.409 -3.67977 -0.964218 0
M  V30 1322 H 119.721 -4.76482 -1.47534 0
M  V30 1323 H 118.875 -4.70503 -3.8303 0
M  V30 1324 H 117.614 -3.52739 -3.36789 0
M  V30 1325 H 116.619 -5.20086 -1.783 0
M  V30 1326 H 117.844 -6.39936 -2.27284 0
M  V30 1327 H 115.79 -5.11212 -4.11094 0
M  V30 1328 H 115.707 -6.71865 -3.46602 0
M  V30 1329 H 116.975 -6.30651 -4.58148 0
M  V30 1330 N 121.204 0.198386 -1.56346 0
M  V30 1331 C 122.45 0.920648 -1.80698 0
M  V30 1332 C 122.783 1.83045 -0.648697 0
M  V30 1333 O 122.058 1.91308 0.350925 0
M  V30 1334 C 122.341 1.73971 -3.15287 0
M  V30 1335 C 122.194 0.85485 -4.41602 0
M  V30 1336 C 123.513 2.71296 -3.46535 0
M  V30 1337 H 120.632 0.333261 -0.657348 0
M  V30 1338 H 123.274 0.188198 -1.89066 0
M  V30 1339 H 121.424 2.36416 -3.08285 0
M  V30 1340 H 123.096 0.245362 -4.60647 0
M  V30 1341 H 121.339 0.161398 -4.335 0
M  V30 1342 H 122.01 1.46286 -5.32264 0
M  V30 1343 H 124.486 2.18983 -3.53816 0
M  V30 1344 H 123.362 3.2569 -4.41834 0
M  V30 1345 H 123.623 3.5018 -2.69864 0
M  V30 1346 N 122.682 1.50554 0.465978 0
M  V30 1347 C 123.612 1.72722 1.57128 0
M  V30 1348 C 124.593 0.576294 1.6004 0
M  V30 1349 O 125.778 0.81598 1.76225 0
M  V30 1350 C 122.908 1.82605 2.95419 0
M  V30 1351 C 121.862 2.97835 3.07373 0
M  V30 1352 C 121.188 2.92867 4.47363 0
M  V30 1353 C 122.488 4.38265 2.84114 0
M  V30 1354 H 124.182 2.65267 1.38829 0
M  V30 1355 H 121.728 1.2765 0.666441 0
M  V30 1356 H 123.681 1.96698 3.72677 0
M  V30 1357 H 122.405 0.866858 3.14886 0
M  V30 1358 H 121.064 2.83401 2.3255 0
M  V30 1359 H 120.712 1.94783 4.63755 0
M  V30 1360 H 120.412 3.70227 4.56296 0
M  V30 1361 H 121.936 3.09015 5.26633 0
M  V30 1362 H 123.35 4.53198 3.51118 0
M  V30 1363 H 121.747 5.17115 3.04487 0
M  V30 1364 H 122.817 4.50281 1.7993 0
M  V30 1365 N 124.16 -0.719506 1.40217 0
M  V30 1366 C 125.406 -1.48152 1.38488 0
M  V30 1367 C 125.739 -1.94195 -0.0141867 0
M  V30 1368 O 125.014 -1.67884 -0.982096 0
M  V30 1369 C 125.297 -2.71035 2.37091 0
M  V30 1370 C 125.15 -2.30912 3.86005 0
M  V30 1371 C 126.469 -3.73182 2.33288 0
M  V30 1372 H 123.588 -0.537395 0.504357 0
M  V30 1373 H 126.23 -0.821472 1.71324 0
M  V30 1374 H 124.38 -3.27352 2.0922 0
M  V30 1375 H 126.052 -1.80107 4.24687 0
M  V30 1376 H 124.295 -1.62958 4.02029 0
M  V30 1377 H 124.966 -3.18978 4.50508 0
M  V30 1378 H 127.442 -3.26485 2.57966 0
M  V30 1379 H 126.318 -4.56806 3.04334 0
M  V30 1380 H 126.579 -4.21202 1.34317 0
M  V30 1381 N 125.638 -1.25649 -0.95132 0
M  V30 1382 C 126.571 -1.00644 -2.04807 0
M  V30 1383 C 127.549 0.0654271 -1.62468 0
M  V30 1384 O 128.733 -0.074911 -1.88351 0
M  V30 1385 C 125.86 -0.522052 -3.34653 0
M  V30 1386 C 124.906 -1.58495 -3.95957 0
M  V30 1387 S 125.739 -3.17108 -4.31512 0
M  V30 1388 C 126.895 -2.70412 -5.64471 0
M  V30 1389 H 127.128 -1.93508 -2.25703 0
M  V30 1390 H 124.661 -1.09216 -1.09139 0
M  V30 1391 H 126.619 -0.24923 -4.09743 0
M  V30 1392 H 125.28 0.386146 -3.11717 0
M  V30 1393 H 124.473 -1.1968 -4.89584 0
M  V30 1394 H 124.075 -1.80862 -3.2736 0
M  V30 1395 H 126.367 -2.14245 -6.42733 0
M  V30 1396 H 127.31 -3.62693 -6.08161 0
M  V30 1397 H 127.718 -2.10302 -5.23864 0
M  V30 1398 N 127.117 1.15442 -1.07289 0
M  V30 1399 C 128.027 2.23786 -0.704057 0
M  V30 1400 C 129.043 1.7166 0.284413 0
M  V30 1401 O 130.219 2.00972 0.131205 0
M  V30 1402 C 127.284 3.46535 -0.106792 0
M  V30 1403 C 126.345 4.13654 -1.14842 0
M  V30 1404 C 125.578 5.30544 -0.57956 0
M  V30 1405 O 125.801 5.67187 0.604585 0
M  V30 1406 O 124.735 5.87154 -1.32414 0
M  V30 1407 H 128.561 2.57664 -1.60757 0
M  V30 1408 H 126.146 1.23152 -0.845803 0
M  V30 1409 H 128.028 4.20804 0.224048 0
M  V30 1410 H 126.703 3.14407 0.770049 0
M  V30 1411 H 125.61 3.4131 -1.5316 0
M  V30 1412 H 126.943 4.49861 -1.99714 0
M  V30 1413 N 128.595 0.856903 1.32268 0
M  V30 1414 C 129.825 0.47475 2.01071 0
M  V30 1415 C 130.233 -0.933746 1.64553 0
M  V30 1416 O 129.576 -1.62114 0.863989 0
M  V30 1417 C 129.638 0.536746 3.55471 0
M  V30 1418 C 129.302 1.90453 4.15423 0
M  V30 1419 C 130.299 2.87029 4.33486 0
M  V30 1420 C 127.984 2.20229 4.51447 0
M  V30 1421 C 129.978 4.11532 4.86744 0
M  V30 1422 C 127.665 3.44984 5.0441 0
M  V30 1423 C 128.663 4.40452 5.22007 0
M  V30 1424 O 128.351 5.62998 5.73837 0
M  V30 1425 H 128.083 0.184778 0.650256 0
M  V30 1426 H 130.637 1.15615 1.69771 0
M  V30 1427 H 128.867 -0.20152 3.86175 0
M  V30 1428 H 130.556 0.169875 4.05544 0
M  V30 1429 H 131.322 2.6533 4.05986 0
M  V30 1430 H 127.201 1.46705 4.37034 0
M  V30 1431 H 130.745 4.86056 5.00395 0
M  V30 1432 H 126.642 3.66532 5.31342 0
M  V30 1433 H 127.41 5.64987 5.92226 0
M  V30 1434 N 130.073 -1.45103 0.615059 0
M  V30 1435 C 131.313 -2.04069 0.116282 0
M  V30 1436 C 131.677 -1.4721 -1.2326 0
M  V30 1437 O 132.878 -1.97577 -1.82255 0
M  V30 1438 C 131.149 -3.57298 0.085482 0
M  V30 1439 S 132.708 -4.37394 -0.351015 0
M  V30 1440 H 129.526 -0.709006 0.0532183 0
M  V30 1441 H 132.128 -1.77709 0.81484 0
M  V30 1442 H 130.832 -3.9619 1.0706 0
M  V30 1443 H 130.363 -3.88244 -0.634835 0
M  V30 1444 H 132.378 -4.69734 -1.59889 0
M  V30 1445 N 131.551 -0.354651 -1.53558 0
M  V30 1446 C 132.776 0.242153 -2.05981 0
M  V30 1447 C 133.201 1.42553 -1.2272 0
M  V30 1448 O 132.559 1.79656 -0.243604 0
M  V30 1449 C 132.607 0.624367 -3.55154 0
M  V30 1450 O 131.711 1.72301 -3.74681 0
M  V30 1451 H 131.052 0.0378432 -0.662921 0
M  V30 1452 H 133.582 -0.512087 -1.98088 0
M  V30 1453 H 133.592 0.898433 -3.97985 0
M  V30 1454 H 132.267 -0.240989 -4.15201 0
M  V30 1455 H 130.844 1.44535 -3.4375 0
M  V30 1456 N 133.029 1.57378 -0.0835403 0
M  V30 1457 C 134.254 1.98682 0.594987 0
M  V30 1458 C 134.679 0.961969 1.61641 0
M  V30 1459 O 134.037 -0.0709989 1.81161 0
M  V30 1460 C 134.085 3.38988 1.2296 0
M  V30 1461 O 133.189 3.39208 2.34546 0
M  V30 1462 H 132.53 0.646368 0.152002 0
M  V30 1463 H 135.06 2.03961 -0.161533 0
M  V30 1464 H 135.07 3.76431 1.57366 0
M  V30 1465 H 133.745 4.13107 0.481228 0
M  V30 1466 H 132.322 3.13548 2.01846 0
M  V30 1467 N 134.507 -0.190092 1.56449 0
M  V30 1468 C 135.755 -0.907908 1.80559 0
M  V30 1469 C 136.076 -1.83583 0.657438 0
M  V30 1470 O 135.346 -1.93203 -0.323924 0
M  V30 1471 H 133.926 -0.338247 0.666032 0
M  V30 1472 H 136.588 -0.194403 1.93928 0
M  V30 1473 H 135.684 -1.49604 2.73907 0
M  V30 1474 N 135.985 -1.50799 -0.457987 0
M  V30 1475 C 137.21 -1.66496 -1.23668 0
M  V30 1476 C 137.635 -0.353288 -1.84752 0
M  V30 1477 O 136.993 0.684346 -1.67888 0
M  V30 1478 C 137.041 -2.76763 -2.3116 0
M  V30 1479 O 136.145 -2.38928 -3.36136 0
M  V30 1480 H 135.486 -0.555828 -0.363252 0
M  V30 1481 H 138.016 -1.9725 -0.543474 0
M  V30 1482 H 138.026 -3.00232 -2.76269 0
M  V30 1483 H 136.701 -3.71954 -1.86073 0
M  V30 1484 H 135.278 -2.25953 -2.96647 0
M  V30 1485 N 137.463 0.71206 -1.40597 0
M  V30 1486 C 138.393 1.83889 -1.43899 0
M  V30 1487 C 139.374 1.67442 -0.299504 0
M  V30 1488 O 140.559 1.87421 -0.508624 0
M  V30 1489 C 137.689 3.21877 -1.30431 0
M  V30 1490 C 136.643 3.53002 -2.42019 0
M  V30 1491 C 135.969 4.90172 -2.13626 0
M  V30 1492 C 137.269 3.53643 -3.84362 0
M  V30 1493 H 138.963 1.81383 -2.38203 0
M  V30 1494 H 136.509 0.871237 -1.14654 0
M  V30 1495 H 138.462 4.00404 -1.31357 0
M  V30 1496 H 137.186 3.24968 -0.326049 0
M  V30 1497 H 135.845 2.76818 -2.40349 0
M  V30 1498 H 135.493 4.89869 -1.14182 0
M  V30 1499 H 135.193 5.11962 -2.88389 0
M  V30 1500 H 136.717 5.71028 -2.1624 0
M  V30 1501 H 138.131 4.22203 -3.87837 0
M  V30 1502 H 136.528 3.86961 -4.58673 0
M  V30 1503 H 137.598 2.52954 -4.13693 0
M  V30 1504 N 138.941 1.26152 0.944643 0
M  V30 1505 C 139.871 1.09902 2.06019 0
M  V30 1506 C 140.852 0.00519538 1.70099 0
M  V30 1507 O 142.037 0.176583 1.93396 0
M  V30 1508 C 139.167 0.727562 3.39594 0
M  V30 1509 C 138.121 1.77274 3.89561 0
M  V30 1510 C 137.447 1.25569 5.19747 0
M  V30 1511 C 138.747 3.17357 4.14827 0
M  V30 1512 H 140.441 2.03217 2.19871 0
M  V30 1513 H 137.987 0.978452 1.05652 0
M  V30 1514 H 139.94 0.600777 4.17095 0
M  V30 1515 H 138.664 -0.241287 3.25707 0
M  V30 1516 H 137.323 1.88814 3.14237 0
M  V30 1517 H 136.971 0.276783 5.02238 0
M  V30 1518 H 136.671 1.95433 5.54148 0
M  V30 1519 H 138.195 1.1415 5.99835 0
M  V30 1520 H 139.609 3.08914 4.82954 0
M  V30 1521 H 138.006 3.84781 4.60504 0
M  V30 1522 H 139.076 3.63673 3.20734 0
M  V30 1523 N 140.419 -1.14872 1.07899 0
M  V30 1524 C 141.644 -1.90202 0.826926 0
M  V30 1525 C 142.069 -1.77774 -0.614664 0
M  V30 1526 O 141.427 -1.11431 -1.43013 0
M  V30 1527 C 141.475 -3.38352 1.24702 0
M  V30 1528 O 140.579 -4.10497 0.39575 0
M  V30 1529 H 139.92 -0.591968 0.300782 0
M  V30 1530 H 142.45 -1.45437 1.43907 0
M  V30 1531 H 142.46 -3.89156 1.22563 0
M  V30 1532 H 141.135 -3.46715 2.29698 0
M  V30 1533 H 139.712 -3.69796 0.480117 0
M  V30 1534 N 141.898 -0.863906 -1.31812 0
M  V30 1535 C 143.144 -0.472535 -1.97218 0
M  V30 1536 C 143.477 0.971394 -1.68159 0
M  V30 1537 O 142.752 1.68309 -0.974798 0
M  V30 1538 C 143.035 -0.723054 -3.52766 0
M  V30 1539 C 142.888 -2.21608 -3.91421 0
M  V30 1540 C 144.207 -0.185522 -4.39709 0
M  V30 1541 H 141.326 -0.173158 -0.71637 0
M  V30 1542 H 143.968 -1.08403 -1.56041 0
M  V30 1543 H 142.118 -0.202577 -3.87971 0
M  V30 1544 H 143.79 -2.80334 -3.66347 0
M  V30 1545 H 142.033 -2.691 -3.40246 0
M  V30 1546 H 142.704 -2.34203 -4.99853 0
M  V30 1547 H 145.18 -0.630726 -4.11292 0
M  V30 1548 H 144.056 -0.390306 -5.47511 0
M  V30 1549 H 144.317 0.912229 -4.32586 0
M  V30 1550 N 143.376 1.44774 -0.622745 0
M  V30 1551 C 144.306 2.33382 0.0741861 0
M  V30 1552 C 145.287 1.47719 0.843387 0
M  V30 1553 O 146.472 1.76458 0.810934 0
M  V30 1554 C 143.602 3.30663 1.06204 0
M  V30 1555 C 142.556 4.26079 0.405037 0
M  V30 1556 C 141.882 5.13165 1.5022 0
M  V30 1557 C 143.182 5.1781 -0.683414 0
M  V30 1558 H 144.876 2.91905 -0.665713 0
M  V30 1559 H 142.422 1.40363 -0.321587 0
M  V30 1560 H 144.375 3.9153 1.55827 0
M  V30 1561 H 143.099 2.70331 1.83272 0
M  V30 1562 H 141.758 3.66532 -0.0704683 0
M  V30 1563 H 141.406 4.49191 2.26355 0
M  V30 1564 H 141.106 5.77812 1.06803 0
M  V30 1565 H 142.63 5.76902 2.00041 0
M  V30 1566 H 144.044 5.72661 -0.270631 0
M  V30 1567 H 142.441 5.91015 -1.04023 0
M  V30 1568 H 143.511 4.59326 -1.55395 0
M  V30 1569 N 144.854 0.36279 1.53368 0
M  V30 1570 C 145.764 -0.492994 2.29362 0
M  V30 1571 C 146.78 -1.09507 1.35219 0
M  V30 1572 O 147.956 -1.10662 1.68273 0
M  V30 1573 C 145.021 -1.61855 3.066 0
M  V30 1574 C 144.082 -1.04429 4.16405 0
M  V30 1575 C 143.315 -2.11621 4.89951 0
M  V30 1576 O 143.538 -3.32684 4.63333 0
M  V30 1577 O 142.472 -1.74835 5.75948 0
M  V30 1578 H 146.298 0.125331 3.03441 0
M  V30 1579 H 143.883 0.127253 1.48857 0
M  V30 1580 H 145.765 -2.27302 3.54841 0
M  V30 1581 H 144.44 -2.22233 2.3536 0
M  V30 1582 H 143.347 -0.353819 3.72423 0
M  V30 1583 H 144.68 -0.485113 4.89804 0
M  V30 1584 N 146.332 -1.57332 0.0918853 0
M  V30 1585 C 147.557 -1.98995 -0.584442 0
M  V30 1586 C 147.982 -0.970528 -1.61128 0
M  V30 1587 O 147.34 0.0613904 -1.81196 0
M  V30 1588 C 147.388 -3.39636 -1.21161 0
M  V30 1589 O 146.492 -3.40447 -2.32744 0
M  V30 1590 H 145.833 -0.647165 -0.148572 0
M  V30 1591 H 148.363 -2.03873 0.172347 0
M  V30 1592 H 148.373 -3.7726 -1.55367 0
M  V30 1593 H 147.048 -4.13356 -0.459313 0
M  V30 1594 H 145.625 -3.14614 -2.0018 0
M  V30 1595 N 147.81 0.181792 -1.56548 0
M  V30 1596 C 149.221 0.745244 -1.71181 0
M  V30 1597 C 149.572 1.83262 -0.70068 0
M  V30 1598 O 148.697 2.15946 0.140154 0
M  V30 1599 C 149.292 1.35859 -3.10367 0
M  V30 1600 C 147.851 1.86898 -3.2672 0
M  V30 1601 C 146.998 0.743942 -2.67134 0
M  V30 1602 H 149.949 -0.0434661 -1.5864 0
M  V30 1603 H 149.97 2.22817 -3.08436 0
M  V30 1604 H 149.482 0.566948 -3.83937 0
M  V30 1605 H 147.583 2.68738 -2.5809 0
M  V30 1606 H 147.696 2.02162 -4.34359 0
M  V30 1607 H 146.06 1.16169 -2.26665 0
M  V30 1608 H 146.843 -0.035676 -3.43281 0
M  V30 1609 N 149.288 1.51039 0.449983 0
M  V30 1610 C 150.198 1.74261 1.57067 0
M  V30 1611 C 151.214 0.626363 1.62335 0
M  V30 1612 O 152.39 0.907162 1.79812 0
M  V30 1613 C 149.455 1.85114 2.93144 0
M  V30 1614 C 148.516 3.0893 2.98095 0
M  V30 1615 C 147.749 3.19256 4.27681 0
M  V30 1616 O 147.972 2.35835 5.19363 0
M  V30 1617 O 146.906 4.12144 4.38658 0
M  V30 1618 H 150.732 2.69303 1.40391 0
M  V30 1619 H 148.317 1.35389 0.631688 0
M  V30 1620 H 150.199 1.94311 3.73926 0
M  V30 1621 H 148.874 0.932588 3.09975 0
M  V30 1622 H 147.781 3.0522 2.16314 0
M  V30 1623 H 149.114 4.00433 2.86206 0
M  V30 1624 N 150.766 -0.704594 1.40972 0
M  V30 1625 C 151.714 -1.83994 1.42299 0
M  V30 1626 C 152.708 -1.66684 0.302111 0
M  V30 1627 O 153.914 -1.73655 0.473697 0
M  V30 1628 H 150.289 -0.606171 0.44504 0
M  V30 1629 H 152.26 -1.79992 2.38003 0
M  V30 1630 C 151.009 -3.21946 1.31323 0
M  V30 1631 H 150.332 -3.35878 2.16855 0
M  V30 1632 H 151.772 -4.01491 1.36311 0
M  V30 1633 C 150.231 -3.36891 0.0245977 0
M  V30 1634 O 150.761 -3.90687 -0.934153 0
M  V30 1635 N 148.967 -2.90559 -0.0485243 0
M  V30 1636 H 148.514 -2.46968 0.732419 0
M  V30 1637 H 148.472 -3.00937 -0.910171 0
M  V30 1638 N 152.244 -1.26651 -0.937939 0
M  V30 1639 C 153.207 -1.08546 -2.01867 0
M  V30 1640 C 154.207 -0.0327327 -1.60767 0
M  V30 1641 O 155.397 -0.276427 -1.71993 0
M  V30 1642 C 152.529 -0.651711 -3.34613 0
M  V30 1643 H 153.722 -2.04502 -2.1936 0
M  V30 1644 H 151.275 -1.09294 -1.11734 0
M  V30 1645 H 152.01 0.309696 -3.22818 0
M  V30 1646 H 151.795 -1.41189 -3.65798 0
M  V30 1647 H 153.285 -0.546973 -4.14002 0
M  V30 1648 N 153.722 1.14298 -1.08507 0
M  V30 1649 C 154.969 1.85359 -0.815373 0
M  V30 1650 C 155.297 1.83001 0.658865 0
M  V30 1651 O 154.552 1.25655 1.50031 0
M  V30 1652 C 154.851 3.33547 -1.28379 0
M  V30 1653 C 154.517 3.56093 -2.76602 0
M  V30 1654 C 153.179 3.61955 -3.17084 0
M  V30 1655 C 155.531 3.64834 -3.72217 0
M  V30 1656 C 152.859 3.74082 -4.51973 0
M  V30 1657 C 155.211 3.78487 -5.06883 0
M  V30 1658 C 153.875 3.82598 -5.46969 0
M  V30 1659 H 153.145 0.678276 -0.298366 0
M  V30 1660 H 155.792 1.35002 -1.35819 0
M  V30 1661 H 154.097 3.86191 -0.660593 0
M  V30 1662 H 155.794 3.86959 -1.05186 0
M  V30 1663 H 152.384 3.52179 -2.4427 0
M  V30 1664 H 156.568 3.59595 -3.42061 0
M  V30 1665 H 151.824 3.75527 -4.82483 0
M  V30 1666 H 155.998 3.84193 -5.80834 0
M  V30 1667 H 153.625 3.91747 -6.51489 0
M  V30 1668 N 155.201 0.870884 1.31352 0
M  V30 1669 C 156.449 0.48132 1.96285 0
M  V30 1670 C 156.77 -0.969813 1.69173 0
M  V30 1671 O 156.04 -1.67998 1.00764 0
M  V30 1672 H 154.62 0.175002 0.726212 0
M  V30 1673 H 157.282 1.11087 1.60143 0
M  V30 1674 H 156.378 0.639825 3.05471 0
M  V30 1675 N 156.679 -1.44442 0.630414 0
M  V30 1676 C 157.609 -2.33418 -0.0618083 0
M  V30 1677 C 158.59 -1.48165 -0.835541 0
M  V30 1678 O 159.775 -1.76886 -0.801564 0
M  V30 1679 C 156.905 -3.31222 -1.04449 0
M  V30 1680 C 155.859 -4.26288 -0.382436 0
M  V30 1681 C 155.185 -5.13954 -1.47497 0
M  V30 1682 C 156.485 -5.1744 0.710865 0
M  V30 1683 H 158.179 -2.91548 0.681184 0
M  V30 1684 H 155.725 -1.40191 0.329026 0
M  V30 1685 H 157.678 -3.92351 -1.53748 0
M  V30 1686 H 156.402 -2.71299 -1.81836 0
M  V30 1687 H 155.061 -3.6649 0.0899054 0
M  V30 1688 H 154.709 -4.50385 -2.2397 0
M  V30 1689 H 154.409 -5.7837 -1.03737 0
M  V30 1690 H 155.933 -5.77955 -1.96979 0
M  V30 1691 H 157.347 -5.72509 0.300996 0
M  V30 1692 H 155.744 -5.90455 1.07156 0
M  V30 1693 H 156.814 -4.58496 1.57829 0
M  V30 1694 N 158.157 -0.370918 -1.53173 0
M  V30 1695 C 159.568 0.107139 -1.86392 0
M  V30 1696 C 159.919 1.47714 -1.29132 0
M  V30 1697 O 159.044 2.07464 -0.615439 0
M  V30 1698 C 159.639 0.201187 -3.38202 0
M  V30 1699 C 158.198 0.623507 -3.712 0
M  V30 1700 C 157.345 -0.225978 -2.76378 0
M  V30 1701 H 160.296 -0.58951 -1.47345 0
M  V30 1702 H 160.317 1.02377 -3.66468 0
M  V30 1703 H 159.829 -0.796058 -3.79848 0
M  V30 1704 H 157.93 1.62879 -3.35114 0
M  V30 1705 H 158.043 0.394414 -4.77474 0
M  V30 1706 H 156.407 0.305962 -2.52856 0
M  V30 1707 H 157.19 -1.22086 -3.20858 0
M  V30 1708 N 159.635 1.57281 -0.100228 0
M  V30 1709 C 160.545 2.17833 0.870965 0
M  V30 1710 C 161.561 1.14921 1.30649 0
M  V30 1711 O 162.737 1.47313 1.37335 0
M  V30 1712 C 159.802 2.75085 2.1102 0
M  V30 1713 C 158.863 3.9297 1.72838 0
M  V30 1714 C 158.096 4.47482 2.90854 0
M  V30 1715 O 158.319 4.00922 4.05731 0
M  V30 1716 O 157.253 5.38433 2.69023 0
M  V30 1717 H 161.079 3.0124 0.38575 0
M  V30 1718 H 158.664 1.48881 0.124397 0
M  V30 1719 H 160.546 3.11656 2.83634 0
M  V30 1720 H 159.221 1.94721 2.58584 0
M  V30 1721 H 158.128 3.61201 0.973883 0
M  V30 1722 H 159.461 4.74713 1.30033 0
M  V30 1723 N 161.113 -0.173488 1.56642 0
M  V30 1724 C 162.39 -0.917617 1.7274 0
M  V30 1725 C 162.77 -2.00484 0.661027 0
M  V30 1726 O 162.118 -2.26184 -0.32453 0
M  V30 1727 C 162.328 -1.48433 3.15862 0
M  V30 1728 C 163.676 -1.95809 3.76754 0
M  V30 1729 O 164.7 -1.58231 3.19126 0
M  V30 1730 O 163.559 -2.65024 4.77938 0
M  V30 1731 H 160.653 -0.431772 0.705338 0
M  V30 1732 H 163.199 -0.161487 1.6893 0
M  V30 1733 H 161.971 -0.701715 3.84957 0
M  V30 1734 H 161.594 -2.30471 3.23989 0
M  V30 1735 N 162.591 -1.51276 -0.441967 0
M  V30 1736 C 163.501 -1.75092 -1.56141 0
M  V30 1737 C 164.517 -0.634963 -1.62001 0
M  V30 1738 O 165.693 -0.916686 -1.79329 0
M  V30 1739 C 162.758 -1.86666 -2.92158 0
M  V30 1740 C 161.819 -3.10506 -2.96453 0
M  V30 1741 C 161.052 -3.21519 -4.25982 0
M  V30 1742 O 161.275 -2.38586 -5.18105 0
M  V30 1743 O 160.209 -4.14465 -4.36466 0
M  V30 1744 H 164.035 -2.70044 -1.38961 0
M  V30 1745 H 161.62 -1.35722 -0.624499 0
M  V30 1746 H 163.502 -1.96292 -3.72891 0
M  V30 1747 H 162.177 -0.949014 -3.09476 0
M  V30 1748 H 161.084 -3.06363 -2.14692 0
M  V30 1749 H 162.417 -4.01945 -2.84079 0
M  V30 1750 N 164.069 0.697108 -1.41344 0
M  V30 1751 C 165.316 1.45714 -1.40619 0
M  V30 1752 C 165.644 1.94494 -0.0147907 0
M  V30 1753 O 164.899 1.69794 0.973066 0
M  V30 1754 C 165.198 2.68553 -2.35826 0
M  V30 1755 C 164.864 2.38438 -3.82698 0
M  V30 1756 C 163.526 2.29936 -4.22709 0
M  V30 1757 C 165.878 2.13567 -4.75435 0
M  V30 1758 C 163.206 1.94656 -5.53467 0
M  V30 1759 C 165.558 1.79797 -6.06511 0
M  V30 1760 C 164.222 1.69789 -6.45545 0
M  V30 1761 H 163.492 0.533206 -0.51456 0
M  V30 1762 H 166.139 0.796901 -1.74131 0
M  V30 1763 H 164.444 3.39503 -1.95563 0
M  V30 1764 H 166.141 3.2669 -2.32539 0
M  V30 1765 H 162.731 2.4595 -3.51008 0
M  V30 1766 H 166.915 2.19082 -4.45328 0
M  V30 1767 H 162.171 1.8546 -5.82593 0
M  V30 1768 H 166.345 1.59572 -6.77872 0
M  V30 1769 H 163.972 1.4222 -7.46778 0
M  V30 1770 N 165.547 1.27147 0.931209 0
M  V30 1771 C 166.477 1.12081 2.04842 0
M  V30 1772 C 167.458 0.0232364 1.70084 0
M  V30 1773 O 168.643 0.197085 1.93197 0
M  V30 1774 C 165.773 0.76354 3.38803 0
M  V30 1775 C 164.727 1.81396 3.87659 0
M  V30 1776 C 164.053 1.31075 5.18385 0
M  V30 1777 C 165.353 3.21739 4.11438 0
M  V30 1778 H 167.047 2.05537 2.17703 0
M  V30 1779 H 164.593 0.989603 1.04608 0
M  V30 1780 H 166.546 0.644982 4.16435 0
M  V30 1781 H 165.27 -0.206727 3.25945 0
M  V30 1782 H 163.929 1.92136 3.12217 0
M  V30 1783 H 163.577 0.330037 5.01916 0
M  V30 1784 H 163.277 2.013 5.52044 0
M  V30 1785 H 164.801 1.20506 5.98591 0
M  V30 1786 H 166.215 3.14019 4.79651 0
M  V30 1787 H 164.612 3.89644 4.56397 0
M  V30 1788 H 165.682 3.67054 3.16859 0
M  V30 1789 N 167.025 -1.13721 1.09112 0
M  V30 1790 C 168.271 -1.85198 0.826414 0
M  V30 1791 C 168.604 -1.83129 -0.646319 0
M  V30 1792 O 167.879 -1.2671 -1.47563 0
M  V30 1793 C 168.162 -3.33507 1.35812 0
M  V30 1794 C 168.015 -3.44108 2.89672 0
M  V30 1795 C 169.334 -4.28838 0.989256 0
M  V30 1796 H 166.453 -0.67243 0.301675 0
M  V30 1797 H 169.095 -1.33499 1.35197 0
M  V30 1798 H 167.245 -3.77666 0.911082 0
M  V30 1799 H 168.917 -3.08684 3.428 0
M  V30 1800 H 167.16 -2.85087 3.26967 0
M  V30 1801 H 167.831 -4.48388 3.21951 0
M  V30 1802 H 170.307 -3.92734 1.37475 0
M  V30 1803 H 169.183 -5.31051 1.38838 0
M  V30 1804 H 169.444 -4.4198 -0.102924 0
M  V30 1805 N 168.503 -0.877838 -1.30888 0
M  V30 1806 C 169.749 -0.493426 -1.96706 0
M  V30 1807 C 170.082 0.953504 -1.6918 0
M  V30 1808 O 169.357 1.67266 -0.992594 0
M  V30 1809 C 169.64 -0.760429 -3.51979 0
M  V30 1810 C 169.493 -2.25747 -3.89048 0
M  V30 1811 C 170.812 -0.232148 -4.39487 0
M  V30 1812 H 167.931 -0.180746 -0.714493 0
M  V30 1813 H 170.573 -1.10052 -1.54882 0
M  V30 1814 H 168.723 -0.243715 -3.87735 0
M  V30 1815 H 170.395 -2.84204 -3.63354 0
M  V30 1816 H 168.638 -2.72694 -3.37373 0
M  V30 1817 H 169.309 -2.39491 -4.97341 0
M  V30 1818 H 171.785 -0.674314 -4.106 0
M  V30 1819 H 170.661 -0.448355 -5.47066 0
M  V30 1820 H 170.922 0.866297 -4.33529 0
M  V30 1821 N 169.982 1.44106 -0.638065 0
M  V30 1822 C 170.912 2.33448 0.0494287 0
M  V30 1823 C 171.893 1.48606 0.827672 0
M  V30 1824 O 173.078 1.77308 0.792173 0
M  V30 1825 C 170.208 3.31771 1.02691 0
M  V30 1826 C 169.162 4.26485 0.359823 0
M  V30 1827 C 168.488 5.14729 1.44769 0
M  V30 1828 C 169.788 5.17056 -0.738296 0
M  V30 1829 H 171.482 2.91183 -0.696636 0
M  V30 1830 H 169.028 1.40014 -0.336456 0
M  V30 1831 H 170.981 3.93161 1.51666 0
M  V30 1832 H 169.705 2.7226 1.80395 0
M  V30 1833 H 168.364 3.66437 -0.10934 0
M  V30 1834 H 168.012 4.51566 2.21578 0
M  V30 1835 H 167.712 5.78913 1.00668 0
M  V30 1836 H 169.236 5.78991 1.93911 0
M  V30 1837 H 170.65 5.72342 -0.331354 0
M  V30 1838 H 169.047 5.89879 -1.10286 0
M  V30 1839 H 170.117 4.57652 -1.60258 0
M  V30 1840 N 171.46 0.379036 1.52974 0
M  V30 1841 C 172.876 0.0285448 1.59574 0
M  V30 1842 C 173.076 -1.45542 1.39355 0
M  V30 1843 O 172.132 -2.2187 1.20541 0
M  V30 1844 C 173.445 0.496535 2.96572 0
M  V30 1845 C 174.993 0.451909 3.0972 0
M  V30 1846 C 175.468 0.895924 4.49152 0
M  V30 1847 N 176.959 0.851522 4.55306 0
M  V30 1848 C 177.694 1.16661 5.61407 0
M  V30 1849 N 177.19 1.55166 6.752 0
M  V30 1850 N 178.983 1.08853 5.51459 0
M  V30 1851 H 171.134 1.34525 1.64367 0
M  V30 1852 H 173.397 0.550733 0.771619 0
M  V30 1853 H 173.103 1.53258 3.16552 0
M  V30 1854 H 172.977 -0.109802 3.7704 0
M  V30 1855 H 175.364 -0.575029 2.89443 0
M  V30 1856 H 175.445 1.09392 2.3123 0
M  V30 1857 H 175.089 1.92104 4.70168 0
M  V30 1858 H 175.019 0.23103 5.26093 0
M  V30 1859 H 177.51 0.568038 3.73606 0
M  V30 1860 H 177.823 1.776 7.52116 0
M  V30 1861 H 176.168 1.59044 6.76557 0
M  V30 1862 H 179.359 0.786803 4.6144 0
M  V30 1863 H 179.532 1.33742 6.34048 0
M  V30 1864 N 172.938 -1.57226 0.108567 0
M  V30 1865 C 174.178 -1.96717 -0.555155 0
M  V30 1866 C 174.542 -0.990003 -1.64508 0
M  V30 1867 O 175.743 -1.2739 -2.36696 0
M  V30 1868 C 174.014 -3.40575 -1.08367 0
M  V30 1869 S 175.573 -4.02072 -1.75737 0
M  V30 1870 H 172.391 -0.687638 -0.180762 0
M  V30 1871 H 174.993 -1.94563 0.191172 0
M  V30 1872 H 173.697 -4.0945 -0.279092 0
M  V30 1873 H 173.228 -3.46356 -1.86551 0
M  V30 1874 H 175.243 -3.91977 -3.04251 0
M  V30 1875 N 174.416 0.165178 -1.56732 0
M  V30 1876 C 175.662 0.882112 -1.82611 0
M  V30 1877 C 175.995 1.81628 -0.687378 0
M  V30 1878 O 175.27 1.92009 0.310267 0
M  V30 1879 C 175.553 1.67245 -3.18906 0
M  V30 1880 C 175.406 0.760987 -4.43316 0
M  V30 1881 C 176.725 2.63884 -3.52212 0
M  V30 1882 H 173.844 0.319242 -0.664269 0
M  V30 1883 H 176.486 0.148052 -1.89422 0
M  V30 1884 H 174.636 2.29824 -3.1323 0
M  V30 1885 H 176.308 0.147596 -4.61064 0
M  V30 1886 H 174.551 0.0694102 -4.33744 0
M  V30 1887 H 175.222 1.34962 -5.35247 0
M  V30 1888 H 177.698 2.11429 -3.58381 0
M  V30 1889 H 176.574 3.16245 -4.48643 0
M  V30 1890 H 176.835 3.44377 -2.77231 0
M  V30 1891 N 175.894 1.51508 0.433938 0
M  V30 1892 C 177.14 1.64588 1.18484 0
M  V30 1893 C 177.473 0.362666 1.90784 0
M  V30 1894 O 176.748 -0.637892 1.83742 0
M  V30 1895 C 177.031 2.85149 2.19913 0
M  V30 1896 C 176.884 4.23456 1.51674 0
M  V30 1897 C 178.203 3.01227 3.20858 0
M  V30 1898 H 175.322 0.598994 0.429389 0
M  V30 1899 H 177.964 1.84002 0.473647 0
M  V30 1900 H 176.114 2.68729 2.80566 0
M  V30 1901 H 177.786 4.51552 0.943322 0
M  V30 1902 H 176.029 4.25998 0.819035 0
M  V30 1903 H 176.7 5.03812 2.2556 0
M  V30 1904 H 179.176 3.16382 2.70263 0
M  V30 1905 H 178.052 3.87141 3.89118 0
M  V30 1906 H 178.313 2.13447 3.8716 0
M  V30 1907 N 177.372 -0.689602 1.41712 0
M  V30 1908 C 178.335 -1.78521 1.43746 0
M  V30 1909 C 179.335 -1.57436 0.327191 0
M  V30 1910 O 180.525 -1.64 0.587348 0
M  V30 1911 C 177.657 -3.16971 1.25467 0
M  V30 1912 H 178.85 -1.78108 2.41283 0
M  V30 1913 H 176.403 -0.89781 1.27942 0
M  V30 1914 H 177.138 -3.23019 0.287948 0
M  V30 1915 H 176.923 -3.33678 2.05917 0
M  V30 1916 H 178.413 -3.96935 1.2974 0
M  V30 1917 N 178.85 -1.27639 -0.924453 0
M  V30 1918 C 180.098 -1.13941 -1.66918 0
M  V30 1919 C 180.419 0.314589 -1.92446 0
M  V30 1920 O 179.689 1.21964 -1.53303 0
M  V30 1921 H 178.269 -0.418678 -0.618642 0
M  V30 1922 H 180.931 -1.60213 -1.10985 0
M  V30 1923 H 180.027 -1.67094 -2.63602 0
M  V30 1924 N 180.328 1.1314 -1.09713 0
M  V30 1925 C 181.261 2.17735 -0.683137 0
M  V30 1926 C 182.239 1.59582 0.311841 0
M  V30 1927 O 183.423 1.87298 0.212514 0
M  V30 1928 C 180.55 3.38699 -0.00684324 0
M  V30 1929 C 179.596 4.1546 -0.964102 0
M  V30 1930 S 180.429 4.74733 -2.47767 0
M  V30 1931 C 181.585 5.9904 -1.81387 0
M  V30 1932 H 181.818 2.52515 -1.56918 0
M  V30 1933 H 179.351 1.24484 -0.913404 0
M  V30 1934 H 181.309 4.08765 0.377044 0
M  V30 1935 H 179.97 3.02214 0.85589 0
M  V30 1936 H 179.163 5.02093 -0.43803 0
M  V30 1937 H 178.765 3.51066 -1.28953 0
M  V30 1938 H 181.057 6.67846 -1.13967 0
M  V30 1939 H 182 6.56261 -2.65947 0
M  V30 1940 H 182.408 5.4976 -1.28155 0
M  V30 1941 N 181.806 0.884767 1.30421 0
M  V30 1942 C 182.754 0.340869 2.30089 0
M  V30 1943 C 183.748 -0.55201 1.60154 0
M  V30 1944 O 184.954 -0.436467 1.74628 0
M  V30 1945 H 181.329 0.0915739 0.746404 0
M  V30 1946 H 183.3 1.19513 2.73421 0
M  V30 1947 C 182.049 -0.429779 3.45034 0
M  V30 1948 H 181.372 0.248024 3.9903 0
M  V30 1949 H 182.812 -0.775445 4.16849 0
M  V30 1950 C 181.271 -1.62677 2.95022 0
M  V30 1951 O 181.801 -2.72614 2.95033 0
M  V30 1952 N 180.007 -1.46387 2.51036 0
M  V30 1953 H 179.554 -0.569506 2.51226 0
M  V30 1954 H 179.512 -2.26612 2.17932 0
M  V30 1955 N 183.284 -1.43765 0.645699 0
M  V30 1956 C 184.234 -2.27884 -0.0726442 0
M  V30 1957 C 185.218 -1.39483 -0.802086 0
M  V30 1958 O 186.41 -1.63174 -0.685791 0
M  V30 1959 C 183.539 -3.27055 -1.04356 0
M  V30 1960 C 182.625 -4.22944 -0.312985 0
M  V30 1961 N 183.016 -5.01391 0.666386 0
M  V30 1962 C 181.314 -4.42528 -0.55546 0
M  V30 1963 C 182.015 -5.71217 1.09935 0
M  V30 1964 N 180.991 -5.41856 0.435137 0
M  V30 1965 H 184.793 -2.85949 0.678988 0
M  V30 1966 H 182.307 -1.55378 0.472368 0
M  V30 1967 H 184.304 -3.86089 -1.57292 0
M  V30 1968 H 182.964 -2.70551 -1.79534 0
M  V30 1969 H 183.975 -5.07252 1.04481 0
M  V30 1970 H 180.652 -3.97104 -1.28899 0
M  V30 1971 H 182.042 -6.44202 1.90929 0
M  V30 1972 N 184.763 -0.387143 -1.52771 0
M  V30 1973 C 185.693 0.440551 -2.29306 0
M  V30 1974 C 186.674 1.06535 -1.32606 0
M  V30 1975 O 187.859 1.07853 -1.61497 0
M  V30 1976 C 184.989 1.56919 -3.09829 0
M  V30 1977 C 183.943 1.07054 -4.14395 0
M  V30 1978 C 183.269 2.29109 -4.83129 0
M  V30 1979 C 184.569 0.140015 -5.22112 0
M  V30 1980 H 186.263 -0.198026 -2.98744 0
M  V30 1981 H 183.809 -0.09668 -1.43675 0
M  V30 1982 H 185.762 2.15503 -3.62128 0
M  V30 1983 H 184.486 2.23532 -2.3812 0
M  V30 1984 H 183.145 0.507247 -3.63074 0
M  V30 1985 H 182.793 2.94227 -4.0797 0
M  V30 1986 H 182.493 1.96406 -5.53804 0
M  V30 1987 H 184.017 2.88339 -5.38231 0
M  V30 1988 H 185.431 0.633978 -5.69784 0
M  V30 1989 H 183.828 -0.0971485 -6.00021 0
M  V30 1990 H 184.898 -0.811711 -4.78058 0
M  V30 1991 N 186.241 1.57166 -0.116904 0
M  V30 1992 C 187.657 1.5779 0.239693 0
M  V30 1993 C 187.857 1.1295 1.66867 0
M  V30 1994 O 186.913 0.81592 2.38954 0
M  V30 1995 C 188.226 3.00699 0.00828202 0
M  V30 1996 C 189.774 3.12912 0.0743438 0
M  V30 1997 C 190.249 4.57817 -0.129348 0
M  V30 1998 N 191.74 4.63139 -0.075247 0
M  V30 1999 C 192.475 5.73023 -0.207788 0
M  V30 2000 N 191.971 6.91665 -0.396382 0
M  V30 2001 N 193.764 5.61906 -0.14751 0
M  V30 2002 H 185.915 1.84615 -1.05029 0
M  V30 2003 H 188.178 0.85311 -0.41341 0
M  V30 2004 H 187.884 3.37784 -0.979531 0
M  V30 2005 H 187.758 3.69848 0.741077 0
M  V30 2006 H 190.145 2.75686 1.05268 0
M  V30 2007 H 190.226 2.4631 -0.690297 0
M  V30 2008 H 189.87 4.95742 -1.10465 0
M  V30 2009 H 189.8 5.22507 0.655253 0
M  V30 2010 H 192.291 3.7784 0.0670898 0
M  V30 2011 H 192.604 7.71255 -0.488437 0
M  V30 2012 H 190.949 6.93654 -0.432329 0
M  V30 2013 H 194.14 4.681 -0.00115036 0
M  V30 2014 H 194.313 6.47501 -0.254247 0
M  V30 2015 N 187.719 -0.156864 1.56817 0
M  V30 2016 C 188.629 -1.2136 2.00771 0
M  V30 2017 C 189.645 -1.47598 0.921459 0
M  V30 2018 O 190.821 -1.59462 1.2302 0
M  V30 2019 C 187.886 -2.52943 2.37109 0
M  V30 2020 C 186.947 -2.34439 3.59634 0
M  V30 2021 C 186.18 -3.59748 3.94229 0
M  V30 2022 O 186.403 -4.65526 3.29609 0
M  V30 2023 O 185.337 -3.52998 4.8752 0
M  V30 2024 H 189.163 -0.870468 2.90958 0
M  V30 2025 H 186.748 -0.36484 1.44877 0
M  V30 2026 H 188.63 -3.30538 2.61386 0
M  V30 2027 H 187.305 -2.86806 1.5008 0
M  V30 2028 H 186.212 -1.54828 3.40557 0
M  V30 2029 H 187.545 -2.05496 4.4725 0
M  V30 2030 N 189.197 -1.51736 -0.425897 0
M  V30 2031 C 190.145 -1.74464 -1.53834 0
M  V30 2032 C 191.139 -0.611241 -1.57988 0
M  V30 2033 O 192.345 -0.792899 -1.61596 0
M  V30 2034 H 188.72 -0.551437 -0.511293 0
M  V30 2035 H 190.691 -2.67694 -1.31843 0
M  V30 2036 C 189.44 -1.8972 -2.91379 0
M  V30 2037 H 188.763 -2.76344 -2.88919 0
M  V30 2038 H 190.203 -2.09629 -3.68553 0
M  V30 2039 C 188.662 -0.65992 -3.30374 0
M  V30 2040 O 189.192 0.180083 -4.01296 0
M  V30 2041 N 187.398 -0.500677 -2.86254 0
M  V30 2042 H 186.945 -1.18532 -2.28709 0
M  V30 2043 H 186.903 0.325903 -3.12706 0
M  V30 2044 N 190.675 0.682077 -1.42076 0
M  V30 2045 C 191.923 1.4393 -1.41876 0
M  V30 2046 C 192.244 1.94971 -0.0335599 0
M  V30 2047 O 191.514 1.72591 0.926773 0
M  V30 2048 H 190.094 0.534085 -0.522267 0
M  V30 2049 H 192.756 0.806427 -1.77434 0
M  V30 2050 H 191.852 2.29588 -2.11414 0
M  V30 2051 N 192.153 1.28127 0.917671 0
M  V30 2052 C 193.402 1.14432 1.66097 0
M  V30 2053 C 193.715 -0.307247 1.93172 0
M  V30 2054 O 194.921 -0.565259 2.65551 0
M  V30 2055 C 193.377 2.00015 2.99202 0
M  V30 2056 C 192.985 3.49889 2.79789 0
M  V30 2057 C 194.729 1.94996 3.77064 0
M  V30 2058 C 192.636 4.27636 4.08511 0
M  V30 2059 H 191.566 0.424662 0.62304 0
M  V30 2060 H 194.217 1.52628 1.01868 0
M  V30 2061 H 192.599 1.54672 3.64544 0
M  V30 2062 H 193.773 4.03162 2.23152 0
M  V30 2063 H 192.088 3.56392 2.15345 0
M  V30 2064 H 194.685 2.50354 4.72469 0
M  V30 2065 H 195.028 0.925819 4.05875 0
M  V30 2066 H 195.561 2.38287 3.18534 0
M  V30 2067 H 192.3 5.30615 3.84874 0
M  V30 2068 H 191.82 3.79137 4.64774 0
M  V30 2069 H 193.499 4.37346 4.76799 0
M  V30 2070 N 193.631 -1.12557 1.10312 0
M  V30 2071 C 194.877 -1.84311 0.846011 0
M  V30 2072 C 195.21 -1.83805 -0.626859 0
M  V30 2073 O 194.485 -1.28268 -1.46211 0
M  V30 2074 C 194.768 -3.32048 1.39341 0
M  V30 2075 C 194.621 -3.41016 2.93305 0
M  V30 2076 C 195.94 -4.27764 1.03468 0
M  V30 2077 H 193.059 -0.669192 0.30879 0
M  V30 2078 H 195.701 -1.32057 1.36605 0
M  V30 2079 H 193.851 -3.76678 0.951087 0
M  V30 2080 H 195.523 -3.05031 3.46055 0
M  V30 2081 H 193.766 -2.81603 3.29973 0
M  V30 2082 H 194.437 -4.44948 3.26689 0
M  V30 2083 H 196.913 -3.91253 1.41633 0
M  V30 2084 H 195.789 -5.29549 1.44463 0
M  V30 2085 H 196.05 -4.42064 -0.0560404 0
M  V30 2086 N 195.109 -0.891671 -1.2995 0
M  V30 2087 C 196.059 -0.334811 -2.25528 0
M  V30 2088 C 197.043 0.540553 -1.51548 0
M  V30 2089 O 198.235 0.383882 -1.72787 0
M  V30 2090 C 195.364 0.44374 -3.4042 0
M  V30 2091 C 194.45 -0.44609 -4.21747 0
M  V30 2092 N 194.841 -1.54963 -4.81477 0
M  V30 2093 C 193.139 -0.242415 -4.45341 0
M  V30 2094 C 193.84 -2.10015 -5.42465 0
M  V30 2095 N 192.816 -1.39423 -5.25416 0
M  V30 2096 H 196.618 -1.17792 -2.69262 0
M  V30 2097 H 194.132 -0.741822 -1.44467 0
M  V30 2098 H 196.129 0.859362 -4.07947 0
M  V30 2099 H 194.789 1.28421 -2.98225 0
M  V30 2100 H 195.8 -1.93244 -4.80497 0
M  V30 2101 H 192.477 0.560342 -4.13723 0
M  V30 2102 H 193.867 -3.02724 -5.9984 0
M  V30 2103 N 196.587 1.43421 -0.653314 0
M  V30 2104 C 198.003 1.56341 -0.320886 0
M  V30 2105 C 198.203 1.63696 1.17499 0
M  V30 2106 O 197.259 1.59208 1.95982 0
M  V30 2107 C 198.572 2.82424 -1.03233 0
M  V30 2108 C 200.12 2.96168 -1.01259 0
M  V30 2109 C 200.595 4.25084 -1.70492 0
M  V30 2110 N 202.086 4.31948 -1.67257 0
M  V30 2111 C 202.821 5.30466 -2.17701 0
M  V30 2112 N 202.317 6.35261 -2.76434 0
M  V30 2113 N 204.11 5.2212 -2.082 0
M  V30 2114 H 196.261 1.3689 -1.62403 0
M  V30 2115 H 198.524 0.657455 -0.682977 0
M  V30 2116 H 198.23 2.83053 -2.08744 0
M  V30 2117 H 198.104 3.72653 -0.583948 0
M  V30 2118 H 200.491 2.9508 0.0341235 0
M  V30 2119 H 200.572 2.07229 -1.49966 0
M  V30 2120 H 200.216 4.26932 -2.7512 0
M  V30 2121 H 200.146 5.1292 -1.19251 0
M  V30 2122 H 202.637 3.56838 -1.24398 0
M  V30 2123 H 202.95 7.06754 -3.12601 0
M  V30 2124 H 201.295 6.35884 -2.80495 0
M  V30 2125 H 204.486 4.39166 -1.62021 0
M  V30 2126 H 204.659 5.98739 -2.47822 0
M  V30 2127 N 198.065 0.39524 1.52563 0
M  V30 2128 C 199.342 -0.242908 1.94086 0
M  V30 2129 C 199.722 -1.63841 1.33114 0
M  V30 2130 O 199.07 -2.22928 0.501529 0
M  V30 2131 C 199.28 -0.26327 3.48006 0
M  V30 2132 C 200.628 -0.489354 4.21771 0
M  V30 2133 O 201.652 -0.343226 3.54543 0
M  V30 2134 O 200.511 -0.776169 5.4096 0
M  V30 2135 H 197.605 -0.152536 0.812811 0
M  V30 2136 H 200.151 0.450178 1.6362 0
M  V30 2137 H 198.923 0.713985 3.84731 0
M  V30 2138 H 198.546 -1.00103 3.84792 0
M  V30 2139 N 199.544 -1.57102 0.125237 0
M  V30 2140 C 200.793 -1.94582 -0.531095 0
M  V30 2141 C 201.106 -1.01126 -1.6743 0
M  V30 2142 O 202.312 -1.28097 -2.39381 0
M  V30 2143 C 200.768 -3.45839 -0.996164 0
M  V30 2144 C 200.376 -4.47842 0.118926 0
M  V30 2145 C 202.12 -3.92227 -1.62352 0
M  V30 2146 C 200.027 -5.90284 -0.363192 0
M  V30 2147 H 198.957 -0.726391 -0.20217 0
M  V30 2148 H 201.608 -1.82339 0.206092 0
M  V30 2149 H 199.99 -3.53338 -1.78796 0
M  V30 2150 H 201.164 -4.52018 0.895358 0
M  V30 2151 H 199.479 -4.11243 0.653324 0
M  V30 2152 H 202.076 -4.96069 -1.99548 0
M  V30 2153 H 202.419 -3.32552 -2.50429 0
M  V30 2154 H 202.952 -3.87554 -0.897019 0
M  V30 2155 H 199.691 -6.53728 0.481679 0
M  V30 2156 H 199.211 -5.89515 -1.10597 0
M  V30 2157 H 200.89 -6.41752 -0.822377 0
M  V30 2158 N 201.022 0.148545 -1.56898 0
M  V30 2159 C 201.969 1.18345 -1.98149 0
M  V30 2160 C 202.939 1.42772 -0.848848 0
M  V30 2161 O 204.124 1.55132 -1.11079 0
M  V30 2162 C 201.264 2.51231 -2.36594 0
M  V30 2163 C 200.377 2.33991 -3.63142 0
M  V30 2164 C 199.512 3.59902 -3.90697 0
M  V30 2165 C 198.551 3.37692 -5.1052 0
M  V30 2166 N 197.688 4.5573 -5.34092 0
M  V30 2167 H 202.528 0.82467 -2.86362 0
M  V30 2168 H 200.065 0.395756 -1.41676 0
M  V30 2169 H 202.023 3.28713 -2.56912 0
M  V30 2170 H 200.653 2.85059 -1.51463 0
M  V30 2171 H 199.705 1.47572 -3.50609 0
M  V30 2172 H 201.017 2.13539 -4.5078 0
M  V30 2173 H 200.171 4.45813 -4.11505 0
M  V30 2174 H 198.91 3.83357 -3.01477 0
M  V30 2175 H 197.915 2.5017 -4.89587 0
M  V30 2176 H 199.14 3.15637 -6.0129 0
M  V30 2177 H 197.086 4.79361 -4.47827 0
M  V30 2178 H 197.003 4.38274 -6.15996 0
M  V30 2179 H 198.271 5.42858 -5.59397 0
M  V30 2180 N 202.5 1.5196 0.417844 0
M  V30 2181 C 203.911 1.57851 0.997 0
M  V30 2182 C 204.262 0.413714 1.91789 0
M  V30 2183 O 203.387 -0.467057 2.113 0
M  V30 2184 C 203.982 2.86085 1.81496 0
M  V30 2185 C 202.541 2.94483 2.34428 0
M  V30 2186 C 201.688 2.52707 1.14169 0
M  V30 2187 H 204.639 1.57455 0.198392 0
M  V30 2188 H 204.66 2.70947 2.67148 0
M  V30 2189 H 204.172 3.70842 1.14446 0
M  V30 2190 H 202.273 2.142 3.04875 0
M  V30 2191 H 202.386 3.98546 2.65891 0
M  V30 2192 H 200.75 2.06353 1.49301 0
M  V30 2193 H 201.533 3.39828 0.486999 0
M  V30 2194 N 203.978 -0.674533 1.42435 0
M  V30 2195 C 205.226 -1.43175 1.42637 0
M  V30 2196 C 205.547 -1.94951 0.0438992 0
M  V30 2197 O 204.817 -1.7308 -0.917607 0
M  V30 2198 H 203.397 -0.531307 0.525092 0
M  V30 2199 H 206.059 -0.797006 1.77859 0
M  V30 2200 H 205.155 -2.28463 2.12629 0
M  V30 2201 N 205.456 -1.28612 -0.910864 0
M  V30 2202 C 206.404 -1.1265 -2.03501 0
M  V30 2203 C 207.398 -0.0450054 -1.6934 0
M  V30 2204 O 208.604 -0.203988 -1.7884 0
M  V30 2205 H 204.979 -0.347639 -0.666822 0
M  V30 2206 H 206.95 -2.07849 -2.14106 0
M  V30 2207 C 205.699 -0.808143 -3.38178 0
M  V30 2208 H 205.022 -1.63231 -3.6496 0
M  V30 2209 H 206.462 -0.736426 -4.17556 0
M  V30 2210 C 204.921 0.488226 -3.33344 0
M  V30 2211 O 205.451 1.51766 -3.71927 0
M  V30 2212 N 203.657 0.490009 -2.86439 0
M  V30 2213 H 203.204 -0.348161 -2.55236 0
M  V30 2214 H 203.162 1.35741 -2.83587 0
M  V30 2215 N 206.934 1.1197 -1.10907 0
M  V30 2216 C 208.183 1.82947 -0.849302 0
M  V30 2217 C 208.496 1.85275 0.627112 0
M  V30 2218 O 209.702 2.52296 1.00295 0
M  V30 2219 C 208.158 3.28529 -1.46959 0
M  V30 2220 C 207.766 3.34546 -2.97965 0
M  V30 2221 C 209.51 4.04443 -1.28942 0
M  V30 2222 C 207.417 4.74491 -3.53004 0
M  V30 2223 H 206.347 0.685477 -0.314065 0
M  V30 2224 H 208.998 1.2604 -1.33365 0
M  V30 2225 H 207.38 3.85333 -0.912917 0
M  V30 2226 H 208.554 2.87654 -3.59989 0
M  V30 2227 H 206.869 2.72108 -3.15192 0
M  V30 2228 H 209.466 5.07787 -1.67502 0
M  V30 2229 H 209.809 4.15656 -0.231456 0
M  V30 2230 H 210.342 3.5401 -1.81443 0
M  V30 2231 H 207.081 4.68474 -4.58489 0
M  V30 2232 H 206.601 5.21816 -2.9575 0
M  V30 2233 H 208.28 5.4344 -3.51115 0
M  V30 2234 N 208.412 0.89855 1.29475 0
M  V30 2235 C 209.345 0.319981 2.25945 0
M  V30 2236 C 210.323 -0.567189 1.52387 0
M  V30 2237 O 211.507 -0.514254 1.8135 0
M  V30 2238 C 208.634 -0.544013 3.34303 0
M  V30 2239 C 207.68 0.275682 4.25608 0
M  V30 2240 S 208.513 1.67272 5.08704 0
M  V30 2241 C 209.669 0.815621 6.20563 0
M  V30 2242 H 209.902 1.13767 2.74671 0
M  V30 2243 H 207.435 0.69882 1.3768 0
M  V30 2244 H 209.393 -1.03673 3.97193 0
M  V30 2245 H 208.054 -1.33593 2.84274 0
M  V30 2246 H 207.247 -0.384263 5.02533 0
M  V30 2247 H 206.849 0.701496 3.67362 0
M  V30 2248 H 209.141 0.0385042 6.77489 0
M  V30 2249 H 210.084 1.55691 6.90772 0
M  V30 2250 H 210.492 0.370516 5.63283 0
M  V30 2251 N 209.89 -1.43072 0.660911 0
M  V30 2252 C 211.306 -1.56169 0.329173 0
M  V30 2253 C 211.506 -1.64317 -1.16629 0
M  V30 2254 O 210.562 -1.60245 -1.95135 0
M  V30 2255 C 211.875 -2.81873 1.04729 0
M  V30 2256 C 213.423 -2.95627 1.02828 0
M  V30 2257 C 213.898 -4.24174 1.72744 0
M  V30 2258 N 215.389 -4.31055 1.69545 0
M  V30 2259 C 216.124 -5.29304 2.20511 0
M  V30 2260 N 215.62 -6.33786 2.79799 0
M  V30 2261 N 217.413 -5.21008 2.10966 0
M  V30 2262 H 209.564 -1.36027 1.63127 0
M  V30 2263 H 211.827 -0.653823 0.686454 0
M  V30 2264 H 211.533 -2.81942 2.10242 0
M  V30 2265 H 211.407 -3.72338 0.603702 0
M  V30 2266 H 213.794 -2.95094 -0.0184742 0
M  V30 2267 H 213.875 -2.06431 1.51063 0
M  V30 2268 H 213.519 -4.25467 2.7738 0
M  V30 2269 H 213.449 -5.1228 1.2197 0
M  V30 2270 H 215.94 -3.56174 1.26288 0
M  V30 2271 H 216.253 -7.05086 3.16344 0
M  V30 2272 H 214.598 -6.34387 2.83863 0
M  V30 2273 H 217.789 -4.38301 1.64347 0
M  V30 2274 H 217.962 -5.97416 2.50993 0
M  V30 2275 N 211.368 -0.403325 -1.52352 0
M  V30 2276 C 212.298 0.416205 -2.29761 0
M  V30 2277 C 213.279 1.05123 -1.33728 0
M  V30 2278 O 214.464 1.06134 -1.62632 0
M  V30 2279 C 211.594 1.53624 -3.11475 0
M  V30 2280 C 210.548 1.02653 -4.15507 0
M  V30 2281 C 209.874 2.23971 -4.85532 0
M  V30 2282 C 211.174 0.08463 -5.22231 0
M  V30 2283 H 212.868 -0.229701 -2.98518 0
M  V30 2284 H 210.414 -0.111913 -1.43564 0
M  V30 2285 H 212.367 2.1165 -3.64393 0
M  V30 2286 H 211.091 2.20994 -2.40477 0
M  V30 2287 H 209.75 0.46871 -3.63591 0
M  V30 2288 H 209.398 2.89883 -4.11068 0
M  V30 2289 H 209.098 1.90521 -5.55856 0
M  V30 2290 H 210.622 2.82614 -5.41259 0
M  V30 2291 H 212.036 0.573509 -5.70424 0
M  V30 2292 H 210.433 -0.160783 -5.99885 0
M  V30 2293 H 211.503 -0.86237 -4.7717 0
M  V30 2294 N 212.846 1.57033 -0.133567 0
M  V30 2295 C 214.092 1.95976 0.521649 0
M  V30 2296 C 214.425 1.01779 1.65393 0
M  V30 2297 O 213.7 0.0576581 1.94415 0
M  V30 2298 C 213.983 3.44738 1.04057 0
M  V30 2299 C 213.836 4.49711 -0.0892897 0
M  V30 2300 C 215.155 3.95682 1.92675 0
M  V30 2301 H 212.274 0.712579 0.188149 0
M  V30 2302 H 214.916 1.88813 -0.212076 0
M  V30 2303 H 213.066 3.50973 1.66583 0
M  V30 2304 H 214.738 4.55565 -0.725152 0
M  V30 2305 H 212.981 4.27261 -0.750378 0
M  V30 2306 H 213.652 5.51099 0.315284 0
M  V30 2307 H 216.128 3.91841 1.39998 0
M  V30 2308 H 215.004 5.00262 2.25897 0
M  V30 2309 H 215.265 3.37239 2.85872 0
M  V30 2310 N 214.325 -0.140222 1.56975 0
M  V30 2311 C 215.573 -0.850005 1.83356 0
M  V30 2312 C 215.894 -1.81399 0.71551 0
M  V30 2313 O 215.164 -1.94136 -0.262294 0
M  V30 2314 H 213.744 -0.316886 0.676456 0
M  V30 2315 H 216.406 -0.132608 1.94448 0
M  V30 2316 H 215.502 -1.40814 2.78528 0
M  V30 2317 N 215.803 -1.52179 -0.40978 0
M  V30 2318 C 216.713 -1.78364 -1.52392 0
M  V30 2319 C 217.729 -0.669183 -1.60617 0
M  V30 2320 O 218.905 -0.954518 -1.77344 0
M  V30 2321 C 215.97 -1.92822 -2.88133 0
M  V30 2322 C 215.031 -3.16725 -2.898 0
M  V30 2323 C 214.264 -3.30483 -4.19067 0
M  V30 2324 O 214.487 -2.49522 -5.12928 0
M  V30 2325 O 213.421 -4.2363 -4.27576 0
M  V30 2326 H 217.247 -2.72931 -1.33201 0
M  V30 2327 H 214.832 -1.37016 -0.59557 0
M  V30 2328 H 216.714 -2.04157 -3.68643 0
M  V30 2329 H 215.389 -1.01444 -3.07393 0
M  V30 2330 H 214.296 -3.10848 -2.08146 0
M  V30 2331 H 215.629 -4.07881 -2.75489 0
M  V30 2332 N 217.281 0.66697 -1.42791 0
M  V30 2333 C 218.191 1.80962 -1.49299 0
M  V30 2334 C 219.207 1.69775 -0.381108 0
M  V30 2335 O 220.383 1.91188 -0.633188 0
M  V30 2336 C 217.448 3.17156 -1.40045 0
M  V30 2337 C 216.509 3.40242 -2.6179 0
M  V30 2338 C 215.742 4.69939 -2.52969 0
M  V30 2339 O 215.965 5.48372 -1.56985 0
M  V30 2340 O 214.899 4.94441 -3.43237 0
M  V30 2341 H 218.725 1.78427 -2.45759 0
M  V30 2342 H 216.31 0.823713 -1.24641 0
M  V30 2343 H 218.192 3.98413 -1.37276 0
M  V30 2344 H 216.867 3.20312 -0.467138 0
M  V30 2345 H 215.774 2.58802 -2.70134 0
M  V30 2346 H 217.107 3.41923 -3.54047 0
M  V30 2347 N 218.759 1.29093 0.90403 0
M  V30 2348 C 220.007 1.16583 1.65085 0
M  V30 2349 C 220.328 -0.283933 1.92922 0
M  V30 2350 O 219.598 -1.19509 1.55224 0
M  V30 2351 H 218.178 0.428467 0.611903 0
M  V30 2352 H 220.84 1.61959 1.08422 0
M  V30 2353 H 219.936 1.71266 2.6091 0
M  V30 2354 N 220.237 -1.11381 1.11499 0
M  V30 2355 C 221.169 -2.17207 0.731704 0
M  V30 2356 C 222.182 -1.61066 -0.236957 0
M  V30 2357 O 223.371 -1.78489 -0.0197591 0
M  V30 2358 C 220.471 -3.38846 0.0607624 0
M  V30 2359 C 219.644 -4.24451 1.0564 0
M  V30 2360 C 218.703 -5.24562 0.4149 0
M  V30 2361 O 217.729 -5.59071 1.069 0
M  V30 2362 N 218.931 -5.74651 -0.821943 0
M  V30 2363 H 221.696 -2.50699 1.64225 0
M  V30 2364 H 219.257 -1.26908 1.00529 0
M  V30 2365 H 221.249 -4.02911 -0.380139 0
M  V30 2366 H 219.819 -3.03411 -0.752376 0
M  V30 2367 H 219.039 -3.56833 1.67524 0
M  V30 2368 H 220.327 -4.78486 1.72998 0
M  V30 2369 H 219.725 -5.48797 -1.37252 0
M  V30 2370 H 218.282 -6.40549 -1.20582 0
M  V30 2371 N 221.715 -0.905404 -1.28997 0
M  V30 2372 C 222.94 -0.549175 -1.99997 0
M  V30 2373 C 223.365 0.860276 -1.67275 0
M  V30 2374 O 222.723 1.57355 -0.900502 0
M  V30 2375 C 222.771 -0.755185 -3.52604 0
M  V30 2376 O 221.875 0.189692 -4.11964 0
M  V30 2377 H 221.216 -0.213899 -0.628604 0
M  V30 2378 H 223.746 -1.21856 -1.64354 0
M  V30 2379 H 223.756 -0.662045 -4.02593 0
M  V30 2380 H 222.431 -1.78271 -3.75755 0
M  V30 2381 H 221.008 0.0485257 -3.72868 0
M  V30 2382 N 223.193 1.4272 -0.668489 0
M  V30 2383 C 224.442 2.00846 -0.185389 0
M  V30 2384 C 224.755 1.53442 1.21305 0
M  V30 2385 O 225.961 2.03944 1.79218 0
M  V30 2386 C 224.417 3.58805 -0.280591 0
M  V30 2387 C 224.025 4.15198 -1.68268 0
M  V30 2388 C 225.769 4.24255 0.14412 0
M  V30 2389 C 223.676 5.655 -1.73099 0
M  V30 2390 H 222.606 0.751145 -0.0655475 0
M  V30 2391 H 225.257 1.63516 -0.832752 0
M  V30 2392 H 223.639 3.93608 0.434553 0
M  V30 2393 H 224.813 3.91866 -2.42441 0
M  V30 2394 H 223.128 3.62176 -2.05469 0
M  V30 2395 H 225.725 5.34547 0.128086 0
M  V30 2396 H 226.068 3.99277 1.17827 0
M  V30 2397 H 226.601 3.94389 -0.519798 0
M  V30 2398 H 223.34 5.95268 -2.74475 0
M  V30 2399 H 222.86 5.90842 -1.03274 0
M  V30 2400 H 224.539 6.29808 -1.48158 0
M  V30 2401 N 224.671 0.411399 1.52136 0
M  V30 2402 C 225.901 -0.16284 2.05957 0
M  V30 2403 C 226.309 -1.3922 1.28119 0
M  V30 2404 O 225.652 -1.80768 0.326881 0
M  V30 2405 C 225.714 -0.575946 3.54856 0
M  V30 2406 C 225.378 0.542998 4.53763 0
M  V30 2407 C 226.375 1.40726 5.00492 0
M  V30 2408 C 224.06 0.716337 4.97166 0
M  V30 2409 C 226.054 2.4298 5.8927 0
M  V30 2410 C 223.741 1.74218 5.8574 0
M  V30 2411 C 224.739 2.59731 6.31687 0
M  V30 2412 O 224.427 3.60558 7.18507 0
M  V30 2413 H 224.159 -0.0229125 0.675612 0
M  V30 2414 H 226.713 0.581634 1.96993 0
M  V30 2415 H 224.943 -1.37274 3.61515 0
M  V30 2416 H 226.632 -1.07836 3.91313 0
M  V30 2417 H 227.398 1.28476 4.67674 0
M  V30 2418 H 223.277 0.0603857 4.6096 0
M  V30 2419 H 226.821 3.0976 6.25055 0
M  V30 2420 H 222.718 1.86498 6.17971 0
M  V30 2421 H 223.486 3.56829 7.36624 0
M  V30 2422 N 226.149 -1.5696 0.141893 0
M  V30 2423 C 227.096 -2.16501 -0.799737 0
M  V30 2424 C 228.066 -1.09643 -1.24771 0
M  V30 2425 O 229.251 -1.3766 -1.32115 0
M  V30 2426 C 226.391 -2.78679 -2.03549 0
M  V30 2427 C 225.504 -3.99914 -1.6338 0
M  V30 2428 C 224.639 -4.50106 -2.82096 0
M  V30 2429 C 223.678 -5.63819 -2.38275 0
M  V30 2430 N 222.815 -6.08651 -3.49983 0
M  V30 2431 H 227.655 -2.96632 -0.285179 0
M  V30 2432 H 225.192 -1.46533 -0.129053 0
M  V30 2433 H 227.15 -3.1287 -2.75986 0
M  V30 2434 H 225.78 -2.012 -2.52425 0
M  V30 2435 H 224.832 -3.71735 -0.807279 0
M  V30 2436 H 226.144 -4.82311 -1.27192 0
M  V30 2437 H 225.298 -4.86325 -3.62729 0
M  V30 2438 H 224.037 -3.66706 -3.21525 0
M  V30 2439 H 223.042 -5.2718 -1.56081 0
M  V30 2440 H 224.267 -6.49 -1.99938 0
M  V30 2441 H 222.213 -5.28188 -3.89042 0
M  V30 2442 H 222.13 -6.85961 -3.17794 0
M  V30 2443 H 223.398 -6.49515 -4.30988 0
M  V30 2444 N 227.627 0.131896 -1.57047 0
M  V30 2445 C 228.557 1.16384 -2.02428 0
M  V30 2446 C 229.538 1.43936 -0.90644 0
M  V30 2447 O 230.723 1.54599 -1.17528 0
M  V30 2448 C 227.853 2.49328 -2.4177 0
M  V30 2449 C 226.807 2.36266 -3.56879 0
M  V30 2450 C 226.133 3.74057 -3.8208 0
M  V30 2451 C 227.433 1.834 -4.89042 0
M  V30 2452 H 229.127 0.786433 -2.88887 0
M  V30 2453 H 226.673 0.376855 -1.38981 0
M  V30 2454 H 228.626 3.21759 -2.7212 0
M  V30 2455 H 227.35 2.88934 -1.52266 0
M  V30 2456 H 226.009 1.66286 -3.26718 0
M  V30 2457 H 225.657 4.11125 -2.89803 0
M  V30 2458 H 225.357 3.66174 -4.59554 0
M  V30 2459 H 226.881 4.48012 -4.1487 0
M  V30 2460 H 228.295 2.45636 -5.18011 0
M  V30 2461 H 226.692 1.8637 -5.70426 0
M  V30 2462 H 227.762 0.790662 -4.7841 0
M  V30 2463 N 229.106 1.52395 0.401703 0
M  V30 2464 C 230.334 1.70676 1.16949 0
M  V30 2465 C 230.749 0.419503 1.8408 0
M  V30 2466 O 230.106 -0.605061 1.72178 0
M  V30 2467 C 230.157 2.84753 2.22706 0
M  V30 2468 O 229.878 4.08495 1.58314 0
M  V30 2469 C 231.379 3.14608 3.12309 0
M  V30 2470 H 228.599 0.571787 0.351142 0
M  V30 2471 H 231.143 1.98987 0.471652 0
M  V30 2472 H 229.298 2.58941 2.88147 0
M  V30 2473 H 229.712 4.72117 2.28485 0
M  V30 2474 H 231.186 3.97923 3.82572 0
M  V30 2475 H 231.663 2.28464 3.75101 0
M  V30 2476 H 232.269 3.42212 2.52529 0
M  V30 2477 N 230.584 -0.659388 1.43143 0
M  V30 2478 C 231.861 -1.41627 1.34912 0
M  V30 2479 C 232.241 -2.11099 -0.00607785 0
M  V30 2480 O 231.589 -2.04353 -1.02236 0
M  V30 2481 C 231.799 -2.40604 2.52805 0
M  V30 2482 C 233.147 -3.04789 2.95616 0
M  V30 2483 O 234.171 -2.50932 2.52807 0
M  V30 2484 O 233.03 -4.02421 3.69756 0
M  V30 2485 H 230.124 -0.63246 0.532844 0
M  V30 2486 H 232.67 -0.686814 1.5518 0
M  V30 2487 H 231.442 -1.88174 3.43083 0
M  V30 2488 H 231.065 -3.21009 2.34604 0
M  V30 2489 N 232.062 -1.29571 -0.897171 0
M  V30 2490 C 233.309 -1.17689 -1.6479 0
M  V30 2491 C 233.637 0.27107 -1.92602 0
M  V30 2492 O 232.892 1.21193 -1.53658 0
M  V30 2493 C 233.191 -1.9382 -3.00281 0
M  V30 2494 C 232.857 -3.43522 -2.92068 0
M  V30 2495 C 231.519 -3.84348 -2.89535 0
M  V30 2496 C 233.871 -4.38906 -2.81089 0
M  V30 2497 C 231.199 -5.18869 -2.73846 0
M  V30 2498 C 233.551 -5.73521 -2.66939 0
M  V30 2499 C 232.215 -6.13601 -2.62774 0
M  V30 2500 H 231.485 -0.430654 -0.603008 0
M  V30 2501 H 234.132 -1.60536 -1.04404 0
M  V30 2502 H 232.437 -1.4357 -3.64547 0
M  V30 2503 H 234.134 -1.82028 -3.57305 0
M  V30 2504 H 230.724 -3.11072 -2.94842 0
M  V30 2505 H 234.908 -4.08315 -2.82121 0
M  V30 2506 H 230.164 -5.4903 -2.69027 0
M  V30 2507 H 234.338 -6.47078 -2.57416 0
M  V30 2508 H 231.965 -7.17786 -2.50375 0
M  V30 2509 N 233.54 1.10788 -1.12088 0
M  V30 2510 C 234.788 1.8231 -0.872205 0
M  V30 2511 C 235.109 1.85419 0.603709 0
M  V30 2512 O 234.379 1.32963 1.43867 0
M  V30 2513 H 232.959 0.675137 -0.319686 0
M  V30 2514 H 235.621 1.34068 -1.41463 0
M  V30 2515 H 234.717 2.85955 -1.25045 0
M  V30 2516 N 235.018 0.912232 1.28515 0
M  V30 2517 C 235.981 0.404223 2.25607 0
M  V30 2518 C 236.981 -0.468602 1.53821 0
M  V30 2519 O 238.171 -0.271873 1.72065 0
M  V30 2520 C 235.303 -0.420653 3.38295 0
M  V30 2521 H 236.496 1.26188 2.7206 0
M  V30 2522 H 234.049 0.691495 1.40171 0
M  V30 2523 H 234.784 -1.29777 2.97201 0
M  V30 2524 H 234.569 0.204935 3.91564 0
M  V30 2525 H 236.059 -0.766971 4.10496 0
M  V30 2526 N 236.496 -1.42363 0.676048 0
M  V30 2527 C 237.459 -2.29199 0.00766941 0
M  V30 2528 C 238.459 -1.43389 -0.727745 0
M  V30 2529 O 239.649 -1.64764 -0.56556 0
M  V30 2530 C 236.781 -3.2591 -0.999785 0
M  V30 2531 H 237.974 -2.89794 0.771988 0
M  V30 2532 H 235.527 -1.50024 0.438468 0
M  V30 2533 H 236.262 -2.70256 -1.79255 0
M  V30 2534 H 236.047 -3.89202 -0.475829 0
M  V30 2535 H 237.537 -3.91028 -1.46583 0
M  V30 2536 N 237.974 -0.419461 -1.51915 0
M  V30 2537 C 239.39 -0.0708431 -1.59443 0
M  V30 2538 C 239.59 1.41796 -1.43164 0
M  V30 2539 O 238.646 2.18596 -1.26381 0
M  V30 2540 C 239.959 -0.574991 -2.95151 0
M  V30 2541 C 241.507 -0.533867 -3.08413 0
M  V30 2542 C 241.982 -1.01469 -4.46618 0
M  V30 2543 N 243.473 -0.971939 -4.52888 0
M  V30 2544 C 244.208 -1.31505 -5.58116 0
M  V30 2545 N 243.704 -1.73014 -6.70849 0
M  V30 2546 N 245.497 -1.23436 -5.48379 0
M  V30 2547 H 237.648 -1.38836 -1.60743 0
M  V30 2548 H 239.911 -0.570998 -0.756747 0
M  V30 2549 H 239.617 -1.61597 -3.12377 0
M  V30 2550 H 239.491 0.00979777 -3.77199 0
M  V30 2551 H 241.878 0.498086 -2.90866 0
M  V30 2552 H 241.959 -1.15484 -2.28248 0
M  V30 2553 H 241.603 -2.04502 -4.6491 0
M  V30 2554 H 241.533 -0.370433 -5.25295 0
M  V30 2555 H 244.024 -0.666893 -3.71969 0
M  V30 2556 H 244.337 -1.97479 -7.47143 0
M  V30 2557 H 242.682 -1.76926 -6.72103 0
M  V30 2558 H 245.873 -0.908869 -4.59192 0
M  V30 2559 H 246.046 -1.50506 -6.30279 0
M  V30 2560 N 239.452 1.56882 -0.150215 0
M  V30 2561 C 240.362 2.20494 0.801222 0
M  V30 2562 C 241.378 1.19019 1.26927 0
M  V30 2563 O 242.554 1.51607 1.32579 0
M  V30 2564 C 239.619 2.81659 2.02161 0
M  V30 2565 C 238.68 3.9827 1.60249 0
M  V30 2566 C 237.913 4.56508 2.7647 0
M  V30 2567 O 238.136 4.13627 3.92771 0
M  V30 2568 O 237.07 5.46719 2.51757 0
M  V30 2569 H 240.896 3.02315 0.289717 0
M  V30 2570 H 238.481 1.49202 0.0769684 0
M  V30 2571 H 240.363 3.20522 2.73576 0
M  V30 2572 H 239.038 2.02849 2.52258 0
M  V30 2573 H 237.945 3.64117 0.858477 0
M  V30 2574 H 239.278 4.78609 1.14864 0
M  V30 2575 N 240.93 -0.123565 1.57115 0
M  V30 2576 C 241.86 -1.15309 2.03042 0
M  V30 2577 C 242.841 -1.43454 0.914061 0
M  V30 2578 O 244.026 -1.53973 1.18347 0
M  V30 2579 C 241.156 -2.48043 2.43089 0
M  V30 2580 C 240.11 -2.3437 3.58127 0
M  V30 2581 C 239.436 -3.72026 3.84059 0
M  V30 2582 C 240.736 -1.80804 4.90007 0
M  V30 2583 H 242.43 -0.771102 2.893 0
M  V30 2584 H 239.976 -0.369479 1.39179 0
M  V30 2585 H 241.929 -3.20311 2.73823 0
M  V30 2586 H 240.653 -2.88122 1.53796 0
M  V30 2587 H 239.312 -1.64551 3.27595 0
M  V30 2588 H 238.96 -4.09582 2.91979 0
M  V30 2589 H 238.66 -3.63732 4.6149 0
M  V30 2590 H 240.184 -4.45806 4.1724 0
M  V30 2591 H 241.598 -2.42886 5.19307 0
M  V30 2592 H 239.995 -1.83343 5.71407 0
M  V30 2593 H 241.065 -0.76528 4.78823 0
M  V30 2594 N 242.408 -1.52605 -0.393616 0
M  V30 2595 C 243.685 -1.58001 -1.15304 0
M  V30 2596 C 244.065 -0.370385 -2.07825 0
M  V30 2597 O 243.413 0.641638 -2.19306 0
M  V30 2598 C 243.623 -2.91652 -1.91677 0
M  V30 2599 C 244.971 -3.4522 -2.47201 0
M  V30 2600 O 245.995 -2.93495 -2.01839 0
M  V30 2601 O 244.854 -4.35579 -3.3005 0
M  V30 2602 H 241.948 -0.637068 -0.527327 0
M  V30 2603 H 244.494 -1.64939 -0.399141 0
M  V30 2604 H 243.266 -3.71136 -1.23992 0
M  V30 2605 H 242.889 -2.88077 -2.74039 0
M  V30 2606 N 243.887 0.651787 -1.4349 0
M  V30 2607 C 245.164 1.40909 -1.35661 0
M  V30 2608 C 245.544 2.11099 -0.00511733 0
M  V30 2609 O 244.892 2.04892 1.0115 0
M  V30 2610 C 245.102 2.3926 -2.54078 0
M  V30 2611 C 246.45 3.03217 -2.97228 0
M  V30 2612 O 247.474 2.49588 -2.54135 0
M  V30 2613 O 246.333 4.00455 -3.71885 0
M  V30 2614 H 243.427 0.629625 -0.536191 0
M  V30 2615 H 245.973 0.678575 -1.55542 0
M  V30 2616 H 244.745 1.86352 -3.44076 0
M  V30 2617 H 244.368 3.1976 -2.36303 0
M  V30 2618 N 245.365 1.30045 0.890287 0
M  V30 2619 C 246.642 1.09227 1.62262 0
M  V30 2620 C 247.022 -0.360305 2.08002 0
M  V30 2621 O 246.37 -1.35084 1.84295 0
M  V30 2622 C 246.58 2.08835 2.79623 0
M  V30 2623 C 247.928 2.40266 3.50082 0
M  V30 2624 O 248.952 2.07104 2.89804 0
M  V30 2625 O 247.811 2.96967 4.58773 0
M  V30 2626 H 244.905 0.419132 0.712922 0
M  V30 2627 H 247.451 1.41451 0.937529 0
M  V30 2628 H 246.223 3.06633 2.43089 0
M  V30 2629 H 245.846 1.77397 3.55832 0
M  V30 2630 N 246.843 -1.10192 1.12674 0
M  V30 2631 C 247.753 -2.20172 0.810026 0
M  V30 2632 C 248.769 -1.72821 -0.202188 0
M  V30 2633 O 249.945 -2.01369 -0.0351691 0
M  V30 2634 C 247.01 -3.45631 0.272007 0
M  V30 2635 C 246.071 -4.07704 1.34447 0
M  V30 2636 C 245.304 -5.27175 0.832029 0
M  V30 2637 O 245.527 -5.69425 -0.333284 0
M  V30 2638 O 244.461 -5.80168 1.60277 0
M  V30 2639 H 248.287 -2.49701 1.72867 0
M  V30 2640 H 245.872 -1.18977 0.903597 0
M  V30 2641 H 247.754 -4.21394 -0.0230219 0
M  V30 2642 H 246.429 -3.17723 -0.619164 0
M  V30 2643 H 245.336 -3.33614 1.6927 0
M  V30 2644 H 246.669 -4.3982 2.2095 0
M  V30 2645 N 248.321 -0.919034 -1.28029 0
M  V30 2646 C 249.268 -0.410005 -2.27129 0
M  V30 2647 C 250.238 0.518405 -1.57803 0
M  V30 2648 O 251.423 0.439451 -1.8567 0
M  V30 2649 C 248.563 0.339054 -3.4343 0
M  V30 2650 C 247.676 -0.622468 -4.27492 0
M  V30 2651 C 246.811 0.145567 -5.31001 0
M  V30 2652 C 245.85 -0.809226 -6.06727 0
M  V30 2653 N 244.987 -0.0743728 -7.02061 0
M  V30 2654 H 249.827 -1.26011 -2.70047 0
M  V30 2655 H 247.364 -0.632663 -1.328 0
M  V30 2656 H 249.322 0.789586 -4.0966 0
M  V30 2657 H 247.952 1.15346 -3.01488 0
M  V30 2658 H 247.004 -1.19153 -3.61257 0
M  V30 2659 H 248.316 -1.35252 -4.80113 0
M  V30 2660 H 247.47 0.656417 -6.03139 0
M  V30 2661 H 246.209 0.908643 -4.79161 0
M  V30 2662 H 245.214 -1.3314 -5.33436 0
M  V30 2663 H 246.439 -1.57194 -6.60656 0
M  V30 2664 H 244.385 0.670616 -6.52563 0
M  V30 2665 H 244.302 -0.744157 -7.52329 0
M  V30 2666 H 245.57 0.416109 -7.78389 0
M  V30 2667 N 249.799 1.42003 -0.683588 0
M  V30 2668 C 251.046 2.01413 -0.209514 0
M  V30 2669 C 251.374 1.54088 1.1869 0
M  V30 2670 O 250.629 0.737591 1.81268 0
M  V30 2671 C 250.928 3.56827 -0.202357 0
M  V30 2672 C 250.594 4.23617 -1.54464 0
M  V30 2673 C 249.256 4.41577 -1.91215 0
M  V30 2674 C 251.608 4.61178 -2.42826 0
M  V30 2675 C 248.936 4.9437 -3.15935 0
M  V30 2676 C 251.288 5.15355 -3.66867 0
M  V30 2677 C 249.952 5.31528 -4.03776 0
M  V30 2678 H 249.222 0.737023 -0.0766668 0
M  V30 2679 H 251.869 1.70067 -0.880312 0
M  V30 2680 H 250.174 3.87892 0.551969 0
M  V30 2681 H 251.871 4.00588 0.181793 0
M  V30 2682 H 248.461 4.10004 -1.24877 0
M  V30 2683 H 252.645 4.46968 -2.15717 0
M  V30 2684 H 247.901 5.05076 -3.44541 0
M  V30 2685 H 252.075 5.43402 -4.35531 0
M  V30 2686 H 249.702 5.72199 -5.00492 0
M  V30 2687 N 251.277 0.427512 1.51691 0
M  V30 2688 C 252.523 -0.142439 2.02299 0
M  V30 2689 C 252.856 -1.43214 1.31162 0
M  V30 2690 O 252.131 -1.89833 0.423511 0
M  V30 2691 C 252.414 -0.371301 3.58181 0
M  V30 2692 C 252.267 0.936358 4.39946 0
M  V30 2693 C 253.586 -1.14542 4.24933 0
M  V30 2694 H 250.705 -0.0502937 0.735282 0
M  V30 2695 H 253.347 0.564584 1.81418 0
M  V30 2696 H 251.497 -0.973559 3.76104 0
M  V30 2697 H 253.169 1.57184 4.33694 0
M  V30 2698 H 251.412 1.5432 4.05423 0
M  V30 2699 H 252.083 0.730388 5.47147 0
M  V30 2700 H 254.559 -0.635362 4.11221 0
M  V30 2701 H 253.435 -1.27431 5.33903 0
M  V30 2702 H 253.696 -2.17093 3.85127 0
M  V30 2703 N 252.755 -1.56801 0.158532 0
M  V30 2704 C 253.98 -2.01295 -0.499516 0
M  V30 2705 C 254.405 -1.03799 -1.56867 0
M  V30 2706 O 253.763 -0.0155162 -1.81293 0
M  V30 2707 C 253.811 -3.44469 -1.06647 0
M  V30 2708 O 252.915 -3.50012 -2.18095 0
M  V30 2709 H 252.256 -0.652884 -0.12099 0
M  V30 2710 H 254.786 -2.02958 0.258661 0
M  V30 2711 H 254.796 -3.8351 -1.39227 0
M  V30 2712 H 253.471 -4.14932 -0.283581 0
M  V30 2713 H 252.048 -3.22822 -1.86656 0
M  V30 2714 N 254.233 0.115231 -1.57178 0
M  V30 2715 C 255.479 0.82357 -1.85325 0
M  V30 2716 C 255.812 1.79349 -0.744814 0
M  V30 2717 O 255.087 1.92899 0.249024 0
M  V30 2718 C 255.37 1.57014 -3.24066 0
M  V30 2719 C 255.223 0.619565 -4.45513 0
M  V30 2720 C 256.542 2.52545 -3.60429 0
M  V30 2721 H 253.661 0.297948 -0.674089 0
M  V30 2722 H 256.303 0.0877138 -1.89797 0
M  V30 2723 H 254.453 2.19742 -3.20383 0
M  V30 2724 H 256.125 0.000837639 -4.613 0
M  V30 2725 H 254.368 -0.0686174 -4.33746 0
M  V30 2726 H 255.039 1.17866 -5.3927 0
M  V30 2727 H 257.515 1.9992 -3.64926 0
M  V30 2728 H 256.391 3.01811 -4.58477 0
M  V30 2729 H 256.652 3.35383 -2.88047 0
M  V30 2730 N 255.711 1.52812 0.385517 0
M  V30 2731 C 256.941 1.71658 1.14966 0
M  V30 2732 C 257.349 0.436253 1.84102 0
M  V30 2733 O 256.692 -0.599313 1.73649 0
M  V30 2734 C 256.754 2.81309 2.23843 0
M  V30 2735 C 256.418 4.22313 1.74644 0
M  V30 2736 C 257.415 5.05352 1.22129 0
M  V30 2737 C 255.1 4.68648 1.80761 0
M  V30 2738 C 257.094 6.32807 0.763838 0
M  V30 2739 C 254.781 5.96086 1.34627 0
M  V30 2740 C 255.779 6.77996 0.825264 0
M  V30 2741 O 255.467 8.03045 0.370669 0
M  V30 2742 H 255.199 0.578022 0.350523 0
M  V30 2743 H 257.753 2.00263 0.456509 0
M  V30 2744 H 255.983 2.48133 2.96592 0
M  V30 2745 H 257.672 2.88524 2.85497 0
M  V30 2746 H 258.438 4.70736 1.16758 0
M  V30 2747 H 254.317 4.04979 2.20256 0
M  V30 2748 H 257.861 6.96689 0.356494 0
M  V30 2749 H 253.758 6.30205 1.39686 0
M  V30 2750 H 254.526 8.17021 0.491829 0
M  V30 2751 N 257.189 -0.644168 1.43834 0
M  V30 2752 C 258.437 -1.40117 1.45642 0
M  V30 2753 C 258.758 -1.94814 0.0852413 0
M  V30 2754 O 258.028 -1.74988 -0.880688 0
M  V30 2755 H 256.608 -0.52005 0.536243 0
M  V30 2756 H 259.27 -0.7591 1.7951 0
M  V30 2757 H 258.366 -2.23902 2.17427 0
M  V30 2758 N 258.668 -1.30515 -0.883378 0
M  V30 2759 C 259.896 -1.22359 -1.66841 0
M  V30 2760 C 260.311 0.213296 -1.87591 0
M  V30 2761 O 259.668 1.14075 -1.42454 0
M  V30 2762 C 259.719 -1.95011 -3.04389 0
M  V30 2763 O 259.44 -3.3309 -2.84575 0
M  V30 2764 C 260.941 -1.93532 -3.98824 0
M  V30 2765 H 258.161 -0.423371 -0.520575 0
M  V30 2766 H 260.705 -1.72167 -1.10357 0
M  V30 2767 H 258.86 -1.48997 -3.57601 0
M  V30 2768 H 259.274 -3.69907 -3.71846 0
M  V30 2769 H 260.748 -2.48902 -4.92699 0
M  V30 2770 H 261.225 -0.914627 -4.29571 0
M  V30 2771 H 261.831 -2.39364 -3.51547 0
M  V30 2772 N 260.146 1.09593 -1.13257 0
M  V30 2773 C 261.056 2.19739 -0.821691 0
M  V30 2774 C 262.072 1.72926 0.19302 0
M  V30 2775 O 263.248 2.01385 0.0244895 0
M  V30 2776 C 260.313 3.45482 -0.290333 0
M  V30 2777 C 259.374 4.06985 -1.36607 0
M  V30 2778 C 258.607 5.26726 -0.859975 0
M  V30 2779 O 258.83 5.69594 0.303082 0
M  V30 2780 O 257.764 5.7931 -1.63351 0
M  V30 2781 H 261.59 2.48781 -1.74189 0
M  V30 2782 H 259.175 1.18496 -0.909894 0
M  V30 2783 H 261.057 4.214 0.000674022 0
M  V30 2784 H 259.732 3.18047 0.602306 0
M  V30 2785 H 258.639 3.32712 -1.71037 0
M  V30 2786 H 259.972 4.38643 -2.23279 0
M  V30 2787 N 261.624 0.925811 1.2754 0
M  V30 2788 C 262.534 0.428993 2.30644 0
M  V30 2789 C 263.55 -0.489387 1.66976 0
M  V30 2790 O 264.726 -0.372653 1.97922 0
M  V30 2791 C 261.791 -0.311967 3.45294 0
M  V30 2792 C 260.852 0.641098 4.24486 0
M  V30 2793 C 260.085 -0.0645955 5.33661 0
M  V30 2794 O 260.308 -1.28429 5.55754 0
M  V30 2795 O 259.242 0.606265 5.98839 0
M  V30 2796 H 263.068 1.28504 2.75173 0
M  V30 2797 H 260.653 0.691086 1.32455 0
M  V30 2798 H 262.535 -0.729972 4.15029 0
M  V30 2799 H 261.21 -1.14365 3.02824 0
M  V30 2800 H 260.117 1.10874 3.57292 0
M  V30 2801 H 261.45 1.43995 4.70666 0
M  V30 2802 N 263.102 -1.41638 0.69111 0
M  V30 2803 C 264.332 -2.0533 0.228758 0
M  V30 2804 C 264.74 -1.52089 -1.12541 0
M  V30 2805 O 264.083 -0.662145 -1.71351 0
M  V30 2806 C 264.145 -3.59349 0.10407 0
M  V30 2807 C 263.809 -4.35362 1.38956 0
M  V30 2808 C 264.806 -4.64942 2.32648 0
M  V30 2809 C 262.491 -4.74714 1.64169 0
M  V30 2810 C 264.485 -5.32828 3.49818 0
M  V30 2811 C 262.172 -5.42338 2.81625 0
M  V30 2812 C 263.17 -5.71322 3.74273 0
M  V30 2813 O 262.858 -6.37554 4.89673 0
M  V30 2814 H 262.59 -0.667796 0.104997 0
M  V30 2815 H 265.144 -1.82477 0.942938 0
M  V30 2816 H 263.374 -3.80924 -0.665839 0
M  V30 2817 H 265.063 -4.04633 -0.320519 0
M  V30 2818 H 265.829 -4.35025 2.14425 0
M  V30 2819 H 261.708 -4.51538 0.929202 0
M  V30 2820 H 265.252 -5.55368 4.22152 0
M  V30 2821 H 261.149 -5.71673 2.99768 0
M  V30 2822 H 261.917 -6.56049 4.8943 0
M  V30 2823 N 264.58 -0.43555 -1.51462 0
M  V30 2824 C 265.51 0.367376 -2.30592 0
M  V30 2825 C 266.491 1.02263 -1.35928 0
M  V30 2826 O 267.676 1.02661 -1.64847 0
M  V30 2827 C 264.806 1.46983 -3.14664 0
M  V30 2828 C 263.76 0.938161 -4.17591 0
M  V30 2829 C 263.086 2.13622 -4.90173 0
M  V30 2830 C 264.386 -0.0261621 -5.22293 0
M  V30 2831 H 266.08 -0.292969 -2.97963 0
M  V30 2832 H 263.626 -0.14234 -1.43295 0
M  V30 2833 H 265.579 2.03873 -3.688 0
M  V30 2834 H 264.303 2.15843 -2.4511 0
M  V30 2835 H 262.962 0.391481 -3.64504 0
M  V30 2836 H 262.61 2.81098 -4.17124 0
M  V30 2837 H 262.31 1.78688 -5.59772 0
M  V30 2838 H 263.834 2.7107 -5.47132 0
M  V30 2839 H 265.248 0.452384 -5.71512 0
M  V30 2840 H 263.645 -0.287992 -5.99409 0
M  V30 2841 H 264.715 -0.963391 -4.75233 0
M  V30 2842 N 266.058 1.56714 -0.166846 0
M  V30 2843 C 267.008 2.14338 0.777382 0
M  V30 2844 C 267.992 1.07642 1.19591 0
M  V30 2845 O 269.184 1.33775 1.15902 0
M  V30 2846 C 266.313 2.78417 2.00846 0
M  V30 2847 C 265.399 3.92264 1.61212 0
M  V30 2848 N 265.79 4.97268 0.925104 0
M  V30 2849 C 264.088 4.03342 1.90346 0
M  V30 2850 C 264.789 5.77093 0.730627 0
M  V30 2851 N 263.765 5.2854 1.27067 0
M  V30 2852 H 267.567 2.9289 0.243466 0
M  V30 2853 H 265.081 1.62364 0.0339954 0
M  V30 2854 H 267.078 3.18073 2.69509 0
M  V30 2855 H 265.738 2.01344 2.54736 0
M  V30 2856 H 266.749 5.14601 0.583646 0
M  V30 2857 H 263.426 3.37368 2.45946 0
M  V30 2858 H 264.816 6.71638 0.187668 0
M  V30 2859 N 267.536 -0.106894 1.57237 0
M  V30 2860 C 268.947 -0.662723 1.74542 0
M  V30 2861 C 269.298 -1.7971 0.787319 0
M  V30 2862 O 268.423 -2.16368 -0.0369636 0
M  V30 2863 C 269.018 -1.20896 3.16496 0
M  V30 2864 C 267.577 -1.71096 3.35266 0
M  V30 2865 C 266.724 -0.615642 2.7038 0
M  V30 2866 H 269.675 0.119106 1.58252 0
M  V30 2867 H 269.696 -2.07847 3.18716 0
M  V30 2868 H 269.208 -0.383122 3.86204 0
M  V30 2869 H 267.309 -2.56119 2.70618 0
M  V30 2870 H 267.422 -1.81208 4.43509 0
M  V30 2871 H 265.786 -1.05222 2.31949 0
M  V30 2872 H 266.569 0.199419 3.4272 0
M  V30 2873 N 269.014 -1.53014 -0.377408 0
M  V30 2874 C 270.291 -1.59215 -1.13622 0
M  V30 2875 C 270.671 -0.392407 -2.07421 0
M  V30 2876 O 270.019 0.618342 -2.19975 0
M  V30 2877 C 270.229 -2.93669 -1.88573 0
M  V30 2878 C 271.577 -3.47822 -2.43526 0
M  V30 2879 O 272.601 -2.9562 -1.98715 0
M  V30 2880 O 271.46 -4.39055 -3.25412 0
M  V30 2881 H 268.554 -0.642625 -0.52054 0
M  V30 2882 H 271.1 -1.65353 -0.381625 0
M  V30 2883 H 269.872 -3.7243 -1.20048 0
M  V30 2884 H 269.495 -2.90968 -2.70968 0
M  V30 2885 N 270.492 0.636531 -1.44174 0
M  V30 2886 C 271.425 1.76139 -1.45087 0
M  V30 2887 C 272.403 1.59611 -0.310326 0
M  V30 2888 O 273.587 1.81568 -0.506477 0
M  V30 2889 C 270.714 3.13648 -1.27839 0
M  V30 2890 C 269.76 3.48838 -2.45386 0
M  V30 2891 S 270.593 3.46927 -4.07924 0
M  V30 2892 C 271.749 4.87064 -3.9309 0
M  V30 2893 H 271.982 1.75096 -2.40268 0
M  V30 2894 H 269.515 0.810666 -1.31406 0
M  V30 2895 H 271.473 3.93002 -1.18575 0
M  V30 2896 H 270.134 3.12235 -0.341787 0
M  V30 2897 H 269.327 4.48886 -2.29167 0
M  V30 2898 H 268.929 2.76935 -2.51362 0
M  V30 2899 H 271.221 5.76153 -3.56446 0
M  V30 2900 H 272.164 5.08337 -4.92949 0
M  V30 2901 H 272.572 4.61384 -3.25246 0
M  V30 2902 N 271.97 1.30982 0.876444 0
M  V30 2903 C 273.2 1.23063 1.65949 0
M  V30 2904 C 273.608 -0.207537 1.88058 0
M  V30 2905 O 272.951 -1.14781 1.43426 0
M  V30 2906 C 273.013 1.89768 3.05333 0
M  V30 2907 C 272.677 3.39106 3.0636 0
M  V30 2908 C 273.674 4.3496 2.84791 0
M  V30 2909 C 271.359 3.80693 3.27686 0
M  V30 2910 C 273.353 5.70375 2.84519 0
M  V30 2911 C 271.04 5.16223 3.27043 0
M  V30 2912 C 272.038 6.10875 3.05485 0
M  V30 2913 O 271.726 7.43928 3.04674 0
M  V30 2914 H 271.458 0.426685 0.524324 0
M  V30 2915 H 274.012 1.7329 1.10271 0
M  V30 2916 H 272.242 1.34082 3.6271 0
M  V30 2917 H 273.931 1.75853 3.65829 0
M  V30 2918 H 274.697 4.0416 2.68103 0
M  V30 2919 H 270.576 3.07457 3.43499 0
M  V30 2920 H 274.12 6.44228 2.67611 0
M  V30 2921 H 270.017 5.4666 3.43269 0
M  V30 2922 H 270.785 7.53022 3.2078 0
M  V30 2923 N 273.449 -1.08991 1.13837 0
M  V30 2924 C 274.359 -2.19301 0.833333 0
M  V30 2925 C 275.375 -1.73026 -0.183847 0
M  V30 2926 O 276.551 -2.01395 -0.0138092 0
M  V30 2927 C 273.616 -3.45323 0.308651 0
M  V30 2928 C 272.677 -4.06255 1.38764 0
M  V30 2929 C 271.91 -5.26262 0.887896 0
M  V30 2930 O 272.133 -5.69747 -0.27287 0
M  V30 2931 O 271.067 -5.78435 1.66421 0
M  V30 2932 H 274.893 -2.47854 1.75506 0
M  V30 2933 H 272.478 -1.18012 0.916166 0
M  V30 2934 H 274.36 -4.21394 0.0216739 0
M  V30 2935 H 273.035 -3.18362 -0.585431 0
M  V30 2936 H 271.942 -3.318 1.72799 0
M  V30 2937 H 273.275 -4.37452 2.25602 0
M  V30 2938 N 274.927 -0.932562 -1.27047 0
M  V30 2939 C 276.343 -0.633544 -1.46487 0
M  V30 2940 C 276.543 0.815746 -1.84249 0
M  V30 2941 O 275.599 1.59319 -1.95892 0
M  V30 2942 C 276.912 -1.58758 -2.55375 0
M  V30 2943 C 278.46 -1.59634 -2.69232 0
M  V30 2944 C 278.935 -2.53747 -3.81283 0
M  V30 2945 N 280.426 -2.51982 -3.88664 0
M  V30 2946 C 281.161 -3.21491 -4.74796 0
M  V30 2947 N 280.657 -4.00395 -5.65381 0
M  V30 2948 N 282.45 -3.10485 -4.68568 0
M  V30 2949 H 274.601 -1.86946 -1.00821 0
M  V30 2950 H 276.864 -0.802897 -0.504044 0
M  V30 2951 H 276.57 -2.62172 -2.34432 0
M  V30 2952 H 276.444 -1.33301 -3.52861 0
M  V30 2953 H 278.831 -0.569488 -2.89553 0
M  V30 2954 H 278.912 -1.89142 -1.72218 0
M  V30 2955 H 278.556 -3.56545 -3.61715 0
M  V30 2956 H 278.486 -2.21532 -4.77735 0
M  V30 2957 H 280.977 -1.94681 -3.23895 0
M  V30 2958 H 281.29 -4.50406 -6.27976 0
M  V30 2959 H 279.635 -4.04498 -5.65161 0
M  V30 2960 H 282.826 -2.48331 -3.96799 0
M  V30 2961 H 282.999 -3.64925 -5.35475 0
M  V30 2962 N 276.405 1.4127 -0.698611 0
M  V30 2963 C 277.368 2.29158 -0.044132 0
M  V30 2964 C 278.368 1.44529 0.704841 0
M  V30 2965 O 279.558 1.65643 0.539276 0
M  V30 2966 C 276.69 3.27459 0.947809 0
M  V30 2967 H 277.883 2.88529 -0.817994 0
M  V30 2968 H 275.436 1.49307 -0.46228 0
M  V30 2969 H 276.171 2.73073 1.74933 0
M  V30 2970 H 275.956 3.8991 0.41385 0
M  V30 2971 H 277.446 3.93311 1.40344 0
M  V30 2972 N 277.883 0.443576 1.51229 0
M  V30 2973 C 279.129 -0.120975 2.02439 0
M  V30 2974 C 279.462 -1.41815 1.32674 0
M  V30 2975 O 278.737 -1.89373 0.443622 0
M  V30 2976 C 279.02 -0.333291 3.58554 0
M  V30 2977 C 278.873 0.982968 4.38928 0
M  V30 2978 C 280.192 -1.10028 4.26124 0
M  V30 2979 H 277.311 -0.0424923 0.735774 0
M  V30 2980 H 279.953 0.583794 1.80809 0
M  V30 2981 H 278.103 -0.933614 3.77115 0
M  V30 2982 H 279.775 1.61775 4.32003 0
M  V30 2983 H 278.018 1.58611 4.03763 0
M  V30 2984 H 278.689 0.788379 5.46341 0
M  V30 2985 H 281.165 -0.591711 4.11871 0
M  V30 2986 H 280.041 -1.21761 5.35225 0
M  V30 2987 H 280.302 -2.12996 3.87408 0
M  V30 2988 N 279.361 -1.56624 0.175154 0
M  V30 2989 C 280.291 -2.21155 -0.749195 0
M  V30 2990 C 281.272 -1.16836 -1.23626 0
M  V30 2991 O 282.457 -1.45277 -1.28873 0
M  V30 2992 C 279.587 -2.8553 -1.97711 0
M  V30 2993 C 278.541 -3.95921 -1.62575 0
M  V30 2994 C 277.867 -4.47365 -2.92864 0
M  V30 2995 C 279.167 -5.15323 -0.850838 0
M  V30 2996 H 280.861 -2.98653 -0.211295 0
M  V30 2997 H 278.407 -1.43651 -0.100188 0
M  V30 2998 H 280.36 -3.2935 -2.62881 0
M  V30 2999 H 279.084 -2.05406 -2.53921 0
M  V30 3000 H 277.743 -3.52762 -0.997719 0
M  V30 3001 H 277.391 -3.64027 -3.47122 0
M  V30 3002 H 277.091 -5.21839 -2.70106 0
M  V30 3003 H 278.615 -4.93873 -3.59056 0
M  V30 3004 H 280.029 -5.55812 -1.40521 0
M  V30 3005 H 278.426 -5.95739 -0.722154 0
M  V30 3006 H 279.496 -4.84661 0.152082 0
M  V30 3007 N 280.839 0.0985539 -1.57292 0
M  V30 3008 C 282.255 0.45267 -1.53046 0
M  V30 3009 C 282.455 1.80713 -0.891342 0
M  V30 3010 O 281.511 2.4785 -0.482375 0
M  V30 3011 C 282.824 0.418341 -2.97776 0
M  V30 3012 C 284.372 0.500443 -3.08973 0
M  V30 3013 C 284.847 0.496297 -4.55303 0
M  V30 3014 N 286.338 0.557151 -4.59837 0
M  V30 3015 C 287.073 0.575726 -5.70502 0
M  V30 3016 N 286.569 0.550714 -6.90608 0
M  V30 3017 N 288.362 0.620277 -5.58667 0
M  V30 3018 H 280.513 -0.788673 -1.97215 0
M  V30 3019 H 282.776 -0.293188 -0.901524 0
M  V30 3020 H 282.482 -0.509659 -3.47988 0
M  V30 3021 H 282.356 1.2386 -3.56284 0
M  V30 3022 H 284.743 1.41886 -2.58751 0
M  V30 3023 H 284.824 -0.347894 -2.53423 0
M  V30 3024 H 284.468 -0.418162 -5.06176 0
M  V30 3025 H 284.398 1.3618 -5.08687 0
M  V30 3026 H 286.889 0.581816 -3.73394 0
M  V30 3027 H 287.202 0.568075 -7.70709 0
M  V30 3028 H 285.547 0.517816 -6.93068 0
M  V30 3029 H 288.738 0.637322 -4.63741 0
M  V30 3030 H 288.911 0.631283 -6.44918 0
M  V30 3031 N 282.317 1.53212 0.369288 0
M  V30 3032 C 283.264 1.79388 1.45219 0
M  V30 3033 C 284.234 0.638059 1.53356 0
M  V30 3034 O 285.419 0.879852 1.69302 0
M  V30 3035 C 282.559 1.98623 2.82211 0
M  V30 3036 C 281.672 3.26337 2.8307 0
M  V30 3037 C 280.807 3.35779 4.11614 0
M  V30 3038 C 279.846 4.5754 4.06601 0
M  V30 3039 N 278.983 4.64155 5.26787 0
M  V30 3040 H 283.823 2.71794 1.22198 0
M  V30 3041 H 281.36 1.34642 0.592444 0
M  V30 3042 H 283.318 2.07761 3.61789 0
M  V30 3043 H 281.948 1.09558 3.03639 0
M  V30 3044 H 281 3.26171 1.95747 0
M  V30 3045 H 282.312 4.15988 2.75237 0
M  V30 3046 H 281.466 3.44208 4.99606 0
M  V30 3047 H 280.205 2.44137 4.22195 0
M  V30 3048 H 279.21 4.49215 3.16996 0
M  V30 3049 H 280.435 5.50519 3.97625 0
M  V30 3050 H 278.381 3.75413 5.3796 0
M  V30 3051 H 278.298 5.47706 5.21109 0
M  V30 3052 H 279.566 4.76863 6.16621 0
M  V30 3053 N 283.795 -0.628877 1.44509 0
M  V30 3054 C 285.206 -1.21054 1.42137 0
M  V30 3055 C 285.557 -1.95715 0.137881 0
M  V30 3056 O 284.682 -2.02554 -0.761645 0
M  V30 3057 C 285.277 -2.20189 2.57493 0
M  V30 3058 C 283.836 -2.73777 2.58308 0
M  V30 3059 C 282.983 -1.48813 2.33987 0
M  V30 3060 H 285.934 -0.41942 1.53057 0
M  V30 3061 H 285.955 -3.02833 2.30375 0
M  V30 3062 H 285.467 -1.6582 3.50892 0
M  V30 3063 H 283.568 -3.32142 1.68856 0
M  V30 3064 H 283.681 -3.19662 3.56865 0
M  V30 3065 H 282.045 -1.77024 1.83124 0
M  V30 3066 H 282.828 -0.963442 3.29504 0
M  V30 3067 N 285.273 -1.31445 -0.869486 0
M  V30 3068 C 286.205 -1.14955 -1.98287 0
M  V30 3069 C 287.218 -0.0885037 -1.62559 0
M  V30 3070 O 288.407 -0.336044 -1.75308 0
M  V30 3071 C 285.507 -0.734255 -3.3085 0
M  V30 3072 C 284.68 -1.88042 -3.94917 0
M  V30 3073 C 283.739 -1.4511 -5.05796 0
M  V30 3074 O 282.765 -2.16082 -5.2659 0
M  V30 3075 N 283.967 -0.338763 -5.79511 0
M  V30 3076 H 286.732 -2.10856 -2.12979 0
M  V30 3077 H 284.293 -1.23786 -1.04349 0
M  V30 3078 H 286.285 -0.42975 -4.02412 0
M  V30 3079 H 284.855 0.133158 -3.12316 0
M  V30 3080 H 284.075 -2.35222 -3.1633 0
M  V30 3081 H 285.363 -2.6481 -4.34457 0
M  V30 3082 H 284.761 0.252274 -5.65137 0
M  V30 3083 H 283.318 -0.0937925 -6.51733 0
M  V30 3084 N 286.751 1.08385 -1.14413 0
M  V30 3085 C 287.683 2.1519 -0.789036 0
M  V30 3086 C 288.696 1.61638 0.19417 0
M  V30 3087 O 289.885 1.78479 -0.0275711 0
M  V30 3088 C 286.985 3.38565 -0.15058 0
M  V30 3089 C 286.158 4.21501 -1.16857 0
M  V30 3090 C 285.217 5.23277 -0.553832 0
M  V30 3091 O 284.243 5.56041 -1.21686 0
M  V30 3092 N 285.445 5.76629 0.669296 0
M  V30 3093 H 288.21 2.46257 -1.70814 0
M  V30 3094 H 285.771 1.24198 -1.03858 0
M  V30 3095 H 287.763 4.03777 0.273181 0
M  V30 3096 H 286.333 3.05299 0.671667 0
M  V30 3097 H 285.553 3.52265 -1.76926 0
M  V30 3098 H 286.841 4.73731 -1.85624 0
M  V30 3099 H 286.239 5.52243 1.22654 0
M  V30 3100 H 284.796 6.43521 1.03556 0
M  V30 3101 N 288.23 0.939286 1.26551 0
M  V30 3102 C 289.177 0.446088 2.26448 0
M  V30 3103 C 290.147 -0.493234 1.58608 0
M  V30 3104 O 291.332 -0.409857 1.86346 0
M  V30 3105 C 288.472 -0.284375 3.43926 0
M  V30 3106 C 287.585 0.690399 4.26448 0
M  V30 3107 C 286.72 -0.0610712 5.31165 0
M  V30 3108 C 285.759 0.905649 6.05363 0
M  V30 3109 N 284.896 0.186055 7.01853 0
M  V30 3110 H 289.736 1.30291 2.68008 0
M  V30 3111 H 287.273 0.65371 1.31776 0
M  V30 3112 H 289.231 -0.724313 4.10864 0
M  V30 3113 H 287.861 -1.10535 3.03285 0
M  V30 3114 H 286.913 1.24885 3.59316 0
M  V30 3115 H 288.225 1.42873 4.779 0
M  V30 3116 H 287.379 -0.56038 6.04106 0
M  V30 3117 H 286.118 -0.832297 4.80546 0
M  V30 3118 H 285.123 1.4161 5.3125 0
M  V30 3119 H 286.348 1.67685 6.58072 0
M  V30 3120 H 284.294 -0.566714 6.53548 0
M  V30 3121 H 284.211 0.863752 7.51049 0
M  V30 3122 H 285.479 -0.292221 7.78952 0
M  V30 3123 N 289.708 -1.40897 0.706093 0
M  V30 3124 C 290.671 -2.29131 0.0562841 0
M  V30 3125 C 291.671 -1.44901 -0.697166 0
M  V30 3126 O 292.861 -1.65926 -0.530484 0
M  V30 3127 C 289.993 -3.27957 -0.93043 0
M  V30 3128 H 291.186 -2.88091 0.833284 0
M  V30 3129 H 288.739 -1.4906 0.470192 0
M  V30 3130 H 289.474 -2.73997 -1.73482 0
M  V30 3131 H 289.259 -3.90124 -0.393166 0
M  V30 3132 H 290.749 -3.94049 -1.38256 0
M  V30 3133 N 291.186 -0.45159 -1.50991 0
M  V30 3134 C 292.433 0.110074 -2.02201 0
M  V30 3135 C 292.761 1.4146 -1.33489 0
M  V30 3136 O 292.016 1.90617 -0.443125 0
M  V30 3137 C 292.315 0.361728 -3.55565 0
M  V30 3138 C 291.981 -0.858717 -4.42648 0
M  V30 3139 C 290.643 -1.19338 -4.66167 0
M  V30 3140 C 292.995 -1.67221 -4.93646 0
M  V30 3141 C 290.323 -2.34195 -5.37931 0
M  V30 3142 C 292.675 -2.8119 -5.6667 0
M  V30 3143 C 291.339 -3.15094 -5.88449 0
M  V30 3144 H 290.609 0.040279 -0.739904 0
M  V30 3145 H 293.256 -0.601696 -1.81802 0
M  V30 3146 H 291.561 1.15554 -3.74372 0
M  V30 3147 H 293.258 0.80996 -3.92735 0
M  V30 3148 H 289.848 -0.58796 -4.24548 0
M  V30 3149 H 294.032 -1.42686 -4.75347 0
M  V30 3150 H 289.288 -2.6076 -5.53005 0
M  V30 3151 H 293.462 -3.44585 -6.05173 0
M  V30 3152 H 291.089 -4.04204 -6.43835 0
M  V30 3153 N 292.664 1.56529 -0.183458 0
M  V30 3154 C 293.912 1.96855 0.457452 0
M  V30 3155 C 294.233 1.07104 1.62953 0
M  V30 3156 O 293.503 0.139887 1.954 0
M  V30 3157 H 292.083 0.72693 0.171992 0
M  V30 3158 H 294.745 1.93056 -0.267476 0
M  V30 3159 H 293.841 3.01423 0.809368 0
M  V30 3160 N 294.142 -0.090211 1.57342 0
M  V30 3161 C 295.388 -0.793982 1.86611 0
M  V30 3162 C 295.721 -1.78142 0.773252 0
M  V30 3163 O 294.996 -1.93271 -0.218304 0
M  V30 3164 C 295.279 -1.51839 3.26523 0
M  V30 3165 C 295.132 -0.548609 4.46442 0
M  V30 3166 C 296.451 -2.46779 3.64401 0
M  V30 3167 H 293.57 -0.287186 0.678744 0
M  V30 3168 H 296.212 -0.0575076 1.89913 0
M  V30 3169 H 294.362 -2.14617 3.23839 0
M  V30 3170 H 296.034 0.0725513 4.61243 0
M  V30 3171 H 294.277 0.137614 4.33582 0
M  V30 3172 H 294.948 -1.09271 5.41076 0
M  V30 3173 H 297.424 -1.94089 3.68061 0
M  V30 3174 H 296.3 -2.94479 4.63221 0
M  V30 3175 H 296.561 -3.30758 2.93346 0
M  V30 3176 N 295.62 -1.53406 -0.361157 0
M  V30 3177 C 296.848 -1.73717 -1.12383 0
M  V30 3178 C 297.263 -0.468161 -1.82904 0
M  V30 3179 O 296.62 0.559198 -1.73722 0
M  V30 3180 C 296.671 -2.90558 -2.15078 0
M  V30 3181 O 296.392 -4.12549 -1.47428 0
M  V30 3182 C 297.893 -3.22777 -3.03858 0
M  V30 3183 H 295.113 -0.580896 -0.335858 0
M  V30 3184 H 297.657 -2.00167 -0.418728 0
M  V30 3185 H 295.812 -2.66489 -2.8118 0
M  V30 3186 H 296.226 -4.78009 -2.15887 0
M  V30 3187 H 297.7 -4.07927 -3.71887 0
M  V30 3188 H 298.177 -2.38329 -3.68912 0
M  V30 3189 H 298.783 -3.48787 -2.43367 0
M  V30 3190 N 297.098 0.621204 -1.44841 0
M  V30 3191 C 298.344 1.3826 -1.48365 0
M  V30 3192 C 298.677 1.93831 -0.119624 0
M  V30 3193 O 297.952 1.74251 0.864111 0
M  V30 3194 C 298.235 2.54058 -2.55199 0
M  V30 3195 C 298.088 2.03772 -4.00995 0
M  V30 3196 C 299.407 3.56225 -2.58442 0
M  V30 3197 H 296.526 0.501374 -0.540179 0
M  V30 3198 H 299.168 0.7015 -1.76576 0
M  V30 3199 H 297.318 3.12162 -2.31274 0
M  V30 3200 H 298.99 1.50423 -4.36086 0
M  V30 3201 H 297.233 1.34876 -4.12299 0
M  V30 3202 H 297.904 2.87185 -4.71411 0
M  V30 3203 H 300.38 3.07939 -2.79844 0
M  V30 3204 H 299.256 4.34756 -3.3508 0
M  V30 3205 H 299.517 4.10949 -1.63013 0
M  V30 3206 N 298.576 1.31904 0.862503 0
M  V30 3207 C 299.853 1.12644 1.59908 0
M  V30 3208 C 300.233 -0.316104 2.0872 0
M  V30 3209 O 299.581 -1.31145 1.87118 0
M  V30 3210 C 299.791 2.1472 2.7513 0
M  V30 3211 C 301.139 2.47637 3.44907 0
M  V30 3212 O 302.163 2.13205 2.85346 0
M  V30 3213 O 301.022 3.06632 4.52371 0
M  V30 3214 H 298.116 0.43416 0.703871 0
M  V30 3215 H 300.662 1.43408 0.907314 0
M  V30 3216 H 299.434 3.1172 2.3653 0
M  V30 3217 H 299.057 1.84905 3.51989 0
M  V30 3218 N 300.054 -1.07777 1.14986 0
M  V30 3219 C 300.984 -2.16865 0.865557 0
M  V30 3220 C 301.965 -1.69123 -0.182083 0
M  V30 3221 O 303.15 -1.94164 -0.0373815 0
M  V30 3222 C 300.28 -3.45539 0.349313 0
M  V30 3223 C 299.234 -4.06708 1.33313 0
M  V30 3224 C 298.56 -5.30411 0.675918 0
M  V30 3225 C 299.86 -4.47241 2.69764 0
M  V30 3226 H 301.554 -2.40905 1.77778 0
M  V30 3227 H 299.1 -1.15781 0.856203 0
M  V30 3228 H 301.053 -4.21174 0.137983 0
M  V30 3229 H 299.777 -3.21072 -0.598362 0
M  V30 3230 H 298.436 -3.33112 1.53075 0
M  V30 3231 H 298.084 -5.02232 -0.277767 0
M  V30 3232 H 297.784 -5.72293 1.33244 0
M  V30 3233 H 299.308 -6.08755 0.474262 0
M  V30 3234 H 300.722 -5.14025 2.53873 0
M  V30 3235 H 299.119 -5.00062 3.3175 0
M  V30 3236 H 300.189 -3.58818 3.26156 0
M  V30 3237 N 301.532 -0.945985 -1.26051 0
M  V30 3238 C 302.778 -0.606539 -1.94146 0
M  V30 3239 C 303.133 0.84586 -1.72809 0
M  V30 3240 O 302.426 1.59781 -1.05738 0
M  V30 3241 C 302.62 -0.890475 -3.46129 0
M  V30 3242 C 302.449 -2.36892 -3.82246 0
M  V30 3243 C 301.219 -3.02494 -4.04753 0
M  V30 3244 C 303.417 -3.34772 -3.90425 0
M  V30 3245 N 301.399 -4.40302 -4.27794 0
M  V30 3246 C 302.77 -4.57855 -4.18054 0
M  V30 3247 C 304.825 -3.2973 -3.73072 0
M  V30 3248 C 303.528 -5.76522 -4.30134 0
M  V30 3249 C 305.554 -4.47727 -3.86386 0
M  V30 3250 C 304.916 -5.69593 -4.14419 0
M  V30 3251 H 301.015 -0.272407 -0.73302 0
M  V30 3252 H 303.599 -1.21638 -1.52027 0
M  V30 3253 H 301.77 -0.309638 -3.87164 0
M  V30 3254 H 303.502 -0.51181 -4.01451 0
M  V30 3255 H 300.257 -2.53095 -4.003 0
M  V30 3256 H 300.681 -5.11646 -4.43337 0
M  V30 3257 H 305.323 -2.36565 -3.50424 0
M  V30 3258 H 303.041 -6.70136 -4.51601 0
M  V30 3259 H 306.627 -4.45363 -3.74356 0
M  V30 3260 H 305.507 -6.59375 -4.24493 0
M  V30 3261 N 303.011 1.40521 -0.713556 0
M  V30 3262 C 304.236 2.05759 -0.26035 0
M  V30 3263 C 304.661 1.53403 1.08854 0
M  V30 3264 O 304.019 0.668535 1.68524 0
M  V30 3265 C 304.067 3.59745 -0.248122 0
M  V30 3266 O 303.171 4.05123 0.77131 0
M  V30 3267 H 302.512 0.652564 -0.122703 0
M  V30 3268 H 305.042 1.79958 -0.973467 0
M  V30 3269 H 305.052 4.07911 -0.0851129 0
M  V30 3270 H 303.727 3.97218 -1.2325 0
M  V30 3271 H 302.304 3.68422 0.57619 0
M  V30 3272 N 304.489 0.459591 1.5075 0
M  V30 3273 C 305.738 -0.100971 2.01447 0
M  V30 3274 C 306.051 -1.41816 1.34713 0
M  V30 3275 O 307.257 -2.06299 1.76502 0
M  V30 3276 C 305.713 -0.23047 3.59161 0
M  V30 3277 C 305.321 1.0776 4.34847 0
M  V30 3278 C 307.065 -0.743608 4.17936 0
M  V30 3279 C 304.972 0.91253 5.84317 0
M  V30 3280 H 303.902 -0.0415102 0.752856 0
M  V30 3281 H 306.553 0.592742 1.73663 0
M  V30 3282 H 304.935 -0.987703 3.83485 0
M  V30 3283 H 306.109 1.8449 4.22256 0
M  V30 3284 H 304.424 1.52097 3.87628 0
M  V30 3285 H 307.021 -0.883959 5.27343 0
M  V30 3286 H 307.364 -1.73196 3.78562 0
M  V30 3287 H 307.897 -0.04408 3.97776 0
M  V30 3288 H 304.636 1.87391 6.28144 0
M  V30 3289 H 304.156 0.185422 5.99513 0
M  V30 3290 H 305.835 0.574547 6.44444 0
M  V30 3291 N 305.967 -1.56429 0.191757 0
M  V30 3292 C 307.215 -1.97095 -0.447006 0
M  V30 3293 C 307.536 -1.07967 -1.62383 0
M  V30 3294 O 306.806 -0.150248 -1.95323 0
M  V30 3295 H 305.386 -0.727832 -0.168135 0
M  V30 3296 H 308.048 -1.92911 0.27771 0
M  V30 3297 H 307.144 -3.01848 -0.793371 0
M  V30 3298 N 307.445 0.0818655 -1.57387 0
M  V30 3299 C 308.691 0.784074 -1.8703 0
M  V30 3300 C 309.024 1.77729 -0.782689 0
M  V30 3301 O 308.299 1.93384 0.208051 0
M  V30 3302 C 308.582 1.50105 -3.27323 0
M  V30 3303 C 308.435 0.524925 -4.46727 0
M  V30 3304 C 309.754 2.44843 -3.65705 0
M  V30 3305 H 306.873 0.283582 -0.680257 0
M  V30 3306 H 309.515 0.0474352 -1.89941 0
M  V30 3307 H 307.665 2.12897 -3.24972 0
M  V30 3308 H 309.337 -0.0970111 -4.61198 0
M  V30 3309 H 307.58 -0.160606 -4.33503 0
M  V30 3310 H 308.251 1.064 -5.41648 0
M  V30 3311 H 310.727 1.92135 -3.69085 0
M  V30 3312 H 309.603 2.92018 -4.64776 0
M  V30 3313 H 309.864 3.29197 -2.95096 0
M  V30 3314 N 308.923 1.53595 0.353017 0
M  V30 3315 C 310.151 1.74311 1.1146 0
M  V30 3316 C 310.566 0.477854 1.82653 0
M  V30 3317 O 309.923 -0.549977 1.74016 0
M  V30 3318 C 309.974 2.91694 2.13534 0
M  V30 3319 O 309.695 4.13325 1.45238 0
M  V30 3320 C 311.196 3.24384 3.02142 0
M  V30 3321 H 308.416 0.582669 0.332773 0
M  V30 3322 H 310.96 2.00386 0.408107 0
M  V30 3323 H 309.115 2.67977 2.79763 0
M  V30 3324 H 309.529 4.79148 2.13349 0
M  V30 3325 H 311.003 4.09893 3.69718 0
M  V30 3326 H 311.48 2.40282 3.67643 0
M  V30 3327 H 312.086 3.50073 2.41514 0
M  V30 3328 N 310.401 -0.613514 1.45168 0
M  V30 3329 C 311.331 -1.7354 1.56225 0
M  V30 3330 C 312.312 -1.64981 0.41414 0
M  V30 3331 O 313.497 -1.83472 0.636526 0
M  V30 3332 C 310.627 -3.12128 1.52295 0
M  V30 3333 C 309.581 -3.35491 2.65762 0
M  V30 3334 C 308.907 -4.74291 2.46885 0
M  V30 3335 C 310.207 -3.26325 4.0781 0
M  V30 3336 H 311.901 -1.64543 2.50132 0
M  V30 3337 H 309.447 -0.790185 1.20383 0
M  V30 3338 H 311.4 -3.90404 1.58628 0
M  V30 3339 H 310.124 -3.2195 0.549139 0
M  V30 3340 H 308.783 -2.59603 2.58847 0
M  V30 3341 H 308.431 -4.80839 1.47657 0
M  V30 3342 H 308.131 -4.9088 3.22972 0
M  V30 3343 H 309.655 -5.54775 2.55063 0
M  V30 3344 H 311.069 -3.94483 4.16 0
M  V30 3345 H 309.466 -3.54445 4.8424 0
M  V30 3346 H 310.536 -2.23855 4.30136 0
M  V30 3347 N 311.879 -1.3236 -0.855495 0
M  V30 3348 C 313.109 -1.25688 -1.6397 0
M  V30 3349 C 313.517 0.177592 -1.88365 0
M  V30 3350 O 312.86 1.12485 -1.45234 0
M  V30 3351 C 312.922 -1.94602 -3.02275 0
M  V30 3352 C 312.586 -3.43937 -3.00926 0
M  V30 3353 C 313.583 -4.39435 -2.77835 0
M  V30 3354 C 311.268 -3.85858 -3.21588 0
M  V30 3355 C 313.262 -5.74829 -2.75409 0
M  V30 3356 C 310.949 -5.21361 -3.18789 0
M  V30 3357 C 311.947 -6.15658 -2.95727 0
M  V30 3358 O 311.635 -7.48681 -2.928 0
M  V30 3359 H 311.367 -0.434972 -0.51747 0
M  V30 3360 H 313.921 -1.75023 -1.075 0
M  V30 3361 H 312.151 -1.39836 -3.60531 0
M  V30 3362 H 313.84 -1.81651 -3.62985 0
M  V30 3363 H 314.606 -4.08374 -2.6164 0
M  V30 3364 H 310.485 -3.12883 -3.38564 0
M  V30 3365 H 314.029 -6.48404 -2.57328 0
M  V30 3366 H 309.926 -5.52052 -3.34528 0
M  V30 3367 H 310.694 -7.5803 -3.0876 0
M  V30 3368 N 313.357 1.07166 -1.15556 0
M  V30 3369 C 314.307 2.12649 -0.82247 0
M  V30 3370 C 315.291 1.59725 0.194129 0
M  V30 3371 O 316.483 1.76999 -0.00540402 0
M  V30 3372 C 313.612 3.41847 -0.315572 0
M  V30 3373 C 312.698 4.0162 -1.36244 0
M  V30 3374 N 313.089 4.35625 -2.5703 0
M  V30 3375 C 311.387 4.29114 -1.21562 0
M  V30 3376 C 312.088 4.83017 -3.24144 0
M  V30 3377 N 311.064 4.81906 -2.51531 0
M  V30 3378 H 314.866 2.36776 -1.74111 0
M  V30 3379 H 312.38 1.24622 -1.0413 0
M  V30 3380 H 314.377 4.16859 -0.0585855 0
M  V30 3381 H 313.037 3.19163 0.597105 0
M  V30 3382 H 314.048 4.26253 -2.94158 0
M  V30 3383 H 310.725 4.15919 -0.362988 0
M  V30 3384 H 312.115 5.18605 -4.27198 0
M  V30 3385 N 314.835 0.952656 1.25548 0
M  V30 3386 C 315.798 0.475794 2.24207 0
M  V30 3387 C 316.798 -0.419428 1.55234 0
M  V30 3388 O 317.988 -0.216994 1.72843 0
M  V30 3389 C 315.12 -0.312814 3.39462 0
M  V30 3390 H 316.313 1.34779 2.67908 0
M  V30 3391 H 313.866 0.735739 1.37901 0
M  V30 3392 H 314.601 -1.20257 3.01179 0
M  V30 3393 H 314.386 0.329404 3.90714 0
M  V30 3394 H 315.876 -0.635986 4.12729 0
M  V30 3395 N 316.313 -1.40141 0.720998 0
M  V30 3396 C 317.276 -2.29058 0.0805834 0
M  V30 3397 C 318.276 -1.45632 -0.681758 0
M  V30 3398 O 319.466 -1.6648 -0.512856 0
M  V30 3399 C 316.598 -3.28925 -0.895593 0
M  V30 3400 H 317.791 -2.87191 0.863793 0
M  V30 3401 H 315.344 -1.48553 0.485975 0
M  V30 3402 H 316.079 -2.75822 -1.70566 0
M  V30 3403 H 315.864 -3.90519 -0.351766 0
M  V30 3404 H 317.354 -3.95494 -1.34069 0
M  V30 3405 N 317.792 -0.46758 -1.50504 0
M  V30 3406 C 319.02 0.0864133 -2.06719 0
M  V30 3407 C 319.435 1.33819 -1.33184 0
M  V30 3408 O 318.792 1.78061 -0.400083 0
M  V30 3409 C 318.843 0.378079 -3.59517 0
M  V30 3410 O 318.564 -0.824044 -4.3028 0
M  V30 3411 C 320.065 0.979426 -4.32345 0
M  V30 3412 H 317.285 -0.00551697 -0.670977 0
M  V30 3413 H 319.829 -0.655354 -1.93715 0
M  V30 3414 H 317.984 1.06977 -3.72337 0
M  V30 3415 H 318.398 -0.566518 -5.21432 0
M  V30 3416 H 319.872 1.1333 -5.40241 0
M  V30 3417 H 320.349 1.9686 -3.9261 0
M  V30 3418 H 320.955 0.326216 -4.24047 0
M  V30 3419 N 319.27 1.56325 -0.20005 0
M  V30 3420 C 320.518 1.97329 0.436547 0
M  V30 3421 C 320.839 1.08826 1.61808 0
M  V30 3422 O 320.109 0.160604 1.95241 0
M  V30 3423 H 318.689 0.728714 0.164272 0
M  V30 3424 H 321.351 1.92761 -0.287937 0
M  V30 3425 H 320.447 3.02264 0.777353 0
M  V30 3426 N 320.748 -0.0735177 1.57428 0
M  V30 3427 C 321.973 -0.789787 1.91774 0
M  V30 3428 C 322.398 -1.70413 0.796306 0
M  V30 3429 O 321.756 -1.79555 -0.250961 0
M  V30 3430 C 321.804 -1.5609 3.25067 0
M  V30 3431 O 320.908 -2.67144 3.14178 0
M  V30 3432 H 320.249 -0.215582 0.628029 0
M  V30 3433 H 322.779 -0.0422781 2.04556 0
M  V30 3434 H 322.789 -1.94052 3.58898 0
M  V30 3435 H 321.464 -0.890015 4.06265 0
M  V30 3436 H 320.041 -2.32052 2.91901 0
M  V30 3437 N 322.226 -1.5378 -0.344866 0
M  V30 3438 C 323.156 -1.84662 -1.42906 0
M  V30 3439 C 324.137 -0.701648 -1.54955 0
M  V30 3440 O 325.322 -0.953438 -1.69184 0
M  V30 3441 C 322.452 -2.05503 -2.79974 0
M  V30 3442 C 321.406 -3.21318 -2.82734 0
M  V30 3443 C 320.732 -3.2749 -4.22675 0
M  V30 3444 C 322.032 -4.59456 -2.48389 0
M  V30 3445 H 323.726 -2.75461 -1.17311 0
M  V30 3446 H 321.272 -1.32542 -0.562896 0
M  V30 3447 H 323.225 -2.25691 -3.55867 0
M  V30 3448 H 321.949 -1.11434 -3.07002 0
M  V30 3449 H 320.608 -3.00984 -2.09294 0
M  V30 3450 H 320.256 -2.31019 -4.4681 0
M  V30 3451 H 319.956 -4.05316 -4.25433 0
M  V30 3452 H 321.48 -3.49887 -5.00412 0
M  V30 3453 H 322.894 -4.79667 -3.13995 0
M  V30 3454 H 321.291 -5.39675 -2.62432 0
M  V30 3455 H 322.361 -4.63155 -1.4358 0
M  V30 3456 N 323.704 0.605807 -1.45491 0
M  V30 3457 C 325.115 1.18777 -1.44045 0
M  V30 3458 C 325.466 1.95471 -0.169001 0
M  V30 3459 O 324.591 2.0374 0.729324 0
M  V30 3460 C 325.186 2.16064 -2.60963 0
M  V30 3461 C 323.745 2.69633 -2.62631 0
M  V30 3462 C 322.892 1.45072 -2.36325 0
M  V30 3463 H 325.843 0.395017 -1.53705 0
M  V30 3464 H 325.864 2.9913 -2.35163 0
M  V30 3465 H 325.376 1.60217 -3.53486 0
M  V30 3466 H 323.477 3.29414 -1.74119 0
M  V30 3467 H 323.59 3.13944 -3.61906 0
M  V30 3468 H 321.954 1.74089 -1.85917 0
M  V30 3469 H 322.737 0.910899 -3.30995 0
M  V30 3470 N 325.182 1.32811 0.848464 0
M  V30 3471 C 326.429 1.23724 1.60308 0
M  V30 3472 C 326.757 -0.1994 1.93475 0
M  V30 3473 O 326.012 -1.15406 1.5805 0
M  V30 3474 C 326.311 2.04831 2.92881 0
M  V30 3475 C 325.977 3.54125 2.79117 0
M  V30 3476 C 324.639 3.94829 2.7507 0
M  V30 3477 C 326.991 4.49036 2.64606 0
M  V30 3478 C 324.319 5.28675 2.544 0
M  V30 3479 C 326.671 5.83033 2.4547 0
M  V30 3480 C 325.335 6.22931 2.39819 0
M  V30 3481 H 324.605 0.452737 0.586609 0
M  V30 3482 H 327.252 1.64301 0.983743 0
M  V30 3483 H 325.557 1.57001 3.58968 0
M  V30 3484 H 327.254 1.95164 3.50303 0
M  V30 3485 H 323.844 3.21801 2.83094 0
M  V30 3486 H 328.028 4.18505 2.66772 0
M  V30 3487 H 323.284 5.58637 2.48465 0
M  V30 3488 H 327.458 6.56186 2.33222 0
M  V30 3489 H 325.085 7.26584 2.23562 0
M  V30 3490 N 326.66 -1.06551 1.16123 0
M  V30 3491 C 327.909 -1.78687 0.935622 0
M  V30 3492 C 328.222 -1.88056 -0.538001 0
M  V30 3493 O 329.428 -2.56794 -0.88143 0
M  V30 3494 C 327.884 -3.21143 1.62466 0
M  V30 3495 C 327.492 -3.19949 3.13587 0
M  V30 3496 C 329.236 -3.9783 1.48092 0
M  V30 3497 C 327.143 -4.57108 3.75241 0
M  V30 3498 H 326.073 -0.669712 0.346412 0
M  V30 3499 H 328.724 -1.19534 1.39226 0
M  V30 3500 H 327.106 -3.80539 1.09572 0
M  V30 3501 H 328.28 -2.70151 3.73303 0
M  V30 3502 H 326.595 -2.5676 3.27816 0
M  V30 3503 H 329.192 -4.99217 1.91538 0
M  V30 3504 H 329.535 -4.14078 0.429507 0
M  V30 3505 H 330.068 -3.4495 1.98127 0
M  V30 3506 H 326.807 -4.46065 4.80319 0
M  V30 3507 H 326.327 -5.07111 3.20309 0
M  V30 3508 H 328.006 -5.26069 3.76644 0
M  V30 3509 N 328.138 -0.959301 -1.25041 0
M  V30 3510 C 329.549 -0.65667 -1.74771 0
M  V30 3511 C 329.9 0.827852 -1.77879 0
M  V30 3512 O 329.025 1.64783 -1.40269 0
M  V30 3513 C 329.62 -1.1853 -3.1739 0
M  V30 3514 C 328.179 -0.932734 -3.6466 0
M  V30 3515 C 327.326 -1.32558 -2.43564 0
M  V30 3516 H 330.277 -1.13558 -1.10862 0
M  V30 3517 H 330.298 -0.547582 -3.76539 0
M  V30 3518 H 329.81 -2.26576 -3.15095 0
M  V30 3519 H 327.911 0.13257 -3.72364 0
M  V30 3520 H 328.024 -1.57248 -4.52559 0
M  V30 3521 H 326.388 -0.743956 -2.43593 0
M  V30 3522 H 327.171 -2.41537 -2.43957 0
M  V30 3523 N 329.616 1.39756 -0.72842 0
M  V30 3524 C 330.863 2.00645 -0.273487 0
M  V30 3525 C 331.191 1.57786 1.13727 0
M  V30 3526 O 330.446 0.794886 1.7883 0
M  V30 3527 C 330.745 3.56002 -0.315776 0
M  V30 3528 C 330.411 4.18489 -1.67863 0
M  V30 3529 C 329.073 4.3527 -2.05166 0
M  V30 3530 C 331.425 4.53219 -2.57375 0
M  V30 3531 C 328.753 4.84069 -3.31503 0
M  V30 3532 C 331.105 5.03423 -3.83077 0
M  V30 3533 C 329.769 5.18413 -4.20481 0
M  V30 3534 H 329.039 0.734211 -0.100076 0
M  V30 3535 H 331.686 1.6718 -0.933972 0
M  V30 3536 H 329.991 3.89452 0.428285 0
M  V30 3537 H 331.688 4.00963 0.0542575 0
M  V30 3538 H 328.278 4.05824 -1.37858 0
M  V30 3539 H 332.462 4.39878 -2.29827 0
M  V30 3540 H 327.718 4.93859 -3.60435 0
M  V30 3541 H 331.892 5.2927 -4.52599 0
M  V30 3542 H 329.519 5.55987 -5.18443 0
M  V30 3543 N 331.094 0.475555 1.50254 0
M  V30 3544 C 332.342 -0.077738 2.0195 0
M  V30 3545 C 332.663 -1.39813 1.35931 0
M  V30 3546 O 331.933 -1.89249 0.506123 0
M  V30 3547 H 330.513 -0.031719 0.746326 0
M  V30 3548 H 333.175 0.626995 1.84539 0
M  V30 3549 H 332.271 -0.225995 3.11281 0
M  V30 3550 N 332.573 -1.56217 0.208337 0
M  V30 3551 C 333.821 -1.97558 -0.426076 0
M  V30 3552 C 334.142 -1.09683 -1.61229 0
M  V30 3553 O 333.412 -0.170956 -1.95153 0
M  V30 3554 H 331.992 -0.729575 -0.160405 0
M  V30 3555 H 334.654 -1.92606 0.298155 0
M  V30 3556 H 333.75 -3.02672 -0.761312 0
M  V30 3557 N 334.051 0.0651679 -1.57465 0
M  V30 3558 C 335.462 0.616213 -1.76238 0
M  V30 3559 C 335.813 1.7756 -0.834689 0
M  V30 3560 O 334.938 2.1639 -0.0204156 0
M  V30 3561 C 335.533 1.12462 -3.1959 0
M  V30 3562 C 334.092 1.62147 -3.39684 0
M  V30 3563 C 333.239 0.543739 -2.71917 0
M  V30 3564 H 336.19 -0.161022 -1.57881 0
M  V30 3565 H 336.211 1.99324 -3.24114 0
M  V30 3566 H 335.723 0.280592 -3.87084 0
M  V30 3567 H 333.824 2.48854 -2.77313 0
M  V30 3568 H 333.937 1.69385 -4.48158 0
M  V30 3569 H 332.301 0.990352 -2.34657 0
M  V30 3570 H 333.084 -0.290216 -3.42071 0
M  V30 3571 N 335.529 1.53961 0.336706 0
M  V30 3572 C 336.945 1.44378 0.680241 0
M  V30 3573 C 337.145 0.606034 1.9217 0
M  V30 3574 O 336.201 0.099688 2.52303 0
M  V30 3575 C 337.514 2.87945 0.8665 0
M  V30 3576 C 339.062 2.97763 0.964682 0
M  V30 3577 C 339.537 4.42453 1.18321 0
M  V30 3578 N 341.028 4.46008 1.25025 0
M  V30 3579 C 341.763 5.55102 1.43697 0
M  V30 3580 N 341.259 6.7419 1.59498 0
M  V30 3581 N 343.052 5.42727 1.463 0
M  V30 3582 H 335.203 2.06918 -0.479455 0
M  V30 3583 H 337.466 0.935634 -0.152619 0
M  V30 3584 H 337.172 3.51691 0.0256937 0
M  V30 3585 H 337.046 3.33293 1.76623 0
M  V30 3586 H 339.433 2.34153 1.796 0
M  V30 3587 H 339.514 2.55766 0.041708 0
M  V30 3588 H 339.158 5.06645 0.356788 0
M  V30 3589 H 339.088 4.82048 2.11985 0
M  V30 3590 H 341.579 3.60196 1.14312 0
M  V30 3591 H 341.892 7.53095 1.734 0
M  V30 3592 H 340.237 6.77123 1.56621 0
M  V30 3593 H 343.428 4.48647 1.33543 0
M  V30 3594 H 343.601 6.27806 1.6051 0
M  V30 3595 N 337.007 -0.598083 1.45811 0
M  V30 3596 C 338.423 -0.919847 1.30426 0
M  V30 3597 C 338.623 -1.99759 0.264303 0
M  V30 3598 O 337.679 -2.50221 -0.338472 0
M  V30 3599 C 338.992 -1.35176 2.68603 0
M  V30 3600 C 340.54 -1.46546 2.76574 0
M  V30 3601 C 341.015 -1.9311 4.15298 0
M  V30 3602 N 342.506 -2.00328 4.1764 0
M  V30 3603 C 343.241 -2.37599 5.21856 0
M  V30 3604 N 342.737 -2.73771 6.36413 0
M  V30 3605 N 344.53 -2.38021 5.09218 0
M  V30 3606 H 336.681 0.114111 2.12093 0
M  V30 3607 H 338.944 -0.0116121 0.947929 0
M  V30 3608 H 338.65 -0.633969 3.45939 0
M  V30 3609 H 338.524 -2.3164 2.97696 0
M  V30 3610 H 340.911 -2.17415 1.99537 0
M  V30 3611 H 340.992 -0.483727 2.51185 0
M  V30 3612 H 340.636 -1.22824 4.92825 0
M  V30 3613 H 340.566 -2.92213 4.38086 0
M  V30 3614 H 343.057 -1.74925 3.34977 0
M  V30 3615 H 343.37 -3.0112 7.11721 0
M  V30 3616 H 341.715 -2.71445 6.39799 0
M  V30 3617 H 344.906 -2.09174 4.18765 0
M  V30 3618 H 345.079 -2.66741 5.90554 0
M  V30 3619 N 338.485 -1.33259 -0.841409 0
M  V30 3620 C 339.433 -1.23279 -1.97244 0
M  V30 3621 C 340.427 -0.134706 -1.68864 0
M  V30 3622 O 341.633 -0.298501 -1.77508 0
M  V30 3623 H 338.008 -0.382497 -0.647457 0
M  V30 3624 H 339.979 -2.18906 -2.02787 0
M  V30 3625 C 338.728 -0.986268 -3.33419 0
M  V30 3626 H 338.051 -1.82347 -3.55794 0
M  V30 3627 H 339.491 -0.956728 -4.13065 0
M  V30 3628 C 337.95 0.310842 -3.35463 0
M  V30 3629 O 338.48 1.31838 -3.79449 0
M  V30 3630 N 336.686 0.337485 -2.88634 0
M  V30 3631 H 336.233 -0.482967 -2.53032 0
M  V30 3632 H 336.191 1.20518 -2.90384 0
M  V30 3633 N 339.963 1.05934 -1.16686 0
M  V30 3634 C 340.91 2.13499 -0.876748 0
M  V30 3635 C 341.88 1.65162 0.176299 0
M  V30 3636 O 343.065 1.90757 0.0407143 0
M  V30 3637 C 340.205 3.42912 -0.387967 0
M  V30 3638 C 339.318 4.04964 -1.50426 0
M  V30 3639 C 338.453 5.22266 -0.970125 0
M  V30 3640 C 337.492 5.76309 -2.06238 0
M  V30 3641 N 336.629 6.84922 -1.54356 0
M  V30 3642 H 341.469 2.37654 -1.7979 0
M  V30 3643 H 339.006 1.16598 -0.896843 0
M  V30 3644 H 340.964 4.17111 -0.086186 0
M  V30 3645 H 339.594 3.18963 0.496235 0
M  V30 3646 H 338.646 3.28277 -1.92193 0
M  V30 3647 H 339.958 4.41122 -2.32836 0
M  V30 3648 H 339.112 6.03506 -0.621743 0
M  V30 3649 H 337.851 4.87564 -0.115377 0
M  V30 3650 H 336.856 4.93704 -2.41942 0
M  V30 3651 H 338.081 6.13062 -2.92115 0
M  V30 3652 H 336.027 6.52131 -0.711406 0
M  V30 3653 H 335.944 7.20043 -2.30379 0
M  V30 3654 H 337.212 7.69832 -1.22387 0
M  V30 3655 N 341.441 0.965919 1.2453 0
M  V30 3656 C 342.351 0.502154 2.29163 0
M  V30 3657 C 343.367 -0.436017 1.68448 0
M  V30 3658 O 344.543 -0.309497 1.99008 0
M  V30 3659 C 341.608 -0.201956 3.46111 0
M  V30 3660 C 340.669 0.775821 4.22232 0
M  V30 3661 C 339.902 0.105217 5.33596 0
M  V30 3662 O 340.125 -1.10683 5.59558 0
M  V30 3663 O 339.059 0.796475 5.96607 0
M  V30 3664 H 342.885 1.37194 2.70946 0
M  V30 3665 H 340.47 0.732875 1.30189 0
M  V30 3666 H 342.352 -0.597564 4.17142 0
M  V30 3667 H 341.027 -1.04673 3.06309 0
M  V30 3668 H 339.934 1.22185 3.53584 0
M  V30 3669 H 341.267 1.58896 4.65846 0
M  V30 3670 N 342.919 -1.39368 0.735821 0
M  V30 3671 C 344.168 -1.99733 0.281004 0
M  V30 3672 C 344.481 -1.59055 -1.13846 0
M  V30 3673 O 345.687 -2.12262 -1.69284 0
M  V30 3674 C 344.143 -3.57057 0.451462 0
M  V30 3675 C 343.751 -4.06697 1.87886 0
M  V30 3676 C 345.495 -4.2446 0.0584616 0
M  V30 3677 C 343.402 -5.56598 1.99883 0
M  V30 3678 H 342.332 -0.747163 0.101311 0
M  V30 3679 H 344.983 -1.59357 0.909819 0
M  V30 3680 H 343.365 -3.95234 -0.246263 0
M  V30 3681 H 344.539 -3.79853 2.60861 0
M  V30 3682 H 342.854 -3.5196 2.22515 0
M  V30 3683 H 345.451 -5.34549 0.127099 0
M  V30 3684 H 345.794 -4.04444 -0.986433 0
M  V30 3685 H 346.327 -3.9146 0.707374 0
M  V30 3686 H 343.066 -5.81494 3.02564 0
M  V30 3687 H 342.586 -5.85242 1.31346 0
M  V30 3688 H 344.265 -6.22022 1.78039 0
M  V30 3689 N 344.397 -0.483516 -1.5 0
M  V30 3690 C 345.33 0.350427 -2.25493 0
M  V30 3691 C 346.308 0.985549 -1.29328 0
M  V30 3692 O 347.492 1.01906 -1.58579 0
M  V30 3693 C 344.619 1.49202 -3.04066 0
M  V30 3694 C 343.665 0.973036 -4.15252 0
M  V30 3695 S 344.498 -0.122237 -5.3536 0
M  V30 3696 C 345.654 1.02294 -6.17484 0
M  V30 3697 H 345.887 -0.290381 -2.95878 0
M  V30 3698 H 343.42 -0.268562 -1.52046 0
M  V30 3699 H 345.378 2.14623 -3.49925 0
M  V30 3700 H 344.039 2.10438 -2.33183 0
M  V30 3701 H 343.232 1.82804 -4.69679 0
M  V30 3702 H 342.834 0.396335 -3.71894 0
M  V30 3703 H 345.126 1.93195 -6.49371 0
M  V30 3704 H 346.069 0.517664 -7.06205 0
M  V30 3705 H 346.477 1.28238 -5.49741 0
M  V30 3706 N 345.875 1.56104 -0.216619 0
M  V30 3707 C 347.105 2.02269 0.420802 0
M  V30 3708 C 347.513 1.09575 1.5424 0
M  V30 3709 O 346.856 0.0967308 1.83445 0
M  V30 3710 C 346.918 3.44784 1.01806 0
M  V30 3711 C 346.582 4.56988 0.0325154 0
M  V30 3712 C 347.579 5.14225 -0.766055 0
M  V30 3713 C 345.264 5.02228 -0.0848092 0
M  V30 3714 C 347.258 6.15169 -1.6687 0
M  V30 3715 C 344.945 6.03011 -0.990994 0
M  V30 3716 C 345.943 6.59357 -1.78149 0
M  V30 3717 O 345.631 7.58179 -2.67245 0
M  V30 3718 H 345.363 0.667353 0.107776 0
M  V30 3719 H 347.917 2.02747 -0.329034 0
M  V30 3720 H 346.147 3.41359 1.81689 0
M  V30 3721 H 347.836 3.74626 1.56237 0
M  V30 3722 H 348.602 4.80126 -0.685836 0
M  V30 3723 H 344.481 4.58054 0.520349 0
M  V30 3724 H 348.025 6.59076 -2.28615 0
M  V30 3725 H 343.922 6.36532 -1.07225 0
M  V30 3726 H 344.69 7.75682 -2.61265 0
M  V30 3727 N 347.353 -0.0568162 1.57498 0
M  V30 3728 C 348.769 -0.411933 1.54192 0
M  V30 3729 C 348.969 -1.78287 0.938942 0
M  V30 3730 O 348.025 -2.46483 0.547919 0
M  V30 3731 C 349.338 -0.339244 2.9878 0
M  V30 3732 C 350.886 -0.418348 3.10192 0
M  V30 3733 C 351.361 -0.375407 4.56459 0
M  V30 3734 N 352.852 -0.435038 4.61153 0
M  V30 3735 C 353.587 -0.424265 5.71828 0
M  V30 3736 N 353.083 -0.367418 6.91825 0
M  V30 3737 N 354.876 -0.471938 5.60115 0
M  V30 3738 H 347.027 0.840684 1.95055 0
M  V30 3739 H 349.29 0.316987 0.893433 0
M  V30 3740 H 348.996 0.601742 3.46514 0
M  V30 3741 H 348.87 -1.14371 3.59443 0
M  V30 3742 H 351.257 -1.34976 2.62422 0
M  V30 3743 H 351.338 0.414962 2.52412 0
M  V30 3744 H 350.982 0.552219 5.04889 0
M  V30 3745 H 350.912 -1.22645 5.12119 0
M  V30 3746 H 353.403 -0.482612 3.74806 0
M  V30 3747 H 353.716 -0.363535 7.71944 0
M  V30 3748 H 352.061 -0.333879 6.94198 0
M  V30 3749 H 355.252 -0.514145 4.65268 0
M  V30 3750 H 355.425 -0.460073 6.46365 0
M  V30 3751 N 348.832 -1.54138 -0.328536 0
M  V30 3752 C 350.081 -1.71318 -1.06456 0
M  V30 3753 C 350.394 -0.491109 -1.89334 0
M  V30 3754 O 351.6 -0.54416 -2.65991 0
M  V30 3755 C 350.056 -3.03 -1.94214 0
M  V30 3756 C 349.664 -4.32595 -1.16471 0
M  V30 3757 C 351.408 -3.29544 -2.67583 0
M  V30 3758 C 349.315 -5.55341 -2.03347 0
M  V30 3759 H 348.245 -0.638429 -0.401155 0
M  V30 3760 H 350.896 -1.80633 -0.323106 0
M  V30 3761 H 349.278 -2.87579 -2.72239 0
M  V30 3762 H 350.452 -4.58766 -0.432525 0
M  V30 3763 H 348.767 -4.12777 -0.548063 0
M  V30 3764 H 351.364 -4.18444 -3.3288 0
M  V30 3765 H 351.707 -2.47206 -3.34955 0
M  V30 3766 H 352.24 -3.45809 -1.96623 0
M  V30 3767 H 348.979 -6.40268 -1.40491 0
M  V30 3768 H 348.499 -5.33397 -2.74313 0
M  V30 3769 H 350.178 -5.91557 -2.62049 0
M  V30 3770 N 350.31 0.590341 -1.46126 0
M  V30 3771 C 351.538 1.37504 -1.54597 0
M  V30 3772 C 351.953 1.87897 -0.184447 0
M  V30 3773 O 351.31 1.63192 0.816984 0
M  V30 3774 C 351.361 2.56779 -2.54454 0
M  V30 3775 O 351.082 2.08476 -3.85317 0
M  V30 3776 C 352.583 3.49427 -2.72792 0
M  V30 3777 H 349.803 0.420325 -0.523037 0
M  V30 3778 H 352.347 0.718383 -1.91467 0
M  V30 3779 H 350.502 3.1845 -2.20609 0
M  V30 3780 H 350.916 2.86097 -4.396 0
M  V30 3781 H 352.39 4.29619 -3.466 0
M  V30 3782 H 352.867 4.00876 -1.79429 0
M  V30 3783 H 353.473 2.93598 -3.07702 0
M  V30 3784 N 351.788 1.33704 0.83433 0
M  V30 3785 C 353.016 1.28467 1.62185 0
M  V30 3786 C 353.431 -0.143526 1.88254 0
M  V30 3787 O 352.788 -1.08709 1.4659 0
M  V30 3788 C 352.839 2.06174 2.96942 0
M  V30 3789 O 352.56 3.43422 2.72016 0
M  V30 3790 C 354.061 2.08201 3.91366 0
M  V30 3791 H 351.281 0.4424 0.504503 0
M  V30 3792 H 353.825 1.76145 1.03891 0
M  V30 3793 H 351.98 1.62167 3.51825 0
M  V30 3794 H 352.394 3.83453 3.57861 0
M  V30 3795 H 353.868 2.67017 4.83121 0
M  V30 3796 H 354.345 1.07343 4.2588 0
M  V30 3797 H 354.951 2.52246 3.42421 0
M  V30 3798 N 353.266 -1.05314 1.17247 0
M  V30 3799 C 354.176 -2.16538 0.90268 0
M  V30 3800 C 355.192 -1.73523 -0.128707 0
M  V30 3801 O 356.368 -2.01337 0.0502701 0
M  V30 3802 C 353.433 -3.44167 0.418356 0
M  V30 3803 C 352.494 -4.01635 1.51618 0
M  V30 3804 C 351.727 -5.23171 1.05487 0
M  V30 3805 O 351.95 -5.70327 -0.0914715 0
M  V30 3806 O 350.884 -5.72848 1.8474 0
M  V30 3807 H 354.71 -2.42145 1.83302 0
M  V30 3808 H 352.295 -1.15037 0.953246 0
M  V30 3809 H 354.177 -4.21112 0.155726 0
M  V30 3810 H 352.852 -3.20063 -0.48385 0
M  V30 3811 H 351.759 -3.26135 1.83268 0
M  V30 3812 H 353.092 -4.30053 2.39405 0
M  V30 3813 N 354.744 -0.972509 -1.24016 0
M  V30 3814 C 355.691 -0.505969 -2.25186 0
M  V30 3815 C 356.661 0.451009 -1.5986 0
M  V30 3816 O 357.846 0.360307 -1.87367 0
M  V30 3817 C 354.986 0.193089 -3.44559 0
M  V30 3818 C 354.099 -0.803222 -4.24467 0
M  V30 3819 C 353.234 -0.0797793 -5.3114 0
M  V30 3820 C 352.273 -1.06583 -6.02749 0
M  V30 3821 N 351.41 -0.372074 -7.01113 0
M  V30 3822 H 356.25 -1.37351 -2.64459 0
M  V30 3823 H 353.787 -0.688419 -1.29997 0
M  V30 3824 H 355.745 0.615125 -4.1264 0
M  V30 3825 H 354.375 1.02455 -3.06109 0
M  V30 3826 H 353.427 -1.34368 -3.55878 0
M  V30 3827 H 354.739 -1.55494 -4.73944 0
M  V30 3828 H 353.893 0.400015 -6.0538 0
M  V30 3829 H 352.632 0.704597 -4.82583 0
M  V30 3830 H 351.637 -1.55645 -5.27309 0
M  V30 3831 H 352.862 -1.85074 -6.53395 0
M  V30 3832 H 350.808 0.393238 -6.5482 0
M  V30 3833 H 350.725 -1.06258 -7.48495 0
M  V30 3834 H 351.993 0.0855932 -7.79453 0
M  V30 3835 N 356.222 1.38976 -0.743202 0
M  V30 3836 C 357.633 1.83123 -0.363732 0
M  V30 3837 C 357.984 1.6205 1.10609 0
M  V30 3838 O 357.109 1.11606 1.854 0
M  V30 3839 C 357.704 3.32439 -0.653408 0
M  V30 3840 C 356.263 3.74974 -0.327338 0
M  V30 3841 C 355.41 2.61878 -0.911875 0
M  V30 3842 H 358.361 1.27852 -0.940191 0
M  V30 3843 H 358.382 3.80432 0.0720031 0
M  V30 3844 H 357.894 3.47745 -1.72323 0
M  V30 3845 H 355.995 3.65252 0.736314 0
M  V30 3846 H 356.108 4.72106 -0.815631 0
M  V30 3847 H 354.472 2.52448 -0.337944 0
M  V30 3848 H 355.255 2.79987 -1.98651 0
M  V30 3849 N 357.7 0.491464 1.49741 0
M  V30 3850 C 358.663 -0.280906 2.27472 0
M  V30 3851 C 359.663 -0.902454 1.33088 0
M  V30 3852 O 360.853 -0.768465 1.56334 0
M  V30 3853 C 357.985 -1.40209 3.10732 0
M  V30 3854 H 359.178 0.401056 2.97206 0
M  V30 3855 H 356.731 0.246131 1.5435 0
M  V30 3856 H 357.466 -2.11849 2.45541 0
M  V30 3857 H 357.251 -0.961969 3.80117 0
M  V30 3858 H 358.741 -1.9464 3.69466 0
M  V30 3859 N 359.178 -1.55987 0.224894 0
M  V30 3860 C 360.426 -1.97998 -0.405099 0
M  V30 3861 C 360.747 -1.11387 -1.60056 0
M  V30 3862 O 360.017 -0.191645 -1.9496 0
M  V30 3863 H 358.597 -0.731235 -0.152658 0
M  V30 3864 H 361.259 -1.92279 0.318567 0
M  V30 3865 H 360.355 -3.03463 -0.729167 0
M  V30 3866 N 360.656 0.0484629 -1.57525 0
M  V30 3867 C 361.619 1.03956 -2.04269 0
M  V30 3868 C 362.619 1.30211 -0.943496 0
M  V30 3869 O 363.809 1.25539 -1.20771 0
M  V30 3870 C 360.941 2.37742 -2.44319 0
M  V30 3871 H 362.134 0.636182 -2.93075 0
M  V30 3872 H 359.687 0.294811 -1.53494 0
M  V30 3873 H 360.422 2.82866 -1.5861 0
M  V30 3874 H 360.207 2.20021 -3.24551 0
M  V30 3875 H 361.697 3.08936 -2.80978 0
M  V30 3876 N 362.134 1.5431 0.320358 0
M  V30 3877 C 363.383 1.7188 1.05546 0
M  V30 3878 C 363.696 0.501143 1.89071 0
M  V30 3879 O 364.902 0.558258 2.65699 0
M  V30 3880 C 363.358 3.04025 1.92605 0
M  V30 3881 C 362.966 4.33207 1.14176 0
M  V30 3882 C 364.71 3.30959 2.65832 0
M  V30 3883 C 362.617 5.56412 2.00399 0
M  V30 3884 H 361.547 0.640547 0.397763 0
M  V30 3885 H 364.198 1.80802 0.313522 0
M  V30 3886 H 362.58 2.89019 2.7071 0
M  V30 3887 H 363.754 4.58989 0.40819 0
M  V30 3888 H 362.069 4.13062 0.526165 0
M  V30 3889 H 364.666 4.20203 3.30656 0
M  V30 3890 H 365.009 2.48979 3.33639 0
M  V30 3891 H 365.542 3.46847 1.94787 0
M  V30 3892 H 362.281 6.41004 1.37094 0
M  V30 3893 H 361.801 5.34844 2.7148 0
M  V30 3894 H 363.48 5.92938 2.58908 0
M  V30 3895 N 363.613 -0.582584 1.46437 0
M  V30 3896 C 364.576 -1.67366 1.56592 0
M  V30 3897 C 365.576 -1.54575 0.443072 0
M  V30 3898 O 366.766 -1.59191 0.707381 0
M  V30 3899 C 363.898 -3.06791 1.48634 0
M  V30 3900 H 365.091 -1.5972 2.5383 0
M  V30 3901 H 362.644 -0.800432 1.34249 0
M  V30 3902 H 363.379 -3.19993 0.526763 0
M  V30 3903 H 363.164 -3.17484 2.30101 0
M  V30 3904 H 364.654 -3.86218 1.58826 0
M  V30 3905 N 365.091 -1.34144 -0.827227 0
M  V30 3906 C 366.339 -1.26009 -1.58007 0
M  V30 3907 C 366.66 0.170971 -1.94249 0
M  V30 3908 O 365.93 1.10256 -1.61927 0
M  V30 3909 H 364.51 -0.463414 -0.585881 0
M  V30 3910 H 367.172 -1.68005 -0.987951 0
M  V30 3911 H 366.268 -1.86187 -2.50481 0
M  V30 3912 N 366.569 1.04691 -1.17803 0
M  V30 3913 C 367.532 2.10724 -0.901545 0
M  V30 3914 C 368.532 1.6042 0.110437 0
M  V30 3915 O 369.722 1.7377 -0.122303 0
M  V30 3916 C 366.854 3.39084 -0.351409 0
M  V30 3917 H 368.047 2.36686 -1.84174 0
M  V30 3918 H 365.6 1.21015 -0.98919 0
M  V30 3919 H 366.335 3.18782 0.59569 0
M  V30 3920 H 366.12 3.76909 -1.08083 0
M  V30 3921 H 367.61 4.17227 -0.176451 0
M  V30 3922 N 368.047 0.979072 1.23499 0
M  V30 3923 C 368.979 0.476271 2.24197 0
M  V30 3924 C 369.992 -0.421166 1.57258 0
M  V30 3925 O 371.181 -0.225515 1.7707 0
M  V30 3926 C 368.281 -0.330503 3.37285 0
M  V30 3927 C 367.454 0.559744 4.33804 0
M  V30 3928 C 366.513 -0.192954 5.25846 0
M  V30 3929 O 365.539 0.416978 5.67671 0
M  V30 3930 N 366.741 -1.47932 5.61334 0
M  V30 3931 H 369.506 1.34211 2.67969 0
M  V30 3932 H 367.067 0.852189 1.37657 0
M  V30 3933 H 369.059 -0.842361 3.95836 0
M  V30 3934 H 367.629 -1.09734 2.92707 0
M  V30 3935 H 366.849 1.25245 3.73775 0
M  V30 3936 H 368.137 1.1665 4.95248 0
M  V30 3937 H 367.535 -1.9964 5.29302 0
M  V30 3938 H 366.092 -1.93664 6.22364 0
M  V30 3939 N 369.525 -1.3858 0.750561 0
M  V30 3940 C 370.941 -1.53759 0.427824 0
M  V30 3941 C 371.141 -1.71401 -1.05943 0
M  V30 3942 O 370.197 -1.72331 -1.84549 0
M  V30 3943 C 371.51 -2.74642 1.22443 0
M  V30 3944 C 373.058 -2.88489 1.2142 0
M  V30 3945 C 373.533 -4.12329 1.9937 0
M  V30 3946 N 375.024 -4.194 1.96616 0
M  V30 3947 C 375.759 -5.14209 2.53727 0
M  V30 3948 N 375.255 -6.14709 3.19539 0
M  V30 3949 N 377.048 -5.06537 2.43673 0
M  V30 3950 H 369.199 -1.25377 1.71447 0
M  V30 3951 H 371.462 -0.608844 0.726645 0
M  V30 3952 H 371.168 -2.68 2.27747 0
M  V30 3953 H 371.042 -3.67745 0.839273 0
M  V30 3954 H 373.429 -2.94614 0.169232 0
M  V30 3955 H 373.51 -1.96406 1.63885 0
M  V30 3956 H 373.154 -4.06966 3.03877 0
M  V30 3957 H 373.084 -5.03486 1.54302 0
M  V30 3958 H 375.575 -3.47421 1.48684 0
M  V30 3959 H 375.888 -6.8354 3.60545 0
M  V30 3960 H 374.233 -6.1505 3.23633 0
M  V30 3961 H 377.424 -4.26962 1.91889 0
M  V30 3962 H 377.597 -5.80245 2.88479 0
M  V30 3963 N 371.003 -0.499398 -1.49478 0
M  V30 3964 C 372.419 -0.155261 -1.58843 0
M  V30 3965 C 372.619 1.34008 -1.50479 0
M  V30 3966 O 371.675 2.11589 -1.37791 0
M  V30 3967 C 372.988 -0.730636 -2.91689 0
M  V30 3968 C 374.536 -0.696599 -3.0515 0
M  V30 3969 C 375.011 -1.25001 -4.40612 0
M  V30 3970 N 376.502 -1.21064 -4.47099 0
M  V30 3971 C 377.237 -1.60905 -5.50361 0
M  V30 3972 N 376.733 -2.08331 -6.60735 0
M  V30 3973 N 378.526 -1.52331 -5.41065 0
M  V30 3974 H 370.677 -1.47162 -1.53158 0
M  V30 3975 H 372.94 -0.610309 -0.725415 0
M  V30 3976 H 372.646 -1.77928 -3.03372 0
M  V30 3977 H 372.52 -0.190161 -3.7672 0
M  V30 3978 H 374.907 0.343204 -2.93097 0
M  V30 3979 H 374.988 -1.2742 -2.21806 0
M  V30 3980 H 374.632 -2.28859 -4.53416 0
M  V30 3981 H 374.562 -0.64836 -5.22593 0
M  V30 3982 H 377.053 -0.863128 -3.67911 0
M  V30 3983 H 377.366 -2.36805 -7.35624 0
M  V30 3984 H 375.711 -2.12304 -6.6178 0
M  V30 3985 H 378.902 -1.151 -4.53729 0
M  V30 3986 H 379.075 -1.83704 -6.21415 0
M  V30 3987 N 372.481 1.55866 -0.233164 0
M  V30 3988 C 373.391 2.24431 0.683217 0
M  V30 3989 C 374.407 1.2558 1.2044 0
M  V30 3990 O 375.583 1.58422 1.24356 0
M  V30 3991 C 372.648 2.91979 1.86947 0
M  V30 3992 C 371.709 4.06204 1.38912 0
M  V30 3993 C 370.942 4.70522 2.51883 0
M  V30 3994 O 371.165 4.33865 3.70293 0
M  V30 3995 O 370.099 5.59296 2.22423 0
M  V30 3996 H 373.925 3.03426 0.129059 0
M  V30 3997 H 371.51 1.494 -0.0022283 0
M  V30 3998 H 373.392 3.34573 2.56201 0
M  V30 3999 H 372.067 2.15935 2.41151 0
M  V30 4000 H 370.974 3.68155 0.664259 0
M  V30 4001 H 372.307 4.84025 0.893328 0
M  V30 4002 N 373.959 -0.0401083 1.57549 0
M  V30 4003 C 374.907 -1.06264 2.06908 0
M  V30 4004 C 375.901 -1.38132 0.980608 0
M  V30 4005 O 377.107 -1.37167 1.16556 0
M  V30 4006 H 373.482 -0.360166 0.660139 0
M  V30 4007 H 375.453 -0.620445 2.91878 0
M  V30 4008 C 374.202 -2.35846 2.55483 0
M  V30 4009 H 373.525 -2.12183 3.38849 0
M  V30 4010 H 374.965 -3.05765 2.93741 0
M  V30 4011 C 373.424 -3.0404 1.45126 0
M  V30 4012 O 373.954 -3.93424 0.811216 0
M  V30 4013 N 372.16 -2.65184 1.18852 0
M  V30 4014 H 371.707 -1.92584 1.71083 0
M  V30 4015 H 371.665 -3.1113 0.452244 0
M  V30 4016 N 375.437 -1.54477 -0.31217 0
M  V30 4017 C 376.685 -1.72884 -1.04668 0
M  V30 4018 C 377.006 -0.511477 -1.88173 0
M  V30 4019 O 376.276 0.474407 -1.90069 0
M  V30 4020 H 374.856 -0.637461 -0.389425 0
M  V30 4021 H 377.518 -1.91807 -0.345852 0
M  V30 4022 H 376.614 -2.61334 -1.70619 0
M  V30 4023 N 376.915 0.57481 -1.46744 0
M  V30 4024 C 378.326 1.15695 -1.46532 0
M  V30 4025 C 378.677 1.95068 -0.210425 0
M  V30 4026 O 377.802 2.05241 0.685944 0
M  V30 4027 C 378.397 2.1048 -2.65487 0
M  V30 4028 C 376.956 2.64002 -2.68291 0
M  V30 4029 C 376.103 1.40026 -2.39349 0
M  V30 4030 H 379.054 0.362325 -1.54509 0
M  V30 4031 H 379.075 2.94074 -2.41455 0
M  V30 4032 H 378.587 1.52683 -3.56805 0
M  V30 4033 H 376.688 3.25646 -1.81067 0
M  V30 4034 H 376.801 3.06197 -3.68483 0
M  V30 4035 H 375.165 1.70106 -1.89568 0
M  V30 4036 H 375.948 0.840485 -3.32852 0
M  V30 4037 N 378.394 1.34581 0.820102 0
M  V30 4038 C 379.324 1.29038 1.94606 0
M  V30 4039 C 380.305 0.1673 1.69275 0
M  V30 4040 O 381.49 0.360112 1.90832 0
M  V30 4041 C 378.62 1.04793 3.31113 0
M  V30 4042 C 377.574 2.13597 3.70891 0
M  V30 4043 C 376.9 1.74537 5.05412 0
M  V30 4044 C 378.2 3.55451 3.8269 0
M  V30 4045 H 379.894 2.23248 1.99501 0
M  V30 4046 H 377.44 1.0747 0.958449 0
M  V30 4047 H 379.393 0.995592 4.0947 0
M  V30 4048 H 378.117 0.0702565 3.26524 0
M  V30 4049 H 376.776 2.17905 2.9481 0
M  V30 4050 H 376.424 0.754226 4.97313 0
M  V30 4051 H 376.124 2.47361 5.32997 0
M  V30 4052 H 377.648 1.70803 5.86224 0
M  V30 4053 H 379.062 3.5354 4.51312 0
M  V30 4054 H 377.459 4.26922 4.21732 0
M  V30 4055 H 378.529 3.92587 2.84611 0
M  V30 4056 N 379.872 -1.04064 1.18357 0
M  V30 4057 C 380.782 -2.15569 0.925596 0
M  V30 4058 C 381.798 -1.7365 -0.110295 0
M  V30 4059 O 382.974 -2.01273 0.0716218 0
M  V30 4060 C 380.039 -3.43704 0.454836 0
M  V30 4061 C 379.1 -4.00004 1.55869 0
M  V30 4062 C 378.333 -5.22023 1.1103 0
M  V30 4063 O 378.556 -5.70392 -0.0309756 0
M  V30 4064 O 377.49 -5.70856 1.90805 0
M  V30 4065 H 381.316 -2.40187 1.8586 0
M  V30 4066 H 378.901 -1.1402 0.965394 0
M  V30 4067 H 380.783 -4.20923 0.200382 0
M  V30 4068 H 379.458 -3.20559 -0.449876 0
M  V30 4069 H 378.365 -3.24172 1.86716 0
M  V30 4070 H 379.698 -4.2749 2.43953 0
M  V30 4071 N 381.35 -0.985608 -1.22978 0
M  V30 4072 C 382.596 -0.667998 -1.92118 0
M  V30 4073 C 382.951 0.790454 -1.75413 0
M  V30 4074 O 382.244 1.56336 -1.10768 0
M  V30 4075 C 382.438 -1.00014 -3.43121 0
M  V30 4076 C 382.267 -2.48933 -3.74516 0
M  V30 4077 C 381.037 -3.15218 -3.94925 0
M  V30 4078 C 383.235 -3.47024 -3.79577 0
M  V30 4079 N 381.217 -4.53689 -4.13569 0
M  V30 4080 C 382.588 -4.70923 -4.03276 0
M  V30 4081 C 384.643 -3.41432 -3.62393 0
M  V30 4082 C 383.346 -5.89914 -4.11574 0
M  V30 4083 C 385.372 -4.59793 -3.71947 0
M  V30 4084 C 384.734 -5.82489 -3.96088 0
M  V30 4085 H 380.833 -0.295589 -0.723983 0
M  V30 4086 H 383.417 -1.26413 -1.4808 0
M  V30 4087 H 381.588 -0.432655 -3.85983 0
M  V30 4088 H 383.32 -0.63927 -3.99619 0
M  V30 4089 H 380.075 -2.65702 -3.92045 0
M  V30 4090 H 380.499 -5.25492 -4.26834 0
M  V30 4091 H 385.141 -2.47594 -3.4272 0
M  V30 4092 H 382.859 -6.84164 -4.30053 0
M  V30 4093 H 386.445 -4.57048 -3.59998 0
M  V30 4094 H 385.325 -6.72546 -4.033 0
M  V30 4095 N 382.828 1.3818 -0.7579 0
M  V30 4096 C 384.053 2.04827 -0.325679 0
M  V30 4097 C 384.478 1.56788 1.03919 0
M  V30 4098 O 383.836 0.721811 1.66312 0
M  V30 4099 C 383.884 3.58774 -0.362447 0
M  V30 4100 O 382.988 4.07372 0.642033 0
M  V30 4101 H 382.329 0.64833 -0.143402 0
M  V30 4102 H 384.859 1.7677 -1.03023 0
M  V30 4103 H 384.869 4.07434 -0.214844 0
M  V30 4104 H 383.544 3.93096 -1.35824 0
M  V30 4105 H 382.121 3.70068 0.458688 0
M  V30 4106 N 384.306 0.507319 1.49211 0
M  V30 4107 C 385.536 -0.0315292 2.06576 0
M  V30 4108 C 385.944 -1.30791 1.36713 0
M  V30 4109 O 385.287 -1.78324 0.441181 0
M  V30 4110 C 385.349 -0.349104 3.57801 0
M  V30 4111 C 385.013 0.830475 4.49391 0
M  V30 4112 C 386.01 1.72271 4.90529 0
M  V30 4113 C 383.695 1.03107 4.91604 0
M  V30 4114 C 385.689 2.79964 5.72625 0
M  V30 4115 C 383.376 2.11116 5.73475 0
M  V30 4116 C 384.374 2.99379 6.1389 0
M  V30 4117 O 384.062 4.05523 6.94123 0
M  V30 4118 H 383.794 0.0201002 0.675701 0
M  V30 4119 H 386.348 0.705737 1.92895 0
M  V30 4120 H 384.578 -1.14005 3.69513 0
M  V30 4121 H 386.267 -0.827319 3.97379 0
M  V30 4122 H 387.033 1.57958 4.58557 0
M  V30 4123 H 382.912 0.353417 4.59643 0
M  V30 4124 H 386.456 3.48884 6.04091 0
M  V30 4125 H 382.353 2.25421 6.0486 0
M  V30 4126 H 383.121 4.02953 7.1244 0
M  V30 4127 N 385.784 -1.5574 0.241426 0
M  V30 4128 C 387.012 -2.03208 -0.389134 0
M  V30 4129 C 387.427 -1.12082 -1.51931 0
M  V30 4130 O 386.784 -0.134183 -1.82006 0
M  V30 4131 C 386.835 -3.50064 -0.902087 0
M  V30 4132 O 386.556 -4.37717 0.18305 0
M  V30 4133 C 388.057 -4.13268 -1.60389 0
M  V30 4134 H 385.277 -0.664509 -0.0931053 0
M  V30 4135 H 387.821 -2.0124 0.36369 0
M  V30 4136 H 385.976 -3.52583 -1.60511 0
M  V30 4137 H 386.39 -5.24097 -0.205579 0
M  V30 4138 H 387.864 -5.17733 -1.91458 0
M  V30 4139 H 388.341 -3.59434 -2.52397 0
M  V30 4140 H 388.947 -4.14655 -0.945576 0
M  V30 4141 N 387.262 0.0317525 -1.57568 0
M  V30 4142 C 388.192 1.03274 -2.0942 0
M  V30 4143 C 389.173 1.3788 -0.996143 0
M  V30 4144 O 390.358 1.46811 -1.27122 0
M  V30 4145 C 387.488 2.33448 -2.57137 0
M  V30 4146 C 386.442 2.13091 -3.71182 0
M  V30 4147 C 385.768 3.49001 -4.05095 0
M  V30 4148 C 387.068 1.51928 -4.99715 0
M  V30 4149 H 388.762 0.60112 -2.93303 0
M  V30 4150 H 386.308 0.287705 -1.41097 0
M  V30 4151 H 388.261 3.03802 -2.92032 0
M  V30 4152 H 386.985 2.78665 -1.70333 0
M  V30 4153 H 385.644 1.45171 -3.36632 0
M  V30 4154 H 385.292 3.91862 -3.15362 0
M  V30 4155 H 384.992 3.36207 -4.81911 0
M  V30 4156 H 386.516 4.20721 -4.42522 0
M  V30 4157 H 387.93 2.12196 -5.32584 0
M  V30 4158 H 386.327 1.49716 -5.81124 0
M  V30 4159 H 387.397 0.484811 -4.8247 0
M  V30 4160 N 388.74 1.54641 0.303973 0
M  V30 4161 C 390.151 1.64811 0.877163 0
M  V30 4162 C 390.502 0.554838 1.88191 0
M  V30 4163 O 389.627 -0.309033 2.14182 0
M  V30 4164 C 390.222 2.9876 1.59775 0
M  V30 4165 C 388.781 3.11061 2.11938 0
M  V30 4166 C 387.928 2.60479 0.951097 0
M  V30 4167 H 390.879 1.58493 0.0810486 0
M  V30 4168 H 390.9 2.90017 2.46314 0
M  V30 4169 H 390.412 3.7831 0.866226 0
M  V30 4170 H 388.513 2.36225 2.88146 0
M  V30 4171 H 388.626 4.17171 2.35595 0
M  V30 4172 H 386.99 2.16859 1.33583 0
M  V30 4173 H 387.773 3.42504 0.233581 0
M  V30 4174 N 390.218 -0.567019 1.47046 0
M  V30 4175 C 391.467 -1.32091 1.5243 0
M  V30 4176 C 391.78 -1.94704 0.187021 0
M  V30 4177 O 392.986 -2.7124 0.118771 0
M  V30 4178 C 391.442 -2.39479 2.68659 0
M  V30 4179 C 391.05 -1.831 4.08874 0
M  V30 4180 C 392.794 -3.16111 2.83327 0
M  V30 4181 C 390.701 -2.8821 5.16419 0
M  V30 4182 H 389.631 -0.496629 0.56734 0
M  V30 4183 H 392.282 -0.603354 1.73297 0
M  V30 4184 H 390.664 -3.14105 2.41152 0
M  V30 4185 H 391.838 -1.14913 4.46242 0
M  V30 4186 H 390.153 -1.19085 3.99008 0
M  V30 4187 H 392.75 -3.94585 3.60842 0
M  V30 4188 H 393.093 -3.69686 1.91411 0
M  V30 4189 H 393.626 -2.48595 3.10556 0
M  V30 4190 H 390.365 -2.39504 6.10179 0
M  V30 4191 H 389.885 -3.54839 4.8358 0
M  V30 4192 H 391.564 -3.51881 5.42945 0
M  V30 4193 N 391.696 -1.35014 -0.812953 0
M  V30 4194 C 392.924 -1.31031 -1.6012 0
M  V30 4195 C 393.339 0.113558 -1.88458 0
M  V30 4196 O 392.696 1.06363 -1.48301 0
M  V30 4197 C 392.747 -2.10872 -2.93624 0
M  V30 4198 O 392.468 -3.47706 -2.66518 0
M  V30 4199 C 393.969 -2.14401 -3.88004 0
M  V30 4200 H 391.189 -0.45037 -0.497401 0
M  V30 4201 H 393.733 -1.77775 -1.01076 0
M  V30 4202 H 391.888 -1.67744 -3.492 0
M  V30 4203 H 392.302 -3.89097 -3.51715 0
M  V30 4204 H 393.776 -2.74669 -4.78812 0
M  V30 4205 H 394.253 -1.14105 -4.24119 0
M  V30 4206 H 394.859 -2.57662 -3.38364 0
M  V30 4207 N 393.175 1.03435 -1.18907 0
M  V30 4208 C 394.415 1.78302 -0.999391 0
M  V30 4209 C 394.779 1.86353 0.462219 0
M  V30 4210 O 395.98 2.57489 0.771543 0
M  V30 4211 C 394.251 3.17362 -1.64365 0
M  V30 4212 S 395.81 4.08488 -1.6026 0
M  V30 4213 H 392.628 0.613861 -0.358742 0
M  V30 4214 H 395.23 1.23979 -1.51161 0
M  V30 4215 H 393.934 3.09116 -2.69955 0
M  V30 4216 H 393.465 3.76762 -1.13199 0
M  V30 4217 H 395.48 4.92274 -0.622932 0
M  V30 4218 N 394.653 0.992116 1.22453 0
M  V30 4219 C 395.585 0.500024 2.23679 0
M  V30 4220 C 396.598 -0.404463 1.57696 0
M  V30 4221 O 397.787 -0.206722 1.77299 0
M  V30 4222 C 394.887 -0.294711 3.37616 0
M  V30 4223 C 394.06 0.605723 4.33186 0
M  V30 4224 C 393.119 -0.13717 5.26021 0
M  V30 4225 O 392.145 0.477164 5.67196 0
M  V30 4226 N 393.347 -1.4197 5.62872 0
M  V30 4227 H 396.112 1.37045 2.66531 0
M  V30 4228 H 393.673 0.866741 1.36745 0
M  V30 4229 H 395.665 -0.800329 3.96707 0
M  V30 4230 H 394.235 -1.06623 2.93854 0
M  V30 4231 H 393.455 1.29202 3.72425 0
M  V30 4232 H 394.743 1.21896 4.93983 0
M  V30 4233 H 394.141 -1.94015 5.31389 0
M  V30 4234 H 392.698 -1.87052 6.24383 0
M  V30 4235 N 396.131 -1.37776 0.765217 0
M  V30 4236 C 397.061 -2.32945 0.160953 0
M  V30 4237 C 398.042 -1.55454 -0.690516 0
M  V30 4238 O 399.227 -1.83721 -0.629318 0
M  V30 4239 C 396.357 -3.39669 -0.724031 0
M  V30 4240 C 395.311 -4.27992 0.0256173 0
M  V30 4241 C 394.637 -5.25673 -0.978383 0
M  V30 4242 C 395.937 -5.08309 1.20082 0
M  V30 4243 H 397.631 -2.83728 0.955969 0
M  V30 4244 H 395.177 -1.36416 0.461149 0
M  V30 4245 H 397.13 -4.05219 -1.15652 0
M  V30 4246 H 395.854 -2.87396 -1.5515 0
M  V30 4247 H 394.513 -3.63964 0.438812 0
M  V30 4248 H 394.161 -4.69682 -1.80022 0
M  V30 4249 H 393.861 -5.85625 -0.481378 0
M  V30 4250 H 395.385 -5.94098 -1.40995 0
M  V30 4251 H 396.799 -5.67034 0.845307 0
M  V30 4252 H 395.196 -5.77554 1.62947 0
M  V30 4253 H 396.266 -4.41365 2.00811 0
M  V30 4254 N 397.609 -0.515225 -1.4894 0
M  V30 4255 C 398.834 0.022727 -2.07388 0
M  V30 4256 C 399.259 1.2876 -1.37122 0
M  V30 4257 O 398.617 1.76067 -0.432431 0
M  V30 4258 C 398.665 0.244869 -3.59768 0
M  V30 4259 O 397.769 1.31667 -3.90817 0
M  V30 4260 H 397.11 -0.0325506 -0.663202 0
M  V30 4261 H 399.64 -0.718918 -1.91553 0
M  V30 4262 H 399.65 0.47205 -4.0526 0
M  V30 4263 H 398.325 -0.679194 -4.10317 0
M  V30 4264 H 396.902 1.07331 -3.5712 0
M  V30 4265 N 399.087 1.5561 -0.249682 0
M  V30 4266 C 400.017 2.24477 0.642826 0
M  V30 4267 C 400.998 1.22601 1.17911 0
M  V30 4268 O 402.183 1.5126 1.21795 0
M  V30 4269 C 399.313 2.94638 1.83863 0
M  V30 4270 C 398.267 4.03227 1.435 0
M  V30 4271 C 397.593 4.60828 2.71186 0
M  V30 4272 C 398.893 5.18796 0.604002 0
M  V30 4273 H 400.587 2.99321 0.0685625 0
M  V30 4274 H 398.133 1.43965 0.0315363 0
M  V30 4275 H 400.086 3.41517 2.46868 0
M  V30 4276 H 398.81 2.17287 2.43832 0
M  V30 4277 H 397.469 3.57121 0.828275 0
M  V30 4278 H 397.117 3.80174 3.29358 0
M  V30 4279 H 396.817 5.34132 2.44901 0
M  V30 4280 H 398.341 5.10442 3.35084 0
M  V30 4281 H 399.755 5.61883 1.13842 0
M  V30 4282 H 398.152 5.98506 0.437097 0
M  V30 4283 H 399.222 4.83384 -0.383147 0
M  V30 4284 N 400.565 -0.0233959 1.57583 0
M  V30 4285 C 401.813 -0.711654 1.89156 0
M  V30 4286 C 402.134 -1.75591 0.848096 0
M  V30 4287 O 401.404 -1.95547 -0.117566 0
M  V30 4288 H 399.984 -0.265835 0.698098 0
M  V30 4289 H 402.646 0.0119948 1.94896 0
M  V30 4290 H 401.742 -1.19766 2.88206 0
M  V30 4291 N 402.043 -1.548 -0.295768 0
M  V30 4292 C 402.973 -1.89115 -1.36959 0
M  V30 4293 C 403.954 -0.75059 -1.52644 0
M  V30 4294 O 405.139 -1.00678 -1.66065 0
M  V30 4295 C 402.269 -2.14307 -2.73295 0
M  V30 4296 C 401.223 -3.30151 -2.72368 0
M  V30 4297 C 400.549 -3.40772 -4.12042 0
M  V30 4298 C 401.849 -4.67126 -2.33646 0
M  V30 4299 H 403.543 -2.79053 -1.08488 0
M  V30 4300 H 401.089 -1.34266 -0.520443 0
M  V30 4301 H 403.042 -2.36898 -3.48507 0
M  V30 4302 H 401.766 -1.21145 -3.03301 0
M  V30 4303 H 400.425 -3.0749 -1.99613 0
M  V30 4304 H 400.073 -2.45117 -4.39234 0
M  V30 4305 H 399.773 -4.18645 -4.12322 0
M  V30 4306 H 401.297 -3.6563 -4.89027 0
M  V30 4307 H 402.711 -4.89414 -2.98575 0
M  V30 4308 H 401.108 -5.47751 -2.45129 0
M  V30 4309 H 402.178 -4.67489 -1.28772 0
M  V30 4310 N 403.521 0.559213 -1.47345 0
M  V30 4311 C 404.453 1.68161 -1.55738 0
M  V30 4312 C 405.466 1.56636 -0.443744 0
M  V30 4313 O 406.655 1.6363 -0.713258 0
M  V30 4314 C 403.755 3.06611 -1.4437 0
M  V30 4315 C 402.928 3.4391 -2.70268 0
M  V30 4316 C 401.987 4.61515 -2.52765 0
M  V30 4317 O 401.013 4.66197 -3.26572 0
M  V30 4318 N 402.215 5.57883 -1.6046 0
M  V30 4319 H 404.98 1.61408 -2.52522 0
M  V30 4320 H 402.541 0.7458 -1.43699 0
M  V30 4321 H 404.533 3.83117 -1.30398 0
M  V30 4322 H 403.103 3.07602 -0.556766 0
M  V30 4323 H 402.323 2.56873 -2.99015 0
M  V30 4324 H 403.611 3.65605 -3.53851 0
M  V30 4325 H 403.009 5.56855 -0.996422 0
M  V30 4326 H 401.566 6.33723 -1.52441 0
M  V30 4327 N 404.999 1.35443 0.805782 0
M  V30 4328 C 406.224 1.32037 1.59941 0
M  V30 4329 C 406.649 -0.0994215 1.87837 0
M  V30 4330 O 406.007 -1.06648 1.46615 0
M  V30 4331 C 406.055 2.13354 2.90711 0
M  V30 4332 O 405.159 1.5148 3.83572 0
M  V30 4333 H 404.5 0.452666 0.485787 0
M  V30 4334 H 407.03 1.78496 1.00002 0
M  V30 4335 H 407.04 2.25338 3.40128 0
M  V30 4336 H 405.715 3.16572 2.69732 0
M  V30 4337 H 404.292 1.4834 3.42125 0
M  V30 4338 N 406.477 -1.02803 1.19454 0
M  V30 4339 C 407.409 -2.11181 0.890807 0
M  V30 4340 C 408.422 -1.6238 -0.116829 0
M  V30 4341 O 409.611 -1.78144 0.112694 0
M  V30 4342 C 406.711 -3.37461 0.311942 0
M  V30 4343 C 405.884 -4.15446 1.36834 0
M  V30 4344 C 404.943 -5.20039 0.802864 0
M  V30 4345 O 403.969 -5.49602 1.48077 0
M  V30 4346 N 405.171 -5.79165 -0.393417 0
M  V30 4347 H 407.936 -2.37827 1.82369 0
M  V30 4348 H 405.497 -1.19101 1.09666 0
M  V30 4349 H 407.489 -4.0462 -0.0802225 0
M  V30 4350 H 406.059 -3.08156 -0.52524 0
M  V30 4351 H 405.279 -3.43423 1.93531 0
M  V30 4352 H 406.567 -4.64335 2.08015 0
M  V30 4353 H 405.965 -5.57466 -0.961658 0
M  V30 4354 H 404.522 -6.47729 -0.727351 0
M  V30 4355 N 407.956 -0.998596 -1.21925 0
M  V30 4356 C 408.886 -0.573688 -2.26343 0
M  V30 4357 C 409.867 0.402296 -1.65274 0
M  V30 4358 O 411.052 0.291683 -1.91997 0
M  V30 4359 C 408.182 0.106839 -3.47136 0
M  V30 4360 C 407.136 -0.788269 -4.20678 0
M  V30 4361 C 406.462 0.0254927 -5.34694 0
M  V30 4362 C 407.762 -2.08784 -4.78755 0
M  V30 4363 H 409.456 -1.44651 -2.62138 0
M  V30 4364 H 407.002 -0.696975 -1.26009 0
M  V30 4365 H 408.955 0.415531 -4.19346 0
M  V30 4366 H 407.679 1.01424 -3.10452 0
M  V30 4367 H 406.338 -1.08069 -3.50309 0
M  V30 4368 H 405.986 0.933989 -4.94253 0
M  V30 4369 H 405.686 -0.570437 -5.84825 0
M  V30 4370 H 407.21 0.328147 -6.09718 0
M  V30 4371 H 408.624 -1.84272 -5.42878 0
M  V30 4372 H 407.021 -2.63307 -5.39249 0
M  V30 4373 H 408.091 -2.76284 -3.98491 0
M  V30 4374 N 409.434 1.37368 -0.772513 0
M  V30 4375 C 410.68 1.99969 -0.337681 0
M  V30 4376 C 411.013 1.61184 1.08321 0
M  V30 4377 O 410.288 0.858395 1.74533 0
M  V30 4378 C 410.571 3.56858 -0.482121 0
M  V30 4379 C 410.424 4.0555 -1.94549 0
M  V30 4380 C 411.743 4.39955 0.113143 0
M  V30 4381 H 408.862 0.726464 -0.124171 0
M  V30 4382 H 411.504 1.63034 -0.975699 0
M  V30 4383 H 409.654 3.88452 0.0610361 0
M  V30 4384 H 411.326 3.84518 -2.54841 0
M  V30 4385 H 409.569 3.57715 -2.45403 0
M  V30 4386 H 410.24 5.14587 -1.9976 0
M  V30 4387 H 412.716 4.14623 -0.35031 0
M  V30 4388 H 411.592 5.48897 -0.0180514 0
M  V30 4389 H 411.853 4.25403 1.20354 0
M  V30 4390 N 410.912 0.523116 1.48665 0
M  V30 4391 C 412.323 0.0808997 1.86525 0
M  V30 4392 C 412.674 -1.33975 1.43336 0
M  V30 4393 O 411.799 -2.00221 0.821009 0
M  V30 4394 C 412.394 0.140037 3.3851 0
M  V30 4395 C 410.953 -0.246948 3.75589 0
M  V30 4396 C 410.1 0.502845 2.72703 0
M  V30 4397 H 413.051 0.734736 1.40667 0
M  V30 4398 H 413.072 -0.649945 3.74908 0
M  V30 4399 H 412.584 1.17412 3.69914 0
M  V30 4400 H 410.685 -1.28343 3.49798 0
M  V30 4401 H 410.798 0.0878859 4.79019 0
M  V30 4402 H 409.162 -0.0500581 2.54651 0
M  V30 4403 H 409.945 1.53743 3.0695 0
M  V30 4404 N 412.39 -1.55475 0.257931 0
M  V30 4405 C 413.639 -1.98383 -0.364275 0
M  V30 4406 C 413.952 -1.14952 -1.58258 0
M  V30 4407 O 415.158 -1.47924 -2.27664 0
M  V30 4408 C 413.614 -3.53037 -0.699479 0
M  V30 4409 C 413.222 -4.45223 0.498046 0
M  V30 4410 C 414.966 -4.04575 -1.28526 0
M  V30 4411 C 412.873 -5.91238 0.138383 0
M  V30 4412 H 411.803 -0.740911 -0.13988 0
M  V30 4413 H 414.454 -1.79936 0.359883 0
M  V30 4414 H 412.836 -3.6722 -1.48207 0
M  V30 4415 H 414.01 -4.42803 1.27522 0
M  V30 4416 H 412.325 -4.04226 0.999503 0
M  V30 4417 H 414.922 -5.11196 -1.56788 0
M  V30 4418 H 415.265 -3.5258 -2.21344 0
M  V30 4419 H 415.798 -3.93762 -0.565337 0
M  V30 4420 H 412.537 -6.47294 1.03398 0
M  V30 4421 H 412.057 -5.96768 -0.602374 0
M  V30 4422 H 413.736 -6.46413 -0.27553 0
M  V30 4423 N 413.868 0.0150385 -1.57593 0
M  V30 4424 C 414.798 1.01047 -2.10503 0
M  V30 4425 C 415.779 1.36816 -1.01071 0
M  V30 4426 O 416.964 1.45455 -1.28672 0
M  V30 4427 C 414.094 2.30708 -2.59598 0
M  V30 4428 C 413.048 2.09142 -3.73421 0
M  V30 4429 C 412.374 3.44685 -4.08774 0
M  V30 4430 C 413.674 1.46619 -5.01298 0
M  V30 4431 H 415.368 0.569978 -2.93925 0
M  V30 4432 H 412.914 0.272724 -1.41394 0
M  V30 4433 H 414.867 3.00687 -2.95238 0
M  V30 4434 H 413.591 2.76843 -1.73279 0
M  V30 4435 H 412.25 1.41592 -3.38153 0
M  V30 4436 H 411.898 3.88495 -3.195 0
M  V30 4437 H 411.598 3.31077 -4.8545 0
M  V30 4438 H 413.122 4.16004 -4.4696 0
M  V30 4439 H 414.536 2.06535 -5.34805 0
M  V30 4440 H 412.933 1.43544 -5.82679 0
M  V30 4441 H 414.003 0.433611 -4.82957 0
M  V30 4442 N 415.346 1.54954 0.287554 0
M  V30 4443 C 416.309 1.86076 1.33823 0
M  V30 4444 C 417.309 0.734414 1.43049 0
M  V30 4445 O 418.499 1.00266 1.42452 0
M  V30 4446 C 415.631 2.05305 2.72144 0
M  V30 4447 H 416.824 2.79984 1.07465 0
M  V30 4448 H 414.377 1.47223 0.524902 0
M  V30 4449 H 415.112 1.1373 3.03704 0
M  V30 4450 H 414.897 2.873 2.66836 0
M  V30 4451 H 416.387 2.30706 3.48087 0
M  V30 4452 N 416.824 -0.551391 1.4764 0
M  V30 4453 C 417.772 -1.67896 1.60978 0
M  V30 4454 C 418.766 -1.62549 0.476877 0
M  V30 4455 O 419.972 -1.67664 0.654878 0
M  V30 4456 H 416.347 -0.555649 0.506713 0
M  V30 4457 H 418.318 -1.53784 2.55721 0
M  V30 4458 C 417.067 -3.06234 1.64669 0
M  V30 4459 H 416.39 -3.11033 2.51194 0
M  V30 4460 H 417.83 -3.84804 1.7805 0
M  V30 4461 C 416.289 -3.34737 0.381115 0
M  V30 4462 O 416.819 -3.98381 -0.515297 0
M  V30 4463 N 415.025 -2.8944 0.259354 0
M  V30 4464 H 414.572 -2.37827 0.98976 0
M  V30 4465 H 414.53 -3.08882 -0.586464 0
M  V30 4466 N 418.302 -1.35869 -0.798587 0
M  V30 4467 C 419.551 -1.28921 -1.5512 0
M  V30 4468 C 419.864 0.13208 -1.95154 0
M  V30 4469 O 421.07 0.323879 -2.69561 0
M  V30 4470 C 419.526 -2.26141 -2.79979 0
M  V30 4471 C 419.134 -3.73658 -2.47151 0
M  V30 4472 C 420.878 -2.28152 -3.57976 0
M  V30 4473 C 418.785 -4.62679 -3.6835 0
M  V30 4474 H 417.715 -0.479031 -0.582276 0
M  V30 4475 H 420.366 -1.61179 -0.877125 0
M  V30 4476 H 418.748 -1.86865 -3.49138 0
M  V30 4477 H 419.922 -4.21616 -1.85947 0
M  V30 4478 H 418.237 -3.74333 -1.82383 0
M  V30 4479 H 420.834 -2.91875 -4.4801 0
M  V30 4480 H 421.177 -1.28748 -3.95891 0
M  V30 4481 H 421.71 -2.65998 -2.95787 0
M  V30 4482 H 418.449 -5.63111 -3.35538 0
M  V30 4483 H 417.969 -4.19442 -4.28752 0
M  V30 4484 H 419.648 -4.78498 -4.35487 0
M  V30 4485 N 419.78 1.02168 -1.19998 0
M  V30 4486 C 420.71 2.12488 -0.96804 0
M  V30 4487 C 421.691 1.69799 0.101185 0
M  V30 4488 O 422.876 1.94121 -0.0552993 0
M  V30 4489 C 420.006 3.43479 -0.513776 0
M  V30 4490 C 418.96 3.99884 -1.52566 0
M  V30 4491 C 418.286 5.26582 -0.928214 0
M  V30 4492 C 419.586 4.33861 -2.90795 0
M  V30 4493 H 421.28 2.32149 -1.89069 0
M  V30 4494 H 418.826 1.11564 -0.910468 0
M  V30 4495 H 420.779 4.20036 -0.338774 0
M  V30 4496 H 419.503 3.23561 0.444493 0
M  V30 4497 H 418.162 3.25429 -1.68794 0
M  V30 4498 H 417.81 5.02986 0.0378289 0
M  V30 4499 H 417.51 5.65284 -1.60397 0
M  V30 4500 H 419.034 6.05799 -0.764167 0
M  V30 4501 H 420.448 5.01327 -2.78109 0
M  V30 4502 H 418.845 4.83664 -3.55231 0
M  V30 4503 H 419.915 3.42848 -3.42904 0
M  V30 4504 N 421.258 1.00505 1.21394 0
M  V30 4505 C 422.168 0.574806 2.27449 0
M  V30 4506 C 423.184 -0.382206 1.6975 0
M  V30 4507 O 424.36 -0.246027 1.99892 0
M  V30 4508 C 421.425 -0.0917414 3.46579 0
M  V30 4509 C 420.486 0.909758 4.1955 0
M  V30 4510 C 419.719 0.274924 5.32991 0
M  V30 4511 O 419.942 -0.928254 5.62796 0
M  V30 4512 O 418.876 0.985877 5.93771 0
M  V30 4513 H 422.702 1.45744 2.66444 0
M  V30 4514 H 420.287 0.773923 1.27792 0
M  V30 4515 H 422.169 -0.464551 4.18832 0
M  V30 4516 H 420.844 -0.948755 3.09484 0
M  V30 4517 H 419.751 1.33372 3.49518 0
M  V30 4518 H 421.084 1.73636 4.60555 0
M  V30 4519 N 422.737 -1.36956 0.779787 0
M  V30 4520 C 423.983 -1.99787 0.348281 0
M  V30 4521 C 424.316 -1.61756 -1.07465 0
M  V30 4522 O 423.591 -0.867639 -1.74075 0
M  V30 4523 C 423.874 -3.56597 0.50104 0
M  V30 4524 C 423.727 -4.04513 1.96697 0
M  V30 4525 C 425.046 -4.40008 -0.0898097 0
M  V30 4526 H 422.165 -0.725796 0.128022 0
M  V30 4527 H 424.807 -1.62514 0.984331 0
M  V30 4528 H 422.957 -3.88479 -0.0404347 0
M  V30 4529 H 424.629 -3.83161 2.56876 0
M  V30 4530 H 422.872 -3.56408 2.47297 0
M  V30 4531 H 423.543 -5.1352 2.02486 0
M  V30 4532 H 426.019 -4.14431 0.372293 0
M  V30 4533 H 424.895 -5.4888 0.0471605 0
M  V30 4534 H 425.156 -4.26035 -1.18096 0
M  V30 4535 N 424.215 -0.530993 -1.48385 0
M  V30 4536 C 425.125 0.23503 -2.3342 0
M  V30 4537 C 426.141 0.93801 -1.46552 0
M  V30 4538 O 427.317 0.912745 -1.7953 0
M  V30 4539 C 424.382 1.26778 -3.22689 0
M  V30 4540 C 423.443 0.575038 -4.25431 0
M  V30 4541 C 422.676 1.55858 -5.10435 0
M  V30 4542 O 422.899 2.79129 -4.97437 0
M  V30 4543 O 421.833 1.09742 -5.91811 0
M  V30 4544 H 425.659 -0.461794 -3.00169 0
M  V30 4545 H 423.244 -0.291903 -1.46521 0
M  V30 4546 H 425.126 1.86457 -3.77904 0
M  V30 4547 H 423.801 1.94699 -2.586 0
M  V30 4548 H 422.708 -0.0622782 -3.74048 0
M  V30 4549 H 424.041 -0.062253 -4.92161 0
M  V30 4550 N 425.693 1.55336 -0.266172 0
M  V30 4551 C 426.625 2.19544 0.658247 0
M  V30 4552 C 427.638 1.17746 1.12427 0
M  V30 4553 O 428.827 1.44517 1.04772 0
M  V30 4554 C 425.927 2.80032 1.9088 0
M  V30 4555 C 425.1 4.07436 1.59106 0
M  V30 4556 C 424.159 4.52056 2.69317 0
M  V30 4557 O 423.185 5.18023 2.35883 0
M  V30 4558 N 424.387 4.21448 3.99201 0
M  V30 4559 H 427.152 2.99503 0.108754 0
M  V30 4560 H 424.713 1.61667 -0.0869059 0
M  V30 4561 H 426.705 3.06831 2.63888 0
M  V30 4562 H 425.275 2.04119 2.36758 0
M  V30 4563 H 424.495 3.88021 0.695243 0
M  V30 4564 H 425.783 4.90462 1.35367 0
M  V30 4565 H 425.181 3.68528 4.29189 0
M  V30 4566 H 423.738 4.53039 4.68614 0
M  V30 4567 N 427.171 -0.0066808 1.57599 0
M  V30 4568 C 428.134 -0.985035 2.06953 0
M  V30 4569 C 429.134 -1.27663 0.977687 0
M  V30 4570 O 430.324 -1.22293 1.24057 0
M  V30 4571 C 427.456 -2.3118 2.50536 0
M  V30 4572 H 428.649 -0.558255 2.94658 0
M  V30 4573 H 426.202 -0.254011 1.54222 0
M  V30 4574 H 426.937 -2.78561 1.66054 0
M  V30 4575 H 426.722 -2.11338 3.3027 0
M  V30 4576 H 428.212 -3.01377 2.8907 0
M  V30 4577 N 428.649 -1.55105 -0.279332 0
M  V30 4578 C 429.596 -1.8755 -1.34513 0
M  V30 4579 C 430.566 -0.726384 -1.49375 0
M  V30 4580 O 431.751 -0.977063 -1.63884 0
M  V30 4581 C 428.891 -2.14738 -2.70151 0
M  V30 4582 C 428.004 -3.42285 -2.63562 0
M  V30 4583 C 427.139 -3.59206 -3.91337 0
M  V30 4584 C 426.178 -4.80467 -3.79233 0
M  V30 4585 N 425.315 -4.94079 -4.98829 0
M  V30 4586 H 430.155 -2.78456 -1.06143 0
M  V30 4587 H 427.692 -1.37867 -0.512936 0
M  V30 4588 H 429.65 -2.28501 -3.49061 0
M  V30 4589 H 428.28 -1.27075 -2.96735 0
M  V30 4590 H 427.332 -3.37029 -1.76397 0
M  V30 4591 H 428.644 -4.31328 -2.50515 0
M  V30 4592 H 427.798 -3.72751 -4.78687 0
M  V30 4593 H 426.537 -2.68337 -4.07243 0
M  V30 4594 H 425.542 -4.66932 -2.90266 0
M  V30 4595 H 426.767 -5.72765 -3.64852 0
M  V30 4596 H 424.713 -4.06139 -5.15158 0
M  V30 4597 H 424.63 -5.77156 -4.8829 0
M  V30 4598 H 425.898 -5.12003 -5.8777 0
M  V30 4599 N 430.127 0.543554 -1.4793 0
M  V30 4600 C 431.367 1.31072 -1.56843 0
M  V30 4601 C 431.731 1.90604 -0.231124 0
M  V30 4602 O 432.932 2.68091 -0.195165 0
M  V30 4603 C 431.203 2.38106 -2.66533 0
M  V30 4604 S 432.762 3.24729 -2.95122 0
M  V30 4605 H 429.58 0.446035 -0.553691 0
M  V30 4606 H 432.182 0.620777 -1.85382 0
M  V30 4607 H 430.886 1.92828 -3.62278 0
M  V30 4608 H 430.417 3.11824 -2.39852 0
M  V30 4609 H 432.432 4.37891 -2.3338 0
M  V30 4610 N 431.605 1.3629 0.791371 0
M  V30 4611 C 432.851 1.31613 1.5508 0
M  V30 4612 C 433.206 -0.104372 1.92117 0
M  V30 4613 O 432.499 -1.05845 1.5971 0
M  V30 4614 C 432.693 2.17068 2.8393 0
M  V30 4615 C 432.522 3.67285 2.59484 0
M  V30 4616 C 431.292 4.36469 2.54604 0
M  V30 4617 C 433.49 4.60595 2.28816 0
M  V30 4618 N 431.472 5.7234 2.22036 0
M  V30 4619 C 432.843 5.847 2.06218 0
M  V30 4620 C 434.898 4.4918 2.14806 0
M  V30 4621 C 433.601 6.98671 1.71028 0
M  V30 4622 C 435.627 5.63017 1.81014 0
M  V30 4623 C 434.989 6.86159 1.59263 0
M  V30 4624 H 431.088 0.536878 0.568582 0
M  V30 4625 H 433.672 1.71323 0.925007 0
M  V30 4626 H 431.843 1.79605 3.44378 0
M  V30 4627 H 433.575 2.03795 3.49642 0
M  V30 4628 H 430.33 3.89249 2.69782 0
M  V30 4629 H 430.754 6.44093 2.08503 0
M  V30 4630 H 435.396 3.54564 2.30313 0
M  V30 4631 H 433.114 7.9324 1.54259 0
M  V30 4632 H 436.7 5.56146 1.70861 0
M  V30 4633 H 435.58 7.72753 1.335 0
M  V30 4634 N 433.083 -1.0153 1.20538 0
M  V30 4635 C 434.331 -1.74803 1.01432 0
M  V30 4636 C 434.652 -1.8963 -0.454456 0
M  V30 4637 O 433.922 -1.43975 -1.32846 0
M  V30 4638 H 432.502 -0.647598 0.372324 0
M  V30 4639 H 435.164 -1.22402 1.5167 0
M  V30 4640 H 434.26 -2.75114 1.47373 0
M  V30 4641 N 434.561 -1.01147 -1.20859 0
M  V30 4642 C 435.808 -0.697865 -1.90095 0
M  V30 4643 C 436.136 0.772014 -1.78522 0
M  V30 4644 O 435.391 1.57595 -1.16027 0
M  V30 4645 C 435.69 -1.0727 -3.40922 0
M  V30 4646 C 435.356 -2.53792 -3.72693 0
M  V30 4647 C 434.018 -2.93829 -3.81075 0
M  V30 4648 C 436.37 -3.48674 -3.87397 0
M  V30 4649 C 433.698 -4.27696 -4.01613 0
M  V30 4650 C 436.05 -4.82223 -4.09444 0
M  V30 4651 C 434.714 -5.21973 -4.16054 0
M  V30 4652 H 433.984 -0.255367 -0.695607 0
M  V30 4653 H 436.631 -1.27111 -1.43231 0
M  V30 4654 H 434.936 -0.417799 -3.89566 0
M  V30 4655 H 436.633 -0.807818 -3.92779 0
M  V30 4656 H 433.223 -2.21768 -3.66765 0
M  V30 4657 H 437.407 -3.18904 -3.80281 0
M  V30 4658 H 432.663 -4.58055 -4.04964 0
M  V30 4659 H 436.837 -5.55672 -4.19763 0
M  V30 4660 H 434.464 -6.25717 -4.31721 0
M  V30 4661 N 436.039 1.36541 -0.78704 0
M  V30 4662 C 437.316 1.9355 -0.282424 0
M  V30 4663 C 437.696 1.71919 1.22503 0
M  V30 4664 O 437.044 1.07677 2.01539 0
M  V30 4665 C 437.254 3.4246 -0.672462 0
M  V30 4666 C 438.602 4.19582 -0.650863 0
M  V30 4667 O 439.626 3.50889 -0.612789 0
M  V30 4668 O 438.485 5.42106 -0.691623 0
M  V30 4669 H 435.579 0.824091 -0.0693 0
M  V30 4670 H 438.125 1.45736 -0.869423 0
M  V30 4671 H 436.897 3.51851 -1.71221 0
M  V30 4672 H 436.52 3.97556 -0.0592211 0
M  V30 4673 N 437.518 0.538854 1.48102 0
M  V30 4674 C 438.45 -0.256278 2.27763 0
M  V30 4675 C 439.463 -0.89633 1.35904 0
M  V30 4676 O 440.652 -0.773275 1.60881 0
M  V30 4677 C 437.752 -1.37896 3.09577 0
M  V30 4678 C 436.925 -0.839159 4.29275 0
M  V30 4679 C 435.984 -1.84405 4.9283 0
M  V30 4680 O 435.01 -1.39746 5.51779 0
M  V30 4681 N 436.212 -3.17666 4.85869 0
M  V30 4682 H 438.977 0.426968 2.96643 0
M  V30 4683 H 436.538 0.373747 1.57527 0
M  V30 4684 H 438.53 -2.04955 3.48963 0
M  V30 4685 H 437.1 -1.96572 2.4306 0
M  V30 4686 H 436.32 0.00769287 3.94199 0
M  V30 4687 H 437.608 -0.457548 5.06739 0
M  V30 4688 H 437.006 -3.56609 4.39143 0
M  V30 4689 H 435.563 -3.80334 5.29329 0
M  V30 4690 N 438.996 -1.55193 0.274407 0
M  V30 4691 C 440.243 -1.99581 -0.342579 0
M  V30 4692 C 440.571 -1.1628 -1.55914 0
M  V30 4693 O 439.826 -0.22029 -1.94456 0
M  V30 4694 C 440.125 -3.49019 -0.769458 0
M  V30 4695 C 439.791 -4.49598 0.342389 0
M  V30 4696 C 438.453 -4.76821 0.647686 0
M  V30 4697 C 440.805 -5.0964 1.09163 0
M  V30 4698 C 438.133 -5.61354 1.70581 0
M  V30 4699 C 440.485 -5.95323 2.13948 0
M  V30 4700 C 439.149 -6.20867 2.45113 0
M  V30 4701 H 438.419 -0.730319 -0.125358 0
M  V30 4702 H 441.066 -1.87529 0.387971 0
M  V30 4703 H 439.371 -3.58544 -1.57967 0
M  V30 4704 H 441.068 -3.8077 -1.25757 0
M  V30 4705 H 437.658 -4.28496 0.094318 0
M  V30 4706 H 441.842 -4.88632 0.869024 0
M  V30 4707 H 437.098 -5.79392 1.9523 0
M  V30 4708 H 441.272 -6.40881 2.72478 0
M  V30 4709 H 438.899 -6.86162 3.27239 0
M  V30 4710 N 440.474 -0.00167713 -1.576 0
M  V30 4711 C 441.721 0.68282 -1.90641 0
M  V30 4712 C 442.049 1.73686 -0.875415 0
M  V30 4713 O 441.304 1.95334 0.119575 0
M  V30 4714 C 441.603 1.36189 -3.30435 0
M  V30 4715 C 441.269 0.440887 -4.48739 0
M  V30 4716 C 439.931 0.187312 -4.80835 0
M  V30 4717 C 442.283 -0.193134 -5.20842 0
M  V30 4718 C 439.611 -0.70855 -5.82406 0
M  V30 4719 C 441.963 -1.07688 -6.23367 0
M  V30 4720 C 440.627 -1.33962 -6.53919 0
M  V30 4721 H 439.897 0.249862 -0.697603 0
M  V30 4722 H 442.544 -0.0575642 -1.91413 0
M  V30 4723 H 440.849 2.17636 -3.25794 0
M  V30 4724 H 442.546 1.89759 -3.5326 0
M  V30 4725 H 439.136 0.648694 -4.23663 0
M  V30 4726 H 443.32 -0.0102445 -4.96299 0
M  V30 4727 H 438.576 -0.920097 -6.04437 0
M  V30 4728 H 442.75 -1.57451 -6.78367 0
M  V30 4729 H 440.377 -2.03549 -7.32442 0
M  V30 4730 N 441.952 1.55251 0.271103 0
M  V30 4731 C 442.915 1.87484 1.31842 0
M  V30 4732 C 443.915 0.749545 1.42262 0
M  V30 4733 O 445.105 1.01771 1.4138 0
M  V30 4734 C 442.237 2.0818 2.69951 0
M  V30 4735 H 443.43 2.81108 1.0449 0
M  V30 4736 H 440.983 1.47771 0.509258 0
M  V30 4737 H 441.718 1.16944 3.02481 0
M  V30 4738 H 441.503 2.90114 2.63774 0
M  V30 4739 H 442.993 2.34385 3.4562 0
M  V30 4740 N 443.43 -0.535701 1.48216 0
M  V30 4741 C 444.34 -1.66785 1.64985 0
M  V30 4742 C 445.356 -1.65654 0.532414 0
M  V30 4743 O 446.532 -1.8471 0.80275 0
M  V30 4744 C 443.597 -3.0326 1.68031 0
M  V30 4745 C 442.658 -3.1529 2.9136 0
M  V30 4746 C 441.891 -4.45255 2.94252 0
M  V30 4747 O 442.114 -5.32011 2.05719 0
M  V30 4748 O 441.048 -4.6153 3.86359 0
M  V30 4749 H 444.874 -1.55576 2.60825 0
M  V30 4750 H 442.459 -0.70815 1.31551 0
M  V30 4751 H 444.341 -3.84436 1.72589 0
M  V30 4752 H 443.016 -3.14805 0.753628 0
M  V30 4753 H 441.923 -2.3343 2.92337 0
M  V30 4754 H 443.256 -3.08658 3.83394 0
M  V30 4755 N 444.908 -1.36708 -0.784132 0
M  V30 4756 C 446.136 -1.34398 -1.57305 0
M  V30 4757 C 446.551 0.0735577 -1.88657 0
M  V30 4758 O 445.908 1.03193 -1.50524 0
M  V30 4759 C 445.959 -2.17053 -2.89085 0
M  V30 4760 O 445.68 -3.53281 -2.59083 0
M  V30 4761 C 447.181 -2.22583 -3.83369 0
M  V30 4762 H 444.401 -0.460819 -0.487736 0
M  V30 4763 H 446.945 -1.79879 -0.972819 0
M  V30 4764 H 445.1 -1.75113 -3.45564 0
M  V30 4765 H 445.514 -3.9647 -3.43383 0
M  V30 4766 H 446.988 -2.84763 -4.72878 0
M  V30 4767 H 447.465 -1.23075 -4.21603 0
M  V30 4768 H 448.071 -2.64781 -3.32823 0
M  V30 4769 N 446.386 1.0089 -1.21074 0
M  V30 4770 C 447.611 1.78727 -1.05221 0
M  V30 4771 C 448.036 1.83932 0.393795 0
M  V30 4772 O 447.394 1.28004 1.28393 0
M  V30 4773 C 447.442 3.20665 -1.64944 0
M  V30 4774 O 446.546 4.02632 -0.892273 0
M  V30 4775 H 445.887 0.550973 -0.370574 0
M  V30 4776 H 448.417 1.26847 -1.60534 0
M  V30 4777 H 448.427 3.71352 -1.69002 0
M  V30 4778 H 447.102 3.16191 -2.70177 0
M  V30 4779 H 445.679 3.61207 -0.926492 0
M  V30 4780 N 447.864 1.01787 1.20321 0
M  V30 4781 C 449.141 0.622978 1.85414 0
M  V30 4782 C 449.521 -0.898887 1.91006 0
M  V30 4783 O 448.869 -1.79112 1.41884 0
M  V30 4784 C 449.079 1.27226 3.24984 0
M  V30 4785 C 450.427 1.3885 4.01255 0
M  V30 4786 O 451.451 1.22857 3.34342 0
M  V30 4787 O 450.31 1.64705 5.2109 0
M  V30 4788 H 447.404 0.215116 0.798533 0
M  V30 4789 H 449.95 1.11533 1.27901 0
M  V30 4790 H 448.722 2.31209 3.15687 0
M  V30 4791 H 448.345 0.767069 3.90131 0
M  V30 4792 N 449.342 -1.36122 0.79427 0
M  V30 4793 C 450.591 -1.98361 0.365464 0
M  V30 4794 C 450.904 -1.6374 -1.06997 0
M  V30 4795 O 452.11 -2.19251 -1.60129 0
M  V30 4796 C 450.566 -3.54821 0.602496 0
M  V30 4797 C 450.174 -3.98362 2.04967 0
M  V30 4798 C 451.918 -4.2383 0.238437 0
M  V30 4799 C 449.825 -5.47619 2.2331 0
M  V30 4800 H 448.755 -0.742193 0.13291 0
M  V30 4801 H 451.406 -1.55354 0.976589 0
M  V30 4802 H 449.788 -3.95922 -0.078409 0
M  V30 4803 H 450.962 -3.68447 2.76737 0
M  V30 4804 H 449.277 -3.42206 2.37243 0
M  V30 4805 H 451.874 -5.33529 0.353705 0
M  V30 4806 H 452.217 -4.08264 -0.814006 0
M  V30 4807 H 452.75 -3.88108 0.872769 0
M  V30 4808 H 449.489 -5.68138 3.26955 0
M  V30 4809 H 449.009 -5.79145 1.5605 0
M  V30 4810 H 450.688 -6.13911 2.0426 0
M  V30 4811 N 450.82 -0.546701 -1.47814 0
M  V30 4812 C 451.75 0.195317 -2.32682 0
M  V30 4813 C 452.731 0.918981 -1.43139 0
M  V30 4814 O 453.916 0.901501 -1.72008 0
M  V30 4815 C 451.046 1.23237 -3.247 0
M  V30 4816 C 450 0.625818 -4.234 0
M  V30 4817 C 449.326 1.76674 -5.04669 0
M  V30 4818 C 450.626 -0.413515 -5.2066 0
M  V30 4819 H 452.32 -0.513184 -2.94969 0
M  V30 4820 H 449.866 -0.248241 -1.41844 0
M  V30 4821 H 451.819 1.75955 -3.82907 0
M  V30 4822 H 450.543 1.97067 -2.60446 0
M  V30 4823 H 449.202 0.120023 -3.66403 0
M  V30 4824 H 448.85 2.49383 -4.36826 0
M  V30 4825 H 448.55 1.36673 -5.71484 0
M  V30 4826 H 450.074 2.29738 -5.65732 0
M  V30 4827 H 451.488 0.0272042 -5.73294 0
M  V30 4828 H 449.885 -0.731825 -5.95621 0
M  V30 4829 H 450.955 -1.31325 -4.66778 0
M  V30 4830 N 452.299 1.55045 -0.282633 0
M  V30 4831 C 453.231 2.2023 0.634924 0
M  V30 4832 C 454.244 1.18931 1.11172 0
M  V30 4833 O 455.433 1.4562 1.03233 0
M  V30 4834 C 452.533 2.82041 1.87899 0
M  V30 4835 C 451.706 4.091 1.54776 0
M  V30 4836 C 450.765 4.54887 2.64507 0
M  V30 4837 O 449.791 5.20496 2.30375 0
M  V30 4838 N 450.993 4.25659 3.94709 0
M  V30 4839 H 453.758 2.99601 0.0769811 0
M  V30 4840 H 451.319 1.61565 -0.104048 0
M  V30 4841 H 453.311 3.09613 2.60619 0
M  V30 4842 H 451.881 2.06618 2.3458 0
M  V30 4843 H 451.101 3.88736 0.654049 0
M  V30 4844 H 452.389 4.9187 1.30158 0
M  V30 4845 H 451.787 3.7306 4.25256 0
M  V30 4846 H 450.344 4.57984 4.63782 0
M  V30 4847 N 453.777 0.010035 1.57597 0
M  V30 4848 C 455.193 -0.346164 1.55801 0
M  V30 4849 C 455.393 -1.74144 1.01371 0
M  V30 4850 O 454.449 -2.43938 0.651968 0
M  V30 4851 C 455.762 -0.212216 2.9995 0
M  V30 4852 C 457.31 -0.286409 3.11687 0
M  V30 4853 C 457.785 -0.18147 4.5764 0
M  V30 4854 N 459.276 -0.239056 4.62583 0
M  V30 4855 C 460.011 -0.181351 5.73113 0
M  V30 4856 N 459.507 -0.073661 6.92761 0
M  V30 4857 N 461.3 -0.233949 5.61613 0
M  V30 4858 H 453.451 0.922657 1.91313 0
M  V30 4859 H 455.714 0.354595 0.879185 0
M  V30 4860 H 455.42 0.748169 3.4365 0
M  V30 4861 H 455.294 -0.990224 3.6397 0
M  V30 4862 H 457.681 -1.23724 2.67911 0
M  V30 4863 H 457.762 0.521645 2.50425 0
M  V30 4864 H 457.406 0.765863 5.02093 0
M  V30 4865 H 457.336 -1.00814 5.1686 0
M  V30 4866 H 459.827 -0.32321 3.76515 0
M  V30 4867 H 460.14 -0.0358003 7.72792 0
M  V30 4868 H 458.485 -0.0391461 6.94989 0
M  V30 4869 H 461.676 -0.316347 4.6703 0
M  V30 4870 H 461.849 -0.185514 6.47734 0
M  V30 4871 N 455.255 -1.55392 -0.262866 0
M  V30 4872 C 456.501 -1.76737 -0.99458 0
M  V30 4873 C 456.834 -0.572453 -1.85571 0
M  V30 4874 O 456.109 0.429732 -1.89693 0
M  V30 4875 C 456.392 -3.07824 -1.8686 0
M  V30 4876 C 456.245 -4.3769 -1.03672 0
M  V30 4877 C 457.564 -3.35021 -2.85393 0
M  V30 4878 H 454.683 -0.643005 -0.360157 0
M  V30 4879 H 457.325 -1.88126 -0.266216 0
M  V30 4880 H 455.475 -2.98245 -2.48962 0
M  V30 4881 H 457.147 -4.59238 -0.43563 0
M  V30 4882 H 455.39 -4.32461 -0.340513 0
M  V30 4883 H 456.061 -5.25759 -1.6817 0
M  V30 4884 H 458.537 -3.44458 -2.33426 0
M  V30 4885 H 457.413 -4.27989 -3.43681 0
M  V30 4886 H 457.674 -2.55153 -3.61039 0
M  V30 4887 N 456.733 0.527833 -1.48498 0
M  V30 4888 C 457.979 1.28545 -1.56857 0
M  V30 4889 C 458.312 1.92678 -0.242651 0
M  V30 4890 O 457.587 1.79394 0.751545 0
M  V30 4891 C 457.87 2.37314 -2.70839 0
M  V30 4892 C 457.723 1.77858 -4.13142 0
M  V30 4893 C 459.042 3.39068 -2.80573 0
M  V30 4894 H 456.161 0.466006 -0.570971 0
M  V30 4895 H 458.803 0.587784 -1.8068 0
M  V30 4896 H 456.953 2.96821 -2.50658 0
M  V30 4897 H 458.625 1.22385 -4.44769 0
M  V30 4898 H 456.868 1.08383 -4.20042 0
M  V30 4899 H 457.539 2.56624 -4.88721 0
M  V30 4900 H 460.015 2.89518 -2.98862 0
M  V30 4901 H 458.891 4.12566 -3.6205 0
M  V30 4902 H 459.152 3.9975 -1.88818 0
M  V30 4903 N 458.211 1.37122 0.776871 0
M  V30 4904 C 459.457 1.32243 1.53752 0
M  V30 4905 C 459.79 -0.0944745 1.9397 0
M  V30 4906 O 459.065 -1.05068 1.6368 0
M  V30 4907 C 459.348 2.25681 2.80607 0
M  V30 4908 C 459.201 3.76127 2.46676 0
M  V30 4909 C 460.52 2.17657 3.82509 0
M  V30 4910 H 457.639 0.481704 0.557791 0
M  V30 4911 H 460.281 1.6778 0.891612 0
M  V30 4912 H 458.431 1.95505 3.35723 0
M  V30 4913 H 460.103 4.16877 1.97513 0
M  V30 4914 H 458.346 3.94946 1.79443 0
M  V30 4915 H 459.017 4.36933 3.37333 0
M  V30 4916 H 461.493 2.44245 3.36873 0
M  V30 4917 H 460.369 2.85185 4.69 0
M  V30 4918 H 460.63 1.16785 4.26396 0
M  V30 4919 N 459.689 -1.00246 1.21608 0
M  V30 4920 C 460.639 -2.07492 0.945051 0
M  V30 4921 C 461.623 -1.60585 -0.100675 0
M  V30 4922 O 462.815 -1.76667 0.10859 0
M  V30 4923 C 459.944 -3.39425 0.514342 0
M  V30 4924 C 459.03 -3.92993 1.59428 0
M  V30 4925 N 459.421 -4.19898 2.81991 0
M  V30 4926 C 457.719 -4.21297 1.46374 0
M  V30 4927 C 458.42 -4.63297 3.51754 0
M  V30 4928 N 457.396 -4.66421 2.79199 0
M  V30 4929 H 461.198 -2.26222 1.87619 0
M  V30 4930 H 458.712 -1.18339 1.11219 0
M  V30 4931 H 460.709 -4.15808 0.301527 0
M  V30 4932 H 459.369 -3.22101 -0.410008 0
M  V30 4933 H 460.38 -4.08377 3.1851 0
M  V30 4934 H 457.057 -4.13095 0.604863 0
M  V30 4935 H 458.447 -4.92816 4.56708 0
M  V30 4936 N 461.167 -1.02423 -1.1978 0
M  V30 4937 C 462.413 -0.719051 -1.89625 0
M  V30 4938 C 462.746 0.750083 -1.7913 0
M  V30 4939 O 462.021 1.54574 -1.18056 0
M  V30 4940 C 462.304 -1.16499 -3.40735 0
M  V30 4941 C 462.157 -2.695 -3.60125 0
M  V30 4942 C 463.476 -0.742166 -4.33797 0
M  V30 4943 H 460.595 -0.26269 -0.688595 0
M  V30 4944 H 463.237 -1.27333 -1.41018 0
M  V30 4945 H 461.387 -0.69341 -3.82262 0
M  V30 4946 H 463.059 -3.24569 -3.278 0
M  V30 4947 H 461.302 -3.10113 -3.03336 0
M  V30 4948 H 461.973 -2.95757 -4.66081 0
M  V30 4949 H 464.449 -1.1477 -3.99959 0
M  V30 4950 H 463.325 -1.08213 -5.38127 0
M  V30 4951 H 463.586 0.355747 -4.40666 0
M  V30 4952 N 462.645 1.35699 -0.801477 0
M  V30 4953 C 463.892 1.98913 -0.379459 0
M  V30 4954 C 464.22 1.63592 1.05204 0
M  V30 4955 O 463.475 0.888563 1.74365 0
M  V30 4956 C 463.774 3.53828 -0.504041 0
M  V30 4957 C 463.44 4.09002 -1.8981 0
M  V30 4958 C 462.102 4.23783 -2.27951 0
M  V30 4959 C 464.454 4.38939 -2.81038 0
M  V30 4960 C 461.782 4.65816 -3.56696 0
M  V30 4961 C 464.134 4.82409 -4.09224 0
M  V30 4962 C 462.798 4.95395 -4.4737 0
M  V30 4963 H 462.068 0.727874 -0.138854 0
M  V30 4964 H 464.715 1.61994 -1.02128 0
M  V30 4965 H 463.02 3.91175 0.221242 0
M  V30 4966 H 464.717 4.00687 -0.158361 0
M  V30 4967 H 461.307 3.97946 -1.59176 0
M  V30 4968 H 465.491 4.27077 -2.52821 0
M  V30 4969 H 460.747 4.74059 -3.86106 0
M  V30 4970 H 464.921 5.04535 -4.80018 0
M  V30 4971 H 462.548 5.27724 -5.47185 0
M  V30 4972 N 464.123 0.554532 1.47522 0
M  V30 4973 C 465.348 0.0322661 2.07375 0
M  V30 4974 C 465.773 -1.25079 1.40488 0
M  V30 4975 O 465.131 -1.74859 0.47896 0
M  V30 4976 C 465.179 -0.149397 3.6029 0
M  V30 4977 O 464.283 -1.21259 3.9417 0
M  V30 4978 H 463.624 0.0501228 0.662106 0
M  V30 4979 H 466.154 0.769452 1.8958 0
M  V30 4980 H 466.164 -0.364437 4.06369 0
M  V30 4981 H 464.839 0.787743 4.08372 0
M  V30 4982 H 463.416 -0.97825 3.5984 0
M  V30 4983 N 465.601 -1.54893 0.290851 0
M  V30 4984 C 466.531 -2.26103 -0.583084 0
M  V30 4985 C 467.512 -1.25684 -1.14619 0
M  V30 4986 O 468.697 -1.54436 -1.17741 0
M  V30 4987 C 465.827 -2.99409 -1.75987 0
M  V30 4988 C 464.781 -4.0689 -1.32758 0
M  V30 4989 C 464.107 -4.67856 -2.58872 0
M  V30 4990 C 465.407 -5.20215 -0.46624 0
M  V30 4991 H 467.101 -2.99398 0.0108214 0
M  V30 4992 H 464.647 -1.43998 0.00664468 0
M  V30 4993 H 466.6 -3.47943 -2.37727 0
M  V30 4994 H 465.324 -2.23675 -2.37985 0
M  V30 4995 H 463.983 -3.59191 -0.733299 0
M  V30 4996 H 463.631 -3.88772 -3.19163 0
M  V30 4997 H 463.331 -5.40438 -2.30653 0
M  V30 4998 H 464.855 -5.19147 -3.21433 0
M  V30 4999 H 466.269 -5.64704 -0.989047 0
M  V30 5000 H 464.666 -5.99455 -0.27826 0
M  V30 5001 H 465.736 -4.82198 0.511173 0
M  V30 5002 N 467.08 -0.0183926 -1.57589 0
M  V30 5003 C 468.305 0.676634 -1.96052 0
M  V30 5004 C 468.73 1.6548 -0.894307 0
M  V30 5005 O 468.088 1.80712 0.145849 0
M  V30 5006 C 468.136 1.36872 -3.33614 0
M  V30 5007 O 467.24 2.48372 -3.29219 0
M  V30 5008 H 466.581 0.1786 -0.63953 0
M  V30 5009 H 469.111 -0.077056 -2.04455 0
M  V30 5010 H 469.121 1.72797 -3.69601 0
M  V30 5011 H 467.796 0.651636 -4.10763 0
M  V30 5012 H 466.373 2.14639 -3.04934 0
M  V30 5013 N 468.558 1.5553 0.254621 0
M  V30 5014 C 469.49 1.86104 1.33783 0
M  V30 5015 C 470.503 0.746752 1.44663 0
M  V30 5016 O 471.692 1.0248 1.46151 0
M  V30 5017 C 468.792 2.02532 2.71724 0
M  V30 5018 C 467.965 3.33335 2.83208 0
M  V30 5019 C 467.024 3.396 4.01943 0
M  V30 5020 O 466.05 4.12862 3.91834 0
M  V30 5021 N 467.252 2.68332 5.1476 0
M  V30 5022 H 470.017 2.79605 1.07893 0
M  V30 5023 H 467.578 1.55672 0.444732 0
M  V30 5024 H 469.57 2.04074 3.4948 0
M  V30 5025 H 468.14 1.15811 2.90356 0
M  V30 5026 H 467.36 3.44176 1.92189 0
M  V30 5027 H 468.648 4.19565 2.87824 0
M  V30 5028 H 468.046 2.08528 5.25864 0
M  V30 5029 H 466.603 2.75575 5.90679 0
M  V30 5030 N 470.036 -0.519951 1.48776 0
M  V30 5031 C 470.999 -1.60574 1.6355 0
M  V30 5032 C 471.999 -1.52557 0.508234 0
M  V30 5033 O 473.189 -1.56047 0.774262 0
M  V30 5034 C 470.321 -3.00211 1.61512 0
M  V30 5035 H 471.514 -1.4881 2.60376 0
M  V30 5036 H 469.067 -0.742772 1.37523 0
M  V30 5037 H 469.802 -3.17471 0.662009 0
M  V30 5038 H 469.587 -3.07439 2.43359 0
M  V30 5039 H 471.077 -3.79134 1.75064 0
M  V30 5040 N 471.514 -1.37532 -0.769588 0
M  V30 5041 C 472.76 -1.33057 -1.53048 0
M  V30 5042 C 473.093 0.0841865 -1.94017 0
M  V30 5043 O 472.368 1.04198 -1.64235 0
M  V30 5044 C 472.651 -2.27166 -2.79406 0
M  V30 5045 C 472.504 -3.77429 -2.44677 0
M  V30 5046 C 473.823 -2.19683 -3.81349 0
M  V30 5047 H 470.942 -0.484655 -0.555228 0
M  V30 5048 H 473.584 -1.68251 -0.882702 0
M  V30 5049 H 471.734 -1.97283 -3.34682 0
M  V30 5050 H 473.406 -4.17918 -1.953 0
M  V30 5051 H 471.649 -3.95892 -1.77346 0
M  V30 5052 H 472.32 -4.38716 -3.35011 0
M  V30 5053 H 474.796 -2.46029 -3.35573 0
M  V30 5054 H 473.672 -2.87668 -4.67481 0
M  V30 5055 H 473.933 -1.19045 -4.25771 0
M  V30 5056 N 472.992 0.995999 -1.22138 0
M  V30 5057 C 473.922 2.10387 -1.01289 0
M  V30 5058 C 474.903 1.69975 0.0651454 0
M  V30 5059 O 476.088 1.9396 -0.0964628 0
M  V30 5060 C 473.218 3.42312 -0.586517 0
M  V30 5061 C 472.172 3.96558 -1.61014 0
M  V30 5062 C 471.498 5.24494 -1.0397 0
M  V30 5063 C 472.798 4.27595 -2.99933 0
M  V30 5064 H 474.492 2.28086 -1.93951 0
M  V30 5065 H 472.038 1.09607 -0.933928 0
M  V30 5066 H 473.991 4.19223 -0.427793 0
M  V30 5067 H 472.715 3.24431 0.375761 0
M  V30 5068 H 471.374 3.21776 -1.75658 0
M  V30 5069 H 471.022 5.02953 -0.0688703 0
M  V30 5070 H 470.722 5.61755 -1.72352 0
M  V30 5071 H 472.246 6.04042 -0.892494 0
M  V30 5072 H 473.66 4.95315 -2.8868 0
M  V30 5073 H 472.057 4.76021 -3.6541 0
M  V30 5074 H 473.127 3.35498 -3.50099 0
M  V30 5075 N 474.47 1.03057 1.19235 0
M  V30 5076 C 475.42 0.583386 2.2041 0
M  V30 5077 C 476.404 -0.368776 1.56617 0
M  V30 5078 O 477.596 -0.189471 1.75983 0
M  V30 5079 C 474.725 -0.0626534 3.43243 0
M  V30 5080 C 473.811 0.91205 4.14177 0
M  V30 5081 N 474.202 2.07514 4.61272 0
M  V30 5082 C 472.5 0.735859 4.39888 0
M  V30 5083 C 473.201 2.69003 5.15764 0
M  V30 5084 N 472.177 1.96954 5.06666 0
M  V30 5085 H 475.979 1.46988 2.54503 0
M  V30 5086 H 473.493 0.897785 1.35328 0
M  V30 5087 H 475.49 -0.400653 4.1497 0
M  V30 5088 H 474.15 -0.944813 3.1065 0
M  V30 5089 H 475.161 2.45448 4.56043 0
M  V30 5090 H 471.838 -0.0970656 4.17387 0
M  V30 5091 H 473.228 3.67514 5.6248 0
M  V30 5092 N 475.948 -1.35272 0.808662 0
M  V30 5093 C 476.898 -2.27181 0.193124 0
M  V30 5094 C 477.882 -1.47871 -0.634265 0
M  V30 5095 O 479.074 -1.70048 -0.491182 0
M  V30 5096 C 476.203 -3.36979 -0.655751 0
M  V30 5097 C 475.289 -4.23712 0.181481 0
M  V30 5098 N 475.68 -4.90225 1.24551 0
M  V30 5099 C 473.978 -4.45985 -0.0365493 0
M  V30 5100 C 474.679 -5.54537 1.75682 0
M  V30 5101 N 473.655 -5.33107 1.06294 0
M  V30 5102 H 477.457 -2.76101 1.00724 0
M  V30 5103 H 474.971 -1.48823 0.650029 0
M  V30 5104 H 476.968 -4.01774 -1.11279 0
M  V30 5105 H 475.628 -2.89611 -1.46819 0
M  V30 5106 H 476.639 -4.91641 1.62818 0
M  V30 5107 H 473.316 -4.09409 -0.817964 0
M  V30 5108 H 474.706 -6.17597 2.64621 0
M  V30 5109 N 477.426 -0.562348 -1.47226 0
M  V30 5110 C 478.675 -0.038041 -2.01664 0
M  V30 5111 C 478.988 1.32199 -1.44162 0
M  V30 5112 O 480.194 1.9365 -1.90294 0
M  V30 5113 C 478.65 -0.0174958 -3.59896 0
M  V30 5114 C 478.258 -1.3746 -4.2639 0
M  V30 5115 C 480.002 0.453934 -4.22066 0
M  V30 5116 C 477.909 -1.31289 -5.76643 0
M  V30 5117 H 476.839 -0.0104511 -0.753928 0
M  V30 5118 H 479.49 -0.710966 -1.69167 0
M  V30 5119 H 477.872 0.721182 -3.89378 0
M  V30 5120 H 479.046 -2.1314 -4.08544 0
M  V30 5121 H 477.361 -1.78438 -3.7623 0
M  V30 5122 H 479.958 0.518584 -5.32179 0
M  V30 5123 H 480.301 1.46706 -3.89594 0
M  V30 5124 H 480.834 -0.230044 -3.97134 0
M  V30 5125 H 477.573 -2.30217 -6.13743 0
M  V30 5126 H 477.093 -0.597973 -5.96812 0
M  V30 5127 H 478.772 -1.01713 -6.38955 0
M  V30 5128 N 478.904 1.54736 -0.299062 0
M  V30 5129 C 480.134 2.04215 0.312992 0
M  V30 5130 C 480.542 1.17596 1.48215 0
M  V30 5131 O 479.885 0.193835 1.82674 0
M  V30 5132 C 479.947 3.49696 0.833862 0
M  V30 5133 C 479.611 4.56518 -0.20977 0
M  V30 5134 C 480.608 5.09442 -1.03756 0
M  V30 5135 C 478.293 5.01073 -0.35091 0
M  V30 5136 C 480.287 6.05459 -1.99244 0
M  V30 5137 C 477.974 5.9691 -1.30924 0
M  V30 5138 C 478.972 6.48987 -2.1285 0
M  V30 5139 O 478.66 7.42947 -3.07059 0
M  V30 5140 H 478.392 0.672128 0.0722494 0
M  V30 5141 H 480.946 2.00718 -0.436043 0
M  V30 5142 H 479.176 3.5051 1.63339 0
M  V30 5143 H 480.865 3.82381 1.36159 0
M  V30 5144 H 481.631 4.75816 -0.939376 0
M  V30 5145 H 477.51 4.60168 0.276813 0
M  V30 5146 H 481.054 6.46031 -2.63229 0
M  V30 5147 H 476.951 6.29953 -1.40815 0
M  V30 5148 H 477.719 7.60743 -3.02015 0
M  V30 5149 N 480.382 0.0267497 1.57577 0
M  V30 5150 C 481.631 -0.651736 1.9088 0
M  V30 5151 C 481.944 -1.73427 0.904576 0
M  V30 5152 O 483.15 -2.46923 1.12877 0
M  V30 5153 C 481.606 -1.21048 3.38933 0
M  V30 5154 C 481.214 -0.161362 4.47709 0
M  V30 5155 C 482.958 -1.86562 3.81307 0
M  V30 5156 C 480.865 -0.731611 5.86857 0
M  V30 5157 H 479.795 -0.247198 0.712326 0
M  V30 5158 H 482.446 0.0916641 1.83271 0
M  V30 5159 H 480.828 -2.00542 3.41466 0
M  V30 5160 H 482.002 0.61094 4.56732 0
M  V30 5161 H 480.317 0.394877 4.14523 0
M  V30 5162 H 482.914 -2.30178 4.8262 0
M  V30 5163 H 483.257 -2.70735 3.16241 0
M  V30 5164 H 483.79 -1.13762 3.81186 0
M  V30 5165 H 480.529 0.0719329 6.55461 0
M  V30 5166 H 480.049 -1.47245 5.81445 0
M  V30 5167 H 481.728 -1.22208 6.35354 0
M  V30 5168 N 481.861 -1.55662 -0.24637 0
M  V30 5169 C 482.811 -1.86753 -1.30795 0
M  V30 5170 C 483.795 -0.728445 -1.43466 0
M  V30 5171 O 484.987 -0.99038 -1.46699 0
M  V30 5172 C 482.116 -2.16618 -2.66329 0
M  V30 5173 C 481.202 -3.36855 -2.57661 0
M  V30 5174 N 481.593 -4.56111 -2.18624 0
M  V30 5175 C 479.891 -3.39976 -2.88673 0
M  V30 5176 C 480.592 -5.38247 -2.20601 0
M  V30 5177 N 479.568 -4.77322 -2.60124 0
M  V30 5178 H 483.37 -2.76486 -0.996642 0
M  V30 5179 H 480.884 -1.55896 -0.454994 0
M  V30 5180 H 482.881 -2.37057 -3.42942 0
M  V30 5181 H 481.541 -1.28185 -2.98327 0
M  V30 5182 H 482.552 -4.81726 -1.9016 0
M  V30 5183 H 479.229 -2.61815 -3.25206 0
M  V30 5184 H 480.619 -6.43657 -1.92756 0
M  V30 5185 N 483.339 0.512053 -1.4905 0
M  V30 5186 C 484.302 1.59704 -1.64399 0
M  V30 5187 C 485.302 1.52285 -0.516317 0
M  V30 5188 O 486.492 1.55635 -0.782527 0
M  V30 5189 C 483.624 2.9935 -1.63102 0
M  V30 5190 H 484.817 1.47428 -2.61161 0
M  V30 5191 H 482.37 0.735469 -1.37915 0
M  V30 5192 H 483.105 3.17116 -0.678836 0
M  V30 5193 H 482.89 3.06144 -2.44986 0
M  V30 5194 H 484.38 3.782 -1.77072 0
M  V30 5195 N 484.817 1.37938 0.762283 0
M  V30 5196 C 485.767 1.30976 1.86626 0
M  V30 5197 C 486.751 0.195714 1.59705 0
M  V30 5198 O 487.943 0.430937 1.71674 0
M  V30 5199 C 485.072 1.12847 3.24223 0
M  V30 5200 C 484.158 2.28836 3.57064 0
M  V30 5201 N 484.549 3.54256 3.61022 0
M  V30 5202 C 482.847 2.21198 3.87282 0
M  V30 5203 C 483.548 4.30798 3.90881 0
M  V30 5204 N 482.524 3.60049 4.07266 0
M  V30 5205 H 486.326 2.25946 1.87951 0
M  V30 5206 H 483.84 1.31046 0.959206 0
M  V30 5207 H 485.837 1.05943 4.03214 0
M  V30 5208 H 484.497 0.188024 3.24155 0
M  V30 5209 H 485.508 3.8804 3.42995 0
M  V30 5210 H 482.185 1.35264 3.94981 0
M  V30 5211 H 483.575 5.39386 4.00639 0
M  V30 5212 N 486.295 -0.989507 1.22664 0
M  V30 5213 C 487.243 -2.10148 0.997035 0
M  V30 5214 C 488.237 -1.6929 -0.0609783 0
M  V30 5215 O 489.443 -1.79766 0.0917523 0
M  V30 5216 H 485.818 -0.687256 0.305259 0
M  V30 5217 H 487.789 -2.26685 1.94053 0
M  V30 5218 C 486.538 -3.4257 0.595085 0
M  V30 5219 H 485.861 -3.74453 1.40089 0
M  V30 5220 H 487.301 -4.21344 0.473869 0
M  V30 5221 C 485.76 -3.29638 -0.695725 0
M  V30 5222 O 486.29 -3.61709 -1.74727 0
M  V30 5223 N 484.496 -2.82814 -0.668173 0
M  V30 5224 H 484.043 -2.56914 0.18787 0
M  V30 5225 H 484.001 -2.74544 -1.5321 0
M  V30 5226 N 487.773 -1.03688 -1.18687 0
M  V30 5227 C 489.001 -0.757918 -1.92518 0
M  V30 5228 C 489.416 0.684398 -1.75959 0
M  V30 5229 O 488.773 1.46617 -1.08673 0
M  V30 5230 C 488.824 -1.10985 -3.44042 0
M  V30 5231 O 488.545 -2.49554 -3.60076 0
M  V30 5232 C 490.046 -0.854844 -4.3498 0
M  V30 5233 H 487.266 -0.276699 -0.611293 0
M  V30 5234 H 489.81 -1.38352 -1.50595 0
M  V30 5235 H 487.965 -0.529279 -3.83767 0
M  V30 5236 H 488.379 -2.6291 -4.53849 0
M  V30 5237 H 489.853 -1.15098 -5.39867 0
M  V30 5238 H 490.33 0.210507 -4.38695 0
M  V30 5239 H 490.936 -1.41853 -4.00946 0
M  V30 5240 N 489.251 1.34841 -0.815825 0
M  V30 5241 C 490.5 1.97755 -0.396976 0
M  V30 5242 C 490.813 1.65422 1.04379 0
M  V30 5243 O 492.019 2.21771 1.5662 0
M  V30 5244 C 490.475 3.53818 -0.658869 0
M  V30 5245 C 490.083 3.95051 -2.11278 0
M  V30 5246 C 491.827 4.23397 -0.305834 0
M  V30 5247 C 489.734 5.43997 -2.31994 0
M  V30 5248 H 488.664 0.739985 -0.1447 0
M  V30 5249 H 491.315 1.53781 -1.00118 0
M  V30 5250 H 489.697 3.95997 0.0154112 0
M  V30 5251 H 490.871 3.63998 -2.82564 0
M  V30 5252 H 489.186 3.38388 -2.42657 0
M  V30 5253 H 491.783 5.32899 -0.43854 0
M  V30 5254 H 492.126 4.09508 0.748952 0
M  V30 5255 H 492.659 3.8667 -0.934403 0
M  V30 5256 H 489.398 5.62865 -3.35952 0
M  V30 5257 H 488.918 5.76589 -1.65244 0
M  V30 5258 H 490.597 6.10584 -2.14001 0
M  V30 5259 N 490.729 0.570148 1.46925 0
M  V30 5260 C 491.692 -0.159933 2.28641 0
M  V30 5261 C 492.692 -0.830638 1.37685 0
M  V30 5262 O 493.882 -0.684516 1.60187 0
M  V30 5263 C 491.014 -1.2354 3.17727 0
M  V30 5264 H 492.207 0.558035 2.94662 0
M  V30 5265 H 489.76 0.327603 1.52828 0
M  V30 5266 H 490.495 -1.98535 2.56426 0
M  V30 5267 H 490.28 -0.759125 3.84681 0
M  V30 5268 H 491.77 -1.74782 3.79264 0
M  V30 5269 N 492.207 -1.54576 0.307264 0
M  V30 5270 C 493.456 -1.99442 -0.300976 0
M  V30 5271 C 493.769 -1.19928 -1.5452 0
M  V30 5272 O 494.975 -1.55092 -2.22842 0
M  V30 5273 C 493.431 -3.55084 -0.586809 0
M  V30 5274 C 493.039 -4.43413 0.639438 0
M  V30 5275 C 494.783 -4.0846 -1.1559 0
M  V30 5276 C 492.69 -5.90499 0.326411 0
M  V30 5277 H 491.62 -0.744986 -0.116238 0
M  V30 5278 H 494.271 -1.787 0.416947 0
M  V30 5279 H 492.653 -3.71749 -1.36449 0
M  V30 5280 H 493.827 -4.38522 1.41545 0
M  V30 5281 H 492.142 -4.00842 1.1276 0
M  V30 5282 H 494.739 -5.15926 -1.40445 0
M  V30 5283 H 495.082 -3.59443 -2.10015 0
M  V30 5284 H 495.615 -3.95362 -0.439778 0
M  V30 5285 H 492.354 -6.43676 1.23939 0
M  V30 5286 H 491.874 -5.98382 -0.412212 0
M  V30 5287 H 493.553 -6.46962 -0.0697393 0
M  V30 5288 N 493.685 -0.035106 -1.57561 0
M  V30 5289 C 494.932 0.642229 -1.92046 0
M  V30 5290 C 495.26 1.7179 -0.91206 0
M  V30 5291 O 494.515 1.95544 0.0781153 0
M  V30 5292 C 494.814 1.29149 -3.3325 0
M  V30 5293 C 494.48 0.345604 -4.49574 0
M  V30 5294 C 493.142 0.0852775 -4.81124 0
M  V30 5295 C 495.494 -0.303569 -5.20315 0
M  V30 5296 C 492.822 -0.831927 -5.80772 0
M  V30 5297 C 495.174 -1.20886 -6.20942 0
M  V30 5298 C 493.838 -1.47802 -6.50931 0
M  V30 5299 H 493.108 0.235008 -0.702746 0
M  V30 5300 H 495.755 -0.0981529 -1.91248 0
M  V30 5301 H 494.06 2.10676 -3.30337 0
M  V30 5302 H 495.757 1.82223 -3.57205 0
M  V30 5303 H 492.347 0.558683 -4.24943 0
M  V30 5304 H 496.531 -0.115515 -4.96166 0
M  V30 5305 H 491.787 -1.0481 -6.02349 0
M  V30 5306 H 495.961 -1.71804 -6.74875 0
M  V30 5307 H 493.588 -2.19039 -7.2796 0
M  V30 5308 N 495.163 1.55791 0.238111 0
M  V30 5309 C 496.095 1.87513 1.31802 0
M  V30 5310 C 497.108 0.762053 1.43863 0
M  V30 5311 O 498.297 1.04024 1.45056 0
M  V30 5312 C 495.397 2.05402 2.69561 0
M  V30 5313 C 494.57 3.3632 2.79656 0
M  V30 5314 C 493.629 3.43844 3.98319 0
M  V30 5315 O 492.655 4.16994 3.87433 0
M  V30 5316 N 493.857 2.73777 5.11885 0
M  V30 5317 H 496.622 2.80734 1.04922 0
M  V30 5318 H 494.183 1.56135 0.428196 0
M  V30 5319 H 496.175 2.07769 3.47296 0
M  V30 5320 H 494.745 1.18884 2.89111 0
M  V30 5321 H 493.965 3.46195 1.88528 0
M  V30 5322 H 495.253 4.22594 2.83358 0
M  V30 5323 H 494.651 2.14094 5.23622 0
M  V30 5324 H 493.208 2.81825 5.87723 0
M  V30 5325 N 496.642 -0.504142 1.49319 0
M  V30 5326 C 497.552 -1.63248 1.68486 0
M  V30 5327 C 498.568 -1.64488 0.567432 0
M  V30 5328 O 499.744 -1.82966 0.841749 0
M  V30 5329 C 496.809 -2.99627 1.74426 0
M  V30 5330 C 495.87 -3.09039 2.97982 0
M  V30 5331 C 495.103 -4.38913 3.0363 0
M  V30 5332 O 495.326 -5.27528 2.16958 0
M  V30 5333 O 494.26 -4.53231 3.96062 0
M  V30 5334 H 498.086 -1.50008 2.64067 0
M  V30 5335 H 495.671 -0.680086 1.33023 0
M  V30 5336 H 497.553 -3.80689 1.80705 0
M  V30 5337 H 496.228 -3.13136 0.820233 0
M  V30 5338 H 495.135 -2.27177 2.97223 0
M  V30 5339 H 496.468 -3.00456 3.89855 0
M  V30 5340 N 498.12 -1.38341 -0.754957 0
M  V30 5341 C 499.083 -1.35262 -1.85032 0
M  V30 5342 C 500.083 -0.253393 -1.58791 0
M  V30 5343 O 501.273 -0.510205 -1.66561 0
M  V30 5344 C 498.405 -1.10544 -3.22479 0
M  V30 5345 H 499.598 -2.32712 -1.8917 0
M  V30 5346 H 497.151 -1.23614 -0.956515 0
M  V30 5347 H 497.886 -0.136952 -3.24011 0
M  V30 5348 H 497.671 -1.90127 -3.4292 0
M  V30 5349 H 499.161 -1.11082 -4.02555 0
M  V30 5350 N 499.598 0.982988 -1.23187 0
M  V30 5351 C 500.844 1.72648 -1.06398 0
M  V30 5352 C 501.177 1.90066 0.398561 0
M  V30 5353 O 500.452 1.45105 1.29518 0
M  V30 5354 C 500.735 3.12627 -1.78707 0
M  V30 5355 C 500.588 3.02795 -3.32618 0
M  V30 5356 C 501.907 4.11997 -1.54747 0
M  V30 5357 H 499.026 0.626649 -0.387918 0
M  V30 5358 H 501.668 1.14455 -1.51658 0
M  V30 5359 H 499.818 3.62308 -1.40234 0
M  V30 5360 H 501.49 2.60659 -3.80598 0
M  V30 5361 H 499.733 2.39362 -3.61785 0
M  V30 5362 H 500.404 4.01893 -3.78399 0
M  V30 5363 H 502.88 3.71114 -1.88186 0
M  V30 5364 H 501.756 5.08037 -2.07821 0
M  V30 5365 H 502.017 4.39462 -0.482249 0
M  V30 5366 N 501.076 1.04316 1.18135 0
M  V30 5367 C 502.026 0.606731 2.19779 0
M  V30 5368 C 503.01 -0.352144 1.56999 0
M  V30 5369 O 504.202 -0.170795 1.76174 0
M  V30 5370 C 501.331 -0.0262443 3.4329 0
M  V30 5371 C 500.417 0.955928 4.13186 0
M  V30 5372 N 500.808 2.12395 4.59045 0
M  V30 5373 C 499.106 0.782473 4.39082 0
M  V30 5374 C 499.807 2.74458 5.12882 0
M  V30 5375 N 498.783 2.02316 5.04548 0
M  V30 5376 H 502.585 1.49679 2.5293 0
M  V30 5377 H 500.099 0.912088 1.34368 0
M  V30 5378 H 502.096 -0.356617 4.15372 0
M  V30 5379 H 500.756 -0.911811 3.11635 0
M  V30 5380 H 501.767 2.50272 4.53414 0
M  V30 5381 H 498.444 -0.0527906 4.17467 0
M  V30 5382 H 499.834 3.73459 5.5855 0
M  V30 5383 N 502.554 -1.34406 0.822964 0
M  V30 5384 C 503.501 -2.29519 0.24284 0
M  V30 5385 C 504.471 -1.5359 -0.632397 0
M  V30 5386 O 505.656 -1.8196 -0.57403 0
M  V30 5387 C 502.796 -3.40032 -0.58925 0
M  V30 5388 C 501.909 -4.30899 0.308236 0
M  V30 5389 C 501.044 -5.28515 -0.533425 0
M  V30 5390 C 500.083 -6.1102 0.363444 0
M  V30 5391 N 499.22 -7.00725 -0.439147 0
M  V30 5392 H 504.06 -2.78537 1.05929 0
M  V30 5393 H 501.597 -1.3707 0.533872 0
M  V30 5394 H 503.555 -4.0279 -1.087 0
M  V30 5395 H 502.185 -2.92248 -1.37081 0
M  V30 5396 H 501.237 -3.69002 0.924203 0
M  V30 5397 H 502.549 -4.88717 0.997862 0
M  V30 5398 H 501.703 -5.96725 -1.09565 0
M  V30 5399 H 500.442 -4.71235 -1.25656 0
M  V30 5400 H 499.447 -5.41743 0.937812 0
M  V30 5401 H 500.672 -6.70381 1.08469 0
M  V30 5402 H 498.618 -6.45913 -1.14595 0
M  V30 5403 H 498.535 -7.55756 0.19209 0
M  V30 5404 H 499.803 -7.73263 -0.984124 0
M  V30 5405 N 504.032 -0.577932 -1.46621 0
M  V30 5406 C 504.964 0.195801 -2.28362 0
M  V30 5407 C 505.977 0.859983 -1.38232 0
M  V30 5408 O 507.166 0.730349 -1.62875 0
M  V30 5409 C 504.266 1.29639 -3.13124 0
M  V30 5410 C 503.439 0.725049 -4.31349 0
M  V30 5411 C 502.498 1.71274 -4.97546 0
M  V30 5412 O 501.524 1.25067 -5.5529 0
M  V30 5413 N 502.726 3.04672 -4.94121 0
M  V30 5414 H 505.491 -0.505468 -2.95407 0
M  V30 5415 H 503.052 -0.415381 -1.56481 0
M  V30 5416 H 505.044 1.95631 -3.54275 0
M  V30 5417 H 503.614 1.90059 -2.48186 0
M  V30 5418 H 502.834 -0.112205 -3.9404 0
M  V30 5419 H 504.122 0.323034 -5.07774 0
M  V30 5420 H 503.52 3.4484 -4.48444 0
M  V30 5421 H 502.077 3.66166 -5.39227 0
M  V30 5422 N 505.51 1.54411 -0.315457 0
M  V30 5423 C 506.738 2.04833 0.291738 0
M  V30 5424 C 507.153 1.19203 1.46411 0
M  V30 5425 O 506.51 0.220867 1.81159 0
M  V30 5426 C 506.561 3.53969 0.73404 0
M  V30 5427 O 506.282 4.36346 -0.391682 0
M  V30 5428 C 507.783 4.2045 1.40489 0
M  V30 5429 H 505.003 0.668195 0.0612947 0
M  V30 5430 H 507.547 1.99276 -0.45929 0
M  V30 5431 H 505.702 3.5984 1.43506 0
M  V30 5432 H 506.116 5.24481 -0.0447088 0
M  V30 5433 H 507.59 5.26278 1.66539 0
M  V30 5434 H 508.067 3.71067 2.3496 0
M  V30 5435 H 508.673 4.18694 0.746662 0
M  V30 5436 N 506.988 0.0434614 1.5754 0
M  V30 5437 C 508.213 -0.645358 1.97104 0
M  V30 5438 C 508.638 -1.64037 0.920521 0
M  V30 5439 O 507.996 -1.80922 -0.11708 0
M  V30 5440 C 508.044 -1.31547 3.35749 0
M  V30 5441 O 507.148 -2.43103 3.33129 0
M  V30 5442 H 506.489 -0.168403 0.64229 0
M  V30 5443 H 509.019 0.109573 2.04306 0
M  V30 5444 H 509.029 -1.66895 3.72304 0
M  V30 5445 H 507.704 -0.586205 4.11748 0
M  V30 5446 H 506.281 -2.0976 3.0831 0
M  V30 5447 N 508.466 -1.55915 -0.229846 0
M  V30 5448 C 509.712 -1.78807 -0.956868 0
M  V30 5449 C 510.045 -0.611687 -1.84315 0
M  V30 5450 O 509.32 0.389398 -1.90562 0
M  V30 5451 C 509.603 -3.11718 -1.80288 0
M  V30 5452 C 509.456 -4.3979 -0.943649 0
M  V30 5453 C 510.775 -3.40999 -2.78222 0
M  V30 5454 H 507.894 -0.6505 -0.346437 0
M  V30 5455 H 510.536 -1.88648 -0.226252 0
M  V30 5456 H 508.686 -3.03459 -2.42579 0
M  V30 5457 H 510.358 -4.60059 -0.338121 0
M  V30 5458 H 508.601 -4.33086 -0.248705 0
M  V30 5459 H 509.272 -5.29208 -1.5698 0
M  V30 5460 H 511.748 -3.49332 -2.26067 0
M  V30 5461 H 510.624 -4.35183 -3.34526 0
M  V30 5462 H 510.885 -2.62754 -3.55546 0
M  V30 5463 N 509.944 0.496216 -1.49584 0
M  V30 5464 C 510.907 1.57952 -1.66084 0
M  V30 5465 C 511.907 1.51729 -0.53244 0
M  V30 5466 O 513.097 1.54796 -0.79899 0
M  V30 5467 C 510.229 2.97604 -1.66268 0
M  V30 5468 H 511.422 1.44649 -2.6271 0
M  V30 5469 H 508.975 0.7208 -1.38687 0
M  V30 5470 H 509.71 3.16378 -0.712432 0
M  V30 5471 H 509.495 3.03528 -2.4822 0
M  V30 5472 H 510.985 3.76301 -1.81073 0
M  V30 5473 N 511.423 1.38739 0.74761 0
M  V30 5474 C 512.834 1.31507 1.32524 0
M  V30 5475 C 513.185 -0.0263963 1.96182 0
M  V30 5476 O 512.31 -0.92849 1.95469 0
M  V30 5477 C 512.905 2.38162 2.40966 0
M  V30 5478 C 511.464 2.34489 2.94434 0
M  V30 5479 C 510.611 2.20712 1.67873 0
M  V30 5480 H 513.562 1.4901 0.546043 0
M  V30 5481 H 513.583 2.04222 3.21051 0
M  V30 5482 H 513.095 3.35783 1.94605 0
M  V30 5483 H 511.196 1.40467 3.45108 0
M  V30 5484 H 511.309 3.28861 3.48407 0
M  V30 5485 H 509.673 1.67667 1.91729 0
M  V30 5486 H 510.456 3.20285 1.23582 0
M  V30 5487 N 512.901 -0.976442 1.23707 0
M  V30 5488 C 514.317 -1.24341 1.00058 0
M  V30 5489 C 514.517 -1.99315 -0.295932 0
M  V30 5490 O 513.573 -2.3123 -1.01435 0
M  V30 5491 C 514.886 -2.03909 2.21001 0
M  V30 5492 C 516.434 -2.17034 2.25534 0
M  V30 5493 C 516.909 -2.99994 3.46075 0
M  V30 5494 N 518.4 -3.07578 3.46338 0
M  V30 5495 C 519.135 -3.72104 4.36264 0
M  V30 5496 N 518.631 -4.3842 5.36432 0
M  V30 5497 N 520.424 -3.69029 4.23998 0
M  V30 5498 H 512.575 -0.47428 2.07037 0
M  V30 5499 H 514.838 -0.272167 0.908091 0
M  V30 5500 H 514.544 -1.56198 3.15111 0
M  V30 5501 H 514.418 -3.04654 2.22409 0
M  V30 5502 H 516.805 -2.63951 1.31961 0
M  V30 5503 H 516.886 -1.15664 2.28156 0
M  V30 5504 H 516.53 -2.53772 4.39957 0
M  V30 5505 H 516.46 -4.01541 3.40694 0
M  V30 5506 H 518.951 -2.60397 2.73865 0
M  V30 5507 H 519.264 -4.85447 6.013 0
M  V30 5508 H 517.609 -4.37116 5.40328 0
M  V30 5509 H 520.8 -3.16392 3.44984 0
M  V30 5510 H 520.973 -4.19034 4.94282 0
M  V30 5511 N 514.379 -1.04941 -1.1758 0
M  V30 5512 C 515.329 -0.618378 -2.19454 0
M  V30 5513 C 516.313 0.343813 -1.57184 0
M  V30 5514 O 517.505 0.16145 -1.76262 0
M  V30 5515 C 514.634 0.00803847 -3.43299 0
M  V30 5516 C 513.72 -0.977827 -4.12673 0
M  V30 5517 N 514.111 -2.14826 -4.57912 0
M  V30 5518 C 512.409 -0.805748 -4.38661 0
M  V30 5519 C 513.11 -2.77174 -5.11419 0
M  V30 5520 N 512.086 -2.04989 -5.03468 0
M  V30 5521 H 515.888 -1.51018 -2.52132 0
M  V30 5522 H 513.402 -0.919201 -1.33882 0
M  V30 5523 H 515.399 0.334584 -4.15555 0
M  V30 5524 H 514.059 0.895272 -3.12114 0
M  V30 5525 H 515.07 -2.52673 -4.52081 0
M  V30 5526 H 511.747 0.0306506 -4.17489 0
M  V30 5527 H 513.137 -3.76416 -5.56562 0
M  V30 5528 N 515.857 1.33968 -0.830081 0
M  V30 5529 C 516.789 2.28194 -0.21448 0
M  V30 5530 C 517.802 1.5135 0.599752 0
M  V30 5531 O 518.991 1.73286 0.42826 0
M  V30 5532 C 516.091 3.31221 0.717356 0
M  V30 5533 C 515.264 4.37365 -0.055613 0
M  V30 5534 C 514.323 5.2011 0.798231 0
M  V30 5535 O 513.349 5.68691 0.240616 0
M  V30 5536 N 514.551 5.40523 2.11695 0
M  V30 5537 H 517.316 2.81662 -1.02405 0
M  V30 5538 H 514.877 1.46568 -0.687713 0
M  V30 5539 H 516.869 3.83477 1.29334 0
M  V30 5540 H 515.439 2.78095 1.42765 0
M  V30 5541 H 514.659 3.85727 -0.812936 0
M  V30 5542 H 515.947 5.05397 -0.587444 0
M  V30 5543 H 515.345 5.0274 2.59363 0
M  V30 5544 H 513.902 5.95871 2.64162 0
M  V30 5545 N 517.335 0.585699 1.46312 0
M  V30 5546 C 518.245 -0.148236 2.34131 0
M  V30 5547 C 519.261 -0.882972 1.49932 0
M  V30 5548 O 520.437 -0.845484 1.82794 0
M  V30 5549 C 517.502 -1.14714 3.27172 0
M  V30 5550 C 516.563 -0.416746 4.27272 0
M  V30 5551 C 515.796 -1.36806 5.15868 0
M  V30 5552 O 516.019 -2.60475 5.07454 0
M  V30 5553 O 514.953 -0.877018 5.95476 0
M  V30 5554 H 518.779 0.572882 2.98248 0
M  V30 5555 H 516.364 0.346082 1.45336 0
M  V30 5556 H 518.246 -1.72303 3.84564 0
M  V30 5557 H 516.921 -1.84967 2.65648 0
M  V30 5558 H 515.828 0.201061 3.73559 0
M  V30 5559 H 517.161 0.244872 4.9159 0
M  V30 5560 N 518.813 -1.54241 0.323641 0
M  V30 5561 C 520.043 -2.04687 -0.280464 0
M  V30 5562 C 520.451 -1.19939 -1.46326 0
M  V30 5563 O 519.794 -0.222872 -1.82343 0
M  V30 5564 C 519.856 -3.50978 -0.778123 0
M  V30 5565 C 519.52 -4.56127 0.282371 0
M  V30 5566 C 520.517 -5.07726 1.11847 0
M  V30 5567 C 518.202 -5.00451 0.430582 0
M  V30 5568 C 520.196 -6.02212 2.08851 0
M  V30 5569 C 517.883 -5.94752 1.40404 0
M  V30 5570 C 518.881 -6.45519 2.23147 0
M  V30 5571 O 518.569 -7.37968 3.1884 0
M  V30 5572 H 518.301 -0.673192 -0.0615473 0
M  V30 5573 H 520.855 -1.99999 0.467921 0
M  V30 5574 H 519.085 -3.53064 -1.57742 0
M  V30 5575 H 520.774 -3.84499 -1.30058 0
M  V30 5576 H 521.54 -4.74261 1.01496 0
M  V30 5577 H 517.419 -4.6055 -0.203569 0
M  V30 5578 H 520.963 -6.41761 2.73474 0
M  V30 5579 H 516.86 -6.27633 1.5082 0
M  V30 5580 H 517.628 -7.55841 3.14079 0
M  V30 5581 N 520.291 -0.0518155 -1.57515 0
M  V30 5582 C 521.221 0.920283 -2.146 0
M  V30 5583 C 522.202 1.32406 -1.06783 0
M  V30 5584 O 523.387 1.39866 -1.34726 0
M  V30 5585 C 520.517 2.1949 -2.6915 0
M  V30 5586 C 519.471 1.93116 -3.81956 0
M  V30 5587 C 518.797 3.27037 -4.23026 0
M  V30 5588 C 520.097 1.25225 -5.07066 0
M  V30 5589 H 521.791 0.444801 -2.96077 0
M  V30 5590 H 519.337 0.212508 -1.42423 0
M  V30 5591 H 521.29 2.87894 -3.07725 0
M  V30 5592 H 520.014 2.69244 -1.84865 0
M  V30 5593 H 518.673 1.27123 -3.43854 0
M  V30 5594 H 518.321 3.74595 -3.3569 0
M  V30 5595 H 518.021 3.10189 -4.99056 0
M  V30 5596 H 519.545 3.96673 -4.64202 0
M  V30 5597 H 520.959 1.83666 -5.43083 0
M  V30 5598 H 519.356 1.18702 -5.88243 0
M  V30 5599 H 520.426 0.228382 -4.84362 0
M  V30 5600 N 521.769 1.56035 0.221574 0
M  V30 5601 C 523.016 1.79047 0.94597 0
M  V30 5602 C 523.344 0.62057 1.84334 0
M  V30 5603 O 522.599 -0.395053 1.91671 0
M  V30 5604 C 522.898 3.07813 1.8162 0
M  V30 5605 C 522.564 4.3797 1.07206 0
M  V30 5606 C 521.226 4.73334 0.866508 0
M  V30 5607 C 523.578 5.18326 0.546565 0
M  V30 5608 C 520.906 5.8657 0.123549 0
M  V30 5609 C 523.258 6.32335 -0.18305 0
M  V30 5610 C 521.922 6.66301 -0.399861 0
M  V30 5611 H 521.192 0.655178 0.346155 0
M  V30 5612 H 523.839 1.90299 0.214146 0
M  V30 5613 H 522.144 2.91682 2.61589 0
M  V30 5614 H 523.841 3.2282 2.37884 0
M  V30 5615 H 520.431 4.10202 1.24226 0
M  V30 5616 H 524.615 4.9144 0.692847 0
M  V30 5617 H 519.871 6.11376 -0.0546591 0
M  V30 5618 H 524.045 6.9383 -0.59775 0
M  V30 5619 H 521.672 7.53889 -0.977489 0
M  V30 5620 N 523.247 -0.488276 1.49845 0
M  V30 5621 C 524.157 -1.61451 1.70207 0
M  V30 5622 C 525.173 -1.63877 0.584846 0
M  V30 5623 O 526.349 -1.82063 0.861107 0
M  V30 5624 C 523.414 -2.9776 1.77594 0
M  V30 5625 C 522.475 -3.05861 3.01243 0
M  V30 5626 C 521.708 -4.35668 3.08268 0
M  V30 5627 O 521.931 -5.25197 2.22541 0
M  V30 5628 O 520.865 -4.49005 4.00847 0
M  V30 5629 H 524.691 -1.47199 2.65643 0
M  V30 5630 H 522.276 -0.665939 1.33737 0
M  V30 5631 H 524.158 -3.7875 1.84732 0
M  V30 5632 H 522.833 -3.12248 0.8534 0
M  V30 5633 H 521.74 -2.24012 2.99616 0
M  V30 5634 H 523.073 -2.96304 3.9302 0
M  V30 5635 N 524.725 -1.39134 -0.740242 0
M  V30 5636 C 525.973 -1.35803 -1.49673 0
M  V30 5637 C 526.294 0.0470897 -1.94943 0
M  V30 5638 O 525.564 0.997347 -1.68611 0
M  V30 5639 H 524.144 -0.499736 -0.555224 0
M  V30 5640 H 526.806 -1.73947 -0.879107 0
M  V30 5641 H 525.902 -2.0174 -2.38133 0
M  V30 5642 N 526.204 0.969867 -1.24223 0
M  V30 5643 C 527.154 2.04913 -0.999732 0
M  V30 5644 C 528.138 1.60795 0.0580636 0
M  V30 5645 O 529.33 1.76317 -0.155392 0
M  V30 5646 C 526.459 3.37942 -0.604154 0
M  V30 5647 C 525.545 3.88628 -1.69791 0
M  V30 5648 N 525.936 4.12274 -2.93025 0
M  V30 5649 C 524.234 4.17268 -1.57492 0
M  V30 5650 C 524.935 4.53808 -3.63914 0
M  V30 5651 N 523.911 4.58855 -2.91468 0
M  V30 5652 H 527.713 2.21168 -1.93551 0
M  V30 5653 H 525.227 1.15349 -1.14317 0
M  V30 5654 H 527.224 4.14863 -0.411665 0
M  V30 5655 H 525.884 3.23075 0.324465 0
M  V30 5656 H 526.895 3.99789 -3.29225 0
M  V30 5657 H 523.572 4.11346 -0.714175 0
M  V30 5658 H 524.962 4.80534 -4.69614 0
M  V30 5659 N 527.682 1.05563 1.17022 0
M  V30 5660 C 528.612 0.681026 2.23348 0
M  V30 5661 C 529.593 -0.322983 1.67005 0
M  V30 5662 O 530.778 -0.199746 1.9317 0
M  V30 5663 C 527.908 0.0589053 3.4725 0
M  V30 5664 C 526.862 0.988082 4.16438 0
M  V30 5665 C 526.188 0.229646 5.34207 0
M  V30 5666 C 527.488 2.31388 4.68249 0
M  V30 5667 H 529.182 1.56993 2.54938 0
M  V30 5668 H 526.728 0.756302 1.2254 0
M  V30 5669 H 528.681 -0.214982 4.20851 0
M  V30 5670 H 527.405 -0.864968 3.14938 0
M  V30 5671 H 526.064 1.24659 3.44754 0
M  V30 5672 H 525.712 -0.697111 4.98146 0
M  V30 5673 H 525.412 0.848815 5.81437 0
M  V30 5674 H 526.936 -0.0368694 6.10589 0
M  V30 5675 H 528.35 2.09964 5.33468 0
M  V30 5676 H 526.747 2.88736 5.26072 0
M  V30 5677 H 527.817 2.94982 3.84855 0
M  V30 5678 N 529.16 -1.33526 0.837174 0
M  V30 5679 C 530.4 -1.99649 0.438115 0
M  V30 5680 C 530.764 -1.64879 -0.983816 0
M  V30 5681 O 531.965 -2.23956 -1.48651 0
M  V30 5682 C 530.236 -3.51431 0.650461 0
M  V30 5683 S 531.795 -4.37431 0.346371 0
M  V30 5684 H 528.613 -0.69162 0.164872 0
M  V30 5685 H 531.215 -1.62556 1.08609 0
M  V30 5686 H 529.919 -3.74225 1.68475 0
M  V30 5687 H 529.45 -3.93398 -0.0117309 0
M  V30 5688 H 531.465 -4.89132 -0.834504 0
M  V30 5689 N 530.638 -0.59345 -1.46 0
M  V30 5690 C 531.884 -0.0832754 -2.02629 0
M  V30 5691 C 532.217 1.27749 -1.46266 0
M  V30 5692 O 531.492 1.8395 -0.631866 0
M  V30 5693 C 531.775 -0.0290756 -3.60088 0
M  V30 5694 C 531.628 -1.41951 -4.26814 0
M  V30 5695 C 532.947 0.666055 -4.35031 0
M  V30 5696 H 530.066 -0.031736 -0.736316 0
M  V30 5697 H 532.708 -0.762711 -1.74019 0
M  V30 5698 H 530.858 0.549532 -3.84594 0
M  V30 5699 H 532.53 -2.04411 -4.13538 0
M  V30 5700 H 530.773 -1.98422 -3.8576 0
M  V30 5701 H 531.444 -1.33395 -5.3564 0
M  V30 5702 H 533.92 0.174401 -4.15734 0
M  V30 5703 H 532.796 0.673041 -5.44758 0
M  V30 5704 H 533.057 1.72946 -4.06869 0
M  V30 5705 N 532.116 1.54067 -0.331816 0
M  V30 5706 C 533.046 2.27569 0.522932 0
M  V30 5707 C 534.027 1.28679 1.11247 0
M  V30 5708 O 535.212 1.57504 1.13605 0
M  V30 5709 C 532.342 3.0397 1.67987 0
M  V30 5710 C 531.296 4.10267 1.21924 0
M  V30 5711 C 530.622 4.74555 2.46377 0
M  V30 5712 C 531.922 5.21268 0.32815 0
M  V30 5713 H 533.616 2.99264 -0.0901977 0
M  V30 5714 H 531.162 1.4393 -0.044821 0
M  V30 5715 H 533.115 3.54123 2.28418 0
M  V30 5716 H 531.839 2.29906 2.31971 0
M  V30 5717 H 530.498 3.61009 0.637809 0
M  V30 5718 H 530.146 3.97098 3.08743 0
M  V30 5719 H 529.846 5.46363 2.16243 0
M  V30 5720 H 531.37 5.27487 3.07555 0
M  V30 5721 H 532.784 5.67128 0.838978 0
M  V30 5722 H 531.181 5.99982 0.119228 0
M  V30 5723 H 532.251 4.80673 -0.638839 0
M  V30 5724 N 533.594 0.0601682 1.57485 0
M  V30 5725 C 534.504 -0.926121 2.15546 0
M  V30 5726 C 535.52 -1.33532 1.11558 0
M  V30 5727 O 536.696 -1.4104 1.4377 0
M  V30 5728 C 533.761 -2.17952 2.69625 0
M  V30 5729 C 532.822 -1.82783 3.88444 0
M  V30 5730 C 532.055 -3.02148 4.39935 0
M  V30 5731 O 532.278 -4.15803 3.90466 0
M  V30 5732 O 531.212 -2.82639 5.31412 0
M  V30 5733 H 535.038 -0.462289 3.00161 0
M  V30 5734 H 532.623 -0.162246 1.48516 0
M  V30 5735 H 534.505 -2.91474 3.04337 0
M  V30 5736 H 533.18 -2.63456 1.88077 0
M  V30 5737 H 532.087 -1.06549 3.58606 0
M  V30 5738 H 533.42 -1.42072 4.7125 0
M  V30 5739 N 535.072 -1.5615 -0.213296 0
M  V30 5740 C 536.483 -1.69645 -0.779582 0
M  V30 5741 C 536.834 -0.663615 -1.84636 0
M  V30 5742 O 535.959 0.183633 -2.15619 0
M  V30 5743 C 536.554 -3.07567 -1.42084 0
M  V30 5744 C 535.113 -3.22889 -1.93442 0
M  V30 5745 C 534.26 -2.65581 -0.797612 0
M  V30 5746 H 537.211 -1.58696 0.0114951 0
M  V30 5747 H 537.232 -3.03884 -2.28986 0
M  V30 5748 H 536.744 -3.82716 -0.644187 0
M  V30 5749 H 534.845 -2.52623 -2.73884 0
M  V30 5750 H 534.958 -4.30197 -2.10872 0
M  V30 5751 H 533.322 -2.24278 -1.20712 0
M  V30 5752 H 534.105 -3.43284 -0.033494 0
M  V30 5753 N 536.55 0.480323 -1.50102 0
M  V30 5754 C 537.775 1.26126 -1.64642 0
M  V30 5755 C 538.2 1.85257 -0.325823 0
M  V30 5756 O 537.558 1.66854 0.709194 0
M  V30 5757 C 537.606 2.35243 -2.73301 0
M  V30 5758 O 536.71 3.39646 -2.33911 0
M  V30 5759 H 536.051 0.371463 -0.550374 0
M  V30 5760 H 538.581 0.572696 -1.96421 0
M  V30 5761 H 538.591 2.80695 -2.96098 0
M  V30 5762 H 537.266 1.91574 -3.6915 0
M  V30 5763 H 535.843 2.99969 -2.21525 0
M  V30 5764 N 538.028 1.39524 0.732853 0
M  V30 5765 C 539.274 1.37068 1.49467 0
M  V30 5766 C 539.607 -0.0327166 1.94172 0
M  V30 5767 O 538.882 -0.998071 1.66939 0
M  V30 5768 C 539.165 2.34494 2.73285 0
M  V30 5769 C 539.018 3.83784 2.34585 0
M  V30 5770 C 540.337 2.29717 3.75391 0
M  V30 5771 H 537.456 0.499206 0.542183 0
M  V30 5772 H 540.098 1.70532 0.837783 0
M  V30 5773 H 538.248 2.06087 3.29333 0
M  V30 5774 H 539.92 4.22949 1.84151 0
M  V30 5775 H 538.163 4.00455 1.66787 0
M  V30 5776 H 538.834 4.47444 3.23262 0
M  V30 5777 H 541.31 2.54839 3.28932 0
M  V30 5778 H 540.186 2.99962 4.59689 0
M  V30 5779 H 540.447 1.30291 4.22465 0
M  V30 5780 N 539.506 -0.963266 1.24736 0
M  V30 5781 C 540.731 -1.74699 1.11781 0
M  V30 5782 C 541.156 -1.85267 -0.325258 0
M  V30 5783 O 540.514 -1.32681 -1.23553 0
M  V30 5784 C 540.562 -3.14322 1.76731 0
M  V30 5785 O 539.666 -3.99043 1.04109 0
M  V30 5786 H 539.007 -0.53684 0.390767 0
M  V30 5787 H 541.537 -1.20801 1.65131 0
M  V30 5788 H 541.547 -3.64824 1.82668 0
M  V30 5789 H 540.222 -3.05946 2.81726 0
M  V30 5790 H 538.799 -3.5752 1.05991 0
M  V30 5791 N 540.985 -1.06182 -1.16461 0
M  V30 5792 C 541.948 -0.675723 -2.19013 0
M  V30 5793 C 542.948 0.277963 -1.58379 0
M  V30 5794 O 544.138 0.0604962 -1.74095 0
M  V30 5795 C 541.27 0.00591459 -3.40899 0
M  V30 5796 H 542.463 -1.58353 -2.54685 0
M  V30 5797 H 540.016 -0.856908 -1.30716 0
M  V30 5798 H 540.751 0.92652 -3.10783 0
M  V30 5799 H 540.536 -0.67984 -3.86161 0
M  V30 5800 H 542.026 0.26181 -4.16778 0
M  V30 5801 N 542.463 1.3308 -0.844243 0
M  V30 5802 C 543.395 2.27954 -0.238671 0
M  V30 5803 C 544.408 1.51978 0.583665 0
M  V30 5804 O 545.597 1.73731 0.409857 0
M  V30 5805 C 542.697 3.31963 0.682185 0
M  V30 5806 C 541.87 4.37281 -0.101998 0
M  V30 5807 C 540.929 5.20928 0.743022 0
M  V30 5808 O 539.955 5.68914 0.180285 0
M  V30 5809 N 541.157 5.42738 2.0595 0
M  V30 5810 H 543.922 2.8056 -1.05386 0
M  V30 5811 H 541.483 1.4583 -0.70322 0
M  V30 5812 H 543.475 3.84828 1.25259 0
M  V30 5813 H 542.045 2.79594 1.39808 0
M  V30 5814 H 541.265 3.84843 -0.853802 0
M  V30 5815 H 542.553 5.04746 -0.641015 0
M  V30 5816 H 541.951 5.05463 2.54016 0
M  V30 5817 H 540.508 5.98639 2.57827 0
M  V30 5818 N 543.941 0.601185 1.45683 0
M  V30 5819 C 544.891 -0.142686 2.27553 0
M  V30 5820 C 545.875 -0.844598 1.3695 0
M  V30 5821 O 547.067 -0.735644 1.60988 0
M  V30 5822 C 544.196 -1.14364 3.23691 0
M  V30 5823 C 543.282 -0.442894 4.21781 0
M  V30 5824 N 543.673 0.51189 5.03203 0
M  V30 5825 C 541.971 -0.691277 4.4061 0
M  V30 5826 C 542.672 0.92318 5.74328 0
M  V30 5827 N 541.648 0.268308 5.42937 0
M  V30 5828 H 545.45 0.590736 2.87902 0
M  V30 5829 H 542.964 0.424365 1.56757 0
M  V30 5830 H 544.961 -1.6909 3.8107 0
M  V30 5831 H 543.621 -1.87768 2.64902 0
M  V30 5832 H 544.632 0.888329 5.10225 0
M  V30 5833 H 541.309 -1.41049 3.92952 0
M  V30 5834 H 542.699 1.71029 6.49768 0
M  V30 5835 N 545.419 -1.53889 0.339982 0
M  V30 5836 C 546.668 -2.00035 -0.258604 0
M  V30 5837 C 546.981 -1.23179 -1.51942 0
M  V30 5838 O 548.187 -1.59784 -2.19503 0
M  V30 5839 C 546.643 -3.56249 -0.511359 0
M  V30 5840 C 546.251 -4.41957 0.733349 0
M  V30 5841 C 547.995 -4.1082 -1.069 0
M  V30 5842 C 545.902 -5.89673 0.451591 0
M  V30 5843 H 544.832 -0.747284 -0.10041 0
M  V30 5844 H 547.483 -1.77776 0.454758 0
M  V30 5845 H 545.865 -3.7456 -1.28533 0
M  V30 5846 H 547.039 -4.35421 1.50815 0
M  V30 5847 H 545.354 -3.9836 1.21237 0
M  V30 5848 H 547.951 -5.18789 -1.2947 0
M  V30 5849 H 548.294 -3.63817 -2.02343 0
M  V30 5850 H 548.827 -3.96205 -0.355817 0
M  V30 5851 H 545.566 -6.40903 1.37565 0
M  V30 5852 H 545.086 -5.99122 -0.285193 0
M  V30 5853 H 546.765 -6.46965 0.0675067 0
M  V30 5854 N 546.897 -0.0685191 -1.57451 0
M  V30 5855 C 547.86 0.885173 -2.11417 0
M  V30 5856 C 548.86 1.22853 -1.03748 0
M  V30 5857 O 550.05 1.16235 -1.2975 0
M  V30 5858 C 547.182 2.18964 -2.61281 0
M  V30 5859 H 548.375 0.417034 -2.96986 0
M  V30 5860 H 545.928 0.18014 -1.55258 0
M  V30 5861 H 546.663 2.70321 -1.79156 0
M  V30 5862 H 546.448 1.9534 -3.39977 0
M  V30 5863 H 547.938 2.87242 -3.0312 0
M  V30 5864 N 548.375 1.56261 0.205012 0
M  V30 5865 C 549.325 1.90155 1.25798 0
M  V30 5866 C 550.309 0.766227 1.41484 0
M  V30 5867 O 551.501 1.02893 1.44021 0
M  V30 5868 C 548.63 2.23603 2.60493 0
M  V30 5869 C 547.716 3.43568 2.48639 0
M  V30 5870 N 548.107 4.61747 2.06455 0
M  V30 5871 C 546.405 3.4751 2.79558 0
M  V30 5872 C 547.106 5.43907 2.06253 0
M  V30 5873 N 546.082 4.84051 2.47377 0
M  V30 5874 H 549.884 2.79031 0.922986 0
M  V30 5875 H 547.398 1.57048 0.413501 0
M  V30 5876 H 549.395 2.46067 3.36537 0
M  V30 5877 H 548.055 1.36049 2.94823 0
M  V30 5878 H 549.066 4.86598 1.77321 0
M  V30 5879 H 545.743 2.70345 3.18151 0
M  V30 5880 H 547.133 6.48542 1.75622 0
M  V30 5881 N 549.853 -0.472356 1.50355 0
M  V30 5882 C 551.081 -1.24784 1.65035 0
M  V30 5883 C 551.496 -1.85837 0.333176 0
M  V30 5884 O 550.853 -1.69168 -0.68472 0
M  V30 5885 C 550.904 -2.35747 2.74054 0
M  V30 5886 O 550.625 -1.77197 4.00665 0
M  V30 5887 C 552.126 -3.26645 2.99696 0
M  V30 5888 H 549.346 -0.377432 0.554785 0
M  V30 5889 H 551.89 -0.563962 1.9657 0
M  V30 5890 H 550.045 -2.99912 2.45217 0
M  V30 5891 H 550.459 -2.5026 4.60945 0
M  V30 5892 H 551.933 -4.00718 3.79644 0
M  V30 5893 H 552.41 -3.8535 2.10718 0
M  V30 5894 H 553.016 -2.68218 3.3006 0
M  V30 5895 N 551.331 -1.39911 -0.725443 0
M  V30 5896 C 552.559 -1.40949 -1.51463 0
M  V30 5897 C 552.974 -0.0065242 -1.88799 0
M  V30 5898 O 552.331 0.967163 -1.54765 0
M  V30 5899 C 552.382 -2.29119 -2.79619 0
M  V30 5900 O 552.103 -3.63952 -2.43866 0
M  V30 5901 C 553.604 -2.38642 -3.73584 0
M  V30 5902 H 550.824 -0.481091 -0.467752 0
M  V30 5903 H 553.368 -1.83843 -0.895651 0
M  V30 5904 H 551.523 -1.89612 -3.37826 0
M  V30 5905 H 551.937 -4.10677 -3.26258 0
M  V30 5906 H 553.411 -3.04563 -4.60375 0
M  V30 5907 H 553.888 -1.40846 -4.16004 0
M  V30 5908 H 554.494 -2.78659 -3.21293 0
M  V30 5909 N 552.809 0.956637 -1.25245 0
M  V30 5910 C 553.772 2.03457 -1.05537 0
M  V30 5911 C 554.772 1.60798 -0.00886317 0
M  V30 5912 O 555.962 1.72384 -0.250865 0
M  V30 5913 C 553.094 3.35543 -0.601965 0
M  V30 5914 H 554.287 2.22372 -2.01223 0
M  V30 5915 H 551.84 1.13344 -1.07623 0
M  V30 5916 H 552.575 3.22323 0.357584 0
M  V30 5917 H 552.36 3.67854 -1.35743 0
M  V30 5918 H 553.85 4.14769 -0.485454 0
M  V30 5919 N 554.287 1.06798 1.15896 0
M  V30 5920 C 555.512 0.808739 1.90982 0
M  V30 5921 C 555.937 -0.6316 1.77179 0
M  V30 5922 O 555.295 -1.4407 1.10061 0
M  V30 5923 C 555.343 1.21468 3.39526 0
M  V30 5924 O 554.447 0.356562 4.10856 0
M  V30 5925 H 553.788 0.29512 0.594811 0
M  V30 5926 H 556.318 1.42513 1.46804 0
M  V30 5927 H 556.328 1.18844 3.90308 0
M  V30 5928 H 555.003 2.26379 3.48891 0
M  V30 5929 H 553.58 0.444808 3.70238 0
M  V30 5930 N 555.766 -1.3263 0.851289 0
M  V30 5931 C 556.991 -2.02097 0.466006 0
M  V30 5932 C 557.416 -1.63574 -0.928709 0
M  V30 5933 O 556.774 -0.834665 -1.60944 0
M  V30 5934 C 556.822 -3.55425 0.608737 0
M  V30 5935 O 555.926 -4.10827 -0.359878 0
M  V30 5936 H 555.267 -0.636911 0.187724 0
M  V30 5937 H 557.797 -1.69253 1.14955 0
M  V30 5938 H 557.807 -4.04986 0.495006 0
M  V30 5939 H 556.482 -3.82806 1.62581 0
M  V30 5940 H 555.059 -3.72349 -0.202666 0
M  V30 5941 N 557.244 -0.608902 -1.45362 0
M  V30 5942 C 558.655 -0.189511 -1.85736 0
M  V30 5943 C 559.006 1.2539 -1.50903 0
M  V30 5944 O 558.131 1.95094 -0.936347 0
M  V30 5945 C 558.726 -0.33716 -3.37118 0
M  V30 5946 C 557.285 0.0275487 -3.7639 0
M  V30 5947 C 556.432 -0.660983 -2.69307 0
M  V30 5948 H 559.383 -0.815499 -1.36144 0
M  V30 5949 H 559.404 0.430257 -3.7806 0
M  V30 5950 H 558.916 -1.38779 -3.62439 0
M  V30 5951 H 557.017 1.0773 -3.56686 0
M  V30 5952 H 557.13 -0.367018 -4.77692 0
M  V30 5953 H 555.494 -0.0984958 -2.54509 0
M  V30 5954 H 556.277 -1.71377 -2.97464 0
M  V30 5955 N 558.722 1.53707 -0.348139 0
M  V30 5956 C 559.652 2.28111 0.498766 0
M  V30 5957 C 560.633 1.29851 1.09876 0
M  V30 5958 O 561.818 1.587 1.11928 0
M  V30 5959 C 558.948 3.05735 1.64753 0
M  V30 5960 C 557.902 4.11537 1.17565 0
M  V30 5961 C 557.228 4.77142 2.4133 0
M  V30 5962 C 558.528 5.21587 0.272844 0
M  V30 5963 H 560.222 2.99152 -0.121934 0
M  V30 5964 H 557.768 1.43875 -0.0600842 0
M  V30 5965 H 559.721 3.56526 2.24649 0
M  V30 5966 H 558.445 2.32354 2.2952 0
M  V30 5967 H 557.104 3.61665 0.599483 0
M  V30 5968 H 556.752 4.0035 3.04514 0
M  V30 5969 H 556.452 5.48626 2.10436 0
M  V30 5970 H 557.976 5.30719 3.01943 0
M  V30 5971 H 559.39 5.67986 0.778779 0
M  V30 5972 H 557.787 6.00074 0.0555849 0
M  V30 5973 H 558.857 4.79969 -0.689785 0
M  V30 5974 N 560.2 0.0768682 1.57412 0
M  V30 5975 C 561.428 -0.59997 1.9801 0
M  V30 5976 C 561.843 -1.62842 0.955408 0
M  V30 5977 O 561.2 -1.8241 -0.057314 0
M  V30 5978 C 561.251 -1.26401 3.38681 0
M  V30 5979 O 560.972 -0.276723 4.37225 0
M  V30 5980 C 562.473 -2.0282 3.94182 0
M  V30 5981 H 559.693 -0.162239 0.651091 0
M  V30 5982 H 562.237 0.150771 2.03943 0
M  V30 5983 H 560.392 -1.96581 3.33819 0
M  V30 5984 H 560.806 -0.753744 5.19056 0
M  V30 5985 H 562.28 -2.44667 4.94815 0
M  V30 5986 H 562.757 -2.88678 3.31001 0
M  V30 5987 H 563.363 -1.37496 4.02461 0
M  V30 5988 N 561.678 -1.56367 -0.196722 0
M  V30 5989 C 562.608 -1.97442 -1.24655 0
M  V30 5990 C 563.589 -0.846147 -1.47561 0
M  V30 5991 O 564.774 -1.11035 -1.59326 0
M  V30 5992 C 561.904 -2.31253 -2.59112 0
M  V30 5993 C 560.858 -3.46804 -2.50821 0
M  V30 5994 C 560.184 -3.66286 -3.89536 0
M  V30 5995 C 561.484 -4.8104 -2.03465 0
M  V30 5996 H 563.178 -2.85388 -0.905216 0
M  V30 5997 H 560.724 -1.37304 -0.434002 0
M  V30 5998 H 562.677 -2.58583 -3.32736 0
M  V30 5999 H 561.401 -1.40188 -2.94983 0
M  V30 6000 H 560.06 -3.19563 -1.79653 0
M  V30 6001 H 559.708 -2.72555 -4.22756 0
M  V30 6002 H 559.408 -4.4402 -3.84864 0
M  V30 6003 H 560.932 -3.9599 -4.64784 0
M  V30 6004 H 562.346 -5.07411 -2.66846 0
M  V30 6005 H 560.743 -5.62232 -2.09798 0
M  V30 6006 H 561.813 -4.74732 -0.98781 0
M  V30 6007 N 563.156 0.464375 -1.50603 0
M  V30 6008 C 564.403 1.21596 -1.61928 0
M  V30 6009 C 564.731 1.91804 -0.322737 0
M  V30 6010 O 563.986 1.83065 0.691776 0
M  V30 6011 C 564.285 2.278 -2.75394 0
M  V30 6012 C 563.951 1.74797 -4.1564 0
M  V30 6013 C 562.613 1.60063 -4.53799 0
M  V30 6014 C 564.965 1.35548 -5.03266 0
M  V30 6015 C 562.293 1.04514 -5.77316 0
M  V30 6016 C 564.645 0.814381 -6.27336 0
M  V30 6017 C 563.309 0.653726 -6.64291 0
M  V30 6018 H 562.579 0.444951 -0.592536 0
M  V30 6019 H 565.226 0.510964 -1.84557 0
M  V30 6020 H 563.531 3.04233 -2.46879 0
M  V30 6021 H 565.228 2.85723 -2.81359 0
M  V30 6022 H 561.818 1.87234 -3.8554 0
M  V30 6023 H 566.002 1.45763 -4.74412 0
M  V30 6024 H 561.258 0.908186 -6.04617 0
M  V30 6025 H 565.432 0.501626 -6.94591 0
M  V30 6026 H 563.059 0.22114 -7.59878 0
M  V30 6027 N 564.634 1.40294 0.718013 0
M  V30 6028 C 565.859 1.41941 1.5122 0
M  V30 6029 C 566.284 0.0202371 1.88089 0
M  V30 6030 O 565.642 -0.971078 1.53101 0
M  V30 6031 C 565.69 2.3141 2.76554 0
M  V30 6032 O 564.794 1.75567 3.73162 0
M  V30 6033 H 564.135 0.482644 0.456016 0
M  V30 6034 H 566.665 1.84494 0.884478 0
M  V30 6035 H 566.675 2.46513 3.25108 0
M  V30 6036 H 565.35 3.33085 2.49053 0
M  V30 6037 H 563.927 1.69798 3.31999 0
M  V30 6038 N 566.112 -0.949982 1.2575 0
M  V30 6039 C 567.34 -1.72972 1.13527 0
M  V30 6040 C 567.755 -1.8623 -0.310453 0
M  V30 6041 O 567.112 -1.36336 -1.2132 0
M  V30 6042 C 567.163 -3.14108 1.78936 0
M  V30 6043 O 566.884 -3.01493 3.17858 0
M  V30 6044 C 568.385 -4.08338 1.72554 0
M  V30 6045 H 565.605 -0.541864 0.395758 0
M  V30 6046 H 568.149 -1.19151 1.66202 0
M  V30 6047 H 566.304 -3.64858 1.30221 0
M  V30 6048 H 566.718 -3.90559 3.50092 0
M  V30 6049 H 568.192 -5.04963 2.22973 0
M  V30 6050 H 568.669 -4.33742 0.690251 0
M  V30 6051 H 569.275 -3.63506 2.2078 0
M  V30 6052 N 567.59 -1.07411 -1.15328 0
M  V30 6053 C 568.553 -0.698914 -2.18284 0
M  V30 6054 C 569.553 0.261149 -1.58665 0
M  V30 6055 O 570.743 0.0420277 -1.74149 0
M  V30 6056 C 567.875 -0.0302427 -3.40887 0
M  V30 6057 H 569.068 -1.61045 -2.52991 0
M  V30 6058 H 566.621 -0.870724 -1.298 0
M  V30 6059 H 567.356 0.893505 -3.11748 0
M  V30 6060 H 567.141 -0.720759 -3.85419 0
M  V30 6061 H 568.631 0.21759 -4.17033 0
M  V30 6062 N 569.068 1.32177 -0.85831 0
M  V30 6063 C 570.317 1.96392 -0.459689 0
M  V30 6064 C 570.63 1.68659 0.990632 0
M  V30 6065 O 571.836 2.26641 1.49485 0
M  V30 6066 C 570.292 3.51542 -0.7711 0
M  V30 6067 C 569.9 3.8813 -2.2374 0
M  V30 6068 C 571.644 4.2221 -0.44038 0
M  V30 6069 C 569.551 5.36341 -2.49183 0
M  V30 6070 H 568.481 0.735007 -0.168169 0
M  V30 6071 H 571.132 1.50518 -1.0496 0
M  V30 6072 H 569.514 3.95846 -0.11058 0
M  V30 6073 H 570.688 3.54824 -2.94001 0
M  V30 6074 H 569.003 3.30497 -2.533 0
M  V30 6075 H 571.6 5.31234 -0.607855 0
M  V30 6076 H 571.943 4.11683 0.618291 0
M  V30 6077 H 572.476 3.83502 -1.05695 0
M  V30 6078 H 569.215 5.51892 -3.53689 0
M  V30 6079 H 568.735 5.7104 -1.83504 0
M  V30 6080 H 570.414 6.03466 -2.33318 0
M  V30 6081 N 570.547 0.616602 1.45037 0
M  V30 6082 C 571.958 0.199359 1.85633 0
M  V30 6083 C 572.309 -1.24588 1.51566 0
M  V30 6084 O 571.434 -1.94594 0.94668 0
M  V30 6085 C 572.029 0.355033 3.36935 0
M  V30 6086 C 570.588 -0.00758748 3.76399 0
M  V30 6087 C 569.735 0.675256 2.68953 0
M  V30 6088 H 572.686 0.822708 1.3571 0
M  V30 6089 H 572.707 -0.410201 3.78282 0
M  V30 6090 H 572.219 1.40699 3.61698 0
M  V30 6091 H 570.32 -1.05837 3.57252 0
M  V30 6092 H 570.433 0.392346 4.77491 0
M  V30 6093 H 568.797 0.111992 2.54454 0
M  V30 6094 H 569.58 1.72952 2.96551 0
M  V30 6095 N 572.025 -1.5352 0.356285 0
M  V30 6096 C 572.972 -2.25439 -0.494569 0
M  V30 6097 C 573.942 -1.25752 -1.08516 0
M  V30 6098 O 575.127 -1.54513 -1.1194 0
M  V30 6099 C 572.267 -3.04011 -1.63313 0
M  V30 6100 C 571.38 -4.18574 -1.06862 0
M  V30 6101 C 570.515 -4.84607 -2.17552 0
M  V30 6102 C 569.554 -5.91218 -1.58518 0
M  V30 6103 N 568.691 -6.50979 -2.63003 0
M  V30 6104 H 573.531 -2.97737 0.125244 0
M  V30 6105 H 571.068 -1.46916 0.0735789 0
M  V30 6106 H 573.026 -3.47834 -2.30363 0
M  V30 6107 H 571.656 -2.33986 -2.22374 0
M  V30 6108 H 570.708 -3.79303 -0.288672 0
M  V30 6109 H 572.02 -4.95215 -0.596924 0
M  V30 6110 H 571.174 -5.31566 -2.92442 0
M  V30 6111 H 569.913 -4.07418 -2.6807 0
M  V30 6112 H 568.918 -5.4363 -0.821391 0
M  V30 6113 H 570.143 -6.70322 -1.08836 0
M  V30 6114 H 568.089 -5.76648 -3.12751 0
M  V30 6115 H 568.006 -7.23131 -2.20493 0
M  V30 6116 H 569.274 -7.02589 -3.37623 0
M  V30 6117 N 573.503 -0.0852151 -1.57369 0
M  V30 6118 C 574.751 0.579658 -1.93609 0
M  V30 6119 C 575.072 1.69332 -0.967043 0
M  V30 6120 O 574.342 1.95892 -0.0174215 0
M  V30 6121 H 572.922 0.217113 -0.714752 0
M  V30 6122 H 575.584 -0.146226 -1.94351 0
M  V30 6123 H 574.68 0.996276 -2.95771 0
M  V30 6124 N 574.981 1.5647 0.188427 0
M  V30 6125 C 575.911 1.98101 1.23606 0
M  V30 6126 C 576.892 0.853961 1.47111 0
M  V30 6127 O 578.077 1.11879 1.58735 0
M  V30 6128 C 575.207 2.32624 2.57882 0
M  V30 6129 C 574.161 3.48129 2.48978 0
M  V30 6130 C 573.487 3.68347 3.87588 0
M  V30 6131 C 574.787 4.82112 2.00911 0
M  V30 6132 H 576.481 2.85864 0.890068 0
M  V30 6133 H 574.027 1.37532 0.426714 0
M  V30 6134 H 575.98 2.60343 3.3136 0
M  V30 6135 H 574.704 1.41751 2.94235 0
M  V30 6136 H 573.363 3.20511 1.77956 0
M  V30 6137 H 573.011 2.74793 4.21305 0
M  V30 6138 H 572.711 4.46055 3.82503 0
M  V30 6139 H 574.235 3.98449 4.62678 0
M  V30 6140 H 575.649 5.08819 2.64151 0
M  V30 6141 H 574.046 5.63337 2.06814 0
M  V30 6142 H 575.116 4.75249 0.96262 0
M  V30 6143 N 576.459 -0.456382 1.50847 0
M  V30 6144 C 577.422 -1.53493 1.70213 0
M  V30 6145 C 578.422 -1.50264 0.572481 0
M  V30 6146 O 579.612 -1.52623 0.839751 0
M  V30 6147 C 576.744 -2.93091 1.741 0
M  V30 6148 H 577.937 -1.37633 2.66453 0
M  V30 6149 H 575.49 -0.683776 1.4055 0
M  V30 6150 H 576.225 -3.14378 0.796063 0
M  V30 6151 H 576.01 -2.9684 2.5618 0
M  V30 6152 H 577.5 -3.71368 1.90987 0
M  V30 6153 N 577.937 -1.40673 -0.710563 0
M  V30 6154 C 579.184 -1.39222 -1.47049 0
M  V30 6155 C 579.512 0.0037691 -1.945 0
M  V30 6156 O 578.767 0.989224 -1.68857 0
M  V30 6157 C 579.066 -2.33253 -2.70791 0
M  V30 6158 C 578.732 -3.80406 -2.42079 0
M  V30 6159 C 577.394 -4.20496 -2.33959 0
M  V30 6160 C 579.746 -4.73375 -2.18094 0
M  V30 6161 C 577.074 -5.51584 -1.99929 0
M  V30 6162 C 579.426 -6.04768 -1.85576 0
M  V30 6163 C 578.09 -6.43895 -1.75941 0
M  V30 6164 H 577.36 -0.509449 -0.538092 0
M  V30 6165 H 580.007 -1.73363 -0.81348 0
M  V30 6166 H 578.312 -1.92314 -3.41354 0
M  V30 6167 H 580.009 -2.29412 -3.28894 0
M  V30 6168 H 576.599 -3.48645 -2.49288 0
M  V30 6169 H 580.783 -4.43217 -2.23321 0
M  V30 6170 H 576.039 -5.80797 -1.91011 0
M  V30 6171 H 580.213 -6.76318 -1.66033 0
M  V30 6172 H 577.84 -7.45387 -1.4934 0
M  V30 6173 N 579.415 0.9433 -1.26252 0
M  V30 6174 C 580.831 1.21644 -1.03319 0
M  V30 6175 C 581.031 2.0003 0.242983 0
M  V30 6176 O 580.087 2.33838 0.952688 0
M  V30 6177 C 581.4 1.97978 -2.2633 0
M  V30 6178 C 582.948 2.10978 -2.31209 0
M  V30 6179 C 583.423 2.90713 -3.53907 0
M  V30 6180 N 584.914 2.98287 -3.54371 0
M  V30 6181 C 585.649 3.60406 -4.45976 0
M  V30 6182 N 585.145 4.24043 -5.47868 0
M  V30 6183 N 586.938 3.57658 -4.33633 0
M  V30 6184 H 579.089 0.419221 -2.08222 0
M  V30 6185 H 581.352 0.247995 -0.914988 0
M  V30 6186 H 581.058 1.47788 -3.19142 0
M  V30 6187 H 580.932 2.9865 -2.30408 0
M  V30 6188 H 583.319 2.6036 -1.38913 0
M  V30 6189 H 583.4 1.09575 -2.31143 0
M  V30 6190 H 583.044 2.42018 -4.46531 0
M  V30 6191 H 582.974 3.92367 -3.5122 0
M  V30 6192 H 585.465 2.53044 -2.80673 0
M  V30 6193 H 585.778 4.69334 -6.13959 0
M  V30 6194 H 584.123 4.22637 -5.51728 0
M  V30 6195 H 587.314 3.07134 -3.53251 0
M  V30 6196 H 587.487 4.05782 -5.05218 0
M  V30 6197 N 580.893 1.08022 1.14757 0
M  V30 6198 C 582.17 0.720386 1.81851 0
M  V30 6199 C 582.55 -0.796375 1.95502 0
M  V30 6200 O 581.898 -1.71339 1.51179 0
M  V30 6201 C 582.108 1.44273 3.17783 0
M  V30 6202 C 583.456 1.59925 3.93331 0
M  V30 6203 O 584.48 1.40407 3.2736 0
M  V30 6204 O 583.339 1.92096 5.11626 0
M  V30 6205 H 580.433 0.257142 0.786007 0
M  V30 6206 H 582.979 1.18155 1.21809 0
M  V30 6207 H 581.751 2.47618 3.02987 0
M  V30 6208 H 581.374 0.97279 3.85516 0
M  V30 6209 N 582.371 -1.3172 0.865308 0
M  V30 6210 C 583.782 -1.79104 0.527126 0
M  V30 6211 C 584.133 -1.7135 -0.955695 0
M  V30 6212 O 583.258 -1.27845 -1.74598 0
M  V30 6213 C 583.853 -3.25207 0.950061 0
M  V30 6214 C 582.412 -3.70504 0.663611 0
M  V30 6215 C 581.559 -2.52605 1.14395 0
M  V30 6216 H 584.51 -1.18868 1.05148 0
M  V30 6217 H 584.531 -3.79535 0.270805 0
M  V30 6218 H 584.043 -3.30818 2.02931 0
M  V30 6219 H 582.144 -3.70398 -0.404474 0
M  V30 6220 H 582.257 -4.62845 1.23737 0
M  V30 6221 H 580.621 -2.4838 0.563859 0
M  V30 6222 H 581.404 -2.60964 2.23053 0
M  V30 6223 N 583.85 -0.624285 -1.44708 0
M  V30 6224 C 584.812 0.0749638 -2.29077 0
M  V30 6225 C 585.812 0.778965 -1.40673 0
M  V30 6226 O 587.003 0.624591 -1.62618 0
M  V30 6227 C 584.135 1.11663 -3.22094 0
M  V30 6228 H 585.327 -0.667013 -2.92388 0
M  V30 6229 H 582.88 -0.384098 -1.51507 0
M  V30 6230 H 583.615 1.88881 -2.63618 0
M  V30 6231 H 583.401 0.61583 -3.87234 0
M  V30 6232 H 584.891 1.60585 -3.8549 0
M  V30 6233 N 585.328 1.53329 -0.364422 0
M  V30 6234 C 586.258 2.28627 0.474543 0
M  V30 6235 C 587.239 1.31009 1.08492 0
M  V30 6236 O 588.424 1.59878 1.10239 0
M  V30 6237 C 585.554 3.07465 1.61501 0
M  V30 6238 C 584.508 4.1276 1.13194 0
M  V30 6239 C 583.834 4.79674 2.36255 0
M  V30 6240 C 585.134 5.21847 0.217507 0
M  V30 6241 H 586.828 2.99005 -0.153656 0
M  V30 6242 H 584.374 1.43803 -0.0753406 0
M  V30 6243 H 586.327 3.58889 2.20855 0
M  V30 6244 H 585.051 2.34775 2.27042 0
M  V30 6245 H 583.71 3.62281 0.56109 0
M  V30 6246 H 583.358 4.03557 3.00251 0
M  V30 6247 H 583.058 5.50827 2.04606 0
M  V30 6248 H 584.582 5.33892 2.96297 0
M  V30 6249 H 585.996 5.6878 0.718493 0
M  V30 6250 H 584.393 6.00099 -0.00806408 0
M  V30 6251 H 585.463 4.7921 -0.740653 0
M  V30 6252 N 586.806 0.0935595 1.57322 0
M  V30 6253 C 588.083 -0.612692 1.85756 0
M  V30 6254 C 588.463 -1.86439 0.99013 0
M  V30 6255 O 587.811 -2.28416 0.0621362 0
M  V30 6256 C 588.021 -0.929547 3.36393 0
M  V30 6257 C 589.369 -1.29366 4.04413 0
M  V30 6258 O 590.393 -1.02061 3.41265 0
M  V30 6259 O 589.252 -1.80498 5.15832 0
M  V30 6260 H 586.346 -0.306444 0.768128 0
M  V30 6261 H 588.892 0.126141 1.69231 0
M  V30 6262 H 587.664 -0.0414766 3.91278 0
M  V30 6263 H 587.287 -1.72441 3.5826 0
M  V30 6264 N 588.284 -1.56567 -0.180126 0
M  V30 6265 C 589.53 -1.81761 -0.899497 0
M  V30 6266 C 589.863 -0.670015 -1.82276 0
M  V30 6267 O 589.138 0.328575 -1.91705 0
M  V30 6268 C 589.421 -3.17296 -1.7028 0
M  V30 6269 C 589.274 -4.4257 -0.803255 0
M  V30 6270 C 590.593 -3.49678 -2.67233 0
M  V30 6271 H 587.712 -0.661192 -0.325567 0
M  V30 6272 H 590.354 -1.89272 -0.16612 0
M  V30 6273 H 588.504 -3.11023 -2.32802 0
M  V30 6274 H 590.176 -4.60902 -0.191585 0
M  V30 6275 H 588.419 -4.33658 -0.110796 0
M  V30 6276 H 589.09 -5.33935 -1.40064 0
M  V30 6277 H 591.566 -3.56347 -2.14839 0
M  V30 6278 H 590.442 -4.45605 -3.20511 0
M  V30 6279 H 590.703 -2.73932 -3.47007 0
M  V30 6280 N 589.762 0.448376 -1.51087 0
M  V30 6281 C 591.173 1.0286 -1.5581 0
M  V30 6282 C 591.524 1.92583 -0.374989 0
M  V30 6283 O 590.649 2.10316 0.509533 0
M  V30 6284 C 591.244 1.87223 -2.8237 0
M  V30 6285 C 589.803 2.40314 -2.897 0
M  V30 6286 C 588.95 1.19238 -2.50355 0
M  V30 6287 H 591.901 0.230075 -1.57023 0
M  V30 6288 H 591.922 2.72553 -2.6551 0
M  V30 6289 H 591.434 1.21894 -3.68461 0
M  V30 6290 H 589.535 3.09129 -2.08014 0
M  V30 6291 H 589.648 2.73866 -3.93108 0
M  V30 6292 H 588.012 1.53428 -2.03303 0
M  V30 6293 H 588.795 0.555367 -3.38778 0
M  V30 6294 N 591.24 1.41047 0.703093 0
M  V30 6295 C 592.187 1.42302 1.81711 0
M  V30 6296 C 593.157 0.278336 1.63751 0
M  V30 6297 O 594.342 0.478266 1.84709 0
M  V30 6298 C 591.482 1.30362 3.19531 0
M  V30 6299 C 590.595 2.54638 3.48975 0
M  V30 6300 C 589.73 2.35047 4.76368 0
M  V30 6301 C 588.769 3.54837 4.98756 0
M  V30 6302 N 587.906 3.34363 6.1737 0
M  V30 6303 H 592.746 2.37516 1.79973 0
M  V30 6304 H 590.283 1.1795 0.878983 0
M  V30 6305 H 592.241 1.21443 3.99134 0
M  V30 6306 H 590.871 0.387602 3.20464 0
M  V30 6307 H 589.923 2.74037 2.63833 0
M  V30 6308 H 591.235 3.43766 3.61423 0
M  V30 6309 H 590.389 2.23552 5.64012 0
M  V30 6310 H 589.128 1.43363 4.66153 0
M  V30 6311 H 588.133 3.66795 4.09563 0
M  V30 6312 H 589.358 4.47464 5.10835 0
M  V30 6313 H 587.304 2.45373 6.08382 0
M  V30 6314 H 587.221 4.17063 6.30551 0
M  V30 6315 H 588.489 3.26626 7.07768 0
M  V30 6316 N 592.718 -0.936591 1.26751 0
M  V30 6317 C 593.965 -1.68331 1.12566 0
M  V30 6318 C 594.293 -1.91677 -0.330168 0
M  V30 6319 O 593.548 -1.49859 -1.2586 0
M  V30 6320 C 593.847 -3.06099 1.84494 0
M  V30 6321 C 593.513 -3.02493 3.34378 0
M  V30 6322 C 592.175 -3.01217 3.75262 0
M  V30 6323 C 594.527 -2.94453 4.30055 0
M  V30 6324 C 591.855 -2.89672 5.10203 0
M  V30 6325 C 594.207 -2.84449 5.65041 0
M  V30 6326 C 592.871 -2.81518 6.0523 0
M  V30 6327 H 592.141 -0.615965 0.411907 0
M  V30 6328 H 594.788 -1.09292 1.5725 0
M  V30 6329 H 593.093 -3.6879 1.32292 0
M  V30 6330 H 594.79 -3.62733 1.70955 0
M  V30 6331 H 591.38 -3.04269 3.01858 0
M  V30 6332 H 595.564 -2.94544 3.99447 0
M  V30 6333 H 590.82 -2.85783 5.40498 0
M  V30 6334 H 594.994 -2.77192 6.38856 0
M  V30 6335 H 592.621 -2.72329 7.09747 0
M  V30 6336 N 594.196 -1.08629 -1.14182 0
M  V30 6337 C 595.442 -0.818556 -1.85546 0
M  V30 6338 C 595.775 0.654076 -1.82854 0
M  V30 6339 O 595.05 1.48099 -1.26083 0
M  V30 6340 C 595.333 -1.34397 -3.3408 0
M  V30 6341 C 595.186 -2.8821 -3.45333 0
M  V30 6342 C 596.505 -0.971069 -4.29253 0
M  V30 6343 H 593.624 -0.298821 -0.673702 0
M  V30 6344 H 596.266 -1.34629 -1.34071 0
M  V30 6345 H 594.416 -0.895064 -3.78049 0
M  V30 6346 H 596.088 -3.41488 -3.10134 0
M  V30 6347 H 594.331 -3.25756 -2.86471 0
M  V30 6348 H 595.002 -3.20047 -4.49749 0
M  V30 6349 H 597.478 -1.35809 -3.93313 0
M  V30 6350 H 596.354 -1.36586 -5.31635 0
M  V30 6351 H 596.615 0.121659 -4.41933 0
M  V30 6352 N 595.674 1.31259 -0.872281 0
M  V30 6353 C 597.085 1.78822 -0.536617 0
M  V30 6354 C 597.436 1.71855 0.946594 0
M  V30 6355 O 596.561 1.28769 1.73918 0
M  V30 6356 C 597.156 3.24698 -0.967294 0
M  V30 6357 C 595.715 3.70147 -0.683251 0
M  V30 6358 C 594.862 2.51994 -1.15733 0
M  V30 6359 H 597.813 1.18308 -1.05777 0
M  V30 6360 H 597.834 3.79386 -0.290929 0
M  V30 6361 H 597.346 3.29737 -2.04683 0
M  V30 6362 H 595.447 3.70607 0.384825 0
M  V30 6363 H 595.56 4.62183 -1.2619 0
M  V30 6364 H 593.924 2.48078 -0.577024 0
M  V30 6365 H 594.707 2.59778 -2.24434 0
M  V30 6366 N 597.152 0.631951 1.44375 0
M  V30 6367 C 598.099 -0.0724807 2.30686 0
M  V30 6368 C 599.069 -0.835975 1.43529 0
M  V30 6369 O 600.254 -0.816849 1.7243 0
M  V30 6370 C 597.394 -1.04753 3.28817 0
M  V30 6371 C 596.507 -0.282367 4.31076 0
M  V30 6372 C 595.642 -1.2493 5.163 0
M  V30 6373 C 594.681 -0.473349 6.10267 0
M  V30 6374 N 593.818 -1.39079 6.88187 0
M  V30 6375 H 598.658 0.669477 2.90383 0
M  V30 6376 H 596.195 0.341927 1.43071 0
M  V30 6377 H 598.153 -1.62623 3.842 0
M  V30 6378 H 596.783 -1.75661 2.70819 0
M  V30 6379 H 595.835 0.412268 3.78159 0
M  V30 6380 H 597.147 0.321955 4.9776 0
M  V30 6381 H 596.301 -1.89931 5.76204 0
M  V30 6382 H 595.04 -1.88755 4.49692 0
M  V30 6383 H 594.045 0.190142 5.49471 0
M  V30 6384 H 595.27 0.16019 6.78911 0
M  V30 6385 H 593.216 -2.01623 6.24247 0
M  V30 6386 H 593.133 -0.840513 7.51313 0
M  V30 6387 H 594.401 -2.02961 7.52613 0
M  V30 6388 N 598.631 -1.53133 0.372548 0
M  V30 6389 C 599.877 -2.01654 -0.215277 0
M  V30 6390 C 600.21 -1.25914 -1.47849 0
M  V30 6391 O 599.485 -0.3548 -1.91237 0
M  V30 6392 C 599.768 -3.56609 -0.500187 0
M  V30 6393 C 599.621 -4.43036 0.777145 0
M  V30 6394 C 600.94 -4.20528 -1.29786 0
M  V30 6395 H 598.059 -0.732991 -0.0767686 0
M  V30 6396 H 600.701 -1.83335 0.498814 0
M  V30 6397 H 598.851 -3.7235 -1.10852 0
M  V30 6398 H 600.523 -4.39079 1.41447 0
M  V30 6399 H 598.766 -4.10723 1.39604 0
M  V30 6400 H 599.437 -5.49424 0.532662 0
M  V30 6401 H 601.913 -4.08663 -0.783198 0
M  V30 6402 H 600.789 -5.28962 -1.46596 0
M  V30 6403 H 601.05 -3.77051 -2.30836 0
M  V30 6404 N 600.109 -0.101901 -1.5727 0
M  V30 6405 C 601.386 0.602832 -1.86079 0
M  V30 6406 C 601.766 1.85912 -1 0
M  V30 6407 O 601.114 2.28379 -0.0742488 0
M  V30 6408 C 601.324 0.911694 -3.36881 0
M  V30 6409 C 602.672 1.2722 -4.05093 0
M  V30 6410 O 603.696 1.0025 -3.41802 0
M  V30 6411 O 602.555 1.7776 -5.16782 0
M  V30 6412 H 599.649 0.302366 -0.769743 0
M  V30 6413 H 602.195 -0.135113 -1.69161 0
M  V30 6414 H 600.967 0.0207256 -3.91295 0
M  V30 6415 H 600.59 1.70538 -3.59169 0
M  V30 6416 N 601.587 1.56661 0.17182 0
M  V30 6417 C 602.517 1.99401 1.21498 0
M  V30 6418 C 603.498 0.869516 1.46197 0
M  V30 6419 O 604.683 1.13556 1.57539 0
M  V30 6420 C 601.813 2.35346 2.55401 0
M  V30 6421 C 600.767 3.5075 2.45272 0
M  V30 6422 C 600.093 3.72437 3.8366 0
M  V30 6423 C 601.393 4.84216 1.95787 0
M  V30 6424 H 603.087 2.86792 0.859699 0
M  V30 6425 H 600.633 1.37977 0.412103 0
M  V30 6426 H 602.586 2.63843 3.2858 0
M  V30 6427 H 601.31 1.44864 2.92715 0
M  V30 6428 H 599.969 3.2238 1.74547 0
M  V30 6429 H 599.617 2.79246 4.18367 0
M  V30 6430 H 599.317 4.50087 3.77751 0
M  V30 6431 H 600.841 4.03334 4.58426 0
M  V30 6432 H 602.255 5.11592 2.5874 0
M  V30 6433 H 600.652 5.65498 2.00827 0
M  V30 6434 H 601.722 4.76243 0.912159 0
M  V30 6435 N 603.065 -0.440357 1.51323 0
M  V30 6436 C 603.997 -1.55254 1.68609 0
M  V30 6437 C 605.01 -1.52614 0.566812 0
M  V30 6438 O 606.199 -1.57445 0.841032 0
M  V30 6439 C 603.299 -2.94169 1.68279 0
M  V30 6440 C 602.472 -3.21346 2.96742 0
M  V30 6441 C 601.531 -4.3997 2.8864 0
M  V30 6442 O 600.557 -4.38771 3.62586 0
M  V30 6443 N 601.759 -5.43367 2.04285 0
M  V30 6444 H 604.524 -1.40831 2.6455 0
M  V30 6445 H 602.085 -0.629251 1.49171 0
M  V30 6446 H 604.077 -3.71543 1.60431 0
M  V30 6447 H 602.647 -3.02205 0.799441 0
M  V30 6448 H 601.867 -2.32299 3.18482 0
M  V30 6449 H 603.155 -3.3633 3.81785 0
M  V30 6450 H 602.553 -5.47176 1.43578 0
M  V30 6451 H 601.11 -6.19605 2.02318 0
M  V30 6452 N 604.543 -1.41418 -0.695603 0
M  V30 6453 C 605.506 -1.42988 -1.79129 0
M  V30 6454 C 606.506 -0.320514 -1.57573 0
M  V30 6455 O 607.696 -0.58039 -1.64247 0
M  V30 6456 C 604.828 -1.24122 -3.175 0
M  V30 6457 H 606.021 -2.40526 -1.7913 0
M  V30 6458 H 603.574 -1.2756 -0.903225 0
M  V30 6459 H 604.309 -0.274253 -3.23138 0
M  V30 6460 H 604.094 -2.045 -3.34547 0
M  V30 6461 H 605.584 -1.28056 -3.97481 0
M  V30 6462 N 606.021 0.929856 -1.27246 0
M  V30 6463 C 607.298 1.65544 -1.04186 0
M  V30 6464 C 607.678 2.06796 0.424097 0
M  V30 6465 O 607.026 1.80053 1.40688 0
M  V30 6466 C 607.236 2.85912 -2.00138 0
M  V30 6467 C 608.584 3.57305 -2.29387 0
M  V30 6468 O 609.608 2.96036 -1.98094 0
M  V30 6469 O 608.467 4.67688 -2.82719 0
M  V30 6470 H 605.561 0.725473 -0.397011 0
M  V30 6471 H 608.107 0.980583 -1.38501 0
M  V30 6472 H 606.879 2.52403 -2.99013 0
M  V30 6473 H 606.502 3.61118 -1.66371 0
M  V30 6474 N 607.499 1.09233 1.13605 0
M  V30 6475 C 608.729 0.847677 1.88409 0
M  V30 6476 C 609.137 -0.604524 1.79282 0
M  V30 6477 O 608.48 -1.42773 1.15592 0
M  V30 6478 C 608.542 1.20153 3.38827 0
M  V30 6479 C 608.206 2.65824 3.71735 0
M  V30 6480 C 609.203 3.64072 3.71143 0
M  V30 6481 C 606.888 3.01894 4.01454 0
M  V30 6482 C 608.882 4.96419 3.99808 0
M  V30 6483 C 606.569 4.34433 4.29781 0
M  V30 6484 C 607.567 5.31505 4.28942 0
M  V30 6485 O 607.255 6.61659 4.56576 0
M  V30 6486 H 606.987 0.304813 0.603378 0
M  V30 6487 H 609.541 1.4573 1.44748 0
M  V30 6488 H 607.771 0.534946 3.82982 0
M  V30 6489 H 609.46 0.936349 3.94952 0
M  V30 6490 H 610.226 3.37549 3.4826 0
M  V30 6491 H 606.105 2.26971 4.01255 0
M  V30 6492 H 609.649 5.7218 3.99069 0
M  V30 6493 H 605.546 4.607 4.52135 0
M  V30 6494 H 606.314 6.67102 4.74254 0
M  V30 6495 N 608.977 -1.30795 0.87923 0
M  V30 6496 C 609.925 -2.30231 0.331112 0
M  V30 6497 C 610.919 -1.59918 -0.558794 0
M  V30 6498 O 612.125 -1.74441 -0.443866 0
M  V30 6499 H 608.5 -0.746785 0.088409 0
M  V30 6500 H 610.471 -2.73925 1.18353 0
M  V30 6501 C 609.22 -3.44848 -0.444401 0
M  V30 6502 H 608.543 -3.99131 0.231106 0
M  V30 6503 H 609.983 -4.16516 -0.793109 0
M  V30 6504 C 608.442 -2.94329 -1.63926 0
M  V30 6505 O 608.972 -2.93875 -2.73862 0
M  V30 6506 N 607.178 -2.50413 -1.4745 0
M  V30 6507 H 606.725 -2.50982 -0.58015 0
M  V30 6508 H 606.683 -2.16969 -2.27534 0
M  V30 6509 N 610.455 -0.639598 -1.44038 0
M  V30 6510 C 611.683 -0.154811 -2.0632 0
M  V30 6511 C 612.098 1.17406 -1.47856 0
M  V30 6512 O 611.455 1.72193 -0.604638 0
M  V30 6513 C 611.506 -0.0429958 -3.61474 0
M  V30 6514 O 611.227 -1.31932 -4.17763 0
M  V30 6515 C 612.728 0.469486 -4.40807 0
M  V30 6516 H 609.948 -0.0835862 -0.665773 0
M  V30 6517 H 612.492 -0.876397 -1.84769 0
M  V30 6518 H 610.647 0.629075 -3.82258 0
M  V30 6519 H 611.061 -1.16965 -5.11292 0
M  V30 6520 H 612.535 0.496712 -5.49761 0
M  V30 6521 H 613.012 1.49819 -4.12857 0
M  V30 6522 H 613.618 -0.169624 -4.24962 0
M  V30 6523 N 611.933 1.52934 -0.380664 0
M  V30 6524 C 612.896 2.24809 0.446473 0
M  V30 6525 C 613.896 1.26133 0.997347 0
M  V30 6526 O 615.086 1.50297 0.880714 0
M  V30 6527 C 612.218 2.99649 1.62553 0
M  V30 6528 H 613.411 2.99343 -0.182677 0
M  V30 6529 H 610.964 1.55736 -0.132618 0
M  V30 6530 H 611.699 2.29395 2.29235 0
M  V30 6531 H 611.484 3.72066 1.23732 0
M  V30 6532 H 612.974 3.54246 2.21133 0
M  V30 6533 N 613.412 0.11024 1.57214 0
M  V30 6534 C 614.359 -0.843195 2.14846 0
M  V30 6535 C 615.329 -1.26954 1.07107 0
M  V30 6536 O 616.514 -1.34861 1.34971 0
M  V30 6537 C 613.654 -2.09123 2.74521 0
M  V30 6538 C 612.767 -1.71404 3.96541 0
M  V30 6539 C 611.902 -2.91107 4.44331 0
M  V30 6540 C 610.941 -2.49586 5.58903 0
M  V30 6541 N 610.078 -3.62175 6.01477 0
M  V30 6542 H 614.918 -0.344886 2.95998 0
M  V30 6543 H 612.455 -0.15855 1.46243 0
M  V30 6544 H 614.413 -2.82234 3.07246 0
M  V30 6545 H 613.043 -2.56427 1.96074 0
M  V30 6546 H 612.095 -0.88201 3.70033 0
M  V30 6547 H 613.407 -1.36884 4.7965 0
M  V30 6548 H 612.561 -3.72454 4.78919 0
M  V30 6549 H 611.3 -3.28848 3.60153 0
M  V30 6550 H 610.305 -1.6667 5.23929 0
M  V30 6551 H 611.53 -2.12973 6.4484 0
M  V30 6552 H 609.476 -3.99605 5.20242 0
M  V30 6553 H 609.393 -3.3155 6.79419 0
M  V30 6554 H 610.661 -4.43987 6.407 0
M  V30 6555 N 614.89 -1.56749 -0.16351 0
M  V30 6556 C 616.138 -1.82074 -0.87713 0
M  V30 6557 C 616.459 -0.688503 -1.82441 0
M  V30 6558 O 615.729 0.291085 -1.93725 0
M  V30 6559 H 614.309 -0.671677 -0.326893 0
M  V30 6560 H 616.971 -1.9423 -0.161459 0
M  V30 6561 H 616.067 -2.76407 -1.44934 0
M  V30 6562 N 616.368 0.432326 -1.51554 0
M  V30 6563 C 617.614 1.18309 -1.64714 0
M  V30 6564 C 617.947 1.90745 -0.364696 0
M  V30 6565 O 617.222 1.8381 0.635936 0
M  V30 6566 C 617.505 2.1961 -2.85383 0
M  V30 6567 C 617.358 1.51223 -4.23617 0
M  V30 6568 C 618.677 3.20538 -3.01569 0
M  V30 6569 H 615.796 0.428751 -0.599451 0
M  V30 6570 H 618.438 0.471689 -1.84052 0
M  V30 6571 H 616.588 2.8028 -2.69027 0
M  V30 6572 H 618.26 0.938516 -4.51652 0
M  V30 6573 H 616.503 0.814501 -4.26085 0
M  V30 6574 H 617.174 2.25024 -5.04052 0
M  V30 6575 H 619.65 2.69926 -3.16669 0
M  V30 6576 H 618.526 3.88706 -3.87555 0
M  V30 6577 H 618.787 3.86933 -2.13859 0
M  V30 6578 N 617.846 1.41785 0.688094 0
M  V30 6579 C 618.776 1.47 1.8142 0
M  V30 6580 C 619.757 0.327881 1.6691 0
M  V30 6581 O 620.942 0.540362 1.86531 0
M  V30 6582 C 618.072 1.35876 3.19617 0
M  V30 6583 C 617.026 2.47976 3.48844 0
M  V30 6584 C 616.352 2.21915 4.86475 0
M  V30 6585 C 617.652 3.90309 3.47068 0
M  V30 6586 H 619.346 2.41247 1.77314 0
M  V30 6587 H 616.892 1.16116 0.851651 0
M  V30 6588 H 618.845 1.38134 3.98117 0
M  V30 6589 H 617.569 0.38116 3.24368 0
M  V30 6590 H 616.228 2.45013 2.72698 0
M  V30 6591 H 615.876 1.2248 4.8786 0
M  V30 6592 H 615.576 2.97037 5.06994 0
M  V30 6593 H 617.1 2.25901 5.67275 0
M  V30 6594 H 618.514 3.94947 4.1556 0
M  V30 6595 H 616.911 4.65175 3.7912 0
M  V30 6596 H 617.981 4.17927 2.45896 0
M  V30 6597 N 619.324 -0.923095 1.27737 0
M  V30 6598 C 620.572 -1.66797 1.14119 0
M  V30 6599 C 620.893 -1.92479 -0.312541 0
M  V30 6600 O 620.163 -1.53432 -1.218 0
M  V30 6601 H 618.743 -0.618196 0.419336 0
M  V30 6602 H 621.405 -1.10815 1.60331 0
M  V30 6603 H 620.501 -2.63424 1.67374 0
M  V30 6604 N 620.802 -1.09834 -1.13024 0
M  V30 6605 C 621.765 -0.745058 -2.16752 0
M  V30 6606 C 622.765 0.227435 -1.59183 0
M  V30 6607 O 623.955 0.0050786 -1.74199 0
M  V30 6608 C 621.087 -0.102543 -3.40746 0
M  V30 6609 H 622.28 -1.66375 -2.49518 0
M  V30 6610 H 619.833 -0.898061 -1.27924 0
M  V30 6611 H 620.568 0.827177 -3.13573 0
M  V30 6612 H 620.353 -0.80235 -3.83803 0
M  V30 6613 H 621.843 0.129082 -4.174 0
M  V30 6614 N 622.28 1.30327 -0.886154 0
M  V30 6615 C 623.528 1.9571 -0.504195 0
M  V30 6616 C 623.849 1.70294 0.950003 0
M  V30 6617 O 623.119 1.02718 1.66811 0
M  V30 6618 H 621.699 0.72412 -0.183465 0
M  V30 6619 H 624.361 1.58835 -1.12949 0
M  V30 6620 H 623.457 3.04704 -0.675431 0
M  V30 6621 N 623.758 0.647228 1.43697 0
M  V30 6622 C 624.988 0.16551 2.05936 0
M  V30 6623 C 625.396 -1.17164 1.48557 0
M  V30 6624 O 624.739 -1.73307 0.60914 0
M  V30 6625 C 624.801 -0.00648082 3.59499 0
M  V30 6626 C 624.465 1.25503 4.39429 0
M  V30 6627 C 625.462 2.18241 4.71876 0
M  V30 6628 C 623.147 1.49494 4.79538 0
M  V30 6629 C 625.141 3.33268 5.43333 0
M  V30 6630 C 622.828 2.64815 5.50742 0
M  V30 6631 C 623.826 3.56528 5.82561 0
M  V30 6632 O 623.514 4.69836 6.52311 0
M  V30 6633 H 623.246 0.0844124 0.670709 0
M  V30 6634 H 625.8 0.88638 1.8529 0
M  V30 6635 H 624.03 -0.782661 3.78697 0
M  V30 6636 H 625.719 -0.444794 4.03456 0
M  V30 6637 H 626.485 2.00946 4.41413 0
M  V30 6638 H 622.364 0.789912 4.54182 0
M  V30 6639 H 625.908 4.04874 5.68087 0
M  V30 6640 H 621.805 2.82047 5.8062 0
M  V30 6641 H 622.573 4.69024 6.70789 0
M  V30 6642 N 625.236 -1.5273 0.388769 0
M  V30 6643 C 626.168 -2.24081 -0.481704 0
M  V30 6644 C 627.181 -1.26307 -1.02715 0
M  V30 6645 O 628.37 -1.52386 -0.929565 0
M  V30 6646 C 625.47 -2.94315 -1.68024 0
M  V30 6647 C 624.643 -4.18791 -1.26226 0
M  V30 6648 C 623.702 -4.72028 -2.32542 0
M  V30 6649 O 622.728 -5.35129 -1.93972 0
M  V30 6650 N 623.93 -4.51838 -3.64448 0
M  V30 6651 H 626.695 -2.9942 0.129591 0
M  V30 6652 H 624.256 -1.60465 0.2151 0
M  V30 6653 H 626.248 -3.26831 -2.38671 0
M  V30 6654 H 624.818 -2.22287 -2.19789 0
M  V30 6655 H 624.038 -3.92318 -0.384703 0
M  V30 6656 H 625.326 -4.99668 -0.959647 0
M  V30 6657 H 624.724 -4.01468 -3.98547 0
M  V30 6658 H 623.281 -4.88845 -4.31131 0
M  V30 6659 N 626.714 -0.118576 -1.57153 0
M  V30 6660 C 627.677 0.817464 -2.14127 0
M  V30 6661 C 628.677 1.1949 -1.07604 0
M  V30 6662 O 629.867 1.12048 -1.33382 0
M  V30 6663 C 626.999 2.10541 -2.68115 0
M  V30 6664 H 628.192 0.322339 -2.98163 0
M  V30 6665 H 625.745 0.130655 -1.55753 0
M  V30 6666 H 626.48 2.64485 -1.87665 0
M  V30 6667 H 626.265 1.84425 -3.4602 0
M  V30 6668 H 627.755 2.77453 -3.12105 0
M  V30 6669 N 628.193 1.56834 0.155195 0
M  V30 6670 C 629.123 2.00678 1.19376 0
M  V30 6671 C 630.104 0.884973 1.45266 0
M  V30 6672 O 631.289 1.1522 1.56326 0
M  V30 6673 C 628.419 2.38042 2.5289 0
M  V30 6674 C 627.373 3.53332 2.41538 0
M  V30 6675 C 626.699 3.76485 3.79688 0
M  V30 6676 C 627.999 4.86265 1.9064 0
M  V30 6677 H 629.693 2.87688 0.829232 0
M  V30 6678 H 627.239 1.38407 0.397445 0
M  V30 6679 H 629.192 2.67314 3.25763 0
M  V30 6680 H 627.916 1.4796 2.91162 0
M  V30 6681 H 626.575 3.24213 1.71117 0
M  V30 6682 H 626.223 2.83667 4.15382 0
M  V30 6683 H 625.923 4.54068 3.72956 0
M  V30 6684 H 627.447 4.08174 4.54122 0
M  V30 6685 H 628.861 5.14308 2.53299 0
M  V30 6686 H 627.258 5.67597 1.94818 0
M  V30 6687 H 628.328 4.77184 0.861596 0
M  V30 6688 N 629.671 -0.424282 1.51781 0
M  V30 6689 C 631.087 -0.761768 1.40247 0
M  V30 6690 C 631.287 -1.95324 0.495041 0
M  V30 6691 O 630.343 -2.5246 -0.0448949 0
M  V30 6692 C 631.656 -1.0299 2.82513 0
M  V30 6693 C 633.204 -1.13354 2.91753 0
M  V30 6694 C 633.679 -1.43453 4.34954 0
M  V30 6695 N 635.17 -1.5035 4.3812 0
M  V30 6696 C 635.905 -1.75236 5.45967 0
M  V30 6697 N 635.401 -1.97827 6.63955 0
M  V30 6698 N 637.194 -1.77126 5.33463 0
M  V30 6699 H 629.345 0.360228 2.09323 0
M  V30 6700 H 631.608 0.0988128 0.942836 0
M  V30 6701 H 631.314 -0.226961 3.50967 0
M  V30 6702 H 631.188 -1.95411 3.22637 0
M  V30 6703 H 633.575 -1.92709 2.23489 0
M  V30 6704 H 633.656 -0.188041 2.55108 0
M  V30 6705 H 633.3 -0.646209 5.03772 0
M  V30 6706 H 633.23 -2.3923 4.69123 0
M  V30 6707 H 635.721 -1.34742 3.53062 0
M  V30 6708 H 636.034 -2.16223 7.41935 0
M  V30 6709 H 634.379 -1.95123 6.67047 0
M  V30 6710 H 637.57 -1.59005 4.40267 0
M  V30 6711 H 637.743 -1.96182 6.17589 0
M  V30 6712 N 631.149 -1.42148 -0.680565 0
M  V30 6713 C 632.079 -1.4796 -1.80638 0
M  V30 6714 C 633.06 -0.336728 -1.66734 0
M  V30 6715 O 634.245 -0.550247 -1.86242 0
M  V30 6716 C 631.375 -1.37569 -3.18892 0
M  V30 6717 C 630.329 -2.49823 -3.47524 0
M  V30 6718 C 629.655 -2.24491 -4.85291 0
M  V30 6719 C 630.955 -3.92144 -3.44994 0
M  V30 6720 H 632.649 -2.42184 -1.76032 0
M  V30 6721 H 630.195 -1.16566 -0.845481 0
M  V30 6722 H 632.148 -1.40243 -3.97379 0
M  V30 6723 H 630.872 -0.398357 -3.24162 0
M  V30 6724 H 629.531 -2.46455 -2.71395 0
M  V30 6725 H 629.179 -1.25066 -4.87204 0
M  V30 6726 H 628.879 -2.99722 -5.05411 0
M  V30 6727 H 630.403 -2.28906 -5.66069 0
M  V30 6728 H 631.817 -3.97145 -4.13459 0
M  V30 6729 H 630.214 -4.67179 -3.76648 0
M  V30 6730 H 631.284 -4.19225 -2.43676 0
M  V30 6731 N 632.627 0.916307 -1.28225 0
M  V30 6732 C 633.59 1.99996 -1.11957 0
M  V30 6733 C 634.59 1.60688 -0.0600152 0
M  V30 6734 O 635.78 1.71499 -0.30558 0
M  V30 6735 C 632.912 3.33458 -0.708411 0
M  V30 6736 H 634.105 2.15858 -2.08196 0
M  V30 6737 H 631.658 1.09863 -1.11175 0
M  V30 6738 H 632.393 3.23297 0.254859 0
M  V30 6739 H 632.178 3.63349 -1.47377 0
M  V30 6740 H 633.668 4.13014 -0.617164 0
M  V30 6741 N 634.105 1.10431 1.1244 0
M  V30 6742 C 635.521 0.836096 1.35947 0
M  V30 6743 C 635.721 -0.544475 1.94004 0
M  V30 6744 O 634.777 -1.29735 2.16622 0
M  V30 6745 C 636.09 1.93575 2.30107 0
M  V30 6746 C 637.638 1.9642 2.43697 0
M  V30 6747 C 638.113 3.05559 3.41171 0
M  V30 6748 N 639.604 3.04865 3.48728 0
M  V30 6749 C 640.339 3.85954 4.24061 0
M  V30 6750 N 639.835 4.76977 5.02458 0
M  V30 6751 N 641.628 3.74172 4.19466 0
M  V30 6752 H 633.779 1.9942 0.731124 0
M  V30 6753 H 636.042 0.866607 0.384312 0
M  V30 6754 H 635.748 2.92943 1.94621 0
M  V30 6755 H 635.622 1.8229 3.30227 0
M  V30 6756 H 638.009 0.97685 2.78463 0
M  V30 6757 H 638.09 2.11782 1.43465 0
M  V30 6758 H 637.734 4.04513 3.07135 0
M  V30 6759 H 637.664 2.87438 4.41234 0
M  V30 6760 H 640.155 2.38908 2.92799 0
M  V30 6761 H 640.468 5.35409 5.57277 0
M  V30 6762 H 638.813 4.81006 5.01655 0
M  V30 6763 H 642.004 3.02412 3.57302 0
M  V30 6764 H 642.177 4.37602 4.77921 0
M  V30 6765 N 635.583 -1.29855 0.893053 0
M  V30 6766 C 636.546 -2.26183 0.370687 0
M  V30 6767 C 637.546 -1.53108 -0.491385 0
M  V30 6768 O 638.736 -1.71643 -0.297386 0
M  V30 6769 C 635.868 -3.37633 -0.470827 0
M  V30 6770 H 637.061 -2.73903 1.22135 0
M  V30 6771 H 634.614 -1.41183 0.67061 0
M  V30 6772 H 635.349 -2.95241 -1.34175 0
M  V30 6773 H 635.134 -3.91825 0.146784 0
M  V30 6774 H 636.624 -4.09313 -0.827825 0
M  V30 6775 N 637.061 -0.65484 -1.43351 0
M  V30 6776 C 637.991 0.0221809 -2.33489 0
M  V30 6777 C 638.972 0.810272 -1.49561 0
M  V30 6778 O 640.157 0.771426 -1.78221 0
M  V30 6779 C 637.287 0.988117 -3.32947 0
M  V30 6780 C 636.241 0.310026 -4.26876 0
M  V30 6781 C 635.567 1.38752 -5.16384 0
M  V30 6782 C 636.867 -0.798589 -5.16159 0
M  V30 6783 H 638.561 -0.730571 -2.9035 0
M  V30 6784 H 636.107 -0.352773 -1.39612 0
M  V30 6785 H 638.06 1.47067 -3.94904 0
M  V30 6786 H 636.784 1.77205 -2.74346 0
M  V30 6787 H 635.443 -0.152097 -3.66284 0
M  V30 6788 H 635.091 2.16293 -4.54121 0
M  V30 6789 H 634.791 0.939051 -5.80048 0
M  V30 6790 H 636.315 1.87141 -5.81215 0
M  V30 6791 H 637.729 -0.398126 -5.71916 0
M  V30 6792 H 636.126 -1.17163 -5.88552 0
M  V30 6793 H 637.196 -1.65588 -4.55751 0
M  V30 6794 N 638.539 1.52521 -0.396863 0
M  V30 6795 C 639.469 2.29582 0.425941 0
M  V30 6796 C 640.45 1.33281 1.05689 0
M  V30 6797 O 641.635 1.62181 1.06823 0
M  V30 6798 C 638.765 3.10821 1.54943 0
M  V30 6799 C 637.719 4.15069 1.04413 0
M  V30 6800 C 637.045 4.84578 2.26028 0
M  V30 6801 C 638.345 5.22191 0.106767 0
M  V30 6802 H 640.039 2.98612 -0.217045 0
M  V30 6803 H 637.585 1.43611 -0.105826 0
M  V30 6804 H 639.538 3.63492 2.13193 0
M  V30 6805 H 638.262 2.39538 2.22011 0
M  V30 6806 H 636.921 3.63389 0.484118 0
M  V30 6807 H 636.569 4.09835 2.91623 0
M  V30 6808 H 636.269 5.55043 1.92876 0
M  V30 6809 H 637.793 5.40056 2.84906 0
M  V30 6810 H 639.207 5.70176 0.597685 0
M  V30 6811 H 637.604 5.99947 -0.135352 0
M  V30 6812 H 638.674 4.77531 -0.842134 0
M  V30 6813 N 640.017 0.126909 1.57088 0
M  V30 6814 C 641.294 -0.573152 1.87014 0
M  V30 6815 C 641.674 -1.84297 1.02945 0
M  V30 6816 O 641.022 -2.28232 0.110573 0
M  V30 6817 C 641.232 -0.857984 3.38289 0
M  V30 6818 C 642.58 -1.20759 4.07066 0
M  V30 6819 O 643.604 -0.947992 3.43353 0
M  V30 6820 O 642.463 -1.69516 5.19545 0
M  V30 6821 H 639.557 -0.290082 0.774456 0
M  V30 6822 H 642.103 0.162008 1.68925 0
M  V30 6823 H 640.875 0.0415286 3.91278 0
M  V30 6824 H 640.498 -1.64803 3.61837 0
M  V30 6825 N 641.495 -1.56914 -0.146875 0
M  V30 6826 C 642.743 -1.82994 -0.85777 0
M  V30 6827 C 643.064 -0.707814 -1.817 0
M  V30 6828 O 642.334 0.270521 -1.94023 0
M  V30 6829 H 640.914 -0.675106 -0.319751 0
M  V30 6830 H 643.576 -1.9439 -0.140849 0
M  V30 6831 H 642.672 -2.77928 -1.41994 0
M  V30 6832 N 642.974 0.416227 -1.52004 0
M  V30 6833 C 643.906 1.52552 -1.71058 0
M  V30 6834 C 644.919 1.51693 -0.59102 0
M  V30 6835 O 646.108 1.56087 -0.865973 0
M  V30 6836 C 643.208 2.91455 -1.72937 0
M  V30 6837 C 642.381 3.16584 -3.01816 0
M  V30 6838 C 641.44 4.35322 -2.95603 0
M  V30 6839 O 640.466 4.32947 -3.6952 0
M  V30 6840 N 641.668 5.40049 -2.12903 0
M  V30 6841 H 644.433 1.36604 -2.66757 0
M  V30 6842 H 641.994 0.60544 -1.50153 0
M  V30 6843 H 643.986 3.68944 -1.66321 0
M  V30 6844 H 642.556 3.00895 -0.847418 0
M  V30 6845 H 641.776 2.27203 -3.22137 0
M  V30 6846 H 643.064 3.30213 -3.87088 0
M  V30 6847 H 642.462 5.44823 -1.52265 0
M  V30 6848 H 641.019 6.16308 -2.1215 0
M  V30 6849 N 644.452 1.42507 0.673017 0
M  V30 6850 C 645.362 1.4853 1.81593 0
M  V30 6851 C 646.378 0.373907 1.69935 0
M  V30 6852 O 647.554 0.625078 1.91454 0
M  V30 6853 C 644.619 1.387 3.17747 0
M  V30 6854 C 643.68 2.60346 3.41348 0
M  V30 6855 C 642.913 2.50975 4.71007 0
M  V30 6856 O 643.136 1.54659 5.49033 0
M  V30 6857 O 642.07 3.41138 4.95892 0
M  V30 6858 H 645.896 2.45001 1.79467 0
M  V30 6859 H 643.481 1.2429 0.82899 0
M  V30 6860 H 645.363 1.35586 3.98992 0
M  V30 6861 H 644.038 0.453555 3.20507 0
M  V30 6862 H 642.945 2.69034 2.59945 0
M  V30 6863 H 644.278 3.52595 3.43421 0
M  V30 6864 N 645.93 -0.909495 1.28709 0
M  V30 6865 C 646.86 -2.0291 1.15542 0
M  V30 6866 C 647.841 -1.7002 0.0521017 0
M  V30 6867 O 649.026 -1.92835 0.229849 0
M  V30 6868 C 646.156 -3.37458 0.820935 0
M  V30 6869 C 645.11 -3.84524 1.87949 0
M  V30 6870 C 644.436 -5.16086 1.39854 0
M  V30 6871 C 645.736 -4.05918 3.28676 0
M  V30 6872 H 647.43 -2.14183 2.09203 0
M  V30 6873 H 644.976 -1.02913 1.00722 0
M  V30 6874 H 646.929 -4.1528 0.715571 0
M  V30 6875 H 645.653 -3.26249 -0.151374 0
M  V30 6876 H 644.312 -3.08911 1.97408 0
M  V30 6877 H 643.96 -5.01284 0.41518 0
M  V30 6878 H 643.66 -5.48547 2.1064 0
M  V30 6879 H 645.184 -5.96459 1.30649 0
M  V30 6880 H 646.598 -4.74252 3.22115 0
M  V30 6881 H 644.995 -4.49717 3.97334 0
M  V30 6882 H 646.065 -3.10583 3.72379 0
M  V30 6883 N 647.408 -1.11026 -1.11852 0
M  V30 6884 C 648.341 -0.708501 -2.16923 0
M  V30 6885 C 649.319 0.293196 -1.59935 0
M  V30 6886 O 650.503 0.190641 -1.87533 0
M  V30 6887 C 647.63 -0.0463705 -3.38668 0
M  V30 6888 C 646.676 -1.01252 -4.14307 0
M  V30 6889 S 647.509 -2.53291 -4.71809 0
M  V30 6890 C 648.665 -1.88366 -5.96883 0
M  V30 6891 H 648.898 -1.59854 -2.50667 0
M  V30 6892 H 646.431 -0.927869 -1.2341 0
M  V30 6893 H 648.389 0.329314 -4.09177 0
M  V30 6894 H 647.05 0.820562 -3.03192 0
M  V30 6895 H 646.243 -0.496596 -5.01548 0
M  V30 6896 H 645.845 -1.33042 -3.49537 0
M  V30 6897 H 648.137 -1.21753 -6.6647 0
M  V30 6898 H 649.08 -2.73588 -6.53112 0
M  V30 6899 H 649.488 -1.34562 -5.48227 0
M  V30 6900 N 648.886 1.2938 -0.899927 0
M  V30 6901 C 650.133 1.9555 -0.525963 0
M  V30 6902 C 650.461 1.70945 0.927789 0
M  V30 6903 O 649.716 1.01545 1.67293 0
M  V30 6904 C 650.015 3.49114 -0.765113 0
M  V30 6905 C 649.681 3.93796 -2.19626 0
M  V30 6906 C 648.343 4.05707 -2.58758 0
M  V30 6907 C 650.695 4.16883 -3.12823 0
M  V30 6908 C 648.023 4.38074 -3.90267 0
M  V30 6909 C 650.375 4.50725 -4.4388 0
M  V30 6910 C 649.039 4.60845 -4.82885 0
M  V30 6911 H 648.309 0.715569 -0.192463 0
M  V30 6912 H 650.956 1.53972 -1.13863 0
M  V30 6913 H 649.261 3.91738 -0.069531 0
M  V30 6914 H 650.958 3.98409 -0.455144 0
M  V30 6915 H 647.548 3.85042 -1.88256 0
M  V30 6916 H 651.732 4.07147 -2.83804 0
M  V30 6917 H 646.988 4.44112 -4.20207 0
M  V30 6918 H 651.162 4.67538 -5.16121 0
M  V30 6919 H 648.789 4.85681 -5.84823 0
M  V30 6920 N 650.364 0.662433 1.43002 0
M  V30 6921 C 651.78 0.330835 1.56133 0
M  V30 6922 C 651.98 -1.16454 1.64441 0
M  V30 6923 O 651.036 -1.94964 1.60453 0
M  V30 6924 C 652.349 1.05029 2.81761 0
M  V30 6925 C 653.897 1.03142 2.95518 0
M  V30 6926 C 654.372 1.73196 4.2399 0
M  V30 6927 N 655.863 1.70004 4.30875 0
M  V30 6928 C 656.598 2.21074 5.29069 0
M  V30 6929 N 656.094 2.80473 6.33488 0
M  V30 6930 N 657.887 2.1152 5.20784 0
M  V30 6931 H 650.038 1.63272 1.35853 0
M  V30 6932 H 652.301 0.687149 0.653092 0
M  V30 6933 H 652.007 2.10542 2.81718 0
M  V30 6934 H 651.881 0.607664 3.72273 0
M  V30 6935 H 654.268 -0.0153339 2.95096 0
M  V30 6936 H 654.349 1.51282 2.0627 0
M  V30 6937 H 653.993 2.77833 4.25172 0
M  V30 6938 H 653.923 1.22515 5.1215 0
M  V30 6939 H 656.414 1.26667 3.56039 0
M  V30 6940 H 656.727 3.17094 7.04749 0
M  V30 6941 H 655.072 2.84538 6.34085 0
M  V30 6942 H 658.263 1.64814 4.38126 0
M  V30 6943 H 658.436 2.51629 5.97149 0
M  V30 6944 N 651.842 -1.52309 0.404946 0
M  V30 6945 C 653.09 -2.01368 -0.17186 0
M  V30 6946 C 653.411 -1.29261 -1.46002 0
M  V30 6947 O 652.681 -0.41729 -1.91404 0
M  V30 6948 H 651.261 -0.744034 -0.0664993 0
M  V30 6949 H 653.923 -1.87263 0.540228 0
M  V30 6950 H 653.019 -3.09888 -0.370957 0
M  V30 6951 N 653.32 -0.135238 -1.57019 0
M  V30 6952 C 654.25 0.805235 -2.19176 0
M  V30 6953 C 655.231 1.2656 -1.13651 0
M  V30 6954 O 656.416 1.32528 -1.4195 0
M  V30 6955 C 653.546 2.04914 -2.80406 0
M  V30 6956 C 652.5 1.72598 -3.91655 0
M  V30 6957 C 651.826 3.04154 -4.39766 0
M  V30 6958 C 653.126 0.981709 -5.12991 0
M  V30 6959 H 654.82 0.287232 -2.98019 0
M  V30 6960 H 652.366 0.136714 -1.4335 0
M  V30 6961 H 654.319 2.71178 -3.22553 0
M  V30 6962 H 653.043 2.59067 -1.98877 0
M  V30 6963 H 651.702 1.08717 -3.50109 0
M  V30 6964 H 651.35 3.56274 -3.55075 0
M  V30 6965 H 651.05 2.83299 -5.14796 0
M  V30 6966 H 652.574 3.71509 -4.84576 0
M  V30 6967 H 653.988 1.5462 -5.52056 0
M  V30 6968 H 652.385 0.873533 -5.93708 0
M  V30 6969 H 653.455 -0.0286887 -4.84892 0
M  V30 6970 N 654.798 1.5699 0.138552 0
M  V30 6971 C 655.748 1.9532 1.17619 0
M  V30 6972 C 656.732 0.825545 1.38107 0
M  V30 6973 O 657.924 1.08908 1.39528 0
M  V30 6974 C 655.053 2.34451 2.50774 0
M  V30 6975 C 654.139 3.53805 2.33844 0
M  V30 6976 N 654.53 4.70088 1.86685 0
M  V30 6977 C 652.828 3.59055 2.64567 0
M  V30 6978 C 653.529 5.52165 1.82998 0
M  V30 6979 N 652.505 4.94108 2.26624 0
M  V30 6980 H 656.307 2.82694 0.803809 0
M  V30 6981 H 653.821 1.5866 0.346519 0
M  V30 6982 H 655.818 2.60119 3.25797 0
M  V30 6983 H 654.478 1.48431 2.88788 0
M  V30 6984 H 655.489 4.93681 1.56523 0
M  V30 6985 H 652.166 2.83596 3.06398 0
M  V30 6986 H 653.556 6.55407 1.47957 0
M  V30 6987 N 656.276 -0.40816 1.52223 0
M  V30 6988 C 657.522 -1.15347 1.67531 0
M  V30 6989 C 657.877 -1.8818 0.400748 0
M  V30 6990 O 657.17 -1.81803 -0.604845 0
M  V30 6991 C 657.364 -2.17422 2.83659 0
M  V30 6992 C 657.193 -1.54611 4.22286 0
M  V30 6993 C 655.963 -1.31841 4.87797 0
M  V30 6994 C 658.161 -1.00648 5.04355 0
M  V30 6995 N 656.143 -0.649338 6.10456 0
M  V30 6996 C 657.514 -0.464384 6.18258 0
M  V30 6997 C 659.569 -0.901041 4.89679 0
M  V30 6998 C 658.272 0.172825 7.19092 0
M  V30 6999 C 660.298 -0.277684 5.90748 0
M  V30 7000 C 659.66 0.253734 7.03943 0
M  V30 7001 H 655.759 -0.408722 0.666686 0
M  V30 7002 H 658.343 -0.445713 1.8953 0
M  V30 7003 H 656.514 -2.85554 2.63274 0
M  V30 7004 H 658.246 -2.84321 2.87999 0
M  V30 7005 H 655.001 -1.58819 4.46176 0
M  V30 7006 H 655.425 -0.3314 6.76188 0
M  V30 7007 H 660.067 -1.29772 4.02392 0
M  V30 7008 H 657.785 0.581564 8.06005 0
M  V30 7009 H 661.371 -0.197605 5.81464 0
M  V30 7010 H 660.251 0.728482 7.80809 0
M  V30 7011 N 657.755 -1.42862 -0.66545 0
M  V30 7012 C 659.001 -1.44043 -1.42757 0
M  V30 7013 C 659.334 -0.0599629 -1.94107 0
M  V30 7014 O 658.609 0.917286 -1.71511 0
M  V30 7015 C 658.892 -2.47266 -2.61786 0
M  V30 7016 C 658.745 -3.94539 -2.16007 0
M  V30 7017 C 660.064 -2.47365 -3.64003 0
M  V30 7018 H 657.183 -0.524506 -0.517748 0
M  V30 7019 H 659.825 -1.74335 -0.755466 0
M  V30 7020 H 657.975 -2.21565 -3.19126 0
M  V30 7021 H 659.647 -4.31254 -1.63762 0
M  V30 7022 H 657.89 -4.07957 -1.47491 0
M  V30 7023 H 658.561 -4.62357 -3.01546 0
M  V30 7024 H 661.037 -2.70243 -3.16399 0
M  V30 7025 H 659.913 -3.21552 -4.44854 0
M  V30 7026 H 660.174 -1.50299 -4.15767 0
M  V30 7027 N 659.233 0.902656 -1.29189 0
M  V30 7028 C 660.166 2.00816 -1.0839 0
M  V30 7029 C 661.144 1.626 0.00335266 0
M  V30 7030 O 662.328 1.87928 -0.146765 0
M  V30 7031 C 659.455 3.32415 -0.649435 0
M  V30 7032 C 658.501 3.89617 -1.73496 0
M  V30 7033 S 659.334 4.19091 -3.33351 0
M  V30 7034 C 660.49 5.53736 -2.91766 0
M  V30 7035 H 660.723 2.18151 -2.01984 0
M  V30 7036 H 658.256 1.0489 -1.13303 0
M  V30 7037 H 660.214 4.08492 -0.405479 0
M  V30 7038 H 658.875 3.12964 0.266857 0
M  V30 7039 H 658.068 4.84658 -1.38284 0
M  V30 7040 H 657.67 3.20217 -1.93229 0
M  V30 7041 H 659.962 6.34085 -2.38627 0
M  V30 7042 H 660.905 5.93871 -3.85647 0
M  V30 7043 H 661.313 5.15453 -2.30149 0
M  V30 7044 N 660.711 1.11618 1.11262 0
M  V30 7045 C 661.621 0.78898 2.20935 0
M  V30 7046 C 662.637 -0.21867 1.7262 0
M  V30 7047 O 663.813 -0.0543826 2.01327 0
M  V30 7048 C 660.878 0.239014 3.45875 0
M  V30 7049 C 659.939 1.3055 4.08968 0
M  V30 7050 C 659.172 0.781687 5.27944 0
M  V30 7051 O 659.395 -0.387605 5.69082 0
M  V30 7052 O 658.329 1.54734 5.81671 0
M  V30 7053 H 662.155 1.70477 2.51339 0
M  V30 7054 H 659.74 0.892203 1.19834 0
M  V30 7055 H 661.622 -0.0632312 4.21353 0
M  V30 7056 H 660.297 -0.649454 3.17118 0
M  V30 7057 H 659.204 1.66079 3.35214 0
M  V30 7058 H 660.537 2.16743 4.41909 0
M  V30 7059 N 662.189 -1.289 0.906776 0
M  V30 7060 C 663.435 -1.95558 0.53712 0
M  V30 7061 C 663.768 -1.71262 -0.915582 0
M  V30 7062 O 663.043 -1.02961 -1.65013 0
M  V30 7063 C 663.326 -3.50198 0.838645 0
M  V30 7064 C 663.179 -3.83923 2.34357 0
M  V30 7065 C 664.498 -4.38861 0.329988 0
M  V30 7066 H 661.617 -0.710289 0.196617 0
M  V30 7067 H 664.259 -1.52392 1.13475 0
M  V30 7068 H 662.409 -3.87096 0.330024 0
M  V30 7069 H 664.081 -3.56933 2.92227 0
M  V30 7070 H 662.324 -3.31215 2.80141 0
M  V30 7071 H 662.995 -4.91883 2.5051 0
M  V30 7072 H 665.471 -4.08996 0.765609 0
M  V30 7073 H 664.347 -5.45931 0.570105 0
M  V30 7074 H 664.608 -4.35352 -0.769511 0
M  V30 7075 N 663.667 -0.670007 -1.42649 0
M  V30 7076 C 664.597 -0.00258501 -2.335 0
M  V30 7077 C 665.578 0.794364 -1.50412 0
M  V30 7078 O 666.763 0.75248 -1.79029 0
M  V30 7079 C 663.893 0.952748 -3.33976 0
M  V30 7080 C 662.847 0.264733 -4.2718 0
M  V30 7081 C 662.173 1.33267 -5.17826 0
M  V30 7082 C 663.473 -0.853289 -5.15283 0
M  V30 7083 H 665.167 -0.761326 -2.89559 0
M  V30 7084 H 662.713 -0.367561 -1.3923 0
M  V30 7085 H 664.666 1.4287 -3.96442 0
M  V30 7086 H 663.39 1.74285 -2.7621 0
M  V30 7087 H 662.049 -0.190938 -3.66102 0
M  V30 7088 H 661.697 2.11464 -4.5639 0
M  V30 7089 H 661.397 0.877476 -5.81011 0
M  V30 7090 H 662.921 1.80965 -5.83167 0
M  V30 7091 H 664.335 -0.458763 -5.71462 0
M  V30 7092 H 662.732 -1.23398 -5.87276 0
M  V30 7093 H 663.802 -1.70412 -4.53969 0
M  V30 7094 N 665.145 1.52092 -0.413018 0
M  V30 7095 C 666.077 2.24819 0.445994 0
M  V30 7096 C 667.09 1.27925 1.00692 0
M  V30 7097 O 668.279 1.53845 0.905204 0
M  V30 7098 C 665.379 2.96951 1.6332 0
M  V30 7099 C 664.552 4.20746 1.19548 0
M  V30 7100 C 663.611 4.75668 2.25003 0
M  V30 7101 O 662.637 5.38148 1.85434 0
M  V30 7102 N 663.839 4.57579 3.57214 0
M  V30 7103 H 666.604 2.99176 -0.177209 0
M  V30 7104 H 664.165 1.60102 -0.240601 0
M  V30 7105 H 666.157 3.30586 2.33441 0
M  V30 7106 H 664.727 2.25756 2.16225 0
M  V30 7107 H 663.947 3.92881 0.32224 0
M  V30 7108 H 665.235 5.01132 0.880033 0
M  V30 7109 H 664.633 4.07758 3.92109 0
M  V30 7110 H 663.19 4.95642 4.23299 0
M  V30 7111 N 666.623 0.143563 1.56945 0
M  V30 7112 C 667.586 -0.783295 2.154 0
M  V30 7113 C 668.586 -1.17763 1.09492 0
M  V30 7114 O 669.776 -1.09912 1.35148 0
M  V30 7115 C 666.908 -2.06248 2.7143 0
M  V30 7116 H 668.101 -0.274863 2.98638 0
M  V30 7117 H 665.654 -0.105859 1.55941 0
M  V30 7118 H 666.389 -2.61466 1.91849 0
M  V30 7119 H 666.174 -1.78897 3.4891 0
M  V30 7120 H 667.664 -2.72453 3.16479 0
M  V30 7121 N 668.101 -1.57061 -0.130224 0
M  V30 7122 C 669.329 -1.88432 -0.854456 0
M  V30 7123 C 669.744 -0.733608 -1.73964 0
M  V30 7124 O 669.101 0.296029 -1.80083 0
M  V30 7125 C 669.152 -3.1918 -1.69724 0
M  V30 7126 O 668.873 -4.2982 -0.847705 0
M  V30 7127 C 670.374 -3.6418 -2.5276 0
M  V30 7128 H 667.594 -0.624193 -0.246221 0
M  V30 7129 H 670.138 -2.04159 -0.11798 0
M  V30 7130 H 668.293 -3.05156 -2.3866 0
M  V30 7131 H 668.707 -5.04689 -1.42792 0
M  V30 7132 H 670.181 -4.58457 -3.07443 0
M  V30 7133 H 670.658 -2.90285 -3.29592 0
M  V30 7134 H 671.264 -3.80954 -1.89087 0
M  V30 7135 N 669.579 0.400081 -1.52437 0
M  V30 7136 C 670.819 1.15526 -1.68622 0
M  V30 7137 C 671.183 1.87533 -0.411744 0
M  V30 7138 O 672.384 2.6501 -0.449804 0
M  V30 7139 C 670.655 2.11618 -2.88015 0
M  V30 7140 S 672.214 2.95121 -3.24729 0
M  V30 7141 H 669.032 0.39123 -0.593683 0
M  V30 7142 H 671.634 0.441255 -1.90455 0
M  V30 7143 H 670.338 1.5742 -3.79008 0
M  V30 7144 H 669.869 2.87544 -2.68481 0
M  V30 7145 H 671.884 4.13653 -2.74055 0
M  V30 7146 N 671.057 1.43213 0.657864 0
M  V30 7147 C 672.473 1.26511 0.972992 0
M  V30 7148 C 672.673 0.181477 2.00681 0
M  V30 7149 O 671.729 -0.441649 2.48608 0
M  V30 7150 C 673.042 2.62784 1.46168 0
M  V30 7151 C 674.59 2.70278 1.57857 0
M  V30 7152 C 675.065 4.06958 2.10117 0
M  V30 7153 N 676.556 4.08999 2.17426 0
M  V30 7154 C 677.291 5.11585 2.58975 0
M  V30 7155 N 676.787 6.24548 2.99853 0
M  V30 7156 N 678.58 4.9894 2.58873 0
M  V30 7157 H 670.731 2.12384 -0.0263129 0
M  V30 7158 H 672.994 0.946638 0.0507992 0
M  V30 7159 H 672.7 3.43022 0.776474 0
M  V30 7160 H 672.574 2.87863 2.43751 0
M  V30 7161 H 674.961 1.90376 2.25479 0
M  V30 7162 H 675.042 2.4897 0.587179 0
M  V30 7163 H 674.686 4.87325 1.43098 0
M  V30 7164 H 674.616 4.25628 3.10078 0
M  V30 7165 H 677.107 3.27457 1.88627 0
M  V30 7166 H 677.42 6.98661 3.30292 0
M  V30 7167 H 675.765 6.28027 2.97669 0
M  V30 7168 H 678.956 4.09757 2.26311 0
M  V30 7169 H 679.129 5.79019 2.90932 0
M  V30 7170 N 672.536 -0.895792 1.29666 0
M  V30 7171 C 673.952 -1.17726 1.07763 0
M  V30 7172 C 674.152 -2.00794 -0.168576 0
M  V30 7173 O 673.208 -2.37213 -0.865244 0
M  V30 7174 C 674.521 -1.89441 2.33522 0
M  V30 7175 C 676.069 -2.02251 2.3888 0
M  V30 7176 C 676.544 -2.77378 3.64452 0
M  V30 7177 N 678.035 -2.8493 3.65198 0
M  V30 7178 C 678.77 -3.43606 4.59045 0
M  V30 7179 N 678.266 -4.03417 5.63228 0
M  V30 7180 N 680.059 -3.41317 4.46608 0
M  V30 7181 H 672.21 -0.341652 2.09634 0
M  V30 7182 H 674.473 -0.213865 0.923561 0
M  V30 7183 H 674.179 -1.35842 3.24407 0
M  V30 7184 H 674.053 -2.89893 2.41334 0
M  V30 7185 H 676.44 -2.55025 1.4848 0
M  V30 7186 H 676.521 -1.0092 2.3505 0
M  V30 7187 H 676.165 -2.25279 4.55205 0
M  V30 7188 H 676.095 -3.79062 3.65541 0
M  V30 7189 H 678.586 -2.42453 2.89871 0
M  V30 7190 H 678.899 -4.46224 6.30955 0
M  V30 7191 H 677.244 -4.01868 5.67033 0
M  V30 7192 H 680.435 -2.93812 3.64407 0
M  V30 7193 H 680.608 -3.86751 5.1993 0
M  V30 7194 N 674.014 -1.12206 -1.10668 0
M  V30 7195 C 675.242 -0.898635 -1.86366 0
M  V30 7196 C 675.657 0.551991 -1.80551 0
M  V30 7197 O 675.014 1.38152 -1.19249 0
M  V30 7198 C 675.065 -1.36199 -3.34861 0
M  V30 7199 O 674.786 -2.75576 -3.40573 0
M  V30 7200 C 676.287 -1.17515 -4.2744 0
M  V30 7201 H 673.507 -0.321281 -0.589084 0
M  V30 7202 H 676.051 -1.49142 -1.39918 0
M  V30 7203 H 674.206 -0.81249 -3.78784 0
M  V30 7204 H 674.62 -2.95851 -4.33096 0
M  V30 7205 H 676.094 -1.54827 -5.29842 0
M  V30 7206 H 676.571 -0.115486 -4.39048 0
M  V30 7207 H 677.177 -1.71203 -3.89319 0
M  V30 7208 N 675.492 1.28418 -0.913599 0
M  V30 7209 C 676.422 2.29713 -0.418847 0
M  V30 7210 C 677.403 1.62165 0.513469 0
M  V30 7211 O 678.588 1.89576 0.421235 0
M  V30 7212 C 675.718 3.45612 0.342042 0
M  V30 7213 C 674.672 4.25056 -0.501123 0
M  V30 7214 C 673.998 5.3329 0.388097 0
M  V30 7215 C 675.298 4.91814 -1.75831 0
M  V30 7216 H 676.992 2.71346 -1.26538 0
M  V30 7217 H 674.538 1.30446 -0.609903 0
M  V30 7218 H 676.491 4.15562 0.699 0
M  V30 7219 H 675.215 3.02858 1.22248 0
M  V30 7220 H 673.874 3.56833 -0.840598 0
M  V30 7221 H 673.522 4.8678 1.26707 0
M  V30 7222 H 673.222 5.87347 -0.172459 0
M  V30 7223 H 674.746 6.06088 0.74094 0
M  V30 7224 H 676.16 5.54126 -1.47026 0
M  V30 7225 H 674.557 5.55866 -2.26126 0
M  V30 7226 H 675.627 4.16313 -2.4862 0
M  V30 7227 N 676.97 0.677563 1.42291 0
M  V30 7228 C 677.88 0.000962654 2.346 0
M  V30 7229 C 678.896 -0.785833 1.55244 0
M  V30 7230 O 680.072 -0.727523 1.87801 0
M  V30 7231 C 677.137 -0.936746 3.33805 0
M  V30 7232 C 676.198 -0.144173 4.29058 0
M  V30 7233 C 675.431 -1.03722 5.23524 0
M  V30 7234 O 675.654 -2.27675 5.22992 0
M  V30 7235 O 674.588 -0.496542 5.99848 0
M  V30 7236 H 678.414 0.761397 2.94001 0
M  V30 7237 H 675.999 0.43781 1.42841 0
M  V30 7238 H 677.881 -1.47497 3.94744 0
M  V30 7239 H 676.556 -1.67698 2.76874 0
M  V30 7240 H 675.463 0.438224 3.71524 0
M  V30 7241 H 676.796 0.55701 4.89038 0
M  V30 7242 N 678.448 -1.51871 0.421078 0
M  V30 7243 C 679.694 -2.02237 -0.151014 0
M  V30 7244 C 680.027 -1.30554 -1.43768 0
M  V30 7245 O 679.302 -0.41546 -1.90011 0
M  V30 7246 C 679.585 -3.5802 -0.386482 0
M  V30 7247 C 679.438 -4.40339 0.9177 0
M  V30 7248 C 680.757 -4.24444 -1.16342 0
M  V30 7249 H 677.876 -0.735062 -0.0534102 0
M  V30 7250 H 680.518 -1.81656 0.556888 0
M  V30 7251 H 678.668 -3.75688 -0.989494 0
M  V30 7252 H 680.34 -4.34357 1.55344 0
M  V30 7253 H 678.583 -4.06073 1.526 0
M  V30 7254 H 679.254 -5.47451 0.707187 0
M  V30 7255 H 681.73 -4.10948 -0.652788 0
M  V30 7256 H 680.606 -5.33358 -1.29693 0
M  V30 7257 H 680.867 -3.84204 -2.18724 0
M  V30 7258 N 679.926 -0.151884 -1.56866 0
M  V30 7259 C 680.889 0.771861 -2.15812 0
M  V30 7260 C 681.889 1.17181 -1.10115 0
M  V30 7261 O 683.079 1.09194 -1.35729 0
M  V30 7262 C 680.211 2.04806 -2.7252 0
M  V30 7263 H 681.404 0.259021 -2.98779 0
M  V30 7264 H 678.957 0.097588 -1.55995 0
M  V30 7265 H 679.692 2.60445 -1.93233 0
M  V30 7266 H 679.477 1.77044 -3.49854 0
M  V30 7267 H 680.967 2.70771 -3.1792 0
M  V30 7268 N 681.404 1.57128 0.121893 0
M  V30 7269 C 682.82 1.52357 0.47534 0
M  V30 7270 C 683.02 0.864417 1.82017 0
M  V30 7271 O 682.076 0.445529 2.48538 0
M  V30 7272 C 683.389 2.97122 0.4625 0
M  V30 7273 C 684.937 3.08196 0.546255 0
M  V30 7274 C 685.412 4.54516 0.563833 0
M  V30 7275 N 686.903 4.58959 0.625353 0
M  V30 7276 C 687.638 5.69585 0.660354 0
M  V30 7277 N 687.134 6.89714 0.653175 0
M  V30 7278 N 688.927 5.57685 0.703143 0
M  V30 7279 H 681.078 1.98364 -0.75931 0
M  V30 7280 H 683.341 0.905777 -0.279772 0
M  V30 7281 H 683.047 3.48706 -0.457943 0
M  V30 7282 H 682.921 3.54406 1.29136 0
M  V30 7283 H 685.308 2.56617 1.45712 0
M  V30 7284 H 685.389 2.53912 -0.310234 0
M  V30 7285 H 685.033 5.06741 -0.342974 0
M  V30 7286 H 684.963 5.06609 1.43716 0
M  V30 7287 H 687.454 3.72489 0.637182 0
M  V30 7288 H 687.767 7.69781 0.682425 0
M  V30 7289 H 686.112 6.92223 0.620646 0
M  V30 7290 H 689.303 4.62744 0.706095 0
M  V30 7291 H 689.476 6.43909 0.726952 0
M  V30 7292 N 682.882 -0.391992 1.52647 0
M  V30 7293 C 684.11 -1.1586 1.71418 0
M  V30 7294 C 684.525 -1.8381 0.431216 0
M  V30 7295 O 683.882 -1.7256 -0.594085 0
M  V30 7296 C 683.933 -2.20888 2.86165 0
M  V30 7297 O 683.654 -1.5571 4.09495 0
M  V30 7298 C 685.155 -3.103 3.1659 0
M  V30 7299 H 682.375 -0.347494 0.574011 0
M  V30 7300 H 684.919 -0.458972 1.99283 0
M  V30 7301 H 683.074 -2.86492 2.6077 0
M  V30 7302 H 683.488 -2.25474 4.73563 0
M  V30 7303 H 684.962 -3.8003 4.00351 0
M  V30 7304 H 685.439 -3.73639 2.30848 0
M  V30 7305 H 686.045 -2.50345 3.43813 0
M  V30 7306 N 684.36 -1.4356 -0.65026 0
M  V30 7307 C 685.585 -1.48995 -1.44275 0
M  V30 7308 C 686.01 -0.109954 -1.87778 0
M  V30 7309 O 685.368 0.896926 -1.57559 0
M  V30 7310 C 685.416 -2.44341 -2.65198 0
M  V30 7311 O 684.52 -1.93172 -3.6436 0
M  V30 7312 H 683.861 -0.503852 -0.432469 0
M  V30 7313 H 686.391 -1.88504 -0.795446 0
M  V30 7314 H 686.401 -2.61743 -3.12977 0
M  V30 7315 H 685.076 -3.44588 -2.32877 0
M  V30 7316 H 683.653 -1.85445 -3.23519 0
M  V30 7317 N 685.838 0.888903 -1.30139 0
M  V30 7318 C 686.768 2.01046 -1.18755 0
M  V30 7319 C 687.749 1.69916 -0.0791438 0
M  V30 7320 O 688.934 1.92445 -0.260498 0
M  V30 7321 C 686.064 3.36109 -0.874518 0
M  V30 7322 C 685.018 3.81486 -1.94043 0
M  V30 7323 C 684.344 5.13796 -1.48047 0
M  V30 7324 C 685.644 4.00637 -3.35093 0
M  V30 7325 H 687.338 2.10828 -2.12584 0
M  V30 7326 H 684.884 1.01298 -1.02346 0
M  V30 7327 H 686.837 4.14089 -0.781548 0
M  V30 7328 H 685.561 3.26449 0.0994519 0
M  V30 7329 H 684.22 3.05731 -2.02297 0
M  V30 7330 H 683.868 5.0056 -0.494878 0
M  V30 7331 H 683.568 5.45127 -2.19341 0
M  V30 7332 H 685.092 5.94305 -1.40121 0
M  V30 7333 H 686.506 4.69067 -3.2962 0
M  V30 7334 H 684.903 4.43339 -4.04438 0
M  V30 7335 H 685.973 3.0462 -3.77273 0
M  V30 7336 N 687.317 1.12792 1.10072 0
M  V30 7337 C 688.247 0.821688 2.18565 0
M  V30 7338 C 689.228 -0.21612 1.68721 0
M  V30 7339 O 690.413 -0.0764932 1.94049 0
M  V30 7340 C 687.543 0.279624 3.46172 0
M  V30 7341 C 686.497 1.25092 4.09312 0
M  V30 7342 C 685.823 0.568916 5.31665 0
M  V30 7343 C 687.123 2.60699 4.52585 0
M  V30 7344 H 688.817 1.72888 2.44438 0
M  V30 7345 H 686.363 0.832702 1.17482 0
M  V30 7346 H 688.316 0.053099 4.21367 0
M  V30 7347 H 687.04 -0.662929 3.19801 0
M  V30 7348 H 685.699 1.46332 3.36129 0
M  V30 7349 H 685.347 -0.378898 5.01571 0
M  V30 7350 H 685.047 1.21687 5.74862 0
M  V30 7351 H 686.571 0.351517 6.09587 0
M  V30 7352 H 687.985 2.43465 5.19035 0
M  V30 7353 H 686.382 3.21608 5.06644 0
M  V30 7354 H 687.452 3.1886 3.65317 0
M  V30 7355 N 688.795 -1.27931 0.920396 0
M  V30 7356 C 690.025 -1.98516 0.572256 0
M  V30 7357 C 690.433 -1.68912 -0.852375 0
M  V30 7358 O 689.776 -0.94203 -1.57707 0
M  V30 7359 C 689.838 -3.5243 0.709485 0
M  V30 7360 C 689.502 -4.0564 2.10489 0
M  V30 7361 C 690.499 -4.1897 3.07831 0
M  V30 7362 C 688.184 -4.40168 2.41986 0
M  V30 7363 C 690.178 -4.66093 4.34783 0
M  V30 7364 C 687.865 -4.86983 3.69176 0
M  V30 7365 C 688.863 -4.99903 4.65388 0
M  V30 7366 O 688.551 -5.45694 5.90316 0
M  V30 7367 H 688.283 -0.64047 0.216274 0
M  V30 7368 H 690.837 -1.6393 1.23758 0
M  V30 7369 H 689.067 -3.86698 -0.0129263 0
M  V30 7370 H 690.756 -4.04233 0.367474 0
M  V30 7371 H 691.522 -3.92562 2.84816 0
M  V30 7372 H 687.401 -4.29358 1.67846 0
M  V30 7373 H 690.945 -4.76092 5.09884 0
M  V30 7374 H 686.842 -5.12832 3.92012 0
M  V30 7375 H 687.61 -5.63965 5.932 0
M  V30 7376 N 690.273 -0.685099 -1.4193 0
M  V30 7377 C 691.203 -0.0273506 -2.33484 0
M  V30 7378 C 692.184 0.778366 -1.51246 0
M  V30 7379 O 693.369 0.733449 -1.79817 0
M  V30 7380 C 690.499 0.917272 -3.34968 0
M  V30 7381 C 689.453 0.21941 -4.27437 0
M  V30 7382 C 688.779 1.27768 -5.1921 0
M  V30 7383 C 690.079 -0.907894 -5.14349 0
M  V30 7384 H 691.773 -0.791994 -2.88735 0
M  V30 7385 H 689.319 -0.382308 -1.38832 0
M  V30 7386 H 691.272 1.38657 -3.97935 0
M  V30 7387 H 689.996 1.71346 -2.78043 0
M  V30 7388 H 688.655 -0.229757 -3.65879 0
M  V30 7389 H 688.303 2.06612 -4.58607 0
M  V30 7390 H 688.003 0.815803 -5.81909 0
M  V30 7391 H 689.527 1.7477 -5.85054 0
M  V30 7392 H 690.941 -0.519348 -5.70943 0
M  V30 7393 H 689.338 -1.2962 -5.85934 0
M  V30 7394 H 690.408 -1.75218 -4.52136 0
M  V30 7395 N 691.751 1.51645 -0.429126 0
M  V30 7396 C 692.976 2.06917 0.141399 0
M  V30 7397 C 693.401 1.29527 1.36398 0
M  V30 7398 O 692.759 0.33094 1.78254 0
M  V30 7399 C 692.807 3.57776 0.4504 0
M  V30 7400 O 691.911 3.82639 1.53821 0
M  V30 7401 H 691.252 0.663978 0.0054647 0
M  V30 7402 H 693.782 1.95355 -0.608093 0
M  V30 7403 H 693.792 4.01894 0.703249 0
M  V30 7404 H 692.467 4.13532 -0.443213 0
M  V30 7405 H 691.044 3.5039 1.27597 0
M  V30 7406 N 693.229 0.160201 1.56784 0
M  V30 7407 C 694.454 -0.497373 2.01348 0
M  V30 7408 C 694.879 -1.56757 1.03966 0
M  V30 7409 O 694.237 -1.81292 0.0174455 0
M  V30 7410 C 694.285 -1.0628 3.44582 0
M  V30 7411 O 693.389 -2.17723 3.50244 0
M  V30 7412 H 692.73 -0.120295 0.653012 0
M  V30 7413 H 695.26 0.260821 2.02931 0
M  V30 7414 H 695.27 -1.38819 3.83658 0
M  V30 7415 H 693.945 -0.279166 4.14962 0
M  V30 7416 H 692.522 -1.86313 3.2302 0
M  V30 7417 N 694.707 -1.5719 -0.113559 0
M  V30 7418 C 695.932 -1.89702 -0.838336 0
M  V30 7419 C 696.357 -0.752679 -1.72384 0
M  V30 7420 O 695.715 0.296575 -1.78858 0
M  V30 7421 C 695.763 -3.20989 -1.64312 0
M  V30 7422 O 694.867 -3.07278 -2.75053 0
M  V30 7423 H 694.208 -0.622339 -0.231496 0
M  V30 7424 H 696.738 -2.04382 -0.0943228 0
M  V30 7425 H 696.748 -3.53843 -2.03123 0
M  V30 7426 H 695.423 -4.03869 -0.993119 0
M  V30 7427 H 694 -2.85901 -2.39406 0
M  V30 7428 N 696.185 0.383891 -1.52853 0
M  V30 7429 C 697.115 1.47559 -1.80965 0
M  V30 7430 C 698.096 1.5669 -0.661986 0
M  V30 7431 O 699.281 1.71556 -0.910072 0
M  V30 7432 C 696.411 2.85114 -1.98312 0
M  V30 7433 C 695.365 2.9082 -3.14019 0
M  V30 7434 C 694.691 4.30873 -3.16627 0
M  V30 7435 C 695.991 2.60001 -4.52986 0
M  V30 7436 H 697.685 1.24283 -2.72386 0
M  V30 7437 H 695.231 0.596445 -1.31067 0
M  V30 7438 H 697.184 3.61496 -2.16561 0
M  V30 7439 H 695.908 3.09738 -1.03585 0
M  V30 7440 H 694.567 2.16886 -2.9556 0
M  V30 7441 H 694.215 4.52545 -2.19573 0
M  V30 7442 H 693.915 4.3561 -3.94357 0
M  V30 7443 H 695.439 5.09154 -3.37038 0
M  V30 7444 H 696.853 3.261 -4.71521 0
M  V30 7445 H 695.25 2.76081 -5.32822 0
M  V30 7446 H 696.32 1.5532 -4.59351 0
M  V30 7447 N 697.663 1.43903 0.642637 0
M  V30 7448 C 698.911 1.45791 1.39962 0
M  V30 7449 C 699.232 0.0873144 1.94804 0
M  V30 7450 O 698.502 -0.878825 1.75081 0
M  V30 7451 H 697.082 0.536797 0.519479 0
M  V30 7452 H 699.744 1.7959 0.757189 0
M  V30 7453 H 698.84 2.17665 2.2367 0
M  V30 7454 N 699.141 -0.881989 1.30609 0
M  V30 7455 C 700.369 -1.66711 1.22536 0
M  V30 7456 C 700.784 -1.87614 -0.2113 0
M  V30 7457 O 700.141 -1.42576 -1.13923 0
M  V30 7458 C 700.192 -3.04182 1.95335 0
M  V30 7459 O 699.913 -2.8422 3.33393 0
M  V30 7460 C 701.414 -3.98617 1.93956 0
M  V30 7461 H 698.634 -0.520124 0.423925 0
M  V30 7462 H 701.178 -1.10174 1.72285 0
M  V30 7463 H 699.333 -3.57442 1.49378 0
M  V30 7464 H 699.747 -3.71452 3.70302 0
M  V30 7465 H 701.221 -4.92433 2.49426 0
M  V30 7466 H 701.698 -4.29473 0.919198 0
M  V30 7467 H 702.304 -3.51292 2.39738 0
M  V30 7468 N 700.619 -1.13374 -1.09472 0
M  V30 7469 C 701.529 -0.824029 -2.19652 0
M  V30 7470 C 702.545 0.19118 -1.72947 0
M  V30 7471 O 703.721 0.0223464 -2.01388 0
M  V30 7472 C 700.786 -0.294009 -3.45451 0
M  V30 7473 C 699.847 -1.3704 -4.0684 0
M  V30 7474 C 699.08 -0.86558 -5.26634 0
M  V30 7475 O 699.303 0.29702 -5.69626 0
M  V30 7476 O 698.237 -1.63968 -5.79136 0
M  V30 7477 H 702.063 -1.74454 -2.48595 0
M  V30 7478 H 699.648 -0.911155 -1.18399 0
M  V30 7479 H 701.53 -0.00381039 -4.214 0
M  V30 7480 H 700.205 0.598921 -3.18111 0
M  V30 7481 H 699.112 -1.71391 -3.3253 0
M  V30 7482 H 700.445 -2.23746 -4.38405 0
M  V30 7483 N 702.098 1.27442 -0.927168 0
M  V30 7484 C 703.514 1.46754 -0.627329 0
M  V30 7485 C 703.714 1.83902 0.823549 0
M  V30 7486 O 702.77 1.95215 1.60148 0
M  V30 7487 C 704.083 2.56045 -1.57674 0
M  V30 7488 C 705.631 2.69906 -1.58491 0
M  V30 7489 C 706.106 3.82355 -2.52128 0
M  V30 7490 N 707.597 3.89728 -2.50332 0
M  V30 7491 C 708.332 4.76155 -3.19475 0
M  V30 7492 N 707.828 5.67073 -3.97995 0
M  V30 7493 N 709.621 4.6988 -3.08496 0
M  V30 7494 H 701.772 1.01613 -1.86517 0
M  V30 7495 H 704.035 0.507443 -0.800753 0
M  V30 7496 H 703.741 2.35542 -2.61176 0
M  V30 7497 H 703.615 3.53423 -1.31804 0
M  V30 7498 H 706.002 2.89792 -0.557208 0
M  V30 7499 H 706.083 1.73018 -1.8841 0
M  V30 7500 H 705.727 3.63224 -3.55008 0
M  V30 7501 H 705.657 4.7867 -2.19505 0
M  V30 7502 H 708.148 3.24717 -1.93306 0
M  V30 7503 H 708.461 6.2988 -4.4774 0
M  V30 7504 H 706.806 5.6687 -4.02098 0
M  V30 7505 H 709.997 3.97848 -2.46646 0
M  V30 7506 H 710.17 5.37017 -3.62652 0
M  V30 7507 N 703.576 0.692616 1.41565 0
M  V30 7508 C 704.823 0.222335 2.01276 0
M  V30 7509 C 705.151 -1.17706 1.5484 0
M  V30 7510 O 704.406 -1.80795 0.749118 0
M  V30 7511 C 704.705 0.225073 3.56691 0
M  V30 7512 C 704.371 1.57158 4.22625 0
M  V30 7513 C 703.033 1.94022 4.40351 0
M  V30 7514 C 705.385 2.45758 4.59622 0
M  V30 7515 C 702.713 3.19076 4.92349 0
M  V30 7516 C 705.065 3.70141 5.13009 0
M  V30 7517 C 703.729 4.07152 5.28946 0
M  V30 7518 H 702.999 0.0813581 0.73652 0
M  V30 7519 H 705.646 0.891123 1.69503 0
M  V30 7520 H 703.951 -0.527259 3.88236 0
M  V30 7521 H 705.648 -0.156283 4.00695 0
M  V30 7522 H 702.238 1.27486 4.09201 0
M  V30 7523 H 706.422 2.18558 4.45585 0
M  V30 7524 H 701.678 3.4775 5.02872 0
M  V30 7525 H 705.852 4.38983 5.40617 0
M  V30 7526 H 703.479 5.04125 5.69001 0
M  V30 7527 N 705.054 -1.51416 0.437162 0
M  V30 7528 C 706.279 -2.0699 -0.130424 0
M  V30 7529 C 706.704 -1.30249 -1.35709 0
M  V30 7530 O 706.062 -0.340388 -1.78076 0
M  V30 7531 C 706.11 -3.5801 -0.43142 0
M  V30 7532 O 705.214 -3.8345 -1.5179 0
M  V30 7533 H 704.555 -0.663997 -0.00194339 0
M  V30 7534 H 707.085 -1.95029 0.618445 0
M  V30 7535 H 707.095 -4.02261 -0.681926 0
M  V30 7536 H 705.77 -4.13291 0.465137 0
M  V30 7537 H 704.347 -3.51062 -1.25737 0
M  V30 7538 N 706.532 -0.168513 -1.56696 0
M  V30 7539 C 707.757 0.486688 -2.01609 0
M  V30 7540 C 708.182 1.56203 -1.04796 0
M  V30 7541 O 707.54 1.8128 -0.0270596 0
M  V30 7542 C 707.588 1.04451 -3.45141 0
M  V30 7543 O 706.692 2.15862 -3.51393 0
M  V30 7544 H 706.033 0.116831 -0.653641 0
M  V30 7545 H 708.563 -0.271579 -2.0279 0
M  V30 7546 H 708.573 1.36782 -3.84389 0
M  V30 7547 H 707.248 0.257155 -4.15104 0
M  V30 7548 H 705.825 1.84597 -3.24004 0
M  V30 7549 N 708.01 1.57248 0.105221 0
M  V30 7550 C 709.256 1.85845 0.811753 0
M  V30 7551 C 709.589 0.756219 1.78871 0
M  V30 7552 O 708.864 -0.236736 1.93054 0
M  V30 7553 C 709.147 3.25059 1.54947 0
M  V30 7554 C 709 4.45898 0.591185 0
M  V30 7555 C 710.319 3.6203 2.50245 0
M  V30 7556 H 707.438 0.675973 0.293649 0
M  V30 7557 H 710.08 1.89849 0.0756269 0
M  V30 7558 H 708.23 3.21776 2.17698 0
M  V30 7559 H 709.902 4.61291 -0.0285352 0
M  V30 7560 H 708.145 4.33693 -0.0962343 0
M  V30 7561 H 708.816 5.40009 1.1443 0
M  V30 7562 H 711.292 3.66192 1.97593 0
M  V30 7563 H 710.168 4.60389 2.98886 0
M  V30 7564 H 710.429 2.90176 3.33542 0
M  V30 7565 N 709.488 -0.375779 1.53054 0
M  V30 7566 C 710.451 -1.44254 1.7811 0
M  V30 7567 C 711.451 -1.47018 0.651328 0
M  V30 7568 O 712.641 -1.47957 0.919472 0
M  V30 7569 C 709.773 -2.8345 1.89391 0
M  V30 7570 H 710.966 -1.23316 2.73374 0
M  V30 7571 H 708.519 -0.608312 1.43977 0
M  V30 7572 H 709.254 -3.09716 0.961589 0
M  V30 7573 H 709.039 -2.82844 2.71555 0
M  V30 7574 H 710.529 -3.60722 2.10404 0
M  V30 7575 N 710.966 -1.44241 -0.634997 0
M  V30 7576 C 712.214 -1.46531 -1.39187 0
M  V30 7577 C 712.535 -0.0976441 -1.94755 0
M  V30 7578 O 711.805 0.869528 -1.75545 0
M  V30 7579 H 710.385 -0.539544 -0.516625 0
M  V30 7580 H 713.047 -1.79989 -0.747655 0
M  V30 7581 H 712.143 -2.18848 -2.22513 0
M  V30 7582 N 712.444 0.87505 -1.31075 0
M  V30 7583 C 713.672 1.66058 -1.23419 0
M  V30 7584 C 714.087 1.87723 0.201347 0
M  V30 7585 O 713.444 1.43178 1.13165 0
M  V30 7586 C 713.495 3.03142 -1.96945 0
M  V30 7587 O 713.216 2.82448 -3.34895 0
M  V30 7588 C 714.717 3.97583 -1.96067 0
M  V30 7589 H 711.937 0.517868 -0.426677 0
M  V30 7590 H 714.481 1.09258 -1.72867 0
M  V30 7591 H 712.636 3.56645 -1.51271 0
M  V30 7592 H 713.05 3.69483 -3.72267 0
M  V30 7593 H 714.524 4.91104 -2.52034 0
M  V30 7594 H 715.001 4.2898 -0.941961 0
M  V30 7595 H 715.607 3.50015 -2.41597 0
M  V30 7596 N 713.922 1.13953 1.08869 0
M  V30 7597 C 715.333 0.916649 1.62648 0
M  V30 7598 C 715.684 -0.545589 1.88462 0
M  V30 7599 O 714.809 -1.41351 1.63856 0
M  V30 7600 C 715.404 1.65751 2.95486 0
M  V30 7601 C 713.963 1.48034 3.46068 0
M  V30 7602 C 713.11 1.68305 2.20383 0
M  V30 7603 H 716.061 1.292 0.921572 0
M  V30 7604 H 716.082 1.11794 3.63707 0
M  V30 7605 H 715.594 2.72171 2.76667 0
M  V30 7606 H 713.695 0.439416 3.7 0
M  V30 7607 H 713.808 2.24719 4.23129 0
M  V30 7608 H 712.172 1.10833 2.29321 0
M  V30 7609 H 712.955 2.76057 2.04077 0
M  V30 7610 N 715.4 -1.26948 0.933913 0
M  V30 7611 C 716.31 -2.30366 0.443671 0
M  V30 7612 C 717.326 -1.67284 -0.478745 0
M  V30 7613 O 718.502 -1.98156 -0.360043 0
M  V30 7614 C 715.567 -3.45485 -0.289974 0
M  V30 7615 C 714.628 -4.24069 0.668114 0
M  V30 7616 C 713.861 -5.33691 -0.0306138 0
M  V30 7617 O 714.084 -5.5656 -1.24888 0
M  V30 7618 O 713.018 -5.98441 0.644384 0
M  V30 7619 H 716.844 -2.74349 1.30254 0
M  V30 7620 H 714.429 -1.32012 0.699506 0
M  V30 7621 H 716.311 -4.15486 -0.70353 0
M  V30 7622 H 714.986 -3.03546 -1.12435 0
M  V30 7623 H 713.893 -3.56579 1.13147 0
M  V30 7624 H 715.226 -4.69739 1.46989 0
M  V30 7625 N 716.879 -0.700114 -1.41195 0
M  V30 7626 C 718.128 -0.230082 -2.00383 0
M  V30 7627 C 718.441 1.17857 -1.56106 0
M  V30 7628 O 719.647 1.74631 -2.07885 0
M  V30 7629 C 718.103 -0.360447 -3.5809 0
M  V30 7630 C 717.711 -1.77475 -4.11347 0
M  V30 7631 C 719.455 0.0495799 -4.24471 0
M  V30 7632 C 717.362 -1.85653 -5.61504 0
M  V30 7633 H 716.292 -0.0822633 -0.749499 0
M  V30 7634 H 718.943 -0.868969 -1.6162 0
M  V30 7635 H 717.325 0.346768 -3.94479 0
M  V30 7636 H 718.499 -2.51109 -3.86369 0
M  V30 7637 H 716.814 -2.13486 -3.57509 0
M  V30 7638 H 719.411 0.00898219 -5.34699 0
M  V30 7639 H 719.754 1.08904 -4.01803 0
M  V30 7640 H 720.287 -0.607521 -3.93134 0
M  V30 7641 H 717.026 -2.87667 -5.89006 0
M  V30 7642 H 716.546 -1.1641 -5.88395 0
M  V30 7643 H 718.225 -1.62151 -6.26351 0
M  V30 7644 N 718.357 1.51182 -0.445186 0
M  V30 7645 C 719.289 2.25714 0.398206 0
M  V30 7646 C 720.302 1.30032 0.979562 0
M  V30 7647 O 721.491 1.55731 0.872368 0
M  V30 7648 C 718.591 3.00348 1.56985 0
M  V30 7649 C 717.764 4.23187 1.10596 0
M  V30 7650 C 716.823 4.80334 2.14863 0
M  V30 7651 O 715.849 5.4196 1.73977 0
M  V30 7652 N 717.051 4.65053 3.47427 0
M  V30 7653 H 719.816 2.98732 -0.240629 0
M  V30 7654 H 717.377 1.59556 -0.274507 0
M  V30 7655 H 719.369 3.35464 2.26376 0
M  V30 7656 H 717.939 2.30291 2.11387 0
M  V30 7657 H 717.159 3.93476 0.238832 0
M  V30 7658 H 718.447 5.02886 0.773537 0
M  V30 7659 H 717.845 4.15984 3.83372 0
M  V30 7660 H 716.402 5.04509 4.12691 0
M  V30 7661 N 719.835 0.176821 1.56605 0
M  V30 7662 C 720.745 -0.763682 2.21822 0
M  V30 7663 C 721.761 -1.24889 1.21156 0
M  V30 7664 O 722.937 -1.29987 1.53836 0
M  V30 7665 C 720.002 -1.97352 2.8505 0
M  V30 7666 C 719.063 -1.53466 4.00932 0
M  V30 7667 C 718.296 -2.68682 4.61135 0
M  V30 7668 O 718.519 -3.85694 4.20234 0
M  V30 7669 O 717.453 -2.42442 5.50913 0
M  V30 7670 H 721.279 -0.238363 3.02763 0
M  V30 7671 H 718.864 -0.0516331 1.49311 0
M  V30 7672 H 720.746 -2.68096 3.25119 0
M  V30 7673 H 719.421 -2.48779 2.07101 0
M  V30 7674 H 718.328 -0.796551 3.65521 0
M  V30 7675 H 719.661 -1.06724 4.8049 0
M  V30 7676 N 721.313 -1.57302 -0.09688 0
M  V30 7677 C 722.243 -2.0497 -1.11846 0
M  V30 7678 C 723.224 -0.938278 -1.41882 0
M  V30 7679 O 724.409 -1.20943 -1.51942 0
M  V30 7680 C 721.539 -2.47264 -2.43881 0
M  V30 7681 C 720.493 -3.62053 -2.28257 0
M  V30 7682 C 719.819 -3.90318 -3.65453 0
M  V30 7683 C 721.119 -4.93005 -1.72461 0
M  V30 7684 H 722.813 -2.90567 -0.721888 0
M  V30 7685 H 720.359 -1.39786 -0.345803 0
M  V30 7686 H 722.312 -2.7922 -3.15617 0
M  V30 7687 H 721.036 -1.58664 -2.8547 0
M  V30 7688 H 719.695 -3.30341 -1.58967 0
M  V30 7689 H 719.343 -2.98889 -4.04567 0
M  V30 7690 H 719.043 -4.67597 -3.55846 0
M  V30 7691 H 720.567 -4.24747 -4.3866 0
M  V30 7692 H 721.981 -5.23354 -2.34036 0
M  V30 7693 H 720.378 -5.74436 -1.73618 0
M  V30 7694 H 721.448 -4.80053 -0.683898 0
M  V30 7695 N 722.791 0.367657 -1.53252 0
M  V30 7696 C 723.738 1.45028 -1.79543 0
M  V30 7697 C 724.708 1.53288 -0.63969 0
M  V30 7698 O 725.893 1.69209 -0.881653 0
M  V30 7699 C 723.033 2.82 -1.98923 0
M  V30 7700 C 722.146 2.82722 -3.26638 0
M  V30 7701 C 721.281 4.11257 -3.36216 0
M  V30 7702 C 720.32 4.06113 -4.57972 0
M  V30 7703 N 719.457 5.26293 -4.64715 0
M  V30 7704 H 724.297 1.21908 -2.71923 0
M  V30 7705 H 721.834 0.591011 -1.34705 0
M  V30 7706 H 723.792 3.61568 -2.08146 0
M  V30 7707 H 722.422 3.03523 -1.09881 0
M  V30 7708 H 721.474 1.95399 -3.26379 0
M  V30 7709 H 722.786 2.74794 -4.16281 0
M  V30 7710 H 721.94 4.99239 -3.44739 0
M  V30 7711 H 720.679 4.21935 -2.44586 0
M  V30 7712 H 719.684 3.16517 -4.49552 0
M  V30 7713 H 720.909 3.97039 -5.50942 0
M  V30 7714 H 718.855 5.37561 -3.75985 0
M  V30 7715 H 718.772 5.20526 -5.4826 0
M  V30 7716 H 720.04 6.16113 -4.77519 0
M  V30 7717 N 724.269 1.44576 0.627338 0
M  V30 7718 C 725.232 1.51372 1.72102 0
M  V30 7719 C 726.232 0.395329 1.55865 0
M  V30 7720 O 727.422 0.658094 1.61291 0
M  V30 7721 C 724.554 1.39129 3.11217 0
M  V30 7722 H 725.747 2.48798 1.6745 0
M  V30 7723 H 723.3 1.31724 0.841336 0
M  V30 7724 H 724.035 0.428114 3.21462 0
M  V30 7725 H 723.82 2.20229 3.24409 0
M  V30 7726 H 725.31 1.46874 3.90919 0
M  V30 7727 N 725.747 -0.868086 1.31537 0
M  V30 7728 C 726.71 -1.95703 1.19302 0
M  V30 7729 C 727.71 -1.60355 0.119612 0
M  V30 7730 O 728.9 -1.70247 0.36902 0
M  V30 7731 C 726.032 -3.30599 0.831684 0
M  V30 7732 H 727.225 -2.07982 2.16064 0
M  V30 7733 H 724.778 -1.05661 1.15176 0
M  V30 7734 H 725.513 -3.2402 -0.134694 0
M  V30 7735 H 725.298 -3.57629 1.60761 0
M  V30 7736 H 726.788 -4.10439 0.770026 0
M  V30 7737 N 727.225 -1.14528 -1.08264 0
M  V30 7738 C 728.188 -0.83632 -2.13397 0
M  V30 7739 C 729.188 0.159715 -1.60005 0
M  V30 7740 O 730.378 -0.0688098 -1.74064 0
M  V30 7741 C 727.51 -0.246973 -3.40004 0
M  V30 7742 H 728.703 -1.76808 -2.42237 0
M  V30 7743 H 726.256 -0.951509 -1.24 0
M  V30 7744 H 726.991 0.693436 -3.168 0
M  V30 7745 H 726.776 -0.964412 -3.80055 0
M  V30 7746 H 728.266 -0.0480679 -4.17572 0
M  V30 7747 N 728.703 1.26451 -0.940633 0
M  V30 7748 C 729.613 2.30128 -0.455881 0
M  V30 7749 C 730.629 1.67536 0.469867 0
M  V30 7750 O 731.805 1.98344 0.349529 0
M  V30 7751 C 728.87 3.45634 0.271648 0
M  V30 7752 C 727.931 4.23709 -0.690594 0
M  V30 7753 C 727.164 5.337 0.00231047 0
M  V30 7754 O 727.387 5.57215 1.21935 0
M  V30 7755 O 726.321 5.98091 -0.676111 0
M  V30 7756 H 730.147 2.73655 -1.31707 0
M  V30 7757 H 727.732 1.3164 -0.706497 0
M  V30 7758 H 729.614 4.15853 0.681486 0
M  V30 7759 H 728.289 3.04138 1.10824 0
M  V30 7760 H 727.196 3.55974 -1.15037 0
M  V30 7761 H 728.529 4.68953 -1.49478 0
M  V30 7762 N 730.181 0.707592 1.40822 0
M  V30 7763 C 731.111 0.0644925 2.33411 0
M  V30 7764 C 732.092 -0.754205 1.52466 0
M  V30 7765 O 733.277 -0.704749 1.80961 0
M  V30 7766 C 730.407 -0.863865 3.36385 0
M  V30 7767 C 729.361 -0.15138 4.27732 0
M  V30 7768 C 728.687 -1.19491 5.21177 0
M  V30 7769 C 729.987 0.989607 5.12839 0
M  V30 7770 H 731.681 0.837829 2.87438 0
M  V30 7771 H 729.227 0.404346 1.38207 0
M  V30 7772 H 731.18 -1.32309 4.0009 0
M  V30 7773 H 729.904 -1.66901 2.80734 0
M  V30 7774 H 728.563 0.287937 3.65467 0
M  V30 7775 H 728.211 -1.9929 4.61836 0
M  V30 7776 H 727.911 -0.723123 5.83134 0
M  V30 7777 H 729.435 -1.6544 5.8776 0
M  V30 7778 H 730.849 0.610114 5.70044 0
M  V30 7779 H 729.246 1.38926 5.83798 0
M  V30 7780 H 730.316 1.82389 4.49291 0
M  V30 7781 N 731.66 -1.50943 0.453197 0
M  V30 7782 C 733.076 -1.59245 0.106342 0
M  V30 7783 C 733.276 -1.46287 -1.38572 0
M  V30 7784 O 732.332 -1.31219 -2.15726 0
M  V30 7785 C 733.645 -2.93797 0.640595 0
M  V30 7786 C 735.193 -3.07148 0.602435 0
M  V30 7787 C 735.668 -4.44247 1.11393 0
M  V30 7788 N 737.159 -4.50611 1.07258 0
M  V30 7789 C 737.894 -5.55049 1.43905 0
M  V30 7790 N 737.39 -6.66828 1.87914 0
M  V30 7791 N 739.183 -5.45494 1.35621 0
M  V30 7792 H 731.334 -1.5761 1.42382 0
M  V30 7793 H 733.597 -0.74384 0.587713 0
M  V30 7794 H 733.303 -3.087 1.68515 0
M  V30 7795 H 733.177 -3.77127 0.0742272 0
M  V30 7796 H 735.564 -2.91903 -0.433171 0
M  V30 7797 H 735.645 -2.25619 1.20539 0
M  V30 7798 H 735.289 -4.60239 2.14808 0
M  V30 7799 H 735.219 -5.2434 0.487353 0
M  V30 7800 H 737.71 -3.70391 0.749585 0
M  V30 7801 H 738.023 -7.42558 2.14072 0
M  V30 7802 H 736.368 -6.67995 1.91853 0
M  V30 7803 H 739.559 -4.57053 1.01093 0
M  V30 7804 H 739.732 -6.2677 1.64508 0
M  V30 7805 N 733.138 -0.185124 -1.56509 0
M  V30 7806 C 734.363 0.465278 -2.02114 0
M  V30 7807 C 734.788 1.55083 -1.06447 0
M  V30 7808 O 734.146 1.81241 -0.0462852 0
M  V30 7809 C 734.194 1.00784 -3.46229 0
M  V30 7810 O 733.298 2.12123 -3.53663 0
M  V30 7811 H 732.639 0.109891 -0.654843 0
M  V30 7812 H 735.169 -0.293072 -2.0249 0
M  V30 7813 H 735.179 1.32697 -3.85818 0
M  V30 7814 H 733.854 0.213113 -4.15354 0
M  V30 7815 H 732.431 1.8115 -3.25943 0
M  V30 7816 N 734.616 1.57351 0.0885366 0
M  V30 7817 C 736.032 1.53331 0.442916 0
M  V30 7818 C 736.232 0.902831 1.80142 0
M  V30 7819 O 735.288 0.498147 2.47537 0
M  V30 7820 C 736.601 2.98036 0.399372 0
M  V30 7821 C 738.149 3.09286 0.480759 0
M  V30 7822 C 738.624 4.5561 0.467296 0
M  V30 7823 N 740.115 4.60182 0.52786 0
M  V30 7824 C 740.85 5.70857 0.539388 0
M  V30 7825 N 740.346 6.90944 0.506729 0
M  V30 7826 N 742.139 5.59051 0.584691 0
M  V30 7827 H 734.29 1.96709 -0.801215 0
M  V30 7828 H 736.553 0.899639 -0.298922 0
M  V30 7829 H 736.259 3.47656 -0.531806 0
M  V30 7830 H 736.133 3.57066 1.21589 0
M  V30 7831 H 738.52 2.5965 1.40236 0
M  V30 7832 H 738.601 2.53197 -0.364023 0
M  V30 7833 H 738.245 5.05899 -0.450384 0
M  V30 7834 H 738.175 5.09544 1.32938 0
M  V30 7835 H 740.666 3.73757 0.558028 0
M  V30 7836 H 740.979 7.71055 0.518989 0
M  V30 7837 H 739.324 6.93384 0.473675 0
M  V30 7838 H 742.515 4.64138 0.607781 0
M  V30 7839 H 742.688 6.45307 0.590206 0
M  V30 7840 N 736.094 -0.359525 1.53444 0
M  V30 7841 C 737.024 -1.44662 1.8329 0
M  V30 7842 C 738.005 -1.55617 0.68683 0
M  V30 7843 O 739.19 -1.70086 0.93725 0
M  V30 7844 C 736.32 -2.81923 2.02822 0
M  V30 7845 C 735.274 -2.85787 3.18606 0
M  V30 7846 C 734.6 -4.25781 3.23442 0
M  V30 7847 C 735.9 -2.52762 4.57065 0
M  V30 7848 H 737.594 -1.19934 2.74329 0
M  V30 7849 H 735.14 -0.575517 1.31999 0
M  V30 7850 H 737.093 -3.58005 2.22285 0
M  V30 7851 H 735.817 -3.08051 1.085 0
M  V30 7852 H 734.476 -2.12157 2.98973 0
M  V30 7853 H 734.124 -4.48994 2.26745 0
M  V30 7854 H 733.824 -4.29281 4.01238 0
M  V30 7855 H 735.348 -5.03727 3.45096 0
M  V30 7856 H 736.762 -3.18557 4.76649 0
M  V30 7857 H 735.159 -2.67569 5.37147 0
M  V30 7858 H 736.229 -1.47993 4.61764 0
M  V30 7859 N 737.572 -1.44907 -0.619662 0
M  V30 7860 C 738.988 -1.29046 -0.939107 0
M  V30 7861 C 739.188 -0.23462 -2.00129 0
M  V30 7862 O 738.244 0.37558 -2.49691 0
M  V30 7863 C 739.557 -2.66567 -1.39149 0
M  V30 7864 C 741.105 -2.74368 -1.50635 0
M  V30 7865 C 741.58 -4.12386 -1.99253 0
M  V30 7866 N 743.071 -4.1462 -2.06506 0
M  V30 7867 C 743.806 -5.18272 -2.4532 0
M  V30 7868 N 743.302 -6.32278 -2.83189 0
M  V30 7869 N 745.095 -5.05628 -2.45554 0
M  V30 7870 H 737.246 -2.12239 0.0826135 0
M  V30 7871 H 739.509 -0.947652 -0.0256829 0
M  V30 7872 H 739.215 -3.4496 -0.685254 0
M  V30 7873 H 739.089 -2.94224 -2.36034 0
M  V30 7874 H 741.476 -1.96287 -2.20353 0
M  V30 7875 H 741.557 -2.50439 -0.520963 0
M  V30 7876 H 741.201 -4.90947 -1.30127 0
M  V30 7877 H 741.131 -4.33699 -2.98684 0
M  V30 7878 H 743.622 -3.32343 -1.79878 0
M  V30 7879 H 743.935 -7.07172 -3.11652 0
M  V30 7880 H 742.28 -6.35699 -2.80913 0
M  V30 7881 H 745.471 -4.15613 -2.15367 0
M  V30 7882 H 745.644 -5.86529 -2.75478 0
M  V30 7883 N 739.05 0.861098 -1.31996 0
M  V30 7884 C 740.278 1.6474 -1.25173 0
M  V30 7885 C 740.693 1.87926 0.181425 0
M  V30 7886 O 740.05 1.4437 1.1164 0
M  V30 7887 C 740.101 3.01036 -2.0015 0
M  V30 7888 O 739.822 2.7888 -3.37872 0
M  V30 7889 C 741.323 3.95481 -2.00273 0
M  V30 7890 H 738.543 0.513314 -0.432146 0
M  V30 7891 H 741.087 1.07419 -1.74016 0
M  V30 7892 H 739.242 3.55021 -1.55046 0
M  V30 7893 H 739.656 3.65514 -3.76165 0
M  V30 7894 H 741.13 4.88403 -2.57229 0
M  V30 7895 H 741.607 4.27957 -0.987407 0
M  V30 7896 H 742.213 3.47433 -2.45296 0
M  V30 7897 N 740.528 1.15101 1.07655 0
M  V30 7898 C 741.458 0.867864 2.16773 0
M  V30 7899 C 742.439 -0.180283 1.69142 0
M  V30 7900 O 743.624 -0.0353152 1.94168 0
M  V30 7901 C 740.754 0.35299 3.45501 0
M  V30 7902 C 739.708 1.33746 4.06566 0
M  V30 7903 C 739.034 0.681562 5.30338 0
M  V30 7904 C 740.334 2.7024 4.46954 0
M  V30 7905 H 742.028 1.78034 2.40716 0
M  V30 7906 H 739.574 0.857435 1.15689 0
M  V30 7907 H 741.527 0.142465 4.21159 0
M  V30 7908 H 740.251 -0.594945 3.21135 0
M  V30 7909 H 738.91 1.53429 3.32949 0
M  V30 7910 H 738.558 -0.272422 5.02262 0
M  V30 7911 H 738.258 1.33853 5.72151 0
M  V30 7912 H 739.782 0.48074 6.08705 0
M  V30 7913 H 741.196 2.5442 5.13754 0
M  V30 7914 H 739.593 3.32282 4.99709 0
M  V30 7915 H 740.663 3.26537 3.58471 0
M  V30 7916 N 742.006 -1.2595 0.947325 0
M  V30 7917 C 742.969 -2.24407 0.466285 0
M  V30 7918 C 743.969 -1.55054 -0.426005 0
M  V30 7919 O 745.159 -1.7275 -0.224319 0
M  V30 7920 C 742.291 -3.39326 -0.327201 0
M  V30 7921 H 743.484 -2.68477 1.33642 0
M  V30 7922 H 741.037 -1.38211 0.729887 0
M  V30 7923 H 741.772 -3.00667 -1.21532 0
M  V30 7924 H 741.557 -3.9085 0.312839 0
M  V30 7925 H 743.047 -4.12455 -0.653477 0
M  V30 7926 N 743.484 -0.715051 -1.40445 0
M  V30 7927 C 744.394 -0.0631624 -2.34515 0
M  V30 7928 C 745.41 0.744397 -1.57273 0
M  V30 7929 O 746.586 0.677475 -1.89663 0
M  V30 7930 C 743.651 0.847915 -3.36172 0
M  V30 7931 C 742.712 0.0303655 -4.29289 0
M  V30 7932 C 741.945 0.898051 -5.2609 0
M  V30 7933 O 742.168 2.13729 -5.28844 0
M  V30 7934 O 741.102 0.337328 -6.00954 0
M  V30 7935 H 744.928 -0.839078 -2.91879 0
M  V30 7936 H 742.513 -0.475527 -1.4163 0
M  V30 7937 H 744.395 1.3698 -3.98515 0
M  V30 7938 H 743.07 1.60299 -2.81222 0
M  V30 7939 H 741.977 -0.536573 -3.70232 0
M  V30 7940 H 743.31 -0.686474 -4.87389 0
M  V30 7941 N 744.962 1.50701 -0.461195 0
M  V30 7942 C 746.208 2.02566 0.0973411 0
M  V30 7943 C 746.541 1.3432 1.40257 0
M  V30 7944 O 745.816 0.465692 1.88843 0
M  V30 7945 C 746.099 3.58919 0.291423 0
M  V30 7946 C 745.952 4.37751 -1.03413 0
M  V30 7947 C 747.271 4.27379 1.05048 0
M  V30 7948 H 744.39 0.73622 0.0339026 0
M  V30 7949 H 747.032 1.80115 -0.604855 0
M  V30 7950 H 745.182 3.78179 0.889539 0
M  V30 7951 H 746.854 4.30085 -1.66806 0
M  V30 7952 H 745.097 4.01885 -1.63313 0
M  V30 7953 H 745.768 5.45384 -0.852085 0
M  V30 7954 H 748.244 4.12534 0.543603 0
M  V30 7955 H 747.12 5.36609 1.15506 0
M  V30 7956 H 747.381 3.89868 2.0846 0
M  V30 7957 N 746.441 0.193421 1.56409 0
M  V30 7958 C 747.371 -0.723334 2.22014 0
M  V30 7959 C 748.352 -1.22254 1.1827 0
M  V30 7960 O 749.537 -1.27168 1.46771 0
M  V30 7961 C 746.667 -1.94366 2.87818 0
M  V30 7962 C 745.621 -1.57943 3.97791 0
M  V30 7963 C 744.947 -2.87623 4.50752 0
M  V30 7964 C 746.247 -0.790639 5.16281 0
M  V30 7965 H 747.941 -0.176426 2.9888 0
M  V30 7966 H 745.487 -0.0834166 1.43758 0
M  V30 7967 H 747.44 -2.5902 3.32396 0
M  V30 7968 H 746.164 -2.51507 2.08355 0
M  V30 7969 H 744.823 -0.956482 3.53903 0
M  V30 7970 H 744.471 -3.4285 3.68053 0
M  V30 7971 H 744.171 -2.63998 5.24956 0
M  V30 7972 H 745.695 -3.53268 4.9803 0
M  V30 7973 H 747.109 -1.34024 5.57414 0
M  V30 7974 H 745.506 -0.65258 5.96541 0
M  V30 7975 H 746.576 0.208633 4.84451 0
M  V30 7976 N 747.919 -1.57396 -0.0801906 0
M  V30 7977 C 749.144 -1.91437 -0.797909 0
M  V30 7978 C 749.569 -0.789075 -1.70749 0
M  V30 7979 O 748.927 0.25857 -1.79447 0
M  V30 7980 C 748.975 -3.24402 -1.57467 0
M  V30 7981 O 748.079 -3.13043 -2.68473 0
M  V30 7982 H 747.42 -0.627109 -0.218243 0
M  V30 7983 H 749.95 -2.04537 -0.050949 0
M  V30 7984 H 749.96 -3.58072 -1.95571 0
M  V30 7985 H 748.635 -4.05884 -0.907229 0
M  V30 7986 H 747.212 -2.90915 -2.33287 0
M  V30 7987 N 749.397 0.351382 -1.53633 0
M  V30 7988 C 750.813 0.693987 -1.43722 0
M  V30 7989 C 751.013 1.9274 -0.587669 0
M  V30 7990 O 750.069 2.52387 -0.0756082 0
M  V30 7991 C 751.382 0.893937 -2.87105 0
M  V30 7992 C 752.93 0.993051 -2.96829 0
M  V30 7993 C 753.405 1.22537 -4.41303 0
M  V30 7994 N 754.896 1.29275 -4.44795 0
M  V30 7995 C 755.631 1.48988 -5.53706 0
M  V30 7996 N 755.127 1.65924 -6.72637 0
M  V30 7997 N 756.92 1.51472 -5.41306 0
M  V30 7998 H 749.071 -0.459688 -2.07366 0
M  V30 7999 H 751.334 -0.143684 -0.937048 0
M  V30 8000 H 751.04 0.0592517 -3.5165 0
M  V30 8001 H 750.914 1.79795 -3.31592 0
M  V30 8002 H 753.301 1.81827 -2.32429 0
M  V30 8003 H 753.382 0.0661119 -2.55715 0
M  V30 8004 H 753.026 0.405117 -5.06282 0
M  V30 8005 H 752.956 2.16575 -4.80003 0
M  V30 8006 H 755.447 1.17743 -3.59089 0
M  V30 8007 H 755.76 1.80578 -7.51406 0
M  V30 8008 H 754.105 1.63075 -6.75597 0
M  V30 8009 H 757.296 1.37818 -4.47352 0
M  V30 8010 H 757.469 1.66493 -6.26246 0
M  V30 8011 N 750.875 1.45233 0.611969 0
M  V30 8012 C 752.115 1.50558 1.38245 0
M  V30 8013 C 752.479 0.141959 1.91474 0
M  V30 8014 O 753.68 0.0698926 2.68709 0
M  V30 8015 C 751.951 2.55136 2.50281 0
M  V30 8016 S 753.51 2.79652 3.38142 0
M  V30 8017 H 750.328 0.532281 0.471378 0
M  V30 8018 H 752.93 1.82285 0.706578 0
M  V30 8019 H 751.634 3.52888 2.09518 0
M  V30 8020 H 751.165 2.25045 3.22674 0
M  V30 8021 H 753.18 2.12699 4.48301 0
M  V30 8022 N 752.353 -0.854086 1.3245 0
M  V30 8023 C 753.578 -1.64597 1.26185 0
M  V30 8024 C 754.003 -1.87357 -0.167074 0
M  V30 8025 O 753.361 -1.42675 -1.11864 0
M  V30 8026 C 753.409 -2.98213 2.02734 0
M  V30 8027 O 752.513 -3.88784 1.37554 0
M  V30 8028 H 751.854 -0.50179 0.434859 0
M  V30 8029 H 754.384 -1.06372 1.74775 0
M  V30 8030 H 754.394 -3.4803 2.1293 0
M  V30 8031 H 753.069 -2.80969 3.06642 0
M  V30 8032 H 751.646 -3.4725 1.3591 0
M  V30 8033 N 753.831 -1.1567 -1.07043 0
M  V30 8034 C 754.763 -0.814095 -2.14255 0
M  V30 8035 C 755.776 0.175293 -1.61854 0
M  V30 8036 O 756.965 -0.0483984 -1.78434 0
M  V30 8037 C 754.065 -0.190082 -3.38367 0
M  V30 8038 C 753.238 -1.21768 -4.20109 0
M  V30 8039 C 752.297 -0.614863 -5.22595 0
M  V30 8040 O 751.323 -1.28167 -5.54583 0
M  V30 8041 N 752.525 0.601955 -5.77371 0
M  V30 8042 H 755.29 -1.73677 -2.44247 0
M  V30 8043 H 752.851 -1.05301 -1.22977 0
M  V30 8044 H 754.843 0.22604 -4.04068 0
M  V30 8045 H 753.413 0.635992 -3.06062 0
M  V30 8046 H 752.633 -1.81025 -3.50177 0
M  V30 8047 H 753.921 -1.9114 -4.71533 0
M  V30 8048 H 753.319 1.162 -5.53637 0
M  V30 8049 H 751.876 0.96039 -6.44686 0
M  V30 8050 N 755.309 1.25446 -0.953992 0
M  V30 8051 C 756.257 2.27909 -0.46478 0
M  V30 8052 C 757.251 1.62904 0.464607 0
M  V30 8053 O 758.457 1.76733 0.341407 0
M  V30 8054 H 754.832 0.74036 -0.131798 0
M  V30 8055 H 756.803 2.66559 -1.34122 0
M  V30 8056 C 755.552 3.46853 0.242589 0
M  V30 8057 H 754.875 3.97105 -0.463418 0
M  V30 8058 H 756.315 4.20432 0.548919 0
M  V30 8059 C 754.774 3.03386 1.46487 0
M  V30 8060 O 755.304 3.09342 2.56262 0
M  V30 8061 N 753.51 2.58584 1.32599 0
M  V30 8062 H 753.057 2.53938 0.432834 0
M  V30 8063 H 753.015 2.29866 2.14497 0
M  V30 8064 N 756.787 0.722489 1.40064 0
M  V30 8065 C 758.036 0.261932 1.99992 0
M  V30 8066 C 758.349 -1.15358 1.57961 0
M  V30 8067 O 759.555 -1.71301 2.10637 0
M  V30 8068 C 758.011 0.41737 3.57472 0
M  V30 8069 C 757.619 1.83997 4.08472 0
M  V30 8070 C 759.363 0.0179561 4.24496 0
M  V30 8071 C 757.27 1.94563 5.5848 0
M  V30 8072 H 756.2 0.0941768 0.748095 0
M  V30 8073 H 758.851 0.894572 1.60218 0
M  V30 8074 H 757.233 -0.283965 3.94981 0
M  V30 8075 H 758.407 2.57224 3.82325 0
M  V30 8076 H 756.722 2.19147 3.54067 0
M  V30 8077 H 759.319 0.076085 5.34646 0
M  V30 8078 H 759.662 -1.02498 4.03485 0
M  V30 8079 H 760.195 0.669988 3.92117 0
M  V30 8080 H 756.934 2.97001 5.84355 0
M  V30 8081 H 756.454 1.25756 5.86469 0
M  V30 8082 H 758.133 1.72095 6.23692 0
M  V30 8083 N 758.265 -1.50454 0.469181 0
M  V30 8084 C 759.493 -2.06729 -0.0842134 0
M  V30 8085 C 759.908 -1.33326 -1.33677 0
M  V30 8086 O 759.265 -0.401977 -1.78018 0
M  V30 8087 C 759.316 -3.59557 -0.374253 0
M  V30 8088 O 759.037 -4.30192 0.828622 0
M  V30 8089 C 760.538 -4.32449 -0.974824 0
M  V30 8090 H 757.758 -0.670971 0.006231 0
M  V30 8091 H 760.302 -1.93645 0.657415 0
M  V30 8092 H 758.457 -3.7245 -1.06581 0
M  V30 8093 H 758.871 -5.21371 0.572066 0
M  V30 8094 H 760.345 -5.40361 -1.12755 0
M  V30 8095 H 760.822 -3.92819 -1.96442 0
M  V30 8096 H 761.428 -4.24082 -0.321703 0
M  V30 8097 N 759.743 -0.201713 -1.56304 0
M  V30 8098 C 760.653 0.728296 -2.23009 0
M  V30 8099 C 761.669 1.22945 -1.23128 0
M  V30 8100 O 762.845 1.27523 -1.55884 0
M  V30 8101 C 759.91 1.92792 -2.88153 0
M  V30 8102 C 758.971 1.47068 -4.03323 0
M  V30 8103 C 758.204 2.61312 -4.65351 0
M  V30 8104 O 758.427 3.7896 -4.26317 0
M  V30 8105 O 757.361 2.33646 -5.54701 0
M  V30 8106 H 761.187 0.190166 -3.03104 0
M  V30 8107 H 758.772 0.0278725 -1.49374 0
M  V30 8108 H 760.654 2.6289 -3.29343 0
M  V30 8109 H 759.329 2.45452 -2.11033 0
M  V30 8110 H 758.236 0.738299 -3.66742 0
M  V30 8111 H 759.569 0.990666 -4.82127 0
M  V30 8112 N 761.222 1.57436 0.0718424 0
M  V30 8113 C 762.45 1.91474 0.783932 0
M  V30 8114 C 762.865 0.797669 1.71122 0
M  V30 8115 O 762.222 -0.228989 1.81058 0
M  V30 8116 C 762.273 3.25259 1.57761 0
M  V30 8117 O 761.994 4.3267 0.687596 0
M  V30 8118 C 763.495 3.7331 2.3907 0
M  V30 8119 H 760.715 0.632901 0.222885 0
M  V30 8120 H 763.259 2.04457 0.0421262 0
M  V30 8121 H 761.414 3.13804 2.27169 0
M  V30 8122 H 761.828 5.09641 1.23962 0
M  V30 8123 H 763.302 4.69551 2.90216 0
M  V30 8124 H 763.779 3.02318 3.18591 0
M  V30 8125 H 764.385 3.8771 1.74818 0
M  V30 8126 N 762.7 -0.34323 1.53817 0
M  V30 8127 C 763.632 -1.44216 1.78141 0
M  V30 8128 C 764.645 -1.48701 0.662721 0
M  V30 8129 O 765.834 -1.51778 0.939458 0
M  V30 8130 C 762.934 -2.82872 1.86646 0
M  V30 8131 C 762.107 -3.01824 3.16577 0
M  V30 8132 C 761.166 -4.20723 3.16036 0
M  V30 8133 O 760.192 -4.14824 3.89756 0
M  V30 8134 N 761.394 -5.29276 2.38427 0
M  V30 8135 H 764.159 -1.23721 2.72971 0
M  V30 8136 H 761.72 -0.53311 1.52871 0
M  V30 8137 H 763.712 -3.60588 1.83735 0
M  V30 8138 H 762.282 -2.96509 0.990014 0
M  V30 8139 H 761.502 -2.11575 3.3261 0
M  V30 8140 H 762.79 -3.11369 4.02402 0
M  V30 8141 H 762.188 -5.36938 1.78085 0
M  V30 8142 H 760.745 -6.05484 2.41313 0
M  V30 8143 N 764.178 -1.45556 -0.604258 0
M  V30 8144 C 765.088 -1.57025 -1.74299 0
M  V30 8145 C 766.104 -0.45456 -1.67958 0
M  V30 8146 O 767.28 -0.715711 -1.88254 0
M  V30 8147 C 764.345 -1.53702 -3.10768 0
M  V30 8148 C 763.406 -2.76335 -3.28538 0
M  V30 8149 C 762.639 -2.73161 -4.58496 0
M  V30 8150 O 762.862 -1.80678 -5.41028 0
M  V30 8151 O 761.796 -3.64409 -4.79051 0
M  V30 8152 H 765.622 -2.53284 -1.67573 0
M  V30 8153 H 763.207 -1.28104 -0.768745 0
M  V30 8154 H 765.089 -1.54468 -3.92068 0
M  V30 8155 H 763.764 -0.605957 -3.17978 0
M  V30 8156 H 762.671 -2.8113 -2.46813 0
M  V30 8157 H 764.004 -3.68578 -3.26207 0
M  V30 8158 N 765.656 0.84705 -1.32902 0
M  V30 8159 C 766.881 1.63925 -1.27056 0
M  V30 8160 C 767.306 1.87443 0.157136 0
M  V30 8161 O 766.664 1.43266 1.11106 0
M  V30 8162 C 766.712 2.97134 -2.04313 0
M  V30 8163 O 765.816 3.88049 -1.39614 0
M  V30 8164 H 765.157 0.499477 -0.437514 0
M  V30 8165 H 767.687 1.05443 -1.75336 0
M  V30 8166 H 767.697 3.46896 -2.14772 0
M  V30 8167 H 766.372 2.79339 -3.08128 0
M  V30 8168 H 764.949 3.46525 -1.3775 0
M  V30 8169 N 767.134 1.16236 1.06428 0
M  V30 8170 C 768.064 0.890807 2.1584 0
M  V30 8171 C 769.045 -0.162333 1.69324 0
M  V30 8172 O 770.23 -0.0147191 1.94194 0
M  V30 8173 C 767.36 0.389615 3.45108 0
M  V30 8174 C 766.314 1.38051 4.05125 0
M  V30 8175 C 765.64 0.737773 5.29586 0
M  V30 8176 C 766.94 2.74965 4.44062 0
M  V30 8177 H 768.634 1.80577 2.38814 0
M  V30 8178 H 766.18 0.869657 1.14774 0
M  V30 8179 H 768.133 0.187127 4.20984 0
M  V30 8180 H 766.857 -0.560851 3.21748 0
M  V30 8181 H 765.516 1.56952 3.31303 0
M  V30 8182 H 765.164 -0.219135 5.02522 0
M  V30 8183 H 764.864 1.39914 5.70699 0
M  V30 8184 H 766.388 0.545275 6.0816 0
M  V30 8185 H 767.802 2.59855 5.11027 0
M  V30 8186 H 766.199 3.37563 4.96156 0
M  V30 8187 H 767.269 3.30321 3.54987 0
M  V30 8188 N 768.612 -1.24939 0.960631 0
M  V30 8189 C 769.837 -1.9742 0.635608 0
M  V30 8190 C 770.262 -1.70857 -0.786737 0
M  V30 8191 O 769.62 -0.968063 -1.53291 0
M  V30 8192 C 769.668 -3.48987 0.907771 0
M  V30 8193 O 768.772 -4.12399 -0.0104053 0
M  V30 8194 H 768.113 -0.61871 0.241027 0
M  V30 8195 H 770.643 -1.58901 1.28886 0
M  V30 8196 H 770.653 -3.99334 0.836453 0
M  V30 8197 H 769.328 -3.6765 1.94439 0
M  V30 8198 H 767.905 -3.72727 0.113631 0
M  V30 8199 N 770.09 -0.729906 -1.39679 0
M  V30 8200 C 771.315 -0.284345 -2.05442 0
M  V30 8201 C 771.74 1.07056 -1.54663 0
M  V30 8202 O 771.098 1.67732 -0.688157 0
M  V30 8203 C 771.146 -0.290089 -3.59431 0
M  V30 8204 O 770.25 0.723978 -4.05995 0
M  V30 8205 H 769.591 -0.130311 -0.651088 0
M  V30 8206 H 772.121 -0.994403 -1.78809 0
M  V30 8207 H 772.131 -0.132712 -4.07784 0
M  V30 8208 H 770.806 -1.27877 -3.95753 0
M  V30 8209 H 769.383 0.533154 -3.69069 0
M  V30 8210 N 771.568 1.50203 -0.477153 0
M  V30 8211 C 772.498 2.31517 0.303646 0
M  V30 8212 C 773.479 1.38696 0.984753 0
M  V30 8213 O 774.664 1.67615 0.980758 0
M  V30 8214 C 771.794 3.18598 1.38249 0
M  V30 8215 C 770.748 4.2002 0.822645 0
M  V30 8216 C 770.074 4.95878 2.00024 0
M  V30 8217 C 771.374 5.22023 -0.170185 0
M  V30 8218 H 773.068 2.97042 -0.375027 0
M  V30 8219 H 770.614 1.42848 -0.181802 0
M  V30 8220 H 772.567 3.74282 1.93625 0
M  V30 8221 H 771.291 2.5097 2.09002 0
M  V30 8222 H 769.95 3.65445 0.290813 0
M  V30 8223 H 769.598 4.24717 2.69489 0
M  V30 8224 H 769.298 5.64487 1.63183 0
M  V30 8225 H 770.822 5.54399 2.55878 0
M  V30 8226 H 772.236 5.72543 0.294606 0
M  V30 8227 H 770.633 5.98386 -0.453181 0
M  V30 8228 H 771.703 4.72396 -1.09408 0
M  V30 8229 N 773.046 0.209999 1.56195 0
M  V30 8230 C 773.994 -0.721416 2.2113 0
M  V30 8231 C 774.988 -1.20852 1.18706 0
M  V30 8232 O 776.194 -1.16968 1.36815 0
M  V30 8233 H 772.569 -0.251033 0.708863 0
M  V30 8234 H 774.54 -0.150193 2.98022 0
M  V30 8235 C 773.289 -1.92392 2.89621 0
M  V30 8236 H 772.612 -1.5582 3.68185 0
M  V30 8237 H 774.052 -2.55367 3.38473 0
M  V30 8238 C 772.511 -2.77208 1.91461 0
M  V30 8239 O 773.041 -3.75603 1.42426 0
M  V30 8240 N 771.247 -2.43006 1.59363 0
M  V30 8241 H 770.794 -1.63047 1.99433 0
M  V30 8242 H 770.752 -3.00036 0.939449 0
M  V30 8243 N 774.524 -1.57472 -0.0634922 0
M  V30 8244 C 775.94 -1.54016 -0.418466 0
M  V30 8245 C 776.14 -0.931376 -1.78683 0
M  V30 8246 O 775.196 -0.537465 -2.46714 0
M  V30 8247 C 776.509 -2.98634 -0.351906 0
M  V30 8248 C 778.057 -3.10012 -0.431494 0
M  V30 8249 C 778.532 -4.56296 -0.394754 0
M  V30 8250 N 780.023 -4.60964 -0.454583 0
M  V30 8251 C 780.758 -5.71643 -0.448501 0
M  V30 8252 N 780.254 -6.91663 -0.396742 0
M  V30 8253 N 782.047 -5.5991 -0.495677 0
M  V30 8254 H 774.198 -1.95409 0.832408 0
M  V30 8255 H 776.461 -0.894769 0.313197 0
M  V30 8256 H 776.167 -3.46766 0.587048 0
M  V30 8257 H 776.041 -3.58955 -1.15893 0
M  V30 8258 H 778.428 -2.61848 -1.36087 0
M  V30 8259 H 778.509 -2.52585 0.404258 0
M  V30 8260 H 778.153 -5.05119 0.530811 0
M  V30 8261 H 778.083 -5.11594 -1.24815 0
M  V30 8262 H 780.574 -3.74598 -0.498496 0
M  V30 8263 H 780.887 -7.71783 -0.396256 0
M  V30 8264 H 779.232 -6.9405 -0.363304 0
M  V30 8265 H 782.423 -4.65046 -0.533864 0
M  V30 8266 H 782.596 -6.46164 -0.487469 0
M  V30 8267 N 776.003 0.335068 -1.53997 0
M  V30 8268 C 776.913 1.43511 -1.85585 0
M  V30 8269 C 777.929 1.57162 -0.746726 0
M  V30 8270 O 779.105 1.72477 -1.03988 0
M  V30 8271 C 776.17 2.78386 -2.06646 0
M  V30 8272 C 775.231 2.74007 -3.30483 0
M  V30 8273 C 774.464 4.02449 -3.50529 0
M  V30 8274 O 774.687 5.00147 -2.74242 0
M  V30 8275 O 773.621 4.06405 -4.4398 0
M  V30 8276 H 777.447 1.19731 -2.79102 0
M  V30 8277 H 775.032 0.528033 -1.39758 0
M  V30 8278 H 776.914 3.58247 -2.21894 0
M  V30 8279 H 775.589 3.0208 -1.16317 0
M  V30 8280 H 774.496 1.92736 -3.2063 0
M  V30 8281 H 775.829 2.55267 -4.20832 0
M  V30 8282 N 777.481 1.45874 0.596531 0
M  V30 8283 C 778.411 1.5824 1.71705 0
M  V30 8284 C 779.392 0.433366 1.64487 0
M  V30 8285 O 780.577 0.657895 1.82717 0
M  V30 8286 C 777.707 1.55927 3.10329 0
M  V30 8287 C 776.661 2.69659 3.32367 0
M  V30 8288 C 775.987 2.52403 4.71377 0
M  V30 8289 C 777.287 4.11591 3.21544 0
M  V30 8290 H 778.981 2.52035 1.61613 0
M  V30 8291 H 776.527 1.21297 0.776082 0
M  V30 8292 H 778.48 1.63173 3.88526 0
M  V30 8293 H 777.204 0.586674 3.21288 0
M  V30 8294 H 775.863 2.61859 2.56564 0
M  V30 8295 H 775.511 1.53258 4.79083 0
M  V30 8296 H 775.211 3.28679 4.87077 0
M  V30 8297 H 776.735 2.6152 5.5176 0
M  V30 8298 H 778.149 4.20576 3.89601 0
M  V30 8299 H 776.546 4.88344 3.4877 0
M  V30 8300 H 777.616 4.32719 2.1882 0
M  V30 8301 N 778.959 -0.83999 1.33349 0
M  V30 8302 C 780.205 -1.59753 1.24927 0
M  V30 8303 C 780.538 -1.93318 -0.184855 0
M  V30 8304 O 779.813 -1.586 -1.12589 0
M  V30 8305 C 780.096 -2.90829 2.12345 0
M  V30 8306 C 779.949 -2.63953 3.6421 0
M  V30 8307 C 781.268 -3.92246 1.99577 0
M  V30 8308 H 778.387 -0.579654 0.45516 0
M  V30 8309 H 781.029 -0.968909 1.63439 0
M  V30 8310 H 779.179 -3.44478 1.79631 0
M  V30 8311 H 780.851 -2.16745 4.07209 0
M  V30 8312 H 779.094 -1.97671 3.86146 0
M  V30 8313 H 779.765 -3.57348 4.20721 0
M  V30 8314 H 782.241 -3.479 2.28265 0
M  V30 8315 H 781.117 -4.81793 2.62996 0
M  V30 8316 H 781.378 -4.3138 0.967673 0
M  V30 8317 N 780.437 -1.16799 -1.0581 0
M  V30 8318 C 781.384 -0.87902 -2.13405 0
M  V30 8319 C 782.354 0.174541 -1.6518 0
M  V30 8320 O 783.539 0.0386843 -1.90761 0
M  V30 8321 C 780.679 -0.391616 -3.42871 0
M  V30 8322 C 779.792 -1.50857 -4.04804 0
M  V30 8323 C 778.927 -0.975682 -5.22163 0
M  V30 8324 C 777.966 -2.06851 -5.76089 0
M  V30 8325 N 777.103 -1.55085 -6.84758 0
M  V30 8326 H 781.943 -1.80043 -2.37463 0
M  V30 8327 H 779.48 -0.898083 -1.16503 0
M  V30 8328 H 781.438 -0.0906247 -4.17102 0
M  V30 8329 H 780.068 0.49284 -3.19016 0
M  V30 8330 H 779.12 -1.92542 -3.28073 0
M  V30 8331 H 780.432 -2.33305 -4.40874 0
M  V30 8332 H 779.586 -0.628165 -6.03439 0
M  V30 8333 H 778.325 -0.120566 -4.87551 0
M  V30 8334 H 777.33 -2.42467 -4.93447 0
M  V30 8335 H 778.555 -2.92768 -6.12751 0
M  V30 8336 H 776.501 -0.718345 -6.52055 0
M  V30 8337 H 776.418 -2.31145 -7.19797 0
M  V30 8338 H 777.686 -1.23206 -7.69702 0
M  V30 8339 N 781.915 1.24427 -0.967243 0
M  V30 8340 C 783.14 1.9708 -0.646069 0
M  V30 8341 C 783.565 1.71272 0.777665 0
M  V30 8342 O 782.923 0.976179 1.52776 0
M  V30 8343 C 782.971 3.48501 -0.926266 0
M  V30 8344 O 782.075 4.12398 -0.0114653 0
M  V30 8345 H 781.416 0.617423 -0.244304 0
M  V30 8346 H 783.946 1.58215 -1.29727 0
M  V30 8347 H 783.956 3.98885 -0.857619 0
M  V30 8348 H 782.631 3.66613 -1.96386 0
M  V30 8349 H 781.208 3.72661 -0.133396 0
M  V30 8350 N 783.393 0.737304 1.3929 0
M  V30 8351 C 784.809 0.413132 1.5416 0
M  V30 8352 C 785.009 -1.07574 1.70382 0
M  V30 8353 O 784.065 -1.86185 1.70562 0
M  V30 8354 C 785.378 1.19817 2.75798 0
M  V30 8355 C 786.926 1.18662 2.89635 0
M  V30 8356 C 787.401 1.95427 4.14213 0
M  V30 8357 N 788.892 1.92605 4.21257 0
M  V30 8358 C 789.627 2.48808 5.16606 0
M  V30 8359 N 789.123 3.13659 6.1773 0
M  V30 8360 N 790.916 2.38829 5.08839 0
M  V30 8361 H 783.067 1.70243 1.27008 0
M  V30 8362 H 785.33 0.720802 0.61575 0
M  V30 8363 H 785.036 2.25179 2.70161 0
M  V30 8364 H 784.91 0.804144 3.68529 0
M  V30 8365 H 787.297 0.141112 2.94762 0
M  V30 8366 H 787.378 1.62003 1.97961 0
M  V30 8367 H 787.022 2.9998 4.09847 0
M  V30 8368 H 786.952 1.4949 5.04936 0
M  V30 8369 H 789.443 1.45362 3.48824 0
M  V30 8370 H 789.756 3.54006 6.8695 0
M  V30 8371 H 788.101 3.17749 6.1811 0
M  V30 8372 H 791.292 1.87806 4.28773 0
M  V30 8373 H 791.465 2.82929 5.82971 0
M  V30 8374 N 784.871 -1.49948 0.485112 0
M  V30 8375 C 786.148 -1.95186 -0.12726 0
M  V30 8376 C 786.528 -1.42605 -1.5565 0
M  V30 8377 O 785.876 -0.632986 -2.19558 0
M  V30 8378 C 786.086 -3.48955 -0.0562117 0
M  V30 8379 C 787.434 -4.23932 -0.238106 0
M  V30 8380 O 788.458 -3.55955 -0.132145 0
M  V30 8381 O 787.317 -5.44614 -0.453658 0
M  V30 8382 H 784.411 -0.820433 -0.104014 0
M  V30 8383 H 786.957 -1.60659 0.546517 0
M  V30 8384 H 785.729 -3.79814 0.941122 0
M  V30 8385 H 785.352 -3.90056 -0.770834 0
M  V30 8386 N 786.349 -0.21828 -1.56081 0
M  V30 8387 C 787.281 0.725447 -2.17416 0
M  V30 8388 C 788.294 1.15995 -1.14233 0
M  V30 8389 O 789.483 1.09166 -1.41227 0
M  V30 8390 C 786.583 1.99401 -2.7403 0
M  V30 8391 C 785.756 1.7156 -4.02351 0
M  V30 8392 C 784.815 2.8309 -4.43561 0
M  V30 8393 O 783.841 2.51701 -5.10525 0
M  V30 8394 N 785.043 4.11972 -4.08973 0
M  V30 8395 H 787.808 0.200801 -2.99027 0
M  V30 8396 H 785.369 -0.0371514 -1.61857 0
M  V30 8397 H 787.361 2.73198 -2.98571 0
M  V30 8398 H 785.931 2.42923 -1.96742 0
M  V30 8399 H 785.151 0.814233 -3.85699 0
M  V30 8400 H 786.439 1.50385 -4.86068 0
M  V30 8401 H 785.837 4.40319 -3.55156 0
M  V30 8402 H 784.394 4.82323 -4.38415 0
M  V30 8403 N 787.827 1.57504 0.0551401 0
M  V30 8404 C 789.073 1.88334 0.752216 0
M  V30 8405 C 789.406 0.812742 1.76375 0
M  V30 8406 O 788.681 -0.175198 1.93709 0
M  V30 8407 C 788.964 3.29824 1.44528 0
M  V30 8408 C 788.817 4.47553 0.449026 0
M  V30 8409 C 790.136 3.69808 2.38601 0
M  V30 8410 H 787.255 0.684973 0.271995 0
M  V30 8411 H 789.897 1.89994 0.0151895 0
M  V30 8412 H 788.047 3.28539 2.07351 0
M  V30 8413 H 789.719 4.60967 -0.175277 0
M  V30 8414 H 787.962 4.33168 -0.234162 0
M  V30 8415 H 788.633 5.43376 0.971917 0
M  V30 8416 H 791.109 3.72293 1.85842 0
M  V30 8417 H 789.985 4.69665 2.84088 0
M  V30 8418 H 790.246 3.00641 3.24141 0
M  V30 8419 N 789.305 -0.326896 1.54172 0
M  V30 8420 C 790.255 -1.40319 1.79707 0
M  V30 8421 C 791.239 -1.47056 0.652938 0
M  V30 8422 O 792.431 -1.51645 0.91284 0
M  V30 8423 C 789.56 -2.77222 2.02491 0
M  V30 8424 C 788.646 -2.74811 3.23016 0
M  V30 8425 N 789.037 -2.42022 4.44138 0
M  V30 8426 C 787.335 -3.05943 3.24522 0
M  V30 8427 C 788.036 -2.48263 5.26061 0
M  V30 8428 N 787.012 -2.84567 4.63166 0
M  V30 8429 H 790.814 -1.13892 2.70935 0
M  V30 8430 H 788.328 -0.53536 1.53322 0
M  V30 8431 H 790.325 -3.54793 2.18923 0
M  V30 8432 H 788.985 -3.04582 1.12515 0
M  V30 8433 H 789.996 -2.14926 4.71197 0
M  V30 8434 H 786.673 -3.38367 2.44569 0
M  V30 8435 H 788.063 -2.2593 6.32776 0
M  V30 8436 N 790.784 -1.46188 -0.588786 0
M  V30 8437 C 791.694 -1.58865 -1.72624 0
M  V30 8438 C 792.71 -0.472348 -1.67466 0
M  V30 8439 O 793.886 -0.735638 -1.87484 0
M  V30 8440 C 790.951 -1.56989 -3.0912 0
M  V30 8441 C 790.012 -2.79804 -3.25589 0
M  V30 8442 C 789.245 -2.78009 -4.55573 0
M  V30 8443 O 789.468 -1.86406 -5.39082 0
M  V30 8444 O 788.402 -3.6947 -4.75159 0
M  V30 8445 H 792.228 -2.55047 -1.64878 0
M  V30 8446 H 789.813 -1.28912 -0.755115 0
M  V30 8447 H 791.695 -1.58618 -3.90408 0
M  V30 8448 H 790.37 -0.639648 -3.17317 0
M  V30 8449 H 789.277 -2.83732 -2.43818 0
M  V30 8450 H 790.61 -3.72017 -3.22279 0
M  V30 8451 N 792.262 0.832906 -1.33792 0
M  V30 8452 C 793.539 1.57359 -1.16178 0
M  V30 8453 C 793.919 2.09372 0.269532 0
M  V30 8454 O 793.267 1.89993 1.26944 0
M  V30 8455 C 793.477 2.70279 -2.20795 0
M  V30 8456 C 794.825 3.39305 -2.55259 0
M  V30 8457 O 795.849 2.80526 -2.19508 0
M  V30 8458 O 794.708 4.45428 -3.16632 0
M  V30 8459 H 791.802 0.694025 -0.449731 0
M  V30 8460 H 794.348 0.875144 -1.45394 0
M  V30 8461 H 793.12 2.29527 -3.16911 0
M  V30 8462 H 792.743 3.47782 -1.927 0
M  V30 8463 N 793.74 1.17359 1.05189 0
M  V30 8464 C 795.156 0.920861 1.30355 0
M  V30 8465 C 795.356 -0.419993 1.97074 0
M  V30 8466 O 794.412 -1.15696 2.24434 0
M  V30 8467 C 795.725 2.07818 2.1733 0
M  V30 8468 C 797.273 2.1152 2.30712 0
M  V30 8469 C 797.748 3.26637 3.21048 0
M  V30 8470 N 799.239 3.26426 3.28634 0
M  V30 8471 C 799.974 4.12141 3.98657 0
M  V30 8472 N 799.47 5.07966 4.71107 0
M  V30 8473 N 801.263 4.00091 3.94821 0
M  V30 8474 H 793.414 2.03666 0.602821 0
M  V30 8475 H 795.677 0.889294 0.328421 0
M  V30 8476 H 795.383 3.04727 1.75597 0
M  V30 8477 H 795.257 2.02922 3.17966 0
M  V30 8478 H 797.644 1.15196 2.71687 0
M  V30 8479 H 797.725 2.20477 1.29706 0
M  V30 8480 H 797.369 4.23227 2.80788 0
M  V30 8481 H 797.299 3.14917 4.2206 0
M  V30 8482 H 799.79 2.57045 2.77013 0
M  V30 8483 H 800.103 5.69766 5.22099 0
M  V30 8484 H 798.448 5.11936 4.7005 0
M  V30 8485 H 801.639 3.24523 3.37346 0
M  V30 8486 H 801.812 4.6711 4.49123 0
M  V30 8487 N 795.218 -1.23913 0.973828 0
M  V30 8488 C 796.443 -1.96735 0.656511 0
M  V30 8489 C 796.868 -1.71682 -0.768571 0
M  V30 8490 O 796.226 -0.984267 -1.52256 0
M  V30 8491 C 796.274 -3.48004 0.944735 0
M  V30 8492 O 795.378 -4.12387 0.0333357 0
M  V30 8493 H 794.719 -0.616119 0.247575 0
M  V30 8494 H 797.249 -1.57525 1.30564 0
M  V30 8495 H 797.259 -3.98424 0.87876 0
M  V30 8496 H 795.934 -3.65567 1.98328 0
M  V30 8497 H 794.511 -3.72585 0.153157 0
M  V30 8498 N 796.696 -0.74468 -1.38897 0
M  V30 8499 C 797.945 -0.293716 -1.9955 0
M  V30 8500 C 798.258 1.12831 -1.59777 0
M  V30 8501 O 799.464 1.67929 -2.13336 0
M  V30 8502 C 797.92 -0.474188 -3.56762 0
M  V30 8503 C 797.528 -1.90472 -4.05493 0
M  V30 8504 C 799.272 -0.0854875 -4.24414 0
M  V30 8505 C 797.179 -2.03423 -5.55314 0
M  V30 8506 H 796.109 -0.106066 -0.746502 0
M  V30 8507 H 798.76 -0.919948 -1.58774 0
M  V30 8508 H 797.142 0.221092 -3.95382 0
M  V30 8509 H 798.316 -2.63274 -3.78184 0
M  V30 8510 H 796.631 -2.24752 -3.50536 0
M  V30 8511 H 799.228 -0.161133 -5.34457 0
M  V30 8512 H 799.571 0.96066 -4.05064 0
M  V30 8513 H 800.104 -0.732286 -3.91002 0
M  V30 8514 H 796.843 -3.0626 -5.79556 0
M  V30 8515 H 796.363 -1.3507 -5.84394 0
M  V30 8516 H 798.042 -1.81996 -6.20876 0
M  V30 8517 N 798.174 1.49689 -0.493057 0
M  V30 8518 C 799.106 2.26867 0.326195 0
M  V30 8519 C 800.119 1.33083 0.937697 0
M  V30 8520 O 801.308 1.58427 0.822382 0
M  V30 8521 C 798.408 3.0519 1.4735 0
M  V30 8522 C 797.581 4.26491 0.970767 0
M  V30 8523 C 796.64 4.86926 1.99473 0
M  V30 8524 O 795.666 5.47221 1.56647 0
M  V30 8525 N 796.868 4.75871 3.32456 0
M  V30 8526 H 799.633 2.97816 -0.335547 0
M  V30 8527 H 797.194 1.58602 -0.325129 0
M  V30 8528 H 799.186 3.42496 2.15589 0
M  V30 8529 H 797.756 2.369 2.03954 0
M  V30 8530 H 796.976 3.94036 0.113529 0
M  V30 8531 H 798.264 5.05092 0.613156 0
M  V30 8532 H 797.662 4.2797 3.69944 0
M  V30 8533 H 796.219 5.17383 3.96431 0
M  V30 8534 N 799.652 0.226554 1.55963 0
M  V30 8535 C 800.584 -0.713907 2.17798 0
M  V30 8536 C 801.597 -1.15387 1.14846 0
M  V30 8537 O 802.786 -1.08416 1.41804 0
M  V30 8538 C 799.886 -1.97945 2.75084 0
M  V30 8539 C 799.059 -1.69424 4.03255 0
M  V30 8540 C 798.118 -2.80734 4.45056 0
M  V30 8541 O 797.144 -2.4899 5.11852 0
M  V30 8542 N 798.346 -4.09797 4.11152 0
M  V30 8543 H 801.111 -0.18494 2.99129 0
M  V30 8544 H 798.672 0.0457346 1.61835 0
M  V30 8545 H 800.664 -2.71611 3.00016 0
M  V30 8546 H 799.234 -2.41876 1.98027 0
M  V30 8547 H 798.454 -0.793767 3.86126 0
M  V30 8548 H 799.742 -1.47806 4.86858 0
M  V30 8549 H 799.14 -4.38429 3.57486 0
M  V30 8550 H 797.697 -4.79992 4.40966 0
M  V30 8551 N 801.13 -1.57531 -0.0467866 0
M  V30 8552 C 802.379 -1.87632 -0.740069 0
M  V30 8553 C 802.692 -0.822691 -1.77457 0
M  V30 8554 O 803.898 -1.01235 -2.5192 0
M  V30 8555 C 802.354 -3.32917 -1.36727 0
M  V30 8556 C 801.962 -4.46469 -0.370035 0
M  V30 8557 C 803.706 -3.72189 -2.04146 0
M  V30 8558 C 801.613 -5.82806 -1.00457 0
M  V30 8559 H 800.543 -0.70002 -0.280158 0
M  V30 8560 H 803.194 -1.83499 0.00607151 0
M  V30 8561 H 801.576 -3.31739 -2.16252 0
M  V30 8562 H 802.75 -4.59085 0.397217 0
M  V30 8563 H 801.065 -4.15914 0.201079 0
M  V30 8564 H 803.662 -4.71357 -2.52441 0
M  V30 8565 H 804.005 -3.03268 -2.85192 0
M  V30 8566 H 804.538 -3.75465 -1.3142 0
M  V30 8567 H 801.277 -6.55083 -0.233907 0
M  V30 8568 H 800.797 -5.73944 -1.74209 0
M  V30 8569 H 802.476 -6.28961 -1.51713 0
M  V30 8570 N 802.608 0.318715 -1.54344 0
M  V30 8571 C 803.54 1.41364 -1.80413 0
M  V30 8572 C 804.553 1.47627 -0.686294 0
M  V30 8573 O 805.742 1.50264 -0.963486 0
M  V30 8574 C 802.842 2.79867 -1.91123 0
M  V30 8575 C 802.015 2.96749 -3.21339 0
M  V30 8576 C 801.074 4.15642 -3.22689 0
M  V30 8577 O 800.1 4.08571 -3.96306 0
M  V30 8578 N 801.302 5.25416 -2.46817 0
M  V30 8579 H 804.067 1.19363 -2.74905 0
M  V30 8580 H 801.628 0.508722 -1.537 0
M  V30 8581 H 803.62 3.57619 -1.89448 0
M  V30 8582 H 802.19 2.94896 -1.03706 0
M  V30 8583 H 801.41 2.06257 -3.35934 0
M  V30 8584 H 802.698 3.04927 -4.07304 0
M  V30 8585 H 802.096 5.34037 -1.86605 0
M  V30 8586 H 800.653 6.01569 -2.50915 0
M  V30 8587 N 804.086 1.46499 0.581025 0
M  V30 8588 C 805.326 1.53456 1.35021 0
M  V30 8589 C 805.69 0.182542 1.9113 0
M  V30 8590 O 806.891 0.126874 2.685 0
M  V30 8591 C 805.162 2.60387 2.44812 0
M  V30 8592 S 806.721 2.86762 3.32134 0
M  V30 8593 H 803.539 0.54216 0.459982 0
M  V30 8594 H 806.141 1.83742 0.667754 0
M  V30 8595 H 804.845 3.57253 2.01986 0
M  V30 8596 H 804.376 2.31839 3.17828 0
M  V30 8597 H 806.391 2.2216 4.43688 0
M  V30 8598 N 805.565 -0.825799 1.34232 0
M  V30 8599 C 806.805 -1.59541 1.27773 0
M  V30 8600 C 807.169 -1.91405 -0.150998 0
M  V30 8601 O 808.37 -2.66644 -0.339728 0
M  V30 8602 C 806.641 -2.86183 2.14089 0
M  V30 8603 S 808.2 -3.76751 2.24953 0
M  V30 8604 H 805.018 -0.546871 0.454371 0
M  V30 8605 H 807.62 -0.975677 1.69413 0
M  V30 8606 H 806.324 -2.60767 3.16905 0
M  V30 8607 H 805.855 -3.53155 1.73335 0
M  V30 8608 H 807.87 -4.75442 1.4202 0
M  V30 8609 N 807.043 -1.17915 -1.04565 0
M  V30 8610 C 807.973 -0.925033 -2.14395 0
M  V30 8611 C 808.954 0.135375 -1.6956 0
M  V30 8612 O 810.139 -0.0161774 -1.94193 0
M  V30 8613 C 807.269 -0.444469 -3.44444 0
M  V30 8614 C 806.223 -1.44478 -4.02877 0
M  V30 8615 C 805.549 -0.821933 -5.28345 0
M  V30 8616 C 806.849 -2.81995 -4.39632 0
M  V30 8617 H 808.543 -1.84354 -2.35911 0
M  V30 8618 H 806.089 -0.887806 -1.13375 0
M  V30 8619 H 808.042 -0.254078 -4.20633 0
M  V30 8620 H 806.766 0.509592 -3.226 0
M  V30 8621 H 805.425 -1.62203 -3.28764 0
M  V30 8622 H 805.073 0.139161 -5.02807 0
M  V30 8623 H 804.773 -1.48976 -5.68401 0
M  V30 8624 H 806.297 -0.641959 -6.07216 0
M  V30 8625 H 807.711 -2.67952 -5.06828 0
M  V30 8626 H 806.108 -3.45414 -4.90723 0
M  V30 8627 H 807.178 -3.35927 -3.49687 0
M  V30 8628 N 808.521 1.23394 -0.980386 0
M  V30 8629 C 809.798 1.87242 -0.565667 0
M  V30 8630 C 810.178 1.88151 0.957197 0
M  V30 8631 O 809.526 1.36309 1.8339 0
M  V30 8632 C 809.736 3.28743 -1.17172 0
M  V30 8633 C 811.084 4.05335 -1.26446 0
M  V30 8634 O 812.108 3.37962 -1.12517 0
M  V30 8635 O 810.967 5.25908 -1.48604 0
M  V30 8636 H 808.061 0.80477 -0.190459 0
M  V30 8637 H 810.607 1.3127 -1.07547 0
M  V30 8638 H 809.379 3.22647 -2.21392 0
M  V30 8639 H 809.002 3.92305 -0.646739 0
M  V30 8640 N 809.999 0.752036 1.385 0
M  V30 8641 C 810.946 0.123288 2.3047 0
M  V30 8642 C 811.916 -0.711326 1.50098 0
M  V30 8643 O 813.101 -0.667775 1.78733 0
M  V30 8644 C 810.241 -0.765085 3.36512 0
M  V30 8645 C 809.354 0.0839885 4.31918 0
M  V30 8646 C 808.489 -0.807243 5.25031 0
M  V30 8647 C 807.528 0.0455583 6.12083 0
M  V30 8648 N 806.665 -0.802547 6.97498 0
M  V30 8649 H 811.505 0.913169 2.83664 0
M  V30 8650 H 809.042 0.46195 1.39658 0
M  V30 8651 H 811 -1.29476 3.966 0
M  V30 8652 H 809.63 -1.52077 2.84732 0
M  V30 8653 H 808.682 0.731276 3.73305 0
M  V30 8654 H 809.994 0.74265 4.9324 0
M  V30 8655 H 809.148 -1.40414 5.90228 0
M  V30 8656 H 807.887 -1.49964 4.64071 0
M  V30 8657 H 806.892 0.655137 5.45883 0
M  V30 8658 H 808.117 0.734994 6.75111 0
M  V30 8659 H 806.063 -1.47992 6.39089 0
M  V30 8660 H 805.98 -0.200747 7.55733 0
M  V30 8661 H 807.248 -1.38447 7.67107 0
M  V30 8662 N 811.477 -1.49425 0.500989 0
M  V30 8663 C 812.41 -2.25887 -0.324087 0
M  V30 8664 C 813.388 -1.30469 -0.970388 0
M  V30 8665 O 814.572 -1.59758 -1.00049 0
M  V30 8666 C 811.699 -3.05787 -1.45643 0
M  V30 8667 C 810.745 -4.16359 -0.924508 0
M  V30 8668 S 811.578 -5.35181 0.184707 0
M  V30 8669 C 812.734 -6.18636 -0.950806 0
M  V30 8670 H 812.967 -2.95519 0.324891 0
M  V30 8671 H 810.5 -1.51723 0.286289 0
M  V30 8672 H 812.458 -3.52405 -2.10525 0
M  V30 8673 H 811.119 -2.35624 -2.07703 0
M  V30 8674 H 810.312 -4.71781 -1.77311 0
M  V30 8675 H 809.914 -3.72331 -0.352907 0
M  V30 8676 H 812.206 -6.51581 -1.85603 0
M  V30 8677 H 813.149 -7.06761 -0.435212 0
M  V30 8678 H 813.557 -5.512 -1.21813 0
M  V30 8679 N 812.955 -0.234822 -1.55841 0
M  V30 8680 C 813.903 0.686145 -2.22249 0
M  V30 8681 C 814.897 1.18948 -1.20614 0
M  V30 8682 O 816.103 1.14777 -1.38659 0
M  V30 8683 H 812.478 0.239724 -0.712767 0
M  V30 8684 H 814.449 0.102762 -2.98223 0
M  V30 8685 C 813.198 1.8776 -2.92646 0
M  V30 8686 H 812.521 1.49943 -3.70617 0
M  V30 8687 H 813.961 2.4995 -3.42493 0
M  V30 8688 C 812.42 2.74127 -1.95847 0
M  V30 8689 O 812.95 3.7329 -1.48384 0
M  V30 8690 N 811.156 2.4044 -1.63209 0
M  V30 8691 H 810.703 1.59854 -2.02001 0
M  V30 8692 H 810.661 2.98504 -0.987063 0
M  V30 8693 N 814.433 1.57553 0.0384317 0
M  V30 8694 C 815.68 1.88841 0.731116 0
M  V30 8695 C 816.008 0.83093 1.75857 0
M  V30 8696 O 815.263 -0.169248 1.94967 0
M  V30 8697 C 815.562 3.26862 1.44554 0
M  V30 8698 C 815.228 4.47472 0.554946 0
M  V30 8699 C 813.89 4.80203 0.309621 0
M  V30 8700 C 816.242 5.21165 -0.0605204 0
M  V30 8701 C 813.57 5.8402 -0.560101 0
M  V30 8702 C 815.922 6.25905 -0.91789 0
M  V30 8703 C 814.586 6.57117 -1.17277 0
M  V30 8704 H 813.856 0.691018 0.267534 0
M  V30 8705 H 816.503 1.91498 -0.00883195 0
M  V30 8706 H 814.808 3.2015 2.25856 0
M  V30 8707 H 816.505 3.48316 1.98688 0
M  V30 8708 H 813.095 4.21874 0.756304 0
M  V30 8709 H 817.279 4.96164 0.116064 0
M  V30 8710 H 812.535 6.06583 -0.765974 0
M  V30 8711 H 816.709 6.82155 -1.40136 0
M  V30 8712 H 814.336 7.37385 -1.84843 0
M  V30 8713 N 815.911 -0.310526 1.54511 0
M  V30 8714 C 817.16 -1.0445 1.72549 0
M  V30 8715 C 817.473 -1.88748 0.513172 0
M  V30 8716 O 818.679 -2.65338 0.575165 0
M  V30 8717 C 817.135 -1.90665 3.05246 0
M  V30 8718 C 816.743 -1.11415 4.33925 0
M  V30 8719 C 818.487 -2.63719 3.32645 0
M  V30 8720 C 816.394 -1.96852 5.57677 0
M  V30 8721 H 815.324 -0.393676 0.643067 0
M  V30 8722 H 817.975 -0.302003 1.80998 0
M  V30 8723 H 816.357 -2.68864 2.90737 0
M  V30 8724 H 817.531 -0.378956 4.59239 0
M  V30 8725 H 815.846 -0.499853 4.13389 0
M  V30 8726 H 818.443 -3.27974 4.223 0
M  V30 8727 H 818.786 -3.32047 2.51098 0
M  V30 8728 H 819.319 -1.92574 3.48081 0
M  V30 8729 H 816.058 -1.33009 6.41864 0
M  V30 8730 H 815.578 -2.68069 5.36562 0
M  V30 8731 H 817.257 -2.55127 5.94575 0
M  V30 8732 N 817.389 -1.46805 -0.573248 0
M  V30 8733 C 818.619 -1.55965 -1.35494 0
M  V30 8734 C 819.027 -0.203038 -1.88107 0
M  V30 8735 O 818.37 0.81138 -1.6481 0
M  V30 8736 C 818.432 -2.51168 -2.57206 0
M  V30 8737 C 818.096 -3.97211 -2.25993 0
M  V30 8738 C 819.093 -4.86155 -1.84254 0
M  V30 8739 C 816.778 -4.42419 -2.37846 0
M  V30 8740 C 818.772 -6.18323 -1.54776 0
M  V30 8741 C 816.459 -5.74619 -2.0798 0
M  V30 8742 C 817.457 -6.62392 -1.66511 0
M  V30 8743 O 817.145 -7.92137 -1.37016 0
M  V30 8744 H 816.877 -0.529748 -0.419932 0
M  V30 8745 H 819.431 -1.92998 -0.702914 0
M  V30 8746 H 817.661 -2.09171 -3.25245 0
M  V30 8747 H 819.35 -2.50631 -3.19279 0
M  V30 8748 H 820.116 -4.52481 -1.74603 0
M  V30 8749 H 815.995 -3.74319 -2.69085 0
M  V30 8750 H 819.539 -6.8679 -1.22334 0
M  V30 8751 H 815.436 -6.0784 -2.17258 0
M  V30 8752 H 816.204 -8.04492 -1.50782 0
M  V30 8753 N 818.867 0.818669 -1.34668 0
M  V30 8754 C 819.814 1.92983 -1.26595 0
M  V30 8755 C 820.784 1.65506 -0.140315 0
M  V30 8756 O 821.969 1.88063 -0.322005 0
M  V30 8757 C 819.109 3.2932 -1.03163 0
M  V30 8758 C 818.222 3.69061 -2.24539 0
M  V30 8759 C 817.357 4.94368 -1.94355 0
M  V30 8760 C 816.396 5.26702 -3.11851 0
M  V30 8761 N 815.533 6.43187 -2.81522 0
M  V30 8762 H 820.373 1.99219 -2.2162 0
M  V30 8763 H 817.91 0.974612 -1.1018 0
M  V30 8764 H 819.868 4.07897 -0.87613 0
M  V30 8765 H 818.498 3.22584 -0.118045 0
M  V30 8766 H 817.55 2.85842 -2.50995 0
M  V30 8767 H 818.862 3.88924 -3.12313 0
M  V30 8768 H 818.016 5.80742 -1.75566 0
M  V30 8769 H 816.755 4.76515 -1.03848 0
M  V30 8770 H 815.76 4.38823 -3.31231 0
M  V30 8771 H 816.985 5.46492 -4.03142 0
M  V30 8772 H 814.931 6.26783 -1.93596 0
M  V30 8773 H 814.848 6.63243 -3.62829 0
M  V30 8774 H 816.116 7.32621 -2.66247 0
M  V30 8775 N 820.346 1.18468 1.03938 0
M  V30 8776 C 821.278 0.870615 2.12021 0
M  V30 8777 C 822.291 -0.132318 1.62261 0
M  V30 8778 O 823.48 0.0956901 1.78243 0
M  V30 8779 C 820.58 0.279727 3.37744 0
M  V30 8780 C 819.753 1.32863 4.16733 0
M  V30 8781 C 818.812 0.753204 5.20781 0
M  V30 8782 O 817.838 1.42825 5.5099 0
M  V30 8783 N 819.04 -0.448664 5.78764 0
M  V30 8784 H 821.805 1.80091 2.39556 0
M  V30 8785 H 819.366 1.08524 1.20142 0
M  V30 8786 H 821.358 -0.118829 4.04526 0
M  V30 8787 H 819.928 -0.554621 3.07641 0
M  V30 8788 H 819.148 1.90245 3.45254 0
M  V30 8789 H 820.436 2.03574 4.66299 0
M  V30 8790 H 819.834 -1.01481 5.56523 0
M  V30 8791 H 818.391 -0.789125 6.47005 0
M  V30 8792 N 821.824 -1.22873 0.986916 0
M  V30 8793 C 823.071 -1.91462 0.659424 0
M  V30 8794 C 823.399 -1.76931 -0.807825 0
M  V30 8795 O 822.654 -1.12829 -1.59901 0
M  V30 8796 C 822.953 -3.43014 1.00379 0
M  V30 8797 C 822.619 -3.77731 2.46232 0
M  V30 8798 C 821.281 -3.86918 2.86091 0
M  V30 8799 C 823.633 -3.94343 3.40798 0
M  V30 8800 C 820.961 -4.10149 4.19518 0
M  V30 8801 C 823.313 -4.19076 4.73875 0
M  V30 8802 C 821.977 -4.26486 5.13484 0
M  V30 8803 H 821.247 -0.700611 0.2413 0
M  V30 8804 H 823.894 -1.45763 1.24199 0
M  V30 8805 H 822.199 -3.90329 0.339226 0
M  V30 8806 H 823.896 -3.94327 0.728518 0
M  V30 8807 H 820.486 -3.71159 2.14334 0
M  V30 8808 H 824.67 -3.86629 3.11178 0
M  V30 8809 H 819.926 -4.1411 4.49803 0
M  V30 8810 H 824.1 -4.30873 5.47102 0
M  V30 8811 H 821.727 -4.4424 6.16891 0
M  V30 8812 N 823.302 -0.75937 -1.38099 0
M  V30 8813 C 824.249 -0.135508 -2.30402 0
M  V30 8814 C 825.219 0.703356 -1.50473 0
M  V30 8815 O 826.404 0.658287 -1.79084 0
M  V30 8816 C 823.544 0.747228 -3.36913 0
M  V30 8817 C 822.657 -0.106893 -4.31868 0
M  V30 8818 C 821.792 0.779388 -5.25451 0
M  V30 8819 C 820.831 -0.0780179 -6.1205 0
M  V30 8820 N 819.968 0.765545 -6.97914 0
M  V30 8821 H 824.808 -0.9282 -2.83176 0
M  V30 8822 H 822.345 -0.46935 -1.39411 0
M  V30 8823 H 824.303 1.27371 -3.97281 0
M  V30 8824 H 822.933 1.50565 -2.85535 0
M  V30 8825 H 821.985 -0.751063 -3.72912 0
M  V30 8826 H 823.297 -0.768798 -4.9284 0
M  V30 8827 H 822.451 1.37282 -5.90964 0
M  V30 8828 H 821.19 1.47501 -4.6486 0
M  V30 8829 H 820.195 -0.684078 -5.45528 0
M  V30 8830 H 821.42 -0.770786 -6.74712 0
M  V30 8831 H 819.366 1.44601 -6.39864 0
M  V30 8832 H 819.283 0.160666 -7.55829 0
M  V30 8833 H 820.551 1.34377 -7.6783 0
M  V30 8834 N 824.78 1.49157 -0.508906 0
M  V30 8835 C 825.727 2.2927 0.265288 0
M  V30 8836 C 826.697 1.3603 0.953162 0
M  V30 8837 O 827.882 1.64989 0.958291 0
M  V30 8838 C 825.022 3.18897 1.31904 0
M  V30 8839 C 824.135 4.27201 0.642144 0
M  V30 8840 C 823.27 5.04033 1.67701 0
M  V30 8841 C 822.309 6.04165 0.982422 0
M  V30 8842 N 821.446 6.74133 1.96186 0
M  V30 8843 H 826.286 2.94967 -0.424107 0
M  V30 8844 H 823.823 1.45431 -0.220991 0
M  V30 8845 H 825.781 3.69242 1.94206 0
M  V30 8846 H 824.411 2.55168 1.97709 0
M  V30 8847 H 823.463 3.80283 -0.0943395 0
M  V30 8848 H 824.775 4.98708 0.0957507 0
M  V30 8849 H 823.929 5.58287 2.37487 0
M  V30 8850 H 822.668 4.32317 2.25728 0
M  V30 8851 H 821.673 5.49135 0.270378 0
M  V30 8852 H 822.898 6.7787 0.408554 0
M  V30 8853 H 820.844 6.05183 2.53159 0
M  V30 8854 H 820.761 7.41643 1.46634 0
M  V30 8855 H 822.029 7.32987 2.65236 0
M  V30 8856 N 826.258 0.243083 1.55714 0
M  V30 8857 C 827.483 -0.389944 2.03701 0
M  V30 8858 C 827.908 -1.51025 1.12129 0
M  V30 8859 O 827.266 -1.80944 0.11352 0
M  V30 8860 C 827.314 -0.878649 3.49731 0
M  V30 8861 O 826.418 -1.98851 3.61292 0
M  V30 8862 H 825.759 -0.0855115 0.658471 0
M  V30 8863 H 828.289 0.368023 2.01263 0
M  V30 8864 H 828.299 -1.18287 3.90477 0
M  V30 8865 H 826.974 -0.0588107 4.15858 0
M  V30 8866 H 825.551 -1.68928 3.32442 0
M  V30 8867 N 827.736 -1.57571 -0.0300757 0
M  V30 8868 C 829.152 -1.54869 -0.385703 0
M  V30 8869 C 829.352 -0.969068 -1.76667 0
M  V30 8870 O 828.408 -0.589676 -2.45518 0
M  V30 8871 C 829.721 -2.99313 -0.288482 0
M  V30 8872 C 831.269 -3.10857 -0.365638 0
M  V30 8873 C 831.744 -4.5703 -0.297878 0
M  V30 8874 N 833.235 -4.61825 -0.356703 0
M  V30 8875 C 833.97 -5.72466 -0.327146 0
M  V30 8876 N 833.466 -6.92349 -0.249941 0
M  V30 8877 N 835.259 -5.60836 -0.376801 0
M  V30 8878 H 827.41 -1.936 0.87367 0
M  V30 8879 H 829.673 -0.887924 0.332106 0
M  V30 8880 H 829.379 -3.45443 0.66047 0
M  V30 8881 H 829.253 -3.61332 -1.08253 0
M  V30 8882 H 831.64 -2.64676 -1.30502 0
M  V30 8883 H 831.721 -2.51671 0.457744 0
M  V30 8884 H 831.365 -5.03879 0.637835 0
M  V30 8885 H 831.295 -5.14127 -1.13935 0
M  V30 8886 H 833.786 -3.75571 -0.418926 0
M  V30 8887 H 834.099 -7.7245 -0.23246 0
M  V30 8888 H 832.444 -6.94664 -0.216004 0
M  V30 8889 H 835.635 -4.66073 -0.435101 0
M  V30 8890 H 835.808 -6.47052 -0.350298 0
M  V30 8891 N 829.214 0.302327 -1.54673 0
M  V30 8892 C 830.147 1.39738 -1.80412 0
M  V30 8893 C 831.125 1.48813 -0.655241 0
M  V30 8894 O 832.309 1.65895 -0.89505 0
M  V30 8895 C 829.436 2.7766 -1.93966 0
M  V30 8896 C 828.482 2.86014 -3.16383 0
M  V30 8897 S 829.315 2.48246 -4.74483 0
M  V30 8898 C 830.471 3.88198 -4.90971 0
M  V30 8899 H 830.704 1.17696 -2.73011 0
M  V30 8900 H 828.237 0.500364 -1.46068 0
M  V30 8901 H 830.195 3.571 -2.0246 0
M  V30 8902 H 828.856 2.96971 -1.02307 0
M  V30 8903 H 828.049 3.87174 -3.22664 0
M  V30 8904 H 827.651 2.14568 -3.06328 0
M  V30 8905 H 829.943 4.83181 -4.74913 0
M  V30 8906 H 830.886 3.86887 -5.93063 0
M  V30 8907 H 831.294 3.78139 -4.19131 0
M  V30 8908 N 830.692 1.47107 0.565454 0
M  V30 8909 C 832.108 1.32443 0.890566 0
M  V30 8910 C 832.308 0.308735 1.99121 0
M  V30 8911 O 831.364 -0.28265 2.50913 0
M  V30 8912 C 832.677 2.71548 1.2916 0
M  V30 8913 C 834.225 2.7977 1.40349 0
M  V30 8914 C 834.7 4.19497 1.83811 0
M  V30 8915 N 836.191 4.21998 1.90975 0
M  V30 8916 C 836.926 5.2702 2.25916 0
M  V30 8917 N 836.422 6.42353 2.59527 0
M  V30 8918 N 838.215 5.14393 2.26619 0
M  V30 8919 H 830.366 2.11786 -0.161328 0
M  V30 8920 H 832.629 0.947952 -0.00950631 0
M  V30 8921 H 832.335 3.47265 0.556753 0
M  V30 8922 H 832.209 3.02782 2.24951 0
M  V30 8923 H 834.596 2.0433 2.12916 0
M  V30 8924 H 834.677 2.522 0.427655 0
M  V30 8925 H 834.321 4.95439 1.11816 0
M  V30 8926 H 834.251 4.44486 2.82382 0
M  V30 8927 H 836.742 3.38791 1.6742 0
M  V30 8928 H 837.055 7.18252 2.85191 0
M  V30 8929 H 835.4 6.45687 2.57126 0
M  V30 8930 H 838.591 4.2332 1.99794 0
M  V30 8931 H 838.764 5.96349 2.5352 0
M  V30 8932 N 832.17 -0.811516 1.35101 0
M  V30 8933 C 833.581 -1.38515 1.25182 0
M  V30 8934 C 833.932 -1.95846 -0.117883 0
M  V30 8935 O 833.057 -1.90925 -1.01866 0
M  V30 8936 C 833.652 -2.51813 2.26662 0
M  V30 8937 C 832.211 -3.05052 2.20499 0
M  V30 8938 C 831.358 -1.77987 2.12641 0
M  V30 8939 H 834.309 -0.614959 1.46301 0
M  V30 8940 H 834.33 -3.30228 1.89023 0
M  V30 8941 H 833.842 -2.10057 3.2634 0
M  V30 8942 H 831.943 -3.51285 1.24215 0
M  V30 8943 H 832.056 -3.63368 3.1225 0
M  V30 8944 H 830.42 -1.99342 1.5854 0
M  V30 8945 H 831.203 -1.38389 3.14171 0
M  V30 8946 N 833.648 -1.19017 -1.03309 0
M  V30 8947 C 834.896 -0.988258 -1.76289 0
M  V30 8948 C 835.217 0.482557 -1.88935 0
M  V30 8949 O 834.487 1.34969 -1.41987 0
M  V30 8950 H 833.067 -0.36267 -0.653054 0
M  V30 8951 H 835.729 -1.49836 -1.2464 0
M  V30 8952 H 834.825 -1.43273 -2.77271 0
M  V30 8953 N 835.127 1.22348 -0.993418 0
M  V30 8954 C 836.057 2.26584 -0.564088 0
M  V30 8955 C 837.038 1.65102 0.409298 0
M  V30 8956 O 838.223 1.91872 0.299819 0
M  V30 8957 C 835.353 3.47087 0.121554 0
M  V30 8958 C 834.307 4.21009 -0.770429 0
M  V30 8959 C 833.633 5.34678 0.0481586 0
M  V30 8960 C 834.933 4.79636 -2.06752 0
M  V30 8961 H 836.627 2.62749 -1.43538 0
M  V30 8962 H 834.173 1.26303 -0.691628 0
M  V30 8963 H 836.126 4.19166 0.433303 0
M  V30 8964 H 834.85 3.1002 1.0274 0
M  V30 8965 H 833.509 3.50764 -1.06583 0
M  V30 8966 H 833.157 4.93852 0.954933 0
M  V30 8967 H 832.857 5.85061 -0.545641 0
M  V30 8968 H 834.381 6.09573 0.353991 0
M  V30 8969 H 835.795 5.43654 -1.81969 0
M  V30 8970 H 834.192 5.4036 -2.61019 0
M  V30 8971 H 835.262 3.99659 -2.74592 0
M  V30 8972 N 836.605 0.766683 1.37694 0
M  V30 8973 C 837.853 0.328065 1.9942 0
M  V30 8974 C 838.174 -1.09775 1.61166 0
M  V30 8975 O 837.444 -1.75288 0.874686 0
M  V30 8976 H 836.024 0.11831 0.737572 0
M  V30 8977 H 838.686 0.983686 1.68255 0
M  V30 8978 H 837.782 0.401647 3.09505 0
M  V30 8979 N 838.083 -1.48885 0.516809 0
M  V30 8980 C 839.313 -2.06592 -0.018375 0
M  V30 8981 C 839.721 -1.37543 -1.29917 0
M  V30 8982 O 839.064 -0.452527 -1.78039 0
M  V30 8983 C 839.126 -3.58016 -0.326315 0
M  V30 8984 C 838.79 -4.48853 0.859072 0
M  V30 8985 C 839.787 -4.89422 1.75391 0
M  V30 8986 C 837.472 -4.90937 1.06235 0
M  V30 8987 C 839.466 -5.70831 2.83604 0
M  V30 8988 C 837.153 -5.72119 2.14763 0
M  V30 8989 C 838.151 -6.11972 3.03281 0
M  V30 8990 O 837.839 -6.91527 4.09934 0
M  V30 8991 H 837.571 -0.675559 0.0244023 0
M  V30 8992 H 840.125 -1.92442 0.718005 0
M  V30 8993 H 838.355 -3.70231 -1.1165 0
M  V30 8994 H 840.044 -3.97898 -0.801999 0
M  V30 8995 H 840.81 -4.57542 1.60875 0
M  V30 8996 H 836.689 -4.59409 0.382677 0
M  V30 8997 H 840.233 -6.01857 3.52724 0
M  V30 8998 H 836.13 -6.03412 2.29268 0
M  V30 8999 H 836.898 -7.0986 4.07482 0
M  V30 9000 N 839.561 -0.251338 -1.55583 0
M  V30 9001 C 840.509 0.662534 -2.22965 0
M  V30 9002 C 841.503 1.17662 -1.21869 0
M  V30 9003 O 842.709 1.133 -1.39868 0
M  V30 9004 H 839.084 0.232151 -0.715269 0
M  V30 9005 H 841.055 0.0711252 -2.98315 0
M  V30 9006 C 839.804 1.84646 -2.94621 0
M  V30 9007 H 839.127 1.46003 -3.72187 0
M  V30 9008 H 840.567 2.46303 -3.45124 0
M  V30 9009 C 839.026 2.72034 -1.98744 0
M  V30 9010 O 839.556 3.71695 -1.52335 0
M  V30 9011 N 837.762 2.38695 -1.6575 0
M  V30 9012 H 837.309 1.57702 -2.03685 0
M  V30 9013 H 837.267 2.9744 -1.01867 0
M  V30 9014 N 841.039 1.57585 0.0217189 0
M  V30 9015 C 841.949 2.10444 1.03684 0
M  V30 9016 C 842.965 1.04472 1.39146 0
M  V30 9017 O 844.141 1.36249 1.48317 0
M  V30 9018 C 841.206 2.5794 2.31664 0
M  V30 9019 C 840.267 3.78425 2.02714 0
M  V30 9020 C 839.5 4.23646 3.24592 0
M  V30 9021 O 839.723 3.6834 4.35525 0
M  V30 9022 O 838.657 5.16013 3.09862 0
M  V30 9023 H 842.483 2.97354 0.617584 0
M  V30 9024 H 840.068 1.47473 0.239174 0
M  V30 9025 H 841.95 2.88785 3.06889 0
M  V30 9026 H 840.625 1.74138 2.7287 0
M  V30 9027 H 839.532 3.52587 1.25033 0
M  V30 9028 H 840.865 4.63234 1.66359 0
M  V30 9029 N 842.517 -0.29412 1.54831 0
M  V30 9030 C 843.427 -1.3854 1.89325 0
M  V30 9031 C 844.443 -1.55127 0.788133 0
M  V30 9032 O 845.619 -1.6966 1.08524 0
M  V30 9033 C 842.684 -2.72809 2.13954 0
M  V30 9034 C 841.745 -2.65148 3.37631 0
M  V30 9035 C 840.978 -3.93014 3.61076 0
M  V30 9036 O 841.201 -4.927 2.87406 0
M  V30 9037 O 840.135 -3.94491 4.54599 0
M  V30 9038 H 843.961 -1.12289 2.82179 0
M  V30 9039 H 841.546 -0.490793 1.41108 0
M  V30 9040 H 843.428 -3.52238 2.31315 0
M  V30 9041 H 842.103 -2.9889 1.24285 0
M  V30 9042 H 841.01 -1.84168 3.25627 0
M  V30 9043 H 842.343 -2.4402 4.27452 0
M  V30 9044 N 843.995 -1.47404 -0.557645 0
M  V30 9045 C 844.927 -1.55917 -1.67995 0
M  V30 9046 C 845.94 -0.445411 -1.56588 0
M  V30 9047 O 847.129 -0.714999 -1.63554 0
M  V30 9048 C 844.229 -1.44697 -3.06457 0
M  V30 9049 C 843.402 -2.70633 -3.43622 0
M  V30 9050 C 842.461 -2.53256 -4.61246 0
M  V30 9051 O 841.487 -3.27068 -4.65849 0
M  V30 9052 N 842.689 -1.61053 -5.57711 0
M  V30 9053 H 845.454 -2.52694 -1.61139 0
M  V30 9054 H 843.015 -1.43778 -0.744271 0
M  V30 9055 H 845.007 -1.30806 -3.82978 0
M  V30 9056 H 843.577 -0.560039 -3.07542 0
M  V30 9057 H 842.797 -2.99288 -2.56555 0
M  V30 9058 H 844.085 -3.5424 -3.65228 0
M  V30 9059 H 843.483 -1.00235 -5.56749 0
M  V30 9060 H 842.04 -1.53115 -6.33561 0
M  V30 9061 N 845.473 0.80434 -1.35529 0
M  V30 9062 C 846.722 1.55665 -1.28263 0
M  V30 9063 C 847.035 1.95096 0.140352 0
M  V30 9064 O 848.241 2.69422 0.335303 0
M  V30 9065 C 846.697 2.80935 -2.24952 0
M  V30 9066 C 846.305 2.48733 -3.72607 0
M  V30 9067 C 848.049 3.5894 -2.26632 0
M  V30 9068 C 845.956 3.70308 -4.61114 0
M  V30 9069 H 844.886 0.584301 -0.476559 0
M  V30 9070 H 847.537 0.88395 -1.60806 0
M  V30 9071 H 845.919 3.49927 -1.85383 0
M  V30 9072 H 847.093 1.87733 -4.20824 0
M  V30 9073 H 845.408 1.83969 -3.73557 0
M  V30 9074 H 848.005 4.49244 -2.89973 0
M  V30 9075 H 848.348 3.96433 -1.27069 0
M  V30 9076 H 848.881 2.96912 -2.64742 0
M  V30 9077 H 845.62 3.37922 -5.61684 0
M  V30 9078 H 845.14 4.30526 -4.17621 0
M  V30 9079 H 846.819 4.37511 -4.76648 0
M  V30 9080 N 846.951 1.19563 1.02676 0
M  V30 9081 C 847.901 0.903055 2.09354 0
M  V30 9082 C 848.885 -0.133009 1.60349 0
M  V30 9083 O 850.077 0.0729744 1.7685 0
M  V30 9084 C 847.206 0.445852 3.40392 0
M  V30 9085 C 846.292 1.51477 3.96126 0
M  V30 9086 N 846.683 2.73474 4.25495 0
M  V30 9087 C 844.981 1.37856 4.2416 0
M  V30 9088 C 845.682 3.42348 4.7029 0
M  V30 9089 N 844.658 2.69746 4.71952 0
M  V30 9090 H 848.46 1.83023 2.29956 0
M  V30 9091 H 845.974 1.08812 1.20556 0
M  V30 9092 H 847.971 0.21769 4.16331 0
M  V30 9093 H 846.631 -0.47482 3.2121 0
M  V30 9094 H 847.642 3.10217 4.14711 0
M  V30 9095 H 844.319 0.521512 4.1423 0
M  V30 9096 H 845.709 4.46686 5.01917 0
M  V30 9097 N 848.429 -1.21819 0.999893 0
M  V30 9098 C 849.376 -2.24003 0.556005 0
M  V30 9099 C 850.346 -1.60825 -0.415287 0
M  V30 9100 O 851.531 -1.88123 -0.318481 0
M  V30 9101 C 848.671 -3.44904 -0.116289 0
M  V30 9102 C 847.784 -4.22573 0.897574 0
M  V30 9103 C 846.919 -5.30831 0.198073 0
M  V30 9104 C 845.958 -6.00225 1.19983 0
M  V30 9105 N 845.095 -7.00111 0.528157 0
M  V30 9106 H 849.935 -2.61334 1.43208 0
M  V30 9107 H 847.472 -1.28431 0.717205 0
M  V30 9108 H 849.43 -4.13908 -0.523055 0
M  V30 9109 H 848.06 -3.08315 -0.956108 0
M  V30 9110 H 847.112 -3.52797 1.42262 0
M  V30 9111 H 848.424 -4.70363 1.66013 0
M  V30 9112 H 847.578 -6.06121 -0.265065 0
M  V30 9113 H 846.317 -4.84033 -0.596924 0
M  V30 9114 H 845.322 -5.23711 1.67353 0
M  V30 9115 H 846.547 -6.4911 1.99582 0
M  V30 9116 H 844.493 -6.55534 -0.247276 0
M  V30 9117 H 844.41 -7.45943 1.22904 0
M  V30 9118 H 845.678 -7.7945 0.0880543 0
M  V30 9119 N 849.908 -0.773975 -1.37286 0
M  V30 9120 C 850.838 -0.175782 -2.32837 0
M  V30 9121 C 851.819 0.680603 -1.5589 0
M  V30 9122 O 853.004 0.617607 -1.84117 0
M  V30 9123 C 850.134 0.702388 -3.40123 0
M  V30 9124 C 849.088 -0.0528687 -4.27967 0
M  V30 9125 C 848.414 0.944891 -5.26285 0
M  V30 9126 C 849.714 -1.23316 -5.07534 0
M  V30 9127 H 851.408 -0.974016 -2.83114 0
M  V30 9128 H 848.954 -0.469826 -1.3612 0
M  V30 9129 H 850.907 1.13069 -4.05947 0
M  V30 9130 H 849.631 1.53316 -2.88378 0
M  V30 9131 H 848.29 -0.461978 -3.63678 0
M  V30 9132 H 847.938 1.77028 -4.70819 0
M  V30 9133 H 847.638 0.444079 -5.8592 0
M  V30 9134 H 849.162 1.37209 -5.94984 0
M  V30 9135 H 850.576 -0.881395 -5.66484 0
M  V30 9136 H 848.973 -1.66621 -5.76504 0
M  V30 9137 H 850.043 -2.03617 -4.40077 0
M  V30 9138 N 851.386 1.48609 -0.524698 0
M  V30 9139 C 852.663 1.95454 0.075465 0
M  V30 9140 C 853.043 1.46682 1.51814 0
M  V30 9141 O 852.391 0.690975 2.17802 0
M  V30 9142 C 852.601 3.48981 -0.0363273 0
M  V30 9143 C 853.949 4.24414 0.125624 0
M  V30 9144 O 854.973 3.5618 0.0377239 0
M  V30 9145 O 853.832 5.45625 0.309104 0
M  V30 9146 H 850.926 0.822902 0.0822256 0
M  V30 9147 H 853.472 1.59153 -0.588921 0
M  V30 9148 H 852.244 3.77185 -1.04149 0
M  V30 9149 H 851.867 3.91963 0.667146 0
M  V30 9150 N 852.864 0.259585 1.55447 0
M  V30 9151 C 853.811 -0.634578 2.21905 0
M  V30 9152 C 854.781 -1.16168 1.18719 0
M  V30 9153 O 855.966 -1.21383 1.4721 0
M  V30 9154 C 853.106 -1.82005 2.93203 0
M  V30 9155 C 852.219 -1.32828 4.11073 0
M  V30 9156 C 851.354 -2.47431 4.70055 0
M  V30 9157 C 850.393 -1.95179 5.80148 0
M  V30 9158 N 849.53 -3.03197 6.33258 0
M  V30 9159 H 854.37 -0.0611886 2.97937 0
M  V30 9160 H 851.907 -0.0184378 1.47088 0
M  V30 9161 H 853.865 -2.51664 3.32748 0
M  V30 9162 H 852.495 -2.36571 2.19622 0
M  V30 9163 H 851.547 -0.525301 3.76756 0
M  V30 9164 H 852.859 -0.905435 4.90513 0
M  V30 9165 H 852.013 -3.25111 5.12238 0
M  V30 9166 H 850.752 -2.93023 3.89857 0
M  V30 9167 H 849.757 -1.15974 5.37429 0
M  V30 9168 H 850.982 -1.50541 6.62204 0
M  V30 9169 H 848.928 -3.48199 5.55961 0
M  V30 9170 H 848.845 -2.65282 7.07928 0
M  V30 9171 H 850.113 -3.80898 6.80101 0
M  V30 9172 N 854.342 -1.57594 -0.0133615 0
M  V30 9173 C 855.588 -1.90262 -0.702019 0
M  V30 9174 C 855.921 -0.859219 -1.74158 0
M  V30 9175 O 855.196 0.123778 -1.94106 0
M  V30 9176 C 855.479 -3.3354 -1.35732 0
M  V30 9177 C 855.332 -4.48586 -0.330208 0
M  V30 9178 C 856.651 -3.76004 -2.28712 0
M  V30 9179 H 853.77 -0.691943 -0.253739 0
M  V30 9180 H 856.412 -1.89967 0.0351894 0
M  V30 9181 H 854.562 -3.33921 -1.98567 0
M  V30 9182 H 856.234 -4.6034 0.297433 0
M  V30 9183 H 854.477 -4.32394 0.348926 0
M  V30 9184 H 855.148 -5.45762 -0.827508 0
M  V30 9185 H 857.624 -3.77089 -1.75906 0
M  V30 9186 H 856.5 -4.77032 -2.71535 0
M  V30 9187 H 856.761 -3.09129 -3.16056 0
M  V30 9188 N 855.82 0.285905 -1.54985 0
M  V30 9189 C 856.768 1.37302 -1.87752 0
M  V30 9190 C 857.762 1.51763 -0.752616 0
M  V30 9191 O 858.968 1.53701 -0.936805 0
M  V30 9192 H 855.343 0.458935 -0.59572 0
M  V30 9193 H 857.314 1.0691 -2.78591 0
M  V30 9194 C 856.063 2.72885 -2.15474 0
M  V30 9195 H 855.386 2.62545 -3.01513 0
M  V30 9196 H 856.826 3.47925 -2.42331 0
M  V30 9197 C 855.285 3.22989 -0.958124 0
M  V30 9198 O 855.815 4.01268 -0.186219 0
M  V30 9199 N 854.021 2.80503 -0.759354 0
M  V30 9200 H 853.568 2.16961 -1.38874 0
M  V30 9201 H 853.526 3.14375 0.0396937 0
M  V30 9202 N 857.298 1.47698 0.54982 0
M  V30 9203 C 858.545 1.54702 1.30665 0
M  V30 9204 C 858.873 0.212418 1.93337 0
M  V30 9205 O 858.128 -0.79543 1.78805 0
M  V30 9206 C 858.427 2.61903 2.4319 0
M  V30 9207 C 858.093 4.04953 1.98302 0
M  V30 9208 C 856.755 4.43893 1.85776 0
M  V30 9209 C 859.107 4.94682 1.64133 0
M  V30 9210 C 856.435 5.70387 1.37388 0
M  V30 9211 C 858.787 6.21646 1.17214 0
M  V30 9212 C 857.451 6.5946 1.0329 0
M  V30 9213 H 856.721 0.566096 0.478139 0
M  V30 9214 H 859.368 1.8133 0.615767 0
M  V30 9215 H 857.673 2.2906 3.17866 0
M  V30 9216 H 859.37 2.64543 3.0136 0
M  V30 9217 H 855.96 3.74191 2.08995 0
M  V30 9218 H 860.144 4.65291 1.72679 0
M  V30 9219 H 855.4 5.98427 1.25278 0
M  V30 9220 H 859.574 6.90581 0.898391 0
M  V30 9221 H 857.201 7.57367 0.655735 0
M  V30 9222 N 858.776 -0.797141 1.35954 0
M  V30 9223 C 860.001 -1.59097 1.33053 0
M  V30 9224 C 860.426 -1.87897 -0.0874592 0
M  V30 9225 O 859.784 -1.47291 -1.05712 0
M  V30 9226 C 859.832 -2.89346 2.152 0
M  V30 9227 O 858.936 -3.826 1.5392 0
M  V30 9228 H 858.277 -0.482895 0.45575 0
M  V30 9229 H 860.807 -0.988633 1.79129 0
M  V30 9230 H 860.817 -3.38686 2.27499 0
M  V30 9231 H 859.492 -2.6771 3.18283 0
M  V30 9232 H 858.069 -3.41174 1.50516 0
M  V30 9233 N 860.254 -1.20106 -1.0204 0
M  V30 9234 C 861.204 -0.914145 -2.08872 0
M  V30 9235 C 862.188 0.124503 -1.60418 0
M  V30 9236 O 863.38 -0.0823521 -1.76808 0
M  V30 9237 C 860.509 -0.463897 -3.40151 0
M  V30 9238 C 859.595 -1.53576 -3.95317 0
M  V30 9239 N 859.986 -2.75726 -4.24038 0
M  V30 9240 C 858.284 -1.40103 -4.23423 0
M  V30 9241 C 858.985 -3.44838 -4.68468 0
M  V30 9242 N 857.961 -2.72245 -4.70514 0
M  V30 9243 H 861.763 -1.8424 -2.28982 0
M  V30 9244 H 859.277 -1.0945 -1.19977 0
M  V30 9245 H 861.274 -0.239766 -4.1621 0
M  V30 9246 H 859.934 0.457779 -3.21457 0
M  V30 9247 H 860.945 -3.12412 -4.13061 0
M  V30 9248 H 857.622 -0.543472 -4.13948 0
M  V30 9249 H 859.012 -4.49342 -4.99541 0
M  V30 9250 N 861.732 1.21287 -1.00634 0
M  V30 9251 C 862.662 2.25973 -0.588089 0
M  V30 9252 C 863.643 1.65527 0.391764 0
M  V30 9253 O 864.828 1.92179 0.279452 0
M  V30 9254 C 861.958 3.47197 0.0847336 0
M  V30 9255 C 860.912 4.20168 -0.815039 0
M  V30 9256 C 860.238 5.34699 -0.00855393 0
M  V30 9257 C 861.538 4.77416 -2.11828 0
M  V30 9258 H 863.232 2.61212 -1.46317 0
M  V30 9259 H 860.778 1.25563 -0.704985 0
M  V30 9260 H 862.731 4.19602 0.388821 0
M  V30 9261 H 861.455 3.11092 0.994456 0
M  V30 9262 H 860.114 3.49614 -1.10297 0
M  V30 9263 H 859.762 4.94837 0.902499 0
M  V30 9264 H 859.462 5.84449 -0.607664 0
M  V30 9265 H 860.986 6.09914 0.289317 0
M  V30 9266 H 862.4 5.41694 -1.87725 0
M  V30 9267 H 860.797 5.37561 -2.66736 0
M  V30 9268 H 861.867 3.96724 -2.78816 0
M  V30 9269 N 863.21 0.781244 1.36873 0
M  V30 9270 C 864.173 0.180094 2.28491 0
M  V30 9271 C 865.173 -0.617798 1.48458 0
M  V30 9272 O 866.363 -0.439991 1.68552 0
M  V30 9273 C 863.495 -0.751741 3.32508 0
M  V30 9274 H 864.688 0.987837 2.83164 0
M  V30 9275 H 862.241 0.550102 1.463 0
M  V30 9276 H 862.976 -1.58413 2.82977 0
M  V30 9277 H 862.761 -0.181649 3.91679 0
M  V30 9278 H 864.251 -1.16748 4.00949 0
M  V30 9279 N 864.689 -1.48329 0.532571 0
M  V30 9280 C 865.636 -2.29663 -0.228779 0
M  V30 9281 C 866.606 -1.37529 -0.931401 0
M  V30 9282 O 867.791 -1.66493 -0.931921 0
M  V30 9283 C 864.931 -3.20955 -1.26814 0
M  V30 9284 C 864.044 -4.28168 -0.574099 0
M  V30 9285 C 863.179 -5.06638 -1.59661 0
M  V30 9286 C 862.218 -6.05651 -0.88618 0
M  V30 9287 N 861.355 -6.77169 -1.85436 0
M  V30 9288 H 866.195 -2.94255 0.47098 0
M  V30 9289 H 863.732 -1.45061 0.2441 0
M  V30 9290 H 865.69 -3.72285 -1.88307 0
M  V30 9291 H 864.32 -2.58281 -1.93625 0
M  V30 9292 H 863.372 -3.80085 0.154827 0
M  V30 9293 H 864.684 -4.98797 -0.0163984 0
M  V30 9294 H 863.838 -5.61995 -2.28576 0
M  V30 9295 H 862.577 -4.35854 -2.18821 0
M  V30 9296 H 861.582 -5.49495 -0.182981 0
M  V30 9297 H 862.807 -6.78434 -0.300659 0
M  V30 9298 H 860.753 -6.09134 -2.43499 0
M  V30 9299 H 860.67 -7.43882 -1.34816 0
M  V30 9300 H 861.938 -7.37114 -2.53541 0
M  V30 9301 N 866.167 -0.267825 -1.55308 0
M  V30 9302 C 867.583 0.0865107 -1.59365 0
M  V30 9303 C 867.783 1.55205 -1.28505 0
M  V30 9304 O 866.839 2.29978 -1.04241 0
M  V30 9305 C 868.152 -0.28155 -2.99379 0
M  V30 9306 C 869.7 -0.227565 -3.12172 0
M  V30 9307 C 870.175 -0.569959 -4.5444 0
M  V30 9308 N 871.666 -0.521238 -4.60258 0
M  V30 9309 C 872.401 -0.759061 -5.68354 0
M  V30 9310 N 871.897 -1.06112 -6.84626 0
M  V30 9311 N 873.69 -0.688351 -5.57869 0
M  V30 9312 H 865.841 -1.22332 -1.73633 0
M  V30 9313 H 868.104 -0.493703 -0.809297 0
M  V30 9314 H 867.81 -1.3005 -3.26772 0
M  V30 9315 H 867.684 0.381192 -3.75269 0
M  V30 9316 H 870.071 0.782093 -2.84548 0
M  V30 9317 H 870.152 -0.924461 -2.38511 0
M  V30 9318 H 869.796 -1.57727 -4.82788 0
M  V30 9319 H 869.726 0.148646 -5.2639 0
M  V30 9320 H 872.217 -0.297359 -3.76728 0
M  V30 9321 H 872.53 -1.22945 -7.62958 0
M  V30 9322 H 870.875 -1.09881 -6.86259 0
M  V30 9323 H 874.066 -0.452268 -4.6591 0
M  V30 9324 H 874.239 -0.877081 -6.42037 0
M  V30 9325 N 867.645 1.57599 0.00500368 0
M  V30 9326 C 868.575 2.11143 0.99705 0
M  V30 9327 C 869.556 1.0194 1.3617 0
M  V30 9328 O 870.741 1.29596 1.44632 0
M  V30 9329 C 867.871 2.61062 2.2905 0
M  V30 9330 C 866.825 3.74745 2.0676 0
M  V30 9331 C 866.151 4.10961 3.42075 0
M  V30 9332 C 867.451 5.02222 1.43424 0
M  V30 9333 H 869.145 2.94281 0.551251 0
M  V30 9334 H 866.691 1.41565 0.263715 0
M  V30 9335 H 868.644 2.97146 2.98801 0
M  V30 9336 H 867.368 1.75038 2.75734 0
M  V30 9337 H 866.027 3.39047 1.39436 0
M  V30 9338 H 865.675 3.21968 3.86453 0
M  V30 9339 H 865.375 4.87549 3.27979 0
M  V30 9340 H 866.899 4.49599 4.1315 0
M  V30 9341 H 868.313 5.36109 2.03125 0
M  V30 9342 H 866.71 5.83581 1.39831 0
M  V30 9343 H 867.78 4.83224 0.40285 0
M  V30 9344 N 869.123 -0.277682 1.55134 0
M  V30 9345 C 870.053 -1.34742 1.90701 0
M  V30 9346 C 871.034 -1.51757 0.768354 0
M  V30 9347 O 872.219 -1.64879 1.02609 0
M  V30 9348 C 869.349 -2.70775 2.17481 0
M  V30 9349 C 868.303 -2.68497 3.33307 0
M  V30 9350 C 867.629 -4.08037 3.45557 0
M  V30 9351 C 868.929 -2.28178 4.69821 0
M  V30 9352 H 870.623 -1.05224 2.803 0
M  V30 9353 H 868.169 -0.504738 1.34864 0
M  V30 9354 H 870.122 -3.45719 2.40949 0
M  V30 9355 H 868.846 -3.01867 1.24676 0
M  V30 9356 H 867.505 -1.9601 3.09799 0
M  V30 9357 H 867.153 -4.36344 2.50226 0
M  V30 9358 H 866.853 -4.07409 4.23429 0
M  V30 9359 H 868.377 -4.84726 3.71312 0
M  V30 9360 H 869.791 -2.92843 4.92865 0
M  V30 9361 H 868.188 -2.3872 5.50575 0
M  V30 9362 H 869.258 -1.23308 4.6896 0
M  V30 9363 N 870.601 -1.47988 -0.541979 0
M  V30 9364 C 871.533 -1.5769 -1.66332 0
M  V30 9365 C 872.546 -0.461994 -1.56107 0
M  V30 9366 O 873.735 -0.732306 -1.62787 0
M  V30 9367 C 870.835 -1.47939 -3.04905 0
M  V30 9368 C 870.008 -2.74263 -3.40733 0
M  V30 9369 C 869.067 -2.58133 -4.58534 0
M  V30 9370 O 868.093 -3.31991 -4.62354 0
M  V30 9371 N 869.295 -1.6696 -5.55972 0
M  V30 9372 H 872.06 -2.54389 -1.5845 0
M  V30 9373 H 869.621 -1.4456 -0.728979 0
M  V30 9374 H 871.613 -1.34861 -3.81569 0
M  V30 9375 H 870.183 -0.592626 -3.06931 0
M  V30 9376 H 869.403 -3.01992 -2.53366 0
M  V30 9377 H 870.691 -3.58094 -3.6145 0
M  V30 9378 H 870.089 -1.06134 -5.55655 0
M  V30 9379 H 868.646 -1.59826 -6.31901 0
M  V30 9380 N 872.079 0.78992 -1.36375 0
M  V30 9381 C 873.325 1.55007 -1.3077 0
M  V30 9382 C 873.658 1.93871 0.112979 0
M  V30 9383 O 872.933 1.6267 1.06625 0
M  V30 9384 C 873.216 2.82748 -2.22993 0
M  V30 9385 C 873.069 2.50253 -3.73756 0
M  V30 9386 C 874.388 3.84569 -2.13998 0
M  V30 9387 H 871.507 0.562362 -0.476359 0
M  V30 9388 H 874.149 0.907582 -1.66922 0
M  V30 9389 H 872.299 3.37573 -1.92292 0
M  V30 9390 H 873.971 2.01482 -4.14973 0
M  V30 9391 H 872.214 1.83203 -3.93216 0
M  V30 9392 H 872.885 3.41487 -4.33694 0
M  V30 9393 H 875.361 3.39188 -2.4102 0
M  V30 9394 H 874.237 4.717 -2.80697 0
M  V30 9395 H 874.498 4.27491 -1.12711 0
M  V30 9396 N 873.557 1.20646 1.01402 0
M  V30 9397 C 874.804 1.01819 1.7504 0
M  V30 9398 C 875.132 -0.449386 1.89237 0
M  V30 9399 O 874.387 -1.34985 1.41695 0
M  V30 9400 C 874.686 1.64991 3.17037 0
M  V30 9401 C 874.352 3.14808 3.22811 0
M  V30 9402 C 873.014 3.55692 3.24094 0
M  V30 9403 C 875.366 4.108 3.2077 0
M  V30 9404 C 872.694 4.9109 3.2101 0
M  V30 9405 C 875.046 5.46147 3.19227 0
M  V30 9406 C 873.71 5.86441 3.18815 0
M  V30 9407 H 872.98 0.372582 0.640518 0
M  V30 9408 H 875.627 1.50108 1.18911 0
M  V30 9409 H 873.932 1.08971 3.76341 0
M  V30 9410 H 875.629 1.47937 3.72714 0
M  V30 9411 H 872.219 2.8224 3.2255 0
M  V30 9412 H 876.403 3.80246 3.18946 0
M  V30 9413 H 871.659 5.21569 3.19023 0
M  V30 9414 H 875.833 6.20272 3.166 0
M  V30 9415 H 873.46 6.91328 3.16179 0
M  V30 9416 N 875.035 -1.20752 1.01276 0
M  V30 9417 C 875.967 -2.22798 0.537917 0
M  V30 9418 C 876.98 -1.5836 -0.377638 0
M  V30 9419 O 878.169 -1.77624 -0.176599 0
M  V30 9420 C 875.269 -3.38068 -0.237364 0
M  V30 9421 C 874.442 -4.32095 0.679161 0
M  V30 9422 C 873.501 -5.26178 -0.0478676 0
M  V30 9423 O 872.527 -5.66305 0.573366 0
M  V30 9424 N 873.729 -5.65201 -1.32396 0
M  V30 9425 H 876.494 -2.64166 1.4155 0
M  V30 9426 H 874.055 -1.35254 0.889826 0
M  V30 9427 H 876.047 -3.98009 -0.73288 0
M  V30 9428 H 874.617 -2.95622 -1.0162 0
M  V30 9429 H 873.837 -3.70179 1.35505 0
M  V30 9430 H 875.125 -4.91842 1.30263 0
M  V30 9431 H 874.523 -5.34606 -1.84968 0
M  V30 9432 H 873.08 -6.27468 -1.76428 0
M  V30 9433 N 876.513 -0.788492 -1.36457 0
M  V30 9434 C 877.423 -0.187385 -2.3385 0
M  V30 9435 C 878.439 0.659984 -1.60998 0
M  V30 9436 O 879.615 0.575986 -1.92988 0
M  V30 9437 C 876.68 0.668525 -3.40194 0
M  V30 9438 C 875.741 -0.197234 -4.28847 0
M  V30 9439 C 874.974 0.61792 -5.30111 0
M  V30 9440 O 875.197 1.85396 -5.3943 0
M  V30 9441 O 874.131 0.0183016 -6.01897 0
M  V30 9442 H 877.957 -0.992617 -2.87021 0
M  V30 9443 H 875.542 -0.549934 -1.3891 0
M  V30 9444 H 877.424 1.15663 -4.05216 0
M  V30 9445 H 876.099 1.45166 -2.89324 0
M  V30 9446 H 875.006 -0.73207 -3.66867 0
M  V30 9447 H 876.339 -0.943863 -4.83065 0
M  V30 9448 N 877.991 1.48044 -0.54043 0
M  V30 9449 C 878.901 2.33565 0.220163 0
M  V30 9450 C 879.917 1.47146 0.928659 0
M  V30 9451 O 881.093 1.80107 0.901295 0
M  V30 9452 C 878.158 3.2349 1.2472 0
M  V30 9453 C 877.219 4.25789 0.547938 0
M  V30 9454 C 876.452 5.11417 1.52605 0
M  V30 9455 O 876.675 4.99204 2.75956 0
M  V30 9456 O 875.609 5.92498 1.05972 0
M  V30 9457 H 879.435 2.99868 -0.480898 0
M  V30 9458 H 877.02 1.46332 -0.301226 0
M  V30 9459 H 878.902 3.79084 1.84047 0
M  V30 9460 H 877.577 2.59835 1.93048 0
M  V30 9461 H 876.484 3.74001 -0.0860941 0
M  V30 9462 H 877.817 4.92111 -0.0935896 0
M  V30 9463 N 879.47 0.276058 1.55163 0
M  V30 9464 C 880.71 -0.341634 2.01525 0
M  V30 9465 C 881.074 -1.52979 1.16023 0
M  V30 9466 O 882.275 -2.21718 1.51968 0
M  V30 9467 C 880.546 -0.713294 3.5021 0
M  V30 9468 S 882.105 -1.31739 4.18558 0
M  V30 9469 H 878.923 -0.1062 0.703024 0
M  V30 9470 H 881.525 0.398112 1.91404 0
M  V30 9471 H 880.229 0.160311 4.10087 0
M  V30 9472 H 879.76 -1.48448 3.64317 0
M  V30 9473 H 881.775 -2.60595 4.22261 0
M  V30 9474 N 880.948 -1.576 0.00335426 0
M  V30 9475 C 882.194 -1.90996 -0.681799 0
M  V30 9476 C 882.527 -0.877643 -1.73237 0
M  V30 9477 O 881.802 0.103183 -1.94226 0
M  V30 9478 C 882.085 -3.34961 -1.32187 0
M  V30 9479 C 881.938 -4.48911 -0.28261 0
M  V30 9480 C 883.257 -3.78408 -2.24711 0
M  V30 9481 H 880.376 -0.694596 -0.246386 0
M  V30 9482 H 883.018 -1.89919 0.055336 0
M  V30 9483 H 881.168 -3.36008 -1.95014 0
M  V30 9484 H 882.84 -4.59999 0.346241 0
M  V30 9485 H 881.083 -4.32 0.394768 0
M  V30 9486 H 881.754 -5.46609 -0.769576 0
M  V30 9487 H 884.23 -3.78934 -1.71897 0
M  V30 9488 H 883.106 -4.79885 -2.66461 0
M  V30 9489 H 883.367 -3.12464 -3.1276 0
M  V30 9490 N 882.426 0.269451 -1.5528 0
M  V30 9491 C 883.358 1.35553 -1.84819 0
M  V30 9492 C 884.371 1.45369 -0.732914 0
M  V30 9493 O 885.56 1.47122 -1.0108 0
M  V30 9494 C 882.66 2.73645 -1.9993 0
M  V30 9495 C 881.833 2.86376 -3.30617 0
M  V30 9496 C 880.892 4.05165 -3.35749 0
M  V30 9497 O 879.918 3.95756 -4.09104 0
M  V30 9498 N 881.12 5.17297 -2.63408 0
M  V30 9499 H 883.885 1.10557 -2.78563 0
M  V30 9500 H 881.446 0.459566 -1.5524 0
M  V30 9501 H 883.438 3.51411 -2.00729 0
M  V30 9502 H 882.008 2.91448 -1.13035 0
M  V30 9503 H 881.228 1.95465 -3.42326 0
M  V30 9504 H 882.516 2.91815 -4.16799 0
M  V30 9505 H 881.914 5.2783 -2.03501 0
M  V30 9506 H 880.471 5.93281 -2.69927 0
M  V30 9507 N 883.904 1.48273 0.534124 0
M  V30 9508 C 884.851 1.62487 1.6391 0
M  V30 9509 C 885.821 0.467062 1.59398 0
M  V30 9510 O 887.006 0.690029 1.77885 0
M  V30 9511 C 884.146 1.66671 3.02183 0
M  V30 9512 C 883.259 2.9353 3.16961 0
M  V30 9513 C 882.394 2.88902 4.45768 0
M  V30 9514 C 881.433 4.10483 4.54059 0
M  V30 9515 N 880.57 4.03956 5.74251 0
M  V30 9516 H 885.41 2.56851 1.51101 0
M  V30 9517 H 882.947 1.27381 0.735704 0
M  V30 9518 H 884.905 1.67079 3.82283 0
M  V30 9519 H 883.535 0.758011 3.13774 0
M  V30 9520 H 882.587 3.02886 2.3014 0
M  V30 9521 H 883.899 3.83501 3.18949 0
M  V30 9522 H 883.053 2.87688 5.34154 0
M  V30 9523 H 881.792 1.96652 4.46295 0
M  V30 9524 H 880.797 4.11977 3.64081 0
M  V30 9525 H 882.022 5.03887 4.55274 0
M  V30 9526 H 879.968 3.14525 5.75682 0
M  V30 9527 H 879.885 4.87628 5.77715 0
M  V30 9528 H 881.153 4.06795 6.64935 0
M  V30 9529 N 885.382 -0.782676 1.36792 0
M  V30 9530 C 886.612 -1.56934 1.3437 0
M  V30 9531 C 887.02 -1.89049 -0.0754828 0
M  V30 9532 O 886.363 -1.51103 -1.04467 0
M  V30 9533 C 886.425 -2.91311 2.10661 0
M  V30 9534 C 886.089 -2.81889 3.59705 0
M  V30 9535 C 887.086 -2.53668 4.53815 0
M  V30 9536 C 884.771 -3.00254 4.02682 0
M  V30 9537 C 886.765 -2.43925 5.8888 0
M  V30 9538 C 884.452 -2.90132 5.37835 0
M  V30 9539 C 885.45 -2.62006 6.30747 0
M  V30 9540 O 885.138 -2.5189 7.63418 0
M  V30 9541 H 884.87 -0.493194 0.462316 0
M  V30 9542 H 887.424 -0.978791 1.80579 0
M  V30 9543 H 885.654 -3.52443 1.59125 0
M  V30 9544 H 887.343 -3.52632 2.01012 0
M  V30 9545 H 888.109 -2.39176 4.21924 0
M  V30 9546 H 883.988 -3.21151 3.30731 0
M  V30 9547 H 887.532 -2.21892 6.6137 0
M  V30 9548 H 883.429 -3.04189 5.69332 0
M  V30 9549 H 884.197 -2.67321 7.73616 0
M  V30 9550 N 886.86 -1.21182 -1.00761 0
M  V30 9551 C 887.792 -0.926523 -2.09638 0
M  V30 9552 C 888.805 0.0892511 -1.62555 0
M  V30 9553 O 889.994 -0.142915 -1.77927 0
M  V30 9554 C 887.094 -0.369175 -3.36883 0
M  V30 9555 C 886.267 -1.43866 -4.13063 0
M  V30 9556 C 885.326 -0.891015 -5.18601 0
M  V30 9557 O 884.352 -1.57384 -5.47009 0
M  V30 9558 N 885.554 0.295057 -5.7975 0
M  V30 9559 H 888.319 -1.8638 -2.34697 0
M  V30 9560 H 885.88 -1.11671 -1.17223 0
M  V30 9561 H 887.872 0.011534 -4.04698 0
M  V30 9562 H 886.442 0.472861 -3.09003 0
M  V30 9563 H 885.662 -1.99332 -3.40089 0
M  V30 9564 H 886.95 -2.15866 -4.60738 0
M  V30 9565 H 886.348 0.8669 -5.59018 0
M  V30 9566 H 884.905 0.617306 -6.4887 0
M  V30 9567 N 888.338 1.20213 -1.01915 0
M  V30 9568 C 889.301 2.21307 -0.596327 0
M  V30 9569 C 890.301 1.57274 0.334879 0
M  V30 9570 O 891.491 1.73764 0.12322 0
M  V30 9571 C 888.623 3.40657 0.128808 0
M  V30 9572 H 889.816 2.60228 -1.49068 0
M  V30 9573 H 887.369 1.33721 -0.809226 0
M  V30 9574 H 888.104 3.07241 1.03796 0
M  V30 9575 H 887.889 3.88361 -0.540183 0
M  V30 9576 H 889.379 4.15564 0.411892 0
M  V30 9577 N 889.816 0.795718 1.36037 0
M  V30 9578 C 891.041 0.38204 2.03851 0
M  V30 9579 C 891.466 -0.995553 1.59594 0
M  V30 9580 O 890.824 -1.64258 0.767401 0
M  V30 9581 C 890.872 0.461248 3.57638 0
M  V30 9582 O 889.976 -0.529448 4.08987 0
M  V30 9583 H 889.317 0.161227 0.644129 0
M  V30 9584 H 891.847 1.07858 1.73861 0
M  V30 9585 H 891.857 0.32712 4.06687 0
M  V30 9586 H 890.532 1.46613 3.89201 0
M  V30 9587 H 889.109 -0.35646 3.71192 0
M  V30 9588 N 891.294 -1.47756 0.548274 0
M  V30 9589 C 892.224 -2.32702 -0.19284 0
M  V30 9590 C 893.205 -1.43237 -0.917457 0
M  V30 9591 O 894.39 -1.72103 -0.89967 0
M  V30 9592 C 891.52 -3.24831 -1.22891 0
M  V30 9593 C 890.474 -4.23466 -0.621312 0
M  V30 9594 C 889.8 -5.04856 -1.76137 0
M  V30 9595 C 891.1 -5.20616 0.419055 0
M  V30 9596 H 892.794 -2.94914 0.516323 0
M  V30 9597 H 890.34 -1.41818 0.24975 0
M  V30 9598 H 892.293 -3.83094 -1.75547 0
M  V30 9599 H 891.017 -2.60656 -1.9679 0
M  V30 9600 H 889.676 -3.66416 -0.116123 0
M  V30 9601 H 889.324 -4.37091 -2.48918 0
M  V30 9602 H 889.024 -5.71629 -1.36065 0
M  V30 9603 H 890.548 -5.65976 -2.29136 0
M  V30 9604 H 891.962 -5.73296 -0.0211034 0
M  V30 9605 H 890.359 -5.95543 0.738163 0
M  V30 9606 H 891.429 -4.66638 1.31822 0
M  V30 9607 N 892.772 -0.284283 -1.55015 0
M  V30 9608 C 894.018 0.330352 -2.00091 0
M  V30 9609 C 894.351 1.54814 -1.17244 0
M  V30 9610 O 893.626 1.92954 -0.244753 0
M  V30 9611 C 893.909 0.703492 -3.53161 0
M  V30 9612 C 893.762 -0.522275 -4.46758 0
M  V30 9613 C 895.081 1.53645 -4.12409 0
M  V30 9614 H 892.2 0.118599 -0.727395 0
M  V30 9615 H 894.842 -0.393054 -1.8589 0
M  V30 9616 H 892.992 1.31983 -3.65394 0
M  V30 9617 H 894.664 -1.16082 -4.46456 0
M  V30 9618 H 892.907 -1.15865 -4.1804 0
M  V30 9619 H 893.578 -0.217295 -5.51572 0
M  V30 9620 H 896.054 1.01583 -4.0351 0
M  V30 9621 H 894.93 1.76633 -5.19704 0
M  V30 9622 H 895.191 2.5204 -3.63219 0
M  V30 9623 N 894.251 1.57596 -0.0117121 0
M  V30 9624 C 895.479 1.9536 0.681334 0
M  V30 9625 C 895.894 0.887255 1.66653 0
M  V30 9626 O 895.251 -0.132692 1.82017 0
M  V30 9627 C 895.302 3.33165 1.40298 0
M  V30 9628 O 895.023 4.35707 0.45728 0
M  V30 9629 C 896.524 3.85458 2.18946 0
M  V30 9630 H 893.744 0.643826 0.189023 0
M  V30 9631 H 896.288 2.04392 -0.066311 0
M  V30 9632 H 894.443 3.25404 2.10216 0
M  V30 9633 H 894.857 5.15495 0.96773 0
M  V30 9634 H 896.331 4.84275 2.64918 0
M  V30 9635 H 896.808 3.18781 3.02118 0
M  V30 9636 H 897.414 3.96431 1.5402 0
M  V30 9637 N 895.729 -0.261212 1.5542 0
M  V30 9638 C 896.679 -1.32571 1.85496 0
M  V30 9639 C 897.663 -1.44155 0.714722 0
M  V30 9640 O 898.855 -1.47637 0.976336 0
M  V30 9641 C 895.984 -2.68384 2.14067 0
M  V30 9642 C 895.07 -2.60864 3.34381 0
M  V30 9643 N 895.461 -2.22967 4.54004 0
M  V30 9644 C 893.759 -2.91904 3.37206 0
M  V30 9645 C 894.46 -2.25727 5.36118 0
M  V30 9646 N 893.436 -2.64667 4.74818 0
M  V30 9647 H 897.238 -1.02298 2.75522 0
M  V30 9648 H 894.752 -0.469849 1.55455 0
M  V30 9649 H 896.749 -3.45189 2.33774 0
M  V30 9650 H 895.409 -2.99536 1.25332 0
M  V30 9651 H 896.42 -1.94748 4.79889 0
M  V30 9652 H 893.097 -3.2769 2.587 0
M  V30 9653 H 894.487 -1.98889 6.41789 0
M  V30 9654 N 897.207 -1.48554 -0.526253 0
M  V30 9655 C 898.455 -1.56452 -1.27935 0
M  V30 9656 C 898.776 -0.24184 -1.93495 0
M  V30 9657 O 898.046 0.736917 -1.81511 0
M  V30 9658 H 896.626 -0.576379 -0.47518 0
M  V30 9659 H 899.288 -1.85039 -0.612083 0
M  V30 9660 H 898.384 -2.34751 -2.05666 0
M  V30 9661 N 898.685 0.775411 -1.37205 0
M  V30 9662 C 899.632 1.88857 -1.32671 0
M  V30 9663 C 900.602 1.64976 -0.192899 0
M  V30 9664 O 901.787 1.86944 -0.381673 0
M  V30 9665 C 898.927 3.25871 -1.13588 0
M  V30 9666 C 898.04 3.61731 -2.36167 0
M  V30 9667 C 897.175 4.87934 -2.09985 0
M  V30 9668 C 896.214 5.16514 -3.2845 0
M  V30 9669 N 895.351 6.33905 -3.01842 0
M  V30 9670 H 900.191 1.92068 -2.27846 0
M  V30 9671 H 897.728 0.939066 -1.13225 0
M  V30 9672 H 899.686 4.04903 -1.00546 0
M  V30 9673 H 898.316 3.22045 -0.220613 0
M  V30 9674 H 897.368 2.77712 -2.59962 0
M  V30 9675 H 898.68 3.78792 -3.24528 0
M  V30 9676 H 897.834 5.74863 -1.93953 0
M  V30 9677 H 896.573 4.7297 -1.18956 0
M  V30 9678 H 895.578 4.28063 -3.45025 0
M  V30 9679 H 896.803 5.33389 -4.20325 0
M  V30 9680 H 894.749 6.20306 -2.13439 0
M  V30 9681 H 894.666 6.51364 -3.83746 0
M  V30 9682 H 895.934 7.23779 -2.8942 0
M  V30 9683 N 900.163 1.21714 1.00117 0
M  V30 9684 C 901.579 0.97532 1.26332 0
M  V30 9685 C 901.779 -0.336029 1.98678 0
M  V30 9686 O 900.835 -1.06073 2.29139 0
M  V30 9687 C 902.148 2.16848 2.0832 0
M  V30 9688 C 903.696 2.21115 2.21533 0
M  V30 9689 C 904.171 3.3996 3.06906 0
M  V30 9690 N 905.662 3.40071 3.14494 0
M  V30 9691 C 906.397 4.28678 3.80818 0
M  V30 9692 N 905.893 5.2749 4.49139 0
M  V30 9693 N 907.686 4.16476 3.77497 0
M  V30 9694 H 899.837 2.06039 0.515897 0
M  V30 9695 H 902.1 0.902423 0.290408 0
M  V30 9696 H 901.806 3.119 1.62515 0
M  V30 9697 H 901.68 2.16226 3.09073 0
M  V30 9698 H 904.067 1.26616 2.66557 0
M  V30 9699 H 904.148 2.2578 1.20238 0
M  V30 9700 H 903.792 4.34755 2.62585 0
M  V30 9701 H 903.722 3.32534 4.08324 0
M  V30 9702 H 906.213 2.68563 2.65861 0
M  V30 9703 H 906.526 5.91397 4.97463 0
M  V30 9704 H 904.871 5.31412 4.47914 0
M  V30 9705 H 908.062 3.38539 3.23278 0
M  V30 9706 H 908.235 4.85739 4.28908 0
M  V30 9707 N 901.641 -1.19671 1.02551 0
M  V30 9708 C 902.574 -2.21522 0.547998 0
M  V30 9709 C 903.552 -1.57363 -0.409349 0
M  V30 9710 O 904.736 -1.85638 -0.327248 0
M  V30 9711 C 901.863 -3.38101 -0.201375 0
M  V30 9712 C 900.909 -4.20601 0.706886 0
M  V30 9713 S 901.742 -4.89066 2.18116 0
M  V30 9714 C 902.898 -6.09058 1.4422 0
M  V30 9715 H 903.131 -2.61684 1.41099 0
M  V30 9716 H 900.664 -1.29864 0.835153 0
M  V30 9717 H 902.622 -4.05674 -0.627607 0
M  V30 9718 H 901.283 -2.96381 -1.04005 0
M  V30 9719 H 900.476 -5.03836 0.128554 0
M  V30 9720 H 900.078 -3.58329 1.07129 0
M  V30 9721 H 902.37 -6.73588 0.726975 0
M  V30 9722 H 903.313 -6.71368 2.25102 0
M  V30 9723 H 903.721 -5.56599 0.941176 0
M  V30 9724 N 903.119 -0.802921 -1.35613 0
M  V30 9725 C 904.535 -0.486214 -1.52014 0
M  V30 9726 C 904.735 0.993219 -1.75321 0
M  V30 9727 O 903.791 1.77835 -1.79251 0
M  V30 9728 C 905.104 -1.32839 -2.69767 0
M  V30 9729 C 906.652 -1.32346 -2.83643 0
M  V30 9730 C 907.127 -2.14967 -4.04417 0
M  V30 9731 N 908.618 -2.12484 -4.11588 0
M  V30 9732 C 909.353 -2.73173 -5.04147 0
M  V30 9733 N 908.849 -3.42774 -6.02061 0
M  V30 9734 N 910.642 -2.62834 -4.96865 0
M  V30 9735 H 902.793 -1.76109 -1.18741 0
M  V30 9736 H 905.056 -0.74936 -0.580658 0
M  V30 9737 H 904.762 -2.37813 -2.5911 0
M  V30 9738 H 904.636 -0.979058 -3.64272 0
M  V30 9739 H 907.023 -0.281586 -2.93753 0
M  V30 9740 H 907.104 -1.71264 -1.90006 0
M  V30 9741 H 906.748 -3.19193 -3.95068 0
M  V30 9742 H 906.678 -1.73411 -4.97228 0
M  V30 9743 H 909.169 -1.61839 -3.41492 0
M  V30 9744 H 909.482 -3.86378 -6.69277 0
M  V30 9745 H 907.827 -3.46878 -6.02246 0
M  V30 9746 H 911.018 -2.08049 -4.19325 0
M  V30 9747 H 911.191 -3.10421 -5.68808 0
M  V30 9748 N 904.597 1.47463 -0.556102 0
M  V30 9749 C 905.843 2.02775 -0.0316806 0
M  V30 9750 C 906.176 1.42967 1.3143 0
M  V30 9751 O 905.451 0.584847 1.85499 0
M  V30 9752 C 905.734 3.60046 0.0625742 0
M  V30 9753 C 905.587 4.30288 -1.31043 0
M  V30 9754 C 906.906 4.33195 0.776553 0
M  V30 9755 H 904.025 0.736886 -0.0129869 0
M  V30 9756 H 906.667 1.75904 -0.718177 0
M  V30 9757 H 904.817 3.83071 0.647231 0
M  V30 9758 H 906.489 4.18607 -1.9382 0
M  V30 9759 H 904.732 3.90685 -1.8854 0
M  V30 9760 H 905.403 5.38861 -1.1972 0
M  V30 9761 H 907.879 4.15156 0.280147 0
M  V30 9762 H 906.755 5.42869 0.81146 0
M  V30 9763 H 907.016 4.02336 1.83244 0
M  V30 9764 N 906.075 0.2925 1.54862 0
M  V30 9765 C 907.321 -0.319736 2.00264 0
M  V30 9766 C 907.654 -1.5419 1.18064 0
M  V30 9767 O 906.929 -1.92821 0.254983 0
M  V30 9768 C 907.212 -0.684753 3.5353 0
M  V30 9769 C 907.065 0.545961 4.46474 0
M  V30 9770 C 908.384 -1.51456 4.13218 0
M  V30 9771 H 905.503 -0.11474 0.728014 0
M  V30 9772 H 908.145 0.402907 1.85679 0
M  V30 9773 H 906.295 -1.30044 3.66089 0
M  V30 9774 H 907.967 1.18448 4.45834 0
M  V30 9775 H 906.21 1.1808 4.1742 0
M  V30 9776 H 906.881 0.246544 5.51449 0
M  V30 9777 H 909.357 -0.994421 4.04043 0
M  V30 9778 H 908.233 -1.73875 5.20633 0
M  V30 9779 H 908.494 -2.5011 3.64551 0
M  V30 9780 N 907.553 -1.57587 0.0200696 0
M  V30 9781 C 908.503 -2.0616 -0.973751 0
M  V30 9782 C 909.487 -0.960282 -1.29102 0
M  V30 9783 O 910.679 -1.22391 -1.27865 0
M  V30 9784 C 907.808 -2.58487 -2.25919 0
M  V30 9785 C 906.894 -3.75533 -1.97068 0
M  V30 9786 N 907.285 -4.86482 -1.38451 0
M  V30 9787 C 905.583 -3.83847 -2.27107 0
M  V30 9788 C 906.284 -5.67773 -1.26527 0
M  V30 9789 N 905.26 -5.14398 -1.75772 0
M  V30 9790 H 909.062 -2.89346 -0.515365 0
M  V30 9791 H 906.576 -1.61341 -0.185163 0
M  V30 9792 H 908.573 -2.91572 -2.97979 0
M  V30 9793 H 907.233 -1.76728 -2.72392 0
M  V30 9794 H 908.244 -5.06922 -1.06069 0
M  V30 9795 H 904.921 -3.12978 -2.76316 0
M  V30 9796 H 906.311 -6.66966 -0.812785 0
M  V30 9797 N 909.032 0.252966 -1.55557 0
M  V30 9798 C 909.942 1.33472 -1.92931 0
M  V30 9799 C 910.958 1.52983 -0.828985 0
M  V30 9800 O 912.134 1.66723 -1.12984 0
M  V30 9801 C 909.199 2.6704 -2.21112 0
M  V30 9802 C 908.26 2.56103 -3.44542 0
M  V30 9803 C 907.493 3.83302 -3.71369 0
M  V30 9804 O 907.716 4.84907 -3.00368 0
M  V30 9805 O 906.65 3.823 -4.64898 0
M  V30 9806 H 910.476 1.04768 -2.85057 0
M  V30 9807 H 908.061 0.453208 -1.4236 0
M  V30 9808 H 909.943 3.45981 -2.40572 0
M  V30 9809 H 908.618 2.95489 -1.32166 0
M  V30 9810 H 907.525 1.7547 -3.30396 0
M  V30 9811 H 908.858 2.32601 -4.33772 0
M  V30 9812 N 910.51 1.48831 0.518367 0
M  V30 9813 C 911.738 1.6112 1.298 0
M  V30 9814 C 912.153 0.275872 1.86774 0
M  V30 9815 O 911.51 -0.736416 1.66983 0
M  V30 9816 C 911.561 2.66675 2.44063 0
M  V30 9817 O 911.282 3.95027 1.89434 0
M  V30 9818 C 912.783 2.8951 3.35706 0
M  V30 9819 H 910.003 0.542916 0.394314 0
M  V30 9820 H 912.547 1.94743 0.624142 0
M  V30 9821 H 910.702 2.35879 3.07311 0
M  V30 9822 H 911.116 4.53031 2.64316 0
M  V30 9823 H 912.59 3.67142 4.12202 0
M  V30 9824 H 913.067 1.98768 3.91648 0
M  V30 9825 H 913.673 3.21656 2.7824 0
M  V30 9826 N 911.988 -0.768124 1.37614 0
M  V30 9827 C 913.404 -1.06919 1.18493 0
M  V30 9828 C 913.604 -2.01486 0.0235753 0
M  V30 9829 O 912.66 -2.4438 -0.635209 0
M  V30 9830 C 913.973 -1.66321 2.50515 0
M  V30 9831 C 915.521 -1.78562 2.57069 0
M  V30 9832 C 915.996 -2.41377 3.89231 0
M  V30 9833 N 917.487 -2.48824 3.90693 0
M  V30 9834 C 918.222 -2.98288 4.89706 0
M  V30 9835 N 917.718 -3.47897 5.99115 0
M  V30 9836 N 919.511 -2.97196 4.77107 0
M  V30 9837 H 911.662 -0.140286 2.11936 0
M  V30 9838 H 913.925 -0.124863 0.939741 0
M  V30 9839 H 913.631 -1.04303 3.35878 0
M  V30 9840 H 913.505 -2.65571 2.67866 0
M  V30 9841 H 915.892 -2.39712 1.72111 0
M  V30 9842 H 915.973 -0.780574 2.43599 0
M  V30 9843 H 915.617 -1.80866 4.74605 0
M  V30 9844 H 915.547 -3.42495 4.00006 0
M  V30 9845 H 918.038 -2.1372 3.1166 0
M  V30 9846 H 918.351 -3.84053 6.70614 0
M  V30 9847 H 916.696 -3.45993 6.02755 0
M  V30 9848 H 919.887 -2.57741 3.90752 0
M  V30 9849 H 920.06 -3.35434 5.54426 0
M  V30 9850 N 913.466 -1.22244 -0.994698 0
M  V30 9851 C 914.414 -0.988118 -2.10568 0
M  V30 9852 C 915.408 0.0681541 -1.69263 0
M  V30 9853 O 916.614 -0.0841311 -1.79803 0
M  V30 9854 H 912.989 -0.302343 -0.688544 0
M  V30 9855 H 914.96 -1.93091 -2.27505 0
M  V30 9856 C 913.709 -0.580557 -3.42819 0
M  V30 9857 H 913.032 -1.385 -3.75044 0
M  V30 9858 H 914.472 -0.456004 -4.21541 0
M  V30 9859 C 912.931 0.709692 -3.2934 0
M  V30 9860 O 913.461 1.76259 -3.60965 0
M  V30 9861 N 911.667 0.680155 -2.82528 0
M  V30 9862 H 911.214 -0.176977 -2.56991 0
M  V30 9863 H 911.172 1.54372 -2.73892 0
M  V30 9864 N 914.944 1.19125 -1.03184 0
M  V30 9865 C 915.894 2.20348 -0.585731 0
M  V30 9866 C 916.878 1.56656 0.367109 0
M  V30 9867 O 918.07 1.76003 0.187598 0
M  V30 9868 C 915.199 3.43249 0.0590006 0
M  V30 9869 C 914.285 4.1408 -0.916457 0
M  V30 9870 N 914.676 4.61051 -2.08005 0
M  V30 9871 C 912.974 4.39809 -0.74054 0
M  V30 9872 C 913.675 5.15477 -2.69552 0
M  V30 9873 N 912.651 5.06456 -1.97493 0
M  V30 9874 H 916.453 2.54346 -1.47259 0
M  V30 9875 H 913.967 1.35232 -0.899225 0
M  V30 9876 H 915.964 4.15013 0.396236 0
M  V30 9877 H 914.624 3.1075 0.941507 0
M  V30 9878 H 915.635 4.55782 -2.45934 0
M  V30 9879 H 912.312 4.17397 0.0926238 0
M  V30 9880 H 913.702 5.62088 -3.68112 0
M  V30 9881 N 916.422 0.810101 1.35185 0
M  V30 9882 C 917.352 0.237453 2.32289 0
M  V30 9883 C 918.333 -0.639032 1.5764 0
M  V30 9884 O 919.518 -0.568575 1.8569 0
M  V30 9885 C 916.648 -0.611964 3.41866 0
M  V30 9886 C 915.602 0.166318 4.27677 0
M  V30 9887 C 914.928 -0.805024 5.28605 0
M  V30 9888 C 916.228 1.36729 5.04086 0
M  V30 9889 H 917.922 1.04874 2.80432 0
M  V30 9890 H 915.468 0.505751 1.34826 0
M  V30 9891 H 917.421 -1.02267 4.08802 0
M  V30 9892 H 916.145 -1.45617 2.92341 0
M  V30 9893 H 914.804 0.558238 3.62325 0
M  V30 9894 H 914.452 -1.64483 4.75347 0
M  V30 9895 H 914.152 -0.288577 5.86891 0
M  V30 9896 H 915.676 -1.21386 5.98413 0
M  V30 9897 H 917.09 1.03128 5.63948 0
M  V30 9898 H 915.487 1.81848 5.71884 0
M  V30 9899 H 916.557 2.15214 4.34524 0
M  V30 9900 N 917.9 -1.47166 0.563914 0
M  V30 9901 C 919.316 -1.58018 0.224173 0
M  V30 9902 C 919.516 -1.56163 -1.27339 0
M  V30 9903 O 918.572 -1.4686 -2.05398 0
M  V30 9904 C 919.885 -2.88236 0.856762 0
M  V30 9905 C 921.433 -3.01833 0.82861 0
M  V30 9906 C 921.908 -4.34761 1.44039 0
M  V30 9907 N 923.399 -4.41413 1.40388 0
M  V30 9908 C 924.134 -5.42845 1.84681 0
M  V30 9909 N 923.63 -6.51052 2.3686 0
M  V30 9910 N 925.423 -5.33931 1.75711 0
M  V30 9911 H 917.574 -1.46615 1.53681 0
M  V30 9912 H 919.837 -0.698195 0.64127 0
M  V30 9913 H 919.543 -2.95349 1.90949 0
M  V30 9914 H 919.417 -3.75537 0.353766 0
M  V30 9915 H 921.804 -2.94312 -0.215451 0
M  V30 9916 H 921.885 -2.16056 1.36943 0
M  V30 9917 H 921.529 -4.43037 2.48355 0
M  V30 9918 H 921.459 -5.1928 0.874953 0
M  V30 9919 H 923.95 -3.63811 1.02227 0
M  V30 9920 H 924.263 -7.24633 2.68564 0
M  V30 9921 H 922.608 -6.51924 2.40875 0
M  V30 9922 H 925.799 -4.48295 1.34718 0
M  V30 9923 H 925.972 -6.12841 2.10547 0
M  V30 9924 N 919.378 -0.300708 -1.54705 0
M  V30 9925 C 920.308 0.568675 -2.26469 0
M  V30 9926 C 921.289 1.13817 -1.26411 0
M  V30 9927 O 922.474 1.16756 -1.55183 0
M  V30 9928 C 919.604 1.74077 -3.00524 0
M  V30 9929 C 918.558 1.30165 -4.07727 0
M  V30 9930 C 917.884 2.55888 -4.69495 0
M  V30 9931 C 919.184 0.433106 -5.20501 0
M  V30 9932 H 920.878 -0.0298851 -2.99385 0
M  V30 9933 H 918.424 -0.0158135 -1.43991 0
M  V30 9934 H 920.377 2.35506 -3.49449 0
M  V30 9935 H 919.101 2.36556 -2.25186 0
M  V30 9936 H 917.76 0.710414 -3.59651 0
M  V30 9937 H 917.408 3.16681 -3.90797 0
M  V30 9938 H 917.108 2.27207 -5.41895 0
M  V30 9939 H 918.632 3.18121 -5.21183 0
M  V30 9940 H 920.046 0.95307 -5.65322 0
M  V30 9941 H 918.443 0.240085 -5.9962 0
M  V30 9942 H 919.513 -0.541866 -4.81863 0
M  V30 9943 N 920.856 1.57574 -0.0284266 0
M  V30 9944 C 922.102 1.92056 0.651327 0
M  V30 9945 C 922.435 0.905092 1.71819 0
M  V30 9946 O 921.71 -0.0722703 1.94366 0
M  V30 9947 C 921.993 3.37021 1.26841 0
M  V30 9948 C 921.846 4.49304 0.211157 0
M  V30 9949 C 923.165 3.81936 2.18662 0
M  V30 9950 H 920.284 0.698428 0.235304 0
M  V30 9951 H 922.926 1.89807 -0.0855435 0
M  V30 9952 H 921.076 3.39068 1.89644 0
M  V30 9953 H 922.748 4.5939 -0.419379 0
M  V30 9954 H 920.991 4.31317 -0.463445 0
M  V30 9955 H 921.662 5.47764 0.682518 0
M  V30 9956 H 924.138 3.8162 1.65847 0
M  V30 9957 H 923.014 4.84064 2.58792 0
M  V30 9958 H 923.275 3.174 3.07749 0
M  V30 9959 N 922.334 -0.244713 1.55689 0
M  V30 9960 C 923.582 -0.970525 1.77272 0
M  V30 9961 C 923.903 -1.85771 0.592804 0
M  V30 9962 O 923.173 -1.91952 -0.391323 0
M  V30 9963 H 921.753 -0.361342 0.653789 0
M  V30 9964 H 924.415 -0.262134 1.93129 0
M  V30 9965 H 923.511 -1.59096 2.68505 0
M  V30 9966 N 923.813 -1.49104 -0.510467 0
M  V30 9967 C 925.053 -1.59723 -1.27545 0
M  V30 9968 C 925.417 -0.273525 -1.90042 0
M  V30 9969 O 926.618 -0.254835 -2.67589 0
M  V30 9970 C 924.889 -2.71771 -2.3211 0
M  V30 9971 S 926.448 -3.02282 -3.18074 0
M  V30 9972 H 923.266 -0.563489 -0.433591 0
M  V30 9973 H 925.868 -1.86719 -0.579328 0
M  V30 9974 H 924.572 -3.66483 -1.84711 0
M  V30 9975 H 924.103 -2.46739 -3.06404 0
M  V30 9976 H 926.118 -2.43076 -4.32583 0
M  V30 9977 N 925.291 0.760815 -1.38019 0
M  V30 9978 C 926.516 1.55513 -1.37224 0
M  V30 9979 C 926.941 1.88062 0.037611 0
M  V30 9980 O 926.299 1.50042 1.0177 0
M  V30 9981 C 926.347 2.83539 -2.22796 0
M  V30 9982 O 925.451 3.78384 -1.64009 0
M  V30 9983 H 924.792 0.470642 -0.468393 0
M  V30 9984 H 927.322 0.940792 -1.81687 0
M  V30 9985 H 927.332 3.32535 -2.36399 0
M  V30 9986 H 926.007 2.59178 -3.25269 0
M  V30 9987 H 924.584 3.37063 -1.59508 0
M  V30 9988 N 926.769 1.22769 0.988202 0
M  V30 9989 C 928.015 1.05665 1.73097 0
M  V30 9990 C 928.348 -0.406615 1.89895 0
M  V30 9991 O 927.623 -1.30132 1.44554 0
M  V30 9992 C 927.906 1.77381 3.13382 0
M  V30 9993 C 927.759 3.31332 3.04203 0
M  V30 9994 C 929.078 1.52999 4.12649 0
M  V30 9995 H 926.197 0.385258 0.628288 0
M  V30 9996 H 928.839 1.51171 1.15097 0
M  V30 9997 H 926.989 1.38696 3.62899 0
M  V30 9998 H 928.661 3.79489 2.6227 0
M  V30 9999 H 926.904 3.60767 2.40894 0
M  V30 10000 H 927.575 3.76692 4.03493 0
M  V30 10001 H 930.051 1.86611 3.71908 0
M  V30 10002 H 928.927 2.05666 5.08913 0
M  V30 10003 H 929.188 0.463615 4.39662 0
M  V30 10004 N 928.247 -1.18576 1.03814 0
M  V30 10005 C 929.21 -2.2033 0.63146 0
M  V30 10006 C 930.21 -1.57787 -0.309816 0
M  V30 10007 O 931.4 -1.73938 -0.0955598 0
M  V30 10008 C 928.532 -3.40818 -0.0745963 0
M  V30 10009 H 929.725 -2.57824 1.53189 0
M  V30 10010 H 927.278 -1.32416 0.830398 0
M  V30 10011 H 928.013 -3.08853 -0.988947 0
M  V30 10012 H 927.798 -3.87453 0.6019 0
M  V30 10013 H 929.288 -4.16166 -0.345727 0
M  V30 10014 N 929.725 -0.817259 -1.34754 0
M  V30 10015 C 930.688 -0.240611 -2.27934 0
M  V30 10016 C 931.688 0.578219 -1.50044 0
M  V30 10017 O 932.878 0.395148 -1.69659 0
M  V30 10018 C 930.01 0.663318 -3.34384 0
M  V30 10019 H 931.203 -1.06257 -2.80445 0
M  V30 10020 H 928.756 -0.588697 -1.4479 0
M  V30 10021 H 929.491 1.50855 -2.87077 0
M  V30 10022 H 929.276 0.0777388 -3.92023 0
M  V30 10023 H 930.766 1.06076 -4.03903 0
M  V30 10024 N 931.203 1.46865 -0.571711 0
M  V30 10025 C 932.443 2.04324 -0.0556487 0
M  V30 10026 C 932.807 1.43486 1.27576 0
M  V30 10027 O 934.008 1.92079 1.8804 0
M  V30 10028 C 932.279 3.57394 0.0206263 0
M  V30 10029 S 933.838 4.36159 0.480709 0
M  V30 10030 H 930.656 0.710273 -0.0321467 0
M  V30 10031 H 933.258 1.8005 -0.761725 0
M  V30 10032 H 931.962 3.99193 -0.952509 0
M  V30 10033 H 931.493 3.86188 0.749812 0
M  V30 10034 H 933.508 4.6478 1.73763 0
M  V30 10035 N 932.681 0.308908 1.54543 0
M  V30 10036 C 933.629 -0.579326 2.2527 0
M  V30 10037 C 934.623 -1.13058 1.26152 0
M  V30 10038 O 935.829 -1.08031 1.43977 0
M  V30 10039 H 932.204 -0.205444 0.723392 0
M  V30 10040 H 934.175 0.0396415 2.98374 0
M  V30 10041 C 932.924 -1.73584 3.01271 0
M  V30 10042 H 932.247 -1.32089 3.77349 0
M  V30 10043 H 933.687 -2.33324 3.54028 0
M  V30 10044 C 932.146 -2.6447 2.08703 0
M  V30 10045 O 932.676 -3.65785 1.66025 0
M  V30 10046 N 930.882 -2.32379 1.74495 0
M  V30 10047 H 930.429 -1.50034 2.09398 0
M  V30 10048 H 930.387 -2.93454 1.12836 0
M  V30 10049 N 934.159 -1.57557 0.0367827 0
M  V30 10050 C 935.387 -1.96419 -0.650168 0
M  V30 10051 C 935.802 -0.913656 -1.6522 0
M  V30 10052 O 935.159 0.103718 -1.82205 0
M  V30 10053 C 935.21 -3.35355 -1.3498 0
M  V30 10054 O 934.931 -4.36379 -0.387905 0
M  V30 10055 C 936.432 -3.88892 -2.12786 0
M  V30 10056 H 933.652 -0.646751 -0.178756 0
M  V30 10057 H 936.196 -2.04261 0.0988197 0
M  V30 10058 H 934.351 -3.28708 -2.05012 0
M  V30 10059 H 934.765 -5.16969 -0.885596 0
M  V30 10060 H 936.239 -4.88428 -2.5718 0
M  V30 10061 H 936.716 -3.23547 -2.97008 0
M  V30 10062 H 937.322 -3.98831 -1.47694 0
M  V30 10063 N 935.637 0.236453 -1.55816 0
M  V30 10064 C 936.547 1.31418 -1.94336 0
M  V30 10065 C 937.563 1.52095 -0.845164 0
M  V30 10066 O 938.739 1.65515 -1.14746 0
M  V30 10067 C 935.804 2.6468 -2.23932 0
M  V30 10068 C 934.865 2.52435 -3.47239 0
M  V30 10069 C 934.098 3.79342 -3.75414 0
M  V30 10070 O 934.321 4.81694 -3.05495 0
M  V30 10071 O 933.255 3.77347 -4.68927 0
M  V30 10072 H 937.081 1.01739 -2.86152 0
M  V30 10073 H 934.666 0.438084 -1.42833 0
M  V30 10074 H 936.548 3.4341 -2.44228 0
M  V30 10075 H 935.223 2.94071 -1.35292 0
M  V30 10076 H 934.13 1.71955 -3.32238 0
M  V30 10077 H 935.463 2.27987 -4.36214 0
M  V30 10078 N 937.115 1.49373 0.502552 0
M  V30 10079 C 938.078 1.65413 1.58654 0
M  V30 10080 C 939.078 0.526003 1.51953 0
M  V30 10081 O 940.268 0.792421 1.55133 0
M  V30 10082 C 937.4 1.65005 2.98306 0
M  V30 10083 H 938.593 2.62095 1.45762 0
M  V30 10084 H 936.146 1.38381 0.726672 0
M  V30 10085 H 936.881 0.699014 3.16677 0
M  V30 10086 H 936.666 2.46931 3.04578 0
M  V30 10087 H 938.156 1.79477 3.77065 0
M  V30 10088 N 938.594 -0.753485 1.38421 0
M  V30 10089 C 939.526 -1.87692 1.31547 0
M  V30 10090 C 940.539 -1.612 0.227671 0
M  V30 10091 O 941.728 -1.71778 0.485238 0
M  V30 10092 C 938.828 -3.23329 1.01545 0
M  V30 10093 C 938.001 -3.77324 2.21236 0
M  V30 10094 C 937.06 -4.91478 1.87977 0
M  V30 10095 O 936.086 -5.06106 2.60472 0
M  V30 10096 N 937.288 -5.74466 0.834796 0
M  V30 10097 H 940.053 -1.94099 2.28354 0
M  V30 10098 H 937.614 -0.933421 1.32283 0
M  V30 10099 H 939.606 -3.9724 0.773477 0
M  V30 10100 H 938.176 -3.12307 0.135334 0
M  V30 10101 H 937.396 -2.94978 2.61498 0
M  V30 10102 H 938.684 -4.10131 3.01115 0
M  V30 10103 H 938.082 -5.65217 0.233606 0
M  V30 10104 H 936.639 -6.48524 0.652703 0
M  V30 10105 N 940.072 -1.23292 -0.981677 0
M  V30 10106 C 941.32 -1.06214 -1.71939 0
M  V30 10107 C 941.641 0.401989 -1.90812 0
M  V30 10108 O 940.911 1.28825 -1.47584 0
M  V30 10109 H 939.491 -0.390042 -0.637084 0
M  V30 10110 H 942.153 -1.54988 -1.18173 0
M  V30 10111 H 941.249 -1.54904 -2.70945 0
M  V30 10112 N 941.55 1.18024 -1.04442 0
M  V30 10113 C 942.796 1.88377 -0.751133 0
M  V30 10114 C 943.129 1.80377 0.719571 0
M  V30 10115 O 942.404 1.20662 1.52548 0
M  V30 10116 C 942.687 3.38708 -1.22265 0
M  V30 10117 C 942.54 3.55499 -2.75574 0
M  V30 10118 C 943.859 4.32475 -0.815688 0
M  V30 10119 H 940.978 0.684037 -0.27434 0
M  V30 10120 H 943.62 1.38837 -1.29709 0
M  V30 10121 H 941.77 3.8103 -0.758192 0
M  V30 10122 H 943.442 3.22244 -3.30086 0
M  V30 10123 H 941.685 2.98028 -3.15217 0
M  V30 10124 H 942.356 4.60994 -3.03625 0
M  V30 10125 H 944.832 3.97953 -1.21542 0
M  V30 10126 H 943.708 5.36213 -1.17331 0
M  V30 10127 H 943.969 4.41207 0.280901 0
M  V30 10128 N 943.028 0.824394 1.34319 0
M  V30 10129 C 943.96 0.204805 2.28283 0
M  V30 10130 C 944.973 -0.606162 1.51094 0
M  V30 10131 O 946.162 -0.435602 1.73103 0
M  V30 10132 C 943.262 -0.73139 3.30914 0
M  V30 10133 C 942.435 0.0370723 4.37384 0
M  V30 10134 C 941.494 -0.820272 5.19767 0
M  V30 10135 O 940.52 -0.264721 5.68584 0
M  V30 10136 N 941.722 -2.13984 5.39621 0
M  V30 10137 H 944.487 1.0121 2.82093 0
M  V30 10138 H 942.048 0.681494 1.46858 0
M  V30 10139 H 944.04 -1.30958 3.82926 0
M  V30 10140 H 942.61 -1.43943 2.77487 0
M  V30 10141 H 941.83 0.796578 3.86068 0
M  V30 10142 H 943.118 0.566014 5.05642 0
M  V30 10143 H 942.516 -2.61492 5.01636 0
M  V30 10144 H 941.073 -2.66685 5.94746 0
M  V30 10145 N 944.506 -1.46559 0.579492 0
M  V30 10146 C 945.416 -2.34066 -0.15816 0
M  V30 10147 C 946.432 -1.49556 -0.88932 0
M  V30 10148 O 947.608 -1.82434 -0.853226 0
M  V30 10149 C 944.673 -3.26683 -1.161 0
M  V30 10150 C 943.734 -4.27092 -0.434855 0
M  V30 10151 C 942.967 -5.15283 -1.38992 0
M  V30 10152 O 943.19 -5.06345 -2.62623 0
M  V30 10153 O 942.124 -5.95099 -0.902253 0
M  V30 10154 H 945.95 -2.98488 0.560234 0
M  V30 10155 H 943.535 -1.45482 0.339918 0
M  V30 10156 H 945.417 -3.8383 -1.73932 0
M  V30 10157 H 944.092 -2.64862 -1.86091 0
M  V30 10158 H 942.999 -3.73641 0.185224 0
M  V30 10159 H 944.332 -4.9169 0.224031 0
M  V30 10160 N 945.984 -0.3171 -1.54377 0
M  V30 10161 C 947.209 0.292311 -2.0533 0
M  V30 10162 C 947.634 1.45503 -1.19207 0
M  V30 10163 O 946.992 1.80197 -0.199721 0
M  V30 10164 C 947.04 0.710787 -3.53525 0
M  V30 10165 O 946.144 1.81387 -3.70368 0
M  V30 10166 H 945.485 0.0539976 -0.661801 0
M  V30 10167 H 948.015 -0.463629 -1.99278 0
M  V30 10168 H 948.025 0.995216 -3.95676 0
M  V30 10169 H 946.7 -0.139668 -4.15665 0
M  V30 10170 H 945.277 1.52875 -3.40123 0
M  V30 10171 N 947.462 1.57535 -0.0451378 0
M  V30 10172 C 948.392 2.14208 0.929372 0
M  V30 10173 C 949.373 1.06221 1.32858 0
M  V30 10174 O 950.558 1.34132 1.40436 0
M  V30 10175 C 947.688 2.68217 2.20629 0
M  V30 10176 C 946.642 3.81134 1.94734 0
M  V30 10177 C 945.968 4.21636 3.28828 0
M  V30 10178 C 947.268 5.06531 1.27374 0
M  V30 10179 H 948.962 2.95886 0.457348 0
M  V30 10180 H 946.508 1.42332 0.218544 0
M  V30 10181 H 948.461 3.06502 2.89196 0
M  V30 10182 H 947.185 1.83722 2.70026 0
M  V30 10183 H 945.844 3.43312 1.28579 0
M  V30 10184 H 945.492 3.34099 3.76014 0
M  V30 10185 H 945.192 4.97736 3.12302 0
M  V30 10186 H 946.716 4.62516 3.98637 0
M  V30 10187 H 948.13 5.423 1.85967 0
M  V30 10188 H 946.527 5.87735 1.21194 0
M  V30 10189 H 947.597 4.84261 0.248913 0
M  V30 10190 N 948.94 -0.228186 1.55939 0
M  V30 10191 C 950.165 -0.974795 1.83064 0
M  V30 10192 C 950.59 -1.77426 0.624624 0
M  V30 10193 O 949.948 -1.76211 -0.426556 0
M  V30 10194 C 949.996 -1.87342 3.08116 0
M  V30 10195 O 949.1 -2.96784 2.86344 0
M  V30 10196 H 948.441 -0.276379 0.603747 0
M  V30 10197 H 950.971 -0.243507 2.03146 0
M  V30 10198 H 950.981 -2.28451 3.38045 0
M  V30 10199 H 949.656 -1.28575 3.95526 0
M  V30 10200 H 948.233 -2.59669 2.67631 0
M  V30 10201 N 950.418 -1.49637 -0.494624 0
M  V30 10202 C 951.365 -1.66776 -1.59545 0
M  V30 10203 C 952.335 -0.509159 -1.58104 0
M  V30 10204 O 953.52 -0.736949 -1.75993 0
M  V30 10205 C 950.66 -1.74624 -2.97658 0
M  V30 10206 C 949.773 -3.01831 -3.09067 0
M  V30 10207 C 948.908 -3.00619 -4.37952 0
M  V30 10208 C 947.947 -4.22378 -4.43016 0
M  V30 10209 N 947.084 -4.1904 -5.63339 0
M  V30 10210 H 951.924 -2.60767 -1.44238 0
M  V30 10211 H 949.461 -1.29286 -0.701673 0
M  V30 10212 H 951.419 -1.77156 -3.77719 0
M  V30 10213 H 950.049 -0.840936 -3.11654 0
M  V30 10214 H 949.101 -3.08881 -2.22029 0
M  V30 10215 H 950.413 -3.91823 -3.08669 0
M  V30 10216 H 949.567 -3.01749 -5.26339 0
M  V30 10217 H 948.306 -2.08416 -4.40924 0
M  V30 10218 H 947.311 -4.21485 -3.5303 0
M  V30 10219 H 948.536 -5.15781 -4.41755 0
M  V30 10220 H 946.482 -3.29677 -5.67141 0
M  V30 10221 H 946.399 -5.02774 -5.64583 0
M  V30 10222 H 947.667 -4.24281 -6.53916 0
M  V30 10223 N 951.896 0.746133 -1.38819 0
M  V30 10224 C 952.826 1.87344 -1.39372 0
M  V30 10225 C 953.807 1.68123 -0.258583 0
M  V30 10226 O 954.992 1.88606 -0.462769 0
M  V30 10227 C 952.122 3.24962 -1.22543 0
M  V30 10228 C 951.076 3.58799 -2.33339 0
M  V30 10229 C 950.402 4.95235 -2.01609 0
M  V30 10230 C 951.702 3.62911 -3.75624 0
M  V30 10231 H 953.396 1.87138 -2.33709 0
M  V30 10232 H 950.942 0.898937 -1.12495 0
M  V30 10233 H 952.895 4.03488 -1.21554 0
M  V30 10234 H 951.619 3.25667 -0.246707 0
M  V30 10235 H 950.278 2.82596 -2.33527 0
M  V30 10236 H 949.926 4.92508 -1.02202 0
M  V30 10237 H 949.626 5.18843 -2.75819 0
M  V30 10238 H 951.15 5.76131 -2.02251 0
M  V30 10239 H 952.564 4.31535 -3.77426 0
M  V30 10240 H 950.961 3.98031 -4.491 0
M  V30 10241 H 952.031 2.62967 -4.07402 0
M  V30 10242 N 953.375 1.23811 0.975125 0
M  V30 10243 C 954.305 1.04846 2.08638 0
M  V30 10244 C 955.286 -0.0362859 1.70061 0
M  V30 10245 O 956.471 0.12937 1.93769 0
M  V30 10246 C 953.601 0.644534 3.41267 0
M  V30 10247 C 952.555 1.67722 3.93768 0
M  V30 10248 C 951.881 1.12857 5.22654 0
M  V30 10249 C 953.181 3.07147 4.22443 0
M  V30 10250 H 954.875 1.97795 2.24761 0
M  V30 10251 H 952.421 0.952397 1.08006 0
M  V30 10252 H 954.374 0.498887 4.18436 0
M  V30 10253 H 953.098 -0.320641 3.25022 0
M  V30 10254 H 951.757 1.81095 3.18748 0
M  V30 10255 H 951.405 0.154227 5.02764 0
M  V30 10256 H 951.105 1.81862 5.58749 0
M  V30 10257 H 952.629 0.994891 6.0244 0
M  V30 10258 H 954.043 2.97045 4.90344 0
M  V30 10259 H 952.44 3.73437 4.6975 0
M  V30 10260 H 953.51 3.55743 3.29507 0
M  V30 10261 N 954.853 -1.17469 1.05066 0
M  V30 10262 C 955.763 -2.25089 0.661222 0
M  V30 10263 C 956.779 -1.71086 -0.31712 0
M  V30 10264 O 957.955 -2.00685 -0.169534 0
M  V30 10265 C 955.02 -3.46676 0.0406415 0
M  V30 10266 C 954.081 -4.15771 1.06927 0
M  V30 10267 C 953.314 -5.31553 0.478208 0
M  V30 10268 O 953.537 -5.6593 -0.712714 0
M  V30 10269 O 952.471 -5.89574 1.21185 0
M  V30 10270 H 956.297 -2.60685 1.5581 0
M  V30 10271 H 953.882 -1.24744 0.822147 0
M  V30 10272 H 955.764 -4.203 -0.304312 0
M  V30 10273 H 954.439 -3.1288 -0.829909 0
M  V30 10274 H 953.346 -3.44171 1.46619 0
M  V30 10275 H 954.679 -4.53591 1.91092 0
M  V30 10276 N 956.331 -0.831506 -1.3388 0
M  V30 10277 C 957.241 -0.261688 -2.33136 0
M  V30 10278 C 958.257 0.608429 -1.63016 0
M  V30 10279 O 959.433 0.514297 -1.94723 0
M  V30 10280 C 956.498 0.559957 -3.42148 0
M  V30 10281 C 955.559 -0.333569 -4.28002 0
M  V30 10282 C 954.792 0.448956 -5.31808 0
M  V30 10283 O 955.015 1.6814 -5.45055 0
M  V30 10284 O 953.949 -0.173197 -6.01651 0
M  V30 10285 H 957.775 -1.08343 -2.83717 0
M  V30 10286 H 955.36 -0.593849 -1.3709 0
M  V30 10287 H 957.242 1.02712 -4.08691 0
M  V30 10288 H 955.917 1.35888 -2.93796 0
M  V30 10289 H 954.824 -0.848416 -3.64352 0
M  V30 10290 H 956.157 -1.09707 -4.79818 0
M  V30 10291 N 957.809 1.4625 -0.587256 0
M  V30 10292 C 958.739 2.33132 0.131076 0
M  V30 10293 C 959.72 1.45619 0.879158 0
M  V30 10294 O 960.905 1.74428 0.853723 0
M  V30 10295 C 958.035 3.27975 1.14236 0
M  V30 10296 C 956.989 4.24965 0.508819 0
M  V30 10297 C 956.315 5.09349 1.62689 0
M  V30 10298 C 957.615 5.19322 -0.55694 0
M  V30 10299 H 959.309 2.93442 -0.594333 0
M  V30 10300 H 956.855 1.41106 -0.287263 0
M  V30 10301 H 958.808 3.87614 1.65328 0
M  V30 10302 H 957.532 2.65781 1.8981 0
M  V30 10303 H 956.191 3.66595 0.0189337 0
M  V30 10304 H 955.839 4.43537 2.37242 0
M  V30 10305 H 955.539 5.75036 1.20861 0
M  V30 10306 H 957.063 5.71852 2.14049 0
M  V30 10307 H 958.477 5.73151 -0.130903 0
M  V30 10308 H 956.874 5.93376 -0.895801 0
M  V30 10309 H 957.944 4.62979 -1.44148 0
M  V30 10310 N 959.287 0.325282 1.54207 0
M  V30 10311 C 960.512 -0.281418 2.05482 0
M  V30 10312 C 960.937 -1.44869 1.19977 0
M  V30 10313 O 960.295 -1.80088 0.209275 0
M  V30 10314 C 960.343 -0.692029 3.53897 0
M  V30 10315 O 959.447 -1.7942 3.71325 0
M  V30 10316 H 958.788 -0.0504872 0.662078 0
M  V30 10317 H 961.318 0.474191 1.99029 0
M  V30 10318 H 961.328 -0.974219 3.96198 0
M  V30 10319 H 960.003 0.161709 4.15586 0
M  V30 10320 H 958.58 -1.51069 3.40929 0
M  V30 10321 N 960.765 -1.57509 0.0534917 0
M  V30 10322 C 961.715 -2.08179 -0.929802 0
M  V30 10323 C 962.699 -0.987451 -1.27036 0
M  V30 10324 O 963.891 -1.25076 -1.2524 0
M  V30 10325 C 961.02 -2.63221 -2.20385 0
M  V30 10326 C 960.106 -3.79629 -1.89058 0
M  V30 10327 N 960.497 -4.8931 -1.28101 0
M  V30 10328 C 958.795 -3.88578 -2.18914 0
M  V30 10329 C 959.496 -5.70329 -1.14455 0
M  V30 10330 N 958.472 -5.18011 -1.64821 0
M  V30 10331 H 962.274 -2.90374 -0.453874 0
M  V30 10332 H 959.788 -1.61697 -0.150899 0
M  V30 10333 H 961.785 -2.97827 -2.91727 0
M  V30 10334 H 960.445 -1.82466 -2.68582 0
M  V30 10335 H 961.456 -5.09058 -0.952924 0
M  V30 10336 H 958.133 -3.18769 -2.69616 0
M  V30 10337 H 959.523 -6.6854 -0.671129 0
M  V30 10338 N 962.243 0.219913 -1.56058 0
M  V30 10339 C 963.175 1.29604 -1.89038 0
M  V30 10340 C 964.188 1.42964 -0.778791 0
M  V30 10341 O 965.377 1.43832 -1.0571 0
M  V30 10342 C 962.477 2.67145 -2.08534 0
M  V30 10343 C 961.65 2.75712 -3.39561 0
M  V30 10344 C 960.709 3.94279 -3.48469 0
M  V30 10345 O 959.735 3.8254 -4.21487 0
M  V30 10346 N 960.937 5.08655 -2.79732 0
M  V30 10347 H 963.702 1.01638 -2.81939 0
M  V30 10348 H 961.263 0.409945 -1.56624 0
M  V30 10349 H 963.255 3.44847 -2.11808 0
M  V30 10350 H 961.825 2.87704 -1.2225 0
M  V30 10351 H 961.045 1.84475 -3.48371 0
M  V30 10352 H 962.333 2.78407 -4.25872 0
M  V30 10353 H 961.731 5.21088 -2.2019 0
M  V30 10354 H 960.288 5.84394 -2.88665 0
M  V30 10355 N 963.721 1.49897 0.486681 0
M  V30 10356 C 964.651 1.7054 1.59494 0
M  V30 10357 C 965.632 0.554184 1.60819 0
M  V30 10358 O 966.817 0.791617 1.77333 0
M  V30 10359 C 963.947 1.78517 2.97908 0
M  V30 10360 C 962.901 2.93571 3.11449 0
M  V30 10361 C 962.227 2.86674 4.51356 0
M  V30 10362 C 963.527 4.34308 2.90127 0
M  V30 10363 H 965.221 2.63329 1.42472 0
M  V30 10364 H 962.767 1.2672 0.683969 0
M  V30 10365 H 964.72 1.91544 3.75352 0
M  V30 10366 H 963.444 0.823381 3.16051 0
M  V30 10367 H 962.103 2.80169 2.36433 0
M  V30 10368 H 961.751 1.88373 4.66395 0
M  V30 10369 H 961.451 3.63903 4.61355 0
M  V30 10370 H 962.975 3.01728 5.30841 0
M  V30 10371 H 964.389 4.48317 3.57331 0
M  V30 10372 H 962.786 5.12869 3.11585 0
M  V30 10373 H 963.856 4.47759 1.86119 0
M  V30 10374 N 965.199 -0.738761 1.39212 0
M  V30 10375 C 966.129 -1.86602 1.40364 0
M  V30 10376 C 967.11 -1.67984 0.267495 0
M  V30 10377 O 968.295 -1.88358 0.472765 0
M  V30 10378 C 965.425 -3.24308 1.24265 0
M  V30 10379 C 964.379 -3.57557 2.35239 0
M  V30 10380 C 963.705 -4.94159 2.04233 0
M  V30 10381 C 965.005 -3.60914 3.77543 0
M  V30 10382 H 966.699 -1.85896 2.34698 0
M  V30 10383 H 964.245 -0.892959 1.1297 0
M  V30 10384 H 966.198 -4.02838 1.23692 0
M  V30 10385 H 964.922 -3.25531 0.263974 0
M  V30 10386 H 963.581 -2.81354 2.35022 0
M  V30 10387 H 963.229 -4.91959 1.04813 0
M  V30 10388 H 962.929 -5.17373 2.78567 0
M  V30 10389 H 964.453 -5.7505 2.05303 0
M  V30 10390 H 965.867 -4.29528 3.79709 0
M  V30 10391 H 964.264 -3.95644 4.51205 0
M  V30 10392 H 965.334 -2.60803 4.08791 0
M  V30 10393 N 966.677 -1.24326 -0.968545 0
M  V30 10394 C 967.609 -0.992749 -2.06584 0
M  V30 10395 C 968.622 0.0374902 -1.62757 0
M  V30 10396 O 969.811 -0.199448 -1.77382 0
M  V30 10397 C 966.911 -0.476165 -3.35538 0
M  V30 10398 C 966.084 -1.56934 -4.08277 0
M  V30 10399 C 965.143 -1.05555 -5.15504 0
M  V30 10400 O 964.169 -1.74707 -5.41725 0
M  V30 10401 N 965.371 0.110465 -5.80395 0
M  V30 10402 H 968.136 -1.93752 -2.28649 0
M  V30 10403 H 965.697 -1.15344 -1.13611 0
M  V30 10404 H 967.689 -0.117223 -4.0453 0
M  V30 10405 H 966.259 0.374315 -3.10351 0
M  V30 10406 H 965.479 -2.10051 -3.33575 0
M  V30 10407 H 966.767 -2.30415 -4.53637 0
M  V30 10408 H 966.165 0.688614 -5.61493 0
M  V30 10409 H 964.722 0.41056 -6.50506 0
M  V30 10410 N 968.156 1.1691 -1.05688 0
M  V30 10411 C 969.433 1.83266 -0.683601 0
M  V30 10412 C 969.813 1.93858 0.835602 0
M  V30 10413 O 969.161 1.47696 1.7435 0
M  V30 10414 C 969.371 3.20625 -1.37842 0
M  V30 10415 C 970.719 3.96473 -1.51967 0
M  V30 10416 O 971.743 3.30122 -1.33783 0
M  V30 10417 O 970.602 5.15393 -1.81749 0
M  V30 10418 H 967.696 0.791028 -0.241254 0
M  V30 10419 H 970.242 1.24165 -1.15677 0
M  V30 10420 H 969.014 3.07914 -2.41463 0
M  V30 10421 H 968.637 3.87398 -0.894921 0
M  V30 10422 N 969.634 0.838594 1.33437 0
M  V30 10423 C 971.05 0.526347 1.50671 0
M  V30 10424 C 971.25 -0.946387 1.77893 0
M  V30 10425 O 970.306 -1.7302 1.83903 0
M  V30 10426 C 971.619 1.39945 2.6615 0
M  V30 10427 C 973.167 1.3982 2.80035 0
M  V30 10428 C 973.642 2.25614 3.98576 0
M  V30 10429 N 975.133 2.23322 4.0581 0
M  V30 10430 C 975.868 2.86443 4.96727 0
M  V30 10431 N 975.364 3.58616 5.92762 0
M  V30 10432 N 977.157 2.75915 4.89722 0
M  V30 10433 H 969.308 1.79195 1.1403 0
M  V30 10434 H 971.571 0.764491 0.560586 0
M  V30 10435 H 971.277 2.44599 2.52714 0
M  V30 10436 H 971.151 1.07529 3.61548 0
M  V30 10437 H 973.538 0.35937 2.92904 0
M  V30 10438 H 973.619 1.76241 1.85399 0
M  V30 10439 H 973.263 3.29555 3.86466 0
M  V30 10440 H 973.193 1.86533 4.92456 0
M  V30 10441 H 975.684 1.70836 3.37081 0
M  V30 10442 H 975.997 4.03987 6.58798 0
M  V30 10443 H 974.342 3.62724 5.92838 0
M  V30 10444 H 977.533 2.19094 4.13661 0
M  V30 10445 H 977.706 3.25393 5.60378 0
M  V30 10446 N 971.112 -1.45937 0.595003 0
M  V30 10447 C 972.075 -2.2888 -0.121102 0
M  V30 10448 C 973.075 -1.39075 -0.807149 0
M  V30 10449 O 974.265 -1.61326 -0.657228 0
M  V30 10450 C 971.397 -3.19778 -1.1813 0
M  V30 10451 H 972.59 -2.93673 0.607968 0
M  V30 10452 H 970.143 -1.5225 0.353495 0
M  V30 10453 H 970.878 -2.59759 -1.94154 0
M  V30 10454 H 970.663 -3.85914 -0.693724 0
M  V30 10455 H 972.153 -3.82176 -1.68319 0
M  V30 10456 N 972.59 -0.333456 -1.54032 0
M  V30 10457 C 973.537 0.527981 -2.2468 0
M  V30 10458 C 974.507 1.10371 -1.24127 0
M  V30 10459 O 975.692 1.14221 -1.52834 0
M  V30 10460 C 972.832 1.67808 -3.01553 0
M  V30 10461 C 971.945 1.13064 -4.16942 0
M  V30 10462 C 971.08 2.24722 -4.81325 0
M  V30 10463 C 970.119 1.67277 -5.88799 0
M  V30 10464 N 969.256 2.72638 -6.47003 0
M  V30 10465 H 974.096 -0.0810308 -2.9789 0
M  V30 10466 H 971.633 -0.051761 -1.47009 0
M  V30 10467 H 973.591 2.35502 -3.44376 0
M  V30 10468 H 972.221 2.25823 -2.30659 0
M  V30 10469 H 971.273 0.344948 -3.78833 0
M  V30 10470 H 972.585 0.670373 -4.94275 0
M  V30 10471 H 971.739 3.00301 -5.27166 0
M  V30 10472 H 970.478 2.74089 -4.03394 0
M  V30 10473 H 969.483 0.902002 -5.4235 0
M  V30 10474 H 970.708 1.18775 -6.68632 0
M  V30 10475 H 968.654 3.21277 -5.71941 0
M  V30 10476 H 968.571 2.31204 -7.19778 0
M  V30 10477 H 969.839 3.48015 -6.97499 0
M  V30 10478 N 974.068 1.57479 -0.061844 0
M  V30 10479 C 975.316 1.92727 0.608336 0
M  V30 10480 C 975.637 0.941799 1.70749 0
M  V30 10481 O 974.907 -0.0116608 1.95897 0
M  V30 10482 H 973.487 0.71145 0.2277 0
M  V30 10483 H 976.149 1.94546 -0.117359 0
M  V30 10484 H 975.245 2.9426 1.04007 0
M  V30 10485 N 975.546 -0.211634 1.56173 0
M  V30 10486 C 976.509 -1.24588 1.92381 0
M  V30 10487 C 977.509 -1.39297 0.803311 0
M  V30 10488 O 978.699 -1.37392 1.07094 0
M  V30 10489 C 975.831 -2.61807 2.18335 0
M  V30 10490 H 977.024 -0.936814 2.84893 0
M  V30 10491 H 974.577 -0.452471 1.49607 0
M  V30 10492 H 975.312 -2.97795 1.28407 0
M  V30 10493 H 975.097 -2.52506 2.99972 0
M  V30 10494 H 976.587 -3.3642 2.4741 0
M  V30 10495 N 977.024 -1.50153 -0.478725 0
M  V30 10496 C 977.956 -1.64603 -1.59494 0
M  V30 10497 C 978.969 -0.527789 -1.54007 0
M  V30 10498 O 980.158 -0.80069 -1.59534 0
M  V30 10499 C 977.258 -1.60738 -2.98356 0
M  V30 10500 C 976.431 -2.88468 -3.28794 0
M  V30 10501 C 975.49 -2.77349 -4.47173 0
M  V30 10502 O 974.516 -3.51302 -4.47857 0
M  V30 10503 N 975.718 -1.9039 -5.4839 0
M  V30 10504 H 978.483 -2.6088 -1.47518 0
M  V30 10505 H 976.044 -1.47521 -0.667011 0
M  V30 10506 H 978.036 -1.50923 -3.75505 0
M  V30 10507 H 976.606 -0.722273 -3.04141 0
M  V30 10508 H 975.826 -3.12467 -2.40329 0
M  V30 10509 H 977.114 -3.73102 -3.45937 0
M  V30 10510 H 976.512 -1.29606 -5.50653 0
M  V30 10511 H 975.069 -1.86484 -6.24553 0
M  V30 10512 N 978.502 0.731368 -1.39602 0
M  V30 10513 C 979.465 1.8271 -1.38383 0
M  V30 10514 C 980.465 1.58338 -0.280309 0
M  V30 10515 O 981.655 1.65671 -0.538402 0
M  V30 10516 C 978.787 3.20556 -1.16002 0
M  V30 10517 H 979.98 1.85193 -2.35889 0
M  V30 10518 H 977.533 0.935396 -1.2522 0
M  V30 10519 H 978.268 3.23732 -0.191927 0
M  V30 10520 H 978.053 3.39643 -1.9592 0
M  V30 10521 H 979.543 4.00612 -1.17899 0
M  V30 10522 N 979.98 1.24838 0.961938 0
M  V30 10523 C 981.205 1.11967 1.7458 0
M  V30 10524 C 981.63 -0.323287 1.85301 0
M  V30 10525 O 980.988 -1.23412 1.32812 0
M  V30 10526 C 981.036 1.77066 3.14134 0
M  V30 10527 O 980.14 1.04534 3.98932 0
M  V30 10528 H 979.481 0.391338 0.536424 0
M  V30 10529 H 982.011 1.65259 1.20626 0
M  V30 10530 H 982.021 1.83056 3.64629 0
M  V30 10531 H 980.696 2.82052 3.05646 0
M  V30 10532 H 979.273 1.06372 3.57407 0
M  V30 10533 N 981.458 -1.16348 1.06306 0
M  V30 10534 C 982.869 -1.68491 0.80422 0
M  V30 10535 C 983.22 -1.84327 -0.672159 0
M  V30 10536 O 982.345 -1.53892 -1.52139 0
M  V30 10537 C 982.94 -3.06048 1.45328 0
M  V30 10538 C 981.499 -3.55311 1.24221 0
M  V30 10539 C 980.646 -2.31291 1.5297 0
M  V30 10540 H 983.597 -1.00708 1.22652 0
M  V30 10541 H 983.618 -3.70451 0.868674 0
M  V30 10542 H 983.13 -2.9449 2.52779 0
M  V30 10543 H 981.231 -3.72128 0.187447 0
M  V30 10544 H 981.344 -4.37397 1.95502 0
M  V30 10545 H 979.708 -2.3631 0.950241 0
M  V30 10546 H 980.491 -2.22331 2.6158 0
M  V30 10547 N 982.937 -0.845659 -1.3299 0
M  V30 10548 C 984.348 -0.50048 -1.79867 0
M  V30 10549 C 984.699 0.981027 -1.69913 0
M  V30 10550 O 983.824 1.76477 -1.25239 0
M  V30 10551 C 984.419 -0.901679 -3.26581 0
M  V30 10552 C 982.978 -0.608536 -3.71448 0
M  V30 10553 C 982.125 -1.10632 -2.54275 0
M  V30 10554 H 985.076 -1.03372 -1.20416 0
M  V30 10555 H 985.097 -0.214433 -3.79895 0
M  V30 10556 H 984.609 -1.97998 -3.33794 0
M  V30 10557 H 982.71 0.459416 -3.69757 0
M  V30 10558 H 982.823 -1.16853 -4.64631 0
M  V30 10559 H 981.187 -0.526925 -2.4919 0
M  V30 10560 H 981.97 -2.19154 -2.64247 0
M  V30 10561 N 984.415 1.45619 -0.602734 0
M  V30 10562 C 985.826 1.85814 -0.181636 0
M  V30 10563 C 986.177 1.5037 1.26029 0
M  V30 10564 O 985.302 0.928068 1.95489 0
M  V30 10565 C 985.897 3.37258 -0.322866 0
M  V30 10566 C 984.456 3.76375 0.043504 0
M  V30 10567 C 983.603 2.69585 -0.649561 0
M  V30 10568 H 986.554 1.36489 -0.809721 0
M  V30 10569 H 986.575 3.77874 0.446279 0
M  V30 10570 H 986.087 3.63024 -1.37241 0
M  V30 10571 H 984.188 3.56226 1.09241 0
M  V30 10572 H 984.301 4.77843 -0.346765 0
M  V30 10573 H 982.665 2.54549 -0.087706 0
M  V30 10574 H 983.448 2.98188 -1.70115 0
M  V30 10575 N 985.893 0.34162 1.53853 0
M  V30 10576 C 987.142 -0.256475 2.00063 0
M  V30 10577 C 987.455 -1.51811 1.23341 0
M  V30 10578 O 988.661 -2.19332 1.60017 0
M  V30 10579 C 987.117 -0.507567 3.56303 0
M  V30 10580 C 986.725 0.738052 4.41879 0
M  V30 10581 C 988.469 -1.06463 4.10933 0
M  V30 10582 C 986.376 0.457865 5.89625 0
M  V30 10583 H 985.306 -0.0996143 0.747391 0
M  V30 10584 H 987.957 0.456649 1.77727 0
M  V30 10585 H 986.339 -1.28134 3.74697 0
M  V30 10586 H 987.513 1.51278 4.3526 0
M  V30 10587 H 985.828 1.21661 3.98231 0
M  V30 10588 H 988.425 -1.28918 5.18926 0
M  V30 10589 H 988.768 -2.01956 3.64032 0
M  V30 10590 H 989.301 -0.351601 3.96243 0
M  V30 10591 H 986.04 1.38247 6.40756 0
M  V30 10592 H 985.56 -0.278818 5.99152 0
M  V30 10593 H 987.239 0.0743914 6.46957 0
M  V30 10594 N 987.371 -1.57444 0.0701946 0
M  V30 10595 C 988.334 -2.11511 -0.882923 0
M  V30 10596 C 989.334 -1.03879 -1.22743 0
M  V30 10597 O 990.524 -1.29874 -1.16097 0
M  V30 10598 C 987.656 -2.61514 -2.18686 0
M  V30 10599 H 988.849 -2.9703 -0.413873 0
M  V30 10600 H 986.402 -1.55278 -0.178488 0
M  V30 10601 H 987.137 -1.79443 -2.70131 0
M  V30 10602 H 986.922 -3.40185 -1.94978 0
M  V30 10603 H 988.412 -3.03425 -2.86919 0
M  V30 10604 N 988.849 0.203349 -1.56283 0
M  V30 10605 C 990.26 0.768764 -1.70138 0
M  V30 10606 C 990.611 1.8421 -0.675358 0
M  V30 10607 O 989.736 2.15732 0.1699 0
M  V30 10608 C 990.331 1.40123 -3.08466 0
M  V30 10609 C 988.89 1.91382 -3.24114 0
M  V30 10610 C 988.037 0.780685 -2.66084 0
M  V30 10611 H 990.988 -0.0215997 -1.58685 0
M  V30 10612 H 991.009 2.27046 -3.05336 0
M  V30 10613 H 990.521 0.619805 -3.83119 0
M  V30 10614 H 988.622 2.7227 -2.54362 0
M  V30 10615 H 988.735 2.08128 -4.31531 0
M  V30 10616 H 987.099 1.19281 -2.25042 0
M  V30 10617 H 987.882 0.0116351 -3.43298 0
M  V30 10618 N 990.327 1.50405 0.470755 0
M  V30 10619 C 991.557 1.64928 1.24428 0
M  V30 10620 C 991.965 0.332139 1.86262 0
M  V30 10621 O 991.308 -0.695919 1.70008 0
M  V30 10622 C 991.37 2.6829 2.39293 0
M  V30 10623 C 991.034 4.11835 1.98093 0
M  V30 10624 C 992.031 4.97693 1.50326 0
M  V30 10625 C 989.716 4.57753 2.06803 0
M  V30 10626 C 991.71 6.27516 1.11813 0
M  V30 10627 C 989.397 5.87582 1.67902 0
M  V30 10628 C 990.395 6.72289 1.20485 0
M  V30 10629 O 990.083 7.99694 0.821219 0
M  V30 10630 H 989.815 0.557418 0.382442 0
M  V30 10631 H 992.369 1.97382 0.568292 0
M  V30 10632 H 990.599 2.31079 3.10063 0
M  V30 10633 H 992.288 2.7203 3.01255 0
M  V30 10634 H 993.054 4.63434 1.43018 0
M  V30 10635 H 988.933 3.91966 2.42659 0
M  V30 10636 H 992.477 6.93586 0.747317 0
M  V30 10637 H 988.374 6.21362 1.74869 0
M  V30 10638 H 989.142 8.12968 0.950038 0
M  V30 10639 N 991.805 -0.723954 1.39988 0
M  V30 10640 C 993.216 -1.30273 1.33738 0
M  V30 10641 C 993.567 -1.96199 0.00690581 0
M  V30 10642 O 992.692 -1.97016 -0.895179 0
M  V30 10643 C 993.287 -2.36889 2.42217 0
M  V30 10644 C 991.846 -2.90412 2.39453 0
M  V30 10645 C 990.993 -1.64103 2.2353 0
M  V30 10646 H 993.944 -0.520672 1.49916 0
M  V30 10647 H 993.965 -3.17538 2.09642 0
M  V30 10648 H 993.477 -1.88878 3.39038 0
M  V30 10649 H 991.578 -3.42674 1.46304 0
M  V30 10650 H 991.691 -3.42775 3.34727 0
M  V30 10651 H 990.055 -1.88855 1.70897 0
M  V30 10652 H 990.838 -1.18128 3.22336 0
M  V30 10653 N 993.283 -1.25346 -0.955304 0
M  V30 10654 C 994.508 -1.12892 -1.73983 0
M  V30 10655 C 994.933 0.313455 -1.8547 0
M  V30 10656 O 994.291 1.22706 -1.33465 0
M  V30 10657 C 994.339 -1.78729 -3.1319 0
M  V30 10658 O 993.443 -1.06648 -3.98372 0
M  V30 10659 H 992.784 -0.394178 -0.534341 0
M  V30 10660 H 995.314 -1.65897 -1.19747 0
M  V30 10661 H 995.324 -1.84987 -3.63653 0
M  V30 10662 H 993.999 -2.83669 -3.04146 0
M  V30 10663 H 992.576 -1.08266 -3.56837 0
M  V30 10664 N 994.761 1.15782 -1.06922 0
M  V30 10665 C 996.172 1.68062 -0.813144 0
M  V30 10666 C 996.523 1.84681 0.662374 0
M  V30 10667 O 995.648 1.54696 1.51321 0
M  V30 10668 C 996.243 3.05273 -1.46949 0
M  V30 10669 C 994.802 3.54647 -1.26104 0
M  V30 10670 C 993.949 2.30477 -1.54194 0
M  V30 10671 H 996.9 1.00056 -1.23185 0
M  V30 10672 H 996.921 3.69986 -0.888308 0
M  V30 10673 H 996.433 2.93145 -2.54337 0
M  V30 10674 H 994.534 3.72024 -0.20718 0
M  V30 10675 H 994.647 4.36354 -1.97819 0
M  V30 10676 H 993.011 2.35803 -0.96276 0
M  V30 10677 H 993.794 2.2094 -2.62755 0
M  V30 10678 N 996.239 0.8527 1.3254 0
M  V30 10679 C 997.467 0.469044 2.01513 0
M  V30 10680 C 997.882 -0.933701 1.64096 0
M  V30 10681 O 997.239 -1.60898 0.861283 0
M  V30 10682 C 997.29 0.596228 3.56549 0
M  V30 10683 O 997.011 1.94371 3.92621 0
M  V30 10684 C 998.512 0.211324 4.42796 0
M  V30 10685 H 995.732 0.184589 0.645111 0
M  V30 10686 H 998.276 1.1491 1.69163 0
M  V30 10687 H 996.431 -0.0360712 3.87383 0
M  V30 10688 H 996.845 1.93909 4.87339 0
M  V30 10689 H 998.319 0.351324 5.50881 0
M  V30 10690 H 998.796 -0.848055 4.30935 0
M  V30 10691 H 999.402 0.818617 4.17347 0
M  V30 10692 N 997.718 -1.45297 0.610449 0
M  V30 10693 C 999.134 -1.57225 0.274332 0
M  V30 10694 C 999.334 -1.60136 -1.22306 0
M  V30 10695 O 998.39 -1.5332 -2.00622 0
M  V30 10696 C 999.703 -2.85365 0.948028 0
M  V30 10697 C 1001.25 -2.99044 0.924216 0
M  V30 10698 C 1001.73 -4.29958 1.57798 0
M  V30 10699 N 1003.22 -4.36723 1.5436 0
M  V30 10700 C 1003.95 -5.36695 2.01857 0
M  V30 10701 N 1003.45 -6.43187 2.57453 0
M  V30 10702 N 1005.24 -5.28071 1.92608 0
M  V30 10703 H 997.392 -1.41651 1.58268 0
M  V30 10704 H 999.655 -0.67744 0.663158 0
M  V30 10705 H 999.361 -2.89125 2.00249 0
M  V30 10706 H 999.235 -3.74222 0.473062 0
M  V30 10707 H 1001.62 -2.94849 -0.121709 0
M  V30 10708 H 1001.7 -2.1159 1.43748 0
M  V30 10709 H 1001.35 -4.34912 2.62325 0
M  V30 10710 H 1001.28 -5.16234 1.03972 0
M  V30 10711 H 1003.77 -3.60374 1.13749 0
M  V30 10712 H 1004.08 -7.15722 2.91482 0
M  V30 10713 H 1002.43 -6.4393 2.61493 0
M  V30 10714 H 1005.62 -4.43783 1.48912 0
M  V30 10715 H 1005.79 -6.05832 2.29938 0
M  V30 10716 N 999.196 -0.349774 -1.5367 0
M  V30 10717 C 1000.14 0.504121 -2.25227 0
M  V30 10718 C 1001.11 1.09048 -1.2529 0
M  V30 10719 O 1002.3 1.12594 -1.54037 0
M  V30 10720 C 999.438 1.64601 -3.03316 0
M  V30 10721 C 998.551 1.08635 -4.18118 0
M  V30 10722 C 997.686 2.19605 -4.83681 0
M  V30 10723 C 996.725 1.61023 -5.90541 0
M  V30 10724 N 995.862 2.6576 -6.49858 0
M  V30 10725 H 1000.7 -0.112621 -2.97787 0
M  V30 10726 H 998.239 -0.0673503 -1.46946 0
M  V30 10727 H 1000.2 2.31836 -3.46854 0
M  V30 10728 H 998.827 2.23364 -2.33041 0
M  V30 10729 H 997.879 0.304748 -3.79177 0
M  V30 10730 H 999.191 0.617911 -4.94958 0
M  V30 10731 H 998.345 2.94693 -5.30322 0
M  V30 10732 H 997.084 2.69795 -4.06278 0
M  V30 10733 H 996.089 0.844428 -5.43277 0
M  V30 10734 H 997.314 1.11677 -6.69855 0
M  V30 10735 H 995.26 3.15193 -5.75317 0
M  V30 10736 H 995.177 2.23557 -7.2219 0
M  V30 10737 H 996.445 3.40598 -7.01151 0
M  V30 10738 N 1000.67 1.57404 -0.0785433 0
M  V30 10739 C 1001.95 1.85163 0.630389 0
M  V30 10740 C 1002.33 0.972295 1.87376 0
M  V30 10741 O 1001.68 0.0403375 2.28464 0
M  V30 10742 C 1001.89 3.35491 0.961604 0
M  V30 10743 C 1003.24 4.0316 1.33219 0
M  V30 10744 O 1004.26 3.40276 1.05313 0
M  V30 10745 O 1003.12 5.14086 1.85412 0
M  V30 10746 H 1000.21 0.765169 0.31376 0
M  V30 10747 H 1002.76 1.69343 -0.109986 0
M  V30 10748 H 1001.53 3.91221 0.0788113 0
M  V30 10749 H 1001.15 3.56598 1.75852 0
M  V30 10750 N 1002.15 -0.195058 1.56388 0
M  V30 10751 C 1003.08 -1.24444 1.97575 0
M  V30 10752 C 1004.06 -1.47471 0.847717 0
M  V30 10753 O 1005.25 -1.59208 1.11205 0
M  V30 10754 C 1002.38 -2.58866 2.31529 0
M  V30 10755 C 1001.33 -2.50451 3.47071 0
M  V30 10756 C 1000.66 -3.89146 3.667 0
M  V30 10757 C 1001.96 -2.02953 4.81256 0
M  V30 10758 H 1003.65 -0.902178 2.85484 0
M  V30 10759 H 1001.2 -0.43254 1.3735 0
M  V30 10760 H 1003.15 -3.3246 2.58936 0
M  V30 10761 H 1001.87 -2.94833 1.40502 0
M  V30 10762 H 1000.53 -1.79313 3.19754 0
M  V30 10763 H 1000.18 -4.22466 2.73004 0
M  V30 10764 H 999.882 -3.84391 4.44429 0
M  V30 10765 H 1001.41 -4.64363 3.96484 0
M  V30 10766 H 1002.82 -2.66306 5.07695 0
M  V30 10767 H 1001.22 -2.092 5.62455 0
M  V30 10768 H 1002.29 -0.982757 4.74837 0
M  V30 10769 N 1003.63 -1.50653 -0.462772 0
M  V30 10770 C 1004.56 -1.73056 -1.5676 0
M  V30 10771 C 1005.54 -0.579699 -1.59917 0
M  V30 10772 O 1006.73 -0.819729 -1.76051 0
M  V30 10773 C 1003.86 -1.83234 -2.9503 0
M  V30 10774 C 1002.81 -2.98488 -3.06739 0
M  V30 10775 C 1002.14 -2.93818 -4.46738 0
M  V30 10776 C 1003.44 -4.38869 -2.83181 0
M  V30 10777 H 1005.13 -2.65562 -1.38265 0
M  V30 10778 H 1002.68 -1.27792 -0.663722 0
M  V30 10779 H 1004.63 -1.97491 -3.72257 0
M  V30 10780 H 1003.35 -0.873558 -3.14701 0
M  V30 10781 H 1002.01 -2.83895 -2.31946 0
M  V30 10782 H 1001.66 -1.95769 -4.63339 0
M  V30 10783 H 1001.36 -3.71197 -4.55507 0
M  V30 10784 H 1002.88 -3.10135 -5.25974 0
M  V30 10785 H 1004.3 -4.53945 -3.50153 0
M  V30 10786 H 1002.69 -5.17762 -3.03386 0
M  V30 10787 H 1003.76 -4.50663 -1.78972 0
M  V30 10788 N 1005.11 0.71652 -1.4037 0
M  V30 10789 C 1006.04 1.84345 -1.43315 0
M  V30 10790 C 1007.02 1.67537 -0.294186 0
M  V30 10791 O 1008.2 1.87582 -0.502671 0
M  V30 10792 C 1005.33 3.2229 -1.29408 0
M  V30 10793 C 1004.29 3.53769 -2.40897 0
M  V30 10794 C 1003.61 4.90847 -2.12068 0
M  V30 10795 C 1004.91 3.54862 -3.83237 0
M  V30 10796 H 1006.61 1.82138 -2.37626 0
M  V30 10797 H 1004.15 0.874873 -1.14376 0
M  V30 10798 H 1006.11 4.00819 -1.30085 0
M  V30 10799 H 1004.83 3.2507 -0.31573 0
M  V30 10800 H 1003.49 2.77579 -2.39469 0
M  V30 10801 H 1003.14 4.90229 -1.12626 0
M  V30 10802 H 1002.84 5.12875 -2.86762 0
M  V30 10803 H 1004.36 5.71711 -2.14426 0
M  V30 10804 H 1005.78 4.23432 -3.86494 0
M  V30 10805 H 1004.17 3.88416 -4.57442 0
M  V30 10806 H 1005.24 2.54266 -4.12888 0
M  V30 10807 N 1006.59 1.25851 0.948643 0
M  V30 10808 C 1007.54 1.03437 2.03187 0
M  V30 10809 C 1008.52 -0.0307632 1.60871 0
M  V30 10810 O 1009.71 0.185296 1.76027 0
M  V30 10811 C 1006.84 0.661426 3.36868 0
M  V30 10812 C 1005.93 1.76363 3.8569 0
M  V30 10813 N 1006.32 2.9998 4.07241 0
M  V30 10814 C 1004.62 1.64552 4.14534 0
M  V30 10815 C 1005.32 3.71564 4.47566 0
M  V30 10816 N 1004.29 2.99214 4.53841 0
M  V30 10817 H 1008.1 1.97277 2.17851 0
M  V30 10818 H 1005.61 1.16258 1.13392 0
M  V30 10819 H 1007.61 0.482021 4.14104 0
M  V30 10820 H 1006.27 -0.269582 3.23579 0
M  V30 10821 H 1007.28 3.35963 3.94143 0
M  V30 10822 H 1003.95 0.783891 4.10075 0
M  V30 10823 H 1005.34 4.77702 4.72494 0
M  V30 10824 N 1008.06 -1.15214 1.07534 0
M  V30 10825 C 1009 -2.18999 0.641461 0
M  V30 10826 C 1009.98 -1.58958 -0.342238 0
M  V30 10827 O 1011.16 -1.86859 -0.248218 0
M  V30 10828 C 1008.29 -3.38651 -0.0577939 0
M  V30 10829 C 1007.33 -4.17225 0.884641 0
M  V30 10830 S 1008.17 -4.79375 2.38663 0
M  V30 10831 C 1009.32 -6.02393 1.69923 0
M  V30 10832 H 1009.55 -2.55464 1.52071 0
M  V30 10833 H 1007.09 -1.26205 0.889481 0
M  V30 10834 H 1009.05 -4.07971 -0.454982 0
M  V30 10835 H 1007.71 -3.00526 -0.913407 0
M  V30 10836 H 1006.9 -5.02837 0.342133 0
M  V30 10837 H 1006.5 -3.53463 1.2223 0
M  V30 10838 H 1008.79 -6.69899 1.01201 0
M  V30 10839 H 1009.74 -6.61216 2.53375 0
M  V30 10840 H 1010.14 -5.52106 1.1764 0
M  V30 10841 N 1009.54 -0.859717 -1.32086 0
M  V30 10842 C 1010.47 -0.265258 -2.2766 0
M  V30 10843 C 1011.49 0.565889 -1.52648 0
M  V30 10844 O 1012.68 0.389554 -1.74197 0
M  V30 10845 C 1009.78 0.643397 -3.32737 0
M  V30 10846 C 1008.95 -0.153024 -4.37132 0
M  V30 10847 C 1008.01 0.682176 -5.21759 0
M  V30 10848 O 1007.03 0.113878 -5.69086 0
M  V30 10849 N 1008.24 1.99602 -5.45105 0
M  V30 10850 H 1011 -1.08653 -2.79311 0
M  V30 10851 H 1008.56 -0.720191 -1.45 0
M  V30 10852 H 1010.55 1.20759 -3.86263 0
M  V30 10853 H 1009.12 1.36535 -2.81206 0
M  V30 10854 H 1008.34 -0.898657 -3.8382 0
M  V30 10855 H 1009.63 -0.699877 -5.03963 0
M  V30 10856 H 1009.03 2.481 -5.08393 0
M  V30 10857 H 1007.59 2.50823 -6.01607 0
M  V30 10858 N 1011.02 1.44971 -0.618145 0
M  V30 10859 C 1011.93 2.34403 0.0960457 0
M  V30 10860 C 1012.95 1.51862 0.849355 0
M  V30 10861 O 1014.12 1.84632 0.804557 0
M  V30 10862 C 1011.19 3.29646 1.07397 0
M  V30 10863 C 1010.25 4.28095 0.321466 0
M  V30 10864 C 1009.48 5.18787 1.25281 0
M  V30 10865 O 1009.7 5.1313 2.49106 0
M  V30 10866 O 1008.64 5.97282 0.744156 0
M  V30 10867 H 1012.46 2.96898 -0.639176 0
M  V30 10868 H 1010.05 1.44529 -0.37837 0
M  V30 10869 H 1011.93 3.88307 1.63694 0
M  V30 10870 H 1010.61 2.69702 1.79004 0
M  V30 10871 H 1009.51 3.73019 -0.284223 0
M  V30 10872 H 1010.85 4.90923 -0.354315 0
M  V30 10873 N 1012.5 0.357919 1.53482 0
M  V30 10874 C 1013.43 -0.484231 2.28424 0
M  V30 10875 C 1014.41 -1.09046 1.30548 0
M  V30 10876 O 1015.59 -1.10916 1.59409 0
M  V30 10877 C 1012.72 -1.62803 3.06778 0
M  V30 10878 C 1011.68 -1.14943 4.12277 0
M  V30 10879 C 1011 -2.38287 4.78669 0
M  V30 10880 C 1012.3 -0.239627 5.2175 0
M  V30 10881 H 1014 0.140979 2.99068 0
M  V30 10882 H 1011.54 0.069244 1.43833 0
M  V30 10883 H 1013.5 -2.22374 3.57949 0
M  V30 10884 H 1012.22 -2.28036 2.3381 0
M  V30 10885 H 1010.88 -0.576442 3.6204 0
M  V30 10886 H 1010.53 -3.01959 4.02281 0
M  V30 10887 H 1010.23 -2.06939 5.49955 0
M  V30 10888 H 1011.75 -2.98558 5.32631 0
M  V30 10889 H 1013.17 -0.742597 5.6847 0
M  V30 10890 H 1011.56 -0.0173747 6.00097 0
M  V30 10891 H 1012.63 0.720333 4.7952 0
M  V30 10892 N 1013.98 -1.5736 0.0868897 0
M  V30 10893 C 1015.22 -1.95933 -0.582212 0
M  V30 10894 C 1015.58 -0.967238 -1.65857 0
M  V30 10895 O 1016.78 -1.24116 -2.3843 0
M  V30 10896 C 1015.05 -3.39049 -1.1305 0
M  V30 10897 S 1016.61 -3.99612 -1.81262 0
M  V30 10898 H 1013.43 -0.685082 -0.190221 0
M  V30 10899 H 1016.03 -1.94808 0.164341 0
M  V30 10900 H 1014.74 -4.09026 -0.335492 0
M  V30 10901 H 1014.27 -3.43752 -1.91307 0
M  V30 10902 H 1016.28 -3.87747 -3.09624 0
M  V30 10903 N 1015.45 0.186762 -1.56489 0
M  V30 10904 C 1016.36 1.25169 -1.98419 0
M  V30 10905 C 1017.38 1.49329 -0.893124 0
M  V30 10906 O 1018.56 1.61781 -1.19954 0
M  V30 10907 C 1015.62 2.57422 -2.32239 0
M  V30 10908 C 1014.68 2.4126 -3.55095 0
M  V30 10909 C 1013.92 3.67206 -3.87292 0
M  V30 10910 O 1014.14 4.71731 -3.20665 0
M  V30 10911 O 1013.07 3.62238 -4.80695 0
M  V30 10912 H 1016.9 0.925834 -2.89244 0
M  V30 10913 H 1014.48 0.392421 -1.44154 0
M  V30 10914 H 1016.37 3.35466 -2.5503 0
M  V30 10915 H 1015.04 2.89618 -1.44579 0
M  V30 10916 H 1013.95 1.61299 -3.37541 0
M  V30 10917 H 1015.28 2.13994 -4.43247 0
M  V30 10918 N 1016.93 1.50896 0.454776 0
M  V30 10919 C 1018.18 1.62378 1.20324 0
M  V30 10920 C 1018.5 0.333883 1.9212 0
M  V30 10921 O 1017.77 -0.649477 1.8482 0
M  V30 10922 H 1016.35 0.598395 0.447139 0
M  V30 10923 H 1019.01 1.87749 0.523102 0
M  V30 10924 H 1018.11 2.44296 1.94232 0
M  V30 10925 N 1018.41 -0.709066 1.40748 0
M  V30 10926 C 1019.34 -1.83293 1.35937 0
M  V30 10927 C 1020.32 -1.60983 0.22871 0
M  V30 10928 O 1021.51 -1.8391 0.413435 0
M  V30 10929 C 1018.63 -3.19746 1.11714 0
M  V30 10930 C 1017.68 -3.60872 2.27319 0
M  V30 10931 S 1018.51 -3.67233 3.89743 0
M  V30 10932 C 1019.67 -5.06434 3.67797 0
M  V30 10933 H 1019.9 -1.87095 2.31047 0
M  V30 10934 H 1017.43 -0.876479 1.27111 0
M  V30 10935 H 1019.39 -3.98526 0.984245 0
M  V30 10936 H 1018.05 -3.1357 0.182472 0
M  V30 10937 H 1017.25 -4.59965 2.06029 0
M  V30 10938 H 1016.85 -2.89366 2.36946 0
M  V30 10939 H 1019.14 -5.93544 3.26668 0
M  V30 10940 H 1020.08 -5.32761 4.66445 0
M  V30 10941 H 1020.49 -4.77336 3.01348 0
M  V30 10942 N 1019.89 -1.26353 -0.941956 0
M  V30 10943 C 1020.84 -1.07842 -2.04056 0
M  V30 10944 C 1021.81 0.0163064 -1.66092 0
M  V30 10945 O 1022.99 -0.143313 -1.90261 0
M  V30 10946 C 1020.13 -0.716636 -3.37577 0
M  V30 10947 C 1019.24 -1.88754 -3.88582 0
M  V30 10948 C 1018.38 -1.46893 -5.10486 0
M  V30 10949 C 1017.42 -2.60819 -5.53751 0
M  V30 10950 N 1016.56 -2.19646 -6.66858 0
M  V30 10951 H 1021.4 -2.01856 -2.19221 0
M  V30 10952 H 1018.93 -1.00504 -1.07412 0
M  V30 10953 H 1020.89 -0.487768 -4.14339 0
M  V30 10954 H 1019.52 0.18653 -3.22261 0
M  V30 10955 H 1018.57 -2.22936 -3.08227 0
M  V30 10956 H 1019.88 -2.74264 -4.1663 0
M  V30 10957 H 1019.04 -1.20047 -5.94705 0
M  V30 10958 H 1017.78 -0.584721 -4.84182 0
M  V30 10959 H 1016.78 -2.88396 -4.6809 0
M  V30 10960 H 1018.01 -3.49838 -5.82057 0
M  V30 10961 H 1015.95 -1.33657 -6.4224 0
M  V30 10962 H 1015.87 -2.987 -6.94489 0
M  V30 10963 H 1017.14 -1.96009 -7.54454 0
M  V30 10964 N 1021.37 1.14642 -1.08144 0
M  V30 10965 C 1022.3 2.21775 -0.730609 0
M  V30 10966 C 1023.28 1.67683 0.285702 0
M  V30 10967 O 1024.46 1.93567 0.156667 0
M  V30 10968 C 1021.59 3.47033 -0.136242 0
M  V30 10969 C 1020.55 4.14134 -1.0806 0
M  V30 10970 C 1019.87 5.33563 -0.348585 0
M  V30 10971 C 1021.17 4.62978 -2.41761 0
M  V30 10972 H 1022.87 2.51378 -1.62633 0
M  V30 10973 H 1020.41 1.20825 -0.783411 0
M  V30 10974 H 1022.37 4.21226 0.121182 0
M  V30 10975 H 1021.09 3.16786 0.7946 0
M  V30 10976 H 1019.75 3.41892 -1.32308 0
M  V30 10977 H 1019.4 4.99575 0.585974 0
M  V30 10978 H 1019.1 5.79402 -0.978122 0
M  V30 10979 H 1020.62 6.10519 -0.0991508 0
M  V30 10980 H 1022.04 5.28659 -2.21795 0
M  V30 10981 H 1020.43 5.1951 -3.00383 0
M  V30 10982 H 1021.5 3.78189 -3.03482 0
M  V30 10983 N 1022.85 0.866709 1.31628 0
M  V30 10984 C 1023.78 0.335762 2.31073 0
M  V30 10985 C 1024.76 -0.571597 1.60209 0
M  V30 10986 O 1025.94 -0.489306 1.87935 0
M  V30 10987 C 1023.07 -0.466416 3.44154 0
M  V30 10988 C 1022.03 0.347561 4.26586 0
M  V30 10989 C 1021.35 -0.5801 5.31544 0
M  V30 10990 C 1022.65 1.57986 4.97833 0
M  V30 10991 H 1024.35 1.16673 2.75731 0
M  V30 10992 H 1021.89 0.56248 1.3256 0
M  V30 10993 H 1023.84 -0.84836 4.12772 0
M  V30 10994 H 1022.57 -1.33086 2.98254 0
M  V30 10995 H 1021.23 0.71141 3.59631 0
M  V30 10996 H 1020.88 -1.44174 4.81895 0
M  V30 10997 H 1020.58 -0.0393965 5.87587 0
M  V30 10998 H 1022.1 -0.958958 6.03023 0
M  V30 10999 H 1023.51 1.26954 5.59067 0
M  V30 11000 H 1021.91 2.05939 5.63657 0
M  V30 11001 H 1022.98 2.3345 4.25005 0
M  V30 11002 N 1024.32 -1.44642 0.625825 0
M  V30 11003 C 1025.29 -2.29085 -0.072526 0
M  V30 11004 C 1026.29 -1.40755 -0.777467 0
M  V30 11005 O 1027.48 -1.62684 -0.622861 0
M  V30 11006 C 1024.61 -3.22212 -1.1132 0
M  V30 11007 H 1025.8 -2.92317 0.670124 0
M  V30 11008 H 1023.35 -1.51466 0.38571 0
M  V30 11009 H 1024.09 -2.63819 -1.88601 0
M  V30 11010 H 1023.87 -3.87299 -0.611709 0
M  V30 11011 H 1025.36 -3.8566 -1.60175 0
M  V30 11012 N 1025.8 -0.366053 -1.5329 0
M  V30 11013 C 1027.03 0.226839 -2.06156 0
M  V30 11014 C 1027.45 1.41637 -1.23776 0
M  V30 11015 O 1026.81 1.7947 -0.256948 0
M  V30 11016 C 1026.86 0.597956 -3.55608 0
M  V30 11017 O 1025.96 1.69512 -3.75951 0
M  V30 11018 H 1025.3 0.0329156 -0.663184 0
M  V30 11019 H 1027.83 -0.526793 -1.97702 0
M  V30 11020 H 1027.84 0.868831 -3.98642 0
M  V30 11021 H 1026.52 -0.271838 -4.15011 0
M  V30 11022 H 1025.09 1.41976 -3.44815 0
M  V30 11023 N 1027.28 1.57312 -0.0952337 0
M  V30 11024 C 1028.56 1.85822 0.610715 0
M  V30 11025 C 1028.94 0.992114 1.86334 0
M  V30 11026 O 1028.28 0.0645669 2.28409 0
M  V30 11027 C 1028.49 3.36492 0.925967 0
M  V30 11028 C 1029.84 4.0455 1.28936 0
M  V30 11029 O 1030.87 3.41374 1.01698 0
M  V30 11030 O 1029.73 5.16024 1.79949 0
M  V30 11031 H 1026.82 0.768454 0.305626 0
M  V30 11032 H 1029.37 1.69217 -0.127941 0
M  V30 11033 H 1028.14 3.91282 0.0373127 0
M  V30 11034 H 1027.76 3.58443 1.7206 0
M  V30 11035 N 1028.76 -0.17846 1.56586 0
M  V30 11036 C 1029.69 -1.22342 1.98884 0
M  V30 11037 C 1030.67 -1.46564 0.86331 0
M  V30 11038 O 1031.85 -1.58019 1.12887 0
M  V30 11039 C 1028.98 -2.56396 2.34261 0
M  V30 11040 C 1027.94 -2.46756 3.49708 0
M  V30 11041 C 1027.26 -3.85235 3.70807 0
M  V30 11042 C 1028.56 -1.97838 4.83381 0
M  V30 11043 H 1030.26 -0.871848 2.86425 0
M  V30 11044 H 1027.8 -0.417948 1.37801 0
M  V30 11045 H 1029.76 -3.29695 2.62448 0
M  V30 11046 H 1028.48 -2.93327 1.43621 0
M  V30 11047 H 1027.14 -1.75912 3.21637 0
M  V30 11048 H 1026.79 -4.19547 2.7747 0
M  V30 11049 H 1026.49 -3.79655 4.48481 0
M  V30 11050 H 1028.01 -4.60131 4.01387 0
M  V30 11051 H 1029.43 -2.60906 5.10491 0
M  V30 11052 H 1027.82 -2.03223 5.64642 0
M  V30 11053 H 1028.89 -0.932339 4.75852 0
M  V30 11054 N 1030.24 -1.51135 -0.446768 0
M  V30 11055 C 1031.17 -1.74709 -1.54916 0
M  V30 11056 C 1032.15 -0.596628 -1.59293 0
M  V30 11057 O 1033.33 -0.838356 -1.75172 0
M  V30 11058 C 1030.46 -1.86353 -2.9307 0
M  V30 11059 C 1029.42 -3.01725 -3.03556 0
M  V30 11060 C 1028.74 -2.9854 -4.43597 0
M  V30 11061 C 1030.04 -4.41848 -2.7851 0
M  V30 11062 H 1031.74 -2.67014 -1.3544 0
M  V30 11063 H 1029.28 -1.28489 -0.650131 0
M  V30 11064 H 1031.23 -2.01428 -3.70141 0
M  V30 11065 H 1029.96 -0.906887 -3.13756 0
M  V30 11066 H 1028.62 -2.86339 -2.28922 0
M  V30 11067 H 1028.27 -2.00673 -4.61237 0
M  V30 11068 H 1027.97 -3.76008 -4.51544 0
M  V30 11069 H 1029.49 -3.15696 -5.22655 0
M  V30 11070 H 1030.9 -4.57633 -3.45319 0
M  V30 11071 H 1029.3 -5.2095 -2.97877 0
M  V30 11072 H 1030.37 -4.52536 -1.74182 0
M  V30 11073 N 1031.71 0.701592 -1.41122 0
M  V30 11074 C 1032.99 1.45569 -1.30648 0
M  V30 11075 C 1033.37 2.10988 0.068744 0
M  V30 11076 O 1032.72 2.01228 1.08257 0
M  V30 11077 C 1032.93 2.48003 -2.45551 0
M  V30 11078 C 1034.28 3.13431 -2.86437 0
M  V30 11079 O 1035.3 2.58327 -2.45247 0
M  V30 11080 O 1034.16 4.13221 -3.57646 0
M  V30 11081 H 1031.25 0.648 -0.513834 0
M  V30 11082 H 1033.8 0.73258 -1.53073 0
M  V30 11083 H 1032.57 1.98276 -3.37346 0
M  V30 11084 H 1032.19 3.27832 -2.24971 0
M  V30 11085 N 1033.19 1.2685 0.935242 0
M  V30 11086 C 1034.14 1.08746 2.05614 0
M  V30 11087 C 1035.13 0.012681 1.69395 0
M  V30 11088 O 1036.34 0.169822 1.79197 0
M  V30 11089 H 1032.71 0.33485 0.673335 0
M  V30 11090 H 1034.69 2.03725 2.18033 0
M  V30 11091 C 1033.43 0.74346 3.39659 0
M  V30 11092 H 1032.76 1.56236 3.68008 0
M  V30 11093 H 1034.2 0.656607 4.18885 0
M  V30 11094 C 1032.66 -0.551751 3.32351 0
M  V30 11095 O 1033.19 -1.58836 3.68963 0
M  V30 11096 N 1031.39 -0.544583 2.85452 0
M  V30 11097 H 1030.94 0.29939 2.55854 0
M  V30 11098 H 1030.9 -1.41129 2.80945 0
M  V30 11099 N 1034.67 -1.14067 1.0875 0
M  V30 11100 C 1035.62 -2.21332 0.715195 0
M  V30 11101 C 1036.61 -1.67059 -0.280679 0
M  V30 11102 O 1037.82 -1.79432 -0.142874 0
M  V30 11103 H 1034.19 -0.721126 0.213264 0
M  V30 11104 H 1036.16 -2.50002 1.62916 0
M  V30 11105 C 1034.91 -3.474 0.144401 0
M  V30 11106 H 1034.24 -3.89495 0.901884 0
M  V30 11107 H 1035.68 -4.23928 -0.0782564 0
M  V30 11108 C 1034.14 -3.17787 -1.11862 0
M  V30 11109 O 1034.67 -3.35906 -2.20295 0
M  V30 11110 N 1032.87 -2.71719 -1.03039 0
M  V30 11111 H 1032.42 -2.57175 -0.14793 0
M  V30 11112 H 1032.38 -2.52281 -1.87621 0
M  V30 11113 N 1036.15 -0.873678 -1.31166 0
M  V30 11114 C 1037.56 -0.566109 -1.49223 0
M  V30 11115 C 1037.76 0.898889 -1.80339 0
M  V30 11116 O 1036.82 1.68084 -1.88425 0
M  V30 11117 C 1038.13 -1.46952 -2.62346 0
M  V30 11118 C 1039.68 -1.47195 -2.76229 0
M  V30 11119 C 1040.16 -2.36102 -3.92454 0
M  V30 11120 N 1041.65 -2.34003 -3.99746 0
M  V30 11121 C 1042.38 -2.99513 -4.88958 0
M  V30 11122 N 1041.88 -3.74206 -5.83045 0
M  V30 11123 N 1043.67 -2.88802 -4.82234 0
M  V30 11124 H 1035.82 -1.82156 -1.09239 0
M  V30 11125 H 1038.09 -0.779086 -0.54012 0
M  V30 11126 H 1037.79 -2.51213 -2.4614 0
M  V30 11127 H 1037.67 -1.17077 -3.5857 0
M  V30 11128 H 1040.05 -0.436902 -2.91848 0
M  V30 11129 H 1040.13 -1.81095 -1.80661 0
M  V30 11130 H 1039.78 -3.39685 -3.77593 0
M  V30 11131 H 1039.71 -1.99524 -4.87337 0
M  V30 11132 H 1042.2 -1.79713 -3.32433 0
M  V30 11133 H 1042.51 -4.21312 -6.47855 0
M  V30 11134 H 1040.86 -3.78314 -5.83012 0
M  V30 11135 H 1044.05 -2.29984 -4.07707 0
M  V30 11136 H 1044.22 -3.40136 -5.51554 0
M  V30 11137 N 1037.63 1.44308 -0.633487 0
M  V30 11138 C 1038.88 2.01239 -0.136356 0
M  V30 11139 C 1039.19 1.50438 1.25011 0
M  V30 11140 O 1040.39 1.99513 1.84138 0
M  V30 11141 C 1038.85 3.59382 -0.193011 0
M  V30 11142 C 1038.46 4.19178 -1.58093 0
M  V30 11143 C 1040.2 4.23778 0.247534 0
M  V30 11144 C 1038.11 5.69553 -1.59258 0
M  V30 11145 H 1037.04 0.752521 -0.0472109 0
M  V30 11146 H 1039.69 1.65498 -0.79263 0
M  V30 11147 H 1038.07 3.92432 0.530408 0
M  V30 11148 H 1039.25 3.97662 -2.32813 0
M  V30 11149 H 1037.56 3.67079 -1.96576 0
M  V30 11150 H 1040.16 5.34075 0.258401 0
M  V30 11151 H 1040.5 3.96285 1.27529 0
M  V30 11152 H 1041.03 3.9554 -0.423469 0
M  V30 11153 H 1037.77 6.01784 -2.59878 0
M  V30 11154 H 1037.29 5.93185 -0.888352 0
M  V30 11155 H 1038.97 6.33234 -1.32756 0
M  V30 11156 N 1039.1 0.374177 1.53094 0
M  V30 11157 C 1040.35 -0.213981 2.00562 0
M  V30 11158 C 1040.67 -1.4916 1.26533 0
M  V30 11159 O 1041.87 -2.15889 1.64634 0
M  V30 11160 C 1040.33 -0.431876 3.57299 0
M  V30 11161 C 1039.94 0.831615 4.40214 0
M  V30 11162 C 1041.68 -0.977222 4.13099 0
M  V30 11163 C 1039.59 0.582831 5.88521 0
M  V30 11164 H 1038.52 -0.0837386 0.749336 0
M  V30 11165 H 1041.17 0.494245 1.76719 0
M  V30 11166 H 1039.55 -1.20158 3.7733 0
M  V30 11167 H 1040.72 1.60477 4.31953 0
M  V30 11168 H 1039.04 1.30081 3.9556 0
M  V30 11169 H 1041.64 -1.17881 5.21544 0
M  V30 11170 H 1041.98 -1.94189 3.68234 0
M  V30 11171 H 1042.51 -0.267473 3.969 0
M  V30 11172 H 1039.25 1.51807 6.37679 0
M  V30 11173 H 1038.77 -0.151666 5.99608 0
M  V30 11174 H 1040.45 0.211604 6.46654 0
M  V30 11175 N 1040.58 -1.57259 0.103575 0
M  V30 11176 C 1041.49 -2.18018 -0.866327 0
M  V30 11177 C 1042.51 -1.15198 -1.30404 0
M  V30 11178 O 1043.68 -1.47605 -1.37021 0
M  V30 11179 C 1040.75 -2.75533 -2.10434 0
M  V30 11180 C 1039.81 -3.93337 -1.72002 0
M  V30 11181 C 1039.04 -4.481 -2.89901 0
M  V30 11182 O 1039.27 -4.01784 -4.04877 0
M  V30 11183 O 1038.2 -5.39004 -2.67877 0
M  V30 11184 H 1042.03 -3.01322 -0.379338 0
M  V30 11185 H 1039.61 -1.48907 -0.121228 0
M  V30 11186 H 1041.49 -3.12259 -2.8297 0
M  V30 11187 H 1040.17 -1.9527 -2.58169 0
M  V30 11188 H 1039.08 -3.61408 -0.966193 0
M  V30 11189 H 1040.41 -4.74989 -1.29022 0
M  V30 11190 N 1042.06 0.170153 -1.56679 0
M  V30 11191 C 1043.48 0.521966 -1.50823 0
M  V30 11192 C 1043.68 1.84589 -0.808037 0
M  V30 11193 O 1042.73 2.49791 -0.368891 0
M  V30 11194 C 1044.05 0.553648 -2.95559 0
M  V30 11195 C 1045.59 0.640769 -3.06371 0
M  V30 11196 C 1046.07 0.703332 -4.52567 0
M  V30 11197 N 1047.56 0.76619 -4.56819 0
M  V30 11198 C 1048.29 0.835192 -5.67285 0
M  V30 11199 N 1047.79 0.864957 -6.87379 0
M  V30 11200 N 1049.58 0.874302 -5.55259 0
M  V30 11201 H 1041.73 -0.697952 -2.00605 0
M  V30 11202 H 1044 -0.251787 -0.913952 0
M  V30 11203 H 1043.7 -0.350498 -3.49949 0
M  V30 11204 H 1043.58 1.39973 -3.50268 0
M  V30 11205 H 1045.96 1.53534 -2.52015 0
M  V30 11206 H 1046.05 -0.232008 -2.54746 0
M  V30 11207 H 1045.69 -0.186986 -5.07556 0
M  V30 11208 H 1045.62 1.59227 -5.0195 0
M  V30 11209 H 1048.11 0.751424 -3.70354 0
M  V30 11210 H 1048.42 0.918814 -7.67318 0
M  V30 11211 H 1046.77 0.833215 -6.89987 0
M  V30 11212 H 1049.96 0.848057 -4.60354 0
M  V30 11213 H 1050.13 0.924615 -6.4137 0
M  V30 11214 N 1043.54 1.5137 0.438746 0
M  V30 11215 C 1044.47 1.75528 1.53987 0
M  V30 11216 C 1045.45 0.605067 1.58975 0
M  V30 11217 O 1046.63 0.847634 1.74725 0
M  V30 11218 C 1043.76 1.87904 2.92078 0
M  V30 11219 C 1042.72 3.0333 3.01951 0
M  V30 11220 C 1042.04 3.00888 4.42007 0
M  V30 11221 C 1043.34 4.43319 2.76163 0
M  V30 11222 H 1045.04 2.67728 1.34022 0
M  V30 11223 H 1042.58 1.28831 0.643308 0
M  V30 11224 H 1044.54 2.03388 3.69068 0
M  V30 11225 H 1043.26 0.923514 3.13271 0
M  V30 11226 H 1041.92 2.87549 2.274 0
M  V30 11227 H 1041.57 2.03116 4.60166 0
M  V30 11228 H 1041.27 3.78397 4.49544 0
M  V30 11229 H 1042.79 3.18464 5.20973 0
M  V30 11230 H 1044.21 4.59458 3.42887 0
M  V30 11231 H 1042.6 5.22523 2.9511 0
M  V30 11232 H 1043.67 4.53453 1.71779 0
M  V30 11233 N 1045.02 -0.694098 1.41492 0
M  V30 11234 C 1045.96 -1.82932 1.43662 0
M  V30 11235 C 1046.96 -1.66455 0.31449 0
M  V30 11236 O 1048.16 -1.73298 0.486589 0
M  V30 11237 H 1044.54 -0.602847 0.449533 0
M  V30 11238 H 1046.51 -1.78218 2.39334 0
M  V30 11239 C 1045.26 -3.20962 1.33712 0
M  V30 11240 H 1044.58 -3.34257 2.19345 0
M  V30 11241 H 1046.02 -4.00467 1.39291 0
M  V30 11242 C 1044.48 -3.36863 0.0496332 0
M  V30 11243 O 1045.01 -3.91371 -0.905093 0
M  V30 11244 N 1043.22 -2.90588 -0.0269299 0
M  V30 11245 H 1042.76 -2.46417 0.750752 0
M  V30 11246 H 1042.72 -3.01605 -0.887781 0
M  V30 11247 N 1046.49 -1.27344 -0.928501 0
M  V30 11248 C 1047.91 -1.04732 -1.2043 0
M  V30 11249 C 1048.11 0.219623 -2.003 0
M  V30 11250 O 1047.17 0.925333 -2.34934 0
M  V30 11251 C 1048.48 -2.28625 -1.95323 0
M  V30 11252 C 1050.03 -2.33655 -2.08265 0
M  V30 11253 C 1050.5 -3.57275 -2.86563 0
M  V30 11254 N 1051.99 -3.57828 -2.94132 0
M  V30 11255 C 1052.73 -4.50152 -3.55177 0
M  V30 11256 N 1052.22 -5.52779 -4.17621 0
M  V30 11257 N 1054.02 -4.37777 -3.52573 0
M  V30 11258 H 1046.17 -2.08697 -0.394892 0
M  V30 11259 H 1048.43 -0.91782 -0.2373 0
M  V30 11260 H 1048.14 -3.20845 -1.44054 0
M  V30 11261 H 1048.01 -2.33878 -2.95941 0
M  V30 11262 H 1050.4 -1.41942 -2.58721 0
M  V30 11263 H 1050.48 -2.32406 -1.0687 0
M  V30 11264 H 1050.12 -4.49325 -2.3679 0
M  V30 11265 H 1050.05 -3.55775 -3.88242 0
M  V30 11266 H 1052.54 -2.83607 -2.49751 0
M  V30 11267 H 1052.86 -6.19394 -4.62137 0
M  V30 11268 H 1051.2 -5.56622 -4.16169 0
M  V30 11269 H 1054.39 -3.56811 -3.02991 0
M  V30 11270 H 1054.57 -5.09919 -3.99858 0
M  V30 11271 N 1047.97 1.13488 -1.09353 0
M  V30 11272 C 1049.22 1.85022 -0.830354 0
M  V30 11273 C 1049.55 1.83266 0.64242 0
M  V30 11274 O 1048.83 1.27024 1.47293 0
M  V30 11275 C 1049.11 3.33218 -1.36521 0
M  V30 11276 C 1048.96 3.43491 -2.90404 0
M  V30 11277 C 1050.28 4.28626 -0.998381 0
M  V30 11278 H 1047.4 0.671786 -0.303105 0
M  V30 11279 H 1050.04 1.33211 -1.3548 0
M  V30 11280 H 1048.19 3.77471 -0.919117 0
M  V30 11281 H 1049.86 3.07954 -3.43456 0
M  V30 11282 H 1048.11 2.84391 -3.27573 0
M  V30 11283 H 1048.78 4.47702 -3.22905 0
M  V30 11284 H 1051.25 3.9244 -1.38311 0
M  V30 11285 H 1050.13 5.30754 -1.39968 0
M  V30 11286 H 1050.39 4.42001 0.093517 0
M  V30 11287 N 1049.45 0.880621 1.30701 0
M  V30 11288 C 1050.86 0.547993 1.78477 0
M  V30 11289 C 1051.21 -0.935633 1.72454 0
M  V30 11290 O 1050.34 -1.73094 1.29874 0
M  V30 11291 C 1050.93 0.98795 3.24076 0
M  V30 11292 C 1049.49 0.706805 3.69704 0
M  V30 11293 C 1048.64 1.17335 2.51252 0
M  V30 11294 H 1051.59 1.06528 1.17633 0
M  V30 11295 H 1051.61 0.31508 3.79193 0
M  V30 11296 H 1051.12 2.06778 3.28427 0
M  V30 11297 H 1049.22 -0.36122 3.70845 0
M  V30 11298 H 1049.34 1.2913 4.6137 0
M  V30 11299 H 1047.7 0.592808 2.47705 0
M  V30 11300 H 1048.48 2.26083 2.58343 0
M  V30 11301 N 1050.93 -1.4397 0.641131 0
M  V30 11302 C 1051.89 -2.29149 -0.0482243 0
M  V30 11303 C 1052.89 -1.41572 -0.762495 0
M  V30 11304 O 1054.08 -1.63335 -0.605571 0
M  V30 11305 C 1051.21 -3.23375 -1.07896 0
M  V30 11306 H 1052.41 -2.9159 0.70109 0
M  V30 11307 H 1049.96 -1.51048 0.401754 0
M  V30 11308 H 1050.7 -2.65804 -1.85792 0
M  V30 11309 H 1050.48 -3.87926 -0.570597 0
M  V30 11310 H 1051.97 -3.87337 -1.56075 0
M  V30 11311 N 1052.41 -0.382291 -1.52893 0
M  V30 11312 C 1053.82 0.0932841 -1.86467 0
M  V30 11313 C 1054.17 1.4675 -1.30226 0
M  V30 11314 O 1053.29 2.07001 -0.63084 0
M  V30 11315 C 1053.89 0.176048 -3.38342 0
M  V30 11316 C 1052.45 0.595904 -3.71653 0
M  V30 11317 C 1051.6 -0.246511 -2.76202 0
M  V30 11318 H 1054.55 -0.600443 -1.46903 0
M  V30 11319 H 1054.57 0.996512 -3.67219 0
M  V30 11320 H 1054.08 -0.824264 -3.79246 0
M  V30 11321 H 1052.18 1.60384 -3.36315 0
M  V30 11322 H 1052.29 0.358919 -4.77754 0
M  V30 11323 H 1050.66 0.287162 -2.53076 0
M  V30 11324 H 1051.44 -1.24467 -3.19942 0
M  V30 11325 N 1053.89 1.57202 -0.111913 0
M  V30 11326 C 1055.3 1.82039 0.414591 0
M  V30 11327 C 1055.65 1.02863 1.67074 0
M  V30 11328 O 1054.77 0.263068 2.14795 0
M  V30 11329 C 1055.37 3.3019 0.758953 0
M  V30 11330 C 1053.93 3.55732 1.23012 0
M  V30 11331 C 1053.07 2.76301 0.235226 0
M  V30 11332 H 1056.02 1.55078 -0.337142 0
M  V30 11333 H 1056.05 3.44431 1.61701 0
M  V30 11334 H 1055.56 3.87788 -0.155473 0
M  V30 11335 H 1053.66 3.03483 2.16169 0
M  V30 11336 H 1053.77 4.64333 1.18034 0
M  V30 11337 H 1052.14 2.44287 0.720822 0
M  V30 11338 H 1052.92 3.36655 -0.672173 0
M  V30 11339 N 1055.36 -0.161842 1.56767 0
M  V30 11340 C 1056.64 -0.904754 1.73417 0
M  V30 11341 C 1057.02 -1.99987 0.675908 0
M  V30 11342 O 1056.37 -2.26419 -0.307712 0
M  V30 11343 C 1056.58 -1.46082 3.16956 0
M  V30 11344 C 1057.93 -1.93004 3.78199 0
M  V30 11345 O 1058.95 -1.55856 3.20293 0
M  V30 11346 O 1057.81 -2.61465 4.79894 0
M  V30 11347 H 1054.9 -0.426518 0.708528 0
M  V30 11348 H 1057.45 -0.148928 1.69045 0
M  V30 11349 H 1056.22 -0.673087 3.85468 0
M  V30 11350 H 1055.84 -2.28056 3.25693 0
M  V30 11351 N 1056.84 -1.516 -0.430713 0
M  V30 11352 C 1058.09 -1.6484 -1.18134 0
M  V30 11353 C 1058.42 -0.366725 -1.90706 0
M  V30 11354 O 1057.7 0.63398 -1.83878 0
M  V30 11355 C 1057.98 -2.85617 -2.19306 0
M  V30 11356 C 1057.83 -4.23778 -1.50773 0
M  V30 11357 C 1059.15 -3.01909 -3.20217 0
M  V30 11358 H 1056.27 -0.599907 -0.428113 0
M  V30 11359 H 1058.91 -1.84102 -0.46973 0
M  V30 11360 H 1057.06 -2.69325 -2.79993 0
M  V30 11361 H 1058.73 -4.51752 -0.93371 0
M  V30 11362 H 1056.98 -4.26171 -0.809966 0
M  V30 11363 H 1057.65 -5.04291 -2.24487 0
M  V30 11364 H 1060.12 -3.16956 -2.69589 0
M  V30 11365 H 1059 -3.87968 -3.88293 0
M  V30 11366 H 1059.26 -2.1427 -3.86705 0
M  V30 11367 O 1058.36 0.576504 -1.5086 0
M  V30 11368 H 1059.05 1.23151 -1.49511 0
M  V30 END ATOM
M  V30 BEGIN BOND
M  V30 END BOND
M  V30 END CTAB
M  END
$$$$
