drugbank_target|Q14103 Heterogeneous nuclear ribonucleoprotein D0 (DB11638)
 OpenBabel12092121083D

  0  0  0     0  0            999 V3000
M  V30 BEGIN CTAB
M  V30 COUNTS 15237 16365 0 0 0
M  V30 BEGIN ATOM
M  V30 1 H -1.547 9.37743 -1.21644 0
M  V30 2 O -1.44 8.89599 -0.40059 0
M  V30 3 P 0 8.91 0 0
M  V30 4 O 0.22 10.1746 0.733838 0
M  V30 5 O 0.79 8.73346 -1.23964 0
M  V30 6 O 0.25 7.66872 0.971405 0
M  V30 7 C -0.69 7.42405 2.04668 0
M  V30 8 C 0.04 6.86059 3.24661 0
M  V30 9 O 0.25 5.42934 3.03695 0
M  V30 10 C 1.44 7.41287 3.50796 0
M  V30 11 O 1.83 7.27073 4.86816 0
M  V30 12 C 2.32 6.5273 2.63741 0
M  V30 13 C 1.61 5.1842 2.73198 0
M  V30 14 N 1.66 4.38762 1.4784 0
M  V30 15 H -1.178 8.36899 2.3252 0
M  V30 16 H -1.45 6.70391 1.71179 0
M  V30 17 H -0.582 7.03638 4.13219 0
M  V30 18 H 2.073 4.59931 3.54016 0
M  V30 19 H 2.353 6.88995 1.59871 0
M  V30 20 H 3.344 6.4684 3.0373 0
M  V30 21 H 1.51 8.47002 3.20749 0
M  V30 22 P 3.37998 7.20834 5.23717 0
M  V30 23 O 3.59998 7.79853 6.57286 0
M  V30 24 O 4.16998 7.79239 4.12957 0
M  V30 25 O 3.62998 5.63315 5.29344 0
M  V30 26 C 2.68998 4.80255 6.01876 0
M  V30 27 C 3.41998 3.64202 6.65911 0
M  V30 28 O 3.62998 2.60694 5.64732 0
M  V30 29 C 4.81998 3.93473 7.1943 0
M  V30 30 O 5.20998 3.02071 8.21205 0
M  V30 31 C 5.69998 3.73047 5.97036 0
M  V30 32 C 4.98998 2.58828 5.25741 0
M  V30 33 N 5.03998 2.68068 3.77503 0
M  V30 34 H 2.20098 5.40332 6.79951 0
M  V30 35 H 1.93098 4.41613 5.32378 0
M  V30 36 H 2.79798 3.26331 7.47797 0
M  V30 37 P 6.75996 2.75334 8.47391 0
M  V30 38 O 6.97996 2.44571 9.90142 0
M  V30 39 O 7.54996 3.87688 7.92115 0
M  V30 40 O 7.00996 1.4459 7.59357 0
M  V30 41 C 6.06996 0.347608 7.69215 0
M  V30 42 C 6.79996 -0.96767 7.52806 0
M  V30 43 O 7.00996 -1.21036 6.1011 0
M  V30 44 C 8.19996 -1.04544 8.13308 0
M  V30 45 O 8.58996 -2.38311 8.41922 0
M  V30 46 C 9.07996 -0.491279 7.02284 0
M  V30 47 C 8.36996 -0.996264 5.77469 0
M  V30 48 N 8.41996 -0.0501916 4.62973 0
M  V30 49 H 5.58096 0.374722 8.67691 0
M  V30 50 H 5.31096 0.443485 6.90277 0
M  V30 51 H 6.17796 -1.75537 7.96793 0
M  V30 52 P 10.1399 -2.75334 8.47391 0
M  V30 53 O 10.3599 -3.84128 9.44797 0
M  V30 54 O 10.9299 -1.51947 8.68712 0
M  V30 55 O 10.3899 -3.29363 6.99321 0
M  V30 56 C 9.44994 -4.24011 6.4274 0
M  V30 57 C 10.1799 -5.20775 5.52155 0
M  V30 58 O 10.3899 -4.56534 4.22446 0
M  V30 59 C 11.5799 -5.62629 5.96531 0
M  V30 60 O 11.9699 -6.87667 5.41053 0
M  V30 61 C 12.4599 -4.52537 5.39283 0
M  V30 62 C 11.7499 -4.20027 4.08623 0
M  V30 63 N 11.7999 -2.76189 3.71603 0
M  V30 64 H 8.96094 -4.797 7.24003 0
M  V30 65 H 8.69094 -3.69856 5.84513 0
M  V30 66 H 9.55794 -6.10356 5.41441 0
M  V30 67 P 13.5199 -7.20834 5.23717 0
M  V30 68 O 13.7399 -8.66104 5.38572 0
M  V30 69 O 14.3099 -6.33544 6.1349 0
M  V30 70 O 13.7699 -6.7751 3.72168 0
M  V30 71 C 12.8299 -7.20825 2.7076 0
M  V30 72 C 13.5599 -7.45864 1.40599 0
M  V30 73 O 13.7699 -6.17651 0.734225 0
M  V30 74 C 14.9599 -8.05808 1.51899 0
M  V30 75 O 15.3499 -8.74358 0.335205 0
M  V30 76 C 15.8399 -6.83093 1.70294 0
M  V30 77 C 15.1299 -5.79992 0.836974 0
M  V30 78 N 15.1799 -4.41864 1.38293 0
M  V30 79 H 12.3409 -8.13644 3.0377 0
M  V30 80 H 12.0709 -6.42788 2.55485 0
M  V30 81 H 12.9379 -8.12039 0.792769 0
M  V30 82 P 16.8999 -8.91 1.09116e-15 0
M  V30 83 O 17.1199 -10.1726 -0.733694 0
M  V30 84 O 17.6899 -8.73148 1.23936 0
M  V30 85 O 17.1499 -7.66872 -0.971405 0
M  V30 86 C 16.2099 -7.42309 -2.04641 0
M  V30 87 C 16.9399 -6.86059 -3.24661 0
M  V30 88 O 17.1499 -5.42847 -3.03646 0
M  V30 89 C 18.3399 -7.41196 -3.50753 0
M  V30 90 O 18.7299 -7.27073 -4.86816 0
M  V30 91 C 19.2199 -6.5273 -2.63741 0
M  V30 92 C 18.5099 -5.1842 -2.73198 0
M  V30 93 N 18.5599 -4.38762 -1.4784 0
M  V30 94 H 15.7209 -8.36803 -2.32493 0
M  V30 95 H 15.4509 -6.70197 -1.71129 0
M  V30 96 H 16.3179 -7.03551 -4.13168 0
M  V30 97 P 20.2799 -7.20834 -5.23717 0
M  V30 98 O 20.4999 -7.79853 -6.57286 0
M  V30 99 O 21.0699 -7.79239 -4.12957 0
M  V30 100 O 20.5299 -5.63315 -5.29344 0
M  V30 101 C 19.5899 -4.80255 -6.01876 0
M  V30 102 C 20.3199 -3.64202 -6.65911 0
M  V30 103 O 20.5299 -2.60694 -5.64732 0
M  V30 104 C 21.7199 -3.93473 -7.1943 0
M  V30 105 O 22.1099 -3.02071 -8.21205 0
M  V30 106 C 22.5999 -3.73047 -5.97036 0
M  V30 107 C 21.8899 -2.58828 -5.25741 0
M  V30 108 N 21.9399 -2.68068 -3.77503 0
M  V30 109 C 21.8599 -3.79715 -2.96723 0
M  V30 110 N 21.9399 -3.5377 -1.68852 0
M  V30 111 C 22.0799 -2.15054 -1.63254 0
M  V30 112 C 22.2099 -1.28964 -0.518571 0
M  V30 113 O 22.2299 -1.56826 0.679156 0
M  V30 114 N 22.3299 0.0538097 -0.918425 0
M  V30 115 C 22.3299 0.494275 -2.22578 0
M  V30 116 N 22.4599 1.81086 -2.40434 0
M  V30 117 N 22.1999 -0.313645 -3.27502 0
M  V30 118 C 22.0799 -1.61829 -2.91033 0
M  V30 119 H 19.1009 -5.40332 -6.79951 0
M  V30 120 H 18.8309 -4.41613 -5.32378 0
M  V30 121 H 19.6979 -3.26331 -7.47797 0
M  V30 122 H 22.3529 -1.63422 -5.56814 0
M  V30 123 H 22.6319 -4.63374 -5.34244 0
M  V30 124 H 23.6239 -3.44728 -6.25838 0
M  V30 125 H 21.7899 -4.96652 -7.57263 0
M  V30 126 H 21.7409 -4.80617 -3.3614 0
M  V30 127 H 22.4229 0.742702 -0.199384 0
M  V30 128 H 22.4599 2.20598 -3.35588 0
M  V30 129 H 22.5609 2.43518 -1.58945 0
M  V30 130 P 23.6599 -2.75334 -8.47391 0
M  V30 131 O 23.8799 -2.44571 -9.90142 0
M  V30 132 O 24.4499 -3.87688 -7.92115 0
M  V30 133 O 23.9099 -1.4459 -7.59357 0
M  V30 134 C 22.9699 -0.347608 -7.69215 0
M  V30 135 C 23.6999 0.96767 -7.52806 0
M  V30 136 O 23.9099 1.21036 -6.1011 0
M  V30 137 C 25.0999 1.04544 -8.13308 0
M  V30 138 O 25.4899 2.38311 -8.41922 0
M  V30 139 C 25.9799 0.491279 -7.02284 0
M  V30 140 C 25.2699 0.996264 -5.77469 0
M  V30 141 N 25.3199 0.0501916 -4.62973 0
M  V30 142 C 25.2399 -1.32786 -4.63244 0
M  V30 143 N 25.3199 -1.86957 -3.44545 0
M  V30 144 C 25.4599 -0.780241 -2.58481 0
M  V30 145 C 25.5899 -0.738536 -1.17757 0
M  V30 146 O 25.6099 -1.66794 -0.372349 0
M  V30 147 N 25.7099 0.58337 -0.711393 0
M  V30 148 C 25.7099 1.70816 -1.51017 0
M  V30 149 N 25.8399 2.87826 -0.880757 0
M  V30 150 N 25.5799 1.67126 -2.8339 0
M  V30 151 C 25.4599 0.401421 -3.30572 0
M  V30 152 H 22.4809 -0.374722 -8.67691 0
M  V30 153 H 22.2109 -0.443485 -6.90277 0
M  V30 154 H 23.0779 1.75537 -7.96793 0
M  V30 155 H 25.7329 1.95076 -5.46529 0
M  V30 156 H 26.0119 -0.608565 -7.04577 0
M  V30 157 H 27.0039 0.889672 -7.08939 0
M  V30 158 H 25.1699 0.43308 -9.04564 0
M  V30 159 H 25.1209 -1.91249 -5.54442 0
M  V30 160 H 25.8029 0.718054 0.275244 0
M  V30 161 H 25.8399 3.75721 -1.41832 0
M  V30 162 H 25.9409 2.90436 0.145468 0
M  V30 163 P 27.0398 2.75334 -8.47391 0
M  V30 164 O 27.2598 3.84128 -9.44797 0
M  V30 165 O 27.8298 1.51947 -8.68712 0
M  V30 166 O 27.2898 3.29363 -6.99321 0
M  V30 167 C 26.3498 4.24011 -6.4274 0
M  V30 168 C 27.0798 5.20775 -5.52155 0
M  V30 169 O 27.2898 4.56534 -4.22446 0
M  V30 170 C 28.4798 5.62629 -5.96531 0
M  V30 171 O 28.8698 6.87667 -5.41053 0
M  V30 172 C 29.3598 4.52537 -5.39283 0
M  V30 173 C 28.6498 4.20027 -4.08623 0
M  V30 174 N 28.6998 2.76189 -3.71603 0
M  V30 175 H 25.8608 4.797 -7.24003 0
M  V30 176 H 25.5908 3.69856 -5.84513 0
M  V30 177 H 26.4578 6.10356 -5.41441 0
M  V30 178 P 30.4198 7.20834 -5.23717 0
M  V30 179 O 30.6398 8.66104 -5.38572 0
M  V30 180 O 31.2098 6.33544 -6.1349 0
M  V30 181 O 30.6698 6.7751 -3.72168 0
M  V30 182 C 29.7298 7.20825 -2.7076 0
M  V30 183 C 30.4598 7.45864 -1.40599 0
M  V30 184 O 30.6698 6.17651 -0.734225 0
M  V30 185 C 31.8598 8.05808 -1.51899 0
M  V30 186 O 32.2498 8.74358 -0.335205 0
M  V30 187 C 32.7398 6.83093 -1.70294 0
M  V30 188 C 32.0298 5.79992 -0.836974 0
M  V30 189 N 32.0798 4.41864 -1.38293 0
M  V30 190 C 31.9998 3.99538 -2.69438 0
M  V30 191 N 32.0798 2.69909 -2.84277 0
M  V30 192 C 32.2198 2.21719 -1.5408 0
M  V30 193 C 32.3498 0.891712 -1.06628 0
M  V30 194 O 32.3698 -0.161298 -1.70137 0
M  V30 195 N 32.4698 0.856846 0.334985 0
M  V30 196 C 32.4698 1.9641 1.15789 0
M  V30 197 N 32.5998 1.72708 2.46522 0
M  V30 198 N 32.3398 3.21165 0.713741 0
M  V30 199 C 32.2198 3.26797 -0.639748 0
M  V30 200 H 29.2408 8.13644 -3.0377 0
M  V30 201 H 28.9708 6.42788 -2.55485 0
M  V30 202 H 29.8378 8.12039 -0.792769 0
M  V30 203 H 32.4928 5.80061 0.166416 0
M  V30 204 H 32.7718 6.51287 -2.75604 0
M  V30 205 H 33.7638 7.01734 -1.34462 0
M  V30 206 H 31.9298 8.73674 -2.38337 0
M  V30 207 H 31.8808 4.68207 -3.53221 0
M  V30 208 H 32.5628 -0.0398818 0.767965 0
M  V30 209 H 32.5998 2.50995 3.13503 0
M  V30 210 H 32.7008 0.759148 2.80716 0
M  V30 211 P 33.7998 8.91 -2.18232e-15 0
M  V30 212 O 34.0198 10.1746 0.733838 0
M  V30 213 O 34.5898 8.73346 -1.23964 0
M  V30 214 O 34.0498 7.66872 0.971405 0
M  V30 215 C 33.1098 7.42405 2.04668 0
M  V30 216 C 33.8398 6.86059 3.24661 0
M  V30 217 O 34.0498 5.42934 3.03695 0
M  V30 218 C 35.2398 7.41287 3.50796 0
M  V30 219 O 35.6298 7.27073 4.86816 0
M  V30 220 C 36.1198 6.5273 2.63741 0
M  V30 221 C 35.4098 5.1842 2.73198 0
M  V30 222 N 35.4598 4.38762 1.4784 0
M  V30 223 C 35.3798 4.83651 0.183876 0
M  V30 224 N 35.4498 3.88759 -0.699393 0
M  V30 225 C 35.5998 2.7404 0.0575568 0
M  V30 226 C 35.7298 1.37902 -0.293928 0
M  V30 227 N 35.7398 0.938021 -1.54797 0
M  V30 228 N 35.8498 0.491817 0.70549 0
M  V30 229 C 35.8398 0.931735 1.95979 0
M  V30 230 N 35.7198 2.16017 2.41481 0
M  V30 231 C 35.5998 3.02547 1.39121 0
M  V30 232 H 32.6218 8.36899 2.3252 0
M  V30 233 H 32.3498 6.70391 1.71179 0
M  V30 234 H 33.2178 7.03638 4.13219 0
M  V30 235 H 35.8728 4.59931 3.54016 0
M  V30 236 H 36.1528 6.88995 1.59871 0
M  V30 237 H 37.1438 6.4684 3.0373 0
M  V30 238 H 35.3098 8.47002 3.20749 0
M  V30 239 H 35.2688 5.8885 -0.0765548 0
M  V30 240 H 35.6498 1.60276 -2.32875 0
M  V30 241 H 35.8388 -0.0699355 -1.73859 0
M  V30 242 H 35.9468 0.165507 2.71897 0
M  V30 243 P 37.1798 7.20834 5.23717 0
M  V30 244 O 37.3998 7.80006 6.57415 0
M  V30 245 O 37.9698 7.79416 4.13051 0
M  V30 246 O 37.4298 5.63315 5.29344 0
M  V30 247 C 36.4898 4.80318 6.01954 0
M  V30 248 C 37.2198 3.64202 6.65911 0
M  V30 249 O 37.4298 2.60736 5.64823 0
M  V30 250 C 38.6198 3.93521 7.19518 0
M  V30 251 O 39.0098 3.02071 8.21205 0
M  V30 252 C 39.4998 3.73047 5.97036 0
M  V30 253 C 38.7898 2.58828 5.25741 0
M  V30 254 N 38.8398 2.68068 3.77503 0
M  V30 255 C 38.7598 3.80474 2.99159 0
M  V30 256 N 38.8298 3.55622 1.71925 0
M  V30 257 C 38.9798 2.1832 1.65733 0
M  V30 258 C 39.1098 1.28842 0.572777 0
M  V30 259 N 39.1198 1.66875 -0.70098 0
M  V30 260 N 39.2298 -0.016788 0.859836 0
M  V30 261 C 39.2198 -0.398145 2.13316 0
M  V30 262 N 39.0998 0.328224 3.22333 0
M  V30 263 C 38.9798 1.62992 2.90383 0
M  V30 264 H 36.0018 5.40394 6.8003 0
M  V30 265 H 35.7298 4.41741 5.32532 0
M  V30 266 H 36.5978 3.26371 7.47889 0
M  V30 267 H 39.2528 1.64007 5.56746 0
M  V30 268 H 39.5328 4.63439 5.3432 0
M  V30 269 H 40.5238 3.44776 6.25925 0
M  V30 270 H 38.6898 4.96707 7.57347 0
M  V30 271 H 38.6488 4.8089 3.39924 0
M  V30 272 H 39.0298 2.66547 -0.941919 0
M  V30 273 H 39.2188 0.965341 -1.44766 0
M  V30 274 H 39.3268 -1.46427 2.29697 0
M  V30 275 P 40.5598 2.75334 8.47391 0
M  V30 276 O 40.7798 2.44619 9.90336 0
M  V30 277 O 41.3498 3.87776 7.92294 0
M  V30 278 O 40.8098 1.4459 7.59357 0
M  V30 279 C 39.8698 0.347653 7.69315 0
M  V30 280 C 40.5998 -0.96767 7.52806 0
M  V30 281 O 40.8098 -1.21055 6.10208 0
M  V30 282 C 41.9998 -1.04557 8.13408 0
M  V30 283 O 42.3898 -2.38311 8.41922 0
M  V30 284 C 42.8798 -0.491279 7.02284 0
M  V30 285 C 42.1698 -0.996264 5.77469 0
M  V30 286 N 42.2198 -0.0501916 4.62973 0
M  V30 287 C 42.1398 1.31969 4.65661 0
M  V30 288 N 42.2098 1.86649 3.48119 0
M  V30 289 C 42.3598 0.792089 2.62406 0
M  V30 290 C 42.4898 0.705684 1.2207 0
M  V30 291 N 42.4998 1.76207 0.413762 0
M  V30 292 N 42.6098 -0.518981 0.685754 0
M  V30 293 C 42.5998 -1.57595 1.49174 0
M  V30 294 N 42.4798 -1.62909 2.80066 0
M  V30 295 C 42.3598 -0.388195 3.3073 0
M  V30 296 H 39.3818 0.374765 8.67791 0
M  V30 297 H 39.1098 0.443613 6.90476 0
M  V30 298 H 39.9778 -1.75559 7.96891 0
M  V30 299 H 42.6328 -1.94563 5.46818 0
M  V30 300 H 42.9128 0.608651 7.04676 0
M  V30 301 H 43.9038 -0.889796 7.09039 0
M  V30 302 H 42.0698 -0.433128 9.04664 0
M  V30 303 H 42.0288 1.89246 5.57664 0
M  V30 304 H 42.4098 2.71005 0.804694 0
M  V30 305 H 42.5988 1.63189 -0.603768 0
M  V30 306 H 42.7068 -2.53475 0.997614 0
M  V30 307 P 43.9397 -2.75334 8.47391 0
M  V30 308 O 44.1597 -3.84204 9.44982 0
M  V30 309 O 44.7297 -1.51982 8.68909 0
M  V30 310 O 44.1897 -3.29363 6.99321 0
M  V30 311 C 43.2497 -4.24066 6.42823 0
M  V30 312 C 43.9797 -5.20775 5.52155 0
M  V30 313 O 44.1897 -4.56607 4.22514 0
M  V30 314 C 45.3797 -5.62697 5.96604 0
M  V30 315 O 45.7697 -6.87667 5.41053 0
M  V30 316 C 46.2597 -4.52537 5.39283 0
M  V30 317 C 45.5497 -4.20027 4.08623 0
M  V30 318 N 45.5997 -2.76189 3.71603 0
M  V30 319 C 45.5197 -1.66944 4.54297 0
M  V30 320 N 45.5897 -0.536169 3.91344 0
M  V30 321 C 45.7397 -0.901569 2.58849 0
M  V30 322 C 45.8697 -0.146599 1.40236 0
M  V30 323 N 45.8797 1.18234 1.37046 0
M  V30 324 N 45.9897 -0.822941 0.249738 0
M  V30 325 C 45.9797 -2.15179 0.280525 0
M  V30 326 N 45.8597 -2.96414 1.30822 0
M  V30 327 C 45.7397 -2.25804 2.44748 0
M  V30 328 H 42.7617 -4.79756 7.24086 0
M  V30 329 H 42.4897 -3.69963 5.84682 0
M  V30 330 H 43.3577 -6.10431 5.41508 0
M  V30 331 H 46.0127 -4.78816 3.28024 0
M  V30 332 H 46.2927 -3.64957 6.05871 0
M  V30 333 H 47.2837 -4.88748 5.21323 0
M  V30 334 H 45.4497 -5.66789 7.0643 0
M  V30 335 H 45.4087 -1.74684 5.62396 0
M  V30 336 H 45.7897 1.71949 2.24394 0
M  V30 337 H 45.9787 1.67511 0.470742 0
M  V30 338 H 46.0867 -2.63704 -0.6828 0
M  V30 339 P 47.3197 -7.20834 5.23717 0
M  V30 340 O 47.5397 -8.66274 5.38678 0
M  V30 341 O 48.1097 -6.33687 6.13629 0
M  V30 342 O 47.5697 -6.7751 3.72168 0
M  V30 343 C 46.6297 -7.20919 2.70795 0
M  V30 344 C 47.3597 -7.45864 1.40599 0
M  V30 345 O 47.5697 -6.17751 0.734343 0
M  V30 346 C 48.7597 -8.05906 1.51917 0
M  V30 347 O 49.1497 -8.74358 0.335205 0
M  V30 348 C 49.6397 -6.83093 1.70294 0
M  V30 349 C 48.9297 -5.79992 0.836974 0
M  V30 350 N 48.9797 -4.41864 1.38293 0
M  V30 351 C 48.8997 -4.02089 2.69407 0
M  V30 352 N 48.9697 -2.73403 2.85089 0
M  V30 353 C 49.1197 -2.25086 1.5642 0
M  V30 354 C 49.2497 -0.942887 1.04836 0
M  V30 355 N 49.2597 0.150999 1.80369 0
M  V30 356 N 49.3697 -0.812565 -0.28167 0
M  V30 357 C 49.3597 -1.90572 -1.03784 0
M  V30 358 N 49.2397 -3.167 -0.683905 0
M  V30 359 C 49.1197 -3.26538 0.652815 0
M  V30 360 H 46.1417 -8.13738 3.03804 0
M  V30 361 H 45.8697 -6.42974 2.55559 0
M  V30 362 H 46.7377 -8.12139 0.792866 0
M  V30 363 H 49.3927 -5.80178 -0.160643 0
M  V30 364 H 49.6727 -6.51379 2.75643 0
M  V30 365 H 50.6637 -7.01832 1.3448 0
M  V30 366 H 48.8297 -8.73771 2.38364 0
M  V30 367 H 48.7887 -4.7189 3.52311 0
M  V30 368 H 49.1697 0.0721434 2.82608 0
M  V30 369 H 49.3587 1.0785 1.36544 0
M  V30 370 H 49.4667 -1.73207 -2.10241 0
M  V30 371 P 50.6997 -8.91 3.27348e-15 0
M  V30 372 O 50.9197 -10.1736 -0.733766 0
M  V30 373 O 51.4897 -8.73247 1.2395 0
M  V30 374 O 50.9497 -7.66872 -0.971405 0
M  V30 375 C 50.0097 -7.42212 -2.04614 0
M  V30 376 C 50.7397 -6.86059 -3.24661 0
M  V30 377 O 50.9497 -5.42847 -3.03646 0
M  V30 378 C 52.1397 -7.41196 -3.50753 0
M  V30 379 O 52.5297 -7.27073 -4.86816 0
M  V30 380 C 53.0197 -6.5273 -2.63741 0
M  V30 381 C 52.3097 -5.1842 -2.73198 0
M  V30 382 N 52.3597 -4.38668 -1.47808 0
M  V30 383 C 52.5097 -3.02239 -1.60048 0
M  V30 384 O 52.5997 -2.46459 -2.67869 0
M  V30 385 N 52.5497 -2.32436 -0.408571 0
M  V30 386 C 52.4597 -2.85471 0.854993 0
M  V30 387 O 52.5097 -2.12566 1.8531 0
M  V30 388 C 52.3097 -4.28918 0.887335 0
M  V30 389 C 52.1997 -4.91066 2.24619 0
M  V30 390 C 52.2597 -5.00349 -0.255399 0
M  V30 391 H 49.5197 -8.36803 -2.32493 0
M  V30 392 H 49.2507 -6.701 -1.71105 0
M  V30 393 H 50.1177 -7.03551 -4.13168 0
M  V30 394 H 52.7727 -4.59773 -3.53894 0
M  V30 395 H 53.0517 -6.88995 -1.59871 0
M  V30 396 H 54.0437 -6.46749 -3.03687 0
M  V30 397 H 52.2097 -8.46908 -3.20714 0
M  V30 398 H 52.1387 -6.08548 -0.206986 0
M  V30 399 H 53.1687 -5.34836 2.53099 0
M  V30 400 H 51.4317 -5.69638 2.2291 0
M  V30 401 H 51.9197 -4.13971 2.98044 0
M  V30 402 H 52.6557 -1.33211 -0.474216 0
M  V30 403 P 54.0797 -7.20834 -5.23717 0
M  V30 404 O 54.2997 -7.80006 -6.57415 0
M  V30 405 O 54.8697 -7.79416 -4.13051 0
M  V30 406 O 54.3297 -5.63315 -5.29344 0
M  V30 407 C 53.3897 -4.80318 -6.01954 0
M  V30 408 C 54.1197 -3.64202 -6.65911 0
M  V30 409 O 54.3297 -2.60736 -5.64823 0
M  V30 410 C 55.5197 -3.93521 -7.19518 0
M  V30 411 O 55.9097 -3.02071 -8.21205 0
M  V30 412 C 56.3997 -3.73047 -5.97036 0
M  V30 413 C 55.6897 -2.58828 -5.25741 0
M  V30 414 N 55.7397 -2.68068 -3.77503 0
M  V30 415 C 55.6597 -3.80474 -2.99159 0
M  V30 416 N 55.7297 -3.55622 -1.71925 0
M  V30 417 C 55.8797 -2.1832 -1.65733 0
M  V30 418 C 56.0097 -1.28842 -0.572777 0
M  V30 419 N 56.0197 -1.66875 0.70098 0
M  V30 420 N 56.1297 0.016788 -0.859836 0
M  V30 421 C 56.1197 0.398145 -2.13316 0
M  V30 422 N 55.9997 -0.328224 -3.22333 0
M  V30 423 C 55.8797 -1.62992 -2.90383 0
M  V30 424 H 52.9017 -5.40394 -6.8003 0
M  V30 425 H 52.6297 -4.41741 -5.32532 0
M  V30 426 H 53.4977 -3.26371 -7.47889 0
M  V30 427 H 56.1527 -1.64007 -5.56746 0
M  V30 428 H 56.4327 -4.63439 -5.3432 0
M  V30 429 H 57.4237 -3.44776 -6.25925 0
M  V30 430 H 55.5897 -4.96707 -7.57347 0
M  V30 431 H 55.5487 -4.8089 -3.39924 0
M  V30 432 H 55.9297 -2.66547 0.941919 0
M  V30 433 H 56.1187 -0.965341 1.44766 0
M  V30 434 H 56.2267 1.46427 -2.29697 0
M  V30 435 P 57.4597 -2.75334 -8.47391 0
M  V30 436 O 57.6797 -2.44619 -9.90336 0
M  V30 437 O 58.2497 -3.87776 -7.92294 0
M  V30 438 O 57.7097 -1.4459 -7.59357 0
M  V30 439 C 56.7697 -0.347653 -7.69315 0
M  V30 440 C 57.4997 0.96767 -7.52806 0
M  V30 441 O 57.7097 1.21055 -6.10208 0
M  V30 442 C 58.8997 1.04557 -8.13408 0
M  V30 443 O 59.2897 2.38311 -8.41922 0
M  V30 444 C 59.7797 0.491279 -7.02284 0
M  V30 445 C 59.0697 0.996264 -5.77469 0
M  V30 446 N 59.1197 0.0501916 -4.62973 0
M  V30 447 C 59.0397 -1.31969 -4.65661 0
M  V30 448 N 59.1097 -1.86649 -3.48119 0
M  V30 449 C 59.2597 -0.792089 -2.62406 0
M  V30 450 C 59.3897 -0.705684 -1.2207 0
M  V30 451 N 59.3997 -1.76207 -0.413762 0
M  V30 452 N 59.5097 0.518981 -0.685754 0
M  V30 453 C 59.4997 1.57595 -1.49174 0
M  V30 454 N 59.3797 1.62909 -2.80066 0
M  V30 455 C 59.2597 0.388195 -3.3073 0
M  V30 456 H 56.2817 -0.374765 -8.67791 0
M  V30 457 H 56.0097 -0.443613 -6.90476 0
M  V30 458 H 56.8777 1.75559 -7.96891 0
M  V30 459 H 59.5327 1.94563 -5.46818 0
M  V30 460 H 59.8127 -0.608651 -7.04676 0
M  V30 461 H 60.8037 0.889796 -7.09039 0
M  V30 462 H 58.9697 0.433128 -9.04664 0
M  V30 463 H 58.9287 -1.89246 -5.57664 0
M  V30 464 H 59.3097 -2.71005 -0.804694 0
M  V30 465 H 59.4987 -1.63189 0.603768 0
M  V30 466 H 59.6067 2.53475 -0.997614 0
M  V30 467 P 60.8396 2.75334 -8.47391 0
M  V30 468 O 61.0596 3.84128 -9.44797 0
M  V30 469 O 61.6296 1.51947 -8.68712 0
M  V30 470 O 61.0896 3.29363 -6.99321 0
M  V30 471 C 60.1496 4.24011 -6.4274 0
M  V30 472 C 60.8796 5.20775 -5.52155 0
M  V30 473 O 61.0896 4.56534 -4.22446 0
M  V30 474 C 62.2796 5.62629 -5.96531 0
M  V30 475 O 62.6696 6.87667 -5.41053 0
M  V30 476 C 63.1596 4.52537 -5.39283 0
M  V30 477 C 62.4496 4.20027 -4.08623 0
M  V30 478 N 62.4996 2.76189 -3.71603 0
M  V30 479 H 59.6606 4.797 -7.24003 0
M  V30 480 H 59.3906 3.69856 -5.84513 0
M  V30 481 H 60.2576 6.10356 -5.41441 0
M  V30 482 P 64.2196 7.20834 -5.23717 0
M  V30 483 O 64.4396 8.66104 -5.38572 0
M  V30 484 O 65.0096 6.33544 -6.1349 0
M  V30 485 O 64.4696 6.7751 -3.72168 0
M  V30 486 C 63.5296 7.20825 -2.7076 0
M  V30 487 C 64.2596 7.45864 -1.40599 0
M  V30 488 O 64.4696 6.17651 -0.734225 0
M  V30 489 C 65.6596 8.05808 -1.51899 0
M  V30 490 O 66.0496 8.74358 -0.335205 0
M  V30 491 C 66.5396 6.83093 -1.70294 0
M  V30 492 C 65.8296 5.79992 -0.836974 0
M  V30 493 N 65.8796 4.41864 -1.38293 0
M  V30 494 C 65.7996 3.99538 -2.69438 0
M  V30 495 N 65.8796 2.69909 -2.84277 0
M  V30 496 C 66.0196 2.21719 -1.5408 0
M  V30 497 C 66.1496 0.891712 -1.06628 0
M  V30 498 O 66.1696 -0.161298 -1.70137 0
M  V30 499 N 66.2696 0.856846 0.334985 0
M  V30 500 C 66.2696 1.9641 1.15789 0
M  V30 501 N 66.3996 1.72708 2.46522 0
M  V30 502 N 66.1396 3.21165 0.713741 0
M  V30 503 C 66.0196 3.26797 -0.639748 0
M  V30 504 H 63.0406 8.13644 -3.0377 0
M  V30 505 H 62.7706 6.42788 -2.55485 0
M  V30 506 H 63.6376 8.12039 -0.792769 0
M  V30 507 H 66.2926 5.80061 0.166416 0
M  V30 508 H 66.5716 6.51287 -2.75604 0
M  V30 509 H 67.5636 7.01734 -1.34462 0
M  V30 510 H 65.7296 8.73674 -2.38337 0
M  V30 511 H 65.6806 4.68207 -3.53221 0
M  V30 512 H 66.3626 -0.0398818 0.767965 0
M  V30 513 H 66.3996 2.50995 3.13503 0
M  V30 514 H 66.5006 0.759148 2.80716 0
M  V30 515 P 67.5996 8.91 -4.36464e-15 0
M  V30 516 O 67.8196 10.1726 0.733694 0
M  V30 517 O 68.3896 8.73148 -1.23936 0
M  V30 518 O 67.8496 7.66872 0.971405 0
M  V30 519 C 66.9096 7.42309 2.04641 0
M  V30 520 C 67.6396 6.86059 3.24661 0
M  V30 521 O 67.8496 5.42847 3.03646 0
M  V30 522 C 69.0396 7.41196 3.50753 0
M  V30 523 O 69.4296 7.27073 4.86816 0
M  V30 524 C 69.9196 6.5273 2.63741 0
M  V30 525 C 69.2096 5.1842 2.73198 0
M  V30 526 N 69.2596 4.38762 1.4784 0
M  V30 527 C 69.1796 4.81605 0.168631 0
M  V30 528 N 69.2596 3.85454 -0.713363 0
M  V30 529 C 69.3996 2.6994 0.0566958 0
M  V30 530 C 69.5296 1.34815 -0.338502 0
M  V30 531 O 69.5496 0.869548 -1.47125 0
M  V30 532 N 69.6496 0.496304 0.77465 0
M  V30 533 C 69.6496 0.908403 2.09122 0
M  V30 534 N 69.7796 -0.0517805 3.00955 0
M  V30 535 N 69.5196 2.17875 2.46519 0
M  V30 536 C 69.3996 3.01988 1.4033 0
M  V30 537 H 66.4206 8.36803 2.32493 0
M  V30 538 H 66.1506 6.70197 1.71129 0
M  V30 539 H 67.0176 7.03551 4.13168 0
M  V30 540 H 69.6726 4.59498 3.54415 0
M  V30 541 H 69.9516 6.88898 1.59848 0
M  V30 542 H 70.9436 6.46749 3.03687 0
M  V30 543 H 69.1096 8.46908 3.20714 0
M  V30 544 H 69.0606 5.86405 -0.105564 0
M  V30 545 H 69.7426 -0.483664 0.597855 0
M  V30 546 H 69.7796 0.187865 4.0116 0
M  V30 547 H 69.8806 -1.03585 2.71726 0
M  V30 548 P 70.9796 7.20834 5.23717 0
M  V30 549 O 71.1996 7.79853 6.57286 0
M  V30 550 O 71.7696 7.79239 4.12957 0
M  V30 551 O 71.2296 5.63315 5.29344 0
M  V30 552 C 70.2896 4.80255 6.01876 0
M  V30 553 C 71.0196 3.64202 6.65911 0
M  V30 554 O 71.2296 2.60694 5.64732 0
M  V30 555 C 72.4196 3.93473 7.1943 0
M  V30 556 O 72.8096 3.02071 8.21205 0
M  V30 557 C 73.2996 3.73047 5.97036 0
M  V30 558 C 72.5896 2.58828 5.25741 0
M  V30 559 N 72.6396 2.68068 3.77503 0
M  V30 560 H 69.8006 5.40332 6.79951 0
M  V30 561 H 69.5306 4.41613 5.32378 0
M  V30 562 H 70.3976 3.26331 7.47797 0
M  V30 563 P 74.3596 2.75334 8.47391 0
M  V30 564 O 74.5796 2.44619 9.90336 0
M  V30 565 O 75.1496 3.87776 7.92294 0
M  V30 566 O 74.6096 1.4459 7.59357 0
M  V30 567 C 73.6696 0.347653 7.69315 0
M  V30 568 C 74.3996 -0.96767 7.52806 0
M  V30 569 O 74.6096 -1.21055 6.10208 0
M  V30 570 C 75.7996 -1.04557 8.13408 0
M  V30 571 O 76.1896 -2.38311 8.41922 0
M  V30 572 C 76.6796 -0.491279 7.02284 0
M  V30 573 C 75.9696 -0.996264 5.77469 0
M  V30 574 N 76.0196 -0.0501916 4.62973 0
M  V30 575 C 75.9396 1.31969 4.65661 0
M  V30 576 N 76.0096 1.86649 3.48119 0
M  V30 577 C 76.1596 0.792089 2.62406 0
M  V30 578 C 76.2896 0.705684 1.2207 0
M  V30 579 N 76.2996 1.76207 0.413762 0
M  V30 580 N 76.4096 -0.518981 0.685754 0
M  V30 581 C 76.3996 -1.57595 1.49174 0
M  V30 582 N 76.2796 -1.62909 2.80066 0
M  V30 583 C 76.1596 -0.388195 3.3073 0
M  V30 584 H 73.1816 0.374765 8.67791 0
M  V30 585 H 72.9096 0.443613 6.90476 0
M  V30 586 H 73.7776 -1.75559 7.96891 0
M  V30 587 H 76.4326 -1.94563 5.46818 0
M  V30 588 H 76.7126 0.608651 7.04676 0
M  V30 589 H 77.7036 -0.889796 7.09039 0
M  V30 590 H 75.8696 -0.433128 9.04664 0
M  V30 591 H 75.8286 1.89246 5.57664 0
M  V30 592 H 76.2096 2.71005 0.804694 0
M  V30 593 H 76.3986 1.63189 -0.603768 0
M  V30 594 H 76.5066 -2.53475 0.997614 0
M  V30 595 P 77.7395 -2.75334 8.47391 0
M  V30 596 O 77.9595 -3.84128 9.44797 0
M  V30 597 O 78.5295 -1.51947 8.68712 0
M  V30 598 O 77.9895 -3.29363 6.99321 0
M  V30 599 C 77.0495 -4.24011 6.4274 0
M  V30 600 C 77.7795 -5.20775 5.52155 0
M  V30 601 O 77.9895 -4.56534 4.22446 0
M  V30 602 C 79.1795 -5.62629 5.96531 0
M  V30 603 O 79.5695 -6.87667 5.41053 0
M  V30 604 C 80.0595 -4.52537 5.39283 0
M  V30 605 C 79.3495 -4.20027 4.08623 0
M  V30 606 N 79.3995 -2.76189 3.71603 0
M  V30 607 C 79.3195 -1.64862 4.52822 0
M  V30 608 N 79.3995 -0.512671 3.88633 0
M  V30 609 C 79.5395 -0.888083 2.54977 0
M  V30 610 C 79.6695 -0.094668 1.38677 0
M  V30 611 O 79.6895 1.13053 1.28163 0
M  V30 612 N 79.7895 -0.890102 0.232633 0
M  V30 613 C 79.7895 -2.26958 0.21772 0
M  V30 614 N 79.9195 -2.84626 -0.97925 0
M  V30 615 N 79.6595 -3.0178 1.31033 0
M  V30 616 C 79.5395 -2.26781 2.43843 0
M  V30 617 H 76.5605 -4.797 7.24003 0
M  V30 618 H 76.2905 -3.69856 5.84513 0
M  V30 619 H 77.1575 -6.10356 5.41441 0
M  V30 620 H 79.8125 -4.79061 3.27488 0
M  V30 621 H 80.0915 -3.64906 6.05785 0
M  V30 622 H 81.0835 -4.8868 5.2125 0
M  V30 623 H 79.2495 -5.66726 7.06352 0
M  V30 624 H 79.2005 -1.71169 5.60966 0
M  V30 625 H 79.8825 -0.419134 -0.644739 0
M  V30 626 H 79.9195 -3.87332 -1.06098 0
M  V30 627 H 80.0205 -2.26417 -1.82483 0
M  V30 628 P 81.1195 -7.20834 5.23717 0
M  V30 629 O 81.3395 -8.66104 5.38572 0
M  V30 630 O 81.9095 -6.33544 6.1349 0
M  V30 631 O 81.3695 -6.7751 3.72168 0
M  V30 632 C 80.4295 -7.20825 2.7076 0
M  V30 633 C 81.1595 -7.45864 1.40599 0
M  V30 634 O 81.3695 -6.17651 0.734225 0
M  V30 635 C 82.5595 -8.05808 1.51899 0
M  V30 636 O 82.9495 -8.74358 0.335205 0
M  V30 637 C 83.4395 -6.83093 1.70294 0
M  V30 638 C 82.7295 -5.79992 0.836974 0
M  V30 639 N 82.7795 -4.41864 1.38293 0
M  V30 640 H 79.9405 -8.13644 3.0377 0
M  V30 641 H 79.6705 -6.42788 2.55485 0
M  V30 642 H 80.5375 -8.12039 0.792769 0
M  V30 643 P 84.4995 -8.91 5.4558e-15 0
M  V30 644 O 84.7195 -10.1726 -0.733694 0
M  V30 645 O 85.2895 -8.73148 1.23936 0
M  V30 646 O 84.7495 -7.66872 -0.971405 0
M  V30 647 C 83.8095 -7.42309 -2.04641 0
M  V30 648 C 84.5395 -6.86059 -3.24661 0
M  V30 649 O 84.7495 -5.42847 -3.03646 0
M  V30 650 C 85.9395 -7.41196 -3.50753 0
M  V30 651 O 86.3295 -7.27073 -4.86816 0
M  V30 652 C 86.8195 -6.5273 -2.63741 0
M  V30 653 C 86.1095 -5.1842 -2.73198 0
M  V30 654 N 86.1595 -4.38762 -1.4784 0
M  V30 655 H 83.3205 -8.36803 -2.32493 0
M  V30 656 H 83.0505 -6.70197 -1.71129 0
M  V30 657 H 83.9175 -7.03551 -4.13168 0
M  V30 658 P 87.8795 -7.20834 -5.23717 0
M  V30 659 O 88.0995 -7.79853 -6.57286 0
M  V30 660 O 88.6695 -7.79239 -4.12957 0
M  V30 661 O 88.1295 -5.63315 -5.29344 0
M  V30 662 C 87.1895 -4.80255 -6.01876 0
M  V30 663 C 87.9195 -3.64202 -6.65911 0
M  V30 664 O 88.1295 -2.60694 -5.64732 0
M  V30 665 C 89.3195 -3.93473 -7.1943 0
M  V30 666 O 89.7095 -3.02071 -8.21205 0
M  V30 667 C 90.1995 -3.73047 -5.97036 0
M  V30 668 C 89.4895 -2.58828 -5.25741 0
M  V30 669 N 89.5395 -2.68068 -3.77503 0
M  V30 670 H 86.7005 -5.40332 -6.79951 0
M  V30 671 H 86.4305 -4.41613 -5.32378 0
M  V30 672 H 87.2975 -3.26331 -7.47797 0
M  V30 673 P 91.2595 -2.75334 -8.47391 0
M  V30 674 O 91.4795 -2.44571 -9.90142 0
M  V30 675 O 92.0495 -3.87688 -7.92115 0
M  V30 676 O 91.5095 -1.4459 -7.59357 0
M  V30 677 C 90.5695 -0.347608 -7.69215 0
M  V30 678 C 91.2995 0.96767 -7.52806 0
M  V30 679 O 91.5095 1.21036 -6.1011 0
M  V30 680 C 92.6995 1.04544 -8.13308 0
M  V30 681 O 93.0895 2.38311 -8.41922 0
M  V30 682 C 93.5795 0.491279 -7.02284 0
M  V30 683 C 92.8695 0.996264 -5.77469 0
M  V30 684 N 92.9195 0.0501916 -4.62973 0
M  V30 685 C 92.8395 -1.32786 -4.63244 0
M  V30 686 N 92.9195 -1.86957 -3.44545 0
M  V30 687 C 93.0595 -0.780241 -2.58481 0
M  V30 688 C 93.1895 -0.738536 -1.17757 0
M  V30 689 O 93.2095 -1.66794 -0.372349 0
M  V30 690 N 93.3095 0.58337 -0.711393 0
M  V30 691 C 93.3095 1.70816 -1.51017 0
M  V30 692 N 93.4395 2.87826 -0.880757 0
M  V30 693 N 93.1795 1.67126 -2.8339 0
M  V30 694 C 93.0595 0.401421 -3.30572 0
M  V30 695 H 90.0805 -0.374722 -8.67691 0
M  V30 696 H 89.8105 -0.443485 -6.90277 0
M  V30 697 H 90.6775 1.75537 -7.96793 0
M  V30 698 H 93.3325 1.95076 -5.46529 0
M  V30 699 H 93.6115 -0.608565 -7.04577 0
M  V30 700 H 94.6035 0.889672 -7.08939 0
M  V30 701 H 92.7695 0.43308 -9.04564 0
M  V30 702 H 92.7205 -1.91249 -5.54442 0
M  V30 703 H 93.4025 0.718054 0.275244 0
M  V30 704 H 93.4395 3.75721 -1.41832 0
M  V30 705 H 93.5405 2.90436 0.145468 0
M  V30 706 P 94.6394 2.75334 -8.47391 0
M  V30 707 O 94.8594 3.84204 -9.44982 0
M  V30 708 O 95.4294 1.51982 -8.68909 0
M  V30 709 O 94.8894 3.29363 -6.99321 0
M  V30 710 C 93.9494 4.24066 -6.42823 0
M  V30 711 C 94.6794 5.20775 -5.52155 0
M  V30 712 O 94.8894 4.56607 -4.22514 0
M  V30 713 C 96.0794 5.62697 -5.96604 0
M  V30 714 O 96.4694 6.87667 -5.41053 0
M  V30 715 C 96.9594 4.52537 -5.39283 0
M  V30 716 C 96.2494 4.20027 -4.08623 0
M  V30 717 N 96.2994 2.76189 -3.71603 0
M  V30 718 C 96.2194 1.66944 -4.54297 0
M  V30 719 N 96.2894 0.536169 -3.91344 0
M  V30 720 C 96.4394 0.901569 -2.58849 0
M  V30 721 C 96.5694 0.146599 -1.40236 0
M  V30 722 N 96.5794 -1.18234 -1.37046 0
M  V30 723 N 96.6894 0.822941 -0.249738 0
M  V30 724 C 96.6794 2.15179 -0.280525 0
M  V30 725 N 96.5594 2.96414 -1.30822 0
M  V30 726 C 96.4394 2.25804 -2.44748 0
M  V30 727 H 93.4614 4.79756 -7.24086 0
M  V30 728 H 93.1894 3.69963 -5.84682 0
M  V30 729 H 94.0574 6.10431 -5.41508 0
M  V30 730 H 96.7124 4.78816 -3.28024 0
M  V30 731 H 96.9924 3.64957 -6.05871 0
M  V30 732 H 97.9834 4.88748 -5.21323 0
M  V30 733 H 96.1494 5.66789 -7.0643 0
M  V30 734 H 96.1084 1.74684 -5.62396 0
M  V30 735 H 96.4894 -1.71949 -2.24394 0
M  V30 736 H 96.6784 -1.67511 -0.470742 0
M  V30 737 H 96.7864 2.63704 0.6828 0
M  V30 738 P 98.0194 7.20834 -5.23717 0
M  V30 739 O 98.2394 8.66274 -5.38678 0
M  V30 740 O 98.8094 6.33687 -6.13629 0
M  V30 741 O 98.2694 6.7751 -3.72168 0
M  V30 742 C 97.3294 7.20919 -2.70795 0
M  V30 743 C 98.0594 7.45864 -1.40599 0
M  V30 744 O 98.2694 6.17751 -0.734343 0
M  V30 745 C 99.4594 8.05906 -1.51917 0
M  V30 746 O 99.8494 8.74358 -0.335205 0
M  V30 747 C 100.339 6.83093 -1.70294 0
M  V30 748 C 99.6294 5.79992 -0.836974 0
M  V30 749 N 99.6794 4.41864 -1.38293 0
M  V30 750 H 96.8414 8.13738 -3.03804 0
M  V30 751 H 96.5694 6.42974 -2.55559 0
M  V30 752 H 97.4374 8.12139 -0.792866 0
M  V30 753 H 100.092 5.80178 0.160643 0
M  V30 754 H 100.372 6.51379 -2.75643 0
M  V30 755 H 101.363 7.01832 -1.3448 0
M  V30 756 H 99.5294 8.73771 -2.38364 0
M  V30 757 P 101.399 8.91 -6.54696e-15 0
M  V30 758 O 101.619 10.1726 0.733694 0
M  V30 759 O 102.189 8.73148 -1.23936 0
M  V30 760 O 101.649 7.66872 0.971405 0
M  V30 761 C 100.709 7.42309 2.04641 0
M  V30 762 C 101.439 6.86059 3.24661 0
M  V30 763 O 101.649 5.42847 3.03646 0
M  V30 764 C 102.839 7.41196 3.50753 0
M  V30 765 O 103.229 7.27073 4.86816 0
M  V30 766 C 103.719 6.5273 2.63741 0
M  V30 767 C 103.009 5.1842 2.73198 0
M  V30 768 N 103.059 4.38762 1.4784 0
M  V30 769 H 100.22 8.36803 2.32493 0
M  V30 770 H 99.9504 6.70197 1.71129 0
M  V30 771 H 100.817 7.03551 4.13168 0
M  V30 772 P 104.779 7.20834 5.23717 0
M  V30 773 O 104.999 7.80006 6.57415 0
M  V30 774 O 105.569 7.79416 4.13051 0
M  V30 775 O 105.029 5.63315 5.29344 0
M  V30 776 C 104.089 4.80318 6.01954 0
M  V30 777 C 104.819 3.64202 6.65911 0
M  V30 778 O 105.029 2.60736 5.64823 0
M  V30 779 C 106.219 3.93521 7.19518 0
M  V30 780 O 106.609 3.02071 8.21205 0
M  V30 781 C 107.099 3.73047 5.97036 0
M  V30 782 C 106.389 2.58828 5.25741 0
M  V30 783 N 106.439 2.68068 3.77503 0
M  V30 784 C 106.359 3.80474 2.99159 0
M  V30 785 N 106.429 3.55622 1.71925 0
M  V30 786 C 106.579 2.1832 1.65733 0
M  V30 787 C 106.709 1.28842 0.572777 0
M  V30 788 N 106.719 1.66875 -0.70098 0
M  V30 789 N 106.829 -0.016788 0.859836 0
M  V30 790 C 106.819 -0.398145 2.13316 0
M  V30 791 N 106.699 0.328224 3.22333 0
M  V30 792 C 106.579 1.62992 2.90383 0
M  V30 793 H 103.601 5.40394 6.8003 0
M  V30 794 H 103.329 4.41741 5.32532 0
M  V30 795 H 104.197 3.26371 7.47889 0
M  V30 796 H 106.852 1.64007 5.56746 0
M  V30 797 H 107.132 4.63439 5.3432 0
M  V30 798 H 108.123 3.44776 6.25925 0
M  V30 799 H 106.289 4.96707 7.57347 0
M  V30 800 H 106.248 4.8089 3.39924 0
M  V30 801 H 106.629 2.66547 -0.941919 0
M  V30 802 H 106.818 0.965341 -1.44766 0
M  V30 803 H 106.926 -1.46427 2.29697 0
M  V30 804 P 108.159 2.75334 8.47391 0
M  V30 805 O 108.379 2.44619 9.90336 0
M  V30 806 O 108.949 3.87776 7.92294 0
M  V30 807 O 108.409 1.4459 7.59357 0
M  V30 808 C 107.469 0.347653 7.69315 0
M  V30 809 C 108.199 -0.96767 7.52806 0
M  V30 810 O 108.409 -1.21055 6.10208 0
M  V30 811 C 109.599 -1.04557 8.13408 0
M  V30 812 O 109.989 -2.38311 8.41922 0
M  V30 813 C 110.479 -0.491279 7.02284 0
M  V30 814 C 109.769 -0.996264 5.77469 0
M  V30 815 N 109.819 -0.0501916 4.62973 0
M  V30 816 C 109.739 1.31969 4.65661 0
M  V30 817 N 109.809 1.86649 3.48119 0
M  V30 818 C 109.959 0.792089 2.62406 0
M  V30 819 C 110.089 0.705684 1.2207 0
M  V30 820 N 110.099 1.76207 0.413762 0
M  V30 821 N 110.209 -0.518981 0.685754 0
M  V30 822 C 110.199 -1.57595 1.49174 0
M  V30 823 N 110.079 -1.62909 2.80066 0
M  V30 824 C 109.959 -0.388195 3.3073 0
M  V30 825 H 106.981 0.374765 8.67791 0
M  V30 826 H 106.709 0.443613 6.90476 0
M  V30 827 H 107.577 -1.75559 7.96891 0
M  V30 828 H 110.232 -1.94563 5.46818 0
M  V30 829 H 110.512 0.608651 7.04676 0
M  V30 830 H 111.503 -0.889796 7.09039 0
M  V30 831 H 109.669 -0.433128 9.04664 0
M  V30 832 H 109.628 1.89246 5.57664 0
M  V30 833 H 110.009 2.71005 0.804694 0
M  V30 834 H 110.198 1.63189 -0.603768 0
M  V30 835 H 110.306 -2.53475 0.997614 0
M  V30 836 P 111.539 -2.75334 8.47391 0
M  V30 837 O 111.759 -3.84166 9.4489 0
M  V30 838 O 112.329 -1.51964 8.6881 0
M  V30 839 O 111.789 -3.29363 6.99321 0
M  V30 840 C 110.849 -4.23956 6.42656 0
M  V30 841 C 111.579 -5.20775 5.52155 0
M  V30 842 O 111.789 -4.56534 4.22446 0
M  V30 843 C 112.979 -5.62629 5.96531 0
M  V30 844 O 113.369 -6.87667 5.41053 0
M  V30 845 C 113.859 -4.52537 5.39283 0
M  V30 846 C 113.149 -4.20027 4.08623 0
M  V30 847 N 113.199 -2.7613 3.71522 0
M  V30 848 C 113.349 -2.45612 2.37989 0
M  V30 849 O 113.439 -3.30919 1.51621 0
M  V30 850 N 113.389 -1.10684 2.08435 0
M  V30 851 C 113.299 -0.0690084 2.9792 0
M  V30 852 O 113.349 1.10553 2.59426 0
M  V30 853 C 113.149 -0.481522 4.35345 0
M  V30 854 C 113.039 0.618778 5.36443 0
M  V30 855 C 113.099 -1.78906 4.67968 0
M  V30 856 H 110.359 -4.797 7.24003 0
M  V30 857 H 110.09 -3.69802 5.84429 0
M  V30 858 H 110.957 -6.10356 5.41441 0
M  V30 859 H 113.612 -4.78651 3.27911 0
M  V30 860 H 113.891 -3.64957 6.05871 0
M  V30 861 H 114.883 -4.8868 5.2125 0
M  V30 862 H 113.049 -5.66726 7.06352 0
M  V30 863 H 112.978 -2.07737 5.72367 0
M  V30 864 H 114.008 0.754375 5.86871 0
M  V30 865 H 112.271 0.359721 6.10641 0
M  V30 866 H 112.759 1.55533 4.8581 0
M  V30 867 H 113.495 -0.862651 1.12037 0
M  V30 868 P 114.919 -7.20834 5.23717 0
M  V30 869 O 115.139 -8.66104 5.38572 0
M  V30 870 O 115.709 -6.33544 6.1349 0
M  V30 871 O 115.169 -6.7751 3.72168 0
M  V30 872 C 114.229 -7.20825 2.7076 0
M  V30 873 C 114.959 -7.45864 1.40599 0
M  V30 874 O 115.169 -6.17651 0.734225 0
M  V30 875 C 116.359 -8.05808 1.51899 0
M  V30 876 O 116.749 -8.74358 0.335205 0
M  V30 877 C 117.239 -6.83093 1.70294 0
M  V30 878 C 116.529 -5.79992 0.836974 0
M  V30 879 N 116.579 -4.41864 1.38293 0
M  V30 880 H 113.74 -8.13644 3.0377 0
M  V30 881 H 113.47 -6.42788 2.55485 0
M  V30 882 H 114.337 -8.12039 0.792769 0
M  V30 883 P 118.299 -8.91 7.63812e-15 0
M  V30 884 O 118.519 -10.1726 -0.733694 0
M  V30 885 O 119.089 -8.73148 1.23936 0
M  V30 886 O 118.549 -7.66872 -0.971405 0
M  V30 887 C 117.609 -7.42309 -2.04641 0
M  V30 888 C 118.339 -6.86059 -3.24661 0
M  V30 889 O 118.549 -5.42847 -3.03646 0
M  V30 890 C 119.739 -7.41196 -3.50753 0
M  V30 891 O 120.129 -7.27073 -4.86816 0
M  V30 892 C 120.619 -6.5273 -2.63741 0
M  V30 893 C 119.909 -5.1842 -2.73198 0
M  V30 894 N 119.959 -4.38762 -1.4784 0
M  V30 895 C 119.879 -4.81605 -0.168631 0
M  V30 896 N 119.959 -3.85454 0.713363 0
M  V30 897 C 120.099 -2.6994 -0.0566958 0
M  V30 898 C 120.229 -1.34815 0.338502 0
M  V30 899 O 120.249 -0.869548 1.47125 0
M  V30 900 N 120.349 -0.496304 -0.77465 0
M  V30 901 C 120.349 -0.908403 -2.09122 0
M  V30 902 N 120.479 0.0517805 -3.00955 0
M  V30 903 N 120.219 -2.17875 -2.46519 0
M  V30 904 C 120.099 -3.01988 -1.4033 0
M  V30 905 H 117.12 -8.36803 -2.32493 0
M  V30 906 H 116.85 -6.70197 -1.71129 0
M  V30 907 H 117.717 -7.03551 -4.13168 0
M  V30 908 H 120.372 -4.59498 -3.54415 0
M  V30 909 H 120.651 -6.88898 -1.59848 0
M  V30 910 H 121.643 -6.46749 -3.03687 0
M  V30 911 H 119.809 -8.46908 -3.20714 0
M  V30 912 H 119.76 -5.86405 0.105564 0
M  V30 913 H 120.442 0.483664 -0.597855 0
M  V30 914 H 120.479 -0.187865 -4.0116 0
M  V30 915 H 120.58 1.03585 -2.71726 0
M  V30 916 P 121.679 -7.20834 -5.23717 0
M  V30 917 O 121.899 -7.80006 -6.57415 0
M  V30 918 O 122.469 -7.79416 -4.13051 0
M  V30 919 O 121.929 -5.63315 -5.29344 0
M  V30 920 C 120.989 -4.80318 -6.01954 0
M  V30 921 C 121.719 -3.64202 -6.65911 0
M  V30 922 O 121.929 -2.60736 -5.64823 0
M  V30 923 C 123.119 -3.93521 -7.19518 0
M  V30 924 O 123.509 -3.02071 -8.21205 0
M  V30 925 C 123.999 -3.73047 -5.97036 0
M  V30 926 C 123.289 -2.58828 -5.25741 0
M  V30 927 N 123.339 -2.68068 -3.77503 0
M  V30 928 C 123.259 -3.80474 -2.99159 0
M  V30 929 N 123.329 -3.55622 -1.71925 0
M  V30 930 C 123.479 -2.1832 -1.65733 0
M  V30 931 C 123.609 -1.28842 -0.572777 0
M  V30 932 N 123.619 -1.66875 0.70098 0
M  V30 933 N 123.729 0.016788 -0.859836 0
M  V30 934 C 123.719 0.398145 -2.13316 0
M  V30 935 N 123.599 -0.328224 -3.22333 0
M  V30 936 C 123.479 -1.62992 -2.90383 0
M  V30 937 H 120.501 -5.40394 -6.8003 0
M  V30 938 H 120.229 -4.41741 -5.32532 0
M  V30 939 H 121.097 -3.26371 -7.47889 0
M  V30 940 H 123.752 -1.64007 -5.56746 0
M  V30 941 H 124.032 -4.63439 -5.3432 0
M  V30 942 H 125.023 -3.44776 -6.25925 0
M  V30 943 H 123.189 -4.96707 -7.57347 0
M  V30 944 H 123.148 -4.8089 -3.39924 0
M  V30 945 H 123.529 -2.66547 0.941919 0
M  V30 946 H 123.718 -0.965341 1.44766 0
M  V30 947 H 123.826 1.46427 -2.29697 0
M  V30 948 P 125.059 -2.75334 -8.47391 0
M  V30 949 O 125.279 -2.44619 -9.90336 0
M  V30 950 O 125.849 -3.87776 -7.92294 0
M  V30 951 O 125.309 -1.4459 -7.59357 0
M  V30 952 C 124.369 -0.347653 -7.69315 0
M  V30 953 C 125.099 0.96767 -7.52806 0
M  V30 954 O 125.309 1.21055 -6.10208 0
M  V30 955 C 126.499 1.04557 -8.13408 0
M  V30 956 O 126.889 2.38311 -8.41922 0
M  V30 957 C 127.379 0.491279 -7.02284 0
M  V30 958 C 126.669 0.996264 -5.77469 0
M  V30 959 N 126.719 0.0501916 -4.62973 0
M  V30 960 C 126.639 -1.31969 -4.65661 0
M  V30 961 N 126.709 -1.86649 -3.48119 0
M  V30 962 C 126.859 -0.792089 -2.62406 0
M  V30 963 C 126.989 -0.705684 -1.2207 0
M  V30 964 N 126.999 -1.76207 -0.413762 0
M  V30 965 N 127.109 0.518981 -0.685754 0
M  V30 966 C 127.099 1.57595 -1.49174 0
M  V30 967 N 126.979 1.62909 -2.80066 0
M  V30 968 C 126.859 0.388195 -3.3073 0
M  V30 969 H 123.881 -0.374765 -8.67791 0
M  V30 970 H 123.609 -0.443613 -6.90476 0
M  V30 971 H 124.477 1.75559 -7.96891 0
M  V30 972 H 127.132 1.94563 -5.46818 0
M  V30 973 H 127.412 -0.608651 -7.04676 0
M  V30 974 H 128.403 0.889796 -7.09039 0
M  V30 975 H 126.569 0.433128 -9.04664 0
M  V30 976 H 126.528 -1.89246 -5.57664 0
M  V30 977 H 126.909 -2.71005 -0.804694 0
M  V30 978 H 127.098 -1.63189 0.603768 0
M  V30 979 H 127.206 2.53475 -0.997614 0
M  V30 980 P 128.439 2.75334 -8.47391 0
M  V30 981 O 128.659 3.84204 -9.44982 0
M  V30 982 O 129.229 1.51982 -8.68909 0
M  V30 983 O 128.689 3.29363 -6.99321 0
M  V30 984 C 127.749 4.24066 -6.42823 0
M  V30 985 C 128.479 5.20775 -5.52155 0
M  V30 986 O 128.689 4.56607 -4.22514 0
M  V30 987 C 129.879 5.62697 -5.96604 0
M  V30 988 O 130.269 6.87667 -5.41053 0
M  V30 989 C 130.759 4.52537 -5.39283 0
M  V30 990 C 130.049 4.20027 -4.08623 0
M  V30 991 N 130.099 2.76189 -3.71603 0
M  V30 992 C 130.019 1.66944 -4.54297 0
M  V30 993 N 130.089 0.536169 -3.91344 0
M  V30 994 C 130.239 0.901569 -2.58849 0
M  V30 995 C 130.369 0.146599 -1.40236 0
M  V30 996 N 130.379 -1.18234 -1.37046 0
M  V30 997 N 130.489 0.822941 -0.249738 0
M  V30 998 C 130.479 2.15179 -0.280525 0
M  V30 999 N 130.359 2.96414 -1.30822 0
M  V30 1000 C 130.239 2.25804 -2.44748 0
M  V30 1001 H 127.261 4.79756 -7.24086 0
M  V30 1002 H 126.989 3.69963 -5.84682 0
M  V30 1003 H 127.857 6.10431 -5.41508 0
M  V30 1004 H 130.512 4.78816 -3.28024 0
M  V30 1005 H 130.792 3.64957 -6.05871 0
M  V30 1006 H 131.783 4.88748 -5.21323 0
M  V30 1007 H 129.949 5.66789 -7.0643 0
M  V30 1008 H 129.908 1.74684 -5.62396 0
M  V30 1009 H 130.289 -1.71949 -2.24394 0
M  V30 1010 H 130.478 -1.67511 -0.470742 0
M  V30 1011 H 130.586 2.63704 0.6828 0
M  V30 1012 P 131.819 7.20834 -5.23717 0
M  V30 1013 O 132.039 8.66274 -5.38678 0
M  V30 1014 O 132.609 6.33687 -6.13629 0
M  V30 1015 O 132.069 6.7751 -3.72168 0
M  V30 1016 C 131.129 7.20919 -2.70795 0
M  V30 1017 C 131.859 7.45864 -1.40599 0
M  V30 1018 O 132.069 6.17751 -0.734343 0
M  V30 1019 C 133.259 8.05906 -1.51917 0
M  V30 1020 O 133.649 8.74358 -0.335205 0
M  V30 1021 C 134.139 6.83093 -1.70294 0
M  V30 1022 C 133.429 5.79992 -0.836974 0
M  V30 1023 N 133.479 4.41864 -1.38293 0
M  V30 1024 C 133.399 4.02089 -2.69407 0
M  V30 1025 N 133.469 2.73403 -2.85089 0
M  V30 1026 C 133.619 2.25086 -1.5642 0
M  V30 1027 C 133.749 0.942887 -1.04836 0
M  V30 1028 N 133.759 -0.150999 -1.80369 0
M  V30 1029 N 133.869 0.812565 0.28167 0
M  V30 1030 C 133.859 1.90572 1.03784 0
M  V30 1031 N 133.739 3.167 0.683905 0
M  V30 1032 C 133.619 3.26538 -0.652815 0
M  V30 1033 H 130.641 8.13738 -3.03804 0
M  V30 1034 H 130.369 6.42974 -2.55559 0
M  V30 1035 H 131.237 8.12139 -0.792866 0
M  V30 1036 H 133.892 5.80178 0.160643 0
M  V30 1037 H 134.172 6.51379 -2.75643 0
M  V30 1038 H 135.163 7.01832 -1.3448 0
M  V30 1039 H 133.329 8.73771 -2.38364 0
M  V30 1040 H 133.288 4.7189 -3.52311 0
M  V30 1041 H 133.669 -0.0721434 -2.82608 0
M  V30 1042 H 133.858 -1.0785 -1.36544 0
M  V30 1043 H 133.966 1.73207 2.10241 0
M  V30 1044 P 135.199 8.91 -8.72928e-15 0
M  V30 1045 O 135.419 10.1746 0.733838 0
M  V30 1046 O 135.989 8.73346 -1.23964 0
M  V30 1047 O 135.449 7.66872 0.971405 0
M  V30 1048 C 134.509 7.42405 2.04668 0
M  V30 1049 C 135.239 6.86059 3.24661 0
M  V30 1050 O 135.449 5.42934 3.03695 0
M  V30 1051 C 136.639 7.41287 3.50796 0
M  V30 1052 O 137.029 7.27073 4.86816 0
M  V30 1053 C 137.519 6.5273 2.63741 0
M  V30 1054 C 136.809 5.1842 2.73198 0
M  V30 1055 N 136.859 4.38762 1.4784 0
M  V30 1056 C 136.779 4.83651 0.183876 0
M  V30 1057 N 136.849 3.88759 -0.699393 0
M  V30 1058 C 136.999 2.7404 0.0575568 0
M  V30 1059 C 137.129 1.37902 -0.293928 0
M  V30 1060 N 137.139 0.938021 -1.54797 0
M  V30 1061 N 137.249 0.491817 0.70549 0
M  V30 1062 C 137.239 0.931735 1.95979 0
M  V30 1063 N 137.119 2.16017 2.41481 0
M  V30 1064 C 136.999 3.02547 1.39121 0
M  V30 1065 H 134.021 8.36899 2.3252 0
M  V30 1066 H 133.749 6.70391 1.71179 0
M  V30 1067 H 134.617 7.03638 4.13219 0
M  V30 1068 H 137.272 4.59931 3.54016 0
M  V30 1069 H 137.552 6.88995 1.59871 0
M  V30 1070 H 138.543 6.4684 3.0373 0
M  V30 1071 H 136.709 8.47002 3.20749 0
M  V30 1072 H 136.668 5.8885 -0.0765548 0
M  V30 1073 H 137.049 1.60276 -2.32875 0
M  V30 1074 H 137.238 -0.0699355 -1.73859 0
M  V30 1075 H 137.346 0.165507 2.71897 0
M  V30 1076 P 138.579 7.20834 5.23717 0
M  V30 1077 O 138.799 7.79853 6.57286 0
M  V30 1078 O 139.369 7.79239 4.12957 0
M  V30 1079 O 138.829 5.63315 5.29344 0
M  V30 1080 C 137.889 4.80255 6.01876 0
M  V30 1081 C 138.619 3.64202 6.65911 0
M  V30 1082 O 138.829 2.60694 5.64732 0
M  V30 1083 C 140.019 3.93473 7.1943 0
M  V30 1084 O 140.409 3.02071 8.21205 0
M  V30 1085 C 140.899 3.73047 5.97036 0
M  V30 1086 C 140.189 2.58828 5.25741 0
M  V30 1087 N 140.239 2.68068 3.77503 0
M  V30 1088 C 140.159 3.79715 2.96723 0
M  V30 1089 N 140.239 3.5377 1.68852 0
M  V30 1090 C 140.379 2.15054 1.63254 0
M  V30 1091 C 140.509 1.28964 0.518571 0
M  V30 1092 O 140.529 1.56826 -0.679156 0
M  V30 1093 N 140.629 -0.0538097 0.918425 0
M  V30 1094 C 140.629 -0.494275 2.22578 0
M  V30 1095 N 140.759 -1.81086 2.40434 0
M  V30 1096 N 140.499 0.313645 3.27502 0
M  V30 1097 C 140.379 1.61829 2.91033 0
M  V30 1098 H 137.4 5.40332 6.79951 0
M  V30 1099 H 137.13 4.41613 5.32378 0
M  V30 1100 H 137.997 3.26331 7.47797 0
M  V30 1101 H 140.652 1.63422 5.56814 0
M  V30 1102 H 140.931 4.63374 5.34244 0
M  V30 1103 H 141.923 3.44728 6.25838 0
M  V30 1104 H 140.089 4.96652 7.57263 0
M  V30 1105 H 140.04 4.80617 3.3614 0
M  V30 1106 H 140.722 -0.742702 0.199384 0
M  V30 1107 H 140.759 -2.20598 3.35588 0
M  V30 1108 H 140.86 -2.43518 1.58945 0
M  V30 1109 P 141.959 2.75334 8.47391 0
M  V30 1110 O 142.179 2.44571 9.90142 0
M  V30 1111 O 142.749 3.87688 7.92115 0
M  V30 1112 O 142.209 1.4459 7.59357 0
M  V30 1113 C 141.269 0.347608 7.69215 0
M  V30 1114 C 141.999 -0.96767 7.52806 0
M  V30 1115 O 142.209 -1.21036 6.1011 0
M  V30 1116 C 143.399 -1.04544 8.13308 0
M  V30 1117 O 143.789 -2.38311 8.41922 0
M  V30 1118 C 144.279 -0.491279 7.02284 0
M  V30 1119 C 143.569 -0.996264 5.77469 0
M  V30 1120 N 143.619 -0.0501916 4.62973 0
M  V30 1121 H 140.78 0.374722 8.67691 0
M  V30 1122 H 140.51 0.443485 6.90277 0
M  V30 1123 H 141.377 -1.75537 7.96793 0
M  V30 1124 P 145.339 -2.75334 8.47391 0
M  V30 1125 O 145.559 -3.84128 9.44797 0
M  V30 1126 O 146.129 -1.51947 8.68712 0
M  V30 1127 O 145.589 -3.29363 6.99321 0
M  V30 1128 C 144.649 -4.24011 6.4274 0
M  V30 1129 C 145.379 -5.20775 5.52155 0
M  V30 1130 O 145.589 -4.56534 4.22446 0
M  V30 1131 C 146.779 -5.62629 5.96531 0
M  V30 1132 O 147.169 -6.87667 5.41053 0
M  V30 1133 C 147.659 -4.52537 5.39283 0
M  V30 1134 C 146.949 -4.20027 4.08623 0
M  V30 1135 N 146.999 -2.76189 3.71603 0
M  V30 1136 C 146.919 -1.64862 4.52822 0
M  V30 1137 N 146.999 -0.512671 3.88633 0
M  V30 1138 C 147.139 -0.888083 2.54977 0
M  V30 1139 C 147.269 -0.094668 1.38677 0
M  V30 1140 O 147.289 1.13053 1.28163 0
M  V30 1141 N 147.389 -0.890102 0.232633 0
M  V30 1142 C 147.389 -2.26958 0.21772 0
M  V30 1143 N 147.519 -2.84626 -0.97925 0
M  V30 1144 N 147.259 -3.0178 1.31033 0
M  V30 1145 C 147.139 -2.26781 2.43843 0
M  V30 1146 H 144.16 -4.797 7.24003 0
M  V30 1147 H 143.89 -3.69856 5.84513 0
M  V30 1148 H 144.757 -6.10356 5.41441 0
M  V30 1149 H 147.412 -4.79061 3.27488 0
M  V30 1150 H 147.691 -3.64906 6.05785 0
M  V30 1151 H 148.683 -4.8868 5.2125 0
M  V30 1152 H 146.849 -5.66726 7.06352 0
M  V30 1153 H 146.8 -1.71169 5.60966 0
M  V30 1154 H 147.482 -0.419134 -0.644739 0
M  V30 1155 H 147.519 -3.87332 -1.06098 0
M  V30 1156 H 147.62 -2.26417 -1.82483 0
M  V30 1157 P 148.719 -7.20834 5.23717 0
M  V30 1158 O 148.939 -8.66274 5.38678 0
M  V30 1159 O 149.509 -6.33687 6.13629 0
M  V30 1160 O 148.969 -6.7751 3.72168 0
M  V30 1161 C 148.029 -7.20919 2.70795 0
M  V30 1162 C 148.759 -7.45864 1.40599 0
M  V30 1163 O 148.969 -6.17751 0.734343 0
M  V30 1164 C 150.159 -8.05906 1.51917 0
M  V30 1165 O 150.549 -8.74358 0.335205 0
M  V30 1166 C 151.039 -6.83093 1.70294 0
M  V30 1167 C 150.329 -5.79992 0.836974 0
M  V30 1168 N 150.379 -4.41864 1.38293 0
M  V30 1169 C 150.299 -4.02089 2.69407 0
M  V30 1170 N 150.369 -2.73403 2.85089 0
M  V30 1171 C 150.519 -2.25086 1.5642 0
M  V30 1172 C 150.649 -0.942887 1.04836 0
M  V30 1173 N 150.659 0.150999 1.80369 0
M  V30 1174 N 150.769 -0.812565 -0.28167 0
M  V30 1175 C 150.759 -1.90572 -1.03784 0
M  V30 1176 N 150.639 -3.167 -0.683905 0
M  V30 1177 C 150.519 -3.26538 0.652815 0
M  V30 1178 H 147.541 -8.13738 3.03804 0
M  V30 1179 H 147.269 -6.42974 2.55559 0
M  V30 1180 H 148.137 -8.12139 0.792866 0
M  V30 1181 H 150.792 -5.80178 -0.160643 0
M  V30 1182 H 151.072 -6.51379 2.75643 0
M  V30 1183 H 152.063 -7.01832 1.3448 0
M  V30 1184 H 150.229 -8.73771 2.38364 0
M  V30 1185 H 150.188 -4.7189 3.52311 0
M  V30 1186 H 150.569 0.0721434 2.82608 0
M  V30 1187 H 150.758 1.0785 1.36544 0
M  V30 1188 H 150.866 -1.73207 -2.10241 0
M  V30 1189 P 152.099 -8.91 9.82044e-15 0
M  V30 1190 O 152.319 -10.1726 -0.733694 0
M  V30 1191 O 152.889 -8.73148 1.23936 0
M  V30 1192 O 152.349 -7.66872 -0.971405 0
M  V30 1193 C 151.409 -7.42309 -2.04641 0
M  V30 1194 C 152.139 -6.86059 -3.24661 0
M  V30 1195 O 152.349 -5.42847 -3.03646 0
M  V30 1196 C 153.539 -7.41196 -3.50753 0
M  V30 1197 O 153.929 -7.27073 -4.86816 0
M  V30 1198 C 154.419 -6.5273 -2.63741 0
M  V30 1199 C 153.709 -5.1842 -2.73198 0
M  V30 1200 N 153.759 -4.38762 -1.4784 0
M  V30 1201 C 153.679 -4.81605 -0.168631 0
M  V30 1202 N 153.759 -3.85454 0.713363 0
M  V30 1203 C 153.899 -2.6994 -0.0566958 0
M  V30 1204 C 154.029 -1.34815 0.338502 0
M  V30 1205 O 154.049 -0.869548 1.47125 0
M  V30 1206 N 154.149 -0.496304 -0.77465 0
M  V30 1207 C 154.149 -0.908403 -2.09122 0
M  V30 1208 N 154.279 0.0517805 -3.00955 0
M  V30 1209 N 154.019 -2.17875 -2.46519 0
M  V30 1210 C 153.899 -3.01988 -1.4033 0
M  V30 1211 H 150.92 -8.36803 -2.32493 0
M  V30 1212 H 150.65 -6.70197 -1.71129 0
M  V30 1213 H 151.517 -7.03551 -4.13168 0
M  V30 1214 H 154.172 -4.59498 -3.54415 0
M  V30 1215 H 154.451 -6.88898 -1.59848 0
M  V30 1216 H 155.443 -6.46749 -3.03687 0
M  V30 1217 H 153.609 -8.46908 -3.20714 0
M  V30 1218 H 153.56 -5.86405 0.105564 0
M  V30 1219 H 154.242 0.483664 -0.597855 0
M  V30 1220 H 154.279 -0.187865 -4.0116 0
M  V30 1221 H 154.38 1.03585 -2.71726 0
M  V30 1222 P 155.479 -7.20834 -5.23717 0
M  V30 1223 O 155.699 -7.7993 -6.57351 0
M  V30 1224 O 156.269 -7.79328 -4.13004 0
M  V30 1225 O 155.729 -5.63315 -5.29344 0
M  V30 1226 C 154.789 -4.80193 -6.01798 0
M  V30 1227 C 155.519 -3.64202 -6.65911 0
M  V30 1228 O 155.729 -2.60694 -5.64732 0
M  V30 1229 C 156.919 -3.93473 -7.1943 0
M  V30 1230 O 157.309 -3.02071 -8.21205 0
M  V30 1231 C 157.799 -3.73047 -5.97036 0
M  V30 1232 C 157.089 -2.58828 -5.25741 0
M  V30 1233 N 157.139 -2.6801 -3.77422 0
M  V30 1234 C 157.289 -1.50443 -3.07133 0
M  V30 1235 O 157.379 -0.419406 -3.61576 0
M  V30 1236 N 157.329 -1.6403 -1.69677 0
M  V30 1237 C 157.239 -2.81206 -0.986255 0
M  V30 1238 O 157.289 -2.80892 0.249754 0
M  V30 1239 C 157.089 -3.99158 -1.80325 0
M  V30 1240 C 156.979 -5.29309 -1.06921 0
M  V30 1241 C 157.039 -3.89779 -3.1476 0
M  V30 1242 H 154.299 -5.40332 -6.79951 0
M  V30 1243 H 154.03 -4.41549 -5.32301 0
M  V30 1244 H 154.897 -3.26331 -7.47797 0
M  V30 1245 H 157.552 -1.6395 -5.56554 0
M  V30 1246 H 157.831 -4.63439 -5.3432 0
M  V30 1247 H 158.823 -3.44728 -6.25838 0
M  V30 1248 H 156.989 -4.96652 -7.57263 0
M  V30 1249 H 156.918 -4.80159 -3.74441 0
M  V30 1250 H 157.948 -5.81459 -1.09608 0
M  V30 1251 H 156.211 -5.9187 -1.54487 0
M  V30 1252 H 156.699 -5.10095 -0.0220288 0
M  V30 1253 H 157.435 -0.798962 -1.16664 0
M  V30 1254 P 158.859 -2.75334 -8.47391 0
M  V30 1255 O 159.079 -2.44571 -9.90142 0
M  V30 1256 O 159.649 -3.87688 -7.92115 0
M  V30 1257 O 159.109 -1.4459 -7.59357 0
M  V30 1258 C 158.169 -0.347608 -7.69215 0
M  V30 1259 C 158.899 0.96767 -7.52806 0
M  V30 1260 O 159.109 1.21036 -6.1011 0
M  V30 1261 C 160.299 1.04544 -8.13308 0
M  V30 1262 O 160.689 2.38311 -8.41922 0
M  V30 1263 C 161.179 0.491279 -7.02284 0
M  V30 1264 C 160.469 0.996264 -5.77469 0
M  V30 1265 N 160.519 0.0501916 -4.62973 0
M  V30 1266 C 160.439 -1.32786 -4.63244 0
M  V30 1267 N 160.519 -1.86957 -3.44545 0
M  V30 1268 C 160.659 -0.780241 -2.58481 0
M  V30 1269 C 160.789 -0.738536 -1.17757 0
M  V30 1270 O 160.809 -1.66794 -0.372349 0
M  V30 1271 N 160.909 0.58337 -0.711393 0
M  V30 1272 C 160.909 1.70816 -1.51017 0
M  V30 1273 N 161.039 2.87826 -0.880757 0
M  V30 1274 N 160.779 1.67126 -2.8339 0
M  V30 1275 C 160.659 0.401421 -3.30572 0
M  V30 1276 H 157.68 -0.374722 -8.67691 0
M  V30 1277 H 157.41 -0.443485 -6.90277 0
M  V30 1278 H 158.277 1.75537 -7.96793 0
M  V30 1279 H 160.932 1.95076 -5.46529 0
M  V30 1280 H 161.211 -0.608565 -7.04577 0
M  V30 1281 H 162.203 0.889672 -7.08939 0
M  V30 1282 H 160.369 0.43308 -9.04564 0
M  V30 1283 H 160.32 -1.91249 -5.54442 0
M  V30 1284 H 161.002 0.718054 0.275244 0
M  V30 1285 H 161.039 3.75721 -1.41832 0
M  V30 1286 H 161.14 2.90436 0.145468 0
M  V30 1287 P 162.239 2.75334 -8.47391 0
M  V30 1288 O 162.459 3.84128 -9.44797 0
M  V30 1289 O 163.029 1.51947 -8.68712 0
M  V30 1290 O 162.489 3.29363 -6.99321 0
M  V30 1291 C 161.549 4.24011 -6.4274 0
M  V30 1292 C 162.279 5.20775 -5.52155 0
M  V30 1293 O 162.489 4.56534 -4.22446 0
M  V30 1294 C 163.679 5.62629 -5.96531 0
M  V30 1295 O 164.069 6.87667 -5.41053 0
M  V30 1296 C 164.559 4.52537 -5.39283 0
M  V30 1297 C 163.849 4.20027 -4.08623 0
M  V30 1298 N 163.899 2.76189 -3.71603 0
M  V30 1299 C 163.819 1.64862 -4.52822 0
M  V30 1300 N 163.899 0.512671 -3.88633 0
M  V30 1301 C 164.039 0.888083 -2.54977 0
M  V30 1302 C 164.169 0.094668 -1.38677 0
M  V30 1303 O 164.189 -1.13053 -1.28163 0
M  V30 1304 N 164.289 0.890102 -0.232633 0
M  V30 1305 C 164.289 2.26958 -0.21772 0
M  V30 1306 N 164.419 2.84626 0.97925 0
M  V30 1307 N 164.159 3.0178 -1.31033 0
M  V30 1308 C 164.039 2.26781 -2.43843 0
M  V30 1309 H 161.06 4.797 -7.24003 0
M  V30 1310 H 160.79 3.69856 -5.84513 0
M  V30 1311 H 161.657 6.10356 -5.41441 0
M  V30 1312 H 164.312 4.79061 -3.27488 0
M  V30 1313 H 164.591 3.64906 -6.05785 0
M  V30 1314 H 165.583 4.8868 -5.2125 0
M  V30 1315 H 163.749 5.66726 -7.06352 0
M  V30 1316 H 163.7 1.71169 -5.60966 0
M  V30 1317 H 164.382 0.419134 0.644739 0
M  V30 1318 H 164.419 3.87332 1.06098 0
M  V30 1319 H 164.52 2.26417 1.82483 0
M  V30 1320 P 165.619 7.20834 -5.23717 0
M  V30 1321 O 165.839 8.66104 -5.38572 0
M  V30 1322 O 166.409 6.33544 -6.1349 0
M  V30 1323 O 165.869 6.7751 -3.72168 0
M  V30 1324 C 164.929 7.20825 -2.7076 0
M  V30 1325 C 165.659 7.45864 -1.40599 0
M  V30 1326 O 165.869 6.17651 -0.734225 0
M  V30 1327 C 167.059 8.05808 -1.51899 0
M  V30 1328 O 167.449 8.74358 -0.335205 0
M  V30 1329 C 167.939 6.83093 -1.70294 0
M  V30 1330 C 167.229 5.79992 -0.836974 0
M  V30 1331 N 167.279 4.41864 -1.38293 0
M  V30 1332 C 167.199 3.99538 -2.69438 0
M  V30 1333 N 167.279 2.69909 -2.84277 0
M  V30 1334 C 167.419 2.21719 -1.5408 0
M  V30 1335 C 167.549 0.891712 -1.06628 0
M  V30 1336 O 167.569 -0.161298 -1.70137 0
M  V30 1337 N 167.669 0.856846 0.334985 0
M  V30 1338 C 167.669 1.9641 1.15789 0
M  V30 1339 N 167.799 1.72708 2.46522 0
M  V30 1340 N 167.539 3.21165 0.713741 0
M  V30 1341 C 167.419 3.26797 -0.639748 0
M  V30 1342 H 164.44 8.13644 -3.0377 0
M  V30 1343 H 164.17 6.42788 -2.55485 0
M  V30 1344 H 165.037 8.12039 -0.792769 0
M  V30 1345 H 167.692 5.80061 0.166416 0
M  V30 1346 H 167.971 6.51287 -2.75604 0
M  V30 1347 H 168.963 7.01734 -1.34462 0
M  V30 1348 H 167.129 8.73674 -2.38337 0
M  V30 1349 H 167.08 4.68207 -3.53221 0
M  V30 1350 H 167.762 -0.0398818 0.767965 0
M  V30 1351 H 167.799 2.50995 3.13503 0
M  V30 1352 H 167.9 0.759148 2.80716 0
M  V30 1353 P 168.999 8.91 -1.09116e-14 0
M  V30 1354 O 169.219 10.1736 0.733766 0
M  V30 1355 O 169.789 8.73247 -1.2395 0
M  V30 1356 O 169.249 7.66872 0.971405 0
M  V30 1357 C 168.309 7.42212 2.04614 0
M  V30 1358 C 169.039 6.86059 3.24661 0
M  V30 1359 O 169.249 5.42847 3.03646 0
M  V30 1360 C 170.439 7.41196 3.50753 0
M  V30 1361 O 170.829 7.27073 4.86816 0
M  V30 1362 C 171.319 6.5273 2.63741 0
M  V30 1363 C 170.609 5.1842 2.73198 0
M  V30 1364 N 170.659 4.38668 1.47808 0
M  V30 1365 C 170.809 3.02239 1.60048 0
M  V30 1366 O 170.899 2.46459 2.67869 0
M  V30 1367 N 170.849 2.32436 0.408571 0
M  V30 1368 C 170.759 2.85471 -0.854993 0
M  V30 1369 O 170.809 2.12566 -1.8531 0
M  V30 1370 C 170.609 4.28918 -0.887335 0
M  V30 1371 C 170.499 4.91066 -2.24619 0
M  V30 1372 C 170.559 5.00349 0.255399 0
M  V30 1373 H 167.819 8.36803 2.32493 0
M  V30 1374 H 167.55 6.701 1.71105 0
M  V30 1375 H 168.417 7.03551 4.13168 0
M  V30 1376 H 171.072 4.59773 3.53894 0
M  V30 1377 H 171.351 6.88995 1.59871 0
M  V30 1378 H 172.343 6.46749 3.03687 0
M  V30 1379 H 170.509 8.46908 3.20714 0
M  V30 1380 H 170.438 6.08548 0.206986 0
M  V30 1381 H 171.468 5.34836 -2.53099 0
M  V30 1382 H 169.731 5.69638 -2.2291 0
M  V30 1383 H 170.219 4.13971 -2.98044 0
M  V30 1384 H 170.955 1.33211 0.474216 0
M  V30 1385 P 172.379 7.20834 5.23717 0
M  V30 1386 O 172.599 7.80006 6.57415 0
M  V30 1387 O 173.169 7.79416 4.13051 0
M  V30 1388 O 172.629 5.63315 5.29344 0
M  V30 1389 C 171.689 4.80318 6.01954 0
M  V30 1390 C 172.419 3.64202 6.65911 0
M  V30 1391 O 172.629 2.60736 5.64823 0
M  V30 1392 C 173.819 3.93521 7.19518 0
M  V30 1393 O 174.209 3.02071 8.21205 0
M  V30 1394 C 174.699 3.73047 5.97036 0
M  V30 1395 C 173.989 2.58828 5.25741 0
M  V30 1396 N 174.039 2.68068 3.77503 0
M  V30 1397 C 173.959 3.80474 2.99159 0
M  V30 1398 N 174.029 3.55622 1.71925 0
M  V30 1399 C 174.179 2.1832 1.65733 0
M  V30 1400 C 174.309 1.28842 0.572777 0
M  V30 1401 N 174.319 1.66875 -0.70098 0
M  V30 1402 N 174.429 -0.016788 0.859836 0
M  V30 1403 C 174.419 -0.398145 2.13316 0
M  V30 1404 N 174.299 0.328224 3.22333 0
M  V30 1405 C 174.179 1.62992 2.90383 0
M  V30 1406 H 171.201 5.40394 6.8003 0
M  V30 1407 H 170.929 4.41741 5.32532 0
M  V30 1408 H 171.797 3.26371 7.47889 0
M  V30 1409 H 174.452 1.64007 5.56746 0
M  V30 1410 H 174.732 4.63439 5.3432 0
M  V30 1411 H 175.723 3.44776 6.25925 0
M  V30 1412 H 173.889 4.96707 7.57347 0
M  V30 1413 H 173.848 4.8089 3.39924 0
M  V30 1414 H 174.229 2.66547 -0.941919 0
M  V30 1415 H 174.418 0.965341 -1.44766 0
M  V30 1416 H 174.526 -1.46427 2.29697 0
M  V30 1417 P 175.759 2.75334 8.47391 0
M  V30 1418 O 175.979 2.44571 9.90142 0
M  V30 1419 O 176.549 3.87688 7.92115 0
M  V30 1420 O 176.009 1.4459 7.59357 0
M  V30 1421 C 175.069 0.347608 7.69215 0
M  V30 1422 C 175.799 -0.96767 7.52806 0
M  V30 1423 O 176.009 -1.21036 6.1011 0
M  V30 1424 C 177.199 -1.04544 8.13308 0
M  V30 1425 O 177.589 -2.38311 8.41922 0
M  V30 1426 C 178.079 -0.491279 7.02284 0
M  V30 1427 C 177.369 -0.996264 5.77469 0
M  V30 1428 N 177.419 -0.0501916 4.62973 0
M  V30 1429 H 174.58 0.374722 8.67691 0
M  V30 1430 H 174.31 0.443485 6.90277 0
M  V30 1431 H 175.177 -1.75537 7.96793 0
M  V30 1432 P 179.139 -2.75334 8.47391 0
M  V30 1433 O 179.359 -3.84128 9.44797 0
M  V30 1434 O 179.929 -1.51947 8.68712 0
M  V30 1435 O 179.389 -3.29363 6.99321 0
M  V30 1436 C 178.449 -4.24011 6.4274 0
M  V30 1437 C 179.179 -5.20775 5.52155 0
M  V30 1438 O 179.389 -4.56534 4.22446 0
M  V30 1439 C 180.579 -5.62629 5.96531 0
M  V30 1440 O 180.969 -6.87667 5.41053 0
M  V30 1441 C 181.459 -4.52537 5.39283 0
M  V30 1442 C 180.749 -4.20027 4.08623 0
M  V30 1443 N 180.799 -2.76189 3.71603 0
M  V30 1444 C 180.719 -1.64862 4.52822 0
M  V30 1445 N 180.799 -0.512671 3.88633 0
M  V30 1446 C 180.939 -0.888083 2.54977 0
M  V30 1447 C 181.069 -0.094668 1.38677 0
M  V30 1448 O 181.089 1.13053 1.28163 0
M  V30 1449 N 181.189 -0.890102 0.232633 0
M  V30 1450 C 181.189 -2.26958 0.21772 0
M  V30 1451 N 181.319 -2.84626 -0.97925 0
M  V30 1452 N 181.059 -3.0178 1.31033 0
M  V30 1453 C 180.939 -2.26781 2.43843 0
M  V30 1454 H 177.96 -4.797 7.24003 0
M  V30 1455 H 177.69 -3.69856 5.84513 0
M  V30 1456 H 178.557 -6.10356 5.41441 0
M  V30 1457 H 181.212 -4.79061 3.27488 0
M  V30 1458 H 181.491 -3.64906 6.05785 0
M  V30 1459 H 182.483 -4.8868 5.2125 0
M  V30 1460 H 180.649 -5.66726 7.06352 0
M  V30 1461 H 180.6 -1.71169 5.60966 0
M  V30 1462 H 181.282 -0.419134 -0.644739 0
M  V30 1463 H 181.319 -3.87332 -1.06098 0
M  V30 1464 H 181.42 -2.26417 -1.82483 0
M  V30 1465 P 182.519 -7.20834 5.23717 0
M  V30 1466 O 182.739 -8.66104 5.38572 0
M  V30 1467 O 183.309 -6.33544 6.1349 0
M  V30 1468 O 182.769 -6.7751 3.72168 0
M  V30 1469 C 181.829 -7.20825 2.7076 0
M  V30 1470 C 182.559 -7.45864 1.40599 0
M  V30 1471 O 182.769 -6.17651 0.734225 0
M  V30 1472 C 183.959 -8.05808 1.51899 0
M  V30 1473 O 184.349 -8.74358 0.335205 0
M  V30 1474 C 184.839 -6.83093 1.70294 0
M  V30 1475 C 184.129 -5.79992 0.836974 0
M  V30 1476 N 184.179 -4.41864 1.38293 0
M  V30 1477 C 184.099 -3.99538 2.69438 0
M  V30 1478 N 184.179 -2.69909 2.84277 0
M  V30 1479 C 184.319 -2.21719 1.5408 0
M  V30 1480 C 184.449 -0.891712 1.06628 0
M  V30 1481 O 184.469 0.161298 1.70137 0
M  V30 1482 N 184.569 -0.856846 -0.334985 0
M  V30 1483 C 184.569 -1.9641 -1.15789 0
M  V30 1484 N 184.699 -1.72708 -2.46522 0
M  V30 1485 N 184.439 -3.21165 -0.713741 0
M  V30 1486 C 184.319 -3.26797 0.639748 0
M  V30 1487 H 181.34 -8.13644 3.0377 0
M  V30 1488 H 181.07 -6.42788 2.55485 0
M  V30 1489 H 181.937 -8.12039 0.792769 0
M  V30 1490 H 184.592 -5.80061 -0.166416 0
M  V30 1491 H 184.871 -6.51287 2.75604 0
M  V30 1492 H 185.863 -7.01734 1.34462 0
M  V30 1493 H 184.029 -8.73674 2.38337 0
M  V30 1494 H 183.98 -4.68207 3.53221 0
M  V30 1495 H 184.662 0.0398818 -0.767965 0
M  V30 1496 H 184.699 -2.50995 -3.13503 0
M  V30 1497 H 184.8 -0.759148 -2.80716 0
M  V30 1498 P 185.899 -8.91 -8.29613e-14 0
M  V30 1499 O 186.119 -10.1736 -0.733766 0
M  V30 1500 O 186.689 -8.73247 1.2395 0
M  V30 1501 O 186.149 -7.66872 -0.971405 0
M  V30 1502 C 185.209 -7.42212 -2.04614 0
M  V30 1503 C 185.939 -6.86059 -3.24661 0
M  V30 1504 O 186.149 -5.42847 -3.03646 0
M  V30 1505 C 187.339 -7.41196 -3.50753 0
M  V30 1506 O 187.729 -7.27073 -4.86816 0
M  V30 1507 C 188.219 -6.5273 -2.63741 0
M  V30 1508 C 187.509 -5.1842 -2.73198 0
M  V30 1509 N 187.559 -4.38668 -1.47808 0
M  V30 1510 C 187.709 -3.02239 -1.60048 0
M  V30 1511 O 187.799 -2.46459 -2.67869 0
M  V30 1512 N 187.749 -2.32436 -0.408571 0
M  V30 1513 C 187.659 -2.85471 0.854993 0
M  V30 1514 O 187.709 -2.12566 1.8531 0
M  V30 1515 C 187.509 -4.28918 0.887335 0
M  V30 1516 C 187.399 -4.91066 2.24619 0
M  V30 1517 C 187.459 -5.00349 -0.255399 0
M  V30 1518 H 184.719 -8.36803 -2.32493 0
M  V30 1519 H 184.45 -6.701 -1.71105 0
M  V30 1520 H 185.317 -7.03551 -4.13168 0
M  V30 1521 H 187.972 -4.59773 -3.53894 0
M  V30 1522 H 188.251 -6.88995 -1.59871 0
M  V30 1523 H 189.243 -6.46749 -3.03687 0
M  V30 1524 H 187.409 -8.46908 -3.20714 0
M  V30 1525 H 187.338 -6.08548 -0.206986 0
M  V30 1526 H 188.368 -5.34836 2.53099 0
M  V30 1527 H 186.631 -5.69638 2.2291 0
M  V30 1528 H 187.119 -4.13971 2.98044 0
M  V30 1529 H 187.855 -1.33211 -0.474216 0
M  V30 1530 P 189.279 -7.20834 -5.23717 0
M  V30 1531 O 189.499 -7.79853 -6.57286 0
M  V30 1532 O 190.069 -7.79239 -4.12957 0
M  V30 1533 O 189.529 -5.63315 -5.29344 0
M  V30 1534 C 188.589 -4.80255 -6.01876 0
M  V30 1535 C 189.319 -3.64202 -6.65911 0
M  V30 1536 O 189.529 -2.60694 -5.64732 0
M  V30 1537 C 190.719 -3.93473 -7.1943 0
M  V30 1538 O 191.109 -3.02071 -8.21205 0
M  V30 1539 C 191.599 -3.73047 -5.97036 0
M  V30 1540 C 190.889 -2.58828 -5.25741 0
M  V30 1541 N 190.939 -2.68068 -3.77503 0
M  V30 1542 H 188.1 -5.40332 -6.79951 0
M  V30 1543 H 187.83 -4.41613 -5.32378 0
M  V30 1544 H 188.697 -3.26331 -7.47797 0
M  V30 1545 P 192.659 -2.75334 -8.47391 0
M  V30 1546 O 192.879 -2.44571 -9.90142 0
M  V30 1547 O 193.449 -3.87688 -7.92115 0
M  V30 1548 O 192.909 -1.4459 -7.59357 0
M  V30 1549 C 191.969 -0.347608 -7.69215 0
M  V30 1550 C 192.699 0.96767 -7.52806 0
M  V30 1551 O 192.909 1.21036 -6.1011 0
M  V30 1552 C 194.099 1.04544 -8.13308 0
M  V30 1553 O 194.489 2.38311 -8.41922 0
M  V30 1554 C 194.979 0.491279 -7.02284 0
M  V30 1555 C 194.269 0.996264 -5.77469 0
M  V30 1556 N 194.319 0.0501916 -4.62973 0
M  V30 1557 C 194.239 -1.32786 -4.63244 0
M  V30 1558 N 194.319 -1.86957 -3.44545 0
M  V30 1559 C 194.459 -0.780241 -2.58481 0
M  V30 1560 C 194.589 -0.738536 -1.17757 0
M  V30 1561 O 194.609 -1.66794 -0.372349 0
M  V30 1562 N 194.709 0.58337 -0.711393 0
M  V30 1563 C 194.709 1.70816 -1.51017 0
M  V30 1564 N 194.839 2.87826 -0.880757 0
M  V30 1565 N 194.579 1.67126 -2.8339 0
M  V30 1566 C 194.459 0.401421 -3.30572 0
M  V30 1567 H 191.48 -0.374722 -8.67691 0
M  V30 1568 H 191.21 -0.443485 -6.90277 0
M  V30 1569 H 192.077 1.75537 -7.96793 0
M  V30 1570 H 194.732 1.95076 -5.46529 0
M  V30 1571 H 195.011 -0.608565 -7.04577 0
M  V30 1572 H 196.003 0.889672 -7.08939 0
M  V30 1573 H 194.169 0.43308 -9.04564 0
M  V30 1574 H 194.12 -1.91249 -5.54442 0
M  V30 1575 H 194.802 0.718054 0.275244 0
M  V30 1576 H 194.839 3.75721 -1.41832 0
M  V30 1577 H 194.94 2.90436 0.145468 0
M  V30 1578 P 196.039 2.75334 -8.47391 0
M  V30 1579 O 196.259 3.84128 -9.44797 0
M  V30 1580 O 196.829 1.51947 -8.68712 0
M  V30 1581 O 196.289 3.29363 -6.99321 0
M  V30 1582 C 195.349 4.24011 -6.4274 0
M  V30 1583 C 196.079 5.20775 -5.52155 0
M  V30 1584 O 196.289 4.56534 -4.22446 0
M  V30 1585 C 197.479 5.62629 -5.96531 0
M  V30 1586 O 197.869 6.87667 -5.41053 0
M  V30 1587 C 198.359 4.52537 -5.39283 0
M  V30 1588 C 197.649 4.20027 -4.08623 0
M  V30 1589 N 197.699 2.76189 -3.71603 0
M  V30 1590 C 197.619 1.64862 -4.52822 0
M  V30 1591 N 197.699 0.512671 -3.88633 0
M  V30 1592 C 197.839 0.888083 -2.54977 0
M  V30 1593 C 197.969 0.094668 -1.38677 0
M  V30 1594 O 197.989 -1.13053 -1.28163 0
M  V30 1595 N 198.089 0.890102 -0.232633 0
M  V30 1596 C 198.089 2.26958 -0.21772 0
M  V30 1597 N 198.219 2.84626 0.97925 0
M  V30 1598 N 197.959 3.0178 -1.31033 0
M  V30 1599 C 197.839 2.26781 -2.43843 0
M  V30 1600 H 194.86 4.797 -7.24003 0
M  V30 1601 H 194.59 3.69856 -5.84513 0
M  V30 1602 H 195.457 6.10356 -5.41441 0
M  V30 1603 H 198.112 4.79061 -3.27488 0
M  V30 1604 H 198.391 3.64906 -6.05785 0
M  V30 1605 H 199.383 4.8868 -5.2125 0
M  V30 1606 H 197.549 5.66726 -7.06352 0
M  V30 1607 H 197.5 1.71169 -5.60966 0
M  V30 1608 H 198.182 0.419134 0.644739 0
M  V30 1609 H 198.219 3.87332 1.06098 0
M  V30 1610 H 198.32 2.26417 1.82483 0
M  V30 1611 P 199.419 7.20834 -5.23717 0
M  V30 1612 O 199.639 8.66104 -5.38572 0
M  V30 1613 O 200.209 6.33544 -6.1349 0
M  V30 1614 O 199.669 6.7751 -3.72168 0
M  V30 1615 C 198.729 7.20825 -2.7076 0
M  V30 1616 C 199.459 7.45864 -1.40599 0
M  V30 1617 O 199.669 6.17651 -0.734225 0
M  V30 1618 C 200.859 8.05808 -1.51899 0
M  V30 1619 O 201.249 8.74358 -0.335205 0
M  V30 1620 C 201.739 6.83093 -1.70294 0
M  V30 1621 C 201.029 5.79992 -0.836974 0
M  V30 1622 N 201.079 4.41864 -1.38293 0
M  V30 1623 H 198.24 8.13644 -3.0377 0
M  V30 1624 H 197.97 6.42788 -2.55485 0
M  V30 1625 H 198.837 8.12039 -0.792769 0
M  V30 1626 P 202.799 8.91 2.40144e-13 0
M  V30 1627 O 203.019 10.1746 0.733838 0
M  V30 1628 O 203.589 8.73346 -1.23964 0
M  V30 1629 O 203.049 7.66872 0.971405 0
M  V30 1630 C 202.109 7.42405 2.04668 0
M  V30 1631 C 202.839 6.86059 3.24661 0
M  V30 1632 O 203.049 5.42934 3.03695 0
M  V30 1633 C 204.239 7.41287 3.50796 0
M  V30 1634 O 204.629 7.27073 4.86816 0
M  V30 1635 C 205.119 6.5273 2.63741 0
M  V30 1636 C 204.409 5.1842 2.73198 0
M  V30 1637 N 204.459 4.38762 1.4784 0
M  V30 1638 C 204.379 4.83651 0.183876 0
M  V30 1639 N 204.449 3.88759 -0.699393 0
M  V30 1640 C 204.599 2.7404 0.0575568 0
M  V30 1641 C 204.729 1.37902 -0.293928 0
M  V30 1642 N 204.739 0.938021 -1.54797 0
M  V30 1643 N 204.849 0.491817 0.70549 0
M  V30 1644 C 204.839 0.931735 1.95979 0
M  V30 1645 N 204.719 2.16017 2.41481 0
M  V30 1646 C 204.599 3.02547 1.39121 0
M  V30 1647 H 201.621 8.36899 2.3252 0
M  V30 1648 H 201.349 6.70391 1.71179 0
M  V30 1649 H 202.217 7.03638 4.13219 0
M  V30 1650 H 204.872 4.59931 3.54016 0
M  V30 1651 H 205.152 6.88995 1.59871 0
M  V30 1652 H 206.143 6.4684 3.0373 0
M  V30 1653 H 204.309 8.47002 3.20749 0
M  V30 1654 H 204.268 5.8885 -0.0765548 0
M  V30 1655 H 204.649 1.60276 -2.32875 0
M  V30 1656 H 204.838 -0.0699355 -1.73859 0
M  V30 1657 H 204.946 0.165507 2.71897 0
M  V30 1658 P 206.179 7.20834 5.23717 0
M  V30 1659 O 206.399 7.79853 6.57286 0
M  V30 1660 O 206.969 7.79239 4.12957 0
M  V30 1661 O 206.429 5.63315 5.29344 0
M  V30 1662 C 205.489 4.80255 6.01876 0
M  V30 1663 C 206.219 3.64202 6.65911 0
M  V30 1664 O 206.429 2.60694 5.64732 0
M  V30 1665 C 207.619 3.93473 7.1943 0
M  V30 1666 O 208.009 3.02071 8.21205 0
M  V30 1667 C 208.499 3.73047 5.97036 0
M  V30 1668 C 207.789 2.58828 5.25741 0
M  V30 1669 N 207.839 2.68068 3.77503 0
M  V30 1670 H 205 5.40332 6.79951 0
M  V30 1671 H 204.73 4.41613 5.32378 0
M  V30 1672 H 205.597 3.26331 7.47797 0
M  V30 1673 P 209.559 2.75334 8.47391 0
M  V30 1674 O 209.779 2.44571 9.90142 0
M  V30 1675 O 210.349 3.87688 7.92115 0
M  V30 1676 O 209.809 1.4459 7.59357 0
M  V30 1677 C 208.869 0.347608 7.69215 0
M  V30 1678 C 209.599 -0.96767 7.52806 0
M  V30 1679 O 209.809 -1.21036 6.1011 0
M  V30 1680 C 210.999 -1.04544 8.13308 0
M  V30 1681 O 211.389 -2.38311 8.41922 0
M  V30 1682 C 211.879 -0.491279 7.02284 0
M  V30 1683 C 211.169 -0.996264 5.77469 0
M  V30 1684 N 211.219 -0.0501916 4.62973 0
M  V30 1685 H 208.38 0.374722 8.67691 0
M  V30 1686 H 208.11 0.443485 6.90277 0
M  V30 1687 H 208.977 -1.75537 7.96793 0
M  V30 1688 P 212.939 -2.75334 8.47391 0
M  V30 1689 O 213.159 -3.84128 9.44797 0
M  V30 1690 O 213.729 -1.51947 8.68712 0
M  V30 1691 O 213.189 -3.29363 6.99321 0
M  V30 1692 C 212.249 -4.24011 6.4274 0
M  V30 1693 C 212.979 -5.20775 5.52155 0
M  V30 1694 O 213.189 -4.56534 4.22446 0
M  V30 1695 C 214.379 -5.62629 5.96531 0
M  V30 1696 O 214.769 -6.87667 5.41053 0
M  V30 1697 C 215.259 -4.52537 5.39283 0
M  V30 1698 C 214.549 -4.20027 4.08623 0
M  V30 1699 N 214.599 -2.76189 3.71603 0
M  V30 1700 H 211.76 -4.797 7.24003 0
M  V30 1701 H 211.49 -3.69856 5.84513 0
M  V30 1702 H 212.357 -6.10356 5.41441 0
M  V30 1703 P 216.319 -7.20834 5.23717 0
M  V30 1704 O 216.539 -8.66104 5.38572 0
M  V30 1705 O 217.109 -6.33544 6.1349 0
M  V30 1706 O 216.569 -6.7751 3.72168 0
M  V30 1707 C 215.629 -7.20825 2.7076 0
M  V30 1708 C 216.359 -7.45864 1.40599 0
M  V30 1709 O 216.569 -6.17651 0.734225 0
M  V30 1710 C 217.759 -8.05808 1.51899 0
M  V30 1711 O 218.149 -8.74358 0.335205 0
M  V30 1712 C 218.639 -6.83093 1.70294 0
M  V30 1713 C 217.929 -5.79992 0.836974 0
M  V30 1714 N 217.979 -4.41864 1.38293 0
M  V30 1715 C 217.899 -3.99538 2.69438 0
M  V30 1716 N 217.979 -2.69909 2.84277 0
M  V30 1717 C 218.119 -2.21719 1.5408 0
M  V30 1718 C 218.249 -0.891712 1.06628 0
M  V30 1719 O 218.269 0.161298 1.70137 0
M  V30 1720 N 218.369 -0.856846 -0.334985 0
M  V30 1721 C 218.369 -1.9641 -1.15789 0
M  V30 1722 N 218.499 -1.72708 -2.46522 0
M  V30 1723 N 218.239 -3.21165 -0.713741 0
M  V30 1724 C 218.119 -3.26797 0.639748 0
M  V30 1725 H 215.14 -8.13644 3.0377 0
M  V30 1726 H 214.87 -6.42788 2.55485 0
M  V30 1727 H 215.737 -8.12039 0.792769 0
M  V30 1728 H 218.392 -5.80061 -0.166416 0
M  V30 1729 H 218.671 -6.51287 2.75604 0
M  V30 1730 H 219.663 -7.01734 1.34462 0
M  V30 1731 H 217.829 -8.73674 2.38337 0
M  V30 1732 H 217.78 -4.68207 3.53221 0
M  V30 1733 H 218.462 0.0398818 -0.767965 0
M  V30 1734 H 218.499 -2.50995 -3.13503 0
M  V30 1735 H 218.6 -0.759148 -2.80716 0
M  V30 1736 P 219.699 -8.91 -3.97326e-13 0
M  V30 1737 O 219.919 -10.1746 -0.733838 0
M  V30 1738 O 220.489 -8.73346 1.23964 0
M  V30 1739 O 219.949 -7.66872 -0.971405 0
M  V30 1740 C 219.009 -7.42405 -2.04668 0
M  V30 1741 C 219.739 -6.86059 -3.24661 0
M  V30 1742 O 219.949 -5.42934 -3.03695 0
M  V30 1743 C 221.139 -7.41287 -3.50796 0
M  V30 1744 O 221.529 -7.27073 -4.86816 0
M  V30 1745 C 222.019 -6.5273 -2.63741 0
M  V30 1746 C 221.309 -5.1842 -2.73198 0
M  V30 1747 N 221.359 -4.38762 -1.4784 0
M  V30 1748 C 221.279 -4.83651 -0.183876 0
M  V30 1749 N 221.349 -3.88759 0.699393 0
M  V30 1750 C 221.499 -2.7404 -0.0575568 0
M  V30 1751 C 221.629 -1.37902 0.293928 0
M  V30 1752 N 221.639 -0.938021 1.54797 0
M  V30 1753 N 221.749 -0.491817 -0.70549 0
M  V30 1754 C 221.739 -0.931735 -1.95979 0
M  V30 1755 N 221.619 -2.16017 -2.41481 0
M  V30 1756 C 221.499 -3.02547 -1.39121 0
M  V30 1757 H 218.521 -8.36899 -2.3252 0
M  V30 1758 H 218.249 -6.70391 -1.71179 0
M  V30 1759 H 219.117 -7.03638 -4.13219 0
M  V30 1760 H 221.772 -4.59931 -3.54016 0
M  V30 1761 H 222.052 -6.88995 -1.59871 0
M  V30 1762 H 223.043 -6.4684 -3.0373 0
M  V30 1763 H 221.209 -8.47002 -3.20749 0
M  V30 1764 H 221.168 -5.8885 0.0765548 0
M  V30 1765 H 221.549 -1.60276 2.32875 0
M  V30 1766 H 221.738 0.0699355 1.73859 0
M  V30 1767 H 221.846 -0.165507 -2.71897 0
M  V30 1768 P 223.079 -7.20834 -5.23717 0
M  V30 1769 O 223.299 -7.79853 -6.57286 0
M  V30 1770 O 223.869 -7.79239 -4.12957 0
M  V30 1771 O 223.329 -5.63315 -5.29344 0
M  V30 1772 C 222.389 -4.80255 -6.01876 0
M  V30 1773 C 223.119 -3.64202 -6.65911 0
M  V30 1774 O 223.329 -2.60694 -5.64732 0
M  V30 1775 C 224.519 -3.93473 -7.1943 0
M  V30 1776 O 224.909 -3.02071 -8.21205 0
M  V30 1777 C 225.399 -3.73047 -5.97036 0
M  V30 1778 C 224.689 -2.58828 -5.25741 0
M  V30 1779 N 224.739 -2.68068 -3.77503 0
M  V30 1780 H 221.9 -5.40332 -6.79951 0
M  V30 1781 H 221.63 -4.41613 -5.32378 0
M  V30 1782 H 222.497 -3.26331 -7.47797 0
M  V30 1783 P 226.459 -2.75334 -8.47391 0
M  V30 1784 O 226.679 -2.44571 -9.90142 0
M  V30 1785 O 227.249 -3.87688 -7.92115 0
M  V30 1786 O 226.709 -1.4459 -7.59357 0
M  V30 1787 C 225.769 -0.347608 -7.69215 0
M  V30 1788 C 226.499 0.96767 -7.52806 0
M  V30 1789 O 226.709 1.21036 -6.1011 0
M  V30 1790 C 227.899 1.04544 -8.13308 0
M  V30 1791 O 228.289 2.38311 -8.41922 0
M  V30 1792 C 228.779 0.491279 -7.02284 0
M  V30 1793 C 228.069 0.996264 -5.77469 0
M  V30 1794 N 228.119 0.0501916 -4.62973 0
M  V30 1795 H 225.28 -0.374722 -8.67691 0
M  V30 1796 H 225.01 -0.443485 -6.90277 0
M  V30 1797 H 225.877 1.75537 -7.96793 0
M  V30 1798 P 229.839 2.75334 -8.47391 0
M  V30 1799 O 230.059 3.84128 -9.44797 0
M  V30 1800 O 230.629 1.51947 -8.68712 0
M  V30 1801 O 230.089 3.29363 -6.99321 0
M  V30 1802 C 229.149 4.24011 -6.4274 0
M  V30 1803 C 229.879 5.20775 -5.52155 0
M  V30 1804 O 230.089 4.56534 -4.22446 0
M  V30 1805 C 231.279 5.62629 -5.96531 0
M  V30 1806 O 231.669 6.87667 -5.41053 0
M  V30 1807 C 232.159 4.52537 -5.39283 0
M  V30 1808 C 231.449 4.20027 -4.08623 0
M  V30 1809 N 231.499 2.76189 -3.71603 0
M  V30 1810 H 228.66 4.797 -7.24003 0
M  V30 1811 H 228.39 3.69856 -5.84513 0
M  V30 1812 H 229.257 6.10356 -5.41441 0
M  V30 1813 P 233.219 7.20834 -5.23717 0
M  V30 1814 O 233.439 8.66274 -5.38678 0
M  V30 1815 O 234.009 6.33687 -6.13629 0
M  V30 1816 O 233.469 6.7751 -3.72168 0
M  V30 1817 C 232.529 7.20919 -2.70795 0
M  V30 1818 C 233.259 7.45864 -1.40599 0
M  V30 1819 O 233.469 6.17751 -0.734343 0
M  V30 1820 C 234.659 8.05906 -1.51917 0
M  V30 1821 O 235.049 8.74358 -0.335205 0
M  V30 1822 C 235.539 6.83093 -1.70294 0
M  V30 1823 C 234.829 5.79992 -0.836974 0
M  V30 1824 N 234.879 4.41864 -1.38293 0
M  V30 1825 C 234.799 4.02089 -2.69407 0
M  V30 1826 N 234.869 2.73403 -2.85089 0
M  V30 1827 C 235.019 2.25086 -1.5642 0
M  V30 1828 C 235.149 0.942887 -1.04836 0
M  V30 1829 N 235.159 -0.150999 -1.80369 0
M  V30 1830 N 235.269 0.812565 0.28167 0
M  V30 1831 C 235.259 1.90572 1.03784 0
M  V30 1832 N 235.139 3.167 0.683905 0
M  V30 1833 C 235.019 3.26538 -0.652815 0
M  V30 1834 H 232.041 8.13738 -3.03804 0
M  V30 1835 H 231.769 6.42974 -2.55559 0
M  V30 1836 H 232.637 8.12139 -0.792866 0
M  V30 1837 H 235.292 5.80178 0.160643 0
M  V30 1838 H 235.572 6.51379 -2.75643 0
M  V30 1839 H 236.563 7.01832 -1.3448 0
M  V30 1840 H 234.729 8.73771 -2.38364 0
M  V30 1841 H 234.688 4.7189 -3.52311 0
M  V30 1842 H 235.069 -0.0721434 -2.82608 0
M  V30 1843 H 235.258 -1.0785 -1.36544 0
M  V30 1844 H 235.366 1.73207 2.10241 0
M  V30 1845 P 236.599 8.91 5.54508e-13 0
M  V30 1846 O 236.819 10.1726 0.733694 0
M  V30 1847 O 237.389 8.73148 -1.23936 0
M  V30 1848 O 236.849 7.66872 0.971405 0
M  V30 1849 C 235.909 7.42309 2.04641 0
M  V30 1850 C 236.639 6.86059 3.24661 0
M  V30 1851 O 236.849 5.42847 3.03646 0
M  V30 1852 C 238.039 7.41196 3.50753 0
M  V30 1853 O 238.429 7.27073 4.86816 0
M  V30 1854 C 238.919 6.5273 2.63741 0
M  V30 1855 C 238.209 5.1842 2.73198 0
M  V30 1856 N 238.259 4.38762 1.4784 0
M  V30 1857 H 235.42 8.36803 2.32493 0
M  V30 1858 H 235.15 6.70197 1.71129 0
M  V30 1859 H 236.017 7.03551 4.13168 0
M  V30 1860 P 239.979 7.20834 5.23717 0
M  V30 1861 O 240.199 7.79853 6.57286 0
M  V30 1862 O 240.769 7.79239 4.12957 0
M  V30 1863 O 240.229 5.63315 5.29344 0
M  V30 1864 C 239.289 4.80255 6.01876 0
M  V30 1865 C 240.019 3.64202 6.65911 0
M  V30 1866 O 240.229 2.60694 5.64732 0
M  V30 1867 C 241.419 3.93473 7.1943 0
M  V30 1868 O 241.809 3.02071 8.21205 0
M  V30 1869 C 242.299 3.73047 5.97036 0
M  V30 1870 C 241.589 2.58828 5.25741 0
M  V30 1871 N 241.639 2.68068 3.77503 0
M  V30 1872 H 238.8 5.40332 6.79951 0
M  V30 1873 H 238.53 4.41613 5.32378 0
M  V30 1874 H 239.397 3.26331 7.47797 0
M  V30 1875 P 243.359 2.75334 8.47391 0
M  V30 1876 O 243.579 2.44571 9.90142 0
M  V30 1877 O 244.149 3.87688 7.92115 0
M  V30 1878 O 243.609 1.4459 7.59357 0
M  V30 1879 C 242.669 0.347608 7.69215 0
M  V30 1880 C 243.399 -0.96767 7.52806 0
M  V30 1881 O 243.609 -1.21036 6.1011 0
M  V30 1882 C 244.799 -1.04544 8.13308 0
M  V30 1883 O 245.189 -2.38311 8.41922 0
M  V30 1884 C 245.679 -0.491279 7.02284 0
M  V30 1885 C 244.969 -0.996264 5.77469 0
M  V30 1886 N 245.019 -0.0501916 4.62973 0
M  V30 1887 H 242.18 0.374722 8.67691 0
M  V30 1888 H 241.91 0.443485 6.90277 0
M  V30 1889 H 242.777 -1.75537 7.96793 0
M  V30 1890 P 246.739 -2.75334 8.47391 0
M  V30 1891 O 246.959 -3.84128 9.44797 0
M  V30 1892 O 247.529 -1.51947 8.68712 0
M  V30 1893 O 246.989 -3.29363 6.99321 0
M  V30 1894 C 246.049 -4.24011 6.4274 0
M  V30 1895 C 246.779 -5.20775 5.52155 0
M  V30 1896 O 246.989 -4.56534 4.22446 0
M  V30 1897 C 248.179 -5.62629 5.96531 0
M  V30 1898 O 248.569 -6.87667 5.41053 0
M  V30 1899 C 249.059 -4.52537 5.39283 0
M  V30 1900 C 248.349 -4.20027 4.08623 0
M  V30 1901 N 248.399 -2.76189 3.71603 0
M  V30 1902 H 245.56 -4.797 7.24003 0
M  V30 1903 H 245.29 -3.69856 5.84513 0
M  V30 1904 H 246.157 -6.10356 5.41441 0
M  V30 1905 P 250.119 -7.20834 5.23717 0
M  V30 1906 O 250.339 -8.66104 5.38572 0
M  V30 1907 O 250.909 -6.33544 6.1349 0
M  V30 1908 O 250.369 -6.7751 3.72168 0
M  V30 1909 C 249.429 -7.20825 2.7076 0
M  V30 1910 C 250.159 -7.45864 1.40599 0
M  V30 1911 O 250.369 -6.17651 0.734225 0
M  V30 1912 C 251.559 -8.05808 1.51899 0
M  V30 1913 O 251.949 -8.74358 0.335205 0
M  V30 1914 C 252.439 -6.83093 1.70294 0
M  V30 1915 C 251.729 -5.79992 0.836974 0
M  V30 1916 N 251.779 -4.41864 1.38293 0
M  V30 1917 H 248.94 -8.13644 3.0377 0
M  V30 1918 H 248.67 -6.42788 2.55485 0
M  V30 1919 H 249.537 -8.12039 0.792769 0
M  V30 1920 P 253.498 -8.91 -7.1169e-13 0
M  V30 1921 O 253.718 -10.1726 -0.733694 0
M  V30 1922 O 254.288 -8.73148 1.23936 0
M  V30 1923 O 253.748 -7.66872 -0.971405 0
M  V30 1924 C 252.808 -7.42309 -2.04641 0
M  V30 1925 C 253.538 -6.86059 -3.24661 0
M  V30 1926 O 253.748 -5.42847 -3.03646 0
M  V30 1927 C 254.938 -7.41196 -3.50753 0
M  V30 1928 O 255.328 -7.27073 -4.86816 0
M  V30 1929 C 255.818 -6.5273 -2.63741 0
M  V30 1930 C 255.108 -5.1842 -2.73198 0
M  V30 1931 N 255.158 -4.38762 -1.4784 0
M  V30 1932 H 252.319 -8.36803 -2.32493 0
M  V30 1933 H 252.049 -6.70197 -1.71129 0
M  V30 1934 H 252.916 -7.03551 -4.13168 0
M  V30 1935 P 256.878 -7.20834 -5.23717 0
M  V30 1936 O 257.098 -7.79853 -6.57286 0
M  V30 1937 O 257.668 -7.79239 -4.12957 0
M  V30 1938 O 257.128 -5.63315 -5.29344 0
M  V30 1939 C 256.188 -4.80255 -6.01876 0
M  V30 1940 C 256.918 -3.64202 -6.65911 0
M  V30 1941 O 257.128 -2.60694 -5.64732 0
M  V30 1942 C 258.318 -3.93473 -7.1943 0
M  V30 1943 O 258.708 -3.02071 -8.21205 0
M  V30 1944 C 259.198 -3.73047 -5.97036 0
M  V30 1945 C 258.488 -2.58828 -5.25741 0
M  V30 1946 N 258.538 -2.68068 -3.77503 0
M  V30 1947 H 255.699 -5.40332 -6.79951 0
M  V30 1948 H 255.429 -4.41613 -5.32378 0
M  V30 1949 H 256.296 -3.26331 -7.47797 0
M  V30 1950 P 260.258 -2.75334 -8.47391 0
M  V30 1951 O 260.478 -2.44571 -9.90142 0
M  V30 1952 O 261.048 -3.87688 -7.92115 0
M  V30 1953 O 260.508 -1.4459 -7.59357 0
M  V30 1954 C 259.568 -0.347608 -7.69215 0
M  V30 1955 C 260.298 0.96767 -7.52806 0
M  V30 1956 O 260.508 1.21036 -6.1011 0
M  V30 1957 C 261.698 1.04544 -8.13308 0
M  V30 1958 O 262.088 2.38311 -8.41922 0
M  V30 1959 C 262.578 0.491279 -7.02284 0
M  V30 1960 C 261.868 0.996264 -5.77469 0
M  V30 1961 N 261.918 0.0501916 -4.62973 0
M  V30 1962 C 261.838 -1.32786 -4.63244 0
M  V30 1963 N 261.918 -1.86957 -3.44545 0
M  V30 1964 C 262.058 -0.780241 -2.58481 0
M  V30 1965 C 262.188 -0.738536 -1.17757 0
M  V30 1966 O 262.208 -1.66794 -0.372349 0
M  V30 1967 N 262.308 0.58337 -0.711393 0
M  V30 1968 C 262.308 1.70816 -1.51017 0
M  V30 1969 N 262.438 2.87826 -0.880757 0
M  V30 1970 N 262.178 1.67126 -2.8339 0
M  V30 1971 C 262.058 0.401421 -3.30572 0
M  V30 1972 H 259.079 -0.374722 -8.67691 0
M  V30 1973 H 258.809 -0.443485 -6.90277 0
M  V30 1974 H 259.676 1.75537 -7.96793 0
M  V30 1975 H 262.331 1.95076 -5.46529 0
M  V30 1976 H 262.61 -0.608565 -7.04577 0
M  V30 1977 H 263.602 0.889672 -7.08939 0
M  V30 1978 H 261.768 0.43308 -9.04564 0
M  V30 1979 H 261.719 -1.91249 -5.54442 0
M  V30 1980 H 262.401 0.718054 0.275244 0
M  V30 1981 H 262.438 3.75721 -1.41832 0
M  V30 1982 H 262.539 2.90436 0.145468 0
M  V30 1983 P 263.638 2.75334 -8.47391 0
M  V30 1984 O 263.858 3.84204 -9.44982 0
M  V30 1985 O 264.428 1.51982 -8.68909 0
M  V30 1986 O 263.888 3.29363 -6.99321 0
M  V30 1987 C 262.948 4.24066 -6.42823 0
M  V30 1988 C 263.678 5.20775 -5.52155 0
M  V30 1989 O 263.888 4.56607 -4.22514 0
M  V30 1990 C 265.078 5.62697 -5.96604 0
M  V30 1991 O 265.468 6.87667 -5.41053 0
M  V30 1992 C 265.958 4.52537 -5.39283 0
M  V30 1993 C 265.248 4.20027 -4.08623 0
M  V30 1994 N 265.298 2.76189 -3.71603 0
M  V30 1995 H 262.46 4.79756 -7.24086 0
M  V30 1996 H 262.188 3.69963 -5.84682 0
M  V30 1997 H 263.056 6.10431 -5.41508 0
M  V30 1998 H 265.711 4.78816 -3.28024 0
M  V30 1999 H 265.991 3.64957 -6.05871 0
M  V30 2000 H 266.982 4.88748 -5.21323 0
M  V30 2001 H 265.148 5.66789 -7.0643 0
M  V30 2002 P 267.018 7.20834 -5.23717 0
M  V30 2003 O 267.238 8.66104 -5.38572 0
M  V30 2004 O 267.808 6.33544 -6.1349 0
M  V30 2005 O 267.268 6.7751 -3.72168 0
M  V30 2006 C 266.328 7.20825 -2.7076 0
M  V30 2007 C 267.058 7.45864 -1.40599 0
M  V30 2008 O 267.268 6.17651 -0.734225 0
M  V30 2009 C 268.458 8.05808 -1.51899 0
M  V30 2010 O 268.848 8.74358 -0.335205 0
M  V30 2011 C 269.338 6.83093 -1.70294 0
M  V30 2012 C 268.628 5.79992 -0.836974 0
M  V30 2013 N 268.678 4.41864 -1.38293 0
M  V30 2014 H 265.839 8.13644 -3.0377 0
M  V30 2015 H 265.569 6.42788 -2.55485 0
M  V30 2016 H 266.436 8.12039 -0.792769 0
M  V30 2017 P 270.398 8.91 8.68872e-13 0
M  V30 2018 O 270.618 10.1726 0.733694 0
M  V30 2019 O 271.188 8.73148 -1.23936 0
M  V30 2020 O 270.648 7.66872 0.971405 0
M  V30 2021 C 269.708 7.42309 2.04641 0
M  V30 2022 C 270.438 6.86059 3.24661 0
M  V30 2023 O 270.648 5.42847 3.03646 0
M  V30 2024 C 271.838 7.41196 3.50753 0
M  V30 2025 O 272.228 7.27073 4.86816 0
M  V30 2026 C 272.718 6.5273 2.63741 0
M  V30 2027 C 272.008 5.1842 2.73198 0
M  V30 2028 N 272.058 4.38762 1.4784 0
M  V30 2029 H 269.219 8.36803 2.32493 0
M  V30 2030 H 268.949 6.70197 1.71129 0
M  V30 2031 H 269.816 7.03551 4.13168 0
M  V30 2032 P 273.778 7.20834 5.23717 0
M  V30 2033 O 273.998 7.79853 6.57286 0
M  V30 2034 O 274.568 7.79239 4.12957 0
M  V30 2035 O 274.028 5.63315 5.29344 0
M  V30 2036 C 273.088 4.80255 6.01876 0
M  V30 2037 C 273.818 3.64202 6.65911 0
M  V30 2038 O 274.028 2.60694 5.64732 0
M  V30 2039 C 275.218 3.93473 7.1943 0
M  V30 2040 O 275.608 3.02071 8.21205 0
M  V30 2041 C 276.098 3.73047 5.97036 0
M  V30 2042 C 275.388 2.58828 5.25741 0
M  V30 2043 N 275.438 2.68068 3.77503 0
M  V30 2044 H 272.599 5.40332 6.79951 0
M  V30 2045 H 272.329 4.41613 5.32378 0
M  V30 2046 H 273.196 3.26331 7.47797 0
M  V30 2047 P 277.158 2.75334 8.47391 0
M  V30 2048 O 277.378 2.44571 9.90142 0
M  V30 2049 O 277.948 3.87688 7.92115 0
M  V30 2050 O 277.408 1.4459 7.59357 0
M  V30 2051 C 276.468 0.347608 7.69215 0
M  V30 2052 C 277.198 -0.96767 7.52806 0
M  V30 2053 O 277.408 -1.21036 6.1011 0
M  V30 2054 C 278.598 -1.04544 8.13308 0
M  V30 2055 O 278.988 -2.38311 8.41922 0
M  V30 2056 C 279.478 -0.491279 7.02284 0
M  V30 2057 C 278.768 -0.996264 5.77469 0
M  V30 2058 N 278.818 -0.0501916 4.62973 0
M  V30 2059 H 275.979 0.374722 8.67691 0
M  V30 2060 H 275.709 0.443485 6.90277 0
M  V30 2061 H 276.576 -1.75537 7.96793 0
M  V30 2062 P 280.538 -2.75334 8.47391 0
M  V30 2063 O 280.758 -3.84128 9.44797 0
M  V30 2064 O 281.328 -1.51947 8.68712 0
M  V30 2065 O 280.788 -3.29363 6.99321 0
M  V30 2066 C 279.848 -4.24011 6.4274 0
M  V30 2067 C 280.578 -5.20775 5.52155 0
M  V30 2068 O 280.788 -4.56534 4.22446 0
M  V30 2069 C 281.978 -5.62629 5.96531 0
M  V30 2070 O 282.368 -6.87667 5.41053 0
M  V30 2071 C 282.858 -4.52537 5.39283 0
M  V30 2072 C 282.148 -4.20027 4.08623 0
M  V30 2073 N 282.198 -2.76189 3.71603 0
M  V30 2074 H 279.359 -4.797 7.24003 0
M  V30 2075 H 279.089 -3.69856 5.84513 0
M  V30 2076 H 279.956 -6.10356 5.41441 0
M  V30 2077 P 283.918 -7.20834 5.23717 0
M  V30 2078 O 284.138 -8.66104 5.38572 0
M  V30 2079 O 284.708 -6.33544 6.1349 0
M  V30 2080 O 284.168 -6.7751 3.72168 0
M  V30 2081 C 283.228 -7.20825 2.7076 0
M  V30 2082 C 283.958 -7.45864 1.40599 0
M  V30 2083 O 284.168 -6.17651 0.734225 0
M  V30 2084 C 285.358 -8.05808 1.51899 0
M  V30 2085 O 285.748 -8.74358 0.335205 0
M  V30 2086 C 286.238 -6.83093 1.70294 0
M  V30 2087 C 285.528 -5.79992 0.836974 0
M  V30 2088 N 285.578 -4.41864 1.38293 0
M  V30 2089 C 285.498 -3.99538 2.69438 0
M  V30 2090 N 285.578 -2.69909 2.84277 0
M  V30 2091 C 285.718 -2.21719 1.5408 0
M  V30 2092 C 285.848 -0.891712 1.06628 0
M  V30 2093 N 285.968 -0.856846 -0.334985 0
M  V30 2094 C 285.968 -1.9641 -1.15789 0
M  V30 2095 N 286.098 -1.72708 -2.46522 0
M  V30 2096 N 285.838 -3.21165 -0.713741 0
M  V30 2097 C 285.718 -3.26797 0.639748 0
M  V30 2098 H 282.739 -8.13644 3.0377 0
M  V30 2099 H 282.469 -6.42788 2.55485 0
M  V30 2100 H 283.336 -8.12039 0.792769 0
M  V30 2101 P 287.298 -8.91 -1.02605e-12 0
M  V30 2102 O 287.518 -10.1746 -0.733838 0
M  V30 2103 O 288.088 -8.73346 1.23964 0
M  V30 2104 O 287.548 -7.66872 -0.971405 0
M  V30 2105 C 286.608 -7.42405 -2.04668 0
M  V30 2106 C 287.338 -6.86059 -3.24661 0
M  V30 2107 O 287.548 -5.42934 -3.03695 0
M  V30 2108 C 288.738 -7.41287 -3.50796 0
M  V30 2109 O 289.128 -7.27073 -4.86816 0
M  V30 2110 C 289.618 -6.5273 -2.63741 0
M  V30 2111 C 288.908 -5.1842 -2.73198 0
M  V30 2112 N 288.958 -4.38762 -1.4784 0
M  V30 2113 H 286.12 -8.36899 -2.3252 0
M  V30 2114 H 285.848 -6.70391 -1.71179 0
M  V30 2115 H 286.716 -7.03638 -4.13219 0
M  V30 2116 H 289.371 -4.59931 -3.54016 0
M  V30 2117 H 289.651 -6.88995 -1.59871 0
M  V30 2118 H 290.642 -6.4684 -3.0373 0
M  V30 2119 H 288.808 -8.47002 -3.20749 0
M  V30 2120 P 290.678 -7.20834 -5.23717 0
M  V30 2121 O 290.898 -7.79853 -6.57286 0
M  V30 2122 O 291.468 -7.79239 -4.12957 0
M  V30 2123 O 290.928 -5.63315 -5.29344 0
M  V30 2124 C 289.988 -4.80255 -6.01876 0
M  V30 2125 C 290.718 -3.64202 -6.65911 0
M  V30 2126 O 290.928 -2.60694 -5.64732 0
M  V30 2127 C 292.118 -3.93473 -7.1943 0
M  V30 2128 O 292.508 -3.02071 -8.21205 0
M  V30 2129 C 292.998 -3.73047 -5.97036 0
M  V30 2130 C 292.288 -2.58828 -5.25741 0
M  V30 2131 N 292.338 -2.68068 -3.77503 0
M  V30 2132 H 289.499 -5.40332 -6.79951 0
M  V30 2133 H 289.229 -4.41613 -5.32378 0
M  V30 2134 H 290.096 -3.26331 -7.47797 0
M  V30 2135 P 294.058 -2.75334 -8.47391 0
M  V30 2136 O 294.278 -2.44571 -9.90142 0
M  V30 2137 O 294.848 -3.87688 -7.92115 0
M  V30 2138 O 294.308 -1.4459 -7.59357 0
M  V30 2139 C 293.368 -0.347608 -7.69215 0
M  V30 2140 C 294.098 0.96767 -7.52806 0
M  V30 2141 O 294.308 1.21036 -6.1011 0
M  V30 2142 C 295.498 1.04544 -8.13308 0
M  V30 2143 O 295.888 2.38311 -8.41922 0
M  V30 2144 C 296.378 0.491279 -7.02284 0
M  V30 2145 C 295.668 0.996264 -5.77469 0
M  V30 2146 N 295.718 0.0501916 -4.62973 0
M  V30 2147 H 292.879 -0.374722 -8.67691 0
M  V30 2148 H 292.609 -0.443485 -6.90277 0
M  V30 2149 H 293.476 1.75537 -7.96793 0
M  V30 2150 P 297.438 2.75334 -8.47391 0
M  V30 2151 O 297.658 3.84204 -9.44982 0
M  V30 2152 O 298.228 1.51982 -8.68909 0
M  V30 2153 O 297.688 3.29363 -6.99321 0
M  V30 2154 C 296.748 4.24066 -6.42823 0
M  V30 2155 C 297.478 5.20775 -5.52155 0
M  V30 2156 O 297.688 4.56607 -4.22514 0
M  V30 2157 C 298.878 5.62697 -5.96604 0
M  V30 2158 O 299.268 6.87667 -5.41053 0
M  V30 2159 C 299.758 4.52537 -5.39283 0
M  V30 2160 C 299.048 4.20027 -4.08623 0
M  V30 2161 N 299.098 2.76189 -3.71603 0
M  V30 2162 C 299.018 1.66944 -4.54297 0
M  V30 2163 N 299.088 0.536169 -3.91344 0
M  V30 2164 C 299.238 0.901569 -2.58849 0
M  V30 2165 C 299.368 0.146599 -1.40236 0
M  V30 2166 N 299.378 -1.18234 -1.37046 0
M  V30 2167 N 299.488 0.822941 -0.249738 0
M  V30 2168 C 299.478 2.15179 -0.280525 0
M  V30 2169 N 299.358 2.96414 -1.30822 0
M  V30 2170 C 299.238 2.25804 -2.44748 0
M  V30 2171 H 296.26 4.79756 -7.24086 0
M  V30 2172 H 295.988 3.69963 -5.84682 0
M  V30 2173 H 296.856 6.10431 -5.41508 0
M  V30 2174 H 299.511 4.78816 -3.28024 0
M  V30 2175 H 299.791 3.64957 -6.05871 0
M  V30 2176 H 300.782 4.88748 -5.21323 0
M  V30 2177 H 298.948 5.66789 -7.0643 0
M  V30 2178 H 298.907 1.74684 -5.62396 0
M  V30 2179 H 299.288 -1.71949 -2.24394 0
M  V30 2180 H 299.477 -1.67511 -0.470742 0
M  V30 2181 H 299.585 2.63704 0.6828 0
M  V30 2182 P 300.818 7.20834 -5.23717 0
M  V30 2183 O 301.038 8.66274 -5.38678 0
M  V30 2184 O 301.608 6.33687 -6.13629 0
M  V30 2185 O 301.068 6.7751 -3.72168 0
M  V30 2186 C 300.128 7.20919 -2.70795 0
M  V30 2187 C 300.858 7.45864 -1.40599 0
M  V30 2188 O 301.068 6.17751 -0.734343 0
M  V30 2189 C 302.258 8.05906 -1.51917 0
M  V30 2190 O 302.648 8.74358 -0.335205 0
M  V30 2191 C 303.138 6.83093 -1.70294 0
M  V30 2192 C 302.428 5.79992 -0.836974 0
M  V30 2193 N 302.478 4.41864 -1.38293 0
M  V30 2194 C 302.398 4.02089 -2.69407 0
M  V30 2195 N 302.468 2.73403 -2.85089 0
M  V30 2196 C 302.618 2.25086 -1.5642 0
M  V30 2197 C 302.748 0.942887 -1.04836 0
M  V30 2198 N 302.758 -0.150999 -1.80369 0
M  V30 2199 N 302.868 0.812565 0.28167 0
M  V30 2200 C 302.858 1.90572 1.03784 0
M  V30 2201 N 302.738 3.167 0.683905 0
M  V30 2202 C 302.618 3.26538 -0.652815 0
M  V30 2203 H 299.64 8.13738 -3.03804 0
M  V30 2204 H 299.368 6.42974 -2.55559 0
M  V30 2205 H 300.236 8.12139 -0.792866 0
M  V30 2206 H 302.891 5.80178 0.160643 0
M  V30 2207 H 303.171 6.51379 -2.75643 0
M  V30 2208 H 304.162 7.01832 -1.3448 0
M  V30 2209 H 302.328 8.73771 -2.38364 0
M  V30 2210 H 302.287 4.7189 -3.52311 0
M  V30 2211 H 302.668 -0.0721434 -2.82608 0
M  V30 2212 H 302.857 -1.0785 -1.36544 0
M  V30 2213 H 302.965 1.73207 2.10241 0
M  V30 2214 P 304.198 8.91 1.18324e-12 0
M  V30 2215 O 304.418 10.1736 0.733766 0
M  V30 2216 O 304.988 8.73247 -1.2395 0
M  V30 2217 O 304.448 7.66872 0.971405 0
M  V30 2218 C 303.508 7.42212 2.04614 0
M  V30 2219 C 304.238 6.86059 3.24661 0
M  V30 2220 O 304.448 5.42847 3.03646 0
M  V30 2221 C 305.638 7.41196 3.50753 0
M  V30 2222 O 306.028 7.27073 4.86816 0
M  V30 2223 C 306.518 6.5273 2.63741 0
M  V30 2224 C 305.808 5.1842 2.73198 0
M  V30 2225 N 305.858 4.38668 1.47808 0
M  V30 2226 C 306.008 3.02239 1.60048 0
M  V30 2227 O 306.098 2.46459 2.67869 0
M  V30 2228 N 306.048 2.32436 0.408571 0
M  V30 2229 C 305.958 2.85471 -0.854993 0
M  V30 2230 O 306.008 2.12566 -1.8531 0
M  V30 2231 C 305.808 4.28918 -0.887335 0
M  V30 2232 C 305.698 4.91066 -2.24619 0
M  V30 2233 C 305.758 5.00349 0.255399 0
M  V30 2234 H 303.018 8.36803 2.32493 0
M  V30 2235 H 302.749 6.701 1.71105 0
M  V30 2236 H 303.616 7.03551 4.13168 0
M  V30 2237 H 306.271 4.59773 3.53894 0
M  V30 2238 H 306.55 6.88995 1.59871 0
M  V30 2239 H 307.542 6.46749 3.03687 0
M  V30 2240 H 305.708 8.46908 3.20714 0
M  V30 2241 H 305.637 6.08548 0.206986 0
M  V30 2242 H 306.667 5.34836 -2.53099 0
M  V30 2243 H 304.93 5.69638 -2.2291 0
M  V30 2244 H 305.418 4.13971 -2.98044 0
M  V30 2245 H 306.154 1.33211 0.474216 0
M  V30 2246 P 307.578 7.20834 5.23717 0
M  V30 2247 O 307.798 7.80006 6.57415 0
M  V30 2248 O 308.368 7.79416 4.13051 0
M  V30 2249 O 307.828 5.63315 5.29344 0
M  V30 2250 C 306.888 4.80318 6.01954 0
M  V30 2251 C 307.618 3.64202 6.65911 0
M  V30 2252 O 307.828 2.60736 5.64823 0
M  V30 2253 C 309.018 3.93521 7.19518 0
M  V30 2254 O 309.408 3.02071 8.21205 0
M  V30 2255 C 309.898 3.73047 5.97036 0
M  V30 2256 C 309.188 2.58828 5.25741 0
M  V30 2257 N 309.238 2.68068 3.77503 0
M  V30 2258 C 309.158 3.80474 2.99159 0
M  V30 2259 N 309.228 3.55622 1.71925 0
M  V30 2260 C 309.378 2.1832 1.65733 0
M  V30 2261 C 309.508 1.28842 0.572777 0
M  V30 2262 N 309.518 1.66875 -0.70098 0
M  V30 2263 N 309.628 -0.016788 0.859836 0
M  V30 2264 C 309.618 -0.398145 2.13316 0
M  V30 2265 N 309.498 0.328224 3.22333 0
M  V30 2266 C 309.378 1.62992 2.90383 0
M  V30 2267 H 306.4 5.40394 6.8003 0
M  V30 2268 H 306.128 4.41741 5.32532 0
M  V30 2269 H 306.996 3.26371 7.47889 0
M  V30 2270 H 309.651 1.64007 5.56746 0
M  V30 2271 H 309.931 4.63439 5.3432 0
M  V30 2272 H 310.922 3.44776 6.25925 0
M  V30 2273 H 309.088 4.96707 7.57347 0
M  V30 2274 H 309.047 4.8089 3.39924 0
M  V30 2275 H 309.428 2.66547 -0.941919 0
M  V30 2276 H 309.617 0.965341 -1.44766 0
M  V30 2277 H 309.725 -1.46427 2.29697 0
M  V30 2278 P 310.958 2.75334 8.47391 0
M  V30 2279 O 311.178 2.44571 9.90142 0
M  V30 2280 O 311.748 3.87688 7.92115 0
M  V30 2281 O 311.208 1.4459 7.59357 0
M  V30 2282 C 310.268 0.347608 7.69215 0
M  V30 2283 C 310.998 -0.96767 7.52806 0
M  V30 2284 O 311.208 -1.21036 6.1011 0
M  V30 2285 C 312.398 -1.04544 8.13308 0
M  V30 2286 O 312.788 -2.38311 8.41922 0
M  V30 2287 C 313.278 -0.491279 7.02284 0
M  V30 2288 C 312.568 -0.996264 5.77469 0
M  V30 2289 N 312.618 -0.0501916 4.62973 0
M  V30 2290 H 309.779 0.374722 8.67691 0
M  V30 2291 H 309.509 0.443485 6.90277 0
M  V30 2292 H 310.376 -1.75537 7.96793 0
M  V30 2293 P 314.338 -2.75334 8.47391 0
M  V30 2294 O 314.558 -3.84128 9.44797 0
M  V30 2295 O 315.128 -1.51947 8.68712 0
M  V30 2296 O 314.588 -3.29363 6.99321 0
M  V30 2297 C 313.648 -4.24011 6.4274 0
M  V30 2298 C 314.378 -5.20775 5.52155 0
M  V30 2299 O 314.588 -4.56534 4.22446 0
M  V30 2300 C 315.778 -5.62629 5.96531 0
M  V30 2301 O 316.168 -6.87667 5.41053 0
M  V30 2302 C 316.658 -4.52537 5.39283 0
M  V30 2303 C 315.948 -4.20027 4.08623 0
M  V30 2304 N 315.998 -2.76189 3.71603 0
M  V30 2305 C 315.918 -1.64862 4.52822 0
M  V30 2306 N 315.998 -0.512671 3.88633 0
M  V30 2307 C 316.138 -0.888083 2.54977 0
M  V30 2308 C 316.268 -0.094668 1.38677 0
M  V30 2309 N 316.388 -0.890102 0.232633 0
M  V30 2310 C 316.388 -2.26958 0.21772 0
M  V30 2311 N 316.518 -2.84626 -0.97925 0
M  V30 2312 N 316.258 -3.0178 1.31033 0
M  V30 2313 C 316.138 -2.26781 2.43843 0
M  V30 2314 H 313.159 -4.797 7.24003 0
M  V30 2315 H 312.889 -3.69856 5.84513 0
M  V30 2316 H 313.756 -6.10356 5.41441 0
M  V30 2317 P 317.718 -7.20834 5.23717 0
M  V30 2318 O 317.938 -8.66104 5.38572 0
M  V30 2319 O 318.508 -6.33544 6.1349 0
M  V30 2320 O 317.968 -6.7751 3.72168 0
M  V30 2321 C 317.028 -7.20825 2.7076 0
M  V30 2322 C 317.758 -7.45864 1.40599 0
M  V30 2323 O 317.968 -6.17651 0.734225 0
M  V30 2324 C 319.158 -8.05808 1.51899 0
M  V30 2325 O 319.548 -8.74358 0.335205 0
M  V30 2326 C 320.038 -6.83093 1.70294 0
M  V30 2327 C 319.328 -5.79992 0.836974 0
M  V30 2328 N 319.378 -4.41864 1.38293 0
M  V30 2329 H 316.539 -8.13644 3.0377 0
M  V30 2330 H 316.269 -6.42788 2.55485 0
M  V30 2331 H 317.136 -8.12039 0.792769 0
M  V30 2332 P 321.098 -8.91 -1.34042e-12 0
M  V30 2333 O 321.318 -10.1726 -0.733694 0
M  V30 2334 O 321.888 -8.73148 1.23936 0
M  V30 2335 O 321.348 -7.66872 -0.971405 0
M  V30 2336 C 320.408 -7.42309 -2.04641 0
M  V30 2337 C 321.138 -6.86059 -3.24661 0
M  V30 2338 O 321.348 -5.42847 -3.03646 0
M  V30 2339 C 322.538 -7.41196 -3.50753 0
M  V30 2340 O 322.928 -7.27073 -4.86816 0
M  V30 2341 C 323.418 -6.5273 -2.63741 0
M  V30 2342 C 322.708 -5.1842 -2.73198 0
M  V30 2343 N 322.758 -4.38762 -1.4784 0
M  V30 2344 H 319.919 -8.36803 -2.32493 0
M  V30 2345 H 319.649 -6.70197 -1.71129 0
M  V30 2346 H 320.516 -7.03551 -4.13168 0
M  V30 2347 P 324.478 -7.20834 -5.23717 0
M  V30 2348 O 324.698 -7.80006 -6.57415 0
M  V30 2349 O 325.268 -7.79416 -4.13051 0
M  V30 2350 O 324.728 -5.63315 -5.29344 0
M  V30 2351 C 323.788 -4.80318 -6.01954 0
M  V30 2352 C 324.518 -3.64202 -6.65911 0
M  V30 2353 O 324.728 -2.60736 -5.64823 0
M  V30 2354 C 325.918 -3.93521 -7.19518 0
M  V30 2355 O 326.308 -3.02071 -8.21205 0
M  V30 2356 C 326.798 -3.73047 -5.97036 0
M  V30 2357 C 326.088 -2.58828 -5.25741 0
M  V30 2358 N 326.138 -2.68068 -3.77503 0
M  V30 2359 H 323.3 -5.40394 -6.8003 0
M  V30 2360 H 323.028 -4.41741 -5.32532 0
M  V30 2361 H 323.896 -3.26371 -7.47889 0
M  V30 2362 H 326.551 -1.64007 -5.56746 0
M  V30 2363 H 326.831 -4.63439 -5.3432 0
M  V30 2364 H 327.822 -3.44776 -6.25925 0
M  V30 2365 H 325.988 -4.96707 -7.57347 0
M  V30 2366 P 327.858 -2.75334 -8.47391 0
M  V30 2367 O 328.078 -2.44571 -9.90142 0
M  V30 2368 O 328.648 -3.87688 -7.92115 0
M  V30 2369 O 328.108 -1.4459 -7.59357 0
M  V30 2370 C 327.168 -0.347608 -7.69215 0
M  V30 2371 C 327.898 0.96767 -7.52806 0
M  V30 2372 O 328.108 1.21036 -6.1011 0
M  V30 2373 C 329.298 1.04544 -8.13308 0
M  V30 2374 O 329.688 2.38311 -8.41922 0
M  V30 2375 C 330.178 0.491279 -7.02284 0
M  V30 2376 C 329.468 0.996264 -5.77469 0
M  V30 2377 N 329.518 0.0501916 -4.62973 0
M  V30 2378 H 326.679 -0.374722 -8.67691 0
M  V30 2379 H 326.409 -0.443485 -6.90277 0
M  V30 2380 H 327.276 1.75537 -7.96793 0
M  V30 2381 P 331.238 2.75334 -8.47391 0
M  V30 2382 O 331.458 3.84204 -9.44982 0
M  V30 2383 O 332.028 1.51982 -8.68909 0
M  V30 2384 O 331.488 3.29363 -6.99321 0
M  V30 2385 C 330.548 4.24066 -6.42823 0
M  V30 2386 C 331.278 5.20775 -5.52155 0
M  V30 2387 O 331.488 4.56607 -4.22514 0
M  V30 2388 C 332.678 5.62697 -5.96604 0
M  V30 2389 O 333.068 6.87667 -5.41053 0
M  V30 2390 C 333.558 4.52537 -5.39283 0
M  V30 2391 C 332.848 4.20027 -4.08623 0
M  V30 2392 N 332.898 2.76189 -3.71603 0
M  V30 2393 H 330.06 4.79756 -7.24086 0
M  V30 2394 H 329.788 3.69963 -5.84682 0
M  V30 2395 H 330.656 6.10431 -5.41508 0
M  V30 2396 H 333.311 4.78816 -3.28024 0
M  V30 2397 H 333.591 3.64957 -6.05871 0
M  V30 2398 H 334.582 4.88748 -5.21323 0
M  V30 2399 H 332.748 5.66789 -7.0643 0
M  V30 2400 P 334.618 7.20834 -5.23717 0
M  V30 2401 O 334.838 8.66104 -5.38572 0
M  V30 2402 O 335.408 6.33544 -6.1349 0
M  V30 2403 O 334.868 6.7751 -3.72168 0
M  V30 2404 C 333.928 7.20825 -2.7076 0
M  V30 2405 C 334.658 7.45864 -1.40599 0
M  V30 2406 O 334.868 6.17651 -0.734225 0
M  V30 2407 C 336.058 8.05808 -1.51899 0
M  V30 2408 O 336.448 8.74358 -0.335205 0
M  V30 2409 C 336.938 6.83093 -1.70294 0
M  V30 2410 C 336.228 5.79992 -0.836974 0
M  V30 2411 N 336.278 4.41864 -1.38293 0
M  V30 2412 H 333.439 8.13644 -3.0377 0
M  V30 2413 H 333.169 6.42788 -2.55485 0
M  V30 2414 H 334.036 8.12039 -0.792769 0
M  V30 2415 P 337.998 8.91 1.4976e-12 0
M  V30 2416 O 338.218 10.1726 0.733694 0
M  V30 2417 O 338.788 8.73148 -1.23936 0
M  V30 2418 O 338.248 7.66872 0.971405 0
M  V30 2419 C 337.308 7.42309 2.04641 0
M  V30 2420 C 338.038 6.86059 3.24661 0
M  V30 2421 O 338.248 5.42847 3.03646 0
M  V30 2422 C 339.438 7.41196 3.50753 0
M  V30 2423 O 339.828 7.27073 4.86816 0
M  V30 2424 C 340.318 6.5273 2.63741 0
M  V30 2425 C 339.608 5.1842 2.73198 0
M  V30 2426 N 339.658 4.38762 1.4784 0
M  V30 2427 H 336.819 8.36803 2.32493 0
M  V30 2428 H 336.549 6.70197 1.71129 0
M  V30 2429 H 337.416 7.03551 4.13168 0
M  V30 2430 P 341.378 7.20834 5.23717 0
M  V30 2431 O 341.598 7.79853 6.57286 0
M  V30 2432 O 342.168 7.79239 4.12957 0
M  V30 2433 O 341.628 5.63315 5.29344 0
M  V30 2434 C 340.688 4.80255 6.01876 0
M  V30 2435 C 341.418 3.64202 6.65911 0
M  V30 2436 O 341.628 2.60694 5.64732 0
M  V30 2437 C 342.818 3.93473 7.1943 0
M  V30 2438 O 343.208 3.02071 8.21205 0
M  V30 2439 C 343.698 3.73047 5.97036 0
M  V30 2440 C 342.988 2.58828 5.25741 0
M  V30 2441 N 343.038 2.68068 3.77503 0
M  V30 2442 C 342.958 3.79715 2.96723 0
M  V30 2443 N 343.038 3.5377 1.68852 0
M  V30 2444 C 343.178 2.15054 1.63254 0
M  V30 2445 C 343.308 1.28964 0.518571 0
M  V30 2446 O 343.328 1.56826 -0.679156 0
M  V30 2447 N 343.428 -0.0538097 0.918425 0
M  V30 2448 C 343.428 -0.494275 2.22578 0
M  V30 2449 N 343.558 -1.81086 2.40434 0
M  V30 2450 N 343.298 0.313645 3.27502 0
M  V30 2451 C 343.178 1.61829 2.91033 0
M  V30 2452 H 340.199 5.40332 6.79951 0
M  V30 2453 H 339.929 4.41613 5.32378 0
M  V30 2454 H 340.796 3.26331 7.47797 0
M  V30 2455 H 343.451 1.63422 5.56814 0
M  V30 2456 H 343.73 4.63374 5.34244 0
M  V30 2457 H 344.722 3.44728 6.25838 0
M  V30 2458 H 342.888 4.96652 7.57263 0
M  V30 2459 H 342.839 4.80617 3.3614 0
M  V30 2460 H 343.521 -0.742702 0.199384 0
M  V30 2461 H 343.558 -2.20598 3.35588 0
M  V30 2462 H 343.659 -2.43518 1.58945 0
M  V30 2463 P 344.758 2.75334 8.47391 0
M  V30 2464 O 344.978 2.44571 9.90142 0
M  V30 2465 O 345.548 3.87688 7.92115 0
M  V30 2466 O 345.008 1.4459 7.59357 0
M  V30 2467 C 344.068 0.347608 7.69215 0
M  V30 2468 C 344.798 -0.96767 7.52806 0
M  V30 2469 O 345.008 -1.21036 6.1011 0
M  V30 2470 C 346.198 -1.04544 8.13308 0
M  V30 2471 O 346.588 -2.38311 8.41922 0
M  V30 2472 C 347.078 -0.491279 7.02284 0
M  V30 2473 C 346.368 -0.996264 5.77469 0
M  V30 2474 N 346.418 -0.0501916 4.62973 0
M  V30 2475 C 346.338 1.32786 4.63244 0
M  V30 2476 N 346.418 1.86957 3.44545 0
M  V30 2477 C 346.558 0.780241 2.58481 0
M  V30 2478 C 346.688 0.738536 1.17757 0
M  V30 2479 O 346.708 1.66794 0.372349 0
M  V30 2480 N 346.808 -0.58337 0.711393 0
M  V30 2481 C 346.808 -1.70816 1.51017 0
M  V30 2482 N 346.938 -2.87826 0.880757 0
M  V30 2483 N 346.678 -1.67126 2.8339 0
M  V30 2484 C 346.558 -0.401421 3.30572 0
M  V30 2485 H 343.579 0.374722 8.67691 0
M  V30 2486 H 343.309 0.443485 6.90277 0
M  V30 2487 H 344.176 -1.75537 7.96793 0
M  V30 2488 H 346.831 -1.95076 5.46529 0
M  V30 2489 H 347.11 0.608565 7.04577 0
M  V30 2490 H 348.102 -0.889672 7.08939 0
M  V30 2491 H 346.268 -0.43308 9.04564 0
M  V30 2492 H 346.219 1.91249 5.54442 0
M  V30 2493 H 346.901 -0.718054 -0.275244 0
M  V30 2494 H 346.938 -3.75721 1.41832 0
M  V30 2495 H 347.039 -2.90436 -0.145468 0
M  V30 2496 P 348.138 -2.75334 8.47391 0
M  V30 2497 O 348.358 -3.84128 9.44797 0
M  V30 2498 O 348.928 -1.51947 8.68712 0
M  V30 2499 O 348.388 -3.29363 6.99321 0
M  V30 2500 C 347.448 -4.24011 6.4274 0
M  V30 2501 C 348.178 -5.20775 5.52155 0
M  V30 2502 O 348.388 -4.56534 4.22446 0
M  V30 2503 C 349.578 -5.62629 5.96531 0
M  V30 2504 O 349.968 -6.87667 5.41053 0
M  V30 2505 C 350.458 -4.52537 5.39283 0
M  V30 2506 C 349.748 -4.20027 4.08623 0
M  V30 2507 N 349.798 -2.76189 3.71603 0
M  V30 2508 H 346.959 -4.797 7.24003 0
M  V30 2509 H 346.689 -3.69856 5.84513 0
M  V30 2510 H 347.556 -6.10356 5.41441 0
M  V30 2511 P 351.518 -7.20834 5.23717 0
M  V30 2512 O 351.738 -8.66104 5.38572 0
M  V30 2513 O 352.308 -6.33544 6.1349 0
M  V30 2514 O 351.768 -6.7751 3.72168 0
M  V30 2515 C 350.828 -7.20825 2.7076 0
M  V30 2516 C 351.558 -7.45864 1.40599 0
M  V30 2517 O 351.768 -6.17651 0.734225 0
M  V30 2518 C 352.958 -8.05808 1.51899 0
M  V30 2519 O 353.348 -8.74358 0.335205 0
M  V30 2520 C 353.838 -6.83093 1.70294 0
M  V30 2521 C 353.128 -5.79992 0.836974 0
M  V30 2522 N 353.178 -4.41864 1.38293 0
M  V30 2523 H 350.339 -8.13644 3.0377 0
M  V30 2524 H 350.069 -6.42788 2.55485 0
M  V30 2525 H 350.936 -8.12039 0.792769 0
M  V30 2526 P 354.898 -8.91 -1.65478e-12 0
M  V30 2527 O 355.118 -10.1746 -0.733838 0
M  V30 2528 O 355.688 -8.73346 1.23964 0
M  V30 2529 O 355.148 -7.66872 -0.971405 0
M  V30 2530 C 354.208 -7.42405 -2.04668 0
M  V30 2531 C 354.938 -6.86059 -3.24661 0
M  V30 2532 O 355.148 -5.42934 -3.03695 0
M  V30 2533 C 356.338 -7.41287 -3.50796 0
M  V30 2534 O 356.728 -7.27073 -4.86816 0
M  V30 2535 C 357.218 -6.5273 -2.63741 0
M  V30 2536 C 356.508 -5.1842 -2.73198 0
M  V30 2537 N 356.558 -4.38762 -1.4784 0
M  V30 2538 H 353.72 -8.36899 -2.3252 0
M  V30 2539 H 353.448 -6.70391 -1.71179 0
M  V30 2540 H 354.316 -7.03638 -4.13219 0
M  V30 2541 H 356.971 -4.59931 -3.54016 0
M  V30 2542 H 357.251 -6.88995 -1.59871 0
M  V30 2543 H 358.242 -6.4684 -3.0373 0
M  V30 2544 H 356.408 -8.47002 -3.20749 0
M  V30 2545 P 358.278 -7.20834 -5.23717 0
M  V30 2546 O 358.498 -7.79853 -6.57286 0
M  V30 2547 O 359.068 -7.79239 -4.12957 0
M  V30 2548 O 358.528 -5.63315 -5.29344 0
M  V30 2549 C 357.588 -4.80255 -6.01876 0
M  V30 2550 C 358.318 -3.64202 -6.65911 0
M  V30 2551 O 358.528 -2.60694 -5.64732 0
M  V30 2552 C 359.718 -3.93473 -7.1943 0
M  V30 2553 O 360.108 -3.02071 -8.21205 0
M  V30 2554 C 360.598 -3.73047 -5.97036 0
M  V30 2555 C 359.888 -2.58828 -5.25741 0
M  V30 2556 N 359.938 -2.68068 -3.77503 0
M  V30 2557 H 357.099 -5.40332 -6.79951 0
M  V30 2558 H 356.829 -4.41613 -5.32378 0
M  V30 2559 H 357.696 -3.26331 -7.47797 0
M  V30 2560 P 361.658 -2.75334 -8.47391 0
M  V30 2561 O 361.878 -2.44595 -9.90239 0
M  V30 2562 O 362.448 -3.87732 -7.92204 0
M  V30 2563 O 361.908 -1.4459 -7.59357 0
M  V30 2564 C 360.968 -0.347563 -7.69115 0
M  V30 2565 C 361.698 0.96767 -7.52806 0
M  V30 2566 O 361.908 1.21036 -6.1011 0
M  V30 2567 C 363.098 1.04544 -8.13308 0
M  V30 2568 O 363.488 2.38311 -8.41922 0
M  V30 2569 C 363.978 0.491279 -7.02284 0
M  V30 2570 C 363.268 0.996264 -5.77469 0
M  V30 2571 N 363.318 0.0501808 -4.62873 0
M  V30 2572 C 363.468 0.588177 -3.36904 0
M  V30 2573 O 363.558 1.78598 -3.17173 0
M  V30 2574 N 363.508 -0.329694 -2.33686 0
M  V30 2575 C 363.418 -1.6953 -2.45079 0
M  V30 2576 O 363.468 -2.41926 -1.44899 0
M  V30 2577 C 363.268 -2.16933 -3.80505 0
M  V30 2578 C 363.158 -3.65373 -3.97621 0
M  V30 2579 C 363.218 -1.30326 -4.83752 0
M  V30 2580 H 360.478 -0.374722 -8.67691 0
M  V30 2581 H 360.209 -0.443421 -6.90177 0
M  V30 2582 H 361.076 1.75537 -7.96793 0
M  V30 2583 H 363.731 1.94496 -5.46629 0
M  V30 2584 H 364.01 -0.608651 -7.04676 0
M  V30 2585 H 365.002 0.889672 -7.08939 0
M  V30 2586 H 363.168 0.43308 -9.04564 0
M  V30 2587 H 363.097 -1.68366 -5.8516 0
M  V30 2588 H 364.127 -4.05985 -4.30448 0
M  V30 2589 H 362.39 -3.88028 -4.72875 0
M  V30 2590 H 362.878 -4.11381 -3.01609 0
M  V30 2591 H 363.614 0.0393617 -1.41345 0
M  V30 2592 P 365.038 2.75334 -8.47391 0
M  V30 2593 O 365.258 3.84166 -9.4489 0
M  V30 2594 O 365.828 1.51964 -8.6881 0
M  V30 2595 O 365.288 3.29363 -6.99321 0
M  V30 2596 C 364.348 4.23956 -6.42656 0
M  V30 2597 C 365.078 5.20775 -5.52155 0
M  V30 2598 O 365.288 4.56534 -4.22446 0
M  V30 2599 C 366.478 5.62629 -5.96531 0
M  V30 2600 O 366.868 6.87667 -5.41053 0
M  V30 2601 C 367.358 4.52537 -5.39283 0
M  V30 2602 C 366.648 4.20027 -4.08623 0
M  V30 2603 N 366.698 2.7613 -3.71522 0
M  V30 2604 C 366.848 2.45612 -2.37989 0
M  V30 2605 O 366.938 3.30919 -1.51621 0
M  V30 2606 N 366.888 1.10684 -2.08435 0
M  V30 2607 C 366.798 0.0690084 -2.9792 0
M  V30 2608 O 366.848 -1.10553 -2.59426 0
M  V30 2609 C 366.648 0.481522 -4.35345 0
M  V30 2610 C 366.538 -0.618778 -5.36443 0
M  V30 2611 C 366.598 1.78906 -4.67968 0
M  V30 2612 H 363.858 4.797 -7.24003 0
M  V30 2613 H 363.589 3.69802 -5.84429 0
M  V30 2614 H 364.456 6.10356 -5.41441 0
M  V30 2615 H 367.111 4.78651 -3.27911 0
M  V30 2616 H 367.39 3.64957 -6.05871 0
M  V30 2617 H 368.382 4.8868 -5.2125 0
M  V30 2618 H 366.548 5.66726 -7.06352 0
M  V30 2619 H 366.477 2.07737 -5.72367 0
M  V30 2620 H 367.507 -0.754375 -5.86871 0
M  V30 2621 H 365.77 -0.359721 -6.10641 0
M  V30 2622 H 366.258 -1.55533 -4.8581 0
M  V30 2623 H 366.994 0.862651 -1.12037 0
M  V30 2624 P 368.418 7.20834 -5.23717 0
M  V30 2625 O 368.638 8.66104 -5.38572 0
M  V30 2626 O 369.208 6.33544 -6.1349 0
M  V30 2627 O 368.668 6.7751 -3.72168 0
M  V30 2628 C 367.728 7.20825 -2.7076 0
M  V30 2629 C 368.458 7.45864 -1.40599 0
M  V30 2630 O 368.668 6.17651 -0.734225 0
M  V30 2631 C 369.858 8.05808 -1.51899 0
M  V30 2632 O 370.248 8.74358 -0.335205 0
M  V30 2633 C 370.738 6.83093 -1.70294 0
M  V30 2634 C 370.028 5.79992 -0.836974 0
M  V30 2635 N 370.078 4.41864 -1.38293 0
M  V30 2636 H 367.239 8.13644 -3.0377 0
M  V30 2637 H 366.969 6.42788 -2.55485 0
M  V30 2638 H 367.836 8.12039 -0.792769 0
M  V30 2639 P 371.798 8.91 1.81197e-12 0
M  V30 2640 O 372.018 10.1726 0.733694 0
M  V30 2641 O 372.588 8.73148 -1.23936 0
M  V30 2642 O 372.048 7.66872 0.971405 0
M  V30 2643 C 371.108 7.42309 2.04641 0
M  V30 2644 C 371.838 6.86059 3.24661 0
M  V30 2645 O 372.048 5.42847 3.03646 0
M  V30 2646 C 373.238 7.41196 3.50753 0
M  V30 2647 O 373.628 7.27073 4.86816 0
M  V30 2648 C 374.118 6.5273 2.63741 0
M  V30 2649 C 373.408 5.1842 2.73198 0
M  V30 2650 N 373.458 4.38762 1.4784 0
M  V30 2651 H 370.619 8.36803 2.32493 0
M  V30 2652 H 370.349 6.70197 1.71129 0
M  V30 2653 H 371.216 7.03551 4.13168 0
M  V30 2654 P 375.178 7.20834 5.23717 0
M  V30 2655 O 375.398 7.79853 6.57286 0
M  V30 2656 O 375.968 7.79239 4.12957 0
M  V30 2657 O 375.428 5.63315 5.29344 0
M  V30 2658 C 374.488 4.80255 6.01876 0
M  V30 2659 C 375.218 3.64202 6.65911 0
M  V30 2660 O 375.428 2.60694 5.64732 0
M  V30 2661 C 376.618 3.93473 7.1943 0
M  V30 2662 O 377.008 3.02071 8.21205 0
M  V30 2663 C 377.498 3.73047 5.97036 0
M  V30 2664 C 376.788 2.58828 5.25741 0
M  V30 2665 N 376.838 2.68068 3.77503 0
M  V30 2666 H 373.999 5.40332 6.79951 0
M  V30 2667 H 373.729 4.41613 5.32378 0
M  V30 2668 H 374.596 3.26331 7.47797 0
M  V30 2669 P 378.558 2.75334 8.47391 0
M  V30 2670 O 378.778 2.44571 9.90142 0
M  V30 2671 O 379.348 3.87688 7.92115 0
M  V30 2672 O 378.808 1.4459 7.59357 0
M  V30 2673 C 377.868 0.347608 7.69215 0
M  V30 2674 C 378.598 -0.96767 7.52806 0
M  V30 2675 O 378.808 -1.21036 6.1011 0
M  V30 2676 C 379.998 -1.04544 8.13308 0
M  V30 2677 O 380.388 -2.38311 8.41922 0
M  V30 2678 C 380.878 -0.491279 7.02284 0
M  V30 2679 C 380.168 -0.996264 5.77469 0
M  V30 2680 N 380.218 -0.0501916 4.62973 0
M  V30 2681 H 377.379 0.374722 8.67691 0
M  V30 2682 H 377.109 0.443485 6.90277 0
M  V30 2683 H 377.976 -1.75537 7.96793 0
M  V30 2684 P 381.938 -2.75334 8.47391 0
M  V30 2685 O 382.158 -3.84128 9.44797 0
M  V30 2686 O 382.728 -1.51947 8.68712 0
M  V30 2687 O 382.188 -3.29363 6.99321 0
M  V30 2688 C 381.248 -4.24011 6.4274 0
M  V30 2689 C 381.978 -5.20775 5.52155 0
M  V30 2690 O 382.188 -4.56534 4.22446 0
M  V30 2691 C 383.378 -5.62629 5.96531 0
M  V30 2692 O 383.768 -6.87667 5.41053 0
M  V30 2693 C 384.258 -4.52537 5.39283 0
M  V30 2694 C 383.548 -4.20027 4.08623 0
M  V30 2695 N 383.598 -2.76189 3.71603 0
M  V30 2696 H 380.759 -4.797 7.24003 0
M  V30 2697 H 380.489 -3.69856 5.84513 0
M  V30 2698 H 381.356 -6.10356 5.41441 0
M  V30 2699 P 385.318 -7.20834 5.23717 0
M  V30 2700 O 385.538 -8.66104 5.38572 0
M  V30 2701 O 386.108 -6.33544 6.1349 0
M  V30 2702 O 385.568 -6.7751 3.72168 0
M  V30 2703 C 384.628 -7.20825 2.7076 0
M  V30 2704 C 385.358 -7.45864 1.40599 0
M  V30 2705 O 385.568 -6.17651 0.734225 0
M  V30 2706 C 386.758 -8.05808 1.51899 0
M  V30 2707 O 387.148 -8.74358 0.335205 0
M  V30 2708 C 387.638 -6.83093 1.70294 0
M  V30 2709 C 386.928 -5.79992 0.836974 0
M  V30 2710 N 386.978 -4.41864 1.38293 0
M  V30 2711 H 384.139 -8.13644 3.0377 0
M  V30 2712 H 383.869 -6.42788 2.55485 0
M  V30 2713 H 384.736 -8.12039 0.792769 0
M  V30 2714 P 388.698 -8.91 -1.96915e-12 0
M  V30 2715 O 388.918 -10.1736 -0.733766 0
M  V30 2716 O 389.488 -8.73247 1.2395 0
M  V30 2717 O 388.948 -7.66872 -0.971405 0
M  V30 2718 C 388.008 -7.42212 -2.04614 0
M  V30 2719 C 388.738 -6.86059 -3.24661 0
M  V30 2720 O 388.948 -5.42847 -3.03646 0
M  V30 2721 C 390.138 -7.41196 -3.50753 0
M  V30 2722 O 390.528 -7.27073 -4.86816 0
M  V30 2723 C 391.018 -6.5273 -2.63741 0
M  V30 2724 C 390.308 -5.1842 -2.73198 0
M  V30 2725 N 390.358 -4.38668 -1.47808 0
M  V30 2726 C 390.508 -3.02239 -1.60048 0
M  V30 2727 O 390.598 -2.46459 -2.67869 0
M  V30 2728 N 390.548 -2.32436 -0.408571 0
M  V30 2729 C 390.458 -2.85471 0.854993 0
M  V30 2730 C 390.308 -4.28918 0.887335 0
M  V30 2731 C 390.258 -5.00349 -0.255399 0
M  V30 2732 H 387.518 -8.36803 -2.32493 0
M  V30 2733 H 387.249 -6.701 -1.71105 0
M  V30 2734 H 388.116 -7.03551 -4.13168 0
M  V30 2735 H 390.771 -4.59773 -3.53894 0
M  V30 2736 H 391.05 -6.88995 -1.59871 0
M  V30 2737 H 392.042 -6.46749 -3.03687 0
M  V30 2738 H 390.208 -8.46908 -3.20714 0
M  V30 2739 H 390.137 -6.08548 -0.206986 0
M  V30 2740 P 392.078 -7.20834 -5.23717 0
M  V30 2741 O 392.298 -7.79853 -6.57286 0
M  V30 2742 O 392.868 -7.79239 -4.12957 0
M  V30 2743 O 392.328 -5.63315 -5.29344 0
M  V30 2744 C 391.388 -4.80255 -6.01876 0
M  V30 2745 C 392.118 -3.64202 -6.65911 0
M  V30 2746 O 392.328 -2.60694 -5.64732 0
M  V30 2747 C 393.518 -3.93473 -7.1943 0
M  V30 2748 O 393.908 -3.02071 -8.21205 0
M  V30 2749 C 394.398 -3.73047 -5.97036 0
M  V30 2750 C 393.688 -2.58828 -5.25741 0
M  V30 2751 N 393.738 -2.68068 -3.77503 0
M  V30 2752 H 390.899 -5.40332 -6.79951 0
M  V30 2753 H 390.629 -4.41613 -5.32378 0
M  V30 2754 H 391.496 -3.26331 -7.47797 0
M  V30 2755 P 395.458 -2.75334 -8.47391 0
M  V30 2756 O 395.678 -2.44571 -9.90142 0
M  V30 2757 O 396.248 -3.87688 -7.92115 0
M  V30 2758 O 395.708 -1.4459 -7.59357 0
M  V30 2759 C 394.768 -0.347608 -7.69215 0
M  V30 2760 C 395.498 0.96767 -7.52806 0
M  V30 2761 O 395.708 1.21036 -6.1011 0
M  V30 2762 C 396.898 1.04544 -8.13308 0
M  V30 2763 O 397.288 2.38311 -8.41922 0
M  V30 2764 C 397.778 0.491279 -7.02284 0
M  V30 2765 C 397.068 0.996264 -5.77469 0
M  V30 2766 N 397.118 0.0501916 -4.62973 0
M  V30 2767 H 394.279 -0.374722 -8.67691 0
M  V30 2768 H 394.009 -0.443485 -6.90277 0
M  V30 2769 H 394.876 1.75537 -7.96793 0
M  V30 2770 P 398.838 2.75334 -8.47391 0
M  V30 2771 O 399.058 3.84128 -9.44797 0
M  V30 2772 O 399.628 1.51947 -8.68712 0
M  V30 2773 O 399.088 3.29363 -6.99321 0
M  V30 2774 C 398.148 4.24011 -6.4274 0
M  V30 2775 C 398.878 5.20775 -5.52155 0
M  V30 2776 O 399.088 4.56534 -4.22446 0
M  V30 2777 C 400.278 5.62629 -5.96531 0
M  V30 2778 O 400.668 6.87667 -5.41053 0
M  V30 2779 C 401.158 4.52537 -5.39283 0
M  V30 2780 C 400.448 4.20027 -4.08623 0
M  V30 2781 N 400.498 2.76189 -3.71603 0
M  V30 2782 H 397.659 4.797 -7.24003 0
M  V30 2783 H 397.389 3.69856 -5.84513 0
M  V30 2784 H 398.256 6.10356 -5.41441 0
M  V30 2785 P 402.218 7.20834 -5.23717 0
M  V30 2786 O 402.438 8.66104 -5.38572 0
M  V30 2787 O 403.008 6.33544 -6.1349 0
M  V30 2788 O 402.468 6.7751 -3.72168 0
M  V30 2789 C 401.528 7.20825 -2.7076 0
M  V30 2790 C 402.258 7.45864 -1.40599 0
M  V30 2791 O 402.468 6.17651 -0.734225 0
M  V30 2792 C 403.658 8.05808 -1.51899 0
M  V30 2793 O 404.048 8.74358 -0.335205 0
M  V30 2794 C 404.538 6.83093 -1.70294 0
M  V30 2795 C 403.828 5.79992 -0.836974 0
M  V30 2796 N 403.878 4.41864 -1.38293 0
M  V30 2797 H 401.039 8.13644 -3.0377 0
M  V30 2798 H 400.769 6.42788 -2.55485 0
M  V30 2799 H 401.636 8.12039 -0.792769 0
M  V30 2800 P 405.598 8.91 2.12633e-12 0
M  V30 2801 O 405.818 10.1726 0.733694 0
M  V30 2802 O 406.388 8.73148 -1.23936 0
M  V30 2803 O 405.848 7.66872 0.971405 0
M  V30 2804 C 404.908 7.42309 2.04641 0
M  V30 2805 C 405.638 6.86059 3.24661 0
M  V30 2806 O 405.848 5.42847 3.03646 0
M  V30 2807 C 407.038 7.41196 3.50753 0
M  V30 2808 O 407.428 7.27073 4.86816 0
M  V30 2809 C 407.918 6.5273 2.63741 0
M  V30 2810 C 407.208 5.1842 2.73198 0
M  V30 2811 N 407.258 4.38762 1.4784 0
M  V30 2812 C 407.178 4.81605 0.168631 0
M  V30 2813 N 407.258 3.85454 -0.713363 0
M  V30 2814 C 407.398 2.6994 0.0566958 0
M  V30 2815 C 407.528 1.34815 -0.338502 0
M  V30 2816 O 407.548 0.869548 -1.47125 0
M  V30 2817 N 407.648 0.496304 0.77465 0
M  V30 2818 C 407.648 0.908403 2.09122 0
M  V30 2819 N 407.778 -0.0517805 3.00955 0
M  V30 2820 N 407.518 2.17875 2.46519 0
M  V30 2821 C 407.398 3.01988 1.4033 0
M  V30 2822 H 404.419 8.36803 2.32493 0
M  V30 2823 H 404.149 6.70197 1.71129 0
M  V30 2824 H 405.016 7.03551 4.13168 0
M  V30 2825 H 407.671 4.59498 3.54415 0
M  V30 2826 H 407.95 6.88898 1.59848 0
M  V30 2827 H 408.942 6.46749 3.03687 0
M  V30 2828 H 407.108 8.46908 3.20714 0
M  V30 2829 H 407.059 5.86405 -0.105564 0
M  V30 2830 H 407.741 -0.483664 0.597855 0
M  V30 2831 H 407.778 0.187865 4.0116 0
M  V30 2832 H 407.879 -1.03585 2.71726 0
M  V30 2833 P 408.978 7.20834 5.23717 0
M  V30 2834 O 409.198 7.79853 6.57286 0
M  V30 2835 O 409.768 7.79239 4.12957 0
M  V30 2836 O 409.228 5.63315 5.29344 0
M  V30 2837 C 408.288 4.80255 6.01876 0
M  V30 2838 C 409.018 3.64202 6.65911 0
M  V30 2839 O 409.228 2.60694 5.64732 0
M  V30 2840 C 410.418 3.93473 7.1943 0
M  V30 2841 O 410.808 3.02071 8.21205 0
M  V30 2842 C 411.298 3.73047 5.97036 0
M  V30 2843 C 410.588 2.58828 5.25741 0
M  V30 2844 N 410.638 2.68068 3.77503 0
M  V30 2845 H 407.799 5.40332 6.79951 0
M  V30 2846 H 407.529 4.41613 5.32378 0
M  V30 2847 H 408.396 3.26331 7.47797 0
M  V30 2848 P 412.358 2.75334 8.47391 0
M  V30 2849 O 412.578 2.44571 9.90142 0
M  V30 2850 O 413.148 3.87688 7.92115 0
M  V30 2851 O 412.608 1.4459 7.59357 0
M  V30 2852 C 411.668 0.347608 7.69215 0
M  V30 2853 C 412.398 -0.96767 7.52806 0
M  V30 2854 O 412.608 -1.21036 6.1011 0
M  V30 2855 C 413.798 -1.04544 8.13308 0
M  V30 2856 O 414.188 -2.38311 8.41922 0
M  V30 2857 C 414.678 -0.491279 7.02284 0
M  V30 2858 C 413.968 -0.996264 5.77469 0
M  V30 2859 N 414.018 -0.0501916 4.62973 0
M  V30 2860 H 411.179 0.374722 8.67691 0
M  V30 2861 H 410.909 0.443485 6.90277 0
M  V30 2862 H 411.776 -1.75537 7.96793 0
M  V30 2863 P 415.738 -2.75334 8.47391 0
M  V30 2864 O 415.958 -3.84128 9.44797 0
M  V30 2865 O 416.528 -1.51947 8.68712 0
M  V30 2866 O 415.988 -3.29363 6.99321 0
M  V30 2867 C 415.048 -4.24011 6.4274 0
M  V30 2868 C 415.778 -5.20775 5.52155 0
M  V30 2869 O 415.988 -4.56534 4.22446 0
M  V30 2870 C 417.178 -5.62629 5.96531 0
M  V30 2871 O 417.568 -6.87667 5.41053 0
M  V30 2872 C 418.058 -4.52537 5.39283 0
M  V30 2873 C 417.348 -4.20027 4.08623 0
M  V30 2874 N 417.398 -2.76189 3.71603 0
M  V30 2875 H 414.559 -4.797 7.24003 0
M  V30 2876 H 414.289 -3.69856 5.84513 0
M  V30 2877 H 415.156 -6.10356 5.41441 0
M  V30 2878 P 419.118 -7.20834 5.23717 0
M  V30 2879 O 419.338 -8.66104 5.38572 0
M  V30 2880 O 419.908 -6.33544 6.1349 0
M  V30 2881 O 419.368 -6.7751 3.72168 0
M  V30 2882 C 418.428 -7.20825 2.7076 0
M  V30 2883 C 419.158 -7.45864 1.40599 0
M  V30 2884 O 419.368 -6.17651 0.734225 0
M  V30 2885 C 420.558 -8.05808 1.51899 0
M  V30 2886 O 420.948 -8.74358 0.335205 0
M  V30 2887 C 421.438 -6.83093 1.70294 0
M  V30 2888 C 420.728 -5.79992 0.836974 0
M  V30 2889 N 420.778 -4.41864 1.38293 0
M  V30 2890 H 417.939 -8.13644 3.0377 0
M  V30 2891 H 417.669 -6.42788 2.55485 0
M  V30 2892 H 418.536 -8.12039 0.792769 0
M  V30 2893 P 422.497 -8.91 -2.28351e-12 0
M  V30 2894 O 422.717 -10.1736 -0.733766 0
M  V30 2895 O 423.287 -8.73247 1.2395 0
M  V30 2896 O 422.747 -7.66872 -0.971405 0
M  V30 2897 C 421.807 -7.42309 -2.04641 0
M  V30 2898 C 422.537 -6.86059 -3.24661 0
M  V30 2899 O 422.747 -5.42847 -3.03646 0
M  V30 2900 C 423.937 -7.41196 -3.50753 0
M  V30 2901 O 424.327 -7.27073 -4.86816 0
M  V30 2902 C 424.817 -6.5273 -2.63741 0
M  V30 2903 C 424.107 -5.1842 -2.73198 0
M  V30 2904 N 424.157 -4.38668 -1.47808 0
M  V30 2905 C 424.307 -3.00789 -1.58511 0
M  V30 2906 O 424.397 -2.50116 -2.71298 0
M  V30 2907 N 424.357 -2.29703 -0.253698 0
M  V30 2908 C 424.257 -2.84269 0.750133 0
M  V30 2909 N 424.307 -2.06951 1.82612 0
M  V30 2910 C 424.107 -4.25803 0.889776 0
M  V30 2911 C 424.057 -4.98326 -0.259363 0
M  V30 2912 H 421.317 -8.36707 -2.32466 0
M  V30 2913 H 421.048 -6.701 -1.71105 0
M  V30 2914 H 421.915 -7.03638 -4.13219 0
M  V30 2915 H 424.57 -4.59852 -3.53955 0
M  V30 2916 H 424.849 -6.88995 -1.59871 0
M  V30 2917 H 425.841 -6.46749 -3.03687 0
M  V30 2918 H 424.007 -8.46908 -3.20714 0
M  V30 2919 H 423.935 -6.06349 -0.206238 0
M  V30 2920 H 424.037 -4.73163 1.86796 0
M  V30 2921 H 424.425 -1.05099 1.72271 0
M  V30 2922 H 424.228 -2.48716 2.76361 0
M  V30 2923 P 425.877 -7.20834 -5.23717 0
M  V30 2924 O 426.097 -7.7993 -6.57351 0
M  V30 2925 O 426.667 -7.79328 -4.13004 0
M  V30 2926 O 426.127 -5.63315 -5.29344 0
M  V30 2927 C 425.187 -4.80193 -6.01798 0
M  V30 2928 C 425.917 -3.64202 -6.65911 0
M  V30 2929 O 426.127 -2.60694 -5.64732 0
M  V30 2930 C 427.317 -3.93473 -7.1943 0
M  V30 2931 O 427.707 -3.02071 -8.21205 0
M  V30 2932 C 428.197 -3.73047 -5.97036 0
M  V30 2933 C 427.487 -2.58828 -5.25741 0
M  V30 2934 N 427.537 -2.6801 -3.77422 0
M  V30 2935 C 427.687 -1.50443 -3.07133 0
M  V30 2936 O 427.777 -0.419406 -3.61576 0
M  V30 2937 N 427.727 -1.6403 -1.69677 0
M  V30 2938 C 427.637 -2.81206 -0.986255 0
M  V30 2939 O 427.687 -2.80892 0.249754 0
M  V30 2940 C 427.487 -3.99158 -1.80325 0
M  V30 2941 C 427.377 -5.29309 -1.06921 0
M  V30 2942 C 427.437 -3.89779 -3.1476 0
M  V30 2943 H 424.697 -5.40332 -6.79951 0
M  V30 2944 H 424.428 -4.41549 -5.32301 0
M  V30 2945 H 425.295 -3.26331 -7.47797 0
M  V30 2946 H 427.95 -1.6395 -5.56554 0
M  V30 2947 H 428.229 -4.63439 -5.3432 0
M  V30 2948 H 429.221 -3.44728 -6.25838 0
M  V30 2949 H 427.387 -4.96652 -7.57263 0
M  V30 2950 H 427.316 -4.80159 -3.74441 0
M  V30 2951 H 428.346 -5.81459 -1.09608 0
M  V30 2952 H 426.609 -5.9187 -1.54487 0
M  V30 2953 H 427.097 -5.10095 -0.0220288 0
M  V30 2954 H 427.833 -0.798962 -1.16664 0
M  V30 2955 P 429.257 -2.75334 -8.47391 0
M  V30 2956 O 429.477 -2.44571 -9.90142 0
M  V30 2957 O 430.047 -3.87688 -7.92115 0
M  V30 2958 O 429.507 -1.4459 -7.59357 0
M  V30 2959 C 428.567 -0.347608 -7.69215 0
M  V30 2960 C 429.297 0.96767 -7.52806 0
M  V30 2961 O 429.507 1.21036 -6.1011 0
M  V30 2962 C 430.697 1.04544 -8.13308 0
M  V30 2963 O 431.087 2.38311 -8.41922 0
M  V30 2964 C 431.577 0.491279 -7.02284 0
M  V30 2965 C 430.867 0.996264 -5.77469 0
M  V30 2966 N 430.917 0.0501916 -4.62973 0
M  V30 2967 H 428.078 -0.374722 -8.67691 0
M  V30 2968 H 427.808 -0.443485 -6.90277 0
M  V30 2969 H 428.675 1.75537 -7.96793 0
M  V30 2970 P 432.637 2.75334 -8.47391 0
M  V30 2971 O 432.857 3.84128 -9.44797 0
M  V30 2972 O 433.427 1.51947 -8.68712 0
M  V30 2973 O 432.887 3.29363 -6.99321 0
M  V30 2974 C 431.947 4.24011 -6.4274 0
M  V30 2975 C 432.677 5.20775 -5.52155 0
M  V30 2976 O 432.887 4.56534 -4.22446 0
M  V30 2977 C 434.077 5.62629 -5.96531 0
M  V30 2978 O 434.467 6.87667 -5.41053 0
M  V30 2979 C 434.957 4.52537 -5.39283 0
M  V30 2980 C 434.247 4.20027 -4.08623 0
M  V30 2981 N 434.297 2.76189 -3.71603 0
M  V30 2982 H 431.458 4.797 -7.24003 0
M  V30 2983 H 431.188 3.69856 -5.84513 0
M  V30 2984 H 432.055 6.10356 -5.41441 0
M  V30 2985 P 436.017 7.20834 -5.23717 0
M  V30 2986 O 436.237 8.66104 -5.38572 0
M  V30 2987 O 436.807 6.33544 -6.1349 0
M  V30 2988 O 436.267 6.7751 -3.72168 0
M  V30 2989 C 435.327 7.20825 -2.7076 0
M  V30 2990 C 436.057 7.45864 -1.40599 0
M  V30 2991 O 436.267 6.17651 -0.734225 0
M  V30 2992 C 437.457 8.05808 -1.51899 0
M  V30 2993 O 437.847 8.74358 -0.335205 0
M  V30 2994 C 438.337 6.83093 -1.70294 0
M  V30 2995 C 437.627 5.79992 -0.836974 0
M  V30 2996 N 437.677 4.41864 -1.38293 0
M  V30 2997 H 434.838 8.13644 -3.0377 0
M  V30 2998 H 434.568 6.42788 -2.55485 0
M  V30 2999 H 435.435 8.12039 -0.792769 0
M  V30 3000 P 439.397 8.91 2.44069e-12 0
M  V30 3001 O 439.617 10.1726 0.733694 0
M  V30 3002 O 440.187 8.73148 -1.23936 0
M  V30 3003 O 439.647 7.66872 0.971405 0
M  V30 3004 C 438.707 7.42309 2.04641 0
M  V30 3005 C 439.437 6.86059 3.24661 0
M  V30 3006 O 439.647 5.42847 3.03646 0
M  V30 3007 C 440.837 7.41196 3.50753 0
M  V30 3008 O 441.227 7.27073 4.86816 0
M  V30 3009 C 441.717 6.5273 2.63741 0
M  V30 3010 C 441.007 5.1842 2.73198 0
M  V30 3011 N 441.057 4.38762 1.4784 0
M  V30 3012 H 438.218 8.36803 2.32493 0
M  V30 3013 H 437.948 6.70197 1.71129 0
M  V30 3014 H 438.815 7.03551 4.13168 0
M  V30 3015 P 442.777 7.20834 5.23717 0
M  V30 3016 O 442.997 7.79853 6.57286 0
M  V30 3017 O 443.567 7.79239 4.12957 0
M  V30 3018 O 443.027 5.63315 5.29344 0
M  V30 3019 C 442.087 4.80255 6.01876 0
M  V30 3020 C 442.817 3.64202 6.65911 0
M  V30 3021 O 443.027 2.60694 5.64732 0
M  V30 3022 C 444.217 3.93473 7.1943 0
M  V30 3023 O 444.607 3.02071 8.21205 0
M  V30 3024 C 445.097 3.73047 5.97036 0
M  V30 3025 C 444.387 2.58828 5.25741 0
M  V30 3026 N 444.437 2.68068 3.77503 0
M  V30 3027 H 441.598 5.40332 6.79951 0
M  V30 3028 H 441.328 4.41613 5.32378 0
M  V30 3029 H 442.195 3.26331 7.47797 0
M  V30 3030 P 446.157 2.75334 8.47391 0
M  V30 3031 O 446.377 2.44571 9.90142 0
M  V30 3032 O 446.947 3.87688 7.92115 0
M  V30 3033 O 446.407 1.4459 7.59357 0
M  V30 3034 C 445.467 0.347608 7.69215 0
M  V30 3035 C 446.197 -0.96767 7.52806 0
M  V30 3036 O 446.407 -1.21036 6.1011 0
M  V30 3037 C 447.597 -1.04544 8.13308 0
M  V30 3038 O 447.987 -2.38311 8.41922 0
M  V30 3039 C 448.477 -0.491279 7.02284 0
M  V30 3040 C 447.767 -0.996264 5.77469 0
M  V30 3041 N 447.817 -0.0501916 4.62973 0
M  V30 3042 H 444.978 0.374722 8.67691 0
M  V30 3043 H 444.708 0.443485 6.90277 0
M  V30 3044 H 445.575 -1.75537 7.96793 0
M  V30 3045 P 449.537 -2.75334 8.47391 0
M  V30 3046 O 449.757 -3.84166 9.4489 0
M  V30 3047 O 450.327 -1.51964 8.6881 0
M  V30 3048 O 449.787 -3.29363 6.99321 0
M  V30 3049 C 448.847 -4.23956 6.42656 0
M  V30 3050 C 449.577 -5.20775 5.52155 0
M  V30 3051 O 449.787 -4.56534 4.22446 0
M  V30 3052 C 450.977 -5.62629 5.96531 0
M  V30 3053 O 451.367 -6.87667 5.41053 0
M  V30 3054 C 451.857 -4.52537 5.39283 0
M  V30 3055 C 451.147 -4.20027 4.08623 0
M  V30 3056 N 451.197 -2.7613 3.71522 0
M  V30 3057 C 451.347 -2.45612 2.37989 0
M  V30 3058 O 451.437 -3.30919 1.51621 0
M  V30 3059 N 451.387 -1.10684 2.08435 0
M  V30 3060 C 451.297 -0.0690084 2.9792 0
M  V30 3061 O 451.347 1.10553 2.59426 0
M  V30 3062 C 451.147 -0.481522 4.35345 0
M  V30 3063 C 451.037 0.618778 5.36443 0
M  V30 3064 C 451.097 -1.78906 4.67968 0
M  V30 3065 H 448.357 -4.797 7.24003 0
M  V30 3066 H 448.088 -3.69802 5.84429 0
M  V30 3067 H 448.955 -6.10356 5.41441 0
M  V30 3068 H 451.61 -4.78651 3.27911 0
M  V30 3069 H 451.889 -3.64957 6.05871 0
M  V30 3070 H 452.881 -4.8868 5.2125 0
M  V30 3071 H 451.047 -5.66726 7.06352 0
M  V30 3072 H 450.976 -2.07737 5.72367 0
M  V30 3073 H 452.006 0.754375 5.86871 0
M  V30 3074 H 450.269 0.359721 6.10641 0
M  V30 3075 H 450.757 1.55533 4.8581 0
M  V30 3076 H 451.493 -0.862651 1.12037 0
M  V30 3077 P 452.917 -7.20834 5.23717 0
M  V30 3078 O 453.137 -8.66104 5.38572 0
M  V30 3079 O 453.707 -6.33544 6.1349 0
M  V30 3080 O 453.167 -6.7751 3.72168 0
M  V30 3081 C 452.227 -7.20825 2.7076 0
M  V30 3082 C 452.957 -7.45864 1.40599 0
M  V30 3083 O 453.167 -6.17651 0.734225 0
M  V30 3084 C 454.357 -8.05808 1.51899 0
M  V30 3085 O 454.747 -8.74358 0.335205 0
M  V30 3086 C 455.237 -6.83093 1.70294 0
M  V30 3087 C 454.527 -5.79992 0.836974 0
M  V30 3088 N 454.577 -4.41864 1.38293 0
M  V30 3089 C 454.497 -3.99538 2.69438 0
M  V30 3090 N 454.577 -2.69909 2.84277 0
M  V30 3091 C 454.717 -2.21719 1.5408 0
M  V30 3092 C 454.847 -0.891712 1.06628 0
M  V30 3093 O 454.867 0.161298 1.70137 0
M  V30 3094 N 454.967 -0.856846 -0.334985 0
M  V30 3095 C 454.967 -1.9641 -1.15789 0
M  V30 3096 N 455.097 -1.72708 -2.46522 0
M  V30 3097 N 454.837 -3.21165 -0.713741 0
M  V30 3098 C 454.717 -3.26797 0.639748 0
M  V30 3099 H 451.738 -8.13644 3.0377 0
M  V30 3100 H 451.468 -6.42788 2.55485 0
M  V30 3101 H 452.335 -8.12039 0.792769 0
M  V30 3102 H 454.99 -5.80061 -0.166416 0
M  V30 3103 H 455.269 -6.51287 2.75604 0
M  V30 3104 H 456.261 -7.01734 1.34462 0
M  V30 3105 H 454.427 -8.73674 2.38337 0
M  V30 3106 H 454.378 -4.68207 3.53221 0
M  V30 3107 H 455.06 0.0398818 -0.767965 0
M  V30 3108 H 455.097 -2.50995 -3.13503 0
M  V30 3109 H 455.198 -0.759148 -2.80716 0
M  V30 3110 P 456.297 -8.91 -2.59788e-12 0
M  V30 3111 O 456.517 -10.1726 -0.733694 0
M  V30 3112 O 457.087 -8.73148 1.23936 0
M  V30 3113 O 456.547 -7.66872 -0.971405 0
M  V30 3114 C 455.607 -7.42309 -2.04641 0
M  V30 3115 C 456.337 -6.86059 -3.24661 0
M  V30 3116 O 456.547 -5.42847 -3.03646 0
M  V30 3117 C 457.737 -7.41196 -3.50753 0
M  V30 3118 O 458.127 -7.27073 -4.86816 0
M  V30 3119 C 458.617 -6.5273 -2.63741 0
M  V30 3120 C 457.907 -5.1842 -2.73198 0
M  V30 3121 N 457.957 -4.38762 -1.4784 0
M  V30 3122 C 457.877 -4.81605 -0.168631 0
M  V30 3123 N 457.957 -3.85454 0.713363 0
M  V30 3124 C 458.097 -2.6994 -0.0566958 0
M  V30 3125 C 458.227 -1.34815 0.338502 0
M  V30 3126 N 458.347 -0.496304 -0.77465 0
M  V30 3127 C 458.347 -0.908403 -2.09122 0
M  V30 3128 N 458.477 0.0517805 -3.00955 0
M  V30 3129 N 458.217 -2.17875 -2.46519 0
M  V30 3130 C 458.097 -3.01988 -1.4033 0
M  V30 3131 H 455.118 -8.36803 -2.32493 0
M  V30 3132 H 454.848 -6.70197 -1.71129 0
M  V30 3133 H 455.715 -7.03551 -4.13168 0
M  V30 3134 P 459.677 -7.20834 -5.23717 0
M  V30 3135 O 459.897 -7.79853 -6.57286 0
M  V30 3136 O 460.467 -7.79239 -4.12957 0
M  V30 3137 O 459.927 -5.63315 -5.29344 0
M  V30 3138 C 458.987 -4.80255 -6.01876 0
M  V30 3139 C 459.717 -3.64202 -6.65911 0
M  V30 3140 O 459.927 -2.60694 -5.64732 0
M  V30 3141 C 461.117 -3.93473 -7.1943 0
M  V30 3142 O 461.507 -3.02071 -8.21205 0
M  V30 3143 C 461.997 -3.73047 -5.97036 0
M  V30 3144 C 461.287 -2.58828 -5.25741 0
M  V30 3145 N 461.337 -2.68068 -3.77503 0
M  V30 3146 H 458.498 -5.40332 -6.79951 0
M  V30 3147 H 458.228 -4.41613 -5.32378 0
M  V30 3148 H 459.095 -3.26331 -7.47797 0
M  V30 3149 P 463.057 -2.75334 -8.47391 0
M  V30 3150 O 463.277 -2.44571 -9.90142 0
M  V30 3151 O 463.847 -3.87688 -7.92115 0
M  V30 3152 O 463.307 -1.4459 -7.59357 0
M  V30 3153 C 462.367 -0.347608 -7.69215 0
M  V30 3154 C 463.097 0.96767 -7.52806 0
M  V30 3155 O 463.307 1.21036 -6.1011 0
M  V30 3156 C 464.497 1.04544 -8.13308 0
M  V30 3157 O 464.887 2.38311 -8.41922 0
M  V30 3158 C 465.377 0.491279 -7.02284 0
M  V30 3159 C 464.667 0.996264 -5.77469 0
M  V30 3160 N 464.717 0.0501916 -4.62973 0
M  V30 3161 C 464.637 -1.32786 -4.63244 0
M  V30 3162 N 464.717 -1.86957 -3.44545 0
M  V30 3163 C 464.857 -0.780241 -2.58481 0
M  V30 3164 C 464.987 -0.738536 -1.17757 0
M  V30 3165 N 465.107 0.58337 -0.711393 0
M  V30 3166 C 465.107 1.70816 -1.51017 0
M  V30 3167 N 465.237 2.87826 -0.880757 0
M  V30 3168 N 464.977 1.67126 -2.8339 0
M  V30 3169 C 464.857 0.401421 -3.30572 0
M  V30 3170 H 461.878 -0.374722 -8.67691 0
M  V30 3171 H 461.608 -0.443485 -6.90277 0
M  V30 3172 H 462.475 1.75537 -7.96793 0
M  V30 3173 P 466.437 2.75334 -8.47391 0
M  V30 3174 O 466.657 3.84128 -9.44797 0
M  V30 3175 O 467.227 1.51947 -8.68712 0
M  V30 3176 O 466.687 3.29363 -6.99321 0
M  V30 3177 C 465.747 4.24011 -6.4274 0
M  V30 3178 C 466.477 5.20775 -5.52155 0
M  V30 3179 O 466.687 4.56534 -4.22446 0
M  V30 3180 C 467.877 5.62629 -5.96531 0
M  V30 3181 O 468.267 6.87667 -5.41053 0
M  V30 3182 C 468.757 4.52537 -5.39283 0
M  V30 3183 C 468.047 4.20027 -4.08623 0
M  V30 3184 N 468.097 2.76189 -3.71603 0
M  V30 3185 C 468.017 1.64862 -4.52822 0
M  V30 3186 N 468.097 0.512671 -3.88633 0
M  V30 3187 C 468.237 0.888083 -2.54977 0
M  V30 3188 C 468.367 0.094668 -1.38677 0
M  V30 3189 O 468.387 -1.13053 -1.28163 0
M  V30 3190 N 468.487 0.890102 -0.232633 0
M  V30 3191 C 468.487 2.26958 -0.21772 0
M  V30 3192 N 468.617 2.84626 0.97925 0
M  V30 3193 N 468.357 3.0178 -1.31033 0
M  V30 3194 C 468.237 2.26781 -2.43843 0
M  V30 3195 H 465.258 4.797 -7.24003 0
M  V30 3196 H 464.988 3.69856 -5.84513 0
M  V30 3197 H 465.855 6.10356 -5.41441 0
M  V30 3198 H 468.51 4.79061 -3.27488 0
M  V30 3199 H 468.789 3.64906 -6.05785 0
M  V30 3200 H 469.781 4.8868 -5.2125 0
M  V30 3201 H 467.947 5.66726 -7.06352 0
M  V30 3202 H 467.898 1.71169 -5.60966 0
M  V30 3203 H 468.58 0.419134 0.644739 0
M  V30 3204 H 468.617 3.87332 1.06098 0
M  V30 3205 H 468.718 2.26417 1.82483 0
M  V30 3206 P 469.817 7.20834 -5.23717 0
M  V30 3207 O 470.037 8.66104 -5.38572 0
M  V30 3208 O 470.607 6.33544 -6.1349 0
M  V30 3209 O 470.067 6.7751 -3.72168 0
M  V30 3210 C 469.127 7.20825 -2.7076 0
M  V30 3211 C 469.857 7.45864 -1.40599 0
M  V30 3212 O 470.067 6.17651 -0.734225 0
M  V30 3213 C 471.257 8.05808 -1.51899 0
M  V30 3214 O 471.647 8.74358 -0.335205 0
M  V30 3215 C 472.137 6.83093 -1.70294 0
M  V30 3216 C 471.427 5.79992 -0.836974 0
M  V30 3217 N 471.477 4.41864 -1.38293 0
M  V30 3218 H 468.638 8.13644 -3.0377 0
M  V30 3219 H 468.368 6.42788 -2.55485 0
M  V30 3220 H 469.235 8.12039 -0.792769 0
M  V30 3221 P 473.197 8.91 2.75506e-12 0
M  V30 3222 O 473.417 10.1726 0.733694 0
M  V30 3223 O 473.987 8.73148 -1.23936 0
M  V30 3224 O 473.447 7.66872 0.971405 0
M  V30 3225 C 472.507 7.42309 2.04641 0
M  V30 3226 C 473.237 6.86059 3.24661 0
M  V30 3227 O 473.447 5.42847 3.03646 0
M  V30 3228 C 474.637 7.41196 3.50753 0
M  V30 3229 O 475.027 7.27073 4.86816 0
M  V30 3230 C 475.517 6.5273 2.63741 0
M  V30 3231 C 474.807 5.1842 2.73198 0
M  V30 3232 N 474.857 4.38762 1.4784 0
M  V30 3233 C 474.777 4.81605 0.168631 0
M  V30 3234 N 474.857 3.85454 -0.713363 0
M  V30 3235 C 474.997 2.6994 0.0566958 0
M  V30 3236 C 475.127 1.34815 -0.338502 0
M  V30 3237 O 475.147 0.869548 -1.47125 0
M  V30 3238 N 475.247 0.496304 0.77465 0
M  V30 3239 C 475.247 0.908403 2.09122 0
M  V30 3240 N 475.377 -0.0517805 3.00955 0
M  V30 3241 N 475.117 2.17875 2.46519 0
M  V30 3242 C 474.997 3.01988 1.4033 0
M  V30 3243 H 472.018 8.36803 2.32493 0
M  V30 3244 H 471.748 6.70197 1.71129 0
M  V30 3245 H 472.615 7.03551 4.13168 0
M  V30 3246 H 475.27 4.59498 3.54415 0
M  V30 3247 H 475.549 6.88898 1.59848 0
M  V30 3248 H 476.541 6.46749 3.03687 0
M  V30 3249 H 474.707 8.46908 3.20714 0
M  V30 3250 H 474.658 5.86405 -0.105564 0
M  V30 3251 H 475.34 -0.483664 0.597855 0
M  V30 3252 H 475.377 0.187865 4.0116 0
M  V30 3253 H 475.478 -1.03585 2.71726 0
M  V30 3254 P 476.577 7.20834 5.23717 0
M  V30 3255 O 476.797 7.79853 6.57286 0
M  V30 3256 O 477.367 7.79239 4.12957 0
M  V30 3257 O 476.827 5.63315 5.29344 0
M  V30 3258 C 475.887 4.80255 6.01876 0
M  V30 3259 C 476.617 3.64202 6.65911 0
M  V30 3260 O 476.827 2.60694 5.64732 0
M  V30 3261 C 478.017 3.93473 7.1943 0
M  V30 3262 O 478.407 3.02071 8.21205 0
M  V30 3263 C 478.897 3.73047 5.97036 0
M  V30 3264 C 478.187 2.58828 5.25741 0
M  V30 3265 N 478.237 2.68068 3.77503 0
M  V30 3266 H 475.398 5.40332 6.79951 0
M  V30 3267 H 475.128 4.41613 5.32378 0
M  V30 3268 H 475.995 3.26331 7.47797 0
M  V30 3269 P 479.957 2.75334 8.47391 0
M  V30 3270 O 480.177 2.44571 9.90142 0
M  V30 3271 O 480.747 3.87688 7.92115 0
M  V30 3272 O 480.207 1.4459 7.59357 0
M  V30 3273 C 479.267 0.347608 7.69215 0
M  V30 3274 C 479.997 -0.96767 7.52806 0
M  V30 3275 O 480.207 -1.21036 6.1011 0
M  V30 3276 C 481.397 -1.04544 8.13308 0
M  V30 3277 O 481.787 -2.38311 8.41922 0
M  V30 3278 C 482.277 -0.491279 7.02284 0
M  V30 3279 C 481.567 -0.996264 5.77469 0
M  V30 3280 N 481.617 -0.0501916 4.62973 0
M  V30 3281 H 478.778 0.374722 8.67691 0
M  V30 3282 H 478.508 0.443485 6.90277 0
M  V30 3283 H 479.375 -1.75537 7.96793 0
M  V30 3284 P 483.337 -2.75334 8.47391 0
M  V30 3285 O 483.557 -3.84128 9.44797 0
M  V30 3286 O 484.127 -1.51947 8.68712 0
M  V30 3287 O 483.587 -3.29363 6.99321 0
M  V30 3288 C 482.647 -4.24011 6.4274 0
M  V30 3289 C 483.377 -5.20775 5.52155 0
M  V30 3290 O 483.587 -4.56534 4.22446 0
M  V30 3291 C 484.777 -5.62629 5.96531 0
M  V30 3292 O 485.167 -6.87667 5.41053 0
M  V30 3293 C 485.657 -4.52537 5.39283 0
M  V30 3294 C 484.947 -4.20027 4.08623 0
M  V30 3295 N 484.997 -2.76189 3.71603 0
M  V30 3296 H 482.158 -4.797 7.24003 0
M  V30 3297 H 481.888 -3.69856 5.84513 0
M  V30 3298 H 482.755 -6.10356 5.41441 0
M  V30 3299 P 486.717 -7.20834 5.23717 0
M  V30 3300 O 486.937 -8.66104 5.38572 0
M  V30 3301 O 487.507 -6.33544 6.1349 0
M  V30 3302 O 486.967 -6.7751 3.72168 0
M  V30 3303 C 486.027 -7.20825 2.7076 0
M  V30 3304 C 486.757 -7.45864 1.40599 0
M  V30 3305 O 486.967 -6.17651 0.734225 0
M  V30 3306 C 488.157 -8.05808 1.51899 0
M  V30 3307 O 488.547 -8.74358 0.335205 0
M  V30 3308 C 489.037 -6.83093 1.70294 0
M  V30 3309 C 488.327 -5.79992 0.836974 0
M  V30 3310 N 488.377 -4.41864 1.38293 0
M  V30 3311 H 485.538 -8.13644 3.0377 0
M  V30 3312 H 485.268 -6.42788 2.55485 0
M  V30 3313 H 486.135 -8.12039 0.792769 0
M  V30 3314 P 490.097 -8.91 -2.91224e-12 0
M  V30 3315 O 490.317 -10.1726 -0.733694 0
M  V30 3316 O 490.887 -8.73148 1.23936 0
M  V30 3317 O 490.347 -7.66872 -0.971405 0
M  V30 3318 C 489.407 -7.42309 -2.04641 0
M  V30 3319 C 490.137 -6.86059 -3.24661 0
M  V30 3320 O 490.347 -5.42847 -3.03646 0
M  V30 3321 C 491.537 -7.41196 -3.50753 0
M  V30 3322 O 491.927 -7.27073 -4.86816 0
M  V30 3323 C 492.417 -6.5273 -2.63741 0
M  V30 3324 C 491.707 -5.1842 -2.73198 0
M  V30 3325 N 491.757 -4.38762 -1.4784 0
M  V30 3326 H 488.918 -8.36803 -2.32493 0
M  V30 3327 H 488.648 -6.70197 -1.71129 0
M  V30 3328 H 489.515 -7.03551 -4.13168 0
M  V30 3329 P 493.477 -7.20834 -5.23717 0
M  V30 3330 O 493.697 -7.79853 -6.57286 0
M  V30 3331 O 494.267 -7.79239 -4.12957 0
M  V30 3332 O 493.727 -5.63315 -5.29344 0
M  V30 3333 C 492.787 -4.80255 -6.01876 0
M  V30 3334 C 493.517 -3.64202 -6.65911 0
M  V30 3335 O 493.727 -2.60694 -5.64732 0
M  V30 3336 C 494.917 -3.93473 -7.1943 0
M  V30 3337 O 495.307 -3.02071 -8.21205 0
M  V30 3338 C 495.797 -3.73047 -5.97036 0
M  V30 3339 C 495.087 -2.58828 -5.25741 0
M  V30 3340 N 495.137 -2.68068 -3.77503 0
M  V30 3341 H 492.298 -5.40332 -6.79951 0
M  V30 3342 H 492.028 -4.41613 -5.32378 0
M  V30 3343 H 492.895 -3.26331 -7.47797 0
M  V30 3344 P 496.857 -2.75334 -8.47391 0
M  V30 3345 O 497.077 -2.44571 -9.90142 0
M  V30 3346 O 497.647 -3.87688 -7.92115 0
M  V30 3347 O 497.107 -1.4459 -7.59357 0
M  V30 3348 C 496.167 -0.347608 -7.69215 0
M  V30 3349 C 496.897 0.96767 -7.52806 0
M  V30 3350 O 497.107 1.21036 -6.1011 0
M  V30 3351 C 498.297 1.04544 -8.13308 0
M  V30 3352 O 498.687 2.38311 -8.41922 0
M  V30 3353 C 499.177 0.491279 -7.02284 0
M  V30 3354 C 498.467 0.996264 -5.77469 0
M  V30 3355 N 498.517 0.0501916 -4.62973 0
M  V30 3356 H 495.678 -0.374722 -8.67691 0
M  V30 3357 H 495.408 -0.443485 -6.90277 0
M  V30 3358 H 496.275 1.75537 -7.96793 0
M  V30 3359 P 500.237 2.75334 -8.47391 0
M  V30 3360 O 500.457 3.84128 -9.44797 0
M  V30 3361 O 501.027 1.51947 -8.68712 0
M  V30 3362 O 500.487 3.29363 -6.99321 0
M  V30 3363 C 499.547 4.24011 -6.4274 0
M  V30 3364 C 500.277 5.20775 -5.52155 0
M  V30 3365 O 500.487 4.56534 -4.22446 0
M  V30 3366 C 501.677 5.62629 -5.96531 0
M  V30 3367 O 502.067 6.87667 -5.41053 0
M  V30 3368 C 502.557 4.52537 -5.39283 0
M  V30 3369 C 501.847 4.20027 -4.08623 0
M  V30 3370 N 501.897 2.76189 -3.71603 0
M  V30 3371 H 499.058 4.797 -7.24003 0
M  V30 3372 H 498.788 3.69856 -5.84513 0
M  V30 3373 H 499.655 6.10356 -5.41441 0
M  V30 3374 P 503.617 7.20834 -5.23717 0
M  V30 3375 O 503.837 8.66104 -5.38572 0
M  V30 3376 O 504.407 6.33544 -6.1349 0
M  V30 3377 O 503.867 6.7751 -3.72168 0
M  V30 3378 C 502.927 7.20825 -2.7076 0
M  V30 3379 C 503.657 7.45864 -1.40599 0
M  V30 3380 O 503.867 6.17651 -0.734225 0
M  V30 3381 C 505.057 8.05808 -1.51899 0
M  V30 3382 O 505.447 8.74358 -0.335205 0
M  V30 3383 C 505.937 6.83093 -1.70294 0
M  V30 3384 C 505.227 5.79992 -0.836974 0
M  V30 3385 N 505.277 4.41864 -1.38293 0
M  V30 3386 H 502.438 8.13644 -3.0377 0
M  V30 3387 H 502.168 6.42788 -2.55485 0
M  V30 3388 H 503.035 8.12039 -0.792769 0
M  V30 3389 P 506.997 8.91 3.06942e-12 0
M  V30 3390 O 507.217 10.1726 0.733694 0
M  V30 3391 O 507.787 8.73148 -1.23936 0
M  V30 3392 O 507.247 7.66872 0.971405 0
M  V30 3393 C 506.307 7.42309 2.04641 0
M  V30 3394 C 507.037 6.86059 3.24661 0
M  V30 3395 O 507.247 5.42847 3.03646 0
M  V30 3396 C 508.437 7.41196 3.50753 0
M  V30 3397 O 508.827 7.27073 4.86816 0
M  V30 3398 C 509.317 6.5273 2.63741 0
M  V30 3399 C 508.607 5.1842 2.73198 0
M  V30 3400 N 508.657 4.38762 1.4784 0
M  V30 3401 H 505.818 8.36803 2.32493 0
M  V30 3402 H 505.548 6.70197 1.71129 0
M  V30 3403 H 506.415 7.03551 4.13168 0
M  V30 3404 P 510.377 7.20834 5.23717 0
M  V30 3405 O 510.597 7.79853 6.57286 0
M  V30 3406 O 511.167 7.79239 4.12957 0
M  V30 3407 O 510.627 5.63315 5.29344 0
M  V30 3408 C 509.687 4.80255 6.01876 0
M  V30 3409 C 510.417 3.64202 6.65911 0
M  V30 3410 O 510.627 2.60694 5.64732 0
M  V30 3411 C 511.817 3.93473 7.1943 0
M  V30 3412 O 512.207 3.02071 8.21205 0
M  V30 3413 C 512.697 3.73047 5.97036 0
M  V30 3414 C 511.987 2.58828 5.25741 0
M  V30 3415 N 512.037 2.68068 3.77503 0
M  V30 3416 H 509.198 5.40332 6.79951 0
M  V30 3417 H 508.928 4.41613 5.32378 0
M  V30 3418 H 509.795 3.26331 7.47797 0
M  V30 3419 P 513.757 2.75334 8.47391 0
M  V30 3420 O 513.977 2.44571 9.90142 0
M  V30 3421 O 514.547 3.87688 7.92115 0
M  V30 3422 O 514.007 1.4459 7.59357 0
M  V30 3423 C 513.067 0.347608 7.69215 0
M  V30 3424 C 513.797 -0.96767 7.52806 0
M  V30 3425 O 514.007 -1.21036 6.1011 0
M  V30 3426 C 515.197 -1.04544 8.13308 0
M  V30 3427 O 515.587 -2.38311 8.41922 0
M  V30 3428 C 516.077 -0.491279 7.02284 0
M  V30 3429 C 515.367 -0.996264 5.77469 0
M  V30 3430 N 515.417 -0.0501916 4.62973 0
M  V30 3431 H 512.578 0.374722 8.67691 0
M  V30 3432 H 512.308 0.443485 6.90277 0
M  V30 3433 H 513.175 -1.75537 7.96793 0
M  V30 3434 P 517.137 -2.75334 8.47391 0
M  V30 3435 O 517.357 -3.84128 9.44797 0
M  V30 3436 O 517.927 -1.51947 8.68712 0
M  V30 3437 O 517.387 -3.29363 6.99321 0
M  V30 3438 C 516.447 -4.24011 6.4274 0
M  V30 3439 C 517.177 -5.20775 5.52155 0
M  V30 3440 O 517.387 -4.56534 4.22446 0
M  V30 3441 C 518.577 -5.62629 5.96531 0
M  V30 3442 O 518.967 -6.87667 5.41053 0
M  V30 3443 C 519.457 -4.52537 5.39283 0
M  V30 3444 C 518.747 -4.20027 4.08623 0
M  V30 3445 N 518.797 -2.76189 3.71603 0
M  V30 3446 H 515.958 -4.797 7.24003 0
M  V30 3447 H 515.688 -3.69856 5.84513 0
M  V30 3448 H 516.555 -6.10356 5.41441 0
M  V30 3449 P 520.517 -7.20834 5.23717 0
M  V30 3450 O 520.737 -8.66274 5.38678 0
M  V30 3451 O 521.307 -6.33687 6.13629 0
M  V30 3452 O 520.767 -6.7751 3.72168 0
M  V30 3453 C 519.827 -7.20919 2.70795 0
M  V30 3454 C 520.557 -7.45864 1.40599 0
M  V30 3455 O 520.767 -6.17751 0.734343 0
M  V30 3456 C 521.957 -8.05906 1.51917 0
M  V30 3457 O 522.347 -8.74358 0.335205 0
M  V30 3458 C 522.837 -6.83093 1.70294 0
M  V30 3459 C 522.127 -5.79992 0.836974 0
M  V30 3460 N 522.177 -4.41864 1.38293 0
M  V30 3461 H 519.339 -8.13738 3.03804 0
M  V30 3462 H 519.067 -6.42974 2.55559 0
M  V30 3463 H 519.935 -8.12139 0.792866 0
M  V30 3464 H 522.59 -5.80178 -0.160643 0
M  V30 3465 H 522.87 -6.51379 2.75643 0
M  V30 3466 H 523.861 -7.01832 1.3448 0
M  V30 3467 H 522.027 -8.73771 2.38364 0
M  V30 3468 P 523.897 -8.91 -3.22661e-12 0
M  V30 3469 O 524.117 -10.1726 -0.733694 0
M  V30 3470 O 524.687 -8.73148 1.23936 0
M  V30 3471 O 524.147 -7.66872 -0.971405 0
M  V30 3472 C 523.207 -7.42309 -2.04641 0
M  V30 3473 C 523.937 -6.86059 -3.24661 0
M  V30 3474 O 524.147 -5.42847 -3.03646 0
M  V30 3475 C 525.337 -7.41196 -3.50753 0
M  V30 3476 O 525.727 -7.27073 -4.86816 0
M  V30 3477 C 526.217 -6.5273 -2.63741 0
M  V30 3478 C 525.507 -5.1842 -2.73198 0
M  V30 3479 N 525.557 -4.38762 -1.4784 0
M  V30 3480 H 522.718 -8.36803 -2.32493 0
M  V30 3481 H 522.448 -6.70197 -1.71129 0
M  V30 3482 H 523.315 -7.03551 -4.13168 0
M  V30 3483 P 527.277 -7.20834 -5.23717 0
M  V30 3484 O 527.497 -7.79853 -6.57286 0
M  V30 3485 O 528.067 -7.79239 -4.12957 0
M  V30 3486 O 527.527 -5.63315 -5.29344 0
M  V30 3487 C 526.587 -4.80255 -6.01876 0
M  V30 3488 C 527.317 -3.64202 -6.65911 0
M  V30 3489 O 527.527 -2.60694 -5.64732 0
M  V30 3490 C 528.717 -3.93473 -7.1943 0
M  V30 3491 O 529.107 -3.02071 -8.21205 0
M  V30 3492 C 529.597 -3.73047 -5.97036 0
M  V30 3493 C 528.887 -2.58828 -5.25741 0
M  V30 3494 N 528.937 -2.68068 -3.77503 0
M  V30 3495 H 526.098 -5.40332 -6.79951 0
M  V30 3496 H 525.828 -4.41613 -5.32378 0
M  V30 3497 H 526.695 -3.26331 -7.47797 0
M  V30 3498 P 530.657 -2.75334 -8.47391 0
M  V30 3499 O 530.877 -2.44571 -9.90142 0
M  V30 3500 O 531.447 -3.87688 -7.92115 0
M  V30 3501 O 530.907 -1.4459 -7.59357 0
M  V30 3502 C 529.967 -0.347608 -7.69215 0
M  V30 3503 C 530.697 0.96767 -7.52806 0
M  V30 3504 O 530.907 1.21036 -6.1011 0
M  V30 3505 C 532.097 1.04544 -8.13308 0
M  V30 3506 O 532.487 2.38311 -8.41922 0
M  V30 3507 C 532.977 0.491279 -7.02284 0
M  V30 3508 C 532.267 0.996264 -5.77469 0
M  V30 3509 N 532.317 0.0501916 -4.62973 0
M  V30 3510 H 529.478 -0.374722 -8.67691 0
M  V30 3511 H 529.208 -0.443485 -6.90277 0
M  V30 3512 H 530.075 1.75537 -7.96793 0
M  V30 3513 P 534.037 2.75334 -8.47391 0
M  V30 3514 O 534.257 3.84128 -9.44797 0
M  V30 3515 O 534.827 1.51947 -8.68712 0
M  V30 3516 O 534.287 3.29363 -6.99321 0
M  V30 3517 C 533.347 4.24011 -6.4274 0
M  V30 3518 C 534.077 5.20775 -5.52155 0
M  V30 3519 O 534.287 4.56534 -4.22446 0
M  V30 3520 C 535.477 5.62629 -5.96531 0
M  V30 3521 O 535.867 6.87667 -5.41053 0
M  V30 3522 C 536.357 4.52537 -5.39283 0
M  V30 3523 C 535.647 4.20027 -4.08623 0
M  V30 3524 N 535.697 2.76189 -3.71603 0
M  V30 3525 H 532.858 4.797 -7.24003 0
M  V30 3526 H 532.588 3.69856 -5.84513 0
M  V30 3527 H 533.455 6.10356 -5.41441 0
M  V30 3528 P 537.417 7.20834 -5.23717 0
M  V30 3529 O 537.637 8.66274 -5.38678 0
M  V30 3530 O 538.207 6.33687 -6.13629 0
M  V30 3531 O 537.667 6.7751 -3.72168 0
M  V30 3532 C 536.727 7.20919 -2.70795 0
M  V30 3533 C 537.457 7.45864 -1.40599 0
M  V30 3534 O 537.667 6.17751 -0.734343 0
M  V30 3535 C 538.857 8.05906 -1.51917 0
M  V30 3536 O 539.247 8.74358 -0.335205 0
M  V30 3537 C 539.737 6.83093 -1.70294 0
M  V30 3538 C 539.027 5.79992 -0.836974 0
M  V30 3539 N 539.077 4.41864 -1.38293 0
M  V30 3540 H 536.239 8.13738 -3.03804 0
M  V30 3541 H 535.967 6.42974 -2.55559 0
M  V30 3542 H 536.835 8.12139 -0.792866 0
M  V30 3543 H 539.49 5.80178 0.160643 0
M  V30 3544 H 539.77 6.51379 -2.75643 0
M  V30 3545 H 540.761 7.01832 -1.3448 0
M  V30 3546 H 538.927 8.73771 -2.38364 0
M  V30 3547 P 540.797 8.91 3.38379e-12 0
M  V30 3548 O 541.017 10.1726 0.733694 0
M  V30 3549 O 541.587 8.73148 -1.23936 0
M  V30 3550 O 541.047 7.66872 0.971405 0
M  V30 3551 C 540.107 7.42309 2.04641 0
M  V30 3552 C 540.837 6.86059 3.24661 0
M  V30 3553 O 541.047 5.42847 3.03646 0
M  V30 3554 C 542.237 7.41196 3.50753 0
M  V30 3555 O 542.627 7.27073 4.86816 0
M  V30 3556 C 543.117 6.5273 2.63741 0
M  V30 3557 C 542.407 5.1842 2.73198 0
M  V30 3558 N 542.457 4.38762 1.4784 0
M  V30 3559 H 539.618 8.36803 2.32493 0
M  V30 3560 H 539.348 6.70197 1.71129 0
M  V30 3561 H 540.215 7.03551 4.13168 0
M  V30 3562 P 544.177 7.20834 5.23717 0
M  V30 3563 O 544.397 7.79853 6.57286 0
M  V30 3564 O 544.967 7.79239 4.12957 0
M  V30 3565 O 544.427 5.63315 5.29344 0
M  V30 3566 C 543.487 4.80255 6.01876 0
M  V30 3567 C 544.217 3.64202 6.65911 0
M  V30 3568 O 544.427 2.60694 5.64732 0
M  V30 3569 C 545.617 3.93473 7.1943 0
M  V30 3570 O 546.007 3.02071 8.21205 0
M  V30 3571 C 546.497 3.73047 5.97036 0
M  V30 3572 C 545.787 2.58828 5.25741 0
M  V30 3573 N 545.837 2.68068 3.77503 0
M  V30 3574 H 542.998 5.40332 6.79951 0
M  V30 3575 H 542.728 4.41613 5.32378 0
M  V30 3576 H 543.595 3.26331 7.47797 0
M  V30 3577 P 547.557 2.75334 8.47391 0
M  V30 3578 O 547.777 2.44571 9.90142 0
M  V30 3579 O 548.347 3.87688 7.92115 0
M  V30 3580 O 547.807 1.4459 7.59357 0
M  V30 3581 C 546.867 0.347608 7.69215 0
M  V30 3582 C 547.597 -0.96767 7.52806 0
M  V30 3583 O 547.807 -1.21036 6.1011 0
M  V30 3584 C 548.997 -1.04544 8.13308 0
M  V30 3585 O 549.387 -2.38311 8.41922 0
M  V30 3586 C 549.877 -0.491279 7.02284 0
M  V30 3587 C 549.167 -0.996264 5.77469 0
M  V30 3588 N 549.217 -0.0501916 4.62973 0
M  V30 3589 H 546.378 0.374722 8.67691 0
M  V30 3590 H 546.108 0.443485 6.90277 0
M  V30 3591 H 546.975 -1.75537 7.96793 0
M  V30 3592 P 550.937 -2.75334 8.47391 0
M  V30 3593 O 551.157 -3.84128 9.44797 0
M  V30 3594 O 551.727 -1.51947 8.68712 0
M  V30 3595 O 551.187 -3.29363 6.99321 0
M  V30 3596 C 550.247 -4.24011 6.4274 0
M  V30 3597 C 550.977 -5.20775 5.52155 0
M  V30 3598 O 551.187 -4.56534 4.22446 0
M  V30 3599 C 552.377 -5.62629 5.96531 0
M  V30 3600 O 552.767 -6.87667 5.41053 0
M  V30 3601 C 553.257 -4.52537 5.39283 0
M  V30 3602 C 552.547 -4.20027 4.08623 0
M  V30 3603 N 552.597 -2.76189 3.71603 0
M  V30 3604 C 552.517 -1.64862 4.52822 0
M  V30 3605 N 552.597 -0.512671 3.88633 0
M  V30 3606 C 552.737 -0.888083 2.54977 0
M  V30 3607 C 552.867 -0.094668 1.38677 0
M  V30 3608 O 552.887 1.13053 1.28163 0
M  V30 3609 N 552.987 -0.890102 0.232633 0
M  V30 3610 C 552.987 -2.26958 0.21772 0
M  V30 3611 N 553.117 -2.84626 -0.97925 0
M  V30 3612 N 552.857 -3.0178 1.31033 0
M  V30 3613 C 552.737 -2.26781 2.43843 0
M  V30 3614 H 549.758 -4.797 7.24003 0
M  V30 3615 H 549.488 -3.69856 5.84513 0
M  V30 3616 H 550.355 -6.10356 5.41441 0
M  V30 3617 H 553.01 -4.79061 3.27488 0
M  V30 3618 H 553.289 -3.64906 6.05785 0
M  V30 3619 H 554.281 -4.8868 5.2125 0
M  V30 3620 H 552.447 -5.66726 7.06352 0
M  V30 3621 H 552.398 -1.71169 5.60966 0
M  V30 3622 H 553.08 -0.419134 -0.644739 0
M  V30 3623 H 553.117 -3.87332 -1.06098 0
M  V30 3624 H 553.218 -2.26417 -1.82483 0
M  V30 3625 P 554.317 -7.20834 5.23717 0
M  V30 3626 O 554.537 -8.66104 5.38572 0
M  V30 3627 O 555.107 -6.33544 6.1349 0
M  V30 3628 O 554.567 -6.7751 3.72168 0
M  V30 3629 C 553.627 -7.20825 2.7076 0
M  V30 3630 C 554.357 -7.45864 1.40599 0
M  V30 3631 O 554.567 -6.17651 0.734225 0
M  V30 3632 C 555.757 -8.05808 1.51899 0
M  V30 3633 O 556.147 -8.74358 0.335205 0
M  V30 3634 C 556.637 -6.83093 1.70294 0
M  V30 3635 C 555.927 -5.79992 0.836974 0
M  V30 3636 N 555.977 -4.41864 1.38293 0
M  V30 3637 H 553.138 -8.13644 3.0377 0
M  V30 3638 H 552.868 -6.42788 2.55485 0
M  V30 3639 H 553.735 -8.12039 0.792769 0
M  V30 3640 P 557.697 -8.91 -3.54097e-12 0
M  V30 3641 O 557.917 -10.1726 -0.733694 0
M  V30 3642 O 558.487 -8.73148 1.23936 0
M  V30 3643 O 557.947 -7.66872 -0.971405 0
M  V30 3644 C 557.007 -7.42309 -2.04641 0
M  V30 3645 C 557.737 -6.86059 -3.24661 0
M  V30 3646 O 557.947 -5.42847 -3.03646 0
M  V30 3647 C 559.137 -7.41196 -3.50753 0
M  V30 3648 O 559.527 -7.27073 -4.86816 0
M  V30 3649 C 560.017 -6.5273 -2.63741 0
M  V30 3650 C 559.307 -5.1842 -2.73198 0
M  V30 3651 N 559.357 -4.38762 -1.4784 0
M  V30 3652 H 556.518 -8.36803 -2.32493 0
M  V30 3653 H 556.248 -6.70197 -1.71129 0
M  V30 3654 H 557.115 -7.03551 -4.13168 0
M  V30 3655 P 561.077 -7.20834 -5.23717 0
M  V30 3656 O 561.297 -7.79853 -6.57286 0
M  V30 3657 O 561.867 -7.79239 -4.12957 0
M  V30 3658 O 561.327 -5.63315 -5.29344 0
M  V30 3659 C 560.387 -4.80255 -6.01876 0
M  V30 3660 C 561.117 -3.64202 -6.65911 0
M  V30 3661 O 561.327 -2.60694 -5.64732 0
M  V30 3662 C 562.517 -3.93473 -7.1943 0
M  V30 3663 O 562.907 -3.02071 -8.21205 0
M  V30 3664 C 563.397 -3.73047 -5.97036 0
M  V30 3665 C 562.687 -2.58828 -5.25741 0
M  V30 3666 N 562.737 -2.68068 -3.77503 0
M  V30 3667 H 559.898 -5.40332 -6.79951 0
M  V30 3668 H 559.628 -4.41613 -5.32378 0
M  V30 3669 H 560.495 -3.26331 -7.47797 0
M  V30 3670 P 564.457 -2.75334 -8.47391 0
M  V30 3671 O 564.677 -2.44571 -9.90142 0
M  V30 3672 O 565.247 -3.87688 -7.92115 0
M  V30 3673 O 564.707 -1.4459 -7.59357 0
M  V30 3674 C 563.767 -0.347608 -7.69215 0
M  V30 3675 C 564.497 0.96767 -7.52806 0
M  V30 3676 O 564.707 1.21036 -6.1011 0
M  V30 3677 C 565.897 1.04544 -8.13308 0
M  V30 3678 O 566.287 2.38311 -8.41922 0
M  V30 3679 C 566.777 0.491279 -7.02284 0
M  V30 3680 C 566.067 0.996264 -5.77469 0
M  V30 3681 N 566.117 0.0501916 -4.62973 0
M  V30 3682 H 563.278 -0.374722 -8.67691 0
M  V30 3683 H 563.008 -0.443485 -6.90277 0
M  V30 3684 H 563.875 1.75537 -7.96793 0
M  V30 3685 P 567.837 2.75334 -8.47391 0
M  V30 3686 O 568.057 3.84128 -9.44797 0
M  V30 3687 O 568.627 1.51947 -8.68712 0
M  V30 3688 O 568.087 3.29363 -6.99321 0
M  V30 3689 C 567.147 4.24011 -6.4274 0
M  V30 3690 C 567.877 5.20775 -5.52155 0
M  V30 3691 O 568.087 4.56534 -4.22446 0
M  V30 3692 C 569.277 5.62629 -5.96531 0
M  V30 3693 O 569.667 6.87667 -5.41053 0
M  V30 3694 C 570.157 4.52537 -5.39283 0
M  V30 3695 C 569.447 4.20027 -4.08623 0
M  V30 3696 N 569.497 2.76189 -3.71603 0
M  V30 3697 H 566.658 4.797 -7.24003 0
M  V30 3698 H 566.388 3.69856 -5.84513 0
M  V30 3699 H 567.255 6.10356 -5.41441 0
M  V30 3700 P 571.217 7.20834 -5.23717 0
M  V30 3701 O 571.437 8.66104 -5.38572 0
M  V30 3702 O 572.007 6.33544 -6.1349 0
M  V30 3703 O 571.467 6.7751 -3.72168 0
M  V30 3704 C 570.527 7.20825 -2.7076 0
M  V30 3705 C 571.257 7.45864 -1.40599 0
M  V30 3706 O 571.467 6.17651 -0.734225 0
M  V30 3707 C 572.657 8.05808 -1.51899 0
M  V30 3708 O 573.047 8.74358 -0.335205 0
M  V30 3709 C 573.537 6.83093 -1.70294 0
M  V30 3710 C 572.827 5.79992 -0.836974 0
M  V30 3711 N 572.877 4.41864 -1.38293 0
M  V30 3712 H 570.038 8.13644 -3.0377 0
M  V30 3713 H 569.768 6.42788 -2.55485 0
M  V30 3714 H 570.635 8.12039 -0.792769 0
M  V30 3715 P 574.597 8.91 3.69815e-12 0
M  V30 3716 O 574.817 10.1726 0.733694 0
M  V30 3717 O 575.387 8.73148 -1.23936 0
M  V30 3718 O 574.847 7.66872 0.971405 0
M  V30 3719 C 573.907 7.42309 2.04641 0
M  V30 3720 C 574.637 6.86059 3.24661 0
M  V30 3721 O 574.847 5.42847 3.03646 0
M  V30 3722 C 576.037 7.41196 3.50753 0
M  V30 3723 O 576.427 7.27073 4.86816 0
M  V30 3724 C 576.917 6.5273 2.63741 0
M  V30 3725 C 576.207 5.1842 2.73198 0
M  V30 3726 N 576.257 4.38762 1.4784 0
M  V30 3727 C 576.177 4.81605 0.168631 0
M  V30 3728 N 576.257 3.85454 -0.713363 0
M  V30 3729 C 576.397 2.6994 0.0566958 0
M  V30 3730 C 576.527 1.34815 -0.338502 0
M  V30 3731 N 576.647 0.496304 0.77465 0
M  V30 3732 C 576.647 0.908403 2.09122 0
M  V30 3733 N 576.777 -0.0517805 3.00955 0
M  V30 3734 N 576.517 2.17875 2.46519 0
M  V30 3735 C 576.397 3.01988 1.4033 0
M  V30 3736 H 573.418 8.36803 2.32493 0
M  V30 3737 H 573.148 6.70197 1.71129 0
M  V30 3738 H 574.015 7.03551 4.13168 0
M  V30 3739 P 577.977 7.20834 5.23717 0
M  V30 3740 O 578.197 7.80006 6.57415 0
M  V30 3741 O 578.767 7.79416 4.13051 0
M  V30 3742 O 578.227 5.63315 5.29344 0
M  V30 3743 C 577.287 4.80318 6.01954 0
M  V30 3744 C 578.017 3.64202 6.65911 0
M  V30 3745 O 578.227 2.60736 5.64823 0
M  V30 3746 C 579.417 3.93521 7.19518 0
M  V30 3747 O 579.807 3.02071 8.21205 0
M  V30 3748 C 580.297 3.73047 5.97036 0
M  V30 3749 C 579.587 2.58828 5.25741 0
M  V30 3750 N 579.637 2.68068 3.77503 0
M  V30 3751 C 579.557 3.80474 2.99159 0
M  V30 3752 N 579.627 3.55622 1.71925 0
M  V30 3753 C 579.777 2.1832 1.65733 0
M  V30 3754 C 579.907 1.28842 0.572777 0
M  V30 3755 N 579.917 1.66875 -0.70098 0
M  V30 3756 N 580.027 -0.016788 0.859836 0
M  V30 3757 C 580.017 -0.398145 2.13316 0
M  V30 3758 N 579.897 0.328224 3.22333 0
M  V30 3759 C 579.777 1.62992 2.90383 0
M  V30 3760 H 576.799 5.40394 6.8003 0
M  V30 3761 H 576.527 4.41741 5.32532 0
M  V30 3762 H 577.395 3.26371 7.47889 0
M  V30 3763 H 580.05 1.64007 5.56746 0
M  V30 3764 H 580.33 4.63439 5.3432 0
M  V30 3765 H 581.321 3.44776 6.25925 0
M  V30 3766 H 579.487 4.96707 7.57347 0
M  V30 3767 H 579.446 4.8089 3.39924 0
M  V30 3768 H 579.827 2.66547 -0.941919 0
M  V30 3769 H 580.016 0.965341 -1.44766 0
M  V30 3770 H 580.124 -1.46427 2.29697 0
M  V30 3771 P 581.357 2.75334 8.47391 0
M  V30 3772 O 581.577 2.44571 9.90142 0
M  V30 3773 O 582.147 3.87688 7.92115 0
M  V30 3774 O 581.607 1.4459 7.59357 0
M  V30 3775 C 580.667 0.347608 7.69215 0
M  V30 3776 C 581.397 -0.96767 7.52806 0
M  V30 3777 O 581.607 -1.21036 6.1011 0
M  V30 3778 C 582.797 -1.04544 8.13308 0
M  V30 3779 O 583.187 -2.38311 8.41922 0
M  V30 3780 C 583.677 -0.491279 7.02284 0
M  V30 3781 C 582.967 -0.996264 5.77469 0
M  V30 3782 N 583.017 -0.0501916 4.62973 0
M  V30 3783 H 580.178 0.374722 8.67691 0
M  V30 3784 H 579.908 0.443485 6.90277 0
M  V30 3785 H 580.775 -1.75537 7.96793 0
M  V30 3786 P 584.737 -2.75334 8.47391 0
M  V30 3787 O 584.957 -3.84204 9.44982 0
M  V30 3788 O 585.527 -1.51982 8.68909 0
M  V30 3789 O 584.987 -3.29363 6.99321 0
M  V30 3790 C 584.047 -4.24066 6.42823 0
M  V30 3791 C 584.777 -5.20775 5.52155 0
M  V30 3792 O 584.987 -4.56607 4.22514 0
M  V30 3793 C 586.177 -5.62697 5.96604 0
M  V30 3794 O 586.567 -6.87667 5.41053 0
M  V30 3795 C 587.057 -4.52537 5.39283 0
M  V30 3796 C 586.347 -4.20027 4.08623 0
M  V30 3797 N 586.397 -2.76189 3.71603 0
M  V30 3798 C 586.317 -1.66944 4.54297 0
M  V30 3799 N 586.387 -0.536169 3.91344 0
M  V30 3800 C 586.537 -0.901569 2.58849 0
M  V30 3801 C 586.667 -0.146599 1.40236 0
M  V30 3802 N 586.677 1.18234 1.37046 0
M  V30 3803 N 586.787 -0.822941 0.249738 0
M  V30 3804 C 586.777 -2.15179 0.280525 0
M  V30 3805 N 586.657 -2.96414 1.30822 0
M  V30 3806 C 586.537 -2.25804 2.44748 0
M  V30 3807 H 583.559 -4.79756 7.24086 0
M  V30 3808 H 583.287 -3.69963 5.84682 0
M  V30 3809 H 584.155 -6.10431 5.41508 0
M  V30 3810 H 586.81 -4.78816 3.28024 0
M  V30 3811 H 587.09 -3.64957 6.05871 0
M  V30 3812 H 588.081 -4.88748 5.21323 0
M  V30 3813 H 586.247 -5.66789 7.0643 0
M  V30 3814 H 586.206 -1.74684 5.62396 0
M  V30 3815 H 586.587 1.71949 2.24394 0
M  V30 3816 H 586.776 1.67511 0.470742 0
M  V30 3817 H 586.884 -2.63704 -0.6828 0
M  V30 3818 P 588.117 -7.20834 5.23717 0
M  V30 3819 O 588.337 -8.66274 5.38678 0
M  V30 3820 O 588.907 -6.33687 6.13629 0
M  V30 3821 O 588.367 -6.7751 3.72168 0
M  V30 3822 C 587.427 -7.20919 2.70795 0
M  V30 3823 C 588.157 -7.45864 1.40599 0
M  V30 3824 O 588.367 -6.17751 0.734343 0
M  V30 3825 C 589.557 -8.05906 1.51917 0
M  V30 3826 O 589.947 -8.74358 0.335205 0
M  V30 3827 C 590.437 -6.83093 1.70294 0
M  V30 3828 C 589.727 -5.79992 0.836974 0
M  V30 3829 N 589.777 -4.41864 1.38293 0
M  V30 3830 H 586.939 -8.13738 3.03804 0
M  V30 3831 H 586.667 -6.42974 2.55559 0
M  V30 3832 H 587.535 -8.12139 0.792866 0
M  V30 3833 H 590.19 -5.80178 -0.160643 0
M  V30 3834 H 590.47 -6.51379 2.75643 0
M  V30 3835 H 591.461 -7.01832 1.3448 0
M  V30 3836 H 589.627 -8.73771 2.38364 0
M  V30 3837 P 591.496 -8.91 -3.85533e-12 0
M  V30 3838 O 591.716 -10.1726 -0.733694 0
M  V30 3839 O 592.286 -8.73148 1.23936 0
M  V30 3840 O 591.746 -7.66872 -0.971405 0
M  V30 3841 C 590.806 -7.42309 -2.04641 0
M  V30 3842 C 591.536 -6.86059 -3.24661 0
M  V30 3843 O 591.746 -5.42847 -3.03646 0
M  V30 3844 C 592.937 -7.41196 -3.50753 0
M  V30 3845 O 593.327 -7.27073 -4.86816 0
M  V30 3846 C 593.817 -6.5273 -2.63741 0
M  V30 3847 C 593.106 -5.1842 -2.73198 0
M  V30 3848 N 593.156 -4.38762 -1.4784 0
M  V30 3849 H 590.317 -8.36803 -2.32493 0
M  V30 3850 H 590.048 -6.70197 -1.71129 0
M  V30 3851 H 590.914 -7.03551 -4.13168 0
M  V30 3852 P 594.876 -7.20834 -5.23717 0
M  V30 3853 O 595.096 -7.7993 -6.57351 0
M  V30 3854 O 595.666 -7.79328 -4.13004 0
M  V30 3855 O 595.126 -5.63315 -5.29344 0
M  V30 3856 C 594.186 -4.80193 -6.01798 0
M  V30 3857 C 594.916 -3.64202 -6.65911 0
M  V30 3858 O 595.126 -2.60694 -5.64732 0
M  V30 3859 C 596.316 -3.93473 -7.1943 0
M  V30 3860 O 596.706 -3.02071 -8.21205 0
M  V30 3861 C 597.196 -3.73047 -5.97036 0
M  V30 3862 C 596.486 -2.58828 -5.25741 0
M  V30 3863 N 596.536 -2.6801 -3.77422 0
M  V30 3864 C 596.686 -1.50443 -3.07133 0
M  V30 3865 O 596.776 -0.419406 -3.61576 0
M  V30 3866 N 596.726 -1.6403 -1.69677 0
M  V30 3867 C 596.636 -2.81206 -0.986255 0
M  V30 3868 O 596.686 -2.80892 0.249754 0
M  V30 3869 C 596.486 -3.99158 -1.80325 0
M  V30 3870 C 596.376 -5.29309 -1.06921 0
M  V30 3871 C 596.436 -3.89779 -3.1476 0
M  V30 3872 H 593.696 -5.40332 -6.79951 0
M  V30 3873 H 593.427 -4.41549 -5.32301 0
M  V30 3874 H 594.294 -3.26331 -7.47797 0
M  V30 3875 H 596.949 -1.6395 -5.56554 0
M  V30 3876 H 597.228 -4.63439 -5.3432 0
M  V30 3877 H 598.22 -3.44728 -6.25838 0
M  V30 3878 H 596.386 -4.96652 -7.57263 0
M  V30 3879 H 596.315 -4.80159 -3.74441 0
M  V30 3880 H 597.345 -5.81459 -1.09608 0
M  V30 3881 H 595.608 -5.9187 -1.54487 0
M  V30 3882 H 596.096 -5.10095 -0.0220288 0
M  V30 3883 H 596.832 -0.798962 -1.16664 0
M  V30 3884 P 598.256 -2.75334 -8.47391 0
M  V30 3885 O 598.476 -2.44571 -9.90142 0
M  V30 3886 O 599.046 -3.87688 -7.92115 0
M  V30 3887 O 598.506 -1.4459 -7.59357 0
M  V30 3888 C 597.566 -0.347608 -7.69215 0
M  V30 3889 C 598.296 0.96767 -7.52806 0
M  V30 3890 O 598.506 1.21036 -6.1011 0
M  V30 3891 C 599.696 1.04544 -8.13308 0
M  V30 3892 O 600.086 2.38311 -8.41922 0
M  V30 3893 C 600.576 0.491279 -7.02284 0
M  V30 3894 C 599.866 0.996264 -5.77469 0
M  V30 3895 N 599.916 0.0501916 -4.62973 0
M  V30 3896 H 597.077 -0.374722 -8.67691 0
M  V30 3897 H 596.807 -0.443485 -6.90277 0
M  V30 3898 H 597.674 1.75537 -7.96793 0
M  V30 3899 P 601.636 2.75334 -8.47391 0
M  V30 3900 O 601.856 3.84128 -9.44797 0
M  V30 3901 O 602.426 1.51947 -8.68712 0
M  V30 3902 O 601.886 3.29363 -6.99321 0
M  V30 3903 C 600.946 4.24011 -6.4274 0
M  V30 3904 C 601.676 5.20775 -5.52155 0
M  V30 3905 O 601.886 4.56534 -4.22446 0
M  V30 3906 C 603.076 5.62629 -5.96531 0
M  V30 3907 O 603.466 6.87667 -5.41053 0
M  V30 3908 C 603.956 4.52537 -5.39283 0
M  V30 3909 C 603.246 4.20027 -4.08623 0
M  V30 3910 N 603.296 2.76189 -3.71603 0
M  V30 3911 H 600.457 4.797 -7.24003 0
M  V30 3912 H 600.187 3.69856 -5.84513 0
M  V30 3913 H 601.054 6.10356 -5.41441 0
M  V30 3914 P 605.016 7.20834 -5.23717 0
M  V30 3915 O 605.236 8.66104 -5.38572 0
M  V30 3916 O 605.806 6.33544 -6.1349 0
M  V30 3917 O 605.266 6.7751 -3.72168 0
M  V30 3918 C 604.326 7.20825 -2.7076 0
M  V30 3919 C 605.056 7.45864 -1.40599 0
M  V30 3920 O 605.266 6.17651 -0.734225 0
M  V30 3921 C 606.456 8.05808 -1.51899 0
M  V30 3922 O 606.846 8.74358 -0.335205 0
M  V30 3923 C 607.336 6.83093 -1.70294 0
M  V30 3924 C 606.626 5.79992 -0.836974 0
M  V30 3925 N 606.676 4.41864 -1.38293 0
M  V30 3926 H 603.837 8.13644 -3.0377 0
M  V30 3927 H 603.567 6.42788 -2.55485 0
M  V30 3928 H 604.434 8.12039 -0.792769 0
M  V30 3929 P 608.396 8.91 4.01252e-12 0
M  V30 3930 O 608.616 10.1726 0.733694 0
M  V30 3931 O 609.186 8.73148 -1.23936 0
M  V30 3932 O 608.646 7.66872 0.971405 0
M  V30 3933 C 607.706 7.42309 2.04641 0
M  V30 3934 C 608.436 6.86059 3.24661 0
M  V30 3935 O 608.646 5.42847 3.03646 0
M  V30 3936 C 609.836 7.41196 3.50753 0
M  V30 3937 O 610.226 7.27073 4.86816 0
M  V30 3938 C 610.716 6.5273 2.63741 0
M  V30 3939 C 610.006 5.1842 2.73198 0
M  V30 3940 N 610.056 4.38762 1.4784 0
M  V30 3941 H 607.217 8.36803 2.32493 0
M  V30 3942 H 606.947 6.70197 1.71129 0
M  V30 3943 H 607.814 7.03551 4.13168 0
M  V30 3944 P 611.776 7.20834 5.23717 0
M  V30 3945 O 611.996 7.79853 6.57286 0
M  V30 3946 O 612.566 7.79239 4.12957 0
M  V30 3947 O 612.026 5.63315 5.29344 0
M  V30 3948 C 611.086 4.80255 6.01876 0
M  V30 3949 C 611.816 3.64202 6.65911 0
M  V30 3950 O 612.026 2.60694 5.64732 0
M  V30 3951 C 613.216 3.93473 7.1943 0
M  V30 3952 O 613.606 3.02071 8.21205 0
M  V30 3953 C 614.096 3.73047 5.97036 0
M  V30 3954 C 613.386 2.58828 5.25741 0
M  V30 3955 N 613.436 2.68068 3.77503 0
M  V30 3956 H 610.597 5.40332 6.79951 0
M  V30 3957 H 610.327 4.41613 5.32378 0
M  V30 3958 H 611.194 3.26331 7.47797 0
M  V30 3959 P 615.156 2.75334 8.47391 0
M  V30 3960 O 615.376 2.44571 9.90142 0
M  V30 3961 O 615.946 3.87688 7.92115 0
M  V30 3962 O 615.406 1.4459 7.59357 0
M  V30 3963 C 614.466 0.347608 7.69215 0
M  V30 3964 C 615.196 -0.96767 7.52806 0
M  V30 3965 O 615.406 -1.21036 6.1011 0
M  V30 3966 C 616.596 -1.04544 8.13308 0
M  V30 3967 O 616.986 -2.38311 8.41922 0
M  V30 3968 C 617.476 -0.491279 7.02284 0
M  V30 3969 C 616.766 -0.996264 5.77469 0
M  V30 3970 N 616.816 -0.0501916 4.62973 0
M  V30 3971 H 613.977 0.374722 8.67691 0
M  V30 3972 H 613.707 0.443485 6.90277 0
M  V30 3973 H 614.574 -1.75537 7.96793 0
M  V30 3974 P 618.536 -2.75334 8.47391 0
M  V30 3975 O 618.756 -3.84128 9.44797 0
M  V30 3976 O 619.326 -1.51947 8.68712 0
M  V30 3977 O 618.786 -3.29363 6.99321 0
M  V30 3978 C 617.846 -4.24011 6.4274 0
M  V30 3979 C 618.576 -5.20775 5.52155 0
M  V30 3980 O 618.786 -4.56534 4.22446 0
M  V30 3981 C 619.976 -5.62629 5.96531 0
M  V30 3982 O 620.366 -6.87667 5.41053 0
M  V30 3983 C 620.856 -4.52537 5.39283 0
M  V30 3984 C 620.146 -4.20027 4.08623 0
M  V30 3985 N 620.196 -2.76189 3.71603 0
M  V30 3986 H 617.357 -4.797 7.24003 0
M  V30 3987 H 617.087 -3.69856 5.84513 0
M  V30 3988 H 617.954 -6.10356 5.41441 0
M  V30 3989 P 621.916 -7.20834 5.23717 0
M  V30 3990 O 622.136 -8.66104 5.38572 0
M  V30 3991 O 622.706 -6.33544 6.1349 0
M  V30 3992 O 622.166 -6.7751 3.72168 0
M  V30 3993 C 621.226 -7.20825 2.7076 0
M  V30 3994 C 621.956 -7.45864 1.40599 0
M  V30 3995 O 622.166 -6.17651 0.734225 0
M  V30 3996 C 623.356 -8.05808 1.51899 0
M  V30 3997 O 623.746 -8.74358 0.335205 0
M  V30 3998 C 624.236 -6.83093 1.70294 0
M  V30 3999 C 623.526 -5.79992 0.836974 0
M  V30 4000 N 623.576 -4.41864 1.38293 0
M  V30 4001 H 620.737 -8.13644 3.0377 0
M  V30 4002 H 620.467 -6.42788 2.55485 0
M  V30 4003 H 621.334 -8.12039 0.792769 0
M  V30 4004 P 625.296 -8.91 -4.1697e-12 0
M  V30 4005 O 625.516 -10.1726 -0.733694 0
M  V30 4006 O 626.086 -8.73148 1.23936 0
M  V30 4007 O 625.546 -7.66872 -0.971405 0
M  V30 4008 C 624.606 -7.42309 -2.04641 0
M  V30 4009 C 625.336 -6.86059 -3.24661 0
M  V30 4010 O 625.546 -5.42847 -3.03646 0
M  V30 4011 C 626.736 -7.41196 -3.50753 0
M  V30 4012 O 627.126 -7.27073 -4.86816 0
M  V30 4013 C 627.616 -6.5273 -2.63741 0
M  V30 4014 C 626.906 -5.1842 -2.73198 0
M  V30 4015 N 626.956 -4.38762 -1.4784 0
M  V30 4016 H 624.117 -8.36803 -2.32493 0
M  V30 4017 H 623.847 -6.70197 -1.71129 0
M  V30 4018 H 624.714 -7.03551 -4.13168 0
M  V30 4019 P 628.676 -7.20834 -5.23717 0
M  V30 4020 O 628.896 -7.79853 -6.57286 0
M  V30 4021 O 629.466 -7.79239 -4.12957 0
M  V30 4022 O 628.926 -5.63315 -5.29344 0
M  V30 4023 C 627.986 -4.80255 -6.01876 0
M  V30 4024 C 628.716 -3.64202 -6.65911 0
M  V30 4025 O 628.926 -2.60694 -5.64732 0
M  V30 4026 C 630.116 -3.93473 -7.1943 0
M  V30 4027 O 630.506 -3.02071 -8.21205 0
M  V30 4028 C 630.996 -3.73047 -5.97036 0
M  V30 4029 C 630.286 -2.58828 -5.25741 0
M  V30 4030 N 630.336 -2.68068 -3.77503 0
M  V30 4031 C 630.256 -3.79715 -2.96723 0
M  V30 4032 N 630.336 -3.5377 -1.68852 0
M  V30 4033 C 630.476 -2.15054 -1.63254 0
M  V30 4034 C 630.606 -1.28964 -0.518571 0
M  V30 4035 O 630.626 -1.56826 0.679156 0
M  V30 4036 N 630.726 0.0538097 -0.918425 0
M  V30 4037 C 630.726 0.494275 -2.22578 0
M  V30 4038 N 630.856 1.81086 -2.40434 0
M  V30 4039 N 630.596 -0.313645 -3.27502 0
M  V30 4040 C 630.476 -1.61829 -2.91033 0
M  V30 4041 H 627.497 -5.40332 -6.79951 0
M  V30 4042 H 627.227 -4.41613 -5.32378 0
M  V30 4043 H 628.094 -3.26331 -7.47797 0
M  V30 4044 H 630.749 -1.63422 -5.56814 0
M  V30 4045 H 631.028 -4.63374 -5.34244 0
M  V30 4046 H 632.02 -3.44728 -6.25838 0
M  V30 4047 H 630.186 -4.96652 -7.57263 0
M  V30 4048 H 630.137 -4.80617 -3.3614 0
M  V30 4049 H 630.819 0.742702 -0.199384 0
M  V30 4050 H 630.856 2.20598 -3.35588 0
M  V30 4051 H 630.957 2.43518 -1.58945 0
M  V30 4052 P 632.056 -2.75334 -8.47391 0
M  V30 4053 O 632.276 -2.44571 -9.90142 0
M  V30 4054 O 632.846 -3.87688 -7.92115 0
M  V30 4055 O 632.306 -1.4459 -7.59357 0
M  V30 4056 C 631.366 -0.347608 -7.69215 0
M  V30 4057 C 632.096 0.96767 -7.52806 0
M  V30 4058 O 632.306 1.21036 -6.1011 0
M  V30 4059 C 633.496 1.04544 -8.13308 0
M  V30 4060 O 633.886 2.38311 -8.41922 0
M  V30 4061 C 634.376 0.491279 -7.02284 0
M  V30 4062 C 633.666 0.996264 -5.77469 0
M  V30 4063 N 633.716 0.0501916 -4.62973 0
M  V30 4064 C 633.636 -1.32786 -4.63244 0
M  V30 4065 N 633.716 -1.86957 -3.44545 0
M  V30 4066 C 633.856 -0.780241 -2.58481 0
M  V30 4067 C 633.986 -0.738536 -1.17757 0
M  V30 4068 O 634.006 -1.66794 -0.372349 0
M  V30 4069 N 634.106 0.58337 -0.711393 0
M  V30 4070 C 634.106 1.70816 -1.51017 0
M  V30 4071 N 634.236 2.87826 -0.880757 0
M  V30 4072 N 633.976 1.67126 -2.8339 0
M  V30 4073 C 633.856 0.401421 -3.30572 0
M  V30 4074 H 630.877 -0.374722 -8.67691 0
M  V30 4075 H 630.607 -0.443485 -6.90277 0
M  V30 4076 H 631.474 1.75537 -7.96793 0
M  V30 4077 H 634.129 1.95076 -5.46529 0
M  V30 4078 H 634.408 -0.608565 -7.04577 0
M  V30 4079 H 635.4 0.889672 -7.08939 0
M  V30 4080 H 633.566 0.43308 -9.04564 0
M  V30 4081 H 633.517 -1.91249 -5.54442 0
M  V30 4082 H 634.199 0.718054 0.275244 0
M  V30 4083 H 634.236 3.75721 -1.41832 0
M  V30 4084 H 634.337 2.90436 0.145468 0
M  V30 4085 P 635.436 2.75334 -8.47391 0
M  V30 4086 O 635.656 3.84128 -9.44797 0
M  V30 4087 O 636.226 1.51947 -8.68712 0
M  V30 4088 O 635.686 3.29363 -6.99321 0
M  V30 4089 C 634.746 4.24011 -6.4274 0
M  V30 4090 C 635.476 5.20775 -5.52155 0
M  V30 4091 O 635.686 4.56534 -4.22446 0
M  V30 4092 C 636.876 5.62629 -5.96531 0
M  V30 4093 O 637.266 6.87667 -5.41053 0
M  V30 4094 C 637.756 4.52537 -5.39283 0
M  V30 4095 C 637.046 4.20027 -4.08623 0
M  V30 4096 N 637.096 2.76189 -3.71603 0
M  V30 4097 H 634.257 4.797 -7.24003 0
M  V30 4098 H 633.987 3.69856 -5.84513 0
M  V30 4099 H 634.854 6.10356 -5.41441 0
M  V30 4100 P 638.816 7.20834 -5.23717 0
M  V30 4101 O 639.036 8.66104 -5.38572 0
M  V30 4102 O 639.606 6.33544 -6.1349 0
M  V30 4103 O 639.066 6.7751 -3.72168 0
M  V30 4104 C 638.126 7.20825 -2.7076 0
M  V30 4105 C 638.856 7.45864 -1.40599 0
M  V30 4106 O 639.066 6.17651 -0.734225 0
M  V30 4107 C 640.256 8.05808 -1.51899 0
M  V30 4108 O 640.646 8.74358 -0.335205 0
M  V30 4109 C 641.136 6.83093 -1.70294 0
M  V30 4110 C 640.426 5.79992 -0.836974 0
M  V30 4111 N 640.476 4.41864 -1.38293 0
M  V30 4112 H 637.637 8.13644 -3.0377 0
M  V30 4113 H 637.367 6.42788 -2.55485 0
M  V30 4114 H 638.234 8.12039 -0.792769 0
M  V30 4115 P 642.196 8.91 4.32688e-12 0
M  V30 4116 O 642.416 10.1726 0.733694 0
M  V30 4117 O 642.986 8.73148 -1.23936 0
M  V30 4118 O 642.446 7.66872 0.971405 0
M  V30 4119 C 641.506 7.42309 2.04641 0
M  V30 4120 C 642.236 6.86059 3.24661 0
M  V30 4121 O 642.446 5.42847 3.03646 0
M  V30 4122 C 643.636 7.41196 3.50753 0
M  V30 4123 O 644.026 7.27073 4.86816 0
M  V30 4124 C 644.516 6.5273 2.63741 0
M  V30 4125 C 643.806 5.1842 2.73198 0
M  V30 4126 N 643.856 4.38762 1.4784 0
M  V30 4127 H 641.017 8.36803 2.32493 0
M  V30 4128 H 640.747 6.70197 1.71129 0
M  V30 4129 H 641.614 7.03551 4.13168 0
M  V30 4130 P 645.576 7.20834 5.23717 0
M  V30 4131 O 645.796 7.79853 6.57286 0
M  V30 4132 O 646.366 7.79239 4.12957 0
M  V30 4133 O 645.826 5.63315 5.29344 0
M  V30 4134 C 644.886 4.80255 6.01876 0
M  V30 4135 C 645.616 3.64202 6.65911 0
M  V30 4136 O 645.826 2.60694 5.64732 0
M  V30 4137 C 647.016 3.93473 7.1943 0
M  V30 4138 O 647.406 3.02071 8.21205 0
M  V30 4139 C 647.896 3.73047 5.97036 0
M  V30 4140 C 647.186 2.58828 5.25741 0
M  V30 4141 N 647.236 2.68068 3.77503 0
M  V30 4142 H 644.397 5.40332 6.79951 0
M  V30 4143 H 644.127 4.41613 5.32378 0
M  V30 4144 H 644.994 3.26331 7.47797 0
M  V30 4145 P 648.956 2.75334 8.47391 0
M  V30 4146 O 649.176 2.44595 9.90239 0
M  V30 4147 O 649.746 3.87732 7.92204 0
M  V30 4148 O 649.206 1.4459 7.59357 0
M  V30 4149 C 648.266 0.347563 7.69115 0
M  V30 4150 C 648.996 -0.96767 7.52806 0
M  V30 4151 O 649.206 -1.21036 6.1011 0
M  V30 4152 C 650.396 -1.04544 8.13308 0
M  V30 4153 O 650.786 -2.38311 8.41922 0
M  V30 4154 C 651.276 -0.491279 7.02284 0
M  V30 4155 C 650.566 -0.996264 5.77469 0
M  V30 4156 N 650.616 -0.0501808 4.62873 0
M  V30 4157 C 650.766 -0.588177 3.36904 0
M  V30 4158 O 650.856 -1.78598 3.17173 0
M  V30 4159 N 650.806 0.329694 2.33686 0
M  V30 4160 C 650.716 1.6953 2.45079 0
M  V30 4161 O 650.766 2.41926 1.44899 0
M  V30 4162 C 650.566 2.16933 3.80505 0
M  V30 4163 C 650.456 3.65373 3.97621 0
M  V30 4164 C 650.516 1.30326 4.83752 0
M  V30 4165 H 647.776 0.374722 8.67691 0
M  V30 4166 H 647.507 0.443421 6.90177 0
M  V30 4167 H 648.374 -1.75537 7.96793 0
M  V30 4168 H 651.029 -1.94496 5.46629 0
M  V30 4169 H 651.308 0.608651 7.04676 0
M  V30 4170 H 652.3 -0.889672 7.08939 0
M  V30 4171 H 650.466 -0.43308 9.04564 0
M  V30 4172 H 650.395 1.68366 5.8516 0
M  V30 4173 H 651.425 4.05985 4.30448 0
M  V30 4174 H 649.688 3.88028 4.72875 0
M  V30 4175 H 650.176 4.11381 3.01609 0
M  V30 4176 H 650.912 -0.0393617 1.41345 0
M  V30 4177 P 652.336 -2.75334 8.47391 0
M  V30 4178 O 652.556 -3.84128 9.44797 0
M  V30 4179 O 653.126 -1.51947 8.68712 0
M  V30 4180 O 652.586 -3.29363 6.99321 0
M  V30 4181 C 651.646 -4.24011 6.4274 0
M  V30 4182 C 652.376 -5.20775 5.52155 0
M  V30 4183 O 652.586 -4.56534 4.22446 0
M  V30 4184 C 653.776 -5.62629 5.96531 0
M  V30 4185 O 654.166 -6.87667 5.41053 0
M  V30 4186 C 654.656 -4.52537 5.39283 0
M  V30 4187 C 653.946 -4.20027 4.08623 0
M  V30 4188 N 653.996 -2.76189 3.71603 0
M  V30 4189 H 651.157 -4.797 7.24003 0
M  V30 4190 H 650.887 -3.69856 5.84513 0
M  V30 4191 H 651.754 -6.10356 5.41441 0
M  V30 4192 P 655.716 -7.20834 5.23717 0
M  V30 4193 O 655.936 -8.66104 5.38572 0
M  V30 4194 O 656.506 -6.33544 6.1349 0
M  V30 4195 O 655.966 -6.7751 3.72168 0
M  V30 4196 C 655.026 -7.20825 2.7076 0
M  V30 4197 C 655.756 -7.45864 1.40599 0
M  V30 4198 O 655.966 -6.17651 0.734225 0
M  V30 4199 C 657.156 -8.05808 1.51899 0
M  V30 4200 O 657.546 -8.74358 0.335205 0
M  V30 4201 C 658.036 -6.83093 1.70294 0
M  V30 4202 C 657.326 -5.79992 0.836974 0
M  V30 4203 N 657.376 -4.41864 1.38293 0
M  V30 4204 H 654.537 -8.13644 3.0377 0
M  V30 4205 H 654.267 -6.42788 2.55485 0
M  V30 4206 H 655.134 -8.12039 0.792769 0
M  V30 4207 P 659.096 -8.91 -4.48406e-12 0
M  V30 4208 O 659.316 -10.1726 -0.733694 0
M  V30 4209 O 659.886 -8.73148 1.23936 0
M  V30 4210 O 659.346 -7.66872 -0.971405 0
M  V30 4211 C 658.406 -7.42309 -2.04641 0
M  V30 4212 C 659.136 -6.86059 -3.24661 0
M  V30 4213 O 659.346 -5.42847 -3.03646 0
M  V30 4214 C 660.536 -7.41196 -3.50753 0
M  V30 4215 O 660.926 -7.27073 -4.86816 0
M  V30 4216 C 661.416 -6.5273 -2.63741 0
M  V30 4217 C 660.706 -5.1842 -2.73198 0
M  V30 4218 N 660.756 -4.38762 -1.4784 0
M  V30 4219 H 657.917 -8.36803 -2.32493 0
M  V30 4220 H 657.647 -6.70197 -1.71129 0
M  V30 4221 H 658.514 -7.03551 -4.13168 0
M  V30 4222 P 662.476 -7.20834 -5.23717 0
M  V30 4223 O 662.696 -7.79853 -6.57286 0
M  V30 4224 O 663.266 -7.79239 -4.12957 0
M  V30 4225 O 662.726 -5.63315 -5.29344 0
M  V30 4226 C 661.786 -4.80255 -6.01876 0
M  V30 4227 C 662.516 -3.64202 -6.65911 0
M  V30 4228 O 662.726 -2.60694 -5.64732 0
M  V30 4229 C 663.916 -3.93473 -7.1943 0
M  V30 4230 O 664.306 -3.02071 -8.21205 0
M  V30 4231 C 664.796 -3.73047 -5.97036 0
M  V30 4232 C 664.086 -2.58828 -5.25741 0
M  V30 4233 N 664.136 -2.68068 -3.77503 0
M  V30 4234 H 661.297 -5.40332 -6.79951 0
M  V30 4235 H 661.027 -4.41613 -5.32378 0
M  V30 4236 H 661.894 -3.26331 -7.47797 0
M  V30 4237 P 665.856 -2.75334 -8.47391 0
M  V30 4238 O 666.076 -2.44571 -9.90142 0
M  V30 4239 O 666.646 -3.87688 -7.92115 0
M  V30 4240 O 666.106 -1.4459 -7.59357 0
M  V30 4241 C 665.166 -0.347608 -7.69215 0
M  V30 4242 C 665.896 0.96767 -7.52806 0
M  V30 4243 O 666.106 1.21036 -6.1011 0
M  V30 4244 C 667.296 1.04544 -8.13308 0
M  V30 4245 O 667.686 2.38311 -8.41922 0
M  V30 4246 C 668.176 0.491279 -7.02284 0
M  V30 4247 C 667.466 0.996264 -5.77469 0
M  V30 4248 N 667.516 0.0501916 -4.62973 0
M  V30 4249 H 664.677 -0.374722 -8.67691 0
M  V30 4250 H 664.407 -0.443485 -6.90277 0
M  V30 4251 H 665.274 1.75537 -7.96793 0
M  V30 4252 P 669.236 2.75334 -8.47391 0
M  V30 4253 O 669.456 3.84128 -9.44797 0
M  V30 4254 O 670.026 1.51947 -8.68712 0
M  V30 4255 O 669.486 3.29363 -6.99321 0
M  V30 4256 C 668.546 4.24011 -6.4274 0
M  V30 4257 C 669.276 5.20775 -5.52155 0
M  V30 4258 O 669.486 4.56534 -4.22446 0
M  V30 4259 C 670.676 5.62629 -5.96531 0
M  V30 4260 O 671.066 6.87667 -5.41053 0
M  V30 4261 C 671.556 4.52537 -5.39283 0
M  V30 4262 C 670.846 4.20027 -4.08623 0
M  V30 4263 N 670.896 2.76189 -3.71603 0
M  V30 4264 C 670.816 1.64862 -4.52822 0
M  V30 4265 N 670.896 0.512671 -3.88633 0
M  V30 4266 C 671.036 0.888083 -2.54977 0
M  V30 4267 C 671.166 0.094668 -1.38677 0
M  V30 4268 N 671.286 0.890102 -0.232633 0
M  V30 4269 C 671.286 2.26958 -0.21772 0
M  V30 4270 N 671.416 2.84626 0.97925 0
M  V30 4271 N 671.156 3.0178 -1.31033 0
M  V30 4272 C 671.036 2.26781 -2.43843 0
M  V30 4273 H 668.057 4.797 -7.24003 0
M  V30 4274 H 667.787 3.69856 -5.84513 0
M  V30 4275 H 668.654 6.10356 -5.41441 0
M  V30 4276 P 672.616 7.20834 -5.23717 0
M  V30 4277 O 672.836 8.66104 -5.38572 0
M  V30 4278 O 673.406 6.33544 -6.1349 0
M  V30 4279 O 672.866 6.7751 -3.72168 0
M  V30 4280 C 671.926 7.20825 -2.7076 0
M  V30 4281 C 672.656 7.45864 -1.40599 0
M  V30 4282 O 672.866 6.17651 -0.734225 0
M  V30 4283 C 674.056 8.05808 -1.51899 0
M  V30 4284 O 674.446 8.74358 -0.335205 0
M  V30 4285 C 674.936 6.83093 -1.70294 0
M  V30 4286 C 674.226 5.79992 -0.836974 0
M  V30 4287 N 674.276 4.41864 -1.38293 0
M  V30 4288 H 671.437 8.13644 -3.0377 0
M  V30 4289 H 671.167 6.42788 -2.55485 0
M  V30 4290 H 672.034 8.12039 -0.792769 0
M  V30 4291 P 675.996 8.91 4.64125e-12 0
M  V30 4292 O 676.216 10.1736 0.733766 0
M  V30 4293 O 676.786 8.73247 -1.2395 0
M  V30 4294 O 676.246 7.66872 0.971405 0
M  V30 4295 C 675.306 7.42212 2.04614 0
M  V30 4296 C 676.036 6.86059 3.24661 0
M  V30 4297 O 676.246 5.42847 3.03646 0
M  V30 4298 C 677.436 7.41196 3.50753 0
M  V30 4299 O 677.826 7.27073 4.86816 0
M  V30 4300 C 678.316 6.5273 2.63741 0
M  V30 4301 C 677.606 5.1842 2.73198 0
M  V30 4302 N 677.656 4.38668 1.47808 0
M  V30 4303 C 677.806 3.02239 1.60048 0
M  V30 4304 O 677.896 2.46459 2.67869 0
M  V30 4305 N 677.846 2.32436 0.408571 0
M  V30 4306 C 677.756 2.85471 -0.854993 0
M  V30 4307 C 677.606 4.28918 -0.887335 0
M  V30 4308 C 677.556 5.00349 0.255399 0
M  V30 4309 H 674.816 8.36803 2.32493 0
M  V30 4310 H 674.547 6.701 1.71105 0
M  V30 4311 H 675.414 7.03551 4.13168 0
M  V30 4312 H 678.069 4.59773 3.53894 0
M  V30 4313 H 678.348 6.88995 1.59871 0
M  V30 4314 H 679.34 6.46749 3.03687 0
M  V30 4315 H 677.506 8.46908 3.20714 0
M  V30 4316 H 677.435 6.08548 0.206986 0
M  V30 4317 P 679.376 7.20834 5.23717 0
M  V30 4318 O 679.596 7.79853 6.57286 0
M  V30 4319 O 680.166 7.79239 4.12957 0
M  V30 4320 O 679.626 5.63315 5.29344 0
M  V30 4321 C 678.686 4.80255 6.01876 0
M  V30 4322 C 679.416 3.64202 6.65911 0
M  V30 4323 O 679.626 2.60694 5.64732 0
M  V30 4324 C 680.816 3.93473 7.1943 0
M  V30 4325 O 681.206 3.02071 8.21205 0
M  V30 4326 C 681.696 3.73047 5.97036 0
M  V30 4327 C 680.986 2.58828 5.25741 0
M  V30 4328 N 681.036 2.68068 3.77503 0
M  V30 4329 H 678.197 5.40332 6.79951 0
M  V30 4330 H 677.927 4.41613 5.32378 0
M  V30 4331 H 678.794 3.26331 7.47797 0
M  V30 4332 P 682.756 2.75334 8.47391 0
M  V30 4333 O 682.976 2.44571 9.90142 0
M  V30 4334 O 683.546 3.87688 7.92115 0
M  V30 4335 O 683.006 1.4459 7.59357 0
M  V30 4336 C 682.066 0.347608 7.69215 0
M  V30 4337 C 682.796 -0.96767 7.52806 0
M  V30 4338 O 683.006 -1.21036 6.1011 0
M  V30 4339 C 684.196 -1.04544 8.13308 0
M  V30 4340 O 684.586 -2.38311 8.41922 0
M  V30 4341 C 685.076 -0.491279 7.02284 0
M  V30 4342 C 684.366 -0.996264 5.77469 0
M  V30 4343 N 684.416 -0.0501916 4.62973 0
M  V30 4344 C 684.336 1.32786 4.63244 0
M  V30 4345 N 684.416 1.86957 3.44545 0
M  V30 4346 C 684.556 0.780241 2.58481 0
M  V30 4347 C 684.686 0.738536 1.17757 0
M  V30 4348 O 684.706 1.66794 0.372349 0
M  V30 4349 N 684.806 -0.58337 0.711393 0
M  V30 4350 C 684.806 -1.70816 1.51017 0
M  V30 4351 N 684.936 -2.87826 0.880757 0
M  V30 4352 N 684.676 -1.67126 2.8339 0
M  V30 4353 C 684.556 -0.401421 3.30572 0
M  V30 4354 H 681.577 0.374722 8.67691 0
M  V30 4355 H 681.307 0.443485 6.90277 0
M  V30 4356 H 682.174 -1.75537 7.96793 0
M  V30 4357 H 684.829 -1.95076 5.46529 0
M  V30 4358 H 685.108 0.608565 7.04577 0
M  V30 4359 H 686.1 -0.889672 7.08939 0
M  V30 4360 H 684.266 -0.43308 9.04564 0
M  V30 4361 H 684.217 1.91249 5.54442 0
M  V30 4362 H 684.899 -0.718054 -0.275244 0
M  V30 4363 H 684.936 -3.75721 1.41832 0
M  V30 4364 H 685.037 -2.90436 -0.145468 0
M  V30 4365 P 686.136 -2.75334 8.47391 0
M  V30 4366 O 686.356 -3.84128 9.44797 0
M  V30 4367 O 686.926 -1.51947 8.68712 0
M  V30 4368 O 686.386 -3.29363 6.99321 0
M  V30 4369 C 685.446 -4.24011 6.4274 0
M  V30 4370 C 686.176 -5.20775 5.52155 0
M  V30 4371 O 686.386 -4.56534 4.22446 0
M  V30 4372 C 687.576 -5.62629 5.96531 0
M  V30 4373 O 687.966 -6.87667 5.41053 0
M  V30 4374 C 688.456 -4.52537 5.39283 0
M  V30 4375 C 687.746 -4.20027 4.08623 0
M  V30 4376 N 687.796 -2.76189 3.71603 0
M  V30 4377 C 687.716 -1.64862 4.52822 0
M  V30 4378 N 687.796 -0.512671 3.88633 0
M  V30 4379 C 687.936 -0.888083 2.54977 0
M  V30 4380 C 688.066 -0.094668 1.38677 0
M  V30 4381 O 688.086 1.13053 1.28163 0
M  V30 4382 N 688.186 -0.890102 0.232633 0
M  V30 4383 C 688.186 -2.26958 0.21772 0
M  V30 4384 N 688.316 -2.84626 -0.97925 0
M  V30 4385 N 688.056 -3.0178 1.31033 0
M  V30 4386 C 687.936 -2.26781 2.43843 0
M  V30 4387 H 684.957 -4.797 7.24003 0
M  V30 4388 H 684.687 -3.69856 5.84513 0
M  V30 4389 H 685.554 -6.10356 5.41441 0
M  V30 4390 H 688.209 -4.79061 3.27488 0
M  V30 4391 H 688.488 -3.64906 6.05785 0
M  V30 4392 H 689.48 -4.8868 5.2125 0
M  V30 4393 H 687.646 -5.66726 7.06352 0
M  V30 4394 H 687.597 -1.71169 5.60966 0
M  V30 4395 H 688.279 -0.419134 -0.644739 0
M  V30 4396 H 688.316 -3.87332 -1.06098 0
M  V30 4397 H 688.417 -2.26417 -1.82483 0
M  V30 4398 P 689.516 -7.20834 5.23717 0
M  V30 4399 O 689.736 -8.66104 5.38572 0
M  V30 4400 O 690.306 -6.33544 6.1349 0
M  V30 4401 O 689.766 -6.7751 3.72168 0
M  V30 4402 C 688.826 -7.20825 2.7076 0
M  V30 4403 C 689.556 -7.45864 1.40599 0
M  V30 4404 O 689.766 -6.17651 0.734225 0
M  V30 4405 C 690.956 -8.05808 1.51899 0
M  V30 4406 O 691.346 -8.74358 0.335205 0
M  V30 4407 C 691.836 -6.83093 1.70294 0
M  V30 4408 C 691.126 -5.79992 0.836974 0
M  V30 4409 N 691.176 -4.41864 1.38293 0
M  V30 4410 H 688.337 -8.13644 3.0377 0
M  V30 4411 H 688.067 -6.42788 2.55485 0
M  V30 4412 H 688.934 -8.12039 0.792769 0
M  V30 4413 P 692.896 -8.91 -4.67181e-12 0
M  V30 4414 O 693.116 -10.1726 -0.733694 0
M  V30 4415 O 693.686 -8.73148 1.23936 0
M  V30 4416 O 693.146 -7.66872 -0.971405 0
M  V30 4417 C 692.206 -7.42309 -2.04641 0
M  V30 4418 C 692.936 -6.86059 -3.24661 0
M  V30 4419 O 693.146 -5.42847 -3.03646 0
M  V30 4420 C 694.336 -7.41196 -3.50753 0
M  V30 4421 O 694.726 -7.27073 -4.86816 0
M  V30 4422 C 695.216 -6.5273 -2.63741 0
M  V30 4423 C 694.506 -5.1842 -2.73198 0
M  V30 4424 N 694.556 -4.38762 -1.4784 0
M  V30 4425 C 694.476 -4.81605 -0.168631 0
M  V30 4426 N 694.556 -3.85454 0.713363 0
M  V30 4427 C 694.696 -2.6994 -0.0566958 0
M  V30 4428 C 694.826 -1.34815 0.338502 0
M  V30 4429 O 694.846 -0.869548 1.47125 0
M  V30 4430 N 694.946 -0.496304 -0.77465 0
M  V30 4431 C 694.946 -0.908403 -2.09122 0
M  V30 4432 N 695.076 0.0517805 -3.00955 0
M  V30 4433 N 694.816 -2.17875 -2.46519 0
M  V30 4434 C 694.696 -3.01988 -1.4033 0
M  V30 4435 H 691.717 -8.36803 -2.32493 0
M  V30 4436 H 691.447 -6.70197 -1.71129 0
M  V30 4437 H 692.314 -7.03551 -4.13168 0
M  V30 4438 H 694.969 -4.59498 -3.54415 0
M  V30 4439 H 695.248 -6.88898 -1.59848 0
M  V30 4440 H 696.24 -6.46749 -3.03687 0
M  V30 4441 H 694.406 -8.46908 -3.20714 0
M  V30 4442 H 694.357 -5.86405 0.105564 0
M  V30 4443 H 695.039 0.483664 -0.597855 0
M  V30 4444 H 695.076 -0.187865 -4.0116 0
M  V30 4445 H 695.177 1.03585 -2.71726 0
M  V30 4446 P 696.276 -7.20834 -5.23717 0
M  V30 4447 O 696.496 -7.79853 -6.57286 0
M  V30 4448 O 697.066 -7.79239 -4.12957 0
M  V30 4449 O 696.526 -5.63315 -5.29344 0
M  V30 4450 C 695.586 -4.80255 -6.01876 0
M  V30 4451 C 696.316 -3.64202 -6.65911 0
M  V30 4452 O 696.526 -2.60694 -5.64732 0
M  V30 4453 C 697.716 -3.93473 -7.1943 0
M  V30 4454 O 698.106 -3.02071 -8.21205 0
M  V30 4455 C 698.596 -3.73047 -5.97036 0
M  V30 4456 C 697.886 -2.58828 -5.25741 0
M  V30 4457 N 697.936 -2.68068 -3.77503 0
M  V30 4458 H 695.097 -5.40332 -6.79951 0
M  V30 4459 H 694.827 -4.41613 -5.32378 0
M  V30 4460 H 695.694 -3.26331 -7.47797 0
M  V30 4461 P 699.656 -2.75334 -8.47391 0
M  V30 4462 O 699.876 -2.44571 -9.90142 0
M  V30 4463 O 700.446 -3.87688 -7.92115 0
M  V30 4464 O 699.906 -1.4459 -7.59357 0
M  V30 4465 C 698.966 -0.347608 -7.69215 0
M  V30 4466 C 699.696 0.96767 -7.52806 0
M  V30 4467 O 699.906 1.21036 -6.1011 0
M  V30 4468 C 701.096 1.04544 -8.13308 0
M  V30 4469 O 701.486 2.38311 -8.41922 0
M  V30 4470 C 701.976 0.491279 -7.02284 0
M  V30 4471 C 701.266 0.996264 -5.77469 0
M  V30 4472 N 701.316 0.0501916 -4.62973 0
M  V30 4473 H 698.477 -0.374722 -8.67691 0
M  V30 4474 H 698.207 -0.443485 -6.90277 0
M  V30 4475 H 699.074 1.75537 -7.96793 0
M  V30 4476 P 703.036 2.75334 -8.47391 0
M  V30 4477 O 703.256 3.84128 -9.44797 0
M  V30 4478 O 703.826 1.51947 -8.68712 0
M  V30 4479 O 703.286 3.29363 -6.99321 0
M  V30 4480 C 702.346 4.24011 -6.4274 0
M  V30 4481 C 703.076 5.20775 -5.52155 0
M  V30 4482 O 703.286 4.56534 -4.22446 0
M  V30 4483 C 704.476 5.62629 -5.96531 0
M  V30 4484 O 704.866 6.87667 -5.41053 0
M  V30 4485 C 705.356 4.52537 -5.39283 0
M  V30 4486 C 704.646 4.20027 -4.08623 0
M  V30 4487 N 704.696 2.76189 -3.71603 0
M  V30 4488 H 701.857 4.797 -7.24003 0
M  V30 4489 H 701.587 3.69856 -5.84513 0
M  V30 4490 H 702.454 6.10356 -5.41441 0
M  V30 4491 P 706.416 7.20834 -5.23717 0
M  V30 4492 O 706.636 8.66104 -5.38572 0
M  V30 4493 O 707.206 6.33544 -6.1349 0
M  V30 4494 O 706.666 6.7751 -3.72168 0
M  V30 4495 C 705.726 7.20825 -2.7076 0
M  V30 4496 C 706.456 7.45864 -1.40599 0
M  V30 4497 O 706.666 6.17651 -0.734225 0
M  V30 4498 C 707.856 8.05808 -1.51899 0
M  V30 4499 O 708.246 8.74358 -0.335205 0
M  V30 4500 C 708.736 6.83093 -1.70294 0
M  V30 4501 C 708.026 5.79992 -0.836974 0
M  V30 4502 N 708.076 4.41864 -1.38293 0
M  V30 4503 H 705.237 8.13644 -3.0377 0
M  V30 4504 H 704.967 6.42788 -2.55485 0
M  V30 4505 H 705.834 8.12039 -0.792769 0
M  V30 4506 P 709.796 8.91 4.82899e-12 0
M  V30 4507 O 710.016 10.1726 0.733694 0
M  V30 4508 O 710.586 8.73148 -1.23936 0
M  V30 4509 O 710.046 7.66872 0.971405 0
M  V30 4510 C 709.106 7.42309 2.04641 0
M  V30 4511 C 709.836 6.86059 3.24661 0
M  V30 4512 O 710.046 5.42847 3.03646 0
M  V30 4513 C 711.236 7.41196 3.50753 0
M  V30 4514 O 711.626 7.27073 4.86816 0
M  V30 4515 C 712.116 6.5273 2.63741 0
M  V30 4516 C 711.406 5.1842 2.73198 0
M  V30 4517 N 711.456 4.38762 1.4784 0
M  V30 4518 H 708.617 8.36803 2.32493 0
M  V30 4519 H 708.347 6.70197 1.71129 0
M  V30 4520 H 709.214 7.03551 4.13168 0
M  V30 4521 P 713.176 7.20834 5.23717 0
M  V30 4522 O 713.396 7.79853 6.57286 0
M  V30 4523 O 713.966 7.79239 4.12957 0
M  V30 4524 O 713.426 5.63315 5.29344 0
M  V30 4525 C 712.486 4.80255 6.01876 0
M  V30 4526 C 713.216 3.64202 6.65911 0
M  V30 4527 O 713.426 2.60694 5.64732 0
M  V30 4528 C 714.616 3.93473 7.1943 0
M  V30 4529 O 715.006 3.02071 8.21205 0
M  V30 4530 C 715.496 3.73047 5.97036 0
M  V30 4531 C 714.786 2.58828 5.25741 0
M  V30 4532 N 714.836 2.68068 3.77503 0
M  V30 4533 H 711.997 5.40332 6.79951 0
M  V30 4534 H 711.727 4.41613 5.32378 0
M  V30 4535 H 712.594 3.26331 7.47797 0
M  V30 4536 P 716.556 2.75334 8.47391 0
M  V30 4537 O 716.776 2.44571 9.90142 0
M  V30 4538 O 717.346 3.87688 7.92115 0
M  V30 4539 O 716.806 1.4459 7.59357 0
M  V30 4540 C 715.866 0.347608 7.69215 0
M  V30 4541 C 716.596 -0.96767 7.52806 0
M  V30 4542 O 716.806 -1.21036 6.1011 0
M  V30 4543 C 717.996 -1.04544 8.13308 0
M  V30 4544 O 718.386 -2.38311 8.41922 0
M  V30 4545 C 718.876 -0.491279 7.02284 0
M  V30 4546 C 718.166 -0.996264 5.77469 0
M  V30 4547 N 718.216 -0.0501916 4.62973 0
M  V30 4548 H 715.377 0.374722 8.67691 0
M  V30 4549 H 715.107 0.443485 6.90277 0
M  V30 4550 H 715.974 -1.75537 7.96793 0
M  V30 4551 P 719.936 -2.75334 8.47391 0
M  V30 4552 O 720.156 -3.84128 9.44797 0
M  V30 4553 O 720.726 -1.51947 8.68712 0
M  V30 4554 O 720.186 -3.29363 6.99321 0
M  V30 4555 C 719.246 -4.24011 6.4274 0
M  V30 4556 C 719.976 -5.20775 5.52155 0
M  V30 4557 O 720.186 -4.56534 4.22446 0
M  V30 4558 C 721.376 -5.62629 5.96531 0
M  V30 4559 O 721.766 -6.87667 5.41053 0
M  V30 4560 C 722.256 -4.52537 5.39283 0
M  V30 4561 C 721.546 -4.20027 4.08623 0
M  V30 4562 N 721.596 -2.76189 3.71603 0
M  V30 4563 H 718.757 -4.797 7.24003 0
M  V30 4564 H 718.487 -3.69856 5.84513 0
M  V30 4565 H 719.354 -6.10356 5.41441 0
M  V30 4566 P 723.316 -7.20834 5.23717 0
M  V30 4567 O 723.536 -8.66274 5.38678 0
M  V30 4568 O 724.106 -6.33687 6.13629 0
M  V30 4569 O 723.566 -6.7751 3.72168 0
M  V30 4570 C 722.626 -7.20919 2.70795 0
M  V30 4571 C 723.356 -7.45864 1.40599 0
M  V30 4572 O 723.566 -6.17751 0.734343 0
M  V30 4573 C 724.756 -8.05906 1.51917 0
M  V30 4574 O 725.146 -8.74358 0.335205 0
M  V30 4575 C 725.636 -6.83093 1.70294 0
M  V30 4576 C 724.926 -5.79992 0.836974 0
M  V30 4577 N 724.976 -4.41864 1.38293 0
M  V30 4578 H 722.138 -8.13738 3.03804 0
M  V30 4579 H 721.866 -6.42974 2.55559 0
M  V30 4580 H 722.734 -8.12139 0.792866 0
M  V30 4581 H 725.389 -5.80178 -0.160643 0
M  V30 4582 H 725.669 -6.51379 2.75643 0
M  V30 4583 H 726.66 -7.01832 1.3448 0
M  V30 4584 H 724.826 -8.73771 2.38364 0
M  V30 4585 P 726.696 -8.91 -4.98617e-12 0
M  V30 4586 O 726.916 -10.1726 -0.733694 0
M  V30 4587 O 727.486 -8.73148 1.23936 0
M  V30 4588 O 726.946 -7.66872 -0.971405 0
M  V30 4589 C 726.006 -7.42309 -2.04641 0
M  V30 4590 C 726.736 -6.86059 -3.24661 0
M  V30 4591 O 726.946 -5.42847 -3.03646 0
M  V30 4592 C 728.136 -7.41196 -3.50753 0
M  V30 4593 O 728.526 -7.27073 -4.86816 0
M  V30 4594 C 729.016 -6.5273 -2.63741 0
M  V30 4595 C 728.306 -5.1842 -2.73198 0
M  V30 4596 N 728.356 -4.38762 -1.4784 0
M  V30 4597 H 725.517 -8.36803 -2.32493 0
M  V30 4598 H 725.247 -6.70197 -1.71129 0
M  V30 4599 H 726.114 -7.03551 -4.13168 0
M  V30 4600 P 730.076 -7.20834 -5.23717 0
M  V30 4601 O 730.296 -7.79853 -6.57286 0
M  V30 4602 O 730.866 -7.79239 -4.12957 0
M  V30 4603 O 730.326 -5.63315 -5.29344 0
M  V30 4604 C 729.386 -4.80255 -6.01876 0
M  V30 4605 C 730.116 -3.64202 -6.65911 0
M  V30 4606 O 730.326 -2.60694 -5.64732 0
M  V30 4607 C 731.516 -3.93473 -7.1943 0
M  V30 4608 O 731.906 -3.02071 -8.21205 0
M  V30 4609 C 732.396 -3.73047 -5.97036 0
M  V30 4610 C 731.686 -2.58828 -5.25741 0
M  V30 4611 N 731.736 -2.68068 -3.77503 0
M  V30 4612 H 728.897 -5.40332 -6.79951 0
M  V30 4613 H 728.627 -4.41613 -5.32378 0
M  V30 4614 H 729.494 -3.26331 -7.47797 0
M  V30 4615 P 733.456 -2.75334 -8.47391 0
M  V30 4616 O 733.676 -2.44571 -9.90142 0
M  V30 4617 O 734.246 -3.87688 -7.92115 0
M  V30 4618 O 733.706 -1.4459 -7.59357 0
M  V30 4619 C 732.766 -0.347608 -7.69215 0
M  V30 4620 C 733.496 0.96767 -7.52806 0
M  V30 4621 O 733.706 1.21036 -6.1011 0
M  V30 4622 C 734.896 1.04544 -8.13308 0
M  V30 4623 O 735.286 2.38311 -8.41922 0
M  V30 4624 C 735.776 0.491279 -7.02284 0
M  V30 4625 C 735.066 0.996264 -5.77469 0
M  V30 4626 N 735.116 0.0501916 -4.62973 0
M  V30 4627 H 732.277 -0.374722 -8.67691 0
M  V30 4628 H 732.007 -0.443485 -6.90277 0
M  V30 4629 H 732.874 1.75537 -7.96793 0
M  V30 4630 P 736.836 2.75334 -8.47391 0
M  V30 4631 O 737.056 3.84166 -9.4489 0
M  V30 4632 O 737.626 1.51964 -8.6881 0
M  V30 4633 O 737.086 3.29363 -6.99321 0
M  V30 4634 C 736.146 4.23956 -6.42656 0
M  V30 4635 C 736.876 5.20775 -5.52155 0
M  V30 4636 O 737.086 4.56534 -4.22446 0
M  V30 4637 C 738.276 5.62629 -5.96531 0
M  V30 4638 O 738.666 6.87667 -5.41053 0
M  V30 4639 C 739.156 4.52537 -5.39283 0
M  V30 4640 C 738.446 4.20027 -4.08623 0
M  V30 4641 N 738.496 2.7613 -3.71522 0
M  V30 4642 C 738.646 2.45612 -2.37989 0
M  V30 4643 O 738.736 3.30919 -1.51621 0
M  V30 4644 N 738.686 1.10684 -2.08435 0
M  V30 4645 C 738.596 0.0690084 -2.9792 0
M  V30 4646 O 738.646 -1.10553 -2.59426 0
M  V30 4647 C 738.446 0.481522 -4.35345 0
M  V30 4648 C 738.336 -0.618778 -5.36443 0
M  V30 4649 C 738.396 1.78906 -4.67968 0
M  V30 4650 H 735.656 4.797 -7.24003 0
M  V30 4651 H 735.387 3.69802 -5.84429 0
M  V30 4652 H 736.254 6.10356 -5.41441 0
M  V30 4653 H 738.909 4.78651 -3.27911 0
M  V30 4654 H 739.188 3.64957 -6.05871 0
M  V30 4655 H 740.18 4.8868 -5.2125 0
M  V30 4656 H 738.346 5.66726 -7.06352 0
M  V30 4657 H 738.275 2.07737 -5.72367 0
M  V30 4658 H 739.305 -0.754375 -5.86871 0
M  V30 4659 H 737.568 -0.359721 -6.10641 0
M  V30 4660 H 738.056 -1.55533 -4.8581 0
M  V30 4661 H 738.792 0.862651 -1.12037 0
M  V30 4662 P 740.216 7.20834 -5.23717 0
M  V30 4663 O 740.436 8.66104 -5.38572 0
M  V30 4664 O 741.006 6.33544 -6.1349 0
M  V30 4665 O 740.466 6.7751 -3.72168 0
M  V30 4666 C 739.526 7.20825 -2.7076 0
M  V30 4667 C 740.256 7.45864 -1.40599 0
M  V30 4668 O 740.466 6.17651 -0.734225 0
M  V30 4669 C 741.656 8.05808 -1.51899 0
M  V30 4670 O 742.046 8.74358 -0.335205 0
M  V30 4671 C 742.536 6.83093 -1.70294 0
M  V30 4672 C 741.826 5.79992 -0.836974 0
M  V30 4673 N 741.876 4.41864 -1.38293 0
M  V30 4674 H 739.037 8.13644 -3.0377 0
M  V30 4675 H 738.767 6.42788 -2.55485 0
M  V30 4676 H 739.634 8.12039 -0.792769 0
M  V30 4677 P 743.596 8.91 5.14336e-12 0
M  V30 4678 O 743.816 10.1726 0.733694 0
M  V30 4679 O 744.386 8.73148 -1.23936 0
M  V30 4680 O 743.846 7.66872 0.971405 0
M  V30 4681 C 742.906 7.42309 2.04641 0
M  V30 4682 C 743.636 6.86059 3.24661 0
M  V30 4683 O 743.846 5.42847 3.03646 0
M  V30 4684 C 745.036 7.41196 3.50753 0
M  V30 4685 O 745.426 7.27073 4.86816 0
M  V30 4686 C 745.916 6.5273 2.63741 0
M  V30 4687 C 745.206 5.1842 2.73198 0
M  V30 4688 N 745.256 4.38762 1.4784 0
M  V30 4689 H 742.417 8.36803 2.32493 0
M  V30 4690 H 742.147 6.70197 1.71129 0
M  V30 4691 H 743.014 7.03551 4.13168 0
M  V30 4692 P 746.976 7.20834 5.23717 0
M  V30 4693 O 747.196 7.79853 6.57286 0
M  V30 4694 O 747.766 7.79239 4.12957 0
M  V30 4695 O 747.226 5.63315 5.29344 0
M  V30 4696 C 746.286 4.80255 6.01876 0
M  V30 4697 C 747.016 3.64202 6.65911 0
M  V30 4698 O 747.226 2.60694 5.64732 0
M  V30 4699 C 748.416 3.93473 7.1943 0
M  V30 4700 O 748.806 3.02071 8.21205 0
M  V30 4701 C 749.296 3.73047 5.97036 0
M  V30 4702 C 748.586 2.58828 5.25741 0
M  V30 4703 N 748.636 2.68068 3.77503 0
M  V30 4704 C 748.556 3.79715 2.96723 0
M  V30 4705 N 748.636 3.5377 1.68852 0
M  V30 4706 C 748.776 2.15054 1.63254 0
M  V30 4707 C 748.906 1.28964 0.518571 0
M  V30 4708 N 749.026 -0.0538097 0.918425 0
M  V30 4709 C 749.026 -0.494275 2.22578 0
M  V30 4710 N 749.156 -1.81086 2.40434 0
M  V30 4711 N 748.896 0.313645 3.27502 0
M  V30 4712 C 748.776 1.61829 2.91033 0
M  V30 4713 H 745.797 5.40332 6.79951 0
M  V30 4714 H 745.527 4.41613 5.32378 0
M  V30 4715 H 746.394 3.26331 7.47797 0
M  V30 4716 P 750.356 2.75334 8.47391 0
M  V30 4717 O 750.576 2.44571 9.90142 0
M  V30 4718 O 751.146 3.87688 7.92115 0
M  V30 4719 O 750.606 1.4459 7.59357 0
M  V30 4720 C 749.666 0.347608 7.69215 0
M  V30 4721 C 750.396 -0.96767 7.52806 0
M  V30 4722 O 750.606 -1.21036 6.1011 0
M  V30 4723 C 751.796 -1.04544 8.13308 0
M  V30 4724 O 752.186 -2.38311 8.41922 0
M  V30 4725 C 752.676 -0.491279 7.02284 0
M  V30 4726 C 751.966 -0.996264 5.77469 0
M  V30 4727 N 752.016 -0.0501916 4.62973 0
M  V30 4728 C 751.936 1.32786 4.63244 0
M  V30 4729 N 752.016 1.86957 3.44545 0
M  V30 4730 C 752.156 0.780241 2.58481 0
M  V30 4731 C 752.286 0.738536 1.17757 0
M  V30 4732 N 752.406 -0.58337 0.711393 0
M  V30 4733 C 752.406 -1.70816 1.51017 0
M  V30 4734 N 752.536 -2.87826 0.880757 0
M  V30 4735 N 752.276 -1.67126 2.8339 0
M  V30 4736 C 752.156 -0.401421 3.30572 0
M  V30 4737 H 749.177 0.374722 8.67691 0
M  V30 4738 H 748.907 0.443485 6.90277 0
M  V30 4739 H 749.774 -1.75537 7.96793 0
M  V30 4740 P 753.736 -2.75334 8.47391 0
M  V30 4741 O 753.956 -3.84128 9.44797 0
M  V30 4742 O 754.526 -1.51947 8.68712 0
M  V30 4743 O 753.986 -3.29363 6.99321 0
M  V30 4744 C 753.046 -4.24011 6.4274 0
M  V30 4745 C 753.776 -5.20775 5.52155 0
M  V30 4746 O 753.986 -4.56534 4.22446 0
M  V30 4747 C 755.176 -5.62629 5.96531 0
M  V30 4748 O 755.566 -6.87667 5.41053 0
M  V30 4749 C 756.056 -4.52537 5.39283 0
M  V30 4750 C 755.346 -4.20027 4.08623 0
M  V30 4751 N 755.396 -2.76189 3.71603 0
M  V30 4752 C 755.316 -1.64862 4.52822 0
M  V30 4753 N 755.396 -0.512671 3.88633 0
M  V30 4754 C 755.536 -0.888083 2.54977 0
M  V30 4755 C 755.666 -0.094668 1.38677 0
M  V30 4756 O 755.686 1.13053 1.28163 0
M  V30 4757 N 755.786 -0.890102 0.232633 0
M  V30 4758 C 755.786 -2.26958 0.21772 0
M  V30 4759 N 755.916 -2.84626 -0.97925 0
M  V30 4760 N 755.656 -3.0178 1.31033 0
M  V30 4761 C 755.536 -2.26781 2.43843 0
M  V30 4762 H 752.557 -4.797 7.24003 0
M  V30 4763 H 752.287 -3.69856 5.84513 0
M  V30 4764 H 753.154 -6.10356 5.41441 0
M  V30 4765 H 755.809 -4.79061 3.27488 0
M  V30 4766 H 756.088 -3.64906 6.05785 0
M  V30 4767 H 757.08 -4.8868 5.2125 0
M  V30 4768 H 755.246 -5.66726 7.06352 0
M  V30 4769 H 755.197 -1.71169 5.60966 0
M  V30 4770 H 755.879 -0.419134 -0.644739 0
M  V30 4771 H 755.916 -3.87332 -1.06098 0
M  V30 4772 H 756.017 -2.26417 -1.82483 0
M  V30 4773 P 757.116 -7.20834 5.23717 0
M  V30 4774 O 757.336 -8.66104 5.38572 0
M  V30 4775 O 757.906 -6.33544 6.1349 0
M  V30 4776 O 757.366 -6.7751 3.72168 0
M  V30 4777 C 756.426 -7.20825 2.7076 0
M  V30 4778 C 757.156 -7.45864 1.40599 0
M  V30 4779 O 757.366 -6.17651 0.734225 0
M  V30 4780 C 758.556 -8.05808 1.51899 0
M  V30 4781 O 758.946 -8.74358 0.335205 0
M  V30 4782 C 759.436 -6.83093 1.70294 0
M  V30 4783 C 758.726 -5.79992 0.836974 0
M  V30 4784 N 758.776 -4.41864 1.38293 0
M  V30 4785 H 755.937 -8.13644 3.0377 0
M  V30 4786 H 755.667 -6.42788 2.55485 0
M  V30 4787 H 756.534 -8.12039 0.792769 0
M  V30 4788 P 760.496 -8.91 -5.30054e-12 0
M  V30 4789 O 760.716 -10.1736 -0.733766 0
M  V30 4790 O 761.286 -8.73247 1.2395 0
M  V30 4791 O 760.746 -7.66872 -0.971405 0
M  V30 4792 C 759.806 -7.42309 -2.04641 0
M  V30 4793 C 760.536 -6.86059 -3.24661 0
M  V30 4794 O 760.746 -5.42847 -3.03646 0
M  V30 4795 C 761.936 -7.41196 -3.50753 0
M  V30 4796 O 762.326 -7.27073 -4.86816 0
M  V30 4797 C 762.816 -6.5273 -2.63741 0
M  V30 4798 C 762.106 -5.1842 -2.73198 0
M  V30 4799 N 762.156 -4.38668 -1.47808 0
M  V30 4800 C 762.306 -3.00789 -1.58511 0
M  V30 4801 O 762.396 -2.50116 -2.71298 0
M  V30 4802 N 762.356 -2.29703 -0.253698 0
M  V30 4803 C 762.256 -2.84269 0.750133 0
M  V30 4804 N 762.306 -2.06951 1.82612 0
M  V30 4805 C 762.106 -4.25803 0.889776 0
M  V30 4806 C 762.056 -4.98326 -0.259363 0
M  V30 4807 H 759.316 -8.36707 -2.32466 0
M  V30 4808 H 759.047 -6.701 -1.71105 0
M  V30 4809 H 759.914 -7.03638 -4.13219 0
M  V30 4810 H 762.569 -4.59852 -3.53955 0
M  V30 4811 H 762.848 -6.88995 -1.59871 0
M  V30 4812 H 763.84 -6.46749 -3.03687 0
M  V30 4813 H 762.006 -8.46908 -3.20714 0
M  V30 4814 H 761.934 -6.06349 -0.206238 0
M  V30 4815 H 762.036 -4.73163 1.86796 0
M  V30 4816 H 762.424 -1.05099 1.72271 0
M  V30 4817 H 762.227 -2.48716 2.76361 0
M  V30 4818 P 763.875 -7.20834 -5.23717 0
M  V30 4819 O 764.095 -7.79853 -6.57286 0
M  V30 4820 O 764.665 -7.79239 -4.12957 0
M  V30 4821 O 764.125 -5.63315 -5.29344 0
M  V30 4822 C 763.185 -4.80255 -6.01876 0
M  V30 4823 C 763.915 -3.64202 -6.65911 0
M  V30 4824 O 764.125 -2.60694 -5.64732 0
M  V30 4825 C 765.315 -3.93473 -7.1943 0
M  V30 4826 O 765.705 -3.02071 -8.21205 0
M  V30 4827 C 766.195 -3.73047 -5.97036 0
M  V30 4828 C 765.485 -2.58828 -5.25741 0
M  V30 4829 N 765.535 -2.68068 -3.77503 0
M  V30 4830 H 762.696 -5.40332 -6.79951 0
M  V30 4831 H 762.426 -4.41613 -5.32378 0
M  V30 4832 H 763.293 -3.26331 -7.47797 0
M  V30 4833 P 767.255 -2.75334 -8.47391 0
M  V30 4834 O 767.475 -2.44571 -9.90142 0
M  V30 4835 O 768.045 -3.87688 -7.92115 0
M  V30 4836 O 767.505 -1.4459 -7.59357 0
M  V30 4837 C 766.565 -0.347608 -7.69215 0
M  V30 4838 C 767.295 0.96767 -7.52806 0
M  V30 4839 O 767.505 1.21036 -6.1011 0
M  V30 4840 C 768.695 1.04544 -8.13308 0
M  V30 4841 O 769.085 2.38311 -8.41922 0
M  V30 4842 C 769.575 0.491279 -7.02284 0
M  V30 4843 C 768.865 0.996264 -5.77469 0
M  V30 4844 N 768.915 0.0501916 -4.62973 0
M  V30 4845 H 766.076 -0.374722 -8.67691 0
M  V30 4846 H 765.806 -0.443485 -6.90277 0
M  V30 4847 H 766.673 1.75537 -7.96793 0
M  V30 4848 P 770.635 2.75334 -8.47391 0
M  V30 4849 O 770.855 3.84166 -9.4489 0
M  V30 4850 O 771.425 1.51964 -8.6881 0
M  V30 4851 O 770.885 3.29363 -6.99321 0
M  V30 4852 C 769.945 4.23956 -6.42656 0
M  V30 4853 C 770.675 5.20775 -5.52155 0
M  V30 4854 O 770.885 4.56534 -4.22446 0
M  V30 4855 C 772.075 5.62629 -5.96531 0
M  V30 4856 O 772.465 6.87667 -5.41053 0
M  V30 4857 C 772.955 4.52537 -5.39283 0
M  V30 4858 C 772.245 4.20027 -4.08623 0
M  V30 4859 N 772.295 2.7613 -3.71522 0
M  V30 4860 C 772.445 2.45612 -2.37989 0
M  V30 4861 O 772.535 3.30919 -1.51621 0
M  V30 4862 N 772.485 1.10684 -2.08435 0
M  V30 4863 C 772.395 0.0690084 -2.9792 0
M  V30 4864 O 772.445 -1.10553 -2.59426 0
M  V30 4865 C 772.245 0.481522 -4.35345 0
M  V30 4866 C 772.135 -0.618778 -5.36443 0
M  V30 4867 C 772.195 1.78906 -4.67968 0
M  V30 4868 H 769.455 4.797 -7.24003 0
M  V30 4869 H 769.186 3.69802 -5.84429 0
M  V30 4870 H 770.053 6.10356 -5.41441 0
M  V30 4871 H 772.708 4.78651 -3.27911 0
M  V30 4872 H 772.987 3.64957 -6.05871 0
M  V30 4873 H 773.979 4.8868 -5.2125 0
M  V30 4874 H 772.145 5.66726 -7.06352 0
M  V30 4875 H 772.074 2.07737 -5.72367 0
M  V30 4876 H 773.104 -0.754375 -5.86871 0
M  V30 4877 H 771.367 -0.359721 -6.10641 0
M  V30 4878 H 771.855 -1.55533 -4.8581 0
M  V30 4879 H 772.591 0.862651 -1.12037 0
M  V30 4880 P 774.015 7.20834 -5.23717 0
M  V30 4881 O 774.235 8.66104 -5.38572 0
M  V30 4882 O 774.805 6.33544 -6.1349 0
M  V30 4883 O 774.265 6.7751 -3.72168 0
M  V30 4884 C 773.325 7.20825 -2.7076 0
M  V30 4885 C 774.055 7.45864 -1.40599 0
M  V30 4886 O 774.265 6.17651 -0.734225 0
M  V30 4887 C 775.455 8.05808 -1.51899 0
M  V30 4888 O 775.845 8.74358 -0.335205 0
M  V30 4889 C 776.335 6.83093 -1.70294 0
M  V30 4890 C 775.625 5.79992 -0.836974 0
M  V30 4891 N 775.675 4.41864 -1.38293 0
M  V30 4892 H 772.836 8.13644 -3.0377 0
M  V30 4893 H 772.566 6.42788 -2.55485 0
M  V30 4894 H 773.433 8.12039 -0.792769 0
M  V30 4895 P 777.395 8.91 5.45772e-12 0
M  V30 4896 O 777.615 10.1726 0.733694 0
M  V30 4897 O 778.185 8.73148 -1.23936 0
M  V30 4898 O 777.645 7.66872 0.971405 0
M  V30 4899 C 776.705 7.42309 2.04641 0
M  V30 4900 C 777.435 6.86059 3.24661 0
M  V30 4901 O 777.645 5.42847 3.03646 0
M  V30 4902 C 778.835 7.41196 3.50753 0
M  V30 4903 O 779.225 7.27073 4.86816 0
M  V30 4904 C 779.715 6.5273 2.63741 0
M  V30 4905 C 779.005 5.1842 2.73198 0
M  V30 4906 N 779.055 4.38762 1.4784 0
M  V30 4907 H 776.216 8.36803 2.32493 0
M  V30 4908 H 775.946 6.70197 1.71129 0
M  V30 4909 H 776.813 7.03551 4.13168 0
M  V30 4910 P 780.775 7.20834 5.23717 0
M  V30 4911 O 780.995 7.79853 6.57286 0
M  V30 4912 O 781.565 7.79239 4.12957 0
M  V30 4913 O 781.025 5.63315 5.29344 0
M  V30 4914 C 780.085 4.80255 6.01876 0
M  V30 4915 C 780.815 3.64202 6.65911 0
M  V30 4916 O 781.025 2.60694 5.64732 0
M  V30 4917 C 782.215 3.93473 7.1943 0
M  V30 4918 O 782.605 3.02071 8.21205 0
M  V30 4919 C 783.095 3.73047 5.97036 0
M  V30 4920 C 782.385 2.58828 5.25741 0
M  V30 4921 N 782.435 2.68068 3.77503 0
M  V30 4922 H 779.596 5.40332 6.79951 0
M  V30 4923 H 779.326 4.41613 5.32378 0
M  V30 4924 H 780.193 3.26331 7.47797 0
M  V30 4925 P 784.155 2.75334 8.47391 0
M  V30 4926 O 784.375 2.44571 9.90142 0
M  V30 4927 O 784.945 3.87688 7.92115 0
M  V30 4928 O 784.405 1.4459 7.59357 0
M  V30 4929 C 783.465 0.347608 7.69215 0
M  V30 4930 C 784.195 -0.96767 7.52806 0
M  V30 4931 O 784.405 -1.21036 6.1011 0
M  V30 4932 C 785.595 -1.04544 8.13308 0
M  V30 4933 O 785.985 -2.38311 8.41922 0
M  V30 4934 C 786.475 -0.491279 7.02284 0
M  V30 4935 C 785.765 -0.996264 5.77469 0
M  V30 4936 N 785.815 -0.0501916 4.62973 0
M  V30 4937 H 782.976 0.374722 8.67691 0
M  V30 4938 H 782.706 0.443485 6.90277 0
M  V30 4939 H 783.573 -1.75537 7.96793 0
M  V30 4940 P 787.535 -2.75334 8.47391 0
M  V30 4941 O 787.755 -3.84128 9.44797 0
M  V30 4942 O 788.325 -1.51947 8.68712 0
M  V30 4943 O 787.785 -3.29363 6.99321 0
M  V30 4944 C 786.845 -4.24011 6.4274 0
M  V30 4945 C 787.575 -5.20775 5.52155 0
M  V30 4946 O 787.785 -4.56534 4.22446 0
M  V30 4947 C 788.975 -5.62629 5.96531 0
M  V30 4948 O 789.365 -6.87667 5.41053 0
M  V30 4949 C 789.855 -4.52537 5.39283 0
M  V30 4950 C 789.145 -4.20027 4.08623 0
M  V30 4951 N 789.195 -2.76189 3.71603 0
M  V30 4952 H 786.356 -4.797 7.24003 0
M  V30 4953 H 786.086 -3.69856 5.84513 0
M  V30 4954 H 786.953 -6.10356 5.41441 0
M  V30 4955 P 790.915 -7.20834 5.23717 0
M  V30 4956 O 791.135 -8.66104 5.38572 0
M  V30 4957 O 791.705 -6.33544 6.1349 0
M  V30 4958 O 791.165 -6.7751 3.72168 0
M  V30 4959 C 790.225 -7.20825 2.7076 0
M  V30 4960 C 790.955 -7.45864 1.40599 0
M  V30 4961 O 791.165 -6.17651 0.734225 0
M  V30 4962 C 792.355 -8.05808 1.51899 0
M  V30 4963 O 792.745 -8.74358 0.335205 0
M  V30 4964 C 793.235 -6.83093 1.70294 0
M  V30 4965 C 792.525 -5.79992 0.836974 0
M  V30 4966 N 792.575 -4.41864 1.38293 0
M  V30 4967 H 789.736 -8.13644 3.0377 0
M  V30 4968 H 789.466 -6.42788 2.55485 0
M  V30 4969 H 790.333 -8.12039 0.792769 0
M  V30 4970 P 794.295 -8.91 -5.6149e-12 0
M  V30 4971 O 794.515 -10.1726 -0.733694 0
M  V30 4972 O 795.085 -8.73148 1.23936 0
M  V30 4973 O 794.545 -7.66872 -0.971405 0
M  V30 4974 C 793.605 -7.42309 -2.04641 0
M  V30 4975 C 794.335 -6.86059 -3.24661 0
M  V30 4976 O 794.545 -5.42847 -3.03646 0
M  V30 4977 C 795.735 -7.41196 -3.50753 0
M  V30 4978 O 796.125 -7.27073 -4.86816 0
M  V30 4979 C 796.615 -6.5273 -2.63741 0
M  V30 4980 C 795.905 -5.1842 -2.73198 0
M  V30 4981 N 795.955 -4.38762 -1.4784 0
M  V30 4982 H 793.116 -8.36803 -2.32493 0
M  V30 4983 H 792.846 -6.70197 -1.71129 0
M  V30 4984 H 793.713 -7.03551 -4.13168 0
M  V30 4985 P 797.675 -7.20834 -5.23717 0
M  V30 4986 O 797.895 -7.79853 -6.57286 0
M  V30 4987 O 798.465 -7.79239 -4.12957 0
M  V30 4988 O 797.925 -5.63315 -5.29344 0
M  V30 4989 C 796.985 -4.80255 -6.01876 0
M  V30 4990 C 797.715 -3.64202 -6.65911 0
M  V30 4991 O 797.925 -2.60694 -5.64732 0
M  V30 4992 C 799.115 -3.93473 -7.1943 0
M  V30 4993 O 799.505 -3.02071 -8.21205 0
M  V30 4994 C 799.995 -3.73047 -5.97036 0
M  V30 4995 C 799.285 -2.58828 -5.25741 0
M  V30 4996 N 799.335 -2.68068 -3.77503 0
M  V30 4997 H 796.496 -5.40332 -6.79951 0
M  V30 4998 H 796.226 -4.41613 -5.32378 0
M  V30 4999 H 797.093 -3.26331 -7.47797 0
M  V30 5000 P 801.055 -2.75334 -8.47391 0
M  V30 5001 O 801.275 -2.44571 -9.90142 0
M  V30 5002 O 801.845 -3.87688 -7.92115 0
M  V30 5003 O 801.305 -1.4459 -7.59357 0
M  V30 5004 C 800.365 -0.347608 -7.69215 0
M  V30 5005 C 801.095 0.96767 -7.52806 0
M  V30 5006 O 801.305 1.21036 -6.1011 0
M  V30 5007 C 802.495 1.04544 -8.13308 0
M  V30 5008 O 802.885 2.38311 -8.41922 0
M  V30 5009 C 803.375 0.491279 -7.02284 0
M  V30 5010 C 802.665 0.996264 -5.77469 0
M  V30 5011 N 802.715 0.0501916 -4.62973 0
M  V30 5012 H 799.876 -0.374722 -8.67691 0
M  V30 5013 H 799.606 -0.443485 -6.90277 0
M  V30 5014 H 800.473 1.75537 -7.96793 0
M  V30 5015 P 804.435 2.75334 -8.47391 0
M  V30 5016 O 804.655 3.84128 -9.44797 0
M  V30 5017 O 805.225 1.51947 -8.68712 0
M  V30 5018 O 804.685 3.29363 -6.99321 0
M  V30 5019 C 803.745 4.24011 -6.4274 0
M  V30 5020 C 804.475 5.20775 -5.52155 0
M  V30 5021 O 804.685 4.56534 -4.22446 0
M  V30 5022 C 805.875 5.62629 -5.96531 0
M  V30 5023 O 806.265 6.87667 -5.41053 0
M  V30 5024 C 806.755 4.52537 -5.39283 0
M  V30 5025 C 806.045 4.20027 -4.08623 0
M  V30 5026 N 806.095 2.76189 -3.71603 0
M  V30 5027 H 803.256 4.797 -7.24003 0
M  V30 5028 H 802.986 3.69856 -5.84513 0
M  V30 5029 H 803.853 6.10356 -5.41441 0
M  V30 5030 P 807.815 7.20834 -5.23717 0
M  V30 5031 O 808.035 8.66274 -5.38678 0
M  V30 5032 O 808.605 6.33687 -6.13629 0
M  V30 5033 O 808.065 6.7751 -3.72168 0
M  V30 5034 C 807.125 7.20919 -2.70795 0
M  V30 5035 C 807.855 7.45864 -1.40599 0
M  V30 5036 O 808.065 6.17751 -0.734343 0
M  V30 5037 C 809.255 8.05906 -1.51917 0
M  V30 5038 O 809.645 8.74358 -0.335205 0
M  V30 5039 C 810.135 6.83093 -1.70294 0
M  V30 5040 C 809.425 5.79992 -0.836974 0
M  V30 5041 N 809.475 4.41864 -1.38293 0
M  V30 5042 H 806.637 8.13738 -3.03804 0
M  V30 5043 H 806.365 6.42974 -2.55559 0
M  V30 5044 H 807.233 8.12139 -0.792866 0
M  V30 5045 H 809.888 5.80178 0.160643 0
M  V30 5046 H 810.168 6.51379 -2.75643 0
M  V30 5047 H 811.159 7.01832 -1.3448 0
M  V30 5048 H 809.325 8.73771 -2.38364 0
M  V30 5049 P 811.195 8.91 5.77209e-12 0
M  V30 5050 O 811.415 10.1726 0.733694 0
M  V30 5051 O 811.985 8.73148 -1.23936 0
M  V30 5052 O 811.445 7.66872 0.971405 0
M  V30 5053 C 810.505 7.42309 2.04641 0
M  V30 5054 C 811.235 6.86059 3.24661 0
M  V30 5055 O 811.445 5.42847 3.03646 0
M  V30 5056 C 812.635 7.41196 3.50753 0
M  V30 5057 O 813.025 7.27073 4.86816 0
M  V30 5058 C 813.515 6.5273 2.63741 0
M  V30 5059 C 812.805 5.1842 2.73198 0
M  V30 5060 N 812.855 4.38762 1.4784 0
M  V30 5061 H 810.016 8.36803 2.32493 0
M  V30 5062 H 809.746 6.70197 1.71129 0
M  V30 5063 H 810.613 7.03551 4.13168 0
M  V30 5064 P 814.575 7.20834 5.23717 0
M  V30 5065 O 814.795 7.79853 6.57286 0
M  V30 5066 O 815.365 7.79239 4.12957 0
M  V30 5067 O 814.825 5.63315 5.29344 0
M  V30 5068 C 813.885 4.80255 6.01876 0
M  V30 5069 C 814.615 3.64202 6.65911 0
M  V30 5070 O 814.825 2.60694 5.64732 0
M  V30 5071 C 816.015 3.93473 7.1943 0
M  V30 5072 O 816.405 3.02071 8.21205 0
M  V30 5073 C 816.895 3.73047 5.97036 0
M  V30 5074 C 816.185 2.58828 5.25741 0
M  V30 5075 N 816.235 2.68068 3.77503 0
M  V30 5076 H 813.396 5.40332 6.79951 0
M  V30 5077 H 813.126 4.41613 5.32378 0
M  V30 5078 H 813.993 3.26331 7.47797 0
M  V30 5079 P 817.955 2.75334 8.47391 0
M  V30 5080 O 818.175 2.44571 9.90142 0
M  V30 5081 O 818.745 3.87688 7.92115 0
M  V30 5082 O 818.205 1.4459 7.59357 0
M  V30 5083 C 817.265 0.347608 7.69215 0
M  V30 5084 C 817.995 -0.96767 7.52806 0
M  V30 5085 O 818.205 -1.21036 6.1011 0
M  V30 5086 C 819.395 -1.04544 8.13308 0
M  V30 5087 O 819.785 -2.38311 8.41922 0
M  V30 5088 C 820.275 -0.491279 7.02284 0
M  V30 5089 C 819.565 -0.996264 5.77469 0
M  V30 5090 N 819.615 -0.0501916 4.62973 0
M  V30 5091 H 816.776 0.374722 8.67691 0
M  V30 5092 H 816.506 0.443485 6.90277 0
M  V30 5093 H 817.373 -1.75537 7.96793 0
M  V30 5094 P 821.335 -2.75334 8.47391 0
M  V30 5095 O 821.555 -3.84166 9.4489 0
M  V30 5096 O 822.125 -1.51964 8.6881 0
M  V30 5097 O 821.585 -3.29363 6.99321 0
M  V30 5098 C 820.645 -4.23956 6.42656 0
M  V30 5099 C 821.375 -5.20775 5.52155 0
M  V30 5100 O 821.585 -4.56534 4.22446 0
M  V30 5101 C 822.775 -5.62629 5.96531 0
M  V30 5102 O 823.165 -6.87667 5.41053 0
M  V30 5103 C 823.655 -4.52537 5.39283 0
M  V30 5104 C 822.945 -4.20027 4.08623 0
M  V30 5105 N 822.995 -2.7613 3.71522 0
M  V30 5106 C 823.145 -2.45612 2.37989 0
M  V30 5107 O 823.235 -3.30919 1.51621 0
M  V30 5108 N 823.185 -1.10684 2.08435 0
M  V30 5109 C 823.095 -0.0690084 2.9792 0
M  V30 5110 C 822.945 -0.481522 4.35345 0
M  V30 5111 C 822.895 -1.78906 4.67968 0
M  V30 5112 H 820.155 -4.797 7.24003 0
M  V30 5113 H 819.886 -3.69802 5.84429 0
M  V30 5114 H 820.753 -6.10356 5.41441 0
M  V30 5115 H 823.408 -4.78651 3.27911 0
M  V30 5116 H 823.687 -3.64957 6.05871 0
M  V30 5117 H 824.679 -4.8868 5.2125 0
M  V30 5118 H 822.845 -5.66726 7.06352 0
M  V30 5119 H 822.774 -2.07737 5.72367 0
M  V30 5120 P 824.715 -7.20834 5.23717 0
M  V30 5121 O 824.935 -8.66274 5.38678 0
M  V30 5122 O 825.505 -6.33687 6.13629 0
M  V30 5123 O 824.965 -6.7751 3.72168 0
M  V30 5124 C 824.025 -7.20919 2.70795 0
M  V30 5125 C 824.755 -7.45864 1.40599 0
M  V30 5126 O 824.965 -6.17751 0.734343 0
M  V30 5127 C 826.155 -8.05906 1.51917 0
M  V30 5128 O 826.545 -8.74358 0.335205 0
M  V30 5129 C 827.035 -6.83093 1.70294 0
M  V30 5130 C 826.325 -5.79992 0.836974 0
M  V30 5131 N 826.375 -4.41864 1.38293 0
M  V30 5132 H 823.537 -8.13738 3.03804 0
M  V30 5133 H 823.265 -6.42974 2.55559 0
M  V30 5134 H 824.133 -8.12139 0.792866 0
M  V30 5135 H 826.788 -5.80178 -0.160643 0
M  V30 5136 H 827.068 -6.51379 2.75643 0
M  V30 5137 H 828.059 -7.01832 1.3448 0
M  V30 5138 H 826.225 -8.73771 2.38364 0
M  V30 5139 P 828.095 -8.91 -5.92927e-12 0
M  V30 5140 O 828.315 -10.1726 -0.733694 0
M  V30 5141 O 828.885 -8.73148 1.23936 0
M  V30 5142 O 828.345 -7.66872 -0.971405 0
M  V30 5143 C 827.405 -7.42309 -2.04641 0
M  V30 5144 C 828.135 -6.86059 -3.24661 0
M  V30 5145 O 828.345 -5.42847 -3.03646 0
M  V30 5146 C 829.535 -7.41196 -3.50753 0
M  V30 5147 O 829.925 -7.27073 -4.86816 0
M  V30 5148 C 830.415 -6.5273 -2.63741 0
M  V30 5149 C 829.705 -5.1842 -2.73198 0
M  V30 5150 N 829.755 -4.38762 -1.4784 0
M  V30 5151 H 826.916 -8.36803 -2.32493 0
M  V30 5152 H 826.646 -6.70197 -1.71129 0
M  V30 5153 H 827.513 -7.03551 -4.13168 0
M  V30 5154 P 831.475 -7.20834 -5.23717 0
M  V30 5155 O 831.695 -7.79853 -6.57286 0
M  V30 5156 O 832.265 -7.79239 -4.12957 0
M  V30 5157 O 831.725 -5.63315 -5.29344 0
M  V30 5158 C 830.785 -4.80255 -6.01876 0
M  V30 5159 C 831.515 -3.64202 -6.65911 0
M  V30 5160 O 831.725 -2.60694 -5.64732 0
M  V30 5161 C 832.915 -3.93473 -7.1943 0
M  V30 5162 O 833.305 -3.02071 -8.21205 0
M  V30 5163 C 833.795 -3.73047 -5.97036 0
M  V30 5164 C 833.085 -2.58828 -5.25741 0
M  V30 5165 N 833.135 -2.68068 -3.77503 0
M  V30 5166 H 830.296 -5.40332 -6.79951 0
M  V30 5167 H 830.026 -4.41613 -5.32378 0
M  V30 5168 H 830.893 -3.26331 -7.47797 0
M  V30 5169 P 834.855 -2.75334 -8.47391 0
M  V30 5170 O 835.075 -2.44571 -9.90142 0
M  V30 5171 O 835.645 -3.87688 -7.92115 0
M  V30 5172 O 835.105 -1.4459 -7.59357 0
M  V30 5173 C 834.165 -0.347608 -7.69215 0
M  V30 5174 C 834.895 0.96767 -7.52806 0
M  V30 5175 O 835.105 1.21036 -6.1011 0
M  V30 5176 C 836.295 1.04544 -8.13308 0
M  V30 5177 O 836.685 2.38311 -8.41922 0
M  V30 5178 C 837.175 0.491279 -7.02284 0
M  V30 5179 C 836.465 0.996264 -5.77469 0
M  V30 5180 N 836.515 0.0501916 -4.62973 0
M  V30 5181 C 836.435 -1.32786 -4.63244 0
M  V30 5182 N 836.515 -1.86957 -3.44545 0
M  V30 5183 C 836.655 -0.780241 -2.58481 0
M  V30 5184 C 836.785 -0.738536 -1.17757 0
M  V30 5185 O 836.805 -1.66794 -0.372349 0
M  V30 5186 N 836.905 0.58337 -0.711393 0
M  V30 5187 C 836.905 1.70816 -1.51017 0
M  V30 5188 N 837.035 2.87826 -0.880757 0
M  V30 5189 N 836.775 1.67126 -2.8339 0
M  V30 5190 C 836.655 0.401421 -3.30572 0
M  V30 5191 H 833.676 -0.374722 -8.67691 0
M  V30 5192 H 833.406 -0.443485 -6.90277 0
M  V30 5193 H 834.273 1.75537 -7.96793 0
M  V30 5194 H 836.928 1.95076 -5.46529 0
M  V30 5195 H 837.207 -0.608565 -7.04577 0
M  V30 5196 H 838.199 0.889672 -7.08939 0
M  V30 5197 H 836.365 0.43308 -9.04564 0
M  V30 5198 H 836.316 -1.91249 -5.54442 0
M  V30 5199 H 836.998 0.718054 0.275244 0
M  V30 5200 H 837.035 3.75721 -1.41832 0
M  V30 5201 H 837.136 2.90436 0.145468 0
M  V30 5202 P 838.235 2.75334 -8.47391 0
M  V30 5203 O 838.455 3.84128 -9.44797 0
M  V30 5204 O 839.025 1.51947 -8.68712 0
M  V30 5205 O 838.485 3.29363 -6.99321 0
M  V30 5206 C 837.545 4.24011 -6.4274 0
M  V30 5207 C 838.275 5.20775 -5.52155 0
M  V30 5208 O 838.485 4.56534 -4.22446 0
M  V30 5209 C 839.675 5.62629 -5.96531 0
M  V30 5210 O 840.065 6.87667 -5.41053 0
M  V30 5211 C 840.555 4.52537 -5.39283 0
M  V30 5212 C 839.845 4.20027 -4.08623 0
M  V30 5213 N 839.895 2.76189 -3.71603 0
M  V30 5214 H 837.056 4.797 -7.24003 0
M  V30 5215 H 836.786 3.69856 -5.84513 0
M  V30 5216 H 837.653 6.10356 -5.41441 0
M  V30 5217 P 841.615 7.20834 -5.23717 0
M  V30 5218 O 841.835 8.66104 -5.38572 0
M  V30 5219 O 842.405 6.33544 -6.1349 0
M  V30 5220 O 841.865 6.7751 -3.72168 0
M  V30 5221 C 840.925 7.20825 -2.7076 0
M  V30 5222 C 841.655 7.45864 -1.40599 0
M  V30 5223 O 841.865 6.17651 -0.734225 0
M  V30 5224 C 843.055 8.05808 -1.51899 0
M  V30 5225 O 843.445 8.74358 -0.335205 0
M  V30 5226 C 843.935 6.83093 -1.70294 0
M  V30 5227 C 843.225 5.79992 -0.836974 0
M  V30 5228 N 843.275 4.41864 -1.38293 0
M  V30 5229 H 840.436 8.13644 -3.0377 0
M  V30 5230 H 840.166 6.42788 -2.55485 0
M  V30 5231 H 841.033 8.12039 -0.792769 0
M  V30 5232 P 844.995 8.91 6.08645e-12 0
M  V30 5233 O 845.215 10.1726 0.733694 0
M  V30 5234 O 845.785 8.73148 -1.23936 0
M  V30 5235 O 845.245 7.66872 0.971405 0
M  V30 5236 C 844.305 7.42309 2.04641 0
M  V30 5237 C 845.035 6.86059 3.24661 0
M  V30 5238 O 845.245 5.42847 3.03646 0
M  V30 5239 C 846.435 7.41196 3.50753 0
M  V30 5240 O 846.825 7.27073 4.86816 0
M  V30 5241 C 847.315 6.5273 2.63741 0
M  V30 5242 C 846.605 5.1842 2.73198 0
M  V30 5243 N 846.655 4.38762 1.4784 0
M  V30 5244 H 843.816 8.36803 2.32493 0
M  V30 5245 H 843.546 6.70197 1.71129 0
M  V30 5246 H 844.413 7.03551 4.13168 0
M  V30 5247 P 848.375 7.20834 5.23717 0
M  V30 5248 O 848.595 7.7993 6.57351 0
M  V30 5249 O 849.165 7.79328 4.13004 0
M  V30 5250 O 848.625 5.63315 5.29344 0
M  V30 5251 C 847.685 4.80255 6.01876 0
M  V30 5252 C 848.415 3.64202 6.65911 0
M  V30 5253 O 848.625 2.60694 5.64732 0
M  V30 5254 C 849.815 3.93473 7.1943 0
M  V30 5255 O 850.205 3.02071 8.21205 0
M  V30 5256 C 850.695 3.73047 5.97036 0
M  V30 5257 C 849.985 2.58828 5.25741 0
M  V30 5258 N 850.035 2.6801 3.77422 0
M  V30 5259 C 850.185 1.50173 3.05038 0
M  V30 5260 O 850.275 0.428832 3.665 0
M  V30 5261 N 850.235 1.70922 1.55541 0
M  V30 5262 C 850.135 2.7407 1.06402 0
M  V30 5263 N 850.185 2.74764 -0.260931 0
M  V30 5264 C 849.985 3.96781 1.78296 0
M  V30 5265 C 849.935 3.87909 3.13891 0
M  V30 5266 H 847.195 5.4027 6.79873 0
M  V30 5267 H 846.926 4.41549 5.32301 0
M  V30 5268 H 847.793 3.26371 7.47889 0
M  V30 5269 H 850.448 1.63978 5.5665 0
M  V30 5270 H 850.727 4.63439 5.3432 0
M  V30 5271 H 851.719 3.44728 6.25838 0
M  V30 5272 H 849.885 4.96652 7.57263 0
M  V30 5273 H 849.813 4.78425 3.73088 0
M  V30 5274 H 849.915 4.92593 1.26997 0
M  V30 5275 H 850.303 1.86285 -0.77595 0
M  V30 5276 H 850.106 3.63657 -0.773896 0
M  V30 5277 P 851.755 2.75334 8.47391 0
M  V30 5278 O 851.975 2.44571 9.90142 0
M  V30 5279 O 852.545 3.87688 7.92115 0
M  V30 5280 O 852.005 1.4459 7.59357 0
M  V30 5281 C 851.065 0.347608 7.69215 0
M  V30 5282 C 851.795 -0.96767 7.52806 0
M  V30 5283 O 852.005 -1.21036 6.1011 0
M  V30 5284 C 853.195 -1.04544 8.13308 0
M  V30 5285 O 853.585 -2.38311 8.41922 0
M  V30 5286 C 854.075 -0.491279 7.02284 0
M  V30 5287 C 853.365 -0.996264 5.77469 0
M  V30 5288 N 853.415 -0.0501916 4.62973 0
M  V30 5289 H 850.576 0.374722 8.67691 0
M  V30 5290 H 850.306 0.443485 6.90277 0
M  V30 5291 H 851.173 -1.75537 7.96793 0
M  V30 5292 P 855.135 -2.75334 8.47391 0
M  V30 5293 O 855.355 -3.84128 9.44797 0
M  V30 5294 O 855.925 -1.51947 8.68712 0
M  V30 5295 O 855.385 -3.29363 6.99321 0
M  V30 5296 C 854.445 -4.24011 6.4274 0
M  V30 5297 C 855.175 -5.20775 5.52155 0
M  V30 5298 O 855.385 -4.56534 4.22446 0
M  V30 5299 C 856.575 -5.62629 5.96531 0
M  V30 5300 O 856.965 -6.87667 5.41053 0
M  V30 5301 C 857.455 -4.52537 5.39283 0
M  V30 5302 C 856.745 -4.20027 4.08623 0
M  V30 5303 N 856.795 -2.76189 3.71603 0
M  V30 5304 H 853.956 -4.797 7.24003 0
M  V30 5305 H 853.686 -3.69856 5.84513 0
M  V30 5306 H 854.553 -6.10356 5.41441 0
M  V30 5307 P 858.515 -7.20834 5.23717 0
M  V30 5308 O 858.735 -8.66104 5.38572 0
M  V30 5309 O 859.305 -6.33544 6.1349 0
M  V30 5310 O 858.765 -6.7751 3.72168 0
M  V30 5311 C 857.825 -7.20825 2.7076 0
M  V30 5312 C 858.555 -7.45864 1.40599 0
M  V30 5313 O 858.765 -6.17651 0.734225 0
M  V30 5314 C 859.955 -8.05808 1.51899 0
M  V30 5315 O 860.345 -8.74358 0.335205 0
M  V30 5316 C 860.835 -6.83093 1.70294 0
M  V30 5317 C 860.125 -5.79992 0.836974 0
M  V30 5318 N 860.175 -4.41864 1.38293 0
M  V30 5319 H 857.336 -8.13644 3.0377 0
M  V30 5320 H 857.066 -6.42788 2.55485 0
M  V30 5321 H 857.933 -8.12039 0.792769 0
M  V30 5322 P 861.895 -8.91 -6.24363e-12 0
M  V30 5323 O 862.115 -10.1726 -0.733694 0
M  V30 5324 O 862.685 -8.73148 1.23936 0
M  V30 5325 O 862.145 -7.66872 -0.971405 0
M  V30 5326 C 861.205 -7.42309 -2.04641 0
M  V30 5327 C 861.935 -6.86059 -3.24661 0
M  V30 5328 O 862.145 -5.42847 -3.03646 0
M  V30 5329 C 863.335 -7.41196 -3.50753 0
M  V30 5330 O 863.725 -7.27073 -4.86816 0
M  V30 5331 C 864.215 -6.5273 -2.63741 0
M  V30 5332 C 863.505 -5.1842 -2.73198 0
M  V30 5333 N 863.555 -4.38762 -1.4784 0
M  V30 5334 H 860.716 -8.36803 -2.32493 0
M  V30 5335 H 860.446 -6.70197 -1.71129 0
M  V30 5336 H 861.313 -7.03551 -4.13168 0
M  V30 5337 P 865.275 -7.20834 -5.23717 0
M  V30 5338 O 865.495 -7.80006 -6.57415 0
M  V30 5339 O 866.065 -7.79416 -4.13051 0
M  V30 5340 O 865.525 -5.63315 -5.29344 0
M  V30 5341 C 864.585 -4.80318 -6.01954 0
M  V30 5342 C 865.315 -3.64202 -6.65911 0
M  V30 5343 O 865.525 -2.60736 -5.64823 0
M  V30 5344 C 866.715 -3.93521 -7.19518 0
M  V30 5345 O 867.105 -3.02071 -8.21205 0
M  V30 5346 C 867.595 -3.73047 -5.97036 0
M  V30 5347 C 866.885 -2.58828 -5.25741 0
M  V30 5348 N 866.935 -2.68068 -3.77503 0
M  V30 5349 C 866.855 -3.80474 -2.99159 0
M  V30 5350 N 866.925 -3.55622 -1.71925 0
M  V30 5351 C 867.075 -2.1832 -1.65733 0
M  V30 5352 C 867.205 -1.28842 -0.572777 0
M  V30 5353 N 867.215 -1.66875 0.70098 0
M  V30 5354 N 867.325 0.016788 -0.859836 0
M  V30 5355 C 867.315 0.398145 -2.13316 0
M  V30 5356 N 867.195 -0.328224 -3.22333 0
M  V30 5357 C 867.075 -1.62992 -2.90383 0
M  V30 5358 H 864.097 -5.40394 -6.8003 0
M  V30 5359 H 863.825 -4.41741 -5.32532 0
M  V30 5360 H 864.693 -3.26371 -7.47889 0
M  V30 5361 H 867.348 -1.64007 -5.56746 0
M  V30 5362 H 867.628 -4.63439 -5.3432 0
M  V30 5363 H 868.619 -3.44776 -6.25925 0
M  V30 5364 H 866.785 -4.96707 -7.57347 0
M  V30 5365 H 866.744 -4.8089 -3.39924 0
M  V30 5366 H 867.125 -2.66547 0.941919 0
M  V30 5367 H 867.314 -0.965341 1.44766 0
M  V30 5368 H 867.422 1.46427 -2.29697 0
M  V30 5369 P 868.655 -2.75334 -8.47391 0
M  V30 5370 O 868.875 -2.44619 -9.90336 0
M  V30 5371 O 869.445 -3.87776 -7.92294 0
M  V30 5372 O 868.905 -1.4459 -7.59357 0
M  V30 5373 C 867.965 -0.347653 -7.69315 0
M  V30 5374 C 868.695 0.96767 -7.52806 0
M  V30 5375 O 868.905 1.21055 -6.10208 0
M  V30 5376 C 870.095 1.04557 -8.13408 0
M  V30 5377 O 870.485 2.38311 -8.41922 0
M  V30 5378 C 870.975 0.491279 -7.02284 0
M  V30 5379 C 870.265 0.996264 -5.77469 0
M  V30 5380 N 870.315 0.0501916 -4.62973 0
M  V30 5381 H 867.477 -0.374765 -8.67791 0
M  V30 5382 H 867.205 -0.443613 -6.90476 0
M  V30 5383 H 868.073 1.75559 -7.96891 0
M  V30 5384 H 870.728 1.94563 -5.46818 0
M  V30 5385 H 871.008 -0.608651 -7.04676 0
M  V30 5386 H 871.999 0.889796 -7.09039 0
M  V30 5387 H 870.165 0.433128 -9.04664 0
M  V30 5388 P 872.035 2.75334 -8.47391 0
M  V30 5389 O 872.255 3.84128 -9.44797 0
M  V30 5390 O 872.825 1.51947 -8.68712 0
M  V30 5391 O 872.285 3.29363 -6.99321 0
M  V30 5392 C 871.345 4.24011 -6.4274 0
M  V30 5393 C 872.075 5.20775 -5.52155 0
M  V30 5394 O 872.285 4.56534 -4.22446 0
M  V30 5395 C 873.475 5.62629 -5.96531 0
M  V30 5396 O 873.865 6.87667 -5.41053 0
M  V30 5397 C 874.355 4.52537 -5.39283 0
M  V30 5398 C 873.645 4.20027 -4.08623 0
M  V30 5399 N 873.695 2.76189 -3.71603 0
M  V30 5400 H 870.856 4.797 -7.24003 0
M  V30 5401 H 870.586 3.69856 -5.84513 0
M  V30 5402 H 871.453 6.10356 -5.41441 0
M  V30 5403 P 875.415 7.20834 -5.23717 0
M  V30 5404 O 875.635 8.66104 -5.38572 0
M  V30 5405 O 876.205 6.33544 -6.1349 0
M  V30 5406 O 875.665 6.7751 -3.72168 0
M  V30 5407 C 874.725 7.20825 -2.7076 0
M  V30 5408 C 875.455 7.45864 -1.40599 0
M  V30 5409 O 875.665 6.17651 -0.734225 0
M  V30 5410 C 876.855 8.05808 -1.51899 0
M  V30 5411 O 877.245 8.74358 -0.335205 0
M  V30 5412 C 877.735 6.83093 -1.70294 0
M  V30 5413 C 877.025 5.79992 -0.836974 0
M  V30 5414 N 877.075 4.41864 -1.38293 0
M  V30 5415 H 874.236 8.13644 -3.0377 0
M  V30 5416 H 873.966 6.42788 -2.55485 0
M  V30 5417 H 874.833 8.12039 -0.792769 0
M  V30 5418 P 878.795 8.91 6.40081e-12 0
M  V30 5419 O 879.015 10.1726 0.733694 0
M  V30 5420 O 879.585 8.73148 -1.23936 0
M  V30 5421 O 879.045 7.66872 0.971405 0
M  V30 5422 C 878.105 7.42309 2.04641 0
M  V30 5423 C 878.835 6.86059 3.24661 0
M  V30 5424 O 879.045 5.42847 3.03646 0
M  V30 5425 C 880.235 7.41196 3.50753 0
M  V30 5426 O 880.625 7.27073 4.86816 0
M  V30 5427 C 881.115 6.5273 2.63741 0
M  V30 5428 C 880.405 5.1842 2.73198 0
M  V30 5429 N 880.455 4.38762 1.4784 0
M  V30 5430 H 877.616 8.36803 2.32493 0
M  V30 5431 H 877.346 6.70197 1.71129 0
M  V30 5432 H 878.213 7.03551 4.13168 0
M  V30 5433 P 882.175 7.20834 5.23717 0
M  V30 5434 O 882.395 7.79853 6.57286 0
M  V30 5435 O 882.965 7.79239 4.12957 0
M  V30 5436 O 882.425 5.63315 5.29344 0
M  V30 5437 C 881.485 4.80255 6.01876 0
M  V30 5438 C 882.215 3.64202 6.65911 0
M  V30 5439 O 882.425 2.60694 5.64732 0
M  V30 5440 C 883.615 3.93473 7.1943 0
M  V30 5441 O 884.005 3.02071 8.21205 0
M  V30 5442 C 884.495 3.73047 5.97036 0
M  V30 5443 C 883.785 2.58828 5.25741 0
M  V30 5444 N 883.835 2.68068 3.77503 0
M  V30 5445 H 880.996 5.40332 6.79951 0
M  V30 5446 H 880.726 4.41613 5.32378 0
M  V30 5447 H 881.593 3.26331 7.47797 0
M  V30 5448 P 885.555 2.75334 8.47391 0
M  V30 5449 O 885.775 2.44595 9.90239 0
M  V30 5450 O 886.345 3.87732 7.92204 0
M  V30 5451 O 885.805 1.4459 7.59357 0
M  V30 5452 C 884.865 0.347563 7.69115 0
M  V30 5453 C 885.595 -0.96767 7.52806 0
M  V30 5454 O 885.805 -1.21036 6.1011 0
M  V30 5455 C 886.995 -1.04544 8.13308 0
M  V30 5456 O 887.385 -2.38311 8.41922 0
M  V30 5457 C 887.875 -0.491279 7.02284 0
M  V30 5458 C 887.165 -0.996264 5.77469 0
M  V30 5459 N 887.215 -0.0501808 4.62873 0
M  V30 5460 C 887.365 -0.588177 3.36904 0
M  V30 5461 O 887.455 -1.78598 3.17173 0
M  V30 5462 N 887.405 0.329694 2.33686 0
M  V30 5463 C 887.315 1.6953 2.45079 0
M  V30 5464 C 887.165 2.16933 3.80505 0
M  V30 5465 C 887.115 1.30326 4.83752 0
M  V30 5466 H 884.375 0.374722 8.67691 0
M  V30 5467 H 884.106 0.443421 6.90177 0
M  V30 5468 H 884.973 -1.75537 7.96793 0
M  V30 5469 H 887.628 -1.94496 5.46629 0
M  V30 5470 H 887.907 0.608651 7.04676 0
M  V30 5471 H 888.899 -0.889672 7.08939 0
M  V30 5472 H 887.065 -0.43308 9.04564 0
M  V30 5473 H 886.994 1.68366 5.8516 0
M  V30 5474 P 888.935 -2.75334 8.47391 0
M  V30 5475 O 889.155 -3.84128 9.44797 0
M  V30 5476 O 889.725 -1.51947 8.68712 0
M  V30 5477 O 889.185 -3.29363 6.99321 0
M  V30 5478 C 888.245 -4.24011 6.4274 0
M  V30 5479 C 888.975 -5.20775 5.52155 0
M  V30 5480 O 889.185 -4.56534 4.22446 0
M  V30 5481 C 890.375 -5.62629 5.96531 0
M  V30 5482 O 890.765 -6.87667 5.41053 0
M  V30 5483 C 891.255 -4.52537 5.39283 0
M  V30 5484 C 890.545 -4.20027 4.08623 0
M  V30 5485 N 890.595 -2.76189 3.71603 0
M  V30 5486 H 887.756 -4.797 7.24003 0
M  V30 5487 H 887.486 -3.69856 5.84513 0
M  V30 5488 H 888.353 -6.10356 5.41441 0
M  V30 5489 P 892.315 -7.20834 5.23717 0
M  V30 5490 O 892.535 -8.66104 5.38572 0
M  V30 5491 O 893.105 -6.33544 6.1349 0
M  V30 5492 O 892.565 -6.7751 3.72168 0
M  V30 5493 C 891.625 -7.20825 2.7076 0
M  V30 5494 C 892.355 -7.45864 1.40599 0
M  V30 5495 O 892.565 -6.17651 0.734225 0
M  V30 5496 C 893.755 -8.05808 1.51899 0
M  V30 5497 O 894.145 -8.74358 0.335205 0
M  V30 5498 C 894.635 -6.83093 1.70294 0
M  V30 5499 C 893.925 -5.79992 0.836974 0
M  V30 5500 N 893.975 -4.41864 1.38293 0
M  V30 5501 H 891.136 -8.13644 3.0377 0
M  V30 5502 H 890.866 -6.42788 2.55485 0
M  V30 5503 H 891.733 -8.12039 0.792769 0
M  V30 5504 P 895.695 -8.91 -6.558e-12 0
M  V30 5505 O 895.915 -10.1726 -0.733694 0
M  V30 5506 O 896.485 -8.73148 1.23936 0
M  V30 5507 O 895.945 -7.66872 -0.971405 0
M  V30 5508 C 895.005 -7.42309 -2.04641 0
M  V30 5509 C 895.735 -6.86059 -3.24661 0
M  V30 5510 O 895.945 -5.42847 -3.03646 0
M  V30 5511 C 897.135 -7.41196 -3.50753 0
M  V30 5512 O 897.525 -7.27073 -4.86816 0
M  V30 5513 C 898.015 -6.5273 -2.63741 0
M  V30 5514 C 897.305 -5.1842 -2.73198 0
M  V30 5515 N 897.355 -4.38762 -1.4784 0
M  V30 5516 H 894.516 -8.36803 -2.32493 0
M  V30 5517 H 894.246 -6.70197 -1.71129 0
M  V30 5518 H 895.113 -7.03551 -4.13168 0
M  V30 5519 P 899.075 -7.20834 -5.23717 0
M  V30 5520 O 899.295 -7.79853 -6.57286 0
M  V30 5521 O 899.865 -7.79239 -4.12957 0
M  V30 5522 O 899.325 -5.63315 -5.29344 0
M  V30 5523 C 898.385 -4.80255 -6.01876 0
M  V30 5524 C 899.115 -3.64202 -6.65911 0
M  V30 5525 O 899.325 -2.60694 -5.64732 0
M  V30 5526 C 900.515 -3.93473 -7.1943 0
M  V30 5527 O 900.905 -3.02071 -8.21205 0
M  V30 5528 C 901.395 -3.73047 -5.97036 0
M  V30 5529 C 900.685 -2.58828 -5.25741 0
M  V30 5530 N 900.735 -2.68068 -3.77503 0
M  V30 5531 H 897.896 -5.40332 -6.79951 0
M  V30 5532 H 897.626 -4.41613 -5.32378 0
M  V30 5533 H 898.493 -3.26331 -7.47797 0
M  V30 5534 P 902.455 -2.75334 -8.47391 0
M  V30 5535 O 902.675 -2.44571 -9.90142 0
M  V30 5536 O 903.245 -3.87688 -7.92115 0
M  V30 5537 O 902.705 -1.4459 -7.59357 0
M  V30 5538 C 901.765 -0.347608 -7.69215 0
M  V30 5539 C 902.495 0.96767 -7.52806 0
M  V30 5540 O 902.705 1.21036 -6.1011 0
M  V30 5541 C 903.895 1.04544 -8.13308 0
M  V30 5542 O 904.285 2.38311 -8.41922 0
M  V30 5543 C 904.775 0.491279 -7.02284 0
M  V30 5544 C 904.065 0.996264 -5.77469 0
M  V30 5545 N 904.115 0.0501916 -4.62973 0
M  V30 5546 H 901.276 -0.374722 -8.67691 0
M  V30 5547 H 901.006 -0.443485 -6.90277 0
M  V30 5548 H 901.873 1.75537 -7.96793 0
M  V30 5549 P 905.835 2.75334 -8.47391 0
M  V30 5550 O 906.055 3.84204 -9.44982 0
M  V30 5551 O 906.625 1.51982 -8.68909 0
M  V30 5552 O 906.085 3.29363 -6.99321 0
M  V30 5553 C 905.145 4.24066 -6.42823 0
M  V30 5554 C 905.875 5.20775 -5.52155 0
M  V30 5555 O 906.085 4.56607 -4.22514 0
M  V30 5556 C 907.275 5.62697 -5.96604 0
M  V30 5557 O 907.665 6.87667 -5.41053 0
M  V30 5558 C 908.155 4.52537 -5.39283 0
M  V30 5559 C 907.445 4.20027 -4.08623 0
M  V30 5560 N 907.495 2.76189 -3.71603 0
M  V30 5561 H 904.657 4.79756 -7.24086 0
M  V30 5562 H 904.385 3.69963 -5.84682 0
M  V30 5563 H 905.253 6.10431 -5.41508 0
M  V30 5564 H 907.908 4.78816 -3.28024 0
M  V30 5565 H 908.188 3.64957 -6.05871 0
M  V30 5566 H 909.179 4.88748 -5.21323 0
M  V30 5567 H 907.345 5.66789 -7.0643 0
M  V30 5568 P 909.215 7.20834 -5.23717 0
M  V30 5569 O 909.435 8.66104 -5.38572 0
M  V30 5570 O 910.005 6.33544 -6.1349 0
M  V30 5571 O 909.465 6.7751 -3.72168 0
M  V30 5572 C 908.525 7.20825 -2.7076 0
M  V30 5573 C 909.255 7.45864 -1.40599 0
M  V30 5574 O 909.465 6.17651 -0.734225 0
M  V30 5575 C 910.655 8.05808 -1.51899 0
M  V30 5576 O 911.045 8.74358 -0.335205 0
M  V30 5577 C 911.535 6.83093 -1.70294 0
M  V30 5578 C 910.825 5.79992 -0.836974 0
M  V30 5579 N 910.875 4.41864 -1.38293 0
M  V30 5580 C 910.795 3.99538 -2.69438 0
M  V30 5581 N 910.875 2.69909 -2.84277 0
M  V30 5582 C 911.015 2.21719 -1.5408 0
M  V30 5583 C 911.145 0.891712 -1.06628 0
M  V30 5584 O 911.165 -0.161298 -1.70137 0
M  V30 5585 N 911.265 0.856846 0.334985 0
M  V30 5586 C 911.265 1.9641 1.15789 0
M  V30 5587 N 911.395 1.72708 2.46522 0
M  V30 5588 N 911.135 3.21165 0.713741 0
M  V30 5589 C 911.015 3.26797 -0.639748 0
M  V30 5590 H 908.036 8.13644 -3.0377 0
M  V30 5591 H 907.766 6.42788 -2.55485 0
M  V30 5592 H 908.633 8.12039 -0.792769 0
M  V30 5593 H 911.288 5.80061 0.166416 0
M  V30 5594 H 911.567 6.51287 -2.75604 0
M  V30 5595 H 912.559 7.01734 -1.34462 0
M  V30 5596 H 910.725 8.73674 -2.38337 0
M  V30 5597 H 910.676 4.68207 -3.53221 0
M  V30 5598 H 911.358 -0.0398818 0.767965 0
M  V30 5599 H 911.395 2.50995 3.13503 0
M  V30 5600 H 911.496 0.759148 2.80716 0
M  V30 5601 P 912.595 8.91 6.71518e-12 0
M  V30 5602 O 912.815 10.1726 0.733694 0
M  V30 5603 O 913.385 8.73148 -1.23936 0
M  V30 5604 O 912.845 7.66872 0.971405 0
M  V30 5605 C 911.905 7.42309 2.04641 0
M  V30 5606 C 912.635 6.86059 3.24661 0
M  V30 5607 O 912.845 5.42847 3.03646 0
M  V30 5608 C 914.035 7.41196 3.50753 0
M  V30 5609 O 914.425 7.27073 4.86816 0
M  V30 5610 C 914.915 6.5273 2.63741 0
M  V30 5611 C 914.205 5.1842 2.73198 0
M  V30 5612 N 914.255 4.38762 1.4784 0
M  V30 5613 H 911.416 8.36803 2.32493 0
M  V30 5614 H 911.146 6.70197 1.71129 0
M  V30 5615 H 912.013 7.03551 4.13168 0
M  V30 5616 P 915.975 7.20834 5.23717 0
M  V30 5617 O 916.195 7.79853 6.57286 0
M  V30 5618 O 916.765 7.79239 4.12957 0
M  V30 5619 O 916.225 5.63315 5.29344 0
M  V30 5620 C 915.285 4.80255 6.01876 0
M  V30 5621 C 916.015 3.64202 6.65911 0
M  V30 5622 O 916.225 2.60694 5.64732 0
M  V30 5623 C 917.415 3.93473 7.1943 0
M  V30 5624 O 917.805 3.02071 8.21205 0
M  V30 5625 C 918.295 3.73047 5.97036 0
M  V30 5626 C 917.585 2.58828 5.25741 0
M  V30 5627 N 917.635 2.68068 3.77503 0
M  V30 5628 C 917.555 3.79715 2.96723 0
M  V30 5629 N 917.635 3.5377 1.68852 0
M  V30 5630 C 917.775 2.15054 1.63254 0
M  V30 5631 C 917.905 1.28964 0.518571 0
M  V30 5632 N 918.025 -0.0538097 0.918425 0
M  V30 5633 C 918.025 -0.494275 2.22578 0
M  V30 5634 N 918.155 -1.81086 2.40434 0
M  V30 5635 N 917.895 0.313645 3.27502 0
M  V30 5636 C 917.775 1.61829 2.91033 0
M  V30 5637 H 914.796 5.40332 6.79951 0
M  V30 5638 H 914.526 4.41613 5.32378 0
M  V30 5639 H 915.393 3.26331 7.47797 0
M  V30 5640 P 919.355 2.75334 8.47391 0
M  V30 5641 O 919.575 2.44571 9.90142 0
M  V30 5642 O 920.145 3.87688 7.92115 0
M  V30 5643 O 919.605 1.4459 7.59357 0
M  V30 5644 C 918.665 0.347608 7.69215 0
M  V30 5645 C 919.395 -0.96767 7.52806 0
M  V30 5646 O 919.605 -1.21036 6.1011 0
M  V30 5647 C 920.795 -1.04544 8.13308 0
M  V30 5648 O 921.185 -2.38311 8.41922 0
M  V30 5649 C 921.675 -0.491279 7.02284 0
M  V30 5650 C 920.965 -0.996264 5.77469 0
M  V30 5651 N 921.015 -0.0501916 4.62973 0
M  V30 5652 C 920.935 1.32786 4.63244 0
M  V30 5653 N 921.015 1.86957 3.44545 0
M  V30 5654 C 921.155 0.780241 2.58481 0
M  V30 5655 C 921.285 0.738536 1.17757 0
M  V30 5656 O 921.305 1.66794 0.372349 0
M  V30 5657 N 921.405 -0.58337 0.711393 0
M  V30 5658 C 921.405 -1.70816 1.51017 0
M  V30 5659 N 921.535 -2.87826 0.880757 0
M  V30 5660 N 921.275 -1.67126 2.8339 0
M  V30 5661 C 921.155 -0.401421 3.30572 0
M  V30 5662 H 918.176 0.374722 8.67691 0
M  V30 5663 H 917.906 0.443485 6.90277 0
M  V30 5664 H 918.773 -1.75537 7.96793 0
M  V30 5665 H 921.428 -1.95076 5.46529 0
M  V30 5666 H 921.707 0.608565 7.04577 0
M  V30 5667 H 922.699 -0.889672 7.08939 0
M  V30 5668 H 920.865 -0.43308 9.04564 0
M  V30 5669 H 920.816 1.91249 5.54442 0
M  V30 5670 H 921.498 -0.718054 -0.275244 0
M  V30 5671 H 921.535 -3.75721 1.41832 0
M  V30 5672 H 921.636 -2.90436 -0.145468 0
M  V30 5673 P 922.735 -2.75334 8.47391 0
M  V30 5674 O 922.955 -3.84128 9.44797 0
M  V30 5675 O 923.525 -1.51947 8.68712 0
M  V30 5676 O 922.985 -3.29363 6.99321 0
M  V30 5677 C 922.045 -4.24011 6.4274 0
M  V30 5678 C 922.775 -5.20775 5.52155 0
M  V30 5679 O 922.985 -4.56534 4.22446 0
M  V30 5680 C 924.175 -5.62629 5.96531 0
M  V30 5681 O 924.565 -6.87667 5.41053 0
M  V30 5682 C 925.055 -4.52537 5.39283 0
M  V30 5683 C 924.345 -4.20027 4.08623 0
M  V30 5684 N 924.395 -2.76189 3.71603 0
M  V30 5685 C 924.315 -1.64862 4.52822 0
M  V30 5686 N 924.395 -0.512671 3.88633 0
M  V30 5687 C 924.535 -0.888083 2.54977 0
M  V30 5688 C 924.665 -0.094668 1.38677 0
M  V30 5689 O 924.685 1.13053 1.28163 0
M  V30 5690 N 924.785 -0.890102 0.232633 0
M  V30 5691 C 924.785 -2.26958 0.21772 0
M  V30 5692 N 924.915 -2.84626 -0.97925 0
M  V30 5693 N 924.655 -3.0178 1.31033 0
M  V30 5694 C 924.535 -2.26781 2.43843 0
M  V30 5695 H 921.556 -4.797 7.24003 0
M  V30 5696 H 921.286 -3.69856 5.84513 0
M  V30 5697 H 922.153 -6.10356 5.41441 0
M  V30 5698 H 924.808 -4.79061 3.27488 0
M  V30 5699 H 925.087 -3.64906 6.05785 0
M  V30 5700 H 926.079 -4.8868 5.2125 0
M  V30 5701 H 924.245 -5.66726 7.06352 0
M  V30 5702 H 924.196 -1.71169 5.60966 0
M  V30 5703 H 924.878 -0.419134 -0.644739 0
M  V30 5704 H 924.915 -3.87332 -1.06098 0
M  V30 5705 H 925.016 -2.26417 -1.82483 0
M  V30 5706 P 926.115 -7.20834 5.23717 0
M  V30 5707 O 926.335 -8.66104 5.38572 0
M  V30 5708 O 926.905 -6.33544 6.1349 0
M  V30 5709 O 926.365 -6.7751 3.72168 0
M  V30 5710 C 925.425 -7.20825 2.7076 0
M  V30 5711 C 926.155 -7.45864 1.40599 0
M  V30 5712 O 926.365 -6.17651 0.734225 0
M  V30 5713 C 927.555 -8.05808 1.51899 0
M  V30 5714 O 927.945 -8.74358 0.335205 0
M  V30 5715 C 928.435 -6.83093 1.70294 0
M  V30 5716 C 927.725 -5.79992 0.836974 0
M  V30 5717 N 927.775 -4.41864 1.38293 0
M  V30 5718 H 924.936 -8.13644 3.0377 0
M  V30 5719 H 924.666 -6.42788 2.55485 0
M  V30 5720 H 925.533 -8.12039 0.792769 0
M  V30 5721 P 929.495 -8.91 -6.87236e-12 0
M  V30 5722 O 929.715 -10.1746 -0.733838 0
M  V30 5723 O 930.285 -8.73346 1.23964 0
M  V30 5724 O 929.745 -7.66872 -0.971405 0
M  V30 5725 C 928.805 -7.42405 -2.04668 0
M  V30 5726 C 929.535 -6.86059 -3.24661 0
M  V30 5727 O 929.745 -5.42934 -3.03695 0
M  V30 5728 C 930.935 -7.41287 -3.50796 0
M  V30 5729 O 931.325 -7.27073 -4.86816 0
M  V30 5730 C 931.815 -6.5273 -2.63741 0
M  V30 5731 C 931.105 -5.1842 -2.73198 0
M  V30 5732 N 931.155 -4.38762 -1.4784 0
M  V30 5733 C 931.075 -4.83651 -0.183876 0
M  V30 5734 N 931.145 -3.88759 0.699393 0
M  V30 5735 C 931.295 -2.7404 -0.0575568 0
M  V30 5736 C 931.425 -1.37902 0.293928 0
M  V30 5737 N 931.435 -0.938021 1.54797 0
M  V30 5738 N 931.545 -0.491817 -0.70549 0
M  V30 5739 C 931.535 -0.931735 -1.95979 0
M  V30 5740 N 931.415 -2.16017 -2.41481 0
M  V30 5741 C 931.295 -3.02547 -1.39121 0
M  V30 5742 H 928.317 -8.36899 -2.3252 0
M  V30 5743 H 928.045 -6.70391 -1.71179 0
M  V30 5744 H 928.913 -7.03638 -4.13219 0
M  V30 5745 H 931.568 -4.59931 -3.54016 0
M  V30 5746 H 931.848 -6.88995 -1.59871 0
M  V30 5747 H 932.839 -6.4684 -3.0373 0
M  V30 5748 H 931.005 -8.47002 -3.20749 0
M  V30 5749 H 930.964 -5.8885 0.0765548 0
M  V30 5750 H 931.345 -1.60276 2.32875 0
M  V30 5751 H 931.534 0.0699355 1.73859 0
M  V30 5752 H 931.642 -0.165507 -2.71897 0
M  V30 5753 P 932.874 -7.20834 -5.23717 0
M  V30 5754 O 933.094 -7.79853 -6.57286 0
M  V30 5755 O 933.664 -7.79239 -4.12957 0
M  V30 5756 O 933.124 -5.63315 -5.29344 0
M  V30 5757 C 932.184 -4.80255 -6.01876 0
M  V30 5758 C 932.914 -3.64202 -6.65911 0
M  V30 5759 O 933.124 -2.60694 -5.64732 0
M  V30 5760 C 934.314 -3.93473 -7.1943 0
M  V30 5761 O 934.704 -3.02071 -8.21205 0
M  V30 5762 C 935.194 -3.73047 -5.97036 0
M  V30 5763 C 934.484 -2.58828 -5.25741 0
M  V30 5764 N 934.534 -2.68068 -3.77503 0
M  V30 5765 C 934.454 -3.79715 -2.96723 0
M  V30 5766 N 934.534 -3.5377 -1.68852 0
M  V30 5767 C 934.674 -2.15054 -1.63254 0
M  V30 5768 C 934.804 -1.28964 -0.518571 0
M  V30 5769 O 934.824 -1.56826 0.679156 0
M  V30 5770 N 934.924 0.0538097 -0.918425 0
M  V30 5771 C 934.924 0.494275 -2.22578 0
M  V30 5772 N 935.054 1.81086 -2.40434 0
M  V30 5773 N 934.794 -0.313645 -3.27502 0
M  V30 5774 C 934.674 -1.61829 -2.91033 0
M  V30 5775 H 931.695 -5.40332 -6.79951 0
M  V30 5776 H 931.425 -4.41613 -5.32378 0
M  V30 5777 H 932.292 -3.26331 -7.47797 0
M  V30 5778 H 934.947 -1.63422 -5.56814 0
M  V30 5779 H 935.226 -4.63374 -5.34244 0
M  V30 5780 H 936.218 -3.44728 -6.25838 0
M  V30 5781 H 934.384 -4.96652 -7.57263 0
M  V30 5782 H 934.335 -4.80617 -3.3614 0
M  V30 5783 H 935.017 0.742702 -0.199384 0
M  V30 5784 H 935.054 2.20598 -3.35588 0
M  V30 5785 H 935.155 2.43518 -1.58945 0
M  V30 5786 P 936.254 -2.75334 -8.47391 0
M  V30 5787 O 936.474 -2.44571 -9.90142 0
M  V30 5788 O 937.044 -3.87688 -7.92115 0
M  V30 5789 O 936.504 -1.4459 -7.59357 0
M  V30 5790 C 935.564 -0.347608 -7.69215 0
M  V30 5791 C 936.294 0.96767 -7.52806 0
M  V30 5792 O 936.504 1.21036 -6.1011 0
M  V30 5793 C 937.694 1.04544 -8.13308 0
M  V30 5794 O 938.084 2.38311 -8.41922 0
M  V30 5795 C 938.574 0.491279 -7.02284 0
M  V30 5796 C 937.864 0.996264 -5.77469 0
M  V30 5797 N 937.914 0.0501916 -4.62973 0
M  V30 5798 C 937.834 -1.32786 -4.63244 0
M  V30 5799 N 937.914 -1.86957 -3.44545 0
M  V30 5800 C 938.054 -0.780241 -2.58481 0
M  V30 5801 C 938.184 -0.738536 -1.17757 0
M  V30 5802 N 938.304 0.58337 -0.711393 0
M  V30 5803 C 938.304 1.70816 -1.51017 0
M  V30 5804 N 938.434 2.87826 -0.880757 0
M  V30 5805 N 938.174 1.67126 -2.8339 0
M  V30 5806 C 938.054 0.401421 -3.30572 0
M  V30 5807 H 935.075 -0.374722 -8.67691 0
M  V30 5808 H 934.805 -0.443485 -6.90277 0
M  V30 5809 H 935.672 1.75537 -7.96793 0
M  V30 5810 P 939.634 2.75334 -8.47391 0
M  V30 5811 O 939.854 3.84204 -9.44982 0
M  V30 5812 O 940.424 1.51982 -8.68909 0
M  V30 5813 O 939.884 3.29363 -6.99321 0
M  V30 5814 C 938.944 4.24066 -6.42823 0
M  V30 5815 C 939.674 5.20775 -5.52155 0
M  V30 5816 O 939.884 4.56607 -4.22514 0
M  V30 5817 C 941.074 5.62697 -5.96604 0
M  V30 5818 O 941.464 6.87667 -5.41053 0
M  V30 5819 C 941.954 4.52537 -5.39283 0
M  V30 5820 C 941.244 4.20027 -4.08623 0
M  V30 5821 N 941.294 2.76189 -3.71603 0
M  V30 5822 C 941.214 1.66944 -4.54297 0
M  V30 5823 N 941.284 0.536169 -3.91344 0
M  V30 5824 C 941.434 0.901569 -2.58849 0
M  V30 5825 C 941.564 0.146599 -1.40236 0
M  V30 5826 N 941.574 -1.18234 -1.37046 0
M  V30 5827 N 941.684 0.822941 -0.249738 0
M  V30 5828 C 941.674 2.15179 -0.280525 0
M  V30 5829 N 941.554 2.96414 -1.30822 0
M  V30 5830 C 941.434 2.25804 -2.44748 0
M  V30 5831 H 938.456 4.79756 -7.24086 0
M  V30 5832 H 938.184 3.69963 -5.84682 0
M  V30 5833 H 939.052 6.10431 -5.41508 0
M  V30 5834 H 941.707 4.78816 -3.28024 0
M  V30 5835 H 941.987 3.64957 -6.05871 0
M  V30 5836 H 942.978 4.88748 -5.21323 0
M  V30 5837 H 941.144 5.66789 -7.0643 0
M  V30 5838 H 941.103 1.74684 -5.62396 0
M  V30 5839 H 941.484 -1.71949 -2.24394 0
M  V30 5840 H 941.673 -1.67511 -0.470742 0
M  V30 5841 H 941.781 2.63704 0.6828 0
M  V30 5842 P 943.014 7.20834 -5.23717 0
M  V30 5843 O 943.234 8.66104 -5.38572 0
M  V30 5844 O 943.804 6.33544 -6.1349 0
M  V30 5845 O 943.264 6.7751 -3.72168 0
M  V30 5846 C 942.324 7.20825 -2.7076 0
M  V30 5847 C 943.054 7.45864 -1.40599 0
M  V30 5848 O 943.264 6.17651 -0.734225 0
M  V30 5849 C 944.454 8.05808 -1.51899 0
M  V30 5850 O 944.844 8.74358 -0.335205 0
M  V30 5851 C 945.334 6.83093 -1.70294 0
M  V30 5852 C 944.624 5.79992 -0.836974 0
M  V30 5853 N 944.674 4.41864 -1.38293 0
M  V30 5854 C 944.594 3.99538 -2.69438 0
M  V30 5855 N 944.674 2.69909 -2.84277 0
M  V30 5856 C 944.814 2.21719 -1.5408 0
M  V30 5857 C 944.944 0.891712 -1.06628 0
M  V30 5858 N 945.064 0.856846 0.334985 0
M  V30 5859 C 945.064 1.9641 1.15789 0
M  V30 5860 N 945.194 1.72708 2.46522 0
M  V30 5861 N 944.934 3.21165 0.713741 0
M  V30 5862 C 944.814 3.26797 -0.639748 0
M  V30 5863 H 941.835 8.13644 -3.0377 0
M  V30 5864 H 941.565 6.42788 -2.55485 0
M  V30 5865 H 942.432 8.12039 -0.792769 0
M  V30 5866 P 946.394 8.91 7.02954e-12 0
M  V30 5867 O 946.614 10.1726 0.733694 0
M  V30 5868 O 947.184 8.73148 -1.23936 0
M  V30 5869 O 946.644 7.66872 0.971405 0
M  V30 5870 C 945.704 7.42309 2.04641 0
M  V30 5871 C 946.434 6.86059 3.24661 0
M  V30 5872 O 946.644 5.42847 3.03646 0
M  V30 5873 C 947.834 7.41196 3.50753 0
M  V30 5874 O 948.224 7.27073 4.86816 0
M  V30 5875 C 948.714 6.5273 2.63741 0
M  V30 5876 C 948.004 5.1842 2.73198 0
M  V30 5877 N 948.054 4.38762 1.4784 0
M  V30 5878 C 947.974 4.81605 0.168631 0
M  V30 5879 N 948.054 3.85454 -0.713363 0
M  V30 5880 C 948.194 2.6994 0.0566958 0
M  V30 5881 C 948.324 1.34815 -0.338502 0
M  V30 5882 O 948.344 0.869548 -1.47125 0
M  V30 5883 N 948.444 0.496304 0.77465 0
M  V30 5884 C 948.444 0.908403 2.09122 0
M  V30 5885 N 948.574 -0.0517805 3.00955 0
M  V30 5886 N 948.314 2.17875 2.46519 0
M  V30 5887 C 948.194 3.01988 1.4033 0
M  V30 5888 H 945.215 8.36803 2.32493 0
M  V30 5889 H 944.945 6.70197 1.71129 0
M  V30 5890 H 945.812 7.03551 4.13168 0
M  V30 5891 H 948.467 4.59498 3.54415 0
M  V30 5892 H 948.746 6.88898 1.59848 0
M  V30 5893 H 949.738 6.46749 3.03687 0
M  V30 5894 H 947.904 8.46908 3.20714 0
M  V30 5895 H 947.855 5.86405 -0.105564 0
M  V30 5896 H 948.537 -0.483664 0.597855 0
M  V30 5897 H 948.574 0.187865 4.0116 0
M  V30 5898 H 948.675 -1.03585 2.71726 0
M  V30 5899 P 949.774 7.20834 5.23717 0
M  V30 5900 O 949.994 7.79853 6.57286 0
M  V30 5901 O 950.564 7.79239 4.12957 0
M  V30 5902 O 950.024 5.63315 5.29344 0
M  V30 5903 C 949.084 4.80255 6.01876 0
M  V30 5904 C 949.814 3.64202 6.65911 0
M  V30 5905 O 950.024 2.60694 5.64732 0
M  V30 5906 C 951.214 3.93473 7.1943 0
M  V30 5907 O 951.604 3.02071 8.21205 0
M  V30 5908 C 952.094 3.73047 5.97036 0
M  V30 5909 C 951.384 2.58828 5.25741 0
M  V30 5910 N 951.434 2.68068 3.77503 0
M  V30 5911 C 951.354 3.79715 2.96723 0
M  V30 5912 N 951.434 3.5377 1.68852 0
M  V30 5913 C 951.574 2.15054 1.63254 0
M  V30 5914 C 951.704 1.28964 0.518571 0
M  V30 5915 N 951.824 -0.0538097 0.918425 0
M  V30 5916 C 951.824 -0.494275 2.22578 0
M  V30 5917 N 951.954 -1.81086 2.40434 0
M  V30 5918 N 951.694 0.313645 3.27502 0
M  V30 5919 C 951.574 1.61829 2.91033 0
M  V30 5920 H 948.595 5.40332 6.79951 0
M  V30 5921 H 948.325 4.41613 5.32378 0
M  V30 5922 H 949.192 3.26331 7.47797 0
M  V30 5923 P 953.154 2.75334 8.47391 0
M  V30 5924 O 953.374 2.44571 9.90142 0
M  V30 5925 O 953.944 3.87688 7.92115 0
M  V30 5926 O 953.404 1.4459 7.59357 0
M  V30 5927 C 952.464 0.347608 7.69215 0
M  V30 5928 C 953.194 -0.96767 7.52806 0
M  V30 5929 O 953.404 -1.21036 6.1011 0
M  V30 5930 C 954.594 -1.04544 8.13308 0
M  V30 5931 O 954.984 -2.38311 8.41922 0
M  V30 5932 C 955.474 -0.491279 7.02284 0
M  V30 5933 C 954.764 -0.996264 5.77469 0
M  V30 5934 N 954.814 -0.0501916 4.62973 0
M  V30 5935 C 954.734 1.32786 4.63244 0
M  V30 5936 N 954.814 1.86957 3.44545 0
M  V30 5937 C 954.954 0.780241 2.58481 0
M  V30 5938 C 955.084 0.738536 1.17757 0
M  V30 5939 O 955.104 1.66794 0.372349 0
M  V30 5940 N 955.204 -0.58337 0.711393 0
M  V30 5941 C 955.204 -1.70816 1.51017 0
M  V30 5942 N 955.334 -2.87826 0.880757 0
M  V30 5943 N 955.074 -1.67126 2.8339 0
M  V30 5944 C 954.954 -0.401421 3.30572 0
M  V30 5945 H 951.975 0.374722 8.67691 0
M  V30 5946 H 951.705 0.443485 6.90277 0
M  V30 5947 H 952.572 -1.75537 7.96793 0
M  V30 5948 H 955.227 -1.95076 5.46529 0
M  V30 5949 H 955.506 0.608565 7.04577 0
M  V30 5950 H 956.498 -0.889672 7.08939 0
M  V30 5951 H 954.664 -0.43308 9.04564 0
M  V30 5952 H 954.615 1.91249 5.54442 0
M  V30 5953 H 955.297 -0.718054 -0.275244 0
M  V30 5954 H 955.334 -3.75721 1.41832 0
M  V30 5955 H 955.435 -2.90436 -0.145468 0
M  V30 5956 P 956.534 -2.75334 8.47391 0
M  V30 5957 O 956.754 -3.84128 9.44797 0
M  V30 5958 O 957.324 -1.51947 8.68712 0
M  V30 5959 O 956.784 -3.29363 6.99321 0
M  V30 5960 C 955.844 -4.24011 6.4274 0
M  V30 5961 C 956.574 -5.20775 5.52155 0
M  V30 5962 O 956.784 -4.56534 4.22446 0
M  V30 5963 C 957.974 -5.62629 5.96531 0
M  V30 5964 O 958.364 -6.87667 5.41053 0
M  V30 5965 C 958.854 -4.52537 5.39283 0
M  V30 5966 C 958.144 -4.20027 4.08623 0
M  V30 5967 N 958.194 -2.76189 3.71603 0
M  V30 5968 C 958.114 -1.64862 4.52822 0
M  V30 5969 N 958.194 -0.512671 3.88633 0
M  V30 5970 C 958.334 -0.888083 2.54977 0
M  V30 5971 C 958.464 -0.094668 1.38677 0
M  V30 5972 O 958.484 1.13053 1.28163 0
M  V30 5973 N 958.584 -0.890102 0.232633 0
M  V30 5974 C 958.584 -2.26958 0.21772 0
M  V30 5975 N 958.714 -2.84626 -0.97925 0
M  V30 5976 N 958.454 -3.0178 1.31033 0
M  V30 5977 C 958.334 -2.26781 2.43843 0
M  V30 5978 H 955.355 -4.797 7.24003 0
M  V30 5979 H 955.085 -3.69856 5.84513 0
M  V30 5980 H 955.952 -6.10356 5.41441 0
M  V30 5981 H 958.607 -4.79061 3.27488 0
M  V30 5982 H 958.886 -3.64906 6.05785 0
M  V30 5983 H 959.878 -4.8868 5.2125 0
M  V30 5984 H 958.044 -5.66726 7.06352 0
M  V30 5985 H 957.995 -1.71169 5.60966 0
M  V30 5986 H 958.677 -0.419134 -0.644739 0
M  V30 5987 H 958.714 -3.87332 -1.06098 0
M  V30 5988 H 958.815 -2.26417 -1.82483 0
M  V30 5989 P 959.914 -7.20834 5.23717 0
M  V30 5990 O 960.134 -8.66104 5.38572 0
M  V30 5991 O 960.704 -6.33544 6.1349 0
M  V30 5992 O 960.164 -6.7751 3.72168 0
M  V30 5993 C 959.224 -7.20825 2.7076 0
M  V30 5994 C 959.954 -7.45864 1.40599 0
M  V30 5995 O 960.164 -6.17651 0.734225 0
M  V30 5996 C 961.354 -8.05808 1.51899 0
M  V30 5997 O 961.744 -8.74358 0.335205 0
M  V30 5998 C 962.234 -6.83093 1.70294 0
M  V30 5999 C 961.524 -5.79992 0.836974 0
M  V30 6000 N 961.574 -4.41864 1.38293 0
M  V30 6001 C 961.494 -3.99538 2.69438 0
M  V30 6002 N 961.574 -2.69909 2.84277 0
M  V30 6003 C 961.714 -2.21719 1.5408 0
M  V30 6004 C 961.844 -0.891712 1.06628 0
M  V30 6005 O 961.864 0.161298 1.70137 0
M  V30 6006 N 961.964 -0.856846 -0.334985 0
M  V30 6007 C 961.964 -1.9641 -1.15789 0
M  V30 6008 N 962.094 -1.72708 -2.46522 0
M  V30 6009 N 961.834 -3.21165 -0.713741 0
M  V30 6010 C 961.714 -3.26797 0.639748 0
M  V30 6011 H 958.735 -8.13644 3.0377 0
M  V30 6012 H 958.465 -6.42788 2.55485 0
M  V30 6013 H 959.332 -8.12039 0.792769 0
M  V30 6014 H 961.987 -5.80061 -0.166416 0
M  V30 6015 H 962.266 -6.51287 2.75604 0
M  V30 6016 H 963.258 -7.01734 1.34462 0
M  V30 6017 H 961.424 -8.73674 2.38337 0
M  V30 6018 H 961.375 -4.68207 3.53221 0
M  V30 6019 H 962.057 0.0398818 -0.767965 0
M  V30 6020 H 962.094 -2.50995 -3.13503 0
M  V30 6021 H 962.195 -0.759148 -2.80716 0
M  V30 6022 P 963.294 -8.91 -7.18673e-12 0
M  V30 6023 O 963.514 -10.1726 -0.733694 0
M  V30 6024 O 964.084 -8.73148 1.23936 0
M  V30 6025 O 963.544 -7.66872 -0.971405 0
M  V30 6026 C 962.604 -7.42309 -2.04641 0
M  V30 6027 C 963.334 -6.86059 -3.24661 0
M  V30 6028 O 963.544 -5.42847 -3.03646 0
M  V30 6029 C 964.734 -7.41196 -3.50753 0
M  V30 6030 O 965.124 -7.27073 -4.86816 0
M  V30 6031 C 965.614 -6.5273 -2.63741 0
M  V30 6032 C 964.904 -5.1842 -2.73198 0
M  V30 6033 N 964.954 -4.38762 -1.4784 0
M  V30 6034 H 962.115 -8.36803 -2.32493 0
M  V30 6035 H 961.845 -6.70197 -1.71129 0
M  V30 6036 H 962.712 -7.03551 -4.13168 0
M  V30 6037 P 966.674 -7.20834 -5.23717 0
M  V30 6038 O 966.894 -7.79853 -6.57286 0
M  V30 6039 O 967.464 -7.79239 -4.12957 0
M  V30 6040 O 966.924 -5.63315 -5.29344 0
M  V30 6041 C 965.984 -4.80255 -6.01876 0
M  V30 6042 C 966.714 -3.64202 -6.65911 0
M  V30 6043 O 966.924 -2.60694 -5.64732 0
M  V30 6044 C 968.114 -3.93473 -7.1943 0
M  V30 6045 O 968.504 -3.02071 -8.21205 0
M  V30 6046 C 968.994 -3.73047 -5.97036 0
M  V30 6047 C 968.284 -2.58828 -5.25741 0
M  V30 6048 N 968.334 -2.68068 -3.77503 0
M  V30 6049 H 965.495 -5.40332 -6.79951 0
M  V30 6050 H 965.225 -4.41613 -5.32378 0
M  V30 6051 H 966.092 -3.26331 -7.47797 0
M  V30 6052 P 970.054 -2.75334 -8.47391 0
M  V30 6053 O 970.274 -2.44571 -9.90142 0
M  V30 6054 O 970.844 -3.87688 -7.92115 0
M  V30 6055 O 970.304 -1.4459 -7.59357 0
M  V30 6056 C 969.364 -0.347608 -7.69215 0
M  V30 6057 C 970.094 0.96767 -7.52806 0
M  V30 6058 O 970.304 1.21036 -6.1011 0
M  V30 6059 C 971.494 1.04544 -8.13308 0
M  V30 6060 O 971.884 2.38311 -8.41922 0
M  V30 6061 C 972.374 0.491279 -7.02284 0
M  V30 6062 C 971.664 0.996264 -5.77469 0
M  V30 6063 N 971.714 0.0501916 -4.62973 0
M  V30 6064 H 968.875 -0.374722 -8.67691 0
M  V30 6065 H 968.605 -0.443485 -6.90277 0
M  V30 6066 H 969.472 1.75537 -7.96793 0
M  V30 6067 P 973.434 2.75334 -8.47391 0
M  V30 6068 O 973.654 3.84128 -9.44797 0
M  V30 6069 O 974.224 1.51947 -8.68712 0
M  V30 6070 O 973.684 3.29363 -6.99321 0
M  V30 6071 C 972.744 4.24011 -6.4274 0
M  V30 6072 C 973.474 5.20775 -5.52155 0
M  V30 6073 O 973.684 4.56534 -4.22446 0
M  V30 6074 C 974.874 5.62629 -5.96531 0
M  V30 6075 O 975.264 6.87667 -5.41053 0
M  V30 6076 C 975.754 4.52537 -5.39283 0
M  V30 6077 C 975.044 4.20027 -4.08623 0
M  V30 6078 N 975.094 2.76189 -3.71603 0
M  V30 6079 H 972.255 4.797 -7.24003 0
M  V30 6080 H 971.985 3.69856 -5.84513 0
M  V30 6081 H 972.852 6.10356 -5.41441 0
M  V30 6082 P 976.814 7.20834 -5.23717 0
M  V30 6083 O 977.034 8.66274 -5.38678 0
M  V30 6084 O 977.604 6.33687 -6.13629 0
M  V30 6085 O 977.064 6.7751 -3.72168 0
M  V30 6086 C 976.124 7.20919 -2.70795 0
M  V30 6087 C 976.854 7.45864 -1.40599 0
M  V30 6088 O 977.064 6.17751 -0.734343 0
M  V30 6089 C 978.254 8.05906 -1.51917 0
M  V30 6090 O 978.644 8.74358 -0.335205 0
M  V30 6091 C 979.134 6.83093 -1.70294 0
M  V30 6092 C 978.424 5.79992 -0.836974 0
M  V30 6093 N 978.474 4.41864 -1.38293 0
M  V30 6094 H 975.636 8.13738 -3.03804 0
M  V30 6095 H 975.364 6.42974 -2.55559 0
M  V30 6096 H 976.232 8.12139 -0.792866 0
M  V30 6097 H 978.887 5.80178 0.160643 0
M  V30 6098 H 979.167 6.51379 -2.75643 0
M  V30 6099 H 980.158 7.01832 -1.3448 0
M  V30 6100 H 978.324 8.73771 -2.38364 0
M  V30 6101 P 980.194 8.91 7.34391e-12 0
M  V30 6102 O 980.414 10.1726 0.733694 0
M  V30 6103 O 980.984 8.73148 -1.23936 0
M  V30 6104 O 980.444 7.66872 0.971405 0
M  V30 6105 C 979.504 7.42309 2.04641 0
M  V30 6106 C 980.234 6.86059 3.24661 0
M  V30 6107 O 980.444 5.42847 3.03646 0
M  V30 6108 C 981.634 7.41196 3.50753 0
M  V30 6109 O 982.024 7.27073 4.86816 0
M  V30 6110 C 982.514 6.5273 2.63741 0
M  V30 6111 C 981.804 5.1842 2.73198 0
M  V30 6112 N 981.854 4.38762 1.4784 0
M  V30 6113 H 979.015 8.36803 2.32493 0
M  V30 6114 H 978.745 6.70197 1.71129 0
M  V30 6115 H 979.612 7.03551 4.13168 0
M  V30 6116 P 983.574 7.20834 5.23717 0
M  V30 6117 O 983.794 7.79853 6.57286 0
M  V30 6118 O 984.364 7.79239 4.12957 0
M  V30 6119 O 983.824 5.63315 5.29344 0
M  V30 6120 C 982.884 4.80255 6.01876 0
M  V30 6121 C 983.614 3.64202 6.65911 0
M  V30 6122 O 983.824 2.60694 5.64732 0
M  V30 6123 C 985.014 3.93473 7.1943 0
M  V30 6124 O 985.404 3.02071 8.21205 0
M  V30 6125 C 985.894 3.73047 5.97036 0
M  V30 6126 C 985.184 2.58828 5.25741 0
M  V30 6127 N 985.234 2.68068 3.77503 0
M  V30 6128 H 982.395 5.40332 6.79951 0
M  V30 6129 H 982.125 4.41613 5.32378 0
M  V30 6130 H 982.992 3.26331 7.47797 0
M  V30 6131 P 986.954 2.75334 8.47391 0
M  V30 6132 O 987.174 2.44571 9.90142 0
M  V30 6133 O 987.744 3.87688 7.92115 0
M  V30 6134 O 987.204 1.4459 7.59357 0
M  V30 6135 C 986.264 0.347608 7.69215 0
M  V30 6136 C 986.994 -0.96767 7.52806 0
M  V30 6137 O 987.204 -1.21036 6.1011 0
M  V30 6138 C 988.394 -1.04544 8.13308 0
M  V30 6139 O 988.784 -2.38311 8.41922 0
M  V30 6140 C 989.274 -0.491279 7.02284 0
M  V30 6141 C 988.564 -0.996264 5.77469 0
M  V30 6142 N 988.614 -0.0501916 4.62973 0
M  V30 6143 C 988.534 1.32786 4.63244 0
M  V30 6144 N 988.614 1.86957 3.44545 0
M  V30 6145 C 988.754 0.780241 2.58481 0
M  V30 6146 C 988.884 0.738536 1.17757 0
M  V30 6147 O 988.904 1.66794 0.372349 0
M  V30 6148 N 989.004 -0.58337 0.711393 0
M  V30 6149 C 989.004 -1.70816 1.51017 0
M  V30 6150 N 989.134 -2.87826 0.880757 0
M  V30 6151 N 988.874 -1.67126 2.8339 0
M  V30 6152 C 988.754 -0.401421 3.30572 0
M  V30 6153 H 985.775 0.374722 8.67691 0
M  V30 6154 H 985.505 0.443485 6.90277 0
M  V30 6155 H 986.372 -1.75537 7.96793 0
M  V30 6156 H 989.027 -1.95076 5.46529 0
M  V30 6157 H 989.306 0.608565 7.04577 0
M  V30 6158 H 990.298 -0.889672 7.08939 0
M  V30 6159 H 988.464 -0.43308 9.04564 0
M  V30 6160 H 988.415 1.91249 5.54442 0
M  V30 6161 H 989.097 -0.718054 -0.275244 0
M  V30 6162 H 989.134 -3.75721 1.41832 0
M  V30 6163 H 989.235 -2.90436 -0.145468 0
M  V30 6164 P 990.334 -2.75334 8.47391 0
M  V30 6165 O 990.554 -3.84166 9.4489 0
M  V30 6166 O 991.124 -1.51964 8.6881 0
M  V30 6167 O 990.584 -3.29363 6.99321 0
M  V30 6168 C 989.644 -4.23956 6.42656 0
M  V30 6169 C 990.374 -5.20775 5.52155 0
M  V30 6170 O 990.584 -4.56534 4.22446 0
M  V30 6171 C 991.774 -5.62629 5.96531 0
M  V30 6172 O 992.164 -6.87667 5.41053 0
M  V30 6173 C 992.654 -4.52537 5.39283 0
M  V30 6174 C 991.944 -4.20027 4.08623 0
M  V30 6175 N 991.994 -2.7613 3.71522 0
M  V30 6176 C 992.144 -2.45612 2.37989 0
M  V30 6177 O 992.234 -3.30919 1.51621 0
M  V30 6178 N 992.184 -1.10684 2.08435 0
M  V30 6179 C 992.094 -0.0690084 2.9792 0
M  V30 6180 C 991.944 -0.481522 4.35345 0
M  V30 6181 C 991.894 -1.78906 4.67968 0
M  V30 6182 H 989.154 -4.797 7.24003 0
M  V30 6183 H 988.885 -3.69802 5.84429 0
M  V30 6184 H 989.752 -6.10356 5.41441 0
M  V30 6185 H 992.407 -4.78651 3.27911 0
M  V30 6186 H 992.686 -3.64957 6.05871 0
M  V30 6187 H 993.678 -4.8868 5.2125 0
M  V30 6188 H 991.844 -5.66726 7.06352 0
M  V30 6189 H 991.773 -2.07737 5.72367 0
M  V30 6190 P 993.714 -7.20834 5.23717 0
M  V30 6191 O 993.934 -8.66104 5.38572 0
M  V30 6192 O 994.504 -6.33544 6.1349 0
M  V30 6193 O 993.964 -6.7751 3.72168 0
M  V30 6194 C 993.024 -7.20825 2.7076 0
M  V30 6195 C 993.754 -7.45864 1.40599 0
M  V30 6196 O 993.964 -6.17651 0.734225 0
M  V30 6197 C 995.154 -8.05808 1.51899 0
M  V30 6198 O 995.544 -8.74358 0.335205 0
M  V30 6199 C 996.034 -6.83093 1.70294 0
M  V30 6200 C 995.324 -5.79992 0.836974 0
M  V30 6201 N 995.374 -4.41864 1.38293 0
M  V30 6202 H 992.535 -8.13644 3.0377 0
M  V30 6203 H 992.265 -6.42788 2.55485 0
M  V30 6204 H 993.132 -8.12039 0.792769 0
M  V30 6205 P 997.094 -8.91 -7.50109e-12 0
M  V30 6206 O 997.314 -10.1726 -0.733694 0
M  V30 6207 O 997.884 -8.73148 1.23936 0
M  V30 6208 O 997.344 -7.66872 -0.971405 0
M  V30 6209 C 996.404 -7.42309 -2.04641 0
M  V30 6210 C 997.134 -6.86059 -3.24661 0
M  V30 6211 O 997.344 -5.42847 -3.03646 0
M  V30 6212 C 998.534 -7.41196 -3.50753 0
M  V30 6213 O 998.924 -7.27073 -4.86816 0
M  V30 6214 C 999.414 -6.5273 -2.63741 0
M  V30 6215 C 998.704 -5.1842 -2.73198 0
M  V30 6216 N 998.754 -4.38762 -1.4784 0
M  V30 6217 H 995.915 -8.36803 -2.32493 0
M  V30 6218 H 995.645 -6.70197 -1.71129 0
M  V30 6219 H 996.512 -7.03551 -4.13168 0
M  V30 6220 P 1000.47 -7.20834 -5.23717 0
M  V30 6221 O 1000.69 -7.7993 -6.57351 0
M  V30 6222 O 1001.26 -7.79328 -4.13004 0
M  V30 6223 O 1000.72 -5.63315 -5.29344 0
M  V30 6224 C 999.784 -4.80193 -6.01798 0
M  V30 6225 C 1000.51 -3.64202 -6.65911 0
M  V30 6226 O 1000.72 -2.60694 -5.64732 0
M  V30 6227 C 1001.91 -3.93473 -7.1943 0
M  V30 6228 O 1002.3 -3.02071 -8.21205 0
M  V30 6229 C 1002.79 -3.73047 -5.97036 0
M  V30 6230 C 1002.08 -2.58828 -5.25741 0
M  V30 6231 N 1002.13 -2.6801 -3.77422 0
M  V30 6232 C 1002.28 -1.50443 -3.07133 0
M  V30 6233 O 1002.37 -0.419406 -3.61576 0
M  V30 6234 N 1002.32 -1.6403 -1.69677 0
M  V30 6235 C 1002.23 -2.81206 -0.986255 0
M  V30 6236 C 1002.08 -3.99158 -1.80325 0
M  V30 6237 C 1002.03 -3.89779 -3.1476 0
M  V30 6238 H 999.294 -5.40332 -6.79951 0
M  V30 6239 H 999.025 -4.41549 -5.32301 0
M  V30 6240 H 999.892 -3.26331 -7.47797 0
M  V30 6241 H 1002.55 -1.6395 -5.56554 0
M  V30 6242 H 1002.83 -4.63439 -5.3432 0
M  V30 6243 H 1003.82 -3.44728 -6.25838 0
M  V30 6244 H 1001.98 -4.96652 -7.57263 0
M  V30 6245 H 1001.91 -4.80159 -3.74441 0
M  V30 6246 P 1003.85 -2.75334 -8.47391 0
M  V30 6247 O 1004.07 -2.44619 -9.90336 0
M  V30 6248 O 1004.64 -3.87776 -7.92294 0
M  V30 6249 O 1004.1 -1.4459 -7.59357 0
M  V30 6250 C 1003.16 -0.347653 -7.69315 0
M  V30 6251 C 1003.89 0.96767 -7.52806 0
M  V30 6252 O 1004.1 1.21055 -6.10208 0
M  V30 6253 C 1005.29 1.04557 -8.13408 0
M  V30 6254 O 1005.68 2.38311 -8.41922 0
M  V30 6255 C 1006.17 0.491279 -7.02284 0
M  V30 6256 C 1005.46 0.996264 -5.77469 0
M  V30 6257 N 1005.51 0.0501916 -4.62973 0
M  V30 6258 H 1002.68 -0.374765 -8.67791 0
M  V30 6259 H 1002.4 -0.443613 -6.90476 0
M  V30 6260 H 1003.27 1.75559 -7.96891 0
M  V30 6261 H 1005.93 1.94563 -5.46818 0
M  V30 6262 H 1006.21 -0.608651 -7.04676 0
M  V30 6263 H 1007.2 0.889796 -7.09039 0
M  V30 6264 H 1005.36 0.433128 -9.04664 0
M  V30 6265 P 1007.23 2.75334 -8.47391 0
M  V30 6266 O 1007.45 3.84128 -9.44797 0
M  V30 6267 O 1008.02 1.51947 -8.68712 0
M  V30 6268 O 1007.48 3.29363 -6.99321 0
M  V30 6269 C 1006.54 4.24011 -6.4274 0
M  V30 6270 C 1007.27 5.20775 -5.52155 0
M  V30 6271 O 1007.48 4.56534 -4.22446 0
M  V30 6272 C 1008.67 5.62629 -5.96531 0
M  V30 6273 O 1009.06 6.87667 -5.41053 0
M  V30 6274 C 1009.55 4.52537 -5.39283 0
M  V30 6275 C 1008.84 4.20027 -4.08623 0
M  V30 6276 N 1008.89 2.76189 -3.71603 0
M  V30 6277 H 1006.06 4.797 -7.24003 0
M  V30 6278 H 1005.79 3.69856 -5.84513 0
M  V30 6279 H 1006.65 6.10356 -5.41441 0
M  V30 6280 P 1010.61 7.20834 -5.23717 0
M  V30 6281 O 1010.83 8.66104 -5.38572 0
M  V30 6282 O 1011.4 6.33544 -6.1349 0
M  V30 6283 O 1010.86 6.7751 -3.72168 0
M  V30 6284 C 1009.92 7.20825 -2.7076 0
M  V30 6285 C 1010.65 7.45864 -1.40599 0
M  V30 6286 O 1010.86 6.17651 -0.734225 0
M  V30 6287 C 1012.05 8.05808 -1.51899 0
M  V30 6288 O 1012.44 8.74358 -0.335205 0
M  V30 6289 C 1012.93 6.83093 -1.70294 0
M  V30 6290 C 1012.22 5.79992 -0.836974 0
M  V30 6291 N 1012.27 4.41864 -1.38293 0
M  V30 6292 H 1009.44 8.13644 -3.0377 0
M  V30 6293 H 1009.17 6.42788 -2.55485 0
M  V30 6294 H 1010.03 8.12039 -0.792769 0
M  V30 6295 P 1013.99 8.91 7.65827e-12 0
M  V30 6296 O 1014.21 10.1726 0.733694 0
M  V30 6297 O 1014.78 8.73148 -1.23936 0
M  V30 6298 O 1014.24 7.66872 0.971405 0
M  V30 6299 C 1013.3 7.42309 2.04641 0
M  V30 6300 C 1014.03 6.86059 3.24661 0
M  V30 6301 O 1014.24 5.42847 3.03646 0
M  V30 6302 C 1015.43 7.41196 3.50753 0
M  V30 6303 O 1015.82 7.27073 4.86816 0
M  V30 6304 C 1016.31 6.5273 2.63741 0
M  V30 6305 C 1015.6 5.1842 2.73198 0
M  V30 6306 N 1015.65 4.38762 1.4784 0
M  V30 6307 C 1015.57 4.81605 0.168631 0
M  V30 6308 N 1015.65 3.85454 -0.713363 0
M  V30 6309 C 1015.79 2.6994 0.0566958 0
M  V30 6310 C 1015.92 1.34815 -0.338502 0
M  V30 6311 O 1015.94 0.869548 -1.47125 0
M  V30 6312 N 1016.04 0.496304 0.77465 0
M  V30 6313 C 1016.04 0.908403 2.09122 0
M  V30 6314 N 1016.17 -0.0517805 3.00955 0
M  V30 6315 N 1015.91 2.17875 2.46519 0
M  V30 6316 C 1015.79 3.01988 1.4033 0
M  V30 6317 H 1012.82 8.36803 2.32493 0
M  V30 6318 H 1012.55 6.70197 1.71129 0
M  V30 6319 H 1013.41 7.03551 4.13168 0
M  V30 6320 H 1016.07 4.59498 3.54415 0
M  V30 6321 H 1016.35 6.88898 1.59848 0
M  V30 6322 H 1017.34 6.46749 3.03687 0
M  V30 6323 H 1015.5 8.46908 3.20714 0
M  V30 6324 H 1015.46 5.86405 -0.105564 0
M  V30 6325 H 1016.14 -0.483664 0.597855 0
M  V30 6326 H 1016.17 0.187865 4.0116 0
M  V30 6327 H 1016.28 -1.03585 2.71726 0
M  V30 6328 P 1017.37 7.20834 5.23717 0
M  V30 6329 O 1017.59 7.7993 6.57351 0
M  V30 6330 O 1018.16 7.79328 4.13004 0
M  V30 6331 O 1017.62 5.63315 5.29344 0
M  V30 6332 C 1016.68 4.80193 6.01798 0
M  V30 6333 C 1017.41 3.64202 6.65911 0
M  V30 6334 O 1017.62 2.60694 5.64732 0
M  V30 6335 C 1018.81 3.93473 7.1943 0
M  V30 6336 O 1019.2 3.02071 8.21205 0
M  V30 6337 C 1019.69 3.73047 5.97036 0
M  V30 6338 C 1018.98 2.58828 5.25741 0
M  V30 6339 N 1019.03 2.6801 3.77422 0
M  V30 6340 C 1019.18 1.50443 3.07133 0
M  V30 6341 O 1019.27 0.419406 3.61576 0
M  V30 6342 N 1019.22 1.6403 1.69677 0
M  V30 6343 C 1019.13 2.81206 0.986255 0
M  V30 6344 C 1018.98 3.99158 1.80325 0
M  V30 6345 C 1018.93 3.89779 3.1476 0
M  V30 6346 H 1016.19 5.40332 6.79951 0
M  V30 6347 H 1015.92 4.41549 5.32301 0
M  V30 6348 H 1016.79 3.26331 7.47797 0
M  V30 6349 H 1019.45 1.6395 5.56554 0
M  V30 6350 H 1019.73 4.63439 5.3432 0
M  V30 6351 H 1020.72 3.44728 6.25838 0
M  V30 6352 H 1018.88 4.96652 7.57263 0
M  V30 6353 H 1018.81 4.80159 3.74441 0
M  V30 6354 P 1020.75 2.75334 8.47391 0
M  V30 6355 O 1020.97 2.44571 9.90142 0
M  V30 6356 O 1021.54 3.87688 7.92115 0
M  V30 6357 O 1021 1.4459 7.59357 0
M  V30 6358 C 1020.06 0.347608 7.69215 0
M  V30 6359 C 1020.79 -0.96767 7.52806 0
M  V30 6360 O 1021 -1.21036 6.1011 0
M  V30 6361 C 1022.19 -1.04544 8.13308 0
M  V30 6362 O 1022.58 -2.38311 8.41922 0
M  V30 6363 C 1023.07 -0.491279 7.02284 0
M  V30 6364 C 1022.36 -0.996264 5.77469 0
M  V30 6365 N 1022.41 -0.0501916 4.62973 0
M  V30 6366 C 1022.33 1.32786 4.63244 0
M  V30 6367 N 1022.41 1.86957 3.44545 0
M  V30 6368 C 1022.55 0.780241 2.58481 0
M  V30 6369 C 1022.68 0.738536 1.17757 0
M  V30 6370 O 1022.7 1.66794 0.372349 0
M  V30 6371 N 1022.8 -0.58337 0.711393 0
M  V30 6372 C 1022.8 -1.70816 1.51017 0
M  V30 6373 N 1022.93 -2.87826 0.880757 0
M  V30 6374 N 1022.67 -1.67126 2.8339 0
M  V30 6375 C 1022.55 -0.401421 3.30572 0
M  V30 6376 H 1019.57 0.374722 8.67691 0
M  V30 6377 H 1019.3 0.443485 6.90277 0
M  V30 6378 H 1020.17 -1.75537 7.96793 0
M  V30 6379 H 1022.83 -1.95076 5.46529 0
M  V30 6380 H 1023.11 0.608565 7.04577 0
M  V30 6381 H 1024.1 -0.889672 7.08939 0
M  V30 6382 H 1022.26 -0.43308 9.04564 0
M  V30 6383 H 1022.21 1.91249 5.54442 0
M  V30 6384 H 1022.9 -0.718054 -0.275244 0
M  V30 6385 H 1022.93 -3.75721 1.41832 0
M  V30 6386 H 1023.03 -2.90436 -0.145468 0
M  V30 6387 P 1024.13 -2.75334 8.47391 0
M  V30 6388 O 1024.35 -3.84128 9.44797 0
M  V30 6389 O 1024.92 -1.51947 8.68712 0
M  V30 6390 O 1024.38 -3.29363 6.99321 0
M  V30 6391 C 1023.44 -4.24011 6.4274 0
M  V30 6392 C 1024.17 -5.20775 5.52155 0
M  V30 6393 O 1024.38 -4.56534 4.22446 0
M  V30 6394 C 1025.57 -5.62629 5.96531 0
M  V30 6395 O 1025.96 -6.87667 5.41053 0
M  V30 6396 C 1026.45 -4.52537 5.39283 0
M  V30 6397 C 1025.74 -4.20027 4.08623 0
M  V30 6398 N 1025.79 -2.76189 3.71603 0
M  V30 6399 H 1022.95 -4.797 7.24003 0
M  V30 6400 H 1022.68 -3.69856 5.84513 0
M  V30 6401 H 1023.55 -6.10356 5.41441 0
M  V30 6402 P 1027.51 -7.20834 5.23717 0
M  V30 6403 O 1027.73 -8.66189 5.38625 0
M  V30 6404 O 1028.3 -6.33615 6.1356 0
M  V30 6405 O 1027.76 -6.7751 3.72168 0
M  V30 6406 C 1026.82 -7.20732 2.70725 0
M  V30 6407 C 1027.55 -7.45864 1.40599 0
M  V30 6408 O 1027.76 -6.17651 0.734225 0
M  V30 6409 C 1028.95 -8.05808 1.51899 0
M  V30 6410 O 1029.34 -8.74358 0.335205 0
M  V30 6411 C 1029.83 -6.83093 1.70294 0
M  V30 6412 C 1029.12 -5.79992 0.836974 0
M  V30 6413 N 1029.17 -4.41769 1.38263 0
M  V30 6414 C 1029.32 -3.38591 0.481702 0
M  V30 6415 O 1029.41 -3.56839 -0.718452 0
M  V30 6416 N 1029.36 -2.1206 1.03569 0
M  V30 6417 C 1029.27 -1.80696 2.36966 0
M  V30 6418 C 1029.12 -2.94845 3.23898 0
M  V30 6419 C 1029.07 -4.19803 2.73435 0
M  V30 6420 H 1026.33 -8.13644 3.0377 0
M  V30 6421 H 1026.06 -6.42695 2.55448 0
M  V30 6422 H 1026.93 -8.12039 0.792769 0
M  V30 6423 H 1029.59 -5.79978 -0.160587 0
M  V30 6424 H 1029.87 -6.51379 2.75643 0
M  V30 6425 H 1030.86 -7.01734 1.34462 0
M  V30 6426 H 1029.02 -8.73674 2.38337 0
M  V30 6427 H 1028.95 -5.04492 3.4095 0
M  V30 6428 P 1030.89 -8.91 -7.81545e-12 0
M  V30 6429 O 1031.11 -10.1726 -0.733694 0
M  V30 6430 O 1031.68 -8.73148 1.23936 0
M  V30 6431 O 1031.14 -7.66872 -0.971405 0
M  V30 6432 C 1030.2 -7.42309 -2.04641 0
M  V30 6433 C 1030.93 -6.86059 -3.24661 0
M  V30 6434 O 1031.14 -5.42847 -3.03646 0
M  V30 6435 C 1032.33 -7.41196 -3.50753 0
M  V30 6436 O 1032.72 -7.27073 -4.86816 0
M  V30 6437 C 1033.21 -6.5273 -2.63741 0
M  V30 6438 C 1032.5 -5.1842 -2.73198 0
M  V30 6439 N 1032.55 -4.38762 -1.4784 0
M  V30 6440 C 1032.47 -4.81605 -0.168631 0
M  V30 6441 N 1032.55 -3.85454 0.713363 0
M  V30 6442 C 1032.69 -2.6994 -0.0566958 0
M  V30 6443 C 1032.82 -1.34815 0.338502 0
M  V30 6444 O 1032.84 -0.869548 1.47125 0
M  V30 6445 N 1032.94 -0.496304 -0.77465 0
M  V30 6446 C 1032.94 -0.908403 -2.09122 0
M  V30 6447 N 1033.07 0.0517805 -3.00955 0
M  V30 6448 N 1032.81 -2.17875 -2.46519 0
M  V30 6449 C 1032.69 -3.01988 -1.4033 0
M  V30 6450 H 1029.71 -8.36803 -2.32493 0
M  V30 6451 H 1029.44 -6.70197 -1.71129 0
M  V30 6452 H 1030.31 -7.03551 -4.13168 0
M  V30 6453 H 1032.97 -4.59498 -3.54415 0
M  V30 6454 H 1033.25 -6.88898 -1.59848 0
M  V30 6455 H 1034.24 -6.46749 -3.03687 0
M  V30 6456 H 1032.4 -8.46908 -3.20714 0
M  V30 6457 H 1032.35 -5.86405 0.105564 0
M  V30 6458 H 1033.04 0.483664 -0.597855 0
M  V30 6459 H 1033.07 -0.187865 -4.0116 0
M  V30 6460 H 1033.17 1.03585 -2.71726 0
M  V30 6461 P 1034.27 -7.20834 -5.23717 0
M  V30 6462 O 1034.49 -7.7993 -6.57351 0
M  V30 6463 O 1035.06 -7.79328 -4.13004 0
M  V30 6464 O 1034.52 -5.63315 -5.29344 0
M  V30 6465 C 1033.58 -4.80193 -6.01798 0
M  V30 6466 C 1034.31 -3.64202 -6.65911 0
M  V30 6467 O 1034.52 -2.60694 -5.64732 0
M  V30 6468 C 1035.71 -3.93473 -7.1943 0
M  V30 6469 O 1036.1 -3.02071 -8.21205 0
M  V30 6470 C 1036.59 -3.73047 -5.97036 0
M  V30 6471 C 1035.88 -2.58828 -5.25741 0
M  V30 6472 N 1035.93 -2.6801 -3.77422 0
M  V30 6473 C 1036.08 -1.50443 -3.07133 0
M  V30 6474 O 1036.17 -0.419406 -3.61576 0
M  V30 6475 N 1036.12 -1.6403 -1.69677 0
M  V30 6476 C 1036.03 -2.81206 -0.986255 0
M  V30 6477 C 1035.88 -3.99158 -1.80325 0
M  V30 6478 C 1035.83 -3.89779 -3.1476 0
M  V30 6479 H 1033.09 -5.40332 -6.79951 0
M  V30 6480 H 1032.82 -4.41549 -5.32301 0
M  V30 6481 H 1033.69 -3.26331 -7.47797 0
M  V30 6482 H 1036.35 -1.6395 -5.56554 0
M  V30 6483 H 1036.63 -4.63439 -5.3432 0
M  V30 6484 H 1037.62 -3.44728 -6.25838 0
M  V30 6485 H 1035.78 -4.96652 -7.57263 0
M  V30 6486 H 1035.71 -4.80159 -3.74441 0
M  V30 6487 P 1037.65 -2.75334 -8.47391 0
M  V30 6488 O 1037.87 -2.44571 -9.90142 0
M  V30 6489 O 1038.44 -3.87688 -7.92115 0
M  V30 6490 O 1037.9 -1.4459 -7.59357 0
M  V30 6491 C 1036.96 -0.347608 -7.69215 0
M  V30 6492 C 1037.69 0.96767 -7.52806 0
M  V30 6493 O 1037.9 1.21036 -6.1011 0
M  V30 6494 C 1039.09 1.04544 -8.13308 0
M  V30 6495 O 1039.48 2.38311 -8.41922 0
M  V30 6496 C 1039.97 0.491279 -7.02284 0
M  V30 6497 C 1039.26 0.996264 -5.77469 0
M  V30 6498 N 1039.31 0.0501916 -4.62973 0
M  V30 6499 H 1036.47 -0.374722 -8.67691 0
M  V30 6500 H 1036.2 -0.443485 -6.90277 0
M  V30 6501 H 1037.07 1.75537 -7.96793 0
M  V30 6502 P 1041.03 2.75334 -8.47391 0
M  V30 6503 O 1041.25 3.84128 -9.44797 0
M  V30 6504 O 1041.82 1.51947 -8.68712 0
M  V30 6505 O 1041.28 3.29363 -6.99321 0
M  V30 6506 C 1040.34 4.24011 -6.4274 0
M  V30 6507 C 1041.07 5.20775 -5.52155 0
M  V30 6508 O 1041.28 4.56534 -4.22446 0
M  V30 6509 C 1042.47 5.62629 -5.96531 0
M  V30 6510 O 1042.86 6.87667 -5.41053 0
M  V30 6511 C 1043.35 4.52537 -5.39283 0
M  V30 6512 C 1042.64 4.20027 -4.08623 0
M  V30 6513 N 1042.69 2.76189 -3.71603 0
M  V30 6514 H 1039.85 4.797 -7.24003 0
M  V30 6515 H 1039.58 3.69856 -5.84513 0
M  V30 6516 H 1040.45 6.10356 -5.41441 0
M  V30 6517 P 1044.41 7.20834 -5.23717 0
M  V30 6518 O 1044.63 8.66104 -5.38572 0
M  V30 6519 O 1045.2 6.33544 -6.1349 0
M  V30 6520 O 1044.66 6.7751 -3.72168 0
M  V30 6521 C 1043.72 7.20825 -2.7076 0
M  V30 6522 C 1044.45 7.45864 -1.40599 0
M  V30 6523 O 1044.66 6.17651 -0.734225 0
M  V30 6524 C 1045.85 8.05808 -1.51899 0
M  V30 6525 O 1046.24 8.74358 -0.335205 0
M  V30 6526 C 1046.73 6.83093 -1.70294 0
M  V30 6527 C 1046.02 5.79992 -0.836974 0
M  V30 6528 N 1046.07 4.41864 -1.38293 0
M  V30 6529 H 1043.23 8.13644 -3.0377 0
M  V30 6530 H 1042.96 6.42788 -2.55485 0
M  V30 6531 H 1043.83 8.12039 -0.792769 0
M  V30 6532 P 1047.79 8.91 7.97264e-12 0
M  V30 6533 O 1048.01 10.1726 0.733694 0
M  V30 6534 O 1048.58 8.73148 -1.23936 0
M  V30 6535 O 1048.04 7.66872 0.971405 0
M  V30 6536 C 1047.1 7.42309 2.04641 0
M  V30 6537 C 1047.83 6.86059 3.24661 0
M  V30 6538 O 1048.04 5.42847 3.03646 0
M  V30 6539 C 1049.23 7.41196 3.50753 0
M  V30 6540 O 1049.62 7.27073 4.86816 0
M  V30 6541 C 1050.11 6.5273 2.63741 0
M  V30 6542 C 1049.4 5.1842 2.73198 0
M  V30 6543 N 1049.45 4.38762 1.4784 0
M  V30 6544 C 1049.37 4.81605 0.168631 0
M  V30 6545 N 1049.45 3.85454 -0.713363 0
M  V30 6546 C 1049.59 2.6994 0.0566958 0
M  V30 6547 C 1049.72 1.34815 -0.338502 0
M  V30 6548 O 1049.74 0.869548 -1.47125 0
M  V30 6549 N 1049.84 0.496304 0.77465 0
M  V30 6550 C 1049.84 0.908403 2.09122 0
M  V30 6551 N 1049.97 -0.0517805 3.00955 0
M  V30 6552 N 1049.71 2.17875 2.46519 0
M  V30 6553 C 1049.59 3.01988 1.4033 0
M  V30 6554 H 1046.61 8.36803 2.32493 0
M  V30 6555 H 1046.34 6.70197 1.71129 0
M  V30 6556 H 1047.21 7.03551 4.13168 0
M  V30 6557 H 1049.87 4.59498 3.54415 0
M  V30 6558 H 1050.15 6.88898 1.59848 0
M  V30 6559 H 1051.14 6.46749 3.03687 0
M  V30 6560 H 1049.3 8.46908 3.20714 0
M  V30 6561 H 1049.25 5.86405 -0.105564 0
M  V30 6562 H 1049.94 -0.483664 0.597855 0
M  V30 6563 H 1049.97 0.187865 4.0116 0
M  V30 6564 H 1050.07 -1.03585 2.71726 0
M  V30 6565 P 1051.17 7.20834 5.23717 0
M  V30 6566 O 1051.39 7.7993 6.57351 0
M  V30 6567 O 1051.96 7.79328 4.13004 0
M  V30 6568 O 1051.42 5.63315 5.29344 0
M  V30 6569 C 1050.48 4.80193 6.01798 0
M  V30 6570 C 1051.21 3.64202 6.65911 0
M  V30 6571 O 1051.42 2.60694 5.64732 0
M  V30 6572 C 1052.61 3.93473 7.1943 0
M  V30 6573 O 1053 3.02071 8.21205 0
M  V30 6574 C 1053.49 3.73047 5.97036 0
M  V30 6575 C 1052.78 2.58828 5.25741 0
M  V30 6576 N 1052.83 2.6801 3.77422 0
M  V30 6577 C 1052.98 1.50443 3.07133 0
M  V30 6578 O 1053.07 0.419406 3.61576 0
M  V30 6579 N 1053.02 1.6403 1.69677 0
M  V30 6580 C 1052.93 2.81206 0.986255 0
M  V30 6581 C 1052.78 3.99158 1.80325 0
M  V30 6582 C 1052.73 3.89779 3.1476 0
M  V30 6583 H 1049.99 5.40332 6.79951 0
M  V30 6584 H 1049.72 4.41549 5.32301 0
M  V30 6585 H 1050.59 3.26331 7.47797 0
M  V30 6586 H 1053.25 1.6395 5.56554 0
M  V30 6587 H 1053.53 4.63439 5.3432 0
M  V30 6588 H 1054.52 3.44728 6.25838 0
M  V30 6589 H 1052.68 4.96652 7.57263 0
M  V30 6590 H 1052.61 4.80159 3.74441 0
M  V30 6591 P 1054.55 2.75334 8.47391 0
M  V30 6592 O 1054.77 2.44571 9.90142 0
M  V30 6593 O 1055.34 3.87688 7.92115 0
M  V30 6594 O 1054.8 1.4459 7.59357 0
M  V30 6595 C 1053.86 0.347608 7.69215 0
M  V30 6596 C 1054.59 -0.96767 7.52806 0
M  V30 6597 O 1054.8 -1.21036 6.1011 0
M  V30 6598 C 1055.99 -1.04544 8.13308 0
M  V30 6599 O 1056.38 -2.38311 8.41922 0
M  V30 6600 C 1056.87 -0.491279 7.02284 0
M  V30 6601 C 1056.16 -0.996264 5.77469 0
M  V30 6602 N 1056.21 -0.0501916 4.62973 0
M  V30 6603 C 1056.13 1.32786 4.63244 0
M  V30 6604 N 1056.21 1.86957 3.44545 0
M  V30 6605 C 1056.35 0.780241 2.58481 0
M  V30 6606 C 1056.48 0.738536 1.17757 0
M  V30 6607 O 1056.5 1.66794 0.372349 0
M  V30 6608 N 1056.6 -0.58337 0.711393 0
M  V30 6609 C 1056.6 -1.70816 1.51017 0
M  V30 6610 N 1056.73 -2.87826 0.880757 0
M  V30 6611 N 1056.47 -1.67126 2.8339 0
M  V30 6612 C 1056.35 -0.401421 3.30572 0
M  V30 6613 H 1053.37 0.374722 8.67691 0
M  V30 6614 H 1053.1 0.443485 6.90277 0
M  V30 6615 H 1053.97 -1.75537 7.96793 0
M  V30 6616 H 1056.63 -1.95076 5.46529 0
M  V30 6617 H 1056.91 0.608565 7.04577 0
M  V30 6618 H 1057.9 -0.889672 7.08939 0
M  V30 6619 H 1056.06 -0.43308 9.04564 0
M  V30 6620 H 1056.01 1.91249 5.54442 0
M  V30 6621 H 1056.7 -0.718054 -0.275244 0
M  V30 6622 H 1056.73 -3.75721 1.41832 0
M  V30 6623 H 1056.83 -2.90436 -0.145468 0
M  V30 6624 P 1057.93 -2.75334 8.47391 0
M  V30 6625 O 1058.15 -3.84128 9.44797 0
M  V30 6626 O 1058.72 -1.51947 8.68712 0
M  V30 6627 O 1058.18 -3.29363 6.99321 0
M  V30 6628 C 1057.24 -4.24011 6.4274 0
M  V30 6629 C 1057.97 -5.20775 5.52155 0
M  V30 6630 O 1058.18 -4.56534 4.22446 0
M  V30 6631 C 1059.37 -5.62629 5.96531 0
M  V30 6632 O 1059.76 -6.87667 5.41053 0
M  V30 6633 C 1060.25 -4.52537 5.39283 0
M  V30 6634 C 1059.54 -4.20027 4.08623 0
M  V30 6635 N 1059.59 -2.76189 3.71603 0
M  V30 6636 C 1059.51 -1.64862 4.52822 0
M  V30 6637 N 1059.59 -0.512671 3.88633 0
M  V30 6638 C 1059.73 -0.888083 2.54977 0
M  V30 6639 C 1059.86 -0.094668 1.38677 0
M  V30 6640 O 1059.88 1.13053 1.28163 0
M  V30 6641 N 1059.98 -0.890102 0.232633 0
M  V30 6642 C 1059.98 -2.26958 0.21772 0
M  V30 6643 N 1060.11 -2.84626 -0.97925 0
M  V30 6644 N 1059.85 -3.0178 1.31033 0
M  V30 6645 C 1059.73 -2.26781 2.43843 0
M  V30 6646 H 1056.75 -4.797 7.24003 0
M  V30 6647 H 1056.48 -3.69856 5.84513 0
M  V30 6648 H 1057.35 -6.10356 5.41441 0
M  V30 6649 H 1060.01 -4.79061 3.27488 0
M  V30 6650 H 1060.29 -3.64906 6.05785 0
M  V30 6651 H 1061.28 -4.8868 5.2125 0
M  V30 6652 H 1059.44 -5.66726 7.06352 0
M  V30 6653 H 1059.39 -1.71169 5.60966 0
M  V30 6654 H 1060.08 -0.419134 -0.644739 0
M  V30 6655 H 1060.11 -3.87332 -1.06098 0
M  V30 6656 H 1060.21 -2.26417 -1.82483 0
M  V30 6657 P 1061.31 -7.20834 5.23717 0
M  V30 6658 O 1061.53 -8.66189 5.38625 0
M  V30 6659 O 1062.1 -6.33615 6.1356 0
M  V30 6660 O 1061.56 -6.7751 3.72168 0
M  V30 6661 C 1060.62 -7.20732 2.70725 0
M  V30 6662 C 1061.35 -7.45864 1.40599 0
M  V30 6663 O 1061.56 -6.17651 0.734225 0
M  V30 6664 C 1062.75 -8.05808 1.51899 0
M  V30 6665 O 1063.14 -8.74358 0.335205 0
M  V30 6666 C 1063.63 -6.83093 1.70294 0
M  V30 6667 C 1062.92 -5.79992 0.836974 0
M  V30 6668 N 1062.97 -4.41769 1.38263 0
M  V30 6669 C 1063.12 -3.38591 0.481702 0
M  V30 6670 O 1063.21 -3.56839 -0.718452 0
M  V30 6671 N 1063.16 -2.1206 1.03569 0
M  V30 6672 C 1063.07 -1.80696 2.36966 0
M  V30 6673 C 1062.92 -2.94845 3.23898 0
M  V30 6674 C 1062.87 -4.19803 2.73435 0
M  V30 6675 H 1060.13 -8.13644 3.0377 0
M  V30 6676 H 1059.86 -6.42695 2.55448 0
M  V30 6677 H 1060.73 -8.12039 0.792769 0
M  V30 6678 H 1063.39 -5.79978 -0.160587 0
M  V30 6679 H 1063.67 -6.51379 2.75643 0
M  V30 6680 H 1064.66 -7.01734 1.34462 0
M  V30 6681 H 1062.82 -8.73674 2.38337 0
M  V30 6682 H 1062.75 -5.04492 3.4095 0
M  V30 6683 P 1064.69 -8.91 -8.12982e-12 0
M  V30 6684 O 1064.91 -10.1726 -0.733694 0
M  V30 6685 O 1065.48 -8.73148 1.23936 0
M  V30 6686 O 1064.94 -7.66872 -0.971405 0
M  V30 6687 C 1064 -7.42309 -2.04641 0
M  V30 6688 C 1064.73 -6.86059 -3.24661 0
M  V30 6689 O 1064.94 -5.42847 -3.03646 0
M  V30 6690 C 1066.13 -7.41196 -3.50753 0
M  V30 6691 O 1066.52 -7.27073 -4.86816 0
M  V30 6692 C 1067.01 -6.5273 -2.63741 0
M  V30 6693 C 1066.3 -5.1842 -2.73198 0
M  V30 6694 N 1066.35 -4.38762 -1.4784 0
M  V30 6695 C 1066.27 -4.81605 -0.168631 0
M  V30 6696 N 1066.35 -3.85454 0.713363 0
M  V30 6697 C 1066.49 -2.6994 -0.0566958 0
M  V30 6698 C 1066.62 -1.34815 0.338502 0
M  V30 6699 O 1066.64 -0.869548 1.47125 0
M  V30 6700 N 1066.74 -0.496304 -0.77465 0
M  V30 6701 C 1066.74 -0.908403 -2.09122 0
M  V30 6702 N 1066.87 0.0517805 -3.00955 0
M  V30 6703 N 1066.61 -2.17875 -2.46519 0
M  V30 6704 C 1066.49 -3.01988 -1.4033 0
M  V30 6705 H 1063.51 -8.36803 -2.32493 0
M  V30 6706 H 1063.24 -6.70197 -1.71129 0
M  V30 6707 H 1064.11 -7.03551 -4.13168 0
M  V30 6708 H 1066.77 -4.59498 -3.54415 0
M  V30 6709 H 1067.05 -6.88898 -1.59848 0
M  V30 6710 H 1068.04 -6.46749 -3.03687 0
M  V30 6711 H 1066.2 -8.46908 -3.20714 0
M  V30 6712 H 1066.15 -5.86405 0.105564 0
M  V30 6713 H 1066.84 0.483664 -0.597855 0
M  V30 6714 H 1066.87 -0.187865 -4.0116 0
M  V30 6715 H 1066.97 1.03585 -2.71726 0
M  V30 6716 P 1068.07 -7.20834 -5.23717 0
M  V30 6717 O 1068.29 -7.79853 -6.57286 0
M  V30 6718 O 1068.86 -7.79239 -4.12957 0
M  V30 6719 O 1068.32 -5.63315 -5.29344 0
M  V30 6720 C 1067.38 -4.80255 -6.01876 0
M  V30 6721 C 1068.11 -3.64202 -6.65911 0
M  V30 6722 O 1068.32 -2.60694 -5.64732 0
M  V30 6723 C 1069.51 -3.93473 -7.1943 0
M  V30 6724 O 1069.9 -3.02071 -8.21205 0
M  V30 6725 C 1070.39 -3.73047 -5.97036 0
M  V30 6726 C 1069.68 -2.58828 -5.25741 0
M  V30 6727 N 1069.73 -2.68068 -3.77503 0
M  V30 6728 C 1069.65 -3.79715 -2.96723 0
M  V30 6729 N 1069.73 -3.5377 -1.68852 0
M  V30 6730 C 1069.87 -2.15054 -1.63254 0
M  V30 6731 C 1070 -1.28964 -0.518571 0
M  V30 6732 O 1070.02 -1.56826 0.679156 0
M  V30 6733 N 1070.12 0.0538097 -0.918425 0
M  V30 6734 C 1070.12 0.494275 -2.22578 0
M  V30 6735 N 1070.25 1.81086 -2.40434 0
M  V30 6736 N 1069.99 -0.313645 -3.27502 0
M  V30 6737 C 1069.87 -1.61829 -2.91033 0
M  V30 6738 H 1066.89 -5.40332 -6.79951 0
M  V30 6739 H 1066.62 -4.41613 -5.32378 0
M  V30 6740 H 1067.49 -3.26331 -7.47797 0
M  V30 6741 H 1070.15 -1.63422 -5.56814 0
M  V30 6742 H 1070.43 -4.63374 -5.34244 0
M  V30 6743 H 1071.42 -3.44728 -6.25838 0
M  V30 6744 H 1069.58 -4.96652 -7.57263 0
M  V30 6745 H 1069.53 -4.80617 -3.3614 0
M  V30 6746 H 1070.22 0.742702 -0.199384 0
M  V30 6747 H 1070.25 2.20598 -3.35588 0
M  V30 6748 H 1070.35 2.43518 -1.58945 0
M  V30 6749 P 1071.45 -2.75334 -8.47391 0
M  V30 6750 O 1071.67 -2.44595 -9.90239 0
M  V30 6751 O 1072.24 -3.87732 -7.92204 0
M  V30 6752 O 1071.7 -1.4459 -7.59357 0
M  V30 6753 C 1070.76 -0.347563 -7.69115 0
M  V30 6754 C 1071.49 0.96767 -7.52806 0
M  V30 6755 O 1071.7 1.21036 -6.1011 0
M  V30 6756 C 1072.89 1.04544 -8.13308 0
M  V30 6757 O 1073.28 2.38311 -8.41922 0
M  V30 6758 C 1073.77 0.491279 -7.02284 0
M  V30 6759 C 1073.06 0.996264 -5.77469 0
M  V30 6760 N 1073.11 0.0501808 -4.62873 0
M  V30 6761 C 1073.26 0.588177 -3.36904 0
M  V30 6762 O 1073.35 1.78598 -3.17173 0
M  V30 6763 N 1073.3 -0.329694 -2.33686 0
M  V30 6764 C 1073.21 -1.6953 -2.45079 0
M  V30 6765 C 1073.06 -2.16933 -3.80505 0
M  V30 6766 C 1073.01 -1.30326 -4.83752 0
M  V30 6767 H 1070.27 -0.374722 -8.67691 0
M  V30 6768 H 1070 -0.443421 -6.90177 0
M  V30 6769 H 1070.87 1.75537 -7.96793 0
M  V30 6770 H 1073.53 1.94496 -5.46629 0
M  V30 6771 H 1073.81 -0.608651 -7.04676 0
M  V30 6772 H 1074.8 0.889672 -7.08939 0
M  V30 6773 H 1072.96 0.43308 -9.04564 0
M  V30 6774 H 1072.89 -1.68366 -5.8516 0
M  V30 6775 P 1074.83 2.75334 -8.47391 0
M  V30 6776 O 1075.05 3.84128 -9.44797 0
M  V30 6777 O 1075.62 1.51947 -8.68712 0
M  V30 6778 O 1075.08 3.29363 -6.99321 0
M  V30 6779 C 1074.14 4.24011 -6.4274 0
M  V30 6780 C 1074.87 5.20775 -5.52155 0
M  V30 6781 O 1075.08 4.56534 -4.22446 0
M  V30 6782 C 1076.27 5.62629 -5.96531 0
M  V30 6783 O 1076.66 6.87667 -5.41053 0
M  V30 6784 C 1077.15 4.52537 -5.39283 0
M  V30 6785 C 1076.44 4.20027 -4.08623 0
M  V30 6786 N 1076.49 2.76189 -3.71603 0
M  V30 6787 H 1073.65 4.797 -7.24003 0
M  V30 6788 H 1073.38 3.69856 -5.84513 0
M  V30 6789 H 1074.25 6.10356 -5.41441 0
M  V30 6790 P 1078.21 7.20834 -5.23717 0
M  V30 6791 O 1078.43 8.66189 -5.38625 0
M  V30 6792 O 1079 6.33615 -6.1356 0
M  V30 6793 O 1078.46 6.7751 -3.72168 0
M  V30 6794 C 1077.52 7.20732 -2.70725 0
M  V30 6795 C 1078.25 7.45864 -1.40599 0
M  V30 6796 O 1078.46 6.17651 -0.734225 0
M  V30 6797 C 1079.65 8.05808 -1.51899 0
M  V30 6798 O 1080.04 8.74358 -0.335205 0
M  V30 6799 C 1080.53 6.83093 -1.70294 0
M  V30 6800 C 1079.82 5.79992 -0.836974 0
M  V30 6801 N 1079.87 4.41769 -1.38263 0
M  V30 6802 C 1080.02 3.38591 -0.481702 0
M  V30 6803 O 1080.11 3.56839 0.718452 0
M  V30 6804 N 1080.06 2.1206 -1.03569 0
M  V30 6805 C 1079.97 1.80696 -2.36966 0
M  V30 6806 C 1079.82 2.94845 -3.23898 0
M  V30 6807 C 1079.77 4.19803 -2.73435 0
M  V30 6808 H 1077.03 8.13644 -3.0377 0
M  V30 6809 H 1076.76 6.42695 -2.55448 0
M  V30 6810 H 1077.63 8.12039 -0.792769 0
M  V30 6811 H 1080.29 5.79978 0.160587 0
M  V30 6812 H 1080.57 6.51379 -2.75643 0
M  V30 6813 H 1081.56 7.01734 -1.34462 0
M  V30 6814 H 1079.72 8.73674 -2.38337 0
M  V30 6815 H 1079.65 5.04492 -3.4095 0
M  V30 6816 P 1081.59 8.91 8.287e-12 0
M  V30 6817 O 1081.81 10.1736 0.733766 0
M  V30 6818 O 1082.38 8.73247 -1.2395 0
M  V30 6819 O 1081.84 7.66872 0.971405 0
M  V30 6820 C 1080.9 7.42212 2.04614 0
M  V30 6821 C 1081.63 6.86059 3.24661 0
M  V30 6822 O 1081.84 5.42847 3.03646 0
M  V30 6823 C 1083.03 7.41196 3.50753 0
M  V30 6824 O 1083.42 7.27073 4.86816 0
M  V30 6825 C 1083.91 6.5273 2.63741 0
M  V30 6826 C 1083.2 5.1842 2.73198 0
M  V30 6827 N 1083.25 4.38668 1.47808 0
M  V30 6828 C 1083.4 3.02239 1.60048 0
M  V30 6829 O 1083.49 2.46459 2.67869 0
M  V30 6830 N 1083.44 2.32436 0.408571 0
M  V30 6831 C 1083.35 2.85471 -0.854993 0
M  V30 6832 O 1083.4 2.12566 -1.8531 0
M  V30 6833 C 1083.2 4.28918 -0.887335 0
M  V30 6834 C 1083.09 4.91066 -2.24619 0
M  V30 6835 C 1083.15 5.00349 0.255399 0
M  V30 6836 H 1080.41 8.36803 2.32493 0
M  V30 6837 H 1080.14 6.701 1.71105 0
M  V30 6838 H 1081.01 7.03551 4.13168 0
M  V30 6839 H 1083.67 4.59773 3.53894 0
M  V30 6840 H 1083.95 6.88995 1.59871 0
M  V30 6841 H 1084.94 6.46749 3.03687 0
M  V30 6842 H 1083.1 8.46908 3.20714 0
M  V30 6843 H 1083.03 6.08548 0.206986 0
M  V30 6844 H 1084.06 5.34836 -2.53099 0
M  V30 6845 H 1082.33 5.69638 -2.2291 0
M  V30 6846 H 1082.81 4.13971 -2.98044 0
M  V30 6847 H 1083.55 1.33211 0.474216 0
M  V30 6848 P 1084.97 7.20834 5.23717 0
M  V30 6849 O 1085.19 7.79853 6.57286 0
M  V30 6850 O 1085.76 7.79239 4.12957 0
M  V30 6851 O 1085.22 5.63315 5.29344 0
M  V30 6852 C 1084.28 4.80255 6.01876 0
M  V30 6853 C 1085.01 3.64202 6.65911 0
M  V30 6854 O 1085.22 2.60694 5.64732 0
M  V30 6855 C 1086.41 3.93473 7.1943 0
M  V30 6856 O 1086.8 3.02071 8.21205 0
M  V30 6857 C 1087.29 3.73047 5.97036 0
M  V30 6858 C 1086.58 2.58828 5.25741 0
M  V30 6859 N 1086.63 2.68068 3.77503 0
M  V30 6860 C 1086.55 3.79715 2.96723 0
M  V30 6861 N 1086.63 3.5377 1.68852 0
M  V30 6862 C 1086.77 2.15054 1.63254 0
M  V30 6863 C 1086.9 1.28964 0.518571 0
M  V30 6864 O 1086.92 1.56826 -0.679156 0
M  V30 6865 N 1087.02 -0.0538097 0.918425 0
M  V30 6866 C 1087.02 -0.494275 2.22578 0
M  V30 6867 N 1087.15 -1.81086 2.40434 0
M  V30 6868 N 1086.89 0.313645 3.27502 0
M  V30 6869 C 1086.77 1.61829 2.91033 0
M  V30 6870 H 1083.79 5.40332 6.79951 0
M  V30 6871 H 1083.52 4.41613 5.32378 0
M  V30 6872 H 1084.39 3.26331 7.47797 0
M  V30 6873 H 1087.05 1.63422 5.56814 0
M  V30 6874 H 1087.33 4.63374 5.34244 0
M  V30 6875 H 1088.32 3.44728 6.25838 0
M  V30 6876 H 1086.48 4.96652 7.57263 0
M  V30 6877 H 1086.43 4.80617 3.3614 0
M  V30 6878 H 1087.12 -0.742702 0.199384 0
M  V30 6879 H 1087.15 -2.20598 3.35588 0
M  V30 6880 H 1087.25 -2.43518 1.58945 0
M  V30 6881 P 1088.35 2.75334 8.47391 0
M  V30 6882 O 1088.57 2.44595 9.90239 0
M  V30 6883 O 1089.14 3.87732 7.92204 0
M  V30 6884 O 1088.6 1.4459 7.59357 0
M  V30 6885 C 1087.66 0.347563 7.69115 0
M  V30 6886 C 1088.39 -0.96767 7.52806 0
M  V30 6887 O 1088.6 -1.21036 6.1011 0
M  V30 6888 C 1089.79 -1.04544 8.13308 0
M  V30 6889 O 1090.18 -2.38311 8.41922 0
M  V30 6890 C 1090.67 -0.491279 7.02284 0
M  V30 6891 C 1089.96 -0.996264 5.77469 0
M  V30 6892 N 1090.01 -0.0501808 4.62873 0
M  V30 6893 C 1090.16 -0.588177 3.36904 0
M  V30 6894 O 1090.25 -1.78598 3.17173 0
M  V30 6895 N 1090.2 0.329694 2.33686 0
M  V30 6896 C 1090.11 1.6953 2.45079 0
M  V30 6897 C 1089.96 2.16933 3.80505 0
M  V30 6898 C 1089.91 1.30326 4.83752 0
M  V30 6899 H 1087.17 0.374722 8.67691 0
M  V30 6900 H 1086.9 0.443421 6.90177 0
M  V30 6901 H 1087.77 -1.75537 7.96793 0
M  V30 6902 H 1090.43 -1.94496 5.46629 0
M  V30 6903 H 1090.71 0.608651 7.04676 0
M  V30 6904 H 1091.7 -0.889672 7.08939 0
M  V30 6905 H 1089.86 -0.43308 9.04564 0
M  V30 6906 H 1089.79 1.68366 5.8516 0
M  V30 6907 P 1091.73 -2.75334 8.47391 0
M  V30 6908 O 1091.95 -3.84128 9.44797 0
M  V30 6909 O 1092.52 -1.51947 8.68712 0
M  V30 6910 O 1091.98 -3.29363 6.99321 0
M  V30 6911 C 1091.04 -4.24011 6.4274 0
M  V30 6912 C 1091.77 -5.20775 5.52155 0
M  V30 6913 O 1091.98 -4.56534 4.22446 0
M  V30 6914 C 1093.17 -5.62629 5.96531 0
M  V30 6915 O 1093.56 -6.87667 5.41053 0
M  V30 6916 C 1094.05 -4.52537 5.39283 0
M  V30 6917 C 1093.34 -4.20027 4.08623 0
M  V30 6918 N 1093.39 -2.76189 3.71603 0
M  V30 6919 H 1090.55 -4.797 7.24003 0
M  V30 6920 H 1090.28 -3.69856 5.84513 0
M  V30 6921 H 1091.15 -6.10356 5.41441 0
M  V30 6922 P 1095.11 -7.20834 5.23717 0
M  V30 6923 O 1095.33 -8.66104 5.38572 0
M  V30 6924 O 1095.9 -6.33544 6.1349 0
M  V30 6925 O 1095.36 -6.7751 3.72168 0
M  V30 6926 C 1094.42 -7.20825 2.7076 0
M  V30 6927 C 1095.15 -7.45864 1.40599 0
M  V30 6928 O 1095.36 -6.17651 0.734225 0
M  V30 6929 C 1096.55 -8.05808 1.51899 0
M  V30 6930 O 1096.94 -8.74358 0.335205 0
M  V30 6931 C 1097.43 -6.83093 1.70294 0
M  V30 6932 C 1096.72 -5.79992 0.836974 0
M  V30 6933 N 1096.77 -4.41864 1.38293 0
M  V30 6934 H 1093.93 -8.13644 3.0377 0
M  V30 6935 H 1093.66 -6.42788 2.55485 0
M  V30 6936 H 1094.53 -8.12039 0.792769 0
M  V30 6937 P 1098.49 -8.91 -8.44418e-12 0
M  V30 6938 O 1098.71 -10.1736 -0.733766 0
M  V30 6939 O 1099.28 -8.73247 1.2395 0
M  V30 6940 O 1098.74 -7.66872 -0.971405 0
M  V30 6941 C 1097.8 -7.42212 -2.04614 0
M  V30 6942 C 1098.53 -6.86059 -3.24661 0
M  V30 6943 O 1098.74 -5.42847 -3.03646 0
M  V30 6944 C 1099.93 -7.41196 -3.50753 0
M  V30 6945 O 1100.32 -7.27073 -4.86816 0
M  V30 6946 C 1100.81 -6.5273 -2.63741 0
M  V30 6947 C 1100.1 -5.1842 -2.73198 0
M  V30 6948 N 1100.15 -4.38668 -1.47808 0
M  V30 6949 C 1100.3 -3.02239 -1.60048 0
M  V30 6950 O 1100.39 -2.46459 -2.67869 0
M  V30 6951 N 1100.34 -2.32436 -0.408571 0
M  V30 6952 C 1100.25 -2.85471 0.854993 0
M  V30 6953 C 1100.1 -4.28918 0.887335 0
M  V30 6954 C 1100.05 -5.00349 -0.255399 0
M  V30 6955 H 1097.31 -8.36803 -2.32493 0
M  V30 6956 H 1097.04 -6.701 -1.71105 0
M  V30 6957 H 1097.91 -7.03551 -4.13168 0
M  V30 6958 H 1100.57 -4.59773 -3.53894 0
M  V30 6959 H 1100.85 -6.88995 -1.59871 0
M  V30 6960 H 1101.84 -6.46749 -3.03687 0
M  V30 6961 H 1100 -8.46908 -3.20714 0
M  V30 6962 H 1099.93 -6.08548 -0.206986 0
M  V30 6963 P 1101.87 -7.20834 -5.23717 0
M  V30 6964 O 1102.09 -7.7993 -6.57351 0
M  V30 6965 O 1102.66 -7.79328 -4.13004 0
M  V30 6966 O 1102.12 -5.63315 -5.29344 0
M  V30 6967 C 1101.18 -4.80193 -6.01798 0
M  V30 6968 C 1101.91 -3.64202 -6.65911 0
M  V30 6969 O 1102.12 -2.60694 -5.64732 0
M  V30 6970 C 1103.31 -3.93473 -7.1943 0
M  V30 6971 O 1103.7 -3.02071 -8.21205 0
M  V30 6972 C 1104.19 -3.73047 -5.97036 0
M  V30 6973 C 1103.48 -2.58828 -5.25741 0
M  V30 6974 N 1103.53 -2.6801 -3.77422 0
M  V30 6975 C 1103.68 -1.50443 -3.07133 0
M  V30 6976 O 1103.77 -0.419406 -3.61576 0
M  V30 6977 N 1103.72 -1.6403 -1.69677 0
M  V30 6978 C 1103.63 -2.81206 -0.986255 0
M  V30 6979 C 1103.48 -3.99158 -1.80325 0
M  V30 6980 C 1103.43 -3.89779 -3.1476 0
M  V30 6981 H 1100.69 -5.40332 -6.79951 0
M  V30 6982 H 1100.42 -4.41549 -5.32301 0
M  V30 6983 H 1101.29 -3.26331 -7.47797 0
M  V30 6984 H 1103.95 -1.6395 -5.56554 0
M  V30 6985 H 1104.23 -4.63439 -5.3432 0
M  V30 6986 H 1105.22 -3.44728 -6.25838 0
M  V30 6987 H 1103.38 -4.96652 -7.57263 0
M  V30 6988 H 1103.31 -4.80159 -3.74441 0
M  V30 6989 P 1105.25 -2.75334 -8.47391 0
M  V30 6990 O 1105.47 -2.44571 -9.90142 0
M  V30 6991 O 1106.04 -3.87688 -7.92115 0
M  V30 6992 O 1105.5 -1.4459 -7.59357 0
M  V30 6993 C 1104.56 -0.347608 -7.69215 0
M  V30 6994 C 1105.29 0.96767 -7.52806 0
M  V30 6995 O 1105.5 1.21036 -6.1011 0
M  V30 6996 C 1106.69 1.04544 -8.13308 0
M  V30 6997 O 1107.08 2.38311 -8.41922 0
M  V30 6998 C 1107.57 0.491279 -7.02284 0
M  V30 6999 C 1106.86 0.996264 -5.77469 0
M  V30 7000 N 1106.91 0.0501916 -4.62973 0
M  V30 7001 C 1106.83 -1.32786 -4.63244 0
M  V30 7002 N 1106.91 -1.86957 -3.44545 0
M  V30 7003 C 1107.05 -0.780241 -2.58481 0
M  V30 7004 C 1107.18 -0.738536 -1.17757 0
M  V30 7005 O 1107.2 -1.66794 -0.372349 0
M  V30 7006 N 1107.3 0.58337 -0.711393 0
M  V30 7007 C 1107.3 1.70816 -1.51017 0
M  V30 7008 N 1107.43 2.87826 -0.880757 0
M  V30 7009 N 1107.17 1.67126 -2.8339 0
M  V30 7010 C 1107.05 0.401421 -3.30572 0
M  V30 7011 H 1104.07 -0.374722 -8.67691 0
M  V30 7012 H 1103.8 -0.443485 -6.90277 0
M  V30 7013 H 1104.67 1.75537 -7.96793 0
M  V30 7014 H 1107.33 1.95076 -5.46529 0
M  V30 7015 H 1107.61 -0.608565 -7.04577 0
M  V30 7016 H 1108.6 0.889672 -7.08939 0
M  V30 7017 H 1106.76 0.43308 -9.04564 0
M  V30 7018 H 1106.71 -1.91249 -5.54442 0
M  V30 7019 H 1107.4 0.718054 0.275244 0
M  V30 7020 H 1107.43 3.75721 -1.41832 0
M  V30 7021 H 1107.53 2.90436 0.145468 0
M  V30 7022 P 1108.63 2.75334 -8.47391 0
M  V30 7023 O 1108.85 3.84166 -9.4489 0
M  V30 7024 O 1109.42 1.51964 -8.6881 0
M  V30 7025 O 1108.88 3.29363 -6.99321 0
M  V30 7026 C 1107.94 4.23956 -6.42656 0
M  V30 7027 C 1108.67 5.20775 -5.52155 0
M  V30 7028 O 1108.88 4.56534 -4.22446 0
M  V30 7029 C 1110.07 5.62629 -5.96531 0
M  V30 7030 O 1110.46 6.87667 -5.41053 0
M  V30 7031 C 1110.95 4.52537 -5.39283 0
M  V30 7032 C 1110.24 4.20027 -4.08623 0
M  V30 7033 N 1110.29 2.7613 -3.71522 0
M  V30 7034 C 1110.44 2.45612 -2.37989 0
M  V30 7035 O 1110.53 3.30919 -1.51621 0
M  V30 7036 N 1110.48 1.10684 -2.08435 0
M  V30 7037 C 1110.39 0.0690084 -2.9792 0
M  V30 7038 C 1110.24 0.481522 -4.35345 0
M  V30 7039 C 1110.19 1.78906 -4.67968 0
M  V30 7040 H 1107.45 4.797 -7.24003 0
M  V30 7041 H 1107.18 3.69802 -5.84429 0
M  V30 7042 H 1108.05 6.10356 -5.41441 0
M  V30 7043 H 1110.71 4.78651 -3.27911 0
M  V30 7044 H 1110.99 3.64957 -6.05871 0
M  V30 7045 H 1111.98 4.8868 -5.2125 0
M  V30 7046 H 1110.14 5.66726 -7.06352 0
M  V30 7047 H 1110.07 2.07737 -5.72367 0
M  V30 7048 P 1112.01 7.20834 -5.23717 0
M  V30 7049 O 1112.23 8.66104 -5.38572 0
M  V30 7050 O 1112.8 6.33544 -6.1349 0
M  V30 7051 O 1112.26 6.7751 -3.72168 0
M  V30 7052 C 1111.32 7.20825 -2.7076 0
M  V30 7053 C 1112.05 7.45864 -1.40599 0
M  V30 7054 O 1112.26 6.17651 -0.734225 0
M  V30 7055 C 1113.45 8.05808 -1.51899 0
M  V30 7056 O 1113.84 8.74358 -0.335205 0
M  V30 7057 C 1114.33 6.83093 -1.70294 0
M  V30 7058 C 1113.62 5.79992 -0.836974 0
M  V30 7059 N 1113.67 4.41864 -1.38293 0
M  V30 7060 C 1113.59 3.99538 -2.69438 0
M  V30 7061 N 1113.67 2.69909 -2.84277 0
M  V30 7062 C 1113.81 2.21719 -1.5408 0
M  V30 7063 C 1113.94 0.891712 -1.06628 0
M  V30 7064 O 1113.96 -0.161298 -1.70137 0
M  V30 7065 N 1114.06 0.856846 0.334985 0
M  V30 7066 C 1114.06 1.9641 1.15789 0
M  V30 7067 N 1114.19 1.72708 2.46522 0
M  V30 7068 N 1113.93 3.21165 0.713741 0
M  V30 7069 C 1113.81 3.26797 -0.639748 0
M  V30 7070 H 1110.83 8.13644 -3.0377 0
M  V30 7071 H 1110.56 6.42788 -2.55485 0
M  V30 7072 H 1111.43 8.12039 -0.792769 0
M  V30 7073 H 1114.09 5.80061 0.166416 0
M  V30 7074 H 1114.37 6.51287 -2.75604 0
M  V30 7075 H 1115.36 7.01734 -1.34462 0
M  V30 7076 H 1113.52 8.73674 -2.38337 0
M  V30 7077 H 1113.47 4.68207 -3.53221 0
M  V30 7078 H 1114.16 -0.0398818 0.767965 0
M  V30 7079 H 1114.19 2.50995 3.13503 0
M  V30 7080 H 1114.29 0.759148 2.80716 0
M  V30 7081 P 1115.39 8.91 8.60137e-12 0
M  V30 7082 O 1115.61 10.1726 0.733694 0
M  V30 7083 O 1116.18 8.73148 -1.23936 0
M  V30 7084 O 1115.64 7.66872 0.971405 0
M  V30 7085 C 1114.7 7.42309 2.04641 0
M  V30 7086 C 1115.43 6.86059 3.24661 0
M  V30 7087 O 1115.64 5.42847 3.03646 0
M  V30 7088 C 1116.83 7.41196 3.50753 0
M  V30 7089 O 1117.22 7.27073 4.86816 0
M  V30 7090 C 1117.71 6.5273 2.63741 0
M  V30 7091 C 1117 5.1842 2.73198 0
M  V30 7092 N 1117.05 4.38762 1.4784 0
M  V30 7093 H 1114.21 8.36803 2.32493 0
M  V30 7094 H 1113.94 6.70197 1.71129 0
M  V30 7095 H 1114.81 7.03551 4.13168 0
M  V30 7096 P 1118.77 7.20834 5.23717 0
M  V30 7097 O 1118.99 7.7993 6.57351 0
M  V30 7098 O 1119.56 7.79328 4.13004 0
M  V30 7099 O 1119.02 5.63315 5.29344 0
M  V30 7100 C 1118.08 4.80193 6.01798 0
M  V30 7101 C 1118.81 3.64202 6.65911 0
M  V30 7102 O 1119.02 2.60694 5.64732 0
M  V30 7103 C 1120.21 3.93473 7.1943 0
M  V30 7104 O 1120.6 3.02071 8.21205 0
M  V30 7105 C 1121.09 3.73047 5.97036 0
M  V30 7106 C 1120.38 2.58828 5.25741 0
M  V30 7107 N 1120.43 2.6801 3.77422 0
M  V30 7108 C 1120.58 1.50443 3.07133 0
M  V30 7109 O 1120.67 0.419406 3.61576 0
M  V30 7110 N 1120.62 1.6403 1.69677 0
M  V30 7111 C 1120.53 2.81206 0.986255 0
M  V30 7112 C 1120.38 3.99158 1.80325 0
M  V30 7113 C 1120.33 3.89779 3.1476 0
M  V30 7114 H 1117.59 5.40332 6.79951 0
M  V30 7115 H 1117.32 4.41549 5.32301 0
M  V30 7116 H 1118.19 3.26331 7.47797 0
M  V30 7117 H 1120.85 1.6395 5.56554 0
M  V30 7118 H 1121.13 4.63439 5.3432 0
M  V30 7119 H 1122.12 3.44728 6.25838 0
M  V30 7120 H 1120.28 4.96652 7.57263 0
M  V30 7121 H 1120.21 4.80159 3.74441 0
M  V30 7122 P 1122.15 2.75334 8.47391 0
M  V30 7123 O 1122.37 2.44571 9.90142 0
M  V30 7124 O 1122.94 3.87688 7.92115 0
M  V30 7125 O 1122.4 1.4459 7.59357 0
M  V30 7126 C 1121.46 0.347608 7.69215 0
M  V30 7127 C 1122.19 -0.96767 7.52806 0
M  V30 7128 O 1122.4 -1.21036 6.1011 0
M  V30 7129 C 1123.59 -1.04544 8.13308 0
M  V30 7130 O 1123.98 -2.38311 8.41922 0
M  V30 7131 C 1124.47 -0.491279 7.02284 0
M  V30 7132 C 1123.76 -0.996264 5.77469 0
M  V30 7133 N 1123.81 -0.0501916 4.62973 0
M  V30 7134 H 1120.97 0.374722 8.67691 0
M  V30 7135 H 1120.7 0.443485 6.90277 0
M  V30 7136 H 1121.57 -1.75537 7.96793 0
M  V30 7137 P 1125.53 -2.75334 8.47391 0
M  V30 7138 O 1125.75 -3.84128 9.44797 0
M  V30 7139 O 1126.32 -1.51947 8.68712 0
M  V30 7140 O 1125.78 -3.29363 6.99321 0
M  V30 7141 C 1124.84 -4.24011 6.4274 0
M  V30 7142 C 1125.57 -5.20775 5.52155 0
M  V30 7143 O 1125.78 -4.56534 4.22446 0
M  V30 7144 C 1126.97 -5.62629 5.96531 0
M  V30 7145 O 1127.36 -6.87667 5.41053 0
M  V30 7146 C 1127.85 -4.52537 5.39283 0
M  V30 7147 C 1127.14 -4.20027 4.08623 0
M  V30 7148 N 1127.19 -2.76189 3.71603 0
M  V30 7149 H 1124.35 -4.797 7.24003 0
M  V30 7150 H 1124.08 -3.69856 5.84513 0
M  V30 7151 H 1124.95 -6.10356 5.41441 0
M  V30 7152 P 1128.91 -7.20834 5.23717 0
M  V30 7153 O 1129.13 -8.66104 5.38572 0
M  V30 7154 O 1129.7 -6.33544 6.1349 0
M  V30 7155 O 1129.16 -6.7751 3.72168 0
M  V30 7156 C 1128.22 -7.20825 2.7076 0
M  V30 7157 C 1128.95 -7.45864 1.40599 0
M  V30 7158 O 1129.16 -6.17651 0.734225 0
M  V30 7159 C 1130.35 -8.05808 1.51899 0
M  V30 7160 O 1130.74 -8.74358 0.335205 0
M  V30 7161 C 1131.23 -6.83093 1.70294 0
M  V30 7162 C 1130.52 -5.79992 0.836974 0
M  V30 7163 N 1130.57 -4.41864 1.38293 0
M  V30 7164 H 1127.73 -8.13644 3.0377 0
M  V30 7165 H 1127.46 -6.42788 2.55485 0
M  V30 7166 H 1128.33 -8.12039 0.792769 0
M  V30 7167 P 1132.29 -8.91 -8.75855e-12 0
M  V30 7168 O 1132.51 -10.1726 -0.733694 0
M  V30 7169 O 1133.08 -8.73148 1.23936 0
M  V30 7170 O 1132.54 -7.66872 -0.971405 0
M  V30 7171 C 1131.6 -7.42309 -2.04641 0
M  V30 7172 C 1132.33 -6.86059 -3.24661 0
M  V30 7173 O 1132.54 -5.42847 -3.03646 0
M  V30 7174 C 1133.73 -7.41196 -3.50753 0
M  V30 7175 O 1134.12 -7.27073 -4.86816 0
M  V30 7176 C 1134.61 -6.5273 -2.63741 0
M  V30 7177 C 1133.9 -5.1842 -2.73198 0
M  V30 7178 N 1133.95 -4.38762 -1.4784 0
M  V30 7179 H 1131.11 -8.36803 -2.32493 0
M  V30 7180 H 1130.84 -6.70197 -1.71129 0
M  V30 7181 H 1131.71 -7.03551 -4.13168 0
M  V30 7182 P 1135.67 -7.20834 -5.23717 0
M  V30 7183 O 1135.89 -7.79853 -6.57286 0
M  V30 7184 O 1136.46 -7.79239 -4.12957 0
M  V30 7185 O 1135.92 -5.63315 -5.29344 0
M  V30 7186 C 1134.98 -4.80255 -6.01876 0
M  V30 7187 C 1135.71 -3.64202 -6.65911 0
M  V30 7188 O 1135.92 -2.60694 -5.64732 0
M  V30 7189 C 1137.11 -3.93473 -7.1943 0
M  V30 7190 O 1137.5 -3.02071 -8.21205 0
M  V30 7191 C 1137.99 -3.73047 -5.97036 0
M  V30 7192 C 1137.28 -2.58828 -5.25741 0
M  V30 7193 N 1137.33 -2.68068 -3.77503 0
M  V30 7194 H 1134.49 -5.40332 -6.79951 0
M  V30 7195 H 1134.22 -4.41613 -5.32378 0
M  V30 7196 H 1135.09 -3.26331 -7.47797 0
M  V30 7197 P 1139.05 -2.75334 -8.47391 0
M  V30 7198 O 1139.27 -2.44571 -9.90142 0
M  V30 7199 O 1139.84 -3.87688 -7.92115 0
M  V30 7200 O 1139.3 -1.4459 -7.59357 0
M  V30 7201 C 1138.36 -0.347608 -7.69215 0
M  V30 7202 C 1139.09 0.96767 -7.52806 0
M  V30 7203 O 1139.3 1.21036 -6.1011 0
M  V30 7204 C 1140.49 1.04544 -8.13308 0
M  V30 7205 O 1140.88 2.38311 -8.41922 0
M  V30 7206 C 1141.37 0.491279 -7.02284 0
M  V30 7207 C 1140.66 0.996264 -5.77469 0
M  V30 7208 N 1140.71 0.0501916 -4.62973 0
M  V30 7209 C 1140.63 -1.32786 -4.63244 0
M  V30 7210 N 1140.71 -1.86957 -3.44545 0
M  V30 7211 C 1140.85 -0.780241 -2.58481 0
M  V30 7212 C 1140.98 -0.738536 -1.17757 0
M  V30 7213 O 1141 -1.66794 -0.372349 0
M  V30 7214 N 1141.1 0.58337 -0.711393 0
M  V30 7215 C 1141.1 1.70816 -1.51017 0
M  V30 7216 N 1141.23 2.87826 -0.880757 0
M  V30 7217 N 1140.97 1.67126 -2.8339 0
M  V30 7218 C 1140.85 0.401421 -3.30572 0
M  V30 7219 H 1137.87 -0.374722 -8.67691 0
M  V30 7220 H 1137.6 -0.443485 -6.90277 0
M  V30 7221 H 1138.47 1.75537 -7.96793 0
M  V30 7222 H 1141.13 1.95076 -5.46529 0
M  V30 7223 H 1141.41 -0.608565 -7.04577 0
M  V30 7224 H 1142.4 0.889672 -7.08939 0
M  V30 7225 H 1140.56 0.43308 -9.04564 0
M  V30 7226 H 1140.51 -1.91249 -5.54442 0
M  V30 7227 H 1141.2 0.718054 0.275244 0
M  V30 7228 H 1141.23 3.75721 -1.41832 0
M  V30 7229 H 1141.33 2.90436 0.145468 0
M  V30 7230 P 1142.43 2.75334 -8.47391 0
M  V30 7231 O 1142.65 3.84166 -9.4489 0
M  V30 7232 O 1143.22 1.51964 -8.6881 0
M  V30 7233 O 1142.68 3.29363 -6.99321 0
M  V30 7234 C 1141.74 4.23956 -6.42656 0
M  V30 7235 C 1142.47 5.20775 -5.52155 0
M  V30 7236 O 1142.68 4.56534 -4.22446 0
M  V30 7237 C 1143.87 5.62629 -5.96531 0
M  V30 7238 O 1144.26 6.87667 -5.41053 0
M  V30 7239 C 1144.75 4.52537 -5.39283 0
M  V30 7240 C 1144.04 4.20027 -4.08623 0
M  V30 7241 N 1144.09 2.7613 -3.71522 0
M  V30 7242 C 1144.24 2.45612 -2.37989 0
M  V30 7243 O 1144.33 3.30919 -1.51621 0
M  V30 7244 N 1144.28 1.10684 -2.08435 0
M  V30 7245 C 1144.19 0.0690084 -2.9792 0
M  V30 7246 C 1144.04 0.481522 -4.35345 0
M  V30 7247 C 1143.99 1.78906 -4.67968 0
M  V30 7248 H 1141.25 4.797 -7.24003 0
M  V30 7249 H 1140.98 3.69802 -5.84429 0
M  V30 7250 H 1141.85 6.10356 -5.41441 0
M  V30 7251 H 1144.51 4.78651 -3.27911 0
M  V30 7252 H 1144.79 3.64957 -6.05871 0
M  V30 7253 H 1145.78 4.8868 -5.2125 0
M  V30 7254 H 1143.94 5.66726 -7.06352 0
M  V30 7255 H 1143.87 2.07737 -5.72367 0
M  V30 7256 P 1145.81 7.20834 -5.23717 0
M  V30 7257 O 1146.03 8.66104 -5.38572 0
M  V30 7258 O 1146.6 6.33544 -6.1349 0
M  V30 7259 O 1146.06 6.7751 -3.72168 0
M  V30 7260 C 1145.12 7.20825 -2.7076 0
M  V30 7261 C 1145.85 7.45864 -1.40599 0
M  V30 7262 O 1146.06 6.17651 -0.734225 0
M  V30 7263 C 1147.25 8.05808 -1.51899 0
M  V30 7264 O 1147.64 8.74358 -0.335205 0
M  V30 7265 C 1148.13 6.83093 -1.70294 0
M  V30 7266 C 1147.42 5.79992 -0.836974 0
M  V30 7267 N 1147.47 4.41864 -1.38293 0
M  V30 7268 C 1147.39 3.99538 -2.69438 0
M  V30 7269 N 1147.47 2.69909 -2.84277 0
M  V30 7270 C 1147.61 2.21719 -1.5408 0
M  V30 7271 C 1147.74 0.891712 -1.06628 0
M  V30 7272 O 1147.76 -0.161298 -1.70137 0
M  V30 7273 N 1147.86 0.856846 0.334985 0
M  V30 7274 C 1147.86 1.9641 1.15789 0
M  V30 7275 N 1147.99 1.72708 2.46522 0
M  V30 7276 N 1147.73 3.21165 0.713741 0
M  V30 7277 C 1147.61 3.26797 -0.639748 0
M  V30 7278 H 1144.63 8.13644 -3.0377 0
M  V30 7279 H 1144.36 6.42788 -2.55485 0
M  V30 7280 H 1145.23 8.12039 -0.792769 0
M  V30 7281 H 1147.89 5.80061 0.166416 0
M  V30 7282 H 1148.17 6.51287 -2.75604 0
M  V30 7283 H 1149.16 7.01734 -1.34462 0
M  V30 7284 H 1147.32 8.73674 -2.38337 0
M  V30 7285 H 1147.27 4.68207 -3.53221 0
M  V30 7286 H 1147.96 -0.0398818 0.767965 0
M  V30 7287 H 1147.99 2.50995 3.13503 0
M  V30 7288 H 1148.09 0.759148 2.80716 0
M  V30 7289 P 1149.19 8.91 8.91573e-12 0
M  V30 7290 O 1149.41 10.1726 0.733694 0
M  V30 7291 O 1149.98 8.73148 -1.23936 0
M  V30 7292 O 1149.44 7.66872 0.971405 0
M  V30 7293 C 1148.5 7.42309 2.04641 0
M  V30 7294 C 1149.23 6.86059 3.24661 0
M  V30 7295 O 1149.44 5.42847 3.03646 0
M  V30 7296 C 1150.63 7.41196 3.50753 0
M  V30 7297 O 1151.02 7.27073 4.86816 0
M  V30 7298 C 1151.51 6.5273 2.63741 0
M  V30 7299 C 1150.8 5.1842 2.73198 0
M  V30 7300 N 1150.85 4.38762 1.4784 0
M  V30 7301 H 1148.01 8.36803 2.32493 0
M  V30 7302 H 1147.74 6.70197 1.71129 0
M  V30 7303 H 1148.61 7.03551 4.13168 0
M  V30 7304 P 1152.57 7.20834 5.23717 0
M  V30 7305 O 1152.79 7.79853 6.57286 0
M  V30 7306 O 1153.36 7.79239 4.12957 0
M  V30 7307 O 1152.82 5.63315 5.29344 0
M  V30 7308 C 1151.88 4.80255 6.01876 0
M  V30 7309 C 1152.61 3.64202 6.65911 0
M  V30 7310 O 1152.82 2.60694 5.64732 0
M  V30 7311 C 1154.01 3.93473 7.1943 0
M  V30 7312 O 1154.4 3.02071 8.21205 0
M  V30 7313 C 1154.89 3.73047 5.97036 0
M  V30 7314 C 1154.18 2.58828 5.25741 0
M  V30 7315 N 1154.23 2.68068 3.77503 0
M  V30 7316 H 1151.39 5.40332 6.79951 0
M  V30 7317 H 1151.12 4.41613 5.32378 0
M  V30 7318 H 1151.99 3.26331 7.47797 0
M  V30 7319 P 1155.95 2.75334 8.47391 0
M  V30 7320 O 1156.17 2.44571 9.90142 0
M  V30 7321 O 1156.74 3.87688 7.92115 0
M  V30 7322 O 1156.2 1.4459 7.59357 0
M  V30 7323 C 1155.26 0.347608 7.69215 0
M  V30 7324 C 1155.99 -0.96767 7.52806 0
M  V30 7325 O 1156.2 -1.21036 6.1011 0
M  V30 7326 C 1157.39 -1.04544 8.13308 0
M  V30 7327 O 1157.78 -2.38311 8.41922 0
M  V30 7328 C 1158.27 -0.491279 7.02284 0
M  V30 7329 C 1157.56 -0.996264 5.77469 0
M  V30 7330 N 1157.61 -0.0501916 4.62973 0
M  V30 7331 H 1154.77 0.374722 8.67691 0
M  V30 7332 H 1154.5 0.443485 6.90277 0
M  V30 7333 H 1155.37 -1.75537 7.96793 0
M  V30 7334 P 1159.33 -2.75334 8.47391 0
M  V30 7335 O 1159.55 -3.84128 9.44797 0
M  V30 7336 O 1160.12 -1.51947 8.68712 0
M  V30 7337 O 1159.58 -3.29363 6.99321 0
M  V30 7338 C 1158.64 -4.24011 6.4274 0
M  V30 7339 C 1159.37 -5.20775 5.52155 0
M  V30 7340 O 1159.58 -4.56534 4.22446 0
M  V30 7341 C 1160.77 -5.62629 5.96531 0
M  V30 7342 O 1161.16 -6.87667 5.41053 0
M  V30 7343 C 1161.65 -4.52537 5.39283 0
M  V30 7344 C 1160.94 -4.20027 4.08623 0
M  V30 7345 N 1160.99 -2.76189 3.71603 0
M  V30 7346 C 1160.91 -1.64862 4.52822 0
M  V30 7347 N 1160.99 -0.512671 3.88633 0
M  V30 7348 C 1161.13 -0.888083 2.54977 0
M  V30 7349 C 1161.26 -0.094668 1.38677 0
M  V30 7350 N 1161.38 -0.890102 0.232633 0
M  V30 7351 C 1161.38 -2.26958 0.21772 0
M  V30 7352 N 1161.51 -2.84626 -0.97925 0
M  V30 7353 N 1161.25 -3.0178 1.31033 0
M  V30 7354 C 1161.13 -2.26781 2.43843 0
M  V30 7355 H 1158.15 -4.797 7.24003 0
M  V30 7356 H 1157.88 -3.69856 5.84513 0
M  V30 7357 H 1158.75 -6.10356 5.41441 0
M  V30 7358 P 1162.71 -7.20834 5.23717 0
M  V30 7359 O 1162.93 -8.66104 5.38572 0
M  V30 7360 O 1163.5 -6.33544 6.1349 0
M  V30 7361 O 1162.96 -6.7751 3.72168 0
M  V30 7362 C 1162.02 -7.20825 2.7076 0
M  V30 7363 C 1162.75 -7.45864 1.40599 0
M  V30 7364 O 1162.96 -6.17651 0.734225 0
M  V30 7365 C 1164.15 -8.05808 1.51899 0
M  V30 7366 O 1164.54 -8.74358 0.335205 0
M  V30 7367 C 1165.03 -6.83093 1.70294 0
M  V30 7368 C 1164.32 -5.79992 0.836974 0
M  V30 7369 N 1164.37 -4.41864 1.38293 0
M  V30 7370 C 1164.29 -3.99538 2.69438 0
M  V30 7371 N 1164.37 -2.69909 2.84277 0
M  V30 7372 C 1164.51 -2.21719 1.5408 0
M  V30 7373 C 1164.64 -0.891712 1.06628 0
M  V30 7374 N 1164.76 -0.856846 -0.334985 0
M  V30 7375 C 1164.76 -1.9641 -1.15789 0
M  V30 7376 N 1164.89 -1.72708 -2.46522 0
M  V30 7377 N 1164.63 -3.21165 -0.713741 0
M  V30 7378 C 1164.51 -3.26797 0.639748 0
M  V30 7379 H 1161.53 -8.13644 3.0377 0
M  V30 7380 H 1161.26 -6.42788 2.55485 0
M  V30 7381 H 1162.13 -8.12039 0.792769 0
M  V30 7382 P 1166.09 -8.91 -9.07291e-12 0
M  V30 7383 O 1166.31 -10.1726 -0.733694 0
M  V30 7384 O 1166.88 -8.73148 1.23936 0
M  V30 7385 O 1166.34 -7.66872 -0.971405 0
M  V30 7386 C 1165.4 -7.42309 -2.04641 0
M  V30 7387 C 1166.13 -6.86059 -3.24661 0
M  V30 7388 O 1166.34 -5.42847 -3.03646 0
M  V30 7389 C 1167.53 -7.41196 -3.50753 0
M  V30 7390 O 1167.92 -7.27073 -4.86816 0
M  V30 7391 C 1168.41 -6.5273 -2.63741 0
M  V30 7392 C 1167.7 -5.1842 -2.73198 0
M  V30 7393 N 1167.75 -4.38762 -1.4784 0
M  V30 7394 C 1167.67 -4.81605 -0.168631 0
M  V30 7395 N 1167.75 -3.85454 0.713363 0
M  V30 7396 C 1167.89 -2.6994 -0.0566958 0
M  V30 7397 C 1168.02 -1.34815 0.338502 0
M  V30 7398 O 1168.04 -0.869548 1.47125 0
M  V30 7399 N 1168.14 -0.496304 -0.77465 0
M  V30 7400 C 1168.14 -0.908403 -2.09122 0
M  V30 7401 N 1168.27 0.0517805 -3.00955 0
M  V30 7402 N 1168.01 -2.17875 -2.46519 0
M  V30 7403 C 1167.89 -3.01988 -1.4033 0
M  V30 7404 H 1164.91 -8.36803 -2.32493 0
M  V30 7405 H 1164.64 -6.70197 -1.71129 0
M  V30 7406 H 1165.51 -7.03551 -4.13168 0
M  V30 7407 H 1168.17 -4.59498 -3.54415 0
M  V30 7408 H 1168.45 -6.88898 -1.59848 0
M  V30 7409 H 1169.44 -6.46749 -3.03687 0
M  V30 7410 H 1167.6 -8.46908 -3.20714 0
M  V30 7411 H 1167.55 -5.86405 0.105564 0
M  V30 7412 H 1168.24 0.483664 -0.597855 0
M  V30 7413 H 1168.27 -0.187865 -4.0116 0
M  V30 7414 H 1168.37 1.03585 -2.71726 0
M  V30 7415 P 1169.47 -7.20834 -5.23717 0
M  V30 7416 O 1169.69 -7.79853 -6.57286 0
M  V30 7417 O 1170.26 -7.79239 -4.12957 0
M  V30 7418 O 1169.72 -5.63315 -5.29344 0
M  V30 7419 C 1168.78 -4.80255 -6.01876 0
M  V30 7420 C 1169.51 -3.64202 -6.65911 0
M  V30 7421 O 1169.72 -2.60694 -5.64732 0
M  V30 7422 C 1170.91 -3.93473 -7.1943 0
M  V30 7423 O 1171.3 -3.02071 -8.21205 0
M  V30 7424 C 1171.79 -3.73047 -5.97036 0
M  V30 7425 C 1171.08 -2.58828 -5.25741 0
M  V30 7426 N 1171.13 -2.68068 -3.77503 0
M  V30 7427 C 1171.05 -3.79715 -2.96723 0
M  V30 7428 N 1171.13 -3.5377 -1.68852 0
M  V30 7429 C 1171.27 -2.15054 -1.63254 0
M  V30 7430 C 1171.4 -1.28964 -0.518571 0
M  V30 7431 O 1171.42 -1.56826 0.679156 0
M  V30 7432 N 1171.52 0.0538097 -0.918425 0
M  V30 7433 C 1171.52 0.494275 -2.22578 0
M  V30 7434 N 1171.65 1.81086 -2.40434 0
M  V30 7435 N 1171.39 -0.313645 -3.27502 0
M  V30 7436 C 1171.27 -1.61829 -2.91033 0
M  V30 7437 H 1168.29 -5.40332 -6.79951 0
M  V30 7438 H 1168.02 -4.41613 -5.32378 0
M  V30 7439 H 1168.89 -3.26331 -7.47797 0
M  V30 7440 H 1171.55 -1.63422 -5.56814 0
M  V30 7441 H 1171.83 -4.63374 -5.34244 0
M  V30 7442 H 1172.82 -3.44728 -6.25838 0
M  V30 7443 H 1170.98 -4.96652 -7.57263 0
M  V30 7444 H 1170.93 -4.80617 -3.3614 0
M  V30 7445 H 1171.62 0.742702 -0.199384 0
M  V30 7446 H 1171.65 2.20598 -3.35588 0
M  V30 7447 H 1171.75 2.43518 -1.58945 0
M  V30 7448 P 1172.85 -2.75334 -8.47391 0
M  V30 7449 O 1173.07 -2.44619 -9.90336 0
M  V30 7450 O 1173.64 -3.87776 -7.92294 0
M  V30 7451 O 1173.1 -1.4459 -7.59357 0
M  V30 7452 C 1172.16 -0.347653 -7.69315 0
M  V30 7453 C 1172.89 0.96767 -7.52806 0
M  V30 7454 O 1173.1 1.21055 -6.10208 0
M  V30 7455 C 1174.29 1.04557 -8.13408 0
M  V30 7456 O 1174.68 2.38311 -8.41922 0
M  V30 7457 C 1175.17 0.491279 -7.02284 0
M  V30 7458 C 1174.46 0.996264 -5.77469 0
M  V30 7459 N 1174.51 0.0501916 -4.62973 0
M  V30 7460 H 1171.68 -0.374765 -8.67791 0
M  V30 7461 H 1171.4 -0.443613 -6.90476 0
M  V30 7462 H 1172.27 1.75559 -7.96891 0
M  V30 7463 H 1174.93 1.94563 -5.46818 0
M  V30 7464 H 1175.21 -0.608651 -7.04676 0
M  V30 7465 H 1176.2 0.889796 -7.09039 0
M  V30 7466 H 1174.36 0.433128 -9.04664 0
M  V30 7467 P 1176.23 2.75334 -8.47391 0
M  V30 7468 O 1176.45 3.84128 -9.44797 0
M  V30 7469 O 1177.02 1.51947 -8.68712 0
M  V30 7470 O 1176.48 3.29363 -6.99321 0
M  V30 7471 C 1175.54 4.24011 -6.4274 0
M  V30 7472 C 1176.27 5.20775 -5.52155 0
M  V30 7473 O 1176.48 4.56534 -4.22446 0
M  V30 7474 C 1177.67 5.62629 -5.96531 0
M  V30 7475 O 1178.06 6.87667 -5.41053 0
M  V30 7476 C 1178.55 4.52537 -5.39283 0
M  V30 7477 C 1177.84 4.20027 -4.08623 0
M  V30 7478 N 1177.89 2.76189 -3.71603 0
M  V30 7479 H 1175.05 4.797 -7.24003 0
M  V30 7480 H 1174.78 3.69856 -5.84513 0
M  V30 7481 H 1175.65 6.10356 -5.41441 0
M  V30 7482 P 1179.61 7.20834 -5.23717 0
M  V30 7483 O 1179.83 8.66104 -5.38572 0
M  V30 7484 O 1180.4 6.33544 -6.1349 0
M  V30 7485 O 1179.86 6.7751 -3.72168 0
M  V30 7486 C 1178.92 7.20825 -2.7076 0
M  V30 7487 C 1179.65 7.45864 -1.40599 0
M  V30 7488 O 1179.86 6.17651 -0.734225 0
M  V30 7489 C 1181.05 8.05808 -1.51899 0
M  V30 7490 O 1181.44 8.74358 -0.335205 0
M  V30 7491 C 1181.93 6.83093 -1.70294 0
M  V30 7492 C 1181.22 5.79992 -0.836974 0
M  V30 7493 N 1181.27 4.41864 -1.38293 0
M  V30 7494 H 1178.43 8.13644 -3.0377 0
M  V30 7495 H 1178.16 6.42788 -2.55485 0
M  V30 7496 H 1179.03 8.12039 -0.792769 0
M  V30 7497 P 1182.99 8.91 9.23009e-12 0
M  V30 7498 O 1183.21 10.1726 0.733694 0
M  V30 7499 O 1183.78 8.73148 -1.23936 0
M  V30 7500 O 1183.24 7.66872 0.971405 0
M  V30 7501 C 1182.3 7.42309 2.04641 0
M  V30 7502 C 1183.03 6.86059 3.24661 0
M  V30 7503 O 1183.24 5.42847 3.03646 0
M  V30 7504 C 1184.43 7.41196 3.50753 0
M  V30 7505 O 1184.82 7.27073 4.86816 0
M  V30 7506 C 1185.31 6.5273 2.63741 0
M  V30 7507 C 1184.6 5.1842 2.73198 0
M  V30 7508 N 1184.65 4.38762 1.4784 0
M  V30 7509 H 1181.81 8.36803 2.32493 0
M  V30 7510 H 1181.54 6.70197 1.71129 0
M  V30 7511 H 1182.41 7.03551 4.13168 0
M  V30 7512 P 1186.37 7.20834 5.23717 0
M  V30 7513 O 1186.59 7.7993 6.57351 0
M  V30 7514 O 1187.16 7.79328 4.13004 0
M  V30 7515 O 1186.62 5.63315 5.29344 0
M  V30 7516 C 1185.68 4.80193 6.01798 0
M  V30 7517 C 1186.41 3.64202 6.65911 0
M  V30 7518 O 1186.62 2.60694 5.64732 0
M  V30 7519 C 1187.81 3.93473 7.1943 0
M  V30 7520 O 1188.2 3.02071 8.21205 0
M  V30 7521 C 1188.69 3.73047 5.97036 0
M  V30 7522 C 1187.98 2.58828 5.25741 0
M  V30 7523 N 1188.03 2.6801 3.77422 0
M  V30 7524 C 1188.18 1.50443 3.07133 0
M  V30 7525 O 1188.27 0.419406 3.61576 0
M  V30 7526 N 1188.22 1.6403 1.69677 0
M  V30 7527 C 1188.13 2.81206 0.986255 0
M  V30 7528 C 1187.98 3.99158 1.80325 0
M  V30 7529 C 1187.93 3.89779 3.1476 0
M  V30 7530 H 1185.19 5.40332 6.79951 0
M  V30 7531 H 1184.92 4.41549 5.32301 0
M  V30 7532 H 1185.79 3.26331 7.47797 0
M  V30 7533 H 1188.45 1.6395 5.56554 0
M  V30 7534 H 1188.72 4.63439 5.3432 0
M  V30 7535 H 1189.72 3.44728 6.25838 0
M  V30 7536 H 1187.88 4.96652 7.57263 0
M  V30 7537 H 1187.81 4.80159 3.74441 0
M  V30 7538 P 1189.75 2.75334 8.47391 0
M  V30 7539 O 1189.97 2.44571 9.90142 0
M  V30 7540 O 1190.54 3.87688 7.92115 0
M  V30 7541 O 1190 1.4459 7.59357 0
M  V30 7542 C 1189.06 0.347608 7.69215 0
M  V30 7543 C 1189.79 -0.96767 7.52806 0
M  V30 7544 O 1190 -1.21036 6.1011 0
M  V30 7545 C 1191.19 -1.04544 8.13308 0
M  V30 7546 O 1191.58 -2.38311 8.41922 0
M  V30 7547 C 1192.07 -0.491279 7.02284 0
M  V30 7548 C 1191.36 -0.996264 5.77469 0
M  V30 7549 N 1191.41 -0.0501916 4.62973 0
M  V30 7550 H 1188.57 0.374722 8.67691 0
M  V30 7551 H 1188.3 0.443485 6.90277 0
M  V30 7552 H 1189.17 -1.75537 7.96793 0
M  V30 7553 P 1193.13 -2.75334 8.47391 0
M  V30 7554 O 1193.35 -3.84128 9.44797 0
M  V30 7555 O 1193.92 -1.51947 8.68712 0
M  V30 7556 O 1193.38 -3.29363 6.99321 0
M  V30 7557 C 1192.44 -4.24011 6.4274 0
M  V30 7558 C 1193.17 -5.20775 5.52155 0
M  V30 7559 O 1193.38 -4.56534 4.22446 0
M  V30 7560 C 1194.57 -5.62629 5.96531 0
M  V30 7561 O 1194.96 -6.87667 5.41053 0
M  V30 7562 C 1195.45 -4.52537 5.39283 0
M  V30 7563 C 1194.74 -4.20027 4.08623 0
M  V30 7564 N 1194.79 -2.76189 3.71603 0
M  V30 7565 H 1191.95 -4.797 7.24003 0
M  V30 7566 H 1191.68 -3.69856 5.84513 0
M  V30 7567 H 1192.55 -6.10356 5.41441 0
M  V30 7568 P 1196.51 -7.20834 5.23717 0
M  V30 7569 O 1196.73 -8.66189 5.38625 0
M  V30 7570 O 1197.3 -6.33615 6.1356 0
M  V30 7571 O 1196.76 -6.7751 3.72168 0
M  V30 7572 C 1195.82 -7.20732 2.70725 0
M  V30 7573 C 1196.55 -7.45864 1.40599 0
M  V30 7574 O 1196.76 -6.17651 0.734225 0
M  V30 7575 C 1197.95 -8.05808 1.51899 0
M  V30 7576 O 1198.34 -8.74358 0.335205 0
M  V30 7577 C 1198.83 -6.83093 1.70294 0
M  V30 7578 C 1198.12 -5.79992 0.836974 0
M  V30 7579 N 1198.17 -4.41769 1.38263 0
M  V30 7580 C 1198.32 -3.38591 0.481702 0
M  V30 7581 O 1198.41 -3.56839 -0.718452 0
M  V30 7582 N 1198.36 -2.1206 1.03569 0
M  V30 7583 C 1198.27 -1.80696 2.36966 0
M  V30 7584 C 1198.12 -2.94845 3.23898 0
M  V30 7585 C 1198.07 -4.19803 2.73435 0
M  V30 7586 H 1195.33 -8.13644 3.0377 0
M  V30 7587 H 1195.06 -6.42695 2.55448 0
M  V30 7588 H 1195.93 -8.12039 0.792769 0
M  V30 7589 H 1198.59 -5.79978 -0.160587 0
M  V30 7590 H 1198.86 -6.51379 2.75643 0
M  V30 7591 H 1199.86 -7.01734 1.34462 0
M  V30 7592 H 1198.02 -8.73674 2.38337 0
M  V30 7593 H 1197.95 -5.04492 3.4095 0
M  V30 7594 H 1198.21 -8.17008 -0.422618 0
M  V30 7595 H 1202.23 9.01697 -3.02546 0
M  V30 7596 O 1202.11 8.19513 -3.48153 0
M  V30 7597 P 1200.67 8.03563 -3.84925 0
M  V30 7598 O 1200.45 8.85821 -5.0569 0
M  V30 7599 O 1199.88 8.41101 -2.65469 0
M  V30 7600 O 1200.42 6.4965 -4.18908 0
M  V30 7601 C 1201.36 5.81037 -5.05421 0
M  V30 7602 C 1200.63 4.78366 -5.89277 0
M  V30 7603 O 1200.42 3.58302 -5.08433 0
M  V30 7604 C 1199.23 5.17448 -6.36119 0
M  V30 7605 O 1198.84 4.45271 -7.53232 0
M  V30 7606 C 1198.35 4.74639 -5.19936 0
M  V30 7607 C 1199.06 3.49432 -4.70418 0
M  V30 7608 N 1199.01 3.31776 -3.22945 0
M  V30 7609 C 1199.09 4.27147 -2.23315 0
M  V30 7610 N 1199.01 3.78447 -1.02186 0
M  V30 7611 C 1198.87 2.41001 -1.21732 0
M  V30 7612 C 1198.74 1.36111 -0.27694 0
M  V30 7613 N 1198.62 0.113683 -0.912949 0
M  V30 7614 C 1198.62 -0.0846396 -2.27943 0
M  V30 7615 N 1198.49 -1.34737 -2.6916 0
M  V30 7616 N 1198.75 0.902521 -3.16379 0
M  V30 7617 C 1198.87 2.11937 -2.56849 0
M  V30 7618 H 1201.85 6.54213 -5.71376 0
M  V30 7619 H 1202.12 5.30492 -4.44033 0
M  V30 7620 H 1201.26 4.55889 -6.76652 0
M  V30 7621 P 1197.29 4.23843 -7.83734 0
M  V30 7622 O 1197.07 4.19407 -9.29784 0
M  V30 7623 O 1196.5 5.24426 -7.09156 0
M  V30 7624 O 1197.04 2.7935 -7.20758 0
M  V30 7625 C 1197.98 1.7299 -7.50419 0
M  V30 7626 C 1197.25 0.406376 -7.57911 0
M  V30 7627 O 1197.04 -0.0897726 -6.21935 0
M  V30 7628 C 1195.85 0.447224 -8.1878 0
M  V30 7629 O 1195.46 -0.825065 -8.71101 0
M  V30 7630 C 1194.97 0.783801 -6.99623 0
M  V30 7631 C 1195.68 0.0619192 -5.85967 0
M  V30 7632 N 1195.63 0.7859 -4.56281 0
M  V30 7633 H 1198.47 1.93423 -8.4679 0
M  V30 7634 H 1198.74 1.68181 -6.71046 0
M  V30 7635 H 1197.88 -0.289041 -8.15388 0
M  V30 7636 P 1193.91 -1.17771 -8.83182 0
M  V30 7637 O 1193.69 -2.07206 -9.98732 0
M  V30 7638 O 1193.12 0.0743816 -8.81969 0
M  V30 7639 O 1193.66 -1.97652 -7.47304 0
M  V30 7640 C 1194.6 -3.01133 -7.08783 0
M  V30 7641 C 1193.87 -4.12613 -6.37049 0
M  V30 7642 O 1193.66 -3.72827 -4.97879 0
M  V30 7643 C 1192.47 -4.45085 -6.88694 0
M  V30 7644 O 1192.08 -5.7877 -6.5624 0
M  V30 7645 C 1191.59 -3.47817 -6.12078 0
M  V30 7646 C 1192.3 -3.39414 -4.77697 0
M  V30 7647 N 1192.25 -2.04199 -4.15538 0
M  V30 7648 H 1195.09 -3.41248 -7.98759 0
M  V30 7649 H 1195.36 -2.57728 -6.42 0
M  V30 7650 H 1194.5 -5.02657 -6.42673 0
M  V30 7651 H 1191.84 -4.11708 -4.08956 0
M  V30 7652 H 1191.56 -2.49626 -6.61679 0
M  V30 7653 H 1190.57 -3.8662 -6.00862 0
M  V30 7654 H 1192.4 -4.29991 -7.97006 0
M  V30 7655 P 1190.53 -6.144 -6.45285 0
M  V30 7656 O 1190.31 -7.54673 -6.86199 0
M  V30 7657 O 1189.74 -5.12391 -7.179 0
M  V30 7658 O 1190.28 -5.99158 -4.88404 0
M  V30 7659 C 1191.22 -6.60234 -3.96415 0
M  V30 7660 C 1190.49 -7.08259 -2.72856 0
M  V30 7661 O 1190.28 -5.9427 -1.83651 0
M  V30 7662 C 1189.09 -7.64886 -2.9555 0
M  V30 7663 O 1188.7 -8.53963 -1.90717 0
M  V30 7664 C 1188.21 -6.4116 -2.90739 0
M  V30 7665 C 1188.92 -5.55375 -1.86963 0
M  V30 7666 N 1188.87 -4.09664 -2.15742 0
M  V30 7667 C 1188.95 -3.44381 -3.37233 0
M  V30 7668 N 1188.87 -2.14131 -3.28347 0
M  V30 7669 C 1188.73 -1.90247 -1.91588 0
M  V30 7670 C 1188.6 -0.683992 -1.20892 0
M  V30 7671 N 1188.48 -0.903396 0.173998 0
M  V30 7672 C 1188.48 -2.14171 0.784879 0
M  V30 7673 N 1188.35 -2.1435 2.11317 0
M  V30 7674 N 1188.61 -3.28784 0.119316 0
M  V30 7675 C 1188.73 -3.0977 -1.22194 0
M  V30 7676 H 1191.71 -7.45574 -4.45629 0
M  V30 7677 H 1191.98 -5.86232 -3.67314 0
M  V30 7678 H 1191.12 -7.84412 -2.24479 0
M  V30 7679 P 1187.15 -8.7635 -1.60911 0
M  V30 7680 O 1186.93 -10.1388 -1.11561 0
M  V30 7681 O 1186.36 -8.36503 -2.79617 0
M  V30 7682 O 1186.9 -7.71806 -0.42951 0
M  V30 7683 C 1187.84 -7.67148 0.673689 0
M  V30 7684 C 1187.11 -7.33374 1.95559 0
M  V30 7685 O 1186.9 -5.88721 2.00726 0
M  V30 7686 C 1185.71 -7.92526 2.10483 0
M  V30 7687 O 1185.32 -8.02971 3.47653 0
M  V30 7688 C 1184.83 -6.89602 1.41652 0
M  V30 7689 C 1185.54 -5.59201 1.75185 0
M  V30 7690 N 1185.49 -4.58301 0.657969 0
M  V30 7691 H 1188.33 -8.65116 0.777161 0
M  V30 7692 H 1188.6 -6.9022 0.46725 0
M  V30 7693 H 1187.74 -7.66548 2.79458 0
M  V30 7694 H 1185.08 -5.16165 2.65183 0
M  V30 7695 H 1184.8 -7.06433 0.329384 0
M  V30 7696 H 1183.81 -6.90926 1.82021 0
M  V30 7697 H 1185.64 -8.90873 1.62657 0
M  V30 7698 P 1183.77 -8.03563 3.84925 0
M  V30 7699 O 1183.55 -8.85821 5.0569 0
M  V30 7700 O 1182.98 -8.41101 2.65469 0
M  V30 7701 O 1183.52 -6.4965 4.18908 0
M  V30 7702 C 1184.46 -5.81037 5.05421 0
M  V30 7703 C 1183.73 -4.78366 5.89277 0
M  V30 7704 O 1183.52 -3.58302 5.08433 0
M  V30 7705 C 1182.33 -5.17448 6.36119 0
M  V30 7706 O 1181.94 -4.45271 7.53232 0
M  V30 7707 C 1181.45 -4.74639 5.19936 0
M  V30 7708 C 1182.16 -3.49432 4.70418 0
M  V30 7709 N 1182.11 -3.31776 3.22945 0
M  V30 7710 H 1184.95 -6.54213 5.71376 0
M  V30 7711 H 1185.22 -5.30492 4.44033 0
M  V30 7712 H 1184.36 -4.55889 6.76652 0
M  V30 7713 P 1180.39 -4.23843 7.83734 0
M  V30 7714 O 1180.17 -4.19407 9.29784 0
M  V30 7715 O 1179.6 -5.24426 7.09156 0
M  V30 7716 O 1180.14 -2.7935 7.20758 0
M  V30 7717 C 1181.08 -1.7299 7.50419 0
M  V30 7718 C 1180.35 -0.406376 7.57911 0
M  V30 7719 O 1180.14 0.0897726 6.21935 0
M  V30 7720 C 1178.95 -0.447224 8.1878 0
M  V30 7721 O 1178.56 0.825065 8.71101 0
M  V30 7722 C 1178.07 -0.783801 6.99623 0
M  V30 7723 C 1178.78 -0.0619192 5.85967 0
M  V30 7724 N 1178.73 -0.7859 4.56281 0
M  V30 7725 H 1181.57 -1.93423 8.4679 0
M  V30 7726 H 1181.84 -1.68181 6.71046 0
M  V30 7727 H 1180.98 0.289041 8.15388 0
M  V30 7728 P 1177.01 1.17771 8.83182 0
M  V30 7729 O 1176.79 2.07206 9.98732 0
M  V30 7730 O 1176.22 -0.0743816 8.81969 0
M  V30 7731 O 1176.76 1.97652 7.47304 0
M  V30 7732 C 1177.7 3.01133 7.08783 0
M  V30 7733 C 1176.97 4.12613 6.37049 0
M  V30 7734 O 1176.76 3.72827 4.97879 0
M  V30 7735 C 1175.57 4.45085 6.88694 0
M  V30 7736 O 1175.18 5.7877 6.5624 0
M  V30 7737 C 1174.69 3.47817 6.12078 0
M  V30 7738 C 1175.4 3.39414 4.77697 0
M  V30 7739 N 1175.35 2.04615 4.15333 0
M  V30 7740 H 1178.19 3.41248 7.98759 0
M  V30 7741 H 1178.46 2.5837 6.41742 0
M  V30 7742 H 1177.6 5.02657 6.42673 0
M  V30 7743 P 1173.63 6.144 6.45285 0
M  V30 7744 O 1173.41 7.54673 6.86199 0
M  V30 7745 O 1172.84 5.12391 7.179 0
M  V30 7746 O 1173.38 5.99236 4.88467 0
M  V30 7747 C 1174.32 6.60234 3.96415 0
M  V30 7748 C 1173.59 7.08079 2.736 0
M  V30 7749 O 1173.38 5.94365 1.8368 0
M  V30 7750 C 1172.19 7.64886 2.9555 0
M  V30 7751 O 1171.8 8.5406 1.90739 0
M  V30 7752 C 1171.31 6.4116 2.90739 0
M  V30 7753 C 1172.02 5.55375 1.86963 0
M  V30 7754 N 1171.97 4.09664 2.15742 0
M  V30 7755 C 1171.82 3.22231 1.08477 0
M  V30 7756 O 1171.73 3.68951 -0.0600489 0
M  V30 7757 N 1171.77 1.76692 1.48799 0
M  V30 7758 C 1171.87 1.41695 2.57602 0
M  V30 7759 N 1171.82 0.107296 2.75791 0
M  V30 7760 C 1172.02 2.29178 3.69733 0
M  V30 7761 C 1172.07 3.62753 3.42653 0
M  V30 7762 H 1174.81 7.45488 4.45578 0
M  V30 7763 H 1175.08 5.86232 3.67314 0
M  V30 7764 H 1174.22 7.84508 2.24507 0
M  V30 7765 H 1171.56 5.73556 0.888715 0
M  V30 7766 H 1171.28 5.9096 3.88638 0
M  V30 7767 H 1170.29 6.66053 2.58894 0
M  V30 7768 H 1172.12 8.16339 3.92049 0
M  V30 7769 H 1172.2 4.33052 4.24913 0
M  V30 7770 H 1172.09 1.9103 4.71577 0
M  V30 7771 H 1171.71 -0.521221 1.95056 0
M  V30 7772 H 1171.9 -0.286429 3.70695 0
M  V30 7773 P 1170.25 8.7635 1.60911 0
M  V30 7774 O 1170.03 10.1388 1.11561 0
M  V30 7775 O 1169.46 8.36503 2.79617 0
M  V30 7776 O 1170 7.71906 0.429565 0
M  V30 7777 C 1170.94 7.67148 -0.673689 0
M  V30 7778 C 1170.21 7.33666 -1.94851 0
M  V30 7779 O 1170 5.88816 -2.00759 0
M  V30 7780 C 1168.81 7.92526 -2.10483 0
M  V30 7781 O 1168.42 8.03063 -3.47693 0
M  V30 7782 C 1167.93 6.89602 -1.41652 0
M  V30 7783 C 1168.64 5.59201 -1.75185 0
M  V30 7784 N 1168.59 4.58235 -0.662552 0
M  V30 7785 C 1168.44 3.24451 -1.01643 0
M  V30 7786 O 1168.35 2.94958 -2.21722 0
M  V30 7787 N 1168.39 2.30408 0.165238 0
M  V30 7788 C 1168.49 2.66048 1.25118 0
M  V30 7789 N 1168.44 1.70787 2.16813 0
M  V30 7790 C 1168.64 4.02732 1.64413 0
M  V30 7791 C 1168.69 4.9488 0.63991 0
M  V30 7792 H 1171.43 8.65017 -0.777072 0
M  V30 7793 H 1171.7 6.90173 -0.474152 0
M  V30 7794 H 1170.84 7.66642 -2.79492 0
M  V30 7795 H 1168.18 5.16254 -2.65229 0
M  V30 7796 H 1167.9 7.06532 -0.329431 0
M  V30 7797 H 1166.91 6.91023 -1.82047 0
M  V30 7798 H 1168.74 8.90873 -1.62657 0
M  V30 7799 H 1168.82 6.00104 0.892197 0
M  V30 7800 H 1168.71 4.31733 2.69229 0
M  V30 7801 H 1168.33 0.724835 1.8844 0
M  V30 7802 H 1168.52 1.94716 3.16734 0
M  V30 7803 P 1166.87 8.03563 -3.84925 0
M  V30 7804 O 1166.65 8.85821 -5.0569 0
M  V30 7805 O 1166.08 8.41101 -2.65469 0
M  V30 7806 O 1166.62 6.4965 -4.18908 0
M  V30 7807 C 1167.56 5.80886 -5.05289 0
M  V30 7808 C 1166.83 4.78366 -5.89277 0
M  V30 7809 O 1166.62 3.58302 -5.08433 0
M  V30 7810 C 1165.43 5.16748 -6.36559 0
M  V30 7811 O 1165.04 4.45271 -7.53232 0
M  V30 7812 C 1164.55 4.74572 -5.19863 0
M  V30 7813 C 1165.26 3.49373 -4.70338 0
M  V30 7814 N 1165.21 3.31704 -3.22876 0
M  V30 7815 C 1165.06 2.03326 -2.74871 0
M  V30 7816 O 1164.97 1.06486 -3.48076 0
M  V30 7817 N 1165.02 1.91838 -1.37456 0
M  V30 7818 C 1165.11 2.94295 -0.462035 0
M  V30 7819 C 1165.26 4.25064 -1.05249 0
M  V30 7820 C 1165.31 4.40214 -2.39192 0
M  V30 7821 H 1168.05 6.54063 -5.71245 0
M  V30 7822 H 1168.32 5.30339 -4.43905 0
M  V30 7823 H 1167.46 4.55889 -6.76652 0
M  V30 7824 H 1164.8 2.6167 -5.17842 0
M  V30 7825 H 1164.52 5.52155 -4.41878 0
M  V30 7826 H 1163.53 4.51918 -5.53297 0
M  V30 7827 H 1165.36 6.25055 -6.55162 0
M  V30 7828 H 1165.44 5.39798 -2.81523 0
M  V30 7829 P 1163.49 4.23843 -7.83734 0
M  V30 7830 O 1163.27 4.19407 -9.29784 0
M  V30 7831 O 1162.7 5.24426 -7.09156 0
M  V30 7832 O 1163.24 2.7935 -7.20758 0
M  V30 7833 C 1164.18 1.72945 -7.50224 0
M  V30 7834 C 1163.45 0.406376 -7.57911 0
M  V30 7835 O 1163.24 -0.0897726 -6.21935 0
M  V30 7836 C 1162.05 0.438983 -8.18724 0
M  V30 7837 O 1161.66 -0.825065 -8.71101 0
M  V30 7838 C 1161.17 0.783689 -6.99524 0
M  V30 7839 C 1161.88 0.0619086 -5.85867 0
M  V30 7840 N 1161.83 0.78573 -4.56183 0
M  V30 7841 C 1161.68 0.0292889 -3.41887 0
M  V30 7842 O 1161.59 -1.18445 -3.4419 0
M  V30 7843 N 1161.64 0.744061 -2.23964 0
M  V30 7844 C 1161.73 2.10932 -2.10362 0
M  V30 7845 C 1161.88 2.8202 -3.34994 0
M  V30 7846 C 1161.93 2.15547 -4.52261 0
M  V30 7847 H 1164.67 1.93379 -8.46595 0
M  V30 7848 H 1164.94 1.68132 -6.70852 0
M  V30 7849 H 1164.08 -0.289041 -8.15388 0
M  V30 7850 H 1161.42 -0.926847 -5.72749 0
M  V30 7851 H 1161.14 1.86973 -6.82036 0
M  V30 7852 H 1160.15 0.403896 -7.13257 0
M  V30 7853 H 1161.98 1.20585 -8.97435 0
M  V30 7854 H 1162.06 2.71231 -5.45042 0
M  V30 7855 P 1160.11 -1.17771 -8.83182 0
M  V30 7856 O 1159.89 -2.07206 -9.98732 0
M  V30 7857 O 1159.32 0.0743816 -8.81969 0
M  V30 7858 O 1159.86 -1.97652 -7.47304 0
M  V30 7859 C 1160.8 -3.01133 -7.08783 0
M  V30 7860 C 1160.07 -4.12613 -6.37049 0
M  V30 7861 O 1159.86 -3.72827 -4.97879 0
M  V30 7862 C 1158.67 -4.45085 -6.88694 0
M  V30 7863 O 1158.28 -5.7877 -6.5624 0
M  V30 7864 C 1157.79 -3.47817 -6.12078 0
M  V30 7865 C 1158.5 -3.39414 -4.77697 0
M  V30 7866 N 1158.45 -2.04199 -4.15538 0
M  V30 7867 H 1161.29 -3.41248 -7.98759 0
M  V30 7868 H 1161.56 -2.57728 -6.42 0
M  V30 7869 H 1160.7 -5.02657 -6.42673 0
M  V30 7870 H 1158.04 -4.11708 -4.08956 0
M  V30 7871 H 1157.76 -2.49626 -6.61679 0
M  V30 7872 H 1156.77 -3.8662 -6.00862 0
M  V30 7873 H 1158.6 -4.29991 -7.97006 0
M  V30 7874 P 1156.73 -6.144 -6.45285 0
M  V30 7875 O 1156.51 -7.54673 -6.86199 0
M  V30 7876 O 1155.94 -5.12391 -7.179 0
M  V30 7877 O 1156.48 -5.99158 -4.88404 0
M  V30 7878 C 1157.42 -6.60234 -3.96415 0
M  V30 7879 C 1156.69 -7.08259 -2.72856 0
M  V30 7880 O 1156.48 -5.9427 -1.83651 0
M  V30 7881 C 1155.29 -7.64886 -2.9555 0
M  V30 7882 O 1154.9 -8.53963 -1.90717 0
M  V30 7883 C 1154.41 -6.4116 -2.90739 0
M  V30 7884 C 1155.12 -5.55375 -1.86963 0
M  V30 7885 N 1155.07 -4.09664 -2.15742 0
M  V30 7886 H 1157.91 -7.45574 -4.45629 0
M  V30 7887 H 1158.18 -5.86232 -3.67314 0
M  V30 7888 H 1157.32 -7.84412 -2.24479 0
M  V30 7889 P 1153.35 -8.7635 -1.60911 0
M  V30 7890 O 1153.13 -10.1388 -1.11561 0
M  V30 7891 O 1152.56 -8.36503 -2.79617 0
M  V30 7892 O 1153.1 -7.71806 -0.42951 0
M  V30 7893 C 1154.04 -7.67148 0.673689 0
M  V30 7894 C 1153.31 -7.33374 1.95559 0
M  V30 7895 O 1153.1 -5.88721 2.00726 0
M  V30 7896 C 1151.91 -7.92526 2.10483 0
M  V30 7897 O 1151.52 -8.02971 3.47653 0
M  V30 7898 C 1151.03 -6.89602 1.41652 0
M  V30 7899 C 1151.74 -5.59201 1.75185 0
M  V30 7900 N 1151.69 -4.58301 0.657969 0
M  V30 7901 H 1154.53 -8.65116 0.777161 0
M  V30 7902 H 1154.8 -6.9022 0.46725 0
M  V30 7903 H 1153.94 -7.66548 2.79458 0
M  V30 7904 H 1151.28 -5.16165 2.65183 0
M  V30 7905 H 1151 -7.06433 0.329384 0
M  V30 7906 H 1150.01 -6.90926 1.82021 0
M  V30 7907 H 1151.84 -8.90873 1.62657 0
M  V30 7908 P 1149.97 -8.03563 3.84925 0
M  V30 7909 O 1149.75 -8.85821 5.0569 0
M  V30 7910 O 1149.18 -8.41101 2.65469 0
M  V30 7911 O 1149.72 -6.49734 4.18962 0
M  V30 7912 C 1150.66 -5.81037 5.05421 0
M  V30 7913 C 1149.93 -4.79018 5.88876 0
M  V30 7914 O 1149.72 -3.58359 5.08515 0
M  V30 7915 C 1148.53 -5.17448 6.36119 0
M  V30 7916 O 1148.14 -4.45322 7.53318 0
M  V30 7917 C 1147.65 -4.74639 5.19936 0
M  V30 7918 C 1148.36 -3.49432 4.70418 0
M  V30 7919 N 1148.31 -3.31776 3.22945 0
M  V30 7920 C 1148.16 -2.02742 2.72939 0
M  V30 7921 O 1148.07 -1.08301 3.52749 0
M  V30 7922 N 1148.11 -1.96117 1.22063 0
M  V30 7923 C 1148.21 -2.8878 0.551566 0
M  V30 7924 N 1148.16 -2.65609 -0.750198 0
M  V30 7925 C 1148.36 -4.22457 1.03707 0
M  V30 7926 C 1148.41 -4.37979 2.39113 0
M  V30 7927 H 1151.15 -6.54138 5.7131 0
M  V30 7928 H 1151.42 -5.30492 4.44033 0
M  V30 7929 H 1150.56 -4.55945 6.76735 0
M  V30 7930 H 1147.9 -2.6176 5.18021 0
M  V30 7931 H 1147.62 -5.52233 4.41941 0
M  V30 7932 H 1146.63 -4.52045 5.53452 0
M  V30 7933 H 1148.46 -6.25124 6.55234 0
M  V30 7934 H 1148.54 -5.37936 2.80552 0
M  V30 7935 H 1148.43 -5.07528 0.359553 0
M  V30 7936 H 1148.05 -1.69403 -1.09847 0
M  V30 7937 H 1148.24 -3.43701 -1.41792 0
M  V30 7938 P 1146.59 -4.23843 7.83734 0
M  V30 7939 O 1146.37 -4.19407 9.29784 0
M  V30 7940 O 1145.8 -5.24426 7.09156 0
M  V30 7941 O 1146.34 -2.7935 7.20758 0
M  V30 7942 C 1147.28 -1.7299 7.50419 0
M  V30 7943 C 1146.55 -0.406376 7.57911 0
M  V30 7944 O 1146.34 0.0897726 6.21935 0
M  V30 7945 C 1145.15 -0.447224 8.1878 0
M  V30 7946 O 1144.76 0.825065 8.71101 0
M  V30 7947 C 1144.27 -0.783801 6.99623 0
M  V30 7948 C 1144.98 -0.0619192 5.85967 0
M  V30 7949 N 1144.93 -0.7859 4.56281 0
M  V30 7950 C 1145.01 -2.14308 4.31736 0
M  V30 7951 N 1144.93 -2.46106 3.05116 0
M  V30 7952 C 1144.79 -1.23422 2.4014 0
M  V30 7953 C 1144.66 -0.938381 1.02409 0
M  V30 7954 N 1144.54 0.444647 0.805413 0
M  V30 7955 C 1144.54 1.40829 1.79435 0
M  V30 7956 N 1144.41 2.67213 1.38558 0
M  V30 7957 N 1144.67 1.12947 3.09005 0
M  V30 7958 C 1144.79 -0.204887 3.32369 0
M  V30 7959 H 1147.77 -1.93423 8.4679 0
M  V30 7960 H 1148.04 -1.68181 6.71046 0
M  V30 7961 H 1147.18 0.289041 8.15388 0
M  V30 7962 P 1143.21 1.17771 8.83182 0
M  V30 7963 O 1142.99 2.07206 9.98732 0
M  V30 7964 O 1142.42 -0.0743816 8.81969 0
M  V30 7965 O 1142.96 1.97678 7.474 0
M  V30 7966 C 1143.9 3.01133 7.08783 0
M  V30 7967 C 1143.17 4.1203 6.37546 0
M  V30 7968 O 1142.96 3.72887 4.9796 0
M  V30 7969 C 1141.77 4.45085 6.88694 0
M  V30 7970 O 1141.38 5.78836 6.56315 0
M  V30 7971 C 1140.89 3.47817 6.12078 0
M  V30 7972 C 1141.6 3.39414 4.77697 0
M  V30 7973 N 1141.55 2.04615 4.15333 0
M  V30 7974 C 1141.4 1.96929 2.77162 0
M  V30 7975 O 1141.31 3.02017 2.12006 0
M  V30 7976 N 1141.35 0.55485 2.24237 0
M  V30 7977 C 1141.45 -0.367808 2.9169 0
M  V30 7978 N 1141.4 -1.53426 2.29427 0
M  V30 7979 C 1141.6 -0.319148 4.33828 0
M  V30 7980 C 1141.65 0.920672 4.90433 0
M  V30 7981 H 1144.39 3.41209 7.98667 0
M  V30 7982 H 1144.66 2.5837 6.41742 0
M  V30 7983 H 1143.8 5.02718 6.42752 0
M  V30 7984 H 1141.14 4.11779 4.09026 0
M  V30 7985 H 1140.86 2.49661 6.61772 0
M  V30 7986 H 1139.87 3.86674 6.00946 0
M  V30 7987 H 1141.7 4.29991 7.97006 0
M  V30 7988 H 1141.78 1.00589 5.98303 0
M  V30 7989 H 1141.67 -1.22639 4.93799 0
M  V30 7990 H 1141.29 -1.56819 1.27167 0
M  V30 7991 H 1141.48 -2.41062 2.83063 0
M  V30 7992 P 1139.83 6.144 6.45285 0
M  V30 7993 O 1139.61 7.54673 6.86199 0
M  V30 7994 O 1139.04 5.12391 7.179 0
M  V30 7995 O 1139.58 5.99158 4.88404 0
M  V30 7996 C 1140.52 6.60234 3.96415 0
M  V30 7997 C 1139.79 7.08259 2.72856 0
M  V30 7998 O 1139.58 5.9427 1.83651 0
M  V30 7999 C 1138.39 7.64886 2.9555 0
M  V30 8000 O 1138 8.53963 1.90717 0
M  V30 8001 C 1137.51 6.4116 2.90739 0
M  V30 8002 C 1138.22 5.55375 1.86963 0
M  V30 8003 N 1138.17 4.09448 2.16152 0
M  V30 8004 H 1141.01 7.45574 4.45629 0
M  V30 8005 H 1141.28 5.85864 3.679 0
M  V30 8006 H 1140.42 7.84412 2.24479 0
M  V30 8007 H 1137.76 5.73457 0.888562 0
M  V30 8008 H 1137.48 5.90877 3.88583 0
M  V30 8009 H 1136.49 6.6596 2.58858 0
M  V30 8010 H 1138.32 8.16339 3.92049 0
M  V30 8011 P 1136.45 8.7635 1.60911 0
M  V30 8012 O 1136.23 10.1388 1.11561 0
M  V30 8013 O 1135.66 8.36503 2.79617 0
M  V30 8014 O 1136.2 7.71806 0.42951 0
M  V30 8015 C 1137.14 7.67148 -0.673689 0
M  V30 8016 C 1136.41 7.33374 -1.95559 0
M  V30 8017 O 1136.2 5.88721 -2.00726 0
M  V30 8018 C 1135.01 7.92526 -2.10483 0
M  V30 8019 O 1134.62 8.02971 -3.47653 0
M  V30 8020 C 1134.13 6.89602 -1.41652 0
M  V30 8021 C 1134.84 5.59201 -1.75185 0
M  V30 8022 N 1134.79 4.58235 -0.662552 0
M  V30 8023 H 1137.63 8.65116 -0.777161 0
M  V30 8024 H 1137.9 6.90173 -0.474152 0
M  V30 8025 H 1137.04 7.66548 -2.79458 0
M  V30 8026 P 1133.07 8.03563 -3.84925 0
M  V30 8027 O 1132.85 8.85821 -5.0569 0
M  V30 8028 O 1132.28 8.41101 -2.65469 0
M  V30 8029 O 1132.82 6.4965 -4.18908 0
M  V30 8030 C 1133.76 5.81037 -5.05421 0
M  V30 8031 C 1133.03 4.78366 -5.89277 0
M  V30 8032 O 1132.82 3.58302 -5.08433 0
M  V30 8033 C 1131.63 5.17448 -6.36119 0
M  V30 8034 O 1131.24 4.45271 -7.53232 0
M  V30 8035 C 1130.75 4.74639 -5.19936 0
M  V30 8036 C 1131.46 3.49432 -4.70418 0
M  V30 8037 N 1131.41 3.31776 -3.22945 0
M  V30 8038 H 1134.25 6.54213 -5.71376 0
M  V30 8039 H 1134.52 5.30492 -4.44033 0
M  V30 8040 H 1133.66 4.55889 -6.76652 0
M  V30 8041 P 1129.69 4.23843 -7.83734 0
M  V30 8042 O 1129.47 4.19407 -9.29784 0
M  V30 8043 O 1128.9 5.24426 -7.09156 0
M  V30 8044 O 1129.44 2.7935 -7.20758 0
M  V30 8045 C 1130.38 1.7299 -7.50419 0
M  V30 8046 C 1129.65 0.406376 -7.57911 0
M  V30 8047 O 1129.44 -0.0897726 -6.21935 0
M  V30 8048 C 1128.25 0.447224 -8.1878 0
M  V30 8049 O 1127.86 -0.825065 -8.71101 0
M  V30 8050 C 1127.37 0.783801 -6.99623 0
M  V30 8051 C 1128.08 0.0619192 -5.85967 0
M  V30 8052 N 1128.03 0.7859 -4.56281 0
M  V30 8053 H 1130.87 1.93423 -8.4679 0
M  V30 8054 H 1131.14 1.68181 -6.71046 0
M  V30 8055 H 1130.28 -0.289041 -8.15388 0
M  V30 8056 P 1126.31 -1.17771 -8.83182 0
M  V30 8057 O 1126.09 -2.07206 -9.98732 0
M  V30 8058 O 1125.52 0.0743816 -8.81969 0
M  V30 8059 O 1126.06 -1.97652 -7.47304 0
M  V30 8060 C 1127 -3.01133 -7.08783 0
M  V30 8061 C 1126.27 -4.12613 -6.37049 0
M  V30 8062 O 1126.06 -3.72827 -4.97879 0
M  V30 8063 C 1124.87 -4.45085 -6.88694 0
M  V30 8064 O 1124.48 -5.7877 -6.5624 0
M  V30 8065 C 1123.99 -3.47817 -6.12078 0
M  V30 8066 C 1124.7 -3.39414 -4.77697 0
M  V30 8067 N 1124.65 -2.04199 -4.15538 0
M  V30 8068 H 1127.49 -3.41248 -7.98759 0
M  V30 8069 H 1127.76 -2.57728 -6.42 0
M  V30 8070 H 1126.9 -5.02657 -6.42673 0
M  V30 8071 H 1124.24 -4.11708 -4.08956 0
M  V30 8072 H 1123.96 -2.49626 -6.61679 0
M  V30 8073 H 1122.97 -3.8662 -6.00862 0
M  V30 8074 H 1124.8 -4.29991 -7.97006 0
M  V30 8075 P 1122.93 -6.144 -6.45285 0
M  V30 8076 O 1122.71 -7.54673 -6.86199 0
M  V30 8077 O 1122.14 -5.12391 -7.179 0
M  V30 8078 O 1122.68 -5.99158 -4.88404 0
M  V30 8079 C 1123.62 -6.60234 -3.96415 0
M  V30 8080 C 1122.89 -7.08259 -2.72856 0
M  V30 8081 O 1122.68 -5.9427 -1.83651 0
M  V30 8082 C 1121.49 -7.64886 -2.9555 0
M  V30 8083 O 1121.1 -8.53963 -1.90717 0
M  V30 8084 C 1120.61 -6.4116 -2.90739 0
M  V30 8085 C 1121.32 -5.55375 -1.86963 0
M  V30 8086 N 1121.27 -4.09664 -2.15742 0
M  V30 8087 C 1121.35 -3.44381 -3.37233 0
M  V30 8088 N 1121.27 -2.14131 -3.28347 0
M  V30 8089 C 1121.13 -1.90247 -1.91588 0
M  V30 8090 C 1121 -0.683992 -1.20892 0
M  V30 8091 N 1120.88 -0.903396 0.173998 0
M  V30 8092 C 1120.88 -2.14171 0.784879 0
M  V30 8093 N 1120.75 -2.1435 2.11317 0
M  V30 8094 N 1121.01 -3.28784 0.119316 0
M  V30 8095 C 1121.13 -3.0977 -1.22194 0
M  V30 8096 H 1124.11 -7.45574 -4.45629 0
M  V30 8097 H 1124.38 -5.86232 -3.67314 0
M  V30 8098 H 1123.52 -7.84412 -2.24479 0
M  V30 8099 P 1119.55 -8.7635 -1.60911 0
M  V30 8100 O 1119.33 -10.1388 -1.11561 0
M  V30 8101 O 1118.76 -8.36503 -2.79617 0
M  V30 8102 O 1119.3 -7.71806 -0.42951 0
M  V30 8103 C 1120.24 -7.67148 0.673689 0
M  V30 8104 C 1119.51 -7.33374 1.95559 0
M  V30 8105 O 1119.3 -5.88721 2.00726 0
M  V30 8106 C 1118.11 -7.92526 2.10483 0
M  V30 8107 O 1117.72 -8.02971 3.47653 0
M  V30 8108 C 1117.23 -6.89602 1.41652 0
M  V30 8109 C 1117.94 -5.59201 1.75185 0
M  V30 8110 N 1117.89 -4.58301 0.657969 0
M  V30 8111 H 1120.73 -8.65116 0.777161 0
M  V30 8112 H 1121 -6.9022 0.46725 0
M  V30 8113 H 1120.14 -7.66548 2.79458 0
M  V30 8114 H 1117.48 -5.16165 2.65183 0
M  V30 8115 H 1117.2 -7.06433 0.329384 0
M  V30 8116 H 1116.21 -6.90926 1.82021 0
M  V30 8117 H 1118.04 -8.90873 1.62657 0
M  V30 8118 P 1116.17 -8.03563 3.84925 0
M  V30 8119 O 1115.95 -8.85821 5.0569 0
M  V30 8120 O 1115.38 -8.41101 2.65469 0
M  V30 8121 O 1115.92 -6.49734 4.18962 0
M  V30 8122 C 1116.86 -5.81037 5.05421 0
M  V30 8123 C 1116.13 -4.79018 5.88876 0
M  V30 8124 O 1115.92 -3.58359 5.08515 0
M  V30 8125 C 1114.73 -5.17448 6.36119 0
M  V30 8126 O 1114.34 -4.45322 7.53318 0
M  V30 8127 C 1113.85 -4.74639 5.19936 0
M  V30 8128 C 1114.56 -3.49432 4.70418 0
M  V30 8129 N 1114.51 -3.31776 3.22945 0
M  V30 8130 C 1114.36 -2.02742 2.72939 0
M  V30 8131 O 1114.27 -1.08301 3.52749 0
M  V30 8132 N 1114.31 -1.96117 1.22063 0
M  V30 8133 C 1114.41 -2.8878 0.551566 0
M  V30 8134 N 1114.36 -2.65609 -0.750198 0
M  V30 8135 C 1114.56 -4.22457 1.03707 0
M  V30 8136 C 1114.61 -4.37979 2.39113 0
M  V30 8137 H 1117.35 -6.54138 5.7131 0
M  V30 8138 H 1117.62 -5.30492 4.44033 0
M  V30 8139 H 1116.76 -4.55945 6.76735 0
M  V30 8140 H 1114.1 -2.6176 5.18021 0
M  V30 8141 H 1113.82 -5.52233 4.41941 0
M  V30 8142 H 1112.83 -4.52045 5.53452 0
M  V30 8143 H 1114.66 -6.25124 6.55234 0
M  V30 8144 H 1114.74 -5.37936 2.80552 0
M  V30 8145 H 1114.63 -5.07528 0.359553 0
M  V30 8146 H 1114.25 -1.69403 -1.09847 0
M  V30 8147 H 1114.44 -3.43701 -1.41792 0
M  V30 8148 P 1112.79 -4.23843 7.83734 0
M  V30 8149 O 1112.57 -4.19407 9.29784 0
M  V30 8150 O 1112 -5.24426 7.09156 0
M  V30 8151 O 1112.54 -2.7935 7.20758 0
M  V30 8152 C 1113.48 -1.7299 7.50419 0
M  V30 8153 C 1112.75 -0.406376 7.57911 0
M  V30 8154 O 1112.54 0.0897726 6.21935 0
M  V30 8155 C 1111.35 -0.447224 8.1878 0
M  V30 8156 O 1110.96 0.825065 8.71101 0
M  V30 8157 C 1110.47 -0.783801 6.99623 0
M  V30 8158 C 1111.18 -0.0619192 5.85967 0
M  V30 8159 N 1111.13 -0.7859 4.56281 0
M  V30 8160 C 1111.21 -2.14308 4.31736 0
M  V30 8161 N 1111.13 -2.46106 3.05116 0
M  V30 8162 C 1110.99 -1.23422 2.4014 0
M  V30 8163 C 1110.86 -0.938381 1.02409 0
M  V30 8164 N 1110.74 0.444647 0.805413 0
M  V30 8165 C 1110.74 1.40829 1.79435 0
M  V30 8166 N 1110.61 2.67213 1.38558 0
M  V30 8167 N 1110.87 1.12947 3.09005 0
M  V30 8168 C 1110.99 -0.204887 3.32369 0
M  V30 8169 H 1113.97 -1.93423 8.4679 0
M  V30 8170 H 1114.24 -1.68181 6.71046 0
M  V30 8171 H 1113.38 0.289041 8.15388 0
M  V30 8172 P 1109.41 1.17771 8.83182 0
M  V30 8173 O 1109.19 2.07206 9.98732 0
M  V30 8174 O 1108.62 -0.0743816 8.81969 0
M  V30 8175 O 1109.16 1.97678 7.474 0
M  V30 8176 C 1110.1 3.01133 7.08783 0
M  V30 8177 C 1109.37 4.1203 6.37546 0
M  V30 8178 O 1109.16 3.72887 4.9796 0
M  V30 8179 C 1107.97 4.45085 6.88694 0
M  V30 8180 O 1107.58 5.78836 6.56315 0
M  V30 8181 C 1107.09 3.47817 6.12078 0
M  V30 8182 C 1107.8 3.39414 4.77697 0
M  V30 8183 N 1107.75 2.04615 4.15333 0
M  V30 8184 C 1107.6 1.96929 2.77162 0
M  V30 8185 O 1107.51 3.02017 2.12006 0
M  V30 8186 N 1107.55 0.55485 2.24237 0
M  V30 8187 C 1107.65 -0.367808 2.9169 0
M  V30 8188 N 1107.6 -1.53426 2.29427 0
M  V30 8189 C 1107.8 -0.319148 4.33828 0
M  V30 8190 C 1107.85 0.920672 4.90433 0
M  V30 8191 H 1110.59 3.41209 7.98667 0
M  V30 8192 H 1110.86 2.5837 6.41742 0
M  V30 8193 H 1110 5.02718 6.42752 0
M  V30 8194 H 1107.34 4.11779 4.09026 0
M  V30 8195 H 1107.06 2.49661 6.61772 0
M  V30 8196 H 1106.07 3.86674 6.00946 0
M  V30 8197 H 1107.9 4.29991 7.97006 0
M  V30 8198 H 1107.98 1.00589 5.98303 0
M  V30 8199 H 1107.87 -1.22639 4.93799 0
M  V30 8200 H 1107.49 -1.56819 1.27167 0
M  V30 8201 H 1107.68 -2.41062 2.83063 0
M  V30 8202 P 1106.03 6.144 6.45285 0
M  V30 8203 O 1105.81 7.54673 6.86199 0
M  V30 8204 O 1105.24 5.12391 7.179 0
M  V30 8205 O 1105.78 5.99158 4.88404 0
M  V30 8206 C 1106.72 6.60234 3.96415 0
M  V30 8207 C 1105.99 7.08259 2.72856 0
M  V30 8208 O 1105.78 5.9427 1.83651 0
M  V30 8209 C 1104.59 7.64886 2.9555 0
M  V30 8210 O 1104.2 8.53963 1.90717 0
M  V30 8211 C 1103.71 6.4116 2.90739 0
M  V30 8212 C 1104.42 5.55375 1.86963 0
M  V30 8213 N 1104.37 4.09664 2.15742 0
M  V30 8214 C 1104.45 3.44381 3.37233 0
M  V30 8215 N 1104.37 2.14131 3.28347 0
M  V30 8216 C 1104.23 1.90247 1.91588 0
M  V30 8217 C 1104.1 0.683992 1.20892 0
M  V30 8218 N 1103.98 0.903396 -0.173998 0
M  V30 8219 C 1103.98 2.14171 -0.784879 0
M  V30 8220 N 1103.85 2.1435 -2.11317 0
M  V30 8221 N 1104.11 3.28784 -0.119316 0
M  V30 8222 C 1104.23 3.0977 1.22194 0
M  V30 8223 H 1107.21 7.45574 4.45629 0
M  V30 8224 H 1107.48 5.86232 3.67314 0
M  V30 8225 H 1106.62 7.84412 2.24479 0
M  V30 8226 P 1102.65 8.7635 1.60911 0
M  V30 8227 O 1102.43 10.1388 1.11561 0
M  V30 8228 O 1101.86 8.36503 2.79617 0
M  V30 8229 O 1102.4 7.71806 0.42951 0
M  V30 8230 C 1103.34 7.67148 -0.673689 0
M  V30 8231 C 1102.61 7.33374 -1.95559 0
M  V30 8232 O 1102.4 5.88721 -2.00726 0
M  V30 8233 C 1101.21 7.92526 -2.10483 0
M  V30 8234 O 1100.82 8.02971 -3.47653 0
M  V30 8235 C 1100.33 6.89602 -1.41652 0
M  V30 8236 C 1101.04 5.59201 -1.75185 0
M  V30 8237 N 1100.99 4.58235 -0.662552 0
M  V30 8238 C 1101.07 4.7683 0.704049 0
M  V30 8239 N 1100.99 3.66233 1.39775 0
M  V30 8240 C 1100.85 2.66526 0.431739 0
M  V30 8241 C 1100.72 1.26394 0.575992 0
M  V30 8242 N 1100.6 0.62859 -0.67177 0
M  V30 8243 C 1100.6 1.27134 -1.89385 0
M  V30 8244 N 1100.47 0.492035 -2.96951 0
M  V30 8245 N 1100.73 2.58978 -2.02907 0
M  V30 8246 C 1100.85 3.22433 -0.832218 0
M  V30 8247 H 1103.83 8.65116 -0.777161 0
M  V30 8248 H 1104.1 6.90173 -0.474152 0
M  V30 8249 H 1103.24 7.66548 -2.79458 0
M  V30 8250 P 1099.27 8.03563 -3.84925 0
M  V30 8251 O 1099.05 8.85821 -5.0569 0
M  V30 8252 O 1098.48 8.41101 -2.65469 0
M  V30 8253 O 1099.02 6.4965 -4.18908 0
M  V30 8254 C 1099.96 5.81037 -5.05421 0
M  V30 8255 C 1099.23 4.78366 -5.89277 0
M  V30 8256 O 1099.02 3.58302 -5.08433 0
M  V30 8257 C 1097.83 5.17448 -6.36119 0
M  V30 8258 O 1097.44 4.45271 -7.53232 0
M  V30 8259 C 1096.95 4.74639 -5.19936 0
M  V30 8260 C 1097.66 3.49432 -4.70418 0
M  V30 8261 N 1097.61 3.31776 -3.22945 0
M  V30 8262 H 1100.45 6.54213 -5.71376 0
M  V30 8263 H 1100.72 5.30492 -4.44033 0
M  V30 8264 H 1099.86 4.55889 -6.76652 0
M  V30 8265 P 1095.89 4.23843 -7.83734 0
M  V30 8266 O 1095.67 4.19407 -9.29784 0
M  V30 8267 O 1095.1 5.24426 -7.09156 0
M  V30 8268 O 1095.64 2.7935 -7.20758 0
M  V30 8269 C 1096.58 1.7299 -7.50419 0
M  V30 8270 C 1095.85 0.406376 -7.57911 0
M  V30 8271 O 1095.64 -0.0897726 -6.21935 0
M  V30 8272 C 1094.45 0.447224 -8.1878 0
M  V30 8273 O 1094.06 -0.825065 -8.71101 0
M  V30 8274 C 1093.57 0.783801 -6.99623 0
M  V30 8275 C 1094.28 0.0619192 -5.85967 0
M  V30 8276 N 1094.23 0.7859 -4.56281 0
M  V30 8277 H 1097.07 1.93423 -8.4679 0
M  V30 8278 H 1097.34 1.68181 -6.71046 0
M  V30 8279 H 1096.48 -0.289041 -8.15388 0
M  V30 8280 P 1092.51 -1.17771 -8.83182 0
M  V30 8281 O 1092.29 -2.07206 -9.98732 0
M  V30 8282 O 1091.72 0.0743816 -8.81969 0
M  V30 8283 O 1092.26 -1.97652 -7.47304 0
M  V30 8284 C 1093.2 -3.01133 -7.08783 0
M  V30 8285 C 1092.47 -4.12613 -6.37049 0
M  V30 8286 O 1092.26 -3.72827 -4.97879 0
M  V30 8287 C 1091.07 -4.45085 -6.88694 0
M  V30 8288 O 1090.68 -5.7877 -6.5624 0
M  V30 8289 C 1090.19 -3.47817 -6.12078 0
M  V30 8290 C 1090.9 -3.39414 -4.77697 0
M  V30 8291 N 1090.85 -2.04615 -4.15333 0
M  V30 8292 C 1090.93 -0.803897 -4.75249 0
M  V30 8293 N 1090.85 0.197615 -3.91502 0
M  V30 8294 C 1090.71 -0.413002 -2.66823 0
M  V30 8295 C 1090.58 0.157221 -1.38007 0
M  V30 8296 N 1090.46 -0.833136 -0.390236 0
M  V30 8297 C 1090.46 -2.19402 -0.623885 0
M  V30 8298 N 1090.33 -2.97622 0.449677 0
M  V30 8299 N 1090.59 -2.73005 -1.83601 0
M  V30 8300 C 1090.71 -1.78786 -2.80935 0
M  V30 8301 H 1093.69 -3.41248 -7.98759 0
M  V30 8302 H 1093.96 -2.5837 -6.41742 0
M  V30 8303 H 1093.1 -5.02657 -6.42673 0
M  V30 8304 P 1089.13 -6.144 -6.45285 0
M  V30 8305 O 1088.91 -7.54673 -6.86199 0
M  V30 8306 O 1088.34 -5.12391 -7.179 0
M  V30 8307 O 1088.88 -5.99236 -4.88467 0
M  V30 8308 C 1089.82 -6.60234 -3.96415 0
M  V30 8309 C 1089.09 -7.08079 -2.736 0
M  V30 8310 O 1088.88 -5.94365 -1.8368 0
M  V30 8311 C 1087.69 -7.64886 -2.9555 0
M  V30 8312 O 1087.3 -8.5406 -1.90739 0
M  V30 8313 C 1086.81 -6.4116 -2.90739 0
M  V30 8314 C 1087.52 -5.55375 -1.86963 0
M  V30 8315 N 1087.47 -4.09664 -2.15742 0
M  V30 8316 C 1087.32 -3.22231 -1.08477 0
M  V30 8317 O 1087.23 -3.68951 0.0600489 0
M  V30 8318 N 1087.27 -1.76692 -1.48799 0
M  V30 8319 C 1087.37 -1.41695 -2.57602 0
M  V30 8320 N 1087.32 -0.107296 -2.75791 0
M  V30 8321 C 1087.52 -2.29178 -3.69733 0
M  V30 8322 C 1087.57 -3.62753 -3.42653 0
M  V30 8323 H 1090.31 -7.45488 -4.45578 0
M  V30 8324 H 1090.58 -5.86232 -3.67314 0
M  V30 8325 H 1089.72 -7.84508 -2.24507 0
M  V30 8326 H 1087.06 -5.73556 -0.888715 0
M  V30 8327 H 1086.78 -5.9096 -3.88638 0
M  V30 8328 H 1085.79 -6.66053 -2.58894 0
M  V30 8329 H 1087.62 -8.16339 -3.92049 0
M  V30 8330 H 1087.7 -4.33052 -4.24913 0
M  V30 8331 H 1087.59 -1.9103 -4.71577 0
M  V30 8332 H 1087.21 0.521221 -1.95056 0
M  V30 8333 H 1087.4 0.286429 -3.70695 0
M  V30 8334 P 1085.75 -8.7635 -1.60911 0
M  V30 8335 O 1085.53 -10.1388 -1.11561 0
M  V30 8336 O 1084.96 -8.36503 -2.79617 0
M  V30 8337 O 1085.5 -7.71806 -0.42951 0
M  V30 8338 C 1086.44 -7.67148 0.673689 0
M  V30 8339 C 1085.71 -7.33374 1.95559 0
M  V30 8340 O 1085.5 -5.88721 2.00726 0
M  V30 8341 C 1084.31 -7.92526 2.10483 0
M  V30 8342 O 1083.92 -8.02971 3.47653 0
M  V30 8343 C 1083.43 -6.89602 1.41652 0
M  V30 8344 C 1084.14 -5.59201 1.75185 0
M  V30 8345 N 1084.09 -4.58301 0.657969 0
M  V30 8346 C 1084.17 -4.79019 -0.692603 0
M  V30 8347 N 1084.1 -3.69736 -1.38998 0
M  V30 8348 C 1083.95 -2.70474 -0.438135 0
M  V30 8349 C 1083.82 -1.30327 -0.538142 0
M  V30 8350 N 1083.81 -0.64304 -1.69192 0
M  V30 8351 N 1083.7 -0.611027 0.605183 0
M  V30 8352 C 1083.71 -1.27002 1.75953 0
M  V30 8353 N 1083.83 -2.56038 1.98546 0
M  V30 8354 C 1083.95 -3.22681 0.822541 0
M  V30 8355 H 1086.93 -8.65116 0.777161 0
M  V30 8356 H 1087.2 -6.9022 0.46725 0
M  V30 8357 H 1086.34 -7.66548 2.79458 0
M  V30 8358 H 1083.68 -5.16165 2.65183 0
M  V30 8359 H 1083.4 -7.06433 0.329384 0
M  V30 8360 H 1082.41 -6.90926 1.82021 0
M  V30 8361 H 1084.24 -8.90873 1.62657 0
M  V30 8362 H 1084.29 -5.77785 -1.13874 0
M  V30 8363 H 1083.9 -1.15585 -2.57991 0
M  V30 8364 H 1083.72 0.382989 -1.69835 0
M  V30 8365 H 1083.61 -0.653331 2.64449 0
M  V30 8366 P 1082.37 -8.03563 3.84925 0
M  V30 8367 O 1082.15 -8.85821 5.0569 0
M  V30 8368 O 1081.58 -8.41101 2.65469 0
M  V30 8369 O 1082.12 -6.4965 4.18908 0
M  V30 8370 C 1083.06 -5.81037 5.05421 0
M  V30 8371 C 1082.33 -4.78366 5.89277 0
M  V30 8372 O 1082.12 -3.58302 5.08433 0
M  V30 8373 C 1080.93 -5.17448 6.36119 0
M  V30 8374 O 1080.54 -4.45271 7.53232 0
M  V30 8375 C 1080.05 -4.74639 5.19936 0
M  V30 8376 C 1080.76 -3.49432 4.70418 0
M  V30 8377 N 1080.71 -3.31776 3.22945 0
M  V30 8378 C 1080.79 -4.27147 2.23315 0
M  V30 8379 N 1080.71 -3.78447 1.02186 0
M  V30 8380 C 1080.57 -2.41001 1.21732 0
M  V30 8381 C 1080.44 -1.36111 0.27694 0
M  V30 8382 N 1080.32 -0.113683 0.912949 0
M  V30 8383 C 1080.32 0.0846396 2.27943 0
M  V30 8384 N 1080.19 1.34737 2.6916 0
M  V30 8385 N 1080.45 -0.902521 3.16379 0
M  V30 8386 C 1080.57 -2.11937 2.56849 0
M  V30 8387 H 1083.55 -6.54213 5.71376 0
M  V30 8388 H 1083.82 -5.30492 4.44033 0
M  V30 8389 H 1082.96 -4.55889 6.76652 0
M  V30 8390 P 1078.99 -4.23843 7.83734 0
M  V30 8391 O 1078.77 -4.19407 9.29784 0
M  V30 8392 O 1078.2 -5.24426 7.09156 0
M  V30 8393 O 1078.74 -2.7935 7.20758 0
M  V30 8394 C 1079.68 -1.7299 7.50419 0
M  V30 8395 C 1078.95 -0.406376 7.57911 0
M  V30 8396 O 1078.74 0.0897726 6.21935 0
M  V30 8397 C 1077.55 -0.447224 8.1878 0
M  V30 8398 O 1077.16 0.825065 8.71101 0
M  V30 8399 C 1076.67 -0.783801 6.99623 0
M  V30 8400 C 1077.38 -0.0619192 5.85967 0
M  V30 8401 N 1077.33 -0.790462 4.56202 0
M  V30 8402 H 1080.17 -1.93423 8.4679 0
M  V30 8403 H 1080.44 -1.68852 6.70877 0
M  V30 8404 H 1079.58 0.289041 8.15388 0
M  V30 8405 H 1076.92 0.927006 5.72848 0
M  V30 8406 H 1076.64 -1.86973 6.82036 0
M  V30 8407 H 1075.65 -0.403953 7.13357 0
M  V30 8408 H 1077.48 -1.20599 8.97534 0
M  V30 8409 P 1075.61 1.17771 8.83182 0
M  V30 8410 O 1075.39 2.07206 9.98732 0
M  V30 8411 O 1074.82 -0.0743816 8.81969 0
M  V30 8412 O 1075.36 1.97652 7.47304 0
M  V30 8413 C 1076.3 3.01133 7.08783 0
M  V30 8414 C 1075.57 4.12613 6.37049 0
M  V30 8415 O 1075.36 3.72827 4.97879 0
M  V30 8416 C 1074.17 4.45085 6.88694 0
M  V30 8417 O 1073.78 5.7877 6.5624 0
M  V30 8418 C 1073.29 3.47817 6.12078 0
M  V30 8419 C 1074 3.39414 4.77697 0
M  V30 8420 N 1073.95 2.04615 4.15333 0
M  V30 8421 C 1074.03 0.803897 4.75249 0
M  V30 8422 N 1073.95 -0.197615 3.91502 0
M  V30 8423 C 1073.81 0.413002 2.66823 0
M  V30 8424 C 1073.68 -0.157221 1.38007 0
M  V30 8425 N 1073.56 0.833136 0.390236 0
M  V30 8426 C 1073.56 2.19402 0.623885 0
M  V30 8427 N 1073.43 2.97622 -0.449677 0
M  V30 8428 N 1073.69 2.73005 1.83601 0
M  V30 8429 C 1073.81 1.78786 2.80935 0
M  V30 8430 H 1076.79 3.41248 7.98759 0
M  V30 8431 H 1077.06 2.5837 6.41742 0
M  V30 8432 H 1076.2 5.02657 6.42673 0
M  V30 8433 P 1072.23 6.144 6.45285 0
M  V30 8434 O 1072.01 7.54673 6.86199 0
M  V30 8435 O 1071.44 5.12391 7.179 0
M  V30 8436 O 1071.98 5.99236 4.88467 0
M  V30 8437 C 1072.92 6.60234 3.96415 0
M  V30 8438 C 1072.19 7.08079 2.736 0
M  V30 8439 O 1071.98 5.94365 1.8368 0
M  V30 8440 C 1070.79 7.64886 2.9555 0
M  V30 8441 O 1070.4 8.5406 1.90739 0
M  V30 8442 C 1069.91 6.4116 2.90739 0
M  V30 8443 C 1070.62 5.55375 1.86963 0
M  V30 8444 N 1070.57 4.09664 2.15742 0
M  V30 8445 C 1070.42 3.22231 1.08477 0
M  V30 8446 O 1070.33 3.68951 -0.0600489 0
M  V30 8447 N 1070.37 1.76692 1.48799 0
M  V30 8448 C 1070.47 1.41695 2.57602 0
M  V30 8449 N 1070.42 0.107296 2.75791 0
M  V30 8450 C 1070.62 2.29178 3.69733 0
M  V30 8451 C 1070.67 3.62753 3.42653 0
M  V30 8452 H 1073.41 7.45488 4.45578 0
M  V30 8453 H 1073.68 5.86232 3.67314 0
M  V30 8454 H 1072.82 7.84508 2.24507 0
M  V30 8455 H 1070.16 5.73556 0.888715 0
M  V30 8456 H 1069.88 5.9096 3.88638 0
M  V30 8457 H 1068.89 6.66053 2.58894 0
M  V30 8458 H 1070.72 8.16339 3.92049 0
M  V30 8459 H 1070.8 4.33052 4.24913 0
M  V30 8460 H 1070.69 1.9103 4.71577 0
M  V30 8461 H 1070.31 -0.521221 1.95056 0
M  V30 8462 H 1070.5 -0.286429 3.70695 0
M  V30 8463 P 1068.85 8.7635 1.60911 0
M  V30 8464 O 1068.63 10.1388 1.11561 0
M  V30 8465 O 1068.06 8.36503 2.79617 0
M  V30 8466 O 1068.6 7.71906 0.429565 0
M  V30 8467 C 1069.54 7.67148 -0.673689 0
M  V30 8468 C 1068.81 7.33666 -1.94851 0
M  V30 8469 O 1068.6 5.88816 -2.00759 0
M  V30 8470 C 1067.41 7.92526 -2.10483 0
M  V30 8471 O 1067.02 8.03063 -3.47693 0
M  V30 8472 C 1066.53 6.89602 -1.41652 0
M  V30 8473 C 1067.24 5.59201 -1.75185 0
M  V30 8474 N 1067.19 4.58235 -0.662552 0
M  V30 8475 C 1067.04 3.24451 -1.01643 0
M  V30 8476 O 1066.95 2.94958 -2.21722 0
M  V30 8477 N 1066.99 2.30408 0.165238 0
M  V30 8478 C 1067.09 2.66048 1.25118 0
M  V30 8479 N 1067.04 1.70787 2.16813 0
M  V30 8480 C 1067.24 4.02732 1.64413 0
M  V30 8481 C 1067.29 4.9488 0.63991 0
M  V30 8482 H 1070.03 8.65017 -0.777072 0
M  V30 8483 H 1070.3 6.90173 -0.474152 0
M  V30 8484 H 1069.44 7.66642 -2.79492 0
M  V30 8485 H 1066.78 5.16254 -2.65229 0
M  V30 8486 H 1066.5 7.06532 -0.329431 0
M  V30 8487 H 1065.51 6.91023 -1.82047 0
M  V30 8488 H 1067.34 8.90873 -1.62657 0
M  V30 8489 H 1067.42 6.00104 0.892197 0
M  V30 8490 H 1067.31 4.31733 2.69229 0
M  V30 8491 H 1066.93 0.724835 1.8844 0
M  V30 8492 H 1067.12 1.94716 3.16734 0
M  V30 8493 P 1065.47 8.03563 -3.84925 0
M  V30 8494 O 1065.25 8.85821 -5.0569 0
M  V30 8495 O 1064.68 8.41101 -2.65469 0
M  V30 8496 O 1065.22 6.4965 -4.18908 0
M  V30 8497 C 1066.16 5.81037 -5.05421 0
M  V30 8498 C 1065.43 4.78366 -5.89277 0
M  V30 8499 O 1065.22 3.58302 -5.08433 0
M  V30 8500 C 1064.03 5.17448 -6.36119 0
M  V30 8501 O 1063.64 4.45271 -7.53232 0
M  V30 8502 C 1063.15 4.74639 -5.19936 0
M  V30 8503 C 1063.86 3.49432 -4.70418 0
M  V30 8504 N 1063.81 3.31776 -3.22945 0
M  V30 8505 C 1063.89 4.27147 -2.23315 0
M  V30 8506 N 1063.81 3.78447 -1.02186 0
M  V30 8507 C 1063.67 2.41001 -1.21732 0
M  V30 8508 C 1063.54 1.36111 -0.27694 0
M  V30 8509 N 1063.42 0.113683 -0.912949 0
M  V30 8510 C 1063.42 -0.0846396 -2.27943 0
M  V30 8511 N 1063.29 -1.34737 -2.6916 0
M  V30 8512 N 1063.55 0.902521 -3.16379 0
M  V30 8513 C 1063.67 2.11937 -2.56849 0
M  V30 8514 H 1066.65 6.54213 -5.71376 0
M  V30 8515 H 1066.92 5.30492 -4.44033 0
M  V30 8516 H 1066.06 4.55889 -6.76652 0
M  V30 8517 P 1062.09 4.23843 -7.83734 0
M  V30 8518 O 1061.87 4.19407 -9.29784 0
M  V30 8519 O 1061.3 5.24426 -7.09156 0
M  V30 8520 O 1061.84 2.79386 -7.20852 0
M  V30 8521 C 1062.78 1.7299 -7.50419 0
M  V30 8522 C 1062.05 0.41401 -7.5797 0
M  V30 8523 O 1061.84 -0.089787 -6.22035 0
M  V30 8524 C 1060.65 0.447224 -8.1878 0
M  V30 8525 O 1060.26 -0.825159 -8.71201 0
M  V30 8526 C 1059.77 0.783801 -6.99623 0
M  V30 8527 C 1060.48 0.0619192 -5.85967 0
M  V30 8528 N 1060.43 0.7859 -4.56281 0
M  V30 8529 C 1060.28 0.0359258 -3.39981 0
M  V30 8530 O 1060.19 -1.19723 -3.49038 0
M  V30 8531 N 1060.23 0.869151 -2.14025 0
M  V30 8532 C 1060.33 2.01207 -2.14363 0
M  V30 8533 N 1060.28 2.58978 -0.954287 0
M  V30 8534 C 1060.48 2.80817 -3.32215 0
M  V30 8535 C 1060.53 2.13785 -4.50884 0
M  V30 8536 H 1063.27 1.93401 -8.46693 0
M  V30 8537 H 1063.54 1.68181 -6.71046 0
M  V30 8538 H 1062.68 -0.289076 -8.15488 0
M  V30 8539 H 1060.02 -0.927166 -5.72947 0
M  V30 8540 H 1059.74 1.87 -6.82132 0
M  V30 8541 H 1058.75 0.404009 -7.13457 0
M  V30 8542 H 1060.58 1.20599 -8.97534 0
M  V30 8543 H 1060.66 2.70295 -5.43162 0
M  V30 8544 H 1060.55 3.89465 -3.27406 0
M  V30 8545 H 1060.17 2.01616 -0.107046 0
M  V30 8546 H 1060.36 3.61403 -0.873101 0
M  V30 8547 P 1058.71 -1.17771 -8.83182 0
M  V30 8548 O 1058.49 -2.07206 -9.98732 0
M  V30 8549 O 1057.92 0.0743816 -8.81969 0
M  V30 8550 O 1058.46 -1.97678 -7.474 0
M  V30 8551 C 1059.4 -3.01133 -7.08783 0
M  V30 8552 C 1058.67 -4.1203 -6.37546 0
M  V30 8553 O 1058.46 -3.72887 -4.9796 0
M  V30 8554 C 1057.27 -4.45085 -6.88694 0
M  V30 8555 O 1056.88 -5.78836 -6.56315 0
M  V30 8556 C 1056.39 -3.47817 -6.12078 0
M  V30 8557 C 1057.1 -3.39414 -4.77697 0
M  V30 8558 N 1057.05 -2.04615 -4.15333 0
M  V30 8559 C 1056.9 -1.96929 -2.77162 0
M  V30 8560 O 1056.81 -3.02017 -2.12006 0
M  V30 8561 N 1056.85 -0.55485 -2.24237 0
M  V30 8562 C 1056.95 0.367808 -2.9169 0
M  V30 8563 N 1056.9 1.53426 -2.29427 0
M  V30 8564 C 1057.1 0.319148 -4.33828 0
M  V30 8565 C 1057.15 -0.920672 -4.90433 0
M  V30 8566 H 1059.89 -3.41209 -7.98667 0
M  V30 8567 H 1060.16 -2.5837 -6.41742 0
M  V30 8568 H 1059.3 -5.02718 -6.42752 0
M  V30 8569 H 1056.64 -4.11779 -4.09026 0
M  V30 8570 H 1056.36 -2.49661 -6.61772 0
M  V30 8571 H 1055.37 -3.86674 -6.00946 0
M  V30 8572 H 1057.2 -4.29991 -7.97006 0
M  V30 8573 H 1057.28 -1.00589 -5.98303 0
M  V30 8574 H 1057.17 1.22639 -4.93799 0
M  V30 8575 H 1056.79 1.56819 -1.27167 0
M  V30 8576 H 1056.98 2.41062 -2.83063 0
M  V30 8577 P 1055.33 -6.144 -6.45285 0
M  V30 8578 O 1055.11 -7.54673 -6.86199 0
M  V30 8579 O 1054.54 -5.12391 -7.179 0
M  V30 8580 O 1055.08 -5.99158 -4.88404 0
M  V30 8581 C 1056.02 -6.60234 -3.96415 0
M  V30 8582 C 1055.29 -7.08259 -2.72856 0
M  V30 8583 O 1055.08 -5.9427 -1.83651 0
M  V30 8584 C 1053.89 -7.64886 -2.9555 0
M  V30 8585 O 1053.5 -8.53963 -1.90717 0
M  V30 8586 C 1053.01 -6.4116 -2.90739 0
M  V30 8587 C 1053.72 -5.55375 -1.86963 0
M  V30 8588 N 1053.67 -4.09664 -2.15742 0
M  V30 8589 C 1053.75 -3.44381 -3.37233 0
M  V30 8590 N 1053.67 -2.14131 -3.28347 0
M  V30 8591 C 1053.53 -1.90247 -1.91588 0
M  V30 8592 C 1053.4 -0.683992 -1.20892 0
M  V30 8593 N 1053.28 -0.903396 0.173998 0
M  V30 8594 C 1053.28 -2.14171 0.784879 0
M  V30 8595 N 1053.15 -2.1435 2.11317 0
M  V30 8596 N 1053.41 -3.28784 0.119316 0
M  V30 8597 C 1053.53 -3.0977 -1.22194 0
M  V30 8598 H 1056.51 -7.45574 -4.45629 0
M  V30 8599 H 1056.78 -5.86232 -3.67314 0
M  V30 8600 H 1055.92 -7.84412 -2.24479 0
M  V30 8601 P 1051.95 -8.7635 -1.60911 0
M  V30 8602 O 1051.73 -10.1388 -1.11561 0
M  V30 8603 O 1051.16 -8.36503 -2.79617 0
M  V30 8604 O 1051.7 -7.71906 -0.429565 0
M  V30 8605 C 1052.64 -7.67148 0.673689 0
M  V30 8606 C 1051.91 -7.33666 1.94851 0
M  V30 8607 O 1051.7 -5.88816 2.00759 0
M  V30 8608 C 1050.51 -7.92526 2.10483 0
M  V30 8609 O 1050.12 -8.03063 3.47693 0
M  V30 8610 C 1049.63 -6.89602 1.41652 0
M  V30 8611 C 1050.34 -5.59201 1.75185 0
M  V30 8612 N 1050.29 -4.58235 0.662552 0
M  V30 8613 C 1050.14 -3.24451 1.01643 0
M  V30 8614 O 1050.05 -2.94958 2.21722 0
M  V30 8615 N 1050.09 -2.30408 -0.165238 0
M  V30 8616 C 1050.19 -2.66048 -1.25118 0
M  V30 8617 N 1050.14 -1.70787 -2.16813 0
M  V30 8618 C 1050.34 -4.02732 -1.64413 0
M  V30 8619 C 1050.39 -4.9488 -0.63991 0
M  V30 8620 H 1053.13 -8.65017 0.777072 0
M  V30 8621 H 1053.4 -6.90173 0.474152 0
M  V30 8622 H 1052.54 -7.66642 2.79492 0
M  V30 8623 H 1049.88 -5.16254 2.65229 0
M  V30 8624 H 1049.6 -7.06532 0.329431 0
M  V30 8625 H 1048.61 -6.91023 1.82047 0
M  V30 8626 H 1050.44 -8.90873 1.62657 0
M  V30 8627 H 1050.52 -6.00104 -0.892197 0
M  V30 8628 H 1050.41 -4.31733 -2.69229 0
M  V30 8629 H 1050.03 -0.724835 -1.8844 0
M  V30 8630 H 1050.22 -1.94716 -3.16734 0
M  V30 8631 P 1048.57 -8.03563 3.84925 0
M  V30 8632 O 1048.35 -8.85821 5.0569 0
M  V30 8633 O 1047.78 -8.41101 2.65469 0
M  V30 8634 O 1048.32 -6.4965 4.18908 0
M  V30 8635 C 1049.26 -5.81037 5.05421 0
M  V30 8636 C 1048.53 -4.78366 5.89277 0
M  V30 8637 O 1048.32 -3.58302 5.08433 0
M  V30 8638 C 1047.13 -5.17448 6.36119 0
M  V30 8639 O 1046.74 -4.45271 7.53232 0
M  V30 8640 C 1046.25 -4.74639 5.19936 0
M  V30 8641 C 1046.96 -3.49432 4.70418 0
M  V30 8642 N 1046.91 -3.31776 3.22945 0
M  V30 8643 H 1049.75 -6.54213 5.71376 0
M  V30 8644 H 1050.02 -5.30492 4.44033 0
M  V30 8645 H 1049.16 -4.55889 6.76652 0
M  V30 8646 P 1045.19 -4.23843 7.83734 0
M  V30 8647 O 1044.97 -4.19407 9.29784 0
M  V30 8648 O 1044.4 -5.24426 7.09156 0
M  V30 8649 O 1044.94 -2.7935 7.20758 0
M  V30 8650 C 1045.88 -1.7299 7.50419 0
M  V30 8651 C 1045.15 -0.406376 7.57911 0
M  V30 8652 O 1044.94 0.0897726 6.21935 0
M  V30 8653 C 1043.75 -0.447224 8.1878 0
M  V30 8654 O 1043.36 0.825065 8.71101 0
M  V30 8655 C 1042.87 -0.783801 6.99623 0
M  V30 8656 C 1043.58 -0.0619192 5.85967 0
M  V30 8657 N 1043.53 -0.790462 4.56202 0
M  V30 8658 H 1046.37 -1.93423 8.4679 0
M  V30 8659 H 1046.64 -1.68852 6.70877 0
M  V30 8660 H 1045.78 0.289041 8.15388 0
M  V30 8661 H 1043.12 0.927006 5.72848 0
M  V30 8662 H 1042.84 -1.86973 6.82036 0
M  V30 8663 H 1041.85 -0.403953 7.13357 0
M  V30 8664 H 1043.68 -1.20599 8.97534 0
M  V30 8665 P 1041.81 1.17771 8.83182 0
M  V30 8666 O 1041.59 2.07206 9.98732 0
M  V30 8667 O 1041.02 -0.0743816 8.81969 0
M  V30 8668 O 1041.56 1.97652 7.47304 0
M  V30 8669 C 1042.5 3.01133 7.08783 0
M  V30 8670 C 1041.77 4.12613 6.37049 0
M  V30 8671 O 1041.56 3.72827 4.97879 0
M  V30 8672 C 1040.37 4.45085 6.88694 0
M  V30 8673 O 1039.98 5.7877 6.5624 0
M  V30 8674 C 1039.49 3.47817 6.12078 0
M  V30 8675 C 1040.2 3.39414 4.77697 0
M  V30 8676 N 1040.15 2.04615 4.15333 0
M  V30 8677 H 1042.99 3.41248 7.98759 0
M  V30 8678 H 1043.26 2.5837 6.41742 0
M  V30 8679 H 1042.4 5.02657 6.42673 0
M  V30 8680 P 1038.43 6.144 6.45285 0
M  V30 8681 O 1038.21 7.54673 6.86199 0
M  V30 8682 O 1037.64 5.12391 7.179 0
M  V30 8683 O 1038.18 5.99158 4.88404 0
M  V30 8684 C 1039.12 6.60234 3.96415 0
M  V30 8685 C 1038.39 7.08259 2.72856 0
M  V30 8686 O 1038.18 5.9427 1.83651 0
M  V30 8687 C 1036.99 7.64886 2.9555 0
M  V30 8688 O 1036.6 8.53963 1.90717 0
M  V30 8689 C 1036.11 6.4116 2.90739 0
M  V30 8690 C 1036.82 5.55375 1.86963 0
M  V30 8691 N 1036.77 4.09664 2.15742 0
M  V30 8692 C 1036.85 3.44381 3.37233 0
M  V30 8693 N 1036.77 2.14131 3.28347 0
M  V30 8694 C 1036.63 1.90247 1.91588 0
M  V30 8695 C 1036.5 0.683992 1.20892 0
M  V30 8696 N 1036.38 0.903396 -0.173998 0
M  V30 8697 C 1036.38 2.14171 -0.784879 0
M  V30 8698 N 1036.25 2.1435 -2.11317 0
M  V30 8699 N 1036.51 3.28784 -0.119316 0
M  V30 8700 C 1036.63 3.0977 1.22194 0
M  V30 8701 H 1039.61 7.45574 4.45629 0
M  V30 8702 H 1039.88 5.86232 3.67314 0
M  V30 8703 H 1039.02 7.84412 2.24479 0
M  V30 8704 P 1035.05 8.7635 1.60911 0
M  V30 8705 O 1034.83 10.1388 1.11561 0
M  V30 8706 O 1034.26 8.36503 2.79617 0
M  V30 8707 O 1034.8 7.71906 0.429565 0
M  V30 8708 C 1035.74 7.67148 -0.673689 0
M  V30 8709 C 1035.01 7.33666 -1.94851 0
M  V30 8710 O 1034.8 5.88816 -2.00759 0
M  V30 8711 C 1033.61 7.92526 -2.10483 0
M  V30 8712 O 1033.22 8.03063 -3.47693 0
M  V30 8713 C 1032.73 6.89602 -1.41652 0
M  V30 8714 C 1033.44 5.59201 -1.75185 0
M  V30 8715 N 1033.39 4.58235 -0.662552 0
M  V30 8716 C 1033.24 3.24451 -1.01643 0
M  V30 8717 O 1033.15 2.94958 -2.21722 0
M  V30 8718 N 1033.19 2.30408 0.165238 0
M  V30 8719 C 1033.29 2.66048 1.25118 0
M  V30 8720 N 1033.24 1.70787 2.16813 0
M  V30 8721 C 1033.44 4.02732 1.64413 0
M  V30 8722 C 1033.49 4.9488 0.63991 0
M  V30 8723 H 1036.23 8.65017 -0.777072 0
M  V30 8724 H 1036.5 6.90173 -0.474152 0
M  V30 8725 H 1035.64 7.66642 -2.79492 0
M  V30 8726 H 1032.98 5.16254 -2.65229 0
M  V30 8727 H 1032.7 7.06532 -0.329431 0
M  V30 8728 H 1031.71 6.91023 -1.82047 0
M  V30 8729 H 1033.54 8.90873 -1.62657 0
M  V30 8730 H 1033.62 6.00104 0.892197 0
M  V30 8731 H 1033.51 4.31733 2.69229 0
M  V30 8732 H 1033.13 0.724835 1.8844 0
M  V30 8733 H 1033.32 1.94716 3.16734 0
M  V30 8734 P 1031.67 8.03563 -3.84925 0
M  V30 8735 O 1031.45 8.85821 -5.0569 0
M  V30 8736 O 1030.88 8.41101 -2.65469 0
M  V30 8737 O 1031.42 6.4965 -4.18908 0
M  V30 8738 C 1032.36 5.81037 -5.05421 0
M  V30 8739 C 1031.63 4.78366 -5.89277 0
M  V30 8740 O 1031.42 3.58302 -5.08433 0
M  V30 8741 C 1030.23 5.17448 -6.36119 0
M  V30 8742 O 1029.84 4.45271 -7.53232 0
M  V30 8743 C 1029.35 4.74639 -5.19936 0
M  V30 8744 C 1030.06 3.49432 -4.70418 0
M  V30 8745 N 1030.01 3.31776 -3.22945 0
M  V30 8746 C 1030.09 4.27147 -2.23315 0
M  V30 8747 N 1030.01 3.78447 -1.02186 0
M  V30 8748 C 1029.87 2.41001 -1.21732 0
M  V30 8749 C 1029.74 1.36111 -0.27694 0
M  V30 8750 N 1029.62 0.113683 -0.912949 0
M  V30 8751 C 1029.62 -0.0846396 -2.27943 0
M  V30 8752 N 1029.49 -1.34737 -2.6916 0
M  V30 8753 N 1029.75 0.902521 -3.16379 0
M  V30 8754 C 1029.87 2.11937 -2.56849 0
M  V30 8755 H 1032.85 6.54213 -5.71376 0
M  V30 8756 H 1033.12 5.30492 -4.44033 0
M  V30 8757 H 1032.26 4.55889 -6.76652 0
M  V30 8758 P 1028.29 4.23843 -7.83734 0
M  V30 8759 O 1028.07 4.19407 -9.29784 0
M  V30 8760 O 1027.5 5.24426 -7.09156 0
M  V30 8761 O 1028.04 2.7935 -7.20758 0
M  V30 8762 C 1028.98 1.7299 -7.50419 0
M  V30 8763 C 1028.25 0.406376 -7.57911 0
M  V30 8764 O 1028.04 -0.0897726 -6.21935 0
M  V30 8765 C 1026.85 0.447224 -8.1878 0
M  V30 8766 O 1026.46 -0.825065 -8.71101 0
M  V30 8767 C 1025.97 0.783801 -6.99623 0
M  V30 8768 C 1026.68 0.0619192 -5.85967 0
M  V30 8769 N 1026.63 0.7859 -4.56281 0
M  V30 8770 H 1029.47 1.93423 -8.4679 0
M  V30 8771 H 1029.74 1.68181 -6.71046 0
M  V30 8772 H 1028.88 -0.289041 -8.15388 0
M  V30 8773 P 1024.91 -1.17771 -8.83182 0
M  V30 8774 O 1024.69 -2.07206 -9.98732 0
M  V30 8775 O 1024.12 0.0743816 -8.81969 0
M  V30 8776 O 1024.66 -1.97678 -7.474 0
M  V30 8777 C 1025.6 -3.01133 -7.08783 0
M  V30 8778 C 1024.87 -4.1203 -6.37546 0
M  V30 8779 O 1024.66 -3.72887 -4.9796 0
M  V30 8780 C 1023.47 -4.45085 -6.88694 0
M  V30 8781 O 1023.08 -5.78836 -6.56315 0
M  V30 8782 C 1022.59 -3.47817 -6.12078 0
M  V30 8783 C 1023.3 -3.39414 -4.77697 0
M  V30 8784 N 1023.25 -2.04615 -4.15333 0
M  V30 8785 C 1023.1 -1.96929 -2.77162 0
M  V30 8786 O 1023.01 -3.02017 -2.12006 0
M  V30 8787 N 1023.05 -0.55485 -2.24237 0
M  V30 8788 C 1023.15 0.367808 -2.9169 0
M  V30 8789 N 1023.1 1.53426 -2.29427 0
M  V30 8790 C 1023.3 0.319148 -4.33828 0
M  V30 8791 C 1023.35 -0.920672 -4.90433 0
M  V30 8792 H 1026.09 -3.41209 -7.98667 0
M  V30 8793 H 1026.36 -2.5837 -6.41742 0
M  V30 8794 H 1025.5 -5.02718 -6.42752 0
M  V30 8795 H 1022.84 -4.11779 -4.09026 0
M  V30 8796 H 1022.56 -2.49661 -6.61772 0
M  V30 8797 H 1021.57 -3.86674 -6.00946 0
M  V30 8798 H 1023.4 -4.29991 -7.97006 0
M  V30 8799 H 1023.48 -1.00589 -5.98303 0
M  V30 8800 H 1023.37 1.22639 -4.93799 0
M  V30 8801 H 1022.99 1.56819 -1.27167 0
M  V30 8802 H 1023.18 2.41062 -2.83063 0
M  V30 8803 P 1021.53 -6.144 -6.45285 0
M  V30 8804 O 1021.31 -7.54673 -6.86199 0
M  V30 8805 O 1020.74 -5.12391 -7.179 0
M  V30 8806 O 1021.28 -5.99158 -4.88404 0
M  V30 8807 C 1022.22 -6.60234 -3.96415 0
M  V30 8808 C 1021.49 -7.08259 -2.72856 0
M  V30 8809 O 1021.28 -5.9427 -1.83651 0
M  V30 8810 C 1020.09 -7.64886 -2.9555 0
M  V30 8811 O 1019.7 -8.53963 -1.90717 0
M  V30 8812 C 1019.21 -6.4116 -2.90739 0
M  V30 8813 C 1019.92 -5.55375 -1.86963 0
M  V30 8814 N 1019.87 -4.09664 -2.15742 0
M  V30 8815 C 1019.95 -3.44381 -3.37233 0
M  V30 8816 N 1019.87 -2.14131 -3.28347 0
M  V30 8817 C 1019.73 -1.90247 -1.91588 0
M  V30 8818 C 1019.6 -0.683992 -1.20892 0
M  V30 8819 N 1019.48 -0.903396 0.173998 0
M  V30 8820 C 1019.48 -2.14171 0.784879 0
M  V30 8821 N 1019.35 -2.1435 2.11317 0
M  V30 8822 N 1019.61 -3.28784 0.119316 0
M  V30 8823 C 1019.73 -3.0977 -1.22194 0
M  V30 8824 H 1022.71 -7.45574 -4.45629 0
M  V30 8825 H 1022.98 -5.86232 -3.67314 0
M  V30 8826 H 1022.12 -7.84412 -2.24479 0
M  V30 8827 P 1018.15 -8.7635 -1.60911 0
M  V30 8828 O 1017.93 -10.1388 -1.11561 0
M  V30 8829 O 1017.36 -8.36503 -2.79617 0
M  V30 8830 O 1017.9 -7.71906 -0.429565 0
M  V30 8831 C 1018.84 -7.67148 0.673689 0
M  V30 8832 C 1018.11 -7.33666 1.94851 0
M  V30 8833 O 1017.9 -5.88816 2.00759 0
M  V30 8834 C 1016.71 -7.92526 2.10483 0
M  V30 8835 O 1016.32 -8.03063 3.47693 0
M  V30 8836 C 1015.83 -6.89602 1.41652 0
M  V30 8837 C 1016.54 -5.59201 1.75185 0
M  V30 8838 N 1016.49 -4.58235 0.662552 0
M  V30 8839 C 1016.34 -3.24451 1.01643 0
M  V30 8840 O 1016.25 -2.94958 2.21722 0
M  V30 8841 N 1016.29 -2.30408 -0.165238 0
M  V30 8842 C 1016.39 -2.66048 -1.25118 0
M  V30 8843 N 1016.34 -1.70787 -2.16813 0
M  V30 8844 C 1016.54 -4.02732 -1.64413 0
M  V30 8845 C 1016.59 -4.9488 -0.63991 0
M  V30 8846 H 1019.33 -8.65017 0.777072 0
M  V30 8847 H 1019.6 -6.90173 0.474152 0
M  V30 8848 H 1018.74 -7.66642 2.79492 0
M  V30 8849 H 1016.08 -5.16254 2.65229 0
M  V30 8850 H 1015.8 -7.06532 0.329431 0
M  V30 8851 H 1014.81 -6.91023 1.82047 0
M  V30 8852 H 1016.65 -8.90873 1.62657 0
M  V30 8853 H 1016.72 -6.00104 -0.892197 0
M  V30 8854 H 1016.62 -4.31733 -2.69229 0
M  V30 8855 H 1016.23 -0.724835 -1.8844 0
M  V30 8856 H 1016.42 -1.94716 -3.16734 0
M  V30 8857 P 1014.77 -8.03563 3.84925 0
M  V30 8858 O 1014.55 -8.85821 5.0569 0
M  V30 8859 O 1013.98 -8.41101 2.65469 0
M  V30 8860 O 1014.52 -6.4965 4.18908 0
M  V30 8861 C 1015.46 -5.81037 5.05421 0
M  V30 8862 C 1014.73 -4.78366 5.89277 0
M  V30 8863 O 1014.52 -3.58302 5.08433 0
M  V30 8864 C 1013.33 -5.17448 6.36119 0
M  V30 8865 O 1012.94 -4.45271 7.53232 0
M  V30 8866 C 1012.45 -4.74639 5.19936 0
M  V30 8867 C 1013.16 -3.49432 4.70418 0
M  V30 8868 N 1013.11 -3.31776 3.22945 0
M  V30 8869 H 1015.95 -6.54213 5.71376 0
M  V30 8870 H 1016.23 -5.30492 4.44033 0
M  V30 8871 H 1015.36 -4.55889 6.76652 0
M  V30 8872 P 1011.39 -4.23843 7.83734 0
M  V30 8873 O 1011.17 -4.19407 9.29784 0
M  V30 8874 O 1010.6 -5.24426 7.09156 0
M  V30 8875 O 1011.14 -2.7935 7.20758 0
M  V30 8876 C 1012.08 -1.7299 7.50419 0
M  V30 8877 C 1011.35 -0.406376 7.57911 0
M  V30 8878 O 1011.14 0.0897726 6.21935 0
M  V30 8879 C 1009.95 -0.447224 8.1878 0
M  V30 8880 O 1009.56 0.825065 8.71101 0
M  V30 8881 C 1009.07 -0.783801 6.99623 0
M  V30 8882 C 1009.78 -0.0619192 5.85967 0
M  V30 8883 N 1009.73 -0.7859 4.56281 0
M  V30 8884 H 1012.57 -1.93423 8.4679 0
M  V30 8885 H 1012.85 -1.68181 6.71046 0
M  V30 8886 H 1011.98 0.289041 8.15388 0
M  V30 8887 P 1008.01 1.17771 8.83182 0
M  V30 8888 O 1007.79 2.07206 9.98732 0
M  V30 8889 O 1007.22 -0.0743816 8.81969 0
M  V30 8890 O 1007.76 1.97652 7.47304 0
M  V30 8891 C 1008.7 3.01133 7.08783 0
M  V30 8892 C 1007.97 4.12613 6.37049 0
M  V30 8893 O 1007.76 3.72827 4.97879 0
M  V30 8894 C 1006.57 4.45085 6.88694 0
M  V30 8895 O 1006.18 5.7877 6.5624 0
M  V30 8896 C 1005.69 3.47817 6.12078 0
M  V30 8897 C 1006.4 3.39414 4.77697 0
M  V30 8898 N 1006.35 2.04615 4.15333 0
M  V30 8899 H 1009.19 3.41248 7.98759 0
M  V30 8900 H 1009.47 2.5837 6.41742 0
M  V30 8901 H 1008.6 5.02657 6.42673 0
M  V30 8902 P 1004.63 6.144 6.45285 0
M  V30 8903 O 1004.41 7.54673 6.86199 0
M  V30 8904 O 1003.84 5.12391 7.179 0
M  V30 8905 O 1004.38 5.99158 4.88404 0
M  V30 8906 C 1005.32 6.60234 3.96415 0
M  V30 8907 C 1004.59 7.08259 2.72856 0
M  V30 8908 O 1004.38 5.9427 1.83651 0
M  V30 8909 C 1003.19 7.64886 2.9555 0
M  V30 8910 O 1002.8 8.53963 1.90717 0
M  V30 8911 C 1002.31 6.4116 2.90739 0
M  V30 8912 C 1003.02 5.55375 1.86963 0
M  V30 8913 N 1002.97 4.09664 2.15742 0
M  V30 8914 C 1003.05 3.44381 3.37233 0
M  V30 8915 N 1002.97 2.14131 3.28347 0
M  V30 8916 C 1002.83 1.90247 1.91588 0
M  V30 8917 C 1002.7 0.683992 1.20892 0
M  V30 8918 N 1002.58 0.903396 -0.173998 0
M  V30 8919 C 1002.58 2.14171 -0.784879 0
M  V30 8920 N 1002.45 2.1435 -2.11317 0
M  V30 8921 N 1002.71 3.28784 -0.119316 0
M  V30 8922 C 1002.83 3.0977 1.22194 0
M  V30 8923 H 1005.81 7.45574 4.45629 0
M  V30 8924 H 1006.09 5.86232 3.67314 0
M  V30 8925 H 1005.22 7.84412 2.24479 0
M  V30 8926 P 1001.25 8.7635 1.60911 0
M  V30 8927 O 1001.03 10.1388 1.11561 0
M  V30 8928 O 1000.46 8.36503 2.79617 0
M  V30 8929 O 1001 7.71806 0.42951 0
M  V30 8930 C 1001.94 7.67148 -0.673689 0
M  V30 8931 C 1001.21 7.33374 -1.95559 0
M  V30 8932 O 1001 5.88721 -2.00726 0
M  V30 8933 C 999.814 7.92526 -2.10483 0
M  V30 8934 O 999.424 8.02971 -3.47653 0
M  V30 8935 C 998.934 6.89602 -1.41652 0
M  V30 8936 C 999.644 5.59201 -1.75185 0
M  V30 8937 N 999.594 4.58235 -0.662552 0
M  V30 8938 H 1002.43 8.65116 -0.777161 0
M  V30 8939 H 1002.71 6.90173 -0.474152 0
M  V30 8940 H 1001.84 7.66548 -2.79458 0
M  V30 8941 P 997.874 8.03563 -3.84925 0
M  V30 8942 O 997.654 8.85821 -5.0569 0
M  V30 8943 O 997.084 8.41101 -2.65469 0
M  V30 8944 O 997.624 6.4965 -4.18908 0
M  V30 8945 C 998.564 5.81037 -5.05421 0
M  V30 8946 C 997.834 4.78366 -5.89277 0
M  V30 8947 O 997.624 3.58302 -5.08433 0
M  V30 8948 C 996.434 5.17448 -6.36119 0
M  V30 8949 O 996.044 4.45271 -7.53232 0
M  V30 8950 C 995.554 4.74639 -5.19936 0
M  V30 8951 C 996.264 3.49432 -4.70418 0
M  V30 8952 N 996.214 3.32099 -3.22613 0
M  V30 8953 H 999.053 6.54213 -5.71376 0
M  V30 8954 H 999.325 5.30936 -4.43503 0
M  V30 8955 H 998.457 4.55889 -6.76652 0
M  V30 8956 H 995.802 2.61715 -5.17932 0
M  V30 8957 H 995.522 5.52155 -4.41878 0
M  V30 8958 H 994.531 4.51981 -5.53374 0
M  V30 8959 H 996.365 6.25124 -6.55234 0
M  V30 8960 P 994.494 4.23843 -7.83734 0
M  V30 8961 O 994.274 4.19407 -9.29784 0
M  V30 8962 O 993.704 5.24426 -7.09156 0
M  V30 8963 O 994.244 2.7935 -7.20758 0
M  V30 8964 C 995.184 1.7299 -7.50419 0
M  V30 8965 C 994.454 0.406376 -7.57911 0
M  V30 8966 O 994.244 -0.0897726 -6.21935 0
M  V30 8967 C 993.054 0.447224 -8.1878 0
M  V30 8968 O 992.664 -0.825065 -8.71101 0
M  V30 8969 C 992.174 0.783801 -6.99623 0
M  V30 8970 C 992.884 0.0619192 -5.85967 0
M  V30 8971 N 992.834 0.7859 -4.56281 0
M  V30 8972 C 992.914 2.14308 -4.31736 0
M  V30 8973 N 992.834 2.46106 -3.05116 0
M  V30 8974 C 992.694 1.23422 -2.4014 0
M  V30 8975 C 992.564 0.938381 -1.02409 0
M  V30 8976 N 992.444 -0.444647 -0.805413 0
M  V30 8977 C 992.444 -1.40829 -1.79435 0
M  V30 8978 N 992.314 -2.67213 -1.38558 0
M  V30 8979 N 992.574 -1.12947 -3.09005 0
M  V30 8980 C 992.694 0.204887 -3.32369 0
M  V30 8981 H 995.673 1.93423 -8.4679 0
M  V30 8982 H 995.945 1.68181 -6.71046 0
M  V30 8983 H 995.077 -0.289041 -8.15388 0
M  V30 8984 P 991.114 -1.17771 -8.83182 0
M  V30 8985 O 990.894 -2.07206 -9.98732 0
M  V30 8986 O 990.324 0.0743816 -8.81969 0
M  V30 8987 O 990.864 -1.97678 -7.474 0
M  V30 8988 C 991.804 -3.01133 -7.08783 0
M  V30 8989 C 991.074 -4.1203 -6.37546 0
M  V30 8990 O 990.864 -3.72887 -4.9796 0
M  V30 8991 C 989.674 -4.45085 -6.88694 0
M  V30 8992 O 989.284 -5.78836 -6.56315 0
M  V30 8993 C 988.794 -3.47817 -6.12078 0
M  V30 8994 C 989.504 -3.39414 -4.77697 0
M  V30 8995 N 989.454 -2.04615 -4.15333 0
M  V30 8996 C 989.304 -1.96929 -2.77162 0
M  V30 8997 O 989.214 -3.02017 -2.12006 0
M  V30 8998 N 989.254 -0.55485 -2.24237 0
M  V30 8999 C 989.354 0.367808 -2.9169 0
M  V30 9000 N 989.304 1.53426 -2.29427 0
M  V30 9001 C 989.504 0.319148 -4.33828 0
M  V30 9002 C 989.554 -0.920672 -4.90433 0
M  V30 9003 H 992.294 -3.41209 -7.98667 0
M  V30 9004 H 992.564 -2.5837 -6.41742 0
M  V30 9005 H 991.697 -5.02718 -6.42752 0
M  V30 9006 H 989.042 -4.11779 -4.09026 0
M  V30 9007 H 988.762 -2.49661 -6.61772 0
M  V30 9008 H 987.771 -3.86674 -6.00946 0
M  V30 9009 H 989.605 -4.29991 -7.97006 0
M  V30 9010 H 989.677 -1.00589 -5.98303 0
M  V30 9011 H 989.575 1.22639 -4.93799 0
M  V30 9012 H 989.187 1.56819 -1.27167 0
M  V30 9013 H 989.383 2.41062 -2.83063 0
M  V30 9014 P 987.734 -6.144 -6.45285 0
M  V30 9015 O 987.514 -7.54673 -6.86199 0
M  V30 9016 O 986.944 -5.12391 -7.179 0
M  V30 9017 O 987.484 -5.99158 -4.88404 0
M  V30 9018 C 988.424 -6.60234 -3.96415 0
M  V30 9019 C 987.694 -7.08259 -2.72856 0
M  V30 9020 O 987.484 -5.9427 -1.83651 0
M  V30 9021 C 986.294 -7.64886 -2.9555 0
M  V30 9022 O 985.904 -8.53963 -1.90717 0
M  V30 9023 C 985.414 -6.4116 -2.90739 0
M  V30 9024 C 986.124 -5.55375 -1.86963 0
M  V30 9025 N 986.074 -4.09664 -2.15742 0
M  V30 9026 H 988.913 -7.45574 -4.45629 0
M  V30 9027 H 989.185 -5.86232 -3.67314 0
M  V30 9028 H 988.317 -7.84412 -2.24479 0
M  V30 9029 P 984.354 -8.7635 -1.60911 0
M  V30 9030 O 984.134 -10.1388 -1.11561 0
M  V30 9031 O 983.564 -8.36503 -2.79617 0
M  V30 9032 O 984.104 -7.71806 -0.42951 0
M  V30 9033 C 985.044 -7.67148 0.673689 0
M  V30 9034 C 984.314 -7.33374 1.95559 0
M  V30 9035 O 984.104 -5.88721 2.00726 0
M  V30 9036 C 982.914 -7.92526 2.10483 0
M  V30 9037 O 982.524 -8.02971 3.47653 0
M  V30 9038 C 982.034 -6.89602 1.41652 0
M  V30 9039 C 982.744 -5.59201 1.75185 0
M  V30 9040 N 982.694 -4.58235 0.662552 0
M  V30 9041 H 985.533 -8.65116 0.777161 0
M  V30 9042 H 985.805 -6.90173 0.474152 0
M  V30 9043 H 984.937 -7.66548 2.79458 0
M  V30 9044 P 980.974 -8.03563 3.84925 0
M  V30 9045 O 980.754 -8.85821 5.0569 0
M  V30 9046 O 980.184 -8.41101 2.65469 0
M  V30 9047 O 980.724 -6.4965 4.18908 0
M  V30 9048 C 981.664 -5.81037 5.05421 0
M  V30 9049 C 980.934 -4.78366 5.89277 0
M  V30 9050 O 980.724 -3.58302 5.08433 0
M  V30 9051 C 979.534 -5.17448 6.36119 0
M  V30 9052 O 979.144 -4.45271 7.53232 0
M  V30 9053 C 978.654 -4.74639 5.19936 0
M  V30 9054 C 979.364 -3.49432 4.70418 0
M  V30 9055 N 979.314 -3.31776 3.22945 0
M  V30 9056 H 982.153 -6.54213 5.71376 0
M  V30 9057 H 982.425 -5.30492 4.44033 0
M  V30 9058 H 981.557 -4.55889 6.76652 0
M  V30 9059 P 977.594 -4.23843 7.83734 0
M  V30 9060 O 977.374 -4.19407 9.29784 0
M  V30 9061 O 976.804 -5.24426 7.09156 0
M  V30 9062 O 977.344 -2.7935 7.20758 0
M  V30 9063 C 978.284 -1.7299 7.50419 0
M  V30 9064 C 977.554 -0.406376 7.57911 0
M  V30 9065 O 977.344 0.0897726 6.21935 0
M  V30 9066 C 976.154 -0.447224 8.1878 0
M  V30 9067 O 975.764 0.825065 8.71101 0
M  V30 9068 C 975.274 -0.783801 6.99623 0
M  V30 9069 C 975.984 -0.0619192 5.85967 0
M  V30 9070 N 975.934 -0.7859 4.56281 0
M  V30 9071 H 978.773 -1.93423 8.4679 0
M  V30 9072 H 979.045 -1.68181 6.71046 0
M  V30 9073 H 978.177 0.289041 8.15388 0
M  V30 9074 P 974.214 1.17771 8.83182 0
M  V30 9075 O 973.994 2.07206 9.98732 0
M  V30 9076 O 973.424 -0.0743816 8.81969 0
M  V30 9077 O 973.964 1.97652 7.47304 0
M  V30 9078 C 974.904 3.01133 7.08783 0
M  V30 9079 C 974.174 4.12613 6.37049 0
M  V30 9080 O 973.964 3.72827 4.97879 0
M  V30 9081 C 972.774 4.45085 6.88694 0
M  V30 9082 O 972.384 5.7877 6.5624 0
M  V30 9083 C 971.894 3.47817 6.12078 0
M  V30 9084 C 972.604 3.39414 4.77697 0
M  V30 9085 N 972.554 2.04615 4.15333 0
M  V30 9086 H 975.393 3.41248 7.98759 0
M  V30 9087 H 975.665 2.5837 6.41742 0
M  V30 9088 H 974.797 5.02657 6.42673 0
M  V30 9089 P 970.834 6.144 6.45285 0
M  V30 9090 O 970.614 7.54673 6.86199 0
M  V30 9091 O 970.044 5.12391 7.179 0
M  V30 9092 O 970.584 5.99158 4.88404 0
M  V30 9093 C 971.524 6.60234 3.96415 0
M  V30 9094 C 970.794 7.08259 2.72856 0
M  V30 9095 O 970.584 5.9427 1.83651 0
M  V30 9096 C 969.394 7.64886 2.9555 0
M  V30 9097 O 969.004 8.53963 1.90717 0
M  V30 9098 C 968.514 6.4116 2.90739 0
M  V30 9099 C 969.224 5.55375 1.86963 0
M  V30 9100 N 969.174 4.09448 2.16152 0
M  V30 9101 H 972.013 7.45574 4.45629 0
M  V30 9102 H 972.285 5.85864 3.679 0
M  V30 9103 H 971.417 7.84412 2.24479 0
M  V30 9104 H 968.762 5.73457 0.888562 0
M  V30 9105 H 968.482 5.90877 3.88583 0
M  V30 9106 H 967.491 6.6596 2.58858 0
M  V30 9107 H 969.325 8.16339 3.92049 0
M  V30 9108 P 967.454 8.7635 1.60911 0
M  V30 9109 O 967.234 10.1388 1.11561 0
M  V30 9110 O 966.664 8.36503 2.79617 0
M  V30 9111 O 967.204 7.71806 0.42951 0
M  V30 9112 C 968.144 7.67148 -0.673689 0
M  V30 9113 C 967.414 7.33374 -1.95559 0
M  V30 9114 O 967.204 5.88721 -2.00726 0
M  V30 9115 C 966.014 7.92526 -2.10483 0
M  V30 9116 O 965.624 8.02971 -3.47653 0
M  V30 9117 C 965.134 6.89602 -1.41652 0
M  V30 9118 C 965.844 5.59201 -1.75185 0
M  V30 9119 N 965.794 4.58235 -0.662552 0
M  V30 9120 H 968.633 8.65116 -0.777161 0
M  V30 9121 H 968.905 6.90173 -0.474152 0
M  V30 9122 H 968.037 7.66548 -2.79458 0
M  V30 9123 P 964.074 8.03563 -3.84925 0
M  V30 9124 O 963.854 8.85821 -5.0569 0
M  V30 9125 O 963.284 8.41101 -2.65469 0
M  V30 9126 O 963.824 6.49734 -4.18962 0
M  V30 9127 C 964.764 5.81037 -5.05421 0
M  V30 9128 C 964.034 4.79018 -5.88876 0
M  V30 9129 O 963.824 3.58359 -5.08515 0
M  V30 9130 C 962.634 5.17448 -6.36119 0
M  V30 9131 O 962.244 4.45322 -7.53318 0
M  V30 9132 C 961.754 4.74639 -5.19936 0
M  V30 9133 C 962.464 3.49432 -4.70418 0
M  V30 9134 N 962.414 3.31776 -3.22945 0
M  V30 9135 C 962.264 2.02742 -2.72939 0
M  V30 9136 O 962.174 1.08301 -3.52749 0
M  V30 9137 N 962.214 1.96117 -1.22063 0
M  V30 9138 C 962.314 2.8878 -0.551566 0
M  V30 9139 N 962.264 2.65609 0.750198 0
M  V30 9140 C 962.464 4.22457 -1.03707 0
M  V30 9141 C 962.514 4.37979 -2.39113 0
M  V30 9142 H 965.254 6.54138 -5.7131 0
M  V30 9143 H 965.524 5.30492 -4.44033 0
M  V30 9144 H 964.657 4.55945 -6.76735 0
M  V30 9145 H 962.002 2.6176 -5.18021 0
M  V30 9146 H 961.722 5.52233 -4.41941 0
M  V30 9147 H 960.731 4.52045 -5.53452 0
M  V30 9148 H 962.565 6.25124 -6.55234 0
M  V30 9149 H 962.637 5.37936 -2.80552 0
M  V30 9150 H 962.535 5.07528 -0.359553 0
M  V30 9151 H 962.147 1.69403 1.09847 0
M  V30 9152 H 962.343 3.43701 1.41792 0
M  V30 9153 P 960.694 4.23843 -7.83734 0
M  V30 9154 O 960.474 4.19407 -9.29784 0
M  V30 9155 O 959.904 5.24426 -7.09156 0
M  V30 9156 O 960.444 2.79386 -7.20852 0
M  V30 9157 C 961.384 1.7299 -7.50419 0
M  V30 9158 C 960.654 0.41401 -7.5797 0
M  V30 9159 O 960.444 -0.089787 -6.22035 0
M  V30 9160 C 959.254 0.447224 -8.1878 0
M  V30 9161 O 958.864 -0.825159 -8.71201 0
M  V30 9162 C 958.374 0.783801 -6.99623 0
M  V30 9163 C 959.084 0.0619192 -5.85967 0
M  V30 9164 N 959.034 0.7859 -4.56281 0
M  V30 9165 C 958.884 0.0359258 -3.39981 0
M  V30 9166 O 958.794 -1.19723 -3.49038 0
M  V30 9167 N 958.834 0.869151 -2.14025 0
M  V30 9168 C 958.934 2.01207 -2.14363 0
M  V30 9169 N 958.884 2.58978 -0.954287 0
M  V30 9170 C 959.084 2.80817 -3.32215 0
M  V30 9171 C 959.134 2.13785 -4.50884 0
M  V30 9172 H 961.874 1.93401 -8.46693 0
M  V30 9173 H 962.144 1.68181 -6.71046 0
M  V30 9174 H 961.277 -0.289076 -8.15488 0
M  V30 9175 H 958.622 -0.927166 -5.72947 0
M  V30 9176 H 958.342 1.87 -6.82132 0
M  V30 9177 H 957.351 0.404009 -7.13457 0
M  V30 9178 H 959.185 1.20599 -8.97534 0
M  V30 9179 H 959.257 2.70295 -5.43162 0
M  V30 9180 H 959.155 3.89465 -3.27406 0
M  V30 9181 H 958.767 2.01616 -0.107046 0
M  V30 9182 H 958.963 3.61403 -0.873101 0
M  V30 9183 P 957.314 -1.17771 -8.83182 0
M  V30 9184 O 957.094 -2.07206 -9.98732 0
M  V30 9185 O 956.524 0.0743816 -8.81969 0
M  V30 9186 O 957.064 -1.97678 -7.474 0
M  V30 9187 C 958.004 -3.01133 -7.08783 0
M  V30 9188 C 957.274 -4.1203 -6.37546 0
M  V30 9189 O 957.064 -3.72887 -4.9796 0
M  V30 9190 C 955.874 -4.45085 -6.88694 0
M  V30 9191 O 955.484 -5.78836 -6.56315 0
M  V30 9192 C 954.994 -3.47817 -6.12078 0
M  V30 9193 C 955.704 -3.39414 -4.77697 0
M  V30 9194 N 955.654 -2.04615 -4.15333 0
M  V30 9195 C 955.504 -1.96929 -2.77162 0
M  V30 9196 O 955.414 -3.02017 -2.12006 0
M  V30 9197 N 955.454 -0.55485 -2.24237 0
M  V30 9198 C 955.554 0.367808 -2.9169 0
M  V30 9199 N 955.504 1.53426 -2.29427 0
M  V30 9200 C 955.704 0.319148 -4.33828 0
M  V30 9201 C 955.754 -0.920672 -4.90433 0
M  V30 9202 H 958.494 -3.41209 -7.98667 0
M  V30 9203 H 958.764 -2.5837 -6.41742 0
M  V30 9204 H 957.897 -5.02718 -6.42752 0
M  V30 9205 H 955.242 -4.11779 -4.09026 0
M  V30 9206 H 954.962 -2.49661 -6.61772 0
M  V30 9207 H 953.971 -3.86674 -6.00946 0
M  V30 9208 H 955.805 -4.29991 -7.97006 0
M  V30 9209 H 955.877 -1.00589 -5.98303 0
M  V30 9210 H 955.775 1.22639 -4.93799 0
M  V30 9211 H 955.387 1.56819 -1.27167 0
M  V30 9212 H 955.583 2.41062 -2.83063 0
M  V30 9213 P 953.934 -6.144 -6.45285 0
M  V30 9214 O 953.714 -7.54673 -6.86199 0
M  V30 9215 O 953.144 -5.12391 -7.179 0
M  V30 9216 O 953.684 -5.99158 -4.88404 0
M  V30 9217 C 954.624 -6.60062 -3.96313 0
M  V30 9218 C 953.894 -7.08259 -2.72856 0
M  V30 9219 O 953.684 -5.9427 -1.83651 0
M  V30 9220 C 952.494 -7.65087 -2.94749 0
M  V30 9221 O 952.104 -8.53963 -1.90717 0
M  V30 9222 C 951.614 -6.41069 -2.90698 0
M  V30 9223 C 952.324 -5.5528 -1.86931 0
M  V30 9224 N 952.274 -4.09575 -2.15696 0
M  V30 9225 C 952.124 -3.24249 -1.08435 0
M  V30 9226 O 952.034 -3.63946 0.0628747 0
M  V30 9227 N 952.084 -1.90009 -1.39973 0
M  V30 9228 C 952.174 -1.34884 -2.65614 0
M  V30 9229 C 952.324 -2.3145 -3.71736 0
M  V30 9230 C 952.374 -3.63518 -3.44754 0
M  V30 9231 H 955.115 -7.45402 -4.45526 0
M  V30 9232 H 955.384 -5.86062 -3.67208 0
M  V30 9233 H 954.517 -7.84412 -2.24479 0
M  V30 9234 H 951.862 -5.73358 -0.888409 0
M  V30 9235 H 951.583 -5.90877 -3.88583 0
M  V30 9236 H 950.591 -6.65867 -2.58821 0
M  V30 9237 H 952.425 -8.16248 -3.92006 0
M  V30 9238 H 952.496 -4.34551 -4.26383 0
M  V30 9239 P 950.554 -8.7635 -1.60911 0
M  V30 9240 O 950.334 -10.1388 -1.11561 0
M  V30 9241 O 949.764 -8.36503 -2.79617 0
M  V30 9242 O 950.304 -7.71906 -0.429565 0
M  V30 9243 C 951.244 -7.67148 0.673689 0
M  V30 9244 C 950.514 -7.33666 1.94851 0
M  V30 9245 O 950.304 -5.88816 2.00759 0
M  V30 9246 C 949.114 -7.92526 2.10483 0
M  V30 9247 O 948.724 -8.03063 3.47693 0
M  V30 9248 C 948.234 -6.89602 1.41652 0
M  V30 9249 C 948.944 -5.59201 1.75185 0
M  V30 9250 N 948.894 -4.58235 0.662552 0
M  V30 9251 C 948.744 -3.24451 1.01643 0
M  V30 9252 O 948.654 -2.94958 2.21722 0
M  V30 9253 N 948.694 -2.30408 -0.165238 0
M  V30 9254 C 948.794 -2.66048 -1.25118 0
M  V30 9255 N 948.744 -1.70787 -2.16813 0
M  V30 9256 C 948.944 -4.02732 -1.64413 0
M  V30 9257 C 948.994 -4.9488 -0.63991 0
M  V30 9258 H 951.734 -8.65017 0.777072 0
M  V30 9259 H 952.004 -6.90173 0.474152 0
M  V30 9260 H 951.137 -7.66642 2.79492 0
M  V30 9261 H 948.482 -5.16254 2.65229 0
M  V30 9262 H 948.202 -7.06532 0.329431 0
M  V30 9263 H 947.211 -6.91023 1.82047 0
M  V30 9264 H 949.045 -8.90873 1.62657 0
M  V30 9265 H 949.117 -6.00104 -0.892197 0
M  V30 9266 H 949.015 -4.31733 -2.69229 0
M  V30 9267 H 948.627 -0.724835 -1.8844 0
M  V30 9268 H 948.823 -1.94716 -3.16734 0
M  V30 9269 P 947.174 -8.03563 3.84925 0
M  V30 9270 O 946.954 -8.85821 5.0569 0
M  V30 9271 O 946.384 -8.41101 2.65469 0
M  V30 9272 O 946.924 -6.4965 4.18908 0
M  V30 9273 C 947.864 -5.80886 5.05289 0
M  V30 9274 C 947.134 -4.78366 5.89277 0
M  V30 9275 O 946.924 -3.58302 5.08433 0
M  V30 9276 C 945.734 -5.16748 6.36559 0
M  V30 9277 O 945.344 -4.45271 7.53232 0
M  V30 9278 C 944.854 -4.74572 5.19863 0
M  V30 9279 C 945.564 -3.49373 4.70338 0
M  V30 9280 N 945.514 -3.31704 3.22876 0
M  V30 9281 C 945.364 -2.03326 2.74871 0
M  V30 9282 O 945.274 -1.06486 3.48076 0
M  V30 9283 N 945.324 -1.91838 1.37456 0
M  V30 9284 C 945.414 -2.94295 0.462035 0
M  V30 9285 C 945.564 -4.25064 1.05249 0
M  V30 9286 C 945.614 -4.40214 2.39192 0
M  V30 9287 H 948.355 -6.54063 5.71245 0
M  V30 9288 H 948.624 -5.30339 4.43905 0
M  V30 9289 H 947.757 -4.55889 6.76652 0
M  V30 9290 H 945.102 -2.6167 5.17842 0
M  V30 9291 H 944.823 -5.52155 4.41878 0
M  V30 9292 H 943.831 -4.51918 5.53297 0
M  V30 9293 H 945.665 -6.25055 6.55162 0
M  V30 9294 H 945.736 -5.39798 2.81523 0
M  V30 9295 P 943.794 -4.23843 7.83734 0
M  V30 9296 O 943.574 -4.19407 9.29784 0
M  V30 9297 O 943.004 -5.24426 7.09156 0
M  V30 9298 O 943.544 -2.7935 7.20758 0
M  V30 9299 C 944.484 -1.72945 7.50224 0
M  V30 9300 C 943.754 -0.406376 7.57911 0
M  V30 9301 O 943.544 0.0897726 6.21935 0
M  V30 9302 C 942.354 -0.438983 8.18724 0
M  V30 9303 O 941.964 0.825065 8.71101 0
M  V30 9304 C 941.474 -0.783689 6.99524 0
M  V30 9305 C 942.184 -0.0619086 5.85867 0
M  V30 9306 N 942.134 -0.78573 4.56183 0
M  V30 9307 C 941.984 -0.0292889 3.41887 0
M  V30 9308 O 941.894 1.18445 3.4419 0
M  V30 9309 N 941.944 -0.744061 2.23964 0
M  V30 9310 C 942.034 -2.10932 2.10362 0
M  V30 9311 O 941.984 -2.64117 0.98825 0
M  V30 9312 C 942.184 -2.8202 3.34994 0
M  V30 9313 C 942.294 -4.31095 3.25037 0
M  V30 9314 C 942.234 -2.15547 4.52261 0
M  V30 9315 H 944.975 -1.93379 8.46595 0
M  V30 9316 H 945.244 -1.68132 6.70852 0
M  V30 9317 H 944.377 0.289041 8.15388 0
M  V30 9318 H 941.722 0.926847 5.72749 0
M  V30 9319 H 941.443 -1.86973 6.82036 0
M  V30 9320 H 940.451 -0.403896 7.13257 0
M  V30 9321 H 942.285 -1.20585 8.97435 0
M  V30 9322 H 942.356 -2.71231 5.45042 0
M  V30 9323 H 941.326 -4.76966 3.49992 0
M  V30 9324 H 943.063 -4.67047 3.95024 0
M  V30 9325 H 942.575 -4.58996 2.22312 0
M  V30 9326 H 941.839 -0.214893 1.39758 0
M  V30 9327 P 940.414 1.17771 8.83182 0
M  V30 9328 O 940.194 2.07206 9.98732 0
M  V30 9329 O 939.624 -0.0743816 8.81969 0
M  V30 9330 O 940.164 1.97652 7.47304 0
M  V30 9331 C 941.104 3.01055 7.08599 0
M  V30 9332 C 940.374 4.12613 6.37049 0
M  V30 9333 O 940.164 3.72827 4.97879 0
M  V30 9334 C 938.974 4.45719 6.88164 0
M  V30 9335 O 938.584 5.7877 6.5624 0
M  V30 9336 C 938.094 3.47768 6.11991 0
M  V30 9337 C 938.804 3.39356 4.77615 0
M  V30 9338 N 938.754 2.04571 4.15244 0
M  V30 9339 C 938.604 1.98587 2.78314 0
M  V30 9340 O 938.514 2.98134 2.08835 0
M  V30 9341 N 938.564 0.714467 2.24925 0
M  V30 9342 C 938.654 -0.470001 2.94169 0
M  V30 9343 C 938.804 -0.312541 4.36783 0
M  V30 9344 C 938.854 0.914512 4.92583 0
M  V30 9345 H 941.595 3.41169 7.98575 0
M  V30 9346 H 941.864 2.58295 6.41556 0
M  V30 9347 H 940.997 5.02657 6.42673 0
M  V30 9348 H 938.342 4.11637 4.08885 0
M  V30 9349 H 938.063 2.49626 6.61679 0
M  V30 9350 H 937.071 3.86566 6.00778 0
M  V30 9351 H 938.905 4.29943 7.96918 0
M  V30 9352 H 938.976 1.00937 6.00374 0
M  V30 9353 P 937.034 6.144 6.45285 0
M  V30 9354 O 936.814 7.54673 6.86199 0
M  V30 9355 O 936.244 5.12391 7.179 0
M  V30 9356 O 936.784 5.99236 4.88467 0
M  V30 9357 C 937.724 6.60234 3.96415 0
M  V30 9358 C 936.994 7.08079 2.736 0
M  V30 9359 O 936.784 5.94365 1.8368 0
M  V30 9360 C 935.594 7.64886 2.9555 0
M  V30 9361 O 935.204 8.5406 1.90739 0
M  V30 9362 C 934.714 6.4116 2.90739 0
M  V30 9363 C 935.424 5.55375 1.86963 0
M  V30 9364 N 935.374 4.09664 2.15742 0
M  V30 9365 C 935.224 3.22231 1.08477 0
M  V30 9366 O 935.134 3.68951 -0.0600489 0
M  V30 9367 N 935.174 1.76692 1.48799 0
M  V30 9368 C 935.274 1.41695 2.57602 0
M  V30 9369 N 935.224 0.107296 2.75791 0
M  V30 9370 C 935.424 2.29178 3.69733 0
M  V30 9371 C 935.474 3.62753 3.42653 0
M  V30 9372 H 938.214 7.45488 4.45578 0
M  V30 9373 H 938.484 5.86232 3.67314 0
M  V30 9374 H 937.617 7.84508 2.24507 0
M  V30 9375 H 934.962 5.73556 0.888715 0
M  V30 9376 H 934.682 5.9096 3.88638 0
M  V30 9377 H 933.691 6.66053 2.58894 0
M  V30 9378 H 935.525 8.16339 3.92049 0
M  V30 9379 H 935.597 4.33052 4.24913 0
M  V30 9380 H 935.495 1.9103 4.71577 0
M  V30 9381 H 935.107 -0.521221 1.95056 0
M  V30 9382 H 935.303 -0.286429 3.70695 0
M  V30 9383 P 933.655 8.7635 1.60911 0
M  V30 9384 O 933.435 10.1388 1.11561 0
M  V30 9385 O 932.865 8.36503 2.79617 0
M  V30 9386 O 933.405 7.71806 0.42951 0
M  V30 9387 C 934.345 7.66948 -0.673514 0
M  V30 9388 C 933.615 7.33374 -1.95559 0
M  V30 9389 O 933.405 5.88721 -2.00726 0
M  V30 9390 C 932.215 7.92218 -2.1125 0
M  V30 9391 O 931.825 8.02971 -3.47653 0
M  V30 9392 C 931.335 6.89504 -1.41631 0
M  V30 9393 C 932.045 5.59106 -1.75155 0
M  V30 9394 N 931.995 4.58136 -0.662409 0
M  V30 9395 C 931.845 3.26059 -1.02863 0
M  V30 9396 O 931.755 2.90743 -2.19009 0
M  V30 9397 N 931.805 2.35995 0.0155585 0
M  V30 9398 C 931.895 2.65248 1.35603 0
M  V30 9399 O 931.845 1.75605 2.20651 0
M  V30 9400 C 932.045 4.05747 1.64698 0
M  V30 9401 C 932.155 4.42345 3.09553 0
M  V30 9402 C 932.095 4.96734 0.652411 0
M  V30 9403 H 934.836 8.64917 -0.776982 0
M  V30 9404 H 935.105 6.89974 -0.474015 0
M  V30 9405 H 934.238 7.66548 -2.79458 0
M  V30 9406 H 931.583 5.16076 -2.65138 0
M  V30 9407 H 931.304 7.06433 -0.329384 0
M  V30 9408 H 930.312 6.90829 -1.81996 0
M  V30 9409 H 932.146 8.90774 -1.62639 0
M  V30 9410 H 932.217 6.02181 0.895285 0
M  V30 9411 H 931.187 4.80252 3.45468 0
M  V30 9412 H 932.924 5.20015 3.22119 0
M  V30 9413 H 932.436 3.53269 3.67833 0
M  V30 9414 H 931.7 1.39558 -0.227499 0
M  V30 9415 P 930.275 8.03563 -3.84925 0
M  V30 9416 O 930.055 8.85821 -5.0569 0
M  V30 9417 O 929.485 8.41101 -2.65469 0
M  V30 9418 O 930.025 6.4965 -4.18908 0
M  V30 9419 C 930.965 5.81037 -5.05421 0
M  V30 9420 C 930.235 4.78366 -5.89277 0
M  V30 9421 O 930.025 3.58302 -5.08433 0
M  V30 9422 C 928.835 5.17448 -6.36119 0
M  V30 9423 O 928.445 4.45271 -7.53232 0
M  V30 9424 C 927.955 4.74639 -5.19936 0
M  V30 9425 C 928.665 3.49432 -4.70418 0
M  V30 9426 N 928.615 3.31776 -3.22945 0
M  V30 9427 H 931.454 6.54213 -5.71376 0
M  V30 9428 H 931.726 5.30492 -4.44033 0
M  V30 9429 H 930.858 4.55889 -6.76652 0
M  V30 9430 P 926.895 4.23843 -7.83734 0
M  V30 9431 O 926.675 4.19407 -9.29784 0
M  V30 9432 O 926.105 5.24426 -7.09156 0
M  V30 9433 O 926.645 2.79386 -7.20852 0
M  V30 9434 C 927.585 1.7299 -7.50419 0
M  V30 9435 C 926.855 0.41401 -7.5797 0
M  V30 9436 O 926.645 -0.089787 -6.22035 0
M  V30 9437 C 925.455 0.447224 -8.1878 0
M  V30 9438 O 925.065 -0.825159 -8.71201 0
M  V30 9439 C 924.575 0.783801 -6.99623 0
M  V30 9440 C 925.285 0.0619192 -5.85967 0
M  V30 9441 N 925.235 0.7859 -4.56281 0
M  V30 9442 C 925.085 0.0359258 -3.39981 0
M  V30 9443 O 924.995 -1.19723 -3.49038 0
M  V30 9444 N 925.035 0.869151 -2.14025 0
M  V30 9445 C 925.135 2.01207 -2.14363 0
M  V30 9446 N 925.085 2.58978 -0.954287 0
M  V30 9447 C 925.285 2.80817 -3.32215 0
M  V30 9448 C 925.335 2.13785 -4.50884 0
M  V30 9449 H 928.075 1.93401 -8.46693 0
M  V30 9450 H 928.345 1.68181 -6.71046 0
M  V30 9451 H 927.478 -0.289076 -8.15488 0
M  V30 9452 H 924.823 -0.927166 -5.72947 0
M  V30 9453 H 924.543 1.87 -6.82132 0
M  V30 9454 H 923.552 0.404009 -7.13457 0
M  V30 9455 H 925.386 1.20599 -8.97534 0
M  V30 9456 H 925.458 2.70295 -5.43162 0
M  V30 9457 H 925.356 3.89465 -3.27406 0
M  V30 9458 H 924.968 2.01616 -0.107046 0
M  V30 9459 H 925.164 3.61403 -0.873101 0
M  V30 9460 P 923.515 -1.17771 -8.83182 0
M  V30 9461 O 923.295 -2.07206 -9.98732 0
M  V30 9462 O 922.725 0.0743816 -8.81969 0
M  V30 9463 O 923.265 -1.97678 -7.474 0
M  V30 9464 C 924.205 -3.01133 -7.08783 0
M  V30 9465 C 923.475 -4.1203 -6.37546 0
M  V30 9466 O 923.265 -3.72887 -4.9796 0
M  V30 9467 C 922.075 -4.45085 -6.88694 0
M  V30 9468 O 921.685 -5.78836 -6.56315 0
M  V30 9469 C 921.195 -3.47817 -6.12078 0
M  V30 9470 C 921.905 -3.39414 -4.77697 0
M  V30 9471 N 921.855 -2.04615 -4.15333 0
M  V30 9472 C 921.705 -1.96929 -2.77162 0
M  V30 9473 O 921.615 -3.02017 -2.12006 0
M  V30 9474 N 921.655 -0.55485 -2.24237 0
M  V30 9475 C 921.755 0.367808 -2.9169 0
M  V30 9476 N 921.705 1.53426 -2.29427 0
M  V30 9477 C 921.905 0.319148 -4.33828 0
M  V30 9478 C 921.955 -0.920672 -4.90433 0
M  V30 9479 H 924.695 -3.41209 -7.98667 0
M  V30 9480 H 924.965 -2.5837 -6.41742 0
M  V30 9481 H 924.098 -5.02718 -6.42752 0
M  V30 9482 H 921.443 -4.11779 -4.09026 0
M  V30 9483 H 921.163 -2.49661 -6.61772 0
M  V30 9484 H 920.172 -3.86674 -6.00946 0
M  V30 9485 H 922.006 -4.29991 -7.97006 0
M  V30 9486 H 922.078 -1.00589 -5.98303 0
M  V30 9487 H 921.976 1.22639 -4.93799 0
M  V30 9488 H 921.588 1.56819 -1.27167 0
M  V30 9489 H 921.784 2.41062 -2.83063 0
M  V30 9490 P 920.135 -6.144 -6.45285 0
M  V30 9491 O 919.915 -7.54673 -6.86199 0
M  V30 9492 O 919.345 -5.12391 -7.179 0
M  V30 9493 O 919.885 -5.99158 -4.88404 0
M  V30 9494 C 920.825 -6.60062 -3.96313 0
M  V30 9495 C 920.095 -7.08259 -2.72856 0
M  V30 9496 O 919.885 -5.9427 -1.83651 0
M  V30 9497 C 918.695 -7.65087 -2.94749 0
M  V30 9498 O 918.305 -8.53963 -1.90717 0
M  V30 9499 C 917.815 -6.41069 -2.90698 0
M  V30 9500 C 918.525 -5.5528 -1.86931 0
M  V30 9501 N 918.475 -4.09575 -2.15696 0
M  V30 9502 C 918.325 -3.24249 -1.08435 0
M  V30 9503 O 918.235 -3.63946 0.0628747 0
M  V30 9504 N 918.285 -1.90009 -1.39973 0
M  V30 9505 C 918.375 -1.34884 -2.65614 0
M  V30 9506 C 918.525 -2.3145 -3.71736 0
M  V30 9507 C 918.575 -3.63518 -3.44754 0
M  V30 9508 H 921.316 -7.45402 -4.45526 0
M  V30 9509 H 921.585 -5.86062 -3.67208 0
M  V30 9510 H 920.718 -7.84412 -2.24479 0
M  V30 9511 H 918.063 -5.73358 -0.888409 0
M  V30 9512 H 917.784 -5.90877 -3.88583 0
M  V30 9513 H 916.792 -6.65867 -2.58821 0
M  V30 9514 H 918.626 -8.16248 -3.92006 0
M  V30 9515 H 918.697 -4.34551 -4.26383 0
M  V30 9516 P 916.755 -8.7635 -1.60911 0
M  V30 9517 O 916.535 -10.1388 -1.11561 0
M  V30 9518 O 915.965 -8.36503 -2.79617 0
M  V30 9519 O 916.505 -7.71806 -0.42951 0
M  V30 9520 C 917.445 -7.67148 0.673689 0
M  V30 9521 C 916.715 -7.33374 1.95559 0
M  V30 9522 O 916.505 -5.88721 2.00726 0
M  V30 9523 C 915.315 -7.92526 2.10483 0
M  V30 9524 O 914.925 -8.02971 3.47653 0
M  V30 9525 C 914.435 -6.89602 1.41652 0
M  V30 9526 C 915.145 -5.59201 1.75185 0
M  V30 9527 N 915.095 -4.58301 0.657969 0
M  V30 9528 H 917.934 -8.65116 0.777161 0
M  V30 9529 H 918.206 -6.9022 0.46725 0
M  V30 9530 H 917.338 -7.66548 2.79458 0
M  V30 9531 H 914.683 -5.16165 2.65183 0
M  V30 9532 H 914.403 -7.06433 0.329384 0
M  V30 9533 H 913.412 -6.90926 1.82021 0
M  V30 9534 H 915.246 -8.90873 1.62657 0
M  V30 9535 P 913.375 -8.03563 3.84925 0
M  V30 9536 O 913.155 -8.85821 5.0569 0
M  V30 9537 O 912.585 -8.41101 2.65469 0
M  V30 9538 O 913.125 -6.49734 4.18962 0
M  V30 9539 C 914.065 -5.81037 5.05421 0
M  V30 9540 C 913.335 -4.79018 5.88876 0
M  V30 9541 O 913.125 -3.58359 5.08515 0
M  V30 9542 C 911.935 -5.17448 6.36119 0
M  V30 9543 O 911.545 -4.45322 7.53318 0
M  V30 9544 C 911.055 -4.74639 5.19936 0
M  V30 9545 C 911.765 -3.49432 4.70418 0
M  V30 9546 N 911.715 -3.31776 3.22945 0
M  V30 9547 C 911.565 -2.02742 2.72939 0
M  V30 9548 O 911.475 -1.08301 3.52749 0
M  V30 9549 N 911.515 -1.96117 1.22063 0
M  V30 9550 C 911.615 -2.8878 0.551566 0
M  V30 9551 N 911.565 -2.65609 -0.750198 0
M  V30 9552 C 911.765 -4.22457 1.03707 0
M  V30 9553 C 911.815 -4.37979 2.39113 0
M  V30 9554 H 914.555 -6.54138 5.7131 0
M  V30 9555 H 914.825 -5.30492 4.44033 0
M  V30 9556 H 913.958 -4.55945 6.76735 0
M  V30 9557 H 911.303 -2.6176 5.18021 0
M  V30 9558 H 911.023 -5.52233 4.41941 0
M  V30 9559 H 910.032 -4.52045 5.53452 0
M  V30 9560 H 911.866 -6.25124 6.55234 0
M  V30 9561 H 911.938 -5.37936 2.80552 0
M  V30 9562 H 911.836 -5.07528 0.359553 0
M  V30 9563 H 911.448 -1.69403 -1.09847 0
M  V30 9564 H 911.644 -3.43701 -1.41792 0
M  V30 9565 P 909.995 -4.23843 7.83734 0
M  V30 9566 O 909.775 -4.19407 9.29784 0
M  V30 9567 O 909.205 -5.24426 7.09156 0
M  V30 9568 O 909.745 -2.7935 7.20758 0
M  V30 9569 C 910.685 -1.7299 7.50419 0
M  V30 9570 C 909.955 -0.406376 7.57911 0
M  V30 9571 O 909.745 0.0897726 6.21935 0
M  V30 9572 C 908.555 -0.447224 8.1878 0
M  V30 9573 O 908.165 0.825065 8.71101 0
M  V30 9574 C 907.675 -0.783801 6.99623 0
M  V30 9575 C 908.385 -0.0619192 5.85967 0
M  V30 9576 N 908.335 -0.7859 4.56281 0
M  V30 9577 H 911.174 -1.93423 8.4679 0
M  V30 9578 H 911.446 -1.68181 6.71046 0
M  V30 9579 H 910.578 0.289041 8.15388 0
M  V30 9580 P 906.615 1.17771 8.83182 0
M  V30 9581 O 906.395 2.07206 9.98732 0
M  V30 9582 O 905.825 -0.0743816 8.81969 0
M  V30 9583 O 906.365 1.97652 7.47304 0
M  V30 9584 C 907.305 3.01133 7.08783 0
M  V30 9585 C 906.575 4.12613 6.37049 0
M  V30 9586 O 906.365 3.72827 4.97879 0
M  V30 9587 C 905.175 4.45085 6.88694 0
M  V30 9588 O 904.785 5.7877 6.5624 0
M  V30 9589 C 904.295 3.47817 6.12078 0
M  V30 9590 C 905.005 3.39414 4.77697 0
M  V30 9591 N 904.955 2.04615 4.15333 0
M  V30 9592 H 907.794 3.41248 7.98759 0
M  V30 9593 H 908.066 2.5837 6.41742 0
M  V30 9594 H 907.198 5.02657 6.42673 0
M  V30 9595 P 903.235 6.144 6.45285 0
M  V30 9596 O 903.015 7.54673 6.86199 0
M  V30 9597 O 902.445 5.12391 7.179 0
M  V30 9598 O 902.985 5.99158 4.88404 0
M  V30 9599 C 903.925 6.60234 3.96415 0
M  V30 9600 C 903.195 7.08259 2.72856 0
M  V30 9601 O 902.985 5.9427 1.83651 0
M  V30 9602 C 901.795 7.64886 2.9555 0
M  V30 9603 O 901.405 8.53963 1.90717 0
M  V30 9604 C 900.915 6.4116 2.90739 0
M  V30 9605 C 901.625 5.55375 1.86963 0
M  V30 9606 N 901.575 4.09664 2.15742 0
M  V30 9607 H 904.414 7.45574 4.45629 0
M  V30 9608 H 904.686 5.86232 3.67314 0
M  V30 9609 H 903.818 7.84412 2.24479 0
M  V30 9610 P 899.855 8.7635 1.60911 0
M  V30 9611 O 899.635 10.1388 1.11561 0
M  V30 9612 O 899.065 8.36503 2.79617 0
M  V30 9613 O 899.605 7.71806 0.42951 0
M  V30 9614 C 900.545 7.67148 -0.673689 0
M  V30 9615 C 899.815 7.33374 -1.95559 0
M  V30 9616 O 899.605 5.88721 -2.00726 0
M  V30 9617 C 898.415 7.92526 -2.10483 0
M  V30 9618 O 898.025 8.02971 -3.47653 0
M  V30 9619 C 897.535 6.89602 -1.41652 0
M  V30 9620 C 898.245 5.59201 -1.75185 0
M  V30 9621 N 898.195 4.58235 -0.662552 0
M  V30 9622 H 901.034 8.65116 -0.777161 0
M  V30 9623 H 901.306 6.90173 -0.474152 0
M  V30 9624 H 900.438 7.66548 -2.79458 0
M  V30 9625 P 896.475 8.03563 -3.84925 0
M  V30 9626 O 896.255 8.85821 -5.0569 0
M  V30 9627 O 895.685 8.41101 -2.65469 0
M  V30 9628 O 896.225 6.4965 -4.18908 0
M  V30 9629 C 897.165 5.81037 -5.05421 0
M  V30 9630 C 896.435 4.78366 -5.89277 0
M  V30 9631 O 896.225 3.58302 -5.08433 0
M  V30 9632 C 895.035 5.17448 -6.36119 0
M  V30 9633 O 894.645 4.45271 -7.53232 0
M  V30 9634 C 894.155 4.74639 -5.19936 0
M  V30 9635 C 894.865 3.49432 -4.70418 0
M  V30 9636 N 894.815 3.31776 -3.22945 0
M  V30 9637 H 897.654 6.54213 -5.71376 0
M  V30 9638 H 897.926 5.30492 -4.44033 0
M  V30 9639 H 897.058 4.55889 -6.76652 0
M  V30 9640 P 893.095 4.23843 -7.83734 0
M  V30 9641 O 892.875 4.19407 -9.29784 0
M  V30 9642 O 892.305 5.24426 -7.09156 0
M  V30 9643 O 892.845 2.7935 -7.20758 0
M  V30 9644 C 893.785 1.7299 -7.50419 0
M  V30 9645 C 893.055 0.406376 -7.57911 0
M  V30 9646 O 892.845 -0.0897726 -6.21935 0
M  V30 9647 C 891.655 0.447224 -8.1878 0
M  V30 9648 O 891.265 -0.825065 -8.71101 0
M  V30 9649 C 890.775 0.783801 -6.99623 0
M  V30 9650 C 891.485 0.0619192 -5.85967 0
M  V30 9651 N 891.435 0.7859 -4.56281 0
M  V30 9652 H 894.274 1.93423 -8.4679 0
M  V30 9653 H 894.546 1.68181 -6.71046 0
M  V30 9654 H 893.678 -0.289041 -8.15388 0
M  V30 9655 P 889.715 -1.17771 -8.83182 0
M  V30 9656 O 889.495 -2.07206 -9.98732 0
M  V30 9657 O 888.925 0.0743816 -8.81969 0
M  V30 9658 O 889.465 -1.97652 -7.47304 0
M  V30 9659 C 890.405 -3.01133 -7.08783 0
M  V30 9660 C 889.675 -4.12613 -6.37049 0
M  V30 9661 O 889.465 -3.72827 -4.97879 0
M  V30 9662 C 888.275 -4.45085 -6.88694 0
M  V30 9663 O 887.885 -5.7877 -6.5624 0
M  V30 9664 C 887.395 -3.47817 -6.12078 0
M  V30 9665 C 888.105 -3.39414 -4.77697 0
M  V30 9666 N 888.055 -2.04615 -4.15333 0
M  V30 9667 C 888.135 -0.803897 -4.75249 0
M  V30 9668 N 888.055 0.197615 -3.91502 0
M  V30 9669 C 887.915 -0.413002 -2.66823 0
M  V30 9670 C 887.785 0.157221 -1.38007 0
M  V30 9671 N 887.665 -0.833136 -0.390236 0
M  V30 9672 C 887.665 -2.19402 -0.623885 0
M  V30 9673 N 887.535 -2.97622 0.449677 0
M  V30 9674 N 887.795 -2.73005 -1.83601 0
M  V30 9675 C 887.915 -1.78786 -2.80935 0
M  V30 9676 H 890.894 -3.41248 -7.98759 0
M  V30 9677 H 891.166 -2.5837 -6.41742 0
M  V30 9678 H 890.298 -5.02657 -6.42673 0
M  V30 9679 P 886.335 -6.144 -6.45285 0
M  V30 9680 O 886.115 -7.54673 -6.86199 0
M  V30 9681 O 885.545 -5.12391 -7.179 0
M  V30 9682 O 886.085 -5.99158 -4.88404 0
M  V30 9683 C 887.025 -6.60234 -3.96415 0
M  V30 9684 C 886.295 -7.08259 -2.72856 0
M  V30 9685 O 886.085 -5.9427 -1.83651 0
M  V30 9686 C 884.895 -7.64886 -2.9555 0
M  V30 9687 O 884.505 -8.53963 -1.90717 0
M  V30 9688 C 884.015 -6.4116 -2.90739 0
M  V30 9689 C 884.725 -5.55375 -1.86963 0
M  V30 9690 N 884.675 -4.09664 -2.15742 0
M  V30 9691 H 887.514 -7.45574 -4.45629 0
M  V30 9692 H 887.786 -5.86232 -3.67314 0
M  V30 9693 H 886.918 -7.84412 -2.24479 0
M  V30 9694 P 882.955 -8.7635 -1.60911 0
M  V30 9695 O 882.735 -10.1388 -1.11561 0
M  V30 9696 O 882.165 -8.36503 -2.79617 0
M  V30 9697 O 882.705 -7.71806 -0.42951 0
M  V30 9698 C 883.645 -7.67148 0.673689 0
M  V30 9699 C 882.915 -7.33374 1.95559 0
M  V30 9700 O 882.705 -5.88721 2.00726 0
M  V30 9701 C 881.515 -7.92526 2.10483 0
M  V30 9702 O 881.125 -8.02971 3.47653 0
M  V30 9703 C 880.635 -6.89602 1.41652 0
M  V30 9704 C 881.345 -5.59201 1.75185 0
M  V30 9705 N 881.295 -4.58235 0.662552 0
M  V30 9706 H 884.134 -8.65116 0.777161 0
M  V30 9707 H 884.406 -6.90173 0.474152 0
M  V30 9708 H 883.538 -7.66548 2.79458 0
M  V30 9709 P 879.575 -8.03563 3.84925 0
M  V30 9710 O 879.355 -8.85821 5.0569 0
M  V30 9711 O 878.785 -8.41101 2.65469 0
M  V30 9712 O 879.325 -6.4965 4.18908 0
M  V30 9713 C 880.265 -5.81037 5.05421 0
M  V30 9714 C 879.535 -4.78366 5.89277 0
M  V30 9715 O 879.325 -3.58302 5.08433 0
M  V30 9716 C 878.135 -5.17448 6.36119 0
M  V30 9717 O 877.745 -4.45271 7.53232 0
M  V30 9718 C 877.255 -4.74639 5.19936 0
M  V30 9719 C 877.965 -3.49432 4.70418 0
M  V30 9720 N 877.915 -3.32099 3.22613 0
M  V30 9721 H 880.754 -6.54213 5.71376 0
M  V30 9722 H 881.026 -5.30936 4.43503 0
M  V30 9723 H 880.158 -4.55889 6.76652 0
M  V30 9724 H 877.503 -2.61715 5.17932 0
M  V30 9725 H 877.223 -5.52155 4.41878 0
M  V30 9726 H 876.232 -4.51981 5.53374 0
M  V30 9727 H 878.066 -6.25124 6.55234 0
M  V30 9728 P 876.195 -4.23843 7.83734 0
M  V30 9729 O 875.975 -4.19407 9.29784 0
M  V30 9730 O 875.405 -5.24426 7.09156 0
M  V30 9731 O 875.945 -2.7935 7.20758 0
M  V30 9732 C 876.885 -1.7299 7.50419 0
M  V30 9733 C 876.155 -0.406376 7.57911 0
M  V30 9734 O 875.945 0.0897726 6.21935 0
M  V30 9735 C 874.755 -0.447224 8.1878 0
M  V30 9736 O 874.365 0.825065 8.71101 0
M  V30 9737 C 873.875 -0.783801 6.99623 0
M  V30 9738 C 874.585 -0.0619192 5.85967 0
M  V30 9739 N 874.535 -0.790462 4.56202 0
M  V30 9740 H 877.374 -1.93423 8.4679 0
M  V30 9741 H 877.646 -1.68852 6.70877 0
M  V30 9742 H 876.778 0.289041 8.15388 0
M  V30 9743 H 874.123 0.927006 5.72848 0
M  V30 9744 H 873.843 -1.86973 6.82036 0
M  V30 9745 H 872.852 -0.403953 7.13357 0
M  V30 9746 H 874.686 -1.20599 8.97534 0
M  V30 9747 P 872.815 1.17771 8.83182 0
M  V30 9748 O 872.595 2.07206 9.98732 0
M  V30 9749 O 872.025 -0.0743816 8.81969 0
M  V30 9750 O 872.565 1.97652 7.47304 0
M  V30 9751 C 873.505 3.01133 7.08783 0
M  V30 9752 C 872.775 4.12613 6.37049 0
M  V30 9753 O 872.565 3.72827 4.97879 0
M  V30 9754 C 871.375 4.45085 6.88694 0
M  V30 9755 O 870.985 5.7877 6.5624 0
M  V30 9756 C 870.495 3.47817 6.12078 0
M  V30 9757 C 871.205 3.39414 4.77697 0
M  V30 9758 N 871.155 2.04615 4.15333 0
M  V30 9759 H 873.994 3.41248 7.98759 0
M  V30 9760 H 874.266 2.5837 6.41742 0
M  V30 9761 H 873.398 5.02657 6.42673 0
M  V30 9762 P 869.435 6.144 6.45285 0
M  V30 9763 O 869.215 7.54673 6.86199 0
M  V30 9764 O 868.645 5.12391 7.179 0
M  V30 9765 O 869.185 5.99158 4.88404 0
M  V30 9766 C 870.125 6.60062 3.96313 0
M  V30 9767 C 869.395 7.08259 2.72856 0
M  V30 9768 O 869.185 5.9427 1.83651 0
M  V30 9769 C 867.995 7.65087 2.94749 0
M  V30 9770 O 867.605 8.53963 1.90717 0
M  V30 9771 C 867.115 6.41069 2.90698 0
M  V30 9772 C 867.825 5.5528 1.86931 0
M  V30 9773 N 867.775 4.09575 2.15696 0
M  V30 9774 C 867.625 3.24249 1.08435 0
M  V30 9775 O 867.535 3.63946 -0.0628747 0
M  V30 9776 N 867.585 1.90009 1.39973 0
M  V30 9777 C 867.675 1.34884 2.65614 0
M  V30 9778 O 867.625 0.123716 2.81728 0
M  V30 9779 C 867.825 2.3145 3.71736 0
M  V30 9780 C 867.935 1.75913 5.10438 0
M  V30 9781 C 867.875 3.63518 3.44754 0
M  V30 9782 H 870.616 7.45402 4.45526 0
M  V30 9783 H 870.885 5.86062 3.67208 0
M  V30 9784 H 870.018 7.84412 2.24479 0
M  V30 9785 H 867.363 5.73358 0.888409 0
M  V30 9786 H 867.084 5.90877 3.88583 0
M  V30 9787 H 866.092 6.65867 2.58821 0
M  V30 9788 H 867.926 8.16248 3.92006 0
M  V30 9789 H 867.997 4.34551 4.26383 0
M  V30 9790 H 866.967 1.85471 5.61775 0
M  V30 9791 H 868.704 2.31364 5.66257 0
M  V30 9792 H 868.216 0.695936 5.05229 0
M  V30 9793 H 867.48 1.26277 0.63625 0
M  V30 9794 P 866.055 8.7635 1.60911 0
M  V30 9795 O 865.835 10.1388 1.11561 0
M  V30 9796 O 865.265 8.36503 2.79617 0
M  V30 9797 O 865.805 7.71806 0.42951 0
M  V30 9798 C 866.745 7.67148 -0.673689 0
M  V30 9799 C 866.015 7.33374 -1.95559 0
M  V30 9800 O 865.805 5.88721 -2.00726 0
M  V30 9801 C 864.615 7.92526 -2.10483 0
M  V30 9802 O 864.225 8.02971 -3.47653 0
M  V30 9803 C 863.735 6.89602 -1.41652 0
M  V30 9804 C 864.445 5.59201 -1.75185 0
M  V30 9805 N 864.395 4.58235 -0.662552 0
M  V30 9806 H 867.234 8.65116 -0.777161 0
M  V30 9807 H 867.506 6.90173 -0.474152 0
M  V30 9808 H 866.638 7.66548 -2.79458 0
M  V30 9809 P 862.675 8.03563 -3.84925 0
M  V30 9810 O 862.455 8.85821 -5.0569 0
M  V30 9811 O 861.885 8.41101 -2.65469 0
M  V30 9812 O 862.425 6.4965 -4.18908 0
M  V30 9813 C 863.365 5.81037 -5.05421 0
M  V30 9814 C 862.635 4.78366 -5.89277 0
M  V30 9815 O 862.425 3.58302 -5.08433 0
M  V30 9816 C 861.235 5.17448 -6.36119 0
M  V30 9817 O 860.845 4.45271 -7.53232 0
M  V30 9818 C 860.355 4.74639 -5.19936 0
M  V30 9819 C 861.065 3.49432 -4.70418 0
M  V30 9820 N 861.015 3.32099 -3.22613 0
M  V30 9821 H 863.854 6.54213 -5.71376 0
M  V30 9822 H 864.126 5.30936 -4.43503 0
M  V30 9823 H 863.258 4.55889 -6.76652 0
M  V30 9824 H 860.603 2.61715 -5.17932 0
M  V30 9825 H 860.323 5.52155 -4.41878 0
M  V30 9826 H 859.332 4.51981 -5.53374 0
M  V30 9827 H 861.166 6.25124 -6.55234 0
M  V30 9828 P 859.295 4.23843 -7.83734 0
M  V30 9829 O 859.075 4.19407 -9.29784 0
M  V30 9830 O 858.505 5.24426 -7.09156 0
M  V30 9831 O 859.045 2.7935 -7.20758 0
M  V30 9832 C 859.985 1.7299 -7.50419 0
M  V30 9833 C 859.255 0.406376 -7.57911 0
M  V30 9834 O 859.045 -0.0897726 -6.21935 0
M  V30 9835 C 857.855 0.447224 -8.1878 0
M  V30 9836 O 857.465 -0.825065 -8.71101 0
M  V30 9837 C 856.975 0.783801 -6.99623 0
M  V30 9838 C 857.685 0.0619192 -5.85967 0
M  V30 9839 N 857.635 0.7859 -4.56281 0
M  V30 9840 H 860.474 1.93423 -8.4679 0
M  V30 9841 H 860.746 1.68181 -6.71046 0
M  V30 9842 H 859.878 -0.289041 -8.15388 0
M  V30 9843 P 855.915 -1.17771 -8.83182 0
M  V30 9844 O 855.695 -2.07206 -9.98732 0
M  V30 9845 O 855.125 0.0743816 -8.81969 0
M  V30 9846 O 855.665 -1.97652 -7.47304 0
M  V30 9847 C 856.605 -3.01133 -7.08783 0
M  V30 9848 C 855.875 -4.12613 -6.37049 0
M  V30 9849 O 855.665 -3.72827 -4.97879 0
M  V30 9850 C 854.475 -4.45085 -6.88694 0
M  V30 9851 O 854.085 -5.7877 -6.5624 0
M  V30 9852 C 853.595 -3.47817 -6.12078 0
M  V30 9853 C 854.305 -3.39414 -4.77697 0
M  V30 9854 N 854.255 -2.04615 -4.15333 0
M  V30 9855 H 857.094 -3.41248 -7.98759 0
M  V30 9856 H 857.366 -2.5837 -6.41742 0
M  V30 9857 H 856.498 -5.02657 -6.42673 0
M  V30 9858 P 852.535 -6.144 -6.45285 0
M  V30 9859 O 852.315 -7.54673 -6.86199 0
M  V30 9860 O 851.745 -5.12391 -7.179 0
M  V30 9861 O 852.285 -5.99158 -4.88404 0
M  V30 9862 C 853.225 -6.60234 -3.96415 0
M  V30 9863 C 852.495 -7.08259 -2.72856 0
M  V30 9864 O 852.285 -5.9427 -1.83651 0
M  V30 9865 C 851.095 -7.64886 -2.9555 0
M  V30 9866 O 850.705 -8.53963 -1.90717 0
M  V30 9867 C 850.215 -6.4116 -2.90739 0
M  V30 9868 C 850.925 -5.55375 -1.86963 0
M  V30 9869 N 850.875 -4.09664 -2.15742 0
M  V30 9870 C 850.955 -3.44381 -3.37233 0
M  V30 9871 N 850.875 -2.14131 -3.28347 0
M  V30 9872 C 850.735 -1.90247 -1.91588 0
M  V30 9873 C 850.605 -0.683992 -1.20892 0
M  V30 9874 O 850.585 0.46618 -1.64523 0
M  V30 9875 N 850.485 -0.903396 0.173998 0
M  V30 9876 C 850.485 -2.14171 0.784879 0
M  V30 9877 N 850.355 -2.1435 2.11317 0
M  V30 9878 N 850.615 -3.28784 0.119316 0
M  V30 9879 C 850.735 -3.0977 -1.22194 0
M  V30 9880 H 853.714 -7.45574 -4.45629 0
M  V30 9881 H 853.986 -5.86232 -3.67314 0
M  V30 9882 H 853.118 -7.84412 -2.24479 0
M  V30 9883 H 850.463 -5.73556 -0.888715 0
M  V30 9884 H 850.183 -5.9096 -3.88638 0
M  V30 9885 H 849.192 -6.66053 -2.58894 0
M  V30 9886 H 851.026 -8.16429 -3.92093 0
M  V30 9887 H 851.075 -3.96785 -4.32043 0
M  V30 9888 H 850.393 -0.0999567 0.761467 0
M  V30 9889 H 850.356 -3.03436 2.63076 0
M  V30 9890 H 850.255 -1.25228 2.62233 0
M  V30 9891 P 849.155 -8.7635 -1.60911 0
M  V30 9892 O 848.935 -10.1388 -1.11561 0
M  V30 9893 O 848.365 -8.36503 -2.79617 0
M  V30 9894 O 848.905 -7.71806 -0.42951 0
M  V30 9895 C 849.845 -7.67148 0.673689 0
M  V30 9896 C 849.115 -7.33374 1.95559 0
M  V30 9897 O 848.905 -5.88721 2.00726 0
M  V30 9898 C 847.715 -7.92526 2.10483 0
M  V30 9899 O 847.325 -8.02971 3.47653 0
M  V30 9900 C 846.835 -6.89602 1.41652 0
M  V30 9901 C 847.545 -5.59201 1.75185 0
M  V30 9902 N 847.495 -4.58301 0.657969 0
M  V30 9903 H 850.334 -8.65116 0.777161 0
M  V30 9904 H 850.606 -6.9022 0.46725 0
M  V30 9905 H 849.738 -7.66548 2.79458 0
M  V30 9906 H 847.083 -5.16165 2.65183 0
M  V30 9907 H 846.803 -7.06433 0.329384 0
M  V30 9908 H 845.812 -6.90926 1.82021 0
M  V30 9909 H 847.646 -8.90873 1.62657 0
M  V30 9910 P 845.775 -8.03563 3.84925 0
M  V30 9911 O 845.555 -8.85821 5.0569 0
M  V30 9912 O 844.985 -8.41101 2.65469 0
M  V30 9913 O 845.525 -6.4965 4.18908 0
M  V30 9914 C 846.465 -5.81037 5.05421 0
M  V30 9915 C 845.735 -4.78366 5.89277 0
M  V30 9916 O 845.525 -3.58302 5.08433 0
M  V30 9917 C 844.335 -5.17448 6.36119 0
M  V30 9918 O 843.945 -4.45271 7.53232 0
M  V30 9919 C 843.455 -4.74639 5.19936 0
M  V30 9920 C 844.165 -3.49432 4.70418 0
M  V30 9921 N 844.115 -3.32099 3.22613 0
M  V30 9922 H 846.954 -6.54213 5.71376 0
M  V30 9923 H 847.226 -5.30936 4.43503 0
M  V30 9924 H 846.358 -4.55889 6.76652 0
M  V30 9925 H 843.703 -2.61715 5.17932 0
M  V30 9926 H 843.423 -5.52155 4.41878 0
M  V30 9927 H 842.432 -4.51981 5.53374 0
M  V30 9928 H 844.266 -6.25124 6.55234 0
M  V30 9929 P 842.395 -4.23843 7.83734 0
M  V30 9930 O 842.175 -4.19407 9.29784 0
M  V30 9931 O 841.605 -5.24426 7.09156 0
M  V30 9932 O 842.145 -2.7935 7.20758 0
M  V30 9933 C 843.085 -1.7299 7.50419 0
M  V30 9934 C 842.355 -0.406376 7.57911 0
M  V30 9935 O 842.145 0.0897726 6.21935 0
M  V30 9936 C 840.955 -0.447224 8.1878 0
M  V30 9937 O 840.565 0.825065 8.71101 0
M  V30 9938 C 840.075 -0.783801 6.99623 0
M  V30 9939 C 840.785 -0.0619192 5.85967 0
M  V30 9940 N 840.735 -0.7859 4.56281 0
M  V30 9941 H 843.574 -1.93423 8.4679 0
M  V30 9942 H 843.846 -1.68181 6.71046 0
M  V30 9943 H 842.978 0.289041 8.15388 0
M  V30 9944 P 839.015 1.17771 8.83182 0
M  V30 9945 O 838.795 2.07206 9.98732 0
M  V30 9946 O 838.225 -0.0743816 8.81969 0
M  V30 9947 O 838.765 1.97678 7.474 0
M  V30 9948 C 839.705 3.01133 7.08783 0
M  V30 9949 C 838.975 4.1203 6.37546 0
M  V30 9950 O 838.765 3.72887 4.9796 0
M  V30 9951 C 837.575 4.45085 6.88694 0
M  V30 9952 O 837.185 5.78836 6.56315 0
M  V30 9953 C 836.695 3.47817 6.12078 0
M  V30 9954 C 837.405 3.39414 4.77697 0
M  V30 9955 N 837.355 2.04615 4.15333 0
M  V30 9956 C 837.205 1.96929 2.77162 0
M  V30 9957 O 837.115 3.02017 2.12006 0
M  V30 9958 N 837.155 0.55485 2.24237 0
M  V30 9959 C 837.255 -0.367808 2.9169 0
M  V30 9960 N 837.205 -1.53426 2.29427 0
M  V30 9961 C 837.405 -0.319148 4.33828 0
M  V30 9962 C 837.455 0.920672 4.90433 0
M  V30 9963 H 840.195 3.41209 7.98667 0
M  V30 9964 H 840.465 2.5837 6.41742 0
M  V30 9965 H 839.598 5.02718 6.42752 0
M  V30 9966 H 836.943 4.11779 4.09026 0
M  V30 9967 H 836.663 2.49661 6.61772 0
M  V30 9968 H 835.672 3.86674 6.00946 0
M  V30 9969 H 837.506 4.29991 7.97006 0
M  V30 9970 H 837.578 1.00589 5.98303 0
M  V30 9971 H 837.476 -1.22639 4.93799 0
M  V30 9972 H 837.088 -1.56819 1.27167 0
M  V30 9973 H 837.284 -2.41062 2.83063 0
M  V30 9974 P 835.635 6.144 6.45285 0
M  V30 9975 O 835.415 7.54673 6.86199 0
M  V30 9976 O 834.845 5.12391 7.179 0
M  V30 9977 O 835.385 5.99158 4.88404 0
M  V30 9978 C 836.325 6.60234 3.96415 0
M  V30 9979 C 835.595 7.08259 2.72856 0
M  V30 9980 O 835.385 5.9427 1.83651 0
M  V30 9981 C 834.195 7.64886 2.9555 0
M  V30 9982 O 833.805 8.53963 1.90717 0
M  V30 9983 C 833.315 6.4116 2.90739 0
M  V30 9984 C 834.025 5.55375 1.86963 0
M  V30 9985 N 833.975 4.09664 2.15742 0
M  V30 9986 H 836.814 7.45574 4.45629 0
M  V30 9987 H 837.086 5.86232 3.67314 0
M  V30 9988 H 836.218 7.84412 2.24479 0
M  V30 9989 P 832.255 8.7635 1.60911 0
M  V30 9990 O 832.035 10.1388 1.11561 0
M  V30 9991 O 831.465 8.36503 2.79617 0
M  V30 9992 O 832.005 7.71806 0.42951 0
M  V30 9993 C 832.945 7.67148 -0.673689 0
M  V30 9994 C 832.215 7.33374 -1.95559 0
M  V30 9995 O 832.005 5.88721 -2.00726 0
M  V30 9996 C 830.815 7.92526 -2.10483 0
M  V30 9997 O 830.425 8.02971 -3.47653 0
M  V30 9998 C 829.935 6.89602 -1.41652 0
M  V30 9999 C 830.645 5.59201 -1.75185 0
M  V30 10000 N 830.595 4.58235 -0.662552 0
M  V30 10001 H 833.434 8.65116 -0.777161 0
M  V30 10002 H 833.706 6.90173 -0.474152 0
M  V30 10003 H 832.838 7.66548 -2.79458 0
M  V30 10004 P 828.875 8.03563 -3.84925 0
M  V30 10005 O 828.655 8.85821 -5.0569 0
M  V30 10006 O 828.085 8.41101 -2.65469 0
M  V30 10007 O 828.625 6.4965 -4.18908 0
M  V30 10008 C 829.565 5.81037 -5.05421 0
M  V30 10009 C 828.835 4.78366 -5.89277 0
M  V30 10010 O 828.625 3.58302 -5.08433 0
M  V30 10011 C 827.435 5.17448 -6.36119 0
M  V30 10012 O 827.045 4.45271 -7.53232 0
M  V30 10013 C 826.555 4.74639 -5.19936 0
M  V30 10014 C 827.265 3.49432 -4.70418 0
M  V30 10015 N 827.215 3.31776 -3.22945 0
M  V30 10016 H 830.054 6.54213 -5.71376 0
M  V30 10017 H 830.326 5.30492 -4.44033 0
M  V30 10018 H 829.458 4.55889 -6.76652 0
M  V30 10019 P 825.495 4.23843 -7.83734 0
M  V30 10020 O 825.275 4.19407 -9.29784 0
M  V30 10021 O 824.705 5.24426 -7.09156 0
M  V30 10022 O 825.245 2.7935 -7.20758 0
M  V30 10023 C 826.185 1.7299 -7.50419 0
M  V30 10024 C 825.455 0.406376 -7.57911 0
M  V30 10025 O 825.245 -0.0897726 -6.21935 0
M  V30 10026 C 824.055 0.447224 -8.1878 0
M  V30 10027 O 823.665 -0.825065 -8.71101 0
M  V30 10028 C 823.175 0.783801 -6.99623 0
M  V30 10029 C 823.885 0.0619192 -5.85967 0
M  V30 10030 N 823.835 0.7859 -4.56281 0
M  V30 10031 C 823.915 2.14308 -4.31736 0
M  V30 10032 N 823.835 2.46106 -3.05116 0
M  V30 10033 C 823.695 1.23422 -2.4014 0
M  V30 10034 C 823.565 0.938381 -1.02409 0
M  V30 10035 N 823.445 -0.444647 -0.805413 0
M  V30 10036 C 823.445 -1.40829 -1.79435 0
M  V30 10037 N 823.315 -2.67213 -1.38558 0
M  V30 10038 N 823.575 -1.12947 -3.09005 0
M  V30 10039 C 823.695 0.204887 -3.32369 0
M  V30 10040 H 826.674 1.93423 -8.4679 0
M  V30 10041 H 826.946 1.68181 -6.71046 0
M  V30 10042 H 826.078 -0.289041 -8.15388 0
M  V30 10043 P 822.115 -1.17771 -8.83182 0
M  V30 10044 O 821.895 -2.07206 -9.98732 0
M  V30 10045 O 821.325 0.0743816 -8.81969 0
M  V30 10046 O 821.865 -1.97652 -7.47304 0
M  V30 10047 C 822.805 -3.01133 -7.08783 0
M  V30 10048 C 822.075 -4.12613 -6.37049 0
M  V30 10049 O 821.865 -3.72827 -4.97879 0
M  V30 10050 C 820.675 -4.45085 -6.88694 0
M  V30 10051 O 820.285 -5.7877 -6.5624 0
M  V30 10052 C 819.795 -3.47817 -6.12078 0
M  V30 10053 C 820.505 -3.39414 -4.77697 0
M  V30 10054 N 820.455 -2.04199 -4.15538 0
M  V30 10055 H 823.294 -3.41248 -7.98759 0
M  V30 10056 H 823.566 -2.57728 -6.42 0
M  V30 10057 H 822.698 -5.02657 -6.42673 0
M  V30 10058 H 820.043 -4.11708 -4.08956 0
M  V30 10059 H 819.763 -2.49626 -6.61679 0
M  V30 10060 H 818.772 -3.8662 -6.00862 0
M  V30 10061 H 820.606 -4.29991 -7.97006 0
M  V30 10062 P 818.735 -6.144 -6.45285 0
M  V30 10063 O 818.515 -7.54673 -6.86199 0
M  V30 10064 O 817.945 -5.12391 -7.179 0
M  V30 10065 O 818.485 -5.99158 -4.88404 0
M  V30 10066 C 819.425 -6.60234 -3.96415 0
M  V30 10067 C 818.695 -7.08259 -2.72856 0
M  V30 10068 O 818.485 -5.9427 -1.83651 0
M  V30 10069 C 817.295 -7.64886 -2.9555 0
M  V30 10070 O 816.905 -8.53963 -1.90717 0
M  V30 10071 C 816.415 -6.4116 -2.90739 0
M  V30 10072 C 817.125 -5.55375 -1.86963 0
M  V30 10073 N 817.075 -4.09448 -2.16152 0
M  V30 10074 H 819.914 -7.45574 -4.45629 0
M  V30 10075 H 820.186 -5.85864 -3.679 0
M  V30 10076 H 819.318 -7.84412 -2.24479 0
M  V30 10077 H 816.663 -5.73457 -0.888562 0
M  V30 10078 H 816.383 -5.90877 -3.88583 0
M  V30 10079 H 815.392 -6.6596 -2.58858 0
M  V30 10080 H 817.226 -8.16339 -3.92049 0
M  V30 10081 P 815.355 -8.7635 -1.60911 0
M  V30 10082 O 815.135 -10.1388 -1.11561 0
M  V30 10083 O 814.565 -8.36503 -2.79617 0
M  V30 10084 O 815.105 -7.71806 -0.42951 0
M  V30 10085 C 816.045 -7.67148 0.673689 0
M  V30 10086 C 815.315 -7.33374 1.95559 0
M  V30 10087 O 815.105 -5.88721 2.00726 0
M  V30 10088 C 813.915 -7.92526 2.10483 0
M  V30 10089 O 813.525 -8.02971 3.47653 0
M  V30 10090 C 813.035 -6.89602 1.41652 0
M  V30 10091 C 813.745 -5.59201 1.75185 0
M  V30 10092 N 813.695 -4.58235 0.662552 0
M  V30 10093 H 816.534 -8.65116 0.777161 0
M  V30 10094 H 816.806 -6.90173 0.474152 0
M  V30 10095 H 815.938 -7.66548 2.79458 0
M  V30 10096 P 811.975 -8.03563 3.84925 0
M  V30 10097 O 811.755 -8.85821 5.0569 0
M  V30 10098 O 811.185 -8.41101 2.65469 0
M  V30 10099 O 811.725 -6.4965 4.18908 0
M  V30 10100 C 812.665 -5.81037 5.05421 0
M  V30 10101 C 811.935 -4.78366 5.89277 0
M  V30 10102 O 811.725 -3.58302 5.08433 0
M  V30 10103 C 810.535 -5.17448 6.36119 0
M  V30 10104 O 810.145 -4.45271 7.53232 0
M  V30 10105 C 809.655 -4.74639 5.19936 0
M  V30 10106 C 810.365 -3.49432 4.70418 0
M  V30 10107 N 810.315 -3.31776 3.22945 0
M  V30 10108 H 813.154 -6.54213 5.71376 0
M  V30 10109 H 813.426 -5.30492 4.44033 0
M  V30 10110 H 812.558 -4.55889 6.76652 0
M  V30 10111 P 808.595 -4.23843 7.83734 0
M  V30 10112 O 808.375 -4.19407 9.29784 0
M  V30 10113 O 807.805 -5.24426 7.09156 0
M  V30 10114 O 808.345 -2.7935 7.20758 0
M  V30 10115 C 809.285 -1.7299 7.50419 0
M  V30 10116 C 808.555 -0.406376 7.57911 0
M  V30 10117 O 808.345 0.0897726 6.21935 0
M  V30 10118 C 807.155 -0.447224 8.1878 0
M  V30 10119 O 806.765 0.825065 8.71101 0
M  V30 10120 C 806.275 -0.783801 6.99623 0
M  V30 10121 C 806.985 -0.0619192 5.85967 0
M  V30 10122 N 806.935 -0.7859 4.56281 0
M  V30 10123 H 809.774 -1.93423 8.4679 0
M  V30 10124 H 810.046 -1.68181 6.71046 0
M  V30 10125 H 809.178 0.289041 8.15388 0
M  V30 10126 P 805.215 1.17771 8.83182 0
M  V30 10127 O 804.995 2.07206 9.98732 0
M  V30 10128 O 804.425 -0.0743816 8.81969 0
M  V30 10129 O 804.965 1.97652 7.47304 0
M  V30 10130 C 805.905 3.01133 7.08783 0
M  V30 10131 C 805.175 4.12613 6.37049 0
M  V30 10132 O 804.965 3.72827 4.97879 0
M  V30 10133 C 803.775 4.45085 6.88694 0
M  V30 10134 O 803.385 5.7877 6.5624 0
M  V30 10135 C 802.895 3.47817 6.12078 0
M  V30 10136 C 803.605 3.39414 4.77697 0
M  V30 10137 N 803.555 2.04199 4.15538 0
M  V30 10138 H 806.394 3.41248 7.98759 0
M  V30 10139 H 806.666 2.57728 6.42 0
M  V30 10140 H 805.798 5.02657 6.42673 0
M  V30 10141 H 803.143 4.11708 4.08956 0
M  V30 10142 H 802.863 2.49626 6.61679 0
M  V30 10143 H 801.872 3.8662 6.00862 0
M  V30 10144 H 803.706 4.29991 7.97006 0
M  V30 10145 P 801.835 6.144 6.45285 0
M  V30 10146 O 801.615 7.54673 6.86199 0
M  V30 10147 O 801.045 5.12391 7.179 0
M  V30 10148 O 801.585 5.99158 4.88404 0
M  V30 10149 C 802.525 6.60234 3.96415 0
M  V30 10150 C 801.795 7.08259 2.72856 0
M  V30 10151 O 801.585 5.9427 1.83651 0
M  V30 10152 C 800.395 7.64886 2.9555 0
M  V30 10153 O 800.005 8.53963 1.90717 0
M  V30 10154 C 799.515 6.4116 2.90739 0
M  V30 10155 C 800.225 5.55375 1.86963 0
M  V30 10156 N 800.175 4.09448 2.16152 0
M  V30 10157 H 803.014 7.45574 4.45629 0
M  V30 10158 H 803.286 5.85864 3.679 0
M  V30 10159 H 802.418 7.84412 2.24479 0
M  V30 10160 H 799.763 5.73457 0.888562 0
M  V30 10161 H 799.483 5.90877 3.88583 0
M  V30 10162 H 798.492 6.6596 2.58858 0
M  V30 10163 H 800.326 8.16339 3.92049 0
M  V30 10164 P 798.455 8.7635 1.60911 0
M  V30 10165 O 798.235 10.1388 1.11561 0
M  V30 10166 O 797.665 8.36503 2.79617 0
M  V30 10167 O 798.205 7.71806 0.42951 0
M  V30 10168 C 799.145 7.67148 -0.673689 0
M  V30 10169 C 798.415 7.33374 -1.95559 0
M  V30 10170 O 798.205 5.88721 -2.00726 0
M  V30 10171 C 797.015 7.92526 -2.10483 0
M  V30 10172 O 796.625 8.02971 -3.47653 0
M  V30 10173 C 796.135 6.89602 -1.41652 0
M  V30 10174 C 796.845 5.59201 -1.75185 0
M  V30 10175 N 796.795 4.58235 -0.662552 0
M  V30 10176 H 799.634 8.65116 -0.777161 0
M  V30 10177 H 799.906 6.90173 -0.474152 0
M  V30 10178 H 799.038 7.66548 -2.79458 0
M  V30 10179 P 795.075 8.03563 -3.84925 0
M  V30 10180 O 794.855 8.85821 -5.0569 0
M  V30 10181 O 794.285 8.41101 -2.65469 0
M  V30 10182 O 794.825 6.4965 -4.18908 0
M  V30 10183 C 795.765 5.81037 -5.05421 0
M  V30 10184 C 795.035 4.78366 -5.89277 0
M  V30 10185 O 794.825 3.58302 -5.08433 0
M  V30 10186 C 793.635 5.17448 -6.36119 0
M  V30 10187 O 793.245 4.45271 -7.53232 0
M  V30 10188 C 792.755 4.74639 -5.19936 0
M  V30 10189 C 793.465 3.49432 -4.70418 0
M  V30 10190 N 793.415 3.31776 -3.22945 0
M  V30 10191 H 796.254 6.54213 -5.71376 0
M  V30 10192 H 796.526 5.30492 -4.44033 0
M  V30 10193 H 795.658 4.55889 -6.76652 0
M  V30 10194 P 791.695 4.23843 -7.83734 0
M  V30 10195 O 791.475 4.19407 -9.29784 0
M  V30 10196 O 790.905 5.24426 -7.09156 0
M  V30 10197 O 791.445 2.7935 -7.20758 0
M  V30 10198 C 792.385 1.7299 -7.50419 0
M  V30 10199 C 791.655 0.406376 -7.57911 0
M  V30 10200 O 791.445 -0.0897726 -6.21935 0
M  V30 10201 C 790.255 0.447224 -8.1878 0
M  V30 10202 O 789.865 -0.825065 -8.71101 0
M  V30 10203 C 789.375 0.783801 -6.99623 0
M  V30 10204 C 790.085 0.0619192 -5.85967 0
M  V30 10205 N 790.035 0.7859 -4.56281 0
M  V30 10206 H 792.874 1.93423 -8.4679 0
M  V30 10207 H 793.146 1.68181 -6.71046 0
M  V30 10208 H 792.278 -0.289041 -8.15388 0
M  V30 10209 P 788.315 -1.17771 -8.83182 0
M  V30 10210 O 788.095 -2.07206 -9.98732 0
M  V30 10211 O 787.525 0.0743816 -8.81969 0
M  V30 10212 O 788.065 -1.97652 -7.47304 0
M  V30 10213 C 789.005 -3.01133 -7.08783 0
M  V30 10214 C 788.275 -4.12613 -6.37049 0
M  V30 10215 O 788.065 -3.72827 -4.97879 0
M  V30 10216 C 786.875 -4.45085 -6.88694 0
M  V30 10217 O 786.485 -5.7877 -6.5624 0
M  V30 10218 C 785.995 -3.47817 -6.12078 0
M  V30 10219 C 786.705 -3.39414 -4.77697 0
M  V30 10220 N 786.655 -2.04615 -4.15333 0
M  V30 10221 H 789.494 -3.41248 -7.98759 0
M  V30 10222 H 789.766 -2.5837 -6.41742 0
M  V30 10223 H 788.898 -5.02657 -6.42673 0
M  V30 10224 P 784.935 -6.144 -6.45285 0
M  V30 10225 O 784.715 -7.54673 -6.86199 0
M  V30 10226 O 784.145 -5.12391 -7.179 0
M  V30 10227 O 784.685 -5.99158 -4.88404 0
M  V30 10228 C 785.625 -6.60234 -3.96415 0
M  V30 10229 C 784.895 -7.08259 -2.72856 0
M  V30 10230 O 784.685 -5.9427 -1.83651 0
M  V30 10231 C 783.495 -7.64886 -2.9555 0
M  V30 10232 O 783.105 -8.53963 -1.90717 0
M  V30 10233 C 782.615 -6.4116 -2.90739 0
M  V30 10234 C 783.325 -5.55375 -1.86963 0
M  V30 10235 N 783.275 -4.09664 -2.15742 0
M  V30 10236 H 786.114 -7.45574 -4.45629 0
M  V30 10237 H 786.386 -5.86232 -3.67314 0
M  V30 10238 H 785.518 -7.84412 -2.24479 0
M  V30 10239 P 781.555 -8.7635 -1.60911 0
M  V30 10240 O 781.335 -10.1388 -1.11561 0
M  V30 10241 O 780.765 -8.36503 -2.79617 0
M  V30 10242 O 781.305 -7.71806 -0.42951 0
M  V30 10243 C 782.245 -7.67148 0.673689 0
M  V30 10244 C 781.515 -7.33374 1.95559 0
M  V30 10245 O 781.305 -5.88721 2.00726 0
M  V30 10246 C 780.115 -7.92526 2.10483 0
M  V30 10247 O 779.725 -8.02971 3.47653 0
M  V30 10248 C 779.235 -6.89602 1.41652 0
M  V30 10249 C 779.945 -5.59201 1.75185 0
M  V30 10250 N 779.895 -4.58301 0.657969 0
M  V30 10251 H 782.734 -8.65116 0.777161 0
M  V30 10252 H 783.006 -6.9022 0.46725 0
M  V30 10253 H 782.138 -7.66548 2.79458 0
M  V30 10254 H 779.483 -5.16165 2.65183 0
M  V30 10255 H 779.203 -7.06433 0.329384 0
M  V30 10256 H 778.212 -6.90926 1.82021 0
M  V30 10257 H 780.046 -8.90873 1.62657 0
M  V30 10258 P 778.175 -8.03563 3.84925 0
M  V30 10259 O 777.955 -8.85821 5.0569 0
M  V30 10260 O 777.385 -8.41101 2.65469 0
M  V30 10261 O 777.925 -6.4965 4.18908 0
M  V30 10262 C 778.865 -5.81037 5.05421 0
M  V30 10263 C 778.135 -4.78366 5.89277 0
M  V30 10264 O 777.925 -3.58302 5.08433 0
M  V30 10265 C 776.735 -5.17448 6.36119 0
M  V30 10266 O 776.345 -4.45271 7.53232 0
M  V30 10267 C 775.855 -4.74639 5.19936 0
M  V30 10268 C 776.565 -3.49432 4.70418 0
M  V30 10269 N 776.515 -3.31776 3.22945 0
M  V30 10270 H 779.354 -6.54213 5.71376 0
M  V30 10271 H 779.626 -5.30492 4.44033 0
M  V30 10272 H 778.758 -4.55889 6.76652 0
M  V30 10273 P 774.795 -4.23843 7.83734 0
M  V30 10274 O 774.575 -4.19407 9.29784 0
M  V30 10275 O 774.005 -5.24426 7.09156 0
M  V30 10276 O 774.545 -2.7935 7.20758 0
M  V30 10277 C 775.485 -1.7299 7.50419 0
M  V30 10278 C 774.755 -0.406376 7.57911 0
M  V30 10279 O 774.545 0.0897726 6.21935 0
M  V30 10280 C 773.355 -0.447224 8.1878 0
M  V30 10281 O 772.965 0.825065 8.71101 0
M  V30 10282 C 772.475 -0.783801 6.99623 0
M  V30 10283 C 773.185 -0.0619192 5.85967 0
M  V30 10284 N 773.135 -0.790462 4.56202 0
M  V30 10285 C 773.215 -2.13895 4.34171 0
M  V30 10286 N 773.145 -2.46449 3.08687 0
M  V30 10287 C 772.995 -1.2525 2.43697 0
M  V30 10288 C 772.865 -0.914535 1.07318 0
M  V30 10289 N 772.855 -1.80782 0.0887348 0
M  V30 10290 N 772.745 0.386745 0.768133 0
M  V30 10291 C 772.755 1.28096 1.75159 0
M  V30 10292 N 772.875 1.09708 3.04861 0
M  V30 10293 C 772.995 -0.214857 3.32306 0
M  V30 10294 H 775.974 -1.93423 8.4679 0
M  V30 10295 H 776.246 -1.68852 6.70877 0
M  V30 10296 H 775.378 0.289041 8.15388 0
M  V30 10297 H 772.723 0.927006 5.72848 0
M  V30 10298 H 772.443 -1.86973 6.82036 0
M  V30 10299 H 771.452 -0.403953 7.13357 0
M  V30 10300 H 773.286 -1.20599 8.97534 0
M  V30 10301 H 773.327 -2.86846 5.14318 0
M  V30 10302 H 772.946 -2.81082 0.302037 0
M  V30 10303 H 772.757 -1.49688 -0.889064 0
M  V30 10304 H 772.649 2.31317 1.43855 0
M  V30 10305 P 771.415 1.17771 8.83182 0
M  V30 10306 O 771.195 2.07206 9.98732 0
M  V30 10307 O 770.625 -0.0743816 8.81969 0
M  V30 10308 O 771.165 1.97652 7.47304 0
M  V30 10309 C 772.105 3.01133 7.08783 0
M  V30 10310 C 771.375 4.12613 6.37049 0
M  V30 10311 O 771.165 3.72827 4.97879 0
M  V30 10312 C 769.975 4.45085 6.88694 0
M  V30 10313 O 769.585 5.7877 6.5624 0
M  V30 10314 C 769.095 3.47817 6.12078 0
M  V30 10315 C 769.805 3.39414 4.77697 0
M  V30 10316 N 769.755 2.04615 4.15333 0
M  V30 10317 H 772.594 3.41248 7.98759 0
M  V30 10318 H 772.866 2.5837 6.41742 0
M  V30 10319 H 771.998 5.02657 6.42673 0
M  V30 10320 P 768.035 6.144 6.45285 0
M  V30 10321 O 767.815 7.54673 6.86199 0
M  V30 10322 O 767.245 5.12391 7.179 0
M  V30 10323 O 767.785 5.99158 4.88404 0
M  V30 10324 C 768.725 6.60234 3.96415 0
M  V30 10325 C 767.995 7.08259 2.72856 0
M  V30 10326 O 767.785 5.9427 1.83651 0
M  V30 10327 C 766.595 7.64886 2.9555 0
M  V30 10328 O 766.205 8.53963 1.90717 0
M  V30 10329 C 765.715 6.4116 2.90739 0
M  V30 10330 C 766.425 5.55375 1.86963 0
M  V30 10331 N 766.375 4.09664 2.15742 0
M  V30 10332 H 769.214 7.45574 4.45629 0
M  V30 10333 H 769.486 5.86232 3.67314 0
M  V30 10334 H 768.618 7.84412 2.24479 0
M  V30 10335 P 764.656 8.7635 1.60911 0
M  V30 10336 O 764.436 10.1388 1.11561 0
M  V30 10337 O 763.866 8.36503 2.79617 0
M  V30 10338 O 764.406 7.71806 0.42951 0
M  V30 10339 C 765.346 7.67148 -0.673689 0
M  V30 10340 C 764.616 7.33374 -1.95559 0
M  V30 10341 O 764.406 5.88721 -2.00726 0
M  V30 10342 C 763.216 7.92526 -2.10483 0
M  V30 10343 O 762.826 8.02971 -3.47653 0
M  V30 10344 C 762.336 6.89602 -1.41652 0
M  V30 10345 C 763.046 5.59201 -1.75185 0
M  V30 10346 N 762.996 4.58235 -0.662552 0
M  V30 10347 C 763.076 4.7683 0.704049 0
M  V30 10348 N 762.996 3.66233 1.39775 0
M  V30 10349 C 762.856 2.66526 0.431739 0
M  V30 10350 C 762.726 1.26394 0.575992 0
M  V30 10351 O 762.706 0.589894 1.60503 0
M  V30 10352 N 762.606 0.62859 -0.67177 0
M  V30 10353 C 762.606 1.27134 -1.89385 0
M  V30 10354 N 762.476 0.492035 -2.96951 0
M  V30 10355 N 762.736 2.58978 -2.02907 0
M  V30 10356 C 762.856 3.22433 -0.832218 0
M  V30 10357 H 765.835 8.65116 -0.777161 0
M  V30 10358 H 766.107 6.90173 -0.474152 0
M  V30 10359 H 765.239 7.66548 -2.79458 0
M  V30 10360 H 762.584 5.16254 -2.65229 0
M  V30 10361 H 762.304 7.06532 -0.329431 0
M  V30 10362 H 761.313 6.91023 -1.82047 0
M  V30 10363 H 763.147 8.90971 -1.62675 0
M  V30 10364 H 763.196 5.74954 1.16305 0
M  V30 10365 H 762.514 -0.366713 -0.674793 0
M  V30 10366 H 762.477 0.908532 -3.91188 0
M  V30 10367 H 762.376 -0.528253 -2.85758 0
M  V30 10368 P 761.276 8.03563 -3.84925 0
M  V30 10369 O 761.056 8.85821 -5.0569 0
M  V30 10370 O 760.486 8.41101 -2.65469 0
M  V30 10371 O 761.026 6.4965 -4.18908 0
M  V30 10372 C 761.966 5.81037 -5.05421 0
M  V30 10373 C 761.236 4.78366 -5.89277 0
M  V30 10374 O 761.026 3.58302 -5.08433 0
M  V30 10375 C 759.836 5.17448 -6.36119 0
M  V30 10376 O 759.446 4.45271 -7.53232 0
M  V30 10377 C 758.956 4.74639 -5.19936 0
M  V30 10378 C 759.666 3.49432 -4.70418 0
M  V30 10379 N 759.616 3.31776 -3.22945 0
M  V30 10380 H 762.455 6.54213 -5.71376 0
M  V30 10381 H 762.727 5.30492 -4.44033 0
M  V30 10382 H 761.859 4.55889 -6.76652 0
M  V30 10383 P 757.896 4.23843 -7.83734 0
M  V30 10384 O 757.676 4.19407 -9.29784 0
M  V30 10385 O 757.106 5.24426 -7.09156 0
M  V30 10386 O 757.646 2.79386 -7.20852 0
M  V30 10387 C 758.586 1.7299 -7.50419 0
M  V30 10388 C 757.856 0.41401 -7.5797 0
M  V30 10389 O 757.646 -0.089787 -6.22035 0
M  V30 10390 C 756.456 0.447224 -8.1878 0
M  V30 10391 O 756.066 -0.825159 -8.71201 0
M  V30 10392 C 755.576 0.783801 -6.99623 0
M  V30 10393 C 756.286 0.0619192 -5.85967 0
M  V30 10394 N 756.236 0.7859 -4.56281 0
M  V30 10395 C 756.086 0.0359258 -3.39981 0
M  V30 10396 O 755.996 -1.19723 -3.49038 0
M  V30 10397 N 756.036 0.869151 -2.14025 0
M  V30 10398 C 756.136 2.01207 -2.14363 0
M  V30 10399 N 756.086 2.58978 -0.954287 0
M  V30 10400 C 756.286 2.80817 -3.32215 0
M  V30 10401 C 756.336 2.13785 -4.50884 0
M  V30 10402 H 759.076 1.93401 -8.46693 0
M  V30 10403 H 759.346 1.68181 -6.71046 0
M  V30 10404 H 758.479 -0.289076 -8.15488 0
M  V30 10405 H 755.824 -0.927166 -5.72947 0
M  V30 10406 H 755.544 1.87 -6.82132 0
M  V30 10407 H 754.553 0.404009 -7.13457 0
M  V30 10408 H 756.387 1.20599 -8.97534 0
M  V30 10409 H 756.459 2.70295 -5.43162 0
M  V30 10410 H 756.357 3.89465 -3.27406 0
M  V30 10411 H 755.969 2.01616 -0.107046 0
M  V30 10412 H 756.165 3.61403 -0.873101 0
M  V30 10413 P 754.516 -1.17771 -8.83182 0
M  V30 10414 O 754.296 -2.07206 -9.98732 0
M  V30 10415 O 753.726 0.0743816 -8.81969 0
M  V30 10416 O 754.266 -1.97652 -7.47304 0
M  V30 10417 C 755.206 -3.01055 -7.08599 0
M  V30 10418 C 754.476 -4.12613 -6.37049 0
M  V30 10419 O 754.266 -3.72827 -4.97879 0
M  V30 10420 C 753.076 -4.45719 -6.88164 0
M  V30 10421 O 752.686 -5.7877 -6.5624 0
M  V30 10422 C 752.196 -3.47768 -6.11991 0
M  V30 10423 C 752.906 -3.39356 -4.77615 0
M  V30 10424 N 752.856 -2.04571 -4.15244 0
M  V30 10425 C 752.706 -1.98587 -2.78314 0
M  V30 10426 O 752.616 -2.98134 -2.08835 0
M  V30 10427 N 752.666 -0.714467 -2.24925 0
M  V30 10428 C 752.756 0.470001 -2.94169 0
M  V30 10429 C 752.906 0.312541 -4.36783 0
M  V30 10430 C 752.956 -0.914512 -4.92583 0
M  V30 10431 H 755.697 -3.41169 -7.98575 0
M  V30 10432 H 755.966 -2.58295 -6.41556 0
M  V30 10433 H 755.099 -5.02657 -6.42673 0
M  V30 10434 H 752.444 -4.11637 -4.08885 0
M  V30 10435 H 752.165 -2.49626 -6.61679 0
M  V30 10436 H 751.173 -3.86566 -6.00778 0
M  V30 10437 H 753.007 -4.29943 -7.96918 0
M  V30 10438 H 753.078 -1.00937 -6.00374 0
M  V30 10439 P 751.136 -6.144 -6.45285 0
M  V30 10440 O 750.916 -7.54673 -6.86199 0
M  V30 10441 O 750.346 -5.12391 -7.179 0
M  V30 10442 O 750.886 -5.99158 -4.88404 0
M  V30 10443 C 751.826 -6.60062 -3.96313 0
M  V30 10444 C 751.096 -7.08259 -2.72856 0
M  V30 10445 O 750.886 -5.9427 -1.83651 0
M  V30 10446 C 749.696 -7.65087 -2.94749 0
M  V30 10447 O 749.306 -8.53963 -1.90717 0
M  V30 10448 C 748.816 -6.41069 -2.90698 0
M  V30 10449 C 749.526 -5.5528 -1.86931 0
M  V30 10450 N 749.476 -4.09575 -2.15696 0
M  V30 10451 C 749.326 -3.24249 -1.08435 0
M  V30 10452 O 749.236 -3.63946 0.0628747 0
M  V30 10453 N 749.286 -1.90009 -1.39973 0
M  V30 10454 C 749.376 -1.34884 -2.65614 0
M  V30 10455 C 749.526 -2.3145 -3.71736 0
M  V30 10456 C 749.576 -3.63518 -3.44754 0
M  V30 10457 H 752.317 -7.45402 -4.45526 0
M  V30 10458 H 752.586 -5.86062 -3.67208 0
M  V30 10459 H 751.719 -7.84412 -2.24479 0
M  V30 10460 H 749.064 -5.73358 -0.888409 0
M  V30 10461 H 748.785 -5.90877 -3.88583 0
M  V30 10462 H 747.793 -6.65867 -2.58821 0
M  V30 10463 H 749.627 -8.16248 -3.92006 0
M  V30 10464 H 749.698 -4.34551 -4.26383 0
M  V30 10465 P 747.756 -8.7635 -1.60911 0
M  V30 10466 O 747.536 -10.1388 -1.11561 0
M  V30 10467 O 746.966 -8.36503 -2.79617 0
M  V30 10468 O 747.506 -7.71806 -0.42951 0
M  V30 10469 C 748.446 -7.67148 0.673689 0
M  V30 10470 C 747.716 -7.33374 1.95559 0
M  V30 10471 O 747.506 -5.88721 2.00726 0
M  V30 10472 C 746.316 -7.92526 2.10483 0
M  V30 10473 O 745.926 -8.02971 3.47653 0
M  V30 10474 C 745.436 -6.89602 1.41652 0
M  V30 10475 C 746.146 -5.59201 1.75185 0
M  V30 10476 N 746.096 -4.58301 0.657969 0
M  V30 10477 H 748.935 -8.65116 0.777161 0
M  V30 10478 H 749.207 -6.9022 0.46725 0
M  V30 10479 H 748.339 -7.66548 2.79458 0
M  V30 10480 H 745.684 -5.16165 2.65183 0
M  V30 10481 H 745.404 -7.06433 0.329384 0
M  V30 10482 H 744.413 -6.90926 1.82021 0
M  V30 10483 H 746.247 -8.90873 1.62657 0
M  V30 10484 P 744.376 -8.03563 3.84925 0
M  V30 10485 O 744.156 -8.85821 5.0569 0
M  V30 10486 O 743.586 -8.41101 2.65469 0
M  V30 10487 O 744.126 -6.4965 4.18908 0
M  V30 10488 C 745.066 -5.81037 5.05421 0
M  V30 10489 C 744.336 -4.78366 5.89277 0
M  V30 10490 O 744.126 -3.58302 5.08433 0
M  V30 10491 C 742.936 -5.17448 6.36119 0
M  V30 10492 O 742.546 -4.45271 7.53232 0
M  V30 10493 C 742.056 -4.74639 5.19936 0
M  V30 10494 C 742.766 -3.49432 4.70418 0
M  V30 10495 N 742.716 -3.31776 3.22945 0
M  V30 10496 H 745.555 -6.54213 5.71376 0
M  V30 10497 H 745.827 -5.30492 4.44033 0
M  V30 10498 H 744.959 -4.55889 6.76652 0
M  V30 10499 P 740.996 -4.23843 7.83734 0
M  V30 10500 O 740.776 -4.19407 9.29784 0
M  V30 10501 O 740.206 -5.24426 7.09156 0
M  V30 10502 O 740.746 -2.7935 7.20758 0
M  V30 10503 C 741.686 -1.7299 7.50419 0
M  V30 10504 C 740.956 -0.406376 7.57911 0
M  V30 10505 O 740.746 0.0897726 6.21935 0
M  V30 10506 C 739.556 -0.447224 8.1878 0
M  V30 10507 O 739.166 0.825065 8.71101 0
M  V30 10508 C 738.676 -0.783801 6.99623 0
M  V30 10509 C 739.386 -0.0619192 5.85967 0
M  V30 10510 N 739.336 -0.790462 4.56202 0
M  V30 10511 C 739.416 -2.13895 4.34171 0
M  V30 10512 N 739.346 -2.46449 3.08687 0
M  V30 10513 C 739.196 -1.2525 2.43697 0
M  V30 10514 C 739.066 -0.914535 1.07318 0
M  V30 10515 N 739.056 -1.80782 0.0887348 0
M  V30 10516 N 738.946 0.386745 0.768133 0
M  V30 10517 C 738.956 1.28096 1.75159 0
M  V30 10518 N 739.076 1.09708 3.04861 0
M  V30 10519 C 739.196 -0.214857 3.32306 0
M  V30 10520 H 742.175 -1.93423 8.4679 0
M  V30 10521 H 742.447 -1.68852 6.70877 0
M  V30 10522 H 741.579 0.289041 8.15388 0
M  V30 10523 H 738.924 0.927006 5.72848 0
M  V30 10524 H 738.644 -1.86973 6.82036 0
M  V30 10525 H 737.653 -0.403953 7.13357 0
M  V30 10526 H 739.487 -1.20599 8.97534 0
M  V30 10527 H 739.528 -2.86846 5.14318 0
M  V30 10528 H 739.147 -2.81082 0.302037 0
M  V30 10529 H 738.958 -1.49688 -0.889064 0
M  V30 10530 H 738.85 2.31317 1.43855 0
M  V30 10531 P 737.616 1.17771 8.83182 0
M  V30 10532 O 737.396 2.07206 9.98732 0
M  V30 10533 O 736.826 -0.0743816 8.81969 0
M  V30 10534 O 737.366 1.97652 7.47304 0
M  V30 10535 C 738.306 3.01133 7.08783 0
M  V30 10536 C 737.576 4.12613 6.37049 0
M  V30 10537 O 737.366 3.72827 4.97879 0
M  V30 10538 C 736.176 4.45085 6.88694 0
M  V30 10539 O 735.786 5.7877 6.5624 0
M  V30 10540 C 735.296 3.47817 6.12078 0
M  V30 10541 C 736.006 3.39414 4.77697 0
M  V30 10542 N 735.956 2.04199 4.15538 0
M  V30 10543 H 738.795 3.41248 7.98759 0
M  V30 10544 H 739.067 2.57728 6.42 0
M  V30 10545 H 738.199 5.02657 6.42673 0
M  V30 10546 H 735.544 4.11708 4.08956 0
M  V30 10547 H 735.264 2.49626 6.61679 0
M  V30 10548 H 734.273 3.8662 6.00862 0
M  V30 10549 H 736.107 4.29991 7.97006 0
M  V30 10550 P 734.236 6.144 6.45285 0
M  V30 10551 O 734.016 7.54673 6.86199 0
M  V30 10552 O 733.446 5.12391 7.179 0
M  V30 10553 O 733.986 5.99158 4.88404 0
M  V30 10554 C 734.926 6.60234 3.96415 0
M  V30 10555 C 734.196 7.08259 2.72856 0
M  V30 10556 O 733.986 5.9427 1.83651 0
M  V30 10557 C 732.796 7.64886 2.9555 0
M  V30 10558 O 732.406 8.53963 1.90717 0
M  V30 10559 C 731.916 6.4116 2.90739 0
M  V30 10560 C 732.626 5.55375 1.86963 0
M  V30 10561 N 732.576 4.09664 2.15742 0
M  V30 10562 H 735.415 7.45574 4.45629 0
M  V30 10563 H 735.687 5.86232 3.67314 0
M  V30 10564 H 734.819 7.84412 2.24479 0
M  V30 10565 P 730.856 8.7635 1.60911 0
M  V30 10566 O 730.636 10.1388 1.11561 0
M  V30 10567 O 730.066 8.36503 2.79617 0
M  V30 10568 O 730.606 7.71806 0.42951 0
M  V30 10569 C 731.546 7.67148 -0.673689 0
M  V30 10570 C 730.816 7.33374 -1.95559 0
M  V30 10571 O 730.606 5.88721 -2.00726 0
M  V30 10572 C 729.416 7.92526 -2.10483 0
M  V30 10573 O 729.026 8.02971 -3.47653 0
M  V30 10574 C 728.536 6.89602 -1.41652 0
M  V30 10575 C 729.246 5.59201 -1.75185 0
M  V30 10576 N 729.196 4.58301 -0.657969 0
M  V30 10577 H 732.035 8.65116 -0.777161 0
M  V30 10578 H 732.307 6.9022 -0.46725 0
M  V30 10579 H 731.439 7.66548 -2.79458 0
M  V30 10580 H 728.784 5.16165 -2.65183 0
M  V30 10581 H 728.504 7.06433 -0.329384 0
M  V30 10582 H 727.513 6.90926 -1.82021 0
M  V30 10583 H 729.347 8.90873 -1.62657 0
M  V30 10584 P 727.476 8.03563 -3.84925 0
M  V30 10585 O 727.256 8.85821 -5.0569 0
M  V30 10586 O 726.686 8.41101 -2.65469 0
M  V30 10587 O 727.226 6.4965 -4.18908 0
M  V30 10588 C 728.166 5.81037 -5.05421 0
M  V30 10589 C 727.436 4.78366 -5.89277 0
M  V30 10590 O 727.226 3.58302 -5.08433 0
M  V30 10591 C 726.036 5.17448 -6.36119 0
M  V30 10592 O 725.646 4.45271 -7.53232 0
M  V30 10593 C 725.156 4.74639 -5.19936 0
M  V30 10594 C 725.866 3.49432 -4.70418 0
M  V30 10595 N 725.816 3.31776 -3.22945 0
M  V30 10596 H 728.655 6.54213 -5.71376 0
M  V30 10597 H 728.927 5.30492 -4.44033 0
M  V30 10598 H 728.059 4.55889 -6.76652 0
M  V30 10599 P 724.096 4.23843 -7.83734 0
M  V30 10600 O 723.876 4.19407 -9.29784 0
M  V30 10601 O 723.306 5.24426 -7.09156 0
M  V30 10602 O 723.846 2.7935 -7.20758 0
M  V30 10603 C 724.786 1.7299 -7.50419 0
M  V30 10604 C 724.056 0.406376 -7.57911 0
M  V30 10605 O 723.846 -0.0897726 -6.21935 0
M  V30 10606 C 722.656 0.447224 -8.1878 0
M  V30 10607 O 722.266 -0.825065 -8.71101 0
M  V30 10608 C 721.776 0.783801 -6.99623 0
M  V30 10609 C 722.486 0.0619192 -5.85967 0
M  V30 10610 N 722.436 0.7859 -4.56281 0
M  V30 10611 H 725.275 1.93423 -8.4679 0
M  V30 10612 H 725.547 1.68181 -6.71046 0
M  V30 10613 H 724.679 -0.289041 -8.15388 0
M  V30 10614 P 720.716 -1.17771 -8.83182 0
M  V30 10615 O 720.496 -2.07206 -9.98732 0
M  V30 10616 O 719.926 0.0743816 -8.81969 0
M  V30 10617 O 720.466 -1.97652 -7.47304 0
M  V30 10618 C 721.406 -3.01133 -7.08783 0
M  V30 10619 C 720.676 -4.12613 -6.37049 0
M  V30 10620 O 720.466 -3.72827 -4.97879 0
M  V30 10621 C 719.276 -4.45085 -6.88694 0
M  V30 10622 O 718.886 -5.7877 -6.5624 0
M  V30 10623 C 718.396 -3.47817 -6.12078 0
M  V30 10624 C 719.106 -3.39414 -4.77697 0
M  V30 10625 N 719.056 -2.04615 -4.15333 0
M  V30 10626 H 721.895 -3.41248 -7.98759 0
M  V30 10627 H 722.167 -2.5837 -6.41742 0
M  V30 10628 H 721.299 -5.02657 -6.42673 0
M  V30 10629 P 717.336 -6.144 -6.45285 0
M  V30 10630 O 717.116 -7.54673 -6.86199 0
M  V30 10631 O 716.546 -5.12391 -7.179 0
M  V30 10632 O 717.086 -5.99158 -4.88404 0
M  V30 10633 C 718.026 -6.60234 -3.96415 0
M  V30 10634 C 717.296 -7.08259 -2.72856 0
M  V30 10635 O 717.086 -5.9427 -1.83651 0
M  V30 10636 C 715.896 -7.64886 -2.9555 0
M  V30 10637 O 715.506 -8.53963 -1.90717 0
M  V30 10638 C 715.016 -6.4116 -2.90739 0
M  V30 10639 C 715.726 -5.55375 -1.86963 0
M  V30 10640 N 715.676 -4.09664 -2.15742 0
M  V30 10641 H 718.515 -7.45574 -4.45629 0
M  V30 10642 H 718.787 -5.86232 -3.67314 0
M  V30 10643 H 717.919 -7.84412 -2.24479 0
M  V30 10644 P 713.956 -8.7635 -1.60911 0
M  V30 10645 O 713.736 -10.1388 -1.11561 0
M  V30 10646 O 713.166 -8.36503 -2.79617 0
M  V30 10647 O 713.706 -7.71806 -0.42951 0
M  V30 10648 C 714.646 -7.67148 0.673689 0
M  V30 10649 C 713.916 -7.33374 1.95559 0
M  V30 10650 O 713.706 -5.88721 2.00726 0
M  V30 10651 C 712.516 -7.92526 2.10483 0
M  V30 10652 O 712.126 -8.02971 3.47653 0
M  V30 10653 C 711.636 -6.89602 1.41652 0
M  V30 10654 C 712.346 -5.59201 1.75185 0
M  V30 10655 N 712.296 -4.58235 0.662552 0
M  V30 10656 H 715.135 -8.65116 0.777161 0
M  V30 10657 H 715.407 -6.90173 0.474152 0
M  V30 10658 H 714.539 -7.66548 2.79458 0
M  V30 10659 P 710.576 -8.03563 3.84925 0
M  V30 10660 O 710.356 -8.85821 5.0569 0
M  V30 10661 O 709.786 -8.41101 2.65469 0
M  V30 10662 O 710.326 -6.4965 4.18908 0
M  V30 10663 C 711.266 -5.81037 5.05421 0
M  V30 10664 C 710.536 -4.78366 5.89277 0
M  V30 10665 O 710.326 -3.58302 5.08433 0
M  V30 10666 C 709.136 -5.17448 6.36119 0
M  V30 10667 O 708.746 -4.45271 7.53232 0
M  V30 10668 C 708.256 -4.74639 5.19936 0
M  V30 10669 C 708.966 -3.49432 4.70418 0
M  V30 10670 N 708.916 -3.32099 3.22613 0
M  V30 10671 H 711.755 -6.54213 5.71376 0
M  V30 10672 H 712.027 -5.30936 4.43503 0
M  V30 10673 H 711.159 -4.55889 6.76652 0
M  V30 10674 H 708.504 -2.61715 5.17932 0
M  V30 10675 H 708.224 -5.52155 4.41878 0
M  V30 10676 H 707.233 -4.51981 5.53374 0
M  V30 10677 H 709.067 -6.25124 6.55234 0
M  V30 10678 P 707.196 -4.23843 7.83734 0
M  V30 10679 O 706.976 -4.19407 9.29784 0
M  V30 10680 O 706.406 -5.24426 7.09156 0
M  V30 10681 O 706.946 -2.7935 7.20758 0
M  V30 10682 C 707.886 -1.7299 7.50419 0
M  V30 10683 C 707.156 -0.406376 7.57911 0
M  V30 10684 O 706.946 0.0897726 6.21935 0
M  V30 10685 C 705.756 -0.447224 8.1878 0
M  V30 10686 O 705.366 0.825065 8.71101 0
M  V30 10687 C 704.876 -0.783801 6.99623 0
M  V30 10688 C 705.586 -0.0619192 5.85967 0
M  V30 10689 N 705.536 -0.7859 4.56281 0
M  V30 10690 H 708.375 -1.93423 8.4679 0
M  V30 10691 H 708.647 -1.68181 6.71046 0
M  V30 10692 H 707.779 0.289041 8.15388 0
M  V30 10693 P 703.816 1.17771 8.83182 0
M  V30 10694 O 703.596 2.07206 9.98732 0
M  V30 10695 O 703.026 -0.0743816 8.81969 0
M  V30 10696 O 703.566 1.97652 7.47304 0
M  V30 10697 C 704.506 3.01133 7.08783 0
M  V30 10698 C 703.776 4.12613 6.37049 0
M  V30 10699 O 703.566 3.72827 4.97879 0
M  V30 10700 C 702.376 4.45085 6.88694 0
M  V30 10701 O 701.986 5.7877 6.5624 0
M  V30 10702 C 701.496 3.47817 6.12078 0
M  V30 10703 C 702.206 3.39414 4.77697 0
M  V30 10704 N 702.156 2.04615 4.15333 0
M  V30 10705 H 704.995 3.41248 7.98759 0
M  V30 10706 H 705.267 2.5837 6.41742 0
M  V30 10707 H 704.399 5.02657 6.42673 0
M  V30 10708 P 700.436 6.144 6.45285 0
M  V30 10709 O 700.216 7.54673 6.86199 0
M  V30 10710 O 699.646 5.12391 7.179 0
M  V30 10711 O 700.186 5.99158 4.88404 0
M  V30 10712 C 701.126 6.60234 3.96415 0
M  V30 10713 C 700.396 7.08259 2.72856 0
M  V30 10714 O 700.186 5.9427 1.83651 0
M  V30 10715 C 698.996 7.64886 2.9555 0
M  V30 10716 O 698.606 8.53963 1.90717 0
M  V30 10717 C 698.116 6.4116 2.90739 0
M  V30 10718 C 698.826 5.55375 1.86963 0
M  V30 10719 N 698.776 4.09664 2.15742 0
M  V30 10720 H 701.615 7.45574 4.45629 0
M  V30 10721 H 701.887 5.86232 3.67314 0
M  V30 10722 H 701.019 7.84412 2.24479 0
M  V30 10723 P 697.056 8.7635 1.60911 0
M  V30 10724 O 696.836 10.1388 1.11561 0
M  V30 10725 O 696.266 8.36503 2.79617 0
M  V30 10726 O 696.806 7.71906 0.429565 0
M  V30 10727 C 697.746 7.67148 -0.673689 0
M  V30 10728 C 697.016 7.33666 -1.94851 0
M  V30 10729 O 696.806 5.88816 -2.00759 0
M  V30 10730 C 695.616 7.92526 -2.10483 0
M  V30 10731 O 695.226 8.03063 -3.47693 0
M  V30 10732 C 694.736 6.89602 -1.41652 0
M  V30 10733 C 695.446 5.59201 -1.75185 0
M  V30 10734 N 695.396 4.58235 -0.662552 0
M  V30 10735 C 695.246 3.24451 -1.01643 0
M  V30 10736 O 695.156 2.94958 -2.21722 0
M  V30 10737 N 695.196 2.30408 0.165238 0
M  V30 10738 C 695.296 2.66048 1.25118 0
M  V30 10739 N 695.246 1.70787 2.16813 0
M  V30 10740 C 695.446 4.02732 1.64413 0
M  V30 10741 C 695.496 4.9488 0.63991 0
M  V30 10742 H 698.236 8.65017 -0.777072 0
M  V30 10743 H 698.506 6.90173 -0.474152 0
M  V30 10744 H 697.639 7.66642 -2.79492 0
M  V30 10745 H 694.984 5.16254 -2.65229 0
M  V30 10746 H 694.704 7.06532 -0.329431 0
M  V30 10747 H 693.713 6.91023 -1.82047 0
M  V30 10748 H 695.547 8.90873 -1.62657 0
M  V30 10749 H 695.619 6.00104 0.892197 0
M  V30 10750 H 695.517 4.31733 2.69229 0
M  V30 10751 H 695.129 0.724835 1.8844 0
M  V30 10752 H 695.325 1.94716 3.16734 0
M  V30 10753 P 693.676 8.03563 -3.84925 0
M  V30 10754 O 693.456 8.85821 -5.0569 0
M  V30 10755 O 692.886 8.41101 -2.65469 0
M  V30 10756 O 693.426 6.4965 -4.18908 0
M  V30 10757 C 694.366 5.81037 -5.05421 0
M  V30 10758 C 693.636 4.78366 -5.89277 0
M  V30 10759 O 693.426 3.58302 -5.08433 0
M  V30 10760 C 692.236 5.17448 -6.36119 0
M  V30 10761 O 691.846 4.45271 -7.53232 0
M  V30 10762 C 691.356 4.74639 -5.19936 0
M  V30 10763 C 692.066 3.49432 -4.70418 0
M  V30 10764 N 692.016 3.31776 -3.22945 0
M  V30 10765 H 694.855 6.54213 -5.71376 0
M  V30 10766 H 695.127 5.30492 -4.44033 0
M  V30 10767 H 694.259 4.55889 -6.76652 0
M  V30 10768 P 690.296 4.23843 -7.83734 0
M  V30 10769 O 690.076 4.19407 -9.29784 0
M  V30 10770 O 689.506 5.24426 -7.09156 0
M  V30 10771 O 690.046 2.79386 -7.20852 0
M  V30 10772 C 690.986 1.7299 -7.50419 0
M  V30 10773 C 690.256 0.41401 -7.5797 0
M  V30 10774 O 690.046 -0.089787 -6.22035 0
M  V30 10775 C 688.856 0.447224 -8.1878 0
M  V30 10776 O 688.466 -0.825159 -8.71201 0
M  V30 10777 C 687.976 0.783801 -6.99623 0
M  V30 10778 C 688.686 0.0619192 -5.85967 0
M  V30 10779 N 688.636 0.7859 -4.56281 0
M  V30 10780 C 688.486 0.0359258 -3.39981 0
M  V30 10781 O 688.396 -1.19723 -3.49038 0
M  V30 10782 N 688.436 0.869151 -2.14025 0
M  V30 10783 C 688.536 2.01207 -2.14363 0
M  V30 10784 N 688.486 2.58978 -0.954287 0
M  V30 10785 C 688.686 2.80817 -3.32215 0
M  V30 10786 C 688.736 2.13785 -4.50884 0
M  V30 10787 H 691.476 1.93401 -8.46693 0
M  V30 10788 H 691.746 1.68181 -6.71046 0
M  V30 10789 H 690.879 -0.289076 -8.15488 0
M  V30 10790 H 688.224 -0.927166 -5.72947 0
M  V30 10791 H 687.944 1.87 -6.82132 0
M  V30 10792 H 686.953 0.404009 -7.13457 0
M  V30 10793 H 688.787 1.20599 -8.97534 0
M  V30 10794 H 688.859 2.70295 -5.43162 0
M  V30 10795 H 688.757 3.89465 -3.27406 0
M  V30 10796 H 688.369 2.01616 -0.107046 0
M  V30 10797 H 688.565 3.61403 -0.873101 0
M  V30 10798 P 686.916 -1.17771 -8.83182 0
M  V30 10799 O 686.696 -2.07206 -9.98732 0
M  V30 10800 O 686.126 0.0743816 -8.81969 0
M  V30 10801 O 686.666 -1.97678 -7.474 0
M  V30 10802 C 687.606 -3.01133 -7.08783 0
M  V30 10803 C 686.876 -4.1203 -6.37546 0
M  V30 10804 O 686.666 -3.72887 -4.9796 0
M  V30 10805 C 685.476 -4.45085 -6.88694 0
M  V30 10806 O 685.086 -5.78836 -6.56315 0
M  V30 10807 C 684.596 -3.47817 -6.12078 0
M  V30 10808 C 685.306 -3.39414 -4.77697 0
M  V30 10809 N 685.256 -2.04615 -4.15333 0
M  V30 10810 C 685.106 -1.96929 -2.77162 0
M  V30 10811 O 685.016 -3.02017 -2.12006 0
M  V30 10812 N 685.056 -0.55485 -2.24237 0
M  V30 10813 C 685.156 0.367808 -2.9169 0
M  V30 10814 N 685.106 1.53426 -2.29427 0
M  V30 10815 C 685.306 0.319148 -4.33828 0
M  V30 10816 C 685.356 -0.920672 -4.90433 0
M  V30 10817 H 688.096 -3.41209 -7.98667 0
M  V30 10818 H 688.366 -2.5837 -6.41742 0
M  V30 10819 H 687.499 -5.02718 -6.42752 0
M  V30 10820 H 684.844 -4.11779 -4.09026 0
M  V30 10821 H 684.564 -2.49661 -6.61772 0
M  V30 10822 H 683.573 -3.86674 -6.00946 0
M  V30 10823 H 685.407 -4.29991 -7.97006 0
M  V30 10824 H 685.479 -1.00589 -5.98303 0
M  V30 10825 H 685.377 1.22639 -4.93799 0
M  V30 10826 H 684.989 1.56819 -1.27167 0
M  V30 10827 H 685.185 2.41062 -2.83063 0
M  V30 10828 P 683.536 -6.144 -6.45285 0
M  V30 10829 O 683.316 -7.54673 -6.86199 0
M  V30 10830 O 682.746 -5.12391 -7.179 0
M  V30 10831 O 683.286 -5.99158 -4.88404 0
M  V30 10832 C 684.226 -6.60234 -3.96415 0
M  V30 10833 C 683.496 -7.08259 -2.72856 0
M  V30 10834 O 683.286 -5.9427 -1.83651 0
M  V30 10835 C 682.096 -7.64886 -2.9555 0
M  V30 10836 O 681.706 -8.53963 -1.90717 0
M  V30 10837 C 681.216 -6.4116 -2.90739 0
M  V30 10838 C 681.926 -5.55375 -1.86963 0
M  V30 10839 N 681.876 -4.09664 -2.15742 0
M  V30 10840 H 684.715 -7.45574 -4.45629 0
M  V30 10841 H 684.987 -5.86232 -3.67314 0
M  V30 10842 H 684.119 -7.84412 -2.24479 0
M  V30 10843 P 680.156 -8.7635 -1.60911 0
M  V30 10844 O 679.936 -10.1388 -1.11561 0
M  V30 10845 O 679.366 -8.36503 -2.79617 0
M  V30 10846 O 679.906 -7.71806 -0.42951 0
M  V30 10847 C 680.846 -7.67148 0.673689 0
M  V30 10848 C 680.116 -7.33374 1.95559 0
M  V30 10849 O 679.906 -5.88721 2.00726 0
M  V30 10850 C 678.716 -7.92526 2.10483 0
M  V30 10851 O 678.326 -8.02971 3.47653 0
M  V30 10852 C 677.836 -6.89602 1.41652 0
M  V30 10853 C 678.546 -5.59201 1.75185 0
M  V30 10854 N 678.496 -4.58235 0.662552 0
M  V30 10855 C 678.576 -4.7683 -0.704049 0
M  V30 10856 N 678.496 -3.66233 -1.39775 0
M  V30 10857 C 678.356 -2.66526 -0.431739 0
M  V30 10858 C 678.226 -1.26394 -0.575992 0
M  V30 10859 N 678.106 -0.62859 0.67177 0
M  V30 10860 C 678.106 -1.27134 1.89385 0
M  V30 10861 N 677.976 -0.492035 2.96951 0
M  V30 10862 N 678.236 -2.58978 2.02907 0
M  V30 10863 C 678.356 -3.22433 0.832218 0
M  V30 10864 H 681.335 -8.65116 0.777161 0
M  V30 10865 H 681.607 -6.90173 0.474152 0
M  V30 10866 H 680.739 -7.66548 2.79458 0
M  V30 10867 P 676.776 -8.03563 3.84925 0
M  V30 10868 O 676.556 -8.85821 5.0569 0
M  V30 10869 O 675.986 -8.41101 2.65469 0
M  V30 10870 O 676.526 -6.4965 4.18908 0
M  V30 10871 C 677.466 -5.81037 5.05421 0
M  V30 10872 C 676.736 -4.78366 5.89277 0
M  V30 10873 O 676.526 -3.58302 5.08433 0
M  V30 10874 C 675.336 -5.17448 6.36119 0
M  V30 10875 O 674.946 -4.45271 7.53232 0
M  V30 10876 C 674.456 -4.74639 5.19936 0
M  V30 10877 C 675.166 -3.49432 4.70418 0
M  V30 10878 N 675.116 -3.31776 3.22945 0
M  V30 10879 H 677.955 -6.54213 5.71376 0
M  V30 10880 H 678.227 -5.30492 4.44033 0
M  V30 10881 H 677.359 -4.55889 6.76652 0
M  V30 10882 P 673.396 -4.23843 7.83734 0
M  V30 10883 O 673.176 -4.19407 9.29784 0
M  V30 10884 O 672.606 -5.24426 7.09156 0
M  V30 10885 O 673.146 -2.7935 7.20758 0
M  V30 10886 C 674.086 -1.72945 7.50224 0
M  V30 10887 C 673.356 -0.406376 7.57911 0
M  V30 10888 O 673.146 0.0897726 6.21935 0
M  V30 10889 C 671.956 -0.438983 8.18724 0
M  V30 10890 O 671.566 0.825065 8.71101 0
M  V30 10891 C 671.076 -0.783689 6.99524 0
M  V30 10892 C 671.786 -0.0619086 5.85867 0
M  V30 10893 N 671.736 -0.78573 4.56183 0
M  V30 10894 C 671.586 -0.0292889 3.41887 0
M  V30 10895 O 671.496 1.18445 3.4419 0
M  V30 10896 N 671.546 -0.744061 2.23964 0
M  V30 10897 C 671.636 -2.10932 2.10362 0
M  V30 10898 C 671.786 -2.8202 3.34994 0
M  V30 10899 C 671.836 -2.15547 4.52261 0
M  V30 10900 H 674.577 -1.93379 8.46595 0
M  V30 10901 H 674.846 -1.68132 6.70852 0
M  V30 10902 H 673.979 0.289041 8.15388 0
M  V30 10903 H 671.324 0.926847 5.72749 0
M  V30 10904 H 671.045 -1.86973 6.82036 0
M  V30 10905 H 670.053 -0.403896 7.13257 0
M  V30 10906 H 671.887 -1.20585 8.97435 0
M  V30 10907 H 671.958 -2.71231 5.45042 0
M  V30 10908 P 670.016 1.17771 8.83182 0
M  V30 10909 O 669.796 2.07206 9.98732 0
M  V30 10910 O 669.226 -0.0743816 8.81969 0
M  V30 10911 O 669.766 1.97652 7.47304 0
M  V30 10912 C 670.706 3.01133 7.08783 0
M  V30 10913 C 669.976 4.12613 6.37049 0
M  V30 10914 O 669.766 3.72827 4.97879 0
M  V30 10915 C 668.576 4.45085 6.88694 0
M  V30 10916 O 668.186 5.7877 6.5624 0
M  V30 10917 C 667.696 3.47817 6.12078 0
M  V30 10918 C 668.406 3.39414 4.77697 0
M  V30 10919 N 668.356 2.04615 4.15333 0
M  V30 10920 H 671.195 3.41248 7.98759 0
M  V30 10921 H 671.467 2.5837 6.41742 0
M  V30 10922 H 670.599 5.02657 6.42673 0
M  V30 10923 P 666.636 6.144 6.45285 0
M  V30 10924 O 666.416 7.54673 6.86199 0
M  V30 10925 O 665.846 5.12391 7.179 0
M  V30 10926 O 666.386 5.99158 4.88404 0
M  V30 10927 C 667.326 6.60234 3.96415 0
M  V30 10928 C 666.596 7.08259 2.72856 0
M  V30 10929 O 666.386 5.9427 1.83651 0
M  V30 10930 C 665.196 7.64886 2.9555 0
M  V30 10931 O 664.806 8.53963 1.90717 0
M  V30 10932 C 664.316 6.4116 2.90739 0
M  V30 10933 C 665.026 5.55375 1.86963 0
M  V30 10934 N 664.976 4.09448 2.16152 0
M  V30 10935 H 667.815 7.45574 4.45629 0
M  V30 10936 H 668.087 5.85864 3.679 0
M  V30 10937 H 667.219 7.84412 2.24479 0
M  V30 10938 H 664.564 5.73457 0.888562 0
M  V30 10939 H 664.284 5.90877 3.88583 0
M  V30 10940 H 663.293 6.6596 2.58858 0
M  V30 10941 H 665.127 8.16339 3.92049 0
M  V30 10942 P 663.256 8.7635 1.60911 0
M  V30 10943 O 663.036 10.1388 1.11561 0
M  V30 10944 O 662.466 8.36503 2.79617 0
M  V30 10945 O 663.006 7.71806 0.42951 0
M  V30 10946 C 663.946 7.67148 -0.673689 0
M  V30 10947 C 663.216 7.33374 -1.95559 0
M  V30 10948 O 663.006 5.88721 -2.00726 0
M  V30 10949 C 661.816 7.92526 -2.10483 0
M  V30 10950 O 661.426 8.02971 -3.47653 0
M  V30 10951 C 660.936 6.89602 -1.41652 0
M  V30 10952 C 661.646 5.59201 -1.75185 0
M  V30 10953 N 661.596 4.58235 -0.662552 0
M  V30 10954 H 664.435 8.65116 -0.777161 0
M  V30 10955 H 664.707 6.90173 -0.474152 0
M  V30 10956 H 663.839 7.66548 -2.79458 0
M  V30 10957 P 659.876 8.03563 -3.84925 0
M  V30 10958 O 659.656 8.85821 -5.0569 0
M  V30 10959 O 659.086 8.41101 -2.65469 0
M  V30 10960 O 659.626 6.4965 -4.18908 0
M  V30 10961 C 660.566 5.81037 -5.05421 0
M  V30 10962 C 659.836 4.78366 -5.89277 0
M  V30 10963 O 659.626 3.58302 -5.08433 0
M  V30 10964 C 658.436 5.17448 -6.36119 0
M  V30 10965 O 658.046 4.45271 -7.53232 0
M  V30 10966 C 657.556 4.74639 -5.19936 0
M  V30 10967 C 658.266 3.49432 -4.70418 0
M  V30 10968 N 658.216 3.31776 -3.22945 0
M  V30 10969 H 661.055 6.54213 -5.71376 0
M  V30 10970 H 661.327 5.30492 -4.44033 0
M  V30 10971 H 660.459 4.55889 -6.76652 0
M  V30 10972 P 656.496 4.23843 -7.83734 0
M  V30 10973 O 656.276 4.19407 -9.29784 0
M  V30 10974 O 655.706 5.24426 -7.09156 0
M  V30 10975 O 656.246 2.7935 -7.20758 0
M  V30 10976 C 657.186 1.7299 -7.50419 0
M  V30 10977 C 656.456 0.406376 -7.57911 0
M  V30 10978 O 656.246 -0.0897726 -6.21935 0
M  V30 10979 C 655.056 0.447224 -8.1878 0
M  V30 10980 O 654.666 -0.825065 -8.71101 0
M  V30 10981 C 654.176 0.783801 -6.99623 0
M  V30 10982 C 654.886 0.0619192 -5.85967 0
M  V30 10983 N 654.836 0.7859 -4.56281 0
M  V30 10984 H 657.675 1.93423 -8.4679 0
M  V30 10985 H 657.947 1.68181 -6.71046 0
M  V30 10986 H 657.079 -0.289041 -8.15388 0
M  V30 10987 P 653.116 -1.17771 -8.83182 0
M  V30 10988 O 652.896 -2.07206 -9.98732 0
M  V30 10989 O 652.326 0.0743816 -8.81969 0
M  V30 10990 O 652.866 -1.97652 -7.47304 0
M  V30 10991 C 653.806 -3.01133 -7.08783 0
M  V30 10992 C 653.076 -4.12613 -6.37049 0
M  V30 10993 O 652.866 -3.72827 -4.97879 0
M  V30 10994 C 651.676 -4.45085 -6.88694 0
M  V30 10995 O 651.286 -5.7877 -6.5624 0
M  V30 10996 C 650.796 -3.47817 -6.12078 0
M  V30 10997 C 651.506 -3.39414 -4.77697 0
M  V30 10998 N 651.456 -2.04199 -4.15538 0
M  V30 10999 C 651.536 -0.821545 -4.76977 0
M  V30 11000 N 651.466 0.1794 -3.94592 0
M  V30 11001 C 651.316 -0.419121 -2.70776 0
M  V30 11002 C 651.186 0.109072 -1.40577 0
M  V30 11003 N 651.176 1.4104 -1.1344 0
M  V30 11004 N 651.066 -0.764381 -0.39411 0
M  V30 11005 C 651.076 -2.06587 -0.664135 0
M  V30 11006 N 651.196 -2.67948 -1.82153 0
M  V30 11007 C 651.316 -1.77942 -2.8147 0
M  V30 11008 H 654.295 -3.41248 -7.98759 0
M  V30 11009 H 654.567 -2.57728 -6.42 0
M  V30 11010 H 653.699 -5.02657 -6.42673 0
M  V30 11011 H 651.044 -4.11708 -4.08956 0
M  V30 11012 H 650.764 -2.49626 -6.61679 0
M  V30 11013 H 649.773 -3.8662 -6.00862 0
M  V30 11014 H 651.607 -4.29991 -7.97006 0
M  V30 11015 H 651.648 -0.702451 -5.84696 0
M  V30 11016 H 651.267 2.09647 -1.89651 0
M  V30 11017 H 651.078 1.73358 -0.160575 0
M  V30 11018 H 650.97 -2.71695 0.195838 0
M  V30 11019 P 649.736 -6.144 -6.45285 0
M  V30 11020 O 649.516 -7.54673 -6.86199 0
M  V30 11021 O 648.946 -5.12391 -7.179 0
M  V30 11022 O 649.486 -5.99158 -4.88404 0
M  V30 11023 C 650.426 -6.60234 -3.96415 0
M  V30 11024 C 649.696 -7.08259 -2.72856 0
M  V30 11025 O 649.486 -5.9427 -1.83651 0
M  V30 11026 C 648.296 -7.64886 -2.9555 0
M  V30 11027 O 647.906 -8.53963 -1.90717 0
M  V30 11028 C 647.416 -6.4116 -2.90739 0
M  V30 11029 C 648.126 -5.55375 -1.86963 0
M  V30 11030 N 648.076 -4.09448 -2.16152 0
M  V30 11031 H 650.915 -7.45574 -4.45629 0
M  V30 11032 H 651.187 -5.85864 -3.679 0
M  V30 11033 H 650.319 -7.84412 -2.24479 0
M  V30 11034 H 647.664 -5.73457 -0.888562 0
M  V30 11035 H 647.384 -5.90877 -3.88583 0
M  V30 11036 H 646.393 -6.6596 -2.58858 0
M  V30 11037 H 648.227 -8.16339 -3.92049 0
M  V30 11038 P 646.356 -8.7635 -1.60911 0
M  V30 11039 O 646.136 -10.1388 -1.11561 0
M  V30 11040 O 645.566 -8.36503 -2.79617 0
M  V30 11041 O 646.106 -7.71806 -0.42951 0
M  V30 11042 C 647.046 -7.67148 0.673689 0
M  V30 11043 C 646.316 -7.33374 1.95559 0
M  V30 11044 O 646.106 -5.88721 2.00726 0
M  V30 11045 C 644.916 -7.92526 2.10483 0
M  V30 11046 O 644.526 -8.02971 3.47653 0
M  V30 11047 C 644.036 -6.89602 1.41652 0
M  V30 11048 C 644.746 -5.59201 1.75185 0
M  V30 11049 N 644.696 -4.58235 0.662552 0
M  V30 11050 H 647.535 -8.65116 0.777161 0
M  V30 11051 H 647.807 -6.90173 0.474152 0
M  V30 11052 H 646.939 -7.66548 2.79458 0
M  V30 11053 P 642.976 -8.03563 3.84925 0
M  V30 11054 O 642.756 -8.85821 5.0569 0
M  V30 11055 O 642.186 -8.41101 2.65469 0
M  V30 11056 O 642.726 -6.4965 4.18908 0
M  V30 11057 C 643.666 -5.81037 5.05421 0
M  V30 11058 C 642.936 -4.78366 5.89277 0
M  V30 11059 O 642.726 -3.58302 5.08433 0
M  V30 11060 C 641.536 -5.17448 6.36119 0
M  V30 11061 O 641.146 -4.45271 7.53232 0
M  V30 11062 C 640.656 -4.74639 5.19936 0
M  V30 11063 C 641.366 -3.49432 4.70418 0
M  V30 11064 N 641.316 -3.32099 3.22613 0
M  V30 11065 H 644.155 -6.54213 5.71376 0
M  V30 11066 H 644.427 -5.30936 4.43503 0
M  V30 11067 H 643.559 -4.55889 6.76652 0
M  V30 11068 H 640.904 -2.61715 5.17932 0
M  V30 11069 H 640.624 -5.52155 4.41878 0
M  V30 11070 H 639.633 -4.51981 5.53374 0
M  V30 11071 H 641.467 -6.25124 6.55234 0
M  V30 11072 P 639.596 -4.23843 7.83734 0
M  V30 11073 O 639.376 -4.19407 9.29784 0
M  V30 11074 O 638.806 -5.24426 7.09156 0
M  V30 11075 O 639.346 -2.7935 7.20758 0
M  V30 11076 C 640.286 -1.7299 7.50419 0
M  V30 11077 C 639.556 -0.406376 7.57911 0
M  V30 11078 O 639.346 0.0897726 6.21935 0
M  V30 11079 C 638.156 -0.447224 8.1878 0
M  V30 11080 O 637.766 0.825065 8.71101 0
M  V30 11081 C 637.276 -0.783801 6.99623 0
M  V30 11082 C 637.986 -0.0619192 5.85967 0
M  V30 11083 N 637.936 -0.7859 4.56281 0
M  V30 11084 H 640.775 -1.93423 8.4679 0
M  V30 11085 H 641.047 -1.68181 6.71046 0
M  V30 11086 H 640.179 0.289041 8.15388 0
M  V30 11087 P 636.216 1.17771 8.83182 0
M  V30 11088 O 635.996 2.07206 9.98732 0
M  V30 11089 O 635.426 -0.0743816 8.81969 0
M  V30 11090 O 635.966 1.97678 7.474 0
M  V30 11091 C 636.906 3.01133 7.08783 0
M  V30 11092 C 636.176 4.1203 6.37546 0
M  V30 11093 O 635.966 3.72887 4.9796 0
M  V30 11094 C 634.776 4.45085 6.88694 0
M  V30 11095 O 634.386 5.78836 6.56315 0
M  V30 11096 C 633.896 3.47817 6.12078 0
M  V30 11097 C 634.606 3.39414 4.77697 0
M  V30 11098 N 634.556 2.04615 4.15333 0
M  V30 11099 C 634.406 1.96929 2.77162 0
M  V30 11100 O 634.316 3.02017 2.12006 0
M  V30 11101 N 634.356 0.55485 2.24237 0
M  V30 11102 C 634.456 -0.367808 2.9169 0
M  V30 11103 N 634.406 -1.53426 2.29427 0
M  V30 11104 C 634.606 -0.319148 4.33828 0
M  V30 11105 C 634.656 0.920672 4.90433 0
M  V30 11106 H 637.396 3.41209 7.98667 0
M  V30 11107 H 637.666 2.5837 6.41742 0
M  V30 11108 H 636.799 5.02718 6.42752 0
M  V30 11109 H 634.144 4.11779 4.09026 0
M  V30 11110 H 633.864 2.49661 6.61772 0
M  V30 11111 H 632.873 3.86674 6.00946 0
M  V30 11112 H 634.707 4.29991 7.97006 0
M  V30 11113 H 634.779 1.00589 5.98303 0
M  V30 11114 H 634.677 -1.22639 4.93799 0
M  V30 11115 H 634.289 -1.56819 1.27167 0
M  V30 11116 H 634.485 -2.41062 2.83063 0
M  V30 11117 P 632.836 6.144 6.45285 0
M  V30 11118 O 632.616 7.54673 6.86199 0
M  V30 11119 O 632.046 5.12391 7.179 0
M  V30 11120 O 632.586 5.99236 4.88467 0
M  V30 11121 C 633.526 6.60234 3.96415 0
M  V30 11122 C 632.796 7.08079 2.736 0
M  V30 11123 O 632.586 5.94365 1.8368 0
M  V30 11124 C 631.396 7.64886 2.9555 0
M  V30 11125 O 631.006 8.5406 1.90739 0
M  V30 11126 C 630.516 6.4116 2.90739 0
M  V30 11127 C 631.226 5.55375 1.86963 0
M  V30 11128 N 631.176 4.09664 2.15742 0
M  V30 11129 C 631.026 3.22231 1.08477 0
M  V30 11130 O 630.936 3.68951 -0.0600489 0
M  V30 11131 N 630.976 1.76692 1.48799 0
M  V30 11132 C 631.076 1.41695 2.57602 0
M  V30 11133 N 631.026 0.107296 2.75791 0
M  V30 11134 C 631.226 2.29178 3.69733 0
M  V30 11135 C 631.276 3.62753 3.42653 0
M  V30 11136 H 634.016 7.45488 4.45578 0
M  V30 11137 H 634.286 5.86232 3.67314 0
M  V30 11138 H 633.419 7.84508 2.24507 0
M  V30 11139 H 630.764 5.73556 0.888715 0
M  V30 11140 H 630.484 5.9096 3.88638 0
M  V30 11141 H 629.493 6.66053 2.58894 0
M  V30 11142 H 631.327 8.16339 3.92049 0
M  V30 11143 H 631.399 4.33052 4.24913 0
M  V30 11144 H 631.297 1.9103 4.71577 0
M  V30 11145 H 630.909 -0.521221 1.95056 0
M  V30 11146 H 631.105 -0.286429 3.70695 0
M  V30 11147 P 629.456 8.7635 1.60911 0
M  V30 11148 O 629.236 10.1388 1.11561 0
M  V30 11149 O 628.666 8.36503 2.79617 0
M  V30 11150 O 629.206 7.71806 0.42951 0
M  V30 11151 C 630.146 7.67148 -0.673689 0
M  V30 11152 C 629.416 7.33374 -1.95559 0
M  V30 11153 O 629.206 5.88721 -2.00726 0
M  V30 11154 C 628.016 7.92526 -2.10483 0
M  V30 11155 O 627.626 8.02971 -3.47653 0
M  V30 11156 C 627.136 6.89602 -1.41652 0
M  V30 11157 C 627.846 5.59201 -1.75185 0
M  V30 11158 N 627.796 4.58235 -0.662552 0
M  V30 11159 H 630.635 8.65116 -0.777161 0
M  V30 11160 H 630.907 6.90173 -0.474152 0
M  V30 11161 H 630.039 7.66548 -2.79458 0
M  V30 11162 P 626.076 8.03563 -3.84925 0
M  V30 11163 O 625.856 8.85821 -5.0569 0
M  V30 11164 O 625.286 8.41101 -2.65469 0
M  V30 11165 O 625.826 6.4965 -4.18908 0
M  V30 11166 C 626.766 5.81037 -5.05421 0
M  V30 11167 C 626.036 4.78366 -5.89277 0
M  V30 11168 O 625.826 3.58302 -5.08433 0
M  V30 11169 C 624.636 5.17448 -6.36119 0
M  V30 11170 O 624.246 4.45271 -7.53232 0
M  V30 11171 C 623.756 4.74639 -5.19936 0
M  V30 11172 C 624.466 3.49432 -4.70418 0
M  V30 11173 N 624.416 3.31776 -3.22945 0
M  V30 11174 H 627.255 6.54213 -5.71376 0
M  V30 11175 H 627.527 5.30492 -4.44033 0
M  V30 11176 H 626.659 4.55889 -6.76652 0
M  V30 11177 P 622.696 4.23843 -7.83734 0
M  V30 11178 O 622.476 4.19407 -9.29784 0
M  V30 11179 O 621.906 5.24426 -7.09156 0
M  V30 11180 O 622.446 2.7935 -7.20758 0
M  V30 11181 C 623.386 1.7299 -7.50419 0
M  V30 11182 C 622.656 0.406376 -7.57911 0
M  V30 11183 O 622.446 -0.0897726 -6.21935 0
M  V30 11184 C 621.256 0.447224 -8.1878 0
M  V30 11185 O 620.866 -0.825065 -8.71101 0
M  V30 11186 C 620.376 0.783801 -6.99623 0
M  V30 11187 C 621.086 0.0619192 -5.85967 0
M  V30 11188 N 621.036 0.7859 -4.56281 0
M  V30 11189 H 623.875 1.93423 -8.4679 0
M  V30 11190 H 624.147 1.68181 -6.71046 0
M  V30 11191 H 623.279 -0.289041 -8.15388 0
M  V30 11192 P 619.316 -1.17771 -8.83182 0
M  V30 11193 O 619.096 -2.07206 -9.98732 0
M  V30 11194 O 618.526 0.0743816 -8.81969 0
M  V30 11195 O 619.066 -1.97652 -7.47304 0
M  V30 11196 C 620.006 -3.01133 -7.08783 0
M  V30 11197 C 619.276 -4.12613 -6.37049 0
M  V30 11198 O 619.066 -3.72827 -4.97879 0
M  V30 11199 C 617.876 -4.45085 -6.88694 0
M  V30 11200 O 617.486 -5.7877 -6.5624 0
M  V30 11201 C 616.996 -3.47817 -6.12078 0
M  V30 11202 C 617.706 -3.39414 -4.77697 0
M  V30 11203 N 617.656 -2.04199 -4.15538 0
M  V30 11204 H 620.495 -3.41248 -7.98759 0
M  V30 11205 H 620.767 -2.57728 -6.42 0
M  V30 11206 H 619.899 -5.02657 -6.42673 0
M  V30 11207 H 617.244 -4.11708 -4.08956 0
M  V30 11208 H 616.964 -2.49626 -6.61679 0
M  V30 11209 H 615.973 -3.8662 -6.00862 0
M  V30 11210 H 617.807 -4.29991 -7.97006 0
M  V30 11211 P 615.936 -6.144 -6.45285 0
M  V30 11212 O 615.716 -7.54673 -6.86199 0
M  V30 11213 O 615.146 -5.12391 -7.179 0
M  V30 11214 O 615.686 -5.99158 -4.88404 0
M  V30 11215 C 616.626 -6.60234 -3.96415 0
M  V30 11216 C 615.896 -7.08259 -2.72856 0
M  V30 11217 O 615.686 -5.9427 -1.83651 0
M  V30 11218 C 614.496 -7.64886 -2.9555 0
M  V30 11219 O 614.106 -8.53963 -1.90717 0
M  V30 11220 C 613.616 -6.4116 -2.90739 0
M  V30 11221 C 614.326 -5.55375 -1.86963 0
M  V30 11222 N 614.276 -4.09448 -2.16152 0
M  V30 11223 H 617.115 -7.45574 -4.45629 0
M  V30 11224 H 617.387 -5.85864 -3.679 0
M  V30 11225 H 616.519 -7.84412 -2.24479 0
M  V30 11226 H 613.864 -5.73457 -0.888562 0
M  V30 11227 H 613.584 -5.90877 -3.88583 0
M  V30 11228 H 612.593 -6.6596 -2.58858 0
M  V30 11229 H 614.427 -8.16339 -3.92049 0
M  V30 11230 P 612.556 -8.7635 -1.60911 0
M  V30 11231 O 612.336 -10.1388 -1.11561 0
M  V30 11232 O 611.766 -8.36503 -2.79617 0
M  V30 11233 O 612.306 -7.71806 -0.42951 0
M  V30 11234 C 613.246 -7.67148 0.673689 0
M  V30 11235 C 612.516 -7.33374 1.95559 0
M  V30 11236 O 612.306 -5.88721 2.00726 0
M  V30 11237 C 611.116 -7.92526 2.10483 0
M  V30 11238 O 610.726 -8.02971 3.47653 0
M  V30 11239 C 610.236 -6.89602 1.41652 0
M  V30 11240 C 610.946 -5.59201 1.75185 0
M  V30 11241 N 610.896 -4.58235 0.662552 0
M  V30 11242 H 613.735 -8.65116 0.777161 0
M  V30 11243 H 614.007 -6.90173 0.474152 0
M  V30 11244 H 613.139 -7.66548 2.79458 0
M  V30 11245 P 609.176 -8.03563 3.84925 0
M  V30 11246 O 608.956 -8.85821 5.0569 0
M  V30 11247 O 608.386 -8.41101 2.65469 0
M  V30 11248 O 608.926 -6.4965 4.18908 0
M  V30 11249 C 609.866 -5.81037 5.05421 0
M  V30 11250 C 609.136 -4.78366 5.89277 0
M  V30 11251 O 608.926 -3.58302 5.08433 0
M  V30 11252 C 607.736 -5.17448 6.36119 0
M  V30 11253 O 607.346 -4.45271 7.53232 0
M  V30 11254 C 606.856 -4.74639 5.19936 0
M  V30 11255 C 607.566 -3.49432 4.70418 0
M  V30 11256 N 607.516 -3.31776 3.22945 0
M  V30 11257 H 610.355 -6.54213 5.71376 0
M  V30 11258 H 610.627 -5.30492 4.44033 0
M  V30 11259 H 609.759 -4.55889 6.76652 0
M  V30 11260 P 605.796 -4.23843 7.83734 0
M  V30 11261 O 605.576 -4.19407 9.29784 0
M  V30 11262 O 605.006 -5.24426 7.09156 0
M  V30 11263 O 605.546 -2.7935 7.20758 0
M  V30 11264 C 606.486 -1.7299 7.50419 0
M  V30 11265 C 605.756 -0.406376 7.57911 0
M  V30 11266 O 605.546 0.0897726 6.21935 0
M  V30 11267 C 604.356 -0.447224 8.1878 0
M  V30 11268 O 603.966 0.825065 8.71101 0
M  V30 11269 C 603.476 -0.783801 6.99623 0
M  V30 11270 C 604.186 -0.0619192 5.85967 0
M  V30 11271 N 604.136 -0.7859 4.56281 0
M  V30 11272 H 606.975 -1.93423 8.4679 0
M  V30 11273 H 607.247 -1.68181 6.71046 0
M  V30 11274 H 606.379 0.289041 8.15388 0
M  V30 11275 P 602.416 1.17771 8.83182 0
M  V30 11276 O 602.196 2.07206 9.98732 0
M  V30 11277 O 601.626 -0.0743816 8.81969 0
M  V30 11278 O 602.166 1.97652 7.47304 0
M  V30 11279 C 603.106 3.01133 7.08783 0
M  V30 11280 C 602.376 4.12613 6.37049 0
M  V30 11281 O 602.166 3.72827 4.97879 0
M  V30 11282 C 600.976 4.45085 6.88694 0
M  V30 11283 O 600.586 5.7877 6.5624 0
M  V30 11284 C 600.096 3.47817 6.12078 0
M  V30 11285 C 600.806 3.39414 4.77697 0
M  V30 11286 N 600.756 2.04199 4.15538 0
M  V30 11287 H 603.595 3.41248 7.98759 0
M  V30 11288 H 603.867 2.57728 6.42 0
M  V30 11289 H 602.999 5.02657 6.42673 0
M  V30 11290 H 600.344 4.11708 4.08956 0
M  V30 11291 H 600.064 2.49626 6.61679 0
M  V30 11292 H 599.073 3.8662 6.00862 0
M  V30 11293 H 600.907 4.29991 7.97006 0
M  V30 11294 P 599.036 6.144 6.45285 0
M  V30 11295 O 598.816 7.54673 6.86199 0
M  V30 11296 O 598.246 5.12391 7.179 0
M  V30 11297 O 598.786 5.99158 4.88404 0
M  V30 11298 C 599.726 6.60234 3.96415 0
M  V30 11299 C 598.996 7.08259 2.72856 0
M  V30 11300 O 598.786 5.9427 1.83651 0
M  V30 11301 C 597.596 7.64886 2.9555 0
M  V30 11302 O 597.206 8.53963 1.90717 0
M  V30 11303 C 596.716 6.4116 2.90739 0
M  V30 11304 C 597.426 5.55375 1.86963 0
M  V30 11305 N 597.376 4.09448 2.16152 0
M  V30 11306 C 597.456 3.46824 3.37593 0
M  V30 11307 N 597.386 2.17422 3.29777 0
M  V30 11308 C 597.236 1.93065 1.94427 0
M  V30 11309 C 597.106 0.738053 1.20141 0
M  V30 11310 N 597.096 -0.474256 1.74676 0
M  V30 11311 N 596.986 0.850049 -0.13045 0
M  V30 11312 C 596.996 2.06169 -0.676992 0
M  V30 11313 N 597.116 3.23842 -0.101312 0
M  V30 11314 C 597.236 3.09402 1.23122 0
M  V30 11315 H 600.215 7.45574 4.45629 0
M  V30 11316 H 600.487 5.85864 3.679 0
M  V30 11317 H 599.619 7.84412 2.24479 0
M  V30 11318 H 596.964 5.73457 0.888562 0
M  V30 11319 H 596.684 5.90877 3.88583 0
M  V30 11320 H 595.693 6.6596 2.58858 0
M  V30 11321 H 597.527 8.16339 3.92049 0
M  V30 11322 H 597.568 4.00505 4.3174 0
M  V30 11323 H 597.187 -0.581337 2.76658 0
M  V30 11324 H 596.998 -1.30811 1.14888 0
M  V30 11325 H 596.89 2.08295 -1.75542 0
M  V30 11326 P 595.656 8.7635 1.60911 0
M  V30 11327 O 595.437 10.1388 1.11561 0
M  V30 11328 O 594.866 8.36503 2.79617 0
M  V30 11329 O 595.406 7.71806 0.42951 0
M  V30 11330 C 596.346 7.67148 -0.673689 0
M  V30 11331 C 595.616 7.33374 -1.95559 0
M  V30 11332 O 595.406 5.88721 -2.00726 0
M  V30 11333 C 594.216 7.92526 -2.10483 0
M  V30 11334 O 593.827 8.02971 -3.47653 0
M  V30 11335 C 593.337 6.89602 -1.41652 0
M  V30 11336 C 594.046 5.59201 -1.75185 0
M  V30 11337 N 593.996 4.58301 -0.657969 0
M  V30 11338 H 596.836 8.65116 -0.777161 0
M  V30 11339 H 597.107 6.9022 -0.46725 0
M  V30 11340 H 596.24 7.66548 -2.79458 0
M  V30 11341 H 593.584 5.16165 -2.65183 0
M  V30 11342 H 593.304 7.06433 -0.329384 0
M  V30 11343 H 592.313 6.90926 -1.82021 0
M  V30 11344 H 594.147 8.90873 -1.62657 0
M  V30 11345 P 592.277 8.03563 -3.84925 0
M  V30 11346 O 592.057 8.85821 -5.0569 0
M  V30 11347 O 591.487 8.41101 -2.65469 0
M  V30 11348 O 592.027 6.4965 -4.18908 0
M  V30 11349 C 592.967 5.81037 -5.05421 0
M  V30 11350 C 592.237 4.78366 -5.89277 0
M  V30 11351 O 592.027 3.58302 -5.08433 0
M  V30 11352 C 590.837 5.17448 -6.36119 0
M  V30 11353 O 590.447 4.45271 -7.53232 0
M  V30 11354 C 589.957 4.74639 -5.19936 0
M  V30 11355 C 590.667 3.49432 -4.70418 0
M  V30 11356 N 590.617 3.31776 -3.22945 0
M  V30 11357 H 593.456 6.54213 -5.71376 0
M  V30 11358 H 593.728 5.30492 -4.44033 0
M  V30 11359 H 592.86 4.55889 -6.76652 0
M  V30 11360 P 588.897 4.23843 -7.83734 0
M  V30 11361 O 588.677 4.19407 -9.29784 0
M  V30 11362 O 588.107 5.24426 -7.09156 0
M  V30 11363 O 588.647 2.7935 -7.20758 0
M  V30 11364 C 589.587 1.72945 -7.50224 0
M  V30 11365 C 588.857 0.406376 -7.57911 0
M  V30 11366 O 588.647 -0.0897726 -6.21935 0
M  V30 11367 C 587.457 0.438983 -8.18724 0
M  V30 11368 O 587.067 -0.825065 -8.71101 0
M  V30 11369 C 586.577 0.783689 -6.99524 0
M  V30 11370 C 587.287 0.0619086 -5.85867 0
M  V30 11371 N 587.237 0.78573 -4.56183 0
M  V30 11372 C 587.087 0.0292889 -3.41887 0
M  V30 11373 O 586.997 -1.18445 -3.4419 0
M  V30 11374 N 587.047 0.744061 -2.23964 0
M  V30 11375 C 587.137 2.10932 -2.10362 0
M  V30 11376 O 587.087 2.64117 -0.98825 0
M  V30 11377 C 587.287 2.8202 -3.34994 0
M  V30 11378 C 587.397 4.31095 -3.25037 0
M  V30 11379 C 587.337 2.15547 -4.52261 0
M  V30 11380 H 590.078 1.93379 -8.46595 0
M  V30 11381 H 590.347 1.68132 -6.70852 0
M  V30 11382 H 589.48 -0.289041 -8.15388 0
M  V30 11383 H 586.825 -0.926847 -5.72749 0
M  V30 11384 H 586.546 1.86973 -6.82036 0
M  V30 11385 H 585.554 0.403896 -7.13257 0
M  V30 11386 H 587.388 1.20585 -8.97435 0
M  V30 11387 H 587.459 2.71231 -5.45042 0
M  V30 11388 H 586.429 4.76966 -3.49992 0
M  V30 11389 H 588.166 4.67047 -3.95024 0
M  V30 11390 H 587.678 4.58996 -2.22312 0
M  V30 11391 H 586.942 0.214893 -1.39758 0
M  V30 11392 P 585.517 -1.17771 -8.83182 0
M  V30 11393 O 585.297 -2.07206 -9.98732 0
M  V30 11394 O 584.727 0.0743816 -8.81969 0
M  V30 11395 O 585.267 -1.97652 -7.47304 0
M  V30 11396 C 586.207 -3.01133 -7.08783 0
M  V30 11397 C 585.477 -4.12613 -6.37049 0
M  V30 11398 O 585.267 -3.72827 -4.97879 0
M  V30 11399 C 584.077 -4.45085 -6.88694 0
M  V30 11400 O 583.687 -5.7877 -6.5624 0
M  V30 11401 C 583.197 -3.47817 -6.12078 0
M  V30 11402 C 583.907 -3.39414 -4.77697 0
M  V30 11403 N 583.857 -2.04199 -4.15538 0
M  V30 11404 H 586.696 -3.41248 -7.98759 0
M  V30 11405 H 586.968 -2.57728 -6.42 0
M  V30 11406 H 586.1 -5.02657 -6.42673 0
M  V30 11407 H 583.445 -4.11708 -4.08956 0
M  V30 11408 H 583.165 -2.49626 -6.61679 0
M  V30 11409 H 582.174 -3.8662 -6.00862 0
M  V30 11410 H 584.008 -4.29991 -7.97006 0
M  V30 11411 P 582.137 -6.144 -6.45285 0
M  V30 11412 O 581.917 -7.54673 -6.86199 0
M  V30 11413 O 581.347 -5.12391 -7.179 0
M  V30 11414 O 581.887 -5.99158 -4.88404 0
M  V30 11415 C 582.827 -6.60062 -3.96313 0
M  V30 11416 C 582.097 -7.08259 -2.72856 0
M  V30 11417 O 581.887 -5.9427 -1.83651 0
M  V30 11418 C 580.697 -7.65087 -2.94749 0
M  V30 11419 O 580.307 -8.53963 -1.90717 0
M  V30 11420 C 579.817 -6.41069 -2.90698 0
M  V30 11421 C 580.527 -5.5528 -1.86931 0
M  V30 11422 N 580.477 -4.09575 -2.15696 0
M  V30 11423 C 580.327 -3.24249 -1.08435 0
M  V30 11424 O 580.237 -3.63946 0.0628747 0
M  V30 11425 N 580.287 -1.90009 -1.39973 0
M  V30 11426 C 580.377 -1.34884 -2.65614 0
M  V30 11427 O 580.327 -0.123716 -2.81728 0
M  V30 11428 C 580.527 -2.3145 -3.71736 0
M  V30 11429 C 580.637 -1.75913 -5.10438 0
M  V30 11430 C 580.577 -3.63518 -3.44754 0
M  V30 11431 H 583.318 -7.45402 -4.45526 0
M  V30 11432 H 583.587 -5.86062 -3.67208 0
M  V30 11433 H 582.72 -7.84412 -2.24479 0
M  V30 11434 H 580.065 -5.73358 -0.888409 0
M  V30 11435 H 579.786 -5.90877 -3.88583 0
M  V30 11436 H 578.794 -6.65867 -2.58821 0
M  V30 11437 H 580.628 -8.16248 -3.92006 0
M  V30 11438 H 580.699 -4.34551 -4.26383 0
M  V30 11439 H 579.669 -1.85471 -5.61775 0
M  V30 11440 H 581.406 -2.31364 -5.66257 0
M  V30 11441 H 580.918 -0.695936 -5.05229 0
M  V30 11442 H 580.182 -1.26277 -0.63625 0
M  V30 11443 P 578.757 -8.7635 -1.60911 0
M  V30 11444 O 578.537 -10.1388 -1.11561 0
M  V30 11445 O 577.967 -8.36503 -2.79617 0
M  V30 11446 O 578.507 -7.71806 -0.42951 0
M  V30 11447 C 579.447 -7.66948 0.673514 0
M  V30 11448 C 578.717 -7.33374 1.95559 0
M  V30 11449 O 578.507 -5.88721 2.00726 0
M  V30 11450 C 577.317 -7.92218 2.1125 0
M  V30 11451 O 576.927 -8.02971 3.47653 0
M  V30 11452 C 576.437 -6.89504 1.41631 0
M  V30 11453 C 577.147 -5.59106 1.75155 0
M  V30 11454 N 577.097 -4.58136 0.662409 0
M  V30 11455 C 576.947 -3.26059 1.02863 0
M  V30 11456 O 576.857 -2.90743 2.19009 0
M  V30 11457 N 576.907 -2.35995 -0.0155585 0
M  V30 11458 C 576.997 -2.65248 -1.35603 0
M  V30 11459 C 577.147 -4.05747 -1.64698 0
M  V30 11460 C 577.197 -4.96734 -0.652411 0
M  V30 11461 H 579.938 -8.64917 0.776982 0
M  V30 11462 H 580.207 -6.89974 0.474015 0
M  V30 11463 H 579.34 -7.66548 2.79458 0
M  V30 11464 H 576.685 -5.16076 2.65138 0
M  V30 11465 H 576.406 -7.06433 0.329384 0
M  V30 11466 H 575.414 -6.90829 1.81996 0
M  V30 11467 H 577.248 -8.90774 1.62639 0
M  V30 11468 H 577.319 -6.02181 -0.895285 0
M  V30 11469 P 575.377 -8.03563 3.84925 0
M  V30 11470 O 575.157 -8.85821 5.0569 0
M  V30 11471 O 574.587 -8.41101 2.65469 0
M  V30 11472 O 575.127 -6.4965 4.18908 0
M  V30 11473 C 576.067 -5.81037 5.05421 0
M  V30 11474 C 575.337 -4.78366 5.89277 0
M  V30 11475 O 575.127 -3.58302 5.08433 0
M  V30 11476 C 573.937 -5.17448 6.36119 0
M  V30 11477 O 573.547 -4.45271 7.53232 0
M  V30 11478 C 573.057 -4.74639 5.19936 0
M  V30 11479 C 573.767 -3.49432 4.70418 0
M  V30 11480 N 573.717 -3.32099 3.22613 0
M  V30 11481 H 576.556 -6.54213 5.71376 0
M  V30 11482 H 576.828 -5.30936 4.43503 0
M  V30 11483 H 575.96 -4.55889 6.76652 0
M  V30 11484 H 573.305 -2.61715 5.17932 0
M  V30 11485 H 573.025 -5.52155 4.41878 0
M  V30 11486 H 572.034 -4.51981 5.53374 0
M  V30 11487 H 573.868 -6.25124 6.55234 0
M  V30 11488 P 571.997 -4.23843 7.83734 0
M  V30 11489 O 571.777 -4.19407 9.29784 0
M  V30 11490 O 571.207 -5.24426 7.09156 0
M  V30 11491 O 571.747 -2.7935 7.20758 0
M  V30 11492 C 572.687 -1.7299 7.50419 0
M  V30 11493 C 571.957 -0.406376 7.57911 0
M  V30 11494 O 571.747 0.0897726 6.21935 0
M  V30 11495 C 570.557 -0.447224 8.1878 0
M  V30 11496 O 570.167 0.825065 8.71101 0
M  V30 11497 C 569.677 -0.783801 6.99623 0
M  V30 11498 C 570.387 -0.0619192 5.85967 0
M  V30 11499 N 570.337 -0.7859 4.56281 0
M  V30 11500 H 573.176 -1.93423 8.4679 0
M  V30 11501 H 573.448 -1.68181 6.71046 0
M  V30 11502 H 572.58 0.289041 8.15388 0
M  V30 11503 P 568.617 1.17771 8.83182 0
M  V30 11504 O 568.397 2.07206 9.98732 0
M  V30 11505 O 567.827 -0.0743816 8.81969 0
M  V30 11506 O 568.367 1.97652 7.47304 0
M  V30 11507 C 569.307 3.01133 7.08783 0
M  V30 11508 C 568.577 4.12613 6.37049 0
M  V30 11509 O 568.367 3.72827 4.97879 0
M  V30 11510 C 567.177 4.45085 6.88694 0
M  V30 11511 O 566.787 5.7877 6.5624 0
M  V30 11512 C 566.297 3.47817 6.12078 0
M  V30 11513 C 567.007 3.39414 4.77697 0
M  V30 11514 N 566.957 2.04199 4.15538 0
M  V30 11515 H 569.796 3.41248 7.98759 0
M  V30 11516 H 570.068 2.57728 6.42 0
M  V30 11517 H 569.2 5.02657 6.42673 0
M  V30 11518 H 566.545 4.11708 4.08956 0
M  V30 11519 H 566.265 2.49626 6.61679 0
M  V30 11520 H 565.274 3.8662 6.00862 0
M  V30 11521 H 567.108 4.29991 7.97006 0
M  V30 11522 P 565.237 6.144 6.45285 0
M  V30 11523 O 565.017 7.54673 6.86199 0
M  V30 11524 O 564.447 5.12391 7.179 0
M  V30 11525 O 564.987 5.99158 4.88404 0
M  V30 11526 C 565.927 6.60234 3.96415 0
M  V30 11527 C 565.197 7.08259 2.72856 0
M  V30 11528 O 564.987 5.9427 1.83651 0
M  V30 11529 C 563.797 7.64886 2.9555 0
M  V30 11530 O 563.407 8.53963 1.90717 0
M  V30 11531 C 562.917 6.4116 2.90739 0
M  V30 11532 C 563.627 5.55375 1.86963 0
M  V30 11533 N 563.577 4.09664 2.15742 0
M  V30 11534 H 566.416 7.45574 4.45629 0
M  V30 11535 H 566.688 5.86232 3.67314 0
M  V30 11536 H 565.82 7.84412 2.24479 0
M  V30 11537 P 561.857 8.7635 1.60911 0
M  V30 11538 O 561.637 10.1388 1.11561 0
M  V30 11539 O 561.067 8.36503 2.79617 0
M  V30 11540 O 561.607 7.71806 0.42951 0
M  V30 11541 C 562.547 7.67148 -0.673689 0
M  V30 11542 C 561.817 7.33374 -1.95559 0
M  V30 11543 O 561.607 5.88721 -2.00726 0
M  V30 11544 C 560.417 7.92526 -2.10483 0
M  V30 11545 O 560.027 8.02971 -3.47653 0
M  V30 11546 C 559.537 6.89602 -1.41652 0
M  V30 11547 C 560.247 5.59201 -1.75185 0
M  V30 11548 N 560.197 4.58235 -0.662552 0
M  V30 11549 H 563.036 8.65116 -0.777161 0
M  V30 11550 H 563.308 6.90173 -0.474152 0
M  V30 11551 H 562.44 7.66548 -2.79458 0
M  V30 11552 P 558.477 8.03563 -3.84925 0
M  V30 11553 O 558.257 8.85821 -5.0569 0
M  V30 11554 O 557.687 8.41101 -2.65469 0
M  V30 11555 O 558.227 6.4965 -4.18908 0
M  V30 11556 C 559.167 5.81037 -5.05421 0
M  V30 11557 C 558.437 4.78366 -5.89277 0
M  V30 11558 O 558.227 3.58302 -5.08433 0
M  V30 11559 C 557.037 5.17448 -6.36119 0
M  V30 11560 O 556.647 4.45271 -7.53232 0
M  V30 11561 C 556.157 4.74639 -5.19936 0
M  V30 11562 C 556.867 3.49432 -4.70418 0
M  V30 11563 N 556.817 3.32099 -3.22613 0
M  V30 11564 H 559.656 6.54213 -5.71376 0
M  V30 11565 H 559.928 5.30936 -4.43503 0
M  V30 11566 H 559.06 4.55889 -6.76652 0
M  V30 11567 H 556.405 2.61715 -5.17932 0
M  V30 11568 H 556.125 5.52155 -4.41878 0
M  V30 11569 H 555.134 4.51981 -5.53374 0
M  V30 11570 H 556.968 6.25124 -6.55234 0
M  V30 11571 P 555.097 4.23843 -7.83734 0
M  V30 11572 O 554.877 4.19407 -9.29784 0
M  V30 11573 O 554.307 5.24426 -7.09156 0
M  V30 11574 O 554.847 2.79386 -7.20852 0
M  V30 11575 C 555.787 1.7299 -7.50419 0
M  V30 11576 C 555.057 0.41401 -7.5797 0
M  V30 11577 O 554.847 -0.089787 -6.22035 0
M  V30 11578 C 553.657 0.447224 -8.1878 0
M  V30 11579 O 553.267 -0.825159 -8.71201 0
M  V30 11580 C 552.777 0.783801 -6.99623 0
M  V30 11581 C 553.487 0.0619192 -5.85967 0
M  V30 11582 N 553.437 0.7859 -4.56281 0
M  V30 11583 C 553.287 0.0359258 -3.39981 0
M  V30 11584 O 553.197 -1.19723 -3.49038 0
M  V30 11585 N 553.237 0.869151 -2.14025 0
M  V30 11586 C 553.337 2.01207 -2.14363 0
M  V30 11587 N 553.287 2.58978 -0.954287 0
M  V30 11588 C 553.487 2.80817 -3.32215 0
M  V30 11589 C 553.537 2.13785 -4.50884 0
M  V30 11590 H 556.277 1.93401 -8.46693 0
M  V30 11591 H 556.547 1.68181 -6.71046 0
M  V30 11592 H 555.68 -0.289076 -8.15488 0
M  V30 11593 H 553.025 -0.927166 -5.72947 0
M  V30 11594 H 552.745 1.87 -6.82132 0
M  V30 11595 H 551.754 0.404009 -7.13457 0
M  V30 11596 H 553.588 1.20599 -8.97534 0
M  V30 11597 H 553.66 2.70295 -5.43162 0
M  V30 11598 H 553.558 3.89465 -3.27406 0
M  V30 11599 H 553.17 2.01616 -0.107046 0
M  V30 11600 H 553.366 3.61403 -0.873101 0
M  V30 11601 P 551.717 -1.17771 -8.83182 0
M  V30 11602 O 551.497 -2.07206 -9.98732 0
M  V30 11603 O 550.927 0.0743816 -8.81969 0
M  V30 11604 O 551.467 -1.97652 -7.47304 0
M  V30 11605 C 552.407 -3.01133 -7.08783 0
M  V30 11606 C 551.677 -4.12613 -6.37049 0
M  V30 11607 O 551.467 -3.72827 -4.97879 0
M  V30 11608 C 550.277 -4.45085 -6.88694 0
M  V30 11609 O 549.887 -5.7877 -6.5624 0
M  V30 11610 C 549.397 -3.47817 -6.12078 0
M  V30 11611 C 550.107 -3.39414 -4.77697 0
M  V30 11612 N 550.057 -2.04615 -4.15333 0
M  V30 11613 H 552.896 -3.41248 -7.98759 0
M  V30 11614 H 553.168 -2.5837 -6.41742 0
M  V30 11615 H 552.3 -5.02657 -6.42673 0
M  V30 11616 P 548.337 -6.144 -6.45285 0
M  V30 11617 O 548.117 -7.54673 -6.86199 0
M  V30 11618 O 547.547 -5.12391 -7.179 0
M  V30 11619 O 548.087 -5.99158 -4.88404 0
M  V30 11620 C 549.027 -6.60234 -3.96415 0
M  V30 11621 C 548.297 -7.08259 -2.72856 0
M  V30 11622 O 548.087 -5.9427 -1.83651 0
M  V30 11623 C 546.897 -7.64886 -2.9555 0
M  V30 11624 O 546.507 -8.53963 -1.90717 0
M  V30 11625 C 546.017 -6.4116 -2.90739 0
M  V30 11626 C 546.727 -5.55375 -1.86963 0
M  V30 11627 N 546.677 -4.09664 -2.15742 0
M  V30 11628 H 549.516 -7.45574 -4.45629 0
M  V30 11629 H 549.788 -5.86232 -3.67314 0
M  V30 11630 H 548.92 -7.84412 -2.24479 0
M  V30 11631 P 544.957 -8.7635 -1.60911 0
M  V30 11632 O 544.737 -10.1388 -1.11561 0
M  V30 11633 O 544.167 -8.36503 -2.79617 0
M  V30 11634 O 544.707 -7.71806 -0.42951 0
M  V30 11635 C 545.647 -7.67148 0.673689 0
M  V30 11636 C 544.917 -7.33374 1.95559 0
M  V30 11637 O 544.707 -5.88721 2.00726 0
M  V30 11638 C 543.517 -7.92526 2.10483 0
M  V30 11639 O 543.127 -8.02971 3.47653 0
M  V30 11640 C 542.637 -6.89602 1.41652 0
M  V30 11641 C 543.347 -5.59201 1.75185 0
M  V30 11642 N 543.297 -4.58301 0.657969 0
M  V30 11643 H 546.136 -8.65116 0.777161 0
M  V30 11644 H 546.408 -6.9022 0.46725 0
M  V30 11645 H 545.54 -7.66548 2.79458 0
M  V30 11646 H 542.885 -5.16165 2.65183 0
M  V30 11647 H 542.605 -7.06433 0.329384 0
M  V30 11648 H 541.614 -6.90926 1.82021 0
M  V30 11649 H 543.448 -8.90873 1.62657 0
M  V30 11650 P 541.577 -8.03563 3.84925 0
M  V30 11651 O 541.357 -8.85821 5.0569 0
M  V30 11652 O 540.787 -8.41101 2.65469 0
M  V30 11653 O 541.327 -6.4965 4.18908 0
M  V30 11654 C 542.267 -5.81037 5.05421 0
M  V30 11655 C 541.537 -4.78366 5.89277 0
M  V30 11656 O 541.327 -3.58302 5.08433 0
M  V30 11657 C 540.137 -5.17448 6.36119 0
M  V30 11658 O 539.747 -4.45271 7.53232 0
M  V30 11659 C 539.257 -4.74639 5.19936 0
M  V30 11660 C 539.967 -3.49432 4.70418 0
M  V30 11661 N 539.917 -3.31776 3.22945 0
M  V30 11662 H 542.756 -6.54213 5.71376 0
M  V30 11663 H 543.028 -5.30492 4.44033 0
M  V30 11664 H 542.16 -4.55889 6.76652 0
M  V30 11665 P 538.197 -4.23843 7.83734 0
M  V30 11666 O 537.977 -4.19407 9.29784 0
M  V30 11667 O 537.407 -5.24426 7.09156 0
M  V30 11668 O 537.947 -2.7935 7.20758 0
M  V30 11669 C 538.887 -1.7299 7.50419 0
M  V30 11670 C 538.157 -0.406376 7.57911 0
M  V30 11671 O 537.947 0.0897726 6.21935 0
M  V30 11672 C 536.757 -0.447224 8.1878 0
M  V30 11673 O 536.367 0.825065 8.71101 0
M  V30 11674 C 535.877 -0.783801 6.99623 0
M  V30 11675 C 536.587 -0.0619192 5.85967 0
M  V30 11676 N 536.537 -0.7859 4.56281 0
M  V30 11677 H 539.376 -1.93423 8.4679 0
M  V30 11678 H 539.648 -1.68181 6.71046 0
M  V30 11679 H 538.78 0.289041 8.15388 0
M  V30 11680 P 534.817 1.17771 8.83182 0
M  V30 11681 O 534.597 2.07206 9.98732 0
M  V30 11682 O 534.027 -0.0743816 8.81969 0
M  V30 11683 O 534.567 1.97652 7.47304 0
M  V30 11684 C 535.507 3.01133 7.08783 0
M  V30 11685 C 534.777 4.12613 6.37049 0
M  V30 11686 O 534.567 3.72827 4.97879 0
M  V30 11687 C 533.377 4.45085 6.88694 0
M  V30 11688 O 532.987 5.7877 6.5624 0
M  V30 11689 C 532.497 3.47817 6.12078 0
M  V30 11690 C 533.207 3.39414 4.77697 0
M  V30 11691 N 533.157 2.04199 4.15538 0
M  V30 11692 H 535.996 3.41248 7.98759 0
M  V30 11693 H 536.268 2.57728 6.42 0
M  V30 11694 H 535.4 5.02657 6.42673 0
M  V30 11695 H 532.745 4.11708 4.08956 0
M  V30 11696 H 532.465 2.49626 6.61679 0
M  V30 11697 H 531.474 3.8662 6.00862 0
M  V30 11698 H 533.308 4.29991 7.97006 0
M  V30 11699 P 531.437 6.144 6.45285 0
M  V30 11700 O 531.217 7.54673 6.86199 0
M  V30 11701 O 530.647 5.12391 7.179 0
M  V30 11702 O 531.187 5.99158 4.88404 0
M  V30 11703 C 532.127 6.60234 3.96415 0
M  V30 11704 C 531.397 7.08259 2.72856 0
M  V30 11705 O 531.187 5.9427 1.83651 0
M  V30 11706 C 529.997 7.64886 2.9555 0
M  V30 11707 O 529.607 8.53963 1.90717 0
M  V30 11708 C 529.117 6.4116 2.90739 0
M  V30 11709 C 529.827 5.55375 1.86963 0
M  V30 11710 N 529.777 4.09664 2.15742 0
M  V30 11711 H 532.616 7.45574 4.45629 0
M  V30 11712 H 532.888 5.86232 3.67314 0
M  V30 11713 H 532.02 7.84412 2.24479 0
M  V30 11714 P 528.057 8.7635 1.60911 0
M  V30 11715 O 527.837 10.1388 1.11561 0
M  V30 11716 O 527.267 8.36503 2.79617 0
M  V30 11717 O 527.807 7.71806 0.42951 0
M  V30 11718 C 528.747 7.67148 -0.673689 0
M  V30 11719 C 528.017 7.33374 -1.95559 0
M  V30 11720 O 527.807 5.88721 -2.00726 0
M  V30 11721 C 526.617 7.92526 -2.10483 0
M  V30 11722 O 526.227 8.02971 -3.47653 0
M  V30 11723 C 525.737 6.89602 -1.41652 0
M  V30 11724 C 526.447 5.59201 -1.75185 0
M  V30 11725 N 526.397 4.58301 -0.657969 0
M  V30 11726 H 529.236 8.65116 -0.777161 0
M  V30 11727 H 529.508 6.9022 -0.46725 0
M  V30 11728 H 528.64 7.66548 -2.79458 0
M  V30 11729 H 525.985 5.16165 -2.65183 0
M  V30 11730 H 525.705 7.06433 -0.329384 0
M  V30 11731 H 524.714 6.90926 -1.82021 0
M  V30 11732 H 526.548 8.90873 -1.62657 0
M  V30 11733 P 524.677 8.03563 -3.84925 0
M  V30 11734 O 524.457 8.85821 -5.0569 0
M  V30 11735 O 523.887 8.41101 -2.65469 0
M  V30 11736 O 524.427 6.4965 -4.18908 0
M  V30 11737 C 525.367 5.81037 -5.05421 0
M  V30 11738 C 524.637 4.78366 -5.89277 0
M  V30 11739 O 524.427 3.58302 -5.08433 0
M  V30 11740 C 523.237 5.17448 -6.36119 0
M  V30 11741 O 522.847 4.45271 -7.53232 0
M  V30 11742 C 522.357 4.74639 -5.19936 0
M  V30 11743 C 523.067 3.49432 -4.70418 0
M  V30 11744 N 523.017 3.31776 -3.22945 0
M  V30 11745 H 525.856 6.54213 -5.71376 0
M  V30 11746 H 526.128 5.30492 -4.44033 0
M  V30 11747 H 525.26 4.55889 -6.76652 0
M  V30 11748 P 521.297 4.23843 -7.83734 0
M  V30 11749 O 521.077 4.19407 -9.29784 0
M  V30 11750 O 520.507 5.24426 -7.09156 0
M  V30 11751 O 521.047 2.7935 -7.20758 0
M  V30 11752 C 521.987 1.7299 -7.50419 0
M  V30 11753 C 521.257 0.406376 -7.57911 0
M  V30 11754 O 521.047 -0.0897726 -6.21935 0
M  V30 11755 C 519.857 0.447224 -8.1878 0
M  V30 11756 O 519.467 -0.825065 -8.71101 0
M  V30 11757 C 518.977 0.783801 -6.99623 0
M  V30 11758 C 519.687 0.0619192 -5.85967 0
M  V30 11759 N 519.637 0.7859 -4.56281 0
M  V30 11760 H 522.476 1.93423 -8.4679 0
M  V30 11761 H 522.748 1.68181 -6.71046 0
M  V30 11762 H 521.88 -0.289041 -8.15388 0
M  V30 11763 P 517.917 -1.17771 -8.83182 0
M  V30 11764 O 517.697 -2.07206 -9.98732 0
M  V30 11765 O 517.127 0.0743816 -8.81969 0
M  V30 11766 O 517.667 -1.97652 -7.47304 0
M  V30 11767 C 518.607 -3.01133 -7.08783 0
M  V30 11768 C 517.877 -4.12613 -6.37049 0
M  V30 11769 O 517.667 -3.72827 -4.97879 0
M  V30 11770 C 516.477 -4.45085 -6.88694 0
M  V30 11771 O 516.087 -5.7877 -6.5624 0
M  V30 11772 C 515.597 -3.47817 -6.12078 0
M  V30 11773 C 516.307 -3.39414 -4.77697 0
M  V30 11774 N 516.257 -2.04199 -4.15538 0
M  V30 11775 H 519.096 -3.41248 -7.98759 0
M  V30 11776 H 519.368 -2.57728 -6.42 0
M  V30 11777 H 518.5 -5.02657 -6.42673 0
M  V30 11778 H 515.845 -4.11708 -4.08956 0
M  V30 11779 H 515.565 -2.49626 -6.61679 0
M  V30 11780 H 514.574 -3.8662 -6.00862 0
M  V30 11781 H 516.408 -4.29991 -7.97006 0
M  V30 11782 P 514.537 -6.144 -6.45285 0
M  V30 11783 O 514.317 -7.54673 -6.86199 0
M  V30 11784 O 513.747 -5.12391 -7.179 0
M  V30 11785 O 514.287 -5.99158 -4.88404 0
M  V30 11786 C 515.227 -6.60234 -3.96415 0
M  V30 11787 C 514.497 -7.08259 -2.72856 0
M  V30 11788 O 514.287 -5.9427 -1.83651 0
M  V30 11789 C 513.097 -7.64886 -2.9555 0
M  V30 11790 O 512.707 -8.53963 -1.90717 0
M  V30 11791 C 512.217 -6.4116 -2.90739 0
M  V30 11792 C 512.927 -5.55375 -1.86963 0
M  V30 11793 N 512.877 -4.09448 -2.16152 0
M  V30 11794 H 515.716 -7.45574 -4.45629 0
M  V30 11795 H 515.988 -5.85864 -3.679 0
M  V30 11796 H 515.12 -7.84412 -2.24479 0
M  V30 11797 H 512.465 -5.73457 -0.888562 0
M  V30 11798 H 512.185 -5.90877 -3.88583 0
M  V30 11799 H 511.194 -6.6596 -2.58858 0
M  V30 11800 H 513.028 -8.16339 -3.92049 0
M  V30 11801 P 511.157 -8.7635 -1.60911 0
M  V30 11802 O 510.937 -10.1388 -1.11561 0
M  V30 11803 O 510.367 -8.36503 -2.79617 0
M  V30 11804 O 510.907 -7.71806 -0.42951 0
M  V30 11805 C 511.847 -7.67148 0.673689 0
M  V30 11806 C 511.117 -7.33374 1.95559 0
M  V30 11807 O 510.907 -5.88721 2.00726 0
M  V30 11808 C 509.717 -7.92526 2.10483 0
M  V30 11809 O 509.327 -8.02971 3.47653 0
M  V30 11810 C 508.837 -6.89602 1.41652 0
M  V30 11811 C 509.547 -5.59201 1.75185 0
M  V30 11812 N 509.497 -4.58235 0.662552 0
M  V30 11813 H 512.336 -8.65116 0.777161 0
M  V30 11814 H 512.608 -6.90173 0.474152 0
M  V30 11815 H 511.74 -7.66548 2.79458 0
M  V30 11816 P 507.777 -8.03563 3.84925 0
M  V30 11817 O 507.557 -8.85821 5.0569 0
M  V30 11818 O 506.987 -8.41101 2.65469 0
M  V30 11819 O 507.527 -6.4965 4.18908 0
M  V30 11820 C 508.467 -5.81037 5.05421 0
M  V30 11821 C 507.737 -4.78366 5.89277 0
M  V30 11822 O 507.527 -3.58302 5.08433 0
M  V30 11823 C 506.337 -5.17448 6.36119 0
M  V30 11824 O 505.947 -4.45271 7.53232 0
M  V30 11825 C 505.457 -4.74639 5.19936 0
M  V30 11826 C 506.167 -3.49432 4.70418 0
M  V30 11827 N 506.117 -3.32099 3.22613 0
M  V30 11828 H 508.956 -6.54213 5.71376 0
M  V30 11829 H 509.228 -5.30936 4.43503 0
M  V30 11830 H 508.36 -4.55889 6.76652 0
M  V30 11831 H 505.705 -2.61715 5.17932 0
M  V30 11832 H 505.425 -5.52155 4.41878 0
M  V30 11833 H 504.434 -4.51981 5.53374 0
M  V30 11834 H 506.268 -6.25124 6.55234 0
M  V30 11835 P 504.397 -4.23843 7.83734 0
M  V30 11836 O 504.177 -4.19407 9.29784 0
M  V30 11837 O 503.607 -5.24426 7.09156 0
M  V30 11838 O 504.147 -2.7935 7.20758 0
M  V30 11839 C 505.087 -1.7299 7.50419 0
M  V30 11840 C 504.357 -0.406376 7.57911 0
M  V30 11841 O 504.147 0.0897726 6.21935 0
M  V30 11842 C 502.957 -0.447224 8.1878 0
M  V30 11843 O 502.567 0.825065 8.71101 0
M  V30 11844 C 502.077 -0.783801 6.99623 0
M  V30 11845 C 502.787 -0.0619192 5.85967 0
M  V30 11846 N 502.737 -0.7859 4.56281 0
M  V30 11847 H 505.576 -1.93423 8.4679 0
M  V30 11848 H 505.848 -1.68181 6.71046 0
M  V30 11849 H 504.98 0.289041 8.15388 0
M  V30 11850 P 501.017 1.17771 8.83182 0
M  V30 11851 O 500.797 2.07206 9.98732 0
M  V30 11852 O 500.227 -0.0743816 8.81969 0
M  V30 11853 O 500.767 1.97652 7.47304 0
M  V30 11854 C 501.707 3.01133 7.08783 0
M  V30 11855 C 500.977 4.12613 6.37049 0
M  V30 11856 O 500.767 3.72827 4.97879 0
M  V30 11857 C 499.577 4.45085 6.88694 0
M  V30 11858 O 499.187 5.7877 6.5624 0
M  V30 11859 C 498.697 3.47817 6.12078 0
M  V30 11860 C 499.407 3.39414 4.77697 0
M  V30 11861 N 499.357 2.04199 4.15538 0
M  V30 11862 H 502.196 3.41248 7.98759 0
M  V30 11863 H 502.468 2.57728 6.42 0
M  V30 11864 H 501.6 5.02657 6.42673 0
M  V30 11865 H 498.945 4.11708 4.08956 0
M  V30 11866 H 498.665 2.49626 6.61679 0
M  V30 11867 H 497.674 3.8662 6.00862 0
M  V30 11868 H 499.508 4.29991 7.97006 0
M  V30 11869 P 497.637 6.144 6.45285 0
M  V30 11870 O 497.417 7.54673 6.86199 0
M  V30 11871 O 496.847 5.12391 7.179 0
M  V30 11872 O 497.387 5.99158 4.88404 0
M  V30 11873 C 498.327 6.60234 3.96415 0
M  V30 11874 C 497.597 7.08259 2.72856 0
M  V30 11875 O 497.387 5.9427 1.83651 0
M  V30 11876 C 496.197 7.64886 2.9555 0
M  V30 11877 O 495.807 8.53963 1.90717 0
M  V30 11878 C 495.317 6.4116 2.90739 0
M  V30 11879 C 496.027 5.55375 1.86963 0
M  V30 11880 N 495.977 4.09664 2.15742 0
M  V30 11881 H 498.816 7.45574 4.45629 0
M  V30 11882 H 499.088 5.86232 3.67314 0
M  V30 11883 H 498.22 7.84412 2.24479 0
M  V30 11884 P 494.257 8.7635 1.60911 0
M  V30 11885 O 494.037 10.1388 1.11561 0
M  V30 11886 O 493.467 8.36503 2.79617 0
M  V30 11887 O 494.007 7.71806 0.42951 0
M  V30 11888 C 494.947 7.67148 -0.673689 0
M  V30 11889 C 494.217 7.33374 -1.95559 0
M  V30 11890 O 494.007 5.88721 -2.00726 0
M  V30 11891 C 492.817 7.92526 -2.10483 0
M  V30 11892 O 492.427 8.02971 -3.47653 0
M  V30 11893 C 491.937 6.89602 -1.41652 0
M  V30 11894 C 492.647 5.59201 -1.75185 0
M  V30 11895 N 492.597 4.58301 -0.657969 0
M  V30 11896 H 495.436 8.65116 -0.777161 0
M  V30 11897 H 495.708 6.9022 -0.46725 0
M  V30 11898 H 494.84 7.66548 -2.79458 0
M  V30 11899 H 492.185 5.16165 -2.65183 0
M  V30 11900 H 491.905 7.06433 -0.329384 0
M  V30 11901 H 490.914 6.90926 -1.82021 0
M  V30 11902 H 492.748 8.90873 -1.62657 0
M  V30 11903 P 490.877 8.03563 -3.84925 0
M  V30 11904 O 490.657 8.85821 -5.0569 0
M  V30 11905 O 490.087 8.41101 -2.65469 0
M  V30 11906 O 490.627 6.4965 -4.18908 0
M  V30 11907 C 491.567 5.81037 -5.05421 0
M  V30 11908 C 490.837 4.78366 -5.89277 0
M  V30 11909 O 490.627 3.58302 -5.08433 0
M  V30 11910 C 489.437 5.17448 -6.36119 0
M  V30 11911 O 489.047 4.45271 -7.53232 0
M  V30 11912 C 488.557 4.74639 -5.19936 0
M  V30 11913 C 489.267 3.49432 -4.70418 0
M  V30 11914 N 489.217 3.31776 -3.22945 0
M  V30 11915 H 492.056 6.54213 -5.71376 0
M  V30 11916 H 492.328 5.30492 -4.44033 0
M  V30 11917 H 491.46 4.55889 -6.76652 0
M  V30 11918 P 487.497 4.23843 -7.83734 0
M  V30 11919 O 487.277 4.19407 -9.29784 0
M  V30 11920 O 486.707 5.24426 -7.09156 0
M  V30 11921 O 487.247 2.7935 -7.20758 0
M  V30 11922 C 488.187 1.7299 -7.50419 0
M  V30 11923 C 487.457 0.406376 -7.57911 0
M  V30 11924 O 487.247 -0.0897726 -6.21935 0
M  V30 11925 C 486.057 0.447224 -8.1878 0
M  V30 11926 O 485.667 -0.825065 -8.71101 0
M  V30 11927 C 485.177 0.783801 -6.99623 0
M  V30 11928 C 485.887 0.0619192 -5.85967 0
M  V30 11929 N 485.837 0.7859 -4.56281 0
M  V30 11930 H 488.676 1.93423 -8.4679 0
M  V30 11931 H 488.948 1.68181 -6.71046 0
M  V30 11932 H 488.08 -0.289041 -8.15388 0
M  V30 11933 P 484.117 -1.17771 -8.83182 0
M  V30 11934 O 483.897 -2.07206 -9.98732 0
M  V30 11935 O 483.327 0.0743816 -8.81969 0
M  V30 11936 O 483.867 -1.97652 -7.47304 0
M  V30 11937 C 484.807 -3.01133 -7.08783 0
M  V30 11938 C 484.077 -4.12613 -6.37049 0
M  V30 11939 O 483.867 -3.72827 -4.97879 0
M  V30 11940 C 482.677 -4.45085 -6.88694 0
M  V30 11941 O 482.287 -5.7877 -6.5624 0
M  V30 11942 C 481.797 -3.47817 -6.12078 0
M  V30 11943 C 482.507 -3.39414 -4.77697 0
M  V30 11944 N 482.457 -2.04615 -4.15333 0
M  V30 11945 H 485.296 -3.41248 -7.98759 0
M  V30 11946 H 485.568 -2.5837 -6.41742 0
M  V30 11947 H 484.7 -5.02657 -6.42673 0
M  V30 11948 P 480.737 -6.144 -6.45285 0
M  V30 11949 O 480.517 -7.54673 -6.86199 0
M  V30 11950 O 479.947 -5.12391 -7.179 0
M  V30 11951 O 480.487 -5.99158 -4.88404 0
M  V30 11952 C 481.427 -6.60234 -3.96415 0
M  V30 11953 C 480.697 -7.08259 -2.72856 0
M  V30 11954 O 480.487 -5.9427 -1.83651 0
M  V30 11955 C 479.297 -7.64886 -2.9555 0
M  V30 11956 O 478.907 -8.53963 -1.90717 0
M  V30 11957 C 478.417 -6.4116 -2.90739 0
M  V30 11958 C 479.127 -5.55375 -1.86963 0
M  V30 11959 N 479.077 -4.09664 -2.15742 0
M  V30 11960 H 481.916 -7.45574 -4.45629 0
M  V30 11961 H 482.188 -5.86232 -3.67314 0
M  V30 11962 H 481.32 -7.84412 -2.24479 0
M  V30 11963 P 477.357 -8.7635 -1.60911 0
M  V30 11964 O 477.137 -10.1388 -1.11561 0
M  V30 11965 O 476.567 -8.36503 -2.79617 0
M  V30 11966 O 477.107 -7.71906 -0.429565 0
M  V30 11967 C 478.047 -7.67148 0.673689 0
M  V30 11968 C 477.317 -7.33666 1.94851 0
M  V30 11969 O 477.107 -5.88816 2.00759 0
M  V30 11970 C 475.917 -7.92526 2.10483 0
M  V30 11971 O 475.527 -8.03063 3.47693 0
M  V30 11972 C 475.037 -6.89602 1.41652 0
M  V30 11973 C 475.747 -5.59201 1.75185 0
M  V30 11974 N 475.697 -4.58235 0.662552 0
M  V30 11975 C 475.547 -3.24451 1.01643 0
M  V30 11976 O 475.457 -2.94958 2.21722 0
M  V30 11977 N 475.497 -2.30408 -0.165238 0
M  V30 11978 C 475.597 -2.66048 -1.25118 0
M  V30 11979 N 475.547 -1.70787 -2.16813 0
M  V30 11980 C 475.747 -4.02732 -1.64413 0
M  V30 11981 C 475.797 -4.9488 -0.63991 0
M  V30 11982 H 478.537 -8.65017 0.777072 0
M  V30 11983 H 478.807 -6.90173 0.474152 0
M  V30 11984 H 477.94 -7.66642 2.79492 0
M  V30 11985 H 475.285 -5.16254 2.65229 0
M  V30 11986 H 475.005 -7.06532 0.329431 0
M  V30 11987 H 474.014 -6.91023 1.82047 0
M  V30 11988 H 475.848 -8.90873 1.62657 0
M  V30 11989 H 475.92 -6.00104 -0.892197 0
M  V30 11990 H 475.818 -4.31733 -2.69229 0
M  V30 11991 H 475.43 -0.724835 -1.8844 0
M  V30 11992 H 475.626 -1.94716 -3.16734 0
M  V30 11993 P 473.977 -8.03563 3.84925 0
M  V30 11994 O 473.757 -8.85821 5.0569 0
M  V30 11995 O 473.187 -8.41101 2.65469 0
M  V30 11996 O 473.727 -6.4965 4.18908 0
M  V30 11997 C 474.667 -5.81037 5.05421 0
M  V30 11998 C 473.937 -4.78366 5.89277 0
M  V30 11999 O 473.727 -3.58302 5.08433 0
M  V30 12000 C 472.537 -5.17448 6.36119 0
M  V30 12001 O 472.147 -4.45271 7.53232 0
M  V30 12002 C 471.657 -4.74639 5.19936 0
M  V30 12003 C 472.367 -3.49432 4.70418 0
M  V30 12004 N 472.317 -3.31776 3.22945 0
M  V30 12005 H 475.156 -6.54213 5.71376 0
M  V30 12006 H 475.428 -5.30492 4.44033 0
M  V30 12007 H 474.56 -4.55889 6.76652 0
M  V30 12008 P 470.597 -4.23843 7.83734 0
M  V30 12009 O 470.377 -4.19407 9.29784 0
M  V30 12010 O 469.807 -5.24426 7.09156 0
M  V30 12011 O 470.347 -2.79386 7.20852 0
M  V30 12012 C 471.287 -1.7299 7.50419 0
M  V30 12013 C 470.557 -0.41401 7.5797 0
M  V30 12014 O 470.347 0.089787 6.22035 0
M  V30 12015 C 469.157 -0.447224 8.1878 0
M  V30 12016 O 468.767 0.825159 8.71201 0
M  V30 12017 C 468.277 -0.783801 6.99623 0
M  V30 12018 C 468.987 -0.0619192 5.85967 0
M  V30 12019 N 468.937 -0.7859 4.56281 0
M  V30 12020 C 468.787 -0.0359258 3.39981 0
M  V30 12021 O 468.697 1.19723 3.49038 0
M  V30 12022 N 468.737 -0.869151 2.14025 0
M  V30 12023 C 468.837 -2.01207 2.14363 0
M  V30 12024 N 468.787 -2.58978 0.954287 0
M  V30 12025 C 468.987 -2.80817 3.32215 0
M  V30 12026 C 469.037 -2.13785 4.50884 0
M  V30 12027 H 471.777 -1.93401 8.46693 0
M  V30 12028 H 472.047 -1.68181 6.71046 0
M  V30 12029 H 471.18 0.289076 8.15488 0
M  V30 12030 H 468.525 0.927166 5.72947 0
M  V30 12031 H 468.245 -1.87 6.82132 0
M  V30 12032 H 467.254 -0.404009 7.13457 0
M  V30 12033 H 469.088 -1.20599 8.97534 0
M  V30 12034 H 469.16 -2.70295 5.43162 0
M  V30 12035 H 469.058 -3.89465 3.27406 0
M  V30 12036 H 468.67 -2.01616 0.107046 0
M  V30 12037 H 468.866 -3.61403 0.873101 0
M  V30 12038 P 467.217 1.17771 8.83182 0
M  V30 12039 O 466.997 2.07206 9.98732 0
M  V30 12040 O 466.427 -0.0743816 8.81969 0
M  V30 12041 O 466.967 1.97652 7.47304 0
M  V30 12042 C 467.907 3.01055 7.08599 0
M  V30 12043 C 467.177 4.12613 6.37049 0
M  V30 12044 O 466.967 3.72827 4.97879 0
M  V30 12045 C 465.777 4.45719 6.88164 0
M  V30 12046 O 465.387 5.7877 6.5624 0
M  V30 12047 C 464.897 3.47768 6.11991 0
M  V30 12048 C 465.607 3.39356 4.77615 0
M  V30 12049 N 465.557 2.04571 4.15244 0
M  V30 12050 C 465.407 1.98587 2.78314 0
M  V30 12051 O 465.317 2.98134 2.08835 0
M  V30 12052 N 465.367 0.714467 2.24925 0
M  V30 12053 C 465.457 -0.470001 2.94169 0
M  V30 12054 C 465.607 -0.312541 4.36783 0
M  V30 12055 C 465.657 0.914512 4.92583 0
M  V30 12056 H 468.398 3.41169 7.98575 0
M  V30 12057 H 468.667 2.58295 6.41556 0
M  V30 12058 H 467.8 5.02657 6.42673 0
M  V30 12059 H 465.145 4.11637 4.08885 0
M  V30 12060 H 464.866 2.49626 6.61679 0
M  V30 12061 H 463.874 3.86566 6.00778 0
M  V30 12062 H 465.708 4.29943 7.96918 0
M  V30 12063 H 465.779 1.00937 6.00374 0
M  V30 12064 P 463.837 6.144 6.45285 0
M  V30 12065 O 463.617 7.54673 6.86199 0
M  V30 12066 O 463.047 5.12391 7.179 0
M  V30 12067 O 463.587 5.99158 4.88404 0
M  V30 12068 C 464.527 6.60234 3.96415 0
M  V30 12069 C 463.797 7.08259 2.72856 0
M  V30 12070 O 463.587 5.9427 1.83651 0
M  V30 12071 C 462.397 7.64886 2.9555 0
M  V30 12072 O 462.007 8.53963 1.90717 0
M  V30 12073 C 461.517 6.4116 2.90739 0
M  V30 12074 C 462.227 5.55375 1.86963 0
M  V30 12075 N 462.177 4.09448 2.16152 0
M  V30 12076 H 465.016 7.45574 4.45629 0
M  V30 12077 H 465.288 5.85864 3.679 0
M  V30 12078 H 464.42 7.84412 2.24479 0
M  V30 12079 H 461.765 5.73457 0.888562 0
M  V30 12080 H 461.485 5.90877 3.88583 0
M  V30 12081 H 460.494 6.6596 2.58858 0
M  V30 12082 H 462.328 8.16339 3.92049 0
M  V30 12083 P 460.457 8.7635 1.60911 0
M  V30 12084 O 460.237 10.1388 1.11561 0
M  V30 12085 O 459.667 8.36503 2.79617 0
M  V30 12086 O 460.207 7.71806 0.42951 0
M  V30 12087 C 461.147 7.66948 -0.673514 0
M  V30 12088 C 460.417 7.33374 -1.95559 0
M  V30 12089 O 460.207 5.88721 -2.00726 0
M  V30 12090 C 459.017 7.92218 -2.1125 0
M  V30 12091 O 458.627 8.02971 -3.47653 0
M  V30 12092 C 458.137 6.89504 -1.41631 0
M  V30 12093 C 458.847 5.59106 -1.75155 0
M  V30 12094 N 458.797 4.58136 -0.662409 0
M  V30 12095 C 458.647 3.26059 -1.02863 0
M  V30 12096 O 458.557 2.90743 -2.19009 0
M  V30 12097 N 458.607 2.35995 0.0155585 0
M  V30 12098 C 458.697 2.65248 1.35603 0
M  V30 12099 C 458.847 4.05747 1.64698 0
M  V30 12100 C 458.897 4.96734 0.652411 0
M  V30 12101 H 461.638 8.64917 -0.776982 0
M  V30 12102 H 461.907 6.89974 -0.474015 0
M  V30 12103 H 461.04 7.66548 -2.79458 0
M  V30 12104 H 458.385 5.16076 -2.65138 0
M  V30 12105 H 458.106 7.06433 -0.329384 0
M  V30 12106 H 457.114 6.90829 -1.81996 0
M  V30 12107 H 458.948 8.90774 -1.62639 0
M  V30 12108 H 459.019 6.02181 0.895285 0
M  V30 12109 P 457.077 8.03563 -3.84925 0
M  V30 12110 O 456.857 8.85821 -5.0569 0
M  V30 12111 O 456.287 8.41101 -2.65469 0
M  V30 12112 O 456.827 6.49734 -4.18962 0
M  V30 12113 C 457.767 5.81037 -5.05421 0
M  V30 12114 C 457.037 4.79018 -5.88876 0
M  V30 12115 O 456.827 3.58359 -5.08515 0
M  V30 12116 C 455.637 5.17448 -6.36119 0
M  V30 12117 O 455.247 4.45322 -7.53318 0
M  V30 12118 C 454.757 4.74639 -5.19936 0
M  V30 12119 C 455.467 3.49432 -4.70418 0
M  V30 12120 N 455.417 3.31776 -3.22945 0
M  V30 12121 C 455.267 2.02742 -2.72939 0
M  V30 12122 O 455.177 1.08301 -3.52749 0
M  V30 12123 N 455.217 1.96117 -1.22063 0
M  V30 12124 C 455.317 2.8878 -0.551566 0
M  V30 12125 N 455.267 2.65609 0.750198 0
M  V30 12126 C 455.467 4.22457 -1.03707 0
M  V30 12127 C 455.517 4.37979 -2.39113 0
M  V30 12128 H 458.257 6.54138 -5.7131 0
M  V30 12129 H 458.527 5.30492 -4.44033 0
M  V30 12130 H 457.66 4.55945 -6.76735 0
M  V30 12131 H 455.005 2.6176 -5.18021 0
M  V30 12132 H 454.725 5.52233 -4.41941 0
M  V30 12133 H 453.734 4.52045 -5.53452 0
M  V30 12134 H 455.568 6.25124 -6.55234 0
M  V30 12135 H 455.64 5.37936 -2.80552 0
M  V30 12136 H 455.538 5.07528 -0.359553 0
M  V30 12137 H 455.15 1.69403 1.09847 0
M  V30 12138 H 455.346 3.43701 1.41792 0
M  V30 12139 P 453.697 4.23843 -7.83734 0
M  V30 12140 O 453.477 4.19407 -9.29784 0
M  V30 12141 O 452.907 5.24426 -7.09156 0
M  V30 12142 O 453.447 2.7935 -7.20758 0
M  V30 12143 C 454.387 1.7299 -7.50419 0
M  V30 12144 C 453.657 0.406376 -7.57911 0
M  V30 12145 O 453.447 -0.0897726 -6.21935 0
M  V30 12146 C 452.257 0.447224 -8.1878 0
M  V30 12147 O 451.867 -0.825065 -8.71101 0
M  V30 12148 C 451.377 0.783801 -6.99623 0
M  V30 12149 C 452.087 0.0619192 -5.85967 0
M  V30 12150 N 452.037 0.790462 -4.56202 0
M  V30 12151 C 452.117 2.13895 -4.34171 0
M  V30 12152 N 452.047 2.46449 -3.08687 0
M  V30 12153 C 451.897 1.2525 -2.43697 0
M  V30 12154 C 451.767 0.914535 -1.07318 0
M  V30 12155 N 451.757 1.80782 -0.0887348 0
M  V30 12156 N 451.647 -0.386745 -0.768133 0
M  V30 12157 C 451.657 -1.28096 -1.75159 0
M  V30 12158 N 451.777 -1.09708 -3.04861 0
M  V30 12159 C 451.897 0.214857 -3.32306 0
M  V30 12160 H 454.876 1.93423 -8.4679 0
M  V30 12161 H 455.148 1.68852 -6.70877 0
M  V30 12162 H 454.28 -0.289041 -8.15388 0
M  V30 12163 H 451.625 -0.927006 -5.72848 0
M  V30 12164 H 451.345 1.86973 -6.82036 0
M  V30 12165 H 450.354 0.403953 -7.13357 0
M  V30 12166 H 452.188 1.20599 -8.97534 0
M  V30 12167 H 452.229 2.86846 -5.14318 0
M  V30 12168 H 451.848 2.81082 -0.302037 0
M  V30 12169 H 451.659 1.49688 0.889064 0
M  V30 12170 H 451.551 -2.31317 -1.43855 0
M  V30 12171 P 450.317 -1.17771 -8.83182 0
M  V30 12172 O 450.097 -2.07206 -9.98732 0
M  V30 12173 O 449.527 0.0743816 -8.81969 0
M  V30 12174 O 450.067 -1.97652 -7.47304 0
M  V30 12175 C 451.007 -3.01133 -7.08783 0
M  V30 12176 C 450.277 -4.12613 -6.37049 0
M  V30 12177 O 450.067 -3.72827 -4.97879 0
M  V30 12178 C 448.877 -4.45085 -6.88694 0
M  V30 12179 O 448.487 -5.7877 -6.5624 0
M  V30 12180 C 447.997 -3.47817 -6.12078 0
M  V30 12181 C 448.707 -3.39414 -4.77697 0
M  V30 12182 N 448.657 -2.04615 -4.15333 0
M  V30 12183 H 451.496 -3.41248 -7.98759 0
M  V30 12184 H 451.768 -2.5837 -6.41742 0
M  V30 12185 H 450.9 -5.02657 -6.42673 0
M  V30 12186 P 446.937 -6.144 -6.45285 0
M  V30 12187 O 446.717 -7.54673 -6.86199 0
M  V30 12188 O 446.147 -5.12391 -7.179 0
M  V30 12189 O 446.687 -5.99158 -4.88404 0
M  V30 12190 C 447.627 -6.60234 -3.96415 0
M  V30 12191 C 446.897 -7.08259 -2.72856 0
M  V30 12192 O 446.687 -5.9427 -1.83651 0
M  V30 12193 C 445.497 -7.64886 -2.9555 0
M  V30 12194 O 445.107 -8.53963 -1.90717 0
M  V30 12195 C 444.617 -6.4116 -2.90739 0
M  V30 12196 C 445.327 -5.55375 -1.86963 0
M  V30 12197 N 445.277 -4.09664 -2.15742 0
M  V30 12198 H 448.116 -7.45574 -4.45629 0
M  V30 12199 H 448.388 -5.86232 -3.67314 0
M  V30 12200 H 447.52 -7.84412 -2.24479 0
M  V30 12201 P 443.557 -8.7635 -1.60911 0
M  V30 12202 O 443.337 -10.1388 -1.11561 0
M  V30 12203 O 442.767 -8.36503 -2.79617 0
M  V30 12204 O 443.307 -7.71806 -0.42951 0
M  V30 12205 C 444.247 -7.67148 0.673689 0
M  V30 12206 C 443.517 -7.33374 1.95559 0
M  V30 12207 O 443.307 -5.88721 2.00726 0
M  V30 12208 C 442.117 -7.92526 2.10483 0
M  V30 12209 O 441.727 -8.02971 3.47653 0
M  V30 12210 C 441.237 -6.89602 1.41652 0
M  V30 12211 C 441.947 -5.59201 1.75185 0
M  V30 12212 N 441.897 -4.58301 0.657969 0
M  V30 12213 H 444.736 -8.65116 0.777161 0
M  V30 12214 H 445.008 -6.9022 0.46725 0
M  V30 12215 H 444.14 -7.66548 2.79458 0
M  V30 12216 H 441.485 -5.16165 2.65183 0
M  V30 12217 H 441.205 -7.06433 0.329384 0
M  V30 12218 H 440.214 -6.90926 1.82021 0
M  V30 12219 H 442.048 -8.90873 1.62657 0
M  V30 12220 P 440.177 -8.03563 3.84925 0
M  V30 12221 O 439.957 -8.85821 5.0569 0
M  V30 12222 O 439.387 -8.41101 2.65469 0
M  V30 12223 O 439.927 -6.4965 4.18908 0
M  V30 12224 C 440.867 -5.81037 5.05421 0
M  V30 12225 C 440.137 -4.78366 5.89277 0
M  V30 12226 O 439.927 -3.58302 5.08433 0
M  V30 12227 C 438.737 -5.17448 6.36119 0
M  V30 12228 O 438.347 -4.45271 7.53232 0
M  V30 12229 C 437.857 -4.74639 5.19936 0
M  V30 12230 C 438.567 -3.49432 4.70418 0
M  V30 12231 N 438.517 -3.31776 3.22945 0
M  V30 12232 H 441.356 -6.54213 5.71376 0
M  V30 12233 H 441.628 -5.30492 4.44033 0
M  V30 12234 H 440.76 -4.55889 6.76652 0
M  V30 12235 P 436.797 -4.23843 7.83734 0
M  V30 12236 O 436.577 -4.19407 9.29784 0
M  V30 12237 O 436.007 -5.24426 7.09156 0
M  V30 12238 O 436.547 -2.7935 7.20758 0
M  V30 12239 C 437.487 -1.7299 7.50419 0
M  V30 12240 C 436.757 -0.406376 7.57911 0
M  V30 12241 O 436.547 0.0897726 6.21935 0
M  V30 12242 C 435.357 -0.447224 8.1878 0
M  V30 12243 O 434.967 0.825065 8.71101 0
M  V30 12244 C 434.477 -0.783801 6.99623 0
M  V30 12245 C 435.187 -0.0619192 5.85967 0
M  V30 12246 N 435.137 -0.790462 4.56202 0
M  V30 12247 H 437.976 -1.93423 8.4679 0
M  V30 12248 H 438.248 -1.68852 6.70877 0
M  V30 12249 H 437.38 0.289041 8.15388 0
M  V30 12250 H 434.725 0.927006 5.72848 0
M  V30 12251 H 434.445 -1.86973 6.82036 0
M  V30 12252 H 433.454 -0.403953 7.13357 0
M  V30 12253 H 435.288 -1.20599 8.97534 0
M  V30 12254 P 433.417 1.17771 8.83182 0
M  V30 12255 O 433.197 2.07206 9.98732 0
M  V30 12256 O 432.627 -0.0743816 8.81969 0
M  V30 12257 O 433.167 1.97652 7.47304 0
M  V30 12258 C 434.107 3.01133 7.08783 0
M  V30 12259 C 433.377 4.12613 6.37049 0
M  V30 12260 O 433.167 3.72827 4.97879 0
M  V30 12261 C 431.977 4.45085 6.88694 0
M  V30 12262 O 431.587 5.7877 6.5624 0
M  V30 12263 C 431.097 3.47817 6.12078 0
M  V30 12264 C 431.807 3.39414 4.77697 0
M  V30 12265 N 431.757 2.04615 4.15333 0
M  V30 12266 H 434.596 3.41248 7.98759 0
M  V30 12267 H 434.868 2.5837 6.41742 0
M  V30 12268 H 434 5.02657 6.42673 0
M  V30 12269 P 430.037 6.144 6.45285 0
M  V30 12270 O 429.817 7.54673 6.86199 0
M  V30 12271 O 429.247 5.12391 7.179 0
M  V30 12272 O 429.787 5.99158 4.88404 0
M  V30 12273 C 430.727 6.60234 3.96415 0
M  V30 12274 C 429.997 7.08259 2.72856 0
M  V30 12275 O 429.787 5.9427 1.83651 0
M  V30 12276 C 428.597 7.64886 2.9555 0
M  V30 12277 O 428.207 8.53963 1.90717 0
M  V30 12278 C 427.717 6.4116 2.90739 0
M  V30 12279 C 428.427 5.55375 1.86963 0
M  V30 12280 N 428.377 4.09448 2.16152 0
M  V30 12281 C 428.457 3.46824 3.37593 0
M  V30 12282 N 428.387 2.17422 3.29777 0
M  V30 12283 C 428.237 1.93065 1.94427 0
M  V30 12284 C 428.107 0.738053 1.20141 0
M  V30 12285 N 428.097 -0.474256 1.74676 0
M  V30 12286 N 427.987 0.850049 -0.13045 0
M  V30 12287 C 427.997 2.06169 -0.676992 0
M  V30 12288 N 428.117 3.23842 -0.101312 0
M  V30 12289 C 428.237 3.09402 1.23122 0
M  V30 12290 H 431.216 7.45574 4.45629 0
M  V30 12291 H 431.488 5.85864 3.679 0
M  V30 12292 H 430.62 7.84412 2.24479 0
M  V30 12293 H 427.965 5.73457 0.888562 0
M  V30 12294 H 427.685 5.90877 3.88583 0
M  V30 12295 H 426.694 6.6596 2.58858 0
M  V30 12296 H 428.528 8.16339 3.92049 0
M  V30 12297 H 428.569 4.00505 4.3174 0
M  V30 12298 H 428.188 -0.581337 2.76658 0
M  V30 12299 H 427.999 -1.30811 1.14888 0
M  V30 12300 H 427.891 2.08295 -1.75542 0
M  V30 12301 P 426.657 8.7635 1.60911 0
M  V30 12302 O 426.437 10.1388 1.11561 0
M  V30 12303 O 425.867 8.36503 2.79617 0
M  V30 12304 O 426.407 7.71806 0.42951 0
M  V30 12305 C 427.347 7.67148 -0.673689 0
M  V30 12306 C 426.617 7.33374 -1.95559 0
M  V30 12307 O 426.407 5.88721 -2.00726 0
M  V30 12308 C 425.217 7.92526 -2.10483 0
M  V30 12309 O 424.827 8.02971 -3.47653 0
M  V30 12310 C 424.337 6.89602 -1.41652 0
M  V30 12311 C 425.047 5.59201 -1.75185 0
M  V30 12312 N 424.997 4.58235 -0.662552 0
M  V30 12313 C 425.077 4.7683 0.704049 0
M  V30 12314 N 424.997 3.66233 1.39775 0
M  V30 12315 C 424.857 2.66526 0.431739 0
M  V30 12316 C 424.727 1.26394 0.575992 0
M  V30 12317 O 424.707 0.589894 1.60503 0
M  V30 12318 N 424.607 0.62859 -0.67177 0
M  V30 12319 C 424.607 1.27134 -1.89385 0
M  V30 12320 N 424.477 0.492035 -2.96951 0
M  V30 12321 N 424.737 2.58978 -2.02907 0
M  V30 12322 C 424.857 3.22433 -0.832218 0
M  V30 12323 H 427.836 8.65116 -0.777161 0
M  V30 12324 H 428.108 6.90173 -0.474152 0
M  V30 12325 H 427.24 7.66548 -2.79458 0
M  V30 12326 H 424.585 5.16254 -2.65229 0
M  V30 12327 H 424.305 7.06532 -0.329431 0
M  V30 12328 H 423.314 6.91023 -1.82047 0
M  V30 12329 H 425.148 8.90971 -1.62675 0
M  V30 12330 H 425.197 5.74954 1.16305 0
M  V30 12331 H 424.515 -0.366713 -0.674793 0
M  V30 12332 H 424.478 0.908532 -3.91188 0
M  V30 12333 H 424.377 -0.528253 -2.85758 0
M  V30 12334 P 423.278 8.03563 -3.84925 0
M  V30 12335 O 423.058 8.85821 -5.0569 0
M  V30 12336 O 422.488 8.41101 -2.65469 0
M  V30 12337 O 423.028 6.4965 -4.18908 0
M  V30 12338 C 423.968 5.81037 -5.05421 0
M  V30 12339 C 423.238 4.78366 -5.89277 0
M  V30 12340 O 423.028 3.58302 -5.08433 0
M  V30 12341 C 421.838 5.17448 -6.36119 0
M  V30 12342 O 421.448 4.45271 -7.53232 0
M  V30 12343 C 420.958 4.74639 -5.19936 0
M  V30 12344 C 421.668 3.49432 -4.70418 0
M  V30 12345 N 421.618 3.32099 -3.22613 0
M  V30 12346 H 424.457 6.54213 -5.71376 0
M  V30 12347 H 424.729 5.30936 -4.43503 0
M  V30 12348 H 423.861 4.55889 -6.76652 0
M  V30 12349 H 421.206 2.61715 -5.17932 0
M  V30 12350 H 420.926 5.52155 -4.41878 0
M  V30 12351 H 419.935 4.51981 -5.53374 0
M  V30 12352 H 421.769 6.25124 -6.55234 0
M  V30 12353 P 419.898 4.23843 -7.83734 0
M  V30 12354 O 419.678 4.19407 -9.29784 0
M  V30 12355 O 419.108 5.24426 -7.09156 0
M  V30 12356 O 419.648 2.7935 -7.20758 0
M  V30 12357 C 420.588 1.7299 -7.50419 0
M  V30 12358 C 419.858 0.406376 -7.57911 0
M  V30 12359 O 419.648 -0.0897726 -6.21935 0
M  V30 12360 C 418.458 0.447224 -8.1878 0
M  V30 12361 O 418.068 -0.825065 -8.71101 0
M  V30 12362 C 417.578 0.783801 -6.99623 0
M  V30 12363 C 418.288 0.0619192 -5.85967 0
M  V30 12364 N 418.238 0.7859 -4.56281 0
M  V30 12365 H 421.077 1.93423 -8.4679 0
M  V30 12366 H 421.349 1.68181 -6.71046 0
M  V30 12367 H 420.481 -0.289041 -8.15388 0
M  V30 12368 P 416.518 -1.17771 -8.83182 0
M  V30 12369 O 416.298 -2.07206 -9.98732 0
M  V30 12370 O 415.728 0.0743816 -8.81969 0
M  V30 12371 O 416.268 -1.97652 -7.47304 0
M  V30 12372 C 417.208 -3.01133 -7.08783 0
M  V30 12373 C 416.478 -4.12613 -6.37049 0
M  V30 12374 O 416.268 -3.72827 -4.97879 0
M  V30 12375 C 415.078 -4.45085 -6.88694 0
M  V30 12376 O 414.688 -5.7877 -6.5624 0
M  V30 12377 C 414.198 -3.47817 -6.12078 0
M  V30 12378 C 414.908 -3.39414 -4.77697 0
M  V30 12379 N 414.858 -2.04615 -4.15333 0
M  V30 12380 H 417.697 -3.41248 -7.98759 0
M  V30 12381 H 417.969 -2.5837 -6.41742 0
M  V30 12382 H 417.101 -5.02657 -6.42673 0
M  V30 12383 P 413.138 -6.144 -6.45285 0
M  V30 12384 O 412.918 -7.54673 -6.86199 0
M  V30 12385 O 412.348 -5.12391 -7.179 0
M  V30 12386 O 412.888 -5.99158 -4.88404 0
M  V30 12387 C 413.828 -6.60234 -3.96415 0
M  V30 12388 C 413.098 -7.08259 -2.72856 0
M  V30 12389 O 412.888 -5.9427 -1.83651 0
M  V30 12390 C 411.698 -7.64886 -2.9555 0
M  V30 12391 O 411.308 -8.53963 -1.90717 0
M  V30 12392 C 410.818 -6.4116 -2.90739 0
M  V30 12393 C 411.528 -5.55375 -1.86963 0
M  V30 12394 N 411.478 -4.09664 -2.15742 0
M  V30 12395 H 414.317 -7.45574 -4.45629 0
M  V30 12396 H 414.589 -5.86232 -3.67314 0
M  V30 12397 H 413.721 -7.84412 -2.24479 0
M  V30 12398 P 409.758 -8.7635 -1.60911 0
M  V30 12399 O 409.538 -10.1388 -1.11561 0
M  V30 12400 O 408.968 -8.36503 -2.79617 0
M  V30 12401 O 409.508 -7.71906 -0.429565 0
M  V30 12402 C 410.448 -7.67148 0.673689 0
M  V30 12403 C 409.718 -7.33666 1.94851 0
M  V30 12404 O 409.508 -5.88816 2.00759 0
M  V30 12405 C 408.318 -7.92526 2.10483 0
M  V30 12406 O 407.928 -8.03063 3.47693 0
M  V30 12407 C 407.438 -6.89602 1.41652 0
M  V30 12408 C 408.148 -5.59201 1.75185 0
M  V30 12409 N 408.098 -4.58235 0.662552 0
M  V30 12410 C 407.948 -3.24451 1.01643 0
M  V30 12411 O 407.858 -2.94958 2.21722 0
M  V30 12412 N 407.898 -2.30408 -0.165238 0
M  V30 12413 C 407.998 -2.66048 -1.25118 0
M  V30 12414 N 407.948 -1.70787 -2.16813 0
M  V30 12415 C 408.148 -4.02732 -1.64413 0
M  V30 12416 C 408.198 -4.9488 -0.63991 0
M  V30 12417 H 410.938 -8.65017 0.777072 0
M  V30 12418 H 411.208 -6.90173 0.474152 0
M  V30 12419 H 410.341 -7.66642 2.79492 0
M  V30 12420 H 407.686 -5.16254 2.65229 0
M  V30 12421 H 407.406 -7.06532 0.329431 0
M  V30 12422 H 406.415 -6.91023 1.82047 0
M  V30 12423 H 408.249 -8.90873 1.62657 0
M  V30 12424 H 408.321 -6.00104 -0.892197 0
M  V30 12425 H 408.219 -4.31733 -2.69229 0
M  V30 12426 H 407.831 -0.724835 -1.8844 0
M  V30 12427 H 408.027 -1.94716 -3.16734 0
M  V30 12428 P 406.378 -8.03563 3.84925 0
M  V30 12429 O 406.158 -8.85821 5.0569 0
M  V30 12430 O 405.588 -8.41101 2.65469 0
M  V30 12431 O 406.128 -6.4965 4.18908 0
M  V30 12432 C 407.068 -5.81037 5.05421 0
M  V30 12433 C 406.338 -4.78366 5.89277 0
M  V30 12434 O 406.128 -3.58302 5.08433 0
M  V30 12435 C 404.938 -5.17448 6.36119 0
M  V30 12436 O 404.548 -4.45271 7.53232 0
M  V30 12437 C 404.058 -4.74639 5.19936 0
M  V30 12438 C 404.768 -3.49432 4.70418 0
M  V30 12439 N 404.718 -3.31776 3.22945 0
M  V30 12440 H 407.557 -6.54213 5.71376 0
M  V30 12441 H 407.829 -5.30492 4.44033 0
M  V30 12442 H 406.961 -4.55889 6.76652 0
M  V30 12443 P 402.998 -4.23843 7.83734 0
M  V30 12444 O 402.778 -4.19407 9.29784 0
M  V30 12445 O 402.208 -5.24426 7.09156 0
M  V30 12446 O 402.748 -2.7935 7.20758 0
M  V30 12447 C 403.688 -1.7299 7.50419 0
M  V30 12448 C 402.958 -0.406376 7.57911 0
M  V30 12449 O 402.748 0.0897726 6.21935 0
M  V30 12450 C 401.558 -0.447224 8.1878 0
M  V30 12451 O 401.168 0.825065 8.71101 0
M  V30 12452 C 400.678 -0.783801 6.99623 0
M  V30 12453 C 401.388 -0.0619192 5.85967 0
M  V30 12454 N 401.338 -0.790462 4.56202 0
M  V30 12455 H 404.177 -1.93423 8.4679 0
M  V30 12456 H 404.449 -1.68852 6.70877 0
M  V30 12457 H 403.581 0.289041 8.15388 0
M  V30 12458 H 400.926 0.927006 5.72848 0
M  V30 12459 H 400.646 -1.86973 6.82036 0
M  V30 12460 H 399.655 -0.403953 7.13357 0
M  V30 12461 H 401.489 -1.20599 8.97534 0
M  V30 12462 P 399.618 1.17771 8.83182 0
M  V30 12463 O 399.398 2.07206 9.98732 0
M  V30 12464 O 398.828 -0.0743816 8.81969 0
M  V30 12465 O 399.368 1.97652 7.47304 0
M  V30 12466 C 400.308 3.01133 7.08783 0
M  V30 12467 C 399.578 4.12613 6.37049 0
M  V30 12468 O 399.368 3.72827 4.97879 0
M  V30 12469 C 398.178 4.45085 6.88694 0
M  V30 12470 O 397.788 5.7877 6.5624 0
M  V30 12471 C 397.298 3.47817 6.12078 0
M  V30 12472 C 398.008 3.39414 4.77697 0
M  V30 12473 N 397.958 2.04199 4.15538 0
M  V30 12474 H 400.797 3.41248 7.98759 0
M  V30 12475 H 401.069 2.57728 6.42 0
M  V30 12476 H 400.201 5.02657 6.42673 0
M  V30 12477 H 397.546 4.11708 4.08956 0
M  V30 12478 H 397.266 2.49626 6.61679 0
M  V30 12479 H 396.275 3.8662 6.00862 0
M  V30 12480 H 398.109 4.29991 7.97006 0
M  V30 12481 P 396.238 6.144 6.45285 0
M  V30 12482 O 396.018 7.54673 6.86199 0
M  V30 12483 O 395.448 5.12391 7.179 0
M  V30 12484 O 395.988 5.99158 4.88404 0
M  V30 12485 C 396.928 6.60234 3.96415 0
M  V30 12486 C 396.198 7.08259 2.72856 0
M  V30 12487 O 395.988 5.9427 1.83651 0
M  V30 12488 C 394.798 7.64886 2.9555 0
M  V30 12489 O 394.408 8.53963 1.90717 0
M  V30 12490 C 393.918 6.4116 2.90739 0
M  V30 12491 C 394.628 5.55375 1.86963 0
M  V30 12492 N 394.578 4.09664 2.15742 0
M  V30 12493 H 397.417 7.45574 4.45629 0
M  V30 12494 H 397.689 5.86232 3.67314 0
M  V30 12495 H 396.821 7.84412 2.24479 0
M  V30 12496 P 392.858 8.7635 1.60911 0
M  V30 12497 O 392.638 10.1388 1.11561 0
M  V30 12498 O 392.068 8.36503 2.79617 0
M  V30 12499 O 392.608 7.71806 0.42951 0
M  V30 12500 C 393.548 7.67148 -0.673689 0
M  V30 12501 C 392.818 7.33374 -1.95559 0
M  V30 12502 O 392.608 5.88721 -2.00726 0
M  V30 12503 C 391.418 7.92526 -2.10483 0
M  V30 12504 O 391.028 8.02971 -3.47653 0
M  V30 12505 C 390.538 6.89602 -1.41652 0
M  V30 12506 C 391.248 5.59201 -1.75185 0
M  V30 12507 N 391.198 4.58235 -0.662552 0
M  V30 12508 C 391.278 4.7683 0.704049 0
M  V30 12509 N 391.198 3.66233 1.39775 0
M  V30 12510 C 391.058 2.66526 0.431739 0
M  V30 12511 C 390.928 1.26394 0.575992 0
M  V30 12512 N 390.808 0.62859 -0.67177 0
M  V30 12513 C 390.808 1.27134 -1.89385 0
M  V30 12514 N 390.678 0.492035 -2.96951 0
M  V30 12515 N 390.938 2.58978 -2.02907 0
M  V30 12516 C 391.058 3.22433 -0.832218 0
M  V30 12517 H 394.037 8.65116 -0.777161 0
M  V30 12518 H 394.309 6.90173 -0.474152 0
M  V30 12519 H 393.441 7.66548 -2.79458 0
M  V30 12520 P 389.478 8.03563 -3.84925 0
M  V30 12521 O 389.258 8.85821 -5.0569 0
M  V30 12522 O 388.688 8.41101 -2.65469 0
M  V30 12523 O 389.228 6.4965 -4.18908 0
M  V30 12524 C 390.168 5.81037 -5.05421 0
M  V30 12525 C 389.438 4.78366 -5.89277 0
M  V30 12526 O 389.228 3.58302 -5.08433 0
M  V30 12527 C 388.038 5.17448 -6.36119 0
M  V30 12528 O 387.648 4.45271 -7.53232 0
M  V30 12529 C 387.158 4.74639 -5.19936 0
M  V30 12530 C 387.868 3.49432 -4.70418 0
M  V30 12531 N 387.818 3.32099 -3.22613 0
M  V30 12532 H 390.657 6.54213 -5.71376 0
M  V30 12533 H 390.929 5.30936 -4.43503 0
M  V30 12534 H 390.061 4.55889 -6.76652 0
M  V30 12535 H 387.406 2.61715 -5.17932 0
M  V30 12536 H 387.126 5.52155 -4.41878 0
M  V30 12537 H 386.135 4.51981 -5.53374 0
M  V30 12538 H 387.969 6.25124 -6.55234 0
M  V30 12539 P 386.098 4.23843 -7.83734 0
M  V30 12540 O 385.878 4.19407 -9.29784 0
M  V30 12541 O 385.308 5.24426 -7.09156 0
M  V30 12542 O 385.848 2.7935 -7.20758 0
M  V30 12543 C 386.788 1.7299 -7.50419 0
M  V30 12544 C 386.058 0.406376 -7.57911 0
M  V30 12545 O 385.848 -0.0897726 -6.21935 0
M  V30 12546 C 384.658 0.447224 -8.1878 0
M  V30 12547 O 384.268 -0.825065 -8.71101 0
M  V30 12548 C 383.778 0.783801 -6.99623 0
M  V30 12549 C 384.488 0.0619192 -5.85967 0
M  V30 12550 N 384.438 0.790462 -4.56202 0
M  V30 12551 H 387.277 1.93423 -8.4679 0
M  V30 12552 H 387.549 1.68852 -6.70877 0
M  V30 12553 H 386.681 -0.289041 -8.15388 0
M  V30 12554 H 384.026 -0.927006 -5.72848 0
M  V30 12555 H 383.746 1.86973 -6.82036 0
M  V30 12556 H 382.755 0.403953 -7.13357 0
M  V30 12557 H 384.589 1.20599 -8.97534 0
M  V30 12558 P 382.718 -1.17771 -8.83182 0
M  V30 12559 O 382.498 -2.07206 -9.98732 0
M  V30 12560 O 381.928 0.0743816 -8.81969 0
M  V30 12561 O 382.468 -1.97652 -7.47304 0
M  V30 12562 C 383.408 -3.01133 -7.08783 0
M  V30 12563 C 382.678 -4.12613 -6.37049 0
M  V30 12564 O 382.468 -3.72827 -4.97879 0
M  V30 12565 C 381.278 -4.45085 -6.88694 0
M  V30 12566 O 380.888 -5.7877 -6.5624 0
M  V30 12567 C 380.398 -3.47817 -6.12078 0
M  V30 12568 C 381.108 -3.39414 -4.77697 0
M  V30 12569 N 381.058 -2.04615 -4.15333 0
M  V30 12570 H 383.897 -3.41248 -7.98759 0
M  V30 12571 H 384.169 -2.5837 -6.41742 0
M  V30 12572 H 383.301 -5.02657 -6.42673 0
M  V30 12573 P 379.338 -6.144 -6.45285 0
M  V30 12574 O 379.118 -7.54673 -6.86199 0
M  V30 12575 O 378.548 -5.12391 -7.179 0
M  V30 12576 O 379.088 -5.99158 -4.88404 0
M  V30 12577 C 380.028 -6.60234 -3.96415 0
M  V30 12578 C 379.298 -7.08259 -2.72856 0
M  V30 12579 O 379.088 -5.9427 -1.83651 0
M  V30 12580 C 377.898 -7.64886 -2.9555 0
M  V30 12581 O 377.508 -8.53963 -1.90717 0
M  V30 12582 C 377.018 -6.4116 -2.90739 0
M  V30 12583 C 377.728 -5.55375 -1.86963 0
M  V30 12584 N 377.678 -4.09448 -2.16152 0
M  V30 12585 H 380.517 -7.45574 -4.45629 0
M  V30 12586 H 380.789 -5.85864 -3.679 0
M  V30 12587 H 379.921 -7.84412 -2.24479 0
M  V30 12588 H 377.266 -5.73457 -0.888562 0
M  V30 12589 H 376.986 -5.90877 -3.88583 0
M  V30 12590 H 375.995 -6.6596 -2.58858 0
M  V30 12591 H 377.829 -8.16339 -3.92049 0
M  V30 12592 P 375.958 -8.7635 -1.60911 0
M  V30 12593 O 375.738 -10.1388 -1.11561 0
M  V30 12594 O 375.168 -8.36503 -2.79617 0
M  V30 12595 O 375.708 -7.71806 -0.42951 0
M  V30 12596 C 376.648 -7.67148 0.673689 0
M  V30 12597 C 375.918 -7.33374 1.95559 0
M  V30 12598 O 375.708 -5.88721 2.00726 0
M  V30 12599 C 374.518 -7.92526 2.10483 0
M  V30 12600 O 374.128 -8.02971 3.47653 0
M  V30 12601 C 373.638 -6.89602 1.41652 0
M  V30 12602 C 374.348 -5.59201 1.75185 0
M  V30 12603 N 374.298 -4.58301 0.657969 0
M  V30 12604 H 377.137 -8.65116 0.777161 0
M  V30 12605 H 377.409 -6.9022 0.46725 0
M  V30 12606 H 376.541 -7.66548 2.79458 0
M  V30 12607 H 373.886 -5.16165 2.65183 0
M  V30 12608 H 373.606 -7.06433 0.329384 0
M  V30 12609 H 372.615 -6.90926 1.82021 0
M  V30 12610 H 374.449 -8.90873 1.62657 0
M  V30 12611 P 372.578 -8.03563 3.84925 0
M  V30 12612 O 372.358 -8.85821 5.0569 0
M  V30 12613 O 371.788 -8.41101 2.65469 0
M  V30 12614 O 372.328 -6.4965 4.18908 0
M  V30 12615 C 373.268 -5.81037 5.05421 0
M  V30 12616 C 372.538 -4.78366 5.89277 0
M  V30 12617 O 372.328 -3.58302 5.08433 0
M  V30 12618 C 371.138 -5.17448 6.36119 0
M  V30 12619 O 370.748 -4.45271 7.53232 0
M  V30 12620 C 370.258 -4.74639 5.19936 0
M  V30 12621 C 370.968 -3.49432 4.70418 0
M  V30 12622 N 370.918 -3.32099 3.22613 0
M  V30 12623 H 373.757 -6.54213 5.71376 0
M  V30 12624 H 374.029 -5.30936 4.43503 0
M  V30 12625 H 373.161 -4.55889 6.76652 0
M  V30 12626 H 370.506 -2.61715 5.17932 0
M  V30 12627 H 370.226 -5.52155 4.41878 0
M  V30 12628 H 369.235 -4.51981 5.53374 0
M  V30 12629 H 371.069 -6.25124 6.55234 0
M  V30 12630 P 369.198 -4.23843 7.83734 0
M  V30 12631 O 368.978 -4.19407 9.29784 0
M  V30 12632 O 368.408 -5.24426 7.09156 0
M  V30 12633 O 368.948 -2.7935 7.20758 0
M  V30 12634 C 369.888 -1.7299 7.50419 0
M  V30 12635 C 369.158 -0.406376 7.57911 0
M  V30 12636 O 368.948 0.0897726 6.21935 0
M  V30 12637 C 367.758 -0.447224 8.1878 0
M  V30 12638 O 367.368 0.825065 8.71101 0
M  V30 12639 C 366.878 -0.783801 6.99623 0
M  V30 12640 C 367.588 -0.0619192 5.85967 0
M  V30 12641 N 367.538 -0.790462 4.56202 0
M  V30 12642 C 367.618 -2.13895 4.34171 0
M  V30 12643 N 367.548 -2.46449 3.08687 0
M  V30 12644 C 367.398 -1.2525 2.43697 0
M  V30 12645 C 367.268 -0.914535 1.07318 0
M  V30 12646 N 367.258 -1.80782 0.0887348 0
M  V30 12647 N 367.148 0.386745 0.768133 0
M  V30 12648 C 367.158 1.28096 1.75159 0
M  V30 12649 N 367.278 1.09708 3.04861 0
M  V30 12650 C 367.398 -0.214857 3.32306 0
M  V30 12651 H 370.377 -1.93423 8.4679 0
M  V30 12652 H 370.649 -1.68852 6.70877 0
M  V30 12653 H 369.781 0.289041 8.15388 0
M  V30 12654 H 367.126 0.927006 5.72848 0
M  V30 12655 H 366.846 -1.86973 6.82036 0
M  V30 12656 H 365.855 -0.403953 7.13357 0
M  V30 12657 H 367.689 -1.20599 8.97534 0
M  V30 12658 H 367.73 -2.86846 5.14318 0
M  V30 12659 H 367.349 -2.81082 0.302037 0
M  V30 12660 H 367.16 -1.49688 -0.889064 0
M  V30 12661 H 367.052 2.31317 1.43855 0
M  V30 12662 P 365.818 1.17771 8.83182 0
M  V30 12663 O 365.598 2.07206 9.98732 0
M  V30 12664 O 365.028 -0.0743816 8.81969 0
M  V30 12665 O 365.568 1.97652 7.47304 0
M  V30 12666 C 366.508 3.01133 7.08783 0
M  V30 12667 C 365.778 4.12613 6.37049 0
M  V30 12668 O 365.568 3.72827 4.97879 0
M  V30 12669 C 364.378 4.45085 6.88694 0
M  V30 12670 O 363.988 5.7877 6.5624 0
M  V30 12671 C 363.498 3.47817 6.12078 0
M  V30 12672 C 364.208 3.39414 4.77697 0
M  V30 12673 N 364.158 2.04199 4.15538 0
M  V30 12674 C 364.238 0.821545 4.76977 0
M  V30 12675 N 364.168 -0.1794 3.94592 0
M  V30 12676 C 364.018 0.419121 2.70776 0
M  V30 12677 C 363.888 -0.109072 1.40577 0
M  V30 12678 N 363.878 -1.4104 1.1344 0
M  V30 12679 N 363.768 0.764381 0.39411 0
M  V30 12680 C 363.778 2.06587 0.664135 0
M  V30 12681 N 363.898 2.67948 1.82153 0
M  V30 12682 C 364.018 1.77942 2.8147 0
M  V30 12683 H 366.997 3.41248 7.98759 0
M  V30 12684 H 367.269 2.57728 6.42 0
M  V30 12685 H 366.401 5.02657 6.42673 0
M  V30 12686 H 363.746 4.11708 4.08956 0
M  V30 12687 H 363.466 2.49626 6.61679 0
M  V30 12688 H 362.475 3.8662 6.00862 0
M  V30 12689 H 364.309 4.29991 7.97006 0
M  V30 12690 H 364.35 0.702451 5.84696 0
M  V30 12691 H 363.969 -2.09647 1.89651 0
M  V30 12692 H 363.78 -1.73358 0.160575 0
M  V30 12693 H 363.672 2.71695 -0.195838 0
M  V30 12694 P 362.438 6.144 6.45285 0
M  V30 12695 O 362.218 7.54673 6.86199 0
M  V30 12696 O 361.648 5.12391 7.179 0
M  V30 12697 O 362.188 5.99158 4.88404 0
M  V30 12698 C 363.128 6.60234 3.96415 0
M  V30 12699 C 362.398 7.08259 2.72856 0
M  V30 12700 O 362.188 5.9427 1.83651 0
M  V30 12701 C 360.998 7.64886 2.9555 0
M  V30 12702 O 360.608 8.53963 1.90717 0
M  V30 12703 C 360.118 6.4116 2.90739 0
M  V30 12704 C 360.828 5.55375 1.86963 0
M  V30 12705 N 360.778 4.09448 2.16152 0
M  V30 12706 H 363.617 7.45574 4.45629 0
M  V30 12707 H 363.889 5.85864 3.679 0
M  V30 12708 H 363.021 7.84412 2.24479 0
M  V30 12709 H 360.366 5.73457 0.888562 0
M  V30 12710 H 360.086 5.90877 3.88583 0
M  V30 12711 H 359.095 6.6596 2.58858 0
M  V30 12712 H 360.929 8.16339 3.92049 0
M  V30 12713 P 359.058 8.7635 1.60911 0
M  V30 12714 O 358.838 10.1388 1.11561 0
M  V30 12715 O 358.268 8.36503 2.79617 0
M  V30 12716 O 358.808 7.71806 0.42951 0
M  V30 12717 C 359.748 7.67148 -0.673689 0
M  V30 12718 C 359.018 7.33374 -1.95559 0
M  V30 12719 O 358.808 5.88721 -2.00726 0
M  V30 12720 C 357.618 7.92526 -2.10483 0
M  V30 12721 O 357.228 8.02971 -3.47653 0
M  V30 12722 C 356.738 6.89602 -1.41652 0
M  V30 12723 C 357.448 5.59201 -1.75185 0
M  V30 12724 N 357.398 4.58235 -0.662552 0
M  V30 12725 H 360.237 8.65116 -0.777161 0
M  V30 12726 H 360.509 6.90173 -0.474152 0
M  V30 12727 H 359.641 7.66548 -2.79458 0
M  V30 12728 P 355.678 8.03563 -3.84925 0
M  V30 12729 O 355.458 8.85821 -5.0569 0
M  V30 12730 O 354.888 8.41101 -2.65469 0
M  V30 12731 O 355.428 6.4965 -4.18908 0
M  V30 12732 C 356.368 5.81037 -5.05421 0
M  V30 12733 C 355.638 4.78366 -5.89277 0
M  V30 12734 O 355.428 3.58302 -5.08433 0
M  V30 12735 C 354.238 5.17448 -6.36119 0
M  V30 12736 O 353.848 4.45271 -7.53232 0
M  V30 12737 C 353.358 4.74639 -5.19936 0
M  V30 12738 C 354.068 3.49432 -4.70418 0
M  V30 12739 N 354.018 3.32099 -3.22613 0
M  V30 12740 H 356.857 6.54213 -5.71376 0
M  V30 12741 H 357.129 5.30936 -4.43503 0
M  V30 12742 H 356.261 4.55889 -6.76652 0
M  V30 12743 H 353.606 2.61715 -5.17932 0
M  V30 12744 H 353.326 5.52155 -4.41878 0
M  V30 12745 H 352.335 4.51981 -5.53374 0
M  V30 12746 H 354.169 6.25124 -6.55234 0
M  V30 12747 P 352.298 4.23843 -7.83734 0
M  V30 12748 O 352.078 4.19407 -9.29784 0
M  V30 12749 O 351.508 5.24426 -7.09156 0
M  V30 12750 O 352.048 2.7935 -7.20758 0
M  V30 12751 C 352.988 1.7299 -7.50419 0
M  V30 12752 C 352.258 0.406376 -7.57911 0
M  V30 12753 O 352.048 -0.0897726 -6.21935 0
M  V30 12754 C 350.858 0.447224 -8.1878 0
M  V30 12755 O 350.468 -0.825065 -8.71101 0
M  V30 12756 C 349.978 0.783801 -6.99623 0
M  V30 12757 C 350.688 0.0619192 -5.85967 0
M  V30 12758 N 350.638 0.7859 -4.56281 0
M  V30 12759 H 353.477 1.93423 -8.4679 0
M  V30 12760 H 353.749 1.68181 -6.71046 0
M  V30 12761 H 352.881 -0.289041 -8.15388 0
M  V30 12762 P 348.918 -1.17771 -8.83182 0
M  V30 12763 O 348.698 -2.07206 -9.98732 0
M  V30 12764 O 348.128 0.0743816 -8.81969 0
M  V30 12765 O 348.668 -1.97678 -7.474 0
M  V30 12766 C 349.608 -3.01133 -7.08783 0
M  V30 12767 C 348.878 -4.1203 -6.37546 0
M  V30 12768 O 348.668 -3.72887 -4.9796 0
M  V30 12769 C 347.478 -4.45085 -6.88694 0
M  V30 12770 O 347.088 -5.78836 -6.56315 0
M  V30 12771 C 346.598 -3.47817 -6.12078 0
M  V30 12772 C 347.308 -3.39414 -4.77697 0
M  V30 12773 N 347.258 -2.04615 -4.15333 0
M  V30 12774 C 347.108 -1.96929 -2.77162 0
M  V30 12775 O 347.018 -3.02017 -2.12006 0
M  V30 12776 N 347.058 -0.55485 -2.24237 0
M  V30 12777 C 347.158 0.367808 -2.9169 0
M  V30 12778 N 347.108 1.53426 -2.29427 0
M  V30 12779 C 347.308 0.319148 -4.33828 0
M  V30 12780 C 347.358 -0.920672 -4.90433 0
M  V30 12781 H 350.098 -3.41209 -7.98667 0
M  V30 12782 H 350.368 -2.5837 -6.41742 0
M  V30 12783 H 349.501 -5.02718 -6.42752 0
M  V30 12784 H 346.846 -4.11779 -4.09026 0
M  V30 12785 H 346.566 -2.49661 -6.61772 0
M  V30 12786 H 345.575 -3.86674 -6.00946 0
M  V30 12787 H 347.409 -4.29991 -7.97006 0
M  V30 12788 H 347.481 -1.00589 -5.98303 0
M  V30 12789 H 347.379 1.22639 -4.93799 0
M  V30 12790 H 346.991 1.56819 -1.27167 0
M  V30 12791 H 347.187 2.41062 -2.83063 0
M  V30 12792 P 345.538 -6.144 -6.45285 0
M  V30 12793 O 345.318 -7.54673 -6.86199 0
M  V30 12794 O 344.748 -5.12391 -7.179 0
M  V30 12795 O 345.288 -5.99236 -4.88467 0
M  V30 12796 C 346.228 -6.60234 -3.96415 0
M  V30 12797 C 345.498 -7.08079 -2.736 0
M  V30 12798 O 345.288 -5.94365 -1.8368 0
M  V30 12799 C 344.098 -7.64886 -2.9555 0
M  V30 12800 O 343.708 -8.5406 -1.90739 0
M  V30 12801 C 343.218 -6.4116 -2.90739 0
M  V30 12802 C 343.928 -5.55375 -1.86963 0
M  V30 12803 N 343.878 -4.09664 -2.15742 0
M  V30 12804 C 343.728 -3.22231 -1.08477 0
M  V30 12805 O 343.638 -3.68951 0.0600489 0
M  V30 12806 N 343.678 -1.76692 -1.48799 0
M  V30 12807 C 343.778 -1.41695 -2.57602 0
M  V30 12808 N 343.728 -0.107296 -2.75791 0
M  V30 12809 C 343.928 -2.29178 -3.69733 0
M  V30 12810 C 343.978 -3.62753 -3.42653 0
M  V30 12811 H 346.718 -7.45488 -4.45578 0
M  V30 12812 H 346.988 -5.86232 -3.67314 0
M  V30 12813 H 346.121 -7.84508 -2.24507 0
M  V30 12814 H 343.466 -5.73556 -0.888715 0
M  V30 12815 H 343.186 -5.9096 -3.88638 0
M  V30 12816 H 342.195 -6.66053 -2.58894 0
M  V30 12817 H 344.029 -8.16339 -3.92049 0
M  V30 12818 H 344.101 -4.33052 -4.24913 0
M  V30 12819 H 343.999 -1.9103 -4.71577 0
M  V30 12820 H 343.611 0.521221 -1.95056 0
M  V30 12821 H 343.807 0.286429 -3.70695 0
M  V30 12822 P 342.158 -8.7635 -1.60911 0
M  V30 12823 O 341.938 -10.1388 -1.11561 0
M  V30 12824 O 341.368 -8.36503 -2.79617 0
M  V30 12825 O 341.908 -7.71806 -0.42951 0
M  V30 12826 C 342.848 -7.67148 0.673689 0
M  V30 12827 C 342.118 -7.33374 1.95559 0
M  V30 12828 O 341.908 -5.88721 2.00726 0
M  V30 12829 C 340.718 -7.92526 2.10483 0
M  V30 12830 O 340.328 -8.02971 3.47653 0
M  V30 12831 C 339.838 -6.89602 1.41652 0
M  V30 12832 C 340.548 -5.59201 1.75185 0
M  V30 12833 N 340.498 -4.58235 0.662552 0
M  V30 12834 H 343.337 -8.65116 0.777161 0
M  V30 12835 H 343.609 -6.90173 0.474152 0
M  V30 12836 H 342.741 -7.66548 2.79458 0
M  V30 12837 P 338.778 -8.03563 3.84925 0
M  V30 12838 O 338.558 -8.85821 5.0569 0
M  V30 12839 O 337.988 -8.41101 2.65469 0
M  V30 12840 O 338.528 -6.4965 4.18908 0
M  V30 12841 C 339.468 -5.81037 5.05421 0
M  V30 12842 C 338.738 -4.78366 5.89277 0
M  V30 12843 O 338.528 -3.58302 5.08433 0
M  V30 12844 C 337.338 -5.17448 6.36119 0
M  V30 12845 O 336.948 -4.45271 7.53232 0
M  V30 12846 C 336.458 -4.74639 5.19936 0
M  V30 12847 C 337.168 -3.49432 4.70418 0
M  V30 12848 N 337.118 -3.31776 3.22945 0
M  V30 12849 H 339.957 -6.54213 5.71376 0
M  V30 12850 H 340.229 -5.30492 4.44033 0
M  V30 12851 H 339.361 -4.55889 6.76652 0
M  V30 12852 P 335.398 -4.23843 7.83734 0
M  V30 12853 O 335.178 -4.19407 9.29784 0
M  V30 12854 O 334.608 -5.24426 7.09156 0
M  V30 12855 O 335.148 -2.7935 7.20758 0
M  V30 12856 C 336.088 -1.7299 7.50419 0
M  V30 12857 C 335.358 -0.406376 7.57911 0
M  V30 12858 O 335.148 0.0897726 6.21935 0
M  V30 12859 C 333.958 -0.447224 8.1878 0
M  V30 12860 O 333.568 0.825065 8.71101 0
M  V30 12861 C 333.078 -0.783801 6.99623 0
M  V30 12862 C 333.788 -0.0619192 5.85967 0
M  V30 12863 N 333.738 -0.7859 4.56281 0
M  V30 12864 H 336.577 -1.93423 8.4679 0
M  V30 12865 H 336.849 -1.68181 6.71046 0
M  V30 12866 H 335.981 0.289041 8.15388 0
M  V30 12867 P 332.018 1.17771 8.83182 0
M  V30 12868 O 331.798 2.07206 9.98732 0
M  V30 12869 O 331.228 -0.0743816 8.81969 0
M  V30 12870 O 331.768 1.97652 7.47304 0
M  V30 12871 C 332.708 3.01133 7.08783 0
M  V30 12872 C 331.978 4.12613 6.37049 0
M  V30 12873 O 331.768 3.72827 4.97879 0
M  V30 12874 C 330.578 4.45085 6.88694 0
M  V30 12875 O 330.188 5.7877 6.5624 0
M  V30 12876 C 329.698 3.47817 6.12078 0
M  V30 12877 C 330.408 3.39414 4.77697 0
M  V30 12878 N 330.358 2.04199 4.15538 0
M  V30 12879 H 333.197 3.41248 7.98759 0
M  V30 12880 H 333.469 2.57728 6.42 0
M  V30 12881 H 332.601 5.02657 6.42673 0
M  V30 12882 H 329.946 4.11708 4.08956 0
M  V30 12883 H 329.666 2.49626 6.61679 0
M  V30 12884 H 328.675 3.8662 6.00862 0
M  V30 12885 H 330.509 4.29991 7.97006 0
M  V30 12886 P 328.638 6.144 6.45285 0
M  V30 12887 O 328.418 7.54673 6.86199 0
M  V30 12888 O 327.848 5.12391 7.179 0
M  V30 12889 O 328.388 5.99158 4.88404 0
M  V30 12890 C 329.328 6.60234 3.96415 0
M  V30 12891 C 328.598 7.08259 2.72856 0
M  V30 12892 O 328.388 5.9427 1.83651 0
M  V30 12893 C 327.198 7.64886 2.9555 0
M  V30 12894 O 326.808 8.53963 1.90717 0
M  V30 12895 C 326.318 6.4116 2.90739 0
M  V30 12896 C 327.028 5.55375 1.86963 0
M  V30 12897 N 326.978 4.09664 2.15742 0
M  V30 12898 H 329.817 7.45574 4.45629 0
M  V30 12899 H 330.089 5.86232 3.67314 0
M  V30 12900 H 329.221 7.84412 2.24479 0
M  V30 12901 P 325.258 8.7635 1.60911 0
M  V30 12902 O 325.038 10.1388 1.11561 0
M  V30 12903 O 324.468 8.36503 2.79617 0
M  V30 12904 O 325.008 7.71806 0.42951 0
M  V30 12905 C 325.948 7.67148 -0.673689 0
M  V30 12906 C 325.218 7.33374 -1.95559 0
M  V30 12907 O 325.008 5.88721 -2.00726 0
M  V30 12908 C 323.818 7.92526 -2.10483 0
M  V30 12909 O 323.428 8.02971 -3.47653 0
M  V30 12910 C 322.938 6.89602 -1.41652 0
M  V30 12911 C 323.648 5.59201 -1.75185 0
M  V30 12912 N 323.598 4.58235 -0.662552 0
M  V30 12913 H 326.437 8.65116 -0.777161 0
M  V30 12914 H 326.709 6.90173 -0.474152 0
M  V30 12915 H 325.841 7.66548 -2.79458 0
M  V30 12916 P 321.878 8.03563 -3.84925 0
M  V30 12917 O 321.658 8.85821 -5.0569 0
M  V30 12918 O 321.088 8.41101 -2.65469 0
M  V30 12919 O 321.628 6.4965 -4.18908 0
M  V30 12920 C 322.568 5.81037 -5.05421 0
M  V30 12921 C 321.838 4.78366 -5.89277 0
M  V30 12922 O 321.628 3.58302 -5.08433 0
M  V30 12923 C 320.438 5.17448 -6.36119 0
M  V30 12924 O 320.048 4.45271 -7.53232 0
M  V30 12925 C 319.558 4.74639 -5.19936 0
M  V30 12926 C 320.268 3.49432 -4.70418 0
M  V30 12927 N 320.218 3.31776 -3.22945 0
M  V30 12928 H 323.057 6.54213 -5.71376 0
M  V30 12929 H 323.329 5.30492 -4.44033 0
M  V30 12930 H 322.461 4.55889 -6.76652 0
M  V30 12931 P 318.498 4.23843 -7.83734 0
M  V30 12932 O 318.278 4.19407 -9.29784 0
M  V30 12933 O 317.708 5.24426 -7.09156 0
M  V30 12934 O 318.248 2.7935 -7.20758 0
M  V30 12935 C 319.188 1.72945 -7.50224 0
M  V30 12936 C 318.458 0.406376 -7.57911 0
M  V30 12937 O 318.248 -0.0897726 -6.21935 0
M  V30 12938 C 317.058 0.438983 -8.18724 0
M  V30 12939 O 316.668 -0.825065 -8.71101 0
M  V30 12940 C 316.178 0.783689 -6.99524 0
M  V30 12941 C 316.888 0.0619086 -5.85867 0
M  V30 12942 N 316.838 0.78573 -4.56183 0
M  V30 12943 C 316.688 0.0292889 -3.41887 0
M  V30 12944 O 316.598 -1.18445 -3.4419 0
M  V30 12945 N 316.648 0.744061 -2.23964 0
M  V30 12946 C 316.738 2.10932 -2.10362 0
M  V30 12947 C 316.888 2.8202 -3.34994 0
M  V30 12948 C 316.938 2.15547 -4.52261 0
M  V30 12949 H 319.679 1.93379 -8.46595 0
M  V30 12950 H 319.948 1.68132 -6.70852 0
M  V30 12951 H 319.081 -0.289041 -8.15388 0
M  V30 12952 H 316.426 -0.926847 -5.72749 0
M  V30 12953 H 316.147 1.86973 -6.82036 0
M  V30 12954 H 315.155 0.403896 -7.13257 0
M  V30 12955 H 316.989 1.20585 -8.97435 0
M  V30 12956 H 317.06 2.71231 -5.45042 0
M  V30 12957 P 315.118 -1.17771 -8.83182 0
M  V30 12958 O 314.898 -2.07206 -9.98732 0
M  V30 12959 O 314.328 0.0743816 -8.81969 0
M  V30 12960 O 314.868 -1.97652 -7.47304 0
M  V30 12961 C 315.808 -3.01133 -7.08783 0
M  V30 12962 C 315.078 -4.12613 -6.37049 0
M  V30 12963 O 314.868 -3.72827 -4.97879 0
M  V30 12964 C 313.678 -4.45085 -6.88694 0
M  V30 12965 O 313.288 -5.7877 -6.5624 0
M  V30 12966 C 312.798 -3.47817 -6.12078 0
M  V30 12967 C 313.508 -3.39414 -4.77697 0
M  V30 12968 N 313.458 -2.04615 -4.15333 0
M  V30 12969 H 316.297 -3.41248 -7.98759 0
M  V30 12970 H 316.569 -2.5837 -6.41742 0
M  V30 12971 H 315.701 -5.02657 -6.42673 0
M  V30 12972 P 311.738 -6.144 -6.45285 0
M  V30 12973 O 311.518 -7.54673 -6.86199 0
M  V30 12974 O 310.948 -5.12391 -7.179 0
M  V30 12975 O 311.488 -5.99158 -4.88404 0
M  V30 12976 C 312.428 -6.60062 -3.96313 0
M  V30 12977 C 311.698 -7.08259 -2.72856 0
M  V30 12978 O 311.488 -5.9427 -1.83651 0
M  V30 12979 C 310.298 -7.65087 -2.94749 0
M  V30 12980 O 309.908 -8.53963 -1.90717 0
M  V30 12981 C 309.418 -6.41069 -2.90698 0
M  V30 12982 C 310.128 -5.5528 -1.86931 0
M  V30 12983 N 310.078 -4.09575 -2.15696 0
M  V30 12984 C 309.928 -3.24249 -1.08435 0
M  V30 12985 O 309.838 -3.63946 0.0628747 0
M  V30 12986 N 309.888 -1.90009 -1.39973 0
M  V30 12987 C 309.978 -1.34884 -2.65614 0
M  V30 12988 O 309.928 -0.123716 -2.81728 0
M  V30 12989 C 310.128 -2.3145 -3.71736 0
M  V30 12990 C 310.238 -1.75913 -5.10438 0
M  V30 12991 C 310.178 -3.63518 -3.44754 0
M  V30 12992 H 312.919 -7.45402 -4.45526 0
M  V30 12993 H 313.188 -5.86062 -3.67208 0
M  V30 12994 H 312.321 -7.84412 -2.24479 0
M  V30 12995 H 309.666 -5.73358 -0.888409 0
M  V30 12996 H 309.387 -5.90877 -3.88583 0
M  V30 12997 H 308.395 -6.65867 -2.58821 0
M  V30 12998 H 310.229 -8.16248 -3.92006 0
M  V30 12999 H 310.3 -4.34551 -4.26383 0
M  V30 13000 H 309.27 -1.85471 -5.61775 0
M  V30 13001 H 311.007 -2.31364 -5.66257 0
M  V30 13002 H 310.519 -0.695936 -5.05229 0
M  V30 13003 H 309.783 -1.26277 -0.63625 0
M  V30 13004 P 308.358 -8.7635 -1.60911 0
M  V30 13005 O 308.138 -10.1388 -1.11561 0
M  V30 13006 O 307.568 -8.36503 -2.79617 0
M  V30 13007 O 308.108 -7.71806 -0.42951 0
M  V30 13008 C 309.048 -7.67148 0.673689 0
M  V30 13009 C 308.318 -7.33374 1.95559 0
M  V30 13010 O 308.108 -5.88721 2.00726 0
M  V30 13011 C 306.918 -7.92526 2.10483 0
M  V30 13012 O 306.528 -8.02971 3.47653 0
M  V30 13013 C 306.038 -6.89602 1.41652 0
M  V30 13014 C 306.748 -5.59201 1.75185 0
M  V30 13015 N 306.698 -4.58301 0.657969 0
M  V30 13016 C 306.778 -4.79019 -0.692603 0
M  V30 13017 N 306.708 -3.69736 -1.38998 0
M  V30 13018 C 306.558 -2.70474 -0.438135 0
M  V30 13019 C 306.428 -1.30327 -0.538142 0
M  V30 13020 N 306.418 -0.64304 -1.69192 0
M  V30 13021 N 306.308 -0.611027 0.605183 0
M  V30 13022 C 306.318 -1.27002 1.75953 0
M  V30 13023 N 306.438 -2.56038 1.98546 0
M  V30 13024 C 306.558 -3.22681 0.822541 0
M  V30 13025 H 309.537 -8.65116 0.777161 0
M  V30 13026 H 309.809 -6.9022 0.46725 0
M  V30 13027 H 308.941 -7.66548 2.79458 0
M  V30 13028 H 306.286 -5.16165 2.65183 0
M  V30 13029 H 306.006 -7.06433 0.329384 0
M  V30 13030 H 305.015 -6.90926 1.82021 0
M  V30 13031 H 306.849 -8.90873 1.62657 0
M  V30 13032 H 306.89 -5.77785 -1.13874 0
M  V30 13033 H 306.509 -1.15585 -2.57991 0
M  V30 13034 H 306.32 0.382989 -1.69835 0
M  V30 13035 H 306.212 -0.653331 2.64449 0
M  V30 13036 P 304.978 -8.03563 3.84925 0
M  V30 13037 O 304.758 -8.85821 5.0569 0
M  V30 13038 O 304.188 -8.41101 2.65469 0
M  V30 13039 O 304.728 -6.4965 4.18908 0
M  V30 13040 C 305.668 -5.80886 5.05289 0
M  V30 13041 C 304.938 -4.78366 5.89277 0
M  V30 13042 O 304.728 -3.58302 5.08433 0
M  V30 13043 C 303.538 -5.16748 6.36559 0
M  V30 13044 O 303.148 -4.45271 7.53232 0
M  V30 13045 C 302.658 -4.74572 5.19863 0
M  V30 13046 C 303.368 -3.49373 4.70338 0
M  V30 13047 N 303.318 -3.31704 3.22876 0
M  V30 13048 C 303.168 -2.03326 2.74871 0
M  V30 13049 O 303.078 -1.06486 3.48076 0
M  V30 13050 N 303.128 -1.91838 1.37456 0
M  V30 13051 C 303.218 -2.94295 0.462035 0
M  V30 13052 O 303.168 -2.71763 -0.752928 0
M  V30 13053 C 303.368 -4.25064 1.05249 0
M  V30 13054 C 303.478 -5.39815 0.095697 0
M  V30 13055 C 303.418 -4.40214 2.39192 0
M  V30 13056 H 306.159 -6.54063 5.71245 0
M  V30 13057 H 306.428 -5.30339 4.43905 0
M  V30 13058 H 305.561 -4.55889 6.76652 0
M  V30 13059 H 302.906 -2.6167 5.17842 0
M  V30 13060 H 302.627 -5.52155 4.41878 0
M  V30 13061 H 301.635 -4.51918 5.53297 0
M  V30 13062 H 303.469 -6.25055 6.55162 0
M  V30 13063 H 303.54 -5.39798 2.81523 0
M  V30 13064 H 302.51 -5.91593 0.0279582 0
M  V30 13065 H 304.247 -6.10038 0.450573 0
M  V30 13066 H 303.759 -5.02007 -0.89937 0
M  V30 13067 H 303.023 -0.995326 1.00435 0
M  V30 13068 P 301.598 -4.23843 7.83734 0
M  V30 13069 O 301.378 -4.19407 9.29784 0
M  V30 13070 O 300.808 -5.24426 7.09156 0
M  V30 13071 O 301.348 -2.7935 7.20758 0
M  V30 13072 C 302.288 -1.72945 7.50224 0
M  V30 13073 C 301.558 -0.406376 7.57911 0
M  V30 13074 O 301.348 0.0897726 6.21935 0
M  V30 13075 C 300.158 -0.438983 8.18724 0
M  V30 13076 O 299.768 0.825065 8.71101 0
M  V30 13077 C 299.278 -0.783689 6.99524 0
M  V30 13078 C 299.988 -0.0619086 5.85867 0
M  V30 13079 N 299.938 -0.78573 4.56183 0
M  V30 13080 C 299.788 -0.0292889 3.41887 0
M  V30 13081 O 299.698 1.18445 3.4419 0
M  V30 13082 N 299.748 -0.744061 2.23964 0
M  V30 13083 C 299.838 -2.10932 2.10362 0
M  V30 13084 O 299.788 -2.64117 0.98825 0
M  V30 13085 C 299.988 -2.8202 3.34994 0
M  V30 13086 C 300.098 -4.31095 3.25037 0
M  V30 13087 C 300.038 -2.15547 4.52261 0
M  V30 13088 H 302.779 -1.93379 8.46595 0
M  V30 13089 H 303.048 -1.68132 6.70852 0
M  V30 13090 H 302.181 0.289041 8.15388 0
M  V30 13091 H 299.526 0.926847 5.72749 0
M  V30 13092 H 299.247 -1.86973 6.82036 0
M  V30 13093 H 298.255 -0.403896 7.13257 0
M  V30 13094 H 300.089 -1.20585 8.97435 0
M  V30 13095 H 300.16 -2.71231 5.45042 0
M  V30 13096 H 299.13 -4.76966 3.49992 0
M  V30 13097 H 300.867 -4.67047 3.95024 0
M  V30 13098 H 300.379 -4.58996 2.22312 0
M  V30 13099 H 299.643 -0.214893 1.39758 0
M  V30 13100 P 298.218 1.17771 8.83182 0
M  V30 13101 O 297.998 2.07206 9.98732 0
M  V30 13102 O 297.428 -0.0743816 8.81969 0
M  V30 13103 O 297.968 1.97652 7.47304 0
M  V30 13104 C 298.908 3.01133 7.08783 0
M  V30 13105 C 298.178 4.12613 6.37049 0
M  V30 13106 O 297.968 3.72827 4.97879 0
M  V30 13107 C 296.778 4.45085 6.88694 0
M  V30 13108 O 296.388 5.7877 6.5624 0
M  V30 13109 C 295.898 3.47817 6.12078 0
M  V30 13110 C 296.608 3.39414 4.77697 0
M  V30 13111 N 296.558 2.04615 4.15333 0
M  V30 13112 H 299.397 3.41248 7.98759 0
M  V30 13113 H 299.669 2.5837 6.41742 0
M  V30 13114 H 298.801 5.02657 6.42673 0
M  V30 13115 P 294.838 6.144 6.45285 0
M  V30 13116 O 294.618 7.54673 6.86199 0
M  V30 13117 O 294.048 5.12391 7.179 0
M  V30 13118 O 294.588 5.99158 4.88404 0
M  V30 13119 C 295.528 6.60234 3.96415 0
M  V30 13120 C 294.798 7.08259 2.72856 0
M  V30 13121 O 294.588 5.9427 1.83651 0
M  V30 13122 C 293.398 7.64886 2.9555 0
M  V30 13123 O 293.008 8.53963 1.90717 0
M  V30 13124 C 292.518 6.4116 2.90739 0
M  V30 13125 C 293.228 5.55375 1.86963 0
M  V30 13126 N 293.178 4.09448 2.16152 0
M  V30 13127 H 296.017 7.45574 4.45629 0
M  V30 13128 H 296.289 5.85864 3.679 0
M  V30 13129 H 295.421 7.84412 2.24479 0
M  V30 13130 H 292.766 5.73457 0.888562 0
M  V30 13131 H 292.486 5.90877 3.88583 0
M  V30 13132 H 291.495 6.6596 2.58858 0
M  V30 13133 H 293.329 8.16339 3.92049 0
M  V30 13134 P 291.458 8.7635 1.60911 0
M  V30 13135 O 291.238 10.1388 1.11561 0
M  V30 13136 O 290.668 8.36503 2.79617 0
M  V30 13137 O 291.208 7.71806 0.42951 0
M  V30 13138 C 292.148 7.67148 -0.673689 0
M  V30 13139 C 291.418 7.33374 -1.95559 0
M  V30 13140 O 291.208 5.88721 -2.00726 0
M  V30 13141 C 290.018 7.92526 -2.10483 0
M  V30 13142 O 289.628 8.02971 -3.47653 0
M  V30 13143 C 289.138 6.89602 -1.41652 0
M  V30 13144 C 289.848 5.59201 -1.75185 0
M  V30 13145 N 289.798 4.58235 -0.662552 0
M  V30 13146 H 292.637 8.65116 -0.777161 0
M  V30 13147 H 292.909 6.90173 -0.474152 0
M  V30 13148 H 292.041 7.66548 -2.79458 0
M  V30 13149 P 288.078 8.03563 -3.84925 0
M  V30 13150 O 287.858 8.85821 -5.0569 0
M  V30 13151 O 287.288 8.41101 -2.65469 0
M  V30 13152 O 287.828 6.4965 -4.18908 0
M  V30 13153 C 288.768 5.80886 -5.05289 0
M  V30 13154 C 288.038 4.78366 -5.89277 0
M  V30 13155 O 287.828 3.58302 -5.08433 0
M  V30 13156 C 286.638 5.16748 -6.36559 0
M  V30 13157 O 286.248 4.45271 -7.53232 0
M  V30 13158 C 285.758 4.74572 -5.19863 0
M  V30 13159 C 286.468 3.49373 -4.70338 0
M  V30 13160 N 286.418 3.31704 -3.22876 0
M  V30 13161 C 286.268 2.03326 -2.74871 0
M  V30 13162 O 286.178 1.06486 -3.48076 0
M  V30 13163 N 286.228 1.91838 -1.37456 0
M  V30 13164 C 286.318 2.94295 -0.462035 0
M  V30 13165 C 286.468 4.25064 -1.05249 0
M  V30 13166 C 286.518 4.40214 -2.39192 0
M  V30 13167 H 289.259 6.54063 -5.71245 0
M  V30 13168 H 289.528 5.30339 -4.43905 0
M  V30 13169 H 288.661 4.55889 -6.76652 0
M  V30 13170 H 286.006 2.6167 -5.17842 0
M  V30 13171 H 285.727 5.52155 -4.41878 0
M  V30 13172 H 284.735 4.51918 -5.53297 0
M  V30 13173 H 286.569 6.25055 -6.55162 0
M  V30 13174 H 286.64 5.39798 -2.81523 0
M  V30 13175 P 284.698 4.23843 -7.83734 0
M  V30 13176 O 284.478 4.19407 -9.29784 0
M  V30 13177 O 283.908 5.24426 -7.09156 0
M  V30 13178 O 284.448 2.7935 -7.20758 0
M  V30 13179 C 285.388 1.7299 -7.50419 0
M  V30 13180 C 284.658 0.406376 -7.57911 0
M  V30 13181 O 284.448 -0.0897726 -6.21935 0
M  V30 13182 C 283.258 0.447224 -8.1878 0
M  V30 13183 O 282.868 -0.825065 -8.71101 0
M  V30 13184 C 282.378 0.783801 -6.99623 0
M  V30 13185 C 283.088 0.0619192 -5.85967 0
M  V30 13186 N 283.038 0.7859 -4.56281 0
M  V30 13187 H 285.877 1.93423 -8.4679 0
M  V30 13188 H 286.149 1.68181 -6.71046 0
M  V30 13189 H 285.281 -0.289041 -8.15388 0
M  V30 13190 P 281.318 -1.17771 -8.83182 0
M  V30 13191 O 281.098 -2.07206 -9.98732 0
M  V30 13192 O 280.528 0.0743816 -8.81969 0
M  V30 13193 O 281.068 -1.97652 -7.47304 0
M  V30 13194 C 282.008 -3.01133 -7.08783 0
M  V30 13195 C 281.278 -4.12613 -6.37049 0
M  V30 13196 O 281.068 -3.72827 -4.97879 0
M  V30 13197 C 279.878 -4.45085 -6.88694 0
M  V30 13198 O 279.488 -5.7877 -6.5624 0
M  V30 13199 C 278.998 -3.47817 -6.12078 0
M  V30 13200 C 279.708 -3.39414 -4.77697 0
M  V30 13201 N 279.658 -2.04199 -4.15538 0
M  V30 13202 H 282.497 -3.41248 -7.98759 0
M  V30 13203 H 282.769 -2.57728 -6.42 0
M  V30 13204 H 281.901 -5.02657 -6.42673 0
M  V30 13205 H 279.246 -4.11708 -4.08956 0
M  V30 13206 H 278.966 -2.49626 -6.61679 0
M  V30 13207 H 277.975 -3.8662 -6.00862 0
M  V30 13208 H 279.809 -4.29991 -7.97006 0
M  V30 13209 P 277.938 -6.144 -6.45285 0
M  V30 13210 O 277.718 -7.54673 -6.86199 0
M  V30 13211 O 277.148 -5.12391 -7.179 0
M  V30 13212 O 277.688 -5.99158 -4.88404 0
M  V30 13213 C 278.628 -6.60234 -3.96415 0
M  V30 13214 C 277.898 -7.08259 -2.72856 0
M  V30 13215 O 277.688 -5.9427 -1.83651 0
M  V30 13216 C 276.498 -7.64886 -2.9555 0
M  V30 13217 O 276.108 -8.53963 -1.90717 0
M  V30 13218 C 275.618 -6.4116 -2.90739 0
M  V30 13219 C 276.328 -5.55375 -1.86963 0
M  V30 13220 N 276.278 -4.09448 -2.16152 0
M  V30 13221 H 279.117 -7.45574 -4.45629 0
M  V30 13222 H 279.389 -5.85864 -3.679 0
M  V30 13223 H 278.521 -7.84412 -2.24479 0
M  V30 13224 H 275.866 -5.73457 -0.888562 0
M  V30 13225 H 275.586 -5.90877 -3.88583 0
M  V30 13226 H 274.595 -6.6596 -2.58858 0
M  V30 13227 H 276.429 -8.16339 -3.92049 0
M  V30 13228 P 274.558 -8.7635 -1.60911 0
M  V30 13229 O 274.338 -10.1388 -1.11561 0
M  V30 13230 O 273.768 -8.36503 -2.79617 0
M  V30 13231 O 274.308 -7.71806 -0.42951 0
M  V30 13232 C 275.248 -7.67148 0.673689 0
M  V30 13233 C 274.518 -7.33374 1.95559 0
M  V30 13234 O 274.308 -5.88721 2.00726 0
M  V30 13235 C 273.118 -7.92526 2.10483 0
M  V30 13236 O 272.728 -8.02971 3.47653 0
M  V30 13237 C 272.238 -6.89602 1.41652 0
M  V30 13238 C 272.948 -5.59201 1.75185 0
M  V30 13239 N 272.898 -4.58235 0.662552 0
M  V30 13240 H 275.737 -8.65116 0.777161 0
M  V30 13241 H 276.009 -6.90173 0.474152 0
M  V30 13242 H 275.141 -7.66548 2.79458 0
M  V30 13243 P 271.178 -8.03563 3.84925 0
M  V30 13244 O 270.958 -8.85821 5.0569 0
M  V30 13245 O 270.388 -8.41101 2.65469 0
M  V30 13246 O 270.928 -6.4965 4.18908 0
M  V30 13247 C 271.868 -5.81037 5.05421 0
M  V30 13248 C 271.138 -4.78366 5.89277 0
M  V30 13249 O 270.928 -3.58302 5.08433 0
M  V30 13250 C 269.738 -5.17448 6.36119 0
M  V30 13251 O 269.348 -4.45271 7.53232 0
M  V30 13252 C 268.858 -4.74639 5.19936 0
M  V30 13253 C 269.568 -3.49432 4.70418 0
M  V30 13254 N 269.518 -3.32099 3.22613 0
M  V30 13255 H 272.357 -6.54213 5.71376 0
M  V30 13256 H 272.629 -5.30936 4.43503 0
M  V30 13257 H 271.761 -4.55889 6.76652 0
M  V30 13258 H 269.106 -2.61715 5.17932 0
M  V30 13259 H 268.826 -5.52155 4.41878 0
M  V30 13260 H 267.835 -4.51981 5.53374 0
M  V30 13261 H 269.669 -6.25124 6.55234 0
M  V30 13262 P 267.798 -4.23843 7.83734 0
M  V30 13263 O 267.578 -4.19407 9.29784 0
M  V30 13264 O 267.008 -5.24426 7.09156 0
M  V30 13265 O 267.548 -2.7935 7.20758 0
M  V30 13266 C 268.488 -1.7299 7.50419 0
M  V30 13267 C 267.758 -0.406376 7.57911 0
M  V30 13268 O 267.548 0.0897726 6.21935 0
M  V30 13269 C 266.358 -0.447224 8.1878 0
M  V30 13270 O 265.968 0.825065 8.71101 0
M  V30 13271 C 265.478 -0.783801 6.99623 0
M  V30 13272 C 266.188 -0.0619192 5.85967 0
M  V30 13273 N 266.138 -0.7859 4.56281 0
M  V30 13274 H 268.977 -1.93423 8.4679 0
M  V30 13275 H 269.249 -1.68181 6.71046 0
M  V30 13276 H 268.381 0.289041 8.15388 0
M  V30 13277 P 264.418 1.17771 8.83182 0
M  V30 13278 O 264.198 2.07206 9.98732 0
M  V30 13279 O 263.628 -0.0743816 8.81969 0
M  V30 13280 O 264.168 1.97678 7.474 0
M  V30 13281 C 265.108 3.01133 7.08783 0
M  V30 13282 C 264.378 4.1203 6.37546 0
M  V30 13283 O 264.168 3.72887 4.9796 0
M  V30 13284 C 262.978 4.45085 6.88694 0
M  V30 13285 O 262.588 5.78836 6.56315 0
M  V30 13286 C 262.098 3.47817 6.12078 0
M  V30 13287 C 262.808 3.39414 4.77697 0
M  V30 13288 N 262.758 2.04615 4.15333 0
M  V30 13289 C 262.608 1.96929 2.77162 0
M  V30 13290 O 262.518 3.02017 2.12006 0
M  V30 13291 N 262.558 0.55485 2.24237 0
M  V30 13292 C 262.658 -0.367808 2.9169 0
M  V30 13293 N 262.608 -1.53426 2.29427 0
M  V30 13294 C 262.808 -0.319148 4.33828 0
M  V30 13295 C 262.858 0.920672 4.90433 0
M  V30 13296 H 265.598 3.41209 7.98667 0
M  V30 13297 H 265.868 2.5837 6.41742 0
M  V30 13298 H 265.001 5.02718 6.42752 0
M  V30 13299 H 262.346 4.11779 4.09026 0
M  V30 13300 H 262.066 2.49661 6.61772 0
M  V30 13301 H 261.075 3.86674 6.00946 0
M  V30 13302 H 262.909 4.29991 7.97006 0
M  V30 13303 H 262.981 1.00589 5.98303 0
M  V30 13304 H 262.879 -1.22639 4.93799 0
M  V30 13305 H 262.491 -1.56819 1.27167 0
M  V30 13306 H 262.687 -2.41062 2.83063 0
M  V30 13307 P 261.038 6.144 6.45285 0
M  V30 13308 O 260.818 7.54673 6.86199 0
M  V30 13309 O 260.248 5.12391 7.179 0
M  V30 13310 O 260.788 5.99158 4.88404 0
M  V30 13311 C 261.728 6.60234 3.96415 0
M  V30 13312 C 260.998 7.08259 2.72856 0
M  V30 13313 O 260.788 5.9427 1.83651 0
M  V30 13314 C 259.598 7.64886 2.9555 0
M  V30 13315 O 259.208 8.53963 1.90717 0
M  V30 13316 C 258.718 6.4116 2.90739 0
M  V30 13317 C 259.428 5.55375 1.86963 0
M  V30 13318 N 259.378 4.09664 2.15742 0
M  V30 13319 H 262.217 7.45574 4.45629 0
M  V30 13320 H 262.489 5.86232 3.67314 0
M  V30 13321 H 261.621 7.84412 2.24479 0
M  V30 13322 P 257.658 8.7635 1.60911 0
M  V30 13323 O 257.438 10.1388 1.11561 0
M  V30 13324 O 256.868 8.36503 2.79617 0
M  V30 13325 O 257.408 7.71806 0.42951 0
M  V30 13326 C 258.348 7.67148 -0.673689 0
M  V30 13327 C 257.618 7.33374 -1.95559 0
M  V30 13328 O 257.408 5.88721 -2.00726 0
M  V30 13329 C 256.218 7.92526 -2.10483 0
M  V30 13330 O 255.828 8.02971 -3.47653 0
M  V30 13331 C 255.338 6.89602 -1.41652 0
M  V30 13332 C 256.048 5.59201 -1.75185 0
M  V30 13333 N 255.998 4.58301 -0.657969 0
M  V30 13334 H 258.837 8.65116 -0.777161 0
M  V30 13335 H 259.109 6.9022 -0.46725 0
M  V30 13336 H 258.241 7.66548 -2.79458 0
M  V30 13337 H 255.586 5.16165 -2.65183 0
M  V30 13338 H 255.306 7.06433 -0.329384 0
M  V30 13339 H 254.315 6.90926 -1.82021 0
M  V30 13340 H 256.149 8.90873 -1.62657 0
M  V30 13341 P 254.279 8.03563 -3.84925 0
M  V30 13342 O 254.059 8.85821 -5.0569 0
M  V30 13343 O 253.489 8.41101 -2.65469 0
M  V30 13344 O 254.029 6.4965 -4.18908 0
M  V30 13345 C 254.969 5.81037 -5.05421 0
M  V30 13346 C 254.239 4.78366 -5.89277 0
M  V30 13347 O 254.029 3.58302 -5.08433 0
M  V30 13348 C 252.839 5.17448 -6.36119 0
M  V30 13349 O 252.449 4.45271 -7.53232 0
M  V30 13350 C 251.959 4.74639 -5.19936 0
M  V30 13351 C 252.669 3.49432 -4.70418 0
M  V30 13352 N 252.619 3.31776 -3.22945 0
M  V30 13353 H 255.458 6.54213 -5.71376 0
M  V30 13354 H 255.73 5.30492 -4.44033 0
M  V30 13355 H 254.862 4.55889 -6.76652 0
M  V30 13356 P 250.899 4.23843 -7.83734 0
M  V30 13357 O 250.679 4.19407 -9.29784 0
M  V30 13358 O 250.109 5.24426 -7.09156 0
M  V30 13359 O 250.649 2.7935 -7.20758 0
M  V30 13360 C 251.589 1.7299 -7.50419 0
M  V30 13361 C 250.859 0.406376 -7.57911 0
M  V30 13362 O 250.649 -0.0897726 -6.21935 0
M  V30 13363 C 249.459 0.447224 -8.1878 0
M  V30 13364 O 249.069 -0.825065 -8.71101 0
M  V30 13365 C 248.579 0.783801 -6.99623 0
M  V30 13366 C 249.289 0.0619192 -5.85967 0
M  V30 13367 N 249.239 0.7859 -4.56281 0
M  V30 13368 H 252.078 1.93423 -8.4679 0
M  V30 13369 H 252.35 1.68181 -6.71046 0
M  V30 13370 H 251.482 -0.289041 -8.15388 0
M  V30 13371 P 247.519 -1.17771 -8.83182 0
M  V30 13372 O 247.299 -2.07206 -9.98732 0
M  V30 13373 O 246.729 0.0743816 -8.81969 0
M  V30 13374 O 247.269 -1.97652 -7.47304 0
M  V30 13375 C 248.209 -3.01133 -7.08783 0
M  V30 13376 C 247.479 -4.12613 -6.37049 0
M  V30 13377 O 247.269 -3.72827 -4.97879 0
M  V30 13378 C 246.079 -4.45085 -6.88694 0
M  V30 13379 O 245.689 -5.7877 -6.5624 0
M  V30 13380 C 245.199 -3.47817 -6.12078 0
M  V30 13381 C 245.909 -3.39414 -4.77697 0
M  V30 13382 N 245.859 -2.04615 -4.15333 0
M  V30 13383 H 248.698 -3.41248 -7.98759 0
M  V30 13384 H 248.97 -2.5837 -6.41742 0
M  V30 13385 H 248.102 -5.02657 -6.42673 0
M  V30 13386 P 244.139 -6.144 -6.45285 0
M  V30 13387 O 243.919 -7.54673 -6.86199 0
M  V30 13388 O 243.349 -5.12391 -7.179 0
M  V30 13389 O 243.889 -5.99158 -4.88404 0
M  V30 13390 C 244.829 -6.60234 -3.96415 0
M  V30 13391 C 244.099 -7.08259 -2.72856 0
M  V30 13392 O 243.889 -5.9427 -1.83651 0
M  V30 13393 C 242.699 -7.64886 -2.9555 0
M  V30 13394 O 242.309 -8.53963 -1.90717 0
M  V30 13395 C 241.819 -6.4116 -2.90739 0
M  V30 13396 C 242.529 -5.55375 -1.86963 0
M  V30 13397 N 242.479 -4.09448 -2.16152 0
M  V30 13398 H 245.318 -7.45574 -4.45629 0
M  V30 13399 H 245.59 -5.85864 -3.679 0
M  V30 13400 H 244.722 -7.84412 -2.24479 0
M  V30 13401 H 242.067 -5.73457 -0.888562 0
M  V30 13402 H 241.787 -5.90877 -3.88583 0
M  V30 13403 H 240.796 -6.6596 -2.58858 0
M  V30 13404 H 242.63 -8.16339 -3.92049 0
M  V30 13405 P 240.759 -8.7635 -1.60911 0
M  V30 13406 O 240.539 -10.1388 -1.11561 0
M  V30 13407 O 239.969 -8.36503 -2.79617 0
M  V30 13408 O 240.509 -7.71806 -0.42951 0
M  V30 13409 C 241.449 -7.67148 0.673689 0
M  V30 13410 C 240.719 -7.33374 1.95559 0
M  V30 13411 O 240.509 -5.88721 2.00726 0
M  V30 13412 C 239.319 -7.92526 2.10483 0
M  V30 13413 O 238.929 -8.02971 3.47653 0
M  V30 13414 C 238.439 -6.89602 1.41652 0
M  V30 13415 C 239.149 -5.59201 1.75185 0
M  V30 13416 N 239.099 -4.58301 0.657969 0
M  V30 13417 H 241.938 -8.65116 0.777161 0
M  V30 13418 H 242.21 -6.9022 0.46725 0
M  V30 13419 H 241.342 -7.66548 2.79458 0
M  V30 13420 H 238.687 -5.16165 2.65183 0
M  V30 13421 H 238.407 -7.06433 0.329384 0
M  V30 13422 H 237.416 -6.90926 1.82021 0
M  V30 13423 H 239.25 -8.90873 1.62657 0
M  V30 13424 P 237.379 -8.03563 3.84925 0
M  V30 13425 O 237.159 -8.85821 5.0569 0
M  V30 13426 O 236.589 -8.41101 2.65469 0
M  V30 13427 O 237.129 -6.4965 4.18908 0
M  V30 13428 C 238.069 -5.80886 5.05289 0
M  V30 13429 C 237.339 -4.78366 5.89277 0
M  V30 13430 O 237.129 -3.58302 5.08433 0
M  V30 13431 C 235.939 -5.16748 6.36559 0
M  V30 13432 O 235.549 -4.45271 7.53232 0
M  V30 13433 C 235.059 -4.74572 5.19863 0
M  V30 13434 C 235.769 -3.49373 4.70338 0
M  V30 13435 N 235.719 -3.31704 3.22876 0
M  V30 13436 C 235.569 -2.03326 2.74871 0
M  V30 13437 O 235.479 -1.06486 3.48076 0
M  V30 13438 N 235.529 -1.91838 1.37456 0
M  V30 13439 C 235.619 -2.94295 0.462035 0
M  V30 13440 O 235.569 -2.71763 -0.752928 0
M  V30 13441 C 235.769 -4.25064 1.05249 0
M  V30 13442 C 235.879 -5.39815 0.095697 0
M  V30 13443 C 235.819 -4.40214 2.39192 0
M  V30 13444 H 238.56 -6.54063 5.71245 0
M  V30 13445 H 238.829 -5.30339 4.43905 0
M  V30 13446 H 237.962 -4.55889 6.76652 0
M  V30 13447 H 235.307 -2.6167 5.17842 0
M  V30 13448 H 235.028 -5.52155 4.41878 0
M  V30 13449 H 234.036 -4.51918 5.53297 0
M  V30 13450 H 235.87 -6.25055 6.55162 0
M  V30 13451 H 235.941 -5.39798 2.81523 0
M  V30 13452 H 234.911 -5.91593 0.0279582 0
M  V30 13453 H 236.648 -6.10038 0.450573 0
M  V30 13454 H 236.16 -5.02007 -0.89937 0
M  V30 13455 H 235.424 -0.995326 1.00435 0
M  V30 13456 P 233.999 -4.23843 7.83734 0
M  V30 13457 O 233.779 -4.19407 9.29784 0
M  V30 13458 O 233.209 -5.24426 7.09156 0
M  V30 13459 O 233.749 -2.7935 7.20758 0
M  V30 13460 C 234.689 -1.7299 7.50419 0
M  V30 13461 C 233.959 -0.406376 7.57911 0
M  V30 13462 O 233.749 0.0897726 6.21935 0
M  V30 13463 C 232.559 -0.447224 8.1878 0
M  V30 13464 O 232.169 0.825065 8.71101 0
M  V30 13465 C 231.679 -0.783801 6.99623 0
M  V30 13466 C 232.389 -0.0619192 5.85967 0
M  V30 13467 N 232.339 -0.790462 4.56202 0
M  V30 13468 H 235.178 -1.93423 8.4679 0
M  V30 13469 H 235.45 -1.68852 6.70877 0
M  V30 13470 H 234.582 0.289041 8.15388 0
M  V30 13471 H 231.927 0.927006 5.72848 0
M  V30 13472 H 231.647 -1.86973 6.82036 0
M  V30 13473 H 230.656 -0.403953 7.13357 0
M  V30 13474 H 232.49 -1.20599 8.97534 0
M  V30 13475 P 230.619 1.17771 8.83182 0
M  V30 13476 O 230.399 2.07206 9.98732 0
M  V30 13477 O 229.829 -0.0743816 8.81969 0
M  V30 13478 O 230.369 1.97652 7.47304 0
M  V30 13479 C 231.309 3.01133 7.08783 0
M  V30 13480 C 230.579 4.12613 6.37049 0
M  V30 13481 O 230.369 3.72827 4.97879 0
M  V30 13482 C 229.179 4.45085 6.88694 0
M  V30 13483 O 228.789 5.7877 6.5624 0
M  V30 13484 C 228.299 3.47817 6.12078 0
M  V30 13485 C 229.009 3.39414 4.77697 0
M  V30 13486 N 228.959 2.04615 4.15333 0
M  V30 13487 H 231.798 3.41248 7.98759 0
M  V30 13488 H 232.07 2.5837 6.41742 0
M  V30 13489 H 231.202 5.02657 6.42673 0
M  V30 13490 P 227.239 6.144 6.45285 0
M  V30 13491 O 227.019 7.54673 6.86199 0
M  V30 13492 O 226.449 5.12391 7.179 0
M  V30 13493 O 226.989 5.99158 4.88404 0
M  V30 13494 C 227.929 6.60234 3.96415 0
M  V30 13495 C 227.199 7.08259 2.72856 0
M  V30 13496 O 226.989 5.9427 1.83651 0
M  V30 13497 C 225.799 7.64886 2.9555 0
M  V30 13498 O 225.409 8.53963 1.90717 0
M  V30 13499 C 224.919 6.4116 2.90739 0
M  V30 13500 C 225.629 5.55375 1.86963 0
M  V30 13501 N 225.579 4.09448 2.16152 0
M  V30 13502 H 228.418 7.45574 4.45629 0
M  V30 13503 H 228.69 5.85864 3.679 0
M  V30 13504 H 227.822 7.84412 2.24479 0
M  V30 13505 H 225.167 5.73457 0.888562 0
M  V30 13506 H 224.887 5.90877 3.88583 0
M  V30 13507 H 223.896 6.6596 2.58858 0
M  V30 13508 H 225.73 8.16339 3.92049 0
M  V30 13509 P 223.859 8.7635 1.60911 0
M  V30 13510 O 223.639 10.1388 1.11561 0
M  V30 13511 O 223.069 8.36503 2.79617 0
M  V30 13512 O 223.609 7.71806 0.42951 0
M  V30 13513 C 224.549 7.66948 -0.673514 0
M  V30 13514 C 223.819 7.33374 -1.95559 0
M  V30 13515 O 223.609 5.88721 -2.00726 0
M  V30 13516 C 222.419 7.92218 -2.1125 0
M  V30 13517 O 222.029 8.02971 -3.47653 0
M  V30 13518 C 221.539 6.89504 -1.41631 0
M  V30 13519 C 222.249 5.59106 -1.75155 0
M  V30 13520 N 222.199 4.58136 -0.662409 0
M  V30 13521 C 222.049 3.26059 -1.02863 0
M  V30 13522 O 221.959 2.90743 -2.19009 0
M  V30 13523 N 222.009 2.35995 0.0155585 0
M  V30 13524 C 222.099 2.65248 1.35603 0
M  V30 13525 O 222.049 1.75605 2.20651 0
M  V30 13526 C 222.249 4.05747 1.64698 0
M  V30 13527 C 222.359 4.42345 3.09553 0
M  V30 13528 C 222.299 4.96734 0.652411 0
M  V30 13529 H 225.04 8.64917 -0.776982 0
M  V30 13530 H 225.309 6.89974 -0.474015 0
M  V30 13531 H 224.442 7.66548 -2.79458 0
M  V30 13532 H 221.787 5.16076 -2.65138 0
M  V30 13533 H 221.508 7.06433 -0.329384 0
M  V30 13534 H 220.516 6.90829 -1.81996 0
M  V30 13535 H 222.35 8.90774 -1.62639 0
M  V30 13536 H 222.421 6.02181 0.895285 0
M  V30 13537 H 221.391 4.80252 3.45468 0
M  V30 13538 H 223.128 5.20015 3.22119 0
M  V30 13539 H 222.64 3.53269 3.67833 0
M  V30 13540 H 221.904 1.39558 -0.227499 0
M  V30 13541 P 220.479 8.03563 -3.84925 0
M  V30 13542 O 220.259 8.85821 -5.0569 0
M  V30 13543 O 219.689 8.41101 -2.65469 0
M  V30 13544 O 220.229 6.49734 -4.18962 0
M  V30 13545 C 221.169 5.81037 -5.05421 0
M  V30 13546 C 220.439 4.79018 -5.88876 0
M  V30 13547 O 220.229 3.58359 -5.08515 0
M  V30 13548 C 219.039 5.17448 -6.36119 0
M  V30 13549 O 218.649 4.45322 -7.53318 0
M  V30 13550 C 218.159 4.74639 -5.19936 0
M  V30 13551 C 218.869 3.49432 -4.70418 0
M  V30 13552 N 218.819 3.31776 -3.22945 0
M  V30 13553 C 218.669 2.02742 -2.72939 0
M  V30 13554 O 218.579 1.08301 -3.52749 0
M  V30 13555 N 218.619 1.96117 -1.22063 0
M  V30 13556 C 218.719 2.8878 -0.551566 0
M  V30 13557 N 218.669 2.65609 0.750198 0
M  V30 13558 C 218.869 4.22457 -1.03707 0
M  V30 13559 C 218.919 4.37979 -2.39113 0
M  V30 13560 H 221.659 6.54138 -5.7131 0
M  V30 13561 H 221.929 5.30492 -4.44033 0
M  V30 13562 H 221.062 4.55945 -6.76735 0
M  V30 13563 H 218.407 2.6176 -5.18021 0
M  V30 13564 H 218.127 5.52233 -4.41941 0
M  V30 13565 H 217.136 4.52045 -5.53452 0
M  V30 13566 H 218.97 6.25124 -6.55234 0
M  V30 13567 H 219.042 5.37936 -2.80552 0
M  V30 13568 H 218.94 5.07528 -0.359553 0
M  V30 13569 H 218.552 1.69403 1.09847 0
M  V30 13570 H 218.748 3.43701 1.41792 0
M  V30 13571 P 217.099 4.23843 -7.83734 0
M  V30 13572 O 216.879 4.19407 -9.29784 0
M  V30 13573 O 216.309 5.24426 -7.09156 0
M  V30 13574 O 216.849 2.7935 -7.20758 0
M  V30 13575 C 217.789 1.7299 -7.50419 0
M  V30 13576 C 217.059 0.406376 -7.57911 0
M  V30 13577 O 216.849 -0.0897726 -6.21935 0
M  V30 13578 C 215.659 0.447224 -8.1878 0
M  V30 13579 O 215.269 -0.825065 -8.71101 0
M  V30 13580 C 214.779 0.783801 -6.99623 0
M  V30 13581 C 215.489 0.0619192 -5.85967 0
M  V30 13582 N 215.439 0.7859 -4.56281 0
M  V30 13583 H 218.278 1.93423 -8.4679 0
M  V30 13584 H 218.55 1.68181 -6.71046 0
M  V30 13585 H 217.682 -0.289041 -8.15388 0
M  V30 13586 P 213.719 -1.17771 -8.83182 0
M  V30 13587 O 213.499 -2.07206 -9.98732 0
M  V30 13588 O 212.929 0.0743816 -8.81969 0
M  V30 13589 O 213.469 -1.97652 -7.47304 0
M  V30 13590 C 214.409 -3.01133 -7.08783 0
M  V30 13591 C 213.679 -4.12613 -6.37049 0
M  V30 13592 O 213.469 -3.72827 -4.97879 0
M  V30 13593 C 212.279 -4.45085 -6.88694 0
M  V30 13594 O 211.889 -5.7877 -6.5624 0
M  V30 13595 C 211.399 -3.47817 -6.12078 0
M  V30 13596 C 212.109 -3.39414 -4.77697 0
M  V30 13597 N 212.059 -2.04199 -4.15538 0
M  V30 13598 H 214.898 -3.41248 -7.98759 0
M  V30 13599 H 215.17 -2.57728 -6.42 0
M  V30 13600 H 214.302 -5.02657 -6.42673 0
M  V30 13601 H 211.647 -4.11708 -4.08956 0
M  V30 13602 H 211.367 -2.49626 -6.61679 0
M  V30 13603 H 210.376 -3.8662 -6.00862 0
M  V30 13604 H 212.21 -4.29991 -7.97006 0
M  V30 13605 P 210.339 -6.144 -6.45285 0
M  V30 13606 O 210.119 -7.54673 -6.86199 0
M  V30 13607 O 209.549 -5.12391 -7.179 0
M  V30 13608 O 210.089 -5.99158 -4.88404 0
M  V30 13609 C 211.029 -6.60234 -3.96415 0
M  V30 13610 C 210.299 -7.08259 -2.72856 0
M  V30 13611 O 210.089 -5.9427 -1.83651 0
M  V30 13612 C 208.899 -7.64886 -2.9555 0
M  V30 13613 O 208.509 -8.53963 -1.90717 0
M  V30 13614 C 208.019 -6.4116 -2.90739 0
M  V30 13615 C 208.729 -5.55375 -1.86963 0
M  V30 13616 N 208.679 -4.09664 -2.15742 0
M  V30 13617 H 211.518 -7.45574 -4.45629 0
M  V30 13618 H 211.79 -5.86232 -3.67314 0
M  V30 13619 H 210.922 -7.84412 -2.24479 0
M  V30 13620 P 206.959 -8.7635 -1.60911 0
M  V30 13621 O 206.739 -10.1388 -1.11561 0
M  V30 13622 O 206.169 -8.36503 -2.79617 0
M  V30 13623 O 206.709 -7.71806 -0.42951 0
M  V30 13624 C 207.649 -7.66948 0.673514 0
M  V30 13625 C 206.919 -7.33374 1.95559 0
M  V30 13626 O 206.709 -5.88721 2.00726 0
M  V30 13627 C 205.519 -7.92218 2.1125 0
M  V30 13628 O 205.129 -8.02971 3.47653 0
M  V30 13629 C 204.639 -6.89504 1.41631 0
M  V30 13630 C 205.349 -5.59106 1.75155 0
M  V30 13631 N 205.299 -4.58136 0.662409 0
M  V30 13632 C 205.149 -3.26059 1.02863 0
M  V30 13633 O 205.059 -2.90743 2.19009 0
M  V30 13634 N 205.109 -2.35995 -0.0155585 0
M  V30 13635 C 205.199 -2.65248 -1.35603 0
M  V30 13636 O 205.149 -1.75605 -2.20651 0
M  V30 13637 C 205.349 -4.05747 -1.64698 0
M  V30 13638 C 205.459 -4.42345 -3.09553 0
M  V30 13639 C 205.399 -4.96734 -0.652411 0
M  V30 13640 H 208.14 -8.64917 0.776982 0
M  V30 13641 H 208.409 -6.89974 0.474015 0
M  V30 13642 H 207.542 -7.66548 2.79458 0
M  V30 13643 H 204.887 -5.16076 2.65138 0
M  V30 13644 H 204.608 -7.06433 0.329384 0
M  V30 13645 H 203.616 -6.90829 1.81996 0
M  V30 13646 H 205.45 -8.90774 1.62639 0
M  V30 13647 H 205.521 -6.02181 -0.895285 0
M  V30 13648 H 204.491 -4.80252 -3.45468 0
M  V30 13649 H 206.228 -5.20015 -3.22119 0
M  V30 13650 H 205.74 -3.53269 -3.67833 0
M  V30 13651 H 205.004 -1.39558 0.227499 0
M  V30 13652 P 203.579 -8.03563 3.84925 0
M  V30 13653 O 203.359 -8.85821 5.0569 0
M  V30 13654 O 202.789 -8.41101 2.65469 0
M  V30 13655 O 203.329 -6.4965 4.18908 0
M  V30 13656 C 204.269 -5.81037 5.05421 0
M  V30 13657 C 203.539 -4.78366 5.89277 0
M  V30 13658 O 203.329 -3.58302 5.08433 0
M  V30 13659 C 202.139 -5.17448 6.36119 0
M  V30 13660 O 201.749 -4.45271 7.53232 0
M  V30 13661 C 201.259 -4.74639 5.19936 0
M  V30 13662 C 201.969 -3.49432 4.70418 0
M  V30 13663 N 201.919 -3.32099 3.22613 0
M  V30 13664 H 204.758 -6.54213 5.71376 0
M  V30 13665 H 205.03 -5.30936 4.43503 0
M  V30 13666 H 204.162 -4.55889 6.76652 0
M  V30 13667 H 201.507 -2.61715 5.17932 0
M  V30 13668 H 201.227 -5.52155 4.41878 0
M  V30 13669 H 200.236 -4.51981 5.53374 0
M  V30 13670 H 202.07 -6.25124 6.55234 0
M  V30 13671 P 200.199 -4.23843 7.83734 0
M  V30 13672 O 199.979 -4.19407 9.29784 0
M  V30 13673 O 199.409 -5.24426 7.09156 0
M  V30 13674 O 199.949 -2.79386 7.20852 0
M  V30 13675 C 200.889 -1.7299 7.50419 0
M  V30 13676 C 200.159 -0.41401 7.5797 0
M  V30 13677 O 199.949 0.089787 6.22035 0
M  V30 13678 C 198.759 -0.447224 8.1878 0
M  V30 13679 O 198.369 0.825159 8.71201 0
M  V30 13680 C 197.879 -0.783801 6.99623 0
M  V30 13681 C 198.589 -0.0619192 5.85967 0
M  V30 13682 N 198.539 -0.7859 4.56281 0
M  V30 13683 C 198.389 -0.0359258 3.39981 0
M  V30 13684 O 198.299 1.19723 3.49038 0
M  V30 13685 N 198.339 -0.869151 2.14025 0
M  V30 13686 C 198.439 -2.01207 2.14363 0
M  V30 13687 N 198.389 -2.58978 0.954287 0
M  V30 13688 C 198.589 -2.80817 3.32215 0
M  V30 13689 C 198.639 -2.13785 4.50884 0
M  V30 13690 H 201.379 -1.93401 8.46693 0
M  V30 13691 H 201.649 -1.68181 6.71046 0
M  V30 13692 H 200.782 0.289076 8.15488 0
M  V30 13693 H 198.127 0.927166 5.72947 0
M  V30 13694 H 197.847 -1.87 6.82132 0
M  V30 13695 H 196.856 -0.404009 7.13457 0
M  V30 13696 H 198.69 -1.20599 8.97534 0
M  V30 13697 H 198.762 -2.70295 5.43162 0
M  V30 13698 H 198.66 -3.89465 3.27406 0
M  V30 13699 H 198.272 -2.01616 0.107046 0
M  V30 13700 H 198.468 -3.61403 0.873101 0
M  V30 13701 P 196.819 1.17771 8.83182 0
M  V30 13702 O 196.599 2.07206 9.98732 0
M  V30 13703 O 196.029 -0.0743816 8.81969 0
M  V30 13704 O 196.569 1.97678 7.474 0
M  V30 13705 C 197.509 3.01133 7.08783 0
M  V30 13706 C 196.779 4.1203 6.37546 0
M  V30 13707 O 196.569 3.72887 4.9796 0
M  V30 13708 C 195.379 4.45085 6.88694 0
M  V30 13709 O 194.989 5.78836 6.56315 0
M  V30 13710 C 194.499 3.47817 6.12078 0
M  V30 13711 C 195.209 3.39414 4.77697 0
M  V30 13712 N 195.159 2.04615 4.15333 0
M  V30 13713 C 195.009 1.96929 2.77162 0
M  V30 13714 O 194.919 3.02017 2.12006 0
M  V30 13715 N 194.959 0.55485 2.24237 0
M  V30 13716 C 195.059 -0.367808 2.9169 0
M  V30 13717 N 195.009 -1.53426 2.29427 0
M  V30 13718 C 195.209 -0.319148 4.33828 0
M  V30 13719 C 195.259 0.920672 4.90433 0
M  V30 13720 H 197.999 3.41209 7.98667 0
M  V30 13721 H 198.269 2.5837 6.41742 0
M  V30 13722 H 197.402 5.02718 6.42752 0
M  V30 13723 H 194.747 4.11779 4.09026 0
M  V30 13724 H 194.467 2.49661 6.61772 0
M  V30 13725 H 193.476 3.86674 6.00946 0
M  V30 13726 H 195.31 4.29991 7.97006 0
M  V30 13727 H 195.382 1.00589 5.98303 0
M  V30 13728 H 195.28 -1.22639 4.93799 0
M  V30 13729 H 194.892 -1.56819 1.27167 0
M  V30 13730 H 195.088 -2.41062 2.83063 0
M  V30 13731 P 193.439 6.144 6.45285 0
M  V30 13732 O 193.219 7.54673 6.86199 0
M  V30 13733 O 192.649 5.12391 7.179 0
M  V30 13734 O 193.189 5.99158 4.88404 0
M  V30 13735 C 194.129 6.60234 3.96415 0
M  V30 13736 C 193.399 7.08259 2.72856 0
M  V30 13737 O 193.189 5.9427 1.83651 0
M  V30 13738 C 191.999 7.64886 2.9555 0
M  V30 13739 O 191.609 8.53963 1.90717 0
M  V30 13740 C 191.119 6.4116 2.90739 0
M  V30 13741 C 191.829 5.55375 1.86963 0
M  V30 13742 N 191.779 4.09664 2.15742 0
M  V30 13743 H 194.618 7.45574 4.45629 0
M  V30 13744 H 194.89 5.86232 3.67314 0
M  V30 13745 H 194.022 7.84412 2.24479 0
M  V30 13746 P 190.059 8.7635 1.60911 0
M  V30 13747 O 189.839 10.1388 1.11561 0
M  V30 13748 O 189.269 8.36503 2.79617 0
M  V30 13749 O 189.809 7.71806 0.42951 0
M  V30 13750 C 190.749 7.67148 -0.673689 0
M  V30 13751 C 190.019 7.33374 -1.95559 0
M  V30 13752 O 189.809 5.88721 -2.00726 0
M  V30 13753 C 188.619 7.92526 -2.10483 0
M  V30 13754 O 188.229 8.02971 -3.47653 0
M  V30 13755 C 187.739 6.89602 -1.41652 0
M  V30 13756 C 188.449 5.59201 -1.75185 0
M  V30 13757 N 188.399 4.58301 -0.657969 0
M  V30 13758 C 188.479 4.79019 0.692603 0
M  V30 13759 N 188.409 3.69736 1.38998 0
M  V30 13760 C 188.259 2.70474 0.438135 0
M  V30 13761 C 188.129 1.30327 0.538142 0
M  V30 13762 N 188.119 0.64304 1.69192 0
M  V30 13763 N 188.009 0.611027 -0.605183 0
M  V30 13764 C 188.019 1.27002 -1.75953 0
M  V30 13765 N 188.139 2.56038 -1.98546 0
M  V30 13766 C 188.259 3.22681 -0.822541 0
M  V30 13767 H 191.238 8.65116 -0.777161 0
M  V30 13768 H 191.51 6.9022 -0.46725 0
M  V30 13769 H 190.642 7.66548 -2.79458 0
M  V30 13770 H 187.987 5.16165 -2.65183 0
M  V30 13771 H 187.707 7.06433 -0.329384 0
M  V30 13772 H 186.716 6.90926 -1.82021 0
M  V30 13773 H 188.55 8.90873 -1.62657 0
M  V30 13774 H 188.591 5.77785 1.13874 0
M  V30 13775 H 188.21 1.15585 2.57991 0
M  V30 13776 H 188.021 -0.382989 1.69835 0
M  V30 13777 H 187.913 0.653331 -2.64449 0
M  V30 13778 P 186.679 8.03563 -3.84925 0
M  V30 13779 O 186.459 8.85821 -5.0569 0
M  V30 13780 O 185.889 8.41101 -2.65469 0
M  V30 13781 O 186.429 6.49734 -4.18962 0
M  V30 13782 C 187.369 5.81037 -5.05421 0
M  V30 13783 C 186.639 4.79018 -5.88876 0
M  V30 13784 O 186.429 3.58359 -5.08515 0
M  V30 13785 C 185.239 5.17448 -6.36119 0
M  V30 13786 O 184.849 4.45322 -7.53318 0
M  V30 13787 C 184.359 4.74639 -5.19936 0
M  V30 13788 C 185.069 3.49432 -4.70418 0
M  V30 13789 N 185.019 3.31776 -3.22945 0
M  V30 13790 C 184.869 2.02742 -2.72939 0
M  V30 13791 O 184.779 1.08301 -3.52749 0
M  V30 13792 N 184.819 1.96117 -1.22063 0
M  V30 13793 C 184.919 2.8878 -0.551566 0
M  V30 13794 N 184.869 2.65609 0.750198 0
M  V30 13795 C 185.069 4.22457 -1.03707 0
M  V30 13796 C 185.119 4.37979 -2.39113 0
M  V30 13797 H 187.859 6.54138 -5.7131 0
M  V30 13798 H 188.129 5.30492 -4.44033 0
M  V30 13799 H 187.262 4.55945 -6.76735 0
M  V30 13800 H 184.607 2.6176 -5.18021 0
M  V30 13801 H 184.327 5.52233 -4.41941 0
M  V30 13802 H 183.336 4.52045 -5.53452 0
M  V30 13803 H 185.17 6.25124 -6.55234 0
M  V30 13804 H 185.242 5.37936 -2.80552 0
M  V30 13805 H 185.14 5.07528 -0.359553 0
M  V30 13806 H 184.752 1.69403 1.09847 0
M  V30 13807 H 184.948 3.43701 1.41792 0
M  V30 13808 P 183.299 4.23843 -7.83734 0
M  V30 13809 O 183.079 4.19407 -9.29784 0
M  V30 13810 O 182.509 5.24426 -7.09156 0
M  V30 13811 O 183.049 2.79386 -7.20852 0
M  V30 13812 C 183.989 1.7299 -7.50419 0
M  V30 13813 C 183.259 0.41401 -7.5797 0
M  V30 13814 O 183.049 -0.089787 -6.22035 0
M  V30 13815 C 181.859 0.447224 -8.1878 0
M  V30 13816 O 181.469 -0.825159 -8.71201 0
M  V30 13817 C 180.979 0.783801 -6.99623 0
M  V30 13818 C 181.689 0.0619192 -5.85967 0
M  V30 13819 N 181.639 0.7859 -4.56281 0
M  V30 13820 C 181.489 0.0359258 -3.39981 0
M  V30 13821 O 181.399 -1.19723 -3.49038 0
M  V30 13822 N 181.439 0.869151 -2.14025 0
M  V30 13823 C 181.539 2.01207 -2.14363 0
M  V30 13824 N 181.489 2.58978 -0.954287 0
M  V30 13825 C 181.689 2.80817 -3.32215 0
M  V30 13826 C 181.739 2.13785 -4.50884 0
M  V30 13827 H 184.479 1.93401 -8.46693 0
M  V30 13828 H 184.749 1.68181 -6.71046 0
M  V30 13829 H 183.882 -0.289076 -8.15488 0
M  V30 13830 H 181.227 -0.927166 -5.72947 0
M  V30 13831 H 180.947 1.87 -6.82132 0
M  V30 13832 H 179.956 0.404009 -7.13457 0
M  V30 13833 H 181.79 1.20599 -8.97534 0
M  V30 13834 H 181.862 2.70295 -5.43162 0
M  V30 13835 H 181.76 3.89465 -3.27406 0
M  V30 13836 H 181.372 2.01616 -0.107046 0
M  V30 13837 H 181.568 3.61403 -0.873101 0
M  V30 13838 P 179.919 -1.17771 -8.83182 0
M  V30 13839 O 179.699 -2.07206 -9.98732 0
M  V30 13840 O 179.129 0.0743816 -8.81969 0
M  V30 13841 O 179.669 -1.97652 -7.47304 0
M  V30 13842 C 180.609 -3.01133 -7.08783 0
M  V30 13843 C 179.879 -4.12613 -6.37049 0
M  V30 13844 O 179.669 -3.72827 -4.97879 0
M  V30 13845 C 178.479 -4.45085 -6.88694 0
M  V30 13846 O 178.089 -5.7877 -6.5624 0
M  V30 13847 C 177.599 -3.47817 -6.12078 0
M  V30 13848 C 178.309 -3.39414 -4.77697 0
M  V30 13849 N 178.259 -2.04199 -4.15538 0
M  V30 13850 H 181.098 -3.41248 -7.98759 0
M  V30 13851 H 181.37 -2.57728 -6.42 0
M  V30 13852 H 180.502 -5.02657 -6.42673 0
M  V30 13853 H 177.847 -4.11708 -4.08956 0
M  V30 13854 H 177.567 -2.49626 -6.61679 0
M  V30 13855 H 176.576 -3.8662 -6.00862 0
M  V30 13856 H 178.41 -4.29991 -7.97006 0
M  V30 13857 P 176.539 -6.144 -6.45285 0
M  V30 13858 O 176.319 -7.54673 -6.86199 0
M  V30 13859 O 175.749 -5.12391 -7.179 0
M  V30 13860 O 176.289 -5.99158 -4.88404 0
M  V30 13861 C 177.229 -6.60062 -3.96313 0
M  V30 13862 C 176.499 -7.08259 -2.72856 0
M  V30 13863 O 176.289 -5.9427 -1.83651 0
M  V30 13864 C 175.099 -7.65087 -2.94749 0
M  V30 13865 O 174.709 -8.53963 -1.90717 0
M  V30 13866 C 174.219 -6.41069 -2.90698 0
M  V30 13867 C 174.929 -5.5528 -1.86931 0
M  V30 13868 N 174.879 -4.09575 -2.15696 0
M  V30 13869 C 174.729 -3.24249 -1.08435 0
M  V30 13870 O 174.639 -3.63946 0.0628747 0
M  V30 13871 N 174.689 -1.90009 -1.39973 0
M  V30 13872 C 174.779 -1.34884 -2.65614 0
M  V30 13873 O 174.729 -0.123716 -2.81728 0
M  V30 13874 C 174.929 -2.3145 -3.71736 0
M  V30 13875 C 175.039 -1.75913 -5.10438 0
M  V30 13876 C 174.979 -3.63518 -3.44754 0
M  V30 13877 H 177.72 -7.45402 -4.45526 0
M  V30 13878 H 177.989 -5.86062 -3.67208 0
M  V30 13879 H 177.122 -7.84412 -2.24479 0
M  V30 13880 H 174.467 -5.73358 -0.888409 0
M  V30 13881 H 174.188 -5.90877 -3.88583 0
M  V30 13882 H 173.196 -6.65867 -2.58821 0
M  V30 13883 H 175.03 -8.16248 -3.92006 0
M  V30 13884 H 175.101 -4.34551 -4.26383 0
M  V30 13885 H 174.071 -1.85471 -5.61775 0
M  V30 13886 H 175.808 -2.31364 -5.66257 0
M  V30 13887 H 175.32 -0.695936 -5.05229 0
M  V30 13888 H 174.584 -1.26277 -0.63625 0
M  V30 13889 P 173.159 -8.7635 -1.60911 0
M  V30 13890 O 172.939 -10.1388 -1.11561 0
M  V30 13891 O 172.369 -8.36503 -2.79617 0
M  V30 13892 O 172.909 -7.71806 -0.42951 0
M  V30 13893 C 173.849 -7.67148 0.673689 0
M  V30 13894 C 173.119 -7.33374 1.95559 0
M  V30 13895 O 172.909 -5.88721 2.00726 0
M  V30 13896 C 171.719 -7.92526 2.10483 0
M  V30 13897 O 171.329 -8.02971 3.47653 0
M  V30 13898 C 170.839 -6.89602 1.41652 0
M  V30 13899 C 171.549 -5.59201 1.75185 0
M  V30 13900 N 171.499 -4.58301 0.657969 0
M  V30 13901 C 171.579 -4.79019 -0.692603 0
M  V30 13902 N 171.509 -3.69736 -1.38998 0
M  V30 13903 C 171.359 -2.70474 -0.438135 0
M  V30 13904 C 171.229 -1.30327 -0.538142 0
M  V30 13905 N 171.219 -0.64304 -1.69192 0
M  V30 13906 N 171.109 -0.611027 0.605183 0
M  V30 13907 C 171.119 -1.27002 1.75953 0
M  V30 13908 N 171.239 -2.56038 1.98546 0
M  V30 13909 C 171.359 -3.22681 0.822541 0
M  V30 13910 H 174.338 -8.65116 0.777161 0
M  V30 13911 H 174.61 -6.9022 0.46725 0
M  V30 13912 H 173.742 -7.66548 2.79458 0
M  V30 13913 H 171.087 -5.16165 2.65183 0
M  V30 13914 H 170.807 -7.06433 0.329384 0
M  V30 13915 H 169.816 -6.90926 1.82021 0
M  V30 13916 H 171.65 -8.90873 1.62657 0
M  V30 13917 H 171.691 -5.77785 -1.13874 0
M  V30 13918 H 171.31 -1.15585 -2.57991 0
M  V30 13919 H 171.121 0.382989 -1.69835 0
M  V30 13920 H 171.013 -0.653331 2.64449 0
M  V30 13921 P 169.779 -8.03563 3.84925 0
M  V30 13922 O 169.559 -8.85821 5.0569 0
M  V30 13923 O 168.989 -8.41101 2.65469 0
M  V30 13924 O 169.529 -6.49734 4.18962 0
M  V30 13925 C 170.469 -5.81037 5.05421 0
M  V30 13926 C 169.739 -4.79018 5.88876 0
M  V30 13927 O 169.529 -3.58359 5.08515 0
M  V30 13928 C 168.339 -5.17448 6.36119 0
M  V30 13929 O 167.949 -4.45322 7.53318 0
M  V30 13930 C 167.459 -4.74639 5.19936 0
M  V30 13931 C 168.169 -3.49432 4.70418 0
M  V30 13932 N 168.119 -3.31776 3.22945 0
M  V30 13933 C 167.969 -2.02742 2.72939 0
M  V30 13934 O 167.879 -1.08301 3.52749 0
M  V30 13935 N 167.919 -1.96117 1.22063 0
M  V30 13936 C 168.019 -2.8878 0.551566 0
M  V30 13937 N 167.969 -2.65609 -0.750198 0
M  V30 13938 C 168.169 -4.22457 1.03707 0
M  V30 13939 C 168.219 -4.37979 2.39113 0
M  V30 13940 H 170.959 -6.54138 5.7131 0
M  V30 13941 H 171.229 -5.30492 4.44033 0
M  V30 13942 H 170.362 -4.55945 6.76735 0
M  V30 13943 H 167.707 -2.6176 5.18021 0
M  V30 13944 H 167.427 -5.52233 4.41941 0
M  V30 13945 H 166.436 -4.52045 5.53452 0
M  V30 13946 H 168.27 -6.25124 6.55234 0
M  V30 13947 H 168.342 -5.37936 2.80552 0
M  V30 13948 H 168.24 -5.07528 0.359553 0
M  V30 13949 H 167.852 -1.69403 -1.09847 0
M  V30 13950 H 168.048 -3.43701 -1.41792 0
M  V30 13951 P 166.399 -4.23843 7.83734 0
M  V30 13952 O 166.179 -4.19407 9.29784 0
M  V30 13953 O 165.609 -5.24426 7.09156 0
M  V30 13954 O 166.149 -2.79386 7.20852 0
M  V30 13955 C 167.089 -1.7299 7.50419 0
M  V30 13956 C 166.359 -0.41401 7.5797 0
M  V30 13957 O 166.149 0.089787 6.22035 0
M  V30 13958 C 164.959 -0.447224 8.1878 0
M  V30 13959 O 164.569 0.825159 8.71201 0
M  V30 13960 C 164.079 -0.783801 6.99623 0
M  V30 13961 C 164.789 -0.0619192 5.85967 0
M  V30 13962 N 164.739 -0.7859 4.56281 0
M  V30 13963 C 164.589 -0.0359258 3.39981 0
M  V30 13964 O 164.499 1.19723 3.49038 0
M  V30 13965 N 164.539 -0.869151 2.14025 0
M  V30 13966 C 164.639 -2.01207 2.14363 0
M  V30 13967 N 164.589 -2.58978 0.954287 0
M  V30 13968 C 164.789 -2.80817 3.32215 0
M  V30 13969 C 164.839 -2.13785 4.50884 0
M  V30 13970 H 167.579 -1.93401 8.46693 0
M  V30 13971 H 167.849 -1.68181 6.71046 0
M  V30 13972 H 166.982 0.289076 8.15488 0
M  V30 13973 H 164.327 0.927166 5.72947 0
M  V30 13974 H 164.047 -1.87 6.82132 0
M  V30 13975 H 163.056 -0.404009 7.13457 0
M  V30 13976 H 164.89 -1.20599 8.97534 0
M  V30 13977 H 164.962 -2.70295 5.43162 0
M  V30 13978 H 164.86 -3.89465 3.27406 0
M  V30 13979 H 164.472 -2.01616 0.107046 0
M  V30 13980 H 164.668 -3.61403 0.873101 0
M  V30 13981 P 163.019 1.17771 8.83182 0
M  V30 13982 O 162.799 2.07206 9.98732 0
M  V30 13983 O 162.229 -0.0743816 8.81969 0
M  V30 13984 O 162.769 1.97678 7.474 0
M  V30 13985 C 163.709 3.01133 7.08783 0
M  V30 13986 C 162.979 4.1203 6.37546 0
M  V30 13987 O 162.769 3.72887 4.9796 0
M  V30 13988 C 161.579 4.45085 6.88694 0
M  V30 13989 O 161.189 5.78836 6.56315 0
M  V30 13990 C 160.699 3.47817 6.12078 0
M  V30 13991 C 161.409 3.39414 4.77697 0
M  V30 13992 N 161.359 2.04615 4.15333 0
M  V30 13993 C 161.209 1.96929 2.77162 0
M  V30 13994 O 161.119 3.02017 2.12006 0
M  V30 13995 N 161.159 0.55485 2.24237 0
M  V30 13996 C 161.259 -0.367808 2.9169 0
M  V30 13997 N 161.209 -1.53426 2.29427 0
M  V30 13998 C 161.409 -0.319148 4.33828 0
M  V30 13999 C 161.459 0.920672 4.90433 0
M  V30 14000 H 164.199 3.41209 7.98667 0
M  V30 14001 H 164.469 2.5837 6.41742 0
M  V30 14002 H 163.602 5.02718 6.42752 0
M  V30 14003 H 160.947 4.11779 4.09026 0
M  V30 14004 H 160.667 2.49661 6.61772 0
M  V30 14005 H 159.676 3.86674 6.00946 0
M  V30 14006 H 161.51 4.29991 7.97006 0
M  V30 14007 H 161.582 1.00589 5.98303 0
M  V30 14008 H 161.48 -1.22639 4.93799 0
M  V30 14009 H 161.092 -1.56819 1.27167 0
M  V30 14010 H 161.288 -2.41062 2.83063 0
M  V30 14011 P 159.639 6.144 6.45285 0
M  V30 14012 O 159.419 7.54673 6.86199 0
M  V30 14013 O 158.849 5.12391 7.179 0
M  V30 14014 O 159.389 5.99158 4.88404 0
M  V30 14015 C 160.329 6.60234 3.96415 0
M  V30 14016 C 159.599 7.08259 2.72856 0
M  V30 14017 O 159.389 5.9427 1.83651 0
M  V30 14018 C 158.199 7.64886 2.9555 0
M  V30 14019 O 157.809 8.53963 1.90717 0
M  V30 14020 C 157.319 6.4116 2.90739 0
M  V30 14021 C 158.029 5.55375 1.86963 0
M  V30 14022 N 157.979 4.09448 2.16152 0
M  V30 14023 C 158.059 3.46824 3.37593 0
M  V30 14024 N 157.989 2.17422 3.29777 0
M  V30 14025 C 157.839 1.93065 1.94427 0
M  V30 14026 C 157.709 0.738053 1.20141 0
M  V30 14027 N 157.699 -0.474256 1.74676 0
M  V30 14028 N 157.589 0.850049 -0.13045 0
M  V30 14029 C 157.599 2.06169 -0.676992 0
M  V30 14030 N 157.719 3.23842 -0.101312 0
M  V30 14031 C 157.839 3.09402 1.23122 0
M  V30 14032 H 160.818 7.45574 4.45629 0
M  V30 14033 H 161.09 5.85864 3.679 0
M  V30 14034 H 160.222 7.84412 2.24479 0
M  V30 14035 H 157.567 5.73457 0.888562 0
M  V30 14036 H 157.287 5.90877 3.88583 0
M  V30 14037 H 156.296 6.6596 2.58858 0
M  V30 14038 H 158.13 8.16339 3.92049 0
M  V30 14039 H 158.171 4.00505 4.3174 0
M  V30 14040 H 157.79 -0.581337 2.76658 0
M  V30 14041 H 157.601 -1.30811 1.14888 0
M  V30 14042 H 157.493 2.08295 -1.75542 0
M  V30 14043 P 156.259 8.7635 1.60911 0
M  V30 14044 O 156.039 10.1388 1.11561 0
M  V30 14045 O 155.469 8.36503 2.79617 0
M  V30 14046 O 156.009 7.71906 0.429565 0
M  V30 14047 C 156.949 7.67148 -0.673689 0
M  V30 14048 C 156.219 7.33666 -1.94851 0
M  V30 14049 O 156.009 5.88816 -2.00759 0
M  V30 14050 C 154.819 7.92526 -2.10483 0
M  V30 14051 O 154.429 8.03063 -3.47693 0
M  V30 14052 C 153.939 6.89602 -1.41652 0
M  V30 14053 C 154.649 5.59201 -1.75185 0
M  V30 14054 N 154.599 4.58235 -0.662552 0
M  V30 14055 C 154.449 3.24451 -1.01643 0
M  V30 14056 O 154.359 2.94958 -2.21722 0
M  V30 14057 N 154.399 2.30408 0.165238 0
M  V30 14058 C 154.499 2.66048 1.25118 0
M  V30 14059 N 154.449 1.70787 2.16813 0
M  V30 14060 C 154.649 4.02732 1.64413 0
M  V30 14061 C 154.699 4.9488 0.63991 0
M  V30 14062 H 157.439 8.65017 -0.777072 0
M  V30 14063 H 157.709 6.90173 -0.474152 0
M  V30 14064 H 156.842 7.66642 -2.79492 0
M  V30 14065 H 154.187 5.16254 -2.65229 0
M  V30 14066 H 153.907 7.06532 -0.329431 0
M  V30 14067 H 152.916 6.91023 -1.82047 0
M  V30 14068 H 154.75 8.90873 -1.62657 0
M  V30 14069 H 154.822 6.00104 0.892197 0
M  V30 14070 H 154.72 4.31733 2.69229 0
M  V30 14071 H 154.332 0.724835 1.8844 0
M  V30 14072 H 154.528 1.94716 3.16734 0
M  V30 14073 P 152.879 8.03563 -3.84925 0
M  V30 14074 O 152.659 8.85821 -5.0569 0
M  V30 14075 O 152.089 8.41101 -2.65469 0
M  V30 14076 O 152.629 6.4965 -4.18908 0
M  V30 14077 C 153.569 5.80886 -5.05289 0
M  V30 14078 C 152.839 4.78366 -5.89277 0
M  V30 14079 O 152.629 3.58302 -5.08433 0
M  V30 14080 C 151.439 5.16748 -6.36559 0
M  V30 14081 O 151.049 4.45271 -7.53232 0
M  V30 14082 C 150.559 4.74572 -5.19863 0
M  V30 14083 C 151.269 3.49373 -4.70338 0
M  V30 14084 N 151.219 3.31704 -3.22876 0
M  V30 14085 C 151.069 2.03326 -2.74871 0
M  V30 14086 O 150.979 1.06486 -3.48076 0
M  V30 14087 N 151.029 1.91838 -1.37456 0
M  V30 14088 C 151.119 2.94295 -0.462035 0
M  V30 14089 O 151.069 2.71763 0.752928 0
M  V30 14090 C 151.269 4.25064 -1.05249 0
M  V30 14091 C 151.379 5.39815 -0.095697 0
M  V30 14092 C 151.319 4.40214 -2.39192 0
M  V30 14093 H 154.06 6.54063 -5.71245 0
M  V30 14094 H 154.329 5.30339 -4.43905 0
M  V30 14095 H 153.462 4.55889 -6.76652 0
M  V30 14096 H 150.807 2.6167 -5.17842 0
M  V30 14097 H 150.528 5.52155 -4.41878 0
M  V30 14098 H 149.536 4.51918 -5.53297 0
M  V30 14099 H 151.37 6.25055 -6.55162 0
M  V30 14100 H 151.441 5.39798 -2.81523 0
M  V30 14101 H 150.411 5.91593 -0.0279582 0
M  V30 14102 H 152.148 6.10038 -0.450573 0
M  V30 14103 H 151.66 5.02007 0.89937 0
M  V30 14104 H 150.924 0.995326 -1.00435 0
M  V30 14105 P 149.499 4.23843 -7.83734 0
M  V30 14106 O 149.279 4.19407 -9.29784 0
M  V30 14107 O 148.709 5.24426 -7.09156 0
M  V30 14108 O 149.249 2.79386 -7.20852 0
M  V30 14109 C 150.189 1.7299 -7.50419 0
M  V30 14110 C 149.459 0.41401 -7.5797 0
M  V30 14111 O 149.249 -0.089787 -6.22035 0
M  V30 14112 C 148.059 0.447224 -8.1878 0
M  V30 14113 O 147.669 -0.825159 -8.71201 0
M  V30 14114 C 147.179 0.783801 -6.99623 0
M  V30 14115 C 147.889 0.0619192 -5.85967 0
M  V30 14116 N 147.839 0.7859 -4.56281 0
M  V30 14117 C 147.689 0.0359258 -3.39981 0
M  V30 14118 O 147.599 -1.19723 -3.49038 0
M  V30 14119 N 147.639 0.869151 -2.14025 0
M  V30 14120 C 147.739 2.01207 -2.14363 0
M  V30 14121 N 147.689 2.58978 -0.954287 0
M  V30 14122 C 147.889 2.80817 -3.32215 0
M  V30 14123 C 147.939 2.13785 -4.50884 0
M  V30 14124 H 150.679 1.93401 -8.46693 0
M  V30 14125 H 150.949 1.68181 -6.71046 0
M  V30 14126 H 150.082 -0.289076 -8.15488 0
M  V30 14127 H 147.427 -0.927166 -5.72947 0
M  V30 14128 H 147.147 1.87 -6.82132 0
M  V30 14129 H 146.156 0.404009 -7.13457 0
M  V30 14130 H 147.99 1.20599 -8.97534 0
M  V30 14131 H 148.062 2.70295 -5.43162 0
M  V30 14132 H 147.96 3.89465 -3.27406 0
M  V30 14133 H 147.572 2.01616 -0.107046 0
M  V30 14134 H 147.768 3.61403 -0.873101 0
M  V30 14135 P 146.119 -1.17771 -8.83182 0
M  V30 14136 O 145.899 -2.07206 -9.98732 0
M  V30 14137 O 145.329 0.0743816 -8.81969 0
M  V30 14138 O 145.869 -1.97652 -7.47304 0
M  V30 14139 C 146.809 -3.01133 -7.08783 0
M  V30 14140 C 146.079 -4.12613 -6.37049 0
M  V30 14141 O 145.869 -3.72827 -4.97879 0
M  V30 14142 C 144.679 -4.45085 -6.88694 0
M  V30 14143 O 144.289 -5.7877 -6.5624 0
M  V30 14144 C 143.799 -3.47817 -6.12078 0
M  V30 14145 C 144.509 -3.39414 -4.77697 0
M  V30 14146 N 144.459 -2.04199 -4.15538 0
M  V30 14147 H 147.298 -3.41248 -7.98759 0
M  V30 14148 H 147.57 -2.57728 -6.42 0
M  V30 14149 H 146.702 -5.02657 -6.42673 0
M  V30 14150 H 144.047 -4.11708 -4.08956 0
M  V30 14151 H 143.767 -2.49626 -6.61679 0
M  V30 14152 H 142.776 -3.8662 -6.00862 0
M  V30 14153 H 144.61 -4.29991 -7.97006 0
M  V30 14154 P 142.739 -6.144 -6.45285 0
M  V30 14155 O 142.519 -7.54673 -6.86199 0
M  V30 14156 O 141.949 -5.12391 -7.179 0
M  V30 14157 O 142.489 -5.99236 -4.88467 0
M  V30 14158 C 143.429 -6.60234 -3.96415 0
M  V30 14159 C 142.699 -7.08079 -2.736 0
M  V30 14160 O 142.489 -5.94365 -1.8368 0
M  V30 14161 C 141.299 -7.64886 -2.9555 0
M  V30 14162 O 140.909 -8.5406 -1.90739 0
M  V30 14163 C 140.419 -6.4116 -2.90739 0
M  V30 14164 C 141.129 -5.55375 -1.86963 0
M  V30 14165 N 141.079 -4.09664 -2.15742 0
M  V30 14166 C 140.929 -3.22231 -1.08477 0
M  V30 14167 O 140.839 -3.68951 0.0600489 0
M  V30 14168 N 140.879 -1.76692 -1.48799 0
M  V30 14169 C 140.979 -1.41695 -2.57602 0
M  V30 14170 N 140.929 -0.107296 -2.75791 0
M  V30 14171 C 141.129 -2.29178 -3.69733 0
M  V30 14172 C 141.179 -3.62753 -3.42653 0
M  V30 14173 H 143.919 -7.45488 -4.45578 0
M  V30 14174 H 144.189 -5.86232 -3.67314 0
M  V30 14175 H 143.322 -7.84508 -2.24507 0
M  V30 14176 H 140.667 -5.73556 -0.888715 0
M  V30 14177 H 140.387 -5.9096 -3.88638 0
M  V30 14178 H 139.396 -6.66053 -2.58894 0
M  V30 14179 H 141.23 -8.16339 -3.92049 0
M  V30 14180 H 141.302 -4.33052 -4.24913 0
M  V30 14181 H 141.2 -1.9103 -4.71577 0
M  V30 14182 H 140.812 0.521221 -1.95056 0
M  V30 14183 H 141.008 0.286429 -3.70695 0
M  V30 14184 P 139.359 -8.7635 -1.60911 0
M  V30 14185 O 139.139 -10.1388 -1.11561 0
M  V30 14186 O 138.569 -8.36503 -2.79617 0
M  V30 14187 O 139.109 -7.71806 -0.42951 0
M  V30 14188 C 140.049 -7.66948 0.673514 0
M  V30 14189 C 139.319 -7.33374 1.95559 0
M  V30 14190 O 139.109 -5.88721 2.00726 0
M  V30 14191 C 137.919 -7.92218 2.1125 0
M  V30 14192 O 137.529 -8.02971 3.47653 0
M  V30 14193 C 137.039 -6.89504 1.41631 0
M  V30 14194 C 137.749 -5.59106 1.75155 0
M  V30 14195 N 137.699 -4.58136 0.662409 0
M  V30 14196 C 137.549 -3.26059 1.02863 0
M  V30 14197 O 137.459 -2.90743 2.19009 0
M  V30 14198 N 137.509 -2.35995 -0.0155585 0
M  V30 14199 C 137.599 -2.65248 -1.35603 0
M  V30 14200 O 137.549 -1.75605 -2.20651 0
M  V30 14201 C 137.749 -4.05747 -1.64698 0
M  V30 14202 C 137.859 -4.42345 -3.09553 0
M  V30 14203 C 137.799 -4.96734 -0.652411 0
M  V30 14204 H 140.54 -8.64917 0.776982 0
M  V30 14205 H 140.809 -6.89974 0.474015 0
M  V30 14206 H 139.942 -7.66548 2.79458 0
M  V30 14207 H 137.287 -5.16076 2.65138 0
M  V30 14208 H 137.008 -7.06433 0.329384 0
M  V30 14209 H 136.016 -6.90829 1.81996 0
M  V30 14210 H 137.85 -8.90774 1.62639 0
M  V30 14211 H 137.921 -6.02181 -0.895285 0
M  V30 14212 H 136.891 -4.80252 -3.45468 0
M  V30 14213 H 138.628 -5.20015 -3.22119 0
M  V30 14214 H 138.14 -3.53269 -3.67833 0
M  V30 14215 H 137.404 -1.39558 0.227499 0
M  V30 14216 P 135.979 -8.03563 3.84925 0
M  V30 14217 O 135.759 -8.85821 5.0569 0
M  V30 14218 O 135.189 -8.41101 2.65469 0
M  V30 14219 O 135.729 -6.4965 4.18908 0
M  V30 14220 C 136.669 -5.80886 5.05289 0
M  V30 14221 C 135.939 -4.78366 5.89277 0
M  V30 14222 O 135.729 -3.58302 5.08433 0
M  V30 14223 C 134.539 -5.16748 6.36559 0
M  V30 14224 O 134.149 -4.45271 7.53232 0
M  V30 14225 C 133.659 -4.74572 5.19863 0
M  V30 14226 C 134.369 -3.49373 4.70338 0
M  V30 14227 N 134.319 -3.31704 3.22876 0
M  V30 14228 C 134.169 -2.03326 2.74871 0
M  V30 14229 O 134.079 -1.06486 3.48076 0
M  V30 14230 N 134.129 -1.91838 1.37456 0
M  V30 14231 C 134.219 -2.94295 0.462035 0
M  V30 14232 O 134.169 -2.71763 -0.752928 0
M  V30 14233 C 134.369 -4.25064 1.05249 0
M  V30 14234 C 134.479 -5.39815 0.095697 0
M  V30 14235 C 134.419 -4.40214 2.39192 0
M  V30 14236 H 137.16 -6.54063 5.71245 0
M  V30 14237 H 137.429 -5.30339 4.43905 0
M  V30 14238 H 136.562 -4.55889 6.76652 0
M  V30 14239 H 133.907 -2.6167 5.17842 0
M  V30 14240 H 133.628 -5.52155 4.41878 0
M  V30 14241 H 132.636 -4.51918 5.53297 0
M  V30 14242 H 134.47 -6.25055 6.55162 0
M  V30 14243 H 134.541 -5.39798 2.81523 0
M  V30 14244 H 133.511 -5.91593 0.0279582 0
M  V30 14245 H 135.248 -6.10038 0.450573 0
M  V30 14246 H 134.76 -5.02007 -0.89937 0
M  V30 14247 H 134.024 -0.995326 1.00435 0
M  V30 14248 P 132.599 -4.23843 7.83734 0
M  V30 14249 O 132.379 -4.19407 9.29784 0
M  V30 14250 O 131.809 -5.24426 7.09156 0
M  V30 14251 O 132.349 -2.7935 7.20758 0
M  V30 14252 C 133.289 -1.72945 7.50224 0
M  V30 14253 C 132.559 -0.406376 7.57911 0
M  V30 14254 O 132.349 0.0897726 6.21935 0
M  V30 14255 C 131.159 -0.438983 8.18724 0
M  V30 14256 O 130.769 0.825065 8.71101 0
M  V30 14257 C 130.279 -0.783689 6.99524 0
M  V30 14258 C 130.989 -0.0619086 5.85867 0
M  V30 14259 N 130.939 -0.78573 4.56183 0
M  V30 14260 C 130.789 -0.0292889 3.41887 0
M  V30 14261 O 130.699 1.18445 3.4419 0
M  V30 14262 N 130.749 -0.744061 2.23964 0
M  V30 14263 C 130.839 -2.10932 2.10362 0
M  V30 14264 O 130.789 -2.64117 0.98825 0
M  V30 14265 C 130.989 -2.8202 3.34994 0
M  V30 14266 C 131.099 -4.31095 3.25037 0
M  V30 14267 C 131.039 -2.15547 4.52261 0
M  V30 14268 H 133.78 -1.93379 8.46595 0
M  V30 14269 H 134.049 -1.68132 6.70852 0
M  V30 14270 H 133.182 0.289041 8.15388 0
M  V30 14271 H 130.527 0.926847 5.72749 0
M  V30 14272 H 130.248 -1.86973 6.82036 0
M  V30 14273 H 129.256 -0.403896 7.13257 0
M  V30 14274 H 131.09 -1.20585 8.97435 0
M  V30 14275 H 131.161 -2.71231 5.45042 0
M  V30 14276 H 130.131 -4.76966 3.49992 0
M  V30 14277 H 131.868 -4.67047 3.95024 0
M  V30 14278 H 131.38 -4.58996 2.22312 0
M  V30 14279 H 130.644 -0.214893 1.39758 0
M  V30 14280 P 129.219 1.17771 8.83182 0
M  V30 14281 O 128.999 2.07206 9.98732 0
M  V30 14282 O 128.429 -0.0743816 8.81969 0
M  V30 14283 O 128.969 1.97652 7.47304 0
M  V30 14284 C 129.909 3.01055 7.08599 0
M  V30 14285 C 129.179 4.12613 6.37049 0
M  V30 14286 O 128.969 3.72827 4.97879 0
M  V30 14287 C 127.779 4.45719 6.88164 0
M  V30 14288 O 127.389 5.7877 6.5624 0
M  V30 14289 C 126.899 3.47768 6.11991 0
M  V30 14290 C 127.609 3.39356 4.77615 0
M  V30 14291 N 127.559 2.04571 4.15244 0
M  V30 14292 C 127.409 1.98587 2.78314 0
M  V30 14293 O 127.319 2.98134 2.08835 0
M  V30 14294 N 127.369 0.714467 2.24925 0
M  V30 14295 C 127.459 -0.470001 2.94169 0
M  V30 14296 O 127.409 -1.55587 2.35195 0
M  V30 14297 C 127.609 -0.312541 4.36783 0
M  V30 14298 C 127.719 -1.57711 5.16352 0
M  V30 14299 C 127.659 0.914512 4.92583 0
M  V30 14300 H 130.4 3.41169 7.98575 0
M  V30 14301 H 130.669 2.58295 6.41556 0
M  V30 14302 H 129.802 5.02657 6.42673 0
M  V30 14303 H 127.147 4.11637 4.08885 0
M  V30 14304 H 126.868 2.49626 6.61679 0
M  V30 14305 H 125.876 3.86566 6.00778 0
M  V30 14306 H 127.71 4.29943 7.96918 0
M  V30 14307 H 127.781 1.00937 6.00374 0
M  V30 14308 H 126.751 -1.80153 5.63503 0
M  V30 14309 H 128.488 -1.4566 5.94104 0
M  V30 14310 H 128 -2.40664 4.49645 0
M  V30 14311 H 127.264 0.647622 1.25697 0
M  V30 14312 P 125.839 6.144 6.45285 0
M  V30 14313 O 125.619 7.54673 6.86199 0
M  V30 14314 O 125.049 5.12391 7.179 0
M  V30 14315 O 125.589 5.99158 4.88404 0
M  V30 14316 C 126.529 6.60062 3.96313 0
M  V30 14317 C 125.799 7.08259 2.72856 0
M  V30 14318 O 125.589 5.9427 1.83651 0
M  V30 14319 C 124.399 7.65087 2.94749 0
M  V30 14320 O 124.009 8.53963 1.90717 0
M  V30 14321 C 123.519 6.41069 2.90698 0
M  V30 14322 C 124.229 5.5528 1.86931 0
M  V30 14323 N 124.179 4.09575 2.15696 0
M  V30 14324 C 124.029 3.24249 1.08435 0
M  V30 14325 O 123.939 3.63946 -0.0628747 0
M  V30 14326 N 123.989 1.90009 1.39973 0
M  V30 14327 C 124.079 1.34884 2.65614 0
M  V30 14328 O 124.029 0.123716 2.81728 0
M  V30 14329 C 124.229 2.3145 3.71736 0
M  V30 14330 C 124.339 1.75913 5.10438 0
M  V30 14331 C 124.279 3.63518 3.44754 0
M  V30 14332 H 127.02 7.45402 4.45526 0
M  V30 14333 H 127.289 5.86062 3.67208 0
M  V30 14334 H 126.422 7.84412 2.24479 0
M  V30 14335 H 123.767 5.73358 0.888409 0
M  V30 14336 H 123.488 5.90877 3.88583 0
M  V30 14337 H 122.496 6.65867 2.58821 0
M  V30 14338 H 124.33 8.16248 3.92006 0
M  V30 14339 H 124.401 4.34551 4.26383 0
M  V30 14340 H 123.371 1.85471 5.61775 0
M  V30 14341 H 125.108 2.31364 5.66257 0
M  V30 14342 H 124.62 0.695936 5.05229 0
M  V30 14343 H 123.884 1.26277 0.63625 0
M  V30 14344 P 122.459 8.7635 1.60911 0
M  V30 14345 O 122.239 10.1388 1.11561 0
M  V30 14346 O 121.669 8.36503 2.79617 0
M  V30 14347 O 122.209 7.71906 0.429565 0
M  V30 14348 C 123.149 7.67148 -0.673689 0
M  V30 14349 C 122.419 7.33666 -1.94851 0
M  V30 14350 O 122.209 5.88816 -2.00759 0
M  V30 14351 C 121.019 7.92526 -2.10483 0
M  V30 14352 O 120.629 8.03063 -3.47693 0
M  V30 14353 C 120.139 6.89602 -1.41652 0
M  V30 14354 C 120.849 5.59201 -1.75185 0
M  V30 14355 N 120.799 4.58235 -0.662552 0
M  V30 14356 C 120.649 3.24451 -1.01643 0
M  V30 14357 O 120.559 2.94958 -2.21722 0
M  V30 14358 N 120.599 2.30408 0.165238 0
M  V30 14359 C 120.699 2.66048 1.25118 0
M  V30 14360 N 120.649 1.70787 2.16813 0
M  V30 14361 C 120.849 4.02732 1.64413 0
M  V30 14362 C 120.899 4.9488 0.63991 0
M  V30 14363 H 123.639 8.65017 -0.777072 0
M  V30 14364 H 123.909 6.90173 -0.474152 0
M  V30 14365 H 123.042 7.66642 -2.79492 0
M  V30 14366 H 120.387 5.16254 -2.65229 0
M  V30 14367 H 120.107 7.06532 -0.329431 0
M  V30 14368 H 119.116 6.91023 -1.82047 0
M  V30 14369 H 120.95 8.90873 -1.62657 0
M  V30 14370 H 121.022 6.00104 0.892197 0
M  V30 14371 H 120.92 4.31733 2.69229 0
M  V30 14372 H 120.532 0.724835 1.8844 0
M  V30 14373 H 120.728 1.94716 3.16734 0
M  V30 14374 P 119.079 8.03563 -3.84925 0
M  V30 14375 O 118.859 8.85821 -5.0569 0
M  V30 14376 O 118.289 8.41101 -2.65469 0
M  V30 14377 O 118.829 6.4965 -4.18908 0
M  V30 14378 C 119.769 5.81037 -5.05421 0
M  V30 14379 C 119.039 4.78366 -5.89277 0
M  V30 14380 O 118.829 3.58302 -5.08433 0
M  V30 14381 C 117.639 5.17448 -6.36119 0
M  V30 14382 O 117.249 4.45271 -7.53232 0
M  V30 14383 C 116.759 4.74639 -5.19936 0
M  V30 14384 C 117.469 3.49432 -4.70418 0
M  V30 14385 N 117.419 3.31776 -3.22945 0
M  V30 14386 H 120.258 6.54213 -5.71376 0
M  V30 14387 H 120.53 5.30492 -4.44033 0
M  V30 14388 H 119.662 4.55889 -6.76652 0
M  V30 14389 P 115.699 4.23843 -7.83734 0
M  V30 14390 O 115.479 4.19407 -9.29784 0
M  V30 14391 O 114.909 5.24426 -7.09156 0
M  V30 14392 O 115.449 2.7935 -7.20758 0
M  V30 14393 C 116.389 1.7299 -7.50419 0
M  V30 14394 C 115.659 0.406376 -7.57911 0
M  V30 14395 O 115.449 -0.0897726 -6.21935 0
M  V30 14396 C 114.259 0.447224 -8.1878 0
M  V30 14397 O 113.869 -0.825065 -8.71101 0
M  V30 14398 C 113.379 0.783801 -6.99623 0
M  V30 14399 C 114.089 0.0619192 -5.85967 0
M  V30 14400 N 114.039 0.790462 -4.56202 0
M  V30 14401 C 114.119 2.13895 -4.34171 0
M  V30 14402 N 114.049 2.46449 -3.08687 0
M  V30 14403 C 113.899 1.2525 -2.43697 0
M  V30 14404 C 113.769 0.914535 -1.07318 0
M  V30 14405 N 113.759 1.80782 -0.0887348 0
M  V30 14406 N 113.649 -0.386745 -0.768133 0
M  V30 14407 C 113.659 -1.28096 -1.75159 0
M  V30 14408 N 113.779 -1.09708 -3.04861 0
M  V30 14409 C 113.899 0.214857 -3.32306 0
M  V30 14410 H 116.878 1.93423 -8.4679 0
M  V30 14411 H 117.15 1.68852 -6.70877 0
M  V30 14412 H 116.282 -0.289041 -8.15388 0
M  V30 14413 H 113.627 -0.927006 -5.72848 0
M  V30 14414 H 113.347 1.86973 -6.82036 0
M  V30 14415 H 112.356 0.403953 -7.13357 0
M  V30 14416 H 114.19 1.20599 -8.97534 0
M  V30 14417 H 114.231 2.86846 -5.14318 0
M  V30 14418 H 113.85 2.81082 -0.302037 0
M  V30 14419 H 113.661 1.49688 0.889064 0
M  V30 14420 H 113.553 -2.31317 -1.43855 0
M  V30 14421 P 112.319 -1.17771 -8.83182 0
M  V30 14422 O 112.099 -2.07206 -9.98732 0
M  V30 14423 O 111.529 0.0743816 -8.81969 0
M  V30 14424 O 112.069 -1.97652 -7.47304 0
M  V30 14425 C 113.009 -3.01055 -7.08599 0
M  V30 14426 C 112.279 -4.12613 -6.37049 0
M  V30 14427 O 112.069 -3.72827 -4.97879 0
M  V30 14428 C 110.879 -4.45719 -6.88164 0
M  V30 14429 O 110.489 -5.7877 -6.5624 0
M  V30 14430 C 109.999 -3.47768 -6.11991 0
M  V30 14431 C 110.709 -3.39356 -4.77615 0
M  V30 14432 N 110.659 -2.04571 -4.15244 0
M  V30 14433 C 110.509 -1.98587 -2.78314 0
M  V30 14434 O 110.419 -2.98134 -2.08835 0
M  V30 14435 N 110.469 -0.714467 -2.24925 0
M  V30 14436 C 110.559 0.470001 -2.94169 0
M  V30 14437 O 110.509 1.55587 -2.35195 0
M  V30 14438 C 110.709 0.312541 -4.36783 0
M  V30 14439 C 110.819 1.57711 -5.16352 0
M  V30 14440 C 110.759 -0.914512 -4.92583 0
M  V30 14441 H 113.5 -3.41169 -7.98575 0
M  V30 14442 H 113.769 -2.58295 -6.41556 0
M  V30 14443 H 112.902 -5.02657 -6.42673 0
M  V30 14444 H 110.247 -4.11637 -4.08885 0
M  V30 14445 H 109.968 -2.49626 -6.61679 0
M  V30 14446 H 108.976 -3.86566 -6.00778 0
M  V30 14447 H 110.81 -4.29943 -7.96918 0
M  V30 14448 H 110.881 -1.00937 -6.00374 0
M  V30 14449 H 109.851 1.80153 -5.63503 0
M  V30 14450 H 111.588 1.4566 -5.94104 0
M  V30 14451 H 111.1 2.40664 -4.49645 0
M  V30 14452 H 110.364 -0.647622 -1.25697 0
M  V30 14453 P 108.939 -6.144 -6.45285 0
M  V30 14454 O 108.719 -7.54673 -6.86199 0
M  V30 14455 O 108.149 -5.12391 -7.179 0
M  V30 14456 O 108.689 -5.99158 -4.88404 0
M  V30 14457 C 109.629 -6.60062 -3.96313 0
M  V30 14458 C 108.899 -7.08259 -2.72856 0
M  V30 14459 O 108.689 -5.9427 -1.83651 0
M  V30 14460 C 107.499 -7.65087 -2.94749 0
M  V30 14461 O 107.109 -8.53963 -1.90717 0
M  V30 14462 C 106.619 -6.41069 -2.90698 0
M  V30 14463 C 107.329 -5.5528 -1.86931 0
M  V30 14464 N 107.279 -4.09575 -2.15696 0
M  V30 14465 C 107.129 -3.24249 -1.08435 0
M  V30 14466 O 107.039 -3.63946 0.0628747 0
M  V30 14467 N 107.089 -1.90009 -1.39973 0
M  V30 14468 C 107.179 -1.34884 -2.65614 0
M  V30 14469 O 107.129 -0.123716 -2.81728 0
M  V30 14470 C 107.329 -2.3145 -3.71736 0
M  V30 14471 C 107.439 -1.75913 -5.10438 0
M  V30 14472 C 107.379 -3.63518 -3.44754 0
M  V30 14473 H 110.12 -7.45402 -4.45526 0
M  V30 14474 H 110.389 -5.86062 -3.67208 0
M  V30 14475 H 109.522 -7.84412 -2.24479 0
M  V30 14476 H 106.867 -5.73358 -0.888409 0
M  V30 14477 H 106.588 -5.90877 -3.88583 0
M  V30 14478 H 105.596 -6.65867 -2.58821 0
M  V30 14479 H 107.43 -8.16248 -3.92006 0
M  V30 14480 H 107.501 -4.34551 -4.26383 0
M  V30 14481 H 106.471 -1.85471 -5.61775 0
M  V30 14482 H 108.208 -2.31364 -5.66257 0
M  V30 14483 H 107.72 -0.695936 -5.05229 0
M  V30 14484 H 106.984 -1.26277 -0.63625 0
M  V30 14485 P 105.559 -8.7635 -1.60911 0
M  V30 14486 O 105.339 -10.1388 -1.11561 0
M  V30 14487 O 104.769 -8.36503 -2.79617 0
M  V30 14488 O 105.309 -7.71806 -0.42951 0
M  V30 14489 C 106.249 -7.67148 0.673689 0
M  V30 14490 C 105.519 -7.33374 1.95559 0
M  V30 14491 O 105.309 -5.88721 2.00726 0
M  V30 14492 C 104.119 -7.92526 2.10483 0
M  V30 14493 O 103.729 -8.02971 3.47653 0
M  V30 14494 C 103.239 -6.89602 1.41652 0
M  V30 14495 C 103.949 -5.59201 1.75185 0
M  V30 14496 N 103.899 -4.58235 0.662552 0
M  V30 14497 H 106.738 -8.65116 0.777161 0
M  V30 14498 H 107.01 -6.90173 0.474152 0
M  V30 14499 H 106.142 -7.66548 2.79458 0
M  V30 14500 P 102.179 -8.03563 3.84925 0
M  V30 14501 O 101.959 -8.85821 5.0569 0
M  V30 14502 O 101.389 -8.41101 2.65469 0
M  V30 14503 O 101.929 -6.4965 4.18908 0
M  V30 14504 C 102.869 -5.81037 5.05421 0
M  V30 14505 C 102.139 -4.78366 5.89277 0
M  V30 14506 O 101.929 -3.58302 5.08433 0
M  V30 14507 C 100.739 -5.17448 6.36119 0
M  V30 14508 O 100.349 -4.45271 7.53232 0
M  V30 14509 C 99.8594 -4.74639 5.19936 0
M  V30 14510 C 100.569 -3.49432 4.70418 0
M  V30 14511 N 100.519 -3.31776 3.22945 0
M  V30 14512 H 103.358 -6.54213 5.71376 0
M  V30 14513 H 103.63 -5.30492 4.44033 0
M  V30 14514 H 102.762 -4.55889 6.76652 0
M  V30 14515 P 98.7994 -4.23843 7.83734 0
M  V30 14516 O 98.5794 -4.19407 9.29784 0
M  V30 14517 O 98.0094 -5.24426 7.09156 0
M  V30 14518 O 98.5494 -2.7935 7.20758 0
M  V30 14519 C 99.4894 -1.72945 7.50224 0
M  V30 14520 C 98.7594 -0.406376 7.57911 0
M  V30 14521 O 98.5494 0.0897726 6.21935 0
M  V30 14522 C 97.3594 -0.438983 8.18724 0
M  V30 14523 O 96.9694 0.825065 8.71101 0
M  V30 14524 C 96.4794 -0.783689 6.99524 0
M  V30 14525 C 97.1894 -0.0619086 5.85867 0
M  V30 14526 N 97.1394 -0.78573 4.56183 0
M  V30 14527 C 96.9894 -0.0292889 3.41887 0
M  V30 14528 O 96.8994 1.18445 3.4419 0
M  V30 14529 N 96.9494 -0.744061 2.23964 0
M  V30 14530 C 97.0394 -2.10932 2.10362 0
M  V30 14531 O 96.9894 -2.64117 0.98825 0
M  V30 14532 C 97.1894 -2.8202 3.34994 0
M  V30 14533 C 97.2994 -4.31095 3.25037 0
M  V30 14534 C 97.2394 -2.15547 4.52261 0
M  V30 14535 H 99.9804 -1.93379 8.46595 0
M  V30 14536 H 100.249 -1.68132 6.70852 0
M  V30 14537 H 99.3824 0.289041 8.15388 0
M  V30 14538 H 96.7274 0.926847 5.72749 0
M  V30 14539 H 96.4484 -1.86973 6.82036 0
M  V30 14540 H 95.4564 -0.403896 7.13257 0
M  V30 14541 H 97.2904 -1.20585 8.97435 0
M  V30 14542 H 97.3614 -2.71231 5.45042 0
M  V30 14543 H 96.3314 -4.76966 3.49992 0
M  V30 14544 H 98.0684 -4.67047 3.95024 0
M  V30 14545 H 97.5804 -4.58996 2.22312 0
M  V30 14546 H 96.8444 -0.214893 1.39758 0
M  V30 14547 P 95.4195 1.17771 8.83182 0
M  V30 14548 O 95.1995 2.07206 9.98732 0
M  V30 14549 O 94.6295 -0.0743816 8.81969 0
M  V30 14550 O 95.1695 1.97678 7.474 0
M  V30 14551 C 96.1095 3.01133 7.08783 0
M  V30 14552 C 95.3795 4.1203 6.37546 0
M  V30 14553 O 95.1695 3.72887 4.9796 0
M  V30 14554 C 93.9795 4.45085 6.88694 0
M  V30 14555 O 93.5895 5.78836 6.56315 0
M  V30 14556 C 93.0995 3.47817 6.12078 0
M  V30 14557 C 93.8095 3.39414 4.77697 0
M  V30 14558 N 93.7595 2.04615 4.15333 0
M  V30 14559 C 93.6095 1.96929 2.77162 0
M  V30 14560 O 93.5195 3.02017 2.12006 0
M  V30 14561 N 93.5595 0.55485 2.24237 0
M  V30 14562 C 93.6595 -0.367808 2.9169 0
M  V30 14563 N 93.6095 -1.53426 2.29427 0
M  V30 14564 C 93.8095 -0.319148 4.33828 0
M  V30 14565 C 93.8595 0.920672 4.90433 0
M  V30 14566 H 96.5995 3.41209 7.98667 0
M  V30 14567 H 96.8695 2.5837 6.41742 0
M  V30 14568 H 96.0025 5.02718 6.42752 0
M  V30 14569 H 93.3475 4.11779 4.09026 0
M  V30 14570 H 93.0675 2.49661 6.61772 0
M  V30 14571 H 92.0765 3.86674 6.00946 0
M  V30 14572 H 93.9105 4.29991 7.97006 0
M  V30 14573 H 93.9825 1.00589 5.98303 0
M  V30 14574 H 93.8805 -1.22639 4.93799 0
M  V30 14575 H 93.4925 -1.56819 1.27167 0
M  V30 14576 H 93.6885 -2.41062 2.83063 0
M  V30 14577 P 92.0395 6.144 6.45285 0
M  V30 14578 O 91.8195 7.54673 6.86199 0
M  V30 14579 O 91.2495 5.12391 7.179 0
M  V30 14580 O 91.7895 5.99158 4.88404 0
M  V30 14581 C 92.7295 6.60234 3.96415 0
M  V30 14582 C 91.9995 7.08259 2.72856 0
M  V30 14583 O 91.7895 5.9427 1.83651 0
M  V30 14584 C 90.5995 7.64886 2.9555 0
M  V30 14585 O 90.2095 8.53963 1.90717 0
M  V30 14586 C 89.7195 6.4116 2.90739 0
M  V30 14587 C 90.4295 5.55375 1.86963 0
M  V30 14588 N 90.3795 4.09664 2.15742 0
M  V30 14589 H 93.2185 7.45574 4.45629 0
M  V30 14590 H 93.4905 5.86232 3.67314 0
M  V30 14591 H 92.6225 7.84412 2.24479 0
M  V30 14592 P 88.6595 8.7635 1.60911 0
M  V30 14593 O 88.4395 10.1388 1.11561 0
M  V30 14594 O 87.8695 8.36503 2.79617 0
M  V30 14595 O 88.4095 7.71806 0.42951 0
M  V30 14596 C 89.3495 7.67148 -0.673689 0
M  V30 14597 C 88.6195 7.33374 -1.95559 0
M  V30 14598 O 88.4095 5.88721 -2.00726 0
M  V30 14599 C 87.2195 7.92526 -2.10483 0
M  V30 14600 O 86.8295 8.02971 -3.47653 0
M  V30 14601 C 86.3395 6.89602 -1.41652 0
M  V30 14602 C 87.0495 5.59201 -1.75185 0
M  V30 14603 N 86.9995 4.58235 -0.662552 0
M  V30 14604 H 89.8385 8.65116 -0.777161 0
M  V30 14605 H 90.1105 6.90173 -0.474152 0
M  V30 14606 H 89.2425 7.66548 -2.79458 0
M  V30 14607 P 85.2795 8.03563 -3.84925 0
M  V30 14608 O 85.0595 8.85821 -5.0569 0
M  V30 14609 O 84.4895 8.41101 -2.65469 0
M  V30 14610 O 85.0295 6.4965 -4.18908 0
M  V30 14611 C 85.9695 5.81037 -5.05421 0
M  V30 14612 C 85.2395 4.78366 -5.89277 0
M  V30 14613 O 85.0295 3.58302 -5.08433 0
M  V30 14614 C 83.8395 5.17448 -6.36119 0
M  V30 14615 O 83.4495 4.45271 -7.53232 0
M  V30 14616 C 82.9595 4.74639 -5.19936 0
M  V30 14617 C 83.6695 3.49432 -4.70418 0
M  V30 14618 N 83.6195 3.31776 -3.22945 0
M  V30 14619 H 86.4585 6.54213 -5.71376 0
M  V30 14620 H 86.7305 5.30492 -4.44033 0
M  V30 14621 H 85.8625 4.55889 -6.76652 0
M  V30 14622 P 81.8995 4.23843 -7.83734 0
M  V30 14623 O 81.6795 4.19407 -9.29784 0
M  V30 14624 O 81.1095 5.24426 -7.09156 0
M  V30 14625 O 81.6495 2.79386 -7.20852 0
M  V30 14626 C 82.5895 1.7299 -7.50419 0
M  V30 14627 C 81.8595 0.41401 -7.5797 0
M  V30 14628 O 81.6495 -0.089787 -6.22035 0
M  V30 14629 C 80.4595 0.447224 -8.1878 0
M  V30 14630 O 80.0695 -0.825159 -8.71201 0
M  V30 14631 C 79.5795 0.783801 -6.99623 0
M  V30 14632 C 80.2895 0.0619192 -5.85967 0
M  V30 14633 N 80.2395 0.7859 -4.56281 0
M  V30 14634 C 80.0895 0.0359258 -3.39981 0
M  V30 14635 O 79.9995 -1.19723 -3.49038 0
M  V30 14636 N 80.0395 0.869151 -2.14025 0
M  V30 14637 C 80.1395 2.01207 -2.14363 0
M  V30 14638 N 80.0895 2.58978 -0.954287 0
M  V30 14639 C 80.2895 2.80817 -3.32215 0
M  V30 14640 C 80.3395 2.13785 -4.50884 0
M  V30 14641 H 83.0795 1.93401 -8.46693 0
M  V30 14642 H 83.3495 1.68181 -6.71046 0
M  V30 14643 H 82.4825 -0.289076 -8.15488 0
M  V30 14644 H 79.8275 -0.927166 -5.72947 0
M  V30 14645 H 79.5475 1.87 -6.82132 0
M  V30 14646 H 78.5565 0.404009 -7.13457 0
M  V30 14647 H 80.3905 1.20599 -8.97534 0
M  V30 14648 H 80.4625 2.70295 -5.43162 0
M  V30 14649 H 80.3605 3.89465 -3.27406 0
M  V30 14650 H 79.9725 2.01616 -0.107046 0
M  V30 14651 H 80.1685 3.61403 -0.873101 0
M  V30 14652 P 78.5196 -1.17771 -8.83182 0
M  V30 14653 O 78.2996 -2.07206 -9.98732 0
M  V30 14654 O 77.7296 0.0743816 -8.81969 0
M  V30 14655 O 78.2696 -1.97652 -7.47304 0
M  V30 14656 C 79.2096 -3.01055 -7.08599 0
M  V30 14657 C 78.4796 -4.12613 -6.37049 0
M  V30 14658 O 78.2696 -3.72827 -4.97879 0
M  V30 14659 C 77.0796 -4.45719 -6.88164 0
M  V30 14660 O 76.6896 -5.7877 -6.5624 0
M  V30 14661 C 76.1996 -3.47768 -6.11991 0
M  V30 14662 C 76.9096 -3.39356 -4.77615 0
M  V30 14663 N 76.8596 -2.04571 -4.15244 0
M  V30 14664 C 76.7096 -1.98587 -2.78314 0
M  V30 14665 O 76.6196 -2.98134 -2.08835 0
M  V30 14666 N 76.6696 -0.714467 -2.24925 0
M  V30 14667 C 76.7596 0.470001 -2.94169 0
M  V30 14668 O 76.7096 1.55587 -2.35195 0
M  V30 14669 C 76.9096 0.312541 -4.36783 0
M  V30 14670 C 77.0196 1.57711 -5.16352 0
M  V30 14671 C 76.9596 -0.914512 -4.92583 0
M  V30 14672 H 79.7006 -3.41169 -7.98575 0
M  V30 14673 H 79.9696 -2.58295 -6.41556 0
M  V30 14674 H 79.1026 -5.02657 -6.42673 0
M  V30 14675 H 76.4476 -4.11637 -4.08885 0
M  V30 14676 H 76.1686 -2.49626 -6.61679 0
M  V30 14677 H 75.1766 -3.86566 -6.00778 0
M  V30 14678 H 77.0106 -4.29943 -7.96918 0
M  V30 14679 H 77.0816 -1.00937 -6.00374 0
M  V30 14680 H 76.0516 1.80153 -5.63503 0
M  V30 14681 H 77.7886 1.4566 -5.94104 0
M  V30 14682 H 77.3006 2.40664 -4.49645 0
M  V30 14683 H 76.5646 -0.647622 -1.25697 0
M  V30 14684 P 75.1396 -6.144 -6.45285 0
M  V30 14685 O 74.9196 -7.54673 -6.86199 0
M  V30 14686 O 74.3496 -5.12391 -7.179 0
M  V30 14687 O 74.8896 -5.99158 -4.88404 0
M  V30 14688 C 75.8296 -6.60234 -3.96415 0
M  V30 14689 C 75.0996 -7.08259 -2.72856 0
M  V30 14690 O 74.8896 -5.9427 -1.83651 0
M  V30 14691 C 73.6996 -7.64886 -2.9555 0
M  V30 14692 O 73.3096 -8.53963 -1.90717 0
M  V30 14693 C 72.8196 -6.4116 -2.90739 0
M  V30 14694 C 73.5296 -5.55375 -1.86963 0
M  V30 14695 N 73.4796 -4.09448 -2.16152 0
M  V30 14696 H 76.3186 -7.45574 -4.45629 0
M  V30 14697 H 76.5906 -5.85864 -3.679 0
M  V30 14698 H 75.7226 -7.84412 -2.24479 0
M  V30 14699 H 73.0676 -5.73457 -0.888562 0
M  V30 14700 H 72.7876 -5.90877 -3.88583 0
M  V30 14701 H 71.7966 -6.6596 -2.58858 0
M  V30 14702 H 73.6306 -8.16339 -3.92049 0
M  V30 14703 P 71.7596 -8.7635 -1.60911 0
M  V30 14704 O 71.5396 -10.1388 -1.11561 0
M  V30 14705 O 70.9696 -8.36503 -2.79617 0
M  V30 14706 O 71.5096 -7.71906 -0.429565 0
M  V30 14707 C 72.4496 -7.67148 0.673689 0
M  V30 14708 C 71.7196 -7.33666 1.94851 0
M  V30 14709 O 71.5096 -5.88816 2.00759 0
M  V30 14710 C 70.3196 -7.92526 2.10483 0
M  V30 14711 O 69.9296 -8.03063 3.47693 0
M  V30 14712 C 69.4396 -6.89602 1.41652 0
M  V30 14713 C 70.1496 -5.59201 1.75185 0
M  V30 14714 N 70.0996 -4.58235 0.662552 0
M  V30 14715 C 69.9496 -3.24451 1.01643 0
M  V30 14716 O 69.8596 -2.94958 2.21722 0
M  V30 14717 N 69.8996 -2.30408 -0.165238 0
M  V30 14718 C 69.9996 -2.66048 -1.25118 0
M  V30 14719 N 69.9496 -1.70787 -2.16813 0
M  V30 14720 C 70.1496 -4.02732 -1.64413 0
M  V30 14721 C 70.1996 -4.9488 -0.63991 0
M  V30 14722 H 72.9396 -8.65017 0.777072 0
M  V30 14723 H 73.2096 -6.90173 0.474152 0
M  V30 14724 H 72.3426 -7.66642 2.79492 0
M  V30 14725 H 69.6876 -5.16254 2.65229 0
M  V30 14726 H 69.4076 -7.06532 0.329431 0
M  V30 14727 H 68.4166 -6.91023 1.82047 0
M  V30 14728 H 70.2506 -8.90873 1.62657 0
M  V30 14729 H 70.3226 -6.00104 -0.892197 0
M  V30 14730 H 70.2206 -4.31733 -2.69229 0
M  V30 14731 H 69.8326 -0.724835 -1.8844 0
M  V30 14732 H 70.0286 -1.94716 -3.16734 0
M  V30 14733 P 68.3796 -8.03563 3.84925 0
M  V30 14734 O 68.1596 -8.85821 5.0569 0
M  V30 14735 O 67.5896 -8.41101 2.65469 0
M  V30 14736 O 68.1296 -6.49734 4.18962 0
M  V30 14737 C 69.0696 -5.81037 5.05421 0
M  V30 14738 C 68.3396 -4.79018 5.88876 0
M  V30 14739 O 68.1296 -3.58359 5.08515 0
M  V30 14740 C 66.9396 -5.17448 6.36119 0
M  V30 14741 O 66.5496 -4.45322 7.53318 0
M  V30 14742 C 66.0596 -4.74639 5.19936 0
M  V30 14743 C 66.7696 -3.49432 4.70418 0
M  V30 14744 N 66.7196 -3.31776 3.22945 0
M  V30 14745 C 66.5696 -2.02742 2.72939 0
M  V30 14746 O 66.4796 -1.08301 3.52749 0
M  V30 14747 N 66.5196 -1.96117 1.22063 0
M  V30 14748 C 66.6196 -2.8878 0.551566 0
M  V30 14749 N 66.5696 -2.65609 -0.750198 0
M  V30 14750 C 66.7696 -4.22457 1.03707 0
M  V30 14751 C 66.8196 -4.37979 2.39113 0
M  V30 14752 H 69.5596 -6.54138 5.7131 0
M  V30 14753 H 69.8296 -5.30492 4.44033 0
M  V30 14754 H 68.9626 -4.55945 6.76735 0
M  V30 14755 H 66.3076 -2.6176 5.18021 0
M  V30 14756 H 66.0276 -5.52233 4.41941 0
M  V30 14757 H 65.0366 -4.52045 5.53452 0
M  V30 14758 H 66.8706 -6.25124 6.55234 0
M  V30 14759 H 66.9426 -5.37936 2.80552 0
M  V30 14760 H 66.8406 -5.07528 0.359553 0
M  V30 14761 H 66.4526 -1.69403 -1.09847 0
M  V30 14762 H 66.6486 -3.43701 -1.41792 0
M  V30 14763 P 64.9996 -4.23843 7.83734 0
M  V30 14764 O 64.7796 -4.19407 9.29784 0
M  V30 14765 O 64.2096 -5.24426 7.09156 0
M  V30 14766 O 64.7496 -2.7935 7.20758 0
M  V30 14767 C 65.6896 -1.7299 7.50419 0
M  V30 14768 C 64.9596 -0.406376 7.57911 0
M  V30 14769 O 64.7496 0.0897726 6.21935 0
M  V30 14770 C 63.5596 -0.447224 8.1878 0
M  V30 14771 O 63.1696 0.825065 8.71101 0
M  V30 14772 C 62.6796 -0.783801 6.99623 0
M  V30 14773 C 63.3896 -0.0619192 5.85967 0
M  V30 14774 N 63.3396 -0.7859 4.56281 0
M  V30 14775 H 66.1786 -1.93423 8.4679 0
M  V30 14776 H 66.4506 -1.68181 6.71046 0
M  V30 14777 H 65.5826 0.289041 8.15388 0
M  V30 14778 P 61.6197 1.17771 8.83182 0
M  V30 14779 O 61.3997 2.07206 9.98732 0
M  V30 14780 O 60.8297 -0.0743816 8.81969 0
M  V30 14781 O 61.3697 1.97652 7.47304 0
M  V30 14782 C 62.3097 3.01055 7.08599 0
M  V30 14783 C 61.5797 4.12613 6.37049 0
M  V30 14784 O 61.3697 3.72827 4.97879 0
M  V30 14785 C 60.1797 4.45719 6.88164 0
M  V30 14786 O 59.7897 5.7877 6.5624 0
M  V30 14787 C 59.2997 3.47768 6.11991 0
M  V30 14788 C 60.0097 3.39356 4.77615 0
M  V30 14789 N 59.9597 2.04571 4.15244 0
M  V30 14790 C 59.8097 1.98587 2.78314 0
M  V30 14791 O 59.7197 2.98134 2.08835 0
M  V30 14792 N 59.7697 0.714467 2.24925 0
M  V30 14793 C 59.8597 -0.470001 2.94169 0
M  V30 14794 O 59.8097 -1.55587 2.35195 0
M  V30 14795 C 60.0097 -0.312541 4.36783 0
M  V30 14796 C 60.1197 -1.57711 5.16352 0
M  V30 14797 C 60.0597 0.914512 4.92583 0
M  V30 14798 H 62.8007 3.41169 7.98575 0
M  V30 14799 H 63.0697 2.58295 6.41556 0
M  V30 14800 H 62.2027 5.02657 6.42673 0
M  V30 14801 H 59.5477 4.11637 4.08885 0
M  V30 14802 H 59.2687 2.49626 6.61679 0
M  V30 14803 H 58.2767 3.86566 6.00778 0
M  V30 14804 H 60.1107 4.29943 7.96918 0
M  V30 14805 H 60.1817 1.00937 6.00374 0
M  V30 14806 H 59.1517 -1.80153 5.63503 0
M  V30 14807 H 60.8887 -1.4566 5.94104 0
M  V30 14808 H 60.4007 -2.40664 4.49645 0
M  V30 14809 H 59.6647 0.647622 1.25697 0
M  V30 14810 P 58.2397 6.144 6.45285 0
M  V30 14811 O 58.0197 7.54673 6.86199 0
M  V30 14812 O 57.4497 5.12391 7.179 0
M  V30 14813 O 57.9897 5.99158 4.88404 0
M  V30 14814 C 58.9297 6.60062 3.96313 0
M  V30 14815 C 58.1997 7.08259 2.72856 0
M  V30 14816 O 57.9897 5.9427 1.83651 0
M  V30 14817 C 56.7997 7.65087 2.94749 0
M  V30 14818 O 56.4097 8.53963 1.90717 0
M  V30 14819 C 55.9197 6.41069 2.90698 0
M  V30 14820 C 56.6297 5.5528 1.86931 0
M  V30 14821 N 56.5797 4.09575 2.15696 0
M  V30 14822 C 56.4297 3.24249 1.08435 0
M  V30 14823 O 56.3397 3.63946 -0.0628747 0
M  V30 14824 N 56.3897 1.90009 1.39973 0
M  V30 14825 C 56.4797 1.34884 2.65614 0
M  V30 14826 O 56.4297 0.123716 2.81728 0
M  V30 14827 C 56.6297 2.3145 3.71736 0
M  V30 14828 C 56.7397 1.75913 5.10438 0
M  V30 14829 C 56.6797 3.63518 3.44754 0
M  V30 14830 H 59.4207 7.45402 4.45526 0
M  V30 14831 H 59.6897 5.86062 3.67208 0
M  V30 14832 H 58.8227 7.84412 2.24479 0
M  V30 14833 H 56.1677 5.73358 0.888409 0
M  V30 14834 H 55.8887 5.90877 3.88583 0
M  V30 14835 H 54.8967 6.65867 2.58821 0
M  V30 14836 H 56.7307 8.16248 3.92006 0
M  V30 14837 H 56.8017 4.34551 4.26383 0
M  V30 14838 H 55.7717 1.85471 5.61775 0
M  V30 14839 H 57.5087 2.31364 5.66257 0
M  V30 14840 H 57.0207 0.695936 5.05229 0
M  V30 14841 H 56.2847 1.26277 0.63625 0
M  V30 14842 P 54.8597 8.7635 1.60911 0
M  V30 14843 O 54.6397 10.1388 1.11561 0
M  V30 14844 O 54.0697 8.36503 2.79617 0
M  V30 14845 O 54.6097 7.71806 0.42951 0
M  V30 14846 C 55.5497 7.67148 -0.673689 0
M  V30 14847 C 54.8197 7.33374 -1.95559 0
M  V30 14848 O 54.6097 5.88721 -2.00726 0
M  V30 14849 C 53.4197 7.92526 -2.10483 0
M  V30 14850 O 53.0297 8.02971 -3.47653 0
M  V30 14851 C 52.5397 6.89602 -1.41652 0
M  V30 14852 C 53.2497 5.59201 -1.75185 0
M  V30 14853 N 53.1997 4.58301 -0.657969 0
M  V30 14854 C 53.2797 4.79019 0.692603 0
M  V30 14855 N 53.2097 3.69736 1.38998 0
M  V30 14856 C 53.0597 2.70474 0.438135 0
M  V30 14857 C 52.9297 1.30327 0.538142 0
M  V30 14858 N 52.9197 0.64304 1.69192 0
M  V30 14859 N 52.8097 0.611027 -0.605183 0
M  V30 14860 C 52.8197 1.27002 -1.75953 0
M  V30 14861 N 52.9397 2.56038 -1.98546 0
M  V30 14862 C 53.0597 3.22681 -0.822541 0
M  V30 14863 H 56.0387 8.65116 -0.777161 0
M  V30 14864 H 56.3107 6.9022 -0.46725 0
M  V30 14865 H 55.4427 7.66548 -2.79458 0
M  V30 14866 H 52.7877 5.16165 -2.65183 0
M  V30 14867 H 52.5077 7.06433 -0.329384 0
M  V30 14868 H 51.5167 6.90926 -1.82021 0
M  V30 14869 H 53.3507 8.90873 -1.62657 0
M  V30 14870 H 53.3917 5.77785 1.13874 0
M  V30 14871 H 53.0107 1.15585 2.57991 0
M  V30 14872 H 52.8217 -0.382989 1.69835 0
M  V30 14873 H 52.7137 0.653331 -2.64449 0
M  V30 14874 P 51.4797 8.03563 -3.84925 0
M  V30 14875 O 51.2597 8.85821 -5.0569 0
M  V30 14876 O 50.6897 8.41101 -2.65469 0
M  V30 14877 O 51.2297 6.4965 -4.18908 0
M  V30 14878 C 52.1697 5.80886 -5.05289 0
M  V30 14879 C 51.4397 4.78366 -5.89277 0
M  V30 14880 O 51.2297 3.58302 -5.08433 0
M  V30 14881 C 50.0397 5.16748 -6.36559 0
M  V30 14882 O 49.6497 4.45271 -7.53232 0
M  V30 14883 C 49.1597 4.74572 -5.19863 0
M  V30 14884 C 49.8697 3.49373 -4.70338 0
M  V30 14885 N 49.8197 3.31704 -3.22876 0
M  V30 14886 C 49.6697 2.03326 -2.74871 0
M  V30 14887 O 49.5797 1.06486 -3.48076 0
M  V30 14888 N 49.6297 1.91838 -1.37456 0
M  V30 14889 C 49.7197 2.94295 -0.462035 0
M  V30 14890 O 49.6697 2.71763 0.752928 0
M  V30 14891 C 49.8697 4.25064 -1.05249 0
M  V30 14892 C 49.9797 5.39815 -0.095697 0
M  V30 14893 C 49.9197 4.40214 -2.39192 0
M  V30 14894 H 52.6607 6.54063 -5.71245 0
M  V30 14895 H 52.9297 5.30339 -4.43905 0
M  V30 14896 H 52.0627 4.55889 -6.76652 0
M  V30 14897 H 49.4077 2.6167 -5.17842 0
M  V30 14898 H 49.1287 5.52155 -4.41878 0
M  V30 14899 H 48.1367 4.51918 -5.53297 0
M  V30 14900 H 49.9707 6.25055 -6.55162 0
M  V30 14901 H 50.0417 5.39798 -2.81523 0
M  V30 14902 H 49.0117 5.91593 -0.0279582 0
M  V30 14903 H 50.7487 6.10038 -0.450573 0
M  V30 14904 H 50.2607 5.02007 0.89937 0
M  V30 14905 H 49.5247 0.995326 -1.00435 0
M  V30 14906 P 48.0997 4.23843 -7.83734 0
M  V30 14907 O 47.8797 4.19407 -9.29784 0
M  V30 14908 O 47.3097 5.24426 -7.09156 0
M  V30 14909 O 47.8497 2.7935 -7.20758 0
M  V30 14910 C 48.7897 1.72945 -7.50224 0
M  V30 14911 C 48.0597 0.406376 -7.57911 0
M  V30 14912 O 47.8497 -0.0897726 -6.21935 0
M  V30 14913 C 46.6597 0.438983 -8.18724 0
M  V30 14914 O 46.2697 -0.825065 -8.71101 0
M  V30 14915 C 45.7797 0.783689 -6.99524 0
M  V30 14916 C 46.4897 0.0619086 -5.85867 0
M  V30 14917 N 46.4397 0.78573 -4.56183 0
M  V30 14918 C 46.2897 0.0292889 -3.41887 0
M  V30 14919 O 46.1997 -1.18445 -3.4419 0
M  V30 14920 N 46.2497 0.744061 -2.23964 0
M  V30 14921 C 46.3397 2.10932 -2.10362 0
M  V30 14922 O 46.2897 2.64117 -0.98825 0
M  V30 14923 C 46.4897 2.8202 -3.34994 0
M  V30 14924 C 46.5997 4.31095 -3.25037 0
M  V30 14925 C 46.5397 2.15547 -4.52261 0
M  V30 14926 H 49.2807 1.93379 -8.46595 0
M  V30 14927 H 49.5497 1.68132 -6.70852 0
M  V30 14928 H 48.6827 -0.289041 -8.15388 0
M  V30 14929 H 46.0277 -0.926847 -5.72749 0
M  V30 14930 H 45.7487 1.86973 -6.82036 0
M  V30 14931 H 44.7567 0.403896 -7.13257 0
M  V30 14932 H 46.5907 1.20585 -8.97435 0
M  V30 14933 H 46.6617 2.71231 -5.45042 0
M  V30 14934 H 45.6317 4.76966 -3.49992 0
M  V30 14935 H 47.3687 4.67047 -3.95024 0
M  V30 14936 H 46.8807 4.58996 -2.22312 0
M  V30 14937 H 46.1447 0.214893 -1.39758 0
M  V30 14938 P 44.7198 -1.17771 -8.83182 0
M  V30 14939 O 44.4998 -2.07206 -9.98732 0
M  V30 14940 O 43.9298 0.0743816 -8.81969 0
M  V30 14941 O 44.4698 -1.97652 -7.47304 0
M  V30 14942 C 45.4098 -3.01055 -7.08599 0
M  V30 14943 C 44.6798 -4.12613 -6.37049 0
M  V30 14944 O 44.4698 -3.72827 -4.97879 0
M  V30 14945 C 43.2798 -4.45719 -6.88164 0
M  V30 14946 O 42.8898 -5.7877 -6.5624 0
M  V30 14947 C 42.3998 -3.47768 -6.11991 0
M  V30 14948 C 43.1098 -3.39356 -4.77615 0
M  V30 14949 N 43.0598 -2.04571 -4.15244 0
M  V30 14950 C 42.9098 -1.98587 -2.78314 0
M  V30 14951 O 42.8198 -2.98134 -2.08835 0
M  V30 14952 N 42.8698 -0.714467 -2.24925 0
M  V30 14953 C 42.9598 0.470001 -2.94169 0
M  V30 14954 O 42.9098 1.55587 -2.35195 0
M  V30 14955 C 43.1098 0.312541 -4.36783 0
M  V30 14956 C 43.2198 1.57711 -5.16352 0
M  V30 14957 C 43.1598 -0.914512 -4.92583 0
M  V30 14958 H 45.9008 -3.41169 -7.98575 0
M  V30 14959 H 46.1698 -2.58295 -6.41556 0
M  V30 14960 H 45.3028 -5.02657 -6.42673 0
M  V30 14961 H 42.6478 -4.11637 -4.08885 0
M  V30 14962 H 42.3688 -2.49626 -6.61679 0
M  V30 14963 H 41.3768 -3.86566 -6.00778 0
M  V30 14964 H 43.2108 -4.29943 -7.96918 0
M  V30 14965 H 43.2818 -1.00937 -6.00374 0
M  V30 14966 H 42.2518 1.80153 -5.63503 0
M  V30 14967 H 43.9888 1.4566 -5.94104 0
M  V30 14968 H 43.5008 2.40664 -4.49645 0
M  V30 14969 H 42.7648 -0.647622 -1.25697 0
M  V30 14970 P 41.3398 -6.144 -6.45285 0
M  V30 14971 O 41.1198 -7.54673 -6.86199 0
M  V30 14972 O 40.5498 -5.12391 -7.179 0
M  V30 14973 O 41.0898 -5.99158 -4.88404 0
M  V30 14974 C 42.0298 -6.60062 -3.96313 0
M  V30 14975 C 41.2998 -7.08259 -2.72856 0
M  V30 14976 O 41.0898 -5.9427 -1.83651 0
M  V30 14977 C 39.8998 -7.65087 -2.94749 0
M  V30 14978 O 39.5098 -8.53963 -1.90717 0
M  V30 14979 C 39.0198 -6.41069 -2.90698 0
M  V30 14980 C 39.7298 -5.5528 -1.86931 0
M  V30 14981 N 39.6798 -4.09575 -2.15696 0
M  V30 14982 C 39.5298 -3.24249 -1.08435 0
M  V30 14983 O 39.4398 -3.63946 0.0628747 0
M  V30 14984 N 39.4898 -1.90009 -1.39973 0
M  V30 14985 C 39.5798 -1.34884 -2.65614 0
M  V30 14986 O 39.5298 -0.123716 -2.81728 0
M  V30 14987 C 39.7298 -2.3145 -3.71736 0
M  V30 14988 C 39.8398 -1.75913 -5.10438 0
M  V30 14989 C 39.7798 -3.63518 -3.44754 0
M  V30 14990 H 42.5208 -7.45402 -4.45526 0
M  V30 14991 H 42.7898 -5.86062 -3.67208 0
M  V30 14992 H 41.9228 -7.84412 -2.24479 0
M  V30 14993 H 39.2678 -5.73358 -0.888409 0
M  V30 14994 H 38.9888 -5.90877 -3.88583 0
M  V30 14995 H 37.9968 -6.65867 -2.58821 0
M  V30 14996 H 39.8308 -8.16248 -3.92006 0
M  V30 14997 H 39.9018 -4.34551 -4.26383 0
M  V30 14998 H 38.8718 -1.85471 -5.61775 0
M  V30 14999 H 40.6088 -2.31364 -5.66257 0
M  V30 15000 H 40.1208 -0.695936 -5.05229 0
M  V30 15001 H 39.3848 -1.26277 -0.63625 0
M  V30 15002 P 37.9598 -8.7635 -1.60911 0
M  V30 15003 O 37.7398 -10.1388 -1.11561 0
M  V30 15004 O 37.1698 -8.36503 -2.79617 0
M  V30 15005 O 37.7098 -7.71806 -0.42951 0
M  V30 15006 C 38.6498 -7.66948 0.673514 0
M  V30 15007 C 37.9198 -7.33374 1.95559 0
M  V30 15008 O 37.7098 -5.88721 2.00726 0
M  V30 15009 C 36.5198 -7.92218 2.1125 0
M  V30 15010 O 36.1298 -8.02971 3.47653 0
M  V30 15011 C 35.6398 -6.89504 1.41631 0
M  V30 15012 C 36.3498 -5.59106 1.75155 0
M  V30 15013 N 36.2998 -4.58136 0.662409 0
M  V30 15014 C 36.1498 -3.26059 1.02863 0
M  V30 15015 O 36.0598 -2.90743 2.19009 0
M  V30 15016 N 36.1098 -2.35995 -0.0155585 0
M  V30 15017 C 36.1998 -2.65248 -1.35603 0
M  V30 15018 O 36.1498 -1.75605 -2.20651 0
M  V30 15019 C 36.3498 -4.05747 -1.64698 0
M  V30 15020 C 36.4598 -4.42345 -3.09553 0
M  V30 15021 C 36.3998 -4.96734 -0.652411 0
M  V30 15022 H 39.1408 -8.64917 0.776982 0
M  V30 15023 H 39.4098 -6.89974 0.474015 0
M  V30 15024 H 38.5428 -7.66548 2.79458 0
M  V30 15025 H 35.8878 -5.16076 2.65138 0
M  V30 15026 H 35.6088 -7.06433 0.329384 0
M  V30 15027 H 34.6168 -6.90829 1.81996 0
M  V30 15028 H 36.4508 -8.90774 1.62639 0
M  V30 15029 H 36.5218 -6.02181 -0.895285 0
M  V30 15030 H 35.4918 -4.80252 -3.45468 0
M  V30 15031 H 37.2288 -5.20015 -3.22119 0
M  V30 15032 H 36.7408 -3.53269 -3.67833 0
M  V30 15033 H 36.0048 -1.39558 0.227499 0
M  V30 15034 P 34.5798 -8.03563 3.84925 0
M  V30 15035 O 34.3598 -8.85821 5.0569 0
M  V30 15036 O 33.7898 -8.41101 2.65469 0
M  V30 15037 O 34.3298 -6.49734 4.18962 0
M  V30 15038 C 35.2698 -5.81037 5.05421 0
M  V30 15039 C 34.5398 -4.79018 5.88876 0
M  V30 15040 O 34.3298 -3.58359 5.08515 0
M  V30 15041 C 33.1398 -5.17448 6.36119 0
M  V30 15042 O 32.7498 -4.45322 7.53318 0
M  V30 15043 C 32.2598 -4.74639 5.19936 0
M  V30 15044 C 32.9698 -3.49432 4.70418 0
M  V30 15045 N 32.9198 -3.31776 3.22945 0
M  V30 15046 C 32.7698 -2.02742 2.72939 0
M  V30 15047 O 32.6798 -1.08301 3.52749 0
M  V30 15048 N 32.7198 -1.96117 1.22063 0
M  V30 15049 C 32.8198 -2.8878 0.551566 0
M  V30 15050 N 32.7698 -2.65609 -0.750198 0
M  V30 15051 C 32.9698 -4.22457 1.03707 0
M  V30 15052 C 33.0198 -4.37979 2.39113 0
M  V30 15053 H 35.7598 -6.54138 5.7131 0
M  V30 15054 H 36.0298 -5.30492 4.44033 0
M  V30 15055 H 35.1628 -4.55945 6.76735 0
M  V30 15056 H 32.5078 -2.6176 5.18021 0
M  V30 15057 H 32.2278 -5.52233 4.41941 0
M  V30 15058 H 31.2368 -4.52045 5.53452 0
M  V30 15059 H 33.0708 -6.25124 6.55234 0
M  V30 15060 H 33.1428 -5.37936 2.80552 0
M  V30 15061 H 33.0408 -5.07528 0.359553 0
M  V30 15062 H 32.6528 -1.69403 -1.09847 0
M  V30 15063 H 32.8488 -3.43701 -1.41792 0
M  V30 15064 P 31.1998 -4.23843 7.83734 0
M  V30 15065 O 30.9798 -4.19407 9.29784 0
M  V30 15066 O 30.4098 -5.24426 7.09156 0
M  V30 15067 O 30.9498 -2.7935 7.20758 0
M  V30 15068 C 31.8898 -1.7299 7.50419 0
M  V30 15069 C 31.1598 -0.406376 7.57911 0
M  V30 15070 O 30.9498 0.0897726 6.21935 0
M  V30 15071 C 29.7598 -0.447224 8.1878 0
M  V30 15072 O 29.3698 0.825065 8.71101 0
M  V30 15073 C 28.8798 -0.783801 6.99623 0
M  V30 15074 C 29.5898 -0.0619192 5.85967 0
M  V30 15075 N 29.5398 -0.790462 4.56202 0
M  V30 15076 H 32.3788 -1.93423 8.4679 0
M  V30 15077 H 32.6508 -1.68852 6.70877 0
M  V30 15078 H 31.7828 0.289041 8.15388 0
M  V30 15079 H 29.1278 0.927006 5.72848 0
M  V30 15080 H 28.8478 -1.86973 6.82036 0
M  V30 15081 H 27.8568 -0.403953 7.13357 0
M  V30 15082 H 29.6908 -1.20599 8.97534 0
M  V30 15083 P 27.8199 1.17771 8.83182 0
M  V30 15084 O 27.5999 2.07206 9.98732 0
M  V30 15085 O 27.0299 -0.0743816 8.81969 0
M  V30 15086 O 27.5699 1.97678 7.474 0
M  V30 15087 C 28.5099 3.01133 7.08783 0
M  V30 15088 C 27.7799 4.1203 6.37546 0
M  V30 15089 O 27.5699 3.72887 4.9796 0
M  V30 15090 C 26.3799 4.45085 6.88694 0
M  V30 15091 O 25.9899 5.78836 6.56315 0
M  V30 15092 C 25.4999 3.47817 6.12078 0
M  V30 15093 C 26.2099 3.39414 4.77697 0
M  V30 15094 N 26.1599 2.04615 4.15333 0
M  V30 15095 C 26.0099 1.96929 2.77162 0
M  V30 15096 O 25.9199 3.02017 2.12006 0
M  V30 15097 N 25.9599 0.55485 2.24237 0
M  V30 15098 C 26.0599 -0.367808 2.9169 0
M  V30 15099 N 26.0099 -1.53426 2.29427 0
M  V30 15100 C 26.2099 -0.319148 4.33828 0
M  V30 15101 C 26.2599 0.920672 4.90433 0
M  V30 15102 H 28.9999 3.41209 7.98667 0
M  V30 15103 H 29.2699 2.5837 6.41742 0
M  V30 15104 H 28.4029 5.02718 6.42752 0
M  V30 15105 H 25.7479 4.11779 4.09026 0
M  V30 15106 H 25.4679 2.49661 6.61772 0
M  V30 15107 H 24.4769 3.86674 6.00946 0
M  V30 15108 H 26.3109 4.29991 7.97006 0
M  V30 15109 H 26.3829 1.00589 5.98303 0
M  V30 15110 H 26.2809 -1.22639 4.93799 0
M  V30 15111 H 25.8929 -1.56819 1.27167 0
M  V30 15112 H 26.0889 -2.41062 2.83063 0
M  V30 15113 P 24.4399 6.144 6.45285 0
M  V30 15114 O 24.2199 7.54673 6.86199 0
M  V30 15115 O 23.6499 5.12391 7.179 0
M  V30 15116 O 24.1899 5.99236 4.88467 0
M  V30 15117 C 25.1299 6.60234 3.96415 0
M  V30 15118 C 24.3999 7.08079 2.736 0
M  V30 15119 O 24.1899 5.94365 1.8368 0
M  V30 15120 C 22.9999 7.64886 2.9555 0
M  V30 15121 O 22.6099 8.5406 1.90739 0
M  V30 15122 C 22.1199 6.4116 2.90739 0
M  V30 15123 C 22.8299 5.55375 1.86963 0
M  V30 15124 N 22.7799 4.09664 2.15742 0
M  V30 15125 C 22.6299 3.22231 1.08477 0
M  V30 15126 O 22.5399 3.68951 -0.0600489 0
M  V30 15127 N 22.5799 1.76692 1.48799 0
M  V30 15128 C 22.6799 1.41695 2.57602 0
M  V30 15129 N 22.6299 0.107296 2.75791 0
M  V30 15130 C 22.8299 2.29178 3.69733 0
M  V30 15131 C 22.8799 3.62753 3.42653 0
M  V30 15132 H 25.6199 7.45488 4.45578 0
M  V30 15133 H 25.8899 5.86232 3.67314 0
M  V30 15134 H 25.0229 7.84508 2.24507 0
M  V30 15135 H 22.3679 5.73556 0.888715 0
M  V30 15136 H 22.0879 5.9096 3.88638 0
M  V30 15137 H 21.0969 6.66053 2.58894 0
M  V30 15138 H 22.9309 8.16339 3.92049 0
M  V30 15139 H 23.0029 4.33052 4.24913 0
M  V30 15140 H 22.9009 1.9103 4.71577 0
M  V30 15141 H 22.5129 -0.521221 1.95056 0
M  V30 15142 H 22.7089 -0.286429 3.70695 0
M  V30 15143 P 21.0599 8.7635 1.60911 0
M  V30 15144 O 20.8399 10.1388 1.11561 0
M  V30 15145 O 20.2699 8.36503 2.79617 0
M  V30 15146 O 20.8099 7.71806 0.42951 0
M  V30 15147 C 21.7499 7.67148 -0.673689 0
M  V30 15148 C 21.0199 7.33374 -1.95559 0
M  V30 15149 O 20.8099 5.88721 -2.00726 0
M  V30 15150 C 19.6199 7.92526 -2.10483 0
M  V30 15151 O 19.2299 8.02971 -3.47653 0
M  V30 15152 C 18.7399 6.89602 -1.41652 0
M  V30 15153 C 19.4499 5.59201 -1.75185 0
M  V30 15154 N 19.3999 4.58235 -0.662552 0
M  V30 15155 H 22.2389 8.65116 -0.777161 0
M  V30 15156 H 22.5109 6.90173 -0.474152 0
M  V30 15157 H 21.6429 7.66548 -2.79458 0
M  V30 15158 P 17.6799 8.03563 -3.84925 0
M  V30 15159 O 17.4599 8.85821 -5.0569 0
M  V30 15160 O 16.8899 8.41101 -2.65469 0
M  V30 15161 O 17.4299 6.4965 -4.18908 0
M  V30 15162 C 18.3699 5.81037 -5.05421 0
M  V30 15163 C 17.6399 4.78366 -5.89277 0
M  V30 15164 O 17.4299 3.58302 -5.08433 0
M  V30 15165 C 16.2399 5.17448 -6.36119 0
M  V30 15166 O 15.8499 4.45271 -7.53232 0
M  V30 15167 C 15.3599 4.74639 -5.19936 0
M  V30 15168 C 16.0699 3.49432 -4.70418 0
M  V30 15169 N 16.0199 3.31776 -3.22945 0
M  V30 15170 H 18.8589 6.54213 -5.71376 0
M  V30 15171 H 19.1309 5.30492 -4.44033 0
M  V30 15172 H 18.2629 4.55889 -6.76652 0
M  V30 15173 P 14.2999 4.23843 -7.83734 0
M  V30 15174 O 14.0799 4.19407 -9.29784 0
M  V30 15175 O 13.5099 5.24426 -7.09156 0
M  V30 15176 O 14.0499 2.7935 -7.20758 0
M  V30 15177 C 14.9899 1.7299 -7.50419 0
M  V30 15178 C 14.2599 0.406376 -7.57911 0
M  V30 15179 O 14.0499 -0.0897726 -6.21935 0
M  V30 15180 C 12.8599 0.447224 -8.1878 0
M  V30 15181 O 12.4699 -0.825065 -8.71101 0
M  V30 15182 C 11.9799 0.783801 -6.99623 0
M  V30 15183 C 12.6899 0.0619192 -5.85967 0
M  V30 15184 N 12.6399 0.7859 -4.56281 0
M  V30 15185 H 15.4789 1.93423 -8.4679 0
M  V30 15186 H 15.7509 1.68181 -6.71046 0
M  V30 15187 H 14.8829 -0.289041 -8.15388 0
M  V30 15188 P 10.92 -1.17771 -8.83182 0
M  V30 15189 O 10.7 -2.07206 -9.98732 0
M  V30 15190 O 10.13 0.0743816 -8.81969 0
M  V30 15191 O 10.67 -1.97652 -7.47304 0
M  V30 15192 C 11.61 -3.01133 -7.08783 0
M  V30 15193 C 10.88 -4.12613 -6.37049 0
M  V30 15194 O 10.67 -3.72827 -4.97879 0
M  V30 15195 C 9.47996 -4.45085 -6.88694 0
M  V30 15196 O 9.08996 -5.7877 -6.5624 0
M  V30 15197 C 8.59996 -3.47817 -6.12078 0
M  V30 15198 C 9.30996 -3.39414 -4.77697 0
M  V30 15199 N 9.25996 -2.04615 -4.15333 0
M  V30 15200 H 12.099 -3.41248 -7.98759 0
M  V30 15201 H 12.371 -2.5837 -6.41742 0
M  V30 15202 H 11.503 -5.02657 -6.42673 0
M  V30 15203 P 7.53998 -6.144 -6.45285 0
M  V30 15204 O 7.31998 -7.54673 -6.86199 0
M  V30 15205 O 6.74998 -5.12391 -7.179 0
M  V30 15206 O 7.28998 -5.99158 -4.88404 0
M  V30 15207 C 8.22998 -6.60234 -3.96415 0
M  V30 15208 C 7.49998 -7.08259 -2.72856 0
M  V30 15209 O 7.28998 -5.9427 -1.83651 0
M  V30 15210 C 6.09998 -7.64886 -2.9555 0
M  V30 15211 O 5.70998 -8.53963 -1.90717 0
M  V30 15212 C 5.21998 -6.4116 -2.90739 0
M  V30 15213 C 5.92998 -5.55375 -1.86963 0
M  V30 15214 N 5.87998 -4.09448 -2.16152 0
M  V30 15215 H 8.71898 -7.45574 -4.45629 0
M  V30 15216 H 8.99098 -5.85864 -3.679 0
M  V30 15217 H 8.12298 -7.84412 -2.24479 0
M  V30 15218 H 5.46798 -5.73457 -0.888562 0
M  V30 15219 H 5.18798 -5.90877 -3.88583 0
M  V30 15220 H 4.19698 -6.6596 -2.58858 0
M  V30 15221 H 6.03098 -8.16339 -3.92049 0
M  V30 15222 P 4.16 -8.7635 -1.60911 0
M  V30 15223 O 3.94 -10.1388 -1.11561 0
M  V30 15224 O 3.37 -8.36503 -2.79617 0
M  V30 15225 O 3.91 -7.71806 -0.42951 0
M  V30 15226 C 4.85 -7.67148 0.673689 0
M  V30 15227 C 4.12 -7.33374 1.95559 0
M  V30 15228 O 3.91 -5.88721 2.00726 0
M  V30 15229 C 2.72 -7.92526 2.10483 0
M  V30 15230 O 2.33 -8.02971 3.47653 0
M  V30 15231 C 1.84 -6.89602 1.41652 0
M  V30 15232 C 2.55 -5.59201 1.75185 0
M  V30 15233 N 2.5 -4.58235 0.662552 0
M  V30 15234 H 5.339 -8.65116 0.777161 0
M  V30 15235 H 5.611 -6.90173 0.474152 0
M  V30 15236 H 4.743 -7.66548 2.79458 0
M  V30 15237 H 1.613 -8.66322 3.55694 0
M  V30 END ATOM
M  V30 BEGIN BOND
M  V30 END BOND
M  V30 END CTAB
M  END
$$$$
