drugbank_target|Q14330 N-arachidonyl glycine receptor (DB00145; DB09061; DB14009; DB14011)
 OpenBabel12092120083D

  0  0  0     0  0            999 V3000
M  V30 BEGIN CTAB
M  V30 COUNTS 5480 5548 0 0 0
M  V30 BEGIN ATOM
M  V30 1 H -0.908 1.98254 -0.117106 0
M  V30 2 N 0 1.576 0 0
M  V30 3 C 0.933 2.03868 1.02534 0
M  V30 4 C 1.911 0.928543 1.3348 0
M  V30 5 O 3.095 1.19667 1.45644 0
M  V30 6 C 0.222 2.43627 2.35294 0
M  V30 7 C -0.732 3.65373 2.2001 0
M  V30 8 S 0.101 5.13292 1.52614 0
M  V30 9 C 1.257 5.56322 2.86805 0
M  V30 10 H 1.49 2.90518 0.631377 0
M  V30 11 H -0.977 1.52953 0.210867 0
M  V30 12 H 0.981 2.67203 3.11629 0
M  V30 13 H -0.358 1.57376 2.7183 0
M  V30 14 H -1.165 3.90944 3.18086 0
M  V30 15 H -1.563 3.418 1.51819 0
M  V30 16 H 0.729 5.58782 3.83104 0
M  V30 17 H 1.672 6.56266 2.65933 0
M  V30 18 H 2.08 4.83886 2.90714 0
M  V30 19 N 1.4781 -0.272755 1.55222 0
M  V30 20 C 2.7271 -1.00211 1.75045 0
M  V30 21 C 3.0401 -1.87441 0.559046 0
M  V30 22 O 4.2461 -2.63856 0.639698 0
M  V30 23 C 2.7021 -1.83165 3.09804 0
M  V30 24 C 2.3101 -1.008 4.36513 0
M  V30 25 C 4.0541 -2.55529 3.38977 0
M  V30 26 C 1.9611 -1.83194 5.62311 0
M  V30 27 H 0.8911 -0.377878 0.652476 0
M  V30 28 H 3.5421 -0.257776 1.8168 0
M  V30 29 H 1.9241 -2.61694 2.97207 0
M  V30 30 H 3.0981 -0.266855 4.60027 0
M  V30 31 H 1.4131 -0.398897 4.14485 0
M  V30 32 H 4.0101 -3.17578 4.30172 0
M  V30 33 H 4.3531 -3.25825 2.59121 0
M  V30 34 H 4.8861 -1.84029 3.52673 0
M  V30 35 H 1.6251 -1.17318 6.44916 0
M  V30 36 H 1.1451 -2.54905 5.4294 0
M  V30 37 H 2.8241 -2.40552 6.00619 0
M  V30 38 N 2.9562 -1.48159 -0.537278 0
M  V30 39 C 4.1842 -1.59454 -1.31841 0
M  V30 40 C 4.5992 -0.252065 -1.8711 0
M  V30 41 O 3.9562 0.757621 -1.66031 0
M  V30 42 C 4.0072 -2.63546 -2.47439 0
M  V30 43 O 3.7282 -3.92583 -1.94449 0
M  V30 44 C 5.2292 -2.85212 -3.39366 0
M  V30 45 H 2.4492 -0.53785 -0.401196 0
M  V30 46 H 4.9932 -1.93932 -0.648891 0
M  V30 47 H 3.1482 -2.31946 -3.1029 0
M  V30 48 H 3.5622 -4.49629 -2.70063 0
M  V30 49 H 5.0362 -3.61863 -4.16844 0
M  V30 50 H 5.5132 -1.93765 -3.94147 0
M  V30 51 H 6.1192 -3.18086 -2.82314 0
M  V30 52 N 4.4343 0.785586 -1.36625 0
M  V30 53 C 5.3643 1.91259 -1.33949 0
M  V30 54 C 6.3453 1.68795 -0.210325 0
M  V30 55 O 7.5303 1.89854 -0.408561 0
M  V30 56 C 4.6603 3.28339 -1.13186 0
M  V30 57 C 3.6143 3.65335 -2.22967 0
M  V30 58 C 2.9403 5.00806 -1.87342 0
M  V30 59 C 4.2403 3.7352 -3.65075 0
M  V30 60 H 5.9343 1.93755 -2.28253 0
M  V30 61 H 3.4803 0.930788 -1.09874 0
M  V30 62 H 5.4333 4.06804 -1.09948 0
M  V30 63 H 4.1573 3.2624 -0.153332 0
M  V30 64 H 2.8163 2.89169 -2.25337 0
M  V30 65 H 2.4643 4.95233 -0.880545 0
M  V30 66 H 2.1643 5.26529 -2.60846 0
M  V30 67 H 3.6883 5.81687 -1.85667 0
M  V30 68 H 5.1023 4.42168 -3.64911 0
M  V30 69 H 3.4993 4.10731 -4.37516 0
M  V30 70 H 4.5693 2.74527 -3.99703 0
M  V30 71 N 5.9124 1.20967 1.01018 0
M  V30 72 C 6.8604 0.961223 2.1181 0
M  V30 73 C 7.8544 -0.0897034 1.69162 0
M  V30 74 O 9.0604 0.0612271 1.79896 0
M  V30 75 H 5.4354 0.29355 0.692338 0
M  V30 76 H 7.4064 1.90178 2.29946 0
M  V30 77 C 6.1554 0.536854 3.4353 0
M  V30 78 H 5.4784 1.33713 3.76777 0
M  V30 79 H 6.9184 0.402286 4.22087 0
M  V30 80 C 5.3774 -0.751574 3.2841 0
M  V30 81 O 5.9074 -1.80841 3.58691 0
M  V30 82 N 4.1134 -0.716079 2.81639 0
M  V30 83 H 3.6604 0.144236 2.57196 0
M  V30 84 H 3.6184 -1.57847 2.71904 0
M  V30 85 N 7.3905 -1.2043 1.01659 0
M  V30 86 C 8.3385 -2.25249 0.580143 0
M  V30 87 C 9.3325 -1.65057 -0.381115 0
M  V30 88 O 10.5385 -1.78241 -0.251039 0
M  V30 89 H 6.9135 -0.732695 0.169299 0
M  V30 90 H 8.8845 -2.59389 1.47512 0
M  V30 91 C 7.6335 -3.47638 -0.065788 0
M  V30 92 H 6.9565 -3.94233 0.664874 0
M  V30 93 H 8.3965 -4.2268 -0.334282 0
M  V30 94 C 6.8555 -3.10447 -1.3086 0
M  V30 95 O 7.3855 -3.21981 -2.4019 0
M  V30 96 N 5.5915 -2.64996 -1.1927 0
M  V30 97 H 5.1385 -2.55811 -0.303064 0
M  V30 98 H 5.0965 -2.40482 -2.02523 0
M  V30 99 N 8.8686 -0.792821 -1.36206 0
M  V30 100 C 9.8006 -0.151469 -2.28699 0
M  V30 101 C 10.8136 0.641262 -1.49638 0
M  V30 102 O 12.0026 0.475885 -1.72039 0
M  V30 103 C 9.1026 0.808424 -3.29117 0
M  V30 104 C 8.2756 0.0650202 -4.37352 0
M  V30 105 C 7.3346 0.941358 -5.17711 0
M  V30 106 O 6.3606 0.397352 -5.67811 0
M  V30 107 N 7.5626 2.2652 -5.3448 0
M  V30 108 H 10.3276 -0.945982 -2.84379 0
M  V30 109 H 7.8886 -0.647032 -1.48409 0
M  V30 110 H 9.8806 1.3986 -3.79765 0
M  V30 111 H 8.4506 1.5038 -2.74052 0
M  V30 112 H 7.6706 -0.706255 -3.87822 0
M  V30 113 H 8.9586 -0.447847 -5.06825 0
M  V30 114 H 8.3566 2.73128 -4.95396 0
M  V30 115 H 6.9136 2.80493 -5.88359 0
M  V30 116 N 10.3467 1.47872 -0.545128 0
M  V30 117 C 11.6237 1.9554 0.0485222 0
M  V30 118 C 12.0037 1.4876 1.49779 0
M  V30 119 O 11.3517 0.720925 2.16829 0
M  V30 120 C 11.5617 3.48898 -0.084417 0
M  V30 121 C 12.9097 4.24547 0.0671239 0
M  V30 122 O 13.9337 3.56198 -0.0113649 0
M  V30 123 O 12.7927 5.45999 0.233882 0
M  V30 124 H 9.8867 0.823957 0.0708773 0
M  V30 125 H 12.4327 1.58327 -0.610798 0
M  V30 126 H 11.2047 3.75714 -1.09337 0
M  V30 127 H 10.8277 3.92845 0.613066 0
M  V30 128 N 11.8248 0.280983 1.55075 0
M  V30 129 C 12.7568 -0.637268 2.20163 0
M  V30 130 C 13.7698 -1.11298 1.18813 0
M  V30 131 O 14.9588 -1.03388 1.4551 0
M  V30 132 C 12.0588 -1.88199 2.81841 0
M  V30 133 C 11.2318 -1.55211 4.08936 0
M  V30 134 C 10.2908 -2.64991 4.54606 0
M  V30 135 O 9.3168 -2.30929 5.2025 0
M  V30 136 N 10.5188 -3.95161 4.25238 0
M  V30 137 H 13.2838 -0.0801694 2.99593 0
M  V30 138 H 10.8448 0.102329 1.61576 0
M  V30 139 H 12.8368 -2.60948 3.09335 0
M  V30 140 H 11.4068 -2.34799 2.06369 0
M  V30 141 H 10.6268 -0.658185 3.88666 0
M  V30 142 H 11.9148 -1.30681 4.91732 0
M  V30 143 H 11.3128 -4.25653 3.72607 0
M  V30 144 H 9.8698 -4.6427 4.5749 0
M  V30 145 N 13.3029 -1.57598 0.00835791 0
M  V30 146 C 14.7139 -1.7892 -0.53333 0
M  V30 147 C 15.0649 -0.916609 -1.73473 0
M  V30 148 O 14.1899 -0.121336 -2.1606 0
M  V30 149 C 14.7849 -3.24488 -0.974313 0
M  V30 150 C 13.3439 -3.46878 -1.46125 0
M  V30 151 C 12.4909 -2.74157 -0.416302 0
M  V30 152 H 15.4419 -1.56958 0.234495 0
M  V30 153 H 15.4629 -3.3306 -1.83988 0
M  V30 154 H 14.9749 -3.87972 -0.099718 0
M  V30 155 H 13.0759 -2.8862 -2.35646 0
M  V30 156 H 13.1889 -4.55572 -1.48295 0
M  V30 157 H 11.5529 -2.39022 -0.87981 0
M  V30 158 H 12.3359 -3.40345 0.44947 0
M  V30 159 N 14.781 0.264519 -1.55364 0
M  V30 160 C 16.027 0.99646 -1.76631 0
M  V30 161 C 16.36 1.85632 -0.570478 0
M  V30 162 O 15.635 1.89647 0.43175 0
M  V30 163 C 15.918 1.87187 -3.07625 0
M  V30 164 C 15.771 1.04138 -4.37579 0
M  V30 165 C 17.09 2.85749 -3.34717 0
M  V30 166 H 14.209 0.360841 -0.642622 0
M  V30 167 H 16.851 0.268218 -1.88097 0
M  V30 168 H 15.001 2.49279 -2.9798 0
M  V30 169 H 16.673 0.440517 -4.59192 0
M  V30 170 H 14.916 0.345115 -4.32425 0
M  V30 171 H 15.587 1.68729 -5.2558 0
M  V30 172 H 18.063 2.33793 -3.4421 0
M  V30 173 H 16.939 3.44136 -4.27623 0
M  V30 174 H 17.2 3.61311 -2.54768 0
M  V30 175 N 16.2591 1.48442 0.529413 0
M  V30 176 C 17.6701 1.5002 1.11134 0
M  V30 177 C 18.0211 0.27031 1.94329 0
M  V30 178 O 17.1461 -0.622507 2.07253 0
M  V30 179 C 17.7411 2.71834 2.02217 0
M  V30 180 C 16.3001 2.76283 2.55627 0
M  V30 181 C 15.4471 2.43542 1.326 0
M  V30 182 H 18.3981 1.5555 0.314641 0
M  V30 183 H 18.4191 2.50384 2.8651 0
M  V30 184 H 17.9311 3.61331 1.41639 0
M  V30 185 H 16.0321 1.90995 3.19924 0
M  V30 186 H 16.1451 3.77725 2.94721 0
M  V30 187 H 14.5091 1.94709 1.64196 0
M  V30 188 H 15.2921 3.3528 0.737734 0
M  V30 189 N 17.7372 -0.778329 1.37039 0
M  V30 190 C 18.9842 -1.53665 1.31884 0
M  V30 191 C 19.3122 -1.9425 -0.0986303 0
M  V30 192 O 18.5672 -1.63832 -1.07041 0
M  V30 193 C 18.8662 -2.81845 2.19768 0
M  V30 194 C 18.5322 -2.60345 3.68146 0
M  V30 195 C 17.1942 -2.5419 4.08584 0
M  V30 196 C 19.5462 -2.40923 4.62175 0
M  V30 197 C 16.8742 -2.26594 5.41177 0
M  V30 198 C 19.2262 -2.14852 5.94997 0
M  V30 199 C 17.8902 -2.07137 6.34547 0
M  V30 200 H 17.1602 -0.562299 0.482598 0
M  V30 201 H 19.8072 -0.897069 1.69189 0
M  V30 202 H 18.1122 -3.50328 1.75436 0
M  V30 203 H 19.8092 -3.39692 2.13097 0
M  V30 204 H 16.3992 -2.65996 3.36072 0
M  V30 205 H 20.5832 -2.44673 4.31797 0
M  V30 206 H 15.8392 -2.19111 5.70789 0
M  V30 207 H 20.0132 -1.98822 6.67415 0
M  V30 208 H 17.6402 -1.85518 7.37216 0
M  V30 209 N 19.2153 -1.21501 -1.00376 0
M  V30 210 C 20.1633 -0.972442 -2.11297 0
M  V30 211 C 21.1573 0.080731 -1.69208 0
M  V30 212 O 22.3633 -0.0707666 -1.79861 0
M  V30 213 H 18.7383 -0.297218 -0.690772 0
M  V30 214 H 20.7093 -1.91394 -2.28934 0
M  V30 215 C 19.4583 -0.555065 -3.43241 0
M  V30 216 H 18.7813 -1.35709 -3.76062 0
M  V30 217 H 20.2213 -0.424664 -4.21868 0
M  V30 218 C 18.6803 0.734147 -3.28804 0
M  V30 219 O 19.2103 1.78937 -3.59645 0
M  V30 220 N 17.4163 0.701133 -2.82015 0
M  V30 221 H 16.9633 -0.157874 -2.57116 0
M  V30 222 H 16.9213 1.56403 -2.72737 0
M  V30 223 N 20.6934 1.19889 -1.02296 0
M  V30 224 C 21.9184 1.9393 -0.735237 0
M  V30 225 C 22.3434 1.74639 0.698782 0
M  V30 226 O 21.7014 1.04481 1.48167 0
M  V30 227 C 21.7494 3.43916 -1.08417 0
M  V30 228 O 20.8534 4.11917 -0.199446 0
M  V30 229 H 20.1944 0.605645 -0.272196 0
M  V30 230 H 22.7244 1.52137 -1.36804 0
M  V30 231 H 22.7344 3.9456 -1.03856 0
M  V30 232 H 21.4094 3.5728 -2.12894 0
M  V30 233 H 19.9864 3.71666 -0.303136 0
M  V30 234 N 22.1715 0.800033 1.35784 0
M  V30 235 C 23.3965 0.388511 2.03729 0
M  V30 236 C 23.8215 -0.990481 1.5991 0
M  V30 237 O 23.1795 -1.64013 0.772612 0
M  V30 238 C 23.2275 0.4726 3.5749 0
M  V30 239 O 22.3315 -0.51646 4.09153 0
M  V30 240 H 21.6725 0.163271 0.643614 0
M  V30 241 H 24.2025 1.0841 1.73518 0
M  V30 242 H 24.2125 0.34003 4.06581 0
M  V30 243 H 22.8875 1.47848 3.88734 0
M  V30 244 H 21.4645 -0.344673 3.71304 0
M  V30 245 N 23.6496 -1.47581 0.552962 0
M  V30 246 C 24.5996 -2.26961 -0.217423 0
M  V30 247 C 25.5836 -1.34099 -0.889168 0
M  V30 248 O 26.7756 -1.58483 -0.788176 0
M  V30 249 C 23.9046 -3.19756 -1.24944 0
M  V30 250 C 22.9906 -4.20097 -0.581327 0
M  V30 251 N 23.3816 -5.04614 0.346171 0
M  V30 252 C 21.6796 -4.38099 -0.835767 0
M  V30 253 C 22.3806 -5.77052 0.733854 0
M  V30 254 N 21.3566 -5.43526 0.0896567 0
M  V30 255 H 25.1586 -2.89688 0.495761 0
M  V30 256 H 22.6726 -1.58068 0.372597 0
M  V30 257 H 24.6696 -3.75305 -1.81527 0
M  V30 258 H 23.3296 -2.58585 -1.96376 0
M  V30 259 H 24.3406 -5.12869 0.720098 0
M  V30 260 H 21.0176 -3.88102 -1.53892 0
M  V30 261 H 22.4076 -6.5504 1.49574 0
M  V30 262 N 25.1277 -0.289203 -1.54924 0
M  V30 263 C 26.5387 0.205791 -1.85562 0
M  V30 264 C 26.8897 1.54351 -1.2112 0
M  V30 265 O 26.0147 2.10435 -0.504601 0
M  V30 266 C 26.6097 0.380177 -3.3666 0
M  V30 267 C 25.1687 0.819395 -3.67373 0
M  V30 268 C 24.3157 -0.079159 -2.77187 0
M  V30 269 H 27.2667 -0.510577 -1.50262 0
M  V30 270 H 27.2877 1.21659 -3.60526 0
M  V30 271 H 26.7997 -0.593589 -3.83534 0
M  V30 272 H 24.9007 1.80413 -3.26009 0
M  V30 273 H 25.0137 0.646957 -4.74712 0
M  V30 274 H 23.3777 0.439565 -2.50878 0
M  V30 275 H 24.1607 -1.04906 -3.26878 0
M  V30 276 N 26.6058 1.57591 -0.0167156 0
M  V30 277 C 27.8828 1.82547 0.702564 0
M  V30 278 C 28.2628 0.898018 1.91047 0
M  V30 279 O 27.6108 -0.0493456 2.28447 0
M  V30 280 C 27.8208 3.31459 1.09251 0
M  V30 281 C 29.1688 3.97622 1.48937 0
M  V30 282 O 30.1928 3.35881 1.18584 0
M  V30 283 O 29.0518 5.06415 2.05442 0
M  V30 284 H 26.1458 0.752268 0.343544 0
M  V30 285 H 28.6918 1.69644 -0.0434495 0
M  V30 286 H 27.4638 3.9061 0.23227 0
M  V30 287 H 27.0868 3.49422 1.89709 0
M  V30 288 N 28.0839 -0.256276 1.55502 0
M  V30 289 C 28.9939 -1.33882 1.92647 0
M  V30 290 C 30.0099 -1.53159 0.825727 0
M  V30 291 O 31.1859 -1.66963 1.12629 0
M  V30 292 C 28.2509 -2.6751 2.20543 0
M  V30 293 C 27.3119 -2.56836 3.43997 0
M  V30 294 C 26.5449 -3.84092 3.70553 0
M  V30 295 O 26.7679 -4.85545 2.99336 0
M  V30 296 O 25.7019 -3.83288 4.64084 0
M  V30 297 H 29.5279 -1.05374 2.84833 0
M  V30 298 H 27.1129 -0.456237 1.42263 0
M  V30 299 H 28.9949 -3.46492 2.39835 0
M  V30 300 H 27.6699 -2.9577 1.31536 0
M  V30 301 H 26.5769 -1.76172 3.30021 0
M  V30 302 H 27.9099 -2.33523 4.33275 0
M  V30 303 N 29.562 -1.4872 -0.521534 0
M  V30 304 C 30.792 -1.6061 -1.29954 0
M  V30 305 C 31.2 -0.268728 -1.87282 0
M  V30 306 O 30.543 0.753221 -1.67548 0
M  V30 307 C 30.605 -2.60013 -2.48261 0
M  V30 308 C 30.269 -4.04874 -2.11957 0
M  V30 309 C 31.266 -4.92304 -1.67132 0
M  V30 310 C 28.951 -4.5047 -2.22221 0
M  V30 311 C 30.945 -6.2336 -1.33047 0
M  V30 312 C 28.632 -5.81544 -1.87748 0
M  V30 313 C 29.63 -6.67812 -1.43234 0
M  V30 314 O 29.318 -7.96446 -1.09217 0
M  V30 315 H 29.05 -0.544116 -0.401141 0
M  V30 316 H 31.604 -1.95339 -0.634958 0
M  V30 317 H 29.834 -2.20422 -3.17728 0
M  V30 318 H 31.523 -2.61648 -3.10315 0
M  V30 319 H 32.289 -4.58312 -1.58665 0
M  V30 320 H 28.168 -3.83504 -2.55823 0
M  V30 321 H 31.712 -6.90649 -0.982299 0
M  V30 322 H 27.609 -6.15069 -1.95858 0
M  V30 323 H 28.377 -8.09275 -1.22542 0
M  V30 324 N 31.0401 0.771051 -1.3745 0
M  V30 325 C 31.9871 1.88435 -1.3327 0
M  V30 326 C 32.9571 1.64914 -0.198136 0
M  V30 327 O 34.1421 1.86821 -0.387606 0
M  V30 328 C 31.2821 3.25509 -1.14622 0
M  V30 329 C 30.3951 3.60979 -2.37314 0
M  V30 330 C 29.5301 4.87265 -2.11533 0
M  V30 331 C 28.5691 5.15469 -3.30088 0
M  V30 332 N 27.7061 6.32944 -3.03853 0
M  V30 333 H 32.5461 1.91344 -2.28455 0
M  V30 334 H 30.0831 0.935466 -1.13523 0
M  V30 335 H 32.0411 4.04582 -1.01831 0
M  V30 336 H 30.6711 3.21974 -0.230837 0
M  V30 337 H 29.7231 2.76885 -2.60842 0
M  V30 338 H 31.0351 3.77759 -3.25729 0
M  V30 339 H 30.1891 5.74244 -1.95777 0
M  V30 340 H 28.9281 4.7259 -1.20457 0
M  V30 341 H 27.9331 4.26966 -3.46382 0
M  V30 342 H 29.1581 5.32052 -4.22016 0
M  V30 343 H 27.1041 6.19625 -2.15407 0
M  V30 344 H 27.0211 6.50143 -3.85812 0
M  V30 345 H 28.2891 7.22857 -2.91716 0
M  V30 346 N 32.5182 1.22032 0.997298 0
M  V30 347 C 33.7672 1.03637 1.73038 0
M  V30 348 C 34.0802 -0.429475 1.90827 0
M  V30 349 O 35.2862 -0.732995 2.61418 0
M  V30 350 C 33.7422 1.80582 3.11317 0
M  V30 351 C 33.3502 3.31387 3.01474 0
M  V30 352 C 35.0942 1.70621 3.88701 0
M  V30 353 C 33.0012 4.00791 4.3488 0
M  V30 354 H 31.9312 0.384179 0.648785 0
M  V30 355 H 34.5822 1.4584 1.11368 0
M  V30 356 H 32.9642 1.31175 3.73643 0
M  V30 357 H 34.1382 3.88155 2.4834 0
M  V30 358 H 32.4532 3.41976 2.37575 0
M  V30 359 H 35.0502 2.19799 4.87434 0
M  V30 360 H 35.3932 0.665823 4.10941 0
M  V30 361 H 35.9262 2.17547 3.33044 0
M  V30 362 H 32.6652 5.05064 4.1784 0
M  V30 363 H 32.1852 3.48811 4.87945 0
M  V30 364 H 33.8642 4.06139 5.03647 0
M  V30 365 N 33.9963 -1.19345 1.0293 0
M  V30 366 C 34.9593 -2.20793 0.615069 0
M  V30 367 C 35.9593 -1.57553 -0.321533 0
M  V30 368 O 37.1493 -1.73862 -0.108483 0
M  V30 369 C 34.2813 -3.40754 -0.0999222 0
M  V30 370 H 35.4743 -2.58955 1.51269 0
M  V30 371 H 33.0273 -1.3303 0.820534 0
M  V30 372 H 33.7623 -3.0811 -1.01187 0
M  V30 373 H 33.5473 -3.87889 0.57309 0
M  V30 374 H 35.0373 -4.15898 -0.376645 0
M  V30 375 N 35.4744 -0.807222 -1.35358 0
M  V30 376 C 36.4374 -0.223665 -2.28106 0
M  V30 377 C 37.4374 0.589354 -1.4961 0
M  V30 378 O 38.6274 0.407745 -1.69361 0
M  V30 379 C 35.7594 0.688149 -3.33882 0
M  V30 380 H 36.9524 -1.04169 -2.81227 0
M  V30 381 H 34.5054 -0.577921 -1.45223 0
M  V30 382 H 35.2404 1.52984 -2.85948 0
M  V30 383 H 35.0254 0.10687 -3.91954 0
M  V30 384 H 36.5154 1.09075 -4.03104 0
M  V30 385 N 36.9525 1.47285 -0.560781 0
M  V30 386 C 37.8825 2.32857 0.173105 0
M  V30 387 C 38.8635 1.44009 0.905281 0
M  V30 388 O 40.0485 1.7286 0.885046 0
M  V30 389 C 37.1785 3.25861 1.20133 0
M  V30 390 C 36.1325 4.23978 0.585388 0
M  V30 391 C 35.4585 5.06332 1.7185 0
M  V30 392 C 36.7585 5.20242 -0.463178 0
M  V30 393 H 38.4525 2.94466 -0.541307 0
M  V30 394 H 35.9985 1.41601 -0.261764 0
M  V30 395 H 37.9515 3.84569 1.72293 0
M  V30 396 H 36.6755 2.62315 1.94573 0
M  V30 397 H 35.3345 3.66501 0.085054 0
M  V30 398 H 34.9825 4.39186 2.45203 0
M  V30 399 H 34.6825 5.72762 1.31213 0
M  V30 400 H 36.2065 5.67899 2.24329 0
M  V30 401 H 37.6205 5.73293 -0.027502 0
M  V30 402 H 36.0175 5.94896 -0.788627 0
M  V30 403 H 37.0875 4.65504 -1.35773 0
M  V30 404 N 38.4306 0.297415 1.54768 0
M  V30 405 C 39.6766 -0.313376 2.00364 0
M  V30 406 C 40.0096 -1.53815 1.18553 0
M  V30 407 O 39.2846 -1.92739 0.261103 0
M  V30 408 C 39.5676 -0.673525 3.53745 0
M  V30 409 C 39.4206 0.560133 4.46299 0
M  V30 410 C 40.7396 -1.50143 4.13697 0
M  V30 411 H 37.8586 -0.112428 0.728374 0
M  V30 412 H 40.5006 0.4088 1.8555 0
M  V30 413 H 38.6506 -1.28881 3.665 0
M  V30 414 H 40.3226 1.19863 4.45455 0
M  V30 415 H 38.5656 1.19405 4.17043 0
M  V30 416 H 39.2366 0.26405 5.51368 0
M  V30 417 H 41.7126 -0.981588 4.04356 0
M  V30 418 H 40.5886 -1.72221 5.21182 0
M  V30 419 H 40.8496 -2.48952 3.65343 0
M  V30 420 N 39.9087 -1.5758 0.0250728 0
M  V30 421 C 41.1557 -1.91633 -0.654444 0
M  V30 422 C 41.4837 -0.901103 -1.72367 0
M  V30 423 O 40.7387 0.0905647 -1.9549 0
M  V30 424 C 41.0377 -3.32421 -1.31268 0
M  V30 425 C 40.7037 -4.49344 -0.374223 0
M  V30 426 C 39.3657 -4.8106 -0.115911 0
M  V30 427 C 41.7177 -5.20498 0.270432 0
M  V30 428 C 39.0457 -5.8129 0.79493 0
M  V30 429 C 41.3977 -6.21699 1.1693 0
M  V30 430 C 40.0617 -6.51859 1.43655 0
M  V30 431 H 39.3317 -0.701236 -0.239478 0
M  V30 432 H 41.9787 -1.91307 0.0859734 0
M  V30 433 H 40.2837 -3.28989 -2.12775 0
M  V30 434 H 41.9807 -3.56038 -1.84494 0
M  V30 435 H 38.5707 -4.24579 -0.58573 0
M  V30 436 H 42.7547 -4.96229 0.0839194 0
M  V30 437 H 38.0107 -6.03005 1.00973 0
M  V30 438 H 42.1847 -6.75955 1.67504 0
M  V30 439 H 39.8117 -7.2934 2.144 0
M  V30 440 N 41.3868 0.248026 -1.55636 0
M  V30 441 C 42.6168 0.992367 -1.81206 0
M  V30 442 C 43.0248 1.7949 -0.598324 0
M  V30 443 O 42.3678 1.78292 0.442434 0
M  V30 444 C 42.4298 1.97926 -3.00109 0
M  V30 445 C 42.0938 1.36377 -4.36177 0
M  V30 446 C 43.0908 0.76682 -5.14214 0
M  V30 447 C 40.7758 1.38347 -4.82872 0
M  V30 448 C 42.7698 0.197778 -6.37093 0
M  V30 449 C 40.4568 0.810574 -6.057 0
M  V30 450 C 41.4548 0.218754 -6.8265 0
M  V30 451 O 41.1428 -0.345298 -8.03158 0
M  V30 452 H 40.8748 0.297704 -0.606917 0
M  V30 453 H 43.4288 0.276517 -2.0353 0
M  V30 454 H 41.6588 2.73339 -2.73538 0
M  V30 455 H 43.3478 2.58694 -3.12781 0
M  V30 456 H 44.1138 0.744114 -4.79258 0
M  V30 457 H 39.9928 1.8335 -4.2297 0
M  V30 458 H 43.5368 -0.264788 -6.97097 0
M  V30 459 H 39.4338 0.830604 -6.40134 0
M  V30 460 H 40.2018 -0.237055 -8.18157 0
M  V30 461 N 42.8649 1.48995 0.513639 0
M  V30 462 C 44.0899 1.61792 1.29762 0
M  V30 463 C 44.5149 0.284475 1.85936 0
M  V30 464 O 43.8729 -0.746185 1.65232 0
M  V30 465 C 43.9209 2.67993 2.41272 0
M  V30 466 O 43.0249 2.26287 3.44772 0
M  V30 467 H 42.3659 0.541963 0.38363 0
M  V30 468 H 44.8959 1.95097 0.616307 0
M  V30 469 H 44.9059 2.89772 2.87221 0
M  V30 470 H 43.5809 3.64791 1.9975 0
M  V30 471 H 42.1579 2.14788 3.04829 0
M  V30 472 N 44.343 -0.763751 1.37857 0
M  V30 473 C 45.583 -1.53551 1.34913 0
M  V30 474 C 45.947 -1.91895 -0.0635882 0
M  V30 475 O 47.148 -2.67916 -0.217825 0
M  V30 476 C 45.419 -2.76126 2.26912 0
M  V30 477 S 46.978 -3.66105 2.41893 0
M  V30 478 H 43.796 -0.52559 0.478828 0
M  V30 479 H 46.398 -0.897435 1.73685 0
M  V30 480 H 45.102 -2.4605 3.28463 0
M  V30 481 H 44.633 -3.44887 1.89253 0
M  V30 482 H 46.648 -4.68473 1.63545 0
M  V30 483 N 45.8211 -1.22559 -0.990812 0
M  V30 484 C 47.0701 -1.04553 -1.72486 0
M  V30 485 C 47.3831 0.419349 -1.91052 0
M  V30 486 O 48.5891 0.719121 -2.61803 0
M  V30 487 C 47.0451 -1.82231 -3.10355 0
M  V30 488 C 46.6531 -3.32981 -2.99713 0
M  V30 489 C 48.3971 -1.7268 -3.87791 0
M  V30 490 C 46.3041 -4.03091 -4.32748 0
M  V30 491 H 45.2341 -0.387614 -0.646739 0
M  V30 492 H 47.8851 -1.46429 -1.10593 0
M  V30 493 H 46.2671 -1.33155 -3.72942 0
M  V30 494 H 47.4411 -3.89466 -2.46278 0
M  V30 495 H 45.7561 -3.43231 -2.35758 0
M  V30 496 H 48.3531 -2.22381 -4.86262 0
M  V30 497 H 48.6961 -0.687607 -4.10582 0
M  V30 498 H 49.2291 -2.1931 -3.31885 0
M  V30 499 H 45.9681 -5.07273 -4.15156 0
M  V30 500 H 45.4881 -3.51394 -4.86089 0
M  V30 501 H 47.1671 -4.08804 -5.01486 0
M  V30 502 N 47.2992 1.18797 -1.03562 0
M  V30 503 C 48.5462 1.8865 -0.736023 0
M  V30 504 C 48.8742 1.80041 0.735889 0
M  V30 505 O 48.1292 1.19179 1.55225 0
M  V30 506 C 48.4282 3.38692 -1.14117 0
M  V30 507 C 48.0942 3.67504 -2.6125 0
M  V30 508 C 46.7562 3.75078 -3.01447 0
M  V30 509 C 49.1082 3.80293 -3.56408 0
M  V30 510 C 46.4362 3.92915 -4.35701 0
M  V30 511 C 48.7882 3.99645 -4.90374 0
M  V30 512 C 47.4522 4.05453 -5.30249 0
M  V30 513 H 46.7222 0.690321 -0.26933 0
M  V30 514 H 49.3692 1.40641 -1.29971 0
M  V30 515 H 47.6742 3.88645 -0.496202 0
M  V30 516 H 49.3712 3.91072 -0.886789 0
M  V30 517 H 45.9612 3.62223 -2.29113 0
M  V30 518 H 50.1452 3.73779 -3.26501 0
M  V30 519 H 45.4012 3.95653 -4.66121 0
M  V30 520 H 49.5752 4.08482 -5.64017 0
M  V30 521 H 47.2022 4.19027 -6.34288 0
M  V30 522 N 48.7773 0.814389 1.34928 0
M  V30 523 C 50.0263 0.394871 1.97797 0
M  V30 524 C 50.3393 -1.04555 1.65311 0
M  V30 525 O 51.5453 -1.56856 2.21604 0
M  V30 526 C 50.0013 0.655103 3.53888 0
M  V30 527 C 49.6093 2.10858 3.95276 0
M  V30 528 C 51.3533 0.301329 4.23429 0
M  V30 529 C 49.2603 2.31415 5.44244 0
M  V30 530 H 48.1903 0.143913 0.740139 0
M  V30 531 H 50.8413 0.999544 1.53888 0
M  V30 532 H 49.2233 -0.0196253 3.95995 0
M  V30 533 H 50.3973 2.82176 3.64298 0
M  V30 534 H 48.7123 2.42297 3.38646 0
M  V30 535 H 51.3093 0.432869 5.32945 0
M  V30 536 H 51.6523 -0.75331 4.09428 0
M  V30 537 H 52.1853 0.930288 3.86769 0
M  V30 538 H 48.9243 3.35353 5.63222 0
M  V30 539 H 48.4443 1.6463 5.76764 0
M  V30 540 H 50.1233 2.13352 6.10811 0
M  V30 541 N 50.2554 -1.46986 0.568584 0
M  V30 542 C 51.5044 -2.01646 0.0465894 0
M  V30 543 C 51.8174 -1.44721 -1.31587 0
M  V30 544 O 53.0234 -1.91113 -1.92842 0
M  V30 545 C 51.4794 -3.59885 0.032752 0
M  V30 546 C 51.0874 -4.25804 1.39266 0
M  V30 547 C 52.8314 -4.22255 -0.436038 0
M  V30 548 C 50.7384 -5.76081 1.33732 0
M  V30 549 H 49.6684 -0.753876 0.013647 0
M  V30 550 H 52.3194 -1.68864 0.718131 0
M  V30 551 H 50.7014 -3.8968 -0.704669 0
M  V30 552 H 51.8754 -4.07637 2.1487 0
M  V30 553 H 50.1904 -3.7547 1.80032 0
M  V30 554 H 52.7874 -5.32394 -0.49602 0
M  V30 555 H 53.1304 -3.90212 -1.45053 0
M  V30 556 H 53.6634 -3.97033 0.246877 0
M  V30 557 H 50.4024 -6.12761 2.32817 0
M  V30 558 H 49.9224 -5.96553 0.623267 0
M  V30 559 H 51.6014 -6.38518 1.0442 0
M  V30 560 N 51.7335 -0.305618 -1.54608 0
M  V30 561 C 52.9815 0.301701 -1.99835 0
M  V30 562 C 53.3025 1.54054 -1.19551 0
M  V30 563 O 52.5725 1.93702 -0.292658 0
M  V30 564 H 51.1525 0.114468 -0.738178 0
M  V30 565 H 53.8145 -0.418016 -1.90364 0
M  V30 566 H 52.9105 0.570548 -3.06841 0
M  V30 567 N 53.2116 1.57565 -0.0334293 0
M  V30 568 C 54.1416 2.13511 0.945265 0
M  V30 569 C 55.1226 1.05231 1.33643 0
M  V30 570 O 56.3076 1.33084 1.41429 0
M  V30 571 C 53.4376 2.6657 2.22616 0
M  V30 572 C 52.3916 3.79676 1.97561 0
M  V30 573 C 51.7176 4.1918 3.31952 0
M  V30 574 C 53.0176 5.0557 1.31135 0
M  V30 575 H 54.7116 2.95538 0.479325 0
M  V30 576 H 52.2576 1.42166 0.229115 0
M  V30 577 H 54.2106 3.04344 2.91466 0
M  V30 578 H 52.9346 1.8171 2.71384 0
M  V30 579 H 51.5936 3.42347 1.31127 0
M  V30 580 H 51.2416 3.31296 3.78487 0
M  V30 581 H 50.9416 4.95402 3.15992 0
M  V30 582 H 52.4656 4.59541 4.02063 0
M  V30 583 H 53.8796 5.40903 1.89992 0
M  V30 584 H 52.2766 5.86818 1.25559 0
M  V30 585 H 53.3466 4.84062 0.284894 0
M  V30 586 N 54.6897 -0.239769 1.55765 0
M  V30 587 C 55.9367 -0.966801 1.7793 0
M  V30 588 C 56.2647 -1.85046 0.599015 0
M  V30 589 O 55.5197 -1.91197 -0.417395 0
M  V30 590 C 55.8187 -1.852 3.05672 0
M  V30 591 C 55.4847 -1.1231 4.36689 0
M  V30 592 C 54.1467 -0.921689 4.72291 0
M  V30 593 C 56.4987 -0.607019 5.17653 0
M  V30 594 C 53.8267 -0.191996 5.86386 0
M  V30 595 C 56.1787 0.109241 6.32506 0
M  V30 596 C 54.8427 0.322073 6.66723 0
M  V30 597 H 54.1127 -0.353778 0.651093 0
M  V30 598 H 56.7597 -0.23634 1.90036 0
M  V30 599 H 55.0647 -2.64975 2.8861 0
M  V30 600 H 56.7617 -2.41635 3.20021 0
M  V30 601 H 53.3517 -1.29004 4.08725 0
M  V30 602 H 57.5357 -0.750153 4.90598 0
M  V30 603 H 52.7917 -0.0166949 6.11398 0
M  V30 604 H 56.9657 0.516737 6.9448 0
M  V30 605 H 54.5927 0.88944 7.54979 0
M  V30 606 N 56.1678 -1.49265 -0.50573 0
M  V30 607 C 57.4138 -1.58748 -1.26202 0
M  V30 608 C 57.7468 -0.271227 -1.92297 0
M  V30 609 O 57.0218 0.724831 -1.80489 0
M  V30 610 C 57.3048 -2.74332 -2.33268 0
M  V30 611 C 57.1578 -4.15737 -1.71705 0
M  V30 612 C 58.4768 -2.85576 -3.34865 0
M  V30 613 H 55.5958 -0.577826 -0.457478 0
M  V30 614 H 58.2378 -1.81532 -0.560897 0
M  V30 615 H 56.3878 -2.55036 -2.93068 0
M  V30 616 H 58.0598 -4.46537 -1.15769 0
M  V30 617 H 56.3028 -4.21605 -1.02135 0
M  V30 618 H 56.9738 -4.92477 -2.49341 0
M  V30 619 H 59.4498 -3.03127 -2.8505 0
M  V30 620 H 58.3258 -3.68135 -4.07146 0
M  V30 621 H 58.5868 -1.94732 -3.96903 0
M  V30 622 N 57.6459 0.756429 -1.3826 0
M  V30 623 C 58.5939 1.89149 -1.35372 0
M  V30 624 C 59.5879 1.67691 -0.24004 0
M  V30 625 O 60.7939 1.75294 -0.408919 0
M  V30 626 H 57.1689 0.622271 -0.422236 0
M  V30 627 H 59.1399 1.88701 -2.31159 0
M  V30 628 C 57.8889 3.26599 -1.19284 0
M  V30 629 H 57.2119 3.43695 -2.0424 0
M  V30 630 H 58.6519 4.06274 -1.21316 0
M  V30 631 C 57.1109 3.3675 0.100454 0
M  V30 632 O 57.6409 3.86951 1.07851 0
M  V30 633 N 55.8469 2.90179 0.15633 0
M  V30 634 H 55.3939 2.49517 -0.640253 0
M  V30 635 H 55.3519 2.97352 1.02123 0
M  V30 636 N 59.124 1.23083 0.984299 0
M  V30 637 C 60.373 1.05466 1.71929 0
M  V30 638 C 60.686 -0.409211 1.91272 0
M  V30 639 O 61.892 -0.705226 2.62181 0
M  V30 640 C 60.348 1.83874 3.09384 0
M  V30 641 C 59.956 3.34566 2.97943 0
M  V30 642 C 61.7 1.74734 3.8687 0
M  V30 643 C 59.607 4.05381 4.30605 0
M  V30 644 H 58.537 0.391039 0.644674 0
M  V30 645 H 61.188 1.47013 1.09815 0
M  V30 646 H 59.57 1.35131 3.72231 0
M  V30 647 H 60.744 3.90767 2.44209 0
M  V30 648 H 59.059 3.44476 2.33934 0
M  V30 649 H 61.656 2.24957 4.85076 0
M  V30 650 H 61.999 0.709372 4.10212 0
M  V30 651 H 62.532 2.21067 3.30717 0
M  V30 652 H 59.271 5.09467 4.1246 0
M  V30 653 H 58.791 3.53967 4.84218 0
M  V30 654 H 60.47 4.11458 4.99311 0
M  V30 655 N 60.6021 -1.18246 1.0419 0
M  V30 656 C 61.8301 -1.92195 0.766072 0
M  V30 657 C 62.2451 -1.76247 -0.676933 0
M  V30 658 O 61.6021 -1.09293 -1.46155 0
M  V30 659 C 61.6531 -3.43568 1.12442 0
M  V30 660 O 61.3741 -3.59015 2.51078 0
M  V30 661 C 62.8751 -4.34613 0.873275 0
M  V30 662 H 60.0951 -0.610114 0.279288 0
M  V30 663 H 62.6391 -1.50007 1.38989 0
M  V30 664 H 60.7941 -3.8354 0.545542 0
M  V30 665 H 61.2081 -4.5273 2.64831 0
M  V30 666 H 62.6821 -5.39374 1.17385 0
M  V30 667 H 63.1591 -4.38781 -0.191909 0
M  V30 668 H 63.7651 -4.00341 1.43551 0
M  V30 669 N 62.0802 -0.821533 -1.34494 0
M  V30 670 C 63.0432 -0.247847 -2.27856 0
M  V30 671 C 64.0432 0.573453 -1.50227 0
M  V30 672 O 65.2332 0.389759 -1.69784 0
M  V30 673 C 62.3652 0.652698 -3.34593 0
M  V30 674 H 63.5582 -1.07146 -2.80107 0
M  V30 675 H 61.1112 -0.593291 -1.44602 0
M  V30 676 H 61.8462 1.49943 -2.87555 0
M  V30 677 H 61.6312 0.065292 -3.92046 0
M  V30 678 H 63.1212 1.04793 -4.04238 0
M  V30 679 N 63.5583 1.46682 -0.576371 0
M  V30 680 C 64.4883 2.33028 0.148397 0
M  V30 681 C 65.4693 1.44961 0.889956 0
M  V30 682 O 66.6543 1.73789 0.866662 0
M  V30 683 C 63.7843 3.27117 1.1667 0
M  V30 684 C 62.7383 4.24575 0.540386 0
M  V30 685 C 62.0643 5.08126 1.6647 0
M  V30 686 C 63.3643 5.19722 -0.518331 0
M  V30 687 H 65.0583 2.93875 -0.572509 0
M  V30 688 H 62.6043 1.41315 -0.276768 0
M  V30 689 H 64.5573 3.86374 1.68204 0
M  V30 690 H 63.2813 2.64364 1.9178 0
M  V30 691 H 61.9403 3.66571 0.0461769 0
M  V30 692 H 61.5883 4.41762 2.40531 0
M  V30 693 H 61.2883 5.74122 1.25131 0
M  V30 694 H 62.8123 5.70246 2.18293 0
M  V30 695 H 64.2263 5.73232 -0.0883058 0
M  V30 696 H 62.6233 5.94026 -0.851679 0
M  V30 697 H 63.6933 4.64037 -1.40703 0
M  V30 698 N 65.0364 0.313813 1.54444 0
M  V30 699 C 66.2824 -0.284918 2.01395 0
M  V30 700 C 66.6374 -1.50537 1.19818 0
M  V30 701 O 65.9304 -1.89692 0.269748 0
M  V30 702 C 66.1244 -0.680386 3.50864 0
M  V30 703 C 65.9534 0.500198 4.4691 0
M  V30 704 C 64.7234 0.996248 4.95382 0
M  V30 705 C 66.9214 1.34928 4.96285 0
M  V30 706 N 64.9034 2.14226 5.75309 0
M  V30 707 C 66.2744 2.3426 5.7404 0
M  V30 708 C 68.3294 1.37818 4.78446 0
M  V30 709 C 67.0324 3.36272 6.35856 0
M  V30 710 C 69.0584 2.38695 5.4109 0
M  V30 711 C 68.4204 3.36755 6.18688 0
M  V30 712 H 64.5194 -0.0683689 0.779006 0
M  V30 713 H 67.1034 0.44664 1.89508 0
M  V30 714 H 65.2744 -1.38109 3.63016 0
M  V30 715 H 67.0064 -1.25975 3.84594 0
M  V30 716 H 63.7614 0.56912 4.70168 0
M  V30 717 H 64.1854 2.72005 6.19953 0
M  V30 718 H 68.8274 0.633747 4.18023 0
M  V30 719 H 66.5454 4.11627 6.95405 0
M  V30 720 H 70.1314 2.41721 5.29209 0
M  V30 721 H 69.0114 4.13535 6.66302 0
M  V30 722 N 66.5145 -1.57545 0.0417849 0
M  V30 723 C 67.7605 -1.92601 -0.635021 0
M  V30 724 C 68.0935 -0.919627 -1.71045 0
M  V30 725 O 67.3685 0.0557892 -1.9442 0
M  V30 726 C 67.6515 -3.38085 -1.23979 0
M  V30 727 C 67.5045 -4.49467 -0.173057 0
M  V30 728 C 68.8235 -3.83776 -2.15416 0
M  V30 729 H 65.9425 -0.700397 -0.229374 0
M  V30 730 H 68.5845 -1.89728 0.101633 0
M  V30 731 H 66.7345 -3.40664 -1.86762 0
M  V30 732 H 68.4065 -4.59018 0.458312 0
M  V30 733 H 66.6495 -4.30909 0.499996 0
M  V30 734 H 67.3205 -5.48323 -0.636054 0
M  V30 735 H 69.7965 -3.83013 -1.62605 0
M  V30 736 H 68.6725 -4.8624 -2.54679 0
M  V30 737 H 68.9335 -3.19998 -3.05047 0
M  V30 738 N 67.9926 0.231505 -1.5589 0
M  V30 739 C 69.2396 0.957352 -1.78441 0
M  V30 740 C 69.5676 1.84726 -0.60882 0
M  V30 741 O 68.8226 1.91416 0.40725 0
M  V30 742 C 69.1216 1.83577 -3.0665 0
M  V30 743 C 68.7876 1.09993 -4.37278 0
M  V30 744 C 67.4496 0.896629 -4.72773 0
M  V30 745 C 69.8016 0.579558 -5.17968 0
M  V30 746 C 67.1296 0.160896 -5.86479 0
M  V30 747 C 69.4816 -0.142783 -6.32439 0
M  V30 748 C 68.1456 -0.357427 -6.66542 0
M  V30 749 H 67.4156 0.35032 -0.65296 0
M  V30 750 H 70.0626 0.226259 -1.90159 0
M  V30 751 H 68.3676 2.63441 -2.90011 0
M  V30 752 H 70.0646 2.39934 -3.21298 0
M  V30 753 H 66.6546 1.26835 -4.09403 0
M  V30 754 H 70.8386 0.724125 -4.90989 0
M  V30 755 H 66.0946 -0.0157293 -6.11398 0
M  V30 756 H 70.2686 -0.553559 -6.94196 0
M  V30 757 H 67.8956 -0.929466 -7.54497 0
M  V30 758 N 69.4707 1.49531 0.497807 0
M  V30 759 C 70.6957 1.63159 1.28039 0
M  V30 760 C 71.1207 0.30418 1.85624 0
M  V30 761 O 70.4787 -0.728618 1.66015 0
M  V30 762 C 70.5267 2.70537 2.38416 0
M  V30 763 O 69.6307 2.29931 3.42353 0
M  V30 764 H 68.9717 0.546001 0.377861 0
M  V30 765 H 71.5017 1.9574 0.59558 0
M  V30 766 H 71.5117 2.92802 2.84132 0
M  V30 767 H 70.1867 3.6689 1.95869 0
M  V30 768 H 68.7637 2.18009 3.02533 0
M  V30 769 N 70.9488 -0.749086 1.3866 0
M  V30 770 C 72.1888 -1.52112 1.36534 0
M  V30 771 C 72.5528 -1.91951 -0.0432316 0
M  V30 772 O 73.7538 -2.68132 -0.189396 0
M  V30 773 C 72.0248 -2.73704 2.29828 0
M  V30 774 S 73.5838 -3.63519 2.45763 0
M  V30 775 H 70.4018 -0.520482 0.484375 0
M  V30 776 H 73.0038 -0.878963 1.74627 0
M  V30 777 H 71.7078 -2.42552 3.31054 0
M  V30 778 H 71.2388 -3.4286 1.929 0
M  V30 779 H 73.2538 -4.66712 1.68505 0
M  V30 780 N 72.4269 -1.23603 -0.977757 0
M  V30 781 C 73.6549 -1.09646 -1.75458 0
M  V30 782 C 74.0699 0.351859 -1.85492 0
M  V30 783 O 73.4269 1.24327 -1.336 0
M  V30 784 C 73.4779 -1.71895 -3.18016 0
M  V30 785 O 73.1989 -3.11063 -3.08498 0
M  V30 786 C 74.6999 -1.63415 -4.12081 0
M  V30 787 H 71.9199 -0.38359 -0.550545 0
M  V30 788 H 74.4639 -1.63507 -1.22824 0
M  V30 789 H 72.6189 -1.22061 -3.67668 0
M  V30 790 H 73.0329 -3.41305 -3.9826 0
M  V30 791 H 74.5069 -2.11669 -5.09804 0
M  V30 792 H 74.9839 -0.593462 -4.35172 0
M  V30 793 H 75.5899 -2.12628 -3.68334 0
M  V30 794 N 73.905 1.17692 -1.04816 0
M  V30 795 C 75.133 1.91786 -0.776254 0
M  V30 796 C 75.548 1.76604 0.667577 0
M  V30 797 O 74.905 1.10067 1.45573 0
M  V30 798 C 74.956 3.42967 -1.14263 0
M  V30 799 O 74.677 3.57678 -2.52978 0
M  V30 800 C 76.178 4.34144 -0.896311 0
M  V30 801 H 73.398 0.608624 -0.282519 0
M  V30 802 H 75.942 1.49268 -1.39783 0
M  V30 803 H 74.097 3.83245 -0.565874 0
M  V30 804 H 74.511 4.51319 -2.67229 0
M  V30 805 H 75.985 5.38744 -1.20244 0
M  V30 806 H 76.462 4.38876 0.168636 0
M  V30 807 H 77.068 3.99574 -1.45672 0
M  V30 808 N 75.3831 0.828654 1.34056 0
M  V30 809 C 76.3301 0.252567 2.29414 0
M  V30 810 C 77.3001 -0.62588 1.53857 0
M  V30 811 O 78.4851 -0.566312 1.82202 0
M  V30 812 C 75.6251 -0.574831 3.40279 0
M  V30 813 C 74.7381 0.326499 4.30764 0
M  V30 814 C 73.8731 -0.511016 5.28736 0
M  V30 815 C 72.9121 0.389342 6.1086 0
M  V30 816 N 72.0491 -0.409439 7.00905 0
M  V30 817 H 76.8891 1.07108 2.78086 0
M  V30 818 H 74.4261 0.539677 1.36843 0
M  V30 819 H 76.3841 -1.06992 4.03248 0
M  V30 820 H 75.0141 -1.35841 2.92826 0
M  V30 821 H 74.0661 0.939837 3.68607 0
M  V30 822 H 75.3781 1.01857 4.88289 0
M  V30 823 H 74.5321 -1.07035 5.97184 0
M  V30 824 H 73.2711 -1.23657 4.71763 0
M  V30 825 H 72.2761 0.960769 5.4134 0
M  V30 826 H 73.5011 1.1131 6.69916 0
M  V30 827 H 71.4471 -1.11856 6.46393 0
M  V30 828 H 71.3641 0.224126 7.55668 0
M  V30 829 H 72.6321 -0.951336 7.73673 0
M  V30 830 N 76.8612 -1.46375 0.584142 0
M  V30 831 C 77.8082 -2.30323 -0.148286 0
M  V30 832 C 78.7782 -1.40703 -0.882713 0
M  V30 833 O 79.9632 -1.69651 -0.873099 0
M  V30 834 C 77.1032 -3.25196 -1.15507 0
M  V30 835 C 76.2162 -4.29915 -0.423943 0
M  V30 836 C 75.3512 -5.11914 -1.41838 0
M  V30 837 C 74.3902 -6.08381 -0.673736 0
M  V30 838 N 73.5272 -6.83242 -1.6163 0
M  V30 839 H 78.3672 -2.92427 0.573644 0
M  V30 840 H 75.9042 -1.44118 0.294703 0
M  V30 841 H 77.8622 -3.78646 -1.75166 0
M  V30 842 H 76.4922 -2.64898 -1.8447 0
M  V30 843 H 75.5442 -3.7931 0.287714 0
M  V30 844 H 76.8562 -4.98549 0.158128 0
M  V30 845 H 76.0102 -5.69648 -2.08773 0
M  V30 846 H 74.7492 -4.43243 -2.03438 0
M  V30 847 H 73.7542 -5.49799 0.00938483 0
M  V30 848 H 74.9792 -6.79071 -0.0631082 0
M  V30 849 H 72.9252 -6.1728 -2.22038 0
M  V30 850 H 72.8422 -7.48144 -1.08707 0
M  V30 851 H 74.1102 -7.45534 -2.27596 0
M  V30 852 N 78.3393 -0.321999 -1.54275 0
M  V30 853 C 79.7553 0.0306999 -1.5957 0
M  V30 854 C 79.9553 1.50614 -1.33857 0
M  V30 855 O 79.0113 2.2619 -1.12223 0
M  V30 856 C 80.3243 -0.386122 -2.98211 0
M  V30 857 C 81.8723 -0.336647 -3.11184 0
M  V30 858 C 82.3473 -0.728607 -4.52167 0
M  V30 859 N 83.8383 -0.681952 -4.58152 0
M  V30 860 C 84.5733 -0.957449 -5.6535 0
M  V30 861 N 84.0693 -1.3 -6.80494 0
M  V30 862 N 85.8623 -0.883113 -5.55119 0
M  V30 863 H 78.0133 -1.28332 -1.69247 0
M  V30 864 H 80.2763 -0.521716 -0.791528 0
M  V30 865 H 79.9823 -1.41404 -3.22022 0
M  V30 866 H 79.8563 0.249662 -3.76373 0
M  V30 867 H 82.2433 0.682058 -2.8711 0
M  V30 868 H 82.3243 -1.00734 -2.3513 0
M  V30 869 H 81.9683 -1.74522 -4.76974 0
M  V30 870 H 81.8983 -0.0356152 -5.26588 0
M  V30 871 H 84.3893 -0.428985 -3.75457 0
M  V30 872 H 84.7023 -1.49563 -7.58189 0
M  V30 873 H 83.0473 -1.33824 -6.81994 0
M  V30 874 H 86.2383 -0.615001 -4.64042 0
M  V30 875 H 86.4113 -1.10118 -6.38575 0
M  V30 876 N 79.8174 1.5752 -0.0501392 0
M  V30 877 C 81.0454 1.96963 0.633492 0
M  V30 878 C 81.4604 0.927631 1.6444 0
M  V30 879 O 80.8174 -0.0882665 1.82286 0
M  V30 880 C 80.8684 3.36487 1.32132 0
M  V30 881 O 80.5894 4.36693 0.350894 0
M  V30 882 C 82.0904 3.90682 2.09481 0
M  V30 883 H 79.3104 0.648244 0.173266 0
M  V30 884 H 81.8544 2.0417 -0.116134 0
M  V30 885 H 80.0094 3.30434 2.02218 0
M  V30 886 H 80.4234 5.17702 0.841735 0
M  V30 887 H 81.8974 4.90591 2.5303 0
M  V30 888 H 82.3744 3.26053 2.94255 0
M  V30 889 H 82.9804 4.00069 1.44307 0
M  V30 890 N 81.2955 -0.223234 1.56011 0
M  V30 891 C 82.5235 -0.964812 1.83027 0
M  V30 892 C 82.9385 -1.78013 0.62904 0
M  V30 893 O 82.2955 -1.78008 -0.402414 0
M  V30 894 C 82.3465 -1.88373 3.08542 0
M  V30 895 O 82.0675 -1.10137 4.2403 0
M  V30 896 C 83.5685 -2.73934 3.48533 0
M  V30 897 H 80.7885 -0.282842 0.608475 0
M  V30 898 H 83.3325 -0.238971 2.03099 0
M  V30 899 H 81.4875 -2.56354 2.9045 0
M  V30 900 H 81.9015 -1.72501 4.95322 0
M  V30 901 H 83.3755 -3.34117 4.39397 0
M  V30 902 H 83.8525 -3.46244 2.70207 0
M  V30 903 H 84.4585 -2.11369 3.69057 0
M  V30 904 N 82.7736 -1.49793 -0.48987 0
M  V30 905 C 84.0196 -1.60078 -1.24511 0
M  V30 906 C 84.3526 -0.291608 -1.91998 0
M  V30 907 O 83.6276 0.705647 -1.81248 0
M  V30 908 C 83.9106 -2.76791 -2.30345 0
M  V30 909 C 83.7636 -4.17535 -1.67286 0
M  V30 910 C 85.0826 -2.89111 -3.31817 0
M  V30 911 H 82.2016 -0.582645 -0.451324 0
M  V30 912 H 84.8436 -1.82117 -0.541612 0
M  V30 913 H 82.9936 -2.5813 -2.90346 0
M  V30 914 H 84.6656 -4.4774 -1.11026 0
M  V30 915 H 82.9086 -4.22665 -0.976577 0
M  V30 916 H 83.5796 -4.95094 -2.44103 0
M  V30 917 H 86.0556 -3.06133 -2.81819 0
M  V30 918 H 84.9316 -3.72433 -4.03219 0
M  V30 919 H 85.1926 -1.9893 -3.94815 0
M  V30 920 N 84.2517 0.741722 -1.39055 0
M  V30 921 C 85.4797 1.53098 -1.39171 0
M  V30 922 C 85.8947 1.88794 0.0155099 0
M  V30 923 O 85.2517 1.53626 0.985159 0
M  V30 924 C 85.3027 2.82274 -2.2584 0
M  V30 925 O 85.0237 2.48097 -3.61081 0
M  V30 926 C 86.5247 3.76343 -2.34266 0
M  V30 927 H 83.7447 0.473335 -0.4756 0
M  V30 928 H 86.2887 0.917045 -1.82785 0
M  V30 929 H 84.4437 3.40015 -1.85656 0
M  V30 930 H 84.8577 3.31029 -4.06842 0
M  V30 931 H 86.3317 4.63898 -2.9917 0
M  V30 932 H 86.8087 4.17619 -1.35982 0
M  V30 933 H 87.4147 3.24523 -2.74891 0
M  V30 934 N 85.7298 1.2412 0.971189 0
M  V30 935 C 86.9788 1.07284 1.70801 0
M  V30 936 C 87.2918 -0.388902 1.91695 0
M  V30 937 O 88.4978 -0.677379 2.62914 0
M  V30 938 C 86.9538 1.87145 3.07416 0
M  V30 939 C 86.5618 3.37707 2.94377 0
M  V30 940 C 88.3058 1.78828 3.84995 0
M  V30 941 C 86.2128 4.09925 4.26281 0
M  V30 942 H 85.1428 0.397854 0.64049 0
M  V30 943 H 87.7938 1.4817 1.0825 0
M  V30 944 H 86.1758 1.39071 3.70777 0
M  V30 945 H 87.3498 3.93335 2.4005 0
M  V30 946 H 85.6648 3.46938 2.30267 0
M  V30 947 H 88.2618 2.30089 4.82662 0
M  V30 948 H 88.6048 0.75284 4.09436 0
M  V30 949 H 89.1378 2.24563 3.28354 0
M  V30 950 H 85.8768 5.13813 4.07033 0
M  V30 951 H 85.3968 3.59083 4.80437 0
M  V30 952 H 87.0758 4.1673 4.94919 0
M  V30 953 N 87.2079 -1.17134 1.05439 0
M  V30 954 C 88.4379 -1.91094 0.785274 0
M  V30 955 C 88.8459 -1.77198 -0.663142 0
M  V30 956 O 88.1889 -1.10835 -1.46497 0
M  V30 957 C 88.2509 -3.42594 1.08949 0
M  V30 958 C 87.9149 -3.80274 2.53458 0
M  V30 959 C 88.9119 -3.82912 3.51673 0
M  V30 960 C 86.5969 -4.11162 2.88532 0
M  V30 961 C 88.5909 -4.15913 4.83006 0
M  V30 962 C 86.2779 -4.43831 4.20068 0
M  V30 963 C 87.2759 -4.46185 5.17115 0
M  V30 964 O 86.9639 -4.78083 6.46291 0
M  V30 965 H 86.6959 -0.613073 0.284811 0
M  V30 966 H 89.2499 -1.49461 1.40893 0
M  V30 967 H 87.4799 -3.84534 0.408741 0
M  V30 968 H 89.1689 -3.97817 0.805991 0
M  V30 969 H 89.9349 -3.5917 3.25917 0
M  V30 970 H 85.8139 -4.085 2.13656 0
M  V30 971 H 89.3579 -4.17665 5.5875 0
M  V30 972 H 85.2549 -4.67037 4.45586 0
M  V30 973 H 86.0229 -4.9593 6.51149 0
M  V30 974 N 88.686 -0.835752 -1.33615 0
M  V30 975 C 89.619 -0.211815 -2.27215 0
M  V30 976 C 90.597 0.639249 -1.49507 0
M  V30 977 O 91.781 0.600193 -1.78689 0
M  V30 978 C 88.908 0.702893 -3.31326 0
M  V30 979 C 87.954 -0.0723049 -4.26439 0
M  V30 980 S 88.787 -1.42811 -5.16106 0
M  V30 981 C 89.943 -0.518613 -6.23748 0
M  V30 982 H 90.176 -1.00533 -2.79786 0
M  V30 983 H 87.709 -0.632336 -1.40858 0
M  V30 984 H 89.667 1.22505 -3.91794 0
M  V30 985 H 88.328 1.47004 -2.77576 0
M  V30 986 H 87.521 0.62359 -5.00127 0
M  V30 987 H 87.123 -0.525424 -3.70291 0
M  V30 988 H 89.415 0.284778 -6.76901 0
M  V30 989 H 90.358 -1.22556 -6.97413 0
M  V30 990 H 90.766 -0.101344 -5.64409 0
M  V30 991 N 90.1641 1.46063 -0.591896 0
M  V30 992 C 91.0971 2.27452 0.184617 0
M  V30 993 C 92.0751 1.36188 0.888351 0
M  V30 994 O 93.2591 1.65606 0.90039 0
M  V30 995 C 90.3861 3.14162 1.26571 0
M  V30 996 C 89.4321 4.21255 0.666814 0
M  V30 997 S 90.2651 5.33034 -0.513345 0
M  V30 998 C 91.4211 6.23311 0.56872 0
M  V30 999 H 91.6541 2.92963 -0.505939 0
M  V30 1000 H 89.1871 1.49676 -0.379014 0
M  V30 1001 H 91.1451 3.6468 1.88463 0
M  V30 1002 H 89.8061 2.47946 1.92826 0
M  V30 1003 H 88.9991 4.81788 1.47974 0
M  V30 1004 H 88.6011 3.73797 0.123359 0
M  V30 1005 H 90.8931 6.61758 1.45198 0
M  V30 1006 H 91.8361 7.081 -7.23824e-05 0
M  V30 1007 H 92.2441 5.57646 0.876996 0
M  V30 1008 N 91.6422 0.330177 1.54103 0
M  V30 1009 C 92.5902 -0.548226 2.26047 0
M  V30 1010 C 93.5842 -1.11309 1.27698 0
M  V30 1011 O 94.7902 -1.06036 1.45452 0
M  V30 1012 H 91.1652 -0.195456 0.726155 0
M  V30 1013 H 93.1362 0.0807567 2.98291 0
M  V30 1014 C 91.8852 -1.69415 3.03634 0
M  V30 1015 H 91.2082 -1.26876 3.79134 0
M  V30 1016 H 92.6482 -2.28423 3.5721 0
M  V30 1017 C 91.1072 -2.61569 2.12328 0
M  V30 1018 O 91.6372 -3.63462 1.7105 0
M  V30 1019 N 89.8432 -2.29952 1.77681 0
M  V30 1020 H 89.3902 -1.47134 2.11446 0
M  V30 1021 H 89.3482 -2.91871 1.16869 0
M  V30 1022 N 93.1203 -1.57491 0.0584922 0
M  V30 1023 C 94.3663 -1.93264 -0.614558 0
M  V30 1024 C 94.6993 -0.937717 -1.7006 0
M  V30 1025 O 93.9743 0.0351652 -1.94468 0
M  V30 1026 C 94.2573 -3.3938 -1.20386 0
M  V30 1027 C 94.1103 -4.49625 -0.125375 0
M  V30 1028 C 95.4293 -3.86039 -2.11334 0
M  V30 1029 H 92.5483 -0.702791 -0.221933 0
M  V30 1030 H 95.1903 -1.8961 0.12175 0
M  V30 1031 H 93.3403 -3.42626 -1.83139 0
M  V30 1032 H 95.0123 -4.58506 0.506971 0
M  V30 1033 H 93.2553 -4.30354 0.545672 0
M  V30 1034 H 93.9263 -5.48967 -0.577861 0
M  V30 1035 H 96.4023 -3.84716 -1.58534 0
M  V30 1036 H 95.2783 -4.88914 -2.49507 0
M  V30 1037 H 95.5393 -3.23215 -3.01636 0
M  V30 1038 N 94.5984 0.214957 -1.56127 0
M  V30 1039 C 95.5614 1.24997 -1.92116 0
M  V30 1040 C 96.5614 1.39467 -0.800344 0
M  V30 1041 O 97.7514 1.37619 -1.06802 0
M  V30 1042 C 94.8834 2.62271 -2.17777 0
M  V30 1043 H 96.0764 0.942875 -2.84693 0
M  V30 1044 H 93.6294 0.455654 -1.49511 0
M  V30 1045 H 94.3644 2.98068 -1.27773 0
M  V30 1046 H 94.1494 2.53143 -2.99434 0
M  V30 1047 H 95.6394 3.36946 -2.46693 0
M  V30 1048 N 96.0765 1.50051 0.48192 0
M  V30 1049 C 97.0065 1.71046 1.58951 0
M  V30 1050 C 97.9875 0.559288 1.60642 0
M  V30 1051 O 99.1725 0.797243 1.77081 0
M  V30 1052 C 96.3025 1.79462 2.97339 0
M  V30 1053 C 95.2565 2.94558 3.10515 0
M  V30 1054 C 94.5825 2.88105 4.50444 0
M  V30 1055 C 95.8825 4.35227 2.88747 0
M  V30 1056 H 97.5765 2.6378 1.41635 0
M  V30 1057 H 95.1225 1.26936 0.679942 0
M  V30 1058 H 97.0755 1.92734 3.74742 0
M  V30 1059 H 95.7995 0.833412 3.15788 0
M  V30 1060 H 94.4585 2.80918 2.35543 0
M  V30 1061 H 94.1065 1.89853 4.65795 0
M  V30 1062 H 93.8065 3.65366 4.60197 0
M  V30 1063 H 95.3305 3.03412 5.29881 0
M  V30 1064 H 96.7445 4.49449 3.55905 0
M  V30 1065 H 95.1415 5.13856 3.09955 0
M  V30 1066 H 96.2115 4.48347 1.84696 0
M  V30 1067 N 97.5546 -0.734337 1.39446 0
M  V30 1068 C 98.8006 -1.49613 1.36908 0
M  V30 1069 C 99.1336 -1.94169 -0.0347829 0
M  V30 1070 O 98.4086 -1.66833 -0.999847 0
M  V30 1071 C 98.6916 -2.73534 2.34203 0
M  V30 1072 C 98.5446 -2.34993 3.83534 0
M  V30 1073 C 99.8636 -3.75635 2.29317 0
M  V30 1074 H 96.9826 -0.542714 0.498629 0
M  V30 1075 H 99.6246 -0.839597 1.70443 0
M  V30 1076 H 97.7746 -3.29553 2.05736 0
M  V30 1077 H 99.4466 -1.84601 4.22753 0
M  V30 1078 H 97.6896 -1.67213 4.00278 0
M  V30 1079 H 98.3606 -3.23738 4.47099 0
M  V30 1080 H 100.837 -3.29203 2.54489 0
M  V30 1081 H 99.7126 -4.60008 2.99472 0
M  V30 1082 H 99.9736 -4.22603 1.29842 0
M  V30 1083 N 99.0327 -1.24633 -0.964593 0
M  V30 1084 C 100.31 -0.995809 -1.68354 0
M  V30 1085 C 100.69 0.480964 -2.05548 0
M  V30 1086 O 100.038 1.45599 -1.76105 0
M  V30 1087 C 100.248 -1.92177 -2.91323 0
M  V30 1088 C 101.596 -2.19446 -3.63495 0
M  V30 1089 O 102.62 -1.89855 -3.01386 0
M  V30 1090 O 101.479 -2.69714 -4.75307 0
M  V30 1091 H 98.5727 -0.376854 -0.736146 0
M  V30 1092 H 101.119 -1.35745 -1.0184 0
M  V30 1093 H 99.8907 -2.91938 -2.60553 0
M  V30 1094 H 99.5137 -1.56349 -3.65569 0
M  V30 1095 N 100.511 1.16574 -1.06058 0
M  V30 1096 C 101.441 2.23057 -0.690488 0
M  V30 1097 C 102.422 1.67141 0.315901 0
M  V30 1098 O 103.607 1.93253 0.191556 0
M  V30 1099 C 100.737 3.47222 -0.073625 0
M  V30 1100 C 99.6908 4.16016 -1.00573 0
M  V30 1101 C 99.0168 5.34104 -0.252289 0
M  V30 1102 C 100.317 4.67264 -2.33371 0
M  V30 1103 H 102.011 2.54271 -1.58072 0
M  V30 1104 H 99.5568 1.22218 -0.76149 0
M  V30 1105 H 101.51 4.20939 0.19714 0
M  V30 1106 H 100.234 3.15302 0.85161 0
M  V30 1107 H 98.8928 3.44223 -1.2612 0
M  V30 1108 H 98.5408 4.98437 0.675988 0
M  V30 1109 H 98.2408 5.81072 -0.873455 0
M  V30 1110 H 99.7648 6.10599 0.0109857 0
M  V30 1111 H 101.179 5.32573 -2.12223 0
M  V30 1112 H 99.5758 5.24843 -2.90963 0
M  V30 1113 H 100.646 3.83602 -2.96611 0
M  V30 1114 N 101.989 0.842826 1.3317 0
M  V30 1115 C 103.238 0.436738 1.96915 0
M  V30 1116 C 103.551 -1.01025 1.67491 0
M  V30 1117 O 104.757 -1.5212 2.24881 0
M  V30 1118 C 103.213 0.730021 3.52418 0
M  V30 1119 C 102.821 2.19195 3.90714 0
M  V30 1120 C 104.565 0.391076 4.22695 0
M  V30 1121 C 102.472 2.42907 5.39212 0
M  V30 1122 H 101.402 0.15958 0.736919 0
M  V30 1123 H 104.053 1.03196 1.51733 0
M  V30 1124 H 102.435 0.0643755 3.95948 0
M  V30 1125 H 103.609 2.8984 3.58231 0
M  V30 1126 H 101.924 2.49425 3.33431 0
M  V30 1127 H 104.521 0.545817 5.31907 0
M  V30 1128 H 104.864 -0.666294 4.10933 0
M  V30 1129 H 105.397 1.01212 3.84709 0
M  V30 1130 H 102.136 3.47224 5.55982 0
M  V30 1131 H 101.656 1.76827 5.73142 0
M  V30 1132 H 103.335 2.2626 6.06148 0
M  V30 1133 N 103.467 -1.45747 0.599634 0
M  V30 1134 C 104.714 -2.02292 0.0917284 0
M  V30 1135 C 105.042 -1.46906 -1.27472 0
M  V30 1136 O 104.297 -0.630652 -1.8526 0
M  V30 1137 C 104.596 -3.57399 -0.00602758 0
M  V30 1138 C 104.262 -4.31902 1.29503 0
M  V30 1139 C 102.924 -4.51974 1.65144 0
M  V30 1140 C 105.276 -4.74551 2.15525 0
M  V30 1141 C 102.604 -5.11949 2.86574 0
M  V30 1142 C 104.956 -5.35868 3.36196 0
M  V30 1143 C 103.62 -5.54165 3.72099 0
M  V30 1144 H 102.89 -0.740239 0.0335658 0
M  V30 1145 H 105.537 -1.7491 0.779661 0
M  V30 1146 H 103.842 -3.84014 -0.777183 0
M  V30 1147 H 105.539 -3.98846 -0.415038 0
M  V30 1148 H 102.129 -4.16588 1.00761 0
M  V30 1149 H 106.313 -4.58784 1.8929 0
M  V30 1150 H 101.569 -5.24305 3.14507 0
M  V30 1151 H 105.743 -5.6787 4.03109 0
M  V30 1152 H 103.37 -6.00406 4.6628 0
M  V30 1153 N 104.945 -0.338344 -1.53925 0
M  V30 1154 C 106.194 0.260732 -2.00008 0
M  V30 1155 C 106.507 1.52073 -1.23017 0
M  V30 1156 O 107.713 2.19672 -1.5955 0
M  V30 1157 C 106.169 0.51515 -3.56194 0
M  V30 1158 C 105.777 -0.728645 -4.42035 0
M  V30 1159 C 107.521 1.07337 -4.10706 0
M  V30 1160 C 105.428 -0.445315 -5.89721 0
M  V30 1161 H 104.358 0.101205 -0.747177 0
M  V30 1162 H 107.009 -0.452866 -1.77824 0
M  V30 1163 H 105.391 1.28932 -3.74423 0
M  V30 1164 H 106.565 -1.50352 -4.35581 0
M  V30 1165 H 104.88 -1.20813 -3.98489 0
M  V30 1166 H 107.477 1.30022 -5.18651 0
M  V30 1167 H 107.82 2.0273 -3.63602 0
M  V30 1168 H 108.353 0.360034 -3.96167 0
M  V30 1169 H 105.092 -1.36883 -6.41049 0
M  V30 1170 H 104.612 0.291569 -5.99091 0
M  V30 1171 H 106.291 -0.0606218 -6.46972 0
M  V30 1172 N 106.423 1.57458 -0.0668435 0
M  V30 1173 C 107.356 2.08033 0.93795 0
M  V30 1174 C 108.334 0.984321 1.29421 0
M  V30 1175 O 109.518 1.25736 1.40437 0
M  V30 1176 C 106.645 2.53388 2.24749 0
M  V30 1177 C 105.691 3.74376 2.04315 0
M  V30 1178 S 106.524 5.19303 1.30706 0
M  V30 1179 C 107.68 5.67986 2.62951 0
M  V30 1180 H 107.913 2.92935 0.50759 0
M  V30 1181 H 105.446 1.5371 0.145804 0
M  V30 1182 H 107.404 2.8018 3.00016 0
M  V30 1183 H 106.065 1.68763 2.64911 0
M  V30 1184 H 105.258 4.04083 3.01218 0
M  V30 1185 H 104.86 3.47931 1.37186 0
M  V30 1186 H 107.152 5.74528 3.5906 0
M  V30 1187 H 108.095 6.66955 2.3786 0
M  V30 1188 H 108.503 4.95781 2.69929 0
M  V30 1189 N 107.901 -0.206675 1.56239 0
M  V30 1190 C 109.129 -0.945345 1.8404 0
M  V30 1191 C 109.544 -1.77336 0.647885 0
M  V30 1192 O 108.901 -1.78425 -0.383511 0
M  V30 1193 C 108.952 -1.8509 3.10522 0
M  V30 1194 O 108.673 -1.05634 4.25174 0
M  V30 1195 C 110.174 -2.70222 3.51418 0
M  V30 1196 H 107.394 -0.276372 0.61144 0
M  V30 1197 H 109.938 -0.217417 2.03341 0
M  V30 1198 H 108.093 -2.53259 2.93153 0
M  V30 1199 H 108.507 -1.67238 4.97124 0
M  V30 1200 H 109.981 -3.29438 4.42916 0
M  V30 1201 H 110.458 -3.43358 2.73864 0
M  V30 1202 H 111.064 -2.07443 3.71278 0
M  V30 1203 N 109.379 -1.50304 -0.473955 0
M  V30 1204 C 110.309 -1.71886 -1.58042 0
M  V30 1205 C 111.29 -0.567799 -1.60344 0
M  V30 1206 O 112.475 -0.806623 -1.76656 0
M  V30 1207 C 109.605 -1.81036 -2.96384 0
M  V30 1208 C 108.559 -2.962 -3.08949 0
M  V30 1209 C 107.885 -2.9049 -4.48909 0
M  V30 1210 C 109.185 -4.36752 -2.86434 0
M  V30 1211 H 110.879 -2.64527 -1.40234 0
M  V30 1212 H 108.425 -1.27295 -0.673201 0
M  V30 1213 H 110.378 -1.94719 -3.73714 0
M  V30 1214 H 109.102 -0.850147 -3.15341 0
M  V30 1215 H 107.761 -2.82164 -2.3405 0
M  V30 1216 H 107.409 -1.92321 -4.64781 0
M  V30 1217 H 107.109 -3.67802 -4.58253 0
M  V30 1218 H 108.633 -3.06218 -5.28264 0
M  V30 1219 H 110.047 -4.5133 -3.53517 0
M  V30 1220 H 108.444 -5.15493 -3.07225 0
M  V30 1221 H 109.514 -4.49321 -1.82316 0
M  V30 1222 N 110.857 0.726932 -1.39834 0
M  V30 1223 C 112.268 1.30558 -1.3346 0
M  V30 1224 C 112.619 1.962 -0.00273003 0
M  V30 1225 O 111.744 1.96826 0.899371 0
M  V30 1226 C 112.339 2.37404 -2.41713 0
M  V30 1227 C 110.898 2.90921 -2.38835 0
M  V30 1228 C 110.045 1.64578 -2.2318 0
M  V30 1229 H 112.996 0.523862 -1.49804 0
M  V30 1230 H 113.017 3.17984 -2.08966 0
M  V30 1231 H 112.529 1.89599 -3.38635 0
M  V30 1232 H 110.63 3.42985 -1.45575 0
M  V30 1233 H 110.743 3.43487 -3.33997 0
M  V30 1234 H 109.107 1.89219 -1.70494 0
M  V30 1235 H 109.89 1.18814 -3.22084 0
M  V30 1236 N 112.336 1.25143 0.95797 0
M  V30 1237 C 113.583 1.09692 1.70217 0
M  V30 1238 C 113.911 -0.362654 1.91089 0
M  V30 1239 O 113.166 -1.28386 1.47701 0
M  V30 1240 C 113.465 1.79272 3.09187 0
M  V30 1241 C 113.131 3.29196 3.08125 0
M  V30 1242 C 111.793 3.70096 3.07543 0
M  V30 1243 C 114.145 4.24995 3.0171 0
M  V30 1244 C 111.473 5.05213 2.9829 0
M  V30 1245 C 113.825 5.60132 2.93999 0
M  V30 1246 C 112.489 6.00365 2.9175 0
M  V30 1247 H 111.759 0.401393 0.622868 0
M  V30 1248 H 114.406 1.55372 1.11945 0
M  V30 1249 H 112.711 1.26014 3.70982 0
M  V30 1250 H 114.408 1.64773 3.65583 0
M  V30 1251 H 110.998 2.96651 3.09348 0
M  V30 1252 H 115.182 3.9439 3.01281 0
M  V30 1253 H 110.438 5.35569 2.94916 0
M  V30 1254 H 114.612 6.3406 2.87996 0
M  V30 1255 H 112.239 7.05023 2.84336 0
M  V30 1256 N 113.814 -1.1601 1.06675 0
M  V30 1257 C 115.23 -1.38622 0.790948 0
M  V30 1258 C 115.43 -1.92109 -0.607965 0
M  V30 1259 O 114.486 -2.12239 -1.36787 0
M  V30 1260 C 115.799 -2.36347 1.85905 0
M  V30 1261 C 117.347 -2.50023 1.88301 0
M  V30 1262 C 117.822 -3.51033 2.94176 0
M  V30 1263 N 119.313 -3.58563 2.93235 0
M  V30 1264 C 120.048 -4.36521 3.71803 0
M  V30 1265 N 119.544 -5.17869 4.602 0
M  V30 1266 N 121.337 -4.31541 3.60178 0
M  V30 1267 H 113.488 -0.796294 1.96908 0
M  V30 1268 H 115.751 -0.412597 0.853503 0
M  V30 1269 H 115.457 -2.04147 2.86386 0
M  V30 1270 H 115.331 -3.36042 1.71334 0
M  V30 1271 H 117.718 -2.81524 0.884769 0
M  V30 1272 H 117.799 -1.5035 2.06951 0
M  V30 1273 H 117.443 -3.20268 3.94196 0
M  V30 1274 H 117.373 -4.50445 2.72776 0
M  V30 1275 H 119.864 -3.00496 2.29152 0
M  V30 1276 H 120.177 -5.74578 5.16797 0
M  V30 1277 H 118.522 -5.17199 4.64253 0
M  V30 1278 H 121.713 -3.67051 2.90502 0
M  V30 1279 H 121.886 -4.9205 4.21653 0
M  V30 1280 N 115.292 -0.849877 -1.32721 0
M  V30 1281 C 116.225 -0.235903 -2.26977 0
M  V30 1282 C 117.203 0.623355 -1.50177 0
M  V30 1283 O 118.387 0.581207 -1.79316 0
M  V30 1284 C 115.514 0.667712 -3.32053 0
M  V30 1285 C 114.56 -0.11753 -4.26338 0
M  V30 1286 S 115.393 -1.48277 -5.14562 0
M  V30 1287 C 116.549 -0.584741 -6.23163 0
M  V30 1288 H 116.782 -1.03495 -2.78704 0
M  V30 1289 H 114.315 -0.64724 -1.40179 0
M  V30 1290 H 116.273 1.18343 -3.93072 0
M  V30 1291 H 114.934 1.44052 -2.7912 0
M  V30 1292 H 114.127 0.57051 -5.00761 0
M  V30 1293 H 113.729 -0.564668 -3.69713 0
M  V30 1294 H 116.021 0.212968 -6.77165 0
M  V30 1295 H 116.964 -1.29947 -6.96074 0
M  V30 1296 H 117.372 -0.161202 -5.6427 0
M  V30 1297 N 116.77 1.45427 -0.607355 0
M  V30 1298 C 118.017 2.02241 -0.102455 0
M  V30 1299 C 118.345 1.4758 1.26691 0
M  V30 1300 O 117.6 0.640468 1.84923 0
M  V30 1301 C 117.899 3.57398 -0.0129263 0
M  V30 1302 C 117.565 4.3121 -1.31792 0
M  V30 1303 C 116.227 4.51092 -1.67539 0
M  V30 1304 C 118.579 4.73401 -2.18039 0
M  V30 1305 C 115.907 5.10422 -2.89285 0
M  V30 1306 C 118.259 5.34078 -3.39034 0
M  V30 1307 C 116.923 5.52184 -3.75033 0
M  V30 1308 H 116.193 0.740051 -0.037491 0
M  V30 1309 H 118.84 1.74494 -0.788926 0
M  V30 1310 H 117.145 3.84421 0.756806 0
M  V30 1311 H 118.842 3.99061 0.393881 0
M  V30 1312 H 115.432 4.16047 -1.02968 0
M  V30 1313 H 119.616 4.57774 -1.91721 0
M  V30 1314 H 114.872 5.22629 -3.17283 0
M  V30 1315 H 119.046 5.65724 -4.06115 0
M  V30 1316 H 116.673 5.97925 -4.69457 0
M  V30 1317 N 118.248 0.346503 1.53744 0
M  V30 1318 C 119.478 -0.250047 2.05081 0
M  V30 1319 C 119.886 -1.44529 1.22098 0
M  V30 1320 O 119.229 -1.81992 0.249917 0
M  V30 1321 C 119.291 -0.725934 3.52094 0
M  V30 1322 C 118.955 0.350053 4.55657 0
M  V30 1323 C 119.952 1.19372 5.0601 0
M  V30 1324 C 117.637 0.504827 4.99757 0
M  V30 1325 C 119.631 2.17768 5.99046 0
M  V30 1326 C 117.318 1.49218 5.92602 0
M  V30 1327 C 118.316 2.32706 6.42135 0
M  V30 1328 O 118.004 3.2976 7.33153 0
M  V30 1329 H 117.736 -0.0515469 0.674032 0
M  V30 1330 H 120.29 0.497559 1.99282 0
M  V30 1331 H 118.52 -1.52483 3.55367 0
M  V30 1332 H 120.209 -1.24336 3.86388 0
M  V30 1333 H 120.975 1.08525 4.72702 0
M  V30 1334 H 116.854 -0.135178 4.60802 0
M  V30 1335 H 120.398 2.82971 6.37631 0
M  V30 1336 H 116.295 1.6012 6.25325 0
M  V30 1337 H 117.063 3.25265 7.51096 0
M  V30 1338 N 119.726 -1.57421 0.075193 0
M  V30 1339 C 120.956 -1.97659 -0.601203 0
M  V30 1340 C 121.364 -0.952427 -1.63479 0
M  V30 1341 O 120.707 0.0688241 -1.83571 0
M  V30 1342 C 120.769 -3.34218 -1.32434 0
M  V30 1343 C 120.433 -4.5484 -0.443826 0
M  V30 1344 C 121.43 -5.19034 0.299969 0
M  V30 1345 C 119.115 -5.00952 -0.367709 0
M  V30 1346 C 121.109 -6.27695 1.10807 0
M  V30 1347 C 118.796 -6.09484 0.444058 0
M  V30 1348 C 119.794 -6.72719 1.18061 0
M  V30 1349 O 119.482 -7.79161 1.97898 0
M  V30 1350 H 119.214 -0.65494 -0.167422 0
M  V30 1351 H 121.768 -2.04886 0.145157 0
M  V30 1352 H 119.998 -3.23615 -2.11685 0
M  V30 1353 H 121.687 -3.59038 -1.89331 0
M  V30 1354 H 122.453 -4.84351 0.250776 0
M  V30 1355 H 118.332 -4.51509 -0.930638 0
M  V30 1356 H 121.876 -6.76982 1.68347 0
M  V30 1357 H 117.773 -6.43601 0.494803 0
M  V30 1358 H 118.541 -7.96055 1.90367 0
M  V30 1359 N 121.204 0.198386 -1.56346 0
M  V30 1360 C 122.167 1.22952 -1.93431 0
M  V30 1361 C 123.167 1.38611 -0.815092 0
M  V30 1362 O 124.357 1.36479 -1.08255 0
M  V30 1363 C 121.489 2.59946 -2.20546 0
M  V30 1364 H 122.682 0.912626 -2.85677 0
M  V30 1365 H 120.235 0.43977 -1.49986 0
M  V30 1366 H 120.97 2.96696 -1.30927 0
M  V30 1367 H 120.755 2.49953 -3.02102 0
M  V30 1368 H 122.245 3.3431 -2.50253 0
M  V30 1369 N 122.682 1.50554 0.465978 0
M  V30 1370 C 123.629 1.6979 1.56333 0
M  V30 1371 C 124.599 0.539239 1.57103 0
M  V30 1372 O 125.784 0.770401 1.74555 0
M  V30 1373 C 122.924 1.80273 2.94271 0
M  V30 1374 C 122.037 3.07674 3.0325 0
M  V30 1375 C 121.172 3.08922 4.32135 0
M  V30 1376 C 120.211 4.30755 4.34875 0
M  V30 1377 N 119.348 4.29714 5.55239 0
M  V30 1378 H 124.188 2.63472 1.39235 0
M  V30 1379 H 121.725 1.30602 0.676873 0
M  V30 1380 H 123.683 1.84332 3.74269 0
M  V30 1381 H 122.313 0.900258 3.09992 0
M  V30 1382 H 121.365 3.13062 2.16094 0
M  V30 1383 H 122.677 3.97642 3.01135 0
M  V30 1384 H 121.831 3.11738 5.20485 0
M  V30 1385 H 120.57 2.16792 4.36866 0
M  V30 1386 H 119.575 4.28146 3.44922 0
M  V30 1387 H 120.8 5.24117 4.31831 0
M  V30 1388 H 118.746 3.4044 5.60746 0
M  V30 1389 H 118.663 5.13456 5.54886 0
M  V30 1390 H 119.931 4.36683 6.457 0
M  V30 1391 N 124.16 -0.719506 1.40217 0
M  V30 1392 C 125.437 -1.47221 1.28784 0
M  V30 1393 C 125.817 -2.10883 -0.0956067 0
M  V30 1394 O 125.165 -1.99833 -1.10811 0
M  V30 1395 C 125.375 -2.5111 2.42373 0
M  V30 1396 C 126.723 -3.17053 2.82423 0
M  V30 1397 O 127.747 -2.61429 2.41937 0
M  V30 1398 O 126.606 -4.17742 3.52355 0
M  V30 1399 H 123.7 -0.654491 0.50554 0
M  V30 1400 H 126.246 -0.752014 1.52128 0
M  V30 1401 H 125.018 -2.02556 3.34793 0
M  V30 1402 H 124.641 -3.3067 2.20778 0
M  V30 1403 N 125.638 -1.25649 -0.95132 0
M  V30 1404 C 126.548 -1.08073 -2.08224 0
M  V30 1405 C 127.564 -0.0169666 -1.73992 0
M  V30 1406 O 128.74 -0.218593 -2.0021 0
M  V30 1407 C 125.805 -0.704922 -3.39458 0
M  V30 1408 C 124.866 -1.84699 -3.87537 0
M  V30 1409 C 124.099 -1.48902 -5.12508 0
M  V30 1410 O 124.322 -0.386156 -5.69091 0
M  V30 1411 O 123.256 -2.32033 -5.55378 0
M  V30 1412 H 127.082 -2.02924 -2.25954 0
M  V30 1413 H 124.667 -1.04618 -1.06656 0
M  V30 1414 H 126.549 -0.507609 -4.18332 0
M  V30 1415 H 125.224 0.214291 -3.2299 0
M  V30 1416 H 124.131 -2.09919 -3.09653 0
M  V30 1417 H 125.464 -2.74557 -4.08509 0
M  V30 1418 N 127.117 1.15442 -1.07289 0
M  V30 1419 C 128.363 1.8672 -0.806679 0
M  V30 1420 C 128.718 1.80723 0.660084 0
M  V30 1421 O 128.011 1.21902 1.47819 0
M  V30 1422 C 128.205 3.3489 -1.24834 0
M  V30 1423 C 128.034 3.55313 -2.7565 0
M  V30 1424 C 126.804 3.7082 -3.4325 0
M  V30 1425 C 129.002 3.53188 -3.73848 0
M  V30 1426 N 126.984 3.7929 -4.82713 0
M  V30 1427 C 128.355 3.67765 -4.99149 0
M  V30 1428 C 130.41 3.36459 -3.67015 0
M  V30 1429 C 129.113 3.6734 -6.18428 0
M  V30 1430 C 131.139 3.37333 -4.85758 0
M  V30 1431 C 130.501 3.52438 -6.09891 0
M  V30 1432 H 126.6 0.700433 -0.347733 0
M  V30 1433 H 129.184 1.38441 -1.36902 0
M  V30 1434 H 127.355 3.81786 -0.713713 0
M  V30 1435 H 129.087 3.93875 -0.929745 0
M  V30 1436 H 125.842 3.71568 -2.93656 0
M  V30 1437 H 126.266 3.8727 -5.55294 0
M  V30 1438 H 130.908 3.237 -2.71989 0
M  V30 1439 H 128.626 3.78878 -7.13777 0
M  V30 1440 H 132.212 3.25617 -4.82146 0
M  V30 1441 H 131.092 3.53047 -7.00234 0
M  V30 1442 N 128.595 0.856903 1.32268 0
M  V30 1443 C 130.006 0.515711 1.79436 0
M  V30 1444 C 130.357 -0.966586 1.70738 0
M  V30 1445 O 129.482 -1.75409 1.26731 0
M  V30 1446 C 130.077 0.929335 3.25805 0
M  V30 1447 C 128.636 0.640006 3.70919 0
M  V30 1448 C 127.783 1.12784 2.53328 0
M  V30 1449 H 130.734 1.04389 1.19535 0
M  V30 1450 H 130.755 0.246633 3.797 0
M  V30 1451 H 130.267 2.00821 3.32103 0
M  V30 1452 H 128.368 -0.428051 3.70133 0
M  V30 1453 H 128.481 1.20788 4.63624 0
M  V30 1454 H 126.845 0.548033 2.48734 0
M  V30 1455 H 127.628 2.21387 2.62379 0
M  V30 1456 N 130.073 -1.45103 0.615059 0
M  V30 1457 C 131.32 -2.02183 0.113179 0
M  V30 1458 C 131.648 -1.48249 -1.25906 0
M  V30 1459 O 130.903 -0.650265 -1.84581 0
M  V30 1460 C 131.202 -3.57386 0.0318797 0
M  V30 1461 C 130.868 -4.30505 1.34077 0
M  V30 1462 C 129.53 -4.50197 1.69929 0
M  V30 1463 C 131.882 -4.72238 2.20546 0
M  V30 1464 C 129.21 -5.08881 2.91988 0
M  V30 1465 C 131.562 -5.32272 3.41861 0
M  V30 1466 C 130.226 -5.50187 3.77956 0
M  V30 1467 H 129.496 -0.739842 0.0414151 0
M  V30 1468 H 132.143 -1.74073 0.798168 0
M  V30 1469 H 130.448 -3.84817 -0.736409 0
M  V30 1470 H 132.145 -3.99264 -0.372712 0
M  V30 1471 H 128.735 -4.15496 1.05173 0
M  V30 1472 H 132.919 -4.56751 1.94146 0
M  V30 1473 H 128.175 -5.20939 3.2005 0
M  V30 1474 H 132.349 -5.63563 4.09109 0
M  V30 1475 H 129.976 -5.95427 4.72622 0
M  V30 1476 N 131.551 -0.354651 -1.53558 0
M  V30 1477 C 132.799 0.237972 -2.00694 0
M  V30 1478 C 133.12 1.50173 -1.24391 0
M  V30 1479 O 132.39 1.92673 -0.354135 0
M  V30 1480 H 130.97 0.0909256 -0.741446 0
M  V30 1481 H 133.632 -0.478368 -1.88938 0
M  V30 1482 H 132.728 0.47264 -3.085 0
M  V30 1483 N 133.029 1.57378 -0.0835403 0
M  V30 1484 C 133.939 2.16897 0.894021 0
M  V30 1485 C 134.955 1.13528 1.31861 0
M  V30 1486 O 136.131 1.45848 1.3889 0
M  V30 1487 C 133.196 2.72831 2.13925 0
M  V30 1488 C 132.257 3.91115 1.76997 0
M  V30 1489 C 131.49 4.44371 2.95584 0
M  V30 1490 O 131.713 3.96596 4.09961 0
M  V30 1491 O 130.647 5.35549 2.74719 0
M  V30 1492 H 134.473 3.00814 0.417679 0
M  V30 1493 H 132.058 1.48741 0.140181 0
M  V30 1494 H 133.94 3.0863 2.86924 0
M  V30 1495 H 132.615 1.91967 2.60635 0
M  V30 1496 H 131.522 3.60148 1.01214 0
M  V30 1497 H 132.855 4.73307 1.3506 0
M  V30 1498 N 134.507 -0.190092 1.56449 0
M  V30 1499 C 135.737 -0.92443 1.84764 0
M  V30 1500 C 136.145 -1.77146 0.664529 0
M  V30 1501 O 135.488 -1.79812 -0.375957 0
M  V30 1502 C 135.55 -1.86651 3.07248 0
M  V30 1503 C 135.214 -1.20094 4.40938 0
M  V30 1504 C 136.211 -0.575445 5.16706 0
M  V30 1505 C 133.896 -1.2033 4.87674 0
M  V30 1506 C 135.89 0.0388111 6.37388 0
M  V30 1507 C 133.577 -0.585214 6.08291 0
M  V30 1508 C 134.575 0.0347578 6.82991 0
M  V30 1509 O 134.263 0.643147 8.01323 0
M  V30 1510 H 133.995 -0.274974 0.617548 0
M  V30 1511 H 136.549 -0.200788 2.04416 0
M  V30 1512 H 134.779 -2.62998 2.83494 0
M  V30 1513 H 136.468 -2.46907 3.22167 0
M  V30 1514 H 137.234 -0.565728 4.81689 0
M  V30 1515 H 133.113 -1.67526 4.29484 0
M  V30 1516 H 136.657 0.523329 6.95634 0
M  V30 1517 H 132.554 -0.592451 6.42775 0
M  V30 1518 H 133.322 0.540545 8.16713 0
M  V30 1519 N 135.985 -1.50799 -0.457987 0
M  V30 1520 C 137.232 -1.62442 -1.20908 0
M  V30 1521 C 137.56 -0.330865 -1.91665 0
M  V30 1522 O 136.815 0.68401 -1.83357 0
M  V30 1523 C 137.114 -2.76358 -2.2663 0
M  V30 1524 C 136.78 -4.16378 -1.73033 0
M  V30 1525 C 135.442 -4.54473 -1.58138 0
M  V30 1526 C 137.794 -5.03836 -1.33413 0
M  V30 1527 C 135.122 -5.77754 -1.02065 0
M  V30 1528 C 137.474 -6.27676 -0.78778 0
M  V30 1529 C 136.138 -6.64562 -0.625561 0
M  V30 1530 H 135.408 -0.594417 -0.442435 0
M  V30 1531 H 138.055 -1.84772 -0.503136 0
M  V30 1532 H 136.36 -2.48167 -3.03184 0
M  V30 1533 H 138.057 -2.82568 -2.84528 0
M  V30 1534 H 134.647 -3.86331 -1.85598 0
M  V30 1535 H 138.831 -4.75026 -1.4375 0
M  V30 1536 H 134.087 -6.04997 -0.882547 0
M  V30 1537 H 138.261 -6.94797 -0.472177 0
M  V30 1538 H 135.888 -7.59965 -0.188926 0
M  V30 1539 N 137.463 0.71206 -1.40597 0
M  V30 1540 C 138.703 1.48438 -1.40519 0
M  V30 1541 C 139.067 1.91998 -0.00767611 0
M  V30 1542 O 140.268 2.6854 0.118239 0
M  V30 1543 C 138.539 2.67514 -2.37004 0
M  V30 1544 S 140.098 3.56875 -2.55315 0
M  V30 1545 H 136.916 0.507457 -0.498005 0
M  V30 1546 H 139.518 0.832355 -1.76896 0
M  V30 1547 H 138.222 2.33689 -3.37368 0
M  V30 1548 H 137.753 3.37625 -2.01923 0
M  V30 1549 H 139.768 4.62081 -1.8082 0
M  V30 1550 N 138.941 1.26152 0.944643 0
M  V30 1551 C 139.873 1.03199 2.04652 0
M  V30 1552 C 140.886 -0.00642356 1.62799 0
M  V30 1553 O 142.075 0.233263 1.76969 0
M  V30 1554 C 139.175 0.540111 3.34568 0
M  V30 1555 C 138.348 1.64697 4.05208 0
M  V30 1556 C 137.407 1.15374 5.13396 0
M  V30 1557 O 136.433 1.85013 5.38293 0
M  V30 1558 N 137.635 0.00031529 5.805 0
M  V30 1559 H 140.4 1.9808 2.2491 0
M  V30 1560 H 137.961 1.17491 1.11389 0
M  V30 1561 H 139.953 0.194401 4.04233 0
M  V30 1562 H 138.523 -0.315021 3.11009 0
M  V30 1563 H 137.743 2.16379 3.29506 0
M  V30 1564 H 139.031 2.3903 4.49157 0
M  V30 1565 H 138.429 -0.581336 5.62705 0
M  V30 1566 H 136.986 -0.286346 6.51171 0
M  V30 1567 N 140.419 -1.14872 1.07899 0
M  V30 1568 C 141.668 -1.85135 0.800499 0
M  V30 1569 C 141.981 -1.83547 -0.676014 0
M  V30 1570 O 143.187 -2.49548 -1.06948 0
M  V30 1571 C 141.643 -3.3231 1.38197 0
M  V30 1572 C 141.251 -3.42329 2.8899 0
M  V30 1573 C 142.995 -4.0772 1.18174 0
M  V30 1574 C 140.902 -4.83684 3.403 0
M  V30 1575 H 139.832 -0.693563 0.29578 0
M  V30 1576 H 142.483 -1.29532 1.29976 0
M  V30 1577 H 140.865 -3.87618 0.810431 0
M  V30 1578 H 142.039 -2.97097 3.52236 0
M  V30 1579 H 140.354 -2.80369 3.07867 0
M  V30 1580 H 142.951 -5.12049 1.5398 0
M  V30 1581 H 143.294 -4.16124 0.12117 0
M  V30 1582 H 143.827 -3.58696 1.71994 0
M  V30 1583 H 140.566 -4.80465 4.45907 0
M  V30 1584 H 140.086 -5.29474 2.81811 0
M  V30 1585 H 141.765 -5.52558 3.36584 0
M  V30 1586 N 141.898 -0.863906 -1.31812 0
M  V30 1587 C 142.828 -0.330843 -2.31144 0
M  V30 1588 C 143.809 0.575005 -1.60087 0
M  V30 1589 O 144.994 0.493304 -1.8783 0
M  V30 1590 C 142.124 0.47374 -3.44054 0
M  V30 1591 C 141.078 -0.338481 -4.26659 0
M  V30 1592 C 140.404 0.591412 -5.31419 0
M  V30 1593 C 141.704 -1.56926 -4.98168 0
M  V30 1594 H 143.398 -1.16086 -2.75979 0
M  V30 1595 H 140.944 -0.559657 -1.32679 0
M  V30 1596 H 142.897 0.857143 -4.12591 0
M  V30 1597 H 141.621 1.33721 -2.9797 0
M  V30 1598 H 140.28 -0.703754 -3.59782 0
M  V30 1599 H 139.928 1.45199 -4.81587 0
M  V30 1600 H 139.628 0.0519022 -5.87577 0
M  V30 1601 H 141.152 0.97179 -6.02817 0
M  V30 1602 H 142.566 -1.25764 -5.59336 0
M  V30 1603 H 140.963 -2.04739 -5.64094 0
M  V30 1604 H 142.033 -2.32544 -4.25501 0
M  V30 1605 N 143.376 1.44774 -0.622745 0
M  V30 1606 C 144.624 2.01721 -0.123655 0
M  V30 1607 C 144.945 1.49172 1.25589 0
M  V30 1608 O 144.215 0.691974 1.83272 0
M  V30 1609 H 142.795 0.745777 -0.0427225 0
M  V30 1610 H 145.457 1.77382 -0.807559 0
M  V30 1611 H 144.553 3.11984 -0.0849534 0
M  V30 1612 N 144.854 0.36279 1.53368 0
M  V30 1613 C 145.817 -0.472679 2.24273 0
M  V30 1614 C 146.817 -1.012 1.24961 0
M  V30 1615 O 148.007 -0.898194 1.49259 0
M  V30 1616 C 145.139 -1.66039 2.97731 0
M  V30 1617 H 146.332 0.14773 2.99536 0
M  V30 1618 H 143.885 0.114434 1.55881 0
M  V30 1619 H 144.62 -2.31896 2.26704 0
M  V30 1620 H 144.405 -1.28066 3.70596 0
M  V30 1621 H 145.895 -2.25252 3.51641 0
M  V30 1622 N 146.332 -1.57332 0.0918853 0
M  V30 1623 C 147.262 -2.16872 -0.865371 0
M  V30 1624 C 148.243 -1.10118 -1.29646 0
M  V30 1625 O 149.428 -1.38242 -1.36392 0
M  V30 1626 C 146.558 -2.74649 -2.12569 0
M  V30 1627 C 145.512 -3.86747 -1.83333 0
M  V30 1628 C 144.838 -4.31212 -3.16166 0
M  V30 1629 C 146.138 -5.10089 -1.1228 0
M  V30 1630 H 147.832 -2.97114 -0.369307 0
M  V30 1631 H 145.378 -1.42918 -0.176194 0
M  V30 1632 H 147.331 -3.14952 -2.7997 0
M  V30 1633 H 146.055 -1.91657 -2.64452 0
M  V30 1634 H 144.714 -3.46978 -1.18331 0
M  V30 1635 H 144.362 -3.45115 -3.6593 0
M  V30 1636 H 144.062 -5.06788 -2.97388 0
M  V30 1637 H 145.586 -4.74146 -3.84731 0
M  V30 1638 H 147 -5.47582 -1.69785 0
M  V30 1639 H 145.397 -5.91073 -1.03693 0
M  V30 1640 H 146.467 -4.84786 -0.105041 0
M  V30 1641 N 147.81 0.181792 -1.56548 0
M  V30 1642 C 149.038 0.915947 -1.85521 0
M  V30 1643 C 149.453 1.76282 -0.676016 0
M  V30 1644 O 148.81 1.79012 0.355077 0
M  V30 1645 C 148.861 1.80126 -3.13427 0
M  V30 1646 O 148.582 0.988562 -4.26801 0
M  V30 1647 C 150.083 2.64597 -3.55673 0
M  V30 1648 H 147.303 0.26661 -0.61576 0
M  V30 1649 H 149.847 0.185039 -2.03661 0
M  V30 1650 H 148.002 2.48563 -2.97145 0
M  V30 1651 H 148.416 1.59308 -4.99721 0
M  V30 1652 H 149.89 3.2235 -4.48101 0
M  V30 1653 H 150.367 3.38958 -2.79292 0
M  V30 1654 H 150.973 2.0151 -3.74532 0
M  V30 1655 N 149.288 1.51039 0.449983 0
M  V30 1656 C 150.534 1.63322 1.20223 0
M  V30 1657 C 150.867 0.34241 1.91158 0
M  V30 1658 O 150.142 -0.657344 1.83055 0
M  V30 1659 C 150.425 2.82801 2.22925 0
M  V30 1660 C 150.278 4.21823 1.56157 0
M  V30 1661 C 151.597 2.97807 3.24035 0
M  V30 1662 H 148.716 0.594407 0.435718 0
M  V30 1663 H 151.358 1.83489 0.493136 0
M  V30 1664 H 149.508 2.65738 2.834 0
M  V30 1665 H 151.18 4.50526 0.991162 0
M  V30 1666 H 149.423 4.25105 0.864172 0
M  V30 1667 H 150.094 5.01391 2.30891 0
M  V30 1668 H 152.57 3.13497 2.73603 0
M  V30 1669 H 151.446 3.82992 3.93202 0
M  V30 1670 H 151.707 2.09328 3.89402 0
M  V30 1671 N 150.766 -0.704594 1.40972 0
M  V30 1672 C 152.013 -1.46458 1.39844 0
M  V30 1673 C 152.341 -1.94499 0.00447594 0
M  V30 1674 O 151.596 -1.69275 -0.982057 0
M  V30 1675 C 151.895 -2.698 2.34399 0
M  V30 1676 C 151.561 -2.40464 3.81429 0
M  V30 1677 C 150.223 -2.32174 4.21484 0
M  V30 1678 C 152.575 -2.16086 4.74296 0
M  V30 1679 C 149.903 -1.97589 5.52427 0
M  V30 1680 C 152.255 -1.83011 6.05549 0
M  V30 1681 C 150.919 -1.7321 6.44635 0
M  V30 1682 H 150.189 -0.535927 0.511725 0
M  V30 1683 H 152.836 -0.806124 1.73706 0
M  V30 1684 H 151.141 -3.40536 1.93759 0
M  V30 1685 H 152.838 -3.27919 2.30804 0
M  V30 1686 H 149.428 -2.47808 3.49699 0
M  V30 1687 H 153.612 -2.2144 4.4416 0
M  V30 1688 H 148.868 -1.88547 5.81601 0
M  V30 1689 H 153.042 -1.63164 6.77016 0
M  V30 1690 H 150.669 -1.46179 7.46013 0
M  V30 1691 N 152.244 -1.26651 -0.937939 0
M  V30 1692 C 153.474 -1.15006 -1.71631 0
M  V30 1693 C 153.882 0.297026 -1.86854 0
M  V30 1694 O 153.225 1.21493 -1.37786 0
M  V30 1695 C 153.287 -1.74984 -3.14039 0
M  V30 1696 C 152.951 -3.24103 -3.2219 0
M  V30 1697 C 153.948 -4.20877 -3.05219 0
M  V30 1698 C 151.633 -3.64625 -3.45476 0
M  V30 1699 C 153.627 -5.56151 -3.11408 0
M  V30 1700 C 151.314 -5.00032 -3.513 0
M  V30 1701 C 152.312 -5.95604 -3.34282 0
M  V30 1702 O 152 -7.28545 -3.3982 0
M  V30 1703 H 151.732 -0.401183 -0.544085 0
M  V30 1704 H 154.286 -1.67832 -1.18413 0
M  V30 1705 H 152.516 -1.16624 -3.68695 0
M  V30 1706 H 154.205 -1.58199 -3.73802 0
M  V30 1707 H 154.971 -3.90908 -2.87081 0
M  V30 1708 H 150.85 -2.90718 -3.57777 0
M  V30 1709 H 154.394 -6.30727 -2.98043 0
M  V30 1710 H 150.291 -5.29659 -3.68959 0
M  V30 1711 H 151.059 -7.3686 -3.56343 0
M  V30 1712 N 153.722 1.14298 -1.08507 0
M  V30 1713 C 155.133 1.66926 -0.836227 0
M  V30 1714 C 155.484 1.85576 0.63686 0
M  V30 1715 O 154.609 1.56767 1.49175 0
M  V30 1716 C 155.204 3.03219 -1.51142 0
M  V30 1717 C 153.763 3.52876 -1.30979 0
M  V30 1718 C 152.91 2.2833 -1.57356 0
M  V30 1719 H 155.861 0.983491 -1.24552 0
M  V30 1720 H 155.882 3.68726 -0.939211 0
M  V30 1721 H 155.394 2.89612 -2.58353 0
M  V30 1722 H 153.495 3.71703 -0.258429 0
M  V30 1723 H 153.608 4.33586 -2.03814 0
M  V30 1724 H 151.972 2.34454 -0.995164 0
M  V30 1725 H 152.755 2.17298 -2.65775 0
M  V30 1726 N 155.201 0.870884 1.31352 0
M  V30 1727 C 156.426 0.495957 2.01383 0
M  V30 1728 C 156.851 -0.904324 1.64935 0
M  V30 1729 O 156.209 -1.59687 0.858466 0
M  V30 1730 C 156.257 0.661433 3.54482 0
M  V30 1731 O 155.361 -0.298851 4.11316 0
M  V30 1732 H 154.702 0.197158 0.634054 0
M  V30 1733 H 157.232 1.17455 1.67527 0
M  V30 1734 H 157.242 0.555072 4.04207 0
M  V30 1735 H 155.917 1.68246 3.8035 0
M  V30 1736 H 154.494 -0.147368 3.72609 0
M  V30 1737 N 156.679 -1.44442 0.630414 0
M  V30 1738 C 157.928 -2.01267 0.132073 0
M  V30 1739 C 158.241 -1.50172 -1.25331 0
M  V30 1740 O 159.447 -1.9912 -1.84562 0
M  V30 1741 C 157.903 -3.59422 0.185362 0
M  V30 1742 C 157.511 -4.19514 1.57201 0
M  V30 1743 C 159.255 -4.23724 -0.256553 0
M  V30 1744 C 157.162 -5.69891 1.58045 0
M  V30 1745 H 156.092 -0.752619 0.0456092 0
M  V30 1746 H 158.743 -1.65666 0.789106 0
M  V30 1747 H 157.125 -3.92318 -0.538759 0
M  V30 1748 H 158.299 -3.98156 2.31966 0
M  V30 1749 H 156.614 -3.67496 1.95795 0
M  V30 1750 H 159.211 -5.34019 -0.269767 0
M  V30 1751 H 159.554 -3.96013 -1.28372 0
M  V30 1752 H 160.087 -3.95629 0.41505 0
M  V30 1753 H 156.826 -6.02336 2.58597 0
M  V30 1754 H 156.346 -5.93373 0.875725 0
M  V30 1755 H 158.025 -6.33515 1.31408 0
M  V30 1756 N 158.157 -0.370918 -1.53173 0
M  V30 1757 C 159.12 0.460778 -2.24521 0
M  V30 1758 C 160.12 1.00536 -1.25496 0
M  V30 1759 O 161.31 0.890266 -1.49733 0
M  V30 1760 C 158.442 1.64457 -2.98608 0
M  V30 1761 H 159.635 -0.163613 -2.99453 0
M  V30 1762 H 157.188 -0.122699 -1.55818 0
M  V30 1763 H 157.923 2.30691 -2.2793 0
M  V30 1764 H 157.708 1.26099 -3.7127 0
M  V30 1765 H 159.198 2.23384 -3.5283 0
M  V30 1766 N 159.635 1.57281 -0.100228 0
M  V30 1767 C 160.565 2.17328 0.853857 0
M  V30 1768 C 161.546 1.10804 1.2906 0
M  V30 1769 O 162.731 1.38963 1.35657 0
M  V30 1770 C 159.861 2.75772 2.11109 0
M  V30 1771 C 158.815 3.87713 1.81279 0
M  V30 1772 C 158.141 4.32882 3.13874 0
M  V30 1773 C 159.441 5.10677 1.09574 0
M  V30 1774 H 161.135 2.97305 0.353545 0
M  V30 1775 H 158.681 1.43009 0.168612 0
M  V30 1776 H 160.634 3.16433 2.78296 0
M  V30 1777 H 159.358 1.93057 2.63432 0
M  V30 1778 H 158.017 3.476 1.16489 0
M  V30 1779 H 157.665 3.47051 3.64095 0
M  V30 1780 H 157.365 5.08358 2.94696 0
M  V30 1781 H 158.889 4.7618 3.82211 0
M  V30 1782 H 160.303 5.48474 1.66879 0
M  V30 1783 H 158.7 5.91615 1.00557 0
M  V30 1784 H 159.77 4.84835 0.0793299 0
M  V30 1785 N 161.113 -0.173488 1.56642 0
M  V30 1786 C 162.359 -0.887108 1.83035 0
M  V30 1787 C 162.714 -1.79965 0.680461 0
M  V30 1788 O 162.007 -1.88854 -0.323225 0
M  V30 1789 C 162.201 -1.72069 3.13252 0
M  V30 1790 C 162.03 -0.89035 4.40798 0
M  V30 1791 C 160.8 -0.566282 5.02117 0
M  V30 1792 C 162.998 -0.232921 5.13772 0
M  V30 1793 N 160.98 0.280427 6.13259 0
M  V30 1794 C 162.351 0.475046 6.18177 0
M  V30 1795 C 164.406 -0.150863 4.97671 0
M  V30 1796 C 163.109 1.25729 7.08227 0
M  V30 1797 C 165.135 0.618039 5.88162 0
M  V30 1798 C 164.497 1.31438 6.92029 0
M  V30 1799 H 160.596 -0.303303 0.720785 0
M  V30 1800 H 163.18 -0.154244 1.94088 0
M  V30 1801 H 161.351 -2.42499 3.03395 0
M  V30 1802 H 163.083 -2.37545 3.2765 0
M  V30 1803 H 159.838 -0.895852 4.6505 0
M  V30 1804 H 160.262 0.694027 6.73433 0
M  V30 1805 H 164.904 -0.674868 4.17379 0
M  V30 1806 H 162.622 1.79265 7.87966 0
M  V30 1807 H 166.208 0.683173 5.77775 0
M  V30 1808 H 165.088 1.89981 7.6084 0
M  V30 1809 N 162.591 -1.51276 -0.441967 0
M  V30 1810 C 163.521 -1.752 -1.54361 0
M  V30 1811 C 164.502 -0.601682 -1.59103 0
M  V30 1812 O 165.687 -0.843913 -1.74905 0
M  V30 1813 C 162.817 -1.87282 -2.92477 0
M  V30 1814 C 161.771 -3.02687 -3.02596 0
M  V30 1815 C 161.097 -2.99947 -4.42647 0
M  V30 1816 C 162.397 -4.4273 -2.77106 0
M  V30 1817 H 164.091 -2.67442 -1.34592 0
M  V30 1818 H 161.637 -1.28694 -0.646048 0
M  V30 1819 H 163.59 -2.02602 -3.695 0
M  V30 1820 H 162.314 -0.916844 -3.13467 0
M  V30 1821 H 160.973 -2.87065 -2.28012 0
M  V30 1822 H 160.621 -2.02136 -4.60597 0
M  V30 1823 H 160.321 -3.77439 -4.50348 0
M  V30 1824 H 161.845 -3.17354 -5.2165 0
M  V30 1825 H 163.259 -4.58727 -3.43864 0
M  V30 1826 H 161.656 -5.21893 -2.96222 0
M  V30 1827 H 162.726 -4.53087 -1.72744 0
M  V30 1828 N 164.069 0.697108 -1.41344 0
M  V30 1829 C 164.999 1.82353 -1.45841 0
M  V30 1830 C 165.98 1.67115 -0.317247 0
M  V30 1831 O 167.165 1.86871 -0.528474 0
M  V30 1832 C 164.295 3.20476 -1.33838 0
M  V30 1833 C 163.249 3.50415 -2.4575 0
M  V30 1834 C 162.575 4.87878 -2.18813 0
M  V30 1835 C 163.875 3.49546 -3.88091 0
M  V30 1836 H 165.569 1.78846 -2.40113 0
M  V30 1837 H 163.115 0.859028 -1.15571 0
M  V30 1838 H 165.068 3.98988 -1.35596 0
M  V30 1839 H 163.792 3.24604 -0.360498 0
M  V30 1840 H 162.451 2.74253 -2.43271 0
M  V30 1841 H 162.099 4.8863 -1.19371 0
M  V30 1842 H 161.799 5.08875 -2.93803 0
M  V30 1843 H 163.323 5.68702 -2.22284 0
M  V30 1844 H 164.737 4.18066 -3.92293 0
M  V30 1845 H 163.134 3.82075 -4.62751 0
M  V30 1846 H 164.204 2.48552 -4.16353 0
M  V30 1847 N 165.547 1.27147 0.931209 0
M  V30 1848 C 166.51 1.09615 2.01289 0
M  V30 1849 C 167.51 0.0412581 1.60747 0
M  V30 1850 O 168.7 0.285545 1.71844 0
M  V30 1851 C 165.832 0.669447 3.34262 0
M  V30 1852 H 167.025 2.05662 2.18273 0
M  V30 1853 H 164.578 1.09885 1.11153 0
M  V30 1854 H 165.313 -0.292572 3.22978 0
M  V30 1855 H 165.098 1.43127 3.65044 0
M  V30 1856 H 166.588 0.568921 4.13706 0
M  V30 1857 N 167.025 -1.13721 1.09112 0
M  V30 1858 C 168.272 -1.84924 0.825192 0
M  V30 1859 C 168.6 -1.83347 -0.649151 0
M  V30 1860 O 167.855 -1.26449 -1.49362 0
M  V30 1861 C 168.154 -3.32861 1.30146 0
M  V30 1862 C 167.82 -3.54621 2.78486 0
M  V30 1863 C 166.482 -3.60268 3.18999 0
M  V30 1864 C 168.834 -3.62855 3.74146 0
M  V30 1865 C 166.162 -3.71679 4.53951 0
M  V30 1866 C 168.514 -3.75793 5.08883 0
M  V30 1867 C 167.178 -3.79692 5.4899 0
M  V30 1868 H 166.448 -0.676684 0.301959 0
M  V30 1869 H 169.095 -1.3428 1.36533 0
M  V30 1870 H 167.4 -3.85835 0.681064 0
M  V30 1871 H 169.097 -3.86395 1.07236 0
M  V30 1872 H 165.687 -3.50879 2.46134 0
M  V30 1873 H 169.871 -3.57775 3.43963 0
M  V30 1874 H 165.127 -3.72963 4.84467 0
M  V30 1875 H 169.301 -3.81107 5.82864 0
M  V30 1876 H 166.928 -3.88287 6.53558 0
M  V30 1877 N 168.503 -0.877838 -1.30888 0
M  V30 1878 C 169.752 -0.488793 -1.95688 0
M  V30 1879 C 170.065 0.965485 -1.70111 0
M  V30 1880 O 171.271 1.46104 -2.28836 0
M  V30 1881 C 169.727 -0.823201 -3.50359 0
M  V30 1882 C 169.335 -2.29477 -3.84765 0
M  V30 1883 C 171.079 -0.503009 -4.21509 0
M  V30 1884 C 168.986 -2.57118 -5.32583 0
M  V30 1885 H 167.916 -0.179062 -0.732429 0
M  V30 1886 H 170.567 -1.07183 -1.48943 0
M  V30 1887 H 168.949 -0.169331 -3.95638 0
M  V30 1888 H 170.123 -2.99236 -3.5042 0
M  V30 1889 H 168.438 -2.58178 -3.267 0
M  V30 1890 H 171.035 -0.68665 -5.30273 0
M  V30 1891 H 171.378 0.557109 -4.12555 0
M  V30 1892 H 171.911 -1.11376 -3.8189 0
M  V30 1893 H 168.65 -3.61843 -5.4658 0
M  V30 1894 H 168.17 -1.91961 -5.68253 0
M  V30 1895 H 169.849 -2.42251 -5.99936 0
M  V30 1896 N 169.982 1.44106 -0.638065 0
M  V30 1897 C 171.207 2.0685 -0.150916 0
M  V30 1898 C 171.632 1.47417 1.16833 0
M  V30 1899 O 170.99 0.578264 1.71831 0
M  V30 1900 C 171.038 3.60555 -0.05708 0
M  V30 1901 O 170.142 4.00465 0.984972 0
M  V30 1902 H 169.483 0.658151 -0.0879399 0
M  V30 1903 H 172.013 1.84865 -0.876707 0
M  V30 1904 H 172.023 4.07789 0.131232 0
M  V30 1905 H 170.698 4.03193 -1.02021 0
M  V30 1906 H 169.275 3.64849 0.770672 0
M  V30 1907 N 171.46 0.379036 1.52974 0
M  V30 1908 C 172.423 -0.448865 2.24762 0
M  V30 1909 C 173.423 -0.998689 1.26027 0
M  V30 1910 O 174.613 -0.882313 1.50203 0
M  V30 1911 C 171.745 -1.62872 2.99476 0
M  V30 1912 H 172.938 0.179491 2.99362 0
M  V30 1913 H 170.491 0.13096 1.5575 0
M  V30 1914 H 171.226 -2.29479 2.29151 0
M  V30 1915 H 171.011 -1.24128 3.71934 0
M  V30 1916 H 172.501 -2.2151 3.5401 0
M  V30 1917 N 172.938 -1.57226 0.108567 0
M  V30 1918 C 174.215 -1.86333 -0.594939 0
M  V30 1919 C 174.595 -1.00788 -1.85486 0
M  V30 1920 O 173.943 -0.0839293 -2.28346 0
M  V30 1921 C 174.153 -3.37265 -0.897405 0
M  V30 1922 C 175.501 -4.05629 -1.25501 0
M  V30 1923 O 176.525 -3.42224 -0.987998 0
M  V30 1924 O 175.384 -5.17531 -1.75567 0
M  V30 1925 H 172.478 -0.771018 -0.2991 0
M  V30 1926 H 175.024 -1.69102 0.142283 0
M  V30 1927 H 173.796 -3.913 -0.00413806 0
M  V30 1928 H 173.419 -3.59889 -1.69014 0
M  V30 1929 N 174.416 0.165178 -1.56732 0
M  V30 1930 C 175.832 0.517174 -1.50988 0
M  V30 1931 C 176.032 1.84331 -0.813894 0
M  V30 1932 O 175.088 2.49672 -0.37682 0
M  V30 1933 C 176.401 0.544261 -2.95733 0
M  V30 1934 C 177.949 0.631039 -3.06573 0
M  V30 1935 C 178.424 0.68896 -4.52788 0
M  V30 1936 N 179.915 0.751683 -4.5706 0
M  V30 1937 C 180.65 0.817177 -5.67547 0
M  V30 1938 N 180.146 0.843129 -6.8765 0
M  V30 1939 N 181.939 0.856668 -5.55534 0
M  V30 1940 H 174.09 -0.704318 -2.00382 0
M  V30 1941 H 176.353 -0.254687 -0.913148 0
M  V30 1942 H 176.059 -0.361607 -3.49836 0
M  V30 1943 H 175.933 1.3886 -3.5071 0
M  V30 1944 H 178.32 1.52733 -2.52501 0
M  V30 1945 H 178.401 -0.240095 -2.54671 0
M  V30 1946 H 178.045 -0.2031 -5.07494 0
M  V30 1947 H 177.975 1.57633 -5.02454 0
M  V30 1948 H 180.466 0.739661 -3.70591 0
M  V30 1949 H 180.779 0.894448 -7.67606 0
M  V30 1950 H 179.124 0.811304 -6.90248 0
M  V30 1951 H 182.315 0.833437 -4.60621 0
M  V30 1952 H 182.488 0.904247 -6.4166 0
M  V30 1953 N 175.894 1.51508 0.433938 0
M  V30 1954 C 177.124 1.67914 1.20369 0
M  V30 1955 C 177.532 0.377461 1.85397 0
M  V30 1956 O 176.875 -0.654255 1.71654 0
M  V30 1957 C 176.937 2.74045 2.32679 0
M  V30 1958 C 176.601 4.16543 1.87991 0
M  V30 1959 C 177.598 5.01211 1.38145 0
M  V30 1960 C 175.283 4.6266 1.95579 0
M  V30 1961 C 177.277 6.30056 0.964774 0
M  V30 1962 C 174.964 5.91501 1.53523 0
M  V30 1963 C 175.962 6.75027 1.04055 0
M  V30 1964 O 175.65 8.01459 0.625964 0
M  V30 1965 H 175.382 0.566578 0.368735 0
M  V30 1966 H 177.936 1.98709 0.51999 0
M  V30 1967 H 176.166 2.38572 3.04336 0
M  V30 1968 H 177.855 2.79295 2.94532 0
M  V30 1969 H 178.621 4.66783 1.31675 0
M  V30 1970 H 174.5 3.97767 2.33029 0
M  V30 1971 H 178.044 6.95202 0.57796 0
M  V30 1972 H 173.941 6.25442 1.59665 0
M  V30 1973 H 174.709 8.15043 0.751509 0
M  V30 1974 N 177.372 -0.689602 1.41712 0
M  V30 1975 C 178.305 -1.81403 1.3845 0
M  V30 1976 C 179.283 -1.60653 0.250874 0
M  V30 1977 O 180.467 -1.83323 0.43874 0
M  V30 1978 C 177.594 -3.18176 1.1611 0
M  V30 1979 C 176.64 -3.57705 2.3227 0
M  V30 1980 S 177.473 -3.61827 3.94767 0
M  V30 1981 C 178.629 -5.01318 3.74742 0
M  V30 1982 H 178.862 -1.83893 2.33603 0
M  V30 1983 H 176.395 -0.858878 1.28307 0
M  V30 1984 H 178.353 -3.97132 1.03907 0
M  V30 1985 H 177.014 -3.13288 0.225668 0
M  V30 1986 H 176.207 -4.57082 2.12349 0
M  V30 1987 H 175.809 -2.86073 2.40911 0
M  V30 1988 H 178.101 -5.88986 3.34817 0
M  V30 1989 H 179.044 -5.26283 4.73743 0
M  V30 1990 H 179.452 -4.73138 3.07898 0
M  V30 1991 N 178.85 -1.27639 -0.924453 0
M  V30 1992 C 179.813 -1.10681 -2.00705 0
M  V30 1993 C 180.813 -0.0497823 -1.60723 0
M  V30 1994 O 182.003 -0.294654 -1.7169 0
M  V30 1995 C 179.135 -0.687164 -3.33902 0
M  V30 1996 H 180.328 -2.06817 -2.17179 0
M  V30 1997 H 177.881 -1.10473 -1.10569 0
M  V30 1998 H 178.616 0.275439 -3.23128 0
M  V30 1999 H 178.401 -1.45061 -3.6428 0
M  V30 2000 H 179.891 -0.590853 -4.13399 0
M  V30 2001 N 180.328 1.1314 -1.09713 0
M  V30 2002 C 181.577 1.83838 -0.829851 0
M  V30 2003 C 181.89 1.84599 0.646728 0
M  V30 2004 O 183.096 2.51218 1.02965 0
M  V30 2005 C 181.552 3.30069 -1.43466 0
M  V30 2006 C 181.16 3.37688 -2.94399 0
M  V30 2007 C 182.904 4.05788 -1.24645 0
M  V30 2008 C 180.811 4.78209 -3.47952 0
M  V30 2009 H 179.741 0.68877 -0.306777 0
M  V30 2010 H 182.392 1.27448 -1.3202 0
M  V30 2011 H 180.774 3.8628 -0.871996 0
M  V30 2012 H 181.948 2.91456 -3.56918 0
M  V30 2013 H 180.263 2.75436 -3.12289 0
M  V30 2014 H 182.86 5.09535 -1.62107 0
M  V30 2015 H 183.203 4.15878 -0.187357 0
M  V30 2016 H 183.736 3.55915 -1.77678 0
M  V30 2017 H 180.475 4.73311 -4.53495 0
M  V30 2018 H 179.995 5.24924 -2.90198 0
M  V30 2019 H 181.674 5.47133 -3.45332 0
M  V30 2020 N 181.806 0.884767 1.30421 0
M  V30 2021 C 183.052 0.503851 1.96441 0
M  V30 2022 C 183.385 -0.944518 1.69684 0
M  V30 2023 O 182.66 -1.66737 1.00145 0
M  V30 2024 C 182.943 0.779085 3.51571 0
M  V30 2025 C 182.796 2.27807 3.87846 0
M  V30 2026 C 184.115 0.255452 4.39358 0
M  V30 2027 H 181.234 0.184533 0.713524 0
M  V30 2028 H 183.876 1.10872 1.54297 0
M  V30 2029 H 182.026 0.264274 3.876 0
M  V30 2030 H 183.698 2.86127 3.61841 0
M  V30 2031 H 181.941 2.74479 3.35922 0
M  V30 2032 H 182.612 2.42125 4.96064 0
M  V30 2033 H 185.088 0.696079 4.10236 0
M  V30 2034 H 183.964 0.477361 5.4682 0
M  V30 2035 H 184.225 -0.843293 4.33983 0
M  V30 2036 N 183.284 -1.43765 0.645699 0
M  V30 2037 C 184.216 -2.29027 -0.0890605 0
M  V30 2038 C 185.229 -1.42093 -0.794563 0
M  V30 2039 O 186.418 -1.66104 -0.653575 0
M  V30 2040 C 183.518 -3.18831 -1.14891 0
M  V30 2041 C 182.691 -4.34261 -0.523043 0
M  V30 2042 C 181.75 -5.04994 -1.47878 0
M  V30 2043 O 180.776 -5.6052 -0.990277 0
M  V30 2044 N 181.978 -5.07795 -2.81291 0
M  V30 2045 H 184.743 -2.92727 0.64272 0
M  V30 2046 H 182.304 -1.54373 0.487924 0
M  V30 2047 H 184.296 -3.63015 -1.78892 0
M  V30 2048 H 182.866 -2.56782 -1.78275 0
M  V30 2049 H 182.086 -3.93088 0.295896 0
M  V30 2050 H 183.374 -5.08728 -0.0858147 0
M  V30 2051 H 182.772 -4.64042 -3.23546 0
M  V30 2052 H 181.329 -5.55721 -3.40614 0
M  V30 2053 N 184.763 -0.387143 -1.52771 0
M  V30 2054 C 186.174 0.0873634 -1.86495 0
M  V30 2055 C 186.525 1.46336 -1.30691 0
M  V30 2056 O 185.65 2.068 -0.637409 0
M  V30 2057 C 186.245 0.165305 -3.38396 0
M  V30 2058 C 184.804 0.584101 -3.7184 0
M  V30 2059 C 183.951 -0.255279 -2.76122 0
M  V30 2060 H 186.902 -0.605104 -1.46711 0
M  V30 2061 H 186.923 0.984848 -3.67534 0
M  V30 2062 H 186.435 -0.836301 -3.78982 0
M  V30 2063 H 184.536 1.59315 -3.36823 0
M  V30 2064 H 184.649 0.343749 -4.77865 0
M  V30 2065 H 183.013 0.279126 -2.53166 0
M  V30 2066 H 183.796 -1.25482 -3.19545 0
M  V30 2067 N 186.241 1.57166 -0.116904 0
M  V30 2068 C 187.188 2.15202 0.83408 0
M  V30 2069 C 188.158 1.07644 1.26499 0
M  V30 2070 O 189.343 1.35541 1.34288 0
M  V30 2071 C 186.483 2.75405 2.07957 0
M  V30 2072 C 185.596 3.97264 1.69721 0
M  V30 2073 C 184.731 4.45561 2.89221 0
M  V30 2074 C 183.77 5.59956 2.47215 0
M  V30 2075 N 182.907 6.03006 3.59622 0
M  V30 2076 H 187.747 2.96141 0.332335 0
M  V30 2077 H 185.284 1.46309 0.152349 0
M  V30 2078 H 187.242 3.08439 2.80929 0
M  V30 2079 H 185.872 1.97159 2.55594 0
M  V30 2080 H 184.924 3.70404 0.866316 0
M  V30 2081 H 186.236 4.80226 1.34849 0
M  V30 2082 H 185.39 4.80493 3.7042 0
M  V30 2083 H 184.129 3.61544 3.27318 0
M  V30 2084 H 183.134 5.2463 1.64448 0
M  V30 2085 H 184.359 6.45738 2.10238 0
M  V30 2086 H 182.305 5.21931 3.97396 0
M  V30 2087 H 182.222 6.80819 3.28667 0
M  V30 2088 H 183.49 6.42576 4.41267 0
M  V30 2089 N 187.719 -0.156864 1.56817 0
M  V30 2090 C 188.949 -0.885031 1.86684 0
M  V30 2091 C 189.357 -1.75696 0.701954 0
M  V30 2092 O 188.7 -1.80569 -0.337732 0
M  V30 2093 C 188.762 -1.80092 3.11138 0
M  V30 2094 C 188.426 -1.10714 4.43386 0
M  V30 2095 C 189.423 -0.465714 5.1781 0
M  V30 2096 C 187.108 -1.09959 4.90117 0
M  V30 2097 C 189.102 0.174002 6.37162 0
M  V30 2098 C 186.789 -0.456055 6.09396 0
M  V30 2099 C 187.787 0.179622 6.82764 0
M  V30 2100 O 187.475 0.812975 7.99779 0
M  V30 2101 H 187.207 -0.261813 0.623242 0
M  V30 2102 H 189.761 -0.157383 2.04796 0
M  V30 2103 H 187.991 -2.56926 2.89009 0
M  V30 2104 H 189.68 -2.40018 3.27332 0
M  V30 2105 H 190.446 -0.463427 4.82781 0
M  V30 2106 H 186.325 -1.58378 4.3294 0
M  V30 2107 H 189.869 0.670765 6.94368 0
M  V30 2108 H 185.766 -0.455975 6.43888 0
M  V30 2109 H 186.534 0.71366 8.15383 0
M  V30 2110 N 189.197 -1.51736 -0.425897 0
M  V30 2111 C 190.16 -1.73271 -1.50032 0
M  V30 2112 C 191.16 -0.602639 -1.4908 0
M  V30 2113 O 192.35 -0.87033 -1.509 0
M  V30 2114 C 189.482 -1.79969 -2.89523 0
M  V30 2115 H 190.675 -2.69172 -1.32237 0
M  V30 2116 H 188.228 -1.41899 -0.65532 0
M  V30 2117 H 188.963 -0.859241 -3.1271 0
M  V30 2118 H 188.748 -2.62109 -2.91619 0
M  V30 2119 H 190.238 -1.9843 -3.67444 0
M  V30 2120 N 190.675 0.682077 -1.42076 0
M  V30 2121 C 191.622 1.79578 -1.44984 0
M  V30 2122 C 192.592 1.6332 -0.302614 0
M  V30 2123 O 193.777 1.83978 -0.505633 0
M  V30 2124 C 190.917 3.1756 -1.35091 0
M  V30 2125 C 190.03 3.45156 -2.59791 0
M  V30 2126 C 189.165 4.72826 -2.42093 0
M  V30 2127 C 188.204 4.93433 -3.62202 0
M  V30 2128 N 187.341 6.12338 -3.43491 0
M  V30 2129 H 192.181 1.76427 -2.40161 0
M  V30 2130 H 189.718 0.861376 -1.19242 0
M  V30 2131 H 191.676 3.97287 -1.27354 0
M  V30 2132 H 190.306 3.19854 -0.435133 0
M  V30 2133 H 189.358 2.59736 -2.77923 0
M  V30 2134 H 190.67 3.5628 -3.49094 0
M  V30 2135 H 189.824 5.60631 -2.319 0
M  V30 2136 H 188.563 4.63973 -1.50268 0
M  V30 2137 H 187.568 4.04073 -3.72834 0
M  V30 2138 H 188.793 5.04136 -4.54998 0
M  V30 2139 H 186.739 6.04672 -2.54377 0
M  V30 2140 H 186.656 6.2429 -4.26377 0
M  V30 2141 H 187.924 7.02841 -3.37097 0
M  V30 2142 N 192.153 1.28127 0.917671 0
M  V30 2143 C 193.063 1.13556 2.05286 0
M  V30 2144 C 194.079 0.0630914 1.73886 0
M  V30 2145 O 195.255 0.271598 1.9956 0
M  V30 2146 C 192.32 0.794676 3.3747 0
M  V30 2147 C 191.381 1.94909 3.82504 0
M  V30 2148 C 190.614 1.62437 5.0838 0
M  V30 2149 O 190.837 0.536905 5.67867 0
M  V30 2150 O 189.771 2.46677 5.4903 0
M  V30 2151 H 193.597 2.08844 2.20495 0
M  V30 2152 H 191.182 1.07409 1.03845 0
M  V30 2153 H 193.064 0.618344 4.16839 0
M  V30 2154 H 191.739 -0.128581 3.23445 0
M  V30 2155 H 190.646 2.18055 3.03978 0
M  V30 2156 H 191.979 2.85291 4.01086 0
M  V30 2157 N 193.631 -1.12557 1.10312 0
M  V30 2158 C 194.561 -2.20341 0.772798 0
M  V30 2159 C 195.542 -1.68198 -0.25365 0
M  V30 2160 O 196.727 -1.93831 -0.119699 0
M  V30 2161 C 193.857 -3.46709 0.202443 0
M  V30 2162 C 192.811 -4.11996 1.15943 0
M  V30 2163 C 192.137 -5.328 0.450345 0
M  V30 2164 C 193.437 -4.5828 2.50552 0
M  V30 2165 H 195.131 -2.48229 1.674 0
M  V30 2166 H 192.677 -1.19308 0.806326 0
M  V30 2167 H 194.63 -4.2138 -0.0407752 0
M  V30 2168 H 193.354 -3.18245 -0.734001 0
M  V30 2169 H 192.013 -3.39305 1.38808 0
M  V30 2170 H 191.661 -5.00602 -0.490531 0
M  V30 2171 H 191.361 -5.7743 1.08851 0
M  V30 2172 H 192.885 -6.10219 0.215642 0
M  V30 2173 H 194.299 -5.2433 2.31843 0
M  V30 2174 H 192.696 -5.13683 3.10242 0
M  V30 2175 H 193.766 -3.72329 3.10643 0
M  V30 2176 N 195.109 -0.891671 -1.2995 0
M  V30 2177 C 196.056 -0.361736 -2.27948 0
M  V30 2178 C 197.026 0.551761 -1.56668 0
M  V30 2179 O 198.211 0.478736 -1.84696 0
M  V30 2180 C 195.351 0.411825 -3.42634 0
M  V30 2181 C 194.464 -0.531651 -4.28716 0
M  V30 2182 C 193.599 0.258167 -5.30572 0
M  V30 2183 C 192.638 -0.680349 -6.08307 0
M  V30 2184 N 191.775 0.0745613 -7.0206 0
M  V30 2185 H 196.615 -1.20254 -2.72659 0
M  V30 2186 H 194.152 -0.604352 -1.34112 0
M  V30 2187 H 196.11 0.876304 -4.07893 0
M  V30 2188 H 194.74 1.21715 -2.98974 0
M  V30 2189 H 193.792 -1.11463 -3.63703 0
M  V30 2190 H 195.104 -1.25038 -4.82874 0
M  V30 2191 H 194.258 0.784204 -6.0161 0
M  V30 2192 H 192.997 1.01008 -4.77126 0
M  V30 2193 H 192.002 -1.21796 -5.3614 0
M  V30 2194 H 193.227 -1.43145 -6.63842 0
M  V30 2195 H 191.173 0.808883 -6.50994 0
M  V30 2196 H 191.09 -0.584409 -7.53738 0
M  V30 2197 H 192.358 0.581123 -7.77331 0
M  V30 2198 N 196.587 1.43421 -0.653314 0
M  V30 2199 C 197.535 2.32546 0.0501531 0
M  V30 2200 C 198.529 1.48617 0.812985 0
M  V30 2201 O 199.735 1.64825 0.723375 0
M  V30 2202 H 196.11 0.751185 0.0350032 0
M  V30 2203 H 198.081 2.89602 -0.719261 0
M  V30 2204 C 196.83 3.32925 1.00279 0
M  V30 2205 H 196.153 3.97532 0.425236 0
M  V30 2206 H 197.593 3.9792 1.46409 0
M  V30 2207 C 196.052 2.63532 2.09886 0
M  V30 2208 O 196.582 2.45092 3.18265 0
M  V30 2209 N 194.788 2.22905 1.86445 0
M  V30 2210 H 194.335 2.38103 0.98309 0
M  V30 2211 H 194.293 1.76805 2.59976 0
M  V30 2212 N 198.065 0.39524 1.52563 0
M  V30 2213 C 199.293 -0.184943 2.06072 0
M  V30 2214 C 199.708 -1.40021 1.26647 0
M  V30 2215 O 199.065 -1.79767 0.314672 0
M  V30 2216 C 199.116 -0.549179 3.57304 0
M  V30 2217 O 198.837 0.617813 4.33722 0
M  V30 2218 C 200.338 -1.18459 4.2718 0
M  V30 2219 H 197.558 -0.0265025 0.670476 0
M  V30 2220 H 200.102 0.562184 1.96621 0
M  V30 2221 H 198.257 -1.2462 3.66809 0
M  V30 2222 H 198.671 0.317091 5.23541 0
M  V30 2223 H 200.145 -1.38976 5.34219 0
M  V30 2224 H 200.622 -2.15368 3.82771 0
M  V30 2225 H 201.228 -0.528163 4.22008 0
M  V30 2226 N 199.544 -1.57102 0.125237 0
M  V30 2227 C 200.784 -1.97294 -0.534259 0
M  V30 2228 C 201.148 -1.0074 -1.63449 0
M  V30 2229 O 202.349 -1.29893 -2.35332 0
M  V30 2230 C 200.62 -3.41705 -1.04748 0
M  V30 2231 S 202.179 -4.03913 -1.71463 0
M  V30 2232 H 198.997 -0.689517 -0.173458 0
M  V30 2233 H 201.599 -1.94349 0.211797 0
M  V30 2234 H 200.303 -4.09723 -0.235649 0
M  V30 2235 H 199.834 -3.48315 -1.82867 0
M  V30 2236 H 201.849 -3.95182 -3.00077 0
M  V30 2237 N 201.022 0.148545 -1.56898 0
M  V30 2238 C 201.969 1.18345 -1.98149 0
M  V30 2239 C 202.939 1.42772 -0.848848 0
M  V30 2240 O 204.124 1.55132 -1.11079 0
M  V30 2241 C 201.264 2.51231 -2.36594 0
M  V30 2242 C 200.377 2.33991 -3.63142 0
M  V30 2243 C 199.512 3.59902 -3.90697 0
M  V30 2244 C 198.551 3.37692 -5.1052 0
M  V30 2245 N 197.688 4.5573 -5.34092 0
M  V30 2246 H 202.528 0.82467 -2.86362 0
M  V30 2247 H 200.065 0.395756 -1.41676 0
M  V30 2248 H 202.023 3.28713 -2.56912 0
M  V30 2249 H 200.653 2.85059 -1.51463 0
M  V30 2250 H 199.705 1.47572 -3.50609 0
M  V30 2251 H 201.017 2.13539 -4.5078 0
M  V30 2252 H 200.171 4.45813 -4.11505 0
M  V30 2253 H 198.91 3.83357 -3.01477 0
M  V30 2254 H 197.915 2.5017 -4.89587 0
M  V30 2255 H 199.14 3.15637 -6.0129 0
M  V30 2256 H 197.086 4.79361 -4.47827 0
M  V30 2257 H 197.003 4.38274 -6.15996 0
M  V30 2258 H 198.271 5.42858 -5.59397 0
M  V30 2259 N 202.5 1.5196 0.417844 0
M  V30 2260 C 203.463 1.74065 1.49111 0
M  V30 2261 C 204.463 0.610537 1.48758 0
M  V30 2262 O 205.653 0.87832 1.50437 0
M  V30 2263 C 202.785 1.81502 2.88565 0
M  V30 2264 H 203.978 2.69869 1.30807 0
M  V30 2265 H 201.531 1.42244 0.647785 0
M  V30 2266 H 202.266 0.875813 3.1225 0
M  V30 2267 H 202.051 2.63651 2.90225 0
M  V30 2268 H 203.541 2.00376 3.66387 0
M  V30 2269 N 203.978 -0.674533 1.42435 0
M  V30 2270 C 205.224 -1.43671 1.43131 0
M  V30 2271 C 205.557 -1.94142 0.0476021 0
M  V30 2272 O 204.832 -1.70924 -0.928188 0
M  V30 2273 C 205.115 -2.63355 2.45594 0
M  V30 2274 C 204.968 -2.18514 3.93156 0
M  V30 2275 C 206.287 -3.65571 2.45043 0
M  V30 2276 H 203.406 -0.521077 0.521198 0
M  V30 2277 H 206.048 -0.766551 1.7385 0
M  V30 2278 H 204.198 -3.2053 2.19528 0
M  V30 2279 H 205.87 -1.66504 4.30202 0
M  V30 2280 H 204.113 -1.50086 4.07009 0
M  V30 2281 H 204.784 -3.04484 4.60428 0
M  V30 2282 H 207.26 -3.18113 2.68223 0
M  V30 2283 H 206.136 -4.46893 3.18713 0
M  V30 2284 H 206.397 -4.16716 1.47649 0
M  V30 2285 N 205.456 -1.28612 -0.910864 0
M  V30 2286 C 206.386 -1.15326 -2.03032 0
M  V30 2287 C 207.367 -0.0502924 -1.70026 0
M  V30 2288 O 208.552 -0.227797 -1.92859 0
M  V30 2289 C 205.682 -0.817343 -3.37545 0
M  V30 2290 C 204.636 -1.8754 -3.84724 0
M  V30 2291 C 203.962 -1.39305 -5.16235 0
M  V30 2292 C 205.262 -3.28244 -4.06267 0
M  V30 2293 H 206.956 -2.08975 -2.14406 0
M  V30 2294 H 204.502 -1.00612 -1.03021 0
M  V30 2295 H 206.455 -0.711151 -4.15356 0
M  V30 2296 H 205.179 0.154846 -3.26233 0
M  V30 2297 H 203.838 -1.97079 -3.09121 0
M  V30 2298 H 203.486 -0.409846 -5.01328 0
M  V30 2299 H 203.186 -2.10057 -5.48771 0
M  V30 2300 H 204.71 -1.30014 -5.96598 0
M  V30 2301 H 206.124 -3.21611 -4.74594 0
M  V30 2302 H 204.521 -3.96855 -4.5014 0
M  V30 2303 H 205.591 -3.72048 -3.10979 0
M  V30 2304 N 206.934 1.1197 -1.10907 0
M  V30 2305 C 207.897 2.16031 -0.765707 0
M  V30 2306 C 208.897 1.59393 0.212235 0
M  V30 2307 O 210.087 1.74196 -0.0115441 0
M  V30 2308 C 207.219 3.40632 -0.135053 0
M  V30 2309 H 208.412 2.47919 -1.68748 0
M  V30 2310 H 205.965 1.27061 -0.910226 0
M  V30 2311 H 206.7 3.14348 0.797218 0
M  V30 2312 H 206.485 3.8302 -0.838937 0
M  V30 2313 H 207.975 4.17505 0.0892469 0
M  V30 2314 N 208.412 0.89855 1.29475 0
M  V30 2315 C 209.652 0.530771 1.97388 0
M  V30 2316 C 210.016 -0.905832 1.69289 0
M  V30 2317 O 211.217 -1.38042 2.30646 0
M  V30 2318 C 209.488 0.81369 3.48014 0
M  V30 2319 S 211.047 0.550048 4.35339 0
M  V30 2320 H 207.865 0.196956 0.683176 0
M  V30 2321 H 210.467 1.16074 1.57312 0
M  V30 2322 H 209.171 1.85749 3.65958 0
M  V30 2323 H 208.702 0.171795 3.93025 0
M  V30 2324 H 210.717 -0.605423 4.92493 0
M  V30 2325 N 209.89 -1.43072 0.660911 0
M  V30 2326 C 211.136 -2.0202 0.177708 0
M  V30 2327 C 211.469 -1.52066 -1.20787 0
M  V30 2328 O 210.744 -0.716987 -1.80802 0
M  V30 2329 C 211.027 -3.59561 0.197019 0
M  V30 2330 C 210.88 -4.19727 1.61706 0
M  V30 2331 C 212.199 -4.37664 -0.462396 0
M  V30 2332 H 209.318 -0.734034 0.0660494 0
M  V30 2333 H 211.96 -1.70272 0.843058 0
M  V30 2334 H 210.11 -3.86739 -0.369527 0
M  V30 2335 H 211.782 -4.03553 2.23479 0
M  V30 2336 H 210.025 -3.76084 2.16201 0
M  V30 2337 H 210.696 -5.28834 1.58237 0
M  V30 2338 H 213.172 -4.16095 0.0197215 0
M  V30 2339 H 212.048 -5.47305 -0.418188 0
M  V30 2340 H 212.309 -4.14493 -1.53778 0
M  V30 2341 N 211.368 -0.403325 -1.52352 0
M  V30 2342 C 212.616 0.174003 -2.0135 0
M  V30 2343 C 212.937 1.46139 -1.29106 0
M  V30 2344 O 212.207 1.91448 -0.415253 0
M  V30 2345 H 210.787 0.0672911 -0.743963 0
M  V30 2346 H 213.449 -0.538235 -1.87321 0
M  V30 2347 H 212.545 0.374254 -3.09848 0
M  V30 2348 N 212.846 1.57033 -0.133567 0
M  V30 2349 C 214.092 1.95976 0.521649 0
M  V30 2350 C 214.425 1.01779 1.65393 0
M  V30 2351 O 213.7 0.0576581 1.94415 0
M  V30 2352 C 213.983 3.44738 1.04057 0
M  V30 2353 C 213.836 4.49711 -0.0892897 0
M  V30 2354 C 215.155 3.95682 1.92675 0
M  V30 2355 H 212.274 0.712579 0.188149 0
M  V30 2356 H 214.916 1.88813 -0.212076 0
M  V30 2357 H 213.066 3.50973 1.66583 0
M  V30 2358 H 214.738 4.55565 -0.725152 0
M  V30 2359 H 212.981 4.27261 -0.750378 0
M  V30 2360 H 213.652 5.51099 0.315284 0
M  V30 2361 H 216.128 3.91841 1.39998 0
M  V30 2362 H 215.004 5.00262 2.25897 0
M  V30 2363 H 215.265 3.37239 2.85872 0
M  V30 2364 N 214.325 -0.140222 1.56975 0
M  V30 2365 C 215.571 -0.848084 1.84876 0
M  V30 2366 C 215.926 -1.78481 0.718481 0
M  V30 2367 O 215.219 -1.89497 -0.283093 0
M  V30 2368 C 215.413 -1.65386 3.16832 0
M  V30 2369 C 215.242 -0.79665 4.42587 0
M  V30 2370 C 214.012 -0.459648 5.03205 0
M  V30 2371 C 216.21 -0.12389 5.14151 0
M  V30 2372 N 214.192 0.410446 6.12526 0
M  V30 2373 C 215.563 0.606064 6.17031 0
M  V30 2374 C 217.618 -0.0452654 4.97879 0
M  V30 2375 C 216.321 1.40723 7.054 0
M  V30 2376 C 218.347 0.742658 5.86718 0
M  V30 2377 C 217.709 1.46087 6.89085 0
M  V30 2378 H 213.808 -0.287946 0.727056 0
M  V30 2379 H 216.392 -0.11304 1.94372 0
M  V30 2380 H 214.563 -2.36009 3.08471 0
M  V30 2381 H 216.295 -2.30541 3.32615 0
M  V30 2382 H 213.05 -0.797006 4.66846 0
M  V30 2383 H 213.474 0.836716 6.7181 0
M  V30 2384 H 218.116 -0.586184 4.18717 0
M  V30 2385 H 215.834 1.95938 7.83986 0
M  V30 2386 H 219.42 0.805574 5.76196 0
M  V30 2387 H 218.3 2.06077 7.56639 0
M  V30 2388 N 215.803 -1.52179 -0.40978 0
M  V30 2389 C 217.052 -1.65434 -1.15388 0
M  V30 2390 C 217.365 -0.390056 -1.91671 0
M  V30 2391 O 218.571 -0.402399 -2.68501 0
M  V30 2392 C 217.027 -2.92279 -2.10003 0
M  V30 2393 C 216.635 -4.25813 -1.39239 0
M  V30 2394 C 218.379 -3.14897 -2.84675 0
M  V30 2395 C 216.286 -5.43782 -2.32498 0
M  V30 2396 H 215.216 -0.616267 -0.434432 0
M  V30 2397 H 217.867 -1.78666 -0.418401 0
M  V30 2398 H 216.249 -2.72744 -2.871 0
M  V30 2399 H 217.423 -4.55828 -0.675099 0
M  V30 2400 H 215.738 -4.09292 -0.766097 0
M  V30 2401 H 218.335 -4.0021 -3.54593 0
M  V30 2402 H 218.678 -2.29103 -3.47588 0
M  V30 2403 H 219.211 -3.34901 -2.14677 0
M  V30 2404 H 215.95 -6.3192 -1.74233 0
M  V30 2405 H 215.47 -5.18106 -3.02201 0
M  V30 2406 H 217.149 -5.76834 -2.93038 0
M  V30 2407 N 217.281 0.66697 -1.42791 0
M  V30 2408 C 218.214 1.79177 -1.41318 0
M  V30 2409 C 219.192 1.60234 -0.276401 0
M  V30 2410 O 220.376 1.82602 -0.46785 0
M  V30 2411 C 217.503 3.16289 -1.21157 0
M  V30 2412 C 216.549 3.53964 -2.37932 0
M  V30 2413 S 217.382 3.55501 -4.00474 0
M  V30 2414 C 218.538 4.95292 -3.8267 0
M  V30 2415 H 218.771 1.80153 -2.365 0
M  V30 2416 H 216.304 0.838357 -1.29657 0
M  V30 2417 H 218.262 3.95428 -1.10212 0
M  V30 2418 H 216.923 3.1289 -0.275481 0
M  V30 2419 H 216.116 4.53646 -2.19594 0
M  V30 2420 H 215.718 2.82204 -2.45432 0
M  V30 2421 H 218.01 5.83584 -3.44145 0
M  V30 2422 H 218.953 5.18679 -4.82055 0
M  V30 2423 H 219.361 4.68179 -3.15386 0
M  V30 2424 N 218.759 1.29093 0.90403 0
M  V30 2425 C 219.987 1.19689 1.68766 0
M  V30 2426 C 220.402 -0.243113 1.87228 0
M  V30 2427 O 219.759 -1.16326 1.40621 0
M  V30 2428 C 219.81 1.90144 3.07453 0
M  V30 2429 O 219.531 3.2852 2.89838 0
M  V30 2430 C 221.032 1.87162 4.01852 0
M  V30 2431 H 218.252 0.415035 0.527244 0
M  V30 2432 H 220.796 1.7039 1.13082 0
M  V30 2433 H 218.951 1.43289 3.59926 0
M  V30 2434 H 219.365 3.63944 3.77684 0
M  V30 2435 H 220.839 2.41032 4.96596 0
M  V30 2436 H 221.316 0.84617 4.30972 0
M  V30 2437 H 221.922 2.33741 3.5531 0
M  V30 2438 N 220.237 -1.11381 1.11499 0
M  V30 2439 C 221.167 -2.19509 0.796125 0
M  V30 2440 C 222.148 -1.68458 -0.235796 0
M  V30 2441 O 223.333 -1.93947 -0.0991344 0
M  V30 2442 C 220.463 -3.46475 0.239205 0
M  V30 2443 C 219.417 -4.10744 1.20307 0
M  V30 2444 C 218.743 -5.32293 0.50683 0
M  V30 2445 C 220.043 -4.55597 2.55399 0
M  V30 2446 H 221.737 -2.46439 1.70024 0
M  V30 2447 H 219.283 -1.18446 0.818935 0
M  V30 2448 H 221.236 -4.214 0.00392006 0
M  V30 2449 H 219.96 -3.19006 -0.700206 0
M  V30 2450 H 218.619 -3.37813 1.42399 0
M  V30 2451 H 218.267 -5.01095 -0.437408 0
M  V30 2452 H 217.967 -5.76243 1.1497 0
M  V30 2453 H 219.491 -6.09956 0.280351 0
M  V30 2454 H 220.905 -5.21841 2.37391 0
M  V30 2455 H 219.302 -5.10363 3.15673 0
M  V30 2456 H 220.372 -3.69013 3.14575 0
M  V30 2457 N 221.715 -0.905404 -1.28997 0
M  V30 2458 C 222.943 -0.549846 -1.9946 0
M  V30 2459 C 223.358 0.866834 -1.67724 0
M  V30 2460 O 222.715 1.57298 -0.925404 0
M  V30 2461 C 222.766 -0.739387 -3.53858 0
M  V30 2462 O 222.487 -2.10031 -3.84472 0
M  V30 2463 C 223.988 -0.389541 -4.41585 0
M  V30 2464 H 221.208 -0.210429 -0.637151 0
M  V30 2465 H 223.752 -1.21632 -1.64396 0
M  V30 2466 H 221.907 -0.120023 -3.87214 0
M  V30 2467 H 222.321 -2.13385 -4.79132 0
M  V30 2468 H 223.795 -0.572972 -5.49018 0
M  V30 2469 H 224.272 0.673756 -4.34001 0
M  V30 2470 H 224.878 -0.986089 -4.1371 0
M  V30 2471 N 223.193 1.4272 -0.668489 0
M  V30 2472 C 224.421 2.05966 -0.196348 0
M  V30 2473 C 224.836 1.50191 1.14403 0
M  V30 2474 O 224.193 0.639208 1.7094 0
M  V30 2475 C 224.244 3.61314 -0.115815 0
M  V30 2476 O 223.965 4.1502 -1.40322 0
M  V30 2477 C 225.466 4.41663 0.380579 0
M  V30 2478 H 222.686 0.663954 -0.0969829 0
M  V30 2479 H 225.23 1.82966 -0.913446 0
M  V30 2480 H 223.385 3.83448 0.551931 0
M  V30 2481 H 223.799 5.08832 -1.27243 0
M  V30 2482 H 225.273 5.5065 0.385848 0
M  V30 2483 H 225.75 4.15792 1.41471 0
M  V30 2484 H 226.356 4.24534 -0.255209 0
M  V30 2485 N 224.671 0.411399 1.52136 0
M  V30 2486 C 225.899 -0.163076 2.06256 0
M  V30 2487 C 226.314 -1.3867 1.28125 0
M  V30 2488 O 225.671 -1.79423 0.333721 0
M  V30 2489 C 225.722 -0.511252 3.57867 0
M  V30 2490 O 225.443 0.66378 4.33042 0
M  V30 2491 C 226.944 -1.13921 4.28412 0
M  V30 2492 H 224.164 -0.0193897 0.67072 0
M  V30 2493 H 226.708 0.583007 1.96013 0
M  V30 2494 H 224.863 -1.20723 3.6811 0
M  V30 2495 H 225.277 0.372601 5.23175 0
M  V30 2496 H 226.751 -1.33302 5.35663 0
M  V30 2497 H 227.228 -2.11296 3.85033 0
M  V30 2498 H 227.834 -0.483373 4.22544 0
M  V30 2499 N 226.149 -1.5696 0.141893 0
M  V30 2500 C 227.377 -2.00322 -0.517579 0
M  V30 2501 C 227.792 -1.02193 -1.58752 0
M  V30 2502 O 227.149 -0.0181619 -1.82491 0
M  V30 2503 C 227.2 -3.43618 -1.12289 0
M  V30 2504 O 226.921 -4.37995 -0.0956929 0
M  V30 2505 C 228.422 -4.02231 -1.86347 0
M  V30 2506 H 225.642 -0.657243 -0.135177 0
M  V30 2507 H 228.186 -2.03146 0.234973 0
M  V30 2508 H 226.341 -3.41662 -1.82609 0
M  V30 2509 H 226.755 -5.21729 -0.538469 0
M  V30 2510 H 228.229 -5.04509 -2.23997 0
M  V30 2511 H 228.706 -3.42655 -2.74744 0
M  V30 2512 H 229.312 -4.07802 -1.20737 0
M  V30 2513 N 227.627 0.131896 -1.57047 0
M  V30 2514 C 229.038 0.690407 -1.73465 0
M  V30 2515 C 229.389 1.8094 -0.758629 0
M  V30 2516 O 228.514 2.16282 0.0713813 0
M  V30 2517 C 229.109 1.25916 -3.14532 0
M  V30 2518 C 227.668 1.76409 -3.32501 0
M  V30 2519 C 226.815 0.658579 -2.69366 0
M  V30 2520 H 229.766 -0.0939144 -1.58422 0
M  V30 2521 H 229.787 2.12892 -3.15369 0
M  V30 2522 H 229.299 0.444515 -3.85546 0
M  V30 2523 H 227.4 2.60391 -2.66509 0
M  V30 2524 H 227.513 1.88241 -4.4057 0
M  V30 2525 H 225.877 1.08899 -2.30246 0
M  V30 2526 H 226.66 -0.14487 -3.42994 0
M  V30 2527 N 229.106 1.52395 0.401703 0
M  V30 2528 C 230.036 1.79231 1.49661 0
M  V30 2529 C 231.017 0.643654 1.57452 0
M  V30 2530 O 232.202 0.889989 1.72606 0
M  V30 2531 C 229.332 1.94971 2.87409 0
M  V30 2532 C 228.286 3.10604 2.94465 0
M  V30 2533 C 227.612 3.11577 4.34538 0
M  V30 2534 C 228.912 4.49921 2.6527 0
M  V30 2535 H 230.606 2.70917 1.27454 0
M  V30 2536 H 228.152 1.30362 0.6117 0
M  V30 2537 H 230.105 2.12328 3.63999 0
M  V30 2538 H 228.829 0.999632 3.10926 0
M  V30 2539 H 227.488 2.93009 2.20321 0
M  V30 2540 H 227.136 2.14277 4.55076 0
M  V30 2541 H 226.836 3.89247 4.40183 0
M  V30 2542 H 228.36 3.31073 5.13053 0
M  V30 2543 H 229.774 4.67683 3.31581 0
M  V30 2544 H 228.171 5.29564 2.82281 0
M  V30 2545 H 229.241 4.57507 1.60671 0
M  V30 2546 N 230.584 -0.659388 1.43143 0
M  V30 2547 C 231.514 -1.78422 1.50625 0
M  V30 2548 C 232.495 -1.66216 0.361443 0
M  V30 2549 O 233.68 -1.85404 0.577834 0
M  V30 2550 C 230.81 -3.16815 1.42287 0
M  V30 2551 C 229.764 -3.43777 2.54954 0
M  V30 2552 C 229.09 -4.81905 2.31671 0
M  V30 2553 C 230.39 -3.39134 3.97222 0
M  V30 2554 H 232.084 -1.72417 2.44771 0
M  V30 2555 H 229.63 -0.828084 1.17808 0
M  V30 2556 H 231.583 -3.95253 1.46127 0
M  V30 2557 H 230.307 -3.23534 0.446435 0
M  V30 2558 H 228.966 -2.67707 2.50457 0
M  V30 2559 H 228.614 -4.85294 1.32284 0
M  V30 2560 H 228.314 -5.00906 3.07192 0
M  V30 2561 H 229.838 -5.62609 2.37284 0
M  V30 2562 H 231.252 -4.07518 4.03239 0
M  V30 2563 H 229.649 -3.69671 4.72719 0
M  V30 2564 H 230.719 -2.37426 4.22797 0
M  V30 2565 N 232.062 -1.29571 -0.897171 0
M  V30 2566 C 232.992 -1.17473 -2.01798 0
M  V30 2567 C 233.973 -0.068323 -1.69963 0
M  V30 2568 O 235.158 -0.248239 -1.92607 0
M  V30 2569 C 232.288 -0.853099 -3.36659 0
M  V30 2570 C 231.242 -1.9161 -3.82713 0
M  V30 2571 C 230.568 -1.44773 -5.14728 0
M  V30 2572 C 231.868 -3.32535 -4.02763 0
M  V30 2573 H 233.562 -2.11237 -2.12177 0
M  V30 2574 H 231.108 -1.01699 -1.01948 0
M  V30 2575 H 233.061 -0.755165 -4.14578 0
M  V30 2576 H 231.785 0.120236 -3.26379 0
M  V30 2577 H 230.444 -2.00346 -3.07013 0
M  V30 2578 H 230.092 -0.462995 -5.00865 0
M  V30 2579 H 229.792 -2.15865 -5.46513 0
M  V30 2580 H 231.316 -1.36334 -5.95185 0
M  V30 2581 H 232.73 -3.26626 -4.71156 0
M  V30 2582 H 231.127 -4.01607 -4.45905 0
M  V30 2583 H 232.197 -3.75326 -3.07016 0
M  V30 2584 N 233.54 1.10788 -1.12088 0
M  V30 2585 C 234.47 2.19083 -0.807755 0
M  V30 2586 C 235.451 1.6858 0.226859 0
M  V30 2587 O 236.636 1.93997 0.0888475 0
M  V30 2588 C 233.766 3.46344 -0.257576 0
M  V30 2589 C 232.72 4.101 -1.22483 0
M  V30 2590 C 232.046 5.32016 -0.535052 0
M  V30 2591 C 233.346 4.54236 -2.57811 0
M  V30 2592 H 235.04 2.45534 -1.71328 0
M  V30 2593 H 232.586 1.1801 -0.825205 0
M  V30 2594 H 234.539 4.21392 -0.0262679 0
M  V30 2595 H 233.263 3.19373 0.683278 0
M  V30 2596 H 231.922 3.37054 -1.44189 0
M  V30 2597 H 231.57 5.01319 0.410827 0
M  V30 2598 H 231.27 5.75625 -1.18024 0
M  V30 2599 H 232.794 6.09799 -0.312695 0
M  V30 2600 H 234.208 5.20575 -2.40155 0
M  V30 2601 H 232.605 5.08682 -3.18375 0
M  V30 2602 H 233.675 3.6734 -3.16528 0
M  V30 2603 N 235.018 0.912232 1.28515 0
M  V30 2604 C 236.248 0.559604 1.98877 0
M  V30 2605 C 236.656 -0.863113 1.68366 0
M  V30 2606 O 235.999 -1.58304 0.931969 0
M  V30 2607 C 236.061 0.68703 3.52874 0
M  V30 2608 C 235.725 2.07901 4.06972 0
M  V30 2609 C 236.722 3.05157 4.20922 0
M  V30 2610 C 234.407 2.39178 4.417 0
M  V30 2611 C 236.401 4.31806 4.68852 0
M  V30 2612 C 234.088 3.66068 4.89324 0
M  V30 2613 C 235.086 4.62195 5.02856 0
M  V30 2614 O 234.774 5.86829 5.49442 0
M  V30 2615 H 234.506 0.212191 0.641834 0
M  V30 2616 H 237.06 1.22712 1.64715 0
M  V30 2617 H 235.29 -0.0375486 3.86682 0
M  V30 2618 H 236.979 0.341727 4.04459 0
M  V30 2619 H 237.745 2.82311 3.94367 0
M  V30 2620 H 233.624 1.65109 4.30418 0
M  V30 2621 H 237.168 5.06842 4.79329 0
M  V30 2622 H 233.065 3.88739 5.15318 0
M  V30 2623 H 233.833 5.89597 5.6773 0
M  V30 2624 N 236.496 -1.42363 0.676048 0
M  V30 2625 C 237.443 -2.308 -0.00150904 0
M  V30 2626 C 238.413 -1.46032 -0.791444 0
M  V30 2627 O 239.598 -1.74861 -0.76344 0
M  V30 2628 C 236.738 -3.31883 -0.945919 0
M  V30 2629 C 235.851 -4.31741 -0.149675 0
M  V30 2630 C 234.986 -5.19898 -1.08995 0
M  V30 2631 C 234.025 -6.11434 -0.285465 0
M  V30 2632 N 233.162 -6.92138 -1.17851 0
M  V30 2633 H 238.002 -2.88187 0.758455 0
M  V30 2634 H 235.539 -1.41952 0.38576 0
M  V30 2635 H 237.497 -3.89019 -1.50731 0
M  V30 2636 H 236.127 -2.76093 -1.6725 0
M  V30 2637 H 235.179 -3.76713 0.528359 0
M  V30 2638 H 236.491 -4.96534 0.474866 0
M  V30 2639 H 235.645 -5.81772 -1.72123 0
M  V30 2640 H 234.384 -4.55284 -1.74837 0
M  V30 2641 H 233.389 -5.48627 0.359018 0
M  V30 2642 H 234.614 -6.78097 0.368883 0
M  V30 2643 H 232.56 -6.30152 -1.82332 0
M  V30 2644 H 232.477 -7.53542 -0.609082 0
M  V30 2645 H 233.745 -7.58499 -1.79722 0
M  V30 2646 N 237.974 -0.419461 -1.51915 0
M  V30 2647 C 239.251 0.211999 -1.94448 0
M  V30 2648 C 239.631 1.61703 -1.35703 0
M  V30 2649 O 238.979 2.22102 -0.536931 0
M  V30 2650 C 239.189 0.207872 -3.4838 0
M  V30 2651 C 240.537 0.422192 -4.22496 0
M  V30 2652 O 241.561 0.286778 -3.55044 0
M  V30 2653 O 240.42 0.690009 -5.42126 0
M  V30 2654 H 237.514 0.139586 -0.815135 0
M  V30 2655 H 240.06 -0.476151 -1.62883 0
M  V30 2656 H 238.832 -0.775102 -3.83546 0
M  V30 2657 H 238.455 0.939688 -3.86336 0
M  V30 2658 N 239.452 1.56882 -0.150215 0
M  V30 2659 C 240.863 1.82995 0.370076 0
M  V30 2660 C 241.214 1.06907 1.64515 0
M  V30 2661 O 240.339 0.315369 2.1409 0
M  V30 2662 C 240.934 3.31942 0.678208 0
M  V30 2663 C 239.493 3.58625 1.14301 0
M  V30 2664 C 238.64 2.76792 0.167778 0
M  V30 2665 H 241.591 1.54209 -0.374858 0
M  V30 2666 H 241.612 3.48272 1.53254 0
M  V30 2667 H 241.124 3.87294 -0.249991 0
M  V30 2668 H 239.225 3.08664 2.08704 0
M  V30 2669 H 239.338 4.67073 1.06676 0
M  V30 2670 H 237.702 2.45972 0.661037 0
M  V30 2671 H 238.485 3.34916 -0.754069 0
M  V30 2672 N 240.93 -0.123565 1.57115 0
M  V30 2673 C 242.207 -0.862196 1.75572 0
M  V30 2674 C 242.587 -1.98279 0.724475 0
M  V30 2675 O 241.935 -2.27102 -0.252407 0
M  V30 2676 C 242.145 -1.38309 3.20424 0
M  V30 2677 C 243.493 -1.83724 3.82793 0
M  V30 2678 O 244.517 -1.47999 3.23998 0
M  V30 2679 O 243.376 -2.49685 4.86127 0
M  V30 2680 H 240.47 -0.409113 0.718718 0
M  V30 2681 H 243.016 -0.107661 1.69358 0
M  V30 2682 H 241.788 -0.578889 3.86994 0
M  V30 2683 H 241.411 -2.20046 3.31158 0
M  V30 2684 N 242.408 -1.52605 -0.393616 0
M  V30 2685 C 243.355 -1.77055 -1.48054 0
M  V30 2686 C 244.325 -0.61358 -1.54352 0
M  V30 2687 O 245.51 -0.852806 -1.70681 0
M  V30 2688 C 242.65 -1.94108 -2.85335 0
M  V30 2689 C 241.763 -3.21792 -2.88226 0
M  V30 2690 C 240.898 -3.29188 -4.16904 0
M  V30 2691 C 239.937 -4.51013 -4.13828 0
M  V30 2692 N 239.074 -4.55716 -5.34105 0
M  V30 2693 H 243.914 -2.69815 -1.26506 0
M  V30 2694 H 241.451 -1.33683 -0.61379 0
M  V30 2695 H 243.409 -2.01979 -3.65049 0
M  V30 2696 H 242.039 -1.04713 -3.05344 0
M  V30 2697 H 241.091 -3.23015 -2.00911 0
M  V30 2698 H 242.403 -4.11557 -2.8182 0
M  V30 2699 H 241.557 -3.36216 -5.05018 0
M  V30 2700 H 240.296 -2.37389 -4.26026 0
M  V30 2701 H 239.301 -4.44115 -3.24102 0
M  V30 2702 H 240.526 -5.44123 -4.06333 0
M  V30 2703 H 238.472 -3.66807 -5.43865 0
M  V30 2704 H 238.389 -5.39346 -5.29756 0
M  V30 2705 H 239.657 -4.66993 -6.2413 0
M  V30 2706 N 243.887 0.651787 -1.4349 0
M  V30 2707 C 245.164 1.40909 -1.35661 0
M  V30 2708 C 245.544 2.11099 -0.00511733 0
M  V30 2709 O 244.892 2.04892 1.0115 0
M  V30 2710 C 245.102 2.3926 -2.54078 0
M  V30 2711 C 246.45 3.03217 -2.97228 0
M  V30 2712 O 247.474 2.49588 -2.54135 0
M  V30 2713 O 246.333 4.00455 -3.71885 0
M  V30 2714 H 243.427 0.629625 -0.536191 0
M  V30 2715 H 245.973 0.678575 -1.55542 0
M  V30 2716 H 244.745 1.86352 -3.44076 0
M  V30 2717 H 244.368 3.1976 -2.36303 0
M  V30 2718 N 245.365 1.30045 0.890287 0
M  V30 2719 C 246.59 1.21598 1.68014 0
M  V30 2720 C 247.015 -0.218678 1.86825 0
M  V30 2721 O 246.373 -1.15756 1.39536 0
M  V30 2722 C 246.421 1.94434 3.03691 0
M  V30 2723 O 245.525 1.2678 3.92429 0
M  V30 2724 H 244.866 0.420856 0.513592 0
M  V30 2725 H 247.396 1.71775 1.11151 0
M  V30 2726 H 247.406 2.03251 3.5377 0
M  V30 2727 H 246.081 2.98777 2.89318 0
M  V30 2728 H 244.658 1.26282 3.50866 0
M  V30 2729 N 246.843 -1.10192 1.12674 0
M  V30 2730 C 248.071 -1.85983 0.906527 0
M  V30 2731 C 248.486 -1.80783 -0.544333 0
M  V30 2732 O 247.843 -1.19834 -1.37645 0
M  V30 2733 C 247.894 -3.34281 1.37618 0
M  V30 2734 O 247.615 -3.39401 2.77017 0
M  V30 2735 C 249.116 -4.26938 1.19325 0
M  V30 2736 H 246.336 -0.587716 0.323775 0
M  V30 2737 H 248.88 -1.39284 1.49734 0
M  V30 2738 H 247.035 -3.78436 0.828539 0
M  V30 2739 H 247.449 -4.31838 2.97684 0
M  V30 2740 H 248.923 -5.29181 1.57071 0
M  V30 2741 H 249.4 -4.38995 0.134097 0
M  V30 2742 H 250.006 -3.8859 1.72852 0
M  V30 2743 N 248.321 -0.919034 -1.28029 0
M  V30 2744 C 249.732 -0.600735 -1.76771 0
M  V30 2745 C 250.083 0.884024 -1.75156 0
M  V30 2746 O 249.208 1.69163 -1.34956 0
M  V30 2747 C 249.803 -1.08372 -3.21 0
M  V30 2748 C 248.362 -0.816248 -3.67443 0
M  V30 2749 C 247.509 -1.24742 -2.47658 0
M  V30 2750 H 250.46 -1.09974 -1.14418 0
M  V30 2751 H 250.481 -0.427512 -3.78091 0
M  V30 2752 H 249.993 -2.16437 -3.22144 0
M  V30 2753 H 248.094 0.250968 -3.71754 0
M  V30 2754 H 248.207 -1.4277 -4.57333 0
M  V30 2755 H 246.571 -0.666083 -2.45836 0
M  V30 2756 H 247.354 -2.33653 -2.51518 0
M  V30 2757 N 249.799 1.42003 -0.683588 0
M  V30 2758 C 250.762 2.29191 -0.0198243 0
M  V30 2759 C 251.762 1.43773 0.72013 0
M  V30 2760 O 252.952 1.65061 0.556815 0
M  V30 2761 C 250.084 3.26435 0.982487 0
M  V30 2762 H 251.277 2.8938 -0.787345 0
M  V30 2763 H 248.83 1.49789 -0.446418 0
M  V30 2764 H 249.565 2.71203 1.77819 0
M  V30 2765 H 249.35 3.89449 0.455182 0
M  V30 2766 H 250.84 3.918 1.44508 0
M  V30 2767 N 251.277 0.427512 1.51691 0
M  V30 2768 C 252.505 -0.141191 2.06418 0
M  V30 2769 C 252.92 -1.37303 1.29589 0
M  V30 2770 O 252.277 -1.79059 0.352732 0
M  V30 2771 C 252.328 -0.473266 3.58389 0
M  V30 2772 O 252.049 0.709673 4.32314 0
M  V30 2773 C 253.55 -1.09371 4.29596 0
M  V30 2774 H 250.77 -0.0122747 0.670888 0
M  V30 2775 H 253.314 0.603764 1.95384 0
M  V30 2776 H 251.469 -1.16812 3.69369 0
M  V30 2777 H 251.883 0.42807 5.2275 0
M  V30 2778 H 253.357 -1.27613 5.37046 0
M  V30 2779 H 253.834 -2.072 3.87253 0
M  V30 2780 H 254.44 -0.43853 4.23033 0
M  V30 2781 N 252.755 -1.56801 0.158532 0
M  V30 2782 C 253.995 -1.98383 -0.49229 0
M  V30 2783 C 254.359 -1.04184 -1.61275 0
M  V30 2784 O 255.56 -1.34856 -2.32524 0
M  V30 2785 C 253.831 -3.4385 -0.974766 0
M  V30 2786 S 255.39 -4.07459 -1.62857 0
M  V30 2787 H 252.208 -0.693041 -0.158794 0
M  V30 2788 H 254.81 -1.93856 0.252974 0
M  V30 2789 H 253.514 -4.10131 -0.148688 0
M  V30 2790 H 253.045 -3.52115 -1.75438 0
M  V30 2791 H 255.06 -4.01458 -2.91627 0
M  V30 2792 N 254.233 0.115231 -1.57178 0
M  V30 2793 C 255.163 1.1423 -2.03651 0
M  V30 2794 C 256.144 1.42967 -0.921655 0
M  V30 2795 O 257.329 1.53343 -1.19162 0
M  V30 2796 C 254.459 2.4675 -2.44401 0
M  V30 2797 C 253.413 2.32467 -3.59365 0
M  V30 2798 C 252.739 3.69984 -3.86026 0
M  V30 2799 C 254.039 1.78203 -4.90959 0
M  V30 2800 H 255.733 0.755749 -2.89705 0
M  V30 2801 H 253.279 0.362093 -1.39373 0
M  V30 2802 H 255.232 3.18854 -2.75517 0
M  V30 2803 H 253.956 2.87302 -1.55322 0
M  V30 2804 H 252.615 1.62811 -3.28463 0
M  V30 2805 H 252.263 4.08028 -2.94147 0
M  V30 2806 H 251.963 3.61279 -4.63412 0
M  V30 2807 H 253.487 4.43587 -4.19599 0
M  V30 2808 H 254.901 2.40128 -5.20587 0
M  V30 2809 H 253.298 1.8031 -5.72371 0
M  V30 2810 H 254.368 0.739876 -4.79222 0
M  V30 2811 N 255.711 1.52812 0.385517 0
M  V30 2812 C 256.658 1.77838 1.47113 0
M  V30 2813 C 257.628 0.621757 1.54024 0
M  V30 2814 O 258.813 0.861846 1.70226 0
M  V30 2815 C 255.953 1.95618 2.84302 0
M  V30 2816 C 255.066 3.23316 2.86515 0
M  V30 2817 C 254.201 3.31394 4.15152 0
M  V30 2818 C 253.24 4.53201 4.1143 0
M  V30 2819 N 252.377 4.58542 5.3168 0
M  V30 2820 H 257.217 2.70482 1.25073 0
M  V30 2821 H 254.754 1.34006 0.606692 0
M  V30 2822 H 256.712 2.03912 3.63972 0
M  V30 2823 H 255.342 1.06331 3.04784 0
M  V30 2824 H 254.394 3.24076 1.99195 0
M  V30 2825 H 255.706 4.13045 2.79634 0
M  V30 2826 H 254.86 3.3889 5.03228 0
M  V30 2827 H 253.599 2.39645 4.24761 0
M  V30 2828 H 252.604 4.45827 3.21742 0
M  V30 2829 H 253.829 5.46271 4.03442 0
M  V30 2830 H 251.775 3.69686 5.41912 0
M  V30 2831 H 251.692 5.42148 5.26889 0
M  V30 2832 H 252.96 4.70296 6.21644 0
M  V30 2833 N 257.189 -0.644168 1.43834 0
M  V30 2834 C 258.438 -1.39985 1.45214 0
M  V30 2835 C 258.751 -1.95421 0.0835494 0
M  V30 2836 O 259.957 -2.71488 -0.0251748 0
M  V30 2837 C 258.413 -2.53384 2.55587 0
M  V30 2838 C 258.021 -2.04517 3.98594 0
M  V30 2839 C 259.765 -3.30685 2.66172 0
M  V30 2840 C 257.672 -3.1518 5.00416 0
M  V30 2841 H 256.602 -0.526005 0.540218 0
M  V30 2842 H 259.253 -0.694367 1.69855 0
M  V30 2843 H 257.635 -3.26446 2.24163 0
M  V30 2844 H 258.809 -1.38405 4.39523 0
M  V30 2845 H 257.124 -1.40068 3.92135 0
M  V30 2846 H 259.721 -4.13158 3.39418 0
M  V30 2847 H 260.064 -3.79312 1.71546 0
M  V30 2848 H 260.597 -2.64708 2.96942 0
M  V30 2849 H 257.336 -2.71511 5.96625 0
M  V30 2850 H 256.856 -3.79974 4.64091 0
M  V30 2851 H 258.535 -3.80166 5.23529 0
M  V30 2852 N 258.668 -1.30515 -0.883378 0
M  V30 2853 C 259.893 -1.22487 -1.67367 0
M  V30 2854 C 260.318 0.208767 -1.86938 0
M  V30 2855 O 259.676 1.15015 -1.40148 0
M  V30 2856 C 259.724 -1.96041 -3.02655 0
M  V30 2857 O 258.828 -1.28859 -3.91751 0
M  V30 2858 H 258.169 -0.423573 -0.511353 0
M  V30 2859 H 260.699 -1.72362 -1.10239 0
M  V30 2860 H 260.709 -2.05124 -3.52687 0
M  V30 2861 H 259.384 -3.00307 -2.8773 0
M  V30 2862 H 257.961 -1.28141 -3.50192 0
M  V30 2863 N 260.146 1.09593 -1.13257 0
M  V30 2864 C 261.423 1.78293 -0.804432 0
M  V30 2865 C 261.803 1.99004 0.70431 0
M  V30 2866 O 261.151 1.59007 1.641 0
M  V30 2867 C 261.361 3.10707 -1.5894 0
M  V30 2868 C 262.709 3.85443 -1.78099 0
M  V30 2869 O 263.733 3.20454 -1.55525 0
M  V30 2870 O 262.592 5.02108 -2.15753 0
M  V30 2871 H 259.686 0.773156 -0.293528 0
M  V30 2872 H 262.232 1.16164 -1.23709 0
M  V30 2873 H 261.004 2.91106 -2.61482 0
M  V30 2874 H 260.627 3.80558 -1.15157 0
M  V30 2875 N 261.624 0.925811 1.2754 0
M  V30 2876 C 262.873 0.561084 1.93739 0
M  V30 2877 C 263.186 -0.901685 1.73577 0
M  V30 2878 O 264.392 -1.37511 2.34101 0
M  V30 2879 C 262.848 0.952668 3.47062 0
M  V30 2880 C 262.456 2.43599 3.75983 0
M  V30 2881 C 264.2 0.659103 4.19352 0
M  V30 2882 C 262.107 2.76707 5.22673 0
M  V30 2883 H 261.037 0.206122 0.725279 0
M  V30 2884 H 263.688 1.12637 1.44863 0
M  V30 2885 H 262.07 0.316053 3.94737 0
M  V30 2886 H 263.244 3.12035 3.39073 0
M  V30 2887 H 261.559 2.70125 3.16893 0
M  V30 2888 H 264.156 0.882985 5.27359 0
M  V30 2889 H 264.499 -0.403607 4.14339 0
M  V30 2890 H 265.032 1.25473 3.77494 0
M  V30 2891 H 261.771 3.8188 5.32774 0
M  V30 2892 H 261.291 2.12919 5.60737 0
M  V30 2893 H 262.97 2.6435 5.90532 0
M  V30 2894 N 263.102 -1.41638 0.69111 0
M  V30 2895 C 264.351 -2.00526 0.217318 0
M  V30 2896 C 264.664 -1.55353 -1.18848 0
M  V30 2897 O 265.87 -2.06769 -1.75951 0
M  V30 2898 C 264.326 -3.58313 0.337639 0
M  V30 2899 C 263.934 -4.12469 1.74852 0
M  V30 2900 C 265.678 -4.24431 -0.0766066 0
M  V30 2901 C 263.585 -5.62675 1.82074 0
M  V30 2902 H 262.515 -0.750008 0.0774893 0
M  V30 2903 H 265.166 -1.6217 0.858661 0
M  V30 2904 H 263.548 -3.9425 -0.371879 0
M  V30 2905 H 264.722 -3.8796 2.48644 0
M  V30 2906 H 263.037 -3.58861 2.11205 0
M  V30 2907 H 265.634 -5.34683 -0.0430284 0
M  V30 2908 H 265.977 -4.01101 -1.1146 0
M  V30 2909 H 266.51 -3.93512 0.582476 0
M  V30 2910 H 263.249 -5.90826 2.83911 0
M  V30 2911 H 262.769 -5.89124 1.12661 0
M  V30 2912 H 264.448 -6.27371 1.58159 0
M  V30 2913 N 264.58 -0.43555 -1.51462 0
M  V30 2914 C 265.81 0.130053 -2.0619 0
M  V30 2915 C 266.218 1.37164 -1.30317 0
M  V30 2916 O 265.561 1.80225 -0.355598 0
M  V30 2917 C 265.623 0.519418 -3.55728 0
M  V30 2918 C 265.287 -0.615119 -4.52841 0
M  V30 2919 C 266.284 -1.48671 -4.9819 0
M  V30 2920 C 263.969 -0.795341 -4.95963 0
M  V30 2921 C 265.963 -2.52324 -5.8533 0
M  V30 2922 C 263.65 -1.83514 -5.82894 0
M  V30 2923 C 264.648 -2.69748 -6.27475 0
M  V30 2924 O 264.336 -3.71944 -7.1268 0
M  V30 2925 H 264.068 0.0121612 -0.675891 0
M  V30 2926 H 266.622 -0.6129 -1.96043 0
M  V30 2927 H 264.852 1.31505 -3.63653 0
M  V30 2928 H 266.541 1.01597 -3.92979 0
M  V30 2929 H 267.307 -1.359 -4.65571 0
M  V30 2930 H 263.186 -0.133713 -4.60806 0
M  V30 2931 H 266.73 -3.19665 -6.20048 0
M  V30 2932 H 262.627 -1.96306 -6.14926 0
M  V30 2933 H 263.395 -3.68503 -7.30854 0
M  V30 2934 N 266.058 1.56714 -0.166846 0
M  V30 2935 C 266.988 2.20754 0.760913 0
M  V30 2936 C 267.969 1.16178 1.24244 0
M  V30 2937 O 269.154 1.44592 1.29641 0
M  V30 2938 C 266.284 2.84478 1.99223 0
M  V30 2939 C 265.238 3.95053 1.64672 0
M  V30 2940 C 264.564 4.45805 2.95232 0
M  V30 2941 C 265.864 5.14865 0.878155 0
M  V30 2942 H 267.558 2.98537 0.22713 0
M  V30 2943 H 265.104 1.43596 0.107805 0
M  V30 2944 H 267.057 3.27951 2.64624 0
M  V30 2945 H 265.781 2.04056 2.55007 0
M  V30 2946 H 264.44 3.52228 1.01641 0
M  V30 2947 H 264.088 3.62181 3.49047 0
M  V30 2948 H 263.788 5.204 2.7287 0
M  V30 2949 H 265.312 4.91962 3.6167 0
M  V30 2950 H 266.726 5.55059 1.43466 0
M  V30 2951 H 265.123 5.95348 0.753738 0
M  V30 2952 H 266.193 4.84735 -0.126377 0
M  V30 2953 N 267.536 -0.106894 1.57237 0
M  V30 2954 C 268.483 -1.13049 2.01217 0
M  V30 2955 C 269.453 -1.40471 0.886403 0
M  V30 2956 O 270.638 -1.52133 1.15153 0
M  V30 2957 C 267.778 -2.4487 2.43172 0
M  V30 2958 C 266.891 -2.24281 3.69218 0
M  V30 2959 C 266.026 -3.49417 4.00101 0
M  V30 2960 C 265.065 -3.24038 5.19294 0
M  V30 2961 N 264.202 -4.41409 5.45988 0
M  V30 2962 H 269.042 -0.748456 2.88448 0
M  V30 2963 H 266.579 -0.358054 1.42676 0
M  V30 2964 H 268.537 -3.21786 2.65537 0
M  V30 2965 H 267.167 -2.80944 1.58967 0
M  V30 2966 H 266.219 -1.38224 3.54398 0
M  V30 2967 H 267.531 -2.01512 4.56283 0
M  V30 2968 H 266.685 -4.34746 4.2318 0
M  V30 2969 H 265.424 -3.75229 3.11535 0
M  V30 2970 H 264.429 -2.37102 4.96047 0
M  V30 2971 H 265.654 -2.99584 6.09447 0
M  V30 2972 H 263.6 -4.67319 4.60379 0
M  V30 2973 H 263.517 -4.21788 6.274 0
M  V30 2974 H 264.785 -5.27836 5.73593 0
M  V30 2975 N 269.014 -1.53014 -0.377408 0
M  V30 2976 C 269.977 -1.77957 -1.44444 0
M  V30 2977 C 270.977 -0.649763 -1.47087 0
M  V30 2978 O 272.167 -0.917897 -1.48055 0
M  V30 2979 C 269.299 -1.89089 -2.83651 0
M  V30 2980 H 270.492 -2.73243 -1.23606 0
M  V30 2981 H 268.045 -1.43912 -0.609844 0
M  V30 2982 H 268.78 -0.958293 -3.09818 0
M  V30 2983 H 268.565 -2.71254 -2.83132 0
M  V30 2984 H 270.055 -2.1002 -3.60945 0
M  V30 2985 N 270.492 0.636531 -1.44174 0
M  V30 2986 C 271.738 1.39826 -1.4689 0
M  V30 2987 C 272.071 1.93947 -0.0990585 0
M  V30 2988 O 271.346 1.73325 0.882544 0
M  V30 2989 C 271.629 2.56751 -2.5249 0
M  V30 2990 C 271.482 2.08014 -3.98811 0
M  V30 2991 C 272.801 3.58946 -2.54649 0
M  V30 2992 H 269.92 0.507075 -0.53483 0
M  V30 2993 H 272.562 0.720188 -1.75822 0
M  V30 2994 H 270.712 3.14597 -2.2795 0
M  V30 2995 H 272.384 1.5504 -4.34466 0
M  V30 2996 H 270.627 1.39242 -4.10846 0
M  V30 2997 H 271.298 2.92169 -4.68339 0
M  V30 2998 H 273.774 3.1089 -2.76563 0
M  V30 2999 H 272.65 4.38286 -3.3045 0
M  V30 3000 H 272.911 4.12655 -1.58646 0
M  V30 3001 N 271.97 1.30982 0.876444 0
M  V30 3002 C 272.918 1.18006 2.00443 0
M  V30 3003 C 273.912 0.0898871 1.69161 0
M  V30 3004 O 275.118 0.251333 1.78237 0
M  V30 3005 H 271.493 0.365196 0.65737 0
M  V30 3006 H 273.464 2.13453 2.0852 0
M  V30 3007 C 272.213 0.897521 3.35916 0
M  V30 3008 H 271.536 1.7285 3.60504 0
M  V30 3009 H 272.976 0.846874 4.15456 0
M  V30 3010 C 271.435 -0.399674 3.34521 0
M  V30 3011 O 271.965 -1.41852 3.7582 0
M  V30 3012 N 270.171 -0.413893 2.87637 0
M  V30 3013 H 269.718 0.41571 2.54224 0
M  V30 3014 H 269.676 -1.28175 2.87086 0
M  V30 3015 N 273.449 -1.08991 1.13837 0
M  V30 3016 C 274.695 -1.81526 0.90422 0
M  V30 3017 C 275.028 -1.85706 -0.568066 0
M  V30 3018 O 274.303 -1.32855 -1.42056 0
M  V30 3019 C 274.586 -3.27447 1.49835 0
M  V30 3020 C 274.439 -3.31512 3.04006 0
M  V30 3021 C 275.758 -4.24256 1.17025 0
M  V30 3022 H 272.877 -0.659029 0.329923 0
M  V30 3023 H 275.519 -1.27644 1.40737 0
M  V30 3024 H 273.669 -3.73462 1.07044 0
M  V30 3025 H 275.341 -2.93867 3.55584 0
M  V30 3026 H 273.584 -2.70963 3.38765 0
M  V30 3027 H 274.255 -4.34329 3.40679 0
M  V30 3028 H 276.731 -3.86549 1.54009 0
M  V30 3029 H 275.607 -5.24684 1.61237 0
M  V30 3030 H 275.868 -4.42019 0.0846274 0
M  V30 3031 N 274.927 -0.932562 -1.27047 0
M  V30 3032 C 275.857 -0.452902 -2.29066 0
M  V30 3033 C 276.838 0.489338 -1.62909 0
M  V30 3034 O 278.023 0.393046 -1.90181 0
M  V30 3035 C 275.153 0.290698 -3.46081 0
M  V30 3036 C 274.107 -0.564168 -4.24265 0
M  V30 3037 C 273.433 0.308886 -5.33807 0
M  V30 3038 C 274.733 -1.83112 -4.89149 0
M  V30 3039 H 276.427 -1.30552 -2.69437 0
M  V30 3040 H 273.973 -0.629201 -1.29526 0
M  V30 3041 H 275.926 0.637233 -4.16554 0
M  V30 3042 H 274.65 1.17738 -3.0464 0
M  V30 3043 H 273.309 -0.893477 -3.55545 0
M  V30 3044 H 272.957 1.19467 -4.88607 0
M  V30 3045 H 272.657 -0.259633 -5.87026 0
M  V30 3046 H 274.181 0.650884 -6.07121 0
M  V30 3047 H 275.595 -1.55236 -5.51883 0
M  V30 3048 H 273.992 -2.34353 -5.52448 0
M  V30 3049 H 275.062 -2.54772 -4.12576 0
M  V30 3050 N 276.405 1.4127 -0.698611 0
M  V30 3051 C 277.353 2.32588 -0.023855 0
M  V30 3052 C 278.347 1.51128 0.765292 0
M  V30 3053 O 279.553 1.67043 0.670571 0
M  V30 3054 H 275.928 0.751918 0.0110871 0
M  V30 3055 H 277.899 2.87167 -0.811031 0
M  V30 3056 C 276.648 3.35947 0.896369 0
M  V30 3057 H 275.971 3.98684 0.298548 0
M  V30 3058 H 277.411 4.02376 1.33676 0
M  V30 3059 C 275.87 2.70076 2.01396 0
M  V30 3060 O 276.4 2.55093 3.10307 0
M  V30 3061 N 274.606 2.28724 1.79259 0
M  V30 3062 H 274.153 2.4111 0.906841 0
M  V30 3063 H 274.111 1.84986 2.54219 0
M  V30 3064 N 277.883 0.443576 1.51229 0
M  V30 3065 C 278.813 -0.355142 2.30783 0
M  V30 3066 C 279.794 -1.0154 1.36468 0
M  V30 3067 O 280.979 -1.01785 1.65389 0
M  V30 3068 C 278.109 -1.45312 3.15439 0
M  V30 3069 C 277.063 -0.916002 4.18083 0
M  V30 3070 C 276.389 -2.1102 4.91299 0
M  V30 3071 C 277.689 0.0538602 5.22272 0
M  V30 3072 H 279.383 0.308767 2.97804 0
M  V30 3073 H 276.929 0.149937 1.43217 0
M  V30 3074 H 278.882 -2.01914 3.69876 0
M  V30 3075 H 277.606 -2.14541 2.46252 0
M  V30 3076 H 276.265 -0.372145 3.64706 0
M  V30 3077 H 275.913 -2.78882 4.18609 0
M  V30 3078 H 275.613 -1.75717 5.60712 0
M  V30 3079 H 277.137 -2.68164 5.48562 0
M  V30 3080 H 278.551 -0.422069 5.71744 0
M  V30 3081 H 276.948 0.319776 5.99247 0
M  V30 3082 H 278.018 0.98858 4.74716 0
M  V30 3083 N 279.361 -1.56624 0.175154 0
M  V30 3084 C 280.589 -2.01374 -0.474971 0
M  V30 3085 C 281.004 -1.05537 -1.56548 0
M  V30 3086 O 280.361 -0.0568668 -1.82411 0
M  V30 3087 C 280.412 -3.45923 -1.04975 0
M  V30 3088 O 280.133 -4.381 -0.00276605 0
M  V30 3089 C 281.634 -4.06093 -1.77773 0
M  V30 3090 H 278.854 -0.659962 -0.121206 0
M  V30 3091 H 281.398 -2.02601 0.27801 0
M  V30 3092 H 279.553 -3.45458 -1.75321 0
M  V30 3093 H 279.967 -5.22753 -0.427681 0
M  V30 3094 H 281.441 -5.09147 -2.13245 0
M  V30 3095 H 281.918 -3.48405 -2.67414 0
M  V30 3096 H 282.524 -4.10272 -1.12059 0
M  V30 3097 N 280.839 0.0985539 -1.57292 0
M  V30 3098 C 282.255 0.45267 -1.53046 0
M  V30 3099 C 282.455 1.80713 -0.891342 0
M  V30 3100 O 281.511 2.4785 -0.482375 0
M  V30 3101 C 282.824 0.418341 -2.97776 0
M  V30 3102 C 284.372 0.500443 -3.08973 0
M  V30 3103 C 284.847 0.496297 -4.55303 0
M  V30 3104 N 286.338 0.557151 -4.59837 0
M  V30 3105 C 287.073 0.575726 -5.70502 0
M  V30 3106 N 286.569 0.550714 -6.90608 0
M  V30 3107 N 288.362 0.620277 -5.58667 0
M  V30 3108 H 280.513 -0.788673 -1.97215 0
M  V30 3109 H 282.776 -0.293188 -0.901524 0
M  V30 3110 H 282.482 -0.509659 -3.47988 0
M  V30 3111 H 282.356 1.2386 -3.56284 0
M  V30 3112 H 284.743 1.41886 -2.58751 0
M  V30 3113 H 284.824 -0.347894 -2.53423 0
M  V30 3114 H 284.468 -0.418162 -5.06176 0
M  V30 3115 H 284.398 1.3618 -5.08687 0
M  V30 3116 H 286.889 0.581816 -3.73394 0
M  V30 3117 H 287.202 0.568075 -7.70709 0
M  V30 3118 H 285.547 0.517816 -6.93068 0
M  V30 3119 H 288.738 0.637322 -4.63741 0
M  V30 3120 H 288.911 0.631283 -6.44918 0
M  V30 3121 N 282.317 1.53212 0.369288 0
M  V30 3122 C 283.247 1.82365 1.45826 0
M  V30 3123 C 284.228 0.676907 1.56051 0
M  V30 3124 O 285.413 0.926401 1.70679 0
M  V30 3125 C 282.543 2.01023 2.83208 0
M  V30 3126 C 281.497 3.1678 2.8781 0
M  V30 3127 C 280.823 3.20724 4.27832 0
M  V30 3128 C 282.123 4.55447 2.55667 0
M  V30 3129 H 283.817 2.73559 1.21678 0
M  V30 3130 H 281.363 1.3163 0.583911 0
M  V30 3131 H 283.316 2.20001 3.59413 0
M  V30 3132 H 282.04 1.06536 3.08736 0
M  V30 3133 H 280.699 2.97616 2.14056 0
M  V30 3134 H 280.347 2.23882 4.50429 0
M  V30 3135 H 280.047 3.98496 4.31827 0
M  V30 3136 H 281.571 3.41881 5.05915 0
M  V30 3137 H 282.985 4.74611 3.21586 0
M  V30 3138 H 281.382 5.35432 2.70984 0
M  V30 3139 H 282.452 4.60812 1.5093 0
M  V30 3140 N 283.795 -0.628877 1.44509 0
M  V30 3141 C 285.023 -1.41554 1.50897 0
M  V30 3142 C 285.438 -1.8832 0.134564 0
M  V30 3143 O 284.795 -1.60969 -0.859965 0
M  V30 3144 C 284.846 -2.63435 2.47556 0
M  V30 3145 O 284.567 -2.18619 3.79654 0
M  V30 3146 C 286.068 -3.56537 2.63431 0
M  V30 3147 H 283.288 -0.434044 0.511709 0
M  V30 3148 H 285.832 -0.768895 1.89495 0
M  V30 3149 H 283.987 -3.24187 2.12089 0
M  V30 3150 H 284.401 -2.97652 4.31861 0
M  V30 3151 H 285.875 -4.38657 3.35088 0
M  V30 3152 H 286.352 -4.05493 1.68738 0
M  V30 3153 H 286.958 -3.01653 2.9981 0
M  V30 3154 N 285.273 -1.31445 -0.869486 0
M  V30 3155 C 286.52 -1.21158 -1.62256 0
M  V30 3156 C 286.848 0.230155 -1.93133 0
M  V30 3157 O 286.103 1.17906 -1.56194 0
M  V30 3158 C 286.402 -2.00145 -2.96102 0
M  V30 3159 C 286.068 -3.4964 -2.84715 0
M  V30 3160 C 284.73 -3.90403 -2.81317 0
M  V30 3161 C 287.082 -4.44769 -2.71716 0
M  V30 3162 C 284.41 -5.24561 -2.62778 0
M  V30 3163 C 286.762 -5.79054 -2.54714 0
M  V30 3164 C 285.426 -6.19037 -2.49699 0
M  V30 3165 H 284.696 -0.443348 -0.593737 0
M  V30 3166 H 287.343 -1.62715 -1.00976 0
M  V30 3167 H 285.648 -1.5127 -3.6142 0
M  V30 3168 H 287.345 -1.89566 -3.53363 0
M  V30 3169 H 283.935 -3.17256 -2.88178 0
M  V30 3170 H 288.119 -4.14208 -2.73397 0
M  V30 3171 H 283.375 -5.54613 -2.57321 0
M  V30 3172 H 287.549 -6.52393 -2.43632 0
M  V30 3173 H 285.176 -7.22935 -2.35093 0
M  V30 3174 N 286.751 1.08385 -1.14413 0
M  V30 3175 C 287.998 1.80776 -0.912482 0
M  V30 3176 C 288.326 1.86236 0.560934 0
M  V30 3177 O 287.581 1.33431 1.43159 0
M  V30 3178 C 287.88 3.26273 -1.45879 0
M  V30 3179 C 287.546 3.4093 -2.95089 0
M  V30 3180 C 286.208 3.44638 -3.35824 0
M  V30 3181 C 288.56 3.44591 -3.91033 0
M  V30 3182 C 285.888 3.49597 -4.71167 0
M  V30 3183 C 288.24 3.51086 -5.26233 0
M  V30 3184 C 286.904 3.53067 -5.6648 0
M  V30 3185 H 286.174 0.661507 -0.333901 0
M  V30 3186 H 288.821 1.27613 -1.42784 0
M  V30 3187 H 287.126 3.82146 -0.864376 0
M  V30 3188 H 288.823 3.80839 -1.2555 0
M  V30 3189 H 285.413 3.38736 -2.62594 0
M  V30 3190 H 289.597 3.40957 -3.60641 0
M  V30 3191 H 284.853 3.49424 -5.0171 0
M  V30 3192 H 289.027 3.52864 -6.00383 0
M  V30 3193 H 286.654 3.56662 -6.71339 0
M  V30 3194 N 288.23 0.939286 1.26551 0
M  V30 3195 C 289.477 0.585847 1.9384 0
M  V30 3196 C 289.805 -0.874784 1.73718 0
M  V30 3197 O 289.06 -1.64092 1.06642 0
M  V30 3198 C 289.359 0.872106 3.46596 0
M  V30 3199 C 289.025 2.31632 3.86856 0
M  V30 3200 C 287.687 2.71111 3.97558 0
M  V30 3201 C 290.039 3.25494 4.07066 0
M  V30 3202 C 287.367 4.03553 4.25866 0
M  V30 3203 C 289.719 4.57531 4.36862 0
M  V30 3204 C 288.383 4.96828 4.45778 0
M  V30 3205 H 287.653 0.214377 0.709312 0
M  V30 3206 H 290.3 1.18544 1.50398 0
M  V30 3207 H 288.605 0.18996 3.91339 0
M  V30 3208 H 290.302 0.577442 3.96821 0
M  V30 3209 H 286.892 2.00008 3.79071 0
M  V30 3210 H 291.076 2.9619 3.98227 0
M  V30 3211 H 286.332 4.33665 4.30981 0
M  V30 3212 H 290.506 5.30254 4.51446 0
M  V30 3213 H 288.133 5.99482 4.67468 0
M  V30 3214 N 289.708 -1.40897 0.706093 0
M  V30 3215 C 290.638 -2.33418 0.0620085 0
M  V30 3216 C 291.619 -1.52385 -0.755827 0
M  V30 3217 O 292.804 -1.80886 -0.706674 0
M  V30 3218 C 289.934 -3.36293 -0.867445 0
M  V30 3219 C 288.888 -4.27716 -0.155932 0
M  V30 3220 C 288.214 -5.2105 -1.20046 0
M  V30 3221 C 289.514 -5.12944 0.984149 0
M  V30 3222 H 291.208 -2.87527 0.83477 0
M  V30 3223 H 288.754 -1.38249 0.402875 0
M  V30 3224 H 290.707 -3.99949 -1.32735 0
M  V30 3225 H 289.431 -2.80556 -1.67199 0
M  V30 3226 H 288.09 -3.65498 0.284047 0
M  V30 3227 H 287.738 -4.61624 -1.99781 0
M  V30 3228 H 287.438 -5.83056 -0.729328 0
M  V30 3229 H 288.962 -5.87584 -1.66066 0
M  V30 3230 H 290.376 -5.70109 0.604048 0
M  V30 3231 H 288.773 -5.83945 1.38304 0
M  V30 3232 H 289.843 -4.49485 1.81911 0
M  V30 3233 N 291.186 -0.45159 -1.50991 0
M  V30 3234 C 292.435 0.111653 -2.01391 0
M  V30 3235 C 292.748 1.42529 -1.33959 0
M  V30 3236 O 293.954 2.07232 -1.75405 0
M  V30 3237 C 292.41 0.249514 -3.59034 0
M  V30 3238 C 292.018 -1.05453 -4.35412 0
M  V30 3239 C 293.762 0.765762 -4.17536 0
M  V30 3240 C 291.669 -0.881529 -5.84793 0
M  V30 3241 H 290.599 0.0455022 -0.752626 0
M  V30 3242 H 293.25 -0.583524 -1.73975 0
M  V30 3243 H 291.632 1.00803 -3.82955 0
M  V30 3244 H 292.806 -1.82248 -4.23229 0
M  V30 3245 H 291.121 -1.50039 -3.88429 0
M  V30 3246 H 293.718 0.911913 -5.26866 0
M  V30 3247 H 294.061 1.75201 -3.77638 0
M  V30 3248 H 294.594 0.0651744 -3.97747 0
M  V30 3249 H 291.333 -1.84057 -6.29129 0
M  V30 3250 H 290.853 -0.153625 -5.99603 0
M  V30 3251 H 292.532 -0.540363 -6.4474 0
M  V30 3252 N 292.664 1.56529 -0.183458 0
M  V30 3253 C 294.075 1.83739 0.331177 0
M  V30 3254 C 294.426 1.10373 1.62211 0
M  V30 3255 O 293.551 0.36071 2.13373 0
M  V30 3256 C 294.146 3.33306 0.607646 0
M  V30 3257 C 292.705 3.60969 1.06668 0
M  V30 3258 C 291.852 2.77086 0.109029 0
M  V30 3259 H 294.803 1.53379 -0.407484 0
M  V30 3260 H 294.824 3.51444 1.45832 0
M  V30 3261 H 294.336 3.86677 -0.332086 0
M  V30 3262 H 292.437 3.13021 2.0211 0
M  V30 3263 H 292.55 4.69231 0.967447 0
M  V30 3264 H 290.914 2.47319 0.608714 0
M  V30 3265 H 291.697 3.33241 -0.82494 0
M  V30 3266 N 294.142 -0.090211 1.57342 0
M  V30 3267 C 295.072 -1.10976 2.05443 0
M  V30 3268 C 296.053 -1.41482 0.944284 0
M  V30 3269 O 297.238 -1.51428 1.21586 0
M  V30 3270 C 294.368 -2.42831 2.48295 0
M  V30 3271 C 293.322 -2.26721 3.63018 0
M  V30 3272 C 292.648 -3.63796 3.91863 0
M  V30 3273 C 293.948 -1.7037 4.93732 0
M  V30 3274 H 295.642 -0.709564 2.9087 0
M  V30 3275 H 293.188 -0.339874 1.39932 0
M  V30 3276 H 295.141 -3.14431 2.80555 0
M  V30 3277 H 293.865 -2.84795 1.59873 0
M  V30 3278 H 292.524 -1.57565 3.31012 0
M  V30 3279 H 292.172 -4.03297 3.00601 0
M  V30 3280 H 291.872 -3.53861 4.69101 0
M  V30 3281 H 293.396 -4.36855 4.26603 0
M  V30 3282 H 294.81 -2.31816 5.24342 0
M  V30 3283 H 293.207 -1.71181 5.75167 0
M  V30 3284 H 294.277 -0.663542 4.80339 0
M  V30 3285 N 295.62 -1.53406 -0.361157 0
M  V30 3286 C 296.867 -1.69802 -1.10333 0
M  V30 3287 C 297.195 -0.452087 -1.89173 0
M  V30 3288 O 296.45 0.566017 -1.87336 0
M  V30 3289 C 296.749 -2.90211 -2.08596 0
M  V30 3290 C 296.415 -4.26539 -1.46203 0
M  V30 3291 C 295.077 -4.6361 -1.28915 0
M  V30 3292 C 297.429 -5.113 -1.01101 0
M  V30 3293 C 294.757 -5.83075 -0.651157 0
M  V30 3294 C 297.109 -6.31415 -0.387007 0
M  V30 3295 C 295.773 -6.67195 -0.201657 0
M  V30 3296 H 295.043 -0.621351 -0.403737 0
M  V30 3297 H 297.69 -1.87598 -0.384609 0
M  V30 3298 H 295.995 -2.66946 -2.86788 0
M  V30 3299 H 297.692 -3.00091 -2.65982 0
M  V30 3300 H 294.282 -3.97352 -1.60653 0
M  V30 3301 H 298.466 -4.83206 -1.13249 0
M  V30 3302 H 293.722 -6.09385 -0.496006 0
M  V30 3303 H 297.896 -6.96394 -0.0293563 0
M  V30 3304 H 295.523 -7.59628 0.294766 0
M  V30 3305 N 297.098 0.621204 -1.44841 0
M  V30 3306 C 298.347 1.37658 -1.47422 0
M  V30 3307 C 298.66 1.95264 -0.114629 0
M  V30 3308 O 299.866 2.71494 -0.0180199 0
M  V30 3309 C 298.322 2.49285 -2.59586 0
M  V30 3310 C 297.93 1.98149 -4.01797 0
M  V30 3311 C 299.674 3.26409 -2.71399 0
M  V30 3312 C 297.581 3.07178 -5.05367 0
M  V30 3313 H 296.511 0.517344 -0.548517 0
M  V30 3314 H 299.162 0.667257 -1.70938 0
M  V30 3315 H 297.544 3.22839 -2.29328 0
M  V30 3316 H 298.718 1.31395 -4.41669 0
M  V30 3317 H 297.033 1.33812 -3.94314 0
M  V30 3318 H 299.63 4.07706 -3.45948 0
M  V30 3319 H 299.973 3.76535 -1.77559 0
M  V30 3320 H 300.506 2.5995 -3.01116 0
M  V30 3321 H 297.245 2.61985 -6.00869 0
M  V30 3322 H 296.765 3.72542 -4.70077 0
M  V30 3323 H 298.444 3.71789 -5.29511 0
M  V30 3324 N 298.576 1.31904 0.862503 0
M  V30 3325 C 299.509 1.14514 1.97388 0
M  V30 3326 C 300.487 0.0466493 1.62533 0
M  V30 3327 O 301.671 0.204484 1.87388 0
M  V30 3328 C 298.798 0.751347 3.30261 0
M  V30 3329 C 297.844 1.85395 3.84098 0
M  V30 3330 S 298.677 3.46081 4.08642 0
M  V30 3331 C 299.833 3.08655 5.44502 0
M  V30 3332 H 300.066 2.08597 2.11836 0
M  V30 3333 H 297.599 1.16475 1.01356 0
M  V30 3334 H 299.557 0.530901 4.07052 0
M  V30 3335 H 298.218 -0.170493 3.13637 0
M  V30 3336 H 297.411 1.53122 4.80177 0
M  V30 3337 H 297.013 2.02984 3.14123 0
M  V30 3338 H 299.305 2.58012 6.26447 0
M  V30 3339 H 300.248 4.03726 5.81731 0
M  V30 3340 H 300.656 2.45891 5.08132 0
M  V30 3341 N 300.054 -1.07777 1.14986 0
M  V30 3342 C 301.303 -1.79669 0.916617 0
M  V30 3343 C 301.616 -1.87474 -0.557917 0
M  V30 3344 O 302.822 -2.55845 -0.908617 0
M  V30 3345 C 301.278 -3.22848 1.59051 0
M  V30 3346 C 300.886 -3.23257 3.10176 0
M  V30 3347 C 302.63 -3.99379 1.43864 0
M  V30 3348 C 300.537 -4.61063 3.70372 0
M  V30 3349 H 299.467 -0.673349 0.33929 0
M  V30 3350 H 302.118 -1.21003 1.37951 0
M  V30 3351 H 300.5 -3.8168 1.0553 0
M  V30 3352 H 301.674 -2.74095 3.70417 0
M  V30 3353 H 299.989 -2.60222 3.25074 0
M  V30 3354 H 302.586 -5.0122 1.86232 0
M  V30 3355 H 302.929 -4.14511 0.385564 0
M  V30 3356 H 303.462 -3.47032 1.94457 0
M  V30 3357 H 300.201 -4.51135 4.7556 0
M  V30 3358 H 299.721 -5.1048 3.14913 0
M  V30 3359 H 301.4 -5.30034 3.71043 0
M  V30 3360 N 301.532 -0.945985 -1.26051 0
M  V30 3361 C 302.78 -0.594941 -1.93145 0
M  V30 3362 C 303.101 0.86953 -1.7454 0
M  V30 3363 O 302.371 1.61838 -1.10387 0
M  V30 3364 H 300.951 -0.217044 -0.714773 0
M  V30 3365 H 303.613 -1.20235 -1.53393 0
M  V30 3366 H 302.709 -0.816835 -3.01221 0
M  V30 3367 N 303.011 1.40521 -0.713556 0
M  V30 3368 C 304.251 2.02783 -0.256584 0
M  V30 3369 C 304.615 1.55352 1.12827 0
M  V30 3370 O 305.816 2.09663 1.68211 0
M  V30 3371 C 304.087 3.5586 -0.331414 0
M  V30 3372 S 305.646 4.38773 0.0488703 0
M  V30 3373 H 302.464 0.703655 -0.101934 0
M  V30 3374 H 305.066 1.71674 -0.935325 0
M  V30 3375 H 303.77 3.87874 -1.34098 0
M  V30 3376 H 303.301 3.91695 0.365873 0
M  V30 3377 H 305.316 4.79633 1.2715 0
M  V30 3378 N 304.489 0.459591 1.5075 0
M  V30 3379 C 305.719 -0.0972338 2.06371 0
M  V30 3380 C 306.127 -1.35074 1.32483 0
M  V30 3381 O 305.47 -1.79637 0.384226 0
M  V30 3382 C 305.532 -0.462759 3.56509 0
M  V30 3383 C 305.196 0.687084 4.51805 0
M  V30 3384 C 306.193 1.56578 4.95761 0
M  V30 3385 C 303.878 0.874144 4.94635 0
M  V30 3386 C 305.872 2.61604 5.81242 0
M  V30 3387 C 303.559 1.92765 5.79901 0
M  V30 3388 C 304.557 2.79697 6.23104 0
M  V30 3389 O 304.245 3.83235 7.06673 0
M  V30 3390 H 303.977 -0.00140687 0.675999 0
M  V30 3391 H 306.531 0.644011 1.95043 0
M  V30 3392 H 304.761 -1.25703 3.65699 0
M  V30 3393 H 306.45 -0.953323 3.94546 0
M  V30 3394 H 307.216 1.4329 4.6335 0
M  V30 3395 H 303.095 0.207006 4.60535 0
M  V30 3396 H 306.639 3.29489 6.14884 0
M  V30 3397 H 302.536 2.06064 6.11725 0
M  V30 3398 H 303.304 3.80084 7.24899 0
M  V30 3399 N 305.967 -1.56429 0.191757 0
M  V30 3400 C 306.897 -2.21937 -0.725696 0
M  V30 3401 C 307.878 -1.1814 -1.2238 0
M  V30 3402 O 309.063 -1.46636 -1.27325 0
M  V30 3403 C 306.193 -2.87611 -1.94672 0
M  V30 3404 C 305.147 -3.97623 -1.58366 0
M  V30 3405 C 304.473 -4.50446 -2.88102 0
M  V30 3406 C 305.773 -5.16197 -0.796133 0
M  V30 3407 H 307.467 -2.98861 -0.179606 0
M  V30 3408 H 305.013 -1.43749 -0.0849464 0
M  V30 3409 H 306.966 -3.3212 -2.59373 0
M  V30 3410 H 305.69 -2.08087 -2.51728 0
M  V30 3411 H 304.349 -3.53801 -0.960247 0
M  V30 3412 H 303.997 -3.67688 -3.43241 0
M  V30 3413 H 303.697 -5.24675 -2.64556 0
M  V30 3414 H 305.221 -4.97654 -3.53798 0
M  V30 3415 H 306.635 -5.57271 -1.34618 0
M  V30 3416 H 305.032 -5.96471 -0.658928 0
M  V30 3417 H 306.102 -4.84473 0.203478 0
M  V30 3418 N 307.445 0.0818655 -1.57387 0
M  V30 3419 C 308.691 0.784074 -1.8703 0
M  V30 3420 C 309.024 1.77729 -0.782689 0
M  V30 3421 O 308.299 1.93384 0.208051 0
M  V30 3422 C 308.582 1.50105 -3.27323 0
M  V30 3423 C 308.435 0.524925 -4.46727 0
M  V30 3424 C 309.754 2.44843 -3.65705 0
M  V30 3425 H 306.873 0.283582 -0.680257 0
M  V30 3426 H 309.515 0.0474352 -1.89941 0
M  V30 3427 H 307.665 2.12897 -3.24972 0
M  V30 3428 H 309.337 -0.0970111 -4.61198 0
M  V30 3429 H 307.58 -0.160606 -4.33503 0
M  V30 3430 H 308.251 1.064 -5.41648 0
M  V30 3431 H 310.727 1.92135 -3.69085 0
M  V30 3432 H 309.603 2.92018 -4.64776 0
M  V30 3433 H 309.864 3.29197 -2.95096 0
M  V30 3434 N 308.923 1.53595 0.353017 0
M  V30 3435 C 310.172 1.69603 1.09168 0
M  V30 3436 C 310.485 0.460925 1.90092 0
M  V30 3437 O 311.691 0.501774 2.66823 0
M  V30 3438 C 310.147 2.99872 1.9901 0
M  V30 3439 C 309.755 4.30687 1.23339 0
M  V30 3440 C 311.499 3.25246 2.72792 0
M  V30 3441 C 309.406 5.52036 2.12156 0
M  V30 3442 H 308.336 0.631966 0.411261 0
M  V30 3443 H 310.987 1.80096 0.351802 0
M  V30 3444 H 309.369 2.83212 2.7678 0
M  V30 3445 H 310.543 4.58019 0.505456 0
M  V30 3446 H 308.858 4.11853 0.613663 0
M  V30 3447 H 311.455 4.13095 3.39495 0
M  V30 3448 H 311.798 2.41846 3.38846 0
M  V30 3449 H 312.331 3.42638 2.021 0
M  V30 3450 H 309.07 6.37951 1.50659 0
M  V30 3451 H 308.59 5.28966 2.82764 0
M  V30 3452 H 310.269 5.87313 2.71427 0
M  V30 3453 N 310.401 -0.613514 1.45168 0
M  V30 3454 C 311.65 -1.36874 1.4815 0
M  V30 3455 C 311.963 -1.952 0.124982 0
M  V30 3456 O 313.169 -2.71481 0.0324176 0
M  V30 3457 C 311.625 -2.47905 2.60904 0
M  V30 3458 C 311.233 -1.96016 4.02842 0
M  V30 3459 C 312.977 -3.24965 2.73126 0
M  V30 3460 C 310.884 -3.04494 5.06988 0
M  V30 3461 H 309.814 -0.514428 0.551253 0
M  V30 3462 H 312.465 -0.658182 1.7129 0
M  V30 3463 H 310.847 -3.21618 2.31037 0
M  V30 3464 H 312.021 -1.29051 4.4236 0
M  V30 3465 H 310.336 -1.31719 3.95018 0
M  V30 3466 H 312.933 -4.05865 3.48106 0
M  V30 3467 H 313.276 -3.75588 1.79553 0
M  V30 3468 H 313.809 -2.5835 3.0249 0
M  V30 3469 H 310.548 -2.58795 6.0225 0
M  V30 3470 H 310.068 -3.70044 4.72046 0
M  V30 3471 H 311.747 -3.68976 5.31475 0
M  V30 3472 N 311.879 -1.3236 -0.855495 0
M  V30 3473 C 312.829 -1.17809 -1.95205 0
M  V30 3474 C 313.813 -0.0852319 -1.60674 0
M  V30 3475 O 315.005 -0.311651 -1.74235 0
M  V30 3476 C 312.134 -0.902437 -3.31226 0
M  V30 3477 C 311.22 -2.03695 -3.7198 0
M  V30 3478 N 311.611 -3.28544 -3.84568 0
M  V30 3479 C 309.909 -1.93993 -4.016 0
M  V30 3480 C 310.61 -4.02847 -4.19629 0
M  V30 3481 N 309.586 -3.31138 -4.31102 0
M  V30 3482 H 313.388 -2.12462 -2.0307 0
M  V30 3483 H 310.902 -1.24127 -1.0472 0
M  V30 3484 H 312.899 -0.77915 -4.09554 0
M  V30 3485 H 311.559 0.0357267 -3.2468 0
M  V30 3486 H 312.57 -3.6349 -3.68911 0
M  V30 3487 H 309.247 -1.07733 -4.03361 0
M  V30 3488 H 310.637 -5.10506 -4.36845 0
M  V30 3489 N 313.357 1.07166 -1.15556 0
M  V30 3490 C 314.305 2.16517 -0.8499 0
M  V30 3491 C 315.299 1.68468 0.177454 0
M  V30 3492 O 316.505 1.79971 0.0323026 0
M  V30 3493 H 312.88 0.706652 -0.25719 0
M  V30 3494 H 314.851 2.39514 -1.77976 0
M  V30 3495 C 313.6 3.45855 -0.357682 0
M  V30 3496 H 312.923 3.83214 -1.13961 0
M  V30 3497 H 314.363 4.23607 -0.182489 0
M  V30 3498 C 312.822 3.24062 0.921152 0
M  V30 3499 O 313.352 3.48813 1.9923 0
M  V30 3500 N 311.558 2.77539 0.86141 0
M  V30 3501 H 311.105 2.57598 -0.0104408 0
M  V30 3502 H 311.063 2.63337 1.71758 0
M  V30 3503 N 314.835 0.952656 1.25548 0
M  V30 3504 C 315.765 0.489287 2.28316 0
M  V30 3505 C 316.746 -0.463359 1.63667 0
M  V30 3506 O 317.931 -0.36274 1.90782 0
M  V30 3507 C 315.061 -0.235603 3.465 0
M  V30 3508 C 314.015 0.631593 4.23314 0
M  V30 3509 C 313.341 -0.223923 5.34231 0
M  V30 3510 C 314.641 1.90871 4.86174 0
M  V30 3511 H 316.335 1.34822 2.67326 0
M  V30 3512 H 313.881 0.649728 1.28509 0
M  V30 3513 H 315.834 -0.570882 4.17515 0
M  V30 3514 H 314.558 -1.12877 3.06474 0
M  V30 3515 H 313.217 0.949929 3.54079 0
M  V30 3516 H 312.865 -1.11678 4.90446 0
M  V30 3517 H 312.565 0.35299 5.86539 0
M  V30 3518 H 314.089 -0.554214 6.0808 0
M  V30 3519 H 315.503 1.63997 5.49343 0
M  V30 3520 H 313.9 2.43112 5.4865 0
M  V30 3521 H 314.97 2.61304 4.08471 0
M  V30 3522 N 316.313 -1.40141 0.720998 0
M  V30 3523 C 317.243 -2.33339 0.0867621 0
M  V30 3524 C 318.224 -1.53178 -0.739622 0
M  V30 3525 O 319.409 -1.81625 -0.687449 0
M  V30 3526 C 316.539 -3.37194 -0.831728 0
M  V30 3527 C 315.493 -4.27857 -0.110558 0
M  V30 3528 C 314.819 -5.22294 -1.14513 0
M  V30 3529 C 316.119 -5.11872 1.0385 0
M  V30 3530 H 317.813 -2.86626 0.865219 0
M  V30 3531 H 315.359 -1.37814 0.417516 0
M  V30 3532 H 317.312 -4.01335 -1.28485 0
M  V30 3533 H 316.036 -2.82314 -1.64214 0
M  V30 3534 H 314.695 -3.65176 0.322797 0
M  V30 3535 H 314.343 -4.63717 -1.94874 0
M  V30 3536 H 314.043 -5.83797 -0.667446 0
M  V30 3537 H 315.567 -5.89312 -1.59824 0
M  V30 3538 H 316.981 -5.69436 0.664482 0
M  V30 3539 H 315.378 -5.82445 1.4449 0
M  V30 3540 H 316.448 -4.4753 1.86668 0
M  V30 3541 N 317.792 -0.46758 -1.50504 0
M  V30 3542 C 318.742 0.34698 -2.25344 0
M  V30 3543 C 319.726 0.964469 -1.2879 0
M  V30 3544 O 320.918 0.8776 -1.53711 0
M  V30 3545 C 318.047 1.43042 -3.1208 0
M  V30 3546 C 317.133 0.82084 -4.16081 0
M  V30 3547 N 317.524 -0.0567602 -5.05768 0
M  V30 3548 C 315.822 1.08517 -4.32597 0
M  V30 3549 C 316.523 -0.402343 -5.80307 0
M  V30 3550 N 315.499 0.221607 -5.43148 0
M  V30 3551 H 319.301 -0.329129 -2.92051 0
M  V30 3552 H 316.815 -0.281508 -1.59942 0
M  V30 3553 H 318.812 2.02712 -3.64299 0
M  V30 3554 H 317.472 2.10856 -2.46921 0
M  V30 3555 H 318.483 -0.425349 -5.1615 0
M  V30 3556 H 315.16 1.75855 -3.78657 0
M  V30 3557 H 316.55 -1.11834 -6.62528 0
M  V30 3558 N 319.27 1.56325 -0.20005 0
M  V30 3559 C 320.518 1.97329 0.436547 0
M  V30 3560 C 320.839 1.08826 1.61808 0
M  V30 3561 O 320.109 0.160604 1.95241 0
M  V30 3562 H 318.689 0.728714 0.164272 0
M  V30 3563 H 321.351 1.92761 -0.287937 0
M  V30 3564 H 320.447 3.02264 0.777353 0
M  V30 3565 N 320.748 -0.0735177 1.57428 0
M  V30 3566 C 322.164 -0.428264 1.53747 0
M  V30 3567 C 322.364 -1.79272 0.91998 0
M  V30 3568 O 321.42 -2.47051 0.521745 0
M  V30 3569 C 322.733 -0.370914 2.98404 0
M  V30 3570 C 324.281 -0.451224 3.0973 0
M  V30 3571 C 324.756 -0.4238 4.56035 0
M  V30 3572 N 326.247 -0.483925 4.60665 0
M  V30 3573 C 326.982 -0.484891 5.71346 0
M  V30 3574 N 326.478 -0.440775 6.91396 0
M  V30 3575 N 328.271 -0.531319 5.59583 0
M  V30 3576 H 320.422 0.819949 1.95935 0
M  V30 3577 H 322.685 0.307493 0.896745 0
M  V30 3578 H 322.391 0.564956 3.47133 0
M  V30 3579 H 322.265 -1.18176 3.5821 0
M  V30 3580 H 324.652 -1.37752 2.60976 0
M  V30 3581 H 324.733 0.388167 2.52838 0
M  V30 3582 H 324.377 0.498638 5.05446 0
M  V30 3583 H 324.307 -1.2807 5.10789 0
M  V30 3584 H 326.798 -0.522338 3.74273 0
M  V30 3585 H 327.111 -0.44539 7.71515 0
M  V30 3586 H 325.456 -0.40749 6.93804 0
M  V30 3587 H 328.647 -0.563464 4.64696 0
M  V30 3588 H 328.82 -0.528603 6.4584 0
M  V30 3589 N 322.226 -1.5378 -0.344866 0
M  V30 3590 C 323.454 -1.74899 -1.10534 0
M  V30 3591 C 323.869 -0.487534 -1.82397 0
M  V30 3592 O 323.226 0.540741 -1.74305 0
M  V30 3593 C 323.277 -2.92822 -2.11984 0
M  V30 3594 O 322.998 -4.14089 -1.43044 0
M  V30 3595 C 324.499 -3.25982 -3.00417 0
M  V30 3596 H 321.719 -0.584426 -0.329678 0
M  V30 3597 H 324.263 -2.006 -0.397474 0
M  V30 3598 H 322.418 -2.69457 -2.78338 0
M  V30 3599 H 322.832 -4.80272 -2.10805 0
M  V30 3600 H 324.306 -4.11848 -3.67539 0
M  V30 3601 H 324.783 -2.42228 -3.66363 0
M  V30 3602 H 325.389 -3.51349 -2.39654 0
M  V30 3603 N 323.704 0.605807 -1.45491 0
M  V30 3604 C 324.929 1.39625 -1.53361 0
M  V30 3605 C 325.354 1.87351 -0.167645 0
M  V30 3606 O 324.712 1.60243 0.848051 0
M  V30 3607 C 324.76 2.57559 -2.5238 0
M  V30 3608 O 323.864 3.58248 -2.04285 0
M  V30 3609 H 323.205 0.416771 -0.516912 0
M  V30 3610 H 325.735 0.737103 -1.90861 0
M  V30 3611 H 325.745 3.0478 -2.71244 0
M  V30 3612 H 324.42 2.22171 -3.51586 0
M  V30 3613 H 322.997 3.17664 -1.95305 0
M  V30 3614 N 325.182 1.32811 0.848464 0
M  V30 3615 C 326.129 1.22265 1.95755 0
M  V30 3616 C 327.099 0.103413 1.65778 0
M  V30 3617 O 328.284 0.280033 1.88734 0
M  V30 3618 C 325.424 0.958014 3.31536 0
M  V30 3619 C 324.537 2.16262 3.73971 0
M  V30 3620 C 323.672 1.83295 4.98575 0
M  V30 3621 C 322.711 3.00041 5.33518 0
M  V30 3622 N 321.848 2.67125 6.49299 0
M  V30 3623 H 326.688 2.17128 2.04107 0
M  V30 3624 H 324.225 1.07982 0.998913 0
M  V30 3625 H 326.183 0.785052 4.09747 0
M  V30 3626 H 324.813 0.046159 3.22767 0
M  V30 3627 H 323.865 2.44565 2.91362 0
M  V30 3628 H 325.177 3.03572 3.95785 0
M  V30 3629 H 324.331 1.62586 5.84509 0
M  V30 3630 H 323.07 0.932078 4.7871 0
M  V30 3631 H 322.075 3.21374 4.46093 0
M  V30 3632 H 323.3 3.90869 5.55336 0
M  V30 3633 H 321.246 1.79586 6.3094 0
M  V30 3634 H 321.163 3.47965 6.71161 0
M  V30 3635 H 322.431 2.49861 7.3837 0
M  V30 3636 N 326.66 -1.06551 1.16123 0
M  V30 3637 C 327.59 -2.15935 0.88851 0
M  V30 3638 C 328.571 -1.69306 -0.164135 0
M  V30 3639 O 329.756 -1.94193 -0.0167857 0
M  V30 3640 C 326.886 -3.45149 0.385942 0
M  V30 3641 C 325.84 -4.05271 1.3762 0
M  V30 3642 C 325.166 -5.29664 0.732137 0
M  V30 3643 C 326.466 -4.44355 2.74493 0
M  V30 3644 H 328.16 -2.39006 1.80323 0
M  V30 3645 H 325.706 -1.14866 0.868435 0
M  V30 3646 H 327.659 -4.21004 0.182647 0
M  V30 3647 H 326.383 -3.21689 -0.564274 0
M  V30 3648 H 325.042 -3.3147 1.56599 0
M  V30 3649 H 324.69 -5.02499 -0.224483 0
M  V30 3650 H 324.39 -5.70848 1.39307 0
M  V30 3651 H 325.914 -6.08218 0.538802 0
M  V30 3652 H 327.328 -5.11303 2.59311 0
M  V30 3653 H 325.725 -4.96515 3.37035 0
M  V30 3654 H 326.795 -3.55339 3.29943 0
M  V30 3655 N 328.138 -0.959301 -1.25041 0
M  V30 3656 C 329.085 -0.482057 -2.2571 0
M  V30 3657 C 330.055 0.467939 -1.59372 0
M  V30 3658 O 331.24 0.380159 -1.86974 0
M  V30 3659 C 328.38 0.229623 -3.44335 0
M  V30 3660 C 327.493 -0.758156 -4.25295 0
M  V30 3661 C 326.628 -0.0234403 -5.31195 0
M  V30 3662 C 325.667 -1.00184 -6.03846 0
M  V30 3663 N 324.804 -0.29769 -7.01469 0
M  V30 3664 H 329.644 -1.34538 -2.65901 0
M  V30 3665 H 327.181 -0.674592 -1.3072 0
M  V30 3666 H 329.139 0.658856 -4.11965 0
M  V30 3667 H 327.769 1.05696 -3.05005 0
M  V30 3668 H 326.821 -1.30586 -3.57284 0
M  V30 3669 H 328.133 -1.50458 -4.75567 0
M  V30 3670 H 327.287 0.464201 -6.04922 0
M  V30 3671 H 326.026 0.755741 -4.81809 0
M  V30 3672 H 325.031 -1.50044 -5.2893 0
M  V30 3673 H 326.256 -1.78133 -6.55321 0
M  V30 3674 H 324.202 0.462668 -6.54366 0
M  V30 3675 H 324.119 -0.983128 -7.4958 0
M  V30 3676 H 325.387 0.16826 -7.79318 0
M  V30 3677 N 329.616 1.39756 -0.72842 0
M  V30 3678 C 331.027 1.83498 -0.344289 0
M  V30 3679 C 331.378 1.60868 1.12321 0
M  V30 3680 O 330.503 1.09634 1.86573 0
M  V30 3681 C 331.098 3.33114 -0.618112 0
M  V30 3682 C 329.657 3.753 -0.287549 0
M  V30 3683 C 328.804 2.62831 -0.884048 0
M  V30 3684 H 331.755 1.28842 -0.926578 0
M  V30 3685 H 331.776 3.80334 0.112349 0
M  V30 3686 H 331.288 3.49553 -1.68625 0
M  V30 3687 H 329.389 3.64451 0.775012 0
M  V30 3688 H 329.502 4.72945 -0.765512 0
M  V30 3689 H 327.866 2.52792 -0.311149 0
M  V30 3690 H 328.649 2.82078 -1.95671 0
M  V30 3691 N 331.094 0.475555 1.50254 0
M  V30 3692 C 332.041 -0.316293 2.28622 0
M  V30 3693 C 333.011 -0.983227 1.33873 0
M  V30 3694 O 334.196 -0.994805 1.62814 0
M  V30 3695 C 331.336 -1.38975 3.1588 0
M  V30 3696 C 330.449 -0.737146 4.25664 0
M  V30 3697 C 329.584 -1.78887 5.00173 0
M  V30 3698 C 328.623 -1.11676 6.01826 0
M  V30 3699 N 327.76 -2.11154 6.69596 0
M  V30 3700 H 332.6 0.358297 2.95838 0
M  V30 3701 H 330.137 0.188541 1.45887 0
M  V30 3702 H 332.095 -2.02383 3.64825 0
M  V30 3703 H 330.725 -2.03344 2.50701 0
M  V30 3704 H 329.777 0.0096065 3.80399 0
M  V30 3705 H 331.089 -0.206816 4.98371 0
M  V30 3706 H 330.243 -2.49865 5.52859 0
M  V30 3707 H 328.982 -2.35302 4.27182 0
M  V30 3708 H 327.987 -0.392633 5.48396 0
M  V30 3709 H 329.212 -0.55945 6.76792 0
M  V30 3710 H 327.158 -2.66577 5.99394 0
M  V30 3711 H 327.075 -1.63118 7.38193 0
M  V30 3712 H 328.343 -2.81497 7.26897 0
M  V30 3713 N 332.573 -1.56217 0.208337 0
M  V30 3714 C 333.819 -1.98242 -0.427552 0
M  V30 3715 C 334.152 -1.09554 -1.60348 0
M  V30 3716 O 333.427 -0.15035 -1.93918 0
M  V30 3717 C 333.71 -3.4931 -0.874907 0
M  V30 3718 C 333.563 -4.48773 0.303751 0
M  V30 3719 C 334.882 -4.04424 -1.73577 0
M  V30 3720 H 332.001 -0.720744 -0.153936 0
M  V30 3721 H 334.643 -1.87586 0.30192 0
M  V30 3722 H 332.793 -3.58522 -1.49648 0
M  V30 3723 H 334.465 -4.51586 0.941682 0
M  V30 3724 H 332.708 -4.23194 0.953375 0
M  V30 3725 H 333.379 -5.51976 -0.0519883 0
M  V30 3726 H 335.855 -3.98075 -1.21143 0
M  V30 3727 H 334.731 -5.1047 -2.01771 0
M  V30 3728 H 334.992 -3.50494 -2.69456 0
M  V30 3729 N 334.051 0.0651679 -1.57465 0
M  V30 3730 C 334.998 1.07675 -2.04144 0
M  V30 3731 C 335.968 1.38071 -0.923335 0
M  V30 3732 O 337.153 1.49026 -1.19146 0
M  V30 3733 C 334.293 2.38337 -2.49579 0
M  V30 3734 C 333.406 2.14413 -3.75035 0
M  V30 3735 C 332.541 3.38686 -4.09225 0
M  V30 3736 C 331.58 3.10156 -5.27702 0
M  V30 3737 N 330.717 4.26778 -5.57499 0
M  V30 3738 H 335.557 0.671716 -2.90331 0
M  V30 3739 H 333.094 0.3201 -1.43575 0
M  V30 3740 H 335.052 3.14632 -2.73975 0
M  V30 3741 H 333.682 2.7663 -1.6636 0
M  V30 3742 H 332.734 1.2878 -3.57939 0
M  V30 3743 H 334.046 1.89344 -4.61466 0
M  V30 3744 H 333.2 4.23373 -4.34558 0
M  V30 3745 H 331.939 3.66837 -3.21374 0
M  V30 3746 H 330.944 2.23866 -5.02159 0
M  V30 3747 H 332.169 2.8332 -6.17176 0
M  V30 3748 H 330.115 4.54948 -4.72608 0
M  V30 3749 H 330.032 4.05005 -6.38362 0
M  V30 3750 H 331.3 5.12443 -5.87386 0
M  V30 3751 N 335.529 1.53961 0.336706 0
M  V30 3752 C 336.439 1.85432 1.43708 0
M  V30 3753 C 337.455 0.745053 1.57242 0
M  V30 3754 O 338.631 1.03804 1.72588 0
M  V30 3755 C 335.696 2.06349 2.78605 0
M  V30 3756 C 334.757 3.30191 2.74358 0
M  V30 3757 C 333.99 3.50101 4.02822 0
M  V30 3758 O 334.213 2.7371 5.00439 0
M  V30 3759 O 333.147 4.43547 4.06878 0
M  V30 3760 H 336.973 2.78975 1.20028 0
M  V30 3761 H 334.558 1.39701 0.52952 0
M  V30 3762 H 336.44 2.21513 3.58483 0
M  V30 3763 H 335.115 1.15995 3.02203 0
M  V30 3764 H 334.022 3.20425 1.93078 0
M  V30 3765 H 335.355 4.2056 2.55715 0
M  V30 3766 N 337.007 -0.598083 1.45811 0
M  V30 3767 C 337.954 -1.7082 1.55207 0
M  V30 3768 C 338.924 -1.61278 0.39732 0
M  V30 3769 O 340.109 -1.80717 0.612038 0
M  V30 3770 C 337.249 -3.09144 1.53376 0
M  V30 3771 C 336.362 -3.29423 2.79472 0
M  V30 3772 C 335.497 -4.57907 2.69248 0
M  V30 3773 C 334.536 -4.71476 3.90354 0
M  V30 3774 N 333.673 -5.9127 3.78608 0
M  V30 3775 H 338.513 -1.62125 2.50039 0
M  V30 3776 H 336.05 -0.790389 1.24062 0
M  V30 3777 H 338.008 -3.89186 1.50301 0
M  V30 3778 H 336.638 -3.16773 0.620876 0
M  V30 3779 H 335.69 -2.43091 2.92594 0
M  V30 3780 H 337.002 -3.3532 3.69272 0
M  V30 3781 H 336.156 -5.46157 2.64192 0
M  V30 3782 H 334.895 -4.54423 1.77063 0
M  V30 3783 H 333.9 -3.81648 3.95759 0
M  V30 3784 H 335.125 -4.76751 4.83617 0
M  V30 3785 H 333.071 -5.88813 2.89199 0
M  V30 3786 H 332.988 -5.98369 4.6205 0
M  V30 3787 H 334.256 -6.81992 3.77501 0
M  V30 3788 N 338.485 -1.33259 -0.841409 0
M  V30 3789 C 339.71 -1.2775 -1.63385 0
M  V30 3790 C 340.135 0.149188 -1.87507 0
M  V30 3791 O 339.493 1.10498 -1.43736 0
M  V30 3792 C 339.541 -2.05571 -2.96265 0
M  V30 3793 O 338.645 -1.41257 -3.87453 0
M  V30 3794 H 337.986 -0.439627 -0.497618 0
M  V30 3795 H 340.516 -1.75782 -1.04699 0
M  V30 3796 H 340.526 -2.16241 -3.45982 0
M  V30 3797 H 339.201 -3.09309 -2.7803 0
M  V30 3798 H 337.778 -1.39217 -3.45938 0
M  V30 3799 N 339.963 1.05934 -1.16686 0
M  V30 3800 C 341.212 1.78188 -0.945085 0
M  V30 3801 C 341.525 1.88338 0.528021 0
M  V30 3802 O 342.731 2.57258 0.867799 0
M  V30 3803 C 341.187 3.20277 -1.64167 0
M  V30 3804 C 340.795 3.18281 -3.15279 0
M  V30 3805 C 342.539 3.97039 -1.502 0
M  V30 3806 C 340.446 4.55112 -3.7766 0
M  V30 3807 H 339.376 0.667866 -0.349959 0
M  V30 3808 H 342.027 1.18794 -1.39858 0
M  V30 3809 H 340.409 3.79952 -1.11589 0
M  V30 3810 H 341.583 2.68167 -3.74731 0
M  V30 3811 H 339.898 2.55018 -3.29173 0
M  V30 3812 H 342.495 4.98194 -1.94183 0
M  V30 3813 H 342.838 4.13845 -0.451461 0
M  V30 3814 H 343.371 3.43894 -1.99954 0
M  V30 3815 H 340.11 4.43512 -4.82677 0
M  V30 3816 H 339.63 5.05406 -3.22994 0
M  V30 3817 H 341.309 5.24064 -3.79428 0
M  V30 3818 N 341.441 0.965919 1.2453 0
M  V30 3819 C 342.857 0.67216 1.44756 0
M  V30 3820 C 343.057 -0.766609 1.86347 0
M  V30 3821 O 342.113 -1.5407 2.00047 0
M  V30 3822 C 343.426 1.65473 2.51076 0
M  V30 3823 C 344.974 1.66716 2.64905 0
M  V30 3824 C 345.449 2.63766 3.74421 0
M  V30 3825 N 346.94 2.62198 3.81846 0
M  V30 3826 C 347.675 3.33966 4.66106 0
M  V30 3827 N 347.171 4.15245 5.54566 0
M  V30 3828 N 348.964 3.22799 4.60171 0
M  V30 3829 H 341.115 1.89553 0.958293 0
M  V30 3830 H 343.378 0.815979 0.482579 0
M  V30 3831 H 343.084 2.68296 2.27399 0
M  V30 3832 H 342.958 1.4261 3.49202 0
M  V30 3833 H 345.345 0.646057 2.87941 0
M  V30 3834 H 345.426 1.93642 1.67142 0
M  V30 3835 H 345.07 3.6601 3.52135 0
M  V30 3836 H 345 2.34121 4.71694 0
M  V30 3837 H 347.491 2.032 3.18619 0
M  V30 3838 H 347.804 4.66898 6.15814 0
M  V30 3839 H 346.149 4.1934 5.54237 0
M  V30 3840 H 349.34 2.58764 3.90075 0
M  V30 3841 H 349.513 3.78994 5.25612 0
M  V30 3842 N 342.919 -1.39368 0.735821 0
M  V30 3843 C 344.168 -1.99733 0.281004 0
M  V30 3844 C 344.481 -1.59055 -1.13846 0
M  V30 3845 O 345.687 -2.12262 -1.69284 0
M  V30 3846 C 344.143 -3.57057 0.451462 0
M  V30 3847 C 343.751 -4.06697 1.87886 0
M  V30 3848 C 345.495 -4.2446 0.0584616 0
M  V30 3849 C 343.402 -5.56598 1.99883 0
M  V30 3850 H 342.332 -0.747163 0.101311 0
M  V30 3851 H 344.983 -1.59357 0.909819 0
M  V30 3852 H 343.365 -3.95234 -0.246263 0
M  V30 3853 H 344.539 -3.79853 2.60861 0
M  V30 3854 H 342.854 -3.5196 2.22515 0
M  V30 3855 H 345.451 -5.34549 0.127099 0
M  V30 3856 H 345.794 -4.04444 -0.986433 0
M  V30 3857 H 346.327 -3.9146 0.707374 0
M  V30 3858 H 343.066 -5.81494 3.02564 0
M  V30 3859 H 342.586 -5.85242 1.31346 0
M  V30 3860 H 344.265 -6.22022 1.78039 0
M  V30 3861 N 344.397 -0.483516 -1.5 0
M  V30 3862 C 345.646 0.0689102 -2.01582 0
M  V30 3863 C 345.959 1.39655 -1.36952 0
M  V30 3864 O 347.165 2.03465 -1.79762 0
M  V30 3865 C 345.621 0.173302 -3.59483 0
M  V30 3866 C 345.229 -1.14665 -4.33077 0
M  V30 3867 C 346.973 0.677024 -4.19066 0
M  V30 3868 C 344.88 -1.00537 -5.82792 0
M  V30 3869 H 343.81 0.0295277 -0.753422 0
M  V30 3870 H 346.461 -0.620295 -1.72698 0
M  V30 3871 H 344.843 0.926569 -3.85007 0
M  V30 3872 H 346.017 -1.91184 -4.19268 0
M  V30 3873 H 344.332 -1.58244 -3.85159 0
M  V30 3874 H 346.929 0.799952 -5.28682 0
M  V30 3875 H 347.272 1.67151 -3.81269 0
M  V30 3876 H 347.805 -0.0192083 -3.97795 0
M  V30 3877 H 344.544 -1.9736 -6.25083 0
M  V30 3878 H 344.064 -0.280776 -5.99142 0
M  V30 3879 H 345.743 -0.677 -6.43448 0
M  V30 3880 N 345.875 1.56104 -0.216619 0
M  V30 3881 C 347.124 1.97348 0.416744 0
M  V30 3882 C 347.437 1.10715 1.6125 0
M  V30 3883 O 348.643 1.41836 2.31506 0
M  V30 3884 C 347.099 3.51059 0.792835 0
M  V30 3885 C 346.707 4.46387 -0.379828 0
M  V30 3886 C 348.451 4.01026 1.39208 0
M  V30 3887 C 346.358 5.91397 0.0184223 0
M  V30 3888 H 345.288 0.736942 0.159475 0
M  V30 3889 H 347.939 1.80827 -0.31205 0
M  V30 3890 H 346.321 3.63162 1.57891 0
M  V30 3891 H 347.495 4.46029 -1.15737 0
M  V30 3892 H 345.81 4.06734 -0.891979 0
M  V30 3893 H 348.407 5.0686 1.70286 0
M  V30 3894 H 348.75 3.46587 2.30614 0
M  V30 3895 H 349.283 3.92125 0.669537 0
M  V30 3896 H 346.022 6.49807 -0.862002 0
M  V30 3897 H 345.542 5.94961 0.760384 0
M  V30 3898 H 347.221 6.45455 0.446818 0
M  V30 3899 N 347.353 -0.0568162 1.57498 0
M  V30 3900 C 348.581 -0.765626 1.92213 0
M  V30 3901 C 348.996 -1.70353 0.813961 0
M  V30 3902 O 348.353 -1.81268 -0.211701 0
M  V30 3903 C 348.404 -1.5465 3.2675 0
M  V30 3904 O 348.125 -0.646278 4.33307 0
M  V30 3905 C 349.626 -2.35497 3.75574 0
M  V30 3906 H 346.846 -0.216835 0.634999 0
M  V30 3907 H 349.39 -0.0226146 2.04487 0
M  V30 3908 H 347.545 -2.24165 3.15957 0
M  V30 3909 H 347.959 -1.19093 5.108 0
M  V30 3910 H 349.433 -2.85722 4.72299 0
M  V30 3911 H 349.91 -3.15692 3.05344 0
M  V30 3912 H 350.516 -1.7111 3.8936 0
M  V30 3913 N 348.832 -1.54138 -0.328536 0
M  V30 3914 C 349.762 -1.86167 -1.40939 0
M  V30 3915 C 350.743 -0.718044 -1.54202 0
M  V30 3916 O 351.928 -0.971328 -1.68163 0
M  V30 3917 C 349.058 -2.08461 -2.77779 0
M  V30 3918 C 348.012 -3.24299 -2.7931 0
M  V30 3919 C 347.338 -3.31955 -4.19178 0
M  V30 3920 C 348.638 -4.62065 -2.43502 0
M  V30 3921 H 350.332 -2.76689 -1.14383 0
M  V30 3922 H 347.878 -1.33132 -0.548806 0
M  V30 3923 H 349.831 -2.29453 -3.53454 0
M  V30 3924 H 348.555 -1.14684 -3.05802 0
M  V30 3925 H 347.214 -3.03187 -2.0609 0
M  V30 3926 H 346.862 -2.35745 -4.44335 0
M  V30 3927 H 346.562 -4.09805 -4.2111 0
M  V30 3928 H 348.086 -3.55175 -4.96672 0
M  V30 3929 H 349.5 -4.8297 -3.08889 0
M  V30 3930 H 347.897 -5.42429 -2.56693 0
M  V30 3931 H 348.967 -4.64652 -1.38659 0
M  V30 3932 N 350.31 0.590341 -1.46126 0
M  V30 3933 C 351.24 1.71032 -1.58966 0
M  V30 3934 C 352.221 1.64302 -0.440335 0
M  V30 3935 O 353.406 1.82436 -0.665634 0
M  V30 3936 C 350.536 3.09665 -1.57241 0
M  V30 3937 C 349.49 3.31221 -2.71066 0
M  V30 3938 C 348.816 4.70303 -2.54399 0
M  V30 3939 C 350.116 3.19796 -4.1295 0
M  V30 3940 H 351.81 1.60543 -2.52718 0
M  V30 3941 H 349.356 0.770933 -1.21625 0
M  V30 3942 H 351.309 3.87831 -1.64819 0
M  V30 3943 H 350.033 3.21036 -0.600289 0
M  V30 3944 H 348.692 2.55452 -2.62944 0
M  V30 3945 H 348.34 4.78429 -1.55288 0
M  V30 3946 H 348.04 4.85679 -3.30741 0
M  V30 3947 H 349.564 5.50647 -2.63857 0
M  V30 3948 H 350.978 3.87815 -4.22223 0
M  V30 3949 H 349.375 3.46696 -4.89818 0
M  V30 3950 H 350.445 2.16983 -4.33643 0
M  V30 3951 N 351.788 1.33704 0.83433 0
M  V30 3952 C 353.034 1.25603 1.59222 0
M  V30 3953 C 353.367 -0.176659 1.93395 0
M  V30 3954 O 352.642 -1.11915 1.59076 0
M  V30 3955 C 352.925 2.13576 2.89926 0
M  V30 3956 C 352.778 3.65326 2.62406 0
M  V30 3957 C 354.097 2.01238 3.91397 0
M  V30 3958 H 351.216 0.457613 0.577719 0
M  V30 3959 H 353.858 1.63848 0.961972 0
M  V30 3960 H 352.008 1.8109 3.43713 0
M  V30 3961 H 353.68 4.08124 2.15017 0
M  V30 3962 H 351.923 3.8698 1.96033 0
M  V30 3963 H 352.594 4.22232 3.55562 0
M  V30 3964 H 355.07 2.29738 3.46929 0
M  V30 3965 H 353.946 2.65036 4.80673 0
M  V30 3966 H 354.207 0.985951 4.30966 0
M  V30 3967 N 353.266 -1.05314 1.17247 0
M  V30 3968 C 354.198 -2.13023 0.845812 0
M  V30 3969 C 355.211 -1.62096 -0.151246 0
M  V30 3970 O 356.4 -1.78343 0.0748818 0
M  V30 3971 C 353.5 -3.38047 0.240292 0
M  V30 3972 C 352.673 -4.18255 1.27991 0
M  V30 3973 C 351.732 -5.21625 0.692375 0
M  V30 3974 O 350.758 -5.52619 1.36385 0
M  V30 3975 N 351.96 -5.78201 -0.516178 0
M  V30 3976 H 354.725 -2.41642 1.77283 0
M  V30 3977 H 352.286 -1.21401 1.07115 0
M  V30 3978 H 354.278 -4.04359 -0.16603 0
M  V30 3979 H 352.848 -3.06972 -0.590487 0
M  V30 3980 H 352.068 -3.47451 1.86203 0
M  V30 3981 H 353.356 -4.68643 1.98119 0
M  V30 3982 H 352.754 -5.55301 -1.07969 0
M  V30 3983 H 351.311 -6.4604 -0.86458 0
M  V30 3984 N 354.744 -0.972509 -1.24016 0
M  V30 3985 C 355.99 -0.637978 -1.92504 0
M  V30 3986 C 356.323 0.825383 -1.75787 0
M  V30 3987 O 355.598 1.59442 -1.11393 0
M  V30 3988 C 355.881 -1.01942 -3.45369 0
M  V30 3989 C 355.734 -2.53983 -3.71231 0
M  V30 3990 C 357.053 -0.55751 -4.36555 0
M  V30 3991 H 354.172 -0.233248 -0.699117 0
M  V30 3992 H 356.814 -1.21238 -1.46292 0
M  V30 3993 H 354.964 -0.530656 -3.84859 0
M  V30 3994 H 356.636 -3.10374 -3.41271 0
M  V30 3995 H 354.879 -2.96968 -3.16216 0
M  V30 3996 H 355.55 -2.75723 -4.78206 0
M  V30 3997 H 358.026 -0.977029 -4.04467 0
M  V30 3998 H 356.902 -0.85292 -5.42233 0
M  V30 3999 H 357.163 0.542328 -4.38761 0
M  V30 4000 N 356.222 1.38976 -0.743202 0
M  V30 4001 C 357.152 2.33171 -0.123873 0
M  V30 4002 C 358.133 1.54336 0.71516 0
M  V30 4003 O 359.318 1.82696 0.658467 0
M  V30 4004 C 356.448 3.38474 0.777978 0
M  V30 4005 C 355.402 4.27979 0.0424758 0
M  V30 4006 C 354.728 5.2405 1.06189 0
M  V30 4007 C 356.028 5.10155 -1.1198 0
M  V30 4008 H 357.722 2.85213 -0.910709 0
M  V30 4009 H 355.268 1.37133 -0.439388 0
M  V30 4010 H 357.221 4.03328 1.22084 0
M  V30 4011 H 355.945 2.84891 1.59702 0
M  V30 4012 H 354.604 3.64616 -0.380853 0
M  V30 4013 H 354.252 4.66758 1.87472 0
M  V30 4014 H 353.952 5.84785 0.574485 0
M  V30 4015 H 355.476 5.9178 1.50428 0
M  V30 4016 H 356.89 5.68307 -0.75499 0
M  V30 4017 H 355.287 5.80073 -1.53738 0
M  V30 4018 H 356.357 4.44504 -1.93764 0
M  V30 4019 N 357.7 0.491464 1.49741 0
M  V30 4020 C 358.946 -0.0565092 2.02721 0
M  V30 4021 C 359.279 -1.37522 1.37118 0
M  V30 4022 O 358.554 -1.87866 0.503645 0
M  V30 4023 C 358.837 -0.219051 3.59433 0
M  V30 4024 C 358.69 1.12211 4.35579 0
M  V30 4025 C 360.009 -0.964157 4.29409 0
M  V30 4026 H 357.128 -0.0190627 0.736753 0
M  V30 4027 H 359.77 0.641021 1.7886 0
M  V30 4028 H 357.92 -0.813165 3.79895 0
M  V30 4029 H 359.592 1.75437 4.26637 0
M  V30 4030 H 357.835 1.71377 3.98513 0
M  V30 4031 H 358.506 0.961794 5.43556 0
M  V30 4032 H 360.982 -0.460378 4.13545 0
M  V30 4033 H 359.858 -1.04671 5.38828 0
M  V30 4034 H 360.119 -2.00563 3.93988 0
M  V30 4035 N 359.178 -1.55987 0.224894 0
M  V30 4036 C 360.418 -2.00293 -0.407706 0
M  V30 4037 C 360.782 -1.1093 -1.56711 0
M  V30 4038 O 361.983 -1.44597 -2.26595 0
M  V30 4039 C 360.254 -3.47675 -0.82805 0
M  V30 4040 S 361.813 -4.14 -1.45429 0
M  V30 4041 H 358.631 -0.699152 -0.129256 0
M  V30 4042 H 361.233 -1.92609 0.334967 0
M  V30 4043 H 359.937 -4.10392 0.0253964 0
M  V30 4044 H 359.468 -3.59239 -1.60345 0
M  V30 4045 H 361.483 -4.13465 -2.74337 0
M  V30 4046 N 360.656 0.0484629 -1.57525 0
M  V30 4047 C 361.903 0.743125 -1.88372 0
M  V30 4048 C 362.231 1.76383 -0.819715 0
M  V30 4049 O 361.486 1.94855 0.181659 0
M  V30 4050 C 361.785 1.46632 -3.25935 0
M  V30 4051 C 361.451 0.583427 -4.4711 0
M  V30 4052 C 360.113 0.340191 -4.79996 0
M  V30 4053 C 362.465 -0.0273345 -5.21193 0
M  V30 4054 C 359.793 -0.522903 -5.84365 0
M  V30 4055 C 362.145 -0.878017 -6.26477 0
M  V30 4056 C 360.809 -1.1309 -6.5785 0
M  V30 4057 H 360.079 0.271929 -0.689301 0
M  V30 4058 H 362.726 0.00336166 -1.915 0
M  V30 4059 H 361.031 2.2789 -3.18706 0
M  V30 4060 H 362.728 2.00902 -3.47044 0
M  V30 4061 H 359.318 0.783151 -4.21384 0
M  V30 4062 H 363.502 0.147654 -4.9608 0
M  V30 4063 H 358.758 -0.727335 -6.07058 0
M  V30 4064 H 362.932 -1.35789 -6.83033 0
M  V30 4065 H 360.559 -1.80144 -7.38547 0
M  V30 4066 N 362.134 1.5431 0.320358 0
M  V30 4067 C 363.067 1.78769 1.41834 0
M  V30 4068 C 364.045 0.63783 1.49568 0
M  V30 4069 O 365.229 0.875628 1.66928 0
M  V30 4070 C 362.356 1.90712 2.79905 0
M  V30 4071 C 361.402 3.13023 2.89687 0
M  V30 4072 S 362.235 4.71554 2.53766 0
M  V30 4073 C 363.391 4.86408 3.93902 0
M  V30 4074 H 363.624 2.71619 1.20874 0
M  V30 4075 H 361.157 1.45474 0.517377 0
M  V30 4076 H 363.115 1.98279 3.59438 0
M  V30 4077 H 361.776 0.988343 2.98145 0
M  V30 4078 H 360.969 3.18124 3.90913 0
M  V30 4079 H 360.571 3.03803 2.18128 0
M  V30 4080 H 362.863 4.69241 4.88691 0
M  V30 4081 H 363.806 5.88508 3.93782 0
M  V30 4082 H 364.214 4.14689 3.83005 0
M  V30 4083 N 363.613 -0.582584 1.46437 0
M  V30 4084 C 365.024 -1.1647 1.45916 0
M  V30 4085 C 365.375 -1.95177 0.200077 0
M  V30 4086 O 364.5 -2.04874 -0.696819 0
M  V30 4087 C 365.095 -2.11885 2.64367 0
M  V30 4088 C 363.654 -2.65421 2.66887 0
M  V30 4089 C 362.801 -1.41294 2.38603 0
M  V30 4090 H 365.752 -0.370514 1.54314 0
M  V30 4091 H 365.773 -2.9535 2.39892 0
M  V30 4092 H 365.285 -1.54573 3.5599 0
M  V30 4093 H 363.386 -3.26602 1.79338 0
M  V30 4094 H 363.499 -3.08147 3.66854 0
M  V30 4095 H 361.863 -1.71109 1.88663 0
M  V30 4096 H 362.646 -0.858125 3.32402 0
M  V30 4097 N 365.091 -1.34144 -0.827227 0
M  V30 4098 C 366.338 -1.26258 -1.58319 0
M  V30 4099 C 366.666 0.168595 -1.93768 0
M  V30 4100 O 365.921 1.12877 -1.59866 0
M  V30 4101 C 366.22 -2.09464 -2.89585 0
M  V30 4102 C 365.886 -3.58521 -2.73448 0
M  V30 4103 C 364.548 -3.99155 -2.68754 0
M  V30 4104 C 366.9 -4.53189 -2.57428 0
M  V30 4105 C 364.228 -5.32656 -2.45957 0
M  V30 4106 C 366.58 -5.86864 -2.36163 0
M  V30 4107 C 365.244 -6.26667 -2.29879 0
M  V30 4108 H 364.514 -0.462013 -0.579332 0
M  V30 4109 H 367.161 -1.65845 -0.95748 0
M  V30 4110 H 365.466 -1.62692 -3.56425 0
M  V30 4111 H 367.163 -2.00712 -3.47154 0
M  V30 4112 H 363.753 -3.26264 -2.77939 0
M  V30 4113 H 367.937 -4.22696 -2.60081 0
M  V30 4114 H 363.193 -5.62519 -2.39546 0
M  V30 4115 H 367.367 -6.59813 -2.22754 0
M  V30 4116 H 364.994 -7.30049 -2.11975 0
M  V30 4117 N 366.569 1.04691 -1.17803 0
M  V30 4118 C 367.519 2.10856 -0.867391 0
M  V30 4119 C 368.503 1.601 0.160206 0
M  V30 4120 O 369.695 1.76948 -0.042947 0
M  V30 4121 C 366.824 3.411 -0.388012 0
M  V30 4122 C 365.91 3.9864 -1.44732 0
M  V30 4123 N 366.301 4.30075 -2.66212 0
M  V30 4124 C 364.599 4.26439 -1.30637 0
M  V30 4125 C 365.3 4.76033 -3.34317 0
M  V30 4126 N 364.276 4.76462 -2.61696 0
M  V30 4127 H 368.078 2.33029 -1.79094 0
M  V30 4128 H 365.592 1.22386 -1.0675 0
M  V30 4129 H 367.589 4.16641 -0.146994 0
M  V30 4130 H 366.249 3.20357 0.529271 0
M  V30 4131 H 367.26 4.19917 -3.03134 0
M  V30 4132 H 363.937 4.15056 -0.451129 0
M  V30 4133 H 365.327 5.09427 -4.38103 0
M  V30 4134 N 368.047 0.979072 1.23499 0
M  V30 4135 C 369.296 0.642751 1.91185 0
M  V30 4136 C 369.609 -0.827253 1.77245 0
M  V30 4137 O 370.815 -1.27458 2.39722 0
M  V30 4138 C 369.271 1.09901 3.42709 0
M  V30 4139 C 368.879 2.59327 3.65313 0
M  V30 4140 C 370.623 0.836371 4.16179 0
M  V30 4141 C 368.53 2.98627 5.10467 0
M  V30 4142 H 367.46 0.236698 0.715884 0
M  V30 4143 H 370.111 1.1868 1.39955 0
M  V30 4144 H 368.493 0.48319 3.93041 0
M  V30 4145 H 369.667 3.26136 3.25533 0
M  V30 4146 H 367.982 2.83323 3.05151 0
M  V30 4147 H 370.579 1.10586 5.23139 0
M  V30 4148 H 370.922 -0.227509 4.15678 0
M  V30 4149 H 371.455 1.41371 3.71832 0
M  V30 4150 H 368.194 4.04133 5.16098 0
M  V30 4151 H 367.714 2.3651 5.51201 0
M  V30 4152 H 369.393 2.89159 5.78788 0
M  V30 4153 N 369.525 -1.3858 0.750561 0
M  V30 4154 C 370.765 -2.02032 0.310258 0
M  V30 4155 C 371.129 -1.58288 -1.08668 0
M  V30 4156 O 372.33 -2.14049 -1.62593 0
M  V30 4157 C 370.601 -3.54856 0.425647 0
M  V30 4158 S 372.16 -4.38748 0.0674797 0
M  V30 4159 H 368.978 -0.700705 0.120554 0
M  V30 4160 H 371.58 -1.69134 0.980512 0
M  V30 4161 H 370.284 -3.84182 1.44335 0
M  V30 4162 H 369.815 -3.92527 -0.261894 0
M  V30 4163 H 371.83 -4.82835 -1.14388 0
M  V30 4164 N 371.003 -0.499398 -1.49478 0
M  V30 4165 C 372.25 0.0456899 -2.02448 0
M  V30 4166 C 372.578 1.37142 -1.37921 0
M  V30 4167 O 371.833 1.89111 -0.503544 0
M  V30 4168 C 372.132 0.248424 -3.56536 0
M  V30 4169 C 371.798 -0.999107 -4.39692 0
M  V30 4170 C 370.46 -1.34108 -4.62135 0
M  V30 4171 C 372.812 -1.82842 -4.88076 0
M  V30 4172 C 370.14 -2.51191 -5.30208 0
M  V30 4173 C 372.492 -2.99076 -5.57437 0
M  V30 4174 C 371.156 -3.33655 -5.78127 0
M  V30 4175 H 370.426 0.0167191 -0.740811 0
M  V30 4176 H 373.073 -0.65923 -1.79795 0
M  V30 4177 H 371.378 1.03586 -3.77859 0
M  V30 4178 H 373.075 0.684605 -3.95113 0
M  V30 4179 H 369.665 -0.722729 -4.22463 0
M  V30 4180 H 373.849 -1.57737 -4.70566 0
M  V30 4181 H 369.105 -2.78221 -5.44429 0
M  V30 4182 H 373.279 -3.63664 -5.93904 0
M  V30 4183 H 370.906 -4.24483 -6.30649 0
M  V30 4184 N 372.481 1.55866 -0.233164 0
M  V30 4185 C 373.444 2.1953 0.658715 0
M  V30 4186 C 374.444 1.16053 1.11303 0
M  V30 4187 O 375.634 1.41218 1.01996 0
M  V30 4188 C 372.766 2.82791 1.90373 0
M  V30 4189 H 373.959 2.99721 0.10347 0
M  V30 4190 H 371.512 1.56291 0.0164245 0
M  V30 4191 H 372.247 2.06501 2.50056 0
M  V30 4192 H 372.032 3.58578 1.58632 0
M  V30 4193 H 373.522 3.31556 2.53891 0
M  V30 4194 N 373.959 -0.0401083 1.57549 0
M  V30 4195 C 375.206 -0.733125 1.88763 0
M  V30 4196 C 375.534 -1.75946 0.829058 0
M  V30 4197 O 374.789 -1.94949 -0.171323 0
M  V30 4198 C 375.088 -1.44902 3.26708 0
M  V30 4199 C 374.754 -0.559707 4.47413 0
M  V30 4200 C 373.416 -0.314731 4.8017 0
M  V30 4201 C 375.768 0.0549743 5.21171 0
M  V30 4202 C 373.096 0.553886 5.8408 0
M  V30 4203 C 375.448 0.911229 6.26003 0
M  V30 4204 C 374.112 1.16577 6.57241 0
M  V30 4205 H 373.382 -0.268269 0.690733 0
M  V30 4206 H 376.029 0.00679408 1.91499 0
M  V30 4207 H 374.334 -2.26197 3.1991 0
M  V30 4208 H 376.031 -1.99058 3.48105 0
M  V30 4209 H 372.621 -0.760793 4.21794 0
M  V30 4210 H 376.805 -0.121344 4.96152 0
M  V30 4211 H 372.061 0.759518 6.06664 0
M  V30 4212 H 376.235 1.3941 6.82303 0
M  V30 4213 H 373.862 1.84058 7.37582 0
M  V30 4214 N 375.437 -1.54477 -0.31217 0
M  V30 4215 C 376.367 -1.87652 -1.38957 0
M  V30 4216 C 377.348 -0.734358 -1.53431 0
M  V30 4217 O 378.533 -0.98911 -1.67123 0
M  V30 4218 C 375.663 -2.11396 -2.75552 0
M  V30 4219 C 374.617 -3.27243 -2.75855 0
M  V30 4220 C 373.943 -3.36382 -4.15633 0
M  V30 4221 C 375.243 -4.64622 -2.38587 0
M  V30 4222 H 376.937 -2.77887 -1.11442 0
M  V30 4223 H 374.483 -1.33707 -0.534655 0
M  V30 4224 H 376.436 -2.33189 -3.51 0
M  V30 4225 H 375.16 -1.17921 -3.04569 0
M  V30 4226 H 373.819 -3.05356 -2.02863 0
M  V30 4227 H 373.467 -2.40445 -4.41809 0
M  V30 4228 H 373.167 -4.14249 -4.1674 0
M  V30 4229 H 374.691 -3.60422 -4.92877 0
M  V30 4230 H 376.105 -4.86219 -3.03749 0
M  V30 4231 H 374.502 -5.45121 -2.50925 0
M  V30 4232 H 375.572 -4.66097 -1.33723 0
M  V30 4233 N 376.915 0.57481 -1.46744 0
M  V30 4234 C 377.848 1.69827 -1.52427 0
M  V30 4235 C 378.826 1.58151 -0.377744 0
M  V30 4236 O 380.01 1.79257 -0.58303 0
M  V30 4237 C 377.137 3.07943 -1.41027 0
M  V30 4238 C 376.183 3.38116 -2.59961 0
M  V30 4239 S 377.016 3.29313 -4.22272 0
M  V30 4240 C 378.172 4.69953 -4.13394 0
M  V30 4241 H 378.405 1.64748 -2.47478 0
M  V30 4242 H 375.938 0.754203 -1.34726 0
M  V30 4243 H 377.896 3.87619 -1.35137 0
M  V30 4244 H 376.557 3.10504 -0.473909 0
M  V30 4245 H 375.75 4.38762 -2.47999 0
M  V30 4246 H 375.352 2.66024 -2.62882 0
M  V30 4247 H 377.644 5.60517 -3.80562 0
M  V30 4248 H 378.587 4.86972 -5.14066 0
M  V30 4249 H 378.995 4.47174 -3.44522 0
M  V30 4250 N 378.394 1.34581 0.820102 0
M  V30 4251 C 379.324 1.29038 1.94606 0
M  V30 4252 C 380.305 0.1673 1.69275 0
M  V30 4253 O 381.49 0.360112 1.90832 0
M  V30 4254 C 378.62 1.04793 3.31113 0
M  V30 4255 C 377.574 2.13597 3.70891 0
M  V30 4256 C 376.9 1.74537 5.05412 0
M  V30 4257 C 378.2 3.55451 3.8269 0
M  V30 4258 H 379.894 2.23248 1.99501 0
M  V30 4259 H 377.44 1.0747 0.958449 0
M  V30 4260 H 379.393 0.995592 4.0947 0
M  V30 4261 H 378.117 0.0702565 3.26524 0
M  V30 4262 H 376.776 2.17905 2.9481 0
M  V30 4263 H 376.424 0.754226 4.97313 0
M  V30 4264 H 376.124 2.47361 5.32997 0
M  V30 4265 H 377.648 1.70803 5.86224 0
M  V30 4266 H 379.062 3.5354 4.51312 0
M  V30 4267 H 377.459 4.26922 4.21732 0
M  V30 4268 H 378.529 3.92587 2.84611 0
M  V30 4269 N 379.872 -1.04064 1.18357 0
M  V30 4270 C 381.12 -1.76915 0.977013 0
M  V30 4271 C 381.441 -1.88624 -0.494577 0
M  V30 4272 O 380.711 -1.41125 -1.3587 0
M  V30 4273 H 379.291 -0.65535 0.358504 0
M  V30 4274 H 381.953 -1.25592 1.49039 0
M  V30 4275 H 381.049 -2.78178 1.41504 0
M  V30 4276 N 381.35 -0.985608 -1.22978 0
M  V30 4277 C 382.578 -0.675582 -1.95559 0
M  V30 4278 C 382.993 0.758413 -1.72897 0
M  V30 4279 O 382.35 1.51094 -1.02357 0
M  V30 4280 C 382.401 -0.96293 -3.48439 0
M  V30 4281 O 382.122 -2.34057 -3.70336 0
M  V30 4282 C 383.623 -0.669585 -4.38214 0
M  V30 4283 H 380.843 -0.250523 -0.622478 0
M  V30 4284 H 383.387 -1.3184 -1.56328 0
M  V30 4285 H 381.542 -0.366033 -3.85667 0
M  V30 4286 H 381.956 -2.43424 -4.64591 0
M  V30 4287 H 383.43 -0.920967 -5.44263 0
M  V30 4288 H 383.907 0.396383 -4.37408 0
M  V30 4289 H 384.513 -1.2472 -4.06602 0
M  V30 4290 N 382.828 1.3818 -0.7579 0
M  V30 4291 C 384.076 1.99624 -0.315361 0
M  V30 4292 C 384.397 1.60464 1.10799 0
M  V30 4293 O 383.667 0.863507 1.75842 0
M  V30 4294 H 382.247 0.73831 -0.113611 0
M  V30 4295 H 384.909 1.68878 -0.972952 0
M  V30 4296 H 384.005 3.09754 -0.381931 0
M  V30 4297 N 384.306 0.507319 1.49211 0
M  V30 4298 C 385.216 -0.272136 2.33016 0
M  V30 4299 C 386.232 -0.961206 1.45041 0
M  V30 4300 O 387.408 -0.941191 1.78055 0
M  V30 4301 C 384.473 -1.31895 3.20631 0
M  V30 4302 C 383.534 -0.642648 4.24463 0
M  V30 4303 C 382.767 -1.63959 5.07891 0
M  V30 4304 O 382.99 -2.87007 4.92933 0
M  V30 4305 O 381.924 -1.19143 5.8999 0
M  V30 4306 H 385.75 0.413982 3.00865 0
M  V30 4307 H 383.335 0.268556 1.46966 0
M  V30 4308 H 385.217 -1.92446 3.7489 0
M  V30 4309 H 383.892 -1.98788 2.5547 0
M  V30 4310 H 382.799 0.00276252 3.741 0
M  V30 4311 H 384.132 -0.0160534 4.92197 0
M  V30 4312 N 385.784 -1.5574 0.241426 0
M  V30 4313 C 386.732 -2.22538 -0.676718 0
M  V30 4314 C 387.726 -1.21117 -1.18436 0
M  V30 4315 O 388.932 -1.39144 -1.14188 0
M  V30 4316 H 385.307 -0.713776 -0.236701 0
M  V30 4317 H 387.278 -2.98264 -0.0901187 0
M  V30 4318 C 386.027 -2.93439 -1.86518 0
M  V30 4319 H 385.35 -3.7125 -1.4837 0
M  V30 4320 H 386.79 -3.43549 -2.48495 0
M  V30 4321 C 385.249 -1.97008 -2.73294 0
M  V30 4322 O 385.779 -1.49965 -3.72657 0
M  V30 4323 N 383.985 -1.64227 -2.39745 0
M  V30 4324 H 383.532 -2.02677 -1.58996 0
M  V30 4325 H 383.49 -0.999708 -2.98083 0
M  V30 4326 N 387.262 0.0317525 -1.57568 0
M  V30 4327 C 388.487 0.738664 -1.938 0
M  V30 4328 C 388.912 1.68242 -0.841208 0
M  V30 4329 O 388.27 1.80157 0.203267 0
M  V30 4330 C 388.318 1.47417 -3.29091 0
M  V30 4331 O 387.422 2.5872 -3.2115 0
M  V30 4332 H 386.763 0.198856 -0.633524 0
M  V30 4333 H 389.293 -0.0119713 -2.04596 0
M  V30 4334 H 389.303 1.84468 -3.63917 0
M  V30 4335 H 387.978 0.781988 -4.08482 0
M  V30 4336 H 386.555 2.24231 -2.97951 0
M  V30 4337 N 388.74 1.54641 0.303973 0
M  V30 4338 C 389.97 1.77511 1.05705 0
M  V30 4339 C 390.378 0.533228 1.81531 0
M  V30 4340 O 389.721 -0.506423 1.76582 0
M  V30 4341 C 389.783 2.92779 2.08617 0
M  V30 4342 C 389.447 4.30977 1.52013 0
M  V30 4343 C 390.444 5.11115 0.9517 0
M  V30 4344 C 388.129 4.77571 1.55665 0
M  V30 4345 C 390.123 6.35966 0.427327 0
M  V30 4346 C 387.81 6.02384 1.02841 0
M  V30 4347 C 388.808 6.81417 0.464713 0
M  V30 4348 O 388.496 8.03881 -0.0555283 0
M  V30 4349 H 388.228 0.59579 0.319391 0
M  V30 4350 H 390.782 2.02401 0.349712 0
M  V30 4351 H 389.012 2.63506 2.83022 0
M  V30 4352 H 390.701 3.03252 2.69802 0
M  V30 4353 H 391.467 4.76264 0.916407 0
M  V30 4354 H 387.346 4.16085 1.9848 0
M  V30 4355 H 390.89 6.97599 -0.0133062 0
M  V30 4356 H 386.787 6.36723 1.06084 0
M  V30 4357 H 387.555 8.18479 0.0580522 0
M  V30 4358 N 390.218 -0.567019 1.47046 0
M  V30 4359 C 391.166 -1.69593 1.59188 0
M  V30 4360 C 392.16 -1.63046 0.459609 0
M  V30 4361 O 393.366 -1.6835 0.637058 0
M  V30 4362 H 389.741 -0.560993 0.500791 0
M  V30 4363 H 391.712 -1.56488 2.54075 0
M  V30 4364 C 390.461 -3.07964 1.61411 0
M  V30 4365 H 389.784 -3.13679 2.47881 0
M  V30 4366 H 391.224 -3.86671 1.73958 0
M  V30 4367 C 389.683 -3.35123 0.34559 0
M  V30 4368 O 390.213 -3.97812 -0.557521 0
M  V30 4369 N 388.419 -2.89699 0.22864 0
M  V30 4370 H 387.966 -2.38863 0.964479 0
M  V30 4371 H 387.924 -3.08242 -0.619192 0
M  V30 4372 N 391.696 -1.35014 -0.812953 0
M  V30 4373 C 393.107 -1.25035 -1.38648 0
M  V30 4374 C 393.458 0.119967 -1.95833 0
M  V30 4375 O 392.583 1.02069 -1.90816 0
M  V30 4376 C 393.178 -2.26394 -2.52054 0
M  V30 4377 C 391.737 -2.20175 -3.05287 0
M  V30 4378 C 390.884 -2.12451 -1.78213 0
M  V30 4379 H 393.835 -1.46235 -0.616516 0
M  V30 4380 H 393.856 -1.88672 -3.30429 0
M  V30 4381 H 393.368 -3.26116 -2.10404 0
M  V30 4382 H 391.469 -1.23841 -3.51417 0
M  V30 4383 H 391.582 -3.11863 -3.63701 0
M  V30 4384 H 389.946 -1.58328 -1.9951 0
M  V30 4385 H 390.729 -3.14024 -1.38723 0
M  V30 4386 N 393.175 1.03435 -1.18907 0
M  V30 4387 C 394.421 1.7713 -0.99982 0
M  V30 4388 C 394.776 1.86695 0.465049 0
M  V30 4389 O 394.069 1.36866 1.34083 0
M  V30 4390 C 394.263 3.19792 -1.59586 0
M  V30 4391 C 394.092 3.24134 -3.11717 0
M  V30 4392 C 392.862 3.32398 -3.80578 0
M  V30 4393 C 395.06 3.11625 -4.09138 0
M  V30 4394 N 393.042 3.26055 -5.20155 0
M  V30 4395 C 394.413 3.12855 -5.35277 0
M  V30 4396 C 396.468 2.95713 -4.00572 0
M  V30 4397 C 395.171 2.99805 -6.53842 0
M  V30 4398 C 397.197 2.84011 -5.1874 0
M  V30 4399 C 396.559 2.8589 -6.43775 0
M  V30 4400 H 392.658 0.659683 -0.419931 0
M  V30 4401 H 395.242 1.2317 -1.50789 0
M  V30 4402 H 393.413 3.72085 -1.11389 0
M  V30 4403 H 395.145 3.81819 -1.3415 0
M  V30 4404 H 391.9 3.38392 -3.31342 0
M  V30 4405 H 392.324 3.26307 -5.93172 0
M  V30 4406 H 396.966 2.93086 -3.0473 0
M  V30 4407 H 394.684 3.01184 -7.49876 0
M  V30 4408 H 398.27 2.72744 -5.13909 0
M  V30 4409 H 397.15 2.76931 -7.33675 0
M  V30 4410 N 394.653 0.992116 1.22453 0
M  V30 4411 C 395.901 0.666215 1.90804 0
M  V30 4412 C 396.222 -0.804152 1.77647 0
M  V30 4413 O 395.492 -1.57629 1.16318 0
M  V30 4414 H 394.072 0.243423 0.706225 0
M  V30 4415 H 396.734 1.25845 1.48825 0
M  V30 4416 H 395.83 0.928069 2.97982 0
M  V30 4417 N 396.131 -1.37776 0.765217 0
M  V30 4418 C 397.094 -2.28686 0.153416 0
M  V30 4419 C 398.094 -1.47727 -0.635081 0
M  V30 4420 O 399.284 -1.68027 -0.459632 0
M  V30 4421 C 396.416 -3.31608 -0.790495 0
M  V30 4422 H 397.609 -2.84297 0.954723 0
M  V30 4423 H 395.162 -1.46932 0.53299 0
M  V30 4424 H 395.897 -2.81109 -1.61705 0
M  V30 4425 H 395.682 -3.9144 -0.227348 0
M  V30 4426 H 397.172 -3.99559 -1.21419 0
M  V30 4427 N 397.609 -0.515225 -1.4894 0
M  V30 4428 C 398.856 0.024215 -2.02486 0
M  V30 4429 C 399.184 1.35671 -1.39368 0
M  V30 4430 O 398.439 1.88566 -0.523574 0
M  V30 4431 C 398.738 0.210595 -3.56779 0
M  V30 4432 C 398.404 -1.04569 -4.38607 0
M  V30 4433 C 397.066 -1.39002 -4.60686 0
M  V30 4434 C 399.418 -1.88008 -4.86109 0
M  V30 4435 C 396.746 -2.568 -5.27514 0
M  V30 4436 C 399.098 -3.04972 -5.54234 0
M  V30 4437 C 397.762 -3.39768 -5.74555 0
M  V30 4438 H 397.032 0.00886088 -0.740947 0
M  V30 4439 H 399.679 -0.678263 -1.79086 0
M  V30 4440 H 397.984 0.99572 -3.78936 0
M  V30 4441 H 399.681 0.642659 -3.95817 0
M  V30 4442 H 396.271 -0.767497 -4.21672 0
M  V30 4443 H 400.455 -1.62719 -4.68867 0
M  V30 4444 H 395.711 -2.8398 -5.41447 0
M  V30 4445 H 399.885 -3.69943 -5.90013 0
M  V30 4446 H 397.512 -4.31148 -6.26112 0
M  V30 4447 N 399.087 1.5561 -0.249682 0
M  V30 4448 C 400.315 2.03411 0.378352 0
M  V30 4449 C 400.73 1.12886 1.51335 0
M  V30 4450 O 400.087 0.143833 1.81932 0
M  V30 4451 C 400.138 3.50537 0.88351 0
M  V30 4452 O 399.859 4.37614 -0.20626 0
M  V30 4453 C 401.36 4.14113 1.58195 0
M  V30 4454 H 398.58 0.664994 0.08958 0
M  V30 4455 H 401.124 2.01044 -0.374357 0
M  V30 4456 H 399.279 3.5343 1.58639 0
M  V30 4457 H 399.693 5.24199 0.177782 0
M  V30 4458 H 401.167 5.18741 1.8871 0
M  V30 4459 H 401.644 3.60767 2.50487 0
M  V30 4460 H 402.25 4.15151 0.923573 0
M  V30 4461 N 400.565 -0.0233959 1.57583 0
M  V30 4462 C 401.793 -0.724682 1.93794 0
M  V30 4463 C 402.208 -1.68588 0.849912 0
M  V30 4464 O 401.565 -1.81676 -0.173204 0
M  V30 4465 C 401.616 -1.47684 3.29957 0
M  V30 4466 O 401.337 -0.554222 4.3458 0
M  V30 4467 C 402.838 -2.27477 3.80485 0
M  V30 4468 H 400.058 -0.203317 0.639455 0
M  V30 4469 H 402.602 0.0207653 2.04489 0
M  V30 4470 H 400.757 -2.17412 3.20641 0
M  V30 4471 H 401.171 -1.08232 5.13212 0
M  V30 4472 H 402.645 -2.7564 4.78254 0
M  V30 4473 H 403.122 -3.09144 3.11972 0
M  V30 4474 H 403.728 -1.62813 3.92902 0
M  V30 4475 N 402.043 -1.548 -0.295768 0
M  V30 4476 C 403.29 -1.74329 -1.03032 0
M  V30 4477 C 403.618 -0.531915 -1.87085 0
M  V30 4478 O 402.873 0.486052 -1.89568 0
M  V30 4479 C 403.172 -2.98797 -1.961 0
M  V30 4480 C 402.838 -4.32356 -1.2798 0
M  V30 4481 C 401.5 -4.68661 -1.09135 0
M  V30 4482 C 403.852 -5.15128 -0.793243 0
M  V30 4483 C 401.18 -5.85312 -0.403269 0
M  V30 4484 C 403.532 -6.32488 -0.118854 0
M  V30 4485 C 402.196 -6.6745 0.0815043 0
M  V30 4486 H 401.466 -0.637916 -0.37702 0
M  V30 4487 H 404.113 -1.8906 -0.304696 0
M  V30 4488 H 402.418 -2.78869 -2.75207 0
M  V30 4489 H 404.115 -3.11102 -2.53015 0
M  V30 4490 H 400.705 -4.03808 -1.43655 0
M  V30 4491 H 404.889 -4.87575 -0.92653 0
M  V30 4492 H 400.145 -6.1094 -0.237098 0
M  V30 4493 H 404.319 -6.95892 0.266035 0
M  V30 4494 H 401.946 -7.57695 0.616685 0
M  V30 4495 N 403.521 0.559213 -1.47345 0
M  V30 4496 C 404.451 1.67622 -1.62558 0
M  V30 4497 C 405.432 1.63331 -0.475087 0
M  V30 4498 O 406.617 1.80983 -0.704182 0
M  V30 4499 C 403.747 3.0626 -1.63774 0
M  V30 4500 C 402.701 3.25397 -2.7803 0
M  V30 4501 C 402.027 4.64801 -2.64318 0
M  V30 4502 C 403.327 3.10965 -4.19641 0
M  V30 4503 H 405.021 1.55146 -2.56067 0
M  V30 4504 H 402.567 0.744961 -1.23233 0
M  V30 4505 H 404.52 3.84247 -1.73008 0
M  V30 4506 H 403.244 3.1969 -0.66825 0
M  V30 4507 H 401.903 2.49817 -2.68304 0
M  V30 4508 H 401.551 4.75028 -1.65401 0
M  V30 4509 H 401.251 4.78555 -3.40968 0
M  V30 4510 H 402.775 5.44926 -2.75478 0
M  V30 4511 H 404.189 3.78772 -4.30354 0
M  V30 4512 H 402.586 3.36229 -4.97062 0
M  V30 4513 H 403.656 2.07736 -4.38148 0
M  V30 4514 N 404.999 1.35443 0.805782 0
M  V30 4515 C 405.932 1.22783 1.92353 0
M  V30 4516 C 406.91 0.115543 1.62189 0
M  V30 4517 O 408.094 0.283778 1.86352 0
M  V30 4518 C 405.221 0.890746 3.26777 0
M  V30 4519 C 404.267 2.01519 3.75889 0
M  V30 4520 S 405.1 3.63101 3.93596 0
M  V30 4521 C 406.256 3.31472 5.30921 0
M  V30 4522 H 406.489 2.17394 2.02798 0
M  V30 4523 H 404.022 1.20669 0.963245 0
M  V30 4524 H 405.98 0.703068 4.04434 0
M  V30 4525 H 404.641 -0.0373152 3.14078 0
M  V30 4526 H 403.834 1.7335 4.7325 0
M  V30 4527 H 403.436 2.16124 3.05231 0
M  V30 4528 H 405.728 2.8435 6.1494 0
M  V30 4529 H 406.671 4.28036 5.64084 0
M  V30 4530 H 407.079 2.67221 4.97246 0
M  V30 4531 N 406.477 -1.02803 1.19454 0
M  V30 4532 C 407.425 -2.13213 0.929673 0
M  V30 4533 C 408.419 -1.69011 -0.114806 0
M  V30 4534 O 409.625 -1.79967 0.0345147 0
M  V30 4535 H 406 -0.69662 0.28324 0
M  V30 4536 H 407.971 -2.32744 1.86743 0
M  V30 4537 C 406.72 -3.4429 0.485797 0
M  V30 4538 H 406.043 -3.7872 1.28105 0
M  V30 4539 H 407.483 -4.22638 0.339582 0
M  V30 4540 C 405.942 -3.27258 -0.800244 0
M  V30 4541 O 406.472 -3.55967 -1.86146 0
M  V30 4542 N 404.678 -2.80545 -0.75781 0
M  V30 4543 H 404.225 -2.57382 0.106039 0
M  V30 4544 H 404.183 -2.6953 -1.61867 0
M  V30 4545 N 407.956 -0.998596 -1.21925 0
M  V30 4546 C 408.886 -0.573688 -2.26343 0
M  V30 4547 C 409.867 0.402296 -1.65274 0
M  V30 4548 O 411.052 0.291683 -1.91997 0
M  V30 4549 C 408.182 0.106839 -3.47136 0
M  V30 4550 C 407.136 -0.788269 -4.20678 0
M  V30 4551 C 406.462 0.0254927 -5.34694 0
M  V30 4552 C 407.762 -2.08784 -4.78755 0
M  V30 4553 H 409.456 -1.44651 -2.62138 0
M  V30 4554 H 407.002 -0.696975 -1.26009 0
M  V30 4555 H 408.955 0.415531 -4.19346 0
M  V30 4556 H 407.679 1.01424 -3.10452 0
M  V30 4557 H 406.338 -1.08069 -3.50309 0
M  V30 4558 H 405.986 0.933989 -4.94253 0
M  V30 4559 H 405.686 -0.570437 -5.84825 0
M  V30 4560 H 407.21 0.328147 -6.09718 0
M  V30 4561 H 408.624 -1.84272 -5.42878 0
M  V30 4562 H 407.021 -2.63307 -5.39249 0
M  V30 4563 H 408.091 -2.76284 -3.98491 0
M  V30 4564 N 409.434 1.37368 -0.772513 0
M  V30 4565 C 410.659 2.0447 -0.347386 0
M  V30 4566 C 411.084 1.57882 1.0225 0
M  V30 4567 O 410.442 0.73941 1.65537 0
M  V30 4568 C 410.49 3.58369 -0.400479 0
M  V30 4569 O 409.594 4.0803 0.598789 0
M  V30 4570 H 408.935 0.646773 -0.15027 0
M  V30 4571 H 411.465 1.75667 -1.04892 0
M  V30 4572 H 411.475 4.07183 -0.258045 0
M  V30 4573 H 410.15 3.91633 -1.39986 0
M  V30 4574 H 408.727 3.70534 0.419411 0
M  V30 4575 N 410.912 0.523116 1.48665 0
M  V30 4576 C 412.14 -0.0096312 2.06898 0
M  V30 4577 C 412.555 -1.28784 1.38059 0
M  V30 4578 O 411.912 -1.76453 0.465893 0
M  V30 4579 C 411.963 -0.244386 3.60673 0
M  V30 4580 O 411.684 0.983172 4.26925 0
M  V30 4581 C 413.185 -0.818289 4.35682 0
M  V30 4582 H 410.405 0.0304161 0.67031 0
M  V30 4583 H 412.949 0.726799 1.91149 0
M  V30 4584 H 411.104 -0.930847 3.76051 0
M  V30 4585 H 411.518 0.759653 5.1897 0
M  V30 4586 H 412.992 -0.93201 5.44075 0
M  V30 4587 H 413.469 -1.82153 3.99646 0
M  V30 4588 H 414.075 -0.168609 4.24966 0
M  V30 4589 N 412.39 -1.55475 0.257931 0
M  V30 4590 C 413.63 -2.01112 -0.365129 0
M  V30 4591 C 413.994 -1.1423 -1.54323 0
M  V30 4592 O 415.195 -1.49371 -2.23477 0
M  V30 4593 C 413.466 -3.49353 -0.754117 0
M  V30 4594 S 415.025 -4.16992 -1.36614 0
M  V30 4595 H 411.843 -0.701737 -0.114397 0
M  V30 4596 H 414.445 -1.91855 0.375747 0
M  V30 4597 H 413.149 -4.10246 0.112441 0
M  V30 4598 H 412.68 -3.6256 -1.52689 0
M  V30 4599 H 414.695 -4.19191 -2.65505 0
M  V30 4600 N 413.868 0.0150385 -1.57593 0
M  V30 4601 C 414.798 1.01047 -2.10503 0
M  V30 4602 C 415.779 1.36816 -1.01071 0
M  V30 4603 O 416.964 1.45455 -1.28672 0
M  V30 4604 C 414.094 2.30708 -2.59598 0
M  V30 4605 C 413.048 2.09142 -3.73421 0
M  V30 4606 C 412.374 3.44685 -4.08774 0
M  V30 4607 C 413.674 1.46619 -5.01298 0
M  V30 4608 H 415.368 0.569978 -2.93925 0
M  V30 4609 H 412.914 0.272724 -1.41394 0
M  V30 4610 H 414.867 3.00687 -2.95238 0
M  V30 4611 H 413.591 2.76843 -1.73279 0
M  V30 4612 H 412.25 1.41592 -3.38153 0
M  V30 4613 H 411.898 3.88495 -3.195 0
M  V30 4614 H 411.598 3.31077 -4.8545 0
M  V30 4615 H 413.122 4.16004 -4.4696 0
M  V30 4616 H 414.536 2.06535 -5.34805 0
M  V30 4617 H 412.933 1.43544 -5.82679 0
M  V30 4618 H 414.003 0.433611 -4.82957 0
M  V30 4619 N 415.346 1.54954 0.287554 0
M  V30 4620 C 416.623 1.65569 1.04146 0
M  V30 4621 C 417.003 0.512672 2.0478 0
M  V30 4622 O 416.351 -0.489038 2.23205 0
M  V30 4623 C 416.561 3.04163 1.71131 0
M  V30 4624 C 417.909 3.61429 2.22832 0
M  V30 4625 O 418.933 3.06702 1.81141 0
M  V30 4626 O 417.792 4.57281 2.9926 0
M  V30 4627 H 414.886 0.671881 0.482188 0
M  V30 4628 H 417.432 1.67297 0.28457 0
M  V30 4629 H 416.204 3.78796 0.981303 0
M  V30 4630 H 415.827 3.06271 2.53543 0
M  V30 4631 N 416.824 -0.551391 1.4764 0
M  V30 4632 C 418.07 -1.31024 1.54792 0
M  V30 4633 C 418.403 -1.9304 0.211967 0
M  V30 4634 O 417.678 -1.78175 -0.77999 0
M  V30 4635 C 417.961 -2.41593 2.67029 0
M  V30 4636 C 417.814 -1.84408 4.10261 0
M  V30 4637 C 419.133 -3.43488 2.75143 0
M  V30 4638 H 416.252 -0.475031 0.563485 0
M  V30 4639 H 418.894 -0.616454 1.79722 0
M  V30 4640 H 417.044 -3.00772 2.45904 0
M  V30 4641 H 418.716 -1.29445 4.42766 0
M  V30 4642 H 416.959 -1.15051 4.18265 0
M  V30 4643 H 417.63 -2.64367 4.84576 0
M  V30 4644 H 420.106 -2.94236 2.94218 0
M  V30 4645 H 418.982 -4.18274 3.55441 0
M  V30 4646 H 419.243 -4.02703 1.82435 0
M  V30 4647 N 418.302 -1.35869 -0.798587 0
M  V30 4648 C 419.551 -1.28921 -1.5512 0
M  V30 4649 C 419.864 0.13208 -1.95154 0
M  V30 4650 O 421.07 0.323879 -2.69561 0
M  V30 4651 C 419.526 -2.26141 -2.79979 0
M  V30 4652 C 419.134 -3.73658 -2.47151 0
M  V30 4653 C 420.878 -2.28152 -3.57976 0
M  V30 4654 C 418.785 -4.62679 -3.6835 0
M  V30 4655 H 417.715 -0.479031 -0.582276 0
M  V30 4656 H 420.366 -1.61179 -0.877125 0
M  V30 4657 H 418.748 -1.86865 -3.49138 0
M  V30 4658 H 419.922 -4.21616 -1.85947 0
M  V30 4659 H 418.237 -3.74333 -1.82383 0
M  V30 4660 H 420.834 -2.91875 -4.4801 0
M  V30 4661 H 421.177 -1.28748 -3.95891 0
M  V30 4662 H 421.71 -2.65998 -2.95787 0
M  V30 4663 H 418.449 -5.63111 -3.35538 0
M  V30 4664 H 417.969 -4.19442 -4.28752 0
M  V30 4665 H 419.648 -4.78498 -4.35487 0
M  V30 4666 N 419.78 1.02168 -1.19998 0
M  V30 4667 C 420.71 2.12488 -0.96804 0
M  V30 4668 C 421.691 1.69799 0.101185 0
M  V30 4669 O 422.876 1.94121 -0.0552993 0
M  V30 4670 C 420.006 3.43479 -0.513776 0
M  V30 4671 C 418.96 3.99884 -1.52566 0
M  V30 4672 C 418.286 5.26582 -0.928214 0
M  V30 4673 C 419.586 4.33861 -2.90795 0
M  V30 4674 H 421.28 2.32149 -1.89069 0
M  V30 4675 H 418.826 1.11564 -0.910468 0
M  V30 4676 H 420.779 4.20036 -0.338774 0
M  V30 4677 H 419.503 3.23561 0.444493 0
M  V30 4678 H 418.162 3.25429 -1.68794 0
M  V30 4679 H 417.81 5.02986 0.0378289 0
M  V30 4680 H 417.51 5.65284 -1.60397 0
M  V30 4681 H 419.034 6.05799 -0.764167 0
M  V30 4682 H 420.448 5.01327 -2.78109 0
M  V30 4683 H 418.845 4.83664 -3.55231 0
M  V30 4684 H 419.915 3.42848 -3.42904 0
M  V30 4685 N 421.258 1.00505 1.21394 0
M  V30 4686 C 422.488 0.705584 1.94178 0
M  V30 4687 C 422.896 -0.735846 1.74304 0
M  V30 4688 O 422.239 -1.50954 1.04683 0
M  V30 4689 C 422.301 0.94689 3.46806 0
M  V30 4690 C 421.965 2.37517 3.90429 0
M  V30 4691 C 422.962 3.35539 3.97127 0
M  V30 4692 C 420.647 2.71284 4.22742 0
M  V30 4693 C 422.641 4.65395 4.3553 0
M  V30 4694 C 420.328 4.01356 4.60822 0
M  V30 4695 C 421.326 4.98223 4.67186 0
M  V30 4696 O 421.014 6.25969 5.04399 0
M  V30 4697 H 420.746 0.259216 0.624326 0
M  V30 4698 H 423.3 1.34592 1.55159 0
M  V30 4699 H 421.53 0.249386 3.85895 0
M  V30 4700 H 423.219 0.640804 4.0081 0
M  V30 4701 H 423.985 3.10786 3.7234 0
M  V30 4702 H 419.864 1.96581 4.16985 0
M  V30 4703 H 423.408 5.41002 4.40412 0
M  V30 4704 H 419.305 4.25893 4.85063 0
M  V30 4705 H 420.073 6.30085 5.22431 0
M  V30 4706 N 422.737 -1.36956 0.779787 0
M  V30 4707 C 423.967 -2.03459 0.358877 0
M  V30 4708 C 424.375 -1.58939 -1.02641 0
M  V30 4709 O 423.718 -0.769777 -1.66794 0
M  V30 4710 C 423.78 -3.5796 0.332393 0
M  V30 4711 C 423.444 -4.25644 1.66362 0
M  V30 4712 C 424.441 -4.49205 2.61746 0
M  V30 4713 C 422.126 -4.63313 1.94027 0
M  V30 4714 C 424.12 -5.09503 3.82996 0
M  V30 4715 C 421.807 -5.2333 3.15546 0
M  V30 4716 C 422.805 -5.46363 4.0985 0
M  V30 4717 O 422.493 -6.05122 5.29228 0
M  V30 4718 H 422.225 -0.659767 0.147254 0
M  V30 4719 H 424.779 -1.76111 1.05708 0
M  V30 4720 H 423.009 -3.84388 -0.422237 0
M  V30 4721 H 424.698 -4.05852 -0.0625389 0
M  V30 4722 H 425.464 -4.20508 2.41657 0
M  V30 4723 H 421.343 -4.44715 1.21448 0
M  V30 4724 H 424.887 -5.27397 4.56617 0
M  V30 4725 H 420.784 -5.51451 3.35517 0
M  V30 4726 H 421.552 -6.23595 5.30161 0
M  V30 4727 N 424.215 -0.530993 -1.48385 0
M  V30 4728 C 425.464 0.00474348 -2.01699 0
M  V30 4729 C 425.777 1.35227 -1.41325 0
M  V30 4730 O 426.983 1.97643 -1.86144 0
M  V30 4731 C 425.439 0.0588473 -3.59852 0
M  V30 4732 C 425.047 -1.28385 -4.2921 0
M  V30 4733 C 426.791 0.543358 -4.21008 0
M  V30 4734 C 424.698 -1.19028 -5.79298 0
M  V30 4735 H 423.628 0.00554317 -0.75398 0
M  V30 4736 H 426.279 -0.674924 -1.70637 0
M  V30 4737 H 424.661 0.803612 -3.8776 0
M  V30 4738 H 425.835 -2.04426 -4.12973 0
M  V30 4739 H 424.15 -1.70418 -3.7993 0
M  V30 4740 H 426.747 0.631351 -5.3096 0
M  V30 4741 H 427.09 1.54937 -3.86394 0
M  V30 4742 H 427.623 -0.145754 -3.97533 0
M  V30 4743 H 424.362 -2.17147 -6.18488 0
M  V30 4744 H 423.882 -0.471246 -5.97946 0
M  V30 4745 H 425.561 -0.881365 -6.40969 0
M  V30 4746 N 425.693 1.55336 -0.266172 0
M  V30 4747 C 426.939 1.99692 0.353681 0
M  V30 4748 C 427.272 1.1543 1.56172 0
M  V30 4749 O 426.547 0.222218 1.93226 0
M  V30 4750 C 426.83 3.52316 0.74466 0
M  V30 4751 C 426.683 4.47337 -0.470101 0
M  V30 4752 C 428.002 4.10588 1.58447 0
M  V30 4753 H 425.121 0.725961 0.12708 0
M  V30 4754 H 427.763 1.86336 -0.371333 0
M  V30 4755 H 425.913 3.63829 1.36239 0
M  V30 4756 H 427.585 4.4778 -1.10864 0
M  V30 4757 H 425.828 4.19364 -1.10978 0
M  V30 4758 H 426.499 5.51788 -0.15291 0
M  V30 4759 H 428.975 4.02297 1.06286 0
M  V30 4760 H 427.851 5.17607 1.82686 0
M  V30 4761 H 428.112 3.60253 2.56262 0
M  V30 4762 N 427.171 -0.0066808 1.57599 0
M  V30 4763 C 428.396 -0.707738 1.94951 0
M  V30 4764 C 428.821 -1.66882 0.867868 0
M  V30 4765 O 428.179 -1.80457 -0.17458 0
M  V30 4766 C 428.227 -1.42162 3.31394 0
M  V30 4767 O 427.331 -2.53578 3.25226 0
M  V30 4768 H 426.672 -0.188752 0.636607 0
M  V30 4769 H 429.202 0.0445193 2.04552 0
M  V30 4770 H 429.212 -1.78655 3.66806 0
M  V30 4771 H 427.887 -0.716903 4.09675 0
M  V30 4772 H 426.464 -2.19463 3.01481 0
M  V30 4773 N 428.649 -1.55105 -0.279332 0
M  V30 4774 C 429.596 -1.8755 -1.34513 0
M  V30 4775 C 430.566 -0.726384 -1.49375 0
M  V30 4776 O 431.751 -0.977063 -1.63884 0
M  V30 4777 C 428.891 -2.14738 -2.70151 0
M  V30 4778 C 428.004 -3.42285 -2.63562 0
M  V30 4779 C 427.139 -3.59206 -3.91337 0
M  V30 4780 C 426.178 -4.80467 -3.79233 0
M  V30 4781 N 425.315 -4.94079 -4.98829 0
M  V30 4782 H 430.155 -2.78456 -1.06143 0
M  V30 4783 H 427.692 -1.37867 -0.512936 0
M  V30 4784 H 429.65 -2.28501 -3.49061 0
M  V30 4785 H 428.28 -1.27075 -2.96735 0
M  V30 4786 H 427.332 -3.37029 -1.76397 0
M  V30 4787 H 428.644 -4.31328 -2.50515 0
M  V30 4788 H 427.798 -3.72751 -4.78687 0
M  V30 4789 H 426.537 -2.68337 -4.07243 0
M  V30 4790 H 425.542 -4.66932 -2.90266 0
M  V30 4791 H 426.767 -5.72765 -3.64852 0
M  V30 4792 H 424.713 -4.06139 -5.15158 0
M  V30 4793 H 424.63 -5.77156 -4.8829 0
M  V30 4794 H 425.898 -5.12003 -5.8777 0
M  V30 4795 N 430.127 0.543554 -1.4793 0
M  V30 4796 C 431.059 1.665 -1.57513 0
M  V30 4797 C 432.072 1.56156 -0.460333 0
M  V30 4798 O 433.261 1.62865 -0.730573 0
M  V30 4799 C 430.361 3.05063 -1.47614 0
M  V30 4800 C 429.534 3.41024 -2.739 0
M  V30 4801 C 428.593 4.58809 -2.57645 0
M  V30 4802 O 427.619 4.62707 -3.31498 0
M  V30 4803 N 428.821 5.56149 -1.66368 0
M  V30 4804 H 431.586 1.5872 -2.5422 0
M  V30 4805 H 429.147 0.730517 -1.44482 0
M  V30 4806 H 431.139 3.81712 -1.34455 0
M  V30 4807 H 429.709 3.06994 -0.589359 0
M  V30 4808 H 428.929 2.53687 -3.01723 0
M  V30 4809 H 430.217 3.61831 -3.57709 0
M  V30 4810 H 429.615 5.55767 -1.05543 0
M  V30 4811 H 428.172 6.32071 -1.59154 0
M  V30 4812 N 431.605 1.3629 0.791371 0
M  V30 4813 C 432.852 1.30412 1.54916 0
M  V30 4814 C 433.18 -0.117162 1.94147 0
M  V30 4815 O 432.435 -1.08599 1.62803 0
M  V30 4816 C 432.734 2.17068 2.8393 0
M  V30 4817 C 432.4 3.65645 2.63846 0
M  V30 4818 C 431.062 4.0614 2.58077 0
M  V30 4819 C 433.414 4.59855 2.45322 0
M  V30 4820 C 430.742 5.3899 2.31748 0
M  V30 4821 C 433.094 5.9292 2.2052 0
M  V30 4822 C 431.758 6.32542 2.13183 0
M  V30 4823 H 431.028 0.47721 0.566879 0
M  V30 4824 H 433.675 1.68325 0.913172 0
M  V30 4825 H 431.98 1.72085 3.51986 0
M  V30 4826 H 433.677 2.09846 3.4171 0
M  V30 4827 H 430.267 3.33518 2.69191 0
M  V30 4828 H 434.451 4.29443 2.48782 0
M  V30 4829 H 429.707 5.68672 2.24548 0
M  V30 4830 H 433.881 6.65487 2.05182 0
M  V30 4831 H 431.508 7.35412 1.92544 0
M  V30 4832 N 433.083 -1.0153 1.20538 0
M  V30 4833 C 434.015 -2.10224 0.913155 0
M  V30 4834 C 435.028 -1.62495 -0.0995998 0
M  V30 4835 O 436.217 -1.78014 0.131582 0
M  V30 4836 C 433.317 -3.37111 0.347717 0
M  V30 4837 C 432.49 -4.13971 1.41233 0
M  V30 4838 C 431.549 -5.19158 0.857976 0
M  V30 4839 O 430.575 -5.48 1.53897 0
M  V30 4840 N 431.777 -5.7955 -0.331966 0
M  V30 4841 H 434.542 -2.35879 1.84881 0
M  V30 4842 H 432.103 -1.17931 1.10923 0
M  V30 4843 H 434.095 -4.04683 -0.0373026 0
M  V30 4844 H 432.665 -3.08696 -0.492527 0
M  V30 4845 H 431.885 -3.41351 1.97163 0
M  V30 4846 H 433.173 -4.62103 2.12928 0
M  V30 4847 H 432.571 -5.58455 -0.902478 0
M  V30 4848 H 431.128 -6.48464 -0.65861 0
M  V30 4849 N 434.561 -1.01147 -1.20859 0
M  V30 4850 C 435.524 -0.582224 -2.21682 0
M  V30 4851 C 436.524 0.344887 -1.57058 0
M  V30 4852 O 437.714 0.134281 -1.73682 0
M  V30 4853 C 434.846 0.150496 -3.40568 0
M  V30 4854 H 436.039 -1.47408 -2.61172 0
M  V30 4855 H 433.592 -0.800695 -1.34233 0
M  V30 4856 H 434.327 1.0575 -3.06574 0
M  V30 4857 H 434.112 -0.515444 -3.88697 0
M  V30 4858 H 435.602 0.438344 -4.15293 0
M  V30 4859 N 436.039 1.36541 -0.78704 0
M  V30 4860 C 437.455 1.52571 -0.46844 0
M  V30 4861 C 437.655 1.7415 1.01361 0
M  V30 4862 O 436.711 1.77163 1.79915 0
M  V30 4863 C 438.024 2.71299 -1.29682 0
M  V30 4864 C 439.572 2.85169 -1.29027 0
M  V30 4865 C 440.047 4.06898 -2.10233 0
M  V30 4866 N 441.538 4.1404 -2.07666 0
M  V30 4867 C 442.273 5.07301 -2.67271 0
M  V30 4868 N 441.769 6.06021 -3.35724 0
M  V30 4869 N 443.562 4.99898 -2.57018 0
M  V30 4870 H 435.713 1.20788 -1.74711 0
M  V30 4871 H 437.976 0.589364 -0.742532 0
M  V30 4872 H 437.682 2.61868 -2.34773 0
M  V30 4873 H 437.556 3.6539 -0.936479 0
M  V30 4874 H 439.943 2.94062 -0.247284 0
M  V30 4875 H 440.024 1.91992 -1.69035 0
M  V30 4876 H 439.668 3.98766 -3.1456 0
M  V30 4877 H 439.598 4.99218 -1.67597 0
M  V30 4878 H 442.089 3.43357 -1.57843 0
M  V30 4879 H 442.402 6.73741 -3.78541 0
M  V30 4880 H 440.747 6.06253 -3.39826 0
M  V30 4881 H 443.938 4.21724 -2.03142 0
M  V30 4882 H 444.111 5.72392 -3.03761 0
M  V30 4883 N 437.518 0.538854 1.48102 0
M  V30 4884 C 438.764 0.00801365 2.02798 0
M  V30 4885 C 439.097 -1.3309 1.41424 0
M  V30 4886 O 438.372 -1.86169 0.563158 0
M  V30 4887 C 438.655 -0.104589 3.59948 0
M  V30 4888 C 438.508 1.26012 4.31788 0
M  V30 4889 C 439.827 -0.827055 4.32259 0
M  V30 4890 H 436.946 0.00438624 0.736987 0
M  V30 4891 H 439.588 0.6976 1.7673 0
M  V30 4892 H 437.738 -0.691893 3.82289 0
M  V30 4893 H 439.41 1.88922 4.2084 0
M  V30 4894 H 437.653 1.83968 3.92859 0
M  V30 4895 H 438.324 1.13424 5.40221 0
M  V30 4896 H 440.8 -0.328578 4.14801 0
M  V30 4897 H 439.676 -0.87476 5.41885 0
M  V30 4898 H 439.937 -1.87927 4.0017 0
M  V30 4899 N 438.996 -1.55193 0.274407 0
M  V30 4900 C 440.245 -1.98758 -0.343213 0
M  V30 4901 C 440.558 -1.16624 -1.5703 0
M  V30 4902 O 441.764 -1.5033 -2.26082 0
M  V30 4903 C 440.22 -3.53759 -0.661996 0
M  V30 4904 C 439.828 -4.4467 0.54524 0
M  V30 4905 C 441.572 -4.05916 -1.24228 0
M  V30 4906 C 439.479 -5.91058 0.201084 0
M  V30 4907 H 438.409 -0.742353 -0.132014 0
M  V30 4908 H 441.06 -1.79545 0.378948 0
M  V30 4909 H 439.442 -3.68772 -1.44304 0
M  V30 4910 H 440.616 -4.41426 1.32212 0
M  V30 4911 H 438.931 -4.03143 1.04232 0
M  V30 4912 H 441.528 -5.12831 -1.51357 0
M  V30 4913 H 441.871 -3.54908 -2.17592 0
M  V30 4914 H 442.404 -3.9434 -0.523542 0
M  V30 4915 H 439.143 -6.46161 1.10258 0
M  V30 4916 H 438.663 -5.97373 -0.539045 0
M  V30 4917 H 440.342 -6.46669 -0.206954 0
M  V30 4918 N 440.474 -0.00167713 -1.576 0
M  V30 4919 C 441.699 0.69739 -1.95323 0
M  V30 4920 C 442.124 1.6642 -0.876706 0
M  V30 4921 O 441.482 1.80548 0.165007 0
M  V30 4922 C 441.53 1.40403 -3.32144 0
M  V30 4923 O 440.634 2.5185 -3.26566 0
M  V30 4924 H 439.975 0.185373 -0.637599 0
M  V30 4925 H 442.505 -0.0553665 -2.04525 0
M  V30 4926 H 442.515 1.76707 -3.67748 0
M  V30 4927 H 441.19 0.695167 -4.10049 0
M  V30 4928 H 439.767 2.17861 -3.0264 0
M  V30 4929 N 441.952 1.55251 0.271103 0
M  V30 4930 C 443.198 1.76207 1.00394 0
M  V30 4931 C 443.531 0.562604 1.85872 0
M  V30 4932 O 442.806 -0.439785 1.89463 0
M  V30 4933 C 443.089 3.06828 1.8849 0
M  V30 4934 C 442.942 4.37134 1.05992 0
M  V30 4935 C 444.261 3.33503 2.87165 0
M  V30 4936 H 441.38 0.641086 0.363562 0
M  V30 4937 H 444.022 1.87982 0.276189 0
M  V30 4938 H 442.172 2.96921 2.5054 0
M  V30 4939 H 443.844 4.59001 0.459978 0
M  V30 4940 H 442.087 4.32275 0.363443 0
M  V30 4941 H 442.758 5.2486 1.70955 0
M  V30 4942 H 445.234 3.43215 2.3525 0
M  V30 4943 H 444.11 4.2616 3.45946 0
M  V30 4944 H 444.371 2.53235 3.62387 0
M  V30 4945 N 443.43 -0.535701 1.48216 0
M  V30 4946 C 444.363 -1.65726 1.56876 0
M  V30 4947 C 445.341 -1.57094 0.419542 0
M  V30 4948 O 446.525 -1.77648 0.630352 0
M  V30 4949 C 443.652 -3.04096 1.49142 0
M  V30 4950 C 442.698 -3.31105 2.68834 0
M  V30 4951 S 443.531 -3.18001 4.30854 0
M  V30 4952 C 444.687 -4.58828 4.25709 0
M  V30 4953 H 444.92 -1.58129 2.51759 0
M  V30 4954 H 442.453 -0.718218 1.36678 0
M  V30 4955 H 444.411 -3.839 1.45366 0
M  V30 4956 H 443.072 -3.09139 0.556067 0
M  V30 4957 H 442.265 -4.32033 2.59545 0
M  V30 4958 H 441.867 -2.58961 2.69843 0
M  V30 4959 H 444.159 -5.5023 3.95289 0
M  V30 4960 H 445.102 -4.73172 5.26796 0
M  V30 4961 H 445.51 -4.37883 3.56257 0
M  V30 4962 N 444.908 -1.36708 -0.784132 0
M  V30 4963 C 445.838 -1.34153 -1.91116 0
M  V30 4964 C 446.819 -0.212121 -1.68772 0
M  V30 4965 O 448.004 -0.410581 -1.8981 0
M  V30 4966 C 445.134 -1.13535 -3.28218 0
M  V30 4967 C 444.088 -2.23356 -3.65097 0
M  V30 4968 C 443.414 -1.87875 -5.00607 0
M  V30 4969 C 444.714 -3.65473 -3.73131 0
M  V30 4970 H 446.408 -2.28459 -1.93512 0
M  V30 4971 H 443.954 -1.09973 -0.929618 0
M  V30 4972 H 445.907 -1.10381 -4.06687 0
M  V30 4973 H 444.631 -0.156804 -3.26223 0
M  V30 4974 H 443.29 -2.25645 -2.88929 0
M  V30 4975 H 442.938 -0.885814 -4.95139 0
M  V30 4976 H 442.638 -2.61406 -5.26252 0
M  V30 4977 H 444.162 -1.86286 -5.81489 0
M  V30 4978 H 445.576 -3.65382 -4.41779 0
M  V30 4979 H 443.973 -4.37953 -4.10265 0
M  V30 4980 H 445.043 -3.99995 -2.74102 0
M  V30 4981 N 446.386 1.0089 -1.21074 0
M  V30 4982 C 447.616 1.77933 -1.04993 0
M  V30 4983 C 448.024 1.84847 0.403495 0
M  V30 4984 O 447.367 1.30606 1.29181 0
M  V30 4985 C 447.429 3.23541 -1.56722 0
M  V30 4986 C 447.093 3.40214 -3.05129 0
M  V30 4987 C 448.09 3.2881 -4.02716 0
M  V30 4988 C 445.775 3.65781 -3.44252 0
M  V30 4989 C 447.769 3.42732 -5.37414 0
M  V30 4990 C 445.456 3.79346 -4.79103 0
M  V30 4991 C 446.454 3.67827 -5.75493 0
M  V30 4992 O 446.142 3.80965 -7.07899 0
M  V30 4993 H 445.874 0.566157 -0.369381 0
M  V30 4994 H 448.428 1.27826 -1.60779 0
M  V30 4995 H 446.658 3.74766 -0.953285 0
M  V30 4996 H 448.347 3.82245 -1.36543 0
M  V30 4997 H 449.113 3.08986 -3.73835 0
M  V30 4998 H 444.992 3.73831 -2.69762 0
M  V30 4999 H 448.536 3.33658 -6.12632 0
M  V30 5000 H 444.433 3.98672 -5.07672 0
M  V30 5001 H 445.201 3.97937 -7.15254 0
M  V30 5002 N 447.864 1.01787 1.20321 0
M  V30 5003 C 449.28 0.732951 1.41774 0
M  V30 5004 C 449.48 -0.686883 1.89431 0
M  V30 5005 O 448.536 -1.45446 2.06402 0
M  V30 5006 C 449.849 1.75973 2.43832 0
M  V30 5007 C 451.397 1.77802 2.57596 0
M  V30 5008 C 451.872 2.7941 3.62897 0
M  V30 5009 N 453.363 2.78157 3.70382 0
M  V30 5010 C 454.098 3.53434 4.51521 0
M  V30 5011 N 453.594 4.38392 5.36455 0
M  V30 5012 N 455.387 3.42026 4.46066 0
M  V30 5013 H 447.538 1.93447 0.877035 0
M  V30 5014 H 449.801 0.835712 0.447536 0
M  V30 5015 H 449.507 2.77699 2.15815 0
M  V30 5016 H 449.381 1.57292 3.4284 0
M  V30 5017 H 451.768 0.767602 2.84942 0
M  V30 5018 H 451.849 2.00557 1.58779 0
M  V30 5019 H 451.493 3.80616 3.36295 0
M  V30 5020 H 451.423 2.53916 4.61339 0
M  V30 5021 H 453.914 2.16531 3.09714 0
M  V30 5022 H 454.227 4.92596 5.95457 0
M  V30 5023 H 452.572 4.4247 5.35953 0
M  V30 5024 H 455.763 2.75075 3.78749 0
M  V30 5025 H 455.936 4.00946 5.09064 0
M  V30 5026 N 449.342 -1.36122 0.79427 0
M  V30 5027 C 450.29 -2.31871 0.184023 0
M  V30 5028 C 451.284 -1.56041 -0.659365 0
M  V30 5029 O 452.49 -1.71266 -0.553906 0
M  V30 5030 H 448.865 -0.750896 0.0407373 0
M  V30 5031 H 450.836 -2.80898 1.00693 0
M  V30 5032 C 449.585 -3.41324 -0.662813 0
M  V30 5033 H 448.908 -3.99793 -0.0231944 0
M  V30 5034 H 450.348 -4.10629 -1.05639 0
M  V30 5035 C 448.807 -2.83308 -1.82313 0
M  V30 5036 O 449.337 -2.75863 -2.91997 0
M  V30 5037 N 447.543 -2.40529 -1.63077 0
M  V30 5038 H 447.09 -2.46785 -0.738591 0
M  V30 5039 H 447.048 -2.02059 -2.40872 0
M  V30 5040 N 450.82 -0.546701 -1.47814 0
M  V30 5041 C 452.05 -0.0232519 -2.06587 0
M  V30 5042 C 452.458 1.2712 -1.40133 0
M  V30 5043 O 451.801 1.77091 -0.488305 0
M  V30 5044 C 451.863 0.254117 -3.58601 0
M  V30 5045 C 451.527 -0.949331 -4.47031 0
M  V30 5046 C 452.524 -1.85216 -4.85789 0
M  V30 5047 C 450.209 -1.16104 -4.88697 0
M  V30 5048 C 452.203 -2.95047 -5.65001 0
M  V30 5049 C 449.89 -2.26247 -5.67676 0
M  V30 5050 C 450.888 -3.1555 -6.05737 0
M  V30 5051 O 450.576 -4.23784 -6.83127 0
M  V30 5052 H 450.308 -0.0380082 -0.674931 0
M  V30 5053 H 452.862 -0.756631 -1.90956 0
M  V30 5054 H 451.092 1.04168 -3.72406 0
M  V30 5055 H 452.781 0.72167 -3.99433 0
M  V30 5056 H 453.547 -1.70061 -4.54207 0
M  V30 5057 H 449.426 -0.475159 -4.58545 0
M  V30 5058 H 452.97 -3.64778 -5.94628 0
M  V30 5059 H 448.867 -2.41379 -5.98671 0
M  V30 5060 H 449.635 -4.21701 -7.01506 0
M  V30 5061 N 452.299 1.55045 -0.282633 0
M  V30 5062 C 453.229 2.2579 0.595066 0
M  V30 5063 C 454.21 1.25074 1.15284 0
M  V30 5064 O 455.395 1.5381 1.18559 0
M  V30 5065 C 452.525 2.98472 1.77572 0
M  V30 5066 C 451.479 4.0618 1.34914 0
M  V30 5067 C 450.805 4.66477 2.6135 0
M  V30 5068 C 452.105 5.1996 0.493821 0
M  V30 5069 H 453.799 2.994 0.00505653 0
M  V30 5070 H 451.345 1.44 0.000992001 0
M  V30 5071 H 453.298 3.46677 2.39568 0
M  V30 5072 H 452.022 2.2241 2.39168 0
M  V30 5073 H 450.681 3.58797 0.752338 0
M  V30 5074 H 450.329 3.87074 3.2122 0
M  V30 5075 H 450.029 5.39207 2.33516 0
M  V30 5076 H 451.553 5.17435 3.24181 0
M  V30 5077 H 452.967 5.64172 1.01898 0
M  V30 5078 H 451.364 5.99299 0.310047 0
M  V30 5079 H 452.434 4.82462 -0.485593 0
M  V30 5080 N 453.777 0.010035 1.57597 0
M  V30 5081 C 455.193 -0.346164 1.55801 0
M  V30 5082 C 455.393 -1.74144 1.01371 0
M  V30 5083 O 454.449 -2.43938 0.651968 0
M  V30 5084 C 455.762 -0.212216 2.9995 0
M  V30 5085 C 457.31 -0.286409 3.11687 0
M  V30 5086 C 457.785 -0.18147 4.5764 0
M  V30 5087 N 459.276 -0.239056 4.62583 0
M  V30 5088 C 460.011 -0.181351 5.73113 0
M  V30 5089 N 459.507 -0.073661 6.92761 0
M  V30 5090 N 461.3 -0.233949 5.61613 0
M  V30 5091 H 453.451 0.922657 1.91313 0
M  V30 5092 H 455.714 0.354595 0.879185 0
M  V30 5093 H 455.42 0.748169 3.4365 0
M  V30 5094 H 455.294 -0.990224 3.6397 0
M  V30 5095 H 457.681 -1.23724 2.67911 0
M  V30 5096 H 457.762 0.521645 2.50425 0
M  V30 5097 H 457.406 0.765863 5.02093 0
M  V30 5098 H 457.336 -1.00814 5.1686 0
M  V30 5099 H 459.827 -0.32321 3.76515 0
M  V30 5100 H 460.14 -0.0358003 7.72792 0
M  V30 5101 H 458.485 -0.0391461 6.94989 0
M  V30 5102 H 461.676 -0.316347 4.6703 0
M  V30 5103 H 461.849 -0.185514 6.47734 0
M  V30 5104 N 455.255 -1.55392 -0.262866 0
M  V30 5105 C 456.48 -1.80847 -1.01533 0
M  V30 5106 C 456.905 -0.584946 -1.78774 0
M  V30 5107 O 456.263 0.465701 -1.75217 0
M  V30 5108 C 456.311 -3.03866 -1.94159 0
M  V30 5109 O 455.415 -2.79662 -3.03089 0
M  V30 5110 H 454.756 -0.597441 -0.289759 0
M  V30 5111 H 457.286 -2.02553 -0.288698 0
M  V30 5112 H 457.296 -3.32872 -2.35924 0
M  V30 5113 H 455.971 -3.92564 -1.37354 0
M  V30 5114 H 454.548 -2.61781 -2.65566 0
M  V30 5115 N 456.733 0.527833 -1.48498 0
M  V30 5116 C 457.666 1.64892 -1.57753 0
M  V30 5117 C 458.644 1.5687 -0.427867 0
M  V30 5118 O 459.828 1.77311 -0.639764 0
M  V30 5119 C 456.955 3.03301 -1.50752 0
M  V30 5120 C 456.001 3.29675 -2.70586 0
M  V30 5121 S 456.834 3.15712 -4.32535 0
M  V30 5122 C 457.99 4.56564 -4.28136 0
M  V30 5123 H 458.223 1.56792 -2.52594 0
M  V30 5124 H 455.756 0.710959 -1.37057 0
M  V30 5125 H 457.714 3.83123 -1.474 0
M  V30 5126 H 456.375 3.08839 -0.572454 0
M  V30 5127 H 455.568 4.3065 -2.61833 0
M  V30 5128 H 455.17 2.57526 -2.71212 0
M  V30 5129 H 457.462 5.48126 -3.98201 0
M  V30 5130 H 458.405 4.70371 -5.29298 0
M  V30 5131 H 458.813 4.35987 -3.58574 0
M  V30 5132 N 458.211 1.37122 0.776871 0
M  V30 5133 C 459.627 1.1781 1.07671 0
M  V30 5134 C 459.827 0.0107454 2.01497 0
M  V30 5135 O 458.883 -0.650756 2.4397 0
M  V30 5136 C 460.196 2.49451 1.67913 0
M  V30 5137 C 461.744 2.55927 1.80195 0
M  V30 5138 C 462.219 3.87686 2.43851 0
M  V30 5139 N 463.71 3.891 2.51307 0
M  V30 5140 C 464.445 4.87797 3.014 0
M  V30 5141 N 463.941 5.96888 3.51705 0
M  V30 5142 N 465.734 4.75205 3.00227 0
M  V30 5143 H 457.885 2.11843 0.153778 0
M  V30 5144 H 460.148 0.938927 0.130844 0
M  V30 5145 H 459.854 3.35207 1.06439 0
M  V30 5146 H 459.728 2.66169 2.67271 0
M  V30 5147 H 462.115 1.70582 2.40803 0
M  V30 5148 H 462.196 2.43097 0.796069 0
M  V30 5149 H 461.84 4.73444 1.83884 0
M  V30 5150 H 461.77 3.97817 3.45035 0
M  V30 5151 H 464.261 3.10293 2.157 0
M  V30 5152 H 464.574 6.68155 3.88316 0
M  V30 5153 H 462.919 6.0054 3.49824 0
M  V30 5154 H 466.11 3.89103 2.60224 0
M  V30 5155 H 466.283 5.52279 3.38957 0
M  V30 5156 N 459.689 -1.00246 1.21608 0
M  V30 5157 C 461.105 -1.26435 0.973975 0
M  V30 5158 C 461.305 -1.98642 -0.338143 0
M  V30 5159 O 460.361 -2.29026 -1.06317 0
M  V30 5160 C 461.674 -2.08551 2.16626 0
M  V30 5161 C 463.222 -2.21769 2.20879 0
M  V30 5162 C 463.697 -3.07267 3.39633 0
M  V30 5163 N 465.188 -3.14855 3.39736 0
M  V30 5164 C 465.923 -3.81274 4.28273 0
M  V30 5165 N 465.419 -4.497 5.27012 0
M  V30 5166 N 467.212 -3.7794 4.16074 0
M  V30 5167 H 459.363 -0.518089 2.05984 0
M  V30 5168 H 461.626 -0.291368 0.902113 0
M  V30 5169 H 461.332 -1.62847 3.11727 0
M  V30 5170 H 461.206 -3.09303 2.15897 0
M  V30 5171 H 463.593 -2.66691 1.26332 0
M  V30 5172 H 463.674 -1.20478 2.25652 0
M  V30 5173 H 463.318 -2.63047 4.34475 0
M  V30 5174 H 463.248 -4.08678 3.321 0
M  V30 5175 H 465.739 -2.66147 2.6828 0
M  V30 5176 H 466.052 -4.98092 5.90867 0
M  V30 5177 H 464.397 -4.48479 5.30935 0
M  V30 5178 H 467.588 -3.23638 3.38195 0
M  V30 5179 H 467.761 -4.29424 4.85282 0
M  V30 5180 N 461.167 -1.02423 -1.1978 0
M  V30 5181 C 462.114 -0.601023 -2.22837 0
M  V30 5182 C 463.084 0.382801 -1.61629 0
M  V30 5183 O 464.269 0.280514 -1.88727 0
M  V30 5184 C 461.409 0.0467755 -3.45068 0
M  V30 5185 C 460.522 -0.98253 -4.20678 0
M  V30 5186 C 459.657 -0.304982 -5.30324 0
M  V30 5187 C 458.696 -1.32052 -5.97686 0
M  V30 5188 N 457.833 -0.669105 -6.98904 0
M  V30 5189 H 462.673 -1.48444 -2.58396 0
M  V30 5190 H 460.21 -0.742936 -1.2696 0
M  V30 5191 H 462.168 0.439556 -4.14878 0
M  V30 5192 H 460.798 0.893796 -3.10179 0
M  V30 5193 H 459.85 -1.49341 -3.49859 0
M  V30 5194 H 461.162 -1.75455 -4.66923 0
M  V30 5195 H 460.316 0.142893 -6.06532 0
M  V30 5196 H 459.055 0.499283 -4.85138 0
M  V30 5197 H 458.06 -1.7787 -5.20233 0
M  V30 5198 H 459.285 -2.1262 -6.44957 0
M  V30 5199 H 457.231 0.115152 -6.55899 0
M  V30 5200 H 457.148 -1.37908 -7.43315 0
M  V30 5201 H 458.416 -0.245076 -7.79115 0
M  V30 5202 N 462.645 1.35699 -0.801477 0
M  V30 5203 C 463.87 2.03687 -0.390678 0
M  V30 5204 C 464.295 1.60015 0.988778 0
M  V30 5205 O 463.653 0.774357 1.63931 0
M  V30 5206 C 463.701 3.57439 -0.476404 0
M  V30 5207 O 462.805 4.09208 0.512106 0
M  V30 5208 H 462.146 0.64344 -0.163956 0
M  V30 5209 H 464.676 1.73403 -1.08594 0
M  V30 5210 H 464.686 4.06544 -0.344357 0
M  V30 5211 H 463.361 3.88576 -1.48262 0
M  V30 5212 H 461.938 3.7134 0.340721 0
M  V30 5213 N 464.123 0.554532 1.47522 0
M  V30 5214 C 465.37 0.029479 2.02479 0
M  V30 5215 C 465.698 -1.31929 1.42916 0
M  V30 5216 O 464.953 -1.87112 0.573385 0
M  V30 5217 C 465.252 -0.115927 3.57212 0
M  V30 5218 C 464.918 1.16161 4.3568 0
M  V30 5219 C 463.58 1.51168 4.56839 0
M  V30 5220 C 465.932 2.0083 4.80954 0
M  V30 5221 C 463.26 2.70696 5.2052 0
M  V30 5222 C 465.612 3.19559 5.45953 0
M  V30 5223 C 464.276 3.54882 5.65345 0
M  V30 5224 H 463.546 0.0107871 0.740921 0
M  V30 5225 H 466.193 0.725506 1.77225 0
M  V30 5226 H 464.498 -0.894902 3.81443 0
M  V30 5227 H 466.195 -0.53749 3.97381 0
M  V30 5228 H 462.785 0.879026 4.19489 0
M  V30 5229 H 466.969 1.75093 4.64388 0
M  V30 5230 H 462.225 2.98236 5.33728 0
M  V30 5231 H 466.399 3.85456 5.79997 0
M  V30 5232 H 464.026 4.47596 6.1446 0
M  V30 5233 N 465.601 -1.54893 0.290851 0
M  V30 5234 C 467.017 -1.59476 -0.0628432 0
M  V30 5235 C 467.217 -1.30795 -1.5328 0
M  V30 5236 O 466.273 -1.07644 -2.28406 0
M  V30 5237 C 467.586 -2.98928 0.325962 0
M  V30 5238 C 469.134 -3.11799 0.273882 0
M  V30 5239 C 469.609 -4.53544 0.637359 0
M  V30 5240 N 471.1 -4.59433 0.589507 0
M  V30 5241 C 471.835 -5.67164 0.84335 0
M  V30 5242 N 471.331 -6.82975 1.16263 0
M  V30 5243 N 473.124 -5.56786 0.771091 0
M  V30 5244 H 465.275 -1.71798 1.24896 0
M  V30 5245 H 467.538 -0.801879 0.505663 0
M  V30 5246 H 467.244 -3.24805 1.34887 0
M  V30 5247 H 467.118 -3.75793 -0.325441 0
M  V30 5248 H 469.505 -2.85677 -0.739765 0
M  V30 5249 H 469.586 -2.37112 0.959766 0
M  V30 5250 H 469.23 -4.80394 1.64877 0
M  V30 5251 H 469.16 -5.26553 -0.0704866 0
M  V30 5252 H 471.651 -3.76245 0.353252 0
M  V30 5253 H 471.964 -7.61048 1.34257 0
M  V30 5254 H 470.309 -6.84552 1.20057 0
M  V30 5255 H 473.5 -4.65187 0.521383 0
M  V30 5256 H 473.673 -6.40664 0.972295 0
M  V30 5257 N 467.08 -0.0183926 -1.57589 0
M  V30 5258 C 468.305 0.676634 -1.96052 0
M  V30 5259 C 468.73 1.6548 -0.894307 0
M  V30 5260 O 468.088 1.80712 0.145849 0
M  V30 5261 C 468.136 1.36872 -3.33614 0
M  V30 5262 O 467.24 2.48372 -3.29219 0
M  V30 5263 H 466.581 0.1786 -0.63953 0
M  V30 5264 H 469.111 -0.077056 -2.04455 0
M  V30 5265 H 469.121 1.72797 -3.69601 0
M  V30 5266 H 467.796 0.651636 -4.10763 0
M  V30 5267 H 466.373 2.14639 -3.04934 0
M  V30 5268 N 468.558 1.5553 0.254621 0
M  V30 5269 C 469.806 1.7665 0.981793 0
M  V30 5270 C 470.127 0.580963 1.86145 0
M  V30 5271 O 469.397 -0.403537 1.91699 0
M  V30 5272 H 467.977 0.651475 0.365498 0
M  V30 5273 H 470.639 1.92958 0.274426 0
M  V30 5274 H 469.735 2.67486 1.60802 0
M  V30 5275 N 470.036 -0.519951 1.48776 0
M  V30 5276 C 471.261 -1.30447 1.6124 0
M  V30 5277 C 471.686 -1.86055 0.276591 0
M  V30 5278 O 471.044 -1.64915 -0.753183 0
M  V30 5279 C 471.092 -2.42406 2.66967 0
M  V30 5280 O 470.196 -3.45728 2.24824 0
M  V30 5281 H 469.537 -0.385924 0.540332 0
M  V30 5282 H 472.067 -0.624572 1.94834 0
M  V30 5283 H 472.077 -2.88447 2.88552 0
M  V30 5284 H 470.752 -2.01294 3.63941 0
M  V30 5285 H 469.329 -3.05737 2.13494 0
M  V30 5286 N 471.514 -1.37532 -0.769588 0
M  V30 5287 C 472.444 -1.36172 -1.89682 0
M  V30 5288 C 473.425 -0.23001 -1.68538 0
M  V30 5289 O 474.61 -0.43069 -1.89364 0
M  V30 5290 C 471.74 -1.1701 -3.26995 0
M  V30 5291 C 470.694 -2.27216 -3.62708 0
M  V30 5292 C 470.02 -1.93174 -4.98586 0
M  V30 5293 C 471.32 -3.6941 -3.69234 0
M  V30 5294 H 473.014 -2.30499 -1.91078 0
M  V30 5295 H 470.56 -1.10953 -0.917902 0
M  V30 5296 H 472.513 -1.14688 -4.05493 0
M  V30 5297 H 471.237 -0.191395 -3.26039 0
M  V30 5298 H 469.896 -2.28697 -2.86519 0
M  V30 5299 H 469.544 -0.938281 -4.94171 0
M  V30 5300 H 469.244 -2.66973 -5.23449 0
M  V30 5301 H 470.768 -1.92443 -5.79481 0
M  V30 5302 H 472.182 -3.70047 -4.37879 0
M  V30 5303 H 470.579 -4.4228 -4.05597 0
M  V30 5304 H 471.649 -4.0288 -2.69844 0
M  V30 5305 N 472.992 0.995999 -1.22138 0
M  V30 5306 C 474.408 1.25917 -0.980667 0
M  V30 5307 C 474.608 1.98819 0.327604 0
M  V30 5308 O 473.664 2.29587 1.05101 0
M  V30 5309 C 474.977 2.07399 -2.17729 0
M  V30 5310 C 476.525 2.20594 -2.22052 0
M  V30 5311 C 477 3.05462 -3.41258 0
M  V30 5312 N 478.491 3.13049 -3.41401 0
M  V30 5313 C 479.226 3.78997 -4.30289 0
M  V30 5314 N 478.722 4.46899 -5.2939 0
M  V30 5315 N 480.515 3.75728 -4.18073 0
M  V30 5316 H 472.666 0.507158 -2.06256 0
M  V30 5317 H 474.929 0.28658 -0.903646 0
M  V30 5318 H 474.635 1.61191 -3.12586 0
M  V30 5319 H 474.509 3.08154 -2.17534 0
M  V30 5320 H 476.896 2.66017 -1.27745 0
M  V30 5321 H 476.977 1.1928 -2.26287 0
M  V30 5322 H 476.621 2.60739 -4.35864 0
M  V30 5323 H 476.551 4.06911 -3.34262 0
M  V30 5324 H 479.042 2.64721 -2.69688 0
M  V30 5325 H 479.355 4.94952 -5.935 0
M  V30 5326 H 477.7 4.45657 -5.33306 0
M  V30 5327 H 480.891 3.2184 -3.39907 0
M  V30 5328 H 481.064 4.26845 -4.87553 0
M  V30 5329 N 474.47 1.03057 1.19235 0
M  V30 5330 C 475.695 0.74757 1.93458 0
M  V30 5331 C 476.12 -0.687648 1.7508 0
M  V30 5332 O 475.478 -1.47499 1.05422 0
M  V30 5333 C 475.526 1.10604 3.43219 0
M  V30 5334 O 474.63 0.225671 4.11782 0
M  V30 5335 H 473.971 0.276047 0.603899 0
M  V30 5336 H 476.501 1.3777 1.51263 0
M  V30 5337 H 476.511 1.06366 3.93891 0
M  V30 5338 H 475.186 2.15165 3.55917 0
M  V30 5339 H 473.763 0.326795 3.71465 0
M  V30 5340 N 475.948 -1.35272 0.808662 0
M  V30 5341 C 476.878 -2.32315 0.234981 0
M  V30 5342 C 477.859 -1.57572 -0.64071 0
M  V30 5343 O 479.044 -1.8563 -0.570551 0
M  V30 5344 C 476.174 -3.41801 -0.615601 0
M  V30 5345 C 475.128 -4.27694 0.161767 0
M  V30 5346 C 474.454 -5.28519 -0.810649 0
M  V30 5347 C 475.754 -5.04231 1.36193 0
M  V30 5348 H 477.448 -2.80543 1.04575 0
M  V30 5349 H 474.994 -1.3488 0.504315 0
M  V30 5350 H 476.947 -4.08693 -1.02702 0
M  V30 5351 H 475.671 -2.92186 -1.45928 0
M  V30 5352 H 474.33 -3.62384 0.554382 0
M  V30 5353 H 473.978 -4.75171 -1.64988 0
M  V30 5354 H 473.678 -5.8686 -0.294822 0
M  V30 5355 H 475.202 -5.98283 -1.22023 0
M  V30 5356 H 476.616 -5.64058 1.02528 0
M  V30 5357 H 475.013 -5.72077 1.81239 0
M  V30 5358 H 476.083 -4.34753 2.14751 0
M  V30 5359 N 477.426 -0.562348 -1.47226 0
M  V30 5360 C 478.651 -0.0432632 -2.07355 0
M  V30 5361 C 479.076 1.24332 -1.41149 0
M  V30 5362 O 478.434 1.74603 -0.488226 0
M  V30 5363 C 478.482 0.130288 -3.60365 0
M  V30 5364 O 477.586 1.19166 -3.94808 0
M  V30 5365 H 476.927 -0.0536334 -0.66183 0
M  V30 5366 H 479.457 -0.779495 -1.89169 0
M  V30 5367 H 479.467 0.342881 -4.06557 0
M  V30 5368 H 478.142 -0.809389 -4.07948 0
M  V30 5369 H 476.719 0.959153 -3.60354 0
M  V30 5370 N 478.904 1.54736 -0.299062 0
M  V30 5371 C 479.852 2.24897 0.593658 0
M  V30 5372 C 480.846 1.25429 1.13859 0
M  V30 5373 O 482.052 1.43286 1.08945 0
M  V30 5374 H 478.427 0.72207 0.210046 0
M  V30 5375 H 480.398 2.98393 -0.0206421 0
M  V30 5376 C 479.147 3.00159 1.75499 0
M  V30 5377 H 478.47 3.76501 1.34489 0
M  V30 5378 H 479.91 3.52535 2.35574 0
M  V30 5379 C 478.369 2.07015 2.65794 0
M  V30 5380 O 478.899 1.63692 3.66835 0
M  V30 5381 N 477.105 1.73012 2.33485 0
M  V30 5382 H 476.652 2.08439 1.51364 0
M  V30 5383 H 476.61 1.10965 2.94167 0
M  V30 5384 N 480.382 0.0267497 1.57577 0
M  V30 5385 C 481.631 -0.651736 1.9088 0
M  V30 5386 C 481.944 -1.73427 0.904576 0
M  V30 5387 O 483.15 -2.46923 1.12877 0
M  V30 5388 C 481.606 -1.21048 3.38933 0
M  V30 5389 C 481.214 -0.161362 4.47709 0
M  V30 5390 C 482.958 -1.86562 3.81307 0
M  V30 5391 C 480.865 -0.731611 5.86857 0
M  V30 5392 H 479.795 -0.247198 0.712326 0
M  V30 5393 H 482.446 0.0916641 1.83271 0
M  V30 5394 H 480.828 -2.00542 3.41466 0
M  V30 5395 H 482.002 0.61094 4.56732 0
M  V30 5396 H 480.317 0.394877 4.14523 0
M  V30 5397 H 482.914 -2.30178 4.8262 0
M  V30 5398 H 483.257 -2.70735 3.16241 0
M  V30 5399 H 483.79 -1.13762 3.81186 0
M  V30 5400 H 480.529 0.0719329 6.55461 0
M  V30 5401 H 480.049 -1.47245 5.81445 0
M  V30 5402 H 481.728 -1.22208 6.35354 0
M  V30 5403 N 481.861 -1.55662 -0.24637 0
M  V30 5404 C 482.809 -1.91186 -1.3248 0
M  V30 5405 C 483.803 -0.790996 -1.49799 0
M  V30 5406 O 485.009 -0.975617 -1.51267 0
M  V30 5407 H 481.384 -0.607207 -0.443626 0
M  V30 5408 H 483.355 -2.81221 -0.997853 0
M  V30 5409 C 482.104 -2.22349 -2.67313 0
M  V30 5410 H 481.427 -3.08097 -2.54786 0
M  V30 5411 H 482.867 -2.51107 -3.41645 0
M  V30 5412 C 481.326 -1.04001 -3.20446 0
M  V30 5413 O 481.856 -0.28828 -4.00664 0
M  V30 5414 N 480.062 -0.830494 -2.7848 0
M  V30 5415 H 479.609 -1.4435 -2.13356 0
M  V30 5416 H 479.567 -0.0403258 -3.14374 0
M  V30 5417 N 483.339 0.512053 -1.4905 0
M  V30 5418 C 484.564 1.2959 -1.6193 0
M  V30 5419 C 484.989 1.85906 -0.286454 0
M  V30 5420 O 484.347 1.65312 0.744426 0
M  V30 5421 C 484.395 2.40987 -2.68249 0
M  V30 5422 O 483.499 3.44531 -2.26654 0
M  V30 5423 H 482.84 0.383053 -0.542371 0
M  V30 5424 H 485.37 0.614231 -1.95162 0
M  V30 5425 H 485.38 2.86913 -2.90078 0
M  V30 5426 H 484.055 1.99361 -3.65004 0
M  V30 5427 H 482.632 3.046 -2.15112 0
M  V30 5428 N 484.817 1.37938 0.762283 0
M  V30 5429 C 485.727 1.36681 1.90671 0
M  V30 5430 C 486.743 0.265078 1.71969 0
M  V30 5431 O 487.919 0.502055 1.95042 0
M  V30 5432 C 484.984 1.18211 3.25925 0
M  V30 5433 C 484.045 2.3811 3.57214 0
M  V30 5434 C 483.278 2.20512 4.86014 0
M  V30 5435 O 483.501 1.19429 5.57757 0
M  V30 5436 O 482.435 3.08911 5.16583 0
M  V30 5437 H 486.261 2.33091 1.94685 0
M  V30 5438 H 483.846 1.18767 0.906356 0
M  V30 5439 H 485.728 1.09937 4.06807 0
M  V30 5440 H 484.403 0.248807 3.22742 0
M  V30 5441 H 483.31 2.51958 2.76529 0
M  V30 5442 H 484.643 3.30041 3.65149 0
M  V30 5443 N 486.295 -0.989507 1.22664 0
M  V30 5444 C 487.228 -2.07805 0.942985 0
M  V30 5445 C 488.206 -1.6219 -0.115356 0
M  V30 5446 O 489.39 -1.88492 0.0169565 0
M  V30 5447 C 486.517 -3.361 0.418898 0
M  V30 5448 C 485.563 -4.00643 1.46244 0
M  V30 5449 S 486.396 -4.41059 3.03689 0
M  V30 5450 C 487.552 -5.7252 2.52927 0
M  V30 5451 H 487.785 -2.31547 1.86476 0
M  V30 5452 H 485.318 -1.12446 1.05808 0
M  V30 5453 H 487.276 -4.10315 0.123114 0
M  V30 5454 H 485.937 -3.10383 -0.481818 0
M  V30 5455 H 485.13 -4.93033 1.04569 0
M  V30 5456 H 484.732 -3.32767 1.7071 0
M  V30 5457 H 487.024 -6.49017 1.94379 0
M  V30 5458 H 487.967 -6.19026 3.4382 0
M  V30 5459 H 488.375 -5.30083 1.94094 0
M  V30 5460 N 487.773 -1.03688 -1.18687 0
M  V30 5461 C 488.703 -0.645407 -2.24403 0
M  V30 5462 C 489.684 0.349511 -1.66471 0
M  V30 5463 O 490.869 0.230453 -1.92828 0
M  V30 5464 C 487.999 -0.00365337 -3.473 0
M  V30 5465 C 486.953 -0.921705 -4.17958 0
M  V30 5466 C 486.279 -0.144629 -5.34504 0
M  V30 5467 C 487.579 -2.23909 -4.71871 0
M  V30 5468 H 489.273 -1.52917 -2.57404 0
M  V30 5469 H 486.819 -0.736711 -1.23728 0
M  V30 5470 H 488.772 0.281908 -4.20456 0
M  V30 5471 H 487.496 0.914963 -3.13522 0
M  V30 5472 H 486.155 -1.19159 -3.46694 0
M  V30 5473 H 485.803 0.776274 -4.96974 0
M  V30 5474 H 485.503 -0.756206 -5.82714 0
M  V30 5475 H 487.027 0.134004 -6.10453 0
M  V30 5476 H 488.441 -2.0145 -5.36741 0
M  V30 5477 H 486.838 -2.8033 -5.30599 0
M  V30 5478 H 487.908 -2.88822 -3.895 0
M  V30 5479 O 489.29 1.30511 -0.951271 0
M  V30 5480 H 489.981 1.84711 -0.583235 0
M  V30 END ATOM
M  V30 BEGIN BOND
M  V30 END BOND
M  V30 END CTAB
M  END
$$$$
