drugbank_target|Q14416 Metabotropic glutamate receptor 2 (DB05096)
 OpenBabel12092119443D

  0  0  0     0  0            999 V3000
M  V30 BEGIN CTAB
M  V30 COUNTS 13401 13564 0 0 0
M  V30 BEGIN ATOM
M  V30 1 H -0.908 1.98254 -0.117106 0
M  V30 2 N 0 1.576 0 0
M  V30 3 C 0.933 2.03868 1.02534 0
M  V30 4 C 1.911 0.928543 1.3348 0
M  V30 5 O 3.095 1.19667 1.45644 0
M  V30 6 C 0.222 2.43627 2.35294 0
M  V30 7 C -0.732 3.65373 2.2001 0
M  V30 8 S 0.101 5.13292 1.52614 0
M  V30 9 C 1.257 5.56322 2.86805 0
M  V30 10 H 1.49 2.90518 0.631377 0
M  V30 11 H -0.977 1.52953 0.210867 0
M  V30 12 H 0.981 2.67203 3.11629 0
M  V30 13 H -0.358 1.57376 2.7183 0
M  V30 14 H -1.165 3.90944 3.18086 0
M  V30 15 H -1.563 3.418 1.51819 0
M  V30 16 H 0.729 5.58782 3.83104 0
M  V30 17 H 1.672 6.56266 2.65933 0
M  V30 18 H 2.08 4.83886 2.90714 0
M  V30 19 N 1.4781 -0.272755 1.55222 0
M  V30 20 C 2.7261 -1.00234 1.75492 0
M  V30 21 C 3.0471 -1.8681 0.5592 0
M  V30 22 O 2.3171 -1.91215 -0.425882 0
M  V30 23 H 0.8971 -0.373076 0.647166 0
M  V30 24 H 3.5591 -0.296926 1.92625 0
M  V30 25 H 2.6551 -1.63913 2.65592 0
M  V30 26 N 2.9562 -1.48159 -0.537278 0
M  V30 27 C 4.1812 -1.59707 -1.32319 0
M  V30 28 C 4.6062 -0.254859 -1.86365 0
M  V30 29 O 3.9642 0.772378 -1.64024 0
M  V30 30 C 4.0122 -2.6412 -2.45505 0
M  V30 31 O 3.1162 -2.20774 -3.48328 0
M  V30 32 H 2.4572 -0.535791 -0.392204 0
M  V30 33 H 4.9872 -1.94092 -0.647268 0
M  V30 34 H 4.9972 -2.85166 -2.91795 0
M  V30 35 H 3.6722 -3.61567 -2.05528 0
M  V30 36 H 2.2492 -2.09911 -3.08207 0
M  V30 37 N 4.4343 0.785586 -1.36625 0
M  V30 38 C 5.3643 1.91259 -1.33949 0
M  V30 39 C 6.3453 1.68795 -0.210325 0
M  V30 40 O 7.5303 1.89854 -0.408561 0
M  V30 41 C 4.6603 3.28339 -1.13186 0
M  V30 42 C 3.6143 3.65335 -2.22967 0
M  V30 43 C 2.9403 5.00806 -1.87342 0
M  V30 44 C 4.2403 3.7352 -3.65075 0
M  V30 45 H 5.9343 1.93755 -2.28253 0
M  V30 46 H 3.4803 0.930788 -1.09874 0
M  V30 47 H 5.4333 4.06804 -1.09948 0
M  V30 48 H 4.1573 3.2624 -0.153332 0
M  V30 49 H 2.8163 2.89169 -2.25337 0
M  V30 50 H 2.4643 4.95233 -0.880545 0
M  V30 51 H 2.1643 5.26529 -2.60846 0
M  V30 52 H 3.6883 5.81687 -1.85667 0
M  V30 53 H 5.1023 4.42168 -3.64911 0
M  V30 54 H 3.4993 4.10731 -4.37516 0
M  V30 55 H 4.5693 2.74527 -3.99703 0
M  V30 56 N 5.9124 1.20967 1.01018 0
M  V30 57 C 6.8424 0.988272 2.11555 0
M  V30 58 C 7.8234 -0.0849778 1.69888 0
M  V30 59 O 9.0084 0.0738202 1.9406 0
M  V30 60 C 6.1384 0.546528 3.42973 0
M  V30 61 C 5.0924 1.56375 3.9841 0
M  V30 62 C 4.4184 0.97842 5.25672 0
M  V30 63 C 5.7184 2.94922 4.31066 0
M  V30 64 H 7.4124 1.91276 2.30334 0
M  V30 65 H 4.9584 0.921073 1.1069 0
M  V30 66 H 6.9114 0.378839 4.19694 0
M  V30 67 H 5.6354 -0.413598 3.23971 0
M  V30 68 H 4.2944 1.71891 3.23804 0
M  V30 69 H 3.9424 0.0101688 5.02999 0
M  V30 70 H 3.6424 1.65784 5.63728 0
M  V30 71 H 5.1664 0.821939 6.05043 0
M  V30 72 H 6.5804 2.8288 4.9865 0
M  V30 73 H 4.9774 3.5983 4.80253 0
M  V30 74 H 6.0474 3.4616 3.39561 0
M  V30 75 N 7.3905 -1.2043 1.01659 0
M  V30 76 C 8.3535 -2.21433 0.591616 0
M  V30 77 C 9.3535 -1.57203 -0.338226 0
M  V30 78 O 10.5435 -1.73737 -0.126918 0
M  V30 79 C 7.6755 -3.40628 -0.136058 0
M  V30 80 H 8.8685 -2.60545 1.48514 0
M  V30 81 H 6.4215 -1.33893 0.806379 0
M  V30 82 H 7.1565 -3.07019 -1.04449 0
M  V30 83 H 6.9415 -3.88475 0.531917 0
M  V30 84 H 8.4315 -4.15475 -0.420735 0
M  V30 85 N 8.8686 -0.792821 -1.36206 0
M  V30 86 C 9.7986 -0.207853 -2.32573 0
M  V30 87 C 10.7796 0.659055 -1.56813 0
M  V30 88 O 11.9646 0.592176 -1.84951 0
M  V30 89 C 9.0946 0.655449 -3.41059 0
M  V30 90 C 8.0486 -0.111842 -4.27854 0
M  V30 91 C 7.3746 0.872274 -5.27537 0
M  V30 92 C 8.6746 -1.30299 -5.05786 0
M  V30 93 H 10.3686 -1.01294 -2.81744 0
M  V30 94 H 7.9146 -0.48854 -1.3546 0
M  V30 95 H 9.8676 1.07464 -4.07467 0
M  V30 96 H 8.5916 1.49328 -2.90463 0
M  V30 97 H 7.2506 -0.512053 -3.63006 0
M  V30 98 H 6.8986 1.70523 -4.73214 0
M  V30 99 H 6.5986 0.363291 -5.86476 0
M  V30 100 H 8.1226 1.28996 -5.96818 0
M  V30 101 H 9.5366 -0.959379 -5.65216 0
M  V30 102 H 7.9336 -1.7455 -5.74154 0
M  V30 103 H 9.0036 -2.09663 -4.37229 0
M  V30 104 N 10.3467 1.47872 -0.545128 0
M  V30 105 C 11.2767 2.32661 0.197793 0
M  V30 106 C 12.2577 1.43041 0.920504 0
M  V30 107 O 13.4427 1.71912 0.90333 0
M  V30 108 C 10.5727 3.24569 1.23582 0
M  V30 109 C 9.5267 4.23333 0.630323 0
M  V30 110 C 8.8527 5.0448 1.77211 0
M  V30 111 C 10.1527 5.20704 -0.407974 0
M  V30 112 H 11.8467 2.95024 -0.510045 0
M  V30 113 H 9.3927 1.4187 -0.246731 0
M  V30 114 H 11.3457 3.8272 1.76362 0
M  V30 115 H 10.0697 2.60236 1.97344 0
M  V30 116 H 8.7287 3.6639 0.123922 0
M  V30 117 H 8.3767 4.36561 2.49847 0
M  V30 118 H 8.0767 5.71339 1.37281 0
M  V30 119 H 9.6007 5.65487 2.3034 0
M  V30 120 H 11.0147 5.7329 0.033305 0
M  V30 121 H 9.4117 5.95699 -0.725486 0
M  V30 122 H 10.4817 4.66917 -1.30828 0
M  V30 123 N 11.8248 0.280983 1.55075 0
M  V30 124 C 12.7878 -0.590896 2.21452 0
M  V30 125 C 13.7878 -1.07682 1.19421 0
M  V30 126 O 14.9778 -0.97605 1.44288 0
M  V30 127 C 12.1098 -1.81587 2.88511 0
M  V30 128 H 13.3028 -0.0112554 2.99898 0
M  V30 129 H 10.8558 0.0316438 1.56268 0
M  V30 130 H 11.5908 -2.43587 2.14093 0
M  V30 131 H 11.3758 -1.4753 3.63287 0
M  V30 132 H 12.8658 -2.43575 3.39206 0
M  V30 133 N 13.3029 -1.57598 0.00835791 0
M  V30 134 C 14.2329 -2.1198 -0.979113 0
M  V30 135 C 15.2139 -1.03091 -1.35301 0
M  V30 136 O 16.3989 -1.30818 -1.43528 0
M  V30 137 C 13.5289 -2.62995 -2.26828 0
M  V30 138 C 12.4829 -3.76485 -2.03576 0
M  V30 139 C 11.8089 -4.13846 -3.38579 0
M  V30 140 C 13.1089 -5.0342 -1.39161 0
M  V30 141 H 14.8029 -2.94738 -0.526281 0
M  V30 142 H 12.3489 -1.41783 -0.251704 0
M  V30 143 H 14.3019 -2.99669 -2.96271 0
M  V30 144 H 13.0259 -1.7737 -2.7424 0
M  V30 145 H 11.6849 -3.40217 -1.36557 0
M  V30 146 H 11.3329 -3.25232 -3.83709 0
M  V30 147 H 11.0329 -4.90312 -3.23834 0
M  V30 148 H 12.5569 -4.53086 -4.09323 0
M  V30 149 H 13.9709 -5.37812 -1.98573 0
M  V30 150 H 12.3679 -5.84746 -1.34878 0
M  V30 151 H 13.4379 -4.83548 -0.361868 0
M  V30 152 N 14.781 0.264519 -1.55364 0
M  V30 153 C 15.711 1.33121 -1.91836 0
M  V30 154 C 16.692 1.51101 -0.781192 0
M  V30 155 O 17.877 1.64003 -1.04003 0
M  V30 156 C 15.007 2.68921 -2.19769 0
M  V30 157 C 13.961 2.65661 -3.35571 0
M  V30 158 C 13.287 4.05093 -3.49004 0
M  V30 159 C 14.587 2.24187 -4.71739 0
M  V30 160 H 16.281 1.02844 -2.81182 0
M  V30 161 H 13.827 0.493286 -1.35287 0
M  V30 162 H 15.78 3.43663 -2.43872 0
M  V30 163 H 14.504 3.00799 -1.27231 0
M  V30 164 H 13.163 1.93377 -3.1145 0
M  V30 165 H 12.811 4.34206 -2.53917 0
M  V30 166 H 12.511 4.03804 -4.26868 0
M  V30 167 H 14.035 4.81561 -3.75408 0
M  V30 168 H 15.449 2.88654 -4.9533 0
M  V30 169 H 13.846 2.34044 -5.52579 0
M  V30 170 H 14.916 1.19327 -4.69988 0
M  V30 171 N 16.2591 1.48442 0.529413 0
M  V30 172 C 17.1891 1.65902 1.64313 0
M  V30 173 C 18.1701 0.507897 1.6234 0
M  V30 174 O 19.3551 0.740503 1.79528 0
M  V30 175 C 16.4851 1.69911 3.02898 0
M  V30 176 C 15.4391 2.8453 3.19729 0
M  V30 177 C 14.7651 2.73629 4.59381 0
M  V30 178 C 16.0651 4.25821 3.02447 0
M  V30 179 H 17.7591 2.5914 1.49955 0
M  V30 180 H 15.3051 1.24709 0.719982 0
M  V30 181 H 17.2581 1.80715 3.80684 0
M  V30 182 H 15.9821 0.732524 3.18279 0
M  V30 183 H 14.6411 2.73283 2.44361 0
M  V30 184 H 14.2891 1.74938 4.71599 0
M  V30 185 H 13.9891 3.50541 4.71588 0
M  V30 186 H 15.5131 2.86401 5.39265 0
M  V30 187 H 16.9271 4.37898 3.70024 0
M  V30 188 H 15.3241 5.03735 3.26146 0
M  V30 189 H 16.3941 4.42244 1.98867 0
M  V30 190 N 17.7372 -0.778329 1.37039 0
M  V30 191 C 18.6672 -1.90546 1.34962 0
M  V30 192 C 19.6482 -1.68681 0.219274 0
M  V30 193 O 20.8332 -1.89634 0.418624 0
M  V30 194 C 17.9632 -3.27734 1.14925 0
M  V30 195 C 16.9172 -3.64147 2.24902 0
M  V30 196 C 16.2432 -4.99806 1.89996 0
M  V30 197 C 17.5432 -3.71579 3.67051 0
M  V30 198 H 19.2372 -1.92541 2.29277 0
M  V30 199 H 16.7832 -0.924948 1.10366 0
M  V30 200 H 18.7362 -4.06215 1.12104 0
M  V30 201 H 17.4602 -3.26154 0.170631 0
M  V30 202 H 16.1192 -2.8797 2.26868 0
M  V30 203 H 15.7672 -4.94759 0.906796 0
M  V30 204 H 15.4672 -5.25139 2.63634 0
M  V30 205 H 16.9912 -5.80694 1.88749 0
M  V30 206 H 18.4052 -4.40227 3.67251 0
M  V30 207 H 16.8022 -4.08405 4.39688 0
M  V30 208 H 17.8722 -2.72404 4.01154 0
M  V30 209 N 19.2153 -1.21501 -1.00376 0
M  V30 210 C 20.4613 -1.04457 -1.74529 0
M  V30 211 C 20.8163 0.417386 -1.87818 0
M  V30 212 O 20.1093 1.30556 -1.40234 0
M  V30 213 C 20.3033 -1.67673 -3.15627 0
M  V30 214 C 20.1323 -3.19865 -3.16096 0
M  V30 215 C 18.9023 -3.88915 -3.22604 0
M  V30 216 C 21.1003 -4.16936 -3.01112 0
M  V30 217 N 19.0823 -5.28284 -3.12712 0
M  V30 218 C 20.4533 -5.43066 -2.99131 0
M  V30 219 C 22.5083 -4.07968 -2.85423 0
M  V30 220 C 21.2113 -6.6126 -2.83068 0
M  V30 221 C 23.2373 -5.258 -2.70718 0
M  V30 222 C 22.5993 -6.50842 -2.69414 0
M  V30 223 H 18.6983 -0.436584 -0.648782 0
M  V30 224 H 21.2823 -1.53875 -1.19293 0
M  V30 225 H 19.4533 -1.20822 -3.6913 0
M  V30 226 H 21.1853 -1.43824 -3.78281 0
M  V30 227 H 17.9403 -3.39847 -3.2985 0
M  V30 228 H 18.3643 -6.01284 -3.11105 0
M  V30 229 H 23.0063 -3.1209 -2.85236 0
M  V30 230 H 20.7243 -7.57298 -2.82002 0
M  V30 231 H 24.3103 -5.20683 -2.59577 0
M  V30 232 H 23.1903 -7.40485 -2.5817 0
M  V30 233 N 20.6934 1.19889 -1.02296 0
M  V30 234 C 21.9414 1.89046 -0.714558 0
M  V30 235 C 22.2624 1.79636 0.758681 0
M  V30 236 O 21.5324 1.20292 1.54618 0
M  V30 237 H 20.1124 0.699802 -0.261317 0
M  V30 238 H 22.7744 1.45574 -1.29592 0
M  V30 239 H 21.8704 2.95524 -1.0036 0
M  V30 240 N 22.1715 0.800033 1.35784 0
M  V30 241 C 23.1345 0.211565 2.28221 0
M  V30 242 C 24.1345 -0.59728 1.49296 0
M  V30 243 O 25.3245 -0.416721 1.69142 0
M  V30 244 C 22.4565 -0.705846 3.33513 0
M  V30 245 H 23.6495 1.02677 2.81776 0
M  V30 246 H 21.2025 0.570211 1.45528 0
M  V30 247 H 21.9375 -1.54498 2.85133 0
M  V30 248 H 21.7225 -0.127655 3.91892 0
M  V30 249 H 23.2125 -1.11211 4.02519 0
M  V30 250 N 23.6496 -1.47581 0.552962 0
M  V30 251 C 24.8956 -2.02782 0.0273648 0
M  V30 252 C 25.2286 -1.42687 -1.31734 0
M  V30 253 O 24.5036 -0.580897 -1.85623 0
M  V30 254 C 24.7866 -3.60031 -0.0702371 0
M  V30 255 C 24.6396 -4.30566 1.30126 0
M  V30 256 C 25.9586 -4.33028 -0.785771 0
M  V30 257 H 23.0776 -0.736912 0.0114185 0
M  V30 258 H 25.7196 -1.76056 0.714432 0
M  V30 259 H 23.8696 -3.82932 -0.655382 0
M  V30 260 H 25.5416 -4.19018 1.92929 0
M  V30 261 H 23.7846 -3.91086 1.87709 0
M  V30 262 H 24.4556 -5.39114 1.18573 0
M  V30 263 H 26.9316 -4.15095 -0.288982 0
M  V30 264 H 25.8076 -5.42695 -0.823013 0
M  V30 265 H 26.0686 -4.01945 -1.841 0
M  V30 266 N 25.1277 -0.289203 -1.54924 0
M  V30 267 C 26.0907 0.579144 -2.21762 0
M  V30 268 C 27.0907 1.07047 -1.1999 0
M  V30 269 O 28.2807 0.968384 -1.44803 0
M  V30 270 C 25.4127 1.80055 -2.8947 0
M  V30 271 H 26.6057 -0.00464908 -2.999 0
M  V30 272 H 24.1587 -0.0399306 -1.56249 0
M  V30 273 H 24.8937 2.42449 -2.15381 0
M  V30 274 H 24.6787 1.45602 -3.64064 0
M  V30 275 H 26.1687 2.41773 -3.40493 0
M  V30 276 N 26.6058 1.57591 -0.0167156 0
M  V30 277 C 27.5158 2.1291 0.98521 0
M  V30 278 C 28.5318 1.07834 1.36557 0
M  V30 279 O 29.7078 1.39826 1.44951 0
M  V30 280 C 26.7728 2.63512 2.25305 0
M  V30 281 C 25.8338 3.83256 1.93426 0
M  V30 282 C 25.0668 4.31435 3.14165 0
M  V30 283 O 25.2898 3.78851 4.26413 0
M  V30 284 O 24.2238 5.23416 2.97186 0
M  V30 285 H 28.0498 2.98772 0.544888 0
M  V30 286 H 25.6348 1.48012 0.203141 0
M  V30 287 H 27.5168 2.96183 2.99756 0
M  V30 288 H 26.1918 1.8074 2.68542 0
M  V30 289 H 25.0988 3.55531 1.16398 0
M  V30 290 H 26.4318 4.67153 1.55013 0
M  V30 291 N 28.0839 -0.256276 1.55502 0
M  V30 292 C 29.3319 -0.983672 1.76545 0
M  V30 293 C 29.6529 -1.86206 0.578982 0
M  V30 294 O 28.9229 -1.91656 -0.405577 0
M  V30 295 H 27.5029 -0.366191 0.651086 0
M  V30 296 H 30.1649 -0.276479 1.92929 0
M  V30 297 H 29.2609 -1.61087 2.67315 0
M  V30 298 N 29.562 -1.4872 -0.521534 0
M  V30 299 C 30.973 -1.50607 -1.10337 0
M  V30 300 C 31.324 -0.280612 -1.94183 0
M  V30 301 O 30.449 0.611507 -2.0758 0
M  V30 302 C 31.044 -2.72903 -2.00772 0
M  V30 303 C 29.603 -2.77634 -2.54158 0
M  V30 304 C 28.75 -2.44241 -1.31307 0
M  V30 305 H 31.701 -1.55714 -0.306388 0
M  V30 306 H 31.722 -2.519 -2.85178 0
M  V30 307 H 31.234 -3.62077 -1.39721 0
M  V30 308 H 29.335 -1.92689 -3.18907 0
M  V30 309 H 29.448 -3.79283 -2.92714 0
M  V30 310 H 27.812 -1.95577 -1.63161 0
M  V30 311 H 28.595 -3.35666 -0.719943 0
M  V30 312 N 31.0401 0.771051 -1.3745 0
M  V30 313 C 32.0031 1.86598 -1.33093 0
M  V30 314 C 33.0031 1.59076 -0.234845 0
M  V30 315 O 34.1931 1.67145 -0.490732 0
M  V30 316 C 31.3251 3.23747 -1.06773 0
M  V30 317 H 32.5181 1.91873 -2.30488 0
M  V30 318 H 30.0711 0.970876 -1.2249 0
M  V30 319 H 30.8061 3.24148 -0.099129 0
M  V30 320 H 30.5911 3.45115 -1.86112 0
M  V30 321 H 32.0811 4.03824 -1.06377 0
M  V30 322 N 32.5182 1.22032 0.997298 0
M  V30 323 C 33.4652 0.986467 2.08656 0
M  V30 324 C 34.4352 -0.0902671 1.65855 0
M  V30 325 O 35.6202 0.0584294 1.90711 0
M  V30 326 C 32.7602 0.565569 3.40434 0
M  V30 327 C 31.8732 1.71259 3.96604 0
M  V30 328 C 31.0082 1.24011 5.16522 0
M  V30 329 C 30.0472 2.35896 5.64818 0
M  V30 330 N 29.1842 1.89726 6.7598 0
M  V30 331 H 34.0242 1.91892 2.27994 0
M  V30 332 H 31.5612 0.956199 1.11782 0
M  V30 333 H 33.5192 0.302738 4.161 0
M  V30 334 H 32.1492 -0.329879 3.2111 0
M  V30 335 H 31.2012 2.08986 3.17851 0
M  V30 336 H 32.5132 2.55436 4.28432 0
M  V30 337 H 31.6672 0.934395 5.99461 0
M  V30 338 H 30.4062 0.368487 4.86306 0
M  V30 339 H 29.4112 2.67261 4.8047 0
M  V30 340 H 30.6362 3.23567 5.97061 0
M  V30 341 H 28.5822 1.0492 6.47555 0
M  V30 342 H 28.4992 2.67471 7.07103 0
M  V30 343 H 29.7672 1.62211 7.62435 0
M  V30 344 N 33.9963 -1.19345 1.0293 0
M  V30 345 C 34.9433 -2.2258 0.610464 0
M  V30 346 C 35.9133 -1.6179 -0.375946 0
M  V30 347 O 37.0983 -1.88844 -0.272511 0
M  V30 348 C 34.2383 -3.45085 -0.0321473 0
M  V30 349 C 33.3513 -4.20258 1.00035 0
M  V30 350 C 32.4863 -5.3019 0.32746 0
M  V30 351 C 31.5253 -5.97121 1.34584 0
M  V30 352 N 30.6623 -6.98615 0.698726 0
M  V30 353 H 35.5023 -2.57764 1.49538 0
M  V30 354 H 33.0393 -1.26644 0.748311 0
M  V30 355 H 34.9973 -4.15061 -0.421966 0
M  V30 356 H 33.6273 -3.10555 -0.88064 0
M  V30 357 H 32.6793 -3.49223 1.50823 0
M  V30 358 H 33.9913 -4.66175 1.77433 0
M  V30 359 H 33.1453 -6.06587 -0.11718 0
M  V30 360 H 31.8843 -4.85345 -0.478713 0
M  V30 361 H 30.8893 -5.19474 1.80074 0
M  V30 362 H 32.1143 -6.4405 2.15352 0
M  V30 363 H 30.0603 -6.55942 -0.0873471 0
M  V30 364 H 29.9773 -7.42724 1.41058 0
M  V30 365 H 31.2453 -7.79004 0.278102 0
M  V30 366 N 35.4744 -0.807222 -1.35358 0
M  V30 367 C 36.7204 -0.388463 -1.99045 0
M  V30 368 C 37.0534 1.04184 -1.63888 0
M  V30 369 O 36.3284 1.72292 -0.902535 0
M  V30 370 C 36.6114 -0.572783 -3.55515 0
M  V30 371 C 36.4644 -2.04807 -4.00468 0
M  V30 372 C 37.7834 0.00114064 -4.401 0
M  V30 373 H 34.9024 -0.142619 -0.723069 0
M  V30 374 H 37.5444 -1.01687 -1.60498 0
M  V30 375 H 35.6944 -0.0378425 -3.88482 0
M  V30 376 H 37.3664 -2.64544 -3.77908 0
M  V30 377 H 35.6094 -2.54427 -3.51353 0
M  V30 378 H 36.2804 -2.12792 -5.09337 0
M  V30 379 H 38.7564 -0.455716 -4.13597 0
M  V30 380 H 37.6324 -0.157737 -5.48673 0
M  V30 381 H 37.8934 1.09488 -4.28328 0
M  V30 382 N 36.9525 1.47285 -0.560781 0
M  V30 383 C 37.8825 2.32857 0.173105 0
M  V30 384 C 38.8635 1.44009 0.905281 0
M  V30 385 O 40.0485 1.7286 0.885046 0
M  V30 386 C 37.1785 3.25861 1.20133 0
M  V30 387 C 36.1325 4.23978 0.585388 0
M  V30 388 C 35.4585 5.06332 1.7185 0
M  V30 389 C 36.7585 5.20242 -0.463178 0
M  V30 390 H 38.4525 2.94466 -0.541307 0
M  V30 391 H 35.9985 1.41601 -0.261764 0
M  V30 392 H 37.9515 3.84569 1.72293 0
M  V30 393 H 36.6755 2.62315 1.94573 0
M  V30 394 H 35.3345 3.66501 0.085054 0
M  V30 395 H 34.9825 4.39186 2.45203 0
M  V30 396 H 34.6825 5.72762 1.31213 0
M  V30 397 H 36.2065 5.67899 2.24329 0
M  V30 398 H 37.6205 5.73293 -0.027502 0
M  V30 399 H 36.0175 5.94896 -0.788627 0
M  V30 400 H 37.0875 4.65504 -1.35773 0
M  V30 401 N 38.4306 0.297415 1.54768 0
M  V30 402 C 39.6586 -0.315623 2.04478 0
M  V30 403 C 40.0736 -1.47792 1.17486 0
M  V30 404 O 39.4306 -1.81404 0.19971 0
M  V30 405 C 39.4816 -0.7753 3.53088 0
M  V30 406 O 39.2026 0.340732 4.36773 0
M  V30 407 C 40.7036 -1.45386 4.18781 0
M  V30 408 H 37.9236 -0.0690887 0.667434 0
M  V30 409 H 40.4676 0.436003 1.99798 0
M  V30 410 H 38.6226 -1.47696 3.58141 0
M  V30 411 H 39.0366 -0.0165035 5.24497 0
M  V30 412 H 40.5106 -1.72669 5.24299 0
M  V30 413 H 40.9876 -2.39275 3.68299 0
M  V30 414 H 41.5936 -0.795475 4.17795 0
M  V30 415 N 39.9087 -1.5758 0.0250728 0
M  V30 416 C 40.8387 -2.13007 -0.956575 0
M  V30 417 C 41.8197 -1.0452 -1.342 0
M  V30 418 O 43.0047 -1.32332 -1.42133 0
M  V30 419 C 40.1347 -2.65386 -2.24026 0
M  V30 420 C 39.0887 -3.78623 -1.99571 0
M  V30 421 C 38.4147 -4.17414 -3.3417 0
M  V30 422 C 39.7147 -5.04867 -1.33814 0
M  V30 423 H 41.4087 -2.9528 -0.494991 0
M  V30 424 H 38.9547 -1.42042 -0.236651 0
M  V30 425 H 40.9077 -3.02794 -2.93076 0
M  V30 426 H 39.6317 -1.80268 -2.72343 0
M  V30 427 H 38.2907 -3.41646 -1.32941 0
M  V30 428 H 37.9387 -3.29284 -3.80238 0
M  V30 429 H 37.6387 -4.93719 -3.18615 0
M  V30 430 H 39.1627 -4.57402 -4.04495 0
M  V30 431 H 40.5767 -5.39888 -1.92857 0
M  V30 432 H 38.9737 -5.86144 -1.28669 0
M  V30 433 H 40.0437 -4.83904 -0.310561 0
M  V30 434 N 41.3868 0.248026 -1.55636 0
M  V30 435 C 42.2968 1.32859 -1.93354 0
M  V30 436 C 43.3128 1.52719 -0.833838 0
M  V30 437 O 44.4888 1.66363 -1.13513 0
M  V30 438 C 41.5538 2.66337 -2.21958 0
M  V30 439 C 40.6148 2.55008 -3.45354 0
M  V30 440 C 39.8478 3.82121 -3.72584 0
M  V30 441 O 40.0708 4.83951 -3.01907 0
M  V30 442 O 39.0048 3.80822 -4.6611 0
M  V30 443 H 42.8308 1.03862 -2.85388 0
M  V30 444 H 40.4158 0.448686 -1.42503 0
M  V30 445 H 42.2978 3.45216 -2.4167 0
M  V30 446 H 40.9728 2.95068 -1.33103 0
M  V30 447 H 39.8798 1.7442 -3.30951 0
M  V30 448 H 41.2128 2.31222 -4.34508 0
M  V30 449 N 42.8649 1.48995 0.513639 0
M  V30 450 C 44.1129 1.57531 1.26604 0
M  V30 451 C 44.4339 0.258236 1.93283 0
M  V30 452 O 43.7039 -0.721502 1.8213 0
M  V30 453 H 42.2839 0.580387 0.470276 0
M  V30 454 H 44.9459 1.85552 0.596373 0
M  V30 455 H 44.0419 2.36486 2.03669 0
M  V30 456 N 44.343 -0.763751 1.37857 0
M  V30 457 C 45.62 -1.51244 1.24035 0
M  V30 458 C 46 -2.10472 -0.162649 0
M  V30 459 O 45.348 -1.96206 -1.17112 0
M  V30 460 C 45.558 -2.58694 2.34261 0
M  V30 461 C 46.906 -3.25878 2.72193 0
M  V30 462 O 47.93 -2.68993 2.33497 0
M  V30 463 O 46.789 -4.2874 3.38887 0
M  V30 464 H 43.883 -0.670243 0.484462 0
M  V30 465 H 46.429 -0.800031 1.49658 0
M  V30 466 H 45.201 -2.13105 3.2818 0
M  V30 467 H 44.824 -3.37527 2.10146 0
M  V30 468 N 45.8211 -1.22559 -0.990812 0
M  V30 469 C 46.7511 -1.0218 -2.09956 0
M  V30 470 C 47.7321 0.0579394 -1.70001 0
M  V30 471 O 48.9171 -0.104684 -1.93918 0
M  V30 472 C 46.0471 -0.601023 -3.4206 0
M  V30 473 C 45.0011 -1.62694 -3.95872 0
M  V30 474 C 44.3271 -1.06193 -5.24049 0
M  V30 475 C 45.6271 -3.01743 -4.2632 0
M  V30 476 H 47.3211 -1.94916 -2.27262 0
M  V30 477 H 44.8671 -0.938566 -1.09211 0
M  V30 478 H 46.8201 -0.445561 -4.19038 0
M  V30 479 H 45.5441 0.362005 -3.24588 0
M  V30 480 H 44.2031 -1.77021 -3.21028 0
M  V30 481 H 43.8511 -0.0901903 -5.02919 0
M  V30 482 H 43.5511 -1.74732 -5.61019 0
M  V30 483 H 45.0751 -0.918092 -6.03658 0
M  V30 484 H 46.4891 -2.90777 -4.94087 0
M  V30 485 H 44.8861 -3.67425 -4.74467 0
M  V30 486 H 45.9561 -3.51518 -3.34011 0
M  V30 487 N 47.2992 1.18797 -1.03562 0
M  V30 488 C 48.5452 1.8893 -0.737113 0
M  V30 489 C 48.8782 1.79837 0.732956 0
M  V30 490 O 48.1532 1.19525 1.5344 0
M  V30 491 C 48.4362 3.39607 -1.19745 0
M  V30 492 C 48.2892 3.57537 -2.72924 0
M  V30 493 C 49.6082 4.33069 -0.783526 0
M  V30 494 H 46.7272 0.686057 -0.269249 0
M  V30 495 H 49.3692 1.39797 -1.28673 0
M  V30 496 H 47.5192 3.81583 -0.729855 0
M  V30 497 H 49.1912 3.24688 -3.27682 0
M  V30 498 H 47.4342 3.00363 -3.12993 0
M  V30 499 H 48.1052 4.63238 -3.00191 0
M  V30 500 H 50.5812 3.98846 -1.18581 0
M  V30 501 H 49.4572 5.3707 -1.13343 0
M  V30 502 H 49.7182 4.40986 0.313681 0
M  V30 503 N 48.7773 0.814389 1.34928 0
M  V30 504 C 49.7073 0.244827 2.32213 0
M  V30 505 C 50.6883 -0.634024 1.57842 0
M  V30 506 O 51.8733 -0.562676 1.8587 0
M  V30 507 C 49.0033 -0.601106 3.42058 0
M  V30 508 C 47.9573 0.179896 4.27622 0
M  V30 509 C 47.2833 -0.788237 5.28858 0
M  V30 510 C 48.5833 1.38329 5.03649 0
M  V30 511 H 50.2773 1.05763 2.80097 0
M  V30 512 H 47.8233 0.510029 1.34665 0
M  V30 513 H 49.7763 -1.00968 4.09125 0
M  V30 514 H 48.5003 -1.44688 2.92802 0
M  V30 515 H 47.1593 0.569739 3.62146 0
M  V30 516 H 46.8073 -1.62973 4.75866 0
M  V30 517 H 46.5073 -0.269942 5.8698 0
M  V30 518 H 48.0313 -1.19485 5.98795 0
M  V30 519 H 49.4453 1.04918 5.63618 0
M  V30 520 H 47.8423 1.83662 5.71304 0
M  V30 521 H 48.9123 2.16592 4.33839 0
M  V30 522 N 50.2554 -1.46986 0.568584 0
M  V30 523 C 51.5034 -2.02041 0.0487022 0
M  V30 524 C 51.8244 -1.44408 -1.31039 0
M  V30 525 O 51.0944 -0.623477 -1.85714 0
M  V30 526 H 49.6744 -0.746849 0.015014 0
M  V30 527 H 52.3364 -1.80257 0.741168 0
M  V30 528 H 51.4324 -3.12085 -0.0308961 0
M  V30 529 N 51.7335 -0.305618 -1.54608 0
M  V30 530 C 52.9815 0.301701 -1.99835 0
M  V30 531 C 53.3025 1.54054 -1.19551 0
M  V30 532 O 52.5725 1.93702 -0.292658 0
M  V30 533 H 51.1525 0.114468 -0.738178 0
M  V30 534 H 53.8145 -0.418016 -1.90364 0
M  V30 535 H 52.9105 0.570548 -3.06841 0
M  V30 536 N 53.2116 1.57565 -0.0334293 0
M  V30 537 C 54.1416 2.13511 0.945265 0
M  V30 538 C 55.1226 1.05231 1.33643 0
M  V30 539 O 56.3076 1.33084 1.41429 0
M  V30 540 C 53.4376 2.6657 2.22616 0
M  V30 541 C 52.3916 3.79676 1.97561 0
M  V30 542 C 51.7176 4.1918 3.31952 0
M  V30 543 C 53.0176 5.0557 1.31135 0
M  V30 544 H 54.7116 2.95538 0.479325 0
M  V30 545 H 52.2576 1.42166 0.229115 0
M  V30 546 H 54.2106 3.04344 2.91466 0
M  V30 547 H 52.9346 1.8171 2.71384 0
M  V30 548 H 51.5936 3.42347 1.31127 0
M  V30 549 H 51.2416 3.31296 3.78487 0
M  V30 550 H 50.9416 4.95402 3.15992 0
M  V30 551 H 52.4656 4.59541 4.02063 0
M  V30 552 H 53.8796 5.40903 1.89992 0
M  V30 553 H 52.2766 5.86818 1.25559 0
M  V30 554 H 53.3466 4.84062 0.284894 0
M  V30 555 N 54.6897 -0.239769 1.55765 0
M  V30 556 C 55.9367 -0.966801 1.7793 0
M  V30 557 C 56.2647 -1.85046 0.599015 0
M  V30 558 O 55.5197 -1.91197 -0.417395 0
M  V30 559 C 55.8187 -1.852 3.05672 0
M  V30 560 C 55.4847 -1.1231 4.36689 0
M  V30 561 C 54.1467 -0.921689 4.72291 0
M  V30 562 C 56.4987 -0.607019 5.17653 0
M  V30 563 C 53.8267 -0.191996 5.86386 0
M  V30 564 C 56.1787 0.109241 6.32506 0
M  V30 565 C 54.8427 0.322073 6.66723 0
M  V30 566 H 54.1127 -0.353778 0.651093 0
M  V30 567 H 56.7597 -0.23634 1.90036 0
M  V30 568 H 55.0647 -2.64975 2.8861 0
M  V30 569 H 56.7617 -2.41635 3.20021 0
M  V30 570 H 53.3517 -1.29004 4.08725 0
M  V30 571 H 57.5357 -0.750153 4.90598 0
M  V30 572 H 52.7917 -0.0166949 6.11398 0
M  V30 573 H 56.9657 0.516737 6.9448 0
M  V30 574 H 54.5927 0.88944 7.54979 0
M  V30 575 N 56.1678 -1.49265 -0.50573 0
M  V30 576 C 57.5788 -1.51769 -1.08734 0
M  V30 577 C 57.9298 -0.301192 -1.93874 0
M  V30 578 O 57.0548 0.589456 -2.08217 0
M  V30 579 C 57.6498 -2.75017 -1.97867 0
M  V30 580 C 56.2088 -2.80314 -2.51199 0
M  V30 581 C 55.3558 -2.4562 -1.28709 0
M  V30 582 H 58.3068 -1.56031 -0.289855 0
M  V30 583 H 58.3278 -2.5491 -2.82491 0
M  V30 584 H 57.8398 -3.63539 -1.35873 0
M  V30 585 H 55.9408 -1.96061 -3.16845 0
M  V30 586 H 56.0538 -3.82366 -2.88675 0
M  V30 587 H 54.4178 -1.97297 -1.61078 0
M  V30 588 H 55.2008 -3.36411 -0.6843 0
M  V30 589 N 57.6459 0.756429 -1.3826 0
M  V30 590 C 58.8919 1.51772 -1.34511 0
M  V30 591 C 59.2249 1.94089 0.0656691 0
M  V30 592 O 58.4999 1.65221 1.02626 0
M  V30 593 C 58.7829 2.77226 -2.29821 0
M  V30 594 C 58.6359 2.41065 -3.79747 0
M  V30 595 C 59.9549 3.79236 -2.23312 0
M  V30 596 H 57.0739 0.550578 -0.489931 0
M  V30 597 H 59.7159 0.866607 -1.69086 0
M  V30 598 H 57.8659 3.32784 -2.00467 0
M  V30 599 H 59.5379 1.91303 -4.19763 0
M  V30 600 H 57.7809 1.7356 -3.97567 0
M  V30 601 H 58.4519 3.3081 -4.41892 0
M  V30 602 H 60.9279 3.3321 -2.49219 0
M  V30 603 H 59.8039 4.64714 -2.92116 0
M  V30 604 H 60.0649 4.24615 -1.23102 0
M  V30 605 N 59.124 1.23083 0.984299 0
M  V30 606 C 60.074 0.975749 2.06066 0
M  V30 607 C 61.058 -0.0768251 1.60716 0
M  V30 608 O 62.25 0.134805 1.76486 0
M  V30 609 C 59.379 0.564673 3.38624 0
M  V30 610 C 58.465 1.65244 3.90583 0
M  V30 611 N 58.856 2.88193 4.15666 0
M  V30 612 C 57.154 1.52612 4.19077 0
M  V30 613 C 57.855 3.58593 4.58024 0
M  V30 614 N 56.831 2.86093 4.62225 0
M  V30 615 H 60.633 1.90957 2.23411 0
M  V30 616 H 58.147 1.12963 1.16675 0
M  V30 617 H 60.144 0.36322 4.15315 0
M  V30 618 H 58.804 -0.362147 3.22674 0
M  V30 619 H 59.815 3.24537 4.03604 0
M  V30 620 H 56.492 0.666121 4.12152 0
M  V30 621 H 57.882 4.63974 4.85982 0
M  V30 622 N 60.6021 -1.18246 1.0419 0
M  V30 623 C 61.5341 -2.2142 0.592088 0
M  V30 624 C 62.5471 -1.59233 -0.338909 0
M  V30 625 O 63.7361 -1.78002 -0.133231 0
M  V30 626 C 60.8361 -3.38546 -0.154854 0
M  V30 627 C 60.0091 -4.3031 0.784328 0
M  V30 628 C 59.0681 -5.26138 0.0804583 0
M  V30 629 O 58.0941 -5.64738 0.711292 0
M  V30 630 N 59.2961 -5.68261 -1.18574 0
M  V30 631 H 62.0611 -2.60636 1.47949 0
M  V30 632 H 59.6221 -1.33044 0.922544 0
M  V30 633 H 61.6141 -3.99678 -0.635606 0
M  V30 634 H 60.1841 -2.98012 -0.943811 0
M  V30 635 H 59.4041 -3.66764 1.44491 0
M  V30 636 H 60.6921 -4.8852 1.42218 0
M  V30 637 H 60.0901 -5.38957 -1.71876 0
M  V30 638 H 58.6471 -6.31584 -1.61074 0
M  V30 639 N 62.0802 -0.821533 -1.34494 0
M  V30 640 C 63.0272 -0.240397 -2.29545 0
M  V30 641 C 63.9972 0.634031 -1.53523 0
M  V30 642 O 65.1822 0.575966 -1.81899 0
M  V30 643 C 62.3222 0.592869 -3.39969 0
M  V30 644 C 61.4352 -0.30365 -4.30932 0
M  V30 645 C 60.5702 0.539049 -5.28458 0
M  V30 646 C 59.6092 -0.356942 -6.11058 0
M  V30 647 N 58.7462 0.446603 -7.00678 0
M  V30 648 H 63.5862 -1.05632 -2.7865 0
M  V30 649 H 61.1232 -0.532413 -1.37127 0
M  V30 650 H 63.0812 1.09129 -4.02675 0
M  V30 651 H 61.7112 1.37392 -2.92102 0
M  V30 652 H 60.7632 -0.920276 -3.691 0
M  V30 653 H 62.0752 -0.992661 -4.88823 0
M  V30 654 H 61.2292 1.102 -5.96608 0
M  V30 655 H 59.9682 1.26157 -4.71101 0
M  V30 656 H 58.9732 -0.932047 -5.41842 0
M  V30 657 H 60.1982 -1.07755 -6.70497 0
M  V30 658 H 58.1442 1.15282 -6.45791 0
M  V30 659 H 58.0612 -0.184048 -7.55776 0
M  V30 660 H 59.3292 0.992352 -7.73158 0
M  V30 661 N 63.5583 1.46682 -0.576371 0
M  V30 662 C 64.8063 2.02013 -0.0594163 0
M  V30 663 C 65.1273 1.45101 1.30271 0
M  V30 664 O 64.3973 0.633317 1.8538 0
M  V30 665 H 62.9773 0.746759 -0.0189745 0
M  V30 666 H 65.6393 1.79862 -0.750717 0
M  V30 667 H 64.7353 3.12097 0.014345 0
M  V30 668 N 65.0364 0.313813 1.54444 0
M  V30 669 C 66.2844 -0.291099 1.99993 0
M  V30 670 C 66.6054 -1.53418 1.20366 0
M  V30 671 O 65.8754 -1.93544 0.302927 0
M  V30 672 H 64.4554 -0.110552 0.738774 0
M  V30 673 H 67.1174 0.428106 1.9014 0
M  V30 674 H 66.2134 -0.554268 3.07139 0
M  V30 675 N 66.5145 -1.57545 0.0417849 0
M  V30 676 C 67.9255 -1.80011 -0.495259 0
M  V30 677 C 68.2765 -0.953199 -1.71489 0
M  V30 678 O 67.4015 -0.167138 -2.15754 0
M  V30 679 C 67.9965 -3.26482 -0.905265 0
M  V30 680 C 66.5555 -3.499 -1.38734 0
M  V30 681 C 65.7025 -2.74979 -0.358056 0
M  V30 682 H 68.6535 -1.56425 0.267736 0
M  V30 683 H 68.6745 -3.36887 -1.76882 0
M  V30 684 H 68.1865 -3.88096 -0.017401 0
M  V30 685 H 66.2875 -2.93553 -2.29471 0
M  V30 686 H 66.4005 -4.58615 -1.38598 0
M  V30 687 H 64.7645 -2.40834 -0.828912 0
M  V30 688 H 65.5475 -3.39315 0.521561 0
M  V30 689 N 67.9926 0.231505 -1.5589 0
M  V30 690 C 68.9556 1.27028 -1.90779 0
M  V30 691 C 69.9556 1.40308 -0.785507 0
M  V30 692 O 71.1456 1.38744 -1.05336 0
M  V30 693 C 68.2776 2.64566 -2.14983 0
M  V30 694 H 69.4706 0.973017 -2.83677 0
M  V30 695 H 67.0236 0.471486 -1.49019 0
M  V30 696 H 67.7586 2.99406 -1.24604 0
M  V30 697 H 67.5436 2.56305 -2.96732 0
M  V30 698 H 69.0336 3.39543 -2.43105 0
M  V30 699 N 69.4707 1.49531 0.497807 0
M  V30 700 C 70.3807 1.69176 1.62532 0
M  V30 701 C 71.3967 0.5744 1.64246 0
M  V30 702 O 72.5727 0.849497 1.82608 0
M  V30 703 C 69.6377 1.75695 2.98885 0
M  V30 704 C 68.6987 2.9929 3.07773 0
M  V30 705 C 67.9317 3.05488 4.37622 0
M  V30 706 O 68.1547 2.19192 5.26603 0
M  V30 707 O 67.0887 3.9798 4.51548 0
M  V30 708 H 70.9147 2.647 1.48887 0
M  V30 709 H 68.4997 1.3331 0.674441 0
M  V30 710 H 70.3817 1.82317 3.79919 0
M  V30 711 H 69.0567 0.8335 3.12785 0
M  V30 712 H 67.9637 2.98183 2.25915 0
M  V30 713 H 69.2967 3.91125 2.98801 0
M  V30 714 N 70.9488 -0.749086 1.3866 0
M  V30 715 C 72.2258 -1.4992 1.25632 0
M  V30 716 C 72.6058 -2.10633 -0.140317 0
M  V30 717 O 71.9538 -1.97437 -1.15025 0
M  V30 718 C 72.1638 -2.56195 2.36992 0
M  V30 719 C 73.5118 -3.22972 2.75634 0
M  V30 720 O 74.5358 -2.66502 2.36337 0
M  V30 721 O 73.3948 -4.25122 3.43415 0
M  V30 722 H 70.4888 -0.665067 0.491544 0
M  V30 723 H 73.0348 -0.784113 1.50498 0
M  V30 724 H 71.8068 -2.09612 3.30422 0
M  V30 725 H 71.4298 -3.35279 2.13714 0
M  V30 726 N 72.4269 -1.23603 -0.977757 0
M  V30 727 C 73.6669 -1.08148 -1.73446 0
M  V30 728 C 74.0309 0.374785 -1.88307 0
M  V30 729 O 75.2319 0.650588 -2.60808 0
M  V30 730 C 73.5029 -1.78991 -3.0935 0
M  V30 731 S 75.0619 -1.79141 -4.00567 0
M  V30 732 H 71.8799 -0.386987 -0.596458 0
M  V30 733 H 74.4819 -1.5678 -1.16792 0
M  V30 734 H 73.1859 -2.8408 -2.96187 0
M  V30 735 H 72.7169 -1.30651 -3.71071 0
M  V30 736 H 74.7319 -0.851892 -4.88833 0
M  V30 737 N 73.905 1.17692 -1.04816 0
M  V30 738 C 75.153 1.87488 -0.754497 0
M  V30 739 C 75.474 1.81205 0.720407 0
M  V30 740 O 74.744 1.23544 1.52032 0
M  V30 741 H 73.324 0.694101 -0.276102 0
M  V30 742 H 75.986 1.42793 -1.32651 0
M  V30 743 H 75.082 2.93328 -1.06606 0
M  V30 744 N 75.3831 0.828654 1.34056 0
M  V30 745 C 76.7941 0.477534 1.8049 0
M  V30 746 C 77.1451 -1.00258 1.6865 0
M  V30 747 O 76.2701 -1.78057 1.22982 0
M  V30 748 C 76.8651 0.860018 3.27703 0
M  V30 749 C 75.4241 0.561185 3.72193 0
M  V30 750 C 74.5711 1.07385 2.55663 0
M  V30 751 H 77.5221 1.0183 1.21722 0
M  V30 752 H 77.5431 0.166038 3.80138 0
M  V30 753 H 77.0551 1.93731 3.36288 0
M  V30 754 H 75.1561 -0.506465 3.69142 0
M  V30 755 H 75.2691 1.10926 4.66082 0
M  V30 756 H 73.6331 0.495149 2.49841 0
M  V30 757 H 74.4161 2.15771 2.67016 0
M  V30 758 N 76.8612 -1.46375 0.584142 0
M  V30 759 C 78.1072 -2.02678 0.0703716 0
M  V30 760 C 78.4402 -1.4545 -1.28678 0
M  V30 761 O 77.7152 -0.62014 -1.84349 0
M  V30 762 C 77.9982 -3.60099 0.00614674 0
M  V30 763 C 77.8512 -4.27709 1.3923 0
M  V30 764 C 79.1702 -4.34598 -0.693742 0
M  V30 765 H 76.2892 -0.736504 0.027047 0
M  V30 766 H 78.9312 -1.74501 0.751615 0
M  V30 767 H 77.0812 -3.84236 -0.574009 0
M  V30 768 H 78.7532 -4.14832 2.01773 0
M  V30 769 H 76.9962 -3.87016 1.95962 0
M  V30 770 H 77.6672 -5.36478 1.29982 0
M  V30 771 H 80.1432 -4.15615 -0.200869 0
M  V30 772 H 79.0192 -5.44318 -0.707714 0
M  V30 773 H 79.2802 -4.05759 -1.75533 0
M  V30 774 N 78.3393 -0.321999 -1.54275 0
M  V30 775 C 79.2873 0.560206 -2.25753 0
M  V30 776 C 80.2813 1.11984 -1.27106 0
M  V30 777 O 81.4873 1.06806 -1.44888 0
M  V30 778 H 77.8623 0.199304 -0.725108 0
M  V30 779 H 79.8333 -0.0649365 -2.98329 0
M  V30 780 C 78.5823 1.71023 -3.02731 0
M  V30 781 H 77.9053 1.28885 -3.78456 0
M  V30 782 H 79.3453 2.30314 -3.55993 0
M  V30 783 C 77.8043 2.62692 -2.10938 0
M  V30 784 O 78.3343 3.64364 -1.6912 0
M  V30 785 N 76.5403 2.30891 -1.76459 0
M  V30 786 H 76.0873 1.48253 -2.10663 0
M  V30 787 H 76.0453 2.92487 -1.1532 0
M  V30 788 N 79.8174 1.5752 -0.0501392 0
M  V30 789 C 80.7274 2.14952 0.939827 0
M  V30 790 C 81.7434 1.10706 1.34239 0
M  V30 791 O 82.9194 1.42869 1.41952 0
M  V30 792 C 79.9844 2.68232 2.19665 0
M  V30 793 C 79.0454 3.87272 1.85253 0
M  V30 794 C 78.2784 4.38002 3.04943 0
M  V30 795 O 78.5014 3.87811 4.18281 0
M  V30 796 O 77.4354 5.29602 2.86017 0
M  V30 797 H 81.2614 2.9986 0.481392 0
M  V30 798 H 78.8464 1.4841 0.171699 0
M  V30 799 H 80.7284 3.02475 2.93406 0
M  V30 800 H 79.4034 1.86395 2.64648 0
M  V30 801 H 78.3104 3.5792 1.0883 0
M  V30 802 H 79.6434 4.70336 1.4507 0
M  V30 803 N 81.2955 -0.223234 1.56011 0
M  V30 804 C 82.2455 -1.28008 1.88674 0
M  V30 805 C 83.2295 -1.42369 0.749663 0
M  V30 806 O 84.4215 -1.45212 1.01205 0
M  V30 807 C 81.5505 -2.63084 2.20548 0
M  V30 808 C 80.6365 -2.52632 3.40643 0
M  V30 809 N 81.0275 -2.11829 4.59306 0
M  V30 810 C 79.3255 -2.83594 3.44224 0
M  V30 811 C 80.0265 -2.12587 5.41463 0
M  V30 812 N 79.0025 -2.5301 4.81131 0
M  V30 813 H 82.8045 -0.955487 2.77935 0
M  V30 814 H 80.3185 -0.431801 1.56554 0
M  V30 815 H 82.3155 -3.39385 2.42122 0
M  V30 816 H 80.9755 -2.96391 1.32599 0
M  V30 817 H 81.9865 -1.82988 4.84496 0
M  V30 818 H 78.6635 -3.21284 2.66614 0
M  V30 819 H 80.0535 -1.83179 6.46448 0
M  V30 820 N 82.7736 -1.49793 -0.48987 0
M  V30 821 C 84.1896 -1.36803 -0.822022 0
M  V30 822 C 84.3896 -0.409652 -1.97292 0
M  V30 823 O 83.4456 0.154614 -2.52026 0
M  V30 824 C 84.7586 -2.77768 -1.15175 0
M  V30 825 C 86.3066 -2.86549 -1.25931 0
M  V30 826 C 86.7816 -4.28306 -1.62228 0
M  V30 827 N 88.2726 -4.31169 -1.69256 0
M  V30 828 C 89.0076 -5.37832 -1.98807 0
M  V30 829 N 88.5036 -6.54726 -2.26507 0
M  V30 830 N 90.2966 -5.25258 -2.00152 0
M  V30 831 H 82.4476 -2.10691 0.268881 0
M  V30 832 H 84.7106 -0.946241 0.057728 0
M  V30 833 H 84.4166 -3.49648 -0.379335 0
M  V30 834 H 84.2906 -3.13836 -2.09253 0
M  V30 835 H 86.6776 -2.14899 -2.02243 0
M  V30 836 H 86.7586 -2.54049 -0.298776 0
M  V30 837 H 86.4026 -5.00486 -0.864622 0
M  V30 838 H 86.3326 -4.58279 -2.594 0
M  V30 839 H 88.8236 -3.4687 -1.49965 0
M  V30 840 H 89.1366 -7.31833 -2.48276 0
M  V30 841 H 87.4816 -6.57933 -2.23939 0
M  V30 842 H 90.6726 -4.32938 -1.77996 0
M  V30 843 H 90.8456 -6.08476 -2.22848 0
M  V30 844 N 84.2517 0.741722 -1.39055 0
M  V30 845 C 85.4997 1.49818 -1.35643 0
M  V30 846 C 85.8207 1.94938 0.0491642 0
M  V30 847 O 85.0907 1.68505 0.999141 0
M  V30 848 H 83.6707 0.555755 -0.499144 0
M  V30 849 H 86.3327 0.880957 -1.73854 0
M  V30 850 H 85.4287 2.38348 -2.01486 0
M  V30 851 N 85.7298 1.2412 0.971189 0
M  V30 852 C 86.9788 1.07284 1.70801 0
M  V30 853 C 87.2918 -0.388902 1.91695 0
M  V30 854 O 88.4978 -0.677379 2.62914 0
M  V30 855 C 86.9538 1.87145 3.07416 0
M  V30 856 C 86.5618 3.37707 2.94377 0
M  V30 857 C 88.3058 1.78828 3.84995 0
M  V30 858 C 86.2128 4.09925 4.26281 0
M  V30 859 H 85.1428 0.397854 0.64049 0
M  V30 860 H 87.7938 1.4817 1.0825 0
M  V30 861 H 86.1758 1.39071 3.70777 0
M  V30 862 H 87.3498 3.93335 2.4005 0
M  V30 863 H 85.6648 3.46938 2.30267 0
M  V30 864 H 88.2618 2.30089 4.82662 0
M  V30 865 H 88.6048 0.75284 4.09436 0
M  V30 866 H 89.1378 2.24563 3.28354 0
M  V30 867 H 85.8768 5.13813 4.07033 0
M  V30 868 H 85.3968 3.59083 4.80437 0
M  V30 869 H 87.0758 4.1673 4.94919 0
M  V30 870 N 87.2079 -1.17134 1.05439 0
M  V30 871 C 88.1399 -2.2078 0.615539 0
M  V30 872 C 89.1529 -1.59584 -0.322001 0
M  V30 873 O 90.3419 -1.78133 -0.114344 0
M  V30 874 C 87.4419 -3.38691 -0.118938 0
M  V30 875 C 86.6149 -4.29454 0.829924 0
M  V30 876 C 85.6739 -5.26024 0.136258 0
M  V30 877 O 84.6999 -5.63952 0.77115 0
M  V30 878 N 85.9019 -5.69487 -1.1254 0
M  V30 879 H 88.6669 -2.59052 1.50705 0
M  V30 880 H 86.2279 -1.32058 0.936603 0
M  V30 881 H 88.2199 -4.00329 -0.593179 0
M  V30 882 H 86.7899 -2.98996 -0.91215 0
M  V30 883 H 86.0099 -3.65211 1.48373 0
M  V30 884 H 87.2979 -4.86984 1.47392 0
M  V30 885 H 86.6959 -5.4075 -1.6615 0
M  V30 886 H 85.2529 -6.33257 -1.54366 0
M  V30 887 N 88.686 -0.835752 -1.33615 0
M  V30 888 C 90.102 -0.523139 -1.50783 0
M  V30 889 C 90.302 0.950171 -1.77691 0
M  V30 890 O 89.358 1.73411 -1.83534 0
M  V30 891 C 90.671 -1.39378 -2.66448 0
M  V30 892 C 92.219 -1.39223 -2.80332 0
M  V30 893 C 92.694 -2.24765 -3.99055 0
M  V30 894 N 94.185 -2.22458 -4.06284 0
M  V30 895 C 94.92 -2.85386 -4.97336 0
M  V30 896 N 94.416 -3.57354 -5.93523 0
M  V30 897 N 96.209 -2.74872 -4.90308 0
M  V30 898 H 88.36 -1.78952 -1.14411 0
M  V30 899 H 90.623 -0.763297 -0.562212 0
M  V30 900 H 90.329 -2.44061 -2.53234 0
M  V30 901 H 90.203 -1.0676 -3.61776 0
M  V30 902 H 92.59 -0.353136 -2.92979 0
M  V30 903 H 92.671 -1.75846 -1.85773 0
M  V30 904 H 92.315 -3.28732 -3.87167 0
M  V30 905 H 92.245 -1.85485 -4.92852 0
M  V30 906 H 94.736 -1.70119 -3.37443 0
M  V30 907 H 95.049 -4.02584 -6.59656 0
M  V30 908 H 93.394 -3.61461 -5.93608 0
M  V30 909 H 96.585 -2.18213 -4.14126 0
M  V30 910 H 96.758 -3.24199 -5.61069 0
M  V30 911 N 90.1641 1.46063 -0.591896 0
M  V30 912 C 91.0941 2.33172 0.123673 0
M  V30 913 C 92.0751 1.45897 0.87453 0
M  V30 914 O 93.2601 1.74698 0.848181 0
M  V30 915 C 90.3901 3.28336 1.13194 0
M  V30 916 C 89.3441 4.25124 0.495324 0
M  V30 917 C 88.6701 5.09863 1.61071 0
M  V30 918 C 89.9701 5.19143 -0.573425 0
M  V30 919 H 91.6641 2.93252 -0.603646 0
M  V30 920 H 89.2101 1.41014 -0.291741 0
M  V30 921 H 91.1631 3.88137 1.64097 0
M  V30 922 H 89.8871 2.66383 1.88965 0
M  V30 923 H 88.5461 3.66599 0.00729452 0
M  V30 924 H 88.1941 4.44288 2.35832 0
M  V30 925 H 87.8941 5.75417 1.19035 0
M  V30 926 H 89.4181 5.72529 2.12233 0
M  V30 927 H 90.8321 5.73106 -0.1491 0
M  V30 928 H 89.2291 5.93089 -0.914636 0
M  V30 929 H 90.2991 4.62519 -1.45617 0
M  V30 930 N 91.6422 0.330177 1.54103 0
M  V30 931 C 92.5522 -0.541534 2.28264 0
M  V30 932 C 93.5682 -1.12351 1.32866 0
M  V30 933 O 94.7442 -1.14206 1.65888 0
M  V30 934 C 91.8092 -1.68322 3.03098 0
M  V30 935 C 90.8702 -1.13238 4.14096 0
M  V30 936 C 90.1032 -2.21966 4.85352 0
M  V30 937 O 90.3262 -3.42437 4.56172 0
M  V30 938 O 89.2602 -1.87013 5.7211 0
M  V30 939 H 93.0862 0.060938 3.03639 0
M  V30 940 H 90.6712 0.09565 1.49093 0
M  V30 941 H 92.5532 -2.34777 3.49939 0
M  V30 942 H 91.2282 -2.27176 2.30593 0
M  V30 943 H 90.1352 -0.432736 3.71589 0
M  V30 944 H 91.4682 -0.588898 4.88664 0
M  V30 945 N 93.1203 -1.57491 0.0584922 0
M  V30 946 C 94.0833 -2.1085 -0.898617 0
M  V30 947 C 95.0833 -1.02964 -1.23511 0
M  V30 948 O 96.2733 -1.29007 -1.17059 0
M  V30 949 C 93.4053 -2.59881 -2.20623 0
M  V30 950 H 94.5983 -2.96715 -0.435936 0
M  V30 951 H 92.1513 -1.55141 -0.190023 0
M  V30 952 H 92.8863 -1.77431 -2.71457 0
M  V30 953 H 92.6713 -3.38727 -1.97501 0
M  V30 954 H 94.1613 -3.01285 -2.89166 0
M  V30 955 N 94.5984 0.214957 -1.56127 0
M  V30 956 C 95.5314 1.29382 -1.87977 0
M  V30 957 C 96.5094 1.44897 -0.737807 0
M  V30 958 O 97.6934 1.60605 -0.986833 0
M  V30 959 C 94.8204 2.66325 -2.09258 0
M  V30 960 C 93.8664 2.67789 -3.31951 0
M  V30 961 S 94.6994 2.21198 -4.8768 0
M  V30 962 C 95.8554 3.60003 -5.12004 0
M  V30 963 H 96.0884 1.02173 -2.79192 0
M  V30 964 H 93.6214 0.417516 -1.48648 0
M  V30 965 H 95.5794 3.45162 -2.22201 0
M  V30 966 H 94.2404 2.90755 -1.18829 0
M  V30 967 H 93.4334 3.68436 -3.43906 0
M  V30 968 H 93.0354 1.9702 -3.17898 0
M  V30 969 H 95.3274 4.55739 -5.01307 0
M  V30 970 H 96.2704 3.52959 -6.13861 0
M  V30 971 H 96.6784 3.53996 -4.39712 0
M  V30 972 N 96.0765 1.50051 0.48192 0
M  V30 973 C 97.0065 1.71046 1.58951 0
M  V30 974 C 97.9875 0.559288 1.60642 0
M  V30 975 O 99.1725 0.797243 1.77081 0
M  V30 976 C 96.3025 1.79462 2.97339 0
M  V30 977 C 95.2565 2.94558 3.10515 0
M  V30 978 C 94.5825 2.88105 4.50444 0
M  V30 979 C 95.8825 4.35227 2.88747 0
M  V30 980 H 97.5765 2.6378 1.41635 0
M  V30 981 H 95.1225 1.26936 0.679942 0
M  V30 982 H 97.0755 1.92734 3.74742 0
M  V30 983 H 95.7995 0.833412 3.15788 0
M  V30 984 H 94.4585 2.80918 2.35543 0
M  V30 985 H 94.1065 1.89853 4.65795 0
M  V30 986 H 93.8065 3.65366 4.60197 0
M  V30 987 H 95.3305 3.03412 5.29881 0
M  V30 988 H 96.7445 4.49449 3.55905 0
M  V30 989 H 95.1415 5.13856 3.09955 0
M  V30 990 H 96.2115 4.48347 1.84696 0
M  V30 991 N 97.5546 -0.734337 1.39446 0
M  V30 992 C 98.8016 -1.49391 1.36706 0
M  V30 993 C 99.1296 -1.94465 -0.0367813 0
M  V30 994 O 98.3846 -1.67154 -1.01774 0
M  V30 995 C 98.6836 -2.74711 2.28623 0
M  V30 996 C 98.3496 -2.48501 3.76242 0
M  V30 997 C 97.0116 -2.41062 4.16464 0
M  V30 998 C 99.3636 -2.26098 4.69606 0
M  V30 999 C 96.6916 -2.09262 5.48112 0
M  V30 1000 C 99.0436 -1.95814 6.01531 0
M  V30 1001 C 97.7076 -1.86845 6.40816 0
M  V30 1002 H 96.9776 -0.546661 0.500243 0
M  V30 1003 H 99.6246 -0.842788 1.71957 0
M  V30 1004 H 97.9296 -3.44569 1.86492 0
M  V30 1005 H 99.6266 -3.32741 2.23796 0
M  V30 1006 H 96.2166 -2.55169 3.44364 0
M  V30 1007 H 100.401 -2.30812 4.39363 0
M  V30 1008 H 95.6566 -2.00841 5.77471 0
M  V30 1009 H 99.8306 -1.77488 6.73403 0
M  V30 1010 H 97.4576 -1.6197 7.42745 0
M  V30 1011 N 99.0327 -1.24633 -0.964593 0
M  V30 1012 C 99.9957 -1.0424 -2.04124 0
M  V30 1013 C 100.996 0.00137563 -1.608 0
M  V30 1014 O 102.186 -0.239883 -1.7254 0
M  V30 1015 C 99.3177 -0.580588 -3.3592 0
M  V30 1016 H 100.511 -1.99803 -2.23649 0
M  V30 1017 H 98.0637 -1.06899 -1.14027 0
M  V30 1018 H 98.7987 0.3781 -3.22088 0
M  V30 1019 H 98.5837 -1.33398 -3.6871 0
M  V30 1020 H 100.074 -0.459034 -4.15069 0
M  V30 1021 N 100.511 1.16574 -1.06058 0
M  V30 1022 C 101.441 2.23057 -0.690488 0
M  V30 1023 C 102.422 1.67141 0.315901 0
M  V30 1024 O 103.607 1.93253 0.191556 0
M  V30 1025 C 100.737 3.47222 -0.073625 0
M  V30 1026 C 99.6908 4.16016 -1.00573 0
M  V30 1027 C 99.0168 5.34104 -0.252289 0
M  V30 1028 C 100.317 4.67264 -2.33371 0
M  V30 1029 H 102.011 2.54271 -1.58072 0
M  V30 1030 H 99.5568 1.22218 -0.76149 0
M  V30 1031 H 101.51 4.20939 0.19714 0
M  V30 1032 H 100.234 3.15302 0.85161 0
M  V30 1033 H 98.8928 3.44223 -1.2612 0
M  V30 1034 H 98.5408 4.98437 0.675988 0
M  V30 1035 H 98.2408 5.81072 -0.873455 0
M  V30 1036 H 99.7648 6.10599 0.0109857 0
M  V30 1037 H 101.179 5.32573 -2.12223 0
M  V30 1038 H 99.5758 5.24843 -2.90963 0
M  V30 1039 H 100.646 3.83602 -2.96611 0
M  V30 1040 N 101.989 0.842826 1.3317 0
M  V30 1041 C 103.266 0.362216 1.92217 0
M  V30 1042 C 103.646 -1.15289 1.76838 0
M  V30 1043 O 102.994 -1.96914 1.15919 0
M  V30 1044 C 103.204 0.813495 3.39387 0
M  V30 1045 C 104.552 0.823804 4.16532 0
M  V30 1046 O 105.576 0.757358 3.48055 0
M  V30 1047 O 104.435 0.915193 5.38782 0
M  V30 1048 H 101.529 0.103317 0.820521 0
M  V30 1049 H 104.075 0.928942 1.42017 0
M  V30 1050 H 102.847 1.85624 3.4447 0
M  V30 1051 H 102.47 0.223561 3.96971 0
M  V30 1052 N 103.467 -1.45747 0.599634 0
M  V30 1053 C 104.883 -1.57424 0.26264 0
M  V30 1054 C 105.083 -1.59222 -1.23493 0
M  V30 1055 O 104.139 -1.51825 -2.01756 0
M  V30 1056 C 105.452 -2.86061 0.926795 0
M  V30 1057 C 107 -2.99722 0.901967 0
M  V30 1058 C 107.475 -4.31119 1.54598 0
M  V30 1059 N 108.966 -4.37858 1.5111 0
M  V30 1060 C 109.701 -5.3818 1.97863 0
M  V30 1061 N 109.197 -6.45083 2.52666 0
M  V30 1062 N 110.99 -5.29487 1.88679 0
M  V30 1063 H 103.141 -1.42823 1.57211 0
M  V30 1064 H 105.404 -0.68235 0.658105 0
M  V30 1065 H 105.11 -2.90605 1.98095 0
M  V30 1066 H 104.984 -3.74563 0.445238 0
M  V30 1067 H 107.371 -2.9475 -0.143617 0
M  V30 1068 H 107.452 -2.12652 1.42171 0
M  V30 1069 H 107.096 -4.36849 2.59085 0
M  V30 1070 H 107.026 -5.16992 1.00132 0
M  V30 1071 H 109.517 -3.61209 1.11068 0
M  V30 1072 H 109.83 -7.17869 2.86155 0
M  V30 1073 H 108.175 -6.45856 2.56701 0
M  V30 1074 H 111.366 -4.44877 1.4561 0
M  V30 1075 H 111.539 -6.07524 2.25429 0
M  V30 1076 N 104.945 -0.338344 -1.53925 0
M  V30 1077 C 106.194 0.260732 -2.00008 0
M  V30 1078 C 106.507 1.52073 -1.23017 0
M  V30 1079 O 107.713 2.19672 -1.5955 0
M  V30 1080 C 106.169 0.51515 -3.56194 0
M  V30 1081 C 105.777 -0.728645 -4.42035 0
M  V30 1082 C 107.521 1.07337 -4.10706 0
M  V30 1083 C 105.428 -0.445315 -5.89721 0
M  V30 1084 H 104.358 0.101205 -0.747177 0
M  V30 1085 H 107.009 -0.452866 -1.77824 0
M  V30 1086 H 105.391 1.28932 -3.74423 0
M  V30 1087 H 106.565 -1.50352 -4.35581 0
M  V30 1088 H 104.88 -1.20813 -3.98489 0
M  V30 1089 H 107.477 1.30022 -5.18651 0
M  V30 1090 H 107.82 2.0273 -3.63602 0
M  V30 1091 H 108.353 0.360034 -3.96167 0
M  V30 1092 H 105.092 -1.36883 -6.41049 0
M  V30 1093 H 104.612 0.291569 -5.99091 0
M  V30 1094 H 106.291 -0.0606218 -6.46972 0
M  V30 1095 N 106.423 1.57458 -0.0668435 0
M  V30 1096 C 107.371 2.13639 0.919851 0
M  V30 1097 C 108.365 1.07204 1.31163 0
M  V30 1098 O 109.571 1.25591 1.28945 0
M  V30 1099 H 105.946 0.683048 0.314562 0
M  V30 1100 H 107.917 2.95415 0.421047 0
M  V30 1101 C 106.666 2.70892 2.17975 0
M  V30 1102 H 105.989 3.5246 1.88711 0
M  V30 1103 H 107.429 3.13803 2.85138 0
M  V30 1104 C 105.888 1.65414 2.93496 0
M  V30 1105 O 106.418 1.07619 3.87015 0
M  V30 1106 N 104.624 1.36564 2.56512 0
M  V30 1107 H 104.171 1.83751 1.80536 0
M  V30 1108 H 104.129 0.66223 3.07347 0
M  V30 1109 N 107.901 -0.206675 1.56239 0
M  V30 1110 C 109.317 -0.557025 1.49564 0
M  V30 1111 C 109.517 -1.86424 0.764735 0
M  V30 1112 O 108.573 -2.50584 0.310491 0
M  V30 1113 C 109.886 -0.622478 2.94186 0
M  V30 1114 C 111.434 -0.712099 3.04792 0
M  V30 1115 C 111.909 -0.808767 4.50803 0
M  V30 1116 N 113.4 -0.8726 4.54907 0
M  V30 1117 C 114.135 -0.967365 5.65181 0
M  V30 1118 N 113.631 -1.02515 6.85173 0
M  V30 1119 N 115.424 -1.00366 5.53067 0
M  V30 1120 H 107.575 0.650943 2.02179 0
M  V30 1121 H 109.838 0.230387 0.919579 0
M  V30 1122 H 109.544 0.268727 3.50672 0
M  V30 1123 H 109.418 -1.4811 3.46905 0
M  V30 1124 H 111.805 -1.59374 2.48363 0
M  V30 1125 H 111.886 0.172489 2.55218 0
M  V30 1126 H 111.53 0.0684754 5.07854 0
M  V30 1127 H 111.46 -1.70899 4.98098 0
M  V30 1128 H 113.951 -0.837657 3.68499 0
M  V30 1129 H 114.264 -1.09765 7.64965 0
M  V30 1130 H 112.609 -0.994026 6.87855 0
M  V30 1131 H 115.8 -0.95527 4.58249 0
M  V30 1132 H 115.973 -1.07405 6.39037 0
M  V30 1133 N 109.379 -1.50304 -0.473955 0
M  V30 1134 C 110.656 -1.51667 -1.23518 0
M  V30 1135 C 111.036 -0.259701 -2.09496 0
M  V30 1136 O 110.384 0.756986 -2.15597 0
M  V30 1137 C 110.594 -2.81082 -2.06868 0
M  V30 1138 C 111.942 -3.31631 -2.65153 0
M  V30 1139 O 112.966 -2.82384 -2.17113 0
M  V30 1140 O 111.825 -4.17471 -3.52675 0
M  V30 1141 H 108.919 -0.60822 -0.560355 0
M  V30 1142 H 111.465 -1.62592 -0.486011 0
M  V30 1143 H 110.237 -3.64041 -1.4349 0
M  V30 1144 H 109.86 -2.73146 -2.88924 0
M  V30 1145 N 110.857 0.726932 -1.39834 0
M  V30 1146 C 112.268 1.30558 -1.3346 0
M  V30 1147 C 112.619 1.962 -0.00273003 0
M  V30 1148 O 111.744 1.96826 0.899371 0
M  V30 1149 C 112.339 2.37404 -2.41713 0
M  V30 1150 C 110.898 2.90921 -2.38835 0
M  V30 1151 C 110.045 1.64578 -2.2318 0
M  V30 1152 H 112.996 0.523862 -1.49804 0
M  V30 1153 H 113.017 3.17984 -2.08966 0
M  V30 1154 H 112.529 1.89599 -3.38635 0
M  V30 1155 H 110.63 3.42985 -1.45575 0
M  V30 1156 H 110.743 3.43487 -3.33997 0
M  V30 1157 H 109.107 1.89219 -1.70494 0
M  V30 1158 H 109.89 1.18814 -3.22084 0
M  V30 1159 N 112.336 1.25143 0.95797 0
M  V30 1160 C 113.286 1.01924 2.0395 0
M  V30 1161 C 114.27 -0.0427175 1.60843 0
M  V30 1162 O 115.462 0.17221 1.7616 0
M  V30 1163 C 112.591 0.636373 3.3735 0
M  V30 1164 C 111.677 1.73492 3.8699 0
M  V30 1165 N 112.068 2.96945 4.0946 0
M  V30 1166 C 110.366 1.61467 4.15746 0
M  V30 1167 C 111.067 3.68228 4.50315 0
M  V30 1168 N 110.043 2.95833 4.56053 0
M  V30 1169 H 113.845 1.95653 2.19311 0
M  V30 1170 H 111.359 1.15413 1.14253 0
M  V30 1171 H 113.356 0.451233 4.14451 0
M  V30 1172 H 112.016 -0.293621 3.2337 0
M  V30 1173 H 113.027 3.33025 3.96629 0
M  V30 1174 H 109.704 0.753394 4.10646 0
M  V30 1175 H 111.094 4.74178 4.76031 0
M  V30 1176 N 113.814 -1.1601 1.06675 0
M  V30 1177 C 114.744 -2.22688 0.702307 0
M  V30 1178 C 115.725 -1.67306 -0.307032 0
M  V30 1179 O 116.91 -1.93352 -0.181305 0
M  V30 1180 C 114.04 -3.47178 0.092038 0
M  V30 1181 C 112.994 -4.15477 1.02777 0
M  V30 1182 C 112.32 -5.33963 0.28061 0
M  V30 1183 C 113.62 -4.66019 2.35846 0
M  V30 1184 H 115.314 -2.53429 1.59419 0
M  V30 1185 H 112.86 -1.21813 0.767961 0
M  V30 1186 H 114.813 -4.21037 -0.174814 0
M  V30 1187 H 113.537 -3.15749 -0.834877 0
M  V30 1188 H 112.196 -3.43549 1.27944 0
M  V30 1189 H 111.844 -4.98788 -0.649545 0
M  V30 1190 H 111.544 -5.806 0.904258 0
M  V30 1191 H 113.068 -6.10596 0.021396 0
M  V30 1192 H 114.482 -5.3144 2.15045 0
M  V30 1193 H 112.879 -5.23293 2.93743 0
M  V30 1194 H 113.949 -3.82023 2.98641 0
M  V30 1195 N 115.292 -0.849877 -1.32721 0
M  V30 1196 C 116.222 -0.306308 -2.31482 0
M  V30 1197 C 117.203 0.591952 -1.59468 0
M  V30 1198 O 118.388 0.513199 -1.87296 0
M  V30 1199 C 115.518 0.510204 -3.43532 0
M  V30 1200 C 114.472 -0.293209 -4.26994 0
M  V30 1201 C 113.798 0.647743 -5.30762 0
M  V30 1202 C 115.098 -1.51634 -4.99804 0
M  V30 1203 H 116.792 -1.13153 -2.77195 0
M  V30 1204 H 114.338 -0.545553 -1.33266 0
M  V30 1205 H 116.291 0.900856 -4.11658 0
M  V30 1206 H 115.015 1.36874 -2.96535 0
M  V30 1207 H 113.674 -0.665555 -3.60508 0
M  V30 1208 H 113.322 1.50299 -4.8002 0
M  V30 1209 H 113.022 0.11422 -5.87489 0
M  V30 1210 H 114.546 1.03567 -6.01753 0
M  V30 1211 H 115.96 -1.19824 -5.60638 0
M  V30 1212 H 114.357 -1.98745 -5.66234 0
M  V30 1213 H 115.427 -2.28018 -4.27943 0
M  V30 1214 N 116.77 1.45427 -0.607355 0
M  V30 1215 C 118.181 1.85756 -0.187535 0
M  V30 1216 C 118.532 1.5077 1.25551 0
M  V30 1217 O 117.657 0.93427 1.95193 0
M  V30 1218 C 118.252 3.37154 -0.333572 0
M  V30 1219 C 116.811 3.76387 0.0315542 0
M  V30 1220 C 115.958 2.69377 -0.658117 0
M  V30 1221 H 118.909 1.36231 -0.81405 0
M  V30 1222 H 118.93 3.78014 0.43428 0
M  V30 1223 H 118.442 3.62586 -1.38393 0
M  V30 1224 H 116.543 3.56571 1.0811 0
M  V30 1225 H 116.656 4.77731 -0.361935 0
M  V30 1226 H 115.02 2.5452 -0.0957873 0
M  V30 1227 H 115.803 2.97646 -1.7106 0
M  V30 1228 N 118.248 0.346503 1.53744 0
M  V30 1229 C 119.496 -0.248612 2.00565 0
M  V30 1230 C 119.817 -1.5083 1.23593 0
M  V30 1231 O 119.087 -1.92858 0.343912 0
M  V30 1232 H 117.667 -0.0948564 0.740953 0
M  V30 1233 H 120.329 0.468341 1.89189 0
M  V30 1234 H 119.425 -0.488994 3.08245 0
M  V30 1235 N 119.726 -1.57421 0.075193 0
M  V30 1236 C 120.972 -1.93905 -0.594025 0
M  V30 1237 C 121.305 -0.955701 -1.69056 0
M  V30 1238 O 120.58 0.0145373 -1.94495 0
M  V30 1239 C 120.863 -3.40638 -1.1678 0
M  V30 1240 C 120.716 -4.49733 -0.0776792 0
M  V30 1241 C 122.035 -3.88259 -2.07228 0
M  V30 1242 H 119.154 -0.705105 -0.214466 0
M  V30 1243 H 121.796 -1.8947 0.141854 0
M  V30 1244 H 119.946 -3.44549 -1.79494 0
M  V30 1245 H 121.618 -4.57942 0.555573 0
M  V30 1246 H 119.861 -4.29751 0.591286 0
M  V30 1247 H 120.532 -5.49549 -0.519603 0
M  V30 1248 H 123.008 -3.86376 -1.54445 0
M  V30 1249 H 121.884 -4.91533 -2.44308 0
M  V30 1250 H 122.145 -3.26396 -2.98191 0
M  V30 1251 N 121.204 0.198386 -1.56346 0
M  V30 1252 C 122.62 0.549085 -1.49857 0
M  V30 1253 C 122.82 1.86016 -0.774611 0
M  V30 1254 O 121.876 2.50416 -0.323776 0
M  V30 1255 C 123.189 0.606868 -2.94512 0
M  V30 1256 C 124.737 0.695925 -3.05165 0
M  V30 1257 C 125.212 0.784848 -4.51225 0
M  V30 1258 N 126.703 0.848463 -4.55363 0
M  V30 1259 C 127.438 0.937378 -5.65686 0
M  V30 1260 N 126.934 0.9888 -6.85707 0
M  V30 1261 N 128.727 0.974312 -5.53592 0
M  V30 1262 H 120.878 -0.661655 -2.01831 0
M  V30 1263 H 123.141 -0.235261 -0.918344 0
M  V30 1264 H 122.847 -0.28732 -3.50524 0
M  V30 1265 H 122.721 1.46268 -3.47686 0
M  V30 1266 H 125.108 1.58055 -2.49204 0
M  V30 1267 H 125.189 -0.186022 -2.55123 0
M  V30 1268 H 124.833 -0.0954072 -5.0781 0
M  V30 1269 H 124.763 1.68255 -4.98997 0
M  V30 1270 H 127.254 0.818103 -3.68938 0
M  V30 1271 H 127.567 1.05707 -7.65536 0
M  V30 1272 H 125.912 0.957534 -6.88372 0
M  V30 1273 H 129.103 0.930954 -4.58749 0
M  V30 1274 H 129.276 1.04015 -6.39597 0
M  V30 1275 N 122.682 1.50554 0.465978 0
M  V30 1276 C 123.612 1.72722 1.57128 0
M  V30 1277 C 124.593 0.576294 1.6004 0
M  V30 1278 O 125.778 0.81598 1.76225 0
M  V30 1279 C 122.908 1.82605 2.95419 0
M  V30 1280 C 121.862 2.97835 3.07373 0
M  V30 1281 C 121.188 2.92867 4.47363 0
M  V30 1282 C 122.488 4.38265 2.84114 0
M  V30 1283 H 124.182 2.65267 1.38829 0
M  V30 1284 H 121.728 1.2765 0.666441 0
M  V30 1285 H 123.681 1.96698 3.72677 0
M  V30 1286 H 122.405 0.866858 3.14886 0
M  V30 1287 H 121.064 2.83401 2.3255 0
M  V30 1288 H 120.712 1.94783 4.63755 0
M  V30 1289 H 120.412 3.70227 4.56296 0
M  V30 1290 H 121.936 3.09015 5.26633 0
M  V30 1291 H 123.35 4.53198 3.51118 0
M  V30 1292 H 121.747 5.17115 3.04487 0
M  V30 1293 H 122.817 4.50281 1.7993 0
M  V30 1294 N 124.16 -0.719506 1.40217 0
M  V30 1295 C 125.408 -1.47641 1.3801 0
M  V30 1296 C 125.729 -1.94992 -0.018145 0
M  V30 1297 O 124.999 -1.70073 -0.972207 0
M  V30 1298 H 123.579 -0.547744 0.507923 0
M  V30 1299 H 126.241 -0.853187 1.75233 0
M  V30 1300 H 125.337 -2.35112 2.05253 0
M  V30 1301 N 125.638 -1.25649 -0.95132 0
M  V30 1302 C 126.601 -1.06399 -2.03007 0
M  V30 1303 C 127.601 -0.0156794 -1.60792 0
M  V30 1304 O 128.791 -0.25817 -1.72276 0
M  V30 1305 C 125.923 -0.616184 -3.35285 0
M  V30 1306 H 127.116 -2.02164 -2.21517 0
M  V30 1307 H 124.669 -1.08103 -1.12887 0
M  V30 1308 H 125.404 0.343917 -3.22471 0
M  V30 1309 H 125.189 -1.37301 -3.67275 0
M  V30 1310 H 126.679 -0.503032 -4.14559 0
M  V30 1311 N 127.117 1.15442 -1.07289 0
M  V30 1312 C 128.067 2.18164 -0.662467 0
M  V30 1313 C 129.051 1.57845 0.312074 0
M  V30 1314 O 130.243 1.76552 0.125905 0
M  V30 1315 C 127.372 3.43246 -0.0611295 0
M  V30 1316 C 126.458 4.1062 -1.06077 0
M  V30 1317 N 126.849 4.53491 -2.24008 0
M  V30 1318 C 125.147 4.36949 -0.893964 0
M  V30 1319 C 125.848 5.05731 -2.87422 0
M  V30 1320 N 124.824 4.99236 -2.15091 0
M  V30 1321 H 128.626 2.49038 -1.56068 0
M  V30 1322 H 126.14 1.32003 -0.945988 0
M  V30 1323 H 128.137 4.16145 0.250792 0
M  V30 1324 H 126.797 3.13854 0.832207 0
M  V30 1325 H 127.808 4.46898 -2.6173 0
M  V30 1326 H 124.485 4.17466 -0.0534693 0
M  V30 1327 H 125.875 5.48865 -3.87553 0
M  V30 1328 N 128.595 0.856903 1.32268 0
M  V30 1329 C 129.844 0.457599 1.96441 0
M  V30 1330 C 130.157 -0.992426 1.68553 0
M  V30 1331 O 131.363 -1.49727 2.26482 0
M  V30 1332 C 129.819 0.767358 3.51624 0
M  V30 1333 C 129.427 2.23326 3.88367 0
M  V30 1334 C 131.171 0.435887 4.22256 0
M  V30 1335 C 129.078 2.48613 5.36606 0
M  V30 1336 H 128.008 0.167387 0.735185 0
M  V30 1337 H 130.659 1.048 1.5063 0
M  V30 1338 H 129.041 0.106367 3.95857 0
M  V30 1339 H 130.215 2.93623 3.55137 0
M  V30 1340 H 128.53 2.52948 3.30766 0
M  V30 1341 H 131.127 0.602202 5.31298 0
M  V30 1342 H 131.47 -0.622672 4.11617 0
M  V30 1343 H 132.003 1.05286 3.83614 0
M  V30 1344 H 128.742 3.53101 5.52268 0
M  V30 1345 H 128.262 1.82896 5.71235 0
M  V30 1346 H 129.941 2.32676 6.03714 0
M  V30 1347 N 130.073 -1.45103 0.615059 0
M  V30 1348 C 131.003 -2.33339 -0.0865619 0
M  V30 1349 C 131.984 -1.4727 -0.851209 0
M  V30 1350 O 133.169 -1.76026 -0.820281 0
M  V30 1351 C 130.299 -3.30095 -1.07956 0
M  V30 1352 C 129.253 -4.25858 -0.427628 0
M  V30 1353 C 128.579 -5.12361 -1.5294 0
M  V30 1354 C 129.879 -5.18165 0.655944 0
M  V30 1355 H 131.573 -2.92254 0.650224 0
M  V30 1356 H 129.119 -1.40532 0.314138 0
M  V30 1357 H 131.072 -3.90698 -1.57901 0
M  V30 1358 H 129.796 -2.69355 -1.84703 0
M  V30 1359 H 128.455 -3.66564 0.0510292 0
M  V30 1360 H 128.103 -4.47984 -2.28734 0
M  V30 1361 H 127.803 -5.77238 -1.09865 0
M  V30 1362 H 129.327 -5.75833 -2.03098 0
M  V30 1363 H 130.741 -5.72796 0.240257 0
M  V30 1364 H 129.138 -5.91559 1.00888 0
M  V30 1365 H 130.208 -4.60144 1.52957 0
M  V30 1366 N 131.551 -0.354651 -1.53558 0
M  V30 1367 C 132.828 0.294281 -1.93374 0
M  V30 1368 C 133.208 1.67313 -1.28723 0
M  V30 1369 O 132.556 2.24179 -0.442247 0
M  V30 1370 C 132.766 0.355445 -3.47185 0
M  V30 1371 C 134.114 0.601007 -4.20325 0
M  V30 1372 O 135.138 0.437106 -3.53508 0
M  V30 1373 O 133.997 0.919322 -5.38712 0
M  V30 1374 H 131.091 0.174033 -0.808481 0
M  V30 1375 H 133.637 -0.406638 -1.64756 0
M  V30 1376 H 132.409 -0.611729 -3.86489 0
M  V30 1377 H 132.032 1.1027 -3.82003 0
M  V30 1378 N 133.029 1.57378 -0.0835403 0
M  V30 1379 C 134.254 1.98682 0.594987 0
M  V30 1380 C 134.679 0.961969 1.61641 0
M  V30 1381 O 134.037 -0.0709989 1.81161 0
M  V30 1382 C 134.085 3.38988 1.2296 0
M  V30 1383 O 133.189 3.39208 2.34546 0
M  V30 1384 H 132.53 0.646368 0.152002 0
M  V30 1385 H 135.06 2.03961 -0.161533 0
M  V30 1386 H 135.07 3.76431 1.57366 0
M  V30 1387 H 133.745 4.13107 0.481228 0
M  V30 1388 H 132.322 3.13548 2.01846 0
M  V30 1389 N 134.507 -0.190092 1.56449 0
M  V30 1390 C 135.747 -0.916414 1.82705 0
M  V30 1391 C 136.111 -1.80235 0.661763 0
M  V30 1392 O 137.312 -2.56484 0.80433 0
M  V30 1393 C 135.583 -1.70691 3.14005 0
M  V30 1394 S 137.142 -2.48457 3.61683 0
M  V30 1395 H 133.96 -0.307281 0.64117 0
M  V30 1396 H 136.562 -0.179433 1.94675 0
M  V30 1397 H 135.266 -1.04677 3.96826 0
M  V30 1398 H 134.797 -2.48562 3.04927 0
M  V30 1399 H 136.812 -3.72756 3.27517 0
M  V30 1400 N 135.985 -1.50799 -0.457987 0
M  V30 1401 C 137.21 -1.66496 -1.23668 0
M  V30 1402 C 137.635 -0.353288 -1.84752 0
M  V30 1403 O 136.993 0.684346 -1.67888 0
M  V30 1404 C 137.041 -2.76763 -2.3116 0
M  V30 1405 O 136.145 -2.38928 -3.36136 0
M  V30 1406 H 135.486 -0.555828 -0.363252 0
M  V30 1407 H 138.016 -1.9725 -0.543474 0
M  V30 1408 H 138.026 -3.00232 -2.76269 0
M  V30 1409 H 136.701 -3.71954 -1.86073 0
M  V30 1410 H 135.278 -2.25953 -2.96647 0
M  V30 1411 N 137.463 0.71206 -1.40597 0
M  V30 1412 C 138.41 1.82613 -1.41142 0
M  V30 1413 C 139.38 1.63925 -0.267903 0
M  V30 1414 O 140.565 1.85009 -0.466495 0
M  V30 1415 C 137.705 3.20354 -1.28324 0
M  V30 1416 C 136.818 3.50589 -2.52411 0
M  V30 1417 C 135.953 4.77855 -2.32009 0
M  V30 1418 C 134.992 5.01005 -3.51654 0
M  V30 1419 N 134.129 6.19487 -3.30425 0
M  V30 1420 H 138.969 1.81482 -2.36365 0
M  V30 1421 H 136.506 0.886475 -1.17388 0
M  V30 1422 H 138.464 3.99899 -1.18899 0
M  V30 1423 H 137.094 3.20705 -0.367189 0
M  V30 1424 H 136.146 2.65573 -2.72351 0
M  V30 1425 H 137.458 3.63604 -3.41458 0
M  V30 1426 H 136.612 5.65424 -2.19956 0
M  V30 1427 H 135.351 4.67056 -1.40392 0
M  V30 1428 H 134.356 4.1189 -3.64179 0
M  V30 1429 H 135.581 5.13674 -4.44202 0
M  V30 1430 H 133.527 6.09932 -2.41494 0
M  V30 1431 H 133.444 6.33194 -4.13039 0
M  V30 1432 H 134.712 7.09834 -3.22113 0
M  V30 1433 N 138.941 1.26152 0.944643 0
M  V30 1434 C 140.218 1.02247 1.66748 0
M  V30 1435 C 140.598 -0.448202 2.06287 0
M  V30 1436 O 139.946 -1.42779 1.78399 0
M  V30 1437 C 140.156 1.96788 2.88228 0
M  V30 1438 C 141.504 2.25201 3.59958 0
M  V30 1439 O 142.528 1.94626 2.98327 0
M  V30 1440 O 141.387 2.77242 4.70956 0
M  V30 1441 H 138.481 0.388517 0.730057 0
M  V30 1442 H 141.027 1.37348 0.99668 0
M  V30 1443 H 139.799 2.96047 2.55875 0
M  V30 1444 H 139.422 1.62145 3.63035 0
M  V30 1445 N 140.419 -1.14872 1.07899 0
M  V30 1446 C 141.647 -1.89661 0.82683 0
M  V30 1447 C 142.062 -1.78312 -0.620519 0
M  V30 1448 O 141.419 -1.13888 -1.42604 0
M  V30 1449 C 141.47 -3.39817 1.23316 0
M  V30 1450 O 141.191 -3.50845 2.62372 0
M  V30 1451 C 142.692 -4.31615 1.0111 0
M  V30 1452 H 139.912 -0.60092 0.298557 0
M  V30 1453 H 142.456 -1.4551 1.43691 0
M  V30 1454 H 140.611 -3.8161 0.667286 0
M  V30 1455 H 141.025 -4.44076 2.79101 0
M  V30 1456 H 142.499 -5.35367 1.34486 0
M  V30 1457 H 142.976 -4.39169 -0.0522168 0
M  V30 1458 H 143.582 -3.95572 1.56215 0
M  V30 1459 N 141.898 -0.863906 -1.31812 0
M  V30 1460 C 142.848 -0.286898 -2.26188 0
M  V30 1461 C 143.832 0.572577 -1.50367 0
M  V30 1462 O 145.024 0.420447 -1.71934 0
M  V30 1463 C 142.153 0.515849 -3.39402 0
M  V30 1464 C 141.239 -0.356531 -4.22599 0
M  V30 1465 N 141.63 -1.44716 -4.84656 0
M  V30 1466 C 139.928 -0.147898 -4.45755 0
M  V30 1467 C 140.629 -1.98462 -5.46798 0
M  V30 1468 N 139.605 -1.28247 -5.28255 0
M  V30 1469 H 143.407 -1.12055 -2.717 0
M  V30 1470 H 140.921 -0.711012 -1.46008 0
M  V30 1471 H 142.918 0.945701 -4.06032 0
M  V30 1472 H 141.578 1.34718 -2.95434 0
M  V30 1473 H 142.589 -1.83008 -4.84488 0
M  V30 1474 H 139.266 0.647973 -4.12441 0
M  V30 1475 H 140.656 -2.89932 -6.06126 0
M  V30 1476 N 143.376 1.44774 -0.622745 0
M  V30 1477 C 144.339 2.29069 0.0774015 0
M  V30 1478 C 145.339 1.4059 0.780461 0
M  V30 1479 O 146.529 1.62551 0.626322 0
M  V30 1480 C 143.661 3.21974 1.12006 0
M  V30 1481 H 144.854 2.92459 -0.663901 0
M  V30 1482 H 142.407 1.51548 -0.382486 0
M  V30 1483 H 143.142 2.63417 1.89162 0
M  V30 1484 H 142.927 3.87168 0.619951 0
M  V30 1485 H 144.417 3.85318 1.60995 0
M  V30 1486 N 144.854 0.36279 1.53368 0
M  V30 1487 C 145.784 -0.476976 2.28576 0
M  V30 1488 C 146.765 -1.08631 1.30894 0
M  V30 1489 O 147.95 -1.10409 1.59761 0
M  V30 1490 C 145.08 -1.61828 3.07293 0
M  V30 1491 C 144.034 -1.13633 4.1264 0
M  V30 1492 C 143.36 -2.36766 4.79423 0
M  V30 1493 C 144.66 -0.223061 5.21823 0
M  V30 1494 H 146.354 0.150474 2.99022 0
M  V30 1495 H 143.9 0.0738103 1.43811 0
M  V30 1496 H 145.853 -2.21237 3.58653 0
M  V30 1497 H 144.577 -2.27292 2.34533 0
M  V30 1498 H 143.236 -0.564945 3.62221 0
M  V30 1499 H 142.884 -3.0068 4.03238 0
M  V30 1500 H 142.584 -2.05192 5.50609 0
M  V30 1501 H 144.108 -2.96865 5.33576 0
M  V30 1502 H 145.522 -0.724545 5.68703 0
M  V30 1503 H 143.919 0.001678 6.001 0
M  V30 1504 H 144.989 0.735553 4.79289 0
M  V30 1505 N 146.332 -1.57332 0.0918853 0
M  V30 1506 C 147.242 -2.17368 -0.882505 0
M  V30 1507 C 148.258 -1.14226 -1.31257 0
M  V30 1508 O 149.434 -1.46582 -1.38115 0
M  V30 1509 C 146.499 -2.73962 -2.12476 0
M  V30 1510 C 145.56 -3.92048 -1.7492 0
M  V30 1511 C 144.793 -4.45933 -2.93223 0
M  V30 1512 O 145.016 -3.98764 -4.07852 0
M  V30 1513 O 143.95 -5.36999 -2.71875 0
M  V30 1514 H 147.776 -3.01031 -0.40172 0
M  V30 1515 H 145.361 -1.48813 -0.132291 0
M  V30 1516 H 147.243 -3.10147 -2.85283 0
M  V30 1517 H 145.918 -1.93347 -2.59613 0
M  V30 1518 H 144.825 -3.6068 -0.993025 0
M  V30 1519 H 146.158 -4.74017 -1.32548 0
M  V30 1520 N 147.81 0.181792 -1.56548 0
M  V30 1521 C 148.742 1.24956 -1.92142 0
M  V30 1522 C 149.755 1.41022 -0.813422 0
M  V30 1523 O 150.944 1.41212 -1.09186 0
M  V30 1524 C 148.044 2.61981 -2.14987 0
M  V30 1525 C 147.217 2.6735 -3.46183 0
M  V30 1526 C 146.276 3.85664 -3.5798 0
M  V30 1527 O 145.302 3.72148 -4.30691 0
M  V30 1528 N 146.504 5.01683 -2.92053 0
M  V30 1529 H 149.269 0.947329 -2.84334 0
M  V30 1530 H 146.83 0.371629 -1.57577 0
M  V30 1531 H 148.822 3.3958 -2.20154 0
M  V30 1532 H 147.392 2.84637 -1.2923 0
M  V30 1533 H 146.612 1.75925 -3.52766 0
M  V30 1534 H 147.9 2.67939 -4.32534 0
M  V30 1535 H 147.298 5.15564 -2.32832 0
M  V30 1536 H 145.855 5.77181 -3.0283 0
M  V30 1537 N 149.288 1.51039 0.449983 0
M  V30 1538 C 150.251 1.70863 1.5277 0
M  V30 1539 C 151.251 0.578846 1.5002 0
M  V30 1540 O 152.441 0.846213 1.52266 0
M  V30 1541 C 149.573 1.75341 2.9235 0
M  V30 1542 H 150.766 2.67034 1.36502 0
M  V30 1543 H 148.319 1.40838 0.677812 0
M  V30 1544 H 149.054 0.809383 3.14037 0
M  V30 1545 H 148.839 2.57436 2.95752 0
M  V30 1546 H 150.329 1.92559 3.70555 0
M  V30 1547 N 150.766 -0.704594 1.40972 0
M  V30 1548 C 151.696 -1.83124 1.44872 0
M  V30 1549 C 152.677 -1.67281 0.30838 0
M  V30 1550 O 153.862 -1.87149 0.518556 0
M  V30 1551 C 150.992 -3.21181 1.32136 0
M  V30 1552 C 149.946 -3.51714 2.43888 0
M  V30 1553 C 149.272 -4.89032 2.16222 0
M  V30 1554 C 150.572 -3.516 3.86232 0
M  V30 1555 H 152.266 -1.80117 2.39161 0
M  V30 1556 H 149.812 -0.865145 1.15114 0
M  V30 1557 H 151.765 -3.99702 1.33479 0
M  V30 1558 H 150.489 -3.24791 0.343279 0
M  V30 1559 H 149.148 -2.75539 2.41813 0
M  V30 1560 H 148.796 -4.89256 1.16778 0
M  V30 1561 H 148.496 -5.10426 2.911 0
M  V30 1562 H 150.02 -5.69873 2.19265 0
M  V30 1563 H 151.434 -4.2014 3.9007 0
M  V30 1564 H 149.831 -3.84523 4.60719 0
M  V30 1565 H 150.901 -2.50757 4.15029 0
M  V30 1566 N 152.244 -1.26651 -0.937939 0
M  V30 1567 C 153.521 -1.0313 -1.66204 0
M  V30 1568 C 153.901 0.437256 -2.06522 0
M  V30 1569 O 153.249 1.41831 -1.79154 0
M  V30 1570 C 153.459 -1.98314 -2.87181 0
M  V30 1571 C 154.807 -2.27107 -3.58758 0
M  V30 1572 O 155.831 -1.96205 -2.97291 0
M  V30 1573 O 154.69 -2.79736 -4.69479 0
M  V30 1574 H 151.784 -0.392384 -0.727986 0
M  V30 1575 H 154.33 -1.37874 -0.989382 0
M  V30 1576 H 153.102 -2.97399 -2.54302 0
M  V30 1577 H 152.725 -1.64068 -3.6217 0
M  V30 1578 N 153.722 1.14298 -1.08507 0
M  V30 1579 C 154.969 1.85359 -0.815373 0
M  V30 1580 C 155.297 1.83001 0.658865 0
M  V30 1581 O 154.552 1.25655 1.50031 0
M  V30 1582 C 154.851 3.33547 -1.28379 0
M  V30 1583 C 154.517 3.56093 -2.76602 0
M  V30 1584 C 153.179 3.61955 -3.17084 0
M  V30 1585 C 155.531 3.64834 -3.72217 0
M  V30 1586 C 152.859 3.74082 -4.51973 0
M  V30 1587 C 155.211 3.78487 -5.06883 0
M  V30 1588 C 153.875 3.82598 -5.46969 0
M  V30 1589 H 153.145 0.678276 -0.298366 0
M  V30 1590 H 155.792 1.35002 -1.35819 0
M  V30 1591 H 154.097 3.86191 -0.660593 0
M  V30 1592 H 155.794 3.86959 -1.05186 0
M  V30 1593 H 152.384 3.52179 -2.4427 0
M  V30 1594 H 156.568 3.59595 -3.42061 0
M  V30 1595 H 151.824 3.75527 -4.82483 0
M  V30 1596 H 155.998 3.84193 -5.80834 0
M  V30 1597 H 153.625 3.91747 -6.51489 0
M  V30 1598 N 155.201 0.870884 1.31352 0
M  V30 1599 C 156.447 0.482987 1.96965 0
M  V30 1600 C 156.78 -0.962462 1.68672 0
M  V30 1601 O 156.055 -1.6779 0.98371 0
M  V30 1602 C 156.338 0.741752 3.52378 0
M  V30 1603 C 156.191 2.2368 3.9024 0
M  V30 1604 C 157.51 0.208838 4.39604 0
M  V30 1605 H 154.629 0.176955 0.715441 0
M  V30 1606 H 157.271 1.09229 1.55464 0
M  V30 1607 H 155.421 0.223149 3.87859 0
M  V30 1608 H 157.093 2.82273 3.64856 0
M  V30 1609 H 155.336 2.70901 3.38814 0
M  V30 1610 H 156.007 2.3685 4.98604 0
M  V30 1611 H 158.483 0.652529 4.10952 0
M  V30 1612 H 157.359 0.419336 5.47296 0
M  V30 1613 H 157.62 -0.889275 4.33064 0
M  V30 1614 N 156.679 -1.44442 0.630414 0
M  V30 1615 C 158.095 -1.56832 0.295973 0
M  V30 1616 C 158.295 -1.61806 -1.20088 0
M  V30 1617 O 157.351 -1.5607 -1.9849 0
M  V30 1618 C 158.664 -2.84031 0.987264 0
M  V30 1619 C 160.212 -2.97742 0.96534 0
M  V30 1620 C 160.687 -4.27743 1.63708 0
M  V30 1621 N 162.178 -4.34555 1.60364 0
M  V30 1622 C 162.913 -5.33862 2.09234 0
M  V30 1623 N 162.409 -6.39578 2.66292 0
M  V30 1624 N 164.202 -5.25366 1.99867 0
M  V30 1625 H 156.353 -1.39457 1.60205 0
M  V30 1626 H 158.616 -0.668237 0.672431 0
M  V30 1627 H 158.322 -2.86338 2.04215 0
M  V30 1628 H 158.196 -3.73534 0.524588 0
M  V30 1629 H 160.583 -2.94989 -0.0810639 0
M  V30 1630 H 160.664 -2.09589 1.4665 0
M  V30 1631 H 160.308 -4.31255 2.68293 0
M  V30 1632 H 160.238 -5.14752 1.11076 0
M  V30 1633 H 162.729 -3.58772 1.18705 0
M  V30 1634 H 163.042 -7.11637 3.01317 0
M  V30 1635 H 161.387 -6.40265 2.70343 0
M  V30 1636 H 164.578 -4.41688 1.55013 0
M  V30 1637 H 164.751 -6.02606 2.38265 0
M  V30 1638 N 158.157 -0.370918 -1.53173 0
M  V30 1639 C 159.12 0.460778 -2.24521 0
M  V30 1640 C 160.12 1.00536 -1.25496 0
M  V30 1641 O 161.31 0.890266 -1.49733 0
M  V30 1642 C 158.442 1.64457 -2.98608 0
M  V30 1643 H 159.635 -0.163613 -2.99453 0
M  V30 1644 H 157.188 -0.122699 -1.55818 0
M  V30 1645 H 157.923 2.30691 -2.2793 0
M  V30 1646 H 157.708 1.26099 -3.7127 0
M  V30 1647 H 159.198 2.23384 -3.5283 0
M  V30 1648 N 159.635 1.57281 -0.100228 0
M  V30 1649 C 160.86 1.99302 0.573881 0
M  V30 1650 C 161.285 0.979059 1.60611 0
M  V30 1651 O 160.643 -0.0517803 1.81226 0
M  V30 1652 C 160.691 3.40274 1.19358 0
M  V30 1653 O 159.795 3.41676 2.30935 0
M  V30 1654 H 159.136 0.647944 0.145138 0
M  V30 1655 H 161.666 2.03779 -0.183156 0
M  V30 1656 H 161.676 3.78078 1.53365 0
M  V30 1657 H 160.351 4.13594 0.437385 0
M  V30 1658 H 158.928 3.15672 1.98509 0
M  V30 1659 N 161.113 -0.173488 1.56642 0
M  V30 1660 C 162.043 -1.2171 1.99271 0
M  V30 1661 C 163.024 -1.46289 0.867959 0
M  V30 1662 O 164.209 -1.5766 1.13388 0
M  V30 1663 C 161.339 -2.55651 2.35074 0
M  V30 1664 C 160.293 -2.45645 3.50489 0
M  V30 1665 C 159.619 -3.84056 3.72028 0
M  V30 1666 C 160.919 -1.96302 4.84007 0
M  V30 1667 H 162.613 -0.86275 2.867 0
M  V30 1668 H 160.159 -0.413571 1.37933 0
M  V30 1669 H 162.112 -3.2886 2.63494 0
M  V30 1670 H 160.836 -2.92869 1.44552 0
M  V30 1671 H 159.495 -1.7489 3.22194 0
M  V30 1672 H 159.143 -4.18664 2.788 0
M  V30 1673 H 158.843 -3.7823 4.49684 0
M  V30 1674 H 160.367 -4.58854 4.02846 0
M  V30 1675 H 161.781 -2.59284 5.11317 0
M  V30 1676 H 160.178 -2.01429 5.65284 0
M  V30 1677 H 161.248 -0.917226 4.76146 0
M  V30 1678 N 162.591 -1.51276 -0.441967 0
M  V30 1679 C 163.816 -1.67799 -1.21895 0
M  V30 1680 C 164.241 -0.372864 -1.84367 0
M  V30 1681 O 163.599 0.666501 -1.68604 0
M  V30 1682 C 163.647 -2.79199 -2.28211 0
M  V30 1683 O 162.751 -2.42479 -3.33583 0
M  V30 1684 H 162.092 -0.559649 -0.357336 0
M  V30 1685 H 164.622 -1.97815 -0.522522 0
M  V30 1686 H 164.632 -3.03146 -2.73069 0
M  V30 1687 H 163.307 -3.73906 -1.82118 0
M  V30 1688 H 161.884 -2.29087 -2.94234 0
M  V30 1689 N 164.069 0.697108 -1.41344 0
M  V30 1690 C 165.485 1.00751 -1.2378 0
M  V30 1691 C 165.685 2.01105 -0.126066 0
M  V30 1692 O 164.741 2.47295 0.51004 0
M  V30 1693 C 166.054 1.53359 -2.58653 0
M  V30 1694 C 167.602 1.6525 -2.65822 0
M  V30 1695 C 168.077 2.2126 -4.01009 0
M  V30 1696 N 169.568 2.28622 -4.02847 0
M  V30 1697 C 170.303 2.72984 -5.04249 0
M  V30 1698 N 169.799 3.16962 -6.16041 0
M  V30 1699 N 171.592 2.72534 -4.91611 0
M  V30 1700 H 163.743 0.0322662 -2.12375 0
M  V30 1701 H 166.006 0.0768853 -0.944877 0
M  V30 1702 H 165.712 0.870773 -3.4075 0
M  V30 1703 H 165.586 2.51597 -2.81032 0
M  V30 1704 H 167.973 2.30644 -1.84086 0
M  V30 1705 H 168.054 0.655614 -2.47256 0
M  V30 1706 H 167.698 1.56482 -4.83193 0
M  V30 1707 H 167.628 3.21698 -4.16915 0
M  V30 1708 H 170.119 1.97585 -3.22131 0
M  V30 1709 H 170.432 3.49434 -6.89287 0
M  V30 1710 H 168.777 3.14875 -6.1958 0
M  V30 1711 H 171.968 2.37525 -4.0336 0
M  V30 1712 H 172.141 3.06789 -5.70775 0
M  V30 1713 N 165.547 1.27147 0.931209 0
M  V30 1714 C 166.795 1.13055 1.6752 0
M  V30 1715 C 167.116 -0.324791 1.92276 0
M  V30 1716 O 166.386 -1.22775 1.52654 0
M  V30 1717 H 164.966 0.415391 0.620854 0
M  V30 1718 H 167.628 1.59623 1.11833 0
M  V30 1719 H 166.724 1.65694 2.64485 0
M  V30 1720 N 167.025 -1.13721 1.09112 0
M  V30 1721 C 167.988 -2.17222 0.731241 0
M  V30 1722 C 168.988 -1.59035 -0.237566 0
M  V30 1723 O 170.178 -1.74192 -0.0161704 0
M  V30 1724 C 167.31 -3.40804 0.0808443 0
M  V30 1725 H 168.503 -2.50573 1.64783 0
M  V30 1726 H 166.056 -1.28493 0.889897 0
M  V30 1727 H 166.791 -3.1304 -0.847127 0
M  V30 1728 H 166.576 -3.84306 0.777896 0
M  V30 1729 H 168.066 -4.1731 -0.155657 0
M  V30 1730 N 168.503 -0.877838 -1.30888 0
M  V30 1731 C 169.78 -0.413052 -1.91189 0
M  V30 1732 C 170.16 1.1056 -1.79832 0
M  V30 1733 O 169.508 1.93771 -1.21099 0
M  V30 1734 C 169.718 -0.903191 -3.3711 0
M  V30 1735 C 171.066 -0.93395 -4.14201 0
M  V30 1736 O 172.09 -0.849373 -3.45925 0
M  V30 1737 O 170.949 -1.05772 -5.36167 0
M  V30 1738 H 168.043 -0.125035 -0.817493 0
M  V30 1739 H 170.589 -0.966269 -1.39504 0
M  V30 1740 H 169.361 -1.94692 -3.39427 0
M  V30 1741 H 168.984 -0.328732 -3.96239 0
M  V30 1742 N 169.982 1.44106 -0.638065 0
M  V30 1743 C 171.23 2.01579 -0.145043 0
M  V30 1744 C 171.551 1.50496 1.24 0
M  V30 1745 O 170.821 0.711374 1.82527 0
M  V30 1746 H 169.401 0.745282 -0.05063 0
M  V30 1747 H 172.063 1.76516 -0.826327 0
M  V30 1748 H 171.159 3.11877 -0.118039 0
M  V30 1749 N 171.46 0.379036 1.52974 0
M  V30 1750 C 172.685 -0.209353 2.06341 0
M  V30 1751 C 173.11 -1.40583 1.24972 0
M  V30 1752 O 172.468 -1.79246 0.272155 0
M  V30 1753 C 172.516 -0.567786 3.56102 0
M  V30 1754 O 171.62 -1.66318 3.77375 0
M  V30 1755 H 170.961 -0.0272919 0.663439 0
M  V30 1756 H 173.491 0.543536 1.97248 0
M  V30 1757 H 173.501 -0.835003 3.99364 0
M  V30 1758 H 172.176 0.307013 4.14765 0
M  V30 1759 H 170.753 -1.39048 3.46006 0
M  V30 1760 N 172.938 -1.57226 0.108567 0
M  V30 1761 C 174.354 -1.5766 -0.248058 0
M  V30 1762 C 174.554 -1.12063 -1.67464 0
M  V30 1763 O 173.61 -0.803236 -2.39383 0
M  V30 1764 C 174.923 -3.0069 -0.0242287 0
M  V30 1765 C 176.471 -3.12868 -0.0909372 0
M  V30 1766 C 176.946 -4.57879 0.105067 0
M  V30 1767 N 178.437 -4.63172 0.0506846 0
M  V30 1768 C 179.172 -5.73126 0.177396 0
M  V30 1769 N 178.668 -6.91866 0.359696 0
M  V30 1770 N 180.461 -5.61977 0.117709 0
M  V30 1771 H 172.612 -1.85169 1.04049 0
M  V30 1772 H 174.875 -0.85529 0.40888 0
M  V30 1773 H 174.581 -3.38299 0.961604 0
M  V30 1774 H 174.455 -3.6945 -0.76068 0
M  V30 1775 H 176.842 -2.75124 -1.06729 0
M  V30 1776 H 176.923 -2.46672 0.677225 0
M  V30 1777 H 176.567 -4.96321 1.07834 0
M  V30 1778 H 176.497 -5.22153 -0.682954 0
M  V30 1779 H 178.988 -3.778 -0.0871266 0
M  V30 1780 H 179.301 -7.71503 0.447529 0
M  V30 1781 H 177.646 -6.93874 0.395536 0
M  V30 1782 H 180.837 -4.68094 -0.0236741 0
M  V30 1783 H 181.01 -6.47627 0.219905 0
M  V30 1784 N 174.416 0.165178 -1.56732 0
M  V30 1785 C 175.366 1.20917 -1.93295 0
M  V30 1786 C 176.35 1.39488 -0.801985 0
M  V30 1787 O 177.542 1.41356 -1.06525 0
M  V30 1788 C 174.671 2.54718 -2.3016 0
M  V30 1789 C 173.757 2.39815 -3.49785 0
M  V30 1790 N 174.148 1.94637 -4.66851 0
M  V30 1791 C 172.446 2.70623 -3.54513 0
M  V30 1792 C 173.147 1.92344 -5.4898 0
M  V30 1793 N 172.123 2.34978 -4.9019 0
M  V30 1794 H 175.925 0.851675 -2.81289 0
M  V30 1795 H 173.439 0.373399 -1.58049 0
M  V30 1796 H 175.436 3.30165 -2.54552 0
M  V30 1797 H 174.096 2.91265 -1.43508 0
M  V30 1798 H 175.107 1.6488 -4.90953 0
M  V30 1799 H 171.784 3.11167 -2.78354 0
M  V30 1800 H 173.174 1.5906 -6.52801 0
M  V30 1801 N 175.894 1.51508 0.433938 0
M  V30 1802 C 177.143 1.63578 1.18005 0
M  V30 1803 C 177.456 0.359514 1.92268 0
M  V30 1804 O 178.662 0.359632 2.69108 0
M  V30 1805 C 177.118 2.88901 2.14626 0
M  V30 1806 C 176.726 4.23544 1.45995 0
M  V30 1807 C 178.47 3.10328 2.89649 0
M  V30 1808 C 176.377 5.40014 2.4112 0
M  V30 1809 H 175.307 0.609277 0.444182 0
M  V30 1810 H 177.958 1.77978 0.446773 0
M  V30 1811 H 176.34 2.68142 2.91403 0
M  V30 1812 H 177.514 4.54696 0.747532 0
M  V30 1813 H 175.829 4.08021 0.831115 0
M  V30 1814 H 178.426 3.94518 3.60915 0
M  V30 1815 H 178.769 2.23544 3.51189 0
M  V30 1816 H 179.302 3.31443 2.19978 0
M  V30 1817 H 176.041 6.29068 1.84264 0
M  V30 1818 H 175.561 5.13233 3.10406 0
M  V30 1819 H 177.24 5.72099 3.02177 0
M  V30 1820 N 177.372 -0.689602 1.41712 0
M  V30 1821 C 178.612 -1.46184 1.42862 0
M  V30 1822 C 178.976 -1.91962 0.0382204 0
M  V30 1823 O 180.177 -2.68694 -0.0755019 0
M  V30 1824 C 178.448 -2.6371 2.4123 0
M  V30 1825 S 180.007 -3.52768 2.6096 0
M  V30 1826 H 176.825 -0.49947 0.506015 0
M  V30 1827 H 179.427 -0.804107 1.78198 0
M  V30 1828 H 178.131 -2.28293 3.41044 0
M  V30 1829 H 177.662 -3.3437 2.07269 0
M  V30 1830 H 179.677 -4.59146 1.88148 0
M  V30 1831 N 178.85 -1.27639 -0.924453 0
M  V30 1832 C 180.261 -1.12834 -1.48746 0
M  V30 1833 C 180.612 0.285505 -1.94112 0
M  V30 1834 O 179.737 1.17874 -1.81479 0
M  V30 1835 C 180.332 -2.04217 -2.70334 0
M  V30 1836 C 178.891 -1.93509 -3.22848 0
M  V30 1837 C 178.038 -1.96583 -1.95577 0
M  V30 1838 H 180.989 -1.40484 -0.738233 0
M  V30 1839 H 181.01 -1.59989 -3.4523 0
M  V30 1840 H 180.522 -3.07111 -2.37285 0
M  V30 1841 H 178.623 -0.936131 -3.60649 0
M  V30 1842 H 178.736 -2.79917 -3.88823 0
M  V30 1843 H 177.1 -1.4085 -2.12211 0
M  V30 1844 H 177.883 -3.01137 -1.64837 0
M  V30 1845 N 180.328 1.1314 -1.09713 0
M  V30 1846 C 181.605 1.80762 -0.747302 0
M  V30 1847 C 181.985 1.96663 0.767265 0
M  V30 1848 O 181.333 1.53706 1.69076 0
M  V30 1849 C 181.543 3.15606 -1.48975 0
M  V30 1850 C 182.891 3.90914 -1.65746 0
M  V30 1851 O 183.915 3.25239 -1.45251 0
M  V30 1852 O 182.774 5.08718 -1.9967 0
M  V30 1853 H 179.868 0.782103 -0.268782 0
M  V30 1854 H 182.414 1.20041 -1.19951 0
M  V30 1855 H 181.186 2.99278 -2.52088 0
M  V30 1856 H 180.809 3.84029 -1.02991 0
M  V30 1857 N 181.806 0.884767 1.30421 0
M  V30 1858 C 183.054 0.502112 1.95763 0
M  V30 1859 C 183.375 -0.951815 1.70192 0
M  V30 1860 O 182.645 -1.6692 1.0254 0
M  V30 1861 H 181.225 0.182694 0.724315 0
M  V30 1862 H 183.887 1.1278 1.58955 0
M  V30 1863 H 182.983 0.672188 3.04775 0
M  V30 1864 N 183.284 -1.43765 0.645699 0
M  V30 1865 C 184.509 -2.06767 0.161883 0
M  V30 1866 C 184.934 -1.48034 -1.16049 0
M  V30 1867 O 184.292 -0.587369 -1.71522 0
M  V30 1868 C 184.34 -3.60519 0.0762003 0
M  V30 1869 O 183.444 -4.00982 -0.963721 0
M  V30 1870 H 182.785 -0.657675 0.091429 0
M  V30 1871 H 185.315 -1.84397 0.886499 0
M  V30 1872 H 185.325 -4.07853 -0.109604 0
M  V30 1873 H 184 -4.02646 1.04157 0
M  V30 1874 H 182.577 -3.65253 -0.751312 0
M  V30 1875 N 184.763 -0.387143 -1.52771 0
M  V30 1876 C 185.993 0.195585 -2.05672 0
M  V30 1877 C 186.401 1.41241 -1.25887 0
M  V30 1878 O 185.744 1.81265 -0.298081 0
M  V30 1879 C 185.806 0.632327 -3.53895 0
M  V30 1880 C 185.47 -0.470739 -4.54569 0
M  V30 1881 C 186.467 -1.32746 -5.02667 0
M  V30 1882 C 184.152 -0.637151 -4.98243 0
M  V30 1883 C 186.146 -2.33574 -5.93061 0
M  V30 1884 C 183.833 -1.64877 -5.88438 0
M  V30 1885 C 184.831 -2.49649 -6.35739 0
M  V30 1886 O 184.519 -3.49082 -7.24153 0
M  V30 1887 H 184.251 0.033658 -0.675162 0
M  V30 1888 H 186.805 -0.550221 -1.97893 0
M  V30 1889 H 185.035 1.43008 -3.59285 0
M  V30 1890 H 186.724 1.14048 -3.89548 0
M  V30 1891 H 187.49 -1.21019 -4.69659 0
M  V30 1892 H 183.369 0.0129567 -4.60998 0
M  V30 1893 H 186.913 -2.99777 -6.29904 0
M  V30 1894 H 182.81 -1.76643 -6.2086 0
M  V30 1895 H 183.578 -3.45065 -7.42208 0
M  V30 1896 N 186.241 1.57166 -0.116904 0
M  V30 1897 C 187.204 2.14039 0.819742 0
M  V30 1898 C 188.204 1.07477 1.19605 0
M  V30 1899 O 189.394 1.33263 1.1219 0
M  V30 1900 C 186.526 2.67891 2.10826 0
M  V30 1901 H 187.719 2.98128 0.325511 0
M  V30 1902 H 185.272 1.55739 0.132312 0
M  V30 1903 H 186.007 1.87384 2.64685 0
M  V30 1904 H 185.792 3.45823 1.84793 0
M  V30 1905 H 187.282 3.11809 2.77785 0
M  V30 1906 N 187.719 -0.156864 1.56817 0
M  V30 1907 C 188.947 -0.886316 1.86955 0
M  V30 1908 C 189.362 -1.75185 0.703975 0
M  V30 1909 O 188.719 -1.79555 -0.326552 0
M  V30 1910 C 188.77 -1.75117 3.16253 0
M  V30 1911 O 188.491 -0.920537 4.2832 0
M  V30 1912 C 189.992 -2.58905 3.59837 0
M  V30 1913 H 187.212 -0.25678 0.619923 0
M  V30 1914 H 189.756 -0.152615 2.0393 0
M  V30 1915 H 187.911 -2.43805 3.01062 0
M  V30 1916 H 188.325 -1.51337 5.02192 0
M  V30 1917 H 189.799 -3.1518 4.53172 0
M  V30 1918 H 190.276 -3.34472 2.84649 0
M  V30 1919 H 190.882 -1.95526 3.7769 0
M  V30 1920 N 189.197 -1.51736 -0.425897 0
M  V30 1921 C 190.147 -1.70258 -1.51645 0
M  V30 1922 C 191.131 -0.556488 -1.5097 0
M  V30 1923 O 192.323 -0.812879 -1.5723 0
M  V30 1924 C 189.452 -1.84143 -2.89735 0
M  V30 1925 C 188.538 -3.04572 -2.95122 0
M  V30 1926 N 188.929 -4.2756 -2.70233 0
M  V30 1927 C 187.227 -3.04061 -3.26286 0
M  V30 1928 C 187.928 -5.08908 -2.81757 0
M  V30 1929 N 186.904 -4.43797 -3.13919 0
M  V30 1930 H 190.706 -2.63004 -1.31172 0
M  V30 1931 H 188.22 -1.4954 -0.633375 0
M  V30 1932 H 190.217 -1.95525 -3.68206 0
M  V30 1933 H 188.877 -0.925857 -3.1122 0
M  V30 1934 H 189.888 -4.56315 -2.44943 0
M  V30 1935 H 186.565 -2.22179 -3.53473 0
M  V30 1936 H 187.955 -6.16843 -2.66372 0
M  V30 1937 N 190.675 0.682077 -1.42076 0
M  V30 1938 C 191.923 1.4393 -1.41876 0
M  V30 1939 C 192.244 1.94971 -0.0335599 0
M  V30 1940 O 191.514 1.72591 0.926773 0
M  V30 1941 H 190.094 0.534085 -0.522267 0
M  V30 1942 H 192.756 0.806427 -1.77434 0
M  V30 1943 H 191.852 2.29588 -2.11414 0
M  V30 1944 N 192.153 1.28127 0.917671 0
M  V30 1945 C 193.43 1.05761 1.64542 0
M  V30 1946 C 193.81 -0.404344 2.07191 0
M  V30 1947 O 193.158 -1.38963 1.81388 0
M  V30 1948 C 193.368 2.02857 2.83989 0
M  V30 1949 C 194.716 2.32786 3.551 0
M  V30 1950 O 195.74 2.0091 2.94132 0
M  V30 1951 O 194.599 2.87169 4.64969 0
M  V30 1952 H 191.693 0.403916 0.721652 0
M  V30 1953 H 194.239 1.39431 0.967322 0
M  V30 1954 H 193.011 3.01407 2.49538 0
M  V30 1955 H 192.634 1.69809 3.59514 0
M  V30 1956 N 193.631 -1.12557 1.10312 0
M  V30 1957 C 194.594 -2.16434 0.75424 0
M  V30 1958 C 195.594 -1.59278 -0.220685 0
M  V30 1959 O 196.784 -1.742 0.00230591 0
M  V30 1960 C 193.916 -3.40699 0.116987 0
M  V30 1961 H 195.109 -2.48811 1.67431 0
M  V30 1962 H 192.662 -1.27542 0.903475 0
M  V30 1963 H 193.397 -3.13921 -0.813877 0
M  V30 1964 H 193.182 -3.83459 0.818613 0
M  V30 1965 H 194.672 -4.17451 -0.111387 0
M  V30 1966 N 195.109 -0.891671 -1.2995 0
M  V30 1967 C 196.52 -0.563104 -1.78006 0
M  V30 1968 C 196.871 0.920978 -1.73241 0
M  V30 1969 O 195.996 1.71987 -1.31337 0
M  V30 1970 C 196.591 -1.01539 -3.23226 0
M  V30 1971 C 195.15 -0.738124 -3.69092 0
M  V30 1972 C 194.297 -1.19461 -2.50249 0
M  V30 1973 H 197.248 -1.07522 -1.16725 0
M  V30 1974 H 197.269 -0.347217 -3.78912 0
M  V30 1975 H 196.781 -2.09555 -3.26662 0
M  V30 1976 H 194.882 0.329766 -3.71138 0
M  V30 1977 H 194.995 -1.33037 -4.60259 0
M  V30 1978 H 193.359 -0.613787 -2.47194 0
M  V30 1979 H 194.142 -2.28265 -2.56417 0
M  V30 1980 N 196.587 1.43421 -0.653314 0
M  V30 1981 C 197.815 2.06163 -0.174491 0
M  V30 1982 C 198.23 1.48969 1.1599 0
M  V30 1983 O 197.587 0.621042 1.71608 0
M  V30 1984 C 197.638 3.61417 -0.0774865 0
M  V30 1985 O 197.359 4.16485 -1.35912 0
M  V30 1986 C 198.86 4.41235 0.427402 0
M  V30 1987 H 196.08 0.664946 -0.0899353 0
M  V30 1988 H 198.624 1.83924 -0.893988 0
M  V30 1989 H 196.779 3.82841 0.59257 0
M  V30 1990 H 197.193 5.10153 -1.21839 0
M  V30 1991 H 198.667 5.5021 0.44423 0
M  V30 1992 H 199.144 4.14268 1.45873 0
M  V30 1993 H 199.75 4.2478 -0.210167 0
M  V30 1994 N 198.065 0.39524 1.52563 0
M  V30 1995 C 199.028 -0.425001 2.25225 0
M  V30 1996 C 200.028 -0.985266 1.27079 0
M  V30 1997 O 201.218 -0.866332 1.5113 0
M  V30 1998 C 198.35 -1.59686 3.01186 0
M  V30 1999 H 199.543 0.211233 2.99155 0
M  V30 2000 H 197.096 0.147472 1.55603 0
M  V30 2001 H 197.831 -2.27035 2.31572 0
M  V30 2002 H 197.616 -1.20176 3.73229 0
M  V30 2003 H 199.106 -2.17743 3.5634 0
M  V30 2004 N 199.544 -1.57102 0.125237 0
M  V30 2005 C 200.793 -1.94582 -0.531095 0
M  V30 2006 C 201.106 -1.01126 -1.6743 0
M  V30 2007 O 202.312 -1.28097 -2.39381 0
M  V30 2008 C 200.768 -3.45839 -0.996164 0
M  V30 2009 C 200.376 -4.47842 0.118926 0
M  V30 2010 C 202.12 -3.92227 -1.62352 0
M  V30 2011 C 200.027 -5.90284 -0.363192 0
M  V30 2012 H 198.957 -0.726391 -0.20217 0
M  V30 2013 H 201.608 -1.82339 0.206092 0
M  V30 2014 H 199.99 -3.53338 -1.78796 0
M  V30 2015 H 201.164 -4.52018 0.895358 0
M  V30 2016 H 199.479 -4.11243 0.653324 0
M  V30 2017 H 202.076 -4.96069 -1.99548 0
M  V30 2018 H 202.419 -3.32552 -2.50429 0
M  V30 2019 H 202.952 -3.87554 -0.897019 0
M  V30 2020 H 199.691 -6.53728 0.481679 0
M  V30 2021 H 199.211 -5.89515 -1.10597 0
M  V30 2022 H 200.89 -6.41752 -0.822377 0
M  V30 2023 N 201.022 0.148545 -1.56898 0
M  V30 2024 C 202.25 0.876389 -1.87422 0
M  V30 2025 C 202.665 1.74809 -0.713256 0
M  V30 2026 O 202.022 1.79725 0.317025 0
M  V30 2027 C 202.073 1.73438 -3.17178 0
M  V30 2028 O 201.794 0.897809 -4.28802 0
M  V30 2029 C 203.295 2.56993 -3.61205 0
M  V30 2030 H 200.515 0.253489 -0.621277 0
M  V30 2031 H 203.059 0.141798 -2.04008 0
M  V30 2032 H 201.214 2.42205 -3.0235 0
M  V30 2033 H 201.628 1.48672 -5.02988 0
M  V30 2034 H 203.102 3.12773 -4.54838 0
M  V30 2035 H 203.579 3.32958 -2.86419 0
M  V30 2036 H 204.185 1.9352 -3.78722 0
M  V30 2037 N 202.5 1.5196 0.417844 0
M  V30 2038 C 203.748 1.65263 1.16329 0
M  V30 2039 C 204.069 0.380634 1.91249 0
M  V30 2040 O 203.339 -0.604214 1.86349 0
M  V30 2041 H 201.919 0.60912 0.432414 0
M  V30 2042 H 204.581 1.88969 0.477162 0
M  V30 2043 H 203.677 2.4896 1.88217 0
M  V30 2044 N 203.978 -0.674533 1.42435 0
M  V30 2045 C 205.224 -1.43671 1.43131 0
M  V30 2046 C 205.557 -1.94142 0.0476021 0
M  V30 2047 O 204.832 -1.70924 -0.928188 0
M  V30 2048 C 205.115 -2.63355 2.45594 0
M  V30 2049 C 204.968 -2.18514 3.93156 0
M  V30 2050 C 206.287 -3.65571 2.45043 0
M  V30 2051 H 203.406 -0.521077 0.521198 0
M  V30 2052 H 206.048 -0.766551 1.7385 0
M  V30 2053 H 204.198 -3.2053 2.19528 0
M  V30 2054 H 205.87 -1.66504 4.30202 0
M  V30 2055 H 204.113 -1.50086 4.07009 0
M  V30 2056 H 204.784 -3.04484 4.60428 0
M  V30 2057 H 207.26 -3.18113 2.68223 0
M  V30 2058 H 206.136 -4.46893 3.18713 0
M  V30 2059 H 206.397 -4.16716 1.47649 0
M  V30 2060 N 205.456 -1.28612 -0.910864 0
M  V30 2061 C 206.705 -1.15311 -1.65488 0
M  V30 2062 C 207.018 0.296999 -1.93332 0
M  V30 2063 O 208.224 0.551168 -2.65847 0
M  V30 2064 C 206.68 -2.01599 -2.98137 0
M  V30 2065 C 206.288 -3.51367 -2.7793 0
M  V30 2066 C 208.032 -1.96993 -3.76024 0
M  V30 2067 C 205.939 -4.29797 -4.06237 0
M  V30 2068 H 204.869 -0.42796 -0.620779 0
M  V30 2069 H 207.52 -1.53166 -1.01057 0
M  V30 2070 H 205.902 -1.56603 -3.63719 0
M  V30 2071 H 207.076 -4.0434 -2.21011 0
M  V30 2072 H 205.391 -3.57529 -2.13452 0
M  V30 2073 H 207.988 -2.52856 -4.71135 0
M  V30 2074 H 208.331 -0.94733 -4.05378 0
M  V30 2075 H 208.864 -2.39973 -3.17266 0
M  V30 2076 H 205.603 -5.32648 -3.82055 0
M  V30 2077 H 205.123 -3.81596 -4.62757 0
M  V30 2078 H 206.802 -4.39869 -4.74473 0
M  V30 2079 N 206.934 1.1197 -1.10907 0
M  V30 2080 C 208.182 1.83225 -0.852819 0
M  V30 2081 C 208.503 1.84769 0.623341 0
M  V30 2082 O 207.773 1.3143 1.45269 0
M  V30 2083 H 206.353 0.67849 -0.312507 0
M  V30 2084 H 209.015 1.3556 -1.40033 0
M  V30 2085 H 208.111 2.87265 -1.22005 0
M  V30 2086 N 208.412 0.89855 1.29475 0
M  V30 2087 C 209.66 0.522847 1.9522 0
M  V30 2088 C 209.981 -0.93371 1.71192 0
M  V30 2089 O 209.251 -1.65823 1.04305 0
M  V30 2090 H 207.831 0.190366 0.722336 0
M  V30 2091 H 210.493 1.14459 1.5775 0
M  V30 2092 H 209.589 0.704476 3.04045 0
M  V30 2093 N 209.89 -1.43072 0.660911 0
M  V30 2094 C 211.115 -2.06584 0.183805 0
M  V30 2095 C 211.54 -1.49257 -1.14472 0
M  V30 2096 O 210.898 -0.605528 -1.70889 0
M  V30 2097 C 210.946 -3.60418 0.114434 0
M  V30 2098 O 210.05 -4.01981 -0.921137 0
M  V30 2099 H 209.391 -0.656669 0.0983994 0
M  V30 2100 H 211.921 -1.83447 0.906006 0
M  V30 2101 H 211.931 -4.07946 -0.0663394 0
M  V30 2102 H 210.606 -4.01519 1.08422 0
M  V30 2103 H 209.183 -3.66029 -0.71253 0
M  V30 2104 N 211.368 -0.403325 -1.52352 0
M  V30 2105 C 212.598 0.17376 -2.05868 0
M  V30 2106 C 213.006 1.39898 -1.27378 0
M  V30 2107 O 212.349 1.80939 -0.31729 0
M  V30 2108 C 212.411 0.594756 -3.54546 0
M  V30 2109 C 212.075 -0.518926 -4.54044 0
M  V30 2110 C 213.072 -1.3807 -5.01231 0
M  V30 2111 C 210.757 -0.689961 -4.97539 0
M  V30 2112 C 212.751 -2.39852 -5.90551 0
M  V30 2113 C 210.438 -1.71109 -5.86656 0
M  V30 2114 C 211.436 -2.56378 -6.33056 0
M  V30 2115 O 211.124 -3.56743 -7.20409 0
M  V30 2116 H 210.856 0.0264951 -0.675481 0
M  V30 2117 H 213.41 -0.571179 -1.97299 0
M  V30 2118 H 211.64 1.39189 -3.60782 0
M  V30 2119 H 213.329 1.0991 -3.90736 0
M  V30 2120 H 214.095 -1.25994 -4.68349 0
M  V30 2121 H 209.974 -0.035939 -4.60986 0
M  V30 2122 H 213.518 -3.06441 -6.26689 0
M  V30 2123 H 209.415 -1.83218 -6.18952 0
M  V30 2124 H 210.183 -3.52918 -7.38506 0
M  V30 2125 N 212.846 1.57033 -0.133567 0
M  V30 2126 C 214.071 2.00475 0.531477 0
M  V30 2127 C 214.496 1.01291 1.58499 0
M  V30 2128 O 213.854 -0.0133279 1.81295 0
M  V30 2129 C 213.902 3.42729 1.12113 0
M  V30 2130 O 213.006 3.46498 2.23636 0
M  V30 2131 H 212.347 0.650876 0.131362 0
M  V30 2132 H 214.877 2.03344 -0.22634 0
M  V30 2133 H 214.887 3.81246 1.4531 0
M  V30 2134 H 213.562 4.14428 0.349557 0
M  V30 2135 H 212.139 3.19811 1.91769 0
M  V30 2136 N 214.325 -0.140222 1.56975 0
M  V30 2137 C 215.602 -0.880769 1.74648 0
M  V30 2138 C 215.982 -1.99036 0.703404 0
M  V30 2139 O 215.33 -2.26821 -0.27648 0
M  V30 2140 C 215.54 -1.417 3.18939 0
M  V30 2141 C 216.888 -1.87774 3.80823 0
M  V30 2142 O 217.912 -1.51427 3.2241 0
M  V30 2143 O 216.771 -2.54827 4.83452 0
M  V30 2144 H 213.865 -0.416713 0.714338 0
M  V30 2145 H 216.411 -0.125618 1.69234 0
M  V30 2146 H 215.183 -0.619902 3.86359 0
M  V30 2147 H 214.806 -2.23546 3.28805 0
M  V30 2148 N 215.803 -1.52179 -0.40978 0
M  V30 2149 C 217.049 -1.66453 -1.15851 0
M  V30 2150 C 217.382 -0.392972 -1.90182 0
M  V30 2151 O 216.657 0.608579 -1.84734 0
M  V30 2152 C 216.94 -2.88612 -2.15349 0
M  V30 2153 C 216.793 -4.25815 -1.44918 0
M  V30 2154 C 218.112 -3.06294 -3.16026 0
M  V30 2155 H 215.231 -0.60575 -0.419805 0
M  V30 2156 H 217.873 -1.84732 -0.444314 0
M  V30 2157 H 216.023 -2.73158 -2.76255 0
M  V30 2158 H 217.695 -4.52995 -0.871365 0
M  V30 2159 H 215.938 -4.27247 -0.751159 0
M  V30 2160 H 216.609 -5.07337 -2.17516 0
M  V30 2161 H 219.085 -3.20641 -2.65195 0
M  V30 2162 H 217.961 -3.93283 -3.8291 0
M  V30 2163 H 218.222 -2.19579 -3.83715 0
M  V30 2164 N 217.281 0.66697 -1.42791 0
M  V30 2165 C 218.506 1.46004 -1.47301 0
M  V30 2166 C 218.931 1.87894 -0.0880317 0
M  V30 2167 O 218.289 1.56502 0.915253 0
M  V30 2168 C 218.337 2.68031 -2.41229 0
M  V30 2169 O 217.441 3.6659 -1.88906 0
M  V30 2170 H 216.782 0.43832 -0.49877 0
M  V30 2171 H 219.312 0.817391 -1.87563 0
M  V30 2172 H 219.322 3.1601 -2.58073 0
M  V30 2173 H 217.997 2.36883 -3.41847 0
M  V30 2174 H 216.574 3.25661 -1.81656 0
M  V30 2175 N 218.759 1.29093 0.90403 0
M  V30 2176 C 220.008 1.16187 1.64874 0
M  V30 2177 C 220.321 -0.286742 1.93487 0
M  V30 2178 O 221.527 -0.537062 2.66135 0
M  V30 2179 C 219.983 2.03177 2.97064 0
M  V30 2180 C 219.591 3.52836 2.76062 0
M  V30 2181 C 221.335 1.98984 3.74974 0
M  V30 2182 C 219.242 4.31945 4.03952 0
M  V30 2183 H 218.172 0.431246 0.618501 0
M  V30 2184 H 220.823 1.53699 1.00243 0
M  V30 2185 H 219.205 1.5853 3.62883 0
M  V30 2186 H 220.379 4.05507 2.18863 0
M  V30 2187 H 218.694 3.58656 2.11553 0
M  V30 2188 H 221.291 2.55351 4.69787 0
M  V30 2189 H 221.634 0.968815 4.0487 0
M  V30 2190 H 222.167 2.41652 3.15989 0
M  V30 2191 H 218.906 5.34667 3.79225 0
M  V30 2192 H 218.426 3.84045 4.60727 0
M  V30 2193 H 220.105 4.42379 4.72133 0
M  V30 2194 N 220.237 -1.11381 1.11499 0
M  V30 2195 C 221.169 -2.17207 0.731704 0
M  V30 2196 C 222.182 -1.61066 -0.236957 0
M  V30 2197 O 223.371 -1.78489 -0.0197591 0
M  V30 2198 C 220.471 -3.38846 0.0607624 0
M  V30 2199 C 219.644 -4.24451 1.0564 0
M  V30 2200 C 218.703 -5.24562 0.4149 0
M  V30 2201 O 217.729 -5.59071 1.069 0
M  V30 2202 N 218.931 -5.74651 -0.821943 0
M  V30 2203 H 221.696 -2.50699 1.64225 0
M  V30 2204 H 219.257 -1.26908 1.00529 0
M  V30 2205 H 221.249 -4.02911 -0.380139 0
M  V30 2206 H 219.819 -3.03411 -0.752376 0
M  V30 2207 H 219.039 -3.56833 1.67524 0
M  V30 2208 H 220.327 -4.78486 1.72998 0
M  V30 2209 H 219.725 -5.48797 -1.37252 0
M  V30 2210 H 218.282 -6.40549 -1.20582 0
M  V30 2211 N 221.715 -0.905404 -1.28997 0
M  V30 2212 C 222.961 -0.535039 -1.95615 0
M  V30 2213 C 223.294 0.917404 -1.71165 0
M  V30 2214 O 222.569 1.65123 -1.02785 0
M  V30 2215 C 222.852 -0.834918 -3.50287 0
M  V30 2216 C 222.705 -2.33948 -3.84172 0
M  V30 2217 C 224.024 -0.325318 -4.38896 0
M  V30 2218 H 221.143 -0.195861 -0.710498 0
M  V30 2219 H 223.785 -1.13313 -1.52513 0
M  V30 2220 H 221.935 -0.325904 -3.87131 0
M  V30 2221 H 223.607 -2.91847 -3.57243 0
M  V30 2222 H 221.85 -2.79789 -3.31513 0
M  V30 2223 H 222.521 -2.49987 -4.92149 0
M  V30 2224 H 224.997 -0.761256 -4.09077 0
M  V30 2225 H 223.873 -0.564295 -5.45992 0
M  V30 2226 H 224.134 0.774144 -4.35269 0
M  V30 2227 N 223.193 1.4272 -0.668489 0
M  V30 2228 C 224.156 2.292 0.00448567 0
M  V30 2229 C 225.156 1.43001 0.735339 0
M  V30 2230 O 226.346 1.64461 0.57429 0
M  V30 2231 C 223.478 3.25375 1.01705 0
M  V30 2232 H 224.671 2.90199 -0.756608 0
M  V30 2233 H 222.224 1.50254 -0.430506 0
M  V30 2234 H 222.959 2.69301 1.80686 0
M  V30 2235 H 222.744 3.88944 0.496463 0
M  V30 2236 H 224.234 3.90245 1.48655 0
M  V30 2237 N 224.671 0.411399 1.52136 0
M  V30 2238 C 225.619 -0.427633 2.28635 0
M  V30 2239 C 226.613 -1.04383 1.33419 0
M  V30 2240 O 227.819 -0.981772 1.50868 0
M  V30 2241 H 224.194 -0.156689 0.735495 0
M  V30 2242 H 226.165 0.238761 2.97443 0
M  V30 2243 C 224.914 -1.53082 3.12188 0
M  V30 2244 H 224.237 -1.06601 3.85326 0
M  V30 2245 H 225.677 -2.09167 3.68816 0
M  V30 2246 C 224.136 -2.49946 2.25895 0
M  V30 2247 O 224.666 -3.53884 1.90076 0
M  V30 2248 N 222.872 -2.2021 1.8962 0
M  V30 2249 H 222.419 -1.35719 2.18948 0
M  V30 2250 H 222.377 -2.85266 1.32176 0
M  V30 2251 N 226.149 -1.5696 0.141893 0
M  V30 2252 C 227.079 -2.19516 -0.795936 0
M  V30 2253 C 228.06 -1.14187 -1.26077 0
M  V30 2254 O 229.245 -1.42511 -1.31925 0
M  V30 2255 C 226.375 -2.81272 -2.03723 0
M  V30 2256 C 225.329 -3.92384 -1.70936 0
M  V30 2257 C 224.655 -4.41052 -3.02287 0
M  V30 2258 C 225.955 -5.13403 -0.959954 0
M  V30 2259 H 227.649 -2.98138 -0.274596 0
M  V30 2260 H 225.195 -1.43406 -0.130636 0
M  V30 2261 H 227.148 -3.237 -2.69808 0
M  V30 2262 H 225.872 -1.99973 -2.58221 0
M  V30 2263 H 224.531 -3.50566 -1.07232 0
M  V30 2264 H 224.179 -3.56582 -3.54765 0
M  V30 2265 H 223.879 -5.15993 -2.81114 0
M  V30 2266 H 225.403 -4.86146 -3.69451 0
M  V30 2267 H 226.817 -5.52706 -1.52279 0
M  V30 2268 H 225.214 -5.94073 -0.848357 0
M  V30 2269 H 226.284 -4.84875 0.0492434 0
M  V30 2270 N 227.627 0.131896 -1.57047 0
M  V30 2271 C 228.557 1.16384 -2.02428 0
M  V30 2272 C 229.538 1.43936 -0.90644 0
M  V30 2273 O 230.723 1.54599 -1.17528 0
M  V30 2274 C 227.853 2.49328 -2.4177 0
M  V30 2275 C 226.807 2.36266 -3.56879 0
M  V30 2276 C 226.133 3.74057 -3.8208 0
M  V30 2277 C 227.433 1.834 -4.89042 0
M  V30 2278 H 229.127 0.786433 -2.88887 0
M  V30 2279 H 226.673 0.376855 -1.38981 0
M  V30 2280 H 228.626 3.21759 -2.7212 0
M  V30 2281 H 227.35 2.88934 -1.52266 0
M  V30 2282 H 226.009 1.66286 -3.26718 0
M  V30 2283 H 225.657 4.11125 -2.89803 0
M  V30 2284 H 225.357 3.66174 -4.59554 0
M  V30 2285 H 226.881 4.48012 -4.1487 0
M  V30 2286 H 228.295 2.45636 -5.18011 0
M  V30 2287 H 226.692 1.8637 -5.70426 0
M  V30 2288 H 227.762 0.790662 -4.7841 0
M  V30 2289 N 229.106 1.52395 0.401703 0
M  V30 2290 C 230.522 1.41363 0.740864 0
M  V30 2291 C 230.722 0.523982 1.94568 0
M  V30 2292 O 229.778 -0.00741204 2.52499 0
M  V30 2293 C 231.091 2.84011 0.987847 0
M  V30 2294 C 232.639 2.93404 1.09011 0
M  V30 2295 C 233.114 4.37036 1.3698 0
M  V30 2296 N 234.605 4.40304 1.43829 0
M  V30 2297 C 235.34 5.48508 1.67112 0
M  V30 2298 N 234.836 6.66819 1.87949 0
M  V30 2299 N 236.629 5.36034 1.69187 0
M  V30 2300 H 228.78 2.08765 -0.391262 0
M  V30 2301 H 231.043 0.941265 -0.112798 0
M  V30 2302 H 230.749 3.51265 0.174835 0
M  V30 2303 H 230.623 3.25502 1.906 0
M  V30 2304 H 233.01 2.26325 1.8937 0
M  V30 2305 H 233.091 2.55359 0.15015 0
M  V30 2306 H 232.735 5.04676 0.571353 0
M  V30 2307 H 232.665 4.72623 2.3224 0
M  V30 2308 H 235.156 3.55024 1.29486 0
M  V30 2309 H 235.469 7.45063 2.05185 0
M  V30 2310 H 233.814 6.6987 1.85199 0
M  V30 2311 H 237.005 4.42579 1.52451 0
M  V30 2312 H 237.178 6.20434 1.86993 0
M  V30 2313 N 230.584 -0.659388 1.43143 0
M  V30 2314 C 231.514 -1.78422 1.50625 0
M  V30 2315 C 232.495 -1.66216 0.361443 0
M  V30 2316 O 233.68 -1.85404 0.577834 0
M  V30 2317 C 230.81 -3.16815 1.42287 0
M  V30 2318 C 229.764 -3.43777 2.54954 0
M  V30 2319 C 229.09 -4.81905 2.31671 0
M  V30 2320 C 230.39 -3.39134 3.97222 0
M  V30 2321 H 232.084 -1.72417 2.44771 0
M  V30 2322 H 229.63 -0.828084 1.17808 0
M  V30 2323 H 231.583 -3.95253 1.46127 0
M  V30 2324 H 230.307 -3.23534 0.446435 0
M  V30 2325 H 228.966 -2.67707 2.50457 0
M  V30 2326 H 228.614 -4.85294 1.32284 0
M  V30 2327 H 228.314 -5.00906 3.07192 0
M  V30 2328 H 229.838 -5.62609 2.37284 0
M  V30 2329 H 231.252 -4.07518 4.03239 0
M  V30 2330 H 229.649 -3.69671 4.72719 0
M  V30 2331 H 230.719 -2.37426 4.22797 0
M  V30 2332 N 232.062 -1.29571 -0.897171 0
M  V30 2333 C 233.309 -1.17689 -1.6479 0
M  V30 2334 C 233.637 0.27107 -1.92602 0
M  V30 2335 O 232.892 1.21193 -1.53658 0
M  V30 2336 C 233.191 -1.9382 -3.00281 0
M  V30 2337 C 232.857 -3.43522 -2.92068 0
M  V30 2338 C 231.519 -3.84348 -2.89535 0
M  V30 2339 C 233.871 -4.38906 -2.81089 0
M  V30 2340 C 231.199 -5.18869 -2.73846 0
M  V30 2341 C 233.551 -5.73521 -2.66939 0
M  V30 2342 C 232.215 -6.13601 -2.62774 0
M  V30 2343 H 231.485 -0.430654 -0.603008 0
M  V30 2344 H 234.132 -1.60536 -1.04404 0
M  V30 2345 H 232.437 -1.4357 -3.64547 0
M  V30 2346 H 234.134 -1.82028 -3.57305 0
M  V30 2347 H 230.724 -3.11072 -2.94842 0
M  V30 2348 H 234.908 -4.08315 -2.82121 0
M  V30 2349 H 230.164 -5.4903 -2.69027 0
M  V30 2350 H 234.338 -6.47078 -2.57416 0
M  V30 2351 H 231.965 -7.17786 -2.50375 0
M  V30 2352 N 233.54 1.10788 -1.12088 0
M  V30 2353 C 234.472 2.16816 -0.743213 0
M  V30 2354 C 235.485 1.6119 0.228412 0
M  V30 2355 O 236.674 1.78497 0.0102931 0
M  V30 2356 C 233.774 3.38809 -0.0787313 0
M  V30 2357 C 232.947 4.23885 -1.0789 0
M  V30 2358 C 232.006 5.24334 -0.442713 0
M  V30 2359 O 231.032 5.58497 -1.09864 0
M  V30 2360 N 232.234 5.75079 0.791457 0
M  V30 2361 H 234.999 2.49825 -1.65552 0
M  V30 2362 H 232.56 1.26373 -1.012 0
M  V30 2363 H 234.552 4.03107 0.358766 0
M  V30 2364 H 233.122 3.03805 0.736275 0
M  V30 2365 H 232.342 3.55939 -1.69414 0
M  V30 2366 H 233.63 4.77562 -1.75533 0
M  V30 2367 H 233.028 5.49517 1.3434 0
M  V30 2368 H 231.585 6.4118 1.17183 0
M  V30 2369 N 235.018 0.912232 1.28515 0
M  V30 2370 C 236.267 0.540504 1.94323 0
M  V30 2371 C 236.58 -0.920044 1.72611 0
M  V30 2372 O 237.786 -1.39986 2.32629 0
M  V30 2373 C 236.242 0.915803 3.48053 0
M  V30 2374 C 235.85 2.39598 3.78546 0
M  V30 2375 C 237.594 0.614588 4.20027 0
M  V30 2376 C 235.501 2.71148 5.25578 0
M  V30 2377 H 234.431 0.198418 0.727424 0
M  V30 2378 H 237.082 1.11094 1.46049 0
M  V30 2379 H 235.464 0.274168 3.9505 0
M  V30 2380 H 236.638 3.08422 3.42364 0
M  V30 2381 H 234.953 2.66749 3.1974 0
M  V30 2382 H 237.55 0.827002 5.28266 0
M  V30 2383 H 237.893 -0.447531 4.13887 0
M  V30 2384 H 238.426 1.21462 3.78803 0
M  V30 2385 H 235.165 3.76207 5.36794 0
M  V30 2386 H 234.685 2.0696 5.62963 0
M  V30 2387 H 236.364 2.58072 5.93302 0
M  V30 2388 N 236.496 -1.42363 0.676048 0
M  V30 2389 C 237.907 -1.84649 0.275948 0
M  V30 2390 C 238.258 -1.56588 -1.18214 0
M  V30 2391 O 237.383 -1.02634 -1.90513 0
M  V30 2392 C 237.978 -3.35178 0.494053 0
M  V30 2393 C 236.537 -3.76109 0.148061 0
M  V30 2394 C 235.684 -2.65931 0.785891 0
M  V30 2395 H 238.635 -1.32192 0.878121 0
M  V30 2396 H 238.656 -3.79655 -0.25343 0
M  V30 2397 H 238.168 -3.55571 1.55535 0
M  V30 2398 H 236.269 -3.61323 -0.909742 0
M  V30 2399 H 236.382 -4.7546 0.589454 0
M  V30 2400 H 234.746 -2.53773 0.217113 0
M  V30 2401 H 235.529 -2.89146 1.85067 0
M  V30 2402 N 237.974 -0.419461 -1.51915 0
M  V30 2403 C 238.906 0.43646 -2.25006 0
M  V30 2404 C 239.919 1.00149 -1.28351 0
M  V30 2405 O 241.108 0.898674 -1.54227 0
M  V30 2406 C 238.208 1.6206 -2.9764 0
M  V30 2407 C 237.381 1.17763 -4.21249 0
M  V30 2408 C 236.44 2.22985 -4.76617 0
M  V30 2409 O 235.466 1.83151 -5.38929 0
M  V30 2410 N 236.668 3.55271 -4.59089 0
M  V30 2411 H 239.433 -0.18989 -2.99098 0
M  V30 2412 H 236.994 -0.247386 -1.59999 0
M  V30 2413 H 238.986 2.32038 -3.31573 0
M  V30 2414 H 237.556 2.15266 -2.2667 0
M  V30 2415 H 236.776 0.305582 -3.93014 0
M  V30 2416 H 238.064 0.858781 -5.015 0
M  V30 2417 H 237.462 3.90377 -4.09417 0
M  V30 2418 H 236.019 4.21195 -4.97432 0
M  V30 2419 N 239.452 1.56882 -0.150215 0
M  V30 2420 C 240.701 1.95403 0.500071 0
M  V30 2421 C 241.014 1.03777 1.658 0
M  V30 2422 O 242.22 1.31889 2.37313 0
M  V30 2423 C 240.676 3.4738 0.941018 0
M  V30 2424 C 240.284 4.47596 -0.190158 0
M  V30 2425 C 242.028 3.9476 1.56091 0
M  V30 2426 C 239.935 5.90787 0.269237 0
M  V30 2427 H 238.865 0.729515 0.190588 0
M  V30 2428 H 241.516 1.81988 -0.235074 0
M  V30 2429 H 239.898 3.56138 1.73152 0
M  V30 2430 H 241.072 4.50536 -0.967157 0
M  V30 2431 H 239.387 4.10151 -0.718666 0
M  V30 2432 H 241.984 4.99181 1.9163 0
M  V30 2433 H 242.327 3.36494 2.45107 0
M  V30 2434 H 242.86 3.88932 0.835249 0
M  V30 2435 H 239.599 6.52879 -0.585621 0
M  V30 2436 H 239.119 5.912 1.01204 0
M  V30 2437 H 240.798 6.42979 0.720176 0
M  V30 2438 N 240.93 -0.123565 1.57115 0
M  V30 2439 C 242.155 -0.850398 1.89164 0
M  V30 2440 C 242.58 -1.7286 0.741688 0
M  V30 2441 O 241.938 -1.78665 -0.307958 0
M  V30 2442 C 241.986 -1.66353 3.19936 0
M  V30 2443 O 241.09 -2.77004 3.0552 0
M  V30 2444 H 240.431 -0.235454 0.620852 0
M  V30 2445 H 242.961 -0.107335 2.04318 0
M  V30 2446 H 242.971 -2.05372 3.52543 0
M  V30 2447 H 241.646 -1.01881 4.03228 0
M  V30 2448 H 240.223 -2.41221 2.84371 0
M  V30 2449 N 242.408 -1.52605 -0.393616 0
M  V30 2450 C 243.638 -1.71046 -1.15874 0
M  V30 2451 C 244.046 -0.426483 -1.84331 0
M  V30 2452 O 243.389 0.608513 -1.73329 0
M  V30 2453 C 243.451 -2.80118 -2.25332 0
M  V30 2454 C 243.115 -4.21381 -1.76881 0
M  V30 2455 C 244.112 -5.04697 -1.24808 0
M  V30 2456 C 241.797 -4.67683 -1.83244 0
M  V30 2457 C 243.791 -6.32393 -0.797387 0
M  V30 2458 C 241.478 -5.95364 -1.37787 0
M  V30 2459 C 242.476 -6.77549 -0.861208 0
M  V30 2460 O 242.164 -8.02837 -0.413252 0
M  V30 2461 H 241.896 -0.576155 -0.353583 0
M  V30 2462 H 244.45 -2.00018 -0.467123 0
M  V30 2463 H 242.68 -2.46557 -2.97904 0
M  V30 2464 H 244.369 -2.87006 -2.87023 0
M  V30 2465 H 245.135 -4.70111 -1.19252 0
M  V30 2466 H 241.014 -4.03805 -2.22401 0
M  V30 2467 H 244.558 -6.9649 -0.393437 0
M  V30 2468 H 240.455 -6.29455 -1.43026 0
M  V30 2469 H 241.223 -8.16749 -0.53515 0
M  V30 2470 N 243.887 0.651787 -1.4349 0
M  V30 2471 C 244.85 1.74647 -1.48429 0
M  V30 2472 C 245.85 1.56513 -0.368817 0
M  V30 2473 O 247.04 1.62385 -0.630623 0
M  V30 2474 C 244.172 3.13533 -1.33827 0
M  V30 2475 H 245.365 1.71649 -2.4592 0
M  V30 2476 H 242.918 0.863573 -1.30277 0
M  V30 2477 H 243.653 3.22142 -0.37349 0
M  V30 2478 H 243.438 3.28101 -2.14691 0
M  V30 2479 H 244.928 3.93356 -1.40218 0
M  V30 2480 N 245.365 1.30045 0.890287 0
M  V30 2481 C 246.59 1.21598 1.68014 0
M  V30 2482 C 247.015 -0.218678 1.86825 0
M  V30 2483 O 246.373 -1.15756 1.39536 0
M  V30 2484 C 246.421 1.94434 3.03691 0
M  V30 2485 O 245.525 1.2678 3.92429 0
M  V30 2486 H 244.866 0.420856 0.513592 0
M  V30 2487 H 247.396 1.71775 1.11151 0
M  V30 2488 H 247.406 2.03251 3.5377 0
M  V30 2489 H 246.081 2.98777 2.89318 0
M  V30 2490 H 244.658 1.26282 3.50866 0
M  V30 2491 N 246.843 -1.10192 1.12674 0
M  V30 2492 C 248.071 -1.85983 0.906527 0
M  V30 2493 C 248.486 -1.80783 -0.544333 0
M  V30 2494 O 247.843 -1.19834 -1.37645 0
M  V30 2495 C 247.894 -3.34281 1.37618 0
M  V30 2496 O 247.615 -3.39401 2.77017 0
M  V30 2497 C 249.116 -4.26938 1.19325 0
M  V30 2498 H 246.336 -0.587716 0.323775 0
M  V30 2499 H 248.88 -1.39284 1.49734 0
M  V30 2500 H 247.035 -3.78436 0.828539 0
M  V30 2501 H 247.449 -4.31838 2.97684 0
M  V30 2502 H 248.923 -5.29181 1.57071 0
M  V30 2503 H 249.4 -4.38995 0.134097 0
M  V30 2504 H 250.006 -3.8859 1.72852 0
M  V30 2505 N 248.321 -0.919034 -1.28029 0
M  V30 2506 C 249.546 -0.570357 -1.99403 0
M  V30 2507 C 249.971 0.842486 -1.68178 0
M  V30 2508 O 249.329 1.56391 -0.917141 0
M  V30 2509 C 249.377 -0.792541 -3.51783 0
M  V30 2510 O 248.481 0.145988 -4.12142 0
M  V30 2511 H 247.822 -0.220555 -0.6263 0
M  V30 2512 H 250.352 -1.23592 -1.63053 0
M  V30 2513 H 250.362 -0.704708 -4.01868 0
M  V30 2514 H 249.037 -1.82247 -3.73844 0
M  V30 2515 H 247.614 0.00897528 -3.72899 0
M  V30 2516 N 249.799 1.42003 -0.683588 0
M  V30 2517 C 250.762 2.29191 -0.0198243 0
M  V30 2518 C 251.762 1.43773 0.72013 0
M  V30 2519 O 252.952 1.65061 0.556815 0
M  V30 2520 C 250.084 3.26435 0.982487 0
M  V30 2521 H 251.277 2.8938 -0.787345 0
M  V30 2522 H 248.83 1.49789 -0.446418 0
M  V30 2523 H 249.565 2.71203 1.77819 0
M  V30 2524 H 249.35 3.89449 0.455182 0
M  V30 2525 H 250.84 3.918 1.44508 0
M  V30 2526 N 251.277 0.427512 1.51691 0
M  V30 2527 C 252.224 -0.388867 2.275 0
M  V30 2528 C 253.194 -1.02532 1.30677 0
M  V30 2529 O 254.379 -1.0461 1.59566 0
M  V30 2530 C 251.519 -1.48954 3.11298 0
M  V30 2531 C 250.632 -0.872194 4.23104 0
M  V30 2532 C 249.767 -1.94709 4.94228 0
M  V30 2533 C 248.806 -1.30766 5.97969 0
M  V30 2534 N 247.943 -2.32349 6.62539 0
M  V30 2535 H 252.783 0.263997 2.96828 0
M  V30 2536 H 250.32 0.142033 1.46413 0
M  V30 2537 H 252.278 -2.13887 3.58201 0
M  V30 2538 H 250.908 -2.11217 2.44105 0
M  V30 2539 H 249.96 -0.111419 3.80237 0
M  V30 2540 H 251.272 -0.365264 4.97461 0
M  V30 2541 H 250.426 -2.67327 5.44629 0
M  V30 2542 H 249.165 -2.48773 4.1948 0
M  V30 2543 H 248.17 -0.566902 5.4687 0
M  V30 2544 H 249.395 -0.774483 6.74669 0
M  V30 2545 H 247.341 -2.85511 5.90609 0
M  V30 2546 H 247.258 -1.8652 7.3263 0
M  V30 2547 H 248.526 -3.04481 7.17574 0
M  V30 2548 N 252.755 -1.56801 0.158532 0
M  V30 2549 C 253.685 -2.20347 -0.772609 0
M  V30 2550 C 254.666 -1.15518 -1.24859 0
M  V30 2551 O 255.851 -1.43902 -1.30406 0
M  V30 2552 C 252.981 -2.83417 -2.00729 0
M  V30 2553 C 251.935 -3.94174 -1.66765 0
M  V30 2554 C 251.261 -4.44233 -2.97592 0
M  V30 2555 C 252.561 -5.14392 -0.905447 0
M  V30 2556 H 254.255 -2.98413 -0.242959 0
M  V30 2557 H 251.801 -1.43537 -0.115419 0
M  V30 2558 H 253.754 -3.26543 -2.6636 0
M  V30 2559 H 252.478 -2.02701 -2.56086 0
M  V30 2560 H 251.137 -3.51684 -1.03508 0
M  V30 2561 H 250.785 -3.60325 -3.50963 0
M  V30 2562 H 250.485 -5.18945 -2.75626 0
M  V30 2563 H 252.009 -4.90037 -3.64274 0
M  V30 2564 H 253.423 -5.5429 -1.46408 0
M  V30 2565 H 251.82 -5.9494 -0.7853 0
M  V30 2566 H 252.89 -4.84795 0.100668 0
M  V30 2567 N 254.233 0.115231 -1.57178 0
M  V30 2568 C 255.458 0.840354 -1.89612 0
M  V30 2569 C 255.883 1.72464 -0.750845 0
M  V30 2570 O 255.241 1.78826 0.298478 0
M  V30 2571 C 255.289 1.64654 -3.20814 0
M  V30 2572 O 254.393 2.7538 -3.06985 0
M  V30 2573 H 253.734 0.232158 -0.622092 0
M  V30 2574 H 256.264 0.0964977 -2.04372 0
M  V30 2575 H 256.274 2.03499 -3.53627 0
M  V30 2576 H 254.949 0.997416 -4.03763 0
M  V30 2577 H 253.526 2.3971 -2.85646 0
M  V30 2578 N 255.711 1.52812 0.385517 0
M  V30 2579 C 256.988 1.5861 1.14465 0
M  V30 2580 C 257.368 0.381402 2.07626 0
M  V30 2581 O 256.716 -0.629999 2.19643 0
M  V30 2582 C 256.926 2.92664 1.90128 0
M  V30 2583 C 258.274 3.46526 2.45367 0
M  V30 2584 O 259.298 2.94562 2.0028 0
M  V30 2585 O 258.157 4.37323 3.27736 0
M  V30 2586 H 255.251 0.639855 0.523941 0
M  V30 2587 H 257.797 1.65149 0.390389 0
M  V30 2588 H 256.569 3.71788 1.22022 0
M  V30 2589 H 256.192 2.89527 2.72507 0
M  V30 2590 N 257.189 -0.644168 1.43834 0
M  V30 2591 C 258.136 -1.75671 1.49694 0
M  V30 2592 C 259.106 -1.6246 0.345809 0
M  V30 2593 O 260.291 -1.82573 0.554234 0
M  V30 2594 C 257.431 -3.13867 1.43463 0
M  V30 2595 C 256.544 -3.38147 2.6885 0
M  V30 2596 C 255.679 -4.66241 2.54544 0
M  V30 2597 C 254.718 -4.83657 3.75157 0
M  V30 2598 N 253.855 -6.03016 3.59605 0
M  V30 2599 H 258.695 -1.69998 2.44754 0
M  V30 2600 H 256.232 -0.829458 1.21484 0
M  V30 2601 H 258.19 -3.9377 1.37843 0
M  V30 2602 H 256.82 -3.18588 0.519783 0
M  V30 2603 H 255.872 -2.52276 2.84712 0
M  V30 2604 H 257.184 -3.46899 3.58417 0
M  V30 2605 H 256.338 -5.54285 2.46683 0
M  V30 2606 H 255.077 -4.59826 1.62516 0
M  V30 2607 H 254.082 -3.94046 3.83416 0
M  V30 2608 H 255.307 -4.91896 4.68204 0
M  V30 2609 H 253.253 -5.97715 2.7032 0
M  V30 2610 H 253.17 -6.12766 4.42779 0
M  V30 2611 H 254.438 -6.93657 3.55613 0
M  V30 2612 N 258.668 -1.30515 -0.883378 0
M  V30 2613 C 259.893 -1.22487 -1.67367 0
M  V30 2614 C 260.318 0.208767 -1.86938 0
M  V30 2615 O 259.676 1.15015 -1.40148 0
M  V30 2616 C 259.724 -1.96041 -3.02655 0
M  V30 2617 O 258.828 -1.28859 -3.91751 0
M  V30 2618 H 258.169 -0.423573 -0.511353 0
M  V30 2619 H 260.699 -1.72362 -1.10239 0
M  V30 2620 H 260.709 -2.05124 -3.52687 0
M  V30 2621 H 259.384 -3.00307 -2.8773 0
M  V30 2622 H 257.961 -1.28141 -3.50192 0
M  V30 2623 N 260.146 1.09593 -1.13257 0
M  V30 2624 C 261.562 1.33775 -0.870423 0
M  V30 2625 C 261.762 1.95327 0.494926 0
M  V30 2626 O 260.818 2.19853 1.2418 0
M  V30 2627 C 262.131 2.25106 -1.99369 0
M  V30 2628 C 263.679 2.3862 -2.02558 0
M  V30 2629 C 264.154 3.33285 -3.14142 0
M  V30 2630 N 265.645 3.40857 -3.13641 0
M  V30 2631 C 266.38 4.14101 -3.96621 0
M  V30 2632 N 265.876 4.90157 -4.8961 0
M  V30 2633 N 267.669 4.09808 -3.84726 0
M  V30 2634 H 259.82 0.680136 -2.01216 0
M  V30 2635 H 262.083 0.362133 -0.876107 0
M  V30 2636 H 261.789 1.87103 -2.97801 0
M  V30 2637 H 261.663 3.25481 -1.90635 0
M  V30 2638 H 264.05 2.75887 -1.0474 0
M  V30 2639 H 264.131 1.38028 -2.15364 0
M  V30 2640 H 263.775 2.96741 -4.12198 0
M  V30 2641 H 263.705 4.33776 -2.98574 0
M  V30 2642 H 266.196 2.86624 -2.46282 0
M  V30 2643 H 266.509 5.4347 -5.49418 0
M  V30 2644 H 264.854 4.89251 -4.93617 0
M  V30 2645 H 268.045 3.4949 -3.11408 0
M  V30 2646 H 268.218 4.66629 -4.49623 0
M  V30 2647 N 261.624 0.925811 1.2754 0
M  V30 2648 C 262.854 0.580666 1.98272 0
M  V30 2649 C 263.262 -0.845207 1.69272 0
M  V30 2650 O 262.605 -1.57306 0.948707 0
M  V30 2651 C 262.667 0.724418 3.52126 0
M  V30 2652 C 262.331 2.12206 4.04744 0
M  V30 2653 C 263.328 3.09604 4.17662 0
M  V30 2654 C 261.013 2.4385 4.39138 0
M  V30 2655 C 263.007 4.36755 4.64246 0
M  V30 2656 C 260.694 3.71237 4.85414 0
M  V30 2657 C 261.692 4.67503 4.97926 0
M  V30 2658 O 261.38 5.92624 5.43187 0
M  V30 2659 H 261.112 0.218987 0.639547 0
M  V30 2660 H 263.666 1.24452 1.63404 0
M  V30 2661 H 261.896 0.0034663 3.867 0
M  V30 2662 H 263.585 0.384607 4.04074 0
M  V30 2663 H 264.351 2.86478 3.91351 0
M  V30 2664 H 260.23 1.69665 4.28643 0
M  V30 2665 H 263.774 5.11898 4.73927 0
M  V30 2666 H 259.671 3.94182 5.11166 0
M  V30 2667 H 260.439 5.95585 5.61445 0
M  V30 2668 N 263.102 -1.41638 0.69111 0
M  V30 2669 C 264.379 -1.95036 0.148421 0
M  V30 2670 C 264.759 -1.63072 -1.34055 0
M  V30 2671 O 264.107 -0.93538 -2.08478 0
M  V30 2672 C 264.317 -3.46279 0.434951 0
M  V30 2673 C 265.665 -4.23069 0.360275 0
M  V30 2674 O 266.689 -3.54277 0.369613 0
M  V30 2675 O 265.548 -5.45583 0.316534 0
M  V30 2676 H 262.642 -0.826908 0.0123654 0
M  V30 2677 H 265.188 -1.5138 0.766963 0
M  V30 2678 H 263.96 -3.6281 1.46576 0
M  V30 2679 H 263.583 -3.97019 -0.214787 0
M  V30 2680 N 264.58 -0.43555 -1.51462 0
M  V30 2681 C 265.81 0.130053 -2.0619 0
M  V30 2682 C 266.218 1.37164 -1.30317 0
M  V30 2683 O 265.561 1.80225 -0.355598 0
M  V30 2684 C 265.623 0.519418 -3.55728 0
M  V30 2685 C 265.287 -0.615119 -4.52841 0
M  V30 2686 C 266.284 -1.48671 -4.9819 0
M  V30 2687 C 263.969 -0.795341 -4.95963 0
M  V30 2688 C 265.963 -2.52324 -5.8533 0
M  V30 2689 C 263.65 -1.83514 -5.82894 0
M  V30 2690 C 264.648 -2.69748 -6.27475 0
M  V30 2691 O 264.336 -3.71944 -7.1268 0
M  V30 2692 H 264.068 0.0121612 -0.675891 0
M  V30 2693 H 266.622 -0.6129 -1.96043 0
M  V30 2694 H 264.852 1.31505 -3.63653 0
M  V30 2695 H 266.541 1.01597 -3.92979 0
M  V30 2696 H 267.307 -1.359 -4.65571 0
M  V30 2697 H 263.186 -0.133713 -4.60806 0
M  V30 2698 H 266.73 -3.19665 -6.20048 0
M  V30 2699 H 262.627 -1.96306 -6.14926 0
M  V30 2700 H 263.395 -3.68503 -7.30854 0
M  V30 2701 N 266.058 1.56714 -0.166846 0
M  V30 2702 C 267.305 1.96747 0.479252 0
M  V30 2703 C 267.633 1.05263 1.63554 0
M  V30 2704 O 266.888 0.0858098 1.95512 0
M  V30 2705 C 267.187 3.42889 1.00806 0
M  V30 2706 C 266.853 4.50889 -0.0318574 0
M  V30 2707 C 265.515 4.8015 -0.317675 0
M  V30 2708 C 267.867 5.15949 -0.737956 0
M  V30 2709 C 265.195 5.71772 -1.31506 0
M  V30 2710 C 267.547 6.08647 -1.72429 0
M  V30 2711 C 266.211 6.36277 -2.0176 0
M  V30 2712 H 265.481 0.719949 0.175371 0
M  V30 2713 H 268.128 1.89756 -0.257864 0
M  V30 2714 H 266.433 3.4681 1.82291 0
M  V30 2715 H 268.13 3.71203 1.51689 0
M  V30 2716 H 264.72 4.28128 0.201088 0
M  V30 2717 H 268.904 4.93458 -0.530351 0
M  V30 2718 H 264.16 5.91465 -1.54853 0
M  V30 2719 H 268.334 6.58129 -2.27682 0
M  V30 2720 H 265.961 7.07075 -2.79194 0
M  V30 2721 N 267.536 -0.106894 1.57237 0
M  V30 2722 C 268.499 -1.11466 2.0027 0
M  V30 2723 C 269.499 -1.33623 0.894519 0
M  V30 2724 O 270.689 -1.29935 1.16028 0
M  V30 2725 C 267.821 -2.46646 2.35327 0
M  V30 2726 H 269.014 -0.744516 2.90512 0
M  V30 2727 H 266.567 -0.351576 1.52295 0
M  V30 2728 H 267.302 -2.88558 1.48003 0
M  V30 2729 H 267.087 -2.31915 3.16161 0
M  V30 2730 H 268.577 -3.19151 2.69318 0
M  V30 2731 N 269.014 -1.53014 -0.377408 0
M  V30 2732 C 270.43 -1.42523 -0.718281 0
M  V30 2733 C 270.63 -0.55487 -1.9371 0
M  V30 2734 O 269.686 -0.0327593 -2.52479 0
M  V30 2735 C 270.999 -2.85546 -0.942539 0
M  V30 2736 C 272.547 -2.95101 -1.04329 0
M  V30 2737 C 273.022 -4.3916 -1.3001 0
M  V30 2738 N 274.513 -4.42536 -1.36806 0
M  V30 2739 C 275.248 -5.51097 -1.58364 0
M  V30 2740 N 274.744 -6.69724 -1.77317 0
M  V30 2741 N 276.537 -5.38657 -1.60638 0
M  V30 2742 H 268.688 -2.08116 0.424426 0
M  V30 2743 H 270.951 -0.939352 0.127759 0
M  V30 2744 H 270.657 -3.51499 -0.118929 0
M  V30 2745 H 270.531 -3.28493 -1.85397 0
M  V30 2746 H 272.918 -2.29309 -1.85745 0
M  V30 2747 H 272.999 -2.55566 -0.109505 0
M  V30 2748 H 272.643 -5.05521 -0.490991 0
M  V30 2749 H 272.573 -4.76258 -2.24691 0
M  V30 2750 H 275.064 -3.57039 -1.23821 0
M  V30 2751 H 275.377 -7.48233 -1.93306 0
M  V30 2752 H 273.722 -6.72732 -1.74518 0
M  V30 2753 H 276.913 -4.44948 -1.45391 0
M  V30 2754 H 277.086 -6.2333 -1.77098 0
M  V30 2755 N 270.492 0.636531 -1.44174 0
M  V30 2756 C 271.72 1.42353 -1.50144 0
M  V30 2757 C 272.135 1.88389 -0.124575 0
M  V30 2758 O 271.492 1.6051 0.868489 0
M  V30 2759 C 271.543 2.64744 -2.46156 0
M  V30 2760 O 271.264 2.20629 -3.7849 0
M  V30 2761 C 272.765 3.57929 -2.61537 0
M  V30 2762 H 269.985 0.436752 -0.5094 0
M  V30 2763 H 272.529 0.778933 -1.89084 0
M  V30 2764 H 270.684 3.25307 -2.10366 0
M  V30 2765 H 271.098 2.99938 -4.30276 0
M  V30 2766 H 272.572 4.40428 -3.32757 0
M  V30 2767 H 273.049 4.06382 -1.66585 0
M  V30 2768 H 273.655 3.03238 -2.98206 0
M  V30 2769 N 271.97 1.30982 0.876444 0
M  V30 2770 C 273.216 1.20474 1.63138 0
M  V30 2771 C 273.549 -0.238096 1.92735 0
M  V30 2772 O 272.824 -1.1692 1.55435 0
M  V30 2773 C 273.107 2.04244 2.96574 0
M  V30 2774 C 272.96 3.56793 2.73896 0
M  V30 2775 C 274.279 1.88684 3.97601 0
M  V30 2776 H 271.398 0.439001 0.591985 0
M  V30 2777 H 274.04 1.60704 1.01361 0
M  V30 2778 H 272.19 1.70063 3.493 0
M  V30 2779 H 273.862 4.01077 2.27892 0
M  V30 2780 H 272.105 3.80548 2.08245 0
M  V30 2781 H 272.776 4.10706 3.68815 0
M  V30 2782 H 275.252 2.18584 3.54062 0
M  V30 2783 H 274.128 2.4961 4.88862 0
M  V30 2784 H 274.389 0.848343 4.33884 0
M  V30 2785 N 273.449 -1.08991 1.13837 0
M  V30 2786 C 274.86 -1.62746 0.914917 0
M  V30 2787 C 275.211 -1.88403 -0.547594 0
M  V30 2788 O 274.336 -1.63706 -1.41525 0
M  V30 2789 C 274.931 -2.95662 1.65437 0
M  V30 2790 C 273.49 -3.46225 1.47666 0
M  V30 2791 C 272.637 -2.20562 1.6807 0
M  V30 2792 H 275.588 -0.922946 1.29102 0
M  V30 2793 H 275.609 -3.63825 1.11407 0
M  V30 2794 H 275.121 -2.76956 2.71877 0
M  V30 2795 H 273.222 -3.70046 0.435478 0
M  V30 2796 H 273.335 -4.23368 2.24268 0
M  V30 2797 H 271.699 -2.29439 1.10589 0
M  V30 2798 H 272.482 -2.0437 2.7584 0
M  V30 2799 N 274.927 -0.932562 -1.27047 0
M  V30 2800 C 276.338 -0.619451 -1.76124 0
M  V30 2801 C 276.689 0.865397 -1.76083 0
M  V30 2802 O 275.814 1.67722 -1.36742 0
M  V30 2803 C 276.409 -1.11771 -3.19832 0
M  V30 2804 C 274.968 -0.855174 -3.66557 0
M  V30 2805 C 274.115 -1.27362 -2.46321 0
M  V30 2806 H 277.066 -1.11181 -1.13245 0
M  V30 2807 H 277.087 -0.46759 -3.77616 0
M  V30 2808 H 276.599 -2.19842 -3.1983 0
M  V30 2809 H 274.7 0.211524 -3.71999 0
M  V30 2810 H 274.813 -1.47613 -4.55793 0
M  V30 2811 H 273.177 -0.692119 -2.45116 0
M  V30 2812 H 273.96 -2.36307 -2.49025 0
M  V30 2813 N 276.405 1.4127 -0.698611 0
M  V30 2814 C 277.682 1.94955 -0.158762 0
M  V30 2815 C 278.062 1.63781 1.33188 0
M  V30 2816 O 277.41 0.946423 2.07979 0
M  V30 2817 C 277.62 3.46044 -0.453309 0
M  V30 2818 C 278.968 4.22872 -0.382707 0
M  V30 2819 O 279.992 3.54076 -0.388396 0
M  V30 2820 O 278.851 5.45407 -0.345463 0
M  V30 2821 H 275.945 0.82683 -0.0167505 0
M  V30 2822 H 278.491 1.50971 -0.77498 0
M  V30 2823 H 277.263 3.62028 -1.48498 0
M  V30 2824 H 276.886 3.97128 0.19373 0
M  V30 2825 N 277.883 0.443576 1.51229 0
M  V30 2826 C 279.13 -0.120796 2.02139 0
M  V30 2827 C 279.458 -1.42166 1.32736 0
M  V30 2828 O 278.713 -1.90849 0.43301 0
M  V30 2829 C 279.012 -0.380579 3.55368 0
M  V30 2830 C 278.678 0.83523 4.43097 0
M  V30 2831 C 277.34 1.16864 4.66794 0
M  V30 2832 C 279.692 1.64601 4.94526 0
M  V30 2833 C 277.02 2.31339 5.39165 0
M  V30 2834 C 279.372 2.78181 5.68153 0
M  V30 2835 C 278.036 3.11969 5.90112 0
M  V30 2836 H 277.306 -0.0442023 0.73968 0
M  V30 2837 H 279.953 0.592046 1.82118 0
M  V30 2838 H 278.258 -1.17538 3.73754 0
M  V30 2839 H 279.955 -0.830777 3.923 0
M  V30 2840 H 276.545 0.565437 4.24854 0
M  V30 2841 H 280.729 1.40163 4.76097 0
M  V30 2842 H 275.985 2.57823 5.5438 0
M  V30 2843 H 280.159 3.41371 6.06992 0
M  V30 2844 H 277.786 4.00784 6.45969 0
M  V30 2845 N 279.361 -1.56624 0.175154 0
M  V30 2846 C 280.608 -1.96999 -0.468811 0
M  V30 2847 C 280.936 -1.06129 -1.62994 0
M  V30 2848 O 280.191 -0.0961771 -1.95464 0
M  V30 2849 C 280.49 -3.43419 -0.989864 0
M  V30 2850 C 280.156 -4.50866 0.0557687 0
M  V30 2851 C 278.818 -4.79975 0.343134 0
M  V30 2852 C 281.17 -5.15551 0.765308 0
M  V30 2853 C 278.498 -5.71066 1.34536 0
M  V30 2854 C 280.85 -6.07724 1.75654 0
M  V30 2855 C 279.514 -6.35199 2.05132 0
M  V30 2856 H 278.784 -0.720869 -0.17155 0
M  V30 2857 H 281.431 -1.89616 0.267924 0
M  V30 2858 H 279.736 -3.47772 -1.80449 0
M  V30 2859 H 281.433 -3.72002 -1.49719 0
M  V30 2860 H 278.023 -4.28229 -0.178381 0
M  V30 2861 H 282.207 -4.9317 0.556513 0
M  V30 2862 H 277.463 -5.90635 1.57988 0
M  V30 2863 H 281.637 -6.56912 2.31169 0
M  V30 2864 H 279.264 -7.05584 2.8294 0
M  V30 2865 N 280.839 0.0985539 -1.57292 0
M  V30 2866 C 281.771 1.14595 -1.98496 0
M  V30 2867 C 282.784 1.36512 -0.887031 0
M  V30 2868 O 283.973 1.35225 -1.16518 0
M  V30 2869 C 281.073 2.50216 -2.28572 0
M  V30 2870 C 280.246 2.48624 -3.59868 0
M  V30 2871 C 279.305 3.66146 -3.7792 0
M  V30 2872 O 278.331 3.48795 -4.49812 0
M  V30 2873 N 279.533 4.85496 -3.18235 0
M  V30 2874 H 282.298 0.795277 -2.88956 0
M  V30 2875 H 279.859 0.287579 -1.59325 0
M  V30 2876 H 281.851 3.27432 -2.37845 0
M  V30 2877 H 280.421 2.77387 -1.44136 0
M  V30 2878 H 279.641 1.56978 -3.61596 0
M  V30 2879 H 280.929 2.44635 -4.46129 0
M  V30 2880 H 280.327 5.02497 -2.59833 0
M  V30 2881 H 278.884 5.60317 -3.32999 0
M  V30 2882 N 282.317 1.53212 0.369288 0
M  V30 2883 C 283.28 1.7872 1.43498 0
M  V30 2884 C 284.28 0.657554 1.46741 0
M  V30 2885 O 285.47 0.925736 1.47566 0
M  V30 2886 C 282.602 1.90591 2.82645 0
M  V30 2887 H 283.795 2.73894 1.22156 0
M  V30 2888 H 281.348 1.44233 0.602203 0
M  V30 2889 H 282.083 0.974709 3.09306 0
M  V30 2890 H 281.868 2.72751 2.8169 0
M  V30 2891 H 283.358 2.11931 3.59826 0
M  V30 2892 N 283.795 -0.628877 1.44509 0
M  V30 2893 C 284.742 -1.74074 1.51549 0
M  V30 2894 C 285.712 -1.62084 0.363021 0
M  V30 2895 O 286.897 -1.81975 0.573567 0
M  V30 2896 C 284.037 -3.12328 1.46784 0
M  V30 2897 C 283.15 -3.35277 2.72422 0
M  V30 2898 C 282.285 -4.63515 2.59475 0
M  V30 2899 C 281.324 -4.7965 3.80266 0
M  V30 2900 N 280.461 -5.99168 3.65981 0
M  V30 2901 H 285.301 -1.67392 2.46544 0
M  V30 2902 H 282.838 -0.816527 1.22357 0
M  V30 2903 H 284.796 -3.92286 1.42012 0
M  V30 2904 H 283.426 -3.18018 0.553544 0
M  V30 2905 H 282.478 -2.49242 2.87372 0
M  V30 2906 H 283.79 -3.43078 3.62076 0
M  V30 2907 H 282.944 -5.51638 2.52548 0
M  V30 2908 H 281.683 -4.58076 1.67384 0
M  V30 2909 H 280.688 -3.89957 3.87574 0
M  V30 2910 H 281.913 -4.86902 4.73395 0
M  V30 2911 H 279.859 -5.94814 2.76644 0
M  V30 2912 H 279.776 -6.08035 4.49254 0
M  V30 2913 H 281.044 -6.89846 3.6295 0
M  V30 2914 N 285.273 -1.31445 -0.869486 0
M  V30 2915 C 286.236 -1.19094 -1.9583 0
M  V30 2916 C 287.236 -0.117906 -1.60367 0
M  V30 2917 O 288.426 -0.367208 -1.70286 0
M  V30 2918 C 285.558 -0.828165 -3.30688 0
M  V30 2919 H 286.751 -2.15842 -2.08212 0
M  V30 2920 H 284.304 -1.15063 -1.05784 0
M  V30 2921 H 285.039 0.138142 -3.24006 0
M  V30 2922 H 284.824 -1.6038 -3.578 0
M  V30 2923 H 286.314 -0.765658 -4.10521 0
M  V30 2924 N 286.751 1.08385 -1.14413 0
M  V30 2925 C 287.684 2.14642 -0.774871 0
M  V30 2926 C 288.662 1.60761 0.243876 0
M  V30 2927 O 289.846 1.88031 0.132883 0
M  V30 2928 C 286.973 3.38366 -0.150491 0
M  V30 2929 C 286.019 4.10997 -1.13945 0
M  V30 2930 S 286.852 4.63797 -2.67679 0
M  V30 2931 C 288.008 5.90808 -2.06631 0
M  V30 2932 H 288.241 2.45633 -1.67487 0
M  V30 2933 H 285.774 1.20498 -0.96538 0
M  V30 2934 H 287.732 4.09996 0.203334 0
M  V30 2935 H 286.393 3.05572 0.72694 0
M  V30 2936 H 285.586 4.99783 -0.65059 0
M  V30 2937 H 285.188 3.4528 -1.43727 0
M  V30 2938 H 287.48 6.62411 -1.4219 0
M  V30 2939 H 288.423 6.4439 -2.93542 0
M  V30 2940 H 288.831 5.4383 -1.51357 0
M  V30 2941 N 288.23 0.939286 1.26551 0
M  V30 2942 C 289.193 0.451987 2.24699 0
M  V30 2943 C 290.193 -0.435869 1.5478 0
M  V30 2944 O 291.383 -0.235314 1.72603 0
M  V30 2945 C 288.515 -0.348801 3.39111 0
M  V30 2946 H 289.708 1.3193 2.69322 0
M  V30 2947 H 287.261 0.721072 1.38673 0
M  V30 2948 H 287.996 -1.23444 2.99887 0
M  V30 2949 H 287.781 0.287945 3.91041 0
M  V30 2950 H 289.271 -0.679726 4.12031 0
M  V30 2951 N 289.708 -1.40897 0.706093 0
M  V30 2952 C 290.618 -2.3455 0.0482286 0
M  V30 2953 C 291.634 -1.56796 -0.754396 0
M  V30 2954 O 292.81 -1.89228 -0.689538 0
M  V30 2955 C 289.875 -3.35625 -0.869303 0
M  V30 2956 C 288.936 -4.29261 -0.0576994 0
M  V30 2957 C 288.169 -5.25508 -0.931531 0
M  V30 2958 O 288.392 -5.27472 -2.17092 0
M  V30 2959 O 287.326 -6.00727 -0.375587 0
M  V30 2960 H 291.152 -2.92407 0.820476 0
M  V30 2961 H 288.737 -1.4193 0.4665 0
M  V30 2962 H 290.619 -3.97635 -1.39514 0
M  V30 2963 H 289.294 -2.80196 -1.62086 0
M  V30 2964 H 288.201 -3.70566 0.512988 0
M  V30 2965 H 289.534 -4.87817 0.655426 0
M  V30 2966 N 291.186 -0.45159 -1.50991 0
M  V30 2967 C 292.435 0.111653 -2.01391 0
M  V30 2968 C 292.748 1.42529 -1.33959 0
M  V30 2969 O 293.954 2.07232 -1.75405 0
M  V30 2970 C 292.41 0.249514 -3.59034 0
M  V30 2971 C 292.018 -1.05453 -4.35412 0
M  V30 2972 C 293.762 0.765762 -4.17536 0
M  V30 2973 C 291.669 -0.881529 -5.84793 0
M  V30 2974 H 290.599 0.0455022 -0.752626 0
M  V30 2975 H 293.25 -0.583524 -1.73975 0
M  V30 2976 H 291.632 1.00803 -3.82955 0
M  V30 2977 H 292.806 -1.82248 -4.23229 0
M  V30 2978 H 291.121 -1.50039 -3.88429 0
M  V30 2979 H 293.718 0.911913 -5.26866 0
M  V30 2980 H 294.061 1.75201 -3.77638 0
M  V30 2981 H 294.594 0.0651744 -3.97747 0
M  V30 2982 H 291.333 -1.84057 -6.29129 0
M  V30 2983 H 290.853 -0.153625 -5.99603 0
M  V30 2984 H 292.532 -0.540363 -6.4474 0
M  V30 2985 N 292.664 1.56529 -0.183458 0
M  V30 2986 C 293.594 2.21549 0.737456 0
M  V30 2987 C 294.575 1.17489 1.23005 0
M  V30 2988 O 295.76 1.45959 1.281 0
M  V30 2989 C 292.89 2.86575 1.96194 0
M  V30 2990 C 291.844 3.96778 1.60473 0
M  V30 2991 C 291.17 4.48911 2.90487 0
M  V30 2992 C 292.47 5.15767 0.823497 0
M  V30 2993 H 294.164 2.98761 0.195453 0
M  V30 2994 H 291.71 1.43702 0.0925686 0
M  V30 2995 H 293.663 3.30739 2.61131 0
M  V30 2996 H 292.387 2.06749 2.52828 0
M  V30 2997 H 291.046 3.53286 0.978997 0
M  V30 2998 H 290.694 3.65862 3.45186 0
M  V30 2999 H 290.394 5.23265 2.67335 0
M  V30 3000 H 291.918 4.95771 3.56432 0
M  V30 3001 H 293.332 5.56549 1.37571 0
M  V30 3002 H 291.729 5.96114 0.690551 0
M  V30 3003 H 292.799 4.84574 -0.177782 0
M  V30 3004 N 294.142 -0.090211 1.57342 0
M  V30 3005 C 295.558 -0.444547 1.53284 0
M  V30 3006 C 295.758 -1.80238 0.900914 0
M  V30 3007 O 294.814 -2.4759 0.495513 0
M  V30 3008 C 296.127 -0.402543 2.97993 0
M  V30 3009 C 297.675 -0.48405 3.09234 0
M  V30 3010 C 298.15 -0.472144 4.5556 0
M  V30 3011 N 299.641 -0.532757 4.60126 0
M  V30 3012 C 300.376 -0.545462 5.708 0
M  V30 3013 N 299.872 -0.514082 6.9089 0
M  V30 3014 N 301.665 -0.59064 5.58988 0
M  V30 3015 H 293.816 0.799121 1.96794 0
M  V30 3016 H 296.079 0.297965 0.899956 0
M  V30 3017 H 295.785 0.528106 3.47712 0
M  V30 3018 H 295.659 -1.21969 3.56936 0
M  V30 3019 H 298.046 -1.40512 2.595 0
M  V30 3020 H 298.127 0.361328 2.53235 0
M  V30 3021 H 297.771 0.445 5.05947 0
M  V30 3022 H 297.701 -1.3348 5.09402 0
M  V30 3023 H 300.192 -0.562006 3.73698 0
M  V30 3024 H 300.505 -0.527195 7.71 0
M  V30 3025 H 298.85 -0.481054 6.93333 0
M  V30 3026 H 302.041 -0.61272 4.64073 0
M  V30 3027 H 302.214 -0.597073 6.45243 0
M  V30 3028 N 295.62 -1.53406 -0.361157 0
M  V30 3029 C 296.867 -1.69802 -1.10333 0
M  V30 3030 C 297.195 -0.452087 -1.89173 0
M  V30 3031 O 296.45 0.566017 -1.87336 0
M  V30 3032 C 296.749 -2.90211 -2.08596 0
M  V30 3033 C 296.415 -4.26539 -1.46203 0
M  V30 3034 C 295.077 -4.6361 -1.28915 0
M  V30 3035 C 297.429 -5.113 -1.01101 0
M  V30 3036 C 294.757 -5.83075 -0.651157 0
M  V30 3037 C 297.109 -6.31415 -0.387007 0
M  V30 3038 C 295.773 -6.67195 -0.201657 0
M  V30 3039 H 295.043 -0.621351 -0.403737 0
M  V30 3040 H 297.69 -1.87598 -0.384609 0
M  V30 3041 H 295.995 -2.66946 -2.86788 0
M  V30 3042 H 297.692 -3.00091 -2.65982 0
M  V30 3043 H 294.282 -3.97352 -1.60653 0
M  V30 3044 H 298.466 -4.83206 -1.13249 0
M  V30 3045 H 293.722 -6.09385 -0.496006 0
M  V30 3046 H 297.896 -6.96394 -0.0293563 0
M  V30 3047 H 295.523 -7.59628 0.294766 0
M  V30 3048 N 297.098 0.621204 -1.44841 0
M  V30 3049 C 298.345 1.38055 -1.48145 0
M  V30 3050 C 298.673 1.94143 -0.117867 0
M  V30 3051 O 297.928 1.74713 0.881694 0
M  V30 3052 C 298.227 2.55675 -2.4973 0
M  V30 3053 C 297.893 2.17817 -3.94799 0
M  V30 3054 C 296.555 2.07205 -4.34303 0
M  V30 3055 C 298.907 1.88065 -4.86087 0
M  V30 3056 C 296.235 1.65045 -5.63007 0
M  V30 3057 C 298.587 1.47394 -6.15189 0
M  V30 3058 C 297.251 1.35331 -6.53637 0
M  V30 3059 H 296.521 0.505181 -0.542101 0
M  V30 3060 H 299.168 0.703477 -1.78111 0
M  V30 3061 H 297.473 3.2866 -2.13284 0
M  V30 3062 H 299.17 3.13904 -2.4953 0
M  V30 3063 H 295.76 2.26998 -3.63552 0
M  V30 3064 H 299.944 1.95168 -4.56315 0
M  V30 3065 H 295.2 1.54317 -5.91605 0
M  V30 3066 H 299.374 1.23415 -6.85377 0
M  V30 3067 H 297.001 1.02435 -7.53267 0
M  V30 3068 N 298.576 1.31904 0.862503 0
M  V30 3069 C 299.524 1.20125 1.9918 0
M  V30 3070 C 300.518 0.107824 1.69056 0
M  V30 3071 O 301.724 0.270223 1.7796 0
M  V30 3072 H 298.099 0.372148 0.65346 0
M  V30 3073 H 300.07 2.15652 2.06244 0
M  V30 3074 C 298.819 0.933099 3.34946 0
M  V30 3075 H 298.142 1.76664 3.5865 0
M  V30 3076 H 299.582 0.890892 4.14535 0
M  V30 3077 C 298.041 -0.364172 3.34926 0
M  V30 3078 O 298.571 -1.37858 3.77304 0
M  V30 3079 N 296.777 -0.383362 2.8806 0
M  V30 3080 H 296.324 0.442651 2.53768 0
M  V30 3081 H 296.282 -1.25123 2.8843 0
M  V30 3082 N 300.054 -1.07777 1.14986 0
M  V30 3083 C 301.3 -1.80719 0.93339 0
M  V30 3084 C 301.655 -1.8484 -0.534019 0
M  V30 3085 O 300.948 -1.31795 -1.3907 0
M  V30 3086 C 301.142 -3.25495 1.47608 0
M  V30 3087 C 300.971 -3.3548 2.99472 0
M  V30 3088 C 299.741 -3.46293 3.6798 0
M  V30 3089 C 301.939 -3.26596 3.97291 0
M  V30 3090 N 299.921 -3.45136 5.07695 0
M  V30 3091 C 301.292 -3.32506 5.23297 0
M  V30 3092 C 303.347 -3.10376 3.89321 0
M  V30 3093 C 302.05 -3.23866 6.42264 0
M  V30 3094 C 304.076 -3.03069 5.07842 0
M  V30 3095 C 303.438 -3.09587 6.32721 0
M  V30 3096 H 299.537 -0.674814 0.395158 0
M  V30 3097 H 302.121 -1.28681 1.46114 0
M  V30 3098 H 300.292 -3.75963 0.975022 0
M  V30 3099 H 302.024 -3.86535 1.19887 0
M  V30 3100 H 298.779 -3.50456 3.18555 0
M  V30 3101 H 299.203 -3.48097 5.80653 0
M  V30 3102 H 303.845 -3.04194 2.93642 0
M  V30 3103 H 301.563 -3.28807 7.38181 0
M  V30 3104 H 305.149 -2.91629 5.03432 0
M  V30 3105 H 304.029 -3.0397 7.22891 0
M  V30 3106 N 301.532 -0.945985 -1.26051 0
M  V30 3107 C 302.76 -0.613025 -1.9761 0
M  V30 3108 C 303.175 0.813035 -1.70397 0
M  V30 3109 O 302.532 1.54274 -0.974979 0
M  V30 3110 C 302.583 -0.85159 -3.51326 0
M  V30 3111 O 302.304 -2.22157 -3.77595 0
M  V30 3112 C 303.805 -0.529831 -4.40122 0
M  V30 3113 H 301.025 -0.230593 -0.630133 0
M  V30 3114 H 303.569 -1.268 -1.60443 0
M  V30 3115 H 301.724 -0.243151 -3.86636 0
M  V30 3116 H 302.138 -2.2852 -4.721 0
M  V30 3117 H 303.612 -0.747348 -5.46917 0
M  V30 3118 H 304.089 0.535341 -4.35925 0
M  V30 3119 H 304.695 -1.11721 -4.10364 0
M  V30 3120 N 303.011 1.40521 -0.713556 0
M  V30 3121 C 304.241 2.0494 -0.261395 0
M  V30 3122 C 304.649 1.53861 1.10107 0
M  V30 3123 O 303.992 0.689321 1.70276 0
M  V30 3124 C 304.054 3.59138 -0.161227 0
M  V30 3125 C 303.718 4.33096 -1.45865 0
M  V30 3126 C 304.715 4.61182 -2.40016 0
M  V30 3127 C 302.4 4.72043 -1.71701 0
M  V30 3128 C 304.394 5.27196 -3.58251 0
M  V30 3129 C 302.081 5.37789 -2.90218 0
M  V30 3130 C 303.079 5.65295 -3.83315 0
M  V30 3131 O 302.767 6.29683 -4.99754 0
M  V30 3132 H 302.499 0.666041 -0.115608 0
M  V30 3133 H 305.053 1.80954 -0.971849 0
M  V30 3134 H 303.283 3.81936 0.605153 0
M  V30 3135 H 304.972 4.05091 0.256105 0
M  V30 3136 H 305.738 4.31559 -2.21318 0
M  V30 3137 H 301.617 4.50003 -1.00092 0
M  V30 3138 H 305.161 5.48582 -4.30934 0
M  V30 3139 H 301.058 5.66831 -3.08825 0
M  V30 3140 H 301.826 6.4818 -4.99805 0
M  V30 3141 N 304.489 0.459591 1.5075 0
M  V30 3142 C 305.735 -0.0994966 2.02556 0
M  V30 3143 C 306.068 -1.40399 1.3417 0
M  V30 3144 O 305.343 -1.88892 0.463683 0
M  V30 3145 C 305.626 -0.295242 3.58888 0
M  V30 3146 C 305.479 1.02947 4.37861 0
M  V30 3147 C 306.798 -1.05502 4.27267 0
M  V30 3148 H 303.917 -0.034686 0.736183 0
M  V30 3149 H 306.559 0.602938 1.8018 0
M  V30 3150 H 304.709 -0.893563 3.78084 0
M  V30 3151 H 306.381 1.66348 4.30263 0
M  V30 3152 H 304.624 1.62885 4.02058 0
M  V30 3153 H 305.295 0.846281 5.45474 0
M  V30 3154 H 307.771 -0.547993 4.12476 0
M  V30 3155 H 306.647 -1.16077 5.36486 0
M  V30 3156 H 306.908 -2.08875 3.89645 0
M  V30 3157 N 305.967 -1.56429 0.191757 0
M  V30 3158 C 307.192 -2.02309 -0.456706 0
M  V30 3159 C 307.617 -1.07103 -1.5463 0
M  V30 3160 O 306.975 -0.0539677 -1.8122 0
M  V30 3161 C 307.023 -3.46654 -0.993159 0
M  V30 3162 O 306.127 -3.54559 -2.10622 0
M  V30 3163 H 305.468 -0.655303 -0.107114 0
M  V30 3164 H 307.998 -2.02364 0.301653 0
M  V30 3165 H 308.008 -3.86377 -1.31061 0
M  V30 3166 H 306.683 -4.1544 -0.195504 0
M  V30 3167 H 305.26 -3.26708 -1.79767 0
M  V30 3168 N 307.445 0.0818655 -1.57387 0
M  V30 3169 C 308.673 0.796108 -1.9097 0
M  V30 3170 C 309.088 1.71626 -0.786757 0
M  V30 3171 O 308.445 1.80908 0.240513 0
M  V30 3172 C 308.496 1.59829 -3.24248 0
M  V30 3173 O 308.217 0.715131 -4.32224 0
M  V30 3174 C 309.718 2.41442 -3.7178 0
M  V30 3175 H 306.938 0.22691 -0.631469 0
M  V30 3176 H 309.482 0.0551439 -2.04426 0
M  V30 3177 H 307.637 2.29163 -3.12351 0
M  V30 3178 H 308.051 1.27205 -5.08841 0
M  V30 3179 H 309.525 2.932 -4.67694 0
M  V30 3180 H 310.002 3.2051 -3.00283 0
M  V30 3181 H 310.608 1.77283 -3.86589 0
M  V30 3182 N 308.923 1.53595 0.353017 0
M  V30 3183 C 310.169 1.70638 1.09593 0
M  V30 3184 C 310.502 0.463286 1.88593 0
M  V30 3185 O 309.777 -0.539597 1.86865 0
M  V30 3186 C 310.06 2.96406 2.04489 0
M  V30 3187 C 309.913 4.30901 1.29014 0
M  V30 3188 C 311.232 3.17812 3.0444 0
M  V30 3189 H 308.351 0.620913 0.397034 0
M  V30 3190 H 310.993 1.86254 0.375446 0
M  V30 3191 H 309.143 2.83223 2.65927 0
M  V30 3192 H 310.815 4.55917 0.702638 0
M  V30 3193 H 309.058 4.29741 0.592071 0
M  V30 3194 H 309.729 5.1506 1.98537 0
M  V30 3195 H 312.205 3.30263 2.53112 0
M  V30 3196 H 311.081 4.07223 3.6805 0
M  V30 3197 H 311.342 2.33669 3.75301 0
M  V30 3198 N 310.401 -0.613514 1.45168 0
M  V30 3199 C 311.364 -1.7065 1.53007 0
M  V30 3200 C 312.364 -1.5548 0.410184 0
M  V30 3201 O 313.554 -1.60656 0.673455 0
M  V30 3202 C 310.686 -3.09875 1.42093 0
M  V30 3203 H 311.879 -1.65068 2.50385 0
M  V30 3204 H 309.432 -0.828728 1.32521 0
M  V30 3205 H 310.167 -3.21039 0.458769 0
M  V30 3206 H 309.952 -3.22293 2.23315 0
M  V30 3207 H 311.442 -3.895 1.50598 0
M  V30 3208 N 311.879 -1.3236 -0.855495 0
M  V30 3209 C 313.104 -1.2601 -1.64731 0
M  V30 3210 C 313.529 0.169068 -1.87339 0
M  V30 3211 O 312.887 1.12016 -1.42556 0
M  V30 3212 C 312.935 -2.02417 -2.98429 0
M  V30 3213 O 312.039 -1.3714 -3.8893 0
M  V30 3214 H 311.38 -0.434325 -0.502253 0
M  V30 3215 H 313.91 -1.74661 -1.06558 0
M  V30 3216 H 313.92 -2.12559 -3.48257 0
M  V30 3217 H 312.595 -3.06343 -2.81295 0
M  V30 3218 H 311.172 -1.3554 -3.47395 0
M  V30 3219 N 313.357 1.07166 -1.15556 0
M  V30 3220 C 314.267 2.17947 -0.868116 0
M  V30 3221 C 315.283 1.73297 0.156297 0
M  V30 3222 O 316.459 2.01392 -0.0182327 0
M  V30 3223 C 313.524 3.44789 -0.36355 0
M  V30 3224 C 312.585 4.03996 -1.45209 0
M  V30 3225 C 311.818 5.24783 -0.971508 0
M  V30 3226 O 312.041 5.70109 0.182194 0
M  V30 3227 O 310.975 5.75715 -1.75603 0
M  V30 3228 H 314.801 2.4503 -1.79427 0
M  V30 3229 H 312.386 1.16539 -0.934824 0
M  V30 3230 H 314.268 4.21307 -0.0887113 0
M  V30 3231 H 312.943 3.19253 0.534708 0
M  V30 3232 H 311.85 3.29009 -1.78056 0
M  V30 3233 H 313.183 4.33808 -2.32533 0
M  V30 3234 N 314.835 0.952656 1.25548 0
M  V30 3235 C 316.083 0.605176 1.92826 0
M  V30 3236 C 316.404 -0.860261 1.74999 0
M  V30 3237 O 315.674 -1.6125 1.11244 0
M  V30 3238 H 314.254 0.220832 0.713612 0
M  V30 3239 H 316.916 1.21047 1.52754 0
M  V30 3240 H 316.012 0.832798 3.00784 0
M  V30 3241 N 316.313 -1.40141 0.720998 0
M  V30 3242 C 317.59 -1.94677 0.189757 0
M  V30 3243 C 317.97 -1.65879 -1.30566 0
M  V30 3244 O 317.318 -0.979391 -2.06447 0
M  V30 3245 C 317.528 -3.45279 0.508304 0
M  V30 3246 C 318.876 -4.22209 0.449934 0
M  V30 3247 O 319.9 -3.53413 0.444677 0
M  V30 3248 O 318.759 -5.44788 0.432189 0
M  V30 3249 H 315.853 -0.826459 0.0299026 0
M  V30 3250 H 318.399 -1.49719 0.7989 0
M  V30 3251 H 317.171 -3.59619 1.54239 0
M  V30 3252 H 316.794 -3.97386 -0.130525 0
M  V30 3253 N 317.792 -0.46758 -1.50504 0
M  V30 3254 C 319.022 0.086288 -2.0642 0
M  V30 3255 C 319.43 1.34369 -1.33197 0
M  V30 3256 O 318.773 1.79431 -0.393747 0
M  V30 3257 C 318.835 0.443846 -3.5675 0
M  V30 3258 C 318.499 -0.711035 -4.51435 0
M  V30 3259 C 319.496 -1.59205 -4.94924 0
M  V30 3260 C 317.181 -0.900363 -4.94165 0
M  V30 3261 C 319.175 -2.64683 -5.79846 0
M  V30 3262 C 316.862 -1.95837 -5.7887 0
M  V30 3263 C 317.86 -2.82997 -6.21612 0
M  V30 3264 O 317.548 -3.86977 -7.0463 0
M  V30 3265 H 317.28 -0.00217814 -0.675996 0
M  V30 3266 H 319.834 -0.654346 -1.94698 0
M  V30 3267 H 318.064 1.23762 -3.6636 0
M  V30 3268 H 319.753 0.932386 -3.95046 0
M  V30 3269 H 320.519 -1.45745 -4.62583 0
M  V30 3270 H 316.398 -0.231427 -4.60419 0
M  V30 3271 H 319.942 -3.32745 -6.13128 0
M  V30 3272 H 315.839 -2.09305 -6.10624 0
M  V30 3273 H 316.607 -3.83923 -7.22873 0
M  V30 3274 N 319.27 1.56325 -0.20005 0
M  V30 3275 C 320.518 1.97329 0.436547 0
M  V30 3276 C 320.839 1.08826 1.61808 0
M  V30 3277 O 320.109 0.160604 1.95241 0
M  V30 3278 H 318.689 0.728714 0.164272 0
M  V30 3279 H 321.351 1.92761 -0.287937 0
M  V30 3280 H 320.447 3.02264 0.777353 0
M  V30 3281 N 320.748 -0.0735177 1.57428 0
M  V30 3282 C 321.658 -1.10547 2.06922 0
M  V30 3283 C 322.674 -1.42506 0.998402 0
M  V30 3284 O 323.85 -1.52717 1.31299 0
M  V30 3285 C 320.915 -2.40019 2.50184 0
M  V30 3286 C 319.976 -2.15046 3.71556 0
M  V30 3287 C 319.209 -3.38345 4.12745 0
M  V30 3288 O 319.432 -4.47399 3.53822 0
M  V30 3289 O 318.366 -3.2666 5.05546 0
M  V30 3290 H 322.192 -0.715013 2.95163 0
M  V30 3291 H 319.777 -0.287531 1.46607 0
M  V30 3292 H 321.659 -3.16218 2.78539 0
M  V30 3293 H 320.334 -2.78447 1.65072 0
M  V30 3294 H 319.241 -1.36558 3.48285 0
M  V30 3295 H 320.574 -1.81499 4.57514 0
M  V30 3296 N 322.226 -1.5378 -0.344866 0
M  V30 3297 C 323.454 -1.74899 -1.10534 0
M  V30 3298 C 323.869 -0.487534 -1.82397 0
M  V30 3299 O 323.226 0.540741 -1.74305 0
M  V30 3300 C 323.277 -2.92822 -2.11984 0
M  V30 3301 O 322.998 -4.14089 -1.43044 0
M  V30 3302 C 324.499 -3.25982 -3.00417 0
M  V30 3303 H 321.719 -0.584426 -0.329678 0
M  V30 3304 H 324.263 -2.006 -0.397474 0
M  V30 3305 H 322.418 -2.69457 -2.78338 0
M  V30 3306 H 322.832 -4.80272 -2.10805 0
M  V30 3307 H 324.306 -4.11848 -3.67539 0
M  V30 3308 H 324.783 -2.42228 -3.66363 0
M  V30 3309 H 325.389 -3.51349 -2.39654 0
M  V30 3310 N 323.704 0.605807 -1.45491 0
M  V30 3311 C 324.952 1.36207 -1.49305 0
M  V30 3312 C 325.273 1.94519 -0.136863 0
M  V30 3313 O 324.543 1.77261 0.833983 0
M  V30 3314 H 323.123 0.50565 -0.549843 0
M  V30 3315 H 325.785 0.711239 -1.81459 0
M  V30 3316 H 324.881 2.18058 -2.23287 0
M  V30 3317 N 325.182 1.32811 0.848464 0
M  V30 3318 C 326.431 1.23075 1.59798 0
M  V30 3319 C 326.744 -0.204419 1.94529 0
M  V30 3320 O 327.95 -0.423701 2.68173 0
M  V30 3321 C 326.406 2.15594 2.88179 0
M  V30 3322 C 326.014 3.64228 2.60849 0
M  V30 3323 C 327.758 2.14709 3.66197 0
M  V30 3324 C 325.665 4.48689 3.85269 0
M  V30 3325 H 324.595 0.457091 0.599653 0
M  V30 3326 H 327.246 1.57813 0.936342 0
M  V30 3327 H 325.628 1.73778 3.55833 0
M  V30 3328 H 326.802 4.14424 2.01467 0
M  V30 3329 H 325.117 3.67306 1.96151 0
M  V30 3330 H 327.714 2.75046 4.58534 0
M  V30 3331 H 328.057 1.13966 4.00397 0
M  V30 3332 H 328.59 2.54837 3.05455 0
M  V30 3333 H 325.329 5.5027 3.56207 0
M  V30 3334 H 324.849 4.03241 4.44024 0
M  V30 3335 H 326.528 4.62006 4.52946 0
M  V30 3336 N 326.66 -1.06551 1.16123 0
M  V30 3337 C 327.57 -2.17484 0.879662 0
M  V30 3338 C 328.586 -1.73377 -0.147104 0
M  V30 3339 O 329.762 -2.01379 0.0289128 0
M  V30 3340 C 326.827 -3.44591 0.381829 0
M  V30 3341 C 325.888 -4.0322 1.4735 0
M  V30 3342 C 325.121 -5.24261 0.999324 0
M  V30 3343 O 325.344 -5.70198 -0.151957 0
M  V30 3344 O 324.278 -5.74775 1.78653 0
M  V30 3345 H 328.104 -2.44075 1.80724 0
M  V30 3346 H 325.689 -1.16042 0.940992 0
M  V30 3347 H 327.571 -4.21254 0.111053 0
M  V30 3348 H 326.246 -3.19532 -0.51777 0
M  V30 3349 H 325.153 -3.2806 1.79798 0
M  V30 3350 H 326.486 -4.32568 2.34831 0
M  V30 3351 N 328.138 -0.959301 -1.25041 0
M  V30 3352 C 329.101 -0.487677 -2.23952 0
M  V30 3353 C 330.101 0.41119 -1.55454 0
M  V30 3354 O 331.291 0.207825 -1.72956 0
M  V30 3355 C 328.423 0.294807 -3.39623 0
M  V30 3356 H 329.616 -1.36198 -2.67189 0
M  V30 3357 H 327.169 -0.743042 -1.37508 0
M  V30 3358 H 327.904 1.18658 -3.01813 0
M  V30 3359 H 327.689 -0.35012 -3.90534 0
M  V30 3360 H 329.179 0.614089 -4.1306 0
M  V30 3361 N 329.616 1.39756 -0.72842 0
M  V30 3362 C 330.863 2.00645 -0.273487 0
M  V30 3363 C 331.191 1.57786 1.13727 0
M  V30 3364 O 330.446 0.794886 1.7883 0
M  V30 3365 C 330.745 3.56002 -0.315776 0
M  V30 3366 C 330.411 4.18489 -1.67863 0
M  V30 3367 C 329.073 4.3527 -2.05166 0
M  V30 3368 C 331.425 4.53219 -2.57375 0
M  V30 3369 C 328.753 4.84069 -3.31503 0
M  V30 3370 C 331.105 5.03423 -3.83077 0
M  V30 3371 C 329.769 5.18413 -4.20481 0
M  V30 3372 H 329.039 0.734211 -0.100076 0
M  V30 3373 H 331.686 1.6718 -0.933972 0
M  V30 3374 H 329.991 3.89452 0.428285 0
M  V30 3375 H 331.688 4.00963 0.0542575 0
M  V30 3376 H 328.278 4.05824 -1.37858 0
M  V30 3377 H 332.462 4.39878 -2.29827 0
M  V30 3378 H 327.718 4.93859 -3.60435 0
M  V30 3379 H 331.892 5.2927 -4.52599 0
M  V30 3380 H 329.519 5.55987 -5.18443 0
M  V30 3381 N 331.094 0.475555 1.50254 0
M  V30 3382 C 332.004 -0.321501 2.32387 0
M  V30 3383 C 333.02 -0.991755 1.42969 0
M  V30 3384 O 334.196 -0.978747 1.76018 0
M  V30 3385 C 331.261 -1.38667 3.17762 0
M  V30 3386 C 330.322 -0.732538 4.23004 0
M  V30 3387 C 329.555 -1.74695 5.04299 0
M  V30 3388 O 329.778 -2.97399 4.86734 0
M  V30 3389 O 328.712 -1.31631 5.8733 0
M  V30 3390 H 332.538 0.350071 3.01676 0
M  V30 3391 H 330.123 0.237321 1.47503 0
M  V30 3392 H 332.005 -2.00354 3.70724 0
M  V30 3393 H 330.68 -2.04163 2.51196 0
M  V30 3394 H 329.587 -0.0765902 3.74022 0
M  V30 3395 H 330.92 -0.120452 4.92053 0
M  V30 3396 N 332.573 -1.56217 0.208337 0
M  V30 3397 C 333.503 -2.22694 -0.702116 0
M  V30 3398 C 334.484 -1.19432 -1.2112 0
M  V30 3399 O 335.669 -1.47978 -1.25762 0
M  V30 3400 C 332.799 -2.8966 -1.9161 0
M  V30 3401 C 331.753 -3.9928 -1.5414 0
M  V30 3402 C 331.079 -4.53476 -2.83308 0
M  V30 3403 C 332.379 -5.17012 -0.741339 0
M  V30 3404 H 334.073 -2.99034 -0.147898 0
M  V30 3405 H 331.619 -1.43831 -0.0696951 0
M  V30 3406 H 333.572 -3.34852 -2.55836 0
M  V30 3407 H 332.296 -2.10746 -2.49507 0
M  V30 3408 H 330.955 -3.54799 -0.922668 0
M  V30 3409 H 330.603 -3.71308 -3.39322 0
M  V30 3410 H 330.303 -5.27451 -2.58976 0
M  V30 3411 H 331.827 -5.01378 -3.485 0
M  V30 3412 H 333.241 -5.58667 -1.28699 0
M  V30 3413 H 331.638 -5.97137 -0.595627 0
M  V30 3414 H 332.708 -4.8423 0.254851 0
M  V30 3415 N 334.051 0.0651679 -1.57465 0
M  V30 3416 C 334.961 1.09448 -2.07505 0
M  V30 3417 C 335.977 1.41974 -1.00595 0
M  V30 3418 O 337.153 1.52018 -1.32107 0
M  V30 3419 C 334.218 2.38689 -2.51453 0
M  V30 3420 C 333.279 2.13073 -3.72691 0
M  V30 3421 C 332.512 3.36152 -4.14533 0
M  V30 3422 O 332.735 4.45517 -3.56189 0
M  V30 3423 O 331.669 3.23974 -5.07272 0
M  V30 3424 H 335.495 0.69935 -2.95538 0
M  V30 3425 H 333.08 0.279752 -1.46757 0
M  V30 3426 H 334.962 3.14736 -2.80212 0
M  V30 3427 H 333.637 2.77568 -1.66546 0
M  V30 3428 H 332.544 1.34709 -3.49005 0
M  V30 3429 H 333.877 1.79071 -4.5847 0
M  V30 3430 N 335.529 1.53961 0.336706 0
M  V30 3431 C 336.492 1.81724 1.39675 0
M  V30 3432 C 337.492 0.688532 1.45313 0
M  V30 3433 O 338.682 0.956829 1.45569 0
M  V30 3434 C 335.814 1.96543 2.78538 0
M  V30 3435 H 337.007 2.76424 1.16318 0
M  V30 3436 H 334.56 1.45478 0.571474 0
M  V30 3437 H 335.295 1.0401 3.07168 0
M  V30 3438 H 335.08 2.78665 2.75841 0
M  V30 3439 H 336.57 2.19516 3.5525 0
M  V30 3440 N 337.007 -0.598083 1.45811 0
M  V30 3441 C 338.423 -0.919847 1.30426 0
M  V30 3442 C 338.623 -1.99759 0.264303 0
M  V30 3443 O 337.679 -2.50221 -0.338472 0
M  V30 3444 C 338.992 -1.35176 2.68603 0
M  V30 3445 C 340.54 -1.46546 2.76574 0
M  V30 3446 C 341.015 -1.9311 4.15298 0
M  V30 3447 N 342.506 -2.00328 4.1764 0
M  V30 3448 C 343.241 -2.37599 5.21856 0
M  V30 3449 N 342.737 -2.73771 6.36413 0
M  V30 3450 N 344.53 -2.38021 5.09218 0
M  V30 3451 H 336.681 0.114111 2.12093 0
M  V30 3452 H 338.944 -0.0116121 0.947929 0
M  V30 3453 H 338.65 -0.633969 3.45939 0
M  V30 3454 H 338.524 -2.3164 2.97696 0
M  V30 3455 H 340.911 -2.17415 1.99537 0
M  V30 3456 H 340.992 -0.483727 2.51185 0
M  V30 3457 H 340.636 -1.22824 4.92825 0
M  V30 3458 H 340.566 -2.92213 4.38086 0
M  V30 3459 H 343.057 -1.74925 3.34977 0
M  V30 3460 H 343.37 -3.0112 7.11721 0
M  V30 3461 H 341.715 -2.71445 6.39799 0
M  V30 3462 H 344.906 -2.09174 4.18765 0
M  V30 3463 H 345.079 -2.66741 5.90554 0
M  V30 3464 N 338.485 -1.33259 -0.841409 0
M  V30 3465 C 339.448 -1.23221 -1.9326 0
M  V30 3466 C 340.448 -0.151895 -1.60081 0
M  V30 3467 O 341.638 -0.403246 -1.69468 0
M  V30 3468 C 338.77 -0.898123 -3.28856 0
M  V30 3469 H 339.963 -2.2021 -2.03587 0
M  V30 3470 H 337.516 -1.17281 -1.03319 0
M  V30 3471 H 338.251 0.0693841 -3.24226 0
M  V30 3472 H 338.036 -1.67934 -3.54317 0
M  V30 3473 H 339.526 -0.852563 -4.08805 0
M  V30 3474 N 339.963 1.05934 -1.16686 0
M  V30 3475 C 341.379 1.30938 -0.912542 0
M  V30 3476 C 341.579 1.96803 0.432533 0
M  V30 3477 O 340.635 2.23693 1.17123 0
M  V30 3478 C 341.948 2.18649 -2.06429 0
M  V30 3479 C 343.496 2.32055 -2.10047 0
M  V30 3480 C 343.971 3.23122 -3.24586 0
M  V30 3481 N 345.462 3.30706 -3.24327 0
M  V30 3482 C 346.197 4.01273 -4.09594 0
M  V30 3483 N 345.693 4.74332 -5.04956 0
M  V30 3484 N 347.486 3.97361 -3.97569 0
M  V30 3485 H 339.637 0.615777 -2.03278 0
M  V30 3486 H 341.9 0.334077 -0.887185 0
M  V30 3487 H 341.606 1.77534 -3.03603 0
M  V30 3488 H 341.48 3.19252 -2.00894 0
M  V30 3489 H 343.867 2.72415 -1.13464 0
M  V30 3490 H 343.948 1.31107 -2.19647 0
M  V30 3491 H 343.592 2.83477 -4.2143 0
M  V30 3492 H 343.522 4.24057 -3.12223 0
M  V30 3493 H 346.013 2.78644 -2.55276 0
M  V30 3494 H 346.326 5.25716 -5.6643 0
M  V30 3495 H 344.671 4.733 -5.08933 0
M  V30 3496 H 347.862 3.39405 -3.22369 0
M  V30 3497 H 348.035 4.52089 -4.64241 0
M  V30 3498 N 341.441 0.965919 1.2453 0
M  V30 3499 C 342.389 0.486506 2.27455 0
M  V30 3500 C 343.383 -0.449041 1.6334 0
M  V30 3501 O 344.589 -0.324527 1.7705 0
M  V30 3502 H 340.964 0.138857 0.739069 0
M  V30 3503 H 342.935 1.3666 2.65267 0
M  V30 3504 C 341.684 -0.209481 3.47068 0
M  V30 3505 H 341.007 0.50129 3.96645 0
M  V30 3506 H 342.447 -0.508775 4.20936 0
M  V30 3507 C 340.906 -1.43586 3.0477 0
M  V30 3508 O 341.436 -2.53299 3.11773 0
M  V30 3509 N 339.642 -1.30126 2.59838 0
M  V30 3510 H 339.189 -0.408583 2.54339 0
M  V30 3511 H 339.147 -2.12294 2.31902 0
M  V30 3512 N 342.919 -1.39368 0.735821 0
M  V30 3513 C 344.168 -1.99733 0.281004 0
M  V30 3514 C 344.481 -1.59055 -1.13846 0
M  V30 3515 O 345.687 -2.12262 -1.69284 0
M  V30 3516 C 344.143 -3.57057 0.451462 0
M  V30 3517 C 343.751 -4.06697 1.87886 0
M  V30 3518 C 345.495 -4.2446 0.0584616 0
M  V30 3519 C 343.402 -5.56598 1.99883 0
M  V30 3520 H 342.332 -0.747163 0.101311 0
M  V30 3521 H 344.983 -1.59357 0.909819 0
M  V30 3522 H 343.365 -3.95234 -0.246263 0
M  V30 3523 H 344.539 -3.79853 2.60861 0
M  V30 3524 H 342.854 -3.5196 2.22515 0
M  V30 3525 H 345.451 -5.34549 0.127099 0
M  V30 3526 H 345.794 -4.04444 -0.986433 0
M  V30 3527 H 346.327 -3.9146 0.707374 0
M  V30 3528 H 343.066 -5.81494 3.02564 0
M  V30 3529 H 342.586 -5.85242 1.31346 0
M  V30 3530 H 344.265 -6.22022 1.78039 0
M  V30 3531 N 344.397 -0.483516 -1.5 0
M  V30 3532 C 345.637 0.0657469 -2.04294 0
M  V30 3533 C 346.001 1.35869 -1.35659 0
M  V30 3534 O 347.202 1.99111 -1.80578 0
M  V30 3535 C 345.473 0.232758 -3.56641 0
M  V30 3536 S 347.032 0.738788 -4.32536 0
M  V30 3537 H 343.85 0.0100755 -0.710929 0
M  V30 3538 H 346.452 -0.653494 -1.84254 0
M  V30 3539 H 345.156 -0.713847 -4.04144 0
M  V30 3540 H 344.687 0.977751 -3.81056 0
M  V30 3541 H 346.702 2.01048 -4.53645 0
M  V30 3542 N 345.875 1.56104 -0.216619 0
M  V30 3543 C 347.121 1.98466 0.417033 0
M  V30 3544 C 347.454 1.10403 1.59765 0
M  V30 3545 O 346.729 0.160632 1.93836 0
M  V30 3546 C 347.012 3.49769 0.85637 0
M  V30 3547 C 346.865 4.48606 -0.327546 0
M  V30 3548 C 348.184 4.05339 1.7143 0
M  V30 3549 H 345.303 0.721551 0.150112 0
M  V30 3550 H 347.945 1.87423 -0.311864 0
M  V30 3551 H 346.095 3.5931 1.47745 0
M  V30 3552 H 347.767 4.5108 -0.965618 0
M  V30 3553 H 346.01 4.22682 -0.975805 0
M  V30 3554 H 346.681 5.51995 0.0227149 0
M  V30 3555 H 349.157 3.98712 1.19031 0
M  V30 3556 H 348.033 5.11533 1.99061 0
M  V30 3557 H 348.294 3.51918 2.67593 0
M  V30 3558 N 347.353 -0.0568162 1.57498 0
M  V30 3559 C 348.316 -1.05038 2.03715 0
M  V30 3560 C 349.316 -1.30709 0.936577 0
M  V30 3561 O 350.506 -1.26178 1.20103 0
M  V30 3562 C 347.638 -2.39034 2.43055 0
M  V30 3563 H 348.831 -0.651715 2.92733 0
M  V30 3564 H 346.384 -0.302947 1.53336 0
M  V30 3565 H 347.119 -2.83703 1.57108 0
M  V30 3566 H 346.904 -2.21739 3.2338 0
M  V30 3567 H 348.394 -3.10421 2.79336 0
M  V30 3568 N 348.832 -1.54138 -0.328536 0
M  V30 3569 C 350.06 -1.76062 -1.08673 0
M  V30 3570 C 350.475 -0.506852 -1.81869 0
M  V30 3571 O 349.832 0.522223 -1.74869 0
M  V30 3572 C 349.883 -2.95054 -2.08866 0
M  V30 3573 O 349.604 -4.15583 -1.38644 0
M  V30 3574 C 351.105 -3.2915 -2.96943 0
M  V30 3575 H 348.325 -0.587889 -0.323461 0
M  V30 3576 H 350.869 -2.0101 -0.376175 0
M  V30 3577 H 349.024 -2.72394 -2.75464 0
M  V30 3578 H 349.438 -4.82481 -2.05699 0
M  V30 3579 H 350.912 -4.15723 -3.63151 0
M  V30 3580 H 351.389 -2.461 -3.63774 0
M  V30 3581 H 351.995 -3.53871 -2.35914 0
M  V30 3582 N 350.31 0.590341 -1.46126 0
M  V30 3583 C 351.535 1.37991 -1.54833 0
M  V30 3584 C 351.96 1.87163 -0.187506 0
M  V30 3585 O 351.318 1.61133 0.831008 0
M  V30 3586 C 351.366 2.54867 -2.55098 0
M  V30 3587 O 350.47 3.56061 -2.08073 0
M  V30 3588 H 349.811 0.411265 -0.521303 0
M  V30 3589 H 352.341 0.716819 -1.91632 0
M  V30 3590 H 352.351 3.01886 -2.74461 0
M  V30 3591 H 351.026 2.18429 -3.53923 0
M  V30 3592 H 349.603 3.15574 -1.98664 0
M  V30 3593 N 351.788 1.33704 0.83433 0
M  V30 3594 C 352.698 1.26382 1.97648 0
M  V30 3595 C 353.714 0.173548 1.73132 0
M  V30 3596 O 354.89 0.397962 1.97429 0
M  V30 3597 C 351.955 1.00769 3.31733 0
M  V30 3598 C 351.016 2.1884 3.69334 0
M  V30 3599 C 350.249 1.9444 4.9702 0
M  V30 3600 O 350.472 0.896961 5.63303 0
M  V30 3601 O 349.406 2.81093 5.32231 0
M  V30 3602 H 353.232 2.22444 2.06767 0
M  V30 3603 H 350.817 1.13795 0.968037 0
M  V30 3604 H 352.699 0.882186 4.12062 0
M  V30 3605 H 351.374 0.0773783 3.23608 0
M  V30 3606 H 350.281 2.36946 2.89495 0
M  V30 3607 H 351.614 3.10221 3.82131 0
M  V30 3608 N 353.266 -1.05314 1.17247 0
M  V30 3609 C 354.213 -2.13031 0.888058 0
M  V30 3610 C 355.183 -1.65253 -0.167537 0
M  V30 3611 O 356.368 -1.90775 -0.0305974 0
M  V30 3612 C 353.508 -3.42702 0.406147 0
M  V30 3613 C 352.621 -4.04161 1.52572 0
M  V30 3614 C 351.756 -5.21744 0.997808 0
M  V30 3615 C 350.795 -5.75207 2.09291 0
M  V30 3616 N 349.932 -6.84094 1.57986 0
M  V30 3617 H 354.772 -2.36698 1.81048 0
M  V30 3618 H 352.309 -1.16121 0.903013 0
M  V30 3619 H 354.267 -4.17059 0.108305 0
M  V30 3620 H 352.897 -3.19222 -0.479313 0
M  V30 3621 H 351.949 -3.27253 1.93931 0
M  V30 3622 H 353.261 -4.39881 2.35172 0
M  V30 3623 H 352.415 -6.03168 0.653739 0
M  V30 3624 H 351.154 -4.87495 0.141232 0
M  V30 3625 H 350.159 -4.92414 2.44557 0
M  V30 3626 H 351.384 -6.11505 2.95362 0
M  V30 3627 H 349.33 -6.51745 0.74598 0
M  V30 3628 H 349.247 -7.18811 2.34195 0
M  V30 3629 H 350.515 -7.69172 1.26468 0
M  V30 3630 N 354.744 -0.972509 -1.24016 0
M  V30 3631 C 355.99 -0.637978 -1.92504 0
M  V30 3632 C 356.323 0.825383 -1.75787 0
M  V30 3633 O 355.598 1.59442 -1.11393 0
M  V30 3634 C 355.881 -1.01942 -3.45369 0
M  V30 3635 C 355.734 -2.53983 -3.71231 0
M  V30 3636 C 357.053 -0.55751 -4.36555 0
M  V30 3637 H 354.172 -0.233248 -0.699117 0
M  V30 3638 H 356.814 -1.21238 -1.46292 0
M  V30 3639 H 354.964 -0.530656 -3.84859 0
M  V30 3640 H 356.636 -3.10374 -3.41271 0
M  V30 3641 H 354.879 -2.96968 -3.16216 0
M  V30 3642 H 355.55 -2.75723 -4.78206 0
M  V30 3643 H 358.026 -0.977029 -4.04467 0
M  V30 3644 H 356.902 -0.85292 -5.42233 0
M  V30 3645 H 357.163 0.542328 -4.38761 0
M  V30 3646 N 356.222 1.38976 -0.743202 0
M  V30 3647 C 357.47 1.99948 -0.29417 0
M  V30 3648 C 357.791 1.59279 1.12495 0
M  V30 3649 O 357.061 0.844808 1.76748 0
M  V30 3650 H 355.641 0.739473 -0.105774 0
M  V30 3651 H 358.303 1.699 -0.954986 0
M  V30 3652 H 357.399 3.10142 -0.349056 0
M  V30 3653 N 357.7 0.491464 1.49741 0
M  V30 3654 C 359.116 0.146835 1.58923 0
M  V30 3655 C 359.316 -1.34804 1.49767 0
M  V30 3656 O 358.372 -2.12317 1.36667 0
M  V30 3657 C 359.685 0.715157 2.92072 0
M  V30 3658 C 361.233 0.680407 3.05515 0
M  V30 3659 C 361.708 1.22663 4.41269 0
M  V30 3660 N 363.199 1.18691 4.47735 0
M  V30 3661 C 363.934 1.57984 5.51207 0
M  V30 3662 N 363.43 2.04824 6.6183 0
M  V30 3663 N 365.223 1.49459 5.41866 0
M  V30 3664 H 357.374 1.46347 1.53936 0
M  V30 3665 H 359.637 0.606453 0.728642 0
M  V30 3666 H 359.343 1.76317 3.04311 0
M  V30 3667 H 359.217 0.17018 3.76816 0
M  V30 3668 H 361.604 -0.358743 2.92911 0
M  V30 3669 H 361.685 1.26242 2.22478 0
M  V30 3670 H 361.329 2.26451 4.54623 0
M  V30 3671 H 361.259 0.620637 5.2293 0
M  V30 3672 H 363.75 0.843605 3.68364 0
M  V30 3673 H 364.063 2.32901 7.3687 0
M  V30 3674 H 362.408 2.08791 6.62896 0
M  V30 3675 H 365.599 1.12692 4.54333 0
M  V30 3676 H 365.772 1.80406 6.22381 0
M  V30 3677 N 359.178 -1.55987 0.224894 0
M  V30 3678 C 360.141 -2.19178 -0.670348 0
M  V30 3679 C 361.141 -1.15461 -1.11917 0
M  V30 3680 O 362.331 -1.40675 -1.02743 0
M  V30 3681 C 359.463 -2.81777 -1.9187 0
M  V30 3682 H 360.656 -2.99662 -0.119364 0
M  V30 3683 H 358.209 -1.5628 -0.0247128 0
M  V30 3684 H 358.944 -2.05172 -2.51147 0
M  V30 3685 H 358.729 -3.57732 -1.60531 0
M  V30 3686 H 360.219 -3.30205 -2.55645 0
M  V30 3687 N 360.656 0.0484629 -1.57525 0
M  V30 3688 C 361.589 1.08755 -2.00618 0
M  V30 3689 C 362.567 1.36272 -0.887058 0
M  V30 3690 O 363.751 1.49255 -1.15131 0
M  V30 3691 C 360.878 2.42675 -2.36277 0
M  V30 3692 C 359.924 2.31142 -3.58435 0
M  V30 3693 S 360.757 1.68326 -5.08357 0
M  V30 3694 C 361.913 3.03776 -5.47239 0
M  V30 3695 H 362.146 0.720415 -2.88439 0
M  V30 3696 H 359.679 0.257801 -1.52233 0
M  V30 3697 H 361.637 3.19699 -2.57494 0
M  V30 3698 H 360.298 2.76541 -1.48942 0
M  V30 3699 H 359.491 3.29957 -3.80978 0
M  V30 3700 H 359.093 1.62258 -3.36969 0
M  V30 3701 H 361.385 4.00106 -5.46737 0
M  V30 3702 H 362.328 2.85988 -6.47778 0
M  V30 3703 H 362.736 3.05456 -4.74718 0
M  V30 3704 N 362.134 1.5431 0.320358 0
M  V30 3705 C 363.359 1.76954 1.08175 0
M  V30 3706 C 363.784 0.518193 1.80821 0
M  V30 3707 O 363.142 -0.530411 1.73368 0
M  V30 3708 C 363.19 2.96451 2.05303 0
M  V30 3709 O 362.294 2.68221 3.13259 0
M  V30 3710 H 361.635 0.586275 0.311733 0
M  V30 3711 H 364.165 2.01342 0.363676 0
M  V30 3712 H 364.175 3.23887 2.48116 0
M  V30 3713 H 362.85 3.87196 1.51829 0
M  V30 3714 H 361.427 2.51744 2.75099 0
M  V30 3715 N 363.613 -0.582584 1.46437 0
M  V30 3716 C 365.029 -0.905962 1.31394 0
M  V30 3717 C 365.229 -1.99468 0.285476 0
M  V30 3718 O 364.285 -2.50566 -0.311914 0
M  V30 3719 C 365.598 -1.3232 2.70022 0
M  V30 3720 C 367.146 -1.43604 2.78113 0
M  V30 3721 C 367.621 -1.88694 4.17323 0
M  V30 3722 N 369.112 -1.95887 4.19741 0
M  V30 3723 C 369.847 -2.32051 5.24347 0
M  V30 3724 N 369.343 -2.67006 6.39281 0
M  V30 3725 N 371.136 -2.32606 5.11713 0
M  V30 3726 H 363.287 0.1366 2.1196 0
M  V30 3727 H 365.55 -0.00155736 0.947999 0
M  V30 3728 H 365.256 -0.597242 3.46592 0
M  V30 3729 H 365.13 -2.28469 3.00136 0
M  V30 3730 H 367.517 -2.15286 2.01832 0
M  V30 3731 H 367.598 -0.457059 2.51684 0
M  V30 3732 H 367.242 -1.1759 4.941 0
M  V30 3733 H 367.172 -2.8755 4.4116 0
M  V30 3734 H 369.663 -1.71362 3.36814 0
M  V30 3735 H 369.976 -2.93554 7.14875 0
M  V30 3736 H 368.321 -2.64644 6.42642 0
M  V30 3737 H 371.512 -2.04721 4.2096 0
M  V30 3738 H 371.685 -2.60462 5.93349 0
M  V30 3739 N 365.091 -1.34144 -0.827227 0
M  V30 3740 C 366.054 -1.25264 -1.91942 0
M  V30 3741 C 367.054 -0.168866 -1.59911 0
M  V30 3742 O 368.244 -0.421198 -1.69031 0
M  V30 3743 C 365.376 -0.932952 -3.27885 0
M  V30 3744 H 366.569 -2.22357 -2.0124 0
M  V30 3745 H 364.122 -1.1837 -1.0207 0
M  V30 3746 H 364.857 0.0349917 -3.24281 0
M  V30 3747 H 364.642 -1.71682 -3.52516 0
M  V30 3748 H 366.132 -0.895874 -4.07877 0
M  V30 3749 N 366.569 1.04691 -1.17803 0
M  V30 3750 C 367.532 2.10724 -0.901545 0
M  V30 3751 C 368.532 1.6042 0.110437 0
M  V30 3752 O 369.722 1.7377 -0.122303 0
M  V30 3753 C 366.854 3.39084 -0.351409 0
M  V30 3754 H 368.047 2.36686 -1.84174 0
M  V30 3755 H 365.6 1.21015 -0.98919 0
M  V30 3756 H 366.335 3.18782 0.59569 0
M  V30 3757 H 366.12 3.76909 -1.08083 0
M  V30 3758 H 367.61 4.17227 -0.176451 0
M  V30 3759 N 368.047 0.979072 1.23499 0
M  V30 3760 C 369.294 0.647219 1.91878 0
M  V30 3761 C 369.622 -0.819074 1.76413 0
M  V30 3762 O 368.877 -1.60616 1.11808 0
M  V30 3763 C 369.176 0.981932 3.43646 0
M  V30 3764 C 368.842 2.43822 3.79291 0
M  V30 3765 C 367.504 2.83622 3.88731 0
M  V30 3766 C 369.856 3.3828 3.96505 0
M  V30 3767 C 367.184 4.16897 4.12812 0
M  V30 3768 C 369.536 4.71197 4.22085 0
M  V30 3769 C 368.2 5.10758 4.29747 0
M  V30 3770 H 367.47 0.236834 0.702133 0
M  V30 3771 H 370.117 1.23268 1.46551 0
M  V30 3772 H 368.422 0.314365 3.90537 0
M  V30 3773 H 370.119 0.703395 3.94783 0
M  V30 3774 H 366.709 2.11966 3.72516 0
M  V30 3775 H 370.893 3.0871 3.88603 0
M  V30 3776 H 366.149 4.47157 4.16966 0
M  V30 3777 H 370.323 5.44348 4.34348 0
M  V30 3778 H 367.95 6.1405 4.48159 0
M  V30 3779 N 369.525 -1.3858 0.750561 0
M  V30 3780 C 370.435 -2.34278 0.122825 0
M  V30 3781 C 371.451 -1.59116 -0.704131 0
M  V30 3782 O 372.627 -1.91326 -0.628987 0
M  V30 3783 C 369.692 -3.38221 -0.762086 0
M  V30 3784 C 368.753 -4.29227 0.078896 0
M  V30 3785 C 367.986 -5.28205 -0.763874 0
M  V30 3786 O 368.209 -5.34112 -2.00201 0
M  V30 3787 O 367.143 -6.01618 -0.18428 0
M  V30 3788 H 370.969 -2.89649 0.913088 0
M  V30 3789 H 368.554 -1.40374 0.511417 0
M  V30 3790 H 370.436 -4.01872 -1.26793 0
M  V30 3791 H 369.111 -2.85211 -1.5309 0
M  V30 3792 H 368.018 -3.68747 0.630621 0
M  V30 3793 H 369.351 -4.85484 0.810289 0
M  V30 3794 N 371.003 -0.499398 -1.49478 0
M  V30 3795 C 372.251 0.0455996 -2.02049 0
M  V30 3796 C 372.572 1.37633 -1.38138 0
M  V30 3797 O 371.842 1.8842 -0.536166 0
M  V30 3798 H 370.422 0.0198416 -0.746736 0
M  V30 3799 H 373.084 -0.656274 -1.83519 0
M  V30 3800 H 372.18 0.176445 -3.11601 0
M  V30 3801 N 372.481 1.55866 -0.233164 0
M  V30 3802 C 373.727 1.98897 0.395959 0
M  V30 3803 C 374.06 1.12091 1.58585 0
M  V30 3804 O 373.335 0.181182 1.93654 0
M  V30 3805 C 373.618 3.50658 0.819224 0
M  V30 3806 C 373.471 4.48233 -0.375109 0
M  V30 3807 C 374.79 4.07135 1.67121 0
M  V30 3808 H 371.909 0.723102 0.142451 0
M  V30 3809 H 374.551 1.87082 -0.331725 0
M  V30 3810 H 372.701 3.60857 1.43925 0
M  V30 3811 H 374.373 4.50031 -1.01341 0
M  V30 3812 H 372.616 4.21624 -1.02058 0
M  V30 3813 H 373.287 5.51988 -0.0358328 0
M  V30 3814 H 375.763 3.99952 1.14795 0
M  V30 3815 H 374.639 5.13615 1.93625 0
M  V30 3816 H 374.9 3.54736 2.63846 0
M  V30 3817 N 373.959 -0.0401083 1.57549 0
M  V30 3818 C 375.205 -0.734211 1.89043 0
M  V30 3819 C 375.538 -1.75591 0.829535 0
M  V30 3820 O 374.813 -1.93868 -0.156706 0
M  V30 3821 C 375.096 -1.41374 3.31188 0
M  V30 3822 C 374.949 -0.406299 4.47961 0
M  V30 3823 C 376.268 -2.35061 3.72068 0
M  V30 3824 H 373.387 -0.265447 0.687537 0
M  V30 3825 H 376.029 0.00294087 1.9 0
M  V30 3826 H 374.179 -2.04206 3.30503 0
M  V30 3827 H 375.851 0.219255 4.60779 0
M  V30 3828 H 374.094 0.275485 4.32924 0
M  V30 3829 H 374.765 -0.920022 5.44279 0
M  V30 3830 H 377.241 -1.82282 3.74049 0
M  V30 3831 H 376.117 -2.79593 4.72355 0
M  V30 3832 H 376.378 -3.21258 3.0372 0
M  V30 3833 N 375.437 -1.54477 -0.31217 0
M  V30 3834 C 376.853 -1.45442 -0.657185 0
M  V30 3835 C 377.053 -0.63653 -1.91182 0
M  V30 3836 O 376.109 -0.139815 -2.52113 0
M  V30 3837 C 377.422 -2.89287 -0.82058 0
M  V30 3838 C 378.97 -2.9926 -0.917188 0
M  V30 3839 C 379.445 -4.44279 -1.11267 0
M  V30 3840 N 380.936 -4.4794 -1.17914 0
M  V30 3841 C 381.671 -5.57318 -1.34848 0
M  V30 3842 N 381.167 -6.76642 -1.48752 0
M  V30 3843 N 382.96 -5.44986 -1.37647 0
M  V30 3844 H 375.111 -2.06129 0.512313 0
M  V30 3845 H 377.374 -0.933088 0.167485 0
M  V30 3846 H 377.08 -3.51687 0.0302604 0
M  V30 3847 H 376.954 -3.36061 -1.71298 0
M  V30 3848 H 379.341 -2.36981 -1.75852 0
M  V30 3849 H 379.422 -2.558 -0.00101257 0
M  V30 3850 H 379.066 -5.07149 -0.27614 0
M  V30 3851 H 378.996 -4.85359 -2.04289 0
M  V30 3852 H 381.487 -3.61969 -1.08567 0
M  V30 3853 H 381.8 -7.55758 -1.61397 0
M  V30 3854 H 380.145 -6.79529 -1.45828 0
M  V30 3855 H 383.336 -4.50715 -1.26388 0
M  V30 3856 H 383.509 -6.3028 -1.50501 0
M  V30 3857 N 376.915 0.57481 -1.46744 0
M  V30 3858 C 377.878 1.66533 -1.57478 0
M  V30 3859 C 378.878 1.54338 -0.451263 0
M  V30 3860 O 380.068 1.58814 -0.715813 0
M  V30 3861 C 377.2 3.05999 -1.50259 0
M  V30 3862 H 378.393 1.58372 -2.54673 0
M  V30 3863 H 375.946 0.793301 -1.34672 0
M  V30 3864 H 376.681 3.19709 -0.543725 0
M  V30 3865 H 376.466 3.16259 -2.31781 0
M  V30 3866 H 377.956 3.8537 -1.60872 0
M  V30 3867 N 378.394 1.34581 0.820102 0
M  V30 3868 C 379.324 1.29038 1.94606 0
M  V30 3869 C 380.305 0.1673 1.69275 0
M  V30 3870 O 381.49 0.360112 1.90832 0
M  V30 3871 C 378.62 1.04793 3.31113 0
M  V30 3872 C 377.574 2.13597 3.70891 0
M  V30 3873 C 376.9 1.74537 5.05412 0
M  V30 3874 C 378.2 3.55451 3.8269 0
M  V30 3875 H 379.894 2.23248 1.99501 0
M  V30 3876 H 377.44 1.0747 0.958449 0
M  V30 3877 H 379.393 0.995592 4.0947 0
M  V30 3878 H 378.117 0.0702565 3.26524 0
M  V30 3879 H 376.776 2.17905 2.9481 0
M  V30 3880 H 376.424 0.754226 4.97313 0
M  V30 3881 H 376.124 2.47361 5.32997 0
M  V30 3882 H 377.648 1.70803 5.86224 0
M  V30 3883 H 379.062 3.5354 4.51312 0
M  V30 3884 H 377.459 4.26922 4.21732 0
M  V30 3885 H 378.529 3.92587 2.84611 0
M  V30 3886 N 379.872 -1.04064 1.18357 0
M  V30 3887 C 380.802 -2.14001 0.934113 0
M  V30 3888 C 381.783 -1.69616 -0.128186 0
M  V30 3889 O 382.968 -1.94185 0.0244093 0
M  V30 3890 C 380.098 -3.44253 0.459066 0
M  V30 3891 C 379.052 -4.02261 1.46185 0
M  V30 3892 C 378.378 -5.27992 0.844322 0
M  V30 3893 C 379.678 -4.38432 2.83856 0
M  V30 3894 H 381.372 -2.35127 1.85352 0
M  V30 3895 H 378.918 -1.12998 0.892604 0
M  V30 3896 H 380.871 -4.20522 0.271907 0
M  V30 3897 H 379.595 -3.22813 -0.495912 0
M  V30 3898 H 378.254 -3.28074 1.63595 0
M  V30 3899 H 377.902 -5.02862 -0.117845 0
M  V30 3900 H 377.602 -5.67765 1.51384 0
M  V30 3901 H 379.126 -6.06938 0.667693 0
M  V30 3902 H 380.54 -5.05688 2.70098 0
M  V30 3903 H 378.937 -4.89254 3.47491 0
M  V30 3904 H 380.007 -3.4826 3.37406 0
M  V30 3905 N 381.35 -0.985608 -1.22978 0
M  V30 3906 C 382.282 -0.488154 -2.23941 0
M  V30 3907 C 383.295 0.41282 -1.57479 0
M  V30 3908 O 384.484 0.216121 -1.77187 0
M  V30 3909 C 381.584 0.312611 -3.37455 0
M  V30 3910 C 380.757 -0.582741 -4.33501 0
M  V30 3911 C 379.816 0.165064 -5.25941 0
M  V30 3912 O 378.842 -0.447077 -5.67442 0
M  V30 3913 N 380.044 1.44953 -5.62111 0
M  V30 3914 H 382.809 -1.3563 -2.67254 0
M  V30 3915 H 380.37 -0.859477 -1.37203 0
M  V30 3916 H 382.362 0.821357 -3.96277 0
M  V30 3917 H 380.932 1.0818 -2.93285 0
M  V30 3918 H 380.152 -1.27225 -3.73105 0
M  V30 3919 H 381.44 -1.19275 -4.94622 0
M  V30 3920 H 380.838 1.9683 -5.30353 0
M  V30 3921 H 379.395 1.90361 -6.23383 0
M  V30 3922 N 382.828 1.3818 -0.7579 0
M  V30 3923 C 383.775 2.30416 -0.133057 0
M  V30 3924 C 384.745 1.50398 0.704957 0
M  V30 3925 O 385.93 1.79014 0.660192 0
M  V30 3926 C 383.07 3.36834 0.750813 0
M  V30 3927 C 382.183 4.31879 -0.102297 0
M  V30 3928 C 381.318 5.25368 0.784979 0
M  V30 3929 C 380.357 6.12058 -0.0715046 0
M  V30 3930 N 379.494 6.97832 0.772972 0
M  V30 3931 H 384.334 2.83274 -0.925186 0
M  V30 3932 H 381.871 1.39461 -0.467866 0
M  V30 3933 H 383.829 3.97145 1.27794 0
M  V30 3934 H 382.459 2.85374 1.50868 0
M  V30 3935 H 381.511 3.72991 -0.747095 0
M  V30 3936 H 382.823 4.92921 -0.763552 0
M  V30 3937 H 381.977 5.90818 1.37911 0
M  V30 3938 H 380.716 4.64703 1.47996 0
M  V30 3939 H 379.721 5.456 -0.678272 0
M  V30 3940 H 380.946 6.74793 -0.763606 0
M  V30 3941 H 378.892 6.3971 1.45282 0
M  V30 3942 H 378.809 7.55812 0.168709 0
M  V30 3943 H 380.077 7.67687 1.35194 0
M  V30 3944 N 384.306 0.507319 1.49211 0
M  V30 3945 C 385.717 0.0611118 1.866 0
M  V30 3946 C 386.068 -1.35488 1.41907 0
M  V30 3947 O 385.193 -2.0108 0.799726 0
M  V30 3948 C 385.788 0.104125 3.3864 0
M  V30 3949 C 384.347 -0.28677 3.75306 0
M  V30 3950 C 383.494 0.473893 2.73221 0
M  V30 3951 H 386.445 0.719775 1.41439 0
M  V30 3952 H 386.466 -0.689672 3.74198 0
M  V30 3953 H 385.978 1.13482 3.71138 0
M  V30 3954 H 384.079 -1.32046 3.48417 0
M  V30 3955 H 384.192 0.0370745 4.79086 0
M  V30 3956 H 382.556 -0.0770644 2.54583 0
M  V30 3957 H 383.339 1.50478 3.08563 0
M  V30 3958 N 385.784 -1.5574 0.241426 0
M  V30 3959 C 387.009 -2.0366 -0.392111 0
M  V30 3960 C 387.434 -1.11969 -1.51144 0
M  V30 3961 O 386.792 -0.111594 -1.80956 0
M  V30 3962 C 386.84 -3.49638 -0.882371 0
M  V30 3963 O 385.944 -3.6108 -1.99235 0
M  V30 3964 H 385.285 -0.658379 -0.0862122 0
M  V30 3965 H 387.815 -2.01302 0.365881 0
M  V30 3966 H 387.825 -3.90351 -1.18702 0
M  V30 3967 H 386.5 -4.15852 -0.0632361 0
M  V30 3968 H 385.077 -3.32262 -1.69282 0
M  V30 3969 N 387.262 0.0317525 -1.57568 0
M  V30 3970 C 388.225 1.01783 -2.0536 0
M  V30 3971 C 389.225 1.29203 -0.957253 0
M  V30 3972 O 390.415 1.24251 -1.22095 0
M  V30 3973 C 387.547 2.35137 -2.46827 0
M  V30 3974 H 388.74 0.605062 -2.93733 0
M  V30 3975 H 386.293 0.278514 -1.53799 0
M  V30 3976 H 387.028 2.81168 -1.61602 0
M  V30 3977 H 386.813 2.16566 -3.26866 0
M  V30 3978 H 388.303 3.05938 -2.84239 0
M  V30 3979 N 388.74 1.54641 0.303973 0
M  V30 3980 C 390.156 1.45788 0.649463 0
M  V30 3981 C 390.356 0.64666 1.90842 0
M  V30 3982 O 389.412 0.153183 2.52035 0
M  V30 3983 C 390.725 2.89718 0.805227 0
M  V30 3984 C 392.273 2.99742 0.901305 0
M  V30 3985 C 392.748 4.44863 1.08909 0
M  V30 3986 N 394.239 4.48559 1.15536 0
M  V30 3987 C 394.974 5.58026 1.3189 0
M  V30 3988 N 394.47 6.77422 1.45161 0
M  V30 3989 N 396.263 5.45708 1.34755 0
M  V30 3990 H 388.414 2.05854 -0.523237 0
M  V30 3991 H 390.677 0.932186 -0.172431 0
M  V30 3992 H 390.383 3.51666 -0.0489108 0
M  V30 3993 H 390.257 3.36964 1.69513 0
M  V30 3994 H 392.644 2.3791 1.74593 0
M  V30 3995 H 392.725 2.55797 -0.0125531 0
M  V30 3996 H 392.369 5.07288 0.249241 0
M  V30 3997 H 392.299 4.86436 2.01713 0
M  V30 3998 H 394.79 3.6254 1.06646 0
M  V30 3999 H 395.103 7.56604 1.57387 0
M  V30 4000 H 393.448 6.80292 1.42223 0
M  V30 4001 H 396.639 4.51378 1.23996 0
M  V30 4002 H 396.812 6.3107 1.47157 0
M  V30 4003 N 390.218 -0.567019 1.47046 0
M  V30 4004 C 391.464 -1.32658 1.53394 0
M  V30 4005 C 391.797 -1.93254 0.19148 0
M  V30 4006 O 391.072 -1.77338 -0.798844 0
M  V30 4007 C 391.355 -2.44412 2.64452 0
M  V30 4008 C 391.208 -1.88749 4.08282 0
M  V30 4009 C 392.527 -3.46387 2.71485 0
M  V30 4010 H 389.646 -0.48098 0.558415 0
M  V30 4011 H 392.288 -0.635481 1.79058 0
M  V30 4012 H 390.438 -3.03363 2.427 0
M  V30 4013 H 392.11 -1.34134 4.41368 0
M  V30 4014 H 390.353 -1.19481 4.17021 0
M  V30 4015 H 391.024 -2.69491 4.81745 0
M  V30 4016 H 393.5 -2.9734 2.91081 0
M  V30 4017 H 392.376 -4.2202 3.50985 0
M  V30 4018 H 392.637 -4.04616 1.78153 0
M  V30 4019 N 391.696 -1.35014 -0.812953 0
M  V30 4020 C 392.659 -1.27292 -1.90602 0
M  V30 4021 C 393.659 -0.185817 -1.59723 0
M  V30 4022 O 394.849 -0.439102 -1.68575 0
M  V30 4023 C 391.981 -0.967676 -3.26877 0
M  V30 4024 H 393.174 -2.24479 -1.9887 0
M  V30 4025 H 390.727 -1.19446 -1.00808 0
M  V30 4026 H 391.462 0.0005954 -3.243 0
M  V30 4027 H 391.247 -1.75412 -3.50675 0
M  V30 4028 H 392.737 -0.939085 -4.06904 0
M  V30 4029 N 393.175 1.03435 -1.18907 0
M  V30 4030 C 394.421 1.77005 -0.989798 0
M  V30 4031 C 394.754 1.88205 0.478816 0
M  V30 4032 O 394.029 1.39481 1.35556 0
M  V30 4033 C 394.312 3.19925 -1.65287 0
M  V30 4034 C 394.165 3.1663 -3.19477 0
M  V30 4035 C 395.484 4.18189 -1.37134 0
M  V30 4036 H 392.603 0.642538 -0.360991 0
M  V30 4037 H 395.245 1.20784 -1.46667 0
M  V30 4038 H 393.395 3.67929 -1.24741 0
M  V30 4039 H 395.067 2.76567 -3.692 0
M  V30 4040 H 393.31 2.54491 -3.51307 0
M  V30 4041 H 393.981 4.1758 -3.61013 0
M  V30 4042 H 396.457 3.78761 -1.72276 0
M  V30 4043 H 395.333 5.16394 -1.86087 0
M  V30 4044 H 395.594 4.41112 -0.295424 0
M  V30 4045 N 394.653 0.992116 1.22453 0
M  V30 4046 C 395.583 0.561677 2.26644 0
M  V30 4047 C 396.564 -0.411055 1.65059 0
M  V30 4048 O 397.749 -0.301861 1.9184 0
M  V30 4049 C 394.879 -0.125247 3.47074 0
M  V30 4050 C 393.833 0.765948 4.21091 0
M  V30 4051 C 393.159 -0.0538484 5.34673 0
M  V30 4052 C 394.459 2.06242 4.79856 0
M  V30 4053 H 396.153 1.43259 2.62902 0
M  V30 4054 H 393.699 0.690283 1.26377 0
M  V30 4055 H 395.652 -0.437764 4.1912 0
M  V30 4056 H 394.376 -1.03069 3.0991 0
M  V30 4057 H 393.035 1.0621 3.50878 0
M  V30 4058 H 392.683 -0.960188 4.9375 0
M  V30 4059 H 392.383 0.539415 5.85119 0
M  V30 4060 H 393.907 -0.360477 6.09535 0
M  V30 4061 H 395.321 1.8139 5.43848 0
M  V30 4062 H 393.718 2.60444 5.40638 0
M  V30 4063 H 394.788 2.74167 3.99951 0
M  V30 4064 N 396.131 -1.37776 0.765217 0
M  V30 4065 C 397.378 -1.99849 0.326588 0
M  V30 4066 C 397.706 -1.60746 -1.09504 0
M  V30 4067 O 396.961 -0.84202 -1.76659 0
M  V30 4068 C 397.26 -3.5504 0.410053 0
M  V30 4069 C 396.926 -4.13891 1.78899 0
M  V30 4070 C 395.588 -4.29678 2.16635 0
M  V30 4071 C 397.94 -4.46236 2.69301 0
M  V30 4072 C 395.268 -4.7511 3.44221 0
M  V30 4073 C 397.62 -4.93089 3.9629 0
M  V30 4074 C 396.284 -5.07082 4.34078 0
M  V30 4075 H 395.554 -0.7313 0.119507 0
M  V30 4076 H 398.201 -1.64645 0.977968 0
M  V30 4077 H 396.506 -3.90451 -0.324878 0
M  V30 4078 H 398.203 -4.00966 0.0520699 0
M  V30 4079 H 394.793 -4.02026 1.48569 0
M  V30 4080 H 398.977 -4.3363 2.41409 0
M  V30 4081 H 394.233 -4.84129 3.73402 0
M  V30 4082 H 398.407 -5.17084 4.66472 0
M  V30 4083 H 396.034 -5.42046 5.33001 0
M  V30 4084 N 397.609 -0.515225 -1.4894 0
M  V30 4085 C 398.837 0.0206034 -2.0689 0
M  V30 4086 C 399.252 1.29514 -1.37374 0
M  V30 4087 O 398.609 1.76698 -0.456529 0
M  V30 4088 C 398.66 0.26351 -3.60538 0
M  V30 4089 O 398.381 -0.960517 -4.27441 0
M  V30 4090 C 399.882 0.841383 -4.35242 0
M  V30 4091 H 397.102 -0.0268608 -0.670462 0
M  V30 4092 H 399.646 -0.716651 -1.91532 0
M  V30 4093 H 397.801 0.950777 -3.75552 0
M  V30 4094 H 398.215 -0.73212 -5.19365 0
M  V30 4095 H 399.689 0.96085 -5.43573 0
M  V30 4096 H 400.166 1.8427 -3.98674 0
M  V30 4097 H 400.772 0.191143 -4.2487 0
M  V30 4098 N 399.087 1.5561 -0.249682 0
M  V30 4099 C 400.503 1.59254 0.105103 0
M  V30 4100 C 400.703 1.26685 1.56694 0
M  V30 4101 O 399.759 1.0155 2.31179 0
M  V30 4102 C 401.072 2.99687 -0.246592 0
M  V30 4103 C 402.62 3.12416 -0.191118 0
M  V30 4104 C 403.095 4.55074 -0.516885 0
M  V30 4105 N 404.586 4.60835 -0.467489 0
M  V30 4106 C 405.321 5.69201 -0.69268 0
M  V30 4107 N 404.817 6.85817 -0.981146 0
M  V30 4108 N 406.61 5.58635 -0.623198 0
M  V30 4109 H 398.761 1.75049 -1.20298 0
M  V30 4110 H 401.024 0.815003 -0.484225 0
M  V30 4111 H 400.73 3.28267 -1.26228 0
M  V30 4112 H 400.604 3.74798 0.424962 0
M  V30 4113 H 402.991 2.83615 0.815247 0
M  V30 4114 H 403.072 2.39573 -0.896563 0
M  V30 4115 H 402.716 4.84596 -1.52082 0
M  V30 4116 H 402.646 5.26181 0.210068 0
M  V30 4117 H 405.137 3.7705 -0.253373 0
M  V30 4118 H 405.45 7.64341 -1.14032 0
M  V30 4119 H 403.795 6.87494 -1.01865 0
M  V30 4120 H 406.986 4.66406 -0.397863 0
M  V30 4121 H 407.159 6.43017 -0.802093 0
M  V30 4122 N 400.565 -0.0233959 1.57583 0
M  V30 4123 C 401.79 -0.728376 1.94189 0
M  V30 4124 C 402.215 -1.67793 0.850119 0
M  V30 4125 O 401.573 -1.80262 -0.19371 0
M  V30 4126 C 401.621 -1.45669 3.29868 0
M  V30 4127 O 400.725 -2.57013 3.22518 0
M  V30 4128 H 400.066 -0.195493 0.63457 0
M  V30 4129 H 402.596 0.0228214 2.04587 0
M  V30 4130 H 402.606 -1.82535 3.6489 0
M  V30 4131 H 401.281 -0.760314 4.08891 0
M  V30 4132 H 399.858 -2.22648 2.99136 0
M  V30 4133 N 402.043 -1.548 -0.295768 0
M  V30 4134 C 402.953 -1.89177 -1.38742 0
M  V30 4135 C 403.969 -0.786481 -1.55211 0
M  V30 4136 O 405.145 -1.08344 -1.69775 0
M  V30 4137 C 402.21 -2.13663 -2.73036 0
M  V30 4138 C 401.271 -3.37349 -2.65508 0
M  V30 4139 C 400.504 -3.60658 -3.93398 0
M  V30 4140 O 400.727 -2.86882 -4.93006 0
M  V30 4141 O 399.661 -4.54179 -3.94975 0
M  V30 4142 H 403.487 -2.82059 -1.12589 0
M  V30 4143 H 401.072 -1.41056 -0.492295 0
M  V30 4144 H 402.954 -2.3094 -3.52484 0
M  V30 4145 H 401.629 -1.23967 -2.99022 0
M  V30 4146 H 400.536 -3.25431 -1.84514 0
M  V30 4147 H 401.869 -4.27192 -2.44474 0
M  V30 4148 N 403.521 0.559213 -1.47345 0
M  V30 4149 C 404.798 1.31997 -1.44348 0
M  V30 4150 C 405.178 2.1064 -0.139358 0
M  V30 4151 O 404.526 2.1091 0.879153 0
M  V30 4152 C 404.736 2.22618 -2.68779 0
M  V30 4153 C 406.084 2.83701 -3.1591 0
M  V30 4154 O 407.108 2.32921 -2.69493 0
M  V30 4155 O 405.967 3.75993 -3.966 0
M  V30 4156 H 403.061 0.594251 -0.575147 0
M  V30 4157 H 405.607 0.578282 -1.59543 0
M  V30 4158 H 404.379 1.64093 -3.55231 0
M  V30 4159 H 404.002 3.04085 -2.5616 0
M  V30 4160 N 404.999 1.35443 0.805782 0
M  V30 4161 C 405.962 1.28301 1.89925 0
M  V30 4162 C 406.962 0.194285 1.59622 0
M  V30 4163 O 408.152 0.448036 1.6834 0
M  V30 4164 C 405.284 0.984997 3.2636 0
M  V30 4165 H 406.477 2.2553 1.97677 0
M  V30 4166 H 404.03 1.19979 1.00173 0
M  V30 4167 H 404.765 0.016603 3.24296 0
M  V30 4168 H 404.55 1.77269 3.4974 0
M  V30 4169 H 406.04 0.960651 4.064 0
M  V30 4170 N 406.477 -1.02803 1.19454 0
M  V30 4171 C 407.893 -1.28473 0.946937 0
M  V30 4172 C 408.093 -1.97881 -0.380202 0
M  V30 4173 O 407.149 -2.26719 -1.11151 0
M  V30 4174 C 408.462 -2.13099 2.12154 0
M  V30 4175 C 410.01 -2.26404 2.16126 0
M  V30 4176 C 410.485 -3.14402 3.33039 0
M  V30 4177 N 411.976 -3.21991 3.32981 0
M  V30 4178 C 412.711 -3.90272 4.20089 0
M  V30 4179 N 412.207 -4.60777 5.17355 0
M  V30 4180 N 414 -3.8668 4.07964 0
M  V30 4181 H 406.151 -0.561665 2.04839 0
M  V30 4182 H 408.414 -0.310438 0.89573 0
M  V30 4183 H 408.12 -1.69422 3.08203 0
M  V30 4184 H 407.994 -3.13813 2.09287 0
M  V30 4185 H 410.381 -2.69311 1.20647 0
M  V30 4186 H 410.462 -1.25237 2.23045 0
M  V30 4187 H 410.106 -2.72204 4.28798 0
M  V30 4188 H 410.036 -4.1563 3.23356 0
M  V30 4189 H 412.527 -2.71778 2.62574 0
M  V30 4190 H 412.84 -5.10513 5.80169 0
M  V30 4191 H 411.185 -4.5964 5.21302 0
M  V30 4192 H 414.376 -3.30739 3.31254 0
M  V30 4193 H 414.549 -4.39621 4.76064 0
M  V30 4194 N 407.956 -0.998596 -1.21925 0
M  V30 4195 C 408.866 -0.562736 -2.27751 0
M  V30 4196 C 409.882 0.391203 -1.69545 0
M  V30 4197 O 411.058 0.256625 -1.99758 0
M  V30 4198 C 408.123 0.11012 -3.46525 0
M  V30 4199 C 407.184 -0.887495 -4.20026 0
M  V30 4200 C 406.417 -0.246654 -5.3313 0
M  V30 4201 O 406.64 0.958088 -5.62296 0
M  V30 4202 O 405.574 -0.954374 -5.94286 0
M  V30 4203 H 409.4 -1.44329 -2.67213 0
M  V30 4204 H 406.985 -0.767135 -1.28201 0
M  V30 4205 H 408.867 0.486756 -4.18579 0
M  V30 4206 H 407.542 0.965154 -3.08976 0
M  V30 4207 H 406.449 -1.31517 -3.5022 0
M  V30 4208 H 407.782 -1.71191 -4.6147 0
M  V30 4209 N 409.434 1.37368 -0.772513 0
M  V30 4210 C 410.364 2.32856 -0.173304 0
M  V30 4211 C 411.345 1.55818 0.682262 0
M  V30 4212 O 412.53 1.84052 0.619566 0
M  V30 4213 C 409.66 3.40048 0.706007 0
M  V30 4214 C 408.614 4.27973 -0.0483144 0
M  V30 4215 C 407.94 5.26184 0.950491 0
M  V30 4216 C 409.24 5.07665 -1.22776 0
M  V30 4217 H 410.934 2.83217 -0.971002 0
M  V30 4218 H 408.48 1.3617 -0.468377 0
M  V30 4219 H 410.433 4.05827 1.13501 0
M  V30 4220 H 409.157 2.88214 1.53623 0
M  V30 4221 H 407.816 3.63726 -0.458107 0
M  V30 4222 H 407.464 4.7063 1.77529 0
M  V30 4223 H 407.164 5.85872 0.450314 0
M  V30 4224 H 408.688 5.94838 1.37842 0
M  V30 4225 H 410.102 5.66578 -0.875366 0
M  V30 4226 H 408.499 5.76681 -1.66007 0
M  V30 4227 H 409.569 4.40294 -2.03149 0
M  V30 4228 N 410.912 0.523116 1.48665 0
M  V30 4229 C 411.842 -0.23231 2.32342 0
M  V30 4230 C 412.823 -0.941637 1.41659 0
M  V30 4231 O 414.008 -0.928751 1.70552 0
M  V30 4232 C 411.138 -1.28387 3.22698 0
M  V30 4233 C 410.092 -0.693098 4.22351 0
M  V30 4234 C 409.418 -1.8468 5.01794 0
M  V30 4235 C 410.718 0.33063 5.21252 0
M  V30 4236 H 412.412 0.466192 2.95748 0
M  V30 4237 H 409.958 0.225643 1.42221 0
M  V30 4238 H 411.911 -1.82024 3.80059 0
M  V30 4239 H 410.635 -2.01186 2.57278 0
M  V30 4240 H 409.294 -0.178299 3.66166 0
M  V30 4241 H 408.942 -2.56301 4.32804 0
M  V30 4242 H 408.642 -1.45747 5.69238 0
M  V30 4243 H 410.166 -2.38709 5.62006 0
M  V30 4244 H 411.58 -0.118407 5.73178 0
M  V30 4245 H 409.977 0.636974 5.9671 0
M  V30 4246 H 411.047 1.23883 4.68808 0
M  V30 4247 N 412.39 -1.55475 0.257931 0
M  V30 4248 C 413.353 -2.20551 -0.623706 0
M  V30 4249 C 414.353 -1.17809 -1.09443 0
M  V30 4250 O 415.543 -1.42823 -0.997362 0
M  V30 4251 C 412.675 -2.85784 -1.8585 0
M  V30 4252 H 413.868 -2.99848 -0.0557743 0
M  V30 4253 H 411.421 -1.56298 0.0084422 0
M  V30 4254 H 412.156 -2.10453 -2.46739 0
M  V30 4255 H 411.941 -3.61057 -1.52907 0
M  V30 4256 H 413.431 -3.35553 -2.48584 0
M  V30 4257 N 413.868 0.0150385 -1.57593 0
M  V30 4258 C 414.831 0.995996 -2.06428 0
M  V30 4259 C 415.831 1.2818 -0.970903 0
M  V30 4260 O 417.021 1.22949 -1.23406 0
M  V30 4261 C 414.153 2.32506 -2.49307 0
M  V30 4262 H 415.346 0.573873 -2.94358 0
M  V30 4263 H 412.899 0.262186 -1.54085 0
M  V30 4264 H 413.634 2.79438 -1.64575 0
M  V30 4265 H 413.419 2.13087 -3.29145 0
M  V30 4266 H 414.909 3.02906 -2.87468 0
M  V30 4267 N 415.346 1.54954 0.287554 0
M  V30 4268 C 416.571 1.79209 1.04397 0
M  V30 4269 C 416.996 0.556431 1.79682 0
M  V30 4270 O 416.354 -0.493518 1.74454 0
M  V30 4271 C 416.402 3.00739 1.98969 0
M  V30 4272 O 415.506 2.74805 3.075 0
M  V30 4273 H 414.847 0.592755 0.299227 0
M  V30 4274 H 417.377 2.02068 0.320886 0
M  V30 4275 H 417.387 3.29077 2.4119 0
M  V30 4276 H 416.062 3.90329 1.43582 0
M  V30 4277 H 414.639 2.57523 2.69697 0
M  V30 4278 N 416.824 -0.551391 1.4764 0
M  V30 4279 C 417.756 -1.67333 1.56628 0
M  V30 4280 C 418.769 -1.56398 0.452045 0
M  V30 4281 O 419.958 -1.6325 0.721926 0
M  V30 4282 C 417.058 -3.05841 1.45994 0
M  V30 4283 C 416.231 -3.42472 2.72088 0
M  V30 4284 C 415.29 -4.60168 2.55209 0
M  V30 4285 O 414.316 -4.64458 3.2904 0
M  V30 4286 N 415.518 -5.57024 1.63416 0
M  V30 4287 H 418.283 -1.60066 2.53375 0
M  V30 4288 H 415.844 -0.738169 1.44093 0
M  V30 4289 H 417.836 -3.8242 1.32428 0
M  V30 4290 H 416.406 -3.07302 0.573071 0
M  V30 4291 H 415.626 -2.55284 3.00373 0
M  V30 4292 H 416.914 -3.63723 3.55785 0
M  V30 4293 H 416.312 -5.56319 1.02594 0
M  V30 4294 H 414.869 -6.32906 1.558 0
M  V30 4295 N 418.302 -1.35869 -0.798587 0
M  V30 4296 C 419.718 -1.16082 -1.09532 0
M  V30 4297 C 419.918 0.0213124 -2.01489 0
M  V30 4298 O 418.974 0.689488 -2.42904 0
M  V30 4299 C 420.287 -2.46748 -1.7186 0
M  V30 4300 C 421.835 -2.53028 -1.84244 0
M  V30 4301 C 422.31 -3.83758 -2.49988 0
M  V30 4302 N 423.801 -3.85053 -2.57465 0
M  V30 4303 C 424.536 -4.8294 -3.09122 0
M  V30 4304 N 424.032 -5.91217 -3.61157 0
M  V30 4305 N 425.825 -4.70369 -3.0775 0
M  V30 4306 H 417.976 -2.11571 -0.187461 0
M  V30 4307 H 420.239 -0.936726 -0.145765 0
M  V30 4308 H 419.945 -3.33471 -1.11759 0
M  V30 4309 H 419.819 -2.61883 -2.71472 0
M  V30 4310 H 422.206 -1.66729 -2.43486 0
M  V30 4311 H 422.287 -2.418 -0.834643 0
M  V30 4312 H 421.931 -4.70459 -1.91393 0
M  V30 4313 H 421.861 -3.92278 -3.5132 0
M  V30 4314 H 424.352 -3.06822 -2.20609 0
M  V30 4315 H 424.665 -6.61892 -3.98896 0
M  V30 4316 H 423.01 -5.94899 -3.59333 0
M  V30 4317 H 426.201 -3.84914 -2.66381 0
M  V30 4318 H 426.374 -5.46816 -3.47701 0
M  V30 4319 N 419.78 1.02168 -1.19998 0
M  V30 4320 C 420.71 2.12488 -0.96804 0
M  V30 4321 C 421.691 1.69799 0.101185 0
M  V30 4322 O 422.876 1.94121 -0.0552993 0
M  V30 4323 C 420.006 3.43479 -0.513776 0
M  V30 4324 C 418.96 3.99884 -1.52566 0
M  V30 4325 C 418.286 5.26582 -0.928214 0
M  V30 4326 C 419.586 4.33861 -2.90795 0
M  V30 4327 H 421.28 2.32149 -1.89069 0
M  V30 4328 H 418.826 1.11564 -0.910468 0
M  V30 4329 H 420.779 4.20036 -0.338774 0
M  V30 4330 H 419.503 3.23561 0.444493 0
M  V30 4331 H 418.162 3.25429 -1.68794 0
M  V30 4332 H 417.81 5.02986 0.0378289 0
M  V30 4333 H 417.51 5.65284 -1.60397 0
M  V30 4334 H 419.034 6.05799 -0.764167 0
M  V30 4335 H 420.448 5.01327 -2.78109 0
M  V30 4336 H 418.845 4.83664 -3.55231 0
M  V30 4337 H 419.915 3.42848 -3.42904 0
M  V30 4338 N 421.258 1.00505 1.21394 0
M  V30 4339 C 422.206 0.558623 2.25792 0
M  V30 4340 C 423.2 -0.396848 1.64686 0
M  V30 4341 O 424.406 -0.268035 1.77993 0
M  V30 4342 H 420.781 0.1623 0.734277 0
M  V30 4343 H 422.752 1.4503 2.60785 0
M  V30 4344 C 421.501 -0.0989574 3.47559 0
M  V30 4345 H 420.824 0.627225 3.94849 0
M  V30 4346 H 422.264 -0.3746 4.22342 0
M  V30 4347 C 420.723 -1.33817 3.09184 0
M  V30 4348 O 421.253 -2.43252 3.19674 0
M  V30 4349 N 419.459 -1.21793 2.63846 0
M  V30 4350 H 419.006 -0.32746 2.5551 0
M  V30 4351 H 418.964 -2.04809 2.38539 0
M  V30 4352 N 422.737 -1.36956 0.779787 0
M  V30 4353 C 423.7 -2.2851 0.177662 0
M  V30 4354 C 424.7 -1.48393 -0.619377 0
M  V30 4355 O 425.89 -1.68505 -0.441785 0
M  V30 4356 C 423.022 -3.32428 -0.755279 0
M  V30 4357 H 424.215 -2.83269 0.984823 0
M  V30 4358 H 421.768 -1.46358 0.548544 0
M  V30 4359 H 422.503 -2.82808 -1.58714 0
M  V30 4360 H 422.288 -3.91659 -0.185817 0
M  V30 4361 H 423.778 -4.00824 -1.17174 0
M  V30 4362 N 424.215 -0.530993 -1.48385 0
M  V30 4363 C 425.44 0.000729535 -2.074 0
M  V30 4364 C 425.865 1.27298 -1.3848 0
M  V30 4365 O 425.223 1.75599 -0.451081 0
M  V30 4366 C 425.271 0.206697 -3.60007 0
M  V30 4367 O 424.375 1.27514 -3.92191 0
M  V30 4368 H 423.716 -0.039583 -0.662819 0
M  V30 4369 H 426.246 -0.739194 -1.9078 0
M  V30 4370 H 426.256 0.42904 -4.05738 0
M  V30 4371 H 424.931 -0.722675 -4.09573 0
M  V30 4372 H 423.508 1.03537 -3.58238 0
M  V30 4373 N 425.693 1.55336 -0.266172 0
M  V30 4374 C 426.94 1.99397 0.353158 0
M  V30 4375 C 427.268 1.15451 1.56529 0
M  V30 4376 O 426.523 0.209974 1.9457 0
M  V30 4377 C 426.822 3.48606 0.787957 0
M  V30 4378 C 426.488 4.49773 -0.318541 0
M  V30 4379 C 425.15 4.77158 -0.62239 0
M  V30 4380 C 427.502 5.10212 -1.06459 0
M  V30 4381 C 424.83 5.62251 -1.67602 0
M  V30 4382 C 427.182 5.96449 -2.10788 0
M  V30 4383 C 425.846 6.22158 -2.41817 0
M  V30 4384 H 425.116 0.729644 0.12923 0
M  V30 4385 H 427.763 1.87732 -0.37802 0
M  V30 4386 H 426.068 3.57701 1.59866 0
M  V30 4387 H 427.765 3.80098 1.27775 0
M  V30 4388 H 424.355 4.2854 -0.0715925 0
M  V30 4389 H 428.539 4.89086 -0.843098 0
M  V30 4390 H 423.795 5.80419 -1.92155 0
M  V30 4391 H 427.969 6.42317 -2.69076 0
M  V30 4392 H 425.596 6.87888 -3.23596 0
M  V30 4393 N 427.171 -0.0066808 1.57599 0
M  V30 4394 C 428.399 -0.704087 1.94551 0
M  V30 4395 C 428.814 -1.67677 0.867746 0
M  V30 4396 O 428.171 -1.8185 -0.153925 0
M  V30 4397 C 428.222 -1.44177 3.31505 0
M  V30 4398 O 427.943 -0.508097 4.35144 0
M  V30 4399 C 429.444 -2.23429 3.82876 0
M  V30 4400 H 426.664 -0.196523 0.641576 0
M  V30 4401 H 429.208 0.042453 2.04456 0
M  V30 4402 H 427.363 -2.13999 3.22929 0
M  V30 4403 H 427.777 -1.02782 5.14331 0
M  V30 4404 H 429.251 -2.70552 4.8115 0
M  V30 4405 H 429.728 -3.05818 3.15233 0
M  V30 4406 H 430.334 -1.58636 3.94607 0
M  V30 4407 N 428.649 -1.55105 -0.279332 0
M  V30 4408 C 429.895 -1.76597 -1.00921 0
M  V30 4409 C 430.25 -0.556831 -1.84166 0
M  V30 4410 O 429.543 0.450573 -1.86227 0
M  V30 4411 C 429.737 -3.0086 -1.92919 0
M  V30 4412 C 429.566 -4.33744 -1.18728 0
M  V30 4413 C 428.336 -4.9712 -0.905545 0
M  V30 4414 C 430.534 -5.11009 -0.580857 0
M  V30 4415 N 428.516 -6.13749 -0.136169 0
M  V30 4416 C 429.887 -6.19976 0.0546661 0
M  V30 4417 C 431.942 -4.95502 -0.488067 0
M  V30 4418 C 430.645 -7.15123 0.774028 0
M  V30 4419 C 432.671 -5.90999 0.217688 0
M  V30 4420 C 432.033 -6.9935 0.841975 0
M  V30 4421 H 428.132 -0.698553 -0.351493 0
M  V30 4422 H 430.716 -1.92595 -0.285531 0
M  V30 4423 H 428.887 -2.86249 -2.62519 0
M  V30 4424 H 430.619 -3.10784 -2.59221 0
M  V30 4425 H 427.374 -4.57903 -1.20921 0
M  V30 4426 H 427.798 -6.7659 0.235665 0
M  V30 4427 H 432.44 -4.11841 -0.956406 0
M  V30 4428 H 430.158 -7.9831 1.25407 0
M  V30 4429 H 433.744 -5.81078 0.289717 0
M  V30 4430 H 432.624 -7.71973 1.37939 0
M  V30 4431 N 430.127 0.543554 -1.4793 0
M  V30 4432 C 431.373 1.30201 -1.55485 0
M  V30 4433 C 431.706 1.92925 -0.222201 0
M  V30 4434 O 430.981 1.78586 0.77053 0
M  V30 4435 C 431.264 2.40174 -2.68307 0
M  V30 4436 C 431.117 1.8223 -4.11233 0
M  V30 4437 C 432.436 3.42024 -2.76961 0
M  V30 4438 H 429.555 0.472036 -0.565996 0
M  V30 4439 H 432.197 0.606914 -1.80046 0
M  V30 4440 H 430.347 2.99463 -2.47495 0
M  V30 4441 H 432.019 1.27096 -4.43446 0
M  V30 4442 H 430.262 1.12832 -4.18869 0
M  V30 4443 H 430.933 2.61793 -4.85972 0
M  V30 4444 H 433.409 2.92672 -2.95774 0
M  V30 4445 H 432.285 4.16383 -3.57654 0
M  V30 4446 H 432.546 4.0173 -1.84568 0
M  V30 4447 N 431.605 1.3629 0.791371 0
M  V30 4448 C 432.568 1.30309 1.88553 0
M  V30 4449 C 433.568 0.211204 1.59407 0
M  V30 4450 O 434.758 0.465865 1.67855 0
M  V30 4451 C 431.89 1.01956 3.25297 0
M  V30 4452 H 433.083 2.27614 1.95273 0
M  V30 4453 H 430.636 1.21035 0.988953 0
M  V30 4454 H 431.371 0.050998 3.2426 0
M  V30 4455 H 431.156 1.80968 3.4784 0
M  V30 4456 H 432.646 1.0037 4.05359 0
M  V30 4457 N 433.083 -1.0153 1.20538 0
M  V30 4458 C 434.308 -1.79283 1.04271 0
M  V30 4459 C 434.733 -1.8372 -0.403544 0
M  V30 4460 O 434.091 -1.27321 -1.2907 0
M  V30 4461 C 434.139 -3.21535 1.63241 0
M  V30 4462 O 433.243 -4.03099 0.870908 0
M  V30 4463 H 432.584 -0.55293 0.367647 0
M  V30 4464 H 435.114 -1.27696 1.59859 0
M  V30 4465 H 435.124 -3.72243 1.6703 0
M  V30 4466 H 433.799 -3.1762 2.68497 0
M  V30 4467 H 432.376 -3.61693 0.907323 0
M  V30 4468 N 434.561 -1.01147 -1.20859 0
M  V30 4469 C 435.838 -0.613136 -1.85742 0
M  V30 4470 C 436.218 0.909004 -1.90526 0
M  V30 4471 O 435.566 1.79862 -1.40932 0
M  V30 4472 C 435.776 -1.255 -3.25654 0
M  V30 4473 C 437.124 -1.3672 -4.01986 0
M  V30 4474 O 438.148 -1.21082 -3.34989 0
M  V30 4475 O 437.007 -1.6194 -5.21956 0
M  V30 4476 H 434.101 -0.210878 -0.799662 0
M  V30 4477 H 436.647 -1.10853 -1.2849 0
M  V30 4478 H 435.419 -2.29532 -3.16908 0
M  V30 4479 H 435.042 -0.746369 -3.90532 0
M  V30 4480 N 436.039 1.36541 -0.78704 0
M  V30 4481 C 437.287 1.98911 -0.357633 0
M  V30 4482 C 437.608 1.62778 1.07371 0
M  V30 4483 O 436.878 0.900612 1.73971 0
M  V30 4484 H 435.458 0.735734 -0.129246 0
M  V30 4485 H 438.12 1.66776 -1.00855 0
M  V30 4486 H 437.216 3.08874 -0.447549 0
M  V30 4487 N 437.518 0.538854 1.48102 0
M  V30 4488 C 438.764 0.0161732 2.03394 0
M  V30 4489 C 439.119 -1.31154 1.40771 0
M  V30 4490 O 438.412 -1.83613 0.547421 0
M  V30 4491 C 438.606 -0.153808 3.57069 0
M  V30 4492 C 438.435 1.15588 4.34591 0
M  V30 4493 C 437.205 1.71818 4.75191 0
M  V30 4494 C 439.403 2.06867 4.70861 0
M  V30 4495 N 437.385 2.96983 5.37284 0
M  V30 4496 C 438.756 3.16609 5.33066 0
M  V30 4497 C 440.811 2.07085 4.52791 0
M  V30 4498 C 439.514 4.26645 5.79109 0
M  V30 4499 C 441.54 3.16121 4.99821 0
M  V30 4500 C 440.902 4.24582 5.62058 0
M  V30 4501 H 437.001 0.0476346 0.780548 0
M  V30 4502 H 439.585 0.722094 1.80815 0
M  V30 4503 H 437.756 -0.828825 3.79454 0
M  V30 4504 H 439.488 -0.676896 3.98999 0
M  V30 4505 H 436.243 1.25845 4.56574 0
M  V30 4506 H 436.667 3.60732 5.72889 0
M  V30 4507 H 441.309 1.24522 4.04047 0
M  V30 4508 H 439.027 5.0998 6.26854 0
M  V30 4509 H 442.613 3.17355 4.87624 0
M  V30 4510 H 441.493 5.07562 5.97788 0
M  V30 4511 N 438.996 -1.55193 0.274407 0
M  V30 4512 C 440.244 -1.99187 -0.341902 0
M  V30 4513 C 440.565 -1.16422 -1.56431 0
M  V30 4514 O 439.835 -0.253573 -1.94252 0
M  V30 4515 H 438.415 -0.735721 -0.129317 0
M  V30 4516 H 441.077 -1.91168 0.379578 0
M  V30 4517 H 440.173 -3.05629 -0.632253 0
M  V30 4518 N 440.474 -0.00167713 -1.576 0
M  V30 4519 C 441.437 0.974046 -2.07473 0
M  V30 4520 C 442.437 1.27143 -0.984444 0
M  V30 4521 O 443.627 1.21633 -1.24703 0
M  V30 4522 C 440.759 2.29849 -2.51759 0
M  V30 4523 H 441.952 0.54262 -2.9495 0
M  V30 4524 H 439.505 0.245829 -1.54355 0
M  V30 4525 H 440.24 2.77677 -1.67529 0
M  V30 4526 H 440.025 2.09584 -3.31386 0
M  V30 4527 H 441.515 2.9984 -2.90664 0
M  V30 4528 N 441.952 1.55251 0.271103 0
M  V30 4529 C 442.882 1.9127 1.33933 0
M  V30 4530 C 443.863 0.77478 1.5143 0
M  V30 4531 O 445.048 1.03307 1.64442 0
M  V30 4532 C 442.178 2.18627 2.69851 0
M  V30 4533 C 441.132 3.34442 2.67081 0
M  V30 4534 C 440.458 3.47284 4.06569 0
M  V30 4535 C 441.758 4.70784 2.26185 0
M  V30 4536 H 443.452 2.80744 1.04035 0
M  V30 4537 H 440.998 1.35077 0.499017 0
M  V30 4538 H 442.951 2.42413 3.44694 0
M  V30 4539 H 441.675 1.25955 3.01335 0
M  V30 4540 H 440.334 3.10627 1.94695 0
M  V30 4541 H 439.982 2.52074 4.35279 0
M  V30 4542 H 439.682 4.25152 4.0561 0
M  V30 4543 H 441.206 3.73363 4.83148 0
M  V30 4544 H 442.62 4.94102 2.90751 0
M  V30 4545 H 441.017 5.51582 2.36384 0
M  V30 4546 H 442.087 4.69478 1.21319 0
M  V30 4547 N 443.43 -0.535701 1.48216 0
M  V30 4548 C 444.34 -1.66785 1.64985 0
M  V30 4549 C 445.356 -1.65654 0.532414 0
M  V30 4550 O 446.532 -1.8471 0.80275 0
M  V30 4551 C 443.597 -3.0326 1.68031 0
M  V30 4552 C 442.658 -3.1529 2.9136 0
M  V30 4553 C 441.891 -4.45255 2.94252 0
M  V30 4554 O 442.114 -5.32011 2.05719 0
M  V30 4555 O 441.048 -4.6153 3.86359 0
M  V30 4556 H 444.874 -1.55576 2.60825 0
M  V30 4557 H 442.459 -0.70815 1.31551 0
M  V30 4558 H 444.341 -3.84436 1.72589 0
M  V30 4559 H 443.016 -3.14805 0.753628 0
M  V30 4560 H 441.923 -2.3343 2.92337 0
M  V30 4561 H 443.256 -3.08658 3.83394 0
M  V30 4562 N 444.908 -1.36708 -0.784132 0
M  V30 4563 C 446.133 -1.34565 -1.5782 0
M  V30 4564 C 446.558 0.0695257 -1.87971 0
M  V30 4565 O 445.916 1.04302 -1.48293 0
M  V30 4566 C 445.964 -2.17952 -2.87279 0
M  V30 4567 O 445.068 -1.57563 -3.81114 0
M  V30 4568 H 444.409 -0.460337 -0.478524 0
M  V30 4569 H 446.939 -1.80064 -0.971495 0
M  V30 4570 H 446.949 -2.30721 -3.365 0
M  V30 4571 H 445.624 -3.20823 -2.64661 0
M  V30 4572 H 444.201 -1.53764 -3.39722 0
M  V30 4573 N 446.386 1.0089 -1.21074 0
M  V30 4574 C 447.632 1.74866 -1.02712 0
M  V30 4575 C 447.965 1.89178 0.438787 0
M  V30 4576 O 447.24 1.42325 1.32567 0
M  V30 4577 C 447.523 3.16347 -1.72036 0
M  V30 4578 C 447.376 3.09782 -3.26121 0
M  V30 4579 C 448.695 4.15187 -1.45973 0
M  V30 4580 H 445.814 0.634736 -0.374539 0
M  V30 4581 H 448.456 1.17646 -1.49196 0
M  V30 4582 H 446.606 3.65201 -1.32517 0
M  V30 4583 H 448.278 2.68673 -3.74983 0
M  V30 4584 H 446.521 2.46982 -3.56626 0
M  V30 4585 H 447.192 4.09829 -3.6979 0
M  V30 4586 H 449.668 3.75022 -1.80272 0
M  V30 4587 H 448.544 5.12331 -1.96999 0
M  V30 4588 H 448.805 4.40386 -0.388924 0
M  V30 4589 N 447.864 1.01787 1.20321 0
M  V30 4590 C 449.11 0.708985 1.90003 0
M  V30 4591 C 449.443 -0.759572 1.78729 0
M  V30 4592 O 448.718 -1.55198 1.17234 0
M  V30 4593 C 449.001 1.1469 3.41348 0
M  V30 4594 C 448.854 2.67586 3.61549 0
M  V30 4595 C 450.173 0.71915 4.34185 0
M  V30 4596 H 447.292 0.259034 0.689978 0
M  V30 4597 H 449.934 1.26584 1.41692 0
M  V30 4598 H 448.084 0.673128 3.82624 0
M  V30 4599 H 449.756 3.22826 3.29517 0
M  V30 4600 H 447.999 3.085 3.04976 0
M  V30 4601 H 448.67 2.93281 4.67643 0
M  V30 4602 H 451.146 1.12647 4.00562 0
M  V30 4603 H 450.022 1.05358 5.38694 0
M  V30 4604 H 450.283 -0.379111 4.40472 0
M  V30 4605 N 449.342 -1.36122 0.79427 0
M  V30 4606 C 450.305 -2.28309 0.201889 0
M  V30 4607 C 451.305 -1.49041 -0.603603 0
M  V30 4608 O 452.495 -1.68964 -0.423888 0
M  V30 4609 C 449.627 -3.3321 -0.719978 0
M  V30 4610 H 450.82 -2.82208 1.01481 0
M  V30 4611 H 448.373 -1.45768 0.564037 0
M  V30 4612 H 449.108 -2.84475 -1.55706 0
M  V30 4613 H 448.893 -3.91835 -0.144266 0
M  V30 4614 H 450.383 -4.02044 -1.12916 0
M  V30 4615 N 450.82 -0.546701 -1.47814 0
M  V30 4616 C 452.068 -0.0187037 -2.02091 0
M  V30 4617 C 452.389 1.33168 -1.42447 0
M  V30 4618 O 451.659 1.86619 -0.595839 0
M  V30 4619 H 450.239 -0.00392531 -0.74699 0
M  V30 4620 H 452.901 -0.714327 -1.81338 0
M  V30 4621 H 451.997 0.0772219 -3.12004 0
M  V30 4622 N 452.299 1.55045 -0.282633 0
M  V30 4623 C 453.524 2.04628 0.337977 0
M  V30 4624 C 453.949 1.15937 1.48123 0
M  V30 4625 O 453.307 0.159532 1.80597 0
M  V30 4626 C 453.355 3.51854 0.78936 0
M  V30 4627 O 452.459 3.66236 1.89592 0
M  V30 4628 H 451.8 0.660434 0.0687261 0
M  V30 4629 H 454.33 2.00261 -0.419124 0
M  V30 4630 H 454.34 3.93361 1.08311 0
M  V30 4631 H 453.015 4.15873 -0.0470419 0
M  V30 4632 H 451.592 3.36633 1.60413 0
M  V30 4633 N 453.777 0.010035 1.57597 0
M  V30 4634 C 454.687 -0.994226 2.12491 0
M  V30 4635 C 455.703 -1.37013 1.07254 0
M  V30 4636 O 456.879 -1.45542 1.3921 0
M  V30 4637 C 453.944 -2.2642 2.62555 0
M  V30 4638 C 453.005 -1.95049 3.82432 0
M  V30 4639 C 452.238 -3.15991 4.30099 0
M  V30 4640 O 452.461 -4.28015 3.7704 0
M  V30 4641 O 451.395 -2.99403 5.22151 0
M  V30 4642 H 455.221 -0.557549 2.98538 0
M  V30 4643 H 452.806 -0.209413 1.47925 0
M  V30 4644 H 454.688 -3.01009 2.9491 0
M  V30 4645 H 453.363 -2.69306 1.796 0
M  V30 4646 H 452.27 -1.17904 3.55034 0
M  V30 4647 H 453.603 -1.56992 4.66491 0
M  V30 4648 N 455.255 -1.55392 -0.262866 0
M  V30 4649 C 456.503 -1.76127 -0.991147 0
M  V30 4650 C 456.824 -0.571083 -1.8645 0
M  V30 4651 O 456.094 0.413698 -1.91482 0
M  V30 4652 H 454.674 -0.649528 -0.368948 0
M  V30 4653 H 457.336 -1.9281 -0.284655 0
M  V30 4654 H 456.432 -2.6663 -1.62219 0
M  V30 4655 N 456.733 0.527833 -1.48498 0
M  V30 4656 C 457.696 1.61439 -1.62696 0
M  V30 4657 C 458.696 1.52824 -0.500136 0
M  V30 4658 O 459.886 1.56456 -0.765976 0
M  V30 4659 C 457.018 3.01063 -1.59918 0
M  V30 4660 H 458.211 1.50189 -2.59583 0
M  V30 4661 H 455.764 0.750055 -1.37127 0
M  V30 4662 H 456.499 3.17818 -0.645163 0
M  V30 4663 H 456.284 3.08725 -2.41726 0
M  V30 4664 H 457.774 3.80057 -1.73051 0
M  V30 4665 N 458.211 1.37122 0.776871 0
M  V30 4666 C 459.174 1.32301 1.8716 0
M  V30 4667 C 460.174 0.228099 1.59174 0
M  V30 4668 O 461.364 0.483642 1.67352 0
M  V30 4669 C 458.496 1.054 3.24197 0
M  V30 4670 H 459.689 2.29673 1.92848 0
M  V30 4671 H 457.242 1.22077 0.97606 0
M  V30 4672 H 457.977 0.0853872 3.24188 0
M  V30 4673 H 457.762 1.84648 3.45901 0
M  V30 4674 H 459.252 1.04664 4.04271 0
M  V30 4675 N 459.689 -1.00246 1.21608 0
M  V30 4676 C 460.599 -2.12515 0.993709 0
M  V30 4677 C 461.615 -1.73913 -0.0549939 0
M  V30 4678 O 462.791 -2.00943 0.135619 0
M  V30 4679 C 459.856 -3.42083 0.563953 0
M  V30 4680 C 458.917 -3.94843 1.68516 0
M  V30 4681 C 458.15 -5.18226 1.27582 0
M  V30 4682 O 458.373 -5.70201 0.150506 0
M  V30 4683 O 457.307 -5.64497 2.0887 0
M  V30 4684 H 461.133 -2.34152 1.93407 0
M  V30 4685 H 458.718 -1.10891 1.00118 0
M  V30 4686 H 460.6 -4.20073 0.334194 0
M  V30 4687 H 459.275 -3.21828 -0.347665 0
M  V30 4688 H 458.182 -3.18068 1.96935 0
M  V30 4689 H 459.515 -4.19512 2.5743 0
M  V30 4690 N 461.167 -1.02423 -1.1978 0
M  V30 4691 C 462.415 -0.716569 -1.8897 0
M  V30 4692 C 462.736 0.756769 -1.79716 0
M  V30 4693 O 462.006 1.5449 -1.20456 0
M  V30 4694 H 460.586 -0.262062 -0.699523 0
M  V30 4695 H 463.248 -1.29747 -1.45436 0
M  V30 4696 H 462.344 -1.00675 -2.95417 0
M  V30 4697 N 462.645 1.35699 -0.801477 0
M  V30 4698 C 463.608 2.28199 -0.213994 0
M  V30 4699 C 464.608 1.49359 0.595691 0
M  V30 4700 O 465.798 1.69186 0.414921 0
M  V30 4701 C 462.93 3.33587 0.702297 0
M  V30 4702 H 464.123 2.81666 -1.02976 0
M  V30 4703 H 461.676 1.45467 -0.571759 0
M  V30 4704 H 462.411 2.85297 1.54195 0
M  V30 4705 H 462.196 3.91906 0.123484 0
M  V30 4706 H 463.686 4.02638 1.10783 0
M  V30 4707 N 464.123 0.554532 1.47522 0
M  V30 4708 C 465.372 0.0273458 2.01681 0
M  V30 4709 C 465.685 -1.32962 1.43459 0
M  V30 4710 O 466.891 -1.94657 1.89265 0
M  V30 4711 C 465.347 -0.00159057 3.599 0
M  V30 4712 C 464.955 1.35197 4.27113 0
M  V30 4713 C 466.699 -0.476311 4.21819 0
M  V30 4714 C 464.606 1.28229 5.77331 0
M  V30 4715 H 463.536 0.00645269 0.753972 0
M  V30 4716 H 466.187 0.701985 1.69542 0
M  V30 4717 H 464.569 -0.741821 3.8899 0
M  V30 4718 H 465.743 2.1097 4.09668 0
M  V30 4719 H 464.058 1.76441 3.77171 0
M  V30 4720 H 466.655 -0.5468 5.31897 0
M  V30 4721 H 466.998 -1.4877 3.8881 0
M  V30 4722 H 467.531 0.20898 3.97251 0
M  V30 4723 H 464.27 2.26959 6.14955 0
M  V30 4724 H 463.79 0.566314 5.97121 0
M  V30 4725 H 465.469 0.983226 6.39485 0
M  V30 4726 N 465.601 -1.54893 0.290851 0
M  V30 4727 C 466.829 -2.04343 -0.324288 0
M  V30 4728 C 467.244 -1.16859 -1.48289 0
M  V30 4729 O 466.601 -0.192018 -1.81487 0
M  V30 4730 C 466.652 -3.52756 -0.79026 0
M  V30 4731 O 466.373 -4.36913 0.322213 0
M  V30 4732 C 467.874 -4.18161 -1.4716 0
M  V30 4733 H 465.094 -0.667135 -0.0719173 0
M  V30 4734 H 467.638 -1.99981 0.427529 0
M  V30 4735 H 465.793 -3.57511 -1.49213 0
M  V30 4736 H 466.207 -5.24486 -0.0387372 0
M  V30 4737 H 467.681 -5.23562 -1.7489 0
M  V30 4738 H 468.158 -3.67282 -2.40834 0
M  V30 4739 H 468.764 -4.17454 -0.813178 0
M  V30 4740 N 467.08 -0.0183926 -1.57589 0
M  V30 4741 C 468.329 0.66185 -1.90532 0
M  V30 4742 C 468.642 1.73904 -0.895366 0
M  V30 4743 O 469.848 2.47518 -1.11566 0
M  V30 4744 C 468.304 1.22844 -3.38286 0
M  V30 4745 C 467.912 0.185103 -4.47617 0
M  V30 4746 C 469.656 1.88581 -3.80312 0
M  V30 4747 C 467.563 0.762723 -5.86461 0
M  V30 4748 H 466.493 0.250972 -0.711006 0
M  V30 4749 H 469.144 -0.0819435 -1.83317 0
M  V30 4750 H 467.526 2.0235 -3.40398 0
M  V30 4751 H 468.7 -0.58671 -4.5705 0
M  V30 4752 H 467.015 -0.372889 -4.14727 0
M  V30 4753 H 469.612 2.32735 -4.81392 0
M  V30 4754 H 469.955 2.72408 -3.14801 0
M  V30 4755 H 470.488 1.15782 -3.80578 0
M  V30 4756 H 467.227 -0.0371713 -6.55489 0
M  V30 4757 H 466.747 1.50327 -5.80656 0
M  V30 4758 H 468.426 1.25576 -6.34697 0
M  V30 4759 N 468.558 1.5553 0.254621 0
M  V30 4760 C 469.468 1.92789 1.33677 0
M  V30 4761 C 470.484 0.827356 1.53071 0
M  V30 4762 O 471.66 1.12807 1.66843 0
M  V30 4763 C 468.725 2.20827 2.67275 0
M  V30 4764 C 467.786 3.4427 2.5647 0
M  V30 4765 C 467.019 3.70961 3.83697 0
M  V30 4766 O 467.242 2.99852 4.85227 0
M  V30 4767 O 466.176 4.64491 3.82794 0
M  V30 4768 H 470.002 2.84945 1.05071 0
M  V30 4769 H 467.587 1.42312 0.454723 0
M  V30 4770 H 469.469 2.40204 3.46237 0
M  V30 4771 H 468.144 1.31851 2.9563 0
M  V30 4772 H 467.051 3.30209 1.75821 0
M  V30 4773 H 468.384 4.33524 2.33062 0
M  V30 4774 N 470.036 -0.519951 1.48776 0
M  V30 4775 C 470.966 -1.63253 1.66945 0
M  V30 4776 C 471.947 -1.62014 0.518224 0
M  V30 4777 O 473.132 -1.79053 0.751919 0
M  V30 4778 C 470.262 -3.0181 1.71836 0
M  V30 4779 C 469.216 -3.17911 2.8656 0
M  V30 4780 C 468.542 -4.5763 2.76548 0
M  V30 4781 C 469.842 -2.99729 4.27738 0
M  V30 4782 H 471.536 -1.48302 2.6009 0
M  V30 4783 H 469.082 -0.712026 1.25165 0
M  V30 4784 H 471.035 -3.79525 1.83135 0
M  V30 4785 H 469.759 -3.17806 0.752775 0
M  V30 4786 H 468.418 -2.42616 2.74833 0
M  V30 4787 H 468.066 -4.70476 1.77937 0
M  V30 4788 H 467.766 -4.69346 3.53536 0
M  V30 4789 H 469.29 -5.37431 2.89828 0
M  V30 4790 H 470.704 -3.67228 4.40246 0
M  V30 4791 H 469.101 -3.22932 5.05801 0
M  V30 4792 H 470.171 -1.96047 4.43502 0
M  V30 4793 N 471.514 -1.37532 -0.769588 0
M  V30 4794 C 472.477 -1.33292 -1.86456 0
M  V30 4795 C 473.477 -0.236537 -1.59051 0
M  V30 4796 O 474.667 -0.492511 -1.67093 0
M  V30 4797 C 471.799 -1.07118 -3.23633 0
M  V30 4798 H 472.992 -2.30692 -1.91628 0
M  V30 4799 H 470.545 -1.22593 -0.969572 0
M  V30 4800 H 471.28 -0.102578 -3.24138 0
M  V30 4801 H 471.065 -1.86479 -3.44917 0
M  V30 4802 H 472.555 -1.06806 -4.03711 0
M  V30 4803 N 472.992 0.995999 -1.22138 0
M  V30 4804 C 474.217 1.77601 -1.0711 0
M  V30 4805 C 474.642 1.84339 0.374264 0
M  V30 4806 O 474 1.29359 1.27028 0
M  V30 4807 C 474.048 3.18897 -1.68336 0
M  V30 4808 O 473.152 4.01663 -0.934928 0
M  V30 4809 H 472.493 0.547011 -0.376397 0
M  V30 4810 H 475.023 1.25137 -1.6187 0
M  V30 4811 H 475.033 3.69539 -1.72931 0
M  V30 4812 H 473.708 3.13308 -2.73516 0
M  V30 4813 H 472.285 3.60204 -0.964751 0
M  V30 4814 N 474.47 1.03057 1.19235 0
M  V30 4815 C 475.7 0.746613 1.92638 0
M  V30 4816 C 476.108 -0.698708 1.75826 0
M  V30 4817 O 475.451 -1.487 1.07861 0
M  V30 4818 C 475.513 1.02024 3.44719 0
M  V30 4819 C 475.177 2.45745 3.85303 0
M  V30 4820 C 476.174 3.43887 3.8992 0
M  V30 4821 C 473.859 2.8019 4.16892 0
M  V30 4822 C 475.853 4.74529 4.2556 0
M  V30 4823 C 473.54 4.1104 4.52205 0
M  V30 4824 C 474.538 5.0802 4.56513 0
M  V30 4825 O 474.226 6.36527 4.91008 0
M  V30 4826 H 473.958 0.272401 0.618687 0
M  V30 4827 H 476.512 1.37853 1.52269 0
M  V30 4828 H 474.742 0.331184 3.85279 0
M  V30 4829 H 476.431 0.725677 3.9936 0
M  V30 4830 H 477.197 3.18614 3.65664 0
M  V30 4831 H 473.076 2.05382 4.12722 0
M  V30 4832 H 476.62 5.50222 4.28838 0
M  V30 4833 H 472.517 4.36086 4.7592 0
M  V30 4834 H 473.285 6.41025 5.08949 0
M  V30 4835 N 475.948 -1.35272 0.808662 0
M  V30 4836 C 477.359 -1.81179 0.450688 0
M  V30 4837 C 477.71 -1.67143 -1.02751 0
M  V30 4838 O 476.835 -1.20325 -1.79864 0
M  V30 4839 C 477.43 -3.28943 0.811275 0
M  V30 4840 C 475.989 -3.72985 0.505871 0
M  V30 4841 C 475.136 -2.57229 1.03578 0
M  V30 4842 H 478.087 -1.2322 1.00012 0
M  V30 4843 H 478.108 -3.80342 0.109588 0
M  V30 4844 H 477.62 -3.39127 1.88718 0
M  V30 4845 H 475.721 -3.68349 -0.561209 0
M  V30 4846 H 475.834 -4.67677 1.03995 0
M  V30 4847 H 474.198 -2.50548 0.458005 0
M  V30 4848 H 474.981 -2.7019 2.11784 0
M  V30 4849 N 477.426 -0.562348 -1.47226 0
M  V30 4850 C 478.675 -0.038041 -2.01664 0
M  V30 4851 C 478.988 1.32199 -1.44162 0
M  V30 4852 O 480.194 1.9365 -1.90294 0
M  V30 4853 C 478.65 -0.0174958 -3.59896 0
M  V30 4854 C 478.258 -1.3746 -4.2639 0
M  V30 4855 C 480.002 0.453934 -4.22066 0
M  V30 4856 C 477.909 -1.31289 -5.76643 0
M  V30 4857 H 476.839 -0.0104511 -0.753928 0
M  V30 4858 H 479.49 -0.710966 -1.69167 0
M  V30 4859 H 477.872 0.721182 -3.89378 0
M  V30 4860 H 479.046 -2.1314 -4.08544 0
M  V30 4861 H 477.361 -1.78438 -3.7623 0
M  V30 4862 H 479.958 0.518584 -5.32179 0
M  V30 4863 H 480.301 1.46706 -3.89594 0
M  V30 4864 H 480.834 -0.230044 -3.97134 0
M  V30 4865 H 477.573 -2.30217 -6.13743 0
M  V30 4866 H 477.093 -0.597973 -5.96812 0
M  V30 4867 H 478.772 -1.01713 -6.38955 0
M  V30 4868 N 478.904 1.54736 -0.299062 0
M  V30 4869 C 480.129 2.04975 0.316254 0
M  V30 4870 C 480.554 1.17501 1.46885 0
M  V30 4871 O 479.912 0.178678 1.80417 0
M  V30 4872 C 479.96 3.52672 0.751997 0
M  V30 4873 O 479.064 3.68226 1.85697 0
M  V30 4874 H 478.405 0.661126 0.0617175 0
M  V30 4875 H 480.935 1.99805 -0.440341 0
M  V30 4876 H 480.945 3.94488 1.04133 0
M  V30 4877 H 479.62 4.158 -0.0911482 0
M  V30 4878 H 478.197 3.38316 1.56834 0
M  V30 4879 N 480.382 0.0267497 1.57577 0
M  V30 4880 C 481.659 -0.690926 1.82991 0
M  V30 4881 C 482.039 -1.90471 0.910164 0
M  V30 4882 O 481.387 -2.28474 -0.0347985 0
M  V30 4883 C 481.597 -1.07139 3.32148 0
M  V30 4884 C 482.945 -1.46402 3.98562 0
M  V30 4885 O 483.969 -1.16443 3.36629 0
M  V30 4886 O 482.828 -2.02214 5.07712 0
M  V30 4887 H 479.922 -0.338747 0.75444 0
M  V30 4888 H 482.468 0.0542506 1.69613 0
M  V30 4889 H 481.24 -0.207394 3.9075 0
M  V30 4890 H 480.863 -1.87481 3.50623 0
M  V30 4891 N 481.861 -1.55662 -0.24637 0
M  V30 4892 C 483.108 -1.77519 -0.974335 0
M  V30 4893 C 483.436 -0.591165 -1.85298 0
M  V30 4894 O 482.691 0.425497 -1.91018 0
M  V30 4895 C 482.99 -3.04885 -1.86494 0
M  V30 4896 C 482.656 -4.36209 -1.14161 0
M  V30 4897 C 481.318 -4.71896 -0.941701 0
M  V30 4898 C 483.67 -5.17391 -0.628957 0
M  V30 4899 C 480.998 -5.86299 -0.216852 0
M  V30 4900 C 483.35 -6.32546 0.0824273 0
M  V30 4901 C 482.014 -6.66853 0.293807 0
M  V30 4902 H 481.284 -0.649588 -0.356535 0
M  V30 4903 H 483.931 -1.89934 -0.244394 0
M  V30 4904 H 482.236 -2.87484 -2.66196 0
M  V30 4905 H 483.933 -3.18994 -2.42989 0
M  V30 4906 H 480.523 -4.08174 -1.30736 0
M  V30 4907 H 484.707 -4.90276 -0.770943 0
M  V30 4908 H 479.963 -6.11385 -0.0426124 0
M  V30 4909 H 484.137 -6.94693 0.487292 0
M  V30 4910 H 481.764 -7.55349 0.857428 0
M  V30 4911 N 483.339 0.512053 -1.4905 0
M  V30 4912 C 484.302 1.59704 -1.64399 0
M  V30 4913 C 485.302 1.52285 -0.516317 0
M  V30 4914 O 486.492 1.55635 -0.782527 0
M  V30 4915 C 483.624 2.9935 -1.63102 0
M  V30 4916 H 484.817 1.47428 -2.61161 0
M  V30 4917 H 482.37 0.735469 -1.37915 0
M  V30 4918 H 483.105 3.17116 -0.678836 0
M  V30 4919 H 482.89 3.06144 -2.44986 0
M  V30 4920 H 484.38 3.782 -1.77072 0
M  V30 4921 N 484.817 1.37938 0.762283 0
M  V30 4922 C 486.042 1.37059 1.55659 0
M  V30 4923 C 486.467 -0.0396123 1.88058 0
M  V30 4924 O 485.825 -1.01929 1.49934 0
M  V30 4925 C 485.873 2.22494 2.83776 0
M  V30 4926 O 484.977 1.63607 3.78559 0
M  V30 4927 H 484.318 0.467892 0.47114 0
M  V30 4928 H 486.848 1.81587 0.942725 0
M  V30 4929 H 486.858 2.36045 3.32786 0
M  V30 4930 H 485.533 3.24993 2.59524 0
M  V30 4931 H 484.11 1.5915 3.37233 0
M  V30 4932 N 486.295 -0.989507 1.22664 0
M  V30 4933 C 487.525 -1.7624 1.0781 0
M  V30 4934 C 487.933 -1.85466 -0.374036 0
M  V30 4935 O 487.276 -1.32645 -1.27087 0
M  V30 4936 C 487.338 -3.21007 1.61849 0
M  V30 4937 C 487.002 -3.35316 3.10503 0
M  V30 4938 C 487.999 -3.22362 4.07896 0
M  V30 4939 C 485.684 -3.60258 3.50028 0
M  V30 4940 C 487.678 -3.34139 5.42798 0
M  V30 4941 C 485.365 -3.71676 4.85078 0
M  V30 4942 C 486.363 -3.58625 5.81272 0
M  V30 4943 O 486.051 -3.69655 7.1387 0
M  V30 4944 H 485.783 -0.560209 0.378341 0
M  V30 4945 H 488.337 -1.25252 1.62792 0
M  V30 4946 H 486.567 -3.73202 1.01279 0
M  V30 4947 H 488.256 -3.80024 1.42606 0
M  V30 4948 H 489.022 -3.03 3.78703 0
M  V30 4949 H 484.901 -3.69492 2.75675 0
M  V30 4950 H 488.445 -3.23869 6.17863 0
M  V30 4951 H 484.342 -3.90545 5.1395 0
M  V30 4952 H 485.11 -3.86507 7.21495 0
M  V30 4953 N 487.773 -1.03688 -1.18687 0
M  V30 4954 C 489.02 -0.73803 -1.88572 0
M  V30 4955 C 489.348 0.733973 -1.8012 0
M  V30 4956 O 488.603 1.55098 -1.19344 0
M  V30 4957 C 488.902 -1.14477 -3.3857 0
M  V30 4958 C 488.568 -2.61641 -3.67226 0
M  V30 4959 C 487.23 -3.01846 -3.74757 0
M  V30 4960 C 489.582 -3.56812 -3.79914 0
M  V30 4961 C 486.91 -4.36118 -3.92451 0
M  V30 4962 C 489.262 -4.90799 -3.99123 0
M  V30 4963 C 487.926 -5.3068 -4.04888 0
M  V30 4964 H 487.196 -0.270064 -0.690034 0
M  V30 4965 H 489.843 -1.3012 -1.40503 0
M  V30 4966 H 488.148 -0.500337 -3.88592 0
M  V30 4967 H 489.845 -0.89095 -3.90977 0
M  V30 4968 H 486.435 -2.29498 -3.61979 0
M  V30 4969 H 490.619 -3.26899 -3.73431 0
M  V30 4970 H 485.875 -4.66542 -3.95157 0
M  V30 4971 H 490.049 -5.64451 -4.07882 0
M  V30 4972 H 487.676 -6.34733 -4.18351 0
M  V30 4973 N 489.251 1.34841 -0.815825 0
M  V30 4974 C 490.183 2.28409 -0.190265 0
M  V30 4975 C 491.196 1.50705 0.615771 0
M  V30 4976 O 492.385 1.72822 0.446616 0
M  V30 4977 C 489.485 3.30441 0.752446 0
M  V30 4978 C 488.658 4.37399 -0.00922152 0
M  V30 4979 C 487.717 5.19234 0.853351 0
M  V30 4980 O 486.743 5.68404 0.300919 0
M  V30 4981 N 487.945 5.38248 2.17416 0
M  V30 4982 H 490.71 2.82732 -0.994114 0
M  V30 4983 H 488.271 1.47289 -0.672129 0
M  V30 4984 H 490.263 3.82084 1.33394 0
M  V30 4985 H 488.833 2.76565 1.45707 0
M  V30 4986 H 488.053 3.86567 -0.771979 0
M  V30 4987 H 489.341 5.05992 -0.533807 0
M  V30 4988 H 488.739 4.99961 2.6468 0
M  V30 4989 H 487.296 5.93035 2.70467 0
M  V30 4990 N 490.729 0.570148 1.46925 0
M  V30 4991 C 491.954 0.0542592 2.07329 0
M  V30 4992 C 492.379 -1.23582 1.41806 0
M  V30 4993 O 491.737 -1.74341 0.497479 0
M  V30 4994 C 491.785 -0.111175 3.60429 0
M  V30 4995 O 490.889 -1.17071 3.95434 0
M  V30 4996 H 490.23 0.0571425 0.661537 0
M  V30 4997 H 492.76 0.789516 1.88753 0
M  V30 4998 H 492.77 -0.321315 4.06733 0
M  V30 4999 H 491.445 0.831012 4.07513 0
M  V30 5000 H 490.022 -0.940029 3.60857 0
M  V30 5001 N 492.207 -1.54576 0.307264 0
M  V30 5002 C 493.137 -2.26708 -0.55907 0
M  V30 5003 C 494.118 -1.26893 -1.1328 0
M  V30 5004 O 495.303 -1.55677 -1.16097 0
M  V30 5005 C 492.433 -3.01259 -1.72801 0
M  V30 5006 C 491.387 -4.08275 -1.28435 0
M  V30 5007 C 490.713 -4.70575 -2.53895 0
M  V30 5008 C 492.013 -5.2068 -0.411038 0
M  V30 5009 H 493.707 -2.9937 0.042576 0
M  V30 5010 H 491.253 -1.43983 0.0219173 0
M  V30 5011 H 493.206 -3.50444 -2.34023 0
M  V30 5012 H 491.93 -2.26187 -2.356 0
M  V30 5013 H 490.589 -3.59949 -0.695161 0
M  V30 5014 H 490.237 -3.92136 -3.15021 0
M  V30 5015 H 489.937 -5.42854 -2.24908 0
M  V30 5016 H 491.461 -5.22527 -3.15908 0
M  V30 5017 H 492.875 -5.65721 -0.929097 0
M  V30 5018 H 491.272 -5.99716 -0.214664 0
M  V30 5019 H 492.342 -4.81629 0.562287 0
M  V30 5020 N 493.685 -0.035106 -1.57561 0
M  V30 5021 C 494.962 0.681212 -1.83354 0
M  V30 5022 C 495.342 1.89986 -0.920252 0
M  V30 5023 O 494.69 2.28489 0.0226815 0
M  V30 5024 C 494.9 1.05376 -3.32712 0
M  V30 5025 C 496.248 1.44286 -3.99333 0
M  V30 5026 O 497.272 1.14656 -3.37242 0
M  V30 5027 O 496.131 1.99518 -5.08778 0
M  V30 5028 H 493.225 0.334741 -0.756226 0
M  V30 5029 H 495.771 -0.0632448 -1.69582 0
M  V30 5030 H 494.543 0.186668 -3.90854 0
M  V30 5031 H 494.166 1.85619 -3.51613 0
M  V30 5032 N 495.163 1.55791 0.238111 0
M  V30 5033 C 496.574 1.68383 0.806472 0
M  V30 5034 C 496.925 0.634157 1.85669 0
M  V30 5035 O 496.05 -0.217913 2.153 0
M  V30 5036 C 496.645 3.05268 1.46959 0
M  V30 5037 C 495.204 3.1977 1.98555 0
M  V30 5038 C 494.351 2.64279 0.839763 0
M  V30 5039 H 497.302 1.58694 0.0137535 0
M  V30 5040 H 497.323 3.00203 2.33792 0
M  V30 5041 H 496.835 3.81643 0.704993 0
M  V30 5042 H 494.936 2.48234 2.77868 0
M  V30 5043 H 495.049 4.26788 2.17689 0
M  V30 5044 H 493.413 2.22329 1.24265 0
M  V30 5045 H 494.196 3.43187 0.0881032 0
M  V30 5046 N 496.642 -0.504142 1.49319 0
M  V30 5047 C 497.888 -1.25767 1.59857 0
M  V30 5048 C 498.243 -1.90348 0.280262 0
M  V30 5049 O 497.536 -1.77588 -0.719241 0
M  V30 5050 C 497.73 -2.35021 2.69258 0
M  V30 5051 C 497.559 -1.81154 4.11598 0
M  V30 5052 C 496.329 -1.62596 4.78425 0
M  V30 5053 C 498.527 -1.3252 4.96934 0
M  V30 5054 N 496.509 -1.03625 6.05091 0
M  V30 5055 C 497.88 -0.856633 6.14054 0
M  V30 5056 C 499.935 -1.21063 4.82958 0
M  V30 5057 C 498.638 -0.284841 7.18736 0
M  V30 5058 C 500.664 -0.652815 5.87786 0
M  V30 5059 C 500.026 -0.194461 7.04132 0
M  V30 5060 H 496.125 -0.450293 0.639343 0
M  V30 5061 H 498.709 -0.565344 1.86311 0
M  V30 5062 H 496.88 -3.01719 2.44581 0
M  V30 5063 H 498.612 -3.02061 2.69335 0
M  V30 5064 H 495.367 -1.86873 4.35173 0
M  V30 5065 H 495.791 -0.76076 6.72712 0
M  V30 5066 H 500.433 -1.551 3.93324 0
M  V30 5067 H 498.151 0.0677979 8.08072 0
M  V30 5068 H 501.737 -0.566994 5.79031 0
M  V30 5069 H 500.617 0.230442 7.83861 0
M  V30 5070 N 498.12 -1.38341 -0.754957 0
M  V30 5071 C 499.068 -1.35573 -1.89005 0
M  V30 5072 C 500.062 -0.241824 -1.67665 0
M  V30 5073 O 501.268 -0.410785 -1.7525 0
M  V30 5074 H 497.643 -0.422898 -0.621821 0
M  V30 5075 H 499.614 -2.31359 -1.88455 0
M  V30 5076 C 498.363 -1.19631 -3.26471 0
M  V30 5077 H 497.686 -2.04605 -3.43477 0
M  V30 5078 H 499.126 -1.21748 -4.06144 0
M  V30 5079 C 497.585 0.0968705 -3.36761 0
M  V30 5080 O 498.115 1.07439 -3.87066 0
M  V30 5081 N 496.321 0.153242 -2.90196 0
M  V30 5082 H 495.868 -0.642908 -2.49448 0
M  V30 5083 H 495.826 1.01807 -2.9746 0
M  V30 5084 N 499.598 0.982988 -1.23187 0
M  V30 5085 C 500.546 2.09616 -1.00817 0
M  V30 5086 C 501.54 1.6932 0.0519995 0
M  V30 5087 O 502.746 1.79715 -0.101284 0
M  V30 5088 H 499.121 0.685628 -0.308899 0
M  V30 5089 H 501.092 2.25652 -1.95253 0
M  V30 5090 C 499.841 3.42249 -0.613243 0
M  V30 5091 H 499.164 3.73705 -1.42073 0
M  V30 5092 H 500.604 4.21086 -0.496208 0
M  V30 5093 C 499.063 3.30002 0.678233 0
M  V30 5094 O 499.593 3.6263 1.72807 0
M  V30 5095 N 497.799 2.83164 0.653165 0
M  V30 5096 H 497.346 2.56811 -0.201492 0
M  V30 5097 H 497.304 2.75352 1.51752 0
M  V30 5098 N 501.076 1.04316 1.18135 0
M  V30 5099 C 502.301 0.768047 1.92655 0
M  V30 5100 C 502.726 -0.66904 1.758 0
M  V30 5101 O 502.084 -1.46372 1.06981 0
M  V30 5102 C 502.132 1.14239 3.42026 0
M  V30 5103 O 501.236 0.269333 4.1152 0
M  V30 5104 H 500.577 0.282436 0.600937 0
M  V30 5105 H 503.107 1.39367 1.49793 0
M  V30 5106 H 503.117 1.10538 3.92741 0
M  V30 5107 H 501.792 2.18928 3.53615 0
M  V30 5108 H 500.369 0.366175 3.71098 0
M  V30 5109 N 502.554 -1.34406 0.822964 0
M  V30 5110 C 503.97 -1.51275 0.508727 0
M  V30 5111 C 504.17 -1.76776 -0.967083 0
M  V30 5112 O 503.226 -1.81871 -1.75155 0
M  V30 5113 C 504.539 -2.67765 1.36829 0
M  V30 5114 C 506.087 -2.81647 1.36542 0
M  V30 5115 C 506.562 -4.01181 2.20947 0
M  V30 5116 N 508.053 -4.08388 2.18571 0
M  V30 5117 C 508.788 -5.00036 2.80627 0
M  V30 5118 N 508.284 -5.96906 3.51674 0
M  V30 5119 N 510.077 -4.92908 2.70181 0
M  V30 5120 H 502.228 -1.16113 1.77852 0
M  V30 5121 H 504.491 -0.56947 0.757897 0
M  V30 5122 H 504.197 -2.55551 2.41633 0
M  V30 5123 H 504.071 -3.62779 1.03303 0
M  V30 5124 H 506.458 -2.93303 0.325163 0
M  V30 5125 H 506.539 -1.87443 1.74066 0
M  V30 5126 H 506.183 -3.90286 3.25022 0
M  V30 5127 H 506.113 -4.94599 1.80774 0
M  V30 5128 H 508.604 -3.39051 1.66891 0
M  V30 5129 H 508.917 -6.63468 3.96271 0
M  V30 5130 H 507.262 -5.9703 3.5578 0
M  V30 5131 H 510.453 -4.1619 2.14251 0
M  V30 5132 H 510.626 -5.64137 3.18831 0
M  V30 5133 N 504.032 -0.577932 -1.46621 0
M  V30 5134 C 504.98 0.170882 -2.31971 0
M  V30 5135 C 505.974 0.889086 -1.44193 0
M  V30 5136 O 507.18 0.808017 -1.60845 0
M  V30 5137 H 503.555 0.0739763 -0.748353 0
M  V30 5138 H 505.526 -0.567856 -2.92947 0
M  V30 5139 C 504.275 1.17438 -3.27267 0
M  V30 5140 H 503.598 0.63116 -3.94787 0
M  V30 5141 H 505.038 1.66882 -3.89778 0
M  V30 5142 C 503.497 2.23292 -2.52274 0
M  V30 5143 O 504.027 3.30567 -2.28229 0
M  V30 5144 N 502.233 1.97772 -2.12919 0
M  V30 5145 H 501.78 1.10545 -2.32675 0
M  V30 5146 H 501.738 2.68809 -1.63062 0
M  V30 5147 N 505.51 1.54411 -0.315457 0
M  V30 5148 C 506.921 1.85885 0.174265 0
M  V30 5149 C 507.272 1.23723 1.52273 0
M  V30 5150 O 506.397 0.540246 2.09548 0
M  V30 5151 C 506.992 3.37257 0.322981 0
M  V30 5152 C 505.551 3.68711 0.756922 0
M  V30 5153 C 504.698 2.77013 -0.126195 0
M  V30 5154 H 507.649 1.49374 -0.536007 0
M  V30 5155 H 507.67 3.62539 1.15522 0
M  V30 5156 H 507.182 3.82471 -0.658602 0
M  V30 5157 H 505.283 3.29024 1.74854 0
M  V30 5158 H 505.396 4.75741 0.566291 0
M  V30 5159 H 503.76 2.51588 0.39692 0
M  V30 5160 H 504.543 3.25051 -1.1044 0
M  V30 5161 N 506.988 0.0434614 1.5754 0
M  V30 5162 C 508.234 -0.627109 1.93491 0
M  V30 5163 C 508.589 -1.68904 0.921362 0
M  V30 5164 O 507.882 -1.91504 -0.0605799 0
M  V30 5165 C 508.076 -1.2738 3.3393 0
M  V30 5166 C 507.905 -0.27603 4.48852 0
M  V30 5167 C 506.675 0.129244 5.05135 0
M  V30 5168 C 508.873 0.475462 5.12098 0
M  V30 5169 N 506.855 1.12068 6.03584 0
M  V30 5170 C 508.226 1.32021 6.05781 0
M  V30 5171 C 510.281 0.534611 4.95022 0
M  V30 5172 C 508.984 2.2188 6.84223 0
M  V30 5173 C 511.01 1.42059 5.74085 0
M  V30 5174 C 510.372 2.25309 6.67394 0
M  V30 5175 H 506.471 -0.201354 0.755633 0
M  V30 5176 H 509.055 0.113991 1.94366 0
M  V30 5177 H 507.226 -1.98496 3.33847 0
M  V30 5178 H 508.958 -1.90255 3.57191 0
M  V30 5179 H 505.713 -0.248145 4.72949 0
M  V30 5180 H 506.137 1.61306 6.57502 0
M  V30 5181 H 510.779 -0.0947817 4.22694 0
M  V30 5182 H 508.497 2.85868 7.55847 0
M  V30 5183 H 512.083 1.47083 5.62901 0
M  V30 5184 H 510.963 2.92754 7.27506 0
M  V30 5185 N 508.466 -1.55915 -0.229846 0
M  V30 5186 C 509.713 -1.78542 -0.955452 0
M  V30 5187 C 510.041 -0.610785 -1.84661 0
M  V30 5188 O 509.296 0.405213 -1.91459 0
M  V30 5189 C 509.595 -3.06845 -1.8325 0
M  V30 5190 C 509.261 -4.37395 -1.09528 0
M  V30 5191 C 507.923 -4.72868 -0.891598 0
M  V30 5192 C 510.275 -5.18029 -0.574046 0
M  V30 5193 C 507.603 -5.86496 -0.154655 0
M  V30 5194 C 509.955 -6.32423 0.149513 0
M  V30 5195 C 508.619 -6.66504 0.364519 0
M  V30 5196 H 507.889 -0.653333 -0.349625 0
M  V30 5197 H 510.536 -1.90183 -0.224235 0
M  V30 5198 H 508.841 -2.90291 -2.63132 0
M  V30 5199 H 510.538 -3.21553 -2.39592 0
M  V30 5200 H 507.128 -4.09538 -1.26399 0
M  V30 5201 H 511.312 -4.91066 -0.718899 0
M  V30 5202 H 506.568 -6.11396 0.0222356 0
M  V30 5203 H 510.742 -6.94137 0.560947 0
M  V30 5204 H 508.369 -7.54397 0.937495 0
M  V30 5205 N 509.944 0.496216 -1.49584 0
M  V30 5206 C 511.36 0.827814 -1.36453 0
M  V30 5207 C 511.56 1.97464 -0.401285 0
M  V30 5208 O 510.616 2.51958 0.165296 0
M  V30 5209 C 511.929 1.16352 -2.77277 0
M  V30 5210 C 513.477 1.27145 -2.86013 0
M  V30 5211 C 513.952 1.64042 -4.27615 0
M  V30 5212 N 515.443 1.71082 -4.30448 0
M  V30 5213 C 516.178 2.01085 -5.36984 0
M  V30 5214 N 515.674 2.2928 -6.5376 0
M  V30 5215 N 517.467 2.02376 -5.24405 0
M  V30 5216 H 509.618 -0.259947 -2.10803 0
M  V30 5217 H 511.881 -0.0537163 -0.946477 0
M  V30 5218 H 511.587 0.394153 -3.49484 0
M  V30 5219 H 511.461 2.10582 -3.12946 0
M  V30 5220 H 513.848 2.03152 -2.1404 0
M  V30 5221 H 513.929 0.309542 -2.5392 0
M  V30 5222 H 513.573 0.88583 -5.00115 0
M  V30 5223 H 513.503 2.6134 -4.57175 0
M  V30 5224 H 515.994 1.51434 -3.46232 0
M  V30 5225 H 516.307 2.51376 -7.30774 0
M  V30 5226 H 514.652 2.26726 -6.56978 0
M  V30 5227 H 517.843 1.79829 -4.32179 0
M  V30 5228 H 518.016 2.25425 -6.07526 0
M  V30 5229 N 511.423 1.38739 0.74761 0
M  V30 5230 C 512.333 1.38696 1.89211 0
M  V30 5231 C 513.349 0.283303 1.71678 0
M  V30 5232 O 514.525 0.522713 1.94498 0
M  V30 5233 C 511.59 1.21662 3.24653 0
M  V30 5234 C 510.651 2.41886 3.54669 0
M  V30 5235 C 509.884 2.25655 4.83648 0
M  V30 5236 O 510.107 1.25339 5.56459 0
M  V30 5237 O 509.041 3.14372 5.13277 0
M  V30 5238 H 512.867 2.35143 1.92202 0
M  V30 5239 H 510.452 1.19721 0.893708 0
M  V30 5240 H 512.334 1.14246 4.05618 0
M  V30 5241 H 511.009 0.283024 3.2246 0
M  V30 5242 H 509.916 2.54877 2.73841 0
M  V30 5243 H 511.249 3.33895 3.61628 0
M  V30 5244 N 512.901 -0.976442 1.23707 0
M  V30 5245 C 514.148 -1.71827 1.07153 0
M  V30 5246 C 514.476 -1.9053 -0.390982 0
M  V30 5247 O 513.731 -1.45779 -1.30564 0
M  V30 5248 C 514.03 -3.11814 1.74662 0
M  V30 5249 C 513.696 -3.12978 3.24585 0
M  V30 5250 C 512.358 -3.13003 3.6549 0
M  V30 5251 C 514.71 -3.07986 4.20469 0
M  V30 5252 C 512.038 -3.05757 5.00729 0
M  V30 5253 C 514.39 -3.02282 5.55705 0
M  V30 5254 C 513.054 -3.00631 5.95968 0
M  V30 5255 H 512.324 -0.628758 0.392102 0
M  V30 5256 H 514.971 -1.14239 1.53693 0
M  V30 5257 H 513.276 -3.72812 1.20492 0
M  V30 5258 H 514.973 -3.67989 1.59328 0
M  V30 5259 H 511.563 -3.13718 2.92026 0
M  V30 5260 H 515.747 -3.07103 3.89874 0
M  V30 5261 H 511.003 -3.02834 5.31132 0
M  V30 5262 H 515.177 -2.97376 6.29714 0
M  V30 5263 H 512.804 -2.94771 7.00724 0
M  V30 5264 N 514.379 -1.04941 -1.1758 0
M  V30 5265 C 515.625 -0.768896 -1.88307 0
M  V30 5266 C 515.98 0.696361 -1.79356 0
M  V30 5267 O 515.273 1.50245 -1.18899 0
M  V30 5268 C 515.467 -1.18062 -3.37337 0
M  V30 5269 C 515.296 -2.68436 -3.60794 0
M  V30 5270 C 514.066 -3.35709 -3.77661 0
M  V30 5271 C 516.264 -3.66657 -3.60649 0
M  V30 5272 N 514.246 -4.74974 -3.88939 0
M  V30 5273 C 515.617 -4.91638 -3.77747 0
M  V30 5274 C 517.672 -3.60162 -3.43785 0
M  V30 5275 C 516.375 -6.10902 -3.79726 0
M  V30 5276 C 518.401 -4.78863 -3.47051 0
M  V30 5277 C 517.763 -6.02666 -3.64654 0
M  V30 5278 H 513.862 -0.33355 -0.707296 0
M  V30 5279 H 516.446 -1.34085 -1.41171 0
M  V30 5280 H 514.617 -0.636648 -3.83147 0
M  V30 5281 H 516.349 -0.8502 -3.95669 0
M  V30 5282 H 513.104 -2.8611 -3.77409 0
M  V30 5283 H 513.528 -5.47378 -3.98379 0
M  V30 5284 H 518.17 -2.65412 -3.29114 0
M  V30 5285 H 515.888 -7.05998 -3.93182 0
M  V30 5286 H 519.474 -4.75488 -3.35265 0
M  V30 5287 H 518.354 -6.92979 -3.67083 0
M  V30 5288 N 515.857 1.33968 -0.830081 0
M  V30 5289 C 516.767 2.33164 -0.259207 0
M  V30 5290 C 517.783 1.62951 0.610164 0
M  V30 5291 O 518.959 1.94668 0.516369 0
M  V30 5292 C 516.024 3.42088 0.563598 0
M  V30 5293 C 515.085 4.28037 -0.329014 0
M  V30 5294 C 514.318 5.3176 0.454616 0
M  V30 5295 O 514.541 5.44876 1.6872 0
M  V30 5296 O 513.475 6.01669 -0.166794 0
M  V30 5297 H 517.301 2.83832 -1.08041 0
M  V30 5298 H 514.886 1.37154 -0.59239 0
M  V30 5299 H 516.768 4.08581 1.03147 0
M  V30 5300 H 515.443 2.93651 1.36201 0
M  V30 5301 H 514.35 3.64443 -0.844538 0
M  V30 5302 H 515.683 4.79934 -1.09196 0
M  V30 5303 N 517.335 0.585699 1.46312 0
M  V30 5304 C 518.267 -0.183687 2.28463 0
M  V30 5305 C 519.28 -0.85264 1.38686 0
M  V30 5306 O 520.469 -0.721701 1.6326 0
M  V30 5307 C 517.569 -1.27977 3.13808 0
M  V30 5308 C 516.742 -0.702164 4.31727 0
M  V30 5309 C 515.801 -1.68633 4.98447 0
M  V30 5310 O 514.827 -1.22121 5.55945 0
M  V30 5311 N 516.029 -3.02047 4.95729 0
M  V30 5312 H 518.794 0.521127 2.95134 0
M  V30 5313 H 516.355 0.423673 1.56258 0
M  V30 5314 H 518.347 -1.9375 3.55307 0
M  V30 5315 H 516.917 -1.8874 2.4919 0
M  V30 5316 H 516.137 0.1331 3.93975 0
M  V30 5317 H 517.425 -0.296101 5.07938 0
M  V30 5318 H 516.823 -3.42457 4.50266 0
M  V30 5319 H 515.38 -3.63301 5.41161 0
M  V30 5320 N 518.813 -1.54241 0.323641 0
M  V30 5321 C 520.229 -1.59574 -0.0290018 0
M  V30 5322 C 520.429 -1.34017 -1.50472 0
M  V30 5323 O 519.485 -1.12464 -2.26071 0
M  V30 5324 C 520.798 -2.98169 0.389295 0
M  V30 5325 C 522.346 -3.11148 0.339958 0
M  V30 5326 C 522.821 -4.5209 0.733418 0
M  V30 5327 N 524.312 -4.5808 0.686827 0
M  V30 5328 C 525.047 -5.65248 0.963464 0
M  V30 5329 N 524.543 -6.80355 1.30724 0
M  V30 5330 N 526.336 -5.55025 0.88902 0
M  V30 5331 H 518.487 -1.6911 1.28512 0
M  V30 5332 H 520.75 -0.790972 0.522558 0
M  V30 5333 H 520.456 -3.21871 1.41746 0
M  V30 5334 H 520.33 -3.76399 -0.245657 0
M  V30 5335 H 522.717 -2.87182 -0.679002 0
M  V30 5336 H 522.798 -2.35023 1.00985 0
M  V30 5337 H 522.442 -4.76788 1.75029 0
M  V30 5338 H 522.372 -5.26584 0.0412189 0
M  V30 5339 H 524.863 -3.75411 0.43298 0
M  V30 5340 H 525.176 -7.58029 1.5037 0
M  V30 5341 H 523.521 -6.81851 1.3455 0
M  V30 5342 H 526.712 -4.63977 0.619939 0
M  V30 5343 H 526.885 -6.38458 1.10797 0
M  V30 5344 N 520.291 -0.0518155 -1.57515 0
M  V30 5345 C 521.538 0.621823 -1.92716 0
M  V30 5346 C 521.866 1.70813 -0.930229 0
M  V30 5347 O 521.121 1.95616 0.0573708 0
M  V30 5348 C 521.42 1.25607 -3.34601 0
M  V30 5349 C 521.086 0.297901 -4.49915 0
M  V30 5350 C 519.748 0.034243 -4.81188 0
M  V30 5351 C 522.1 -0.358738 -5.19964 0
M  V30 5352 C 519.428 -0.893479 -5.79857 0
M  V30 5353 C 521.78 -1.27466 -6.19625 0
M  V30 5354 C 520.444 -1.54698 -6.49326 0
M  V30 5355 H 519.714 0.227541 -0.705199 0
M  V30 5356 H 522.361 -0.118432 -1.91133 0
M  V30 5357 H 520.666 2.07161 -3.32553 0
M  V30 5358 H 522.363 1.78424 -3.59118 0
M  V30 5359 H 518.953 0.513581 -4.25512 0
M  V30 5360 H 523.137 -0.168133 -4.96015 0
M  V30 5361 H 518.393 -1.11193 -6.01204 0
M  V30 5362 H 522.567 -1.78953 -6.73015 0
M  V30 5363 H 520.194 -2.26748 -7.25596 0
M  V30 5364 N 521.769 1.56035 0.221574 0
M  V30 5365 C 523.185 1.49026 0.571271 0
M  V30 5366 C 523.385 0.746912 1.87146 0
M  V30 5367 O 522.441 0.286566 2.50869 0
M  V30 5368 C 523.754 2.93579 0.650522 0
M  V30 5369 C 525.302 3.04099 0.741151 0
M  V30 5370 C 525.777 4.5001 0.851747 0
M  V30 5371 N 527.268 4.54053 0.915968 0
M  V30 5372 C 528.003 5.64232 1.02125 0
M  V30 5373 N 527.499 6.84164 1.09049 0
M  V30 5374 N 529.292 5.52084 1.05639 0
M  V30 5375 H 521.443 2.02791 -0.63162 0
M  V30 5376 H 523.706 0.921736 -0.221602 0
M  V30 5377 H 523.412 3.50912 -0.235253 0
M  V30 5378 H 523.286 3.45476 1.51413 0
M  V30 5379 H 525.673 2.4683 1.61737 0
M  V30 5380 H 525.754 2.55371 -0.148128 0
M  V30 5381 H 525.398 5.07896 -0.0200117 0
M  V30 5382 H 525.328 4.96444 1.75644 0
M  V30 5383 H 527.819 3.67683 0.872782 0
M  V30 5384 H 528.132 7.63883 1.1706 0
M  V30 5385 H 526.477 6.86875 1.05962 0
M  V30 5386 H 529.668 4.57317 0.998953 0
M  V30 5387 H 529.841 6.37983 1.13498 0
M  V30 5388 N 523.247 -0.488276 1.49845 0
M  V30 5389 C 524.487 -1.2516 1.61599 0
M  V30 5390 C 524.851 -1.89615 0.301706 0
M  V30 5391 O 526.052 -2.67182 0.29453 0
M  V30 5392 C 524.323 -2.2805 2.75187 0
M  V30 5393 S 525.882 -3.13552 3.0697 0
M  V30 5394 H 522.7 -0.425178 0.569864 0
M  V30 5395 H 525.302 -0.551545 1.87559 0
M  V30 5396 H 524.006 -1.7925 3.69185 0
M  V30 5397 H 523.537 -3.02708 2.5126 0
M  V30 5398 H 525.552 -4.28927 2.49471 0
M  V30 5399 N 524.725 -1.39134 -0.740242 0
M  V30 5400 C 525.95 -1.39518 -1.53459 0
M  V30 5401 C 526.375 0.00968883 -1.88098 0
M  V30 5402 O 525.733 0.995312 -1.51536 0
M  V30 5403 C 525.781 -2.26981 -2.802 0
M  V30 5404 O 524.885 -1.69609 -3.75908 0
M  V30 5405 H 524.226 -0.475328 -0.463637 0
M  V30 5406 H 526.756 -1.83064 -0.913717 0
M  V30 5407 H 526.766 -2.41309 -3.28989 0
M  V30 5408 H 525.441 -3.29081 -2.5432 0
M  V30 5409 H 524.018 -1.64495 -3.34658 0
M  V30 5410 N 526.204 0.969867 -1.24223 0
M  V30 5411 C 527.451 1.71256 -1.08063 0
M  V30 5412 C 527.779 1.90734 0.380872 0
M  V30 5413 O 527.034 1.46469 1.29789 0
M  V30 5414 C 527.333 3.10883 -1.76314 0
M  V30 5415 C 526.999 3.11252 -3.26241 0
M  V30 5416 C 525.661 3.1106 -3.67144 0
M  V30 5417 C 528.013 3.05751 -4.22097 0
M  V30 5418 C 525.341 3.03097 -5.02344 0
M  V30 5419 C 527.693 2.9933 -5.57301 0
M  V30 5420 C 526.357 2.97466 -5.97554 0
M  V30 5421 H 525.627 0.62667 -0.395431 0
M  V30 5422 H 528.274 1.13422 -1.54297 0
M  V30 5423 H 526.579 3.72168 -1.22468 0
M  V30 5424 H 528.276 3.67138 -1.61277 0
M  V30 5425 H 524.866 3.12165 -2.93685 0
M  V30 5426 H 529.05 3.05031 -3.91497 0
M  V30 5427 H 524.306 3.00013 -5.32731 0
M  V30 5428 H 528.48 2.94033 -6.31283 0
M  V30 5429 H 526.107 2.91051 -7.02277 0
M  V30 5430 N 527.682 1.05563 1.17022 0
M  V30 5431 C 529.098 0.777684 1.39371 0
M  V30 5432 C 529.298 -0.626269 1.91521 0
M  V30 5433 O 528.354 -1.38806 2.10924 0
M  V30 5434 C 529.667 1.83642 2.3811 0
M  V30 5435 C 531.215 1.85907 2.51809 0
M  V30 5436 C 531.69 2.90813 3.53824 0
M  V30 5437 N 533.181 2.898 3.61345 0
M  V30 5438 C 533.916 3.6762 4.40049 0
M  V30 5439 N 533.412 4.55237 5.22237 0
M  V30 5440 N 535.205 3.56044 4.34959 0
M  V30 5441 H 527.356 1.9614 0.815047 0
M  V30 5442 H 529.619 0.849527 0.420722 0
M  V30 5443 H 529.325 2.84425 2.06871 0
M  V30 5444 H 529.199 1.6812 3.37662 0
M  V30 5445 H 531.586 0.857865 2.82356 0
M  V30 5446 H 531.667 2.05506 1.52318 0
M  V30 5447 H 531.311 3.91122 3.24015 0
M  V30 5448 H 531.241 2.68465 4.53028 0
M  V30 5449 H 533.732 2.26274 3.02669 0
M  V30 5450 H 534.045 5.11291 5.79484 0
M  V30 5451 H 532.39 4.59296 5.21605 0
M  V30 5452 H 535.581 2.86986 3.69806 0
M  V30 5453 H 535.754 4.16938 4.96051 0
M  V30 5454 N 529.16 -1.33526 0.837174 0
M  V30 5455 C 530.092 -2.28077 0.226579 0
M  V30 5456 C 531.105 -1.51666 -0.591717 0
M  V30 5457 O 532.294 -1.73511 -0.419064 0
M  V30 5458 C 529.394 -3.31597 -0.69978 0
M  V30 5459 C 528.567 -4.37329 0.0788067 0
M  V30 5460 C 527.626 -5.20526 -0.770637 0
M  V30 5461 O 526.652 -5.68811 -0.210453 0
M  V30 5462 N 527.854 -5.41639 -2.08825 0
M  V30 5463 H 530.619 -2.81115 1.03897 0
M  V30 5464 H 528.18 -1.46201 0.695476 0
M  V30 5465 H 530.172 -3.84158 -1.27298 0
M  V30 5466 H 528.742 -2.78848 -1.41288 0
M  V30 5467 H 527.962 -3.8529 0.833381 0
M  V30 5468 H 529.25 -5.05079 0.614238 0
M  V30 5469 H 528.648 -5.04108 -2.56693 0
M  V30 5470 H 527.205 -5.97263 -2.60998 0
M  V30 5471 N 530.638 -0.59345 -1.46 0
M  V30 5472 C 532.054 -0.255965 -1.57534 0
M  V30 5473 C 532.254 1.24167 -1.58697 0
M  V30 5474 O 531.31 2.02398 -1.50968 0
M  V30 5475 C 532.623 -0.91466 -2.86451 0
M  V30 5476 C 534.171 -0.889253 -3.00102 0
M  V30 5477 C 534.646 -1.52769 -4.3177 0
M  V30 5478 N 536.137 -1.49253 -4.38495 0
M  V30 5479 C 536.872 -1.9558 -5.39014 0
M  V30 5480 N 536.368 -2.49929 -6.46148 0
M  V30 5481 N 538.161 -1.86432 -5.30282 0
M  V30 5482 H 530.312 -1.56604 -1.43489 0
M  V30 5483 H 532.575 -0.655207 -0.685133 0
M  V30 5484 H 532.281 -1.96861 -2.91442 0
M  V30 5485 H 532.155 -0.429356 -3.74748 0
M  V30 5486 H 534.542 0.156111 -2.94687 0
M  V30 5487 H 534.623 -1.41268 -2.13253 0
M  V30 5488 H 534.267 -2.57231 -4.37944 0
M  V30 5489 H 534.197 -0.979398 -5.17412 0
M  V30 5490 H 536.688 -1.09536 -3.61677 0
M  V30 5491 H 537.001 -2.83109 -7.19075 0
M  V30 5492 H 535.346 -2.53961 -6.46938 0
M  V30 5493 H 538.537 -1.43722 -4.4549 0
M  V30 5494 H 538.71 -2.22852 -6.08474 0
M  V30 5495 N 532.116 1.54067 -0.331816 0
M  V30 5496 C 533.393 1.92915 0.322955 0
M  V30 5497 C 533.773 1.26225 1.69205 0
M  V30 5498 O 533.121 0.408919 2.24811 0
M  V30 5499 C 533.331 3.46619 0.406946 0
M  V30 5500 C 534.679 4.19386 0.663339 0
M  V30 5501 O 535.703 3.5282 0.489536 0
M  V30 5502 O 534.562 5.37288 0.999193 0
M  V30 5503 H 531.656 0.805808 0.186016 0
M  V30 5504 H 534.202 1.65342 -0.382135 0
M  V30 5505 H 532.974 3.87354 -0.554287 0
M  V30 5506 H 532.597 3.80324 1.15929 0
M  V30 5507 N 533.594 0.0601682 1.57485 0
M  V30 5508 C 534.834 -0.615384 1.94916 0
M  V30 5509 C 535.198 -1.67475 0.938948 0
M  V30 5510 O 536.399 -2.40502 1.20051 0
M  V30 5511 C 534.67 -1.18788 3.37082 0
M  V30 5512 S 536.229 -1.88018 3.96478 0
M  V30 5513 H 533.047 -0.201821 0.681754 0
M  V30 5514 H 535.649 0.131252 1.95059 0
M  V30 5515 H 534.353 -0.404869 4.08398 0
M  V30 5516 H 533.884 -1.97114 3.40455 0
M  V30 5517 H 535.899 -3.16161 3.82435 0
M  V30 5518 N 535.072 -1.5615 -0.213296 0
M  V30 5519 C 536.035 -1.92249 -1.24792 0
M  V30 5520 C 537.035 -0.801828 -1.39382 0
M  V30 5521 O 538.225 -1.06948 -1.37506 0
M  V30 5522 C 535.357 -2.18056 -2.62039 0
M  V30 5523 H 536.55 -2.84793 -0.939845 0
M  V30 5524 H 534.103 -1.49559 -0.454062 0
M  V30 5525 H 534.838 -1.2809 -2.97932 0
M  V30 5526 H 534.623 -2.99703 -2.52825 0
M  V30 5527 H 536.113 -2.47051 -3.36683 0
M  V30 5528 N 536.55 0.480323 -1.50102 0
M  V30 5529 C 537.513 1.56181 -1.6775 0
M  V30 5530 C 538.513 1.51156 -0.548503 0
M  V30 5531 O 539.703 1.5394 -0.815363 0
M  V30 5532 C 536.835 2.95823 -1.69415 0
M  V30 5533 H 538.028 1.41855 -2.6423 0
M  V30 5534 H 535.581 0.70605 -1.39444 0
M  V30 5535 H 536.316 3.15604 -0.745948 0
M  V30 5536 H 536.101 3.00878 -2.51425 0
M  V30 5537 H 537.591 3.74359 -1.85054 0
M  V30 5538 N 538.028 1.39524 0.732853 0
M  V30 5539 C 538.978 1.34905 1.83806 0
M  V30 5540 C 539.962 0.229546 1.59254 0
M  V30 5541 O 541.154 0.467255 1.70721 0
M  V30 5542 C 538.283 1.19699 3.21756 0
M  V30 5543 C 537.369 2.36359 3.5213 0
M  V30 5544 N 537.76 3.61834 3.53426 0
M  V30 5545 C 536.058 2.29363 3.82503 0
M  V30 5546 C 536.759 4.38992 3.81655 0
M  V30 5547 N 535.735 3.68606 3.99538 0
M  V30 5548 H 539.537 2.29882 1.83116 0
M  V30 5549 H 537.051 1.33051 0.931194 0
M  V30 5550 H 539.048 1.14472 4.00876 0
M  V30 5551 H 537.708 0.256739 3.23683 0
M  V30 5552 H 538.719 3.95228 3.34686 0
M  V30 5553 H 535.396 1.43612 3.92023 0
M  V30 5554 H 536.786 5.47763 3.89108 0
M  V30 5555 N 539.506 -0.963266 1.24736 0
M  V30 5556 C 540.731 -1.74699 1.11781 0
M  V30 5557 C 541.156 -1.85267 -0.325258 0
M  V30 5558 O 540.514 -1.32681 -1.23553 0
M  V30 5559 C 540.562 -3.14322 1.76731 0
M  V30 5560 O 539.666 -3.99043 1.04109 0
M  V30 5561 H 539.007 -0.53684 0.390767 0
M  V30 5562 H 541.537 -1.20801 1.65131 0
M  V30 5563 H 541.547 -3.64824 1.82668 0
M  V30 5564 H 540.222 -3.05946 2.81726 0
M  V30 5565 H 538.799 -3.5752 1.05991 0
M  V30 5566 N 540.985 -1.06182 -1.16461 0
M  V30 5567 C 541.915 -0.692861 -2.22984 0
M  V30 5568 C 542.896 0.314122 -1.67174 0
M  V30 5569 O 544.081 0.189499 -1.93273 0
M  V30 5570 C 541.211 -0.07732 -3.47214 0
M  V30 5571 C 540.165 -1.01015 -4.15909 0
M  V30 5572 C 539.491 -0.257973 -5.34077 0
M  V30 5573 C 540.791 -2.33868 -4.67015 0
M  V30 5574 H 542.485 -1.58343 -2.54102 0
M  V30 5575 H 540.031 -0.76279 -1.22137 0
M  V30 5576 H 541.984 0.19266 -4.20959 0
M  V30 5577 H 540.708 0.848254 -3.15392 0
M  V30 5578 H 539.367 -1.26486 -3.44088 0
M  V30 5579 H 539.015 0.670684 -4.98509 0
M  V30 5580 H 538.715 -0.879638 -5.80979 0
M  V30 5581 H 540.239 0.00448788 -6.106 0
M  V30 5582 H 541.653 -2.1279 -5.32347 0
M  V30 5583 H 540.05 -2.91522 -5.24533 0
M  V30 5584 H 541.12 -2.97019 -3.83286 0
M  V30 5585 N 542.463 1.3308 -0.844243 0
M  V30 5586 C 543.879 1.50447 -0.532729 0
M  V30 5587 C 544.079 1.78292 0.938837 0
M  V30 5588 O 543.135 1.84635 1.72239 0
M  V30 5589 C 544.448 2.65555 -1.41072 0
M  V30 5590 C 545.996 2.7944 -1.41005 0
M  V30 5591 C 546.471 3.97616 -2.27301 0
M  V30 5592 N 547.962 4.0486 -2.2504 0
M  V30 5593 C 548.697 4.95508 -2.88547 0
M  V30 5594 N 548.193 5.91236 -3.61126 0
M  V30 5595 N 549.986 4.88548 -2.77989 0
M  V30 5596 H 542.137 1.13269 -1.79677 0
M  V30 5597 H 544.4 0.55734 -0.766861 0
M  V30 5598 H 544.106 2.51675 -2.45668 0
M  V30 5599 H 543.98 3.61089 -1.09061 0
M  V30 5600 H 546.367 2.92749 -0.371784 0
M  V30 5601 H 546.448 1.8465 -1.77026 0
M  V30 5602 H 546.092 3.85066 -3.3119 0
M  V30 5603 H 546.022 4.91661 -1.88619 0
M  V30 5604 H 548.513 3.36353 -1.72264 0
M  V30 5605 H 548.826 6.57079 -4.06776 0
M  V30 5606 H 547.171 5.91295 -3.65234 0
M  V30 5607 H 550.362 4.12729 -2.20846 0
M  V30 5608 H 550.535 5.58994 -3.27765 0
M  V30 5609 N 543.941 0.601185 1.45683 0
M  V30 5610 C 544.904 -0.111398 2.28929 0
M  V30 5611 C 545.904 -0.801246 1.39416 0
M  V30 5612 O 547.094 -0.650383 1.61603 0
M  V30 5613 C 544.226 -1.16773 3.20276 0
M  V30 5614 H 545.419 0.620412 2.93413 0
M  V30 5615 H 542.972 0.359946 1.52099 0
M  V30 5616 H 543.707 -1.93051 2.60579 0
M  V30 5617 H 543.492 -0.677358 3.86205 0
M  V30 5618 H 544.982 -1.66698 3.82886 0
M  V30 5619 N 545.419 -1.53889 0.339982 0
M  V30 5620 C 546.665 -2.01152 -0.258003 0
M  V30 5621 C 546.998 -1.22749 -1.50487 0
M  V30 5622 O 546.273 -0.314156 -1.91946 0
M  V30 5623 C 546.556 -3.55468 -0.575717 0
M  V30 5624 C 546.409 -4.44584 0.682996 0
M  V30 5625 C 547.728 -4.1768 -1.38677 0
M  V30 5626 H 544.847 -0.731198 -0.0922992 0
M  V30 5627 H 547.489 -1.84352 0.459814 0
M  V30 5628 H 545.639 -3.69914 -1.18725 0
M  V30 5629 H 547.311 -4.41981 1.32102 0
M  V30 5630 H 545.554 -4.13592 1.3086 0
M  V30 5631 H 546.225 -5.5043 0.416001 0
M  V30 5632 H 548.701 -4.0691 -0.869705 0
M  V30 5633 H 547.577 -5.25734 -1.57783 0
M  V30 5634 H 547.838 -3.72069 -2.38782 0
M  V30 5635 N 546.897 -0.0685191 -1.57451 0
M  V30 5636 C 548.308 0.464634 -1.80826 0
M  V30 5637 C 548.659 1.69847 -0.982169 0
M  V30 5638 O 547.784 2.15439 -0.203734 0
M  V30 5639 C 548.379 0.849721 -3.27971 0
M  V30 5640 C 546.938 1.32776 -3.52204 0
M  V30 5641 C 546.085 0.311332 -2.75547 0
M  V30 5642 H 549.036 -0.294248 -1.55948 0
M  V30 5643 H 549.057 1.71138 -3.39841 0
M  V30 5644 H 548.569 -0.0484736 -3.8807 0
M  V30 5645 H 546.67 2.24456 -2.97406 0
M  V30 5646 H 546.783 1.30794 -4.60901 0
M  V30 5647 H 545.147 0.787915 -2.42206 0
M  V30 5648 H 545.93 -0.579078 -3.38381 0
M  V30 5649 N 548.375 1.56261 0.205012 0
M  V30 5650 C 549.622 1.8004 0.926927 0
M  V30 5651 C 549.95 0.640086 1.83666 0
M  V30 5652 O 549.205 -0.374702 1.92079 0
M  V30 5653 C 549.504 3.09722 1.78345 0
M  V30 5654 C 549.17 4.39082 1.02555 0
M  V30 5655 C 547.832 4.74226 0.816256 0
M  V30 5656 C 550.184 5.18877 0.491559 0
M  V30 5657 C 547.512 5.86668 0.0613287 0
M  V30 5658 C 549.864 6.32105 -0.250107 0
M  V30 5659 C 548.528 6.6584 -0.470508 0
M  V30 5660 H 547.798 0.658812 0.339187 0
M  V30 5661 H 550.445 1.90515 0.19395 0
M  V30 5662 H 548.75 2.9444 2.5848 0
M  V30 5663 H 550.447 3.25324 2.34446 0
M  V30 5664 H 547.037 4.11497 1.19868 0
M  V30 5665 H 551.221 4.92147 0.640684 0
M  V30 5666 H 546.477 6.11283 -0.119501 0
M  V30 5667 H 550.651 6.93157 -0.671307 0
M  V30 5668 H 548.278 7.5281 -1.05739 0
M  V30 5669 N 549.853 -0.472356 1.50355 0
M  V30 5670 C 550.763 -1.59637 1.7191 0
M  V30 5671 C 551.779 -1.63247 0.602195 0
M  V30 5672 O 552.955 -1.81139 0.880369 0
M  V30 5673 C 550.02 -2.9586 1.80742 0
M  V30 5674 C 549.081 -3.02649 3.04471 0
M  V30 5675 C 548.314 -4.32374 3.12872 0
M  V30 5676 O 548.537 -5.22807 2.28099 0
M  V30 5677 O 547.471 -4.44728 4.05587 0
M  V30 5678 H 551.297 -1.44373 2.67189 0
M  V30 5679 H 548.882 -0.651717 1.34436 0
M  V30 5680 H 550.764 -3.7677 1.88739 0
M  V30 5681 H 549.439 -3.11325 0.88647 0
M  V30 5682 H 548.346 -2.20821 3.01975 0
M  V30 5683 H 549.679 -2.92119 3.9614 0
M  V30 5684 N 551.331 -1.39911 -0.725443 0
M  V30 5685 C 552.263 -1.35301 -1.85003 0
M  V30 5686 C 553.276 -0.260102 -1.60709 0
M  V30 5687 O 554.465 -0.519749 -1.70766 0
M  V30 5688 C 551.565 -1.08039 -3.21218 0
M  V30 5689 C 550.738 -2.28793 -3.7279 0
M  V30 5690 C 549.797 -1.97841 -4.87591 0
M  V30 5691 O 548.823 -2.70616 -5.00755 0
M  V30 5692 N 550.025 -0.950367 -5.72668 0
M  V30 5693 H 552.79 -2.32218 -1.89459 0
M  V30 5694 H 550.351 -1.34137 -0.90658 0
M  V30 5695 H 552.343 -0.853354 -3.95601 0
M  V30 5696 H 550.913 -0.198229 -3.11971 0
M  V30 5697 H 550.133 -2.67388 -2.8965 0
M  V30 5698 H 551.421 -3.09317 -4.03981 0
M  V30 5699 H 550.819 -0.347436 -5.64632 0
M  V30 5700 H 549.376 -0.783232 -6.47077 0
M  V30 5701 N 552.809 0.956637 -1.25245 0
M  V30 5702 C 553.719 2.0868 -1.0719 0
M  V30 5703 C 554.735 1.73997 -0.00959074 0
M  V30 5704 O 555.911 2.00301 -0.210104 0
M  V30 5705 C 552.976 3.39754 -0.690526 0
M  V30 5706 C 552.037 3.88316 -1.83055 0
M  V30 5707 C 551.27 5.13134 -1.46728 0
M  V30 5708 O 551.493 5.6925 -0.362029 0
M  V30 5709 O 550.427 5.56356 -2.29677 0
M  V30 5710 H 554.253 2.26813 -2.01965 0
M  V30 5711 H 551.838 1.07098 -1.04165 0
M  V30 5712 H 553.72 4.18543 -0.489871 0
M  V30 5713 H 552.395 3.22896 0.227981 0
M  V30 5714 H 551.302 3.1054 -2.08604 0
M  V30 5715 H 552.635 4.09669 -2.72822 0
M  V30 5716 N 554.287 1.06798 1.15896 0
M  V30 5717 C 555.512 0.808739 1.90982 0
M  V30 5718 C 555.937 -0.6316 1.77179 0
M  V30 5719 O 555.295 -1.4407 1.10061 0
M  V30 5720 C 555.343 1.21468 3.39526 0
M  V30 5721 O 554.447 0.356562 4.10856 0
M  V30 5722 H 553.788 0.29512 0.594811 0
M  V30 5723 H 556.318 1.42513 1.46804 0
M  V30 5724 H 556.328 1.18844 3.90308 0
M  V30 5725 H 555.003 2.26379 3.48891 0
M  V30 5726 H 553.58 0.444808 3.70238 0
M  V30 5727 N 555.766 -1.3263 0.851289 0
M  V30 5728 C 556.713 -2.28952 0.291469 0
M  V30 5729 C 557.683 -1.54897 -0.599676 0
M  V30 5730 O 558.868 -1.83137 -0.535305 0
M  V30 5731 C 556.008 -3.41206 -0.516992 0
M  V30 5732 C 555.121 -4.30148 0.399566 0
M  V30 5733 C 554.256 -5.29527 -0.4212 0
M  V30 5734 C 553.295 -6.10112 0.492969 0
M  V30 5735 N 552.432 -7.01499 -0.290414 0
M  V30 5736 H 557.272 -2.76228 1.11813 0
M  V30 5737 H 554.809 -1.35907 0.562826 0
M  V30 5738 H 556.767 -4.05005 -1.00132 0
M  V30 5739 H 555.397 -2.9509 -1.30851 0
M  V30 5740 H 554.449 -3.66959 1.00227 0
M  V30 5741 H 555.761 -4.8649 1.1013 0
M  V30 5742 H 554.915 -5.98914 -0.968832 0
M  V30 5743 H 553.654 -4.73794 -1.15632 0
M  V30 5744 H 552.659 -5.39632 1.05251 0
M  V30 5745 H 553.884 -6.6793 1.22664 0
M  V30 5746 H 551.83 -6.48199 -1.00868 0
M  V30 5747 H 551.747 -7.55178 0.352354 0
M  V30 5748 H 553.015 -7.75176 -0.819882 0
M  V30 5749 N 557.244 -0.608902 -1.45362 0
M  V30 5750 C 558.493 -0.10218 -2.01441 0
M  V30 5751 C 558.806 1.27546 -1.48295 0
M  V30 5752 O 560.012 1.87498 -1.96359 0
M  V30 5753 C 558.468 -0.131985 -3.59658 0
M  V30 5754 C 558.076 -1.50956 -4.21801 0
M  V30 5755 C 559.82 0.319427 -4.23296 0
M  V30 5756 C 557.727 -1.49568 -5.72174 0
M  V30 5757 H 556.657 -0.0344314 -0.753213 0
M  V30 5758 H 559.308 -0.764426 -1.6682 0
M  V30 5759 H 557.69 0.596939 -3.91475 0
M  V30 5760 H 558.864 -2.26029 -4.01556 0
M  V30 5761 H 557.179 -1.90318 -3.70362 0
M  V30 5762 H 559.776 0.349013 -5.3356 0
M  V30 5763 H 560.119 1.34237 -3.94064 0
M  V30 5764 H 560.652 -0.356273 -3.96201 0
M  V30 5765 H 557.391 -2.49626 -6.06108 0
M  V30 5766 H 556.911 -0.787542 -5.94607 0
M  V30 5767 H 558.59 -1.21989 -6.35396 0
M  V30 5768 N 558.722 1.53707 -0.348139 0
M  V30 5769 C 559.655 2.21481 0.549667 0
M  V30 5770 C 560.633 1.20046 1.09671 0
M  V30 5771 O 561.817 1.48883 1.15612 0
M  V30 5772 C 558.944 2.89585 1.75664 0
M  V30 5773 C 557.99 4.04948 1.33864 0
M  V30 5774 S 558.823 5.34325 0.354577 0
M  V30 5775 C 559.979 6.05934 1.56828 0
M  V30 5776 H 560.212 2.97289 -0.0259755 0
M  V30 5777 H 557.745 1.53833 -0.132216 0
M  V30 5778 H 559.703 3.29441 2.44906 0
M  V30 5779 H 558.364 2.13535 2.30351 0
M  V30 5780 H 557.557 4.51552 2.23868 0
M  V30 5781 H 557.159 3.66893 0.725651 0
M  V30 5782 H 559.451 6.29606 2.50205 0
M  V30 5783 H 560.394 6.98799 1.14395 0
M  V30 5784 H 560.802 5.36151 1.76642 0
M  V30 5785 N 560.2 0.0768682 1.57412 0
M  V30 5786 C 561.447 -0.591085 1.93681 0
M  V30 5787 C 561.775 -1.69311 0.957286 0
M  V30 5788 O 561.03 -1.95682 -0.0262428 0
M  V30 5789 C 561.329 -1.20268 3.36557 0
M  V30 5790 C 560.995 -0.226286 4.50332 0
M  V30 5791 C 559.657 0.0423142 4.81181 0
M  V30 5792 C 562.009 0.441415 5.19327 0
M  V30 5793 C 559.337 0.985616 5.78362 0
M  V30 5794 C 561.689 1.37307 6.17519 0
M  V30 5795 C 560.353 1.65009 6.46783 0
M  V30 5796 H 559.623 -0.216293 0.70873 0
M  V30 5797 H 562.27 0.148824 1.90921 0
M  V30 5798 H 560.575 -2.01844 3.35807 0
M  V30 5799 H 562.272 -1.72688 3.61911 0
M  V30 5800 H 558.862 -0.445821 4.26275 0
M  V30 5801 H 563.046 0.247023 4.95685 0
M  V30 5802 H 558.302 1.20743 5.99359 0
M  V30 5803 H 562.476 1.89637 6.70083 0
M  V30 5804 H 560.103 2.38263 7.21897 0
M  V30 5805 N 561.678 -1.56367 -0.196722 0
M  V30 5806 C 562.924 -1.80796 -0.918725 0
M  V30 5807 C 563.257 -0.650645 -1.82976 0
M  V30 5808 O 562.532 0.348889 -1.91345 0
M  V30 5809 C 562.815 -3.15472 -1.73636 0
M  V30 5810 C 562.668 -4.41693 -0.85015 0
M  V30 5811 C 563.987 -3.46824 -2.70927 0
M  V30 5812 H 561.106 -0.657702 -0.332561 0
M  V30 5813 H 563.748 -1.89086 -0.186186 0
M  V30 5814 H 561.898 -3.08536 -2.36088 0
M  V30 5815 H 563.57 -4.60673 -0.240459 0
M  V30 5816 H 561.813 -4.33517 -0.156785 0
M  V30 5817 H 562.484 -5.32419 -1.45719 0
M  V30 5818 H 564.96 -3.54049 -2.18607 0
M  V30 5819 H 563.836 -4.4218 -3.25219 0
M  V30 5820 H 564.097 -2.70236 -3.49893 0
M  V30 5821 N 563.156 0.464375 -1.50603 0
M  V30 5822 C 564.402 1.21776 -1.62168 0
M  V30 5823 C 564.735 1.91476 -0.324154 0
M  V30 5824 O 564.01 1.8242 0.674782 0
M  V30 5825 C 564.293 2.25614 -2.80661 0
M  V30 5826 C 564.146 1.60175 -4.20314 0
M  V30 5827 C 565.465 3.26862 -2.94702 0
M  V30 5828 H 562.584 0.44137 -0.590222 0
M  V30 5829 H 565.226 0.510623 -1.8301 0
M  V30 5830 H 563.376 2.85923 -2.63021 0
M  V30 5831 H 565.048 1.03411 -4.4956 0
M  V30 5832 H 563.291 0.904697 -4.24261 0
M  V30 5833 H 563.962 2.35665 -4.99165 0
M  V30 5834 H 566.438 2.76582 -3.10872 0
M  V30 5835 H 565.314 3.96839 -3.79223 0
M  V30 5836 H 565.575 3.91382 -2.05603 0
M  V30 5837 N 564.634 1.40294 0.718013 0
M  V30 5838 C 565.582 1.40536 1.85344 0
M  V30 5839 C 566.576 0.286192 1.66965 0
M  V30 5840 O 567.782 0.457105 1.74099 0
M  V30 5841 H 564.157 0.439236 0.61039 0
M  V30 5842 H 566.128 2.36275 1.82255 0
M  V30 5843 C 564.877 1.28245 3.23185 0
M  V30 5844 H 564.2 2.1364 3.37932 0
M  V30 5845 H 565.64 1.32474 4.02774 0
M  V30 5846 C 564.099 -0.0075503 3.36899 0
M  V30 5847 O 564.629 -0.971391 3.89778 0
M  V30 5848 N 562.835 -0.0762479 2.905 0
M  V30 5849 H 562.382 0.708819 2.47656 0
M  V30 5850 H 562.34 -0.938846 3.00055 0
M  V30 5851 N 566.112 -0.949982 1.2575 0
M  V30 5852 C 567.075 -2.02894 1.06615 0
M  V30 5853 C 568.075 -1.60791 0.0173905 0
M  V30 5854 O 569.265 -1.72249 0.260003 0
M  V30 5855 C 566.397 -3.35219 0.619751 0
M  V30 5856 H 567.59 -2.21302 2.02399 0
M  V30 5857 H 565.143 -1.12772 1.08223 0
M  V30 5858 H 565.878 -3.22508 -0.340486 0
M  V30 5859 H 565.663 -3.67129 1.37692 0
M  V30 5860 H 567.153 -4.14505 0.507443 0
M  V30 5861 N 567.59 -1.07411 -1.15328 0
M  V30 5862 C 568.836 -0.798831 -1.86404 0
M  V30 5863 C 569.169 0.673433 -1.8215 0
M  V30 5864 O 568.444 1.49428 -1.24505 0
M  V30 5865 C 568.727 -1.30846 -3.35487 0
M  V30 5866 C 568.58 -2.84532 -3.4837 0
M  V30 5867 C 569.899 -0.925486 -4.30259 0
M  V30 5868 H 567.018 -0.291659 -0.676834 0
M  V30 5869 H 569.66 -1.332 -1.35491 0
M  V30 5870 H 567.81 -0.854916 -3.78977 0
M  V30 5871 H 569.482 -3.3818 -3.13739 0
M  V30 5872 H 567.725 -3.22699 -2.8991 0
M  V30 5873 H 568.396 -3.15259 -4.53118 0
M  V30 5874 H 570.872 -1.3163 -3.94731 0
M  V30 5875 H 569.748 -1.3094 -5.33053 0
M  V30 5876 H 570.009 0.168525 -4.41779 0
M  V30 5877 N 569.068 1.32177 -0.85831 0
M  V30 5878 C 570.298 2.01021 -0.476889 0
M  V30 5879 C 570.706 1.64653 0.931995 0
M  V30 5880 O 570.049 0.865713 1.62022 0
M  V30 5881 C 570.111 3.55413 -0.540528 0
M  V30 5882 C 569.775 4.1522 -1.90895 0
M  V30 5883 C 570.772 4.3318 -2.87491 0
M  V30 5884 C 568.457 4.51212 -2.20709 0
M  V30 5885 C 570.451 4.86306 -4.1205 0
M  V30 5886 C 568.138 5.04042 -3.45521 0
M  V30 5887 C 569.136 5.21538 -4.41007 0
M  V30 5888 O 568.824 5.73238 -5.63608 0
M  V30 5889 H 568.556 0.650059 -0.18547 0
M  V30 5890 H 571.11 1.69648 -1.15796 0
M  V30 5891 H 569.34 3.86196 0.19741 0
M  V30 5892 H 571.029 4.05526 -0.174191 0
M  V30 5893 H 571.795 4.05704 -2.65762 0
M  V30 5894 H 567.674 4.36878 -1.4717 0
M  V30 5895 H 571.218 4.99877 -4.86589 0
M  V30 5896 H 567.115 5.30952 -3.67098 0
M  V30 5897 H 567.883 5.91625 -5.65617 0
M  V30 5898 N 570.547 0.616602 1.45037 0
M  V30 5899 C 571.51 -0.0871112 2.29034 0
M  V30 5900 C 572.51 -0.786414 1.40258 0
M  V30 5901 O 573.7 -0.633207 1.62284 0
M  V30 5902 C 570.832 -1.13369 3.21497 0
M  V30 5903 H 572.025 0.651497 2.92738 0
M  V30 5904 H 569.578 0.376058 1.51709 0
M  V30 5905 H 570.313 -1.90277 2.62612 0
M  V30 5906 H 570.098 -0.636358 3.86902 0
M  V30 5907 H 571.588 -1.62627 3.84633 0
M  V30 5908 N 572.025 -1.5352 0.356285 0
M  V30 5909 C 572.958 -2.2177 -0.537913 0
M  V30 5910 C 573.936 -1.20626 -1.09033 0
M  V30 5911 O 575.12 -1.49494 -1.1482 0
M  V30 5912 C 572.247 -2.90513 -1.74126 0
M  V30 5913 C 571.293 -4.05652 -1.31715 0
M  V30 5914 S 572.126 -5.34505 -0.326236 0
M  V30 5915 C 573.282 -6.06757 -1.53612 0
M  V30 5916 H 573.515 -2.97271 0.0417411 0
M  V30 5917 H 571.048 -1.53761 0.140372 0
M  V30 5918 H 573.006 -3.30735 -2.43155 0
M  V30 5919 H 571.667 -2.14754 -2.29215 0
M  V30 5920 H 570.86 -4.52733 -2.21471 0
M  V30 5921 H 570.462 -3.67272 -0.706183 0
M  V30 5922 H 572.754 -6.30924 -2.46863 0
M  V30 5923 H 573.697 -6.99395 -1.10687 0
M  V30 5924 H 574.105 -5.3708 -1.73796 0
M  V30 5925 N 573.503 -0.0852151 -1.57369 0
M  V30 5926 C 574.466 0.8627 -2.12344 0
M  V30 5927 C 575.466 1.21746 -1.05046 0
M  V30 5928 O 576.656 1.14852 -1.30976 0
M  V30 5929 C 573.788 2.1618 -2.63589 0
M  V30 5930 H 574.981 0.385511 -2.97412 0
M  V30 5931 H 572.534 0.163663 -1.55441 0
M  V30 5932 H 573.269 2.68406 -1.82013 0
M  V30 5933 H 573.054 1.91723 -3.4203 0
M  V30 5934 H 574.544 2.84011 -3.06149 0
M  V30 5935 N 574.981 1.5647 0.188427 0
M  V30 5936 C 575.931 1.91479 1.23774 0
M  V30 5937 C 576.915 0.78119 1.40664 0
M  V30 5938 O 578.107 1.04414 1.42922 0
M  V30 5939 C 575.236 2.26354 2.58106 0
M  V30 5940 C 574.322 3.46186 2.44981 0
M  V30 5941 N 574.713 4.63911 2.01546 0
M  V30 5942 C 573.011 3.50456 2.75856 0
M  V30 5943 C 573.712 5.46064 2.00472 0
M  V30 5944 N 572.688 4.86648 2.42229 0
M  V30 5945 H 576.49 2.79994 0.893339 0
M  V30 5946 H 574.004 1.57477 0.39682 0
M  V30 5947 H 576.001 2.49622 3.33908 0
M  V30 5948 H 574.661 1.39168 2.93364 0
M  V30 5949 H 575.672 4.88451 1.7215 0
M  V30 5950 H 572.349 2.73704 3.15265 0
M  V30 5951 H 573.739 6.50368 1.68734 0
M  V30 5952 N 576.459 -0.456382 1.50847 0
M  V30 5953 C 577.422 -1.53493 1.70213 0
M  V30 5954 C 578.422 -1.50264 0.572481 0
M  V30 5955 O 579.612 -1.52623 0.839751 0
M  V30 5956 C 576.744 -2.93091 1.741 0
M  V30 5957 H 577.937 -1.37633 2.66453 0
M  V30 5958 H 575.49 -0.683776 1.4055 0
M  V30 5959 H 576.225 -3.14378 0.796063 0
M  V30 5960 H 576.01 -2.9684 2.5618 0
M  V30 5961 H 577.5 -3.71368 1.90987 0
M  V30 5962 N 577.937 -1.40673 -0.710563 0
M  V30 5963 C 578.867 -1.44095 -1.83736 0
M  V30 5964 C 579.848 -0.301286 -1.67411 0
M  V30 5965 O 581.033 -0.510618 -1.87367 0
M  V30 5966 C 578.163 -1.30773 -3.21738 0
M  V30 5967 C 577.117 -2.42395 -3.52745 0
M  V30 5968 C 576.443 -2.14147 -4.89944 0
M  V30 5969 C 577.743 -3.84738 -3.53234 0
M  V30 5970 H 579.437 -2.38396 -1.81129 0
M  V30 5971 H 576.983 -1.14746 -0.870017 0
M  V30 5972 H 578.936 -1.31783 -4.00264 0
M  V30 5973 H 577.66 -0.329507 -3.24934 0
M  V30 5974 H 576.319 -2.40643 -2.76562 0
M  V30 5975 H 575.967 -1.14703 -4.89747 0
M  V30 5976 H 575.667 -2.88934 -5.11655 0
M  V30 5977 H 577.191 -2.16848 -5.70797 0
M  V30 5978 H 578.605 -3.88286 -4.2179 0
M  V30 5979 H 577.002 -4.59085 -3.86473 0
M  V30 5980 H 578.072 -4.13962 -2.52514 0
M  V30 5981 N 579.415 0.9433 -1.26252 0
M  V30 5982 C 580.365 2.02746 -1.04297 0
M  V30 5983 C 581.349 1.60882 0.0239435 0
M  V30 5984 O 582.541 1.75947 -0.192757 0
M  V30 5985 C 579.67 3.36585 -0.6757 0
M  V30 5986 C 578.756 3.84939 -1.77996 0
M  V30 5987 N 579.147 4.05966 -3.01704 0
M  V30 5988 C 577.445 4.13833 -1.66308 0
M  V30 5989 C 578.146 4.45987 -3.73458 0
M  V30 5990 N 577.122 4.52569 -3.01135 0
M  V30 5991 H 580.924 2.17012 -1.98199 0
M  V30 5992 H 578.438 1.12898 -1.16738 0
M  V30 5993 H 580.435 4.13896 -0.499571 0
M  V30 5994 H 579.095 3.2369 0.255863 0
M  V30 5995 H 580.106 3.92716 -3.37631 0
M  V30 5996 H 576.783 4.09739 -0.801267 0
M  V30 5997 H 578.173 4.70465 -4.79701 0
M  V30 5998 N 580.893 1.08022 1.14757 0
M  V30 5999 C 581.841 0.701088 2.21783 0
M  V30 6000 C 582.835 -0.291311 1.66876 0
M  V30 6001 O 584.041 -0.154296 1.79337 0
M  V30 6002 H 580.416 0.208668 0.722469 0
M  V30 6003 H 582.387 1.61321 2.51034 0
M  V30 6004 C 581.136 0.122278 3.47485 0
M  V30 6005 H 580.459 0.877065 3.90061 0
M  V30 6006 H 581.899 -0.105248 4.23869 0
M  V30 6007 C 580.358 -1.13883 3.17068 0
M  V30 6008 O 580.888 -2.22429 3.34497 0
M  V30 6009 N 579.094 -1.04767 2.71058 0
M  V30 6010 H 578.641 -0.164302 2.57075 0
M  V30 6011 H 578.599 -1.89224 2.51081 0
M  V30 6012 N 582.371 -1.3172 0.865308 0
M  V30 6013 C 583.304 -2.26687 0.262376 0
M  V30 6014 C 584.282 -1.50894 -0.605787 0
M  V30 6015 O 585.466 -1.79982 -0.56024 0
M  V30 6016 C 582.593 -3.3281 -0.628915 0
M  V30 6017 C 581.639 -4.26172 0.167278 0
M  V30 6018 S 582.472 -5.12797 1.54272 0
M  V30 6019 C 583.628 -6.22438 0.657427 0
M  V30 6020 H 583.861 -2.77478 1.0674 0
M  V30 6021 H 581.394 -1.39414 0.663555 0
M  V30 6022 H 583.352 -3.94426 -1.13747 0
M  V30 6023 H 582.013 -2.80782 -1.40785 0
M  V30 6024 H 581.206 -5.01392 -0.51203 0
M  V30 6025 H 580.808 -3.69029 0.607777 0
M  V30 6026 H 583.1 -6.77368 -0.133925 0
M  V30 6027 H 584.043 -6.9451 1.38061 0
M  V30 6028 H 584.451 -5.64043 0.227044 0
M  V30 6029 N 583.85 -0.624285 -1.44708 0
M  V30 6030 C 584.8 0.106466 -2.27751 0
M  V30 6031 C 585.784 0.822703 -1.38277 0
M  V30 6032 O 586.976 0.709939 -1.62138 0
M  V30 6033 C 584.105 1.092 -3.25469 0
M  V30 6034 C 583.191 0.375737 -4.22432 0
M  V30 6035 N 583.582 -0.591881 -5.02325 0
M  V30 6036 C 581.88 0.621093 -4.41654 0
M  V30 6037 C 582.581 -1.01443 -5.72786 0
M  V30 6038 N 581.557 -0.354651 -5.42442 0
M  V30 6039 H 585.359 -0.636464 -2.86926 0
M  V30 6040 H 582.873 -0.44925 -1.56062 0
M  V30 6041 H 584.87 1.63006 -3.83712 0
M  V30 6042 H 583.529 1.8353 -2.67856 0
M  V30 6043 H 584.541 -0.969389 -5.08747 0
M  V30 6044 H 581.218 1.34779 -3.95147 0
M  V30 6045 H 582.608 -1.81345 -6.46965 0
M  V30 6046 N 585.328 1.53329 -0.364422 0
M  V30 6047 C 586.744 1.59594 -0.0133165 0
M  V30 6048 C 586.944 1.37959 1.46865 0
M  V30 6049 O 586 1.18418 2.2301 0
M  V30 6050 C 587.313 2.97032 -0.468213 0
M  V30 6051 C 588.861 3.10138 -0.422334 0
M  V30 6052 C 589.336 4.49986 -0.853024 0
M  V30 6053 N 590.827 4.56098 -0.808037 0
M  V30 6054 C 591.562 5.62495 -1.11299 0
M  V30 6055 N 591.058 6.7665 -1.48717 0
M  V30 6056 N 592.851 5.52473 -1.03586 0
M  V30 6057 H 585.002 1.65644 -1.32951 0
M  V30 6058 H 587.265 0.77684 -0.543345 0
M  V30 6059 H 586.971 3.18 -1.5023 0
M  V30 6060 H 586.845 3.76918 0.145775 0
M  V30 6061 H 589.232 2.88881 0.602622 0
M  V30 6062 H 589.313 2.32263 -1.0718 0
M  V30 6063 H 588.957 4.7198 -1.87609 0
M  V30 6064 H 588.887 5.26289 -0.180819 0
M  V30 6065 H 591.378 3.74131 -0.532361 0
M  V30 6066 H 591.691 7.53776 -1.70415 0
M  V30 6067 H 590.036 6.78044 -1.52581 0
M  V30 6068 H 593.227 4.6217 -0.742736 0
M  V30 6069 H 593.4 6.35295 -1.27686 0
M  V30 6070 N 586.806 0.0935595 1.57322 0
M  V30 6071 C 587.769 -0.851426 2.12799 0
M  V30 6072 C 588.769 -1.21187 1.0569 0
M  V30 6073 O 589.959 -1.14156 1.31583 0
M  V30 6074 C 587.091 -2.14779 2.64731 0
M  V30 6075 H 588.284 -0.369733 2.97612 0
M  V30 6076 H 585.837 -0.155417 1.55525 0
M  V30 6077 H 586.572 -2.67437 1.83434 0
M  V30 6078 H 586.357 -1.89907 3.43042 0
M  V30 6079 H 587.847 -2.82383 3.07651 0
M  V30 6080 N 588.284 -1.56567 -0.180126 0
M  V30 6081 C 589.214 -1.98753 -1.22553 0
M  V30 6082 C 590.195 -0.86175 -1.46656 0
M  V30 6083 O 591.38 -1.12719 -1.58139 0
M  V30 6084 C 588.51 -2.33988 -2.56645 0
M  V30 6085 C 587.464 -3.49445 -2.47128 0
M  V30 6086 C 586.79 -3.70397 -3.8563 0
M  V30 6087 C 588.09 -4.83171 -1.98352 0
M  V30 6088 H 589.784 -2.86332 -0.874896 0
M  V30 6089 H 587.33 -1.37757 -0.419414 0
M  V30 6090 H 589.283 -2.62097 -3.29974 0
M  V30 6091 H 588.007 -1.43309 -2.93479 0
M  V30 6092 H 586.666 -3.2145 -1.76254 0
M  V30 6093 H 586.314 -2.77023 -4.19842 0
M  V30 6094 H 586.014 -4.48077 -3.80132 0
M  V30 6095 H 587.538 -4.00897 -4.60558 0
M  V30 6096 H 588.952 -5.10213 -2.61449 0
M  V30 6097 H 587.349 -5.64425 -2.03823 0
M  V30 6098 H 588.419 -4.75753 -0.937402 0
M  V30 6099 N 589.762 0.448376 -1.51087 0
M  V30 6100 C 591.002 1.20832 -1.64861 0
M  V30 6101 C 591.366 1.88748 -0.351873 0
M  V30 6102 O 592.567 2.66307 -0.365265 0
M  V30 6103 C 590.838 2.20674 -2.81137 0
M  V30 6104 S 592.397 3.05303 -3.15176 0
M  V30 6105 H 589.215 0.40992 -0.580936 0
M  V30 6106 H 591.817 0.501624 -1.88955 0
M  V30 6107 H 590.521 1.69399 -3.73808 0
M  V30 6108 H 590.052 2.9594 -2.59198 0
M  V30 6109 H 592.067 4.22162 -2.60756 0
M  V30 6110 N 591.24 1.41047 0.703093 0
M  V30 6111 C 592.651 1.35657 1.28274 0
M  V30 6112 C 593.002 0.0360309 1.96167 0
M  V30 6113 O 592.127 -0.865833 1.98324 0
M  V30 6114 C 592.722 2.45707 2.33267 0
M  V30 6115 C 591.281 2.43738 2.86825 0
M  V30 6116 C 590.428 2.25941 1.60767 0
M  V30 6117 H 593.379 1.50672 0.49836 0
M  V30 6118 H 593.4 2.14333 3.14391 0
M  V30 6119 H 592.912 3.41805 1.83824 0
M  V30 6120 H 591.013 1.51375 3.40465 0
M  V30 6121 H 591.126 3.39779 3.37768 0
M  V30 6122 H 589.49 1.73681 1.86298 0
M  V30 6123 H 590.273 3.24054 1.1333 0
M  V30 6124 N 592.718 -0.936591 1.26751 0
M  V30 6125 C 593.666 -2.0573 1.08527 0
M  V30 6126 C 594.66 -1.69397 0.0108784 0
M  V30 6127 O 595.866 -1.79215 0.167915 0
M  V30 6128 H 592.241 -0.673691 0.334133 0
M  V30 6129 H 594.212 -2.1825 2.03493 0
M  V30 6130 C 592.961 -3.39738 0.739845 0
M  V30 6131 H 592.284 -3.68174 1.55845 0
M  V30 6132 H 593.724 -4.18955 0.652149 0
M  V30 6133 C 592.183 -3.32292 -0.555288 0
M  V30 6134 O 592.713 -3.68794 -1.59229 0
M  V30 6135 N 590.919 -2.85394 -0.54762 0
M  V30 6136 H 590.466 -2.55886 0.296667 0
M  V30 6137 H 590.424 -2.80795 -1.41427 0
M  V30 6138 N 594.196 -1.08629 -1.14182 0
M  V30 6139 C 595.424 -0.838889 -1.8913 0
M  V30 6140 C 595.839 0.609153 -1.78703 0
M  V30 6141 O 595.196 1.41876 -1.14794 0
M  V30 6142 C 595.247 -1.25477 -3.39025 0
M  V30 6143 O 594.968 -2.64601 -3.49167 0
M  V30 6144 C 596.469 -1.03856 -4.30963 0
M  V30 6145 H 593.689 -0.302377 -0.599007 0
M  V30 6146 H 596.233 -1.44615 -1.44592 0
M  V30 6147 H 594.388 -0.691571 -3.81177 0
M  V30 6148 H 594.802 -2.81922 -4.42289 0
M  V30 6149 H 596.276 -1.37892 -5.345 0
M  V30 6150 H 596.753 0.0242522 -4.39193 0
M  V30 6151 H 597.359 -1.58731 -3.94569 0
M  V30 6152 N 595.674 1.31259 -0.872281 0
M  V30 6153 C 596.902 2.00795 -0.498907 0
M  V30 6154 C 597.317 1.65464 0.909238 0
M  V30 6155 O 596.674 0.885073 1.59602 0
M  V30 6156 C 596.725 3.55625 -0.649092 0
M  V30 6157 O 596.446 3.89692 -2.00179 0
M  V30 6158 C 597.947 4.42434 -0.277034 0
M  V30 6159 H 595.167 0.642299 -0.194145 0
M  V30 6160 H 597.711 1.67438 -1.17408 0
M  V30 6161 H 595.866 3.87394 -0.0214402 0
M  V30 6162 H 596.28 4.84407 -2.01122 0
M  V30 6163 H 597.754 5.50299 -0.433064 0
M  V30 6164 H 598.231 4.32146 0.783989 0
M  V30 6165 H 598.837 4.16086 -0.880483 0
M  V30 6166 N 597.152 0.631951 1.44375 0
M  V30 6167 C 598.568 0.297642 1.568 0
M  V30 6168 C 598.768 -1.19916 1.61934 0
M  V30 6169 O 597.824 -1.98324 1.56281 0
M  V30 6170 C 599.137 0.990286 2.83926 0
M  V30 6171 C 600.685 0.968507 2.97639 0
M  V30 6172 C 601.16 1.64163 4.27568 0
M  V30 6173 N 602.651 1.60826 4.34384 0
M  V30 6174 C 603.386 2.09802 5.33639 0
M  V30 6175 N 602.882 2.66973 6.39294 0
M  V30 6176 N 604.675 2.00426 5.25153 0
M  V30 6177 H 596.826 1.60353 1.39286 0
M  V30 6178 H 599.089 0.673142 0.667521 0
M  V30 6179 H 598.795 2.04519 2.8612 0
M  V30 6180 H 598.669 0.528563 3.73478 0
M  V30 6181 H 601.056 -0.0779247 2.94997 0
M  V30 6182 H 601.137 1.46873 2.09433 0
M  V30 6183 H 600.781 2.68752 4.3097 0
M  V30 6184 H 600.711 1.11624 5.14634 0
M  V30 6185 H 603.202 1.19087 3.58646 0
M  V30 6186 H 603.515 3.02074 7.11316 0
M  V30 6187 H 601.86 2.71024 6.39977 0
M  V30 6188 H 605.051 1.55483 4.41523 0
M  V30 6189 H 605.224 2.38906 6.02352 0
M  V30 6190 N 598.631 -1.53133 0.372548 0
M  V30 6191 C 599.561 -2.28876 -0.462412 0
M  V30 6192 C 600.542 -1.31583 -1.07796 0
M  V30 6193 O 601.727 -1.60461 -1.09389 0
M  V30 6194 C 598.857 -3.08317 -1.59868 0
M  V30 6195 C 597.811 -4.13355 -1.11003 0
M  V30 6196 C 597.137 -4.8092 -2.33708 0
M  V30 6197 C 598.437 -5.21955 -0.18983 0
M  V30 6198 H 600.131 -2.9892 0.169511 0
M  V30 6199 H 597.677 -1.43761 0.0829658 0
M  V30 6200 H 599.63 -3.60055 -2.18949 0
M  V30 6201 H 598.354 -2.35976 -2.25794 0
M  V30 6202 H 597.013 -3.62573 -0.541869 0
M  V30 6203 H 596.661 -4.05144 -2.98106 0
M  V30 6204 H 596.361 -5.51904 -2.01682 0
M  V30 6205 H 597.885 -5.35455 -2.93462 0
M  V30 6206 H 599.299 -5.69153 -0.688319 0
M  V30 6207 H 597.696 -6.00087 0.0398887 0
M  V30 6208 H 598.766 -4.78811 0.766057 0
M  V30 6209 N 600.109 -0.101901 -1.5727 0
M  V30 6210 C 601.349 0.563489 -1.96479 0
M  V30 6211 C 601.713 1.64926 -0.983021 0
M  V30 6212 O 602.914 2.37234 -1.26386 0
M  V30 6213 C 601.185 1.09809 -3.40113 0
M  V30 6214 S 602.744 1.7744 -4.01323 0
M  V30 6215 H 599.562 0.183675 -0.686866 0
M  V30 6216 H 602.164 -0.182922 -1.94642 0
M  V30 6217 H 600.868 0.296447 -4.09328 0
M  V30 6218 H 600.399 1.88018 -3.45562 0
M  V30 6219 H 602.414 3.0591 -3.90683 0
M  V30 6220 N 601.587 1.56661 0.17182 0
M  V30 6221 C 602.864 1.72838 0.915778 0
M  V30 6222 C 603.244 0.66316 2.00413 0
M  V30 6223 O 602.592 -0.322123 2.26218 0
M  V30 6224 C 602.802 3.16019 1.48097 0
M  V30 6225 C 604.15 3.76962 1.95408 0
M  V30 6226 O 605.174 3.19294 1.57892 0
M  V30 6227 O 604.033 4.78219 2.64516 0
M  V30 6228 H 601.127 0.705797 0.431021 0
M  V30 6229 H 603.673 1.68947 0.159689 0
M  V30 6230 H 602.445 3.85031 0.697618 0
M  V30 6231 H 602.068 3.24234 2.30126 0
M  V30 6232 N 603.065 -0.440357 1.51323 0
M  V30 6233 C 604.028 -1.51679 1.71832 0
M  V30 6234 C 605.028 -1.49648 0.588386 0
M  V30 6235 O 606.218 -1.51724 0.855891 0
M  V30 6236 C 603.35 -2.91228 1.77199 0
M  V30 6237 H 604.543 -1.34799 2.67898 0
M  V30 6238 H 602.096 -0.66883 1.41267 0
M  V30 6239 H 602.831 -3.13516 0.829363 0
M  V30 6240 H 602.616 -2.94107 2.59314 0
M  V30 6241 H 604.106 -3.69321 1.94915 0
M  V30 6242 N 604.543 -1.41418 -0.695603 0
M  V30 6243 C 605.476 -1.3768 -1.81988 0
M  V30 6244 C 606.454 -0.244061 -1.60758 0
M  V30 6245 O 607.638 -0.430965 -1.83507 0
M  V30 6246 C 604.765 -1.1476 -3.18666 0
M  V30 6247 C 603.811 -2.30752 -3.58686 0
M  V30 6248 S 604.644 -3.9323 -3.63498 0
M  V30 6249 C 605.8 -3.72613 -5.02902 0
M  V30 6250 H 606.033 -2.32822 -1.84882 0
M  V30 6251 H 603.566 -1.27942 -0.86431 0
M  V30 6252 H 605.524 -1.02223 -3.97569 0
M  V30 6253 H 604.185 -0.212385 -3.13381 0
M  V30 6254 H 603.378 -2.10409 -4.57978 0
M  V30 6255 H 602.98 -2.39696 -2.87092 0
M  V30 6256 H 605.272 -3.32317 -5.904 0
M  V30 6257 H 606.215 -4.71507 -5.28286 0
M  V30 6258 H 606.623 -3.0589 -4.74438 0
M  V30 6259 N 606.021 0.929856 -1.27246 0
M  V30 6260 C 607.437 1.20542 -1.04603 0
M  V30 6261 C 607.637 2.00276 0.221754 0
M  V30 6262 O 606.693 2.34835 0.927833 0
M  V30 6263 C 608.006 1.95566 -2.28417 0
M  V30 6264 C 609.554 2.08513 -2.33433 0
M  V30 6265 C 610.029 2.86943 -3.5697 0
M  V30 6266 N 611.52 2.94512 -3.57515 0
M  V30 6267 C 612.255 3.55656 -4.49774 0
M  V30 6268 N 611.751 4.18209 -5.52334 0
M  V30 6269 N 613.544 3.53038 -4.37402 0
M  V30 6270 H 605.695 0.397113 -2.08655 0
M  V30 6271 H 607.958 0.238277 -0.917566 0
M  V30 6272 H 607.664 1.44395 -3.20691 0
M  V30 6273 H 607.538 2.9619 -2.33563 0
M  V30 6274 H 609.925 2.58872 -1.41666 0
M  V30 6275 H 610.006 1.07117 -2.32292 0
M  V30 6276 H 609.65 2.37268 -4.49072 0
M  V30 6277 H 609.58 3.8862 -3.55362 0
M  V30 6278 H 612.071 2.50053 -2.83341 0
M  V30 6279 H 612.384 4.62796 -6.18902 0
M  V30 6280 H 610.729 4.16761 -5.56179 0
M  V30 6281 H 613.92 3.0337 -3.56489 0
M  V30 6282 H 614.093 4.004 -5.09493 0
M  V30 6283 N 607.499 1.09233 1.13605 0
M  V30 6284 C 608.91 0.846839 1.6639 0
M  V30 6285 C 609.261 -0.625031 1.85978 0
M  V30 6286 O 608.386 -1.48173 1.57714 0
M  V30 6287 C 608.981 1.5307 3.0225 0
M  V30 6288 C 607.54 1.33223 3.52035 0
M  V30 6289 C 606.687 1.58806 2.27323 0
M  V30 6290 H 609.638 1.25175 0.975541 0
M  V30 6291 H 609.659 0.96267 3.68121 0
M  V30 6292 H 609.171 2.60192 2.87961 0
M  V30 6293 H 607.272 0.282091 3.71531 0
M  V30 6294 H 607.385 2.0657 4.32279 0
M  V30 6295 H 605.749 1.01007 2.33815 0
M  V30 6296 H 606.532 2.67153 2.15602 0
M  V30 6297 N 608.977 -1.30795 0.87923 0
M  V30 6298 C 610.223 -1.96653 0.495519 0
M  V30 6299 C 610.556 -1.69282 -0.951703 0
M  V30 6300 O 609.831 -0.994374 -1.6716 0
M  V30 6301 C 610.114 -3.51898 0.764174 0
M  V30 6302 C 609.967 -3.88808 2.2616 0
M  V30 6303 C 611.286 -4.39462 0.236825 0
M  V30 6304 H 608.405 -0.7143 0.181507 0
M  V30 6305 H 611.047 -1.54765 1.10217 0
M  V30 6306 H 609.197 -3.87709 0.247841 0
M  V30 6307 H 610.869 -3.63051 2.8459 0
M  V30 6308 H 609.112 -3.37082 2.73053 0
M  V30 6309 H 609.783 -4.97086 2.4002 0
M  V30 6310 H 612.259 -4.10528 0.678683 0
M  V30 6311 H 611.135 -5.47018 0.454176 0
M  V30 6312 H 611.396 -4.33621 -0.861683 0
M  V30 6313 N 610.455 -0.639598 -1.44038 0
M  V30 6314 C 611.403 0.0723409 -2.32487 0
M  V30 6315 C 612.397 0.827129 -1.47834 0
M  V30 6316 O 613.603 0.73907 -1.64127 0
M  V30 6317 H 609.978 0.0421696 -0.750817 0
M  V30 6318 H 611.949 -0.691593 -2.90275 0
M  V30 6319 C 610.698 1.03452 -3.31953 0
M  V30 6320 H 610.021 0.46315 -3.97108 0
M  V30 6321 H 611.461 1.502 -3.96505 0
M  V30 6322 C 609.92 2.12392 -2.61518 0
M  V30 6323 O 610.45 3.2059 -2.42044 0
M  V30 6324 N 608.656 1.88563 -2.21116 0
M  V30 6325 H 608.203 1.00577 -2.37154 0
M  V30 6326 H 608.161 2.61651 -1.74316 0
M  V30 6327 N 611.933 1.52934 -0.380664 0
M  V30 6328 C 613.181 2.01069 0.203874 0
M  V30 6329 C 613.502 1.26922 1.4804 0
M  V30 6330 O 612.772 0.386787 1.92044 0
M  V30 6331 H 611.352 0.742882 0.0783279 0
M  V30 6332 H 614.014 1.88099 -0.510368 0
M  V30 6333 H 613.11 3.09258 0.42021 0
M  V30 6334 N 613.412 0.11024 1.57214 0
M  V30 6335 C 614.828 -0.24638 1.57687 0
M  V30 6336 C 615.028 -1.67344 1.12241 0
M  V30 6337 O 614.084 -2.39298 0.805783 0
M  V30 6338 C 615.397 -0.0210288 3.00693 0
M  V30 6339 C 616.945 -0.0876077 3.12877 0
M  V30 6340 C 617.42 0.10994 4.57868 0
M  V30 6341 N 618.911 0.0556135 4.63167 0
M  V30 6342 C 619.646 0.183495 5.73106 0
M  V30 6343 N 619.142 0.367058 6.91827 0
M  V30 6344 N 620.935 0.123689 5.61964 0
M  V30 6345 H 613.086 1.04246 1.85058 0
M  V30 6346 H 615.349 0.40979 0.854854 0
M  V30 6347 H 615.055 0.965203 3.38196 0
M  V30 6348 H 614.929 -0.756748 3.69531 0
M  V30 6349 H 617.316 -1.06436 2.75237 0
M  V30 6350 H 617.397 0.67985 2.466 0
M  V30 6351 H 617.041 1.08362 4.96206 0
M  V30 6352 H 616.971 -0.677397 5.22225 0
M  V30 6353 H 619.462 -0.0831062 3.77809 0
M  V30 6354 H 619.775 0.455739 7.71455 0
M  V30 6355 H 618.12 0.40292 6.93831 0
M  V30 6356 H 621.311 -0.0186928 4.68096 0
M  V30 6357 H 621.484 0.226797 6.47603 0
M  V30 6358 N 614.89 -1.56749 -0.16351 0
M  V30 6359 C 616.306 -1.51043 -0.515567 0
M  V30 6360 C 616.506 -0.815855 -1.84245 0
M  V30 6361 O 615.562 -0.379477 -2.49632 0
M  V30 6362 C 616.875 -2.95791 -0.541114 0
M  V30 6363 C 618.423 -3.0664 -0.627776 0
M  V30 6364 C 618.898 -4.52861 -0.684141 0
M  V30 6365 N 620.389 -4.5714 -0.746818 0
M  V30 6366 C 621.124 -5.67634 -0.811137 0
M  V30 6367 N 620.62 -6.8774 -0.835811 0
M  V30 6368 N 622.413 -5.55624 -0.850756 0
M  V30 6369 H 614.564 -2.00307 0.70645 0
M  V30 6370 H 616.827 -0.912876 0.255659 0
M  V30 6371 H 616.533 -3.49797 0.365329 0
M  V30 6372 H 616.407 -3.50858 -1.38487 0
M  V30 6373 H 618.794 -2.52663 -1.52464 0
M  V30 6374 H 618.875 -2.54645 0.242805 0
M  V30 6375 H 618.519 -5.07472 0.2085 0
M  V30 6376 H 618.449 -5.02621 -1.57098 0
M  V30 6377 H 620.94 -3.70669 -0.735717 0
M  V30 6378 H 621.253 -7.67701 -0.886279 0
M  V30 6379 H 619.598 -6.90334 -0.803958 0
M  V30 6380 H 622.789 -4.60709 -0.828535 0
M  V30 6381 H 622.962 -6.41756 -0.897418 0
M  V30 6382 N 616.368 0.432326 -1.51554 0
M  V30 6383 C 617.298 1.53242 -1.76179 0
M  V30 6384 C 618.279 1.58717 -0.611801 0
M  V30 6385 O 619.464 1.74364 -0.855033 0
M  V30 6386 C 616.594 2.91278 -1.89141 0
M  V30 6387 C 615.548 3.00663 -3.04608 0
M  V30 6388 C 614.874 4.40728 -3.02759 0
M  V30 6389 C 616.174 2.74281 -4.44485 0
M  V30 6390 H 617.868 1.32886 -2.68294 0
M  V30 6391 H 615.414 0.637841 -1.29103 0
M  V30 6392 H 617.367 3.68203 -2.04951 0
M  V30 6393 H 616.091 3.12877 -0.936785 0
M  V30 6394 H 614.75 2.26179 -2.88511 0
M  V30 6395 H 614.398 4.59301 -2.05065 0
M  V30 6396 H 614.098 4.47936 -3.80299 0
M  V30 6397 H 615.622 5.19619 -3.20669 0
M  V30 6398 H 617.036 3.40936 -4.60907 0
M  V30 6399 H 615.433 2.92893 -5.23769 0
M  V30 6400 H 616.503 1.69856 -4.54177 0
M  V30 6401 N 617.846 1.41785 0.688094 0
M  V30 6402 C 619.076 1.44705 1.47459 0
M  V30 6403 C 619.484 0.052916 1.89126 0
M  V30 6404 O 618.827 -0.939781 1.57841 0
M  V30 6405 C 618.889 2.29935 2.76352 0
M  V30 6406 C 618.553 3.77996 2.56843 0
M  V30 6407 C 619.55 4.69976 2.22304 0
M  V30 6408 C 617.235 4.2212 2.7225 0
M  V30 6409 C 619.229 6.04068 2.03421 0
M  V30 6410 C 616.916 5.56275 2.52985 0
M  V30 6411 C 617.914 6.47065 2.18621 0
M  V30 6412 O 617.602 7.78744 1.9953 0
M  V30 6413 H 617.334 0.494703 0.460701 0
M  V30 6414 H 619.888 1.86802 0.854057 0
M  V30 6415 H 618.118 1.82664 3.40839 0
M  V30 6416 H 619.807 2.24467 3.38186 0
M  V30 6417 H 620.573 4.37175 2.10008 0
M  V30 6418 H 616.452 3.51752 2.97979 0
M  V30 6419 H 619.996 6.74897 1.76523 0
M  V30 6420 H 615.893 5.88653 2.64873 0
M  V30 6421 H 616.661 7.89966 2.14234 0
M  V30 6422 N 619.324 -0.923095 1.27737 0
M  V30 6423 C 620.271 -2.02432 1.1086 0
M  V30 6424 C 621.241 -1.66098 0.00835195 0
M  V30 6425 O 622.426 -1.90027 0.171542 0
M  V30 6426 C 619.566 -3.36476 0.766671 0
M  V30 6427 C 618.679 -3.85737 1.94501 0
M  V30 6428 C 617.814 -5.08249 1.54455 0
M  V30 6429 C 616.853 -5.49818 2.6901 0
M  V30 6430 N 615.99 -6.63524 2.29521 0
M  V30 6431 H 620.83 -2.16201 2.05089 0
M  V30 6432 H 618.367 -1.05909 1.02087 0
M  V30 6433 H 620.325 -4.13569 0.549223 0
M  V30 6434 H 618.955 -3.22502 -0.13867 0
M  V30 6435 H 618.007 -3.04883 2.27487 0
M  V30 6436 H 619.319 -4.12513 2.80419 0
M  V30 6437 H 618.473 -5.92857 1.28862 0
M  V30 6438 H 617.212 -4.83261 0.656534 0
M  V30 6439 H 616.217 -4.63757 2.95313 0
M  V30 6440 H 617.442 -5.76799 3.5844 0
M  V30 6441 H 615.388 -6.40185 1.43177 0
M  V30 6442 H 615.305 -6.89978 3.08977 0
M  V30 6443 H 616.573 -7.51461 2.07187 0
M  V30 6444 N 620.802 -1.09834 -1.13024 0
M  V30 6445 C 622.079 -0.749225 -1.80682 0
M  V30 6446 C 622.459 0.765171 -1.96744 0
M  V30 6447 O 621.807 1.68912 -1.53886 0
M  V30 6448 C 622.017 -1.49311 -3.15448 0
M  V30 6449 C 623.365 -1.66162 -3.90737 0
M  V30 6450 O 624.389 -1.45597 -3.25085 0
M  V30 6451 O 623.248 -2.00211 -5.08505 0
M  V30 6452 H 620.342 -0.269614 -0.781817 0
M  V30 6453 H 622.888 -1.20078 -1.19914 0
M  V30 6454 H 621.66 -2.52407 -2.99009 0
M  V30 6455 H 621.283 -1.034 -3.8392 0
M  V30 6456 N 622.28 1.30327 -0.886154 0
M  V30 6457 C 623.527 1.96097 -0.505192 0
M  V30 6458 C 623.855 1.69952 0.945868 0
M  V30 6459 O 623.11 0.997653 1.68361 0
M  V30 6460 C 623.409 3.49906 -0.728042 0
M  V30 6461 C 623.075 3.96103 -2.15437 0
M  V30 6462 C 621.737 4.08428 -2.5444 0
M  V30 6463 C 624.089 4.20177 -3.08384 0
M  V30 6464 C 621.417 4.42189 -3.85598 0
M  V30 6465 C 623.769 4.55407 -4.39075 0
M  V30 6466 C 622.433 4.65941 -4.7797 0
M  V30 6467 H 621.703 0.71757 -0.184863 0
M  V30 6468 H 624.35 1.55171 -1.12223 0
M  V30 6469 H 622.655 3.9179 -0.027978 0
M  V30 6470 H 624.352 3.98869 -0.412862 0
M  V30 6471 H 620.942 3.87017 -1.84162 0
M  V30 6472 H 625.126 4.10134 -2.7947 0
M  V30 6473 H 620.382 4.48544 -4.15473 0
M  V30 6474 H 624.556 4.72986 -5.11133 0
M  V30 6475 H 622.183 4.91856 -5.79639 0
M  V30 6476 N 623.758 0.647228 1.43697 0
M  V30 6477 C 625.004 0.158422 2.0218 0
M  V30 6478 C 625.337 -1.22233 1.50907 0
M  V30 6479 O 624.612 -1.81478 0.699702 0
M  V30 6480 C 624.895 0.1627 3.59732 0
M  V30 6481 C 624.748 1.57694 4.21251 0
M  V30 6482 C 626.067 -0.504138 4.37203 0
M  V30 6483 H 623.186 0.059042 0.734631 0
M  V30 6484 H 625.828 0.826772 1.71069 0
M  V30 6485 H 623.978 -0.406414 3.86368 0
M  V30 6486 H 625.65 2.19618 4.05667 0
M  V30 6487 H 623.893 2.12603 3.7813 0
M  V30 6488 H 624.564 1.53183 5.3032 0
M  V30 6489 H 627.04 -0.0199841 4.16095 0
M  V30 6490 H 625.916 -0.470394 5.46881 0
M  V30 6491 H 626.177 -1.57726 4.13007 0
M  V30 6492 N 625.236 -1.5273 0.388769 0
M  V30 6493 C 626.166 -2.29353 -0.438111 0
M  V30 6494 C 627.147 -1.32719 -1.06394 0
M  V30 6495 O 628.332 -1.61612 -1.07681 0
M  V30 6496 C 625.462 -3.09995 -1.56589 0
M  V30 6497 C 624.416 -4.14509 -1.06613 0
M  V30 6498 C 623.742 -4.83372 -2.28594 0
M  V30 6499 C 625.042 -5.22127 -0.134459 0
M  V30 6500 H 626.736 -2.98723 0.201206 0
M  V30 6501 H 624.282 -1.43665 0.0982089 0
M  V30 6502 H 626.235 -3.62357 -2.15118 0
M  V30 6503 H 624.959 -2.38357 -2.23279 0
M  V30 6504 H 623.618 -3.63128 -0.503383 0
M  V30 6505 H 623.266 -4.08283 -2.93792 0
M  V30 6506 H 622.966 -5.54012 -1.95817 0
M  V30 6507 H 624.49 -5.38538 -2.87766 0
M  V30 6508 H 625.904 -5.69851 -0.627914 0
M  V30 6509 H 624.301 -6.00011 0.103534 0
M  V30 6510 H 625.371 -4.77971 0.816798 0
M  V30 6511 N 626.714 -0.118576 -1.57153 0
M  V30 6512 C 627.662 0.849114 -2.16547 0
M  V30 6513 C 628.656 1.27567 -1.11458 0
M  V30 6514 O 629.862 1.24746 -1.29763 0
M  V30 6515 H 626.237 0.291935 -0.693021 0
M  V30 6516 H 628.208 0.323693 -2.96639 0
M  V30 6517 C 626.957 2.08951 -2.77912 0
M  V30 6518 H 626.28 1.77021 -3.58474 0
M  V30 6519 H 627.72 2.74666 -3.23008 0
M  V30 6520 C 626.179 2.87899 -1.74974 0
M  V30 6521 O 626.709 3.83268 -1.20285 0
M  V30 6522 N 624.915 2.51884 -1.44924 0
M  V30 6523 H 624.462 1.74397 -1.89587 0
M  V30 6524 H 624.42 3.05003 -0.762921 0
M  V30 6525 N 628.193 1.56834 0.155195 0
M  V30 6526 C 629.439 1.83169 0.870467 0
M  V30 6527 C 629.772 0.698929 1.81187 0
M  V30 6528 O 629.047 -0.298035 1.92203 0
M  V30 6529 C 629.33 3.19965 1.65211 0
M  V30 6530 C 629.183 4.43792 0.732744 0
M  V30 6531 C 630.502 3.53885 2.61636 0
M  V30 6532 H 627.621 0.666288 0.315006 0
M  V30 6533 H 630.263 1.89513 0.135988 0
M  V30 6534 H 628.413 3.14687 2.27825 0
M  V30 6535 H 630.085 4.61148 0.118236 0
M  V30 6536 H 628.328 4.3378 0.0417906 0
M  V30 6537 H 628.999 5.36095 1.31552 0
M  V30 6538 H 631.475 3.5972 2.09143 0
M  V30 6539 H 630.351 4.50648 3.13381 0
M  V30 6540 H 630.612 2.79418 3.42605 0
M  V30 6541 N 629.671 -0.424282 1.51781 0
M  V30 6542 C 630.618 -1.51591 1.74037 0
M  V30 6543 C 631.588 -1.55556 0.582358 0
M  V30 6544 O 632.773 -1.72364 0.818245 0
M  V30 6545 C 629.913 -2.89188 1.8832 0
M  V30 6546 C 629.026 -2.9465 3.1592 0
M  V30 6547 C 628.161 -4.23452 3.20721 0
M  V30 6548 C 627.2 -4.22831 4.42584 0
M  V30 6549 N 626.337 -5.43178 4.44862 0
M  V30 6550 H 631.177 -1.31917 2.67212 0
M  V30 6551 H 628.714 -0.640599 1.32419 0
M  V30 6552 H 630.672 -3.69044 1.94583 0
M  V30 6553 H 629.302 -3.07392 0.985402 0
M  V30 6554 H 628.354 -2.07378 3.18902 0
M  V30 6555 H 629.666 -2.90055 4.05795 0
M  V30 6556 H 628.82 -5.1169 3.25973 0
M  V30 6557 H 627.559 -4.30722 2.28757 0
M  V30 6558 H 626.564 -3.32984 4.37495 0
M  V30 6559 H 627.789 -4.17213 5.35826 0
M  V30 6560 H 625.735 -5.51145 3.55775 0
M  V30 6561 H 625.652 -5.40515 5.28563 0
M  V30 6562 H 626.92 -6.33412 4.54324 0
M  V30 6563 N 631.149 -1.42148 -0.680565 0
M  V30 6564 C 632.396 -1.4231 -1.44063 0
M  V30 6565 C 632.724 -0.037488 -1.94464 0
M  V30 6566 O 631.979 0.953184 -1.70918 0
M  V30 6567 C 632.278 -2.38945 -2.65782 0
M  V30 6568 C 631.944 -3.85455 -2.33956 0
M  V30 6569 C 630.606 -4.25364 -2.24987 0
M  V30 6570 C 632.958 -4.77895 -2.08004 0
M  V30 6571 C 630.286 -5.55701 -1.88184 0
M  V30 6572 C 632.638 -6.08568 -1.72706 0
M  V30 6573 C 631.302 -6.47482 -1.62244 0
M  V30 6574 H 630.572 -0.520748 -0.527164 0
M  V30 6575 H 633.219 -1.7505 -0.776524 0
M  V30 6576 H 631.524 -1.99511 -3.37198 0
M  V30 6577 H 633.221 -2.36336 -3.23954 0
M  V30 6578 H 629.811 -3.53855 -2.41836 0
M  V30 6579 H 633.995 -4.47854 -2.1387 0
M  V30 6580 H 629.251 -5.84718 -1.78648 0
M  V30 6581 H 633.425 -6.79688 -1.5165 0
M  V30 6582 H 631.052 -7.48387 -1.33496 0
M  V30 6583 N 632.627 0.916307 -1.28225 0
M  V30 6584 C 633.904 1.64429 -1.05936 0
M  V30 6585 C 634.284 2.07234 0.402139 0
M  V30 6586 O 633.632 1.81535 1.3877 0
M  V30 6587 C 633.842 2.83773 -2.03159 0
M  V30 6588 C 635.19 3.54852 -2.33164 0
M  V30 6589 O 636.214 2.93918 -2.01223 0
M  V30 6590 O 635.073 4.64663 -2.87664 0
M  V30 6591 H 632.167 0.721221 -0.404683 0
M  V30 6592 H 634.713 0.965838 -1.39534 0
M  V30 6593 H 633.485 2.49217 -3.01673 0
M  V30 6594 H 633.108 3.59333 -1.70192 0
M  V30 6595 N 634.105 1.10431 1.1244 0
M  V30 6596 C 635.068 0.756542 2.16354 0
M  V30 6597 C 636.068 -0.21899 1.59302 0
M  V30 6598 O 637.258 0.00415969 1.742 0
M  V30 6599 C 634.39 0.120612 3.40687 0
M  V30 6600 H 635.583 1.67696 2.48632 0
M  V30 6601 H 633.136 0.904832 1.27446 0
M  V30 6602 H 633.871 -0.810536 3.14008 0
M  V30 6603 H 633.656 0.822693 3.83372 0
M  V30 6604 H 635.146 -0.106945 4.17463 0
M  V30 6605 N 635.583 -1.29855 0.893053 0
M  V30 6606 C 636.994 -1.77946 0.564998 0
M  V30 6607 C 637.345 -1.73339 -0.919134 0
M  V30 6608 O 636.47 -1.3152 -1.71847 0
M  V30 6609 C 637.065 -3.23118 1.01883 0
M  V30 6610 C 635.624 -3.69013 0.742051 0
M  V30 6611 C 634.771 -2.50121 1.19727 0
M  V30 6612 H 637.722 -1.16611 1.07646 0
M  V30 6613 H 637.743 -3.78875 0.351249 0
M  V30 6614 H 637.255 -3.26439 2.09903 0
M  V30 6615 H 635.356 -3.71173 -0.325816 0
M  V30 6616 H 635.469 -4.60117 1.33527 0
M  V30 6617 H 633.833 -2.47128 0.616418 0
M  V30 6618 H 634.616 -2.56174 2.28538 0
M  V30 6619 N 637.061 -0.65484 -1.43351 0
M  V30 6620 C 638.308 -0.168892 -2.01794 0
M  V30 6621 C 638.636 1.2177 -1.51665 0
M  V30 6622 O 637.891 1.82717 -0.70092 0
M  V30 6623 C 638.19 -0.130424 -3.57162 0
M  V30 6624 C 637.856 -1.45898 -4.26643 0
M  V30 6625 C 636.518 -1.82279 -4.4534 0
M  V30 6626 C 638.87 -2.33485 -4.65976 0
M  V30 6627 C 636.198 -3.0591 -5.00635 0
M  V30 6628 C 638.55 -3.5641 -5.22642 0
M  V30 6629 C 637.214 -3.92985 -5.39555 0
M  V30 6630 H 636.484 -0.061802 -0.738418 0
M  V30 6631 H 639.131 -0.845869 -1.71806 0
M  V30 6632 H 637.436 0.630008 -3.86702 0
M  V30 6633 H 639.133 0.262465 -4.0014 0
M  V30 6634 H 635.723 -1.16591 -4.12437 0
M  V30 6635 H 639.907 -2.06668 -4.51223 0
M  V30 6636 H 635.163 -3.34295 -5.11915 0
M  V30 6637 H 639.337 -4.24495 -5.52066 0
M  V30 6638 H 636.964 -4.88862 -5.82167 0
M  V30 6639 N 638.539 1.52521 -0.396863 0
M  V30 6640 C 639.955 1.5953 -0.0471659 0
M  V30 6641 C 640.155 1.41044 1.43906 0
M  V30 6642 O 639.211 1.23122 2.20448 0
M  V30 6643 C 640.524 2.95972 -0.531113 0
M  V30 6644 C 642.072 3.09172 -0.488024 0
M  V30 6645 C 642.547 4.48075 -0.948281 0
M  V30 6646 N 644.038 4.54281 -0.9046 0
M  V30 6647 C 644.773 5.60007 -1.23205 0
M  V30 6648 N 644.269 6.73343 -1.63036 0
M  V30 6649 N 646.062 5.50151 -1.15282 0
M  V30 6650 H 638.213 1.62786 -1.36435 0
M  V30 6651 H 640.476 0.76514 -0.559701 0
M  V30 6652 H 640.182 3.14741 -1.56942 0
M  V30 6653 H 640.056 3.77143 0.0657922 0
M  V30 6654 H 642.443 2.90095 0.541211 0
M  V30 6655 H 642.524 2.29937 -1.12083 0
M  V30 6656 H 642.168 4.67894 -1.97578 0
M  V30 6657 H 642.098 5.25788 -0.292412 0
M  V30 6658 H 644.589 3.72918 -0.6116 0
M  V30 6659 H 644.902 7.49992 -1.86365 0
M  V30 6660 H 643.247 6.74655 -1.66929 0
M  V30 6661 H 646.438 4.6049 -0.840602 0
M  V30 6662 H 646.611 6.32444 -1.41133 0
M  V30 6663 N 640.017 0.126909 1.57088 0
M  V30 6664 C 641.428 -0.397201 1.82426 0
M  V30 6665 C 641.779 -1.66084 1.04453 0
M  V30 6666 O 640.904 -2.14534 0.283552 0
M  V30 6667 C 641.499 -0.727411 3.30899 0
M  V30 6668 C 640.058 -1.19612 3.56889 0
M  V30 6669 C 639.205 -0.20885 2.76512 0
M  V30 6670 H 642.156 0.351924 1.54749 0
M  V30 6671 H 642.177 -1.58407 3.45959 0
M  V30 6672 H 641.689 0.19247 3.87622 0
M  V30 6673 H 639.79 -2.13263 3.05532 0
M  V30 6674 H 639.903 -1.13598 4.65438 0
M  V30 6675 H 638.267 -0.697479 2.44964 0
M  V30 6676 H 639.05 0.704267 3.35998 0
M  V30 6677 N 641.495 -1.56914 -0.146875 0
M  V30 6678 C 642.458 -1.97368 -1.16526 0
M  V30 6679 C 643.458 -0.860223 -1.35856 0
M  V30 6680 O 644.648 -1.12684 -1.32846 0
M  V30 6681 C 641.78 -2.28974 -2.52555 0
M  V30 6682 H 642.973 -2.88523 -0.818209 0
M  V30 6683 H 640.526 -1.5135 -0.390221 0
M  V30 6684 H 641.261 -1.40611 -2.92231 0
M  V30 6685 H 641.046 -3.10157 -2.39886 0
M  V30 6686 H 642.536 -2.61109 -3.25902 0
M  V30 6687 N 642.974 0.416227 -1.52004 0
M  V30 6688 C 644.251 1.17637 -1.56272 0
M  V30 6689 C 644.631 2.08352 -0.339493 0
M  V30 6690 O 643.979 2.1833 0.674124 0
M  V30 6691 C 644.189 1.95986 -2.88774 0
M  V30 6692 C 645.537 2.52299 -3.41512 0
M  V30 6693 O 646.561 2.06174 -2.90467 0
M  V30 6694 O 645.42 3.3648 -4.30631 0
M  V30 6695 H 642.514 0.536726 -0.629169 0
M  V30 6696 H 645.06 0.423583 -1.64329 0
M  V30 6697 H 643.832 1.29487 -3.69254 0
M  V30 6698 H 643.455 2.78285 -2.83978 0
M  V30 6699 N 644.452 1.42507 0.673017 0
M  V30 6700 C 645.68 1.46473 1.46128 0
M  V30 6701 C 646.095 0.0765912 1.88645 0
M  V30 6702 O 645.452 -0.909057 1.58248 0
M  V30 6703 C 645.503 2.39339 2.70923 0
M  V30 6704 O 645.224 3.72752 2.3019 0
M  V30 6705 C 646.725 2.52343 3.64469 0
M  V30 6706 H 643.945 0.49812 0.449575 0
M  V30 6707 H 646.489 1.87041 0.826802 0
M  V30 6708 H 644.644 2.02019 3.30556 0
M  V30 6709 H 645.058 4.22503 3.10791 0
M  V30 6710 H 646.532 3.2144 4.48754 0
M  V30 6711 H 647.009 1.56189 4.1049 0
M  V30 6712 H 647.615 2.90392 3.10729 0
M  V30 6713 N 645.93 -0.909495 1.28709 0
M  V30 6714 C 646.88 -1.9991 1.09636 0
M  V30 6715 C 647.864 -1.60889 0.01872 0
M  V30 6716 O 649.056 -1.75374 0.239338 0
M  V30 6717 C 646.185 -3.34675 0.764702 0
M  V30 6718 C 645.271 -3.80085 1.8814 0
M  V30 6719 N 645.662 -3.97824 3.12361 0
M  V30 6720 C 643.96 -4.09278 1.77221 0
M  V30 6721 C 644.661 -4.35928 3.85151 0
M  V30 6722 N 643.637 -4.44426 3.13028 0
M  V30 6723 H 647.439 -2.11681 2.03883 0
M  V30 6724 H 644.953 -1.09763 1.1969 0
M  V30 6725 H 646.95 -4.12426 0.609132 0
M  V30 6726 H 645.61 -3.24255 -0.169952 0
M  V30 6727 H 646.621 -3.83626 3.47925 0
M  V30 6728 H 643.298 -4.0747 0.909621 0
M  V30 6729 H 644.688 -4.57581 4.92006 0
M  V30 6730 N 647.408 -1.11026 -1.11852 0
M  V30 6731 C 648.356 -0.759643 -2.19846 0
M  V30 6732 C 649.35 0.246964 -1.6759 0
M  V30 6733 O 650.556 0.106693 -1.79684 0
M  V30 6734 H 646.931 -0.22775 -0.716683 0
M  V30 6735 H 648.902 -1.6792 -2.46669 0
M  V30 6736 C 647.651 -0.214364 -3.47039 0
M  V30 6737 H 646.974 -0.980175 -3.87599 0
M  V30 6738 H 648.414 -0.00717047 -4.23999 0
M  V30 6739 C 646.873 1.05436 -3.19976 0
M  V30 6740 O 647.403 2.13483 -3.40276 0
M  V30 6741 N 645.609 0.975436 -2.7374 0
M  V30 6742 H 645.156 0.0960853 -2.57421 0
M  V30 6743 H 645.114 1.82501 -2.5601 0
M  V30 6744 N 648.886 1.2938 -0.899927 0
M  V30 6745 C 649.796 2.31462 -0.382437 0
M  V30 6746 C 650.812 1.65956 0.522929 0
M  V30 6747 O 651.988 1.97131 0.412454 0
M  V30 6748 C 649.053 3.44595 0.381472 0
M  V30 6749 C 648.114 4.25692 -0.555444 0
M  V30 6750 C 647.347 5.33422 0.172102 0
M  V30 6751 O 647.57 5.53053 1.396 0
M  V30 6752 O 646.504 5.99939 -0.485491 0
M  V30 6753 H 650.33 2.77706 -1.22934 0
M  V30 6754 H 647.915 1.33821 -0.664259 0
M  V30 6755 H 649.797 4.13474 0.813442 0
M  V30 6756 H 648.472 3.00458 1.20443 0
M  V30 6757 H 647.379 3.59453 -1.03653 0
M  V30 6758 H 648.712 4.73471 -1.34483 0
M  V30 6759 N 650.364 0.662433 1.43002 0
M  V30 6760 C 651.61 0.179857 2.02001 0
M  V30 6761 C 651.943 -1.20625 1.52195 0
M  V30 6762 O 651.218 -1.80726 0.718911 0
M  V30 6763 C 651.501 0.200845 3.59539 0
M  V30 6764 C 651.354 1.62153 4.19555 0
M  V30 6765 C 652.673 -0.457738 4.37713 0
M  V30 6766 H 649.792 0.0668305 0.733964 0
M  V30 6767 H 652.434 0.84487 1.70182 0
M  V30 6768 H 650.584 -0.365411 3.86778 0
M  V30 6769 H 652.256 2.23908 4.03315 0
M  V30 6770 H 650.499 2.16601 3.75854 0
M  V30 6771 H 651.17 1.58799 5.28665 0
M  V30 6772 H 653.646 0.0241495 4.16093 0
M  V30 6773 H 652.522 -0.412363 5.47349 0
M  V30 6774 H 652.783 -1.53336 4.14657 0
M  V30 6775 N 651.842 -1.52309 0.404946 0
M  V30 6776 C 653.258 -1.59503 0.0556255 0
M  V30 6777 C 653.458 -1.41805 -1.43156 0
M  V30 6778 O 652.514 -1.2429 -2.19792 0
M  V30 6779 C 653.827 -2.95687 0.546801 0
M  V30 6780 C 655.375 -3.08909 0.504413 0
M  V30 6781 C 655.85 -4.47566 0.97203 0
M  V30 6782 N 657.341 -4.53795 0.928679 0
M  V30 6783 C 658.076 -5.59346 1.26174 0
M  V30 6784 N 657.572 -6.72469 1.66604 0
M  V30 6785 N 659.365 -5.49532 1.18198 0
M  V30 6786 H 651.516 -1.6206 1.37296 0
M  V30 6787 H 653.779 -0.762161 0.563751 0
M  V30 6788 H 653.485 -3.13905 1.58609 0
M  V30 6789 H 653.359 -3.77172 -0.0457905 0
M  V30 6790 H 655.746 -2.90378 -0.525819 0
M  V30 6791 H 655.827 -2.2934 1.13301 0
M  V30 6792 H 655.471 -4.6684 2.00057 0
M  V30 6793 H 655.401 -5.25625 0.320292 0
M  V30 6794 H 657.892 -3.72588 0.631369 0
M  V30 6795 H 658.205 -7.48993 1.9034 0
M  V30 6796 H 656.55 -6.73761 1.70504 0
M  V30 6797 H 659.741 -4.60038 0.865011 0
M  V30 6798 H 659.914 -6.31687 1.44485 0
M  V30 6799 N 653.32 -0.135238 -1.57019 0
M  V30 6800 C 654.567 0.518794 -1.95742 0
M  V30 6801 C 654.895 1.65642 -1.01947 0
M  V30 6802 O 654.15 1.95645 -0.0464016 0
M  V30 6803 C 654.449 1.07694 -3.40788 0
M  V30 6804 C 654.115 0.058992 -4.50861 0
M  V30 6805 C 652.777 -0.220872 -4.80693 0
M  V30 6806 C 655.129 -0.633856 -5.17331 0
M  V30 6807 C 652.457 -1.19959 -5.74305 0
M  V30 6808 C 654.809 -1.60131 -6.11997 0
M  V30 6809 C 653.473 -1.889 -6.40213 0
M  V30 6810 H 652.743 0.18984 -0.716269 0
M  V30 6811 H 655.39 -0.219581 -1.90237 0
M  V30 6812 H 653.695 1.89241 -3.43067 0
M  V30 6813 H 655.392 1.59137 -3.68071 0
M  V30 6814 H 651.982 0.287304 -4.27636 0
M  V30 6815 H 656.166 -0.430823 -4.94427 0
M  V30 6816 H 651.422 -1.42905 -5.94465 0
M  V30 6817 H 655.596 -2.14376 -6.62583 0
M  V30 6818 H 653.223 -2.64891 -7.12556 0
M  V30 6819 N 654.798 1.5699 0.138552 0
M  V30 6820 C 656.075 1.74741 0.87891 0
M  V30 6821 C 656.455 0.705522 1.98961 0
M  V30 6822 O 655.803 -0.274066 2.2685 0
M  V30 6823 C 656.013 3.1909 1.4136 0
M  V30 6824 C 657.361 3.81023 1.87368 0
M  V30 6825 O 658.385 3.22571 1.51084 0
M  V30 6826 O 657.244 4.83722 2.54312 0
M  V30 6827 H 654.338 0.714781 0.415953 0
M  V30 6828 H 656.884 1.69248 0.123817 0
M  V30 6829 H 655.656 3.86424 0.61579 0
M  V30 6830 H 655.279 3.29043 2.23196 0
M  V30 6831 N 656.276 -0.40816 1.52223 0
M  V30 6832 C 657.692 -0.74685 1.41047 0
M  V30 6833 C 657.892 -1.94788 0.51573 0
M  V30 6834 O 656.948 -2.52494 -0.0181156 0
M  V30 6835 C 658.261 -0.999878 2.83589 0
M  V30 6836 C 659.809 -1.10253 2.92939 0
M  V30 6837 C 660.284 -1.38832 4.36451 0
M  V30 6838 N 661.775 -1.45694 4.3969 0
M  V30 6839 C 662.51 -1.69435 5.47795 0
M  V30 6840 N 662.006 -1.90774 6.66016 0
M  V30 6841 N 663.799 -1.71458 5.35312 0
M  V30 6842 H 655.95 0.382409 2.08929 0
M  V30 6843 H 658.213 0.108807 0.941735 0
M  V30 6844 H 657.919 -0.189723 3.51188 0
M  V30 6845 H 657.793 -1.91978 3.24691 0
M  V30 6846 H 660.18 -1.90328 2.2552 0
M  V30 6847 H 660.261 -0.160973 2.55293 0
M  V30 6848 H 659.905 -0.592741 5.04429 0
M  V30 6849 H 659.835 -2.34241 4.71634 0
M  V30 6850 H 662.326 -1.3099 3.54472 0
M  V30 6851 H 662.639 -2.08342 7.44186 0
M  V30 6852 H 660.984 -1.88037 6.69079 0
M  V30 6853 H 664.175 -1.54326 4.41929 0
M  V30 6854 H 664.348 -1.89621 6.19635 0
M  V30 6855 N 657.755 -1.42862 -0.66545 0
M  V30 6856 C 659.002 -1.4383 -1.42546 0
M  V30 6857 C 659.33 -0.0581114 -1.94413 0
M  V30 6858 O 658.585 0.935002 -1.71919 0
M  V30 6859 C 658.884 -2.4175 -2.63233 0
M  V30 6860 C 658.55 -3.87915 -2.29854 0
M  V30 6861 C 657.212 -4.27726 -2.20463 0
M  V30 6862 C 659.564 -4.80074 -2.02924 0
M  V30 6863 C 656.892 -5.57666 -1.82279 0
M  V30 6864 C 659.244 -6.10366 -1.66242 0
M  V30 6865 C 657.908 -6.49167 -1.55367 0
M  V30 6866 H 657.178 -0.52631 -0.521612 0
M  V30 6867 H 659.825 -1.75863 -0.757914 0
M  V30 6868 H 658.13 -2.03077 -3.35063 0
M  V30 6869 H 659.827 -2.39759 -3.21429 0
M  V30 6870 H 656.417 -3.564 -2.3807 0
M  V30 6871 H 660.601 -4.50097 -2.09108 0
M  V30 6872 H 655.857 -5.8658 -1.72436 0
M  V30 6873 H 660.031 -6.81258 -1.44432 0
M  V30 6874 H 657.658 -7.49761 -1.2555 0
M  V30 6875 N 659.233 0.902656 -1.29189 0
M  V30 6876 C 660.481 1.6496 -1.16758 0
M  V30 6877 C 660.802 1.92952 0.28188 0
M  V30 6878 O 660.072 1.55351 1.19344 0
M  V30 6879 H 658.652 0.611447 -0.429118 0
M  V30 6880 H 661.314 1.0825 -1.62074 0
M  V30 6881 H 660.41 2.60728 -1.71544 0
M  V30 6882 N 660.711 1.11618 1.11262 0
M  V30 6883 C 661.988 0.777876 1.79467 0
M  V30 6884 C 662.368 -0.733774 1.97937 0
M  V30 6885 O 661.716 -1.66443 1.56554 0
M  V30 6886 C 661.926 1.5431 3.13032 0
M  V30 6887 C 663.274 1.72357 3.88044 0
M  V30 6888 O 664.298 1.5075 3.22727 0
M  V30 6889 O 663.157 2.08276 5.05256 0
M  V30 6890 H 660.251 0.282018 0.777428 0
M  V30 6891 H 662.797 1.21971 1.17988 0
M  V30 6892 H 661.569 2.57132 2.94956 0
M  V30 6893 H 661.192 1.09495 3.82226 0
M  V30 6894 N 662.189 -1.289 0.906776 0
M  V30 6895 C 663.437 -1.94883 0.535266 0
M  V30 6896 C 663.758 -1.71784 -0.922791 0
M  V30 6897 O 663.028 -1.05359 -1.65156 0
M  V30 6898 H 661.608 -0.721109 0.194962 0
M  V30 6899 H 664.27 -1.57018 1.15461 0
M  V30 6900 H 663.366 -3.03591 0.723821 0
M  V30 6901 N 663.667 -0.670007 -1.42649 0
M  V30 6902 C 664.916 -0.187526 -2.00826 0
M  V30 6903 C 665.229 1.21142 -1.53571 0
M  V30 6904 O 666.435 1.79001 -2.04134 0
M  V30 6905 C 664.891 -0.284409 -3.58774 0
M  V30 6906 C 664.499 -1.6871 -4.15019 0
M  V30 6907 C 666.243 0.139605 -4.2427 0
M  V30 6908 C 664.15 -1.73701 -5.65316 0
M  V30 6909 H 663.08 -0.0663468 -0.751075 0
M  V30 6910 H 665.731 -0.834492 -1.63427 0
M  V30 6911 H 664.113 0.430364 -3.93655 0
M  V30 6912 H 665.287 -2.42857 -3.91608 0
M  V30 6913 H 663.602 -2.05855 -3.61957 0
M  V30 6914 H 666.199 0.122398 -5.3456 0
M  V30 6915 H 666.542 1.17403 -3.99402 0
M  V30 6916 H 667.075 -0.523995 -3.94334 0
M  V30 6917 H 663.814 -2.75109 -5.94975 0
M  V30 6918 H 663.334 -1.03903 -5.90732 0
M  V30 6919 H 665.013 -1.48829 -6.2965 0
M  V30 6920 N 665.145 1.52092 -0.413018 0
M  V30 6921 C 666.393 2.01456 0.161178 0
M  V30 6922 C 666.714 1.30034 1.45314 0
M  V30 6923 O 665.984 0.427435 1.9118 0
M  V30 6924 H 664.564 0.744376 0.0625526 0
M  V30 6925 H 667.226 1.86974 -0.550151 0
M  V30 6926 H 666.322 3.1008 0.354517 0
M  V30 6927 N 666.623 0.143563 1.56945 0
M  V30 6928 C 668.039 -0.212877 1.58174 0
M  V30 6929 C 668.239 -1.64926 1.15766 0
M  V30 6930 O 667.295 -2.37535 0.856361 0
M  V30 6931 C 668.608 0.0427573 3.0067 0
M  V30 6932 C 670.156 -0.0212221 3.12993 0
M  V30 6933 C 670.631 0.207036 4.57532 0
M  V30 6934 N 672.122 0.153845 4.62944 0
M  V30 6935 C 672.857 0.305018 5.72588 0
M  V30 6936 N 672.353 0.513722 6.90893 0
M  V30 6937 N 674.146 0.242862 5.61575 0
M  V30 6938 H 666.297 1.08148 1.82805 0
M  V30 6939 H 668.56 0.427831 0.84597 0
M  V30 6940 H 668.266 1.03672 3.36073 0
M  V30 6941 H 668.14 -0.678195 3.71053 0
M  V30 6942 H 670.527 -1.00574 2.77433 0
M  V30 6943 H 670.608 0.732004 2.45103 0
M  V30 6944 H 670.252 1.18863 4.93795 0
M  V30 6945 H 670.182 -0.566473 5.23544 0
M  V30 6946 H 672.673 -0.00294866 3.779 0
M  V30 6947 H 672.986 0.619273 7.70315 0
M  V30 6948 H 671.331 0.550001 6.9282 0
M  V30 6949 H 674.522 0.0806015 4.68031 0
M  V30 6950 H 674.695 0.364112 6.46976 0
M  V30 6951 N 668.101 -1.57061 -0.130224 0
M  V30 6952 C 669.331 -1.88159 -0.853217 0
M  V30 6953 C 669.739 -0.731675 -1.7448 0
M  V30 6954 O 669.082 0.307035 -1.81116 0
M  V30 6955 C 669.144 -3.1415 -1.74785 0
M  V30 6956 C 668.808 -4.45202 -1.03173 0
M  V30 6957 C 669.805 -5.18526 -0.377759 0
M  V30 6958 C 667.49 -4.91912 -1.01624 0
M  V30 6959 C 669.484 -6.36775 0.282123 0
M  V30 6960 C 667.171 -6.10082 -0.352555 0
M  V30 6961 C 668.169 -6.82361 0.295483 0
M  V30 6962 O 667.857 -7.98284 0.948606 0
M  V30 6963 H 667.589 -0.627596 -0.251197 0
M  V30 6964 H 670.143 -2.05034 -0.1226 0
M  V30 6965 H 668.373 -2.93328 -2.51983 0
M  V30 6966 H 670.062 -3.31359 -2.34427 0
M  V30 6967 H 670.828 -4.83498 -0.381417 0
M  V30 6968 H 666.707 -4.35566 -1.51007 0
M  V30 6969 H 670.251 -6.93129 0.788525 0
M  V30 6970 H 666.148 -6.44569 -0.346621 0
M  V30 6971 H 666.916 -8.14054 0.851954 0
M  V30 6972 N 669.579 0.400081 -1.52437 0
M  V30 6973 C 670.527 1.50851 -1.7705 0
M  V30 6974 C 671.521 1.56928 -0.637969 0
M  V30 6975 O 672.727 1.60226 -0.820212 0
M  V30 6976 H 669.102 0.50186 -0.560036 0
M  V30 6977 H 671.073 1.27281 -2.69893 0
M  V30 6978 C 669.822 2.88117 -1.94638 0
M  V30 6979 H 669.145 2.84187 -2.81208 0
M  V30 6980 H 670.585 3.64942 -2.15855 0
M  V30 6981 C 669.044 3.29206 -0.715899 0
M  V30 6982 O 669.574 4.01544 0.111944 0
M  V30 6983 N 667.78 2.85363 -0.549191 0
M  V30 6984 H 667.327 2.26664 -1.22397 0
M  V30 6985 H 667.285 3.13214 0.27278 0
M  V30 6986 N 671.057 1.43213 0.657864 0
M  V30 6987 C 672.306 1.43871 1.41365 0
M  V30 6988 C 672.619 0.064898 1.95492 0
M  V30 6989 O 673.825 -0.0510796 2.71452 0
M  V30 6990 C 672.281 2.53158 2.55811 0
M  V30 6991 C 671.889 3.96624 2.08311 0
M  V30 6992 C 673.633 2.63004 3.3321 0
M  V30 6993 C 671.54 4.97385 3.1994 0
M  V30 6994 H 670.47 0.535174 0.531136 0
M  V30 6995 H 673.121 1.69185 0.710543 0
M  V30 6996 H 671.503 2.21037 3.2857 0
M  V30 6997 H 672.677 4.38182 1.42593 0
M  V30 6998 H 670.992 3.90781 1.43804 0
M  V30 6999 H 673.589 3.3546 4.16378 0
M  V30 7000 H 673.932 1.67918 3.80932 0
M  V30 7001 H 674.465 2.94403 2.67529 0
M  V30 7002 H 671.204 5.94007 2.77192 0
M  V30 7003 H 670.724 4.60444 3.84385 0
M  V30 7004 H 672.403 5.19877 3.85145 0
M  V30 7005 N 672.536 -0.895792 1.29666 0
M  V30 7006 C 673.783 -1.64664 1.17864 0
M  V30 7007 C 674.111 -1.92631 -0.26902 0
M  V30 7008 O 673.366 -1.53787 -1.21029 0
M  V30 7009 C 673.665 -3.00075 1.94139 0
M  V30 7010 C 673.331 -2.91702 3.43833 0
M  V30 7011 C 671.993 -2.89126 3.84656 0
M  V30 7012 C 674.345 -2.80622 4.39205 0
M  V30 7013 C 671.673 -2.73293 5.1916 0
M  V30 7014 C 674.025 -2.66329 5.73805 0
M  V30 7015 C 672.689 -2.62121 6.1388 0
M  V30 7016 H 671.959 -0.602549 0.431295 0
M  V30 7017 H 674.606 -1.04234 1.60648 0
M  V30 7018 H 672.911 -3.64394 1.43958 0
M  V30 7019 H 674.608 -3.57111 1.82408 0
M  V30 7020 H 671.198 -2.94511 3.11386 0
M  V30 7021 H 675.382 -2.81686 4.08615 0
M  V30 7022 H 670.638 -2.68443 5.49316 0
M  V30 7023 H 674.812 -2.56727 6.47352 0
M  V30 7024 H 672.439 -2.49611 7.18052 0
M  V30 7025 N 674.014 -1.12206 -1.10668 0
M  V30 7026 C 675.242 -0.898635 -1.86366 0
M  V30 7027 C 675.657 0.551991 -1.80551 0
M  V30 7028 O 675.014 1.38152 -1.19249 0
M  V30 7029 C 675.065 -1.36199 -3.34861 0
M  V30 7030 O 674.786 -2.75576 -3.40573 0
M  V30 7031 C 676.287 -1.17515 -4.2744 0
M  V30 7032 H 673.507 -0.321281 -0.589084 0
M  V30 7033 H 676.051 -1.49142 -1.39918 0
M  V30 7034 H 674.206 -0.81249 -3.78784 0
M  V30 7035 H 674.62 -2.95851 -4.33096 0
M  V30 7036 H 676.094 -1.54827 -5.29842 0
M  V30 7037 H 676.571 -0.115486 -4.39048 0
M  V30 7038 H 677.177 -1.71203 -3.89319 0
M  V30 7039 N 675.492 1.28418 -0.913599 0
M  V30 7040 C 676.722 1.98817 -0.56172 0
M  V30 7041 C 677.13 1.68457 0.861321 0
M  V30 7042 O 676.473 0.933653 1.58204 0
M  V30 7043 C 676.535 3.52801 -0.690785 0
M  V30 7044 C 676.199 4.0675 -2.08334 0
M  V30 7045 C 677.196 4.20597 -3.05604 0
M  V30 7046 C 674.881 4.41445 -2.39648 0
M  V30 7047 C 676.875 4.68392 -4.32305 0
M  V30 7048 C 674.562 4.88934 -3.66588 0
M  V30 7049 C 675.56 5.02364 -4.6273 0
M  V30 7050 O 675.248 5.48817 -5.87414 0
M  V30 7051 H 674.98 0.641608 -0.212874 0
M  V30 7052 H 677.534 1.64584 -1.22887 0
M  V30 7053 H 675.764 3.86686 0.0334336 0
M  V30 7054 H 677.453 4.04422 -0.346031 0
M  V30 7055 H 678.219 3.94067 -2.8273 0
M  V30 7056 H 674.098 4.30242 -1.65567 0
M  V30 7057 H 677.642 4.7879 -5.07352 0
M  V30 7058 H 673.539 5.14904 -3.89287 0
M  V30 7059 H 674.307 5.67103 -5.90201 0
M  V30 7060 N 676.97 0.677563 1.42291 0
M  V30 7061 C 677.9 0.014968 2.33495 0
M  V30 7062 C 678.881 -0.786376 1.50831 0
M  V30 7063 O 680.066 -0.742975 1.79426 0
M  V30 7064 C 677.196 -0.935023 3.34477 0
M  V30 7065 C 676.15 -0.242074 4.27315 0
M  V30 7066 C 675.476 -1.30519 5.18526 0
M  V30 7067 C 676.776 0.880604 5.14823 0
M  V30 7068 H 678.47 0.776671 2.89151 0
M  V30 7069 H 676.016 0.37494 1.39033 0
M  V30 7070 H 677.969 -1.40766 3.97194 0
M  V30 7071 H 676.693 -1.72818 2.77131 0
M  V30 7072 H 675.352 0.210351 3.65996 0
M  V30 7073 H 675 -2.09041 4.57505 0
M  V30 7074 H 674.7 -0.846652 5.81468 0
M  V30 7075 H 676.224 -1.7787 5.84119 0
M  V30 7076 H 677.638 0.489062 5.7121 0
M  V30 7077 H 676.035 1.26511 5.86613 0
M  V30 7078 H 677.105 1.72818 4.53059 0
M  V30 7079 N 678.448 -1.51871 0.421078 0
M  V30 7080 C 679.864 -1.59435 0.0725398 0
M  V30 7081 C 680.064 -1.43315 -1.41644 0
M  V30 7082 O 679.12 -1.26614 -2.18461 0
M  V30 7083 C 680.433 -2.9509 0.578132 0
M  V30 7084 C 681.981 -3.08356 0.537149 0
M  V30 7085 C 682.456 -4.4651 1.01945 0
M  V30 7086 N 683.947 -4.52784 0.976758 0
M  V30 7087 C 684.682 -5.57976 1.32099 0
M  V30 7088 N 684.178 -6.70664 1.73727 0
M  V30 7089 N 685.971 -5.48248 1.2402 0
M  V30 7090 H 678.122 -1.60595 1.39007 0
M  V30 7091 H 680.385 -0.756138 0.571803 0
M  V30 7092 H 680.091 -3.12205 1.61929 0
M  V30 7093 H 679.965 -3.772 -0.00578374 0
M  V30 7094 H 682.352 -2.90919 -0.494991 0
M  V30 7095 H 682.433 -2.28125 1.15727 0
M  V30 7096 H 682.077 -4.64692 2.04997 0
M  V30 7097 H 682.007 -5.25256 0.376023 0
M  V30 7098 H 684.498 -3.71898 0.670851 0
M  V30 7099 H 684.811 -7.46932 1.98274 0
M  V30 7100 H 683.156 -6.71914 1.77641 0
M  V30 7101 H 686.347 -4.59095 0.913756 0
M  V30 7102 H 686.52 -6.30119 1.51176 0
M  V30 7103 N 679.926 -0.151884 -1.56866 0
M  V30 7104 C 680.889 0.771861 -2.15812 0
M  V30 7105 C 681.889 1.17181 -1.10115 0
M  V30 7106 O 683.079 1.09194 -1.35729 0
M  V30 7107 C 680.211 2.04806 -2.7252 0
M  V30 7108 H 681.404 0.259021 -2.98779 0
M  V30 7109 H 678.957 0.097588 -1.55995 0
M  V30 7110 H 679.692 2.60445 -1.93233 0
M  V30 7111 H 679.477 1.77044 -3.49854 0
M  V30 7112 H 680.967 2.70771 -3.1792 0
M  V30 7113 N 681.404 1.57128 0.121893 0
M  V30 7114 C 682.652 1.84335 0.828548 0
M  V30 7115 C 682.973 0.736632 1.80551 0
M  V30 7116 O 682.243 -0.23962 1.94429 0
M  V30 7117 H 680.823 0.680108 0.30897 0
M  V30 7118 H 683.485 1.9459 0.109906 0
M  V30 7119 H 682.581 2.80152 1.37554 0
M  V30 7120 N 682.882 -0.391992 1.52647 0
M  V30 7121 C 684.107 -1.16312 1.71716 0
M  V30 7122 C 684.532 -1.83042 0.433279 0
M  V30 7123 O 683.89 -1.70705 -0.610707 0
M  V30 7124 C 683.938 -2.18908 2.86551 0
M  V30 7125 O 683.042 -3.2543 2.53316 0
M  V30 7126 H 682.383 -0.338743 0.571095 0
M  V30 7127 H 684.913 -0.457202 1.99426 0
M  V30 7128 H 684.923 -2.62954 3.1196 0
M  V30 7129 H 683.598 -1.69726 3.79692 0
M  V30 7130 H 682.175 -2.86543 2.38637 0
M  V30 7131 N 684.36 -1.4356 -0.65026 0
M  V30 7132 C 685.608 -1.45046 -1.40734 0
M  V30 7133 C 685.929 -0.0769822 -1.94848 0
M  V30 7134 O 685.199 0.888098 -1.74613 0
M  V30 7135 H 683.779 -0.534034 -0.522318 0
M  V30 7136 H 686.441 -1.79186 -0.766703 0
M  V30 7137 H 685.537 -2.16476 -2.24822 0
M  V30 7138 N 685.838 0.888903 -1.30139 0
M  V30 7139 C 687.254 1.17153 -1.08385 0
M  V30 7140 C 687.454 2.0088 0.157925 0
M  V30 7141 O 686.51 2.37668 0.852652 0
M  V30 7142 C 687.823 1.882 -2.34523 0
M  V30 7143 C 689.371 2.00981 -2.39949 0
M  V30 7144 C 689.846 2.75441 -3.65918 0
M  V30 7145 N 691.337 2.82989 -3.66704 0
M  V30 7146 C 692.072 3.41167 -4.60861 0
M  V30 7147 N 691.568 4.00425 -5.6536 0
M  V30 7148 N 693.361 3.38944 -4.48412 0
M  V30 7149 H 685.512 0.33053 -2.09812 0
M  V30 7150 H 687.775 0.208964 -0.924683 0
M  V30 7151 H 687.481 1.34119 -3.25123 0
M  V30 7152 H 687.355 2.88609 -2.42868 0
M  V30 7153 H 689.742 2.54234 -1.4983 0
M  V30 7154 H 689.823 0.996725 -2.35582 0
M  V30 7155 H 689.467 2.22861 -4.56394 0
M  V30 7156 H 689.397 3.77118 -3.67546 0
M  V30 7157 H 691.888 2.40912 -2.91153 0
M  V30 7158 H 692.201 4.42871 -6.33313 0
M  V30 7159 H 690.546 3.98856 -5.69157 0
M  V30 7160 H 693.737 2.91875 -3.6596 0
M  V30 7161 H 693.91 3.83989 -5.21974 0
M  V30 7162 N 687.317 1.12792 1.10072 0
M  V30 7163 C 688.547 0.907189 1.85617 0
M  V30 7164 C 688.955 -0.547181 1.81115 0
M  V30 7165 O 688.298 -1.39024 1.20075 0
M  V30 7166 C 688.36 1.30872 3.34832 0
M  V30 7167 C 688.024 2.77516 3.6309 0
M  V30 7168 C 689.021 3.75696 3.59373 0
M  V30 7169 C 686.706 3.14513 3.91646 0
M  V30 7170 C 688.7 5.08888 3.83812 0
M  V30 7171 C 686.387 4.47886 4.15742 0
M  V30 7172 C 687.385 5.44882 4.11816 0
M  V30 7173 O 687.073 6.7585 4.35295 0
M  V30 7174 H 686.805 0.323855 0.593375 0
M  V30 7175 H 689.359 1.50262 1.40038 0
M  V30 7176 H 687.589 0.656518 3.81086 0
M  V30 7177 H 689.278 1.06153 3.91773 0
M  V30 7178 H 690.044 3.48458 3.37345 0
M  V30 7179 H 685.923 2.39622 3.93831 0
M  V30 7180 H 689.467 5.84586 3.80663 0
M  V30 7181 H 685.364 4.74851 4.37249 0
M  V30 7182 H 686.132 6.81853 4.52791 0
M  V30 7183 N 688.795 -1.27931 0.920396 0
M  V30 7184 C 690.211 -1.47085 0.619537 0
M  V30 7185 C 690.411 -1.83463 -0.833291 0
M  V30 7186 O 689.467 -1.94363 -1.61181 0
M  V30 7187 C 690.78 -2.56878 1.56314 0
M  V30 7188 C 692.328 -2.70743 1.57058 0
M  V30 7189 C 692.803 -3.83687 2.50097 0
M  V30 7190 N 694.294 -3.9105 2.48262 0
M  V30 7191 C 695.029 -4.77842 3.16945 0
M  V30 7192 N 694.525 -5.69176 3.94982 0
M  V30 7193 N 696.318 -4.71509 3.06 0
M  V30 7194 H 688.469 -1.02601 1.85975 0
M  V30 7195 H 690.732 -0.511682 0.798051 0
M  V30 7196 H 690.438 -2.36923 2.59923 0
M  V30 7197 H 690.312 -3.54117 1.29928 0
M  V30 7198 H 692.699 -2.90083 0.541832 0
M  V30 7199 H 692.78 -1.74015 1.8749 0
M  V30 7200 H 692.424 -3.65101 3.53077 0
M  V30 7201 H 692.354 -4.79827 2.16964 0
M  V30 7202 H 694.845 -3.25738 1.91581 0
M  V30 7203 H 695.158 -6.32245 4.44394 0
M  V30 7204 H 693.503 -5.68995 3.99086 0
M  V30 7205 H 696.694 -3.99151 2.44533 0
M  V30 7206 H 696.867 -5.38933 3.59799 0
M  V30 7207 N 690.273 -0.685099 -1.4193 0
M  V30 7208 C 691.503 -0.220052 -2.05425 0
M  V30 7209 C 691.911 1.13185 -1.51611 0
M  V30 7210 O 691.254 1.71631 -0.654875 0
M  V30 7211 C 691.316 -0.0888364 -3.5939 0
M  V30 7212 C 690.98 -1.37109 -4.35947 0
M  V30 7213 C 691.977 -2.30675 -4.65924 0
M  V30 7214 C 689.662 -1.62155 -4.75406 0
M  V30 7215 C 691.656 -3.47556 -5.34306 0
M  V30 7216 C 689.343 -2.79324 -5.43527 0
M  V30 7217 C 690.341 -3.71848 -5.72903 0
M  V30 7218 O 690.029 -4.86966 -6.39624 0
M  V30 7219 H 689.761 -0.102165 -0.668235 0
M  V30 7220 H 692.315 -0.935194 -1.82875 0
M  V30 7221 H 690.545 0.681981 -3.80639 0
M  V30 7222 H 692.234 0.337669 -4.04493 0
M  V30 7223 H 693 -2.12579 -4.3593 0
M  V30 7224 H 688.879 -0.910053 -4.51928 0
M  V30 7225 H 692.423 -4.19794 -5.57153 0
M  V30 7226 H 688.32 -2.97342 -5.72938 0
M  V30 7227 H 689.088 -4.86644 -6.58118 0
M  V30 7228 N 691.751 1.51645 -0.429126 0
M  V30 7229 C 692.683 2.25279 0.422124 0
M  V30 7230 C 693.696 1.28986 0.993299 0
M  V30 7231 O 694.885 1.54797 0.888836 0
M  V30 7232 C 691.985 2.98666 1.60162 0
M  V30 7233 C 691.158 4.2199 1.15078 0
M  V30 7234 C 690.217 4.78028 2.19946 0
M  V30 7235 O 689.243 5.40084 1.79716 0
M  V30 7236 N 690.445 4.61342 3.5234 0
M  V30 7237 H 693.21 2.98971 -0.208931 0
M  V30 7238 H 690.771 1.59838 -0.257568 0
M  V30 7239 H 692.763 3.33044 2.29922 0
M  V30 7240 H 691.333 2.28036 2.13818 0
M  V30 7241 H 690.553 3.932 0.280552 0
M  V30 7242 H 691.841 5.02037 0.826831 0
M  V30 7243 H 691.239 4.11894 3.87763 0
M  V30 7244 H 689.796 5.00104 4.18019 0
M  V30 7245 N 693.229 0.160201 1.56784 0
M  V30 7246 C 694.176 -0.774416 2.1742 0
M  V30 7247 C 695.146 -1.23483 1.11091 0
M  V30 7248 O 696.331 -1.30499 1.39193 0
M  V30 7249 C 693.471 -2.00283 2.81035 0
M  V30 7250 C 692.584 -1.58701 4.01793 0
M  V30 7251 C 691.719 -2.76824 4.53367 0
M  V30 7252 C 690.758 -2.31679 5.66561 0
M  V30 7253 N 689.895 -3.42856 6.12694 0
M  V30 7254 H 694.735 -0.250542 2.96945 0
M  V30 7255 H 692.272 -0.111943 1.46673 0
M  V30 7256 H 694.23 -2.72316 3.16069 0
M  V30 7257 H 692.86 -2.5006 2.04132 0
M  V30 7258 H 691.912 -0.76384 3.72652 0
M  V30 7259 H 693.224 -1.21555 4.83762 0
M  V30 7260 H 692.378 -3.57029 4.90525 0
M  V30 7261 H 691.117 -3.17223 3.70433 0
M  V30 7262 H 690.122 -1.49917 5.28966 0
M  V30 7263 H 691.347 -1.9235 6.5129 0
M  V30 7264 H 689.293 -3.82852 5.32692 0
M  V30 7265 H 689.21 -3.09767 6.89624 0
M  V30 7266 H 690.478 -4.23379 6.545 0
M  V30 7267 N 694.707 -1.5719 -0.113559 0
M  V30 7268 C 695.953 -1.85412 -0.821597 0
M  V30 7269 C 696.286 -0.746722 -1.7927 0
M  V30 7270 O 695.561 0.246971 -1.92926 0
M  V30 7271 C 695.844 -3.24233 -1.56669 0
M  V30 7272 C 695.697 -4.45578 -0.614823 0
M  V30 7273 C 697.016 -3.60697 -2.52161 0
M  V30 7274 H 694.135 -0.674406 -0.29723 0
M  V30 7275 H 696.777 -1.89807 -0.085694 0
M  V30 7276 H 694.927 -3.20617 -2.19401 0
M  V30 7277 H 696.599 -4.613 0.00407137 0
M  V30 7278 H 694.842 -4.33738 0.0732332 0
M  V30 7279 H 695.513 -5.39395 -1.17292 0
M  V30 7280 H 697.989 -3.65139 -1.99532 0
M  V30 7281 H 696.865 -4.58798 -3.01323 0
M  V30 7282 H 697.126 -2.88403 -3.35076 0
M  V30 7283 N 696.185 0.383891 -1.52853 0
M  V30 7284 C 697.433 1.12619 -1.67814 0
M  V30 7285 C 697.754 1.90354 -0.423141 0
M  V30 7286 O 697.024 1.87649 0.562554 0
M  V30 7287 H 695.604 0.418738 -0.618601 0
M  V30 7288 H 698.266 0.43495 -1.89985 0
M  V30 7289 H 697.362 1.82624 -2.5309 0
M  V30 7290 N 697.663 1.43903 0.642637 0
M  V30 7291 C 698.893 1.49323 1.4278 0
M  V30 7292 C 699.301 0.113058 1.88862 0
M  V30 7293 O 698.644 -0.889089 1.60751 0
M  V30 7294 C 698.706 2.3861 2.68897 0
M  V30 7295 C 698.37 3.85976 2.44687 0
M  V30 7296 C 699.367 4.7681 2.07239 0
M  V30 7297 C 697.052 4.30567 2.58683 0
M  V30 7298 C 699.046 6.10234 1.841 0
M  V30 7299 C 696.733 5.64042 2.35159 0
M  V30 7300 C 697.731 6.53693 1.97925 0
M  V30 7301 O 697.419 7.84698 1.74654 0
M  V30 7302 H 697.151 0.509109 0.444729 0
M  V30 7303 H 699.705 1.89425 0.794195 0
M  V30 7304 H 697.935 1.93415 3.34855 0
M  V30 7305 H 699.624 2.35112 3.30873 0
M  V30 7306 H 700.39 4.43635 1.95993 0
M  V30 7307 H 696.269 3.61054 2.86637 0
M  V30 7308 H 699.813 6.80171 1.54962 0
M  V30 7309 H 695.71 5.96782 2.46011 0
M  V30 7310 H 696.478 7.96382 1.88993 0
M  V30 7311 N 699.141 -0.881989 1.30609 0
M  V30 7312 C 700.387 -1.63649 1.20791 0
M  V30 7313 C 700.742 -1.90966 -0.234437 0
M  V30 7314 O 700.035 -1.52163 -1.16434 0
M  V30 7315 C 700.229 -2.97999 1.97311 0
M  V30 7316 C 700.058 -2.83798 3.48839 0
M  V30 7317 C 698.828 -2.83622 4.18195 0
M  V30 7318 C 701.026 -2.59529 4.44015 0
M  V30 7319 N 699.008 -2.60344 5.55962 0
M  V30 7320 C 700.379 -2.45401 5.69366 0
M  V30 7321 C 702.434 -2.44777 4.33576 0
M  V30 7322 C 701.137 -2.18023 6.85462 0
M  V30 7323 C 703.163 -2.18785 5.49443 0
M  V30 7324 C 702.525 -2.05436 6.73777 0
M  V30 7325 H 698.624 -0.603687 0.497077 0
M  V30 7326 H 701.208 -1.03908 1.64655 0
M  V30 7327 H 699.379 -3.55767 1.55834 0
M  V30 7328 H 701.111 -3.6266 1.79611 0
M  V30 7329 H 697.866 -2.95562 3.70054 0
M  V30 7330 H 698.29 -2.51709 6.28468 0
M  V30 7331 H 702.932 -2.53831 3.38126 0
M  V30 7332 H 700.65 -2.07707 7.8095 0
M  V30 7333 H 704.236 -2.08188 5.43276 0
M  V30 7334 H 703.116 -1.85605 7.61919 0
M  V30 7335 N 700.619 -1.13374 -1.09472 0
M  V30 7336 C 701.582 -0.813639 -2.14272 0
M  V30 7337 C 702.582 0.176677 -1.59826 0
M  V30 7338 O 703.772 -0.0503441 -1.74127 0
M  V30 7339 C 700.904 -0.210897 -3.40247 0
M  V30 7340 H 702.097 -1.74229 -2.44099 0
M  V30 7341 H 699.65 -0.938304 -1.25002 0
M  V30 7342 H 700.385 0.726998 -3.16046 0
M  V30 7343 H 700.17 -0.924048 -3.81056 0
M  V30 7344 H 701.66 -0.00377603 -4.176 0
M  V30 7345 N 702.098 1.27442 -0.927168 0
M  V30 7346 C 703.008 2.30599 -0.431448 0
M  V30 7347 C 704.024 1.67028 0.48761 0
M  V30 7348 O 705.2 1.97962 0.370546 0
M  V30 7349 C 702.265 3.45327 0.308292 0
M  V30 7350 C 701.326 4.24418 -0.645615 0
M  V30 7351 C 700.559 5.33667 0.0589164 0
M  V30 7352 O 700.782 5.5589 1.27838 0
M  V30 7353 O 699.716 5.98774 -0.612638 0
M  V30 7354 H 703.542 2.75036 -1.28797 0
M  V30 7355 H 701.127 1.32382 -0.692495 0
M  V30 7356 H 703.009 4.15107 0.725555 0
M  V30 7357 H 701.684 3.02945 1.14043 0
M  V30 7358 H 700.591 3.57174 -1.11255 0
M  V30 7359 H 701.924 4.70512 -1.44496 0
M  V30 7360 N 703.576 0.692616 1.41565 0
M  V30 7361 C 704.824 0.221896 2.00878 0
M  V30 7362 C 705.145 -1.18164 1.5512 0
M  V30 7363 O 704.415 -1.79679 0.78054 0
M  V30 7364 H 702.995 0.0790463 0.742806 0
M  V30 7365 H 705.657 0.893115 1.73232 0
M  V30 7366 H 704.753 0.23702 3.11199 0
M  V30 7367 N 705.054 -1.51416 0.437162 0
M  V30 7368 C 705.984 -2.30631 -0.364922 0
M  V30 7369 C 706.965 -1.36037 -1.02118 0
M  V30 7370 O 708.15 -1.64956 -1.02485 0
M  V30 7371 C 705.28 -3.1482 -1.46648 0
M  V30 7372 C 704.234 -4.17691 -0.933717 0
M  V30 7373 C 703.56 -4.904 -2.13101 0
M  V30 7374 C 704.86 -5.2229 0.0317201 0
M  V30 7375 H 706.554 -2.97932 0.29614 0
M  V30 7376 H 704.1 -1.4328 0.143865 0
M  V30 7377 H 706.053 -3.69017 -2.03481 0
M  V30 7378 H 704.777 -2.4534 -2.15583 0
M  V30 7379 H 703.436 -3.64545 -0.387602 0
M  V30 7380 H 703.084 -4.17423 -2.80654 0
M  V30 7381 H 702.784 -5.59962 -1.78092 0
M  V30 7382 H 704.308 -5.4742 -2.70487 0
M  V30 7383 H 705.722 -5.7156 -0.446302 0
M  V30 7384 H 704.119 -5.99378 0.29437 0
M  V30 7385 H 705.189 -4.75131 0.968447 0
M  V30 7386 N 706.532 -0.168513 -1.56696 0
M  V30 7387 C 707.76 0.483503 -2.01171 0
M  V30 7388 C 708.175 1.56994 -1.04872 0
M  V30 7389 O 707.532 1.82434 -0.0491337 0
M  V30 7390 C 707.583 1.0644 -3.45475 0
M  V30 7391 O 707.304 0.0213375 -4.38095 0
M  V30 7392 C 708.805 1.79493 -4.05336 0
M  V30 7393 H 706.025 0.124002 -0.659443 0
M  V30 7394 H 708.569 -0.269419 -2.02717 0
M  V30 7395 H 706.724 1.76784 -3.44712 0
M  V30 7396 H 707.138 0.449837 -5.22567 0
M  V30 7397 H 708.612 2.15401 -5.08238 0
M  V30 7398 H 709.089 2.68889 -3.47269 0
M  V30 7399 H 709.695 1.13798 -4.09793 0
M  V30 7400 N 708.01 1.57248 0.105221 0
M  V30 7401 C 708.94 2.04374 1.12931 0
M  V30 7402 C 709.921 0.93074 1.42377 0
M  V30 7403 O 711.106 1.20136 1.52581 0
M  V30 7404 C 708.236 2.45967 2.45189 0
M  V30 7405 C 707.19 3.60838 2.30174 0
M  V30 7406 C 706.516 3.88374 3.67518 0
M  V30 7407 C 707.816 4.92084 1.75073 0
M  V30 7408 H 709.51 2.9018 0.737287 0
M  V30 7409 H 707.056 1.39601 0.353211 0
M  V30 7410 H 709.009 2.77542 3.17094 0
M  V30 7411 H 707.733 1.57148 2.86308 0
M  V30 7412 H 706.392 3.29493 1.60716 0
M  V30 7413 H 706.04 2.96739 4.06147 0
M  V30 7414 H 705.74 4.65703 3.58321 0
M  V30 7415 H 707.264 4.22415 4.40906 0
M  V30 7416 H 708.678 5.22106 2.36809 0
M  V30 7417 H 707.075 5.73507 1.76662 0
M  V30 7418 H 708.145 4.79684 0.709347 0
M  V30 7419 N 709.488 -0.375779 1.53054 0
M  V30 7420 C 710.765 -1.13453 1.59336 0
M  V30 7421 C 711.145 -2.07379 0.394614 0
M  V30 7422 O 710.493 -2.2004 -0.616 0
M  V30 7423 C 710.703 -1.8826 2.93869 0
M  V30 7424 C 712.051 -2.43155 3.48081 0
M  V30 7425 O 713.075 -1.984 2.95831 0
M  V30 7426 O 711.934 -3.24944 4.39401 0
M  V30 7427 H 709.028 -0.519856 0.643179 0
M  V30 7428 H 711.574 -0.379865 1.65394 0
M  V30 7429 H 710.346 -1.19652 3.72558 0
M  V30 7430 H 709.969 -2.70658 2.91256 0
M  V30 7431 N 710.966 -1.44241 -0.634997 0
M  V30 7432 C 712.194 -1.50296 -1.42193 0
M  V30 7433 C 712.609 -0.12658 -1.88375 0
M  V30 7434 O 711.966 0.86678 -1.60603 0
M  V30 7435 C 712.017 -2.46437 -2.64482 0
M  V30 7436 O 711.738 -3.78724 -2.20226 0
M  V30 7437 C 713.239 -2.61918 -3.57651 0
M  V30 7438 H 710.459 -0.509865 -0.43621 0
M  V30 7439 H 713.003 -1.89167 -0.776921 0
M  V30 7440 H 711.158 -2.10712 -3.25083 0
M  V30 7441 H 711.572 -4.30595 -2.9948 0
M  V30 7442 H 713.046 -3.33225 -4.40074 0
M  V30 7443 H 713.523 -1.67017 -4.06204 0
M  V30 7444 H 714.129 -2.98528 -3.02921 0
M  V30 7445 N 712.444 0.87505 -1.31075 0
M  V30 7446 C 713.669 1.66583 -1.23551 0
M  V30 7447 C 714.094 1.87067 0.19686 0
M  V30 7448 O 713.452 1.40877 1.1412 0
M  V30 7449 C 713.5 3.01401 -1.97965 0
M  V30 7450 O 712.604 3.90923 -1.31351 0
M  V30 7451 H 711.945 0.508645 -0.426821 0
M  V30 7452 H 714.475 1.09139 -1.7306 0
M  V30 7453 H 714.485 3.51374 -2.07366 0
M  V30 7454 H 713.16 2.85812 -3.02133 0
M  V30 7455 H 711.737 3.49369 -1.30368 0
M  V30 7456 N 713.922 1.13953 1.08869 0
M  V30 7457 C 714.852 0.844824 2.17681 0
M  V30 7458 C 715.833 -0.198213 1.68941 0
M  V30 7459 O 717.018 -0.0559073 1.9412 0
M  V30 7460 C 714.148 0.316325 3.45856 0
M  V30 7461 C 713.102 1.29426 4.07962 0
M  V30 7462 C 712.428 0.625275 5.31031 0
M  V30 7463 C 713.728 2.65484 4.49795 0
M  V30 7464 H 715.422 1.75471 2.42591 0
M  V30 7465 H 712.968 0.845116 1.16592 0
M  V30 7466 H 714.921 0.0977876 4.21287 0
M  V30 7467 H 713.645 -0.628972 3.20486 0
M  V30 7468 H 712.304 1.49889 3.34558 0
M  V30 7469 H 711.952 -0.325678 5.01945 0
M  V30 7470 H 711.652 1.27777 5.73539 0
M  V30 7471 H 713.176 0.416152 6.0918 0
M  V30 7472 H 714.59 2.48957 5.16424 0
M  V30 7473 H 712.987 3.26963 5.03205 0
M  V30 7474 H 714.057 3.22717 3.61914 0
M  V30 7475 N 715.4 -1.26948 0.933913 0
M  V30 7476 C 716.649 -1.93378 0.573409 0
M  V30 7477 C 716.962 -1.74148 -0.890614 0
M  V30 7478 O 718.168 -2.34971 -1.36017 0
M  V30 7479 C 716.624 -3.46449 0.974747 0
M  V30 7480 C 716.232 -3.74425 2.45988 0
M  V30 7481 C 717.976 -4.18924 0.685791 0
M  V30 7482 C 715.883 -5.209 2.8003 0
M  V30 7483 H 714.813 -0.723952 0.210736 0
M  V30 7484 H 717.464 -1.44143 1.13557 0
M  V30 7485 H 715.846 -3.94528 0.341181 0
M  V30 7486 H 717.02 -3.37079 3.14188 0
M  V30 7487 H 715.335 -3.15167 2.72138 0
M  V30 7488 H 717.932 -5.26786 0.916546 0
M  V30 7489 H 718.275 -4.14587 -0.377217 0
M  V30 7490 H 718.808 -3.76687 1.27874 0
M  V30 7491 H 715.547 -5.30332 3.85264 0
M  V30 7492 H 715.067 -5.59369 2.16485 0
M  V30 7493 H 716.746 -5.88837 2.68105 0
M  V30 7494 N 716.879 -0.700114 -1.41195 0
M  V30 7495 C 718.29 -0.307249 -1.84154 0
M  V30 7496 C 718.641 1.15539 -1.58572 0
M  V30 7497 O 717.766 1.88744 -1.05852 0
M  V30 7498 C 718.361 -0.550872 -3.34292 0
M  V30 7499 C 716.92 -0.211877 -3.75803 0
M  V30 7500 C 716.067 -0.830915 -2.64558 0
M  V30 7501 H 719.018 -0.900431 -1.30683 0
M  V30 7502 H 719.039 0.188954 -3.80031 0
M  V30 7503 H 718.551 -1.61548 -3.5288 0
M  V30 7504 H 716.652 0.848283 -3.62815 0
M  V30 7505 H 716.765 -0.67007 -4.74391 0
M  V30 7506 H 715.129 -0.260155 -2.53368 0
M  V30 7507 H 715.912 -1.89948 -2.85963 0
M  V30 7508 N 718.357 1.51182 -0.445186 0
M  V30 7509 C 719.603 2.03097 0.111049 0
M  V30 7510 C 719.958 1.32293 1.397 0
M  V30 7511 O 719.251 0.431529 1.86677 0
M  V30 7512 C 719.445 3.55408 0.376797 0
M  V30 7513 C 719.274 4.40969 -0.88185 0
M  V30 7514 C 718.044 4.85006 -1.41766 0
M  V30 7515 C 720.242 4.82876 -1.77017 0
M  V30 7516 N 718.224 5.54804 -2.62803 0
M  V30 7517 C 719.595 5.51821 -2.82654 0
M  V30 7518 C 721.65 4.64855 -1.78365 0
M  V30 7519 C 720.353 6.04655 -3.89595 0
M  V30 7520 C 722.379 5.18612 -2.84246 0
M  V30 7521 C 721.741 5.87509 -3.88603 0
M  V30 7522 H 717.84 0.781999 0.0012696 0
M  V30 7523 H 720.424 1.84976 -0.60761 0
M  V30 7524 H 718.595 3.73528 1.06449 0
M  V30 7525 H 720.327 3.93985 0.925082 0
M  V30 7526 H 717.082 4.6355 -0.970476 0
M  V30 7527 H 717.506 5.94326 -3.24201 0
M  V30 7528 H 722.148 4.11043 -0.990119 0
M  V30 7529 H 719.866 6.57518 -4.69782 0
M  V30 7530 H 723.452 5.06515 -2.86241 0
M  V30 7531 H 722.332 6.28358 -4.69186 0
M  V30 7532 N 719.835 0.176821 1.56605 0
M  V30 7533 C 720.798 -0.737429 2.17013 0
M  V30 7534 C 721.798 -1.15414 1.11965 0
M  V30 7535 O 722.988 -1.0702 1.37449 0
M  V30 7536 C 720.12 -2.00445 2.75744 0
M  V30 7537 H 721.313 -0.211455 2.99154 0
M  V30 7538 H 718.866 -0.0727582 1.56131 0
M  V30 7539 H 719.601 -2.57338 1.97352 0
M  V30 7540 H 719.386 -1.71456 3.52626 0
M  V30 7541 H 720.876 -2.65679 3.22187 0
M  V30 7542 N 721.313 -1.57302 -0.09688 0
M  V30 7543 C 722.538 -1.9058 -0.818169 0
M  V30 7544 C 722.963 -0.770921 -1.71576 0
M  V30 7545 O 722.321 0.277588 -1.79162 0
M  V30 7546 C 722.369 -3.22714 -1.60898 0
M  V30 7547 O 721.473 -3.10178 -2.71779 0
M  V30 7548 H 720.814 -0.624759 -0.224882 0
M  V30 7549 H 723.344 -2.04471 -0.07264 0
M  V30 7550 H 723.354 -3.55978 -1.99358 0
M  V30 7551 H 722.029 -4.04899 -0.950227 0
M  V30 7552 H 720.606 -2.88424 -2.3636 0
M  V30 7553 N 722.791 0.367657 -1.53252 0
M  V30 7554 C 724.202 0.944563 -1.61043 0
M  V30 7555 C 724.553 1.90325 -0.476546 0
M  V30 7556 O 723.678 2.12721 0.397333 0
M  V30 7557 C 724.273 1.71992 -2.91898 0
M  V30 7558 C 722.832 2.2462 -3.02031 0
M  V30 7559 C 721.979 1.05799 -2.56324 0
M  V30 7560 H 724.93 0.146516 -1.58022 0
M  V30 7561 H 724.951 2.58095 -2.79584 0
M  V30 7562 H 724.463 1.02192 -3.74404 0
M  V30 7563 H 722.564 2.97668 -2.24108 0
M  V30 7564 H 722.677 2.52644 -4.07073 0
M  V30 7565 H 721.041 1.42435 -2.1115 0
M  V30 7566 H 721.824 0.375008 -3.41246 0
M  V30 7567 N 724.269 1.44576 0.627338 0
M  V30 7568 C 725.494 1.51271 1.41887 0
M  V30 7569 C 725.919 0.139814 1.8758 0
M  V30 7570 O 725.277 -0.871746 1.58966 0
M  V30 7571 C 725.325 2.48529 2.61277 0
M  V30 7572 O 724.429 1.98944 3.61241 0
M  V30 7573 H 723.77 0.510668 0.424399 0
M  V30 7574 H 726.3 1.89746 0.765356 0
M  V30 7575 H 726.31 2.66689 3.08773 0
M  V30 7576 H 724.985 3.48249 2.27366 0
M  V30 7577 H 723.562 1.90568 3.20528 0
M  V30 7578 N 725.747 -0.868086 1.31537 0
M  V30 7579 C 726.71 -1.95703 1.19302 0
M  V30 7580 C 727.71 -1.60355 0.119612 0
M  V30 7581 O 728.9 -1.70247 0.36902 0
M  V30 7582 C 726.032 -3.30599 0.831684 0
M  V30 7583 H 727.225 -2.07982 2.16064 0
M  V30 7584 H 724.778 -1.05661 1.15176 0
M  V30 7585 H 725.513 -3.2402 -0.134694 0
M  V30 7586 H 725.298 -3.57629 1.60761 0
M  V30 7587 H 726.788 -4.10439 0.770026 0
M  V30 7588 N 727.225 -1.14528 -1.08264 0
M  V30 7589 C 728.473 -0.912599 -1.80322 0
M  V30 7590 C 728.794 0.562256 -1.86718 0
M  V30 7591 O 728.064 1.40869 -1.36135 0
M  V30 7592 H 726.644 -0.334645 -0.667849 0
M  V30 7593 H 729.306 -1.44415 -1.30883 0
M  V30 7594 H 728.402 -1.31384 -2.83098 0
M  V30 7595 N 728.703 1.26451 -0.940633 0
M  V30 7596 C 730.114 1.75726 -0.630653 0
M  V30 7597 C 730.465 1.76631 0.854167 0
M  V30 7598 O 729.59 1.37807 1.66848 0
M  V30 7599 C 730.185 3.19114 -1.13805 0
M  V30 7600 C 728.744 3.66005 -0.878497 0
M  V30 7601 C 727.891 2.45505 -1.28928 0
M  V30 7602 H 730.842 1.12535 -1.119 0
M  V30 7603 H 730.863 3.77311 -0.491625 0
M  V30 7604 H 730.375 3.18424 -2.21874 0
M  V30 7605 H 728.476 3.72126 0.187833 0
M  V30 7606 H 728.589 4.54844 -1.50512 0
M  V30 7607 H 726.953 2.4467 -0.707713 0
M  V30 7608 H 727.736 2.47516 -2.37888 0
M  V30 7609 N 730.181 0.707592 1.40822 0
M  V30 7610 C 731.111 0.0644925 2.33411 0
M  V30 7611 C 732.092 -0.754205 1.52466 0
M  V30 7612 O 733.277 -0.704749 1.80961 0
M  V30 7613 C 730.407 -0.863865 3.36385 0
M  V30 7614 C 729.361 -0.15138 4.27732 0
M  V30 7615 C 728.687 -1.19491 5.21177 0
M  V30 7616 C 729.987 0.989607 5.12839 0
M  V30 7617 H 731.681 0.837829 2.87438 0
M  V30 7618 H 729.227 0.404346 1.38207 0
M  V30 7619 H 731.18 -1.32309 4.0009 0
M  V30 7620 H 729.904 -1.66901 2.80734 0
M  V30 7621 H 728.563 0.287937 3.65467 0
M  V30 7622 H 728.211 -1.9929 4.61836 0
M  V30 7623 H 727.911 -0.723123 5.83134 0
M  V30 7624 H 729.435 -1.6544 5.8776 0
M  V30 7625 H 730.849 0.610114 5.70044 0
M  V30 7626 H 729.246 1.38926 5.83798 0
M  V30 7627 H 730.316 1.82389 4.49291 0
M  V30 7628 N 731.66 -1.50943 0.453197 0
M  V30 7629 C 733.071 -1.86699 -0.00619892 0
M  V30 7630 C 733.422 -1.3693 -1.40515 0
M  V30 7631 O 732.547 -0.726715 -2.03833 0
M  V30 7632 C 733.142 -3.38795 -0.018025 0
M  V30 7633 C 731.701 -3.74028 -0.421885 0
M  V30 7634 C 730.848 -2.74752 0.375087 0
M  V30 7635 H 733.799 -1.43942 0.668317 0
M  V30 7636 H 733.82 -3.71468 -0.824125 0
M  V30 7637 H 733.332 -3.74988 1.00028 0
M  V30 7638 H 731.433 -3.43431 -1.44521 0
M  V30 7639 H 731.546 -4.78908 -0.135664 0
M  V30 7640 H 729.91 -2.5414 -0.168794 0
M  V30 7641 H 730.693 -3.13787 1.39256 0
M  V30 7642 N 733.138 -0.185124 -1.56509 0
M  V30 7643 C 734.101 0.72591 -2.17401 0
M  V30 7644 C 735.101 1.14819 -1.12575 0
M  V30 7645 O 736.291 1.0629 -1.38015 0
M  V30 7646 C 733.423 1.98979 -2.76803 0
M  V30 7647 H 734.616 0.195588 -2.99262 0
M  V30 7648 H 732.169 0.0644772 -1.56167 0
M  V30 7649 H 732.904 2.56287 -1.98714 0
M  V30 7650 H 732.689 1.69583 -3.53531 0
M  V30 7651 H 734.179 2.63966 -3.23592 0
M  V30 7652 N 734.616 1.57351 0.0885366 0
M  V30 7653 C 735.841 1.91011 0.80805 0
M  V30 7654 C 736.266 0.780009 1.71165 0
M  V30 7655 O 735.624 -0.268083 1.79307 0
M  V30 7656 C 735.672 3.23562 1.59185 0
M  V30 7657 O 734.776 3.11615 2.7013 0
M  V30 7658 H 734.117 0.625943 0.221565 0
M  V30 7659 H 736.647 2.04507 0.0617954 0
M  V30 7660 H 736.657 3.5703 1.97468 0
M  V30 7661 H 735.332 4.05398 0.928741 0
M  V30 7662 H 733.909 2.89673 2.34827 0
M  V30 7663 N 736.094 -0.359525 1.53444 0
M  V30 7664 C 737.51 -0.701599 1.43352 0
M  V30 7665 C 737.71 -1.93049 0.577439 0
M  V30 7666 O 736.766 -2.52423 0.0622224 0
M  V30 7667 C 738.079 -0.90915 2.86627 0
M  V30 7668 C 739.627 -1.00878 2.96298 0
M  V30 7669 C 740.102 -1.24876 4.40647 0
M  V30 7670 N 741.593 -1.31632 4.44103 0
M  V30 7671 C 742.328 -1.51922 5.52908 0
M  V30 7672 N 741.824 -1.69489 6.71748 0
M  V30 7673 N 743.617 -1.54341 5.40496 0
M  V30 7674 H 735.768 0.448685 2.07607 0
M  V30 7675 H 738.031 0.138713 0.937797 0
M  V30 7676 H 737.737 -0.0778997 3.51614 0
M  V30 7677 H 737.611 -1.81551 3.30634 0
M  V30 7678 H 739.998 -1.83057 2.31461 0
M  V30 7679 H 740.079 -0.0796721 2.55676 0
M  V30 7680 H 739.723 -0.431961 5.0606 0
M  V30 7681 H 739.653 -2.19118 4.78848 0
M  V30 7682 H 742.144 -1.19646 3.5846 0
M  V30 7683 H 742.457 -1.84561 7.50438 0
M  V30 7684 H 740.802 -1.66655 6.74723 0
M  V30 7685 H 743.993 -1.40188 4.46615 0
M  V30 7686 H 744.166 -1.69812 6.25354 0
M  V30 7687 N 737.572 -1.44907 -0.619662 0
M  V30 7688 C 738.812 -1.49822 -1.39042 0
M  V30 7689 C 739.176 -0.131803 -1.91547 0
M  V30 7690 O 740.377 -0.0556413 -2.68742 0
M  V30 7691 C 738.648 -2.53805 -2.5163 0
M  V30 7692 S 740.207 -2.77855 -3.3962 0
M  V30 7693 H 737.025 -0.529774 -0.474195 0
M  V30 7694 H 739.627 -1.81907 -0.716236 0
M  V30 7695 H 738.331 -3.51772 -2.11387 0
M  V30 7696 H 737.862 -2.23331 -3.23863 0
M  V30 7697 H 739.877 -2.10319 -4.49422 0
M  V30 7698 N 739.05 0.861098 -1.31996 0
M  V30 7699 C 740.275 1.65264 -1.2531 0
M  V30 7700 C 740.7 1.87265 0.177007 0
M  V30 7701 O 740.058 1.4208 1.12619 0
M  V30 7702 C 740.106 2.99284 -2.0115 0
M  V30 7703 O 739.21 3.89508 -1.3549 0
M  V30 7704 H 738.551 0.50409 -0.432192 0
M  V30 7705 H 741.081 1.07297 -1.74208 0
M  V30 7706 H 741.091 3.49154 -2.11081 0
M  V30 7707 H 739.766 2.82591 -3.05148 0
M  V30 7708 H 738.343 3.47966 -1.34066 0
M  V30 7709 N 740.528 1.15101 1.07655 0
M  V30 7710 C 741.438 0.858869 2.18313 0
M  V30 7711 C 742.454 -0.163641 1.73229 0
M  V30 7712 O 743.63 0.00969541 2.01398 0
M  V30 7713 C 740.695 0.34893 3.4494 0
M  V30 7714 C 739.756 1.43495 4.04608 0
M  V30 7715 C 738.989 0.949253 5.2519 0
M  V30 7716 O 739.212 -0.20636 5.70027 0
M  V30 7717 O 738.146 1.73161 5.76454 0
M  V30 7718 H 741.972 1.78386 2.45788 0
M  V30 7719 H 739.557 0.929876 1.16934 0
M  V30 7720 H 741.439 0.070851 4.2134 0
M  V30 7721 H 740.114 -0.548237 3.19024 0
M  V30 7722 H 739.021 1.7666 3.29761 0
M  V30 7723 H 740.354 2.30692 4.3479 0
M  V30 7724 N 742.006 -1.2595 0.947325 0
M  V30 7725 C 743.417 -1.75389 0.639963 0
M  V30 7726 C 743.768 -1.77081 -0.844788 0
M  V30 7727 O 742.893 -1.3869 -1.66114 0
M  V30 7728 C 743.488 -3.18506 1.15496 0
M  V30 7729 C 742.047 -3.65534 0.897894 0
M  V30 7730 C 741.194 -2.44818 1.30228 0
M  V30 7731 H 744.145 -1.1194 1.12495 0
M  V30 7732 H 744.166 -3.77045 0.511627 0
M  V30 7733 H 743.678 -3.17243 2.23559 0
M  V30 7734 H 741.779 -3.72221 -0.168096 0
M  V30 7735 H 741.892 -4.54039 1.52922 0
M  V30 7736 H 740.256 -2.44291 0.720678 0
M  V30 7737 H 741.039 -2.46251 2.39198 0
M  V30 7738 N 743.484 -0.715051 -1.40445 0
M  V30 7739 C 744.724 -0.258742 -2.02756 0
M  V30 7740 C 745.088 1.12661 -1.55472 0
M  V30 7741 O 746.289 1.67988 -2.09842 0
M  V30 7742 C 744.56 -0.335201 -3.55825 0
M  V30 7743 S 746.119 0.044201 -4.38778 0
M  V30 7744 H 742.937 -0.102683 -0.703546 0
M  V30 7745 H 745.539 -0.937151 -1.71574 0
M  V30 7746 H 744.243 -1.34511 -3.87731 0
M  V30 7747 H 743.774 0.361705 -3.91734 0
M  V30 7748 H 745.789 1.26639 -4.79768 0
M  V30 7749 N 744.962 1.50701 -0.461195 0
M  V30 7750 C 745.892 2.31182 0.328184 0
M  V30 7751 C 746.873 1.37644 0.999408 0
M  V30 7752 O 748.058 1.66565 0.99848 0
M  V30 7753 C 745.188 3.17113 1.41621 0
M  V30 7754 C 744.142 4.19124 0.867148 0
M  V30 7755 C 743.468 4.93728 2.05272 0
M  V30 7756 C 744.768 5.22174 -0.114808 0
M  V30 7757 H 746.462 2.97423 -0.343501 0
M  V30 7758 H 744.008 1.43033 -0.166641 0
M  V30 7759 H 745.961 3.72208 1.97584 0
M  V30 7760 H 744.685 2.48739 2.11652 0
M  V30 7761 H 743.344 3.65116 0.329557 0
M  V30 7762 H 742.992 4.21835 2.73978 0
M  V30 7763 H 742.692 5.62724 1.69161 0
M  V30 7764 H 744.216 5.51654 2.61744 0
M  V30 7765 H 745.63 5.72198 0.355316 0
M  V30 7766 H 744.027 5.98833 -0.389689 0
M  V30 7767 H 745.097 4.7353 -1.04391 0
M  V30 7768 N 746.441 0.193421 1.56409 0
M  V30 7769 C 747.373 -0.759944 2.16235 0
M  V30 7770 C 748.386 -1.17797 1.12373 0
M  V30 7771 O 749.575 -1.11399 1.39472 0
M  V30 7772 C 746.675 -2.03735 2.70823 0
M  V30 7773 C 745.848 -1.77939 3.9957 0
M  V30 7774 C 744.907 -2.90111 4.39001 0
M  V30 7775 O 743.933 -2.59791 5.06456 0
M  V30 7776 N 745.135 -4.18426 4.02368 0
M  V30 7777 H 747.9 -0.248348 2.98669 0
M  V30 7778 H 745.461 0.0113966 1.61896 0
M  V30 7779 H 747.453 -2.77914 2.94187 0
M  V30 7780 H 746.023 -2.46022 1.92852 0
M  V30 7781 H 745.243 -0.875491 3.84355 0
M  V30 7782 H 746.531 -1.58099 4.83614 0
M  V30 7783 H 745.929 -4.45913 3.48106 0
M  V30 7784 H 744.486 -4.89237 4.30686 0
M  V30 7785 N 747.919 -1.57396 -0.0801906 0
M  V30 7786 C 748.867 -2.04136 -1.11495 0
M  V30 7787 C 749.861 -0.945137 -1.40583 0
M  V30 7788 O 751.067 -1.13028 -1.40088 0
M  V30 7789 H 747.442 -0.65076 -0.37685 0
M  V30 7790 H 749.413 -2.90205 -0.694526 0
M  V30 7791 C 748.162 -2.49399 -2.42272 0
M  V30 7792 H 747.485 -3.33339 -2.20737 0
M  V30 7793 H 748.925 -2.85864 -3.13142 0
M  V30 7794 C 747.384 -1.37341 -3.07635 0
M  V30 7795 O 747.914 -0.710829 -3.95361 0
M  V30 7796 N 746.12 -1.12064 -2.68123 0
M  V30 7797 H 745.667 -1.66126 -1.96875 0
M  V30 7798 H 745.625 -0.372916 -3.12181 0
M  V30 7799 N 749.397 0.351382 -1.53633 0
M  V30 7800 C 750.307 1.45471 -1.84052 0
M  V30 7801 C 751.323 1.57945 -0.730015 0
M  V30 7802 O 752.499 1.73571 -1.02153 0
M  V30 7803 C 749.564 2.80562 -2.03681 0
M  V30 7804 C 748.625 2.77497 -3.27558 0
M  V30 7805 C 747.858 4.06144 -3.46241 0
M  V30 7806 O 748.081 5.03028 -2.68922 0
M  V30 7807 O 747.015 4.11092 -4.39645 0
M  V30 7808 H 750.841 1.22684 -2.77817 0
M  V30 7809 H 748.426 0.542827 -1.3919 0
M  V30 7810 H 750.308 3.6058 -2.18082 0
M  V30 7811 H 748.983 3.03296 -1.13106 0
M  V30 7812 H 747.89 1.96126 -3.18568 0
M  V30 7813 H 749.223 2.59716 -4.18101 0
M  V30 7814 N 750.875 1.45233 0.611969 0
M  V30 7815 C 752.121 1.49242 1.37312 0
M  V30 7816 C 752.454 0.131963 1.93751 0
M  V30 7817 O 751.729 -0.852999 1.74798 0
M  V30 7818 C 752.012 2.56811 2.52428 0
M  V30 7819 C 751.865 4.02284 2.01215 0
M  V30 7820 C 753.184 2.60705 3.54572 0
M  V30 7821 H 750.303 0.54336 0.497925 0
M  V30 7822 H 752.945 1.77019 0.690242 0
M  V30 7823 H 751.095 2.33256 3.10683 0
M  V30 7824 H 752.767 4.37035 1.47643 0
M  V30 7825 H 751.01 4.1315 1.32248 0
M  V30 7826 H 751.681 4.7323 2.84178 0
M  V30 7827 H 754.157 2.81799 3.06151 0
M  V30 7828 H 753.033 3.37841 4.32614 0
M  V30 7829 H 753.294 1.65627 4.09903 0
M  V30 7830 N 752.353 -0.854086 1.3245 0
M  V30 7831 C 753.3 -1.96271 1.21434 0
M  V30 7832 C 754.27 -1.6582 0.0963851 0
M  V30 7833 O 755.455 -1.88851 0.27203 0
M  V30 7834 C 752.595 -3.31939 0.943952 0
M  V30 7835 C 751.708 -3.74885 2.14675 0
M  V30 7836 C 750.843 -4.99347 1.81179 0
M  V30 7837 C 749.882 -5.34785 2.97777 0
M  V30 7838 N 749.019 -6.50425 2.6437 0
M  V30 7839 H 753.859 -2.05025 2.16261 0
M  V30 7840 H 751.396 -1.00348 1.07558 0
M  V30 7841 H 753.354 -4.10076 0.767675 0
M  V30 7842 H 751.984 -3.22784 0.0324763 0
M  V30 7843 H 751.036 -2.92396 2.43328 0
M  V30 7844 H 752.348 -3.97068 3.01891 0
M  V30 7845 H 751.502 -5.85193 1.60107 0
M  V30 7846 H 750.241 -4.79101 0.911777 0
M  V30 7847 H 749.246 -4.47451 3.1948 0
M  V30 7848 H 750.471 -5.56988 3.88511 0
M  V30 7849 H 748.417 -6.31695 1.7691 0
M  V30 7850 H 748.334 -6.7263 3.45116 0
M  V30 7851 H 749.602 -7.39422 2.46729 0
M  V30 7852 N 753.831 -1.1567 -1.07043 0
M  V30 7853 C 755.056 -0.957946 -1.83952 0
M  V30 7854 C 755.481 0.488807 -1.81638 0
M  V30 7855 O 754.839 1.34869 -1.21162 0
M  V30 7856 C 754.887 -1.48064 -3.288 0
M  V30 7857 O 753.991 -0.681921 -4.06723 0
M  V30 7858 H 753.332 -0.341453 -0.569479 0
M  V30 7859 H 755.862 -1.53728 -1.35015 0
M  V30 7860 H 755.872 -1.49484 -3.7963 0
M  V30 7861 H 754.547 -2.53388 -3.29799 0
M  V30 7862 H 753.124 -0.737612 -3.65532 0
M  V30 7863 N 755.309 1.25446 -0.953992 0
M  V30 7864 C 756.555 1.9343 -0.60933 0
M  V30 7865 C 756.888 1.74542 0.851388 0
M  V30 7866 O 756.163 1.09014 1.61078 0
M  V30 7867 C 756.446 3.46844 -0.968041 0
M  V30 7868 C 756.299 3.74961 -2.48444 0
M  V30 7869 C 757.618 4.37334 -0.492641 0
M  V30 7870 H 754.737 0.702502 -0.222844 0
M  V30 7871 H 757.379 1.48076 -1.19053 0
M  V30 7872 H 755.529 3.85604 -0.473465 0
M  V30 7873 H 757.201 3.45841 -3.05273 0
M  V30 7874 H 755.444 3.20589 -2.92241 0
M  V30 7875 H 756.115 4.82246 -2.68594 0
M  V30 7876 H 758.591 4.05873 -0.916878 0
M  V30 7877 H 757.467 5.43439 -0.772331 0
M  V30 7878 H 757.728 4.37908 0.607403 0
M  V30 7879 N 756.787 0.722489 1.40064 0
M  V30 7880 C 757.719 0.0349057 2.29173 0
M  V30 7881 C 758.732 -0.716571 1.46182 0
M  V30 7882 O 759.921 -0.562806 1.69395 0
M  V30 7883 C 757.021 -0.974839 3.24577 0
M  V30 7884 C 756.194 -0.287471 4.36454 0
M  V30 7885 C 755.253 -1.20356 5.12251 0
M  V30 7886 O 754.279 -0.685753 5.65054 0
M  V30 7887 N 755.481 -2.53422 5.22262 0
M  V30 7888 H 758.246 0.800058 2.88824 0
M  V30 7889 H 755.807 0.57068 1.51509 0
M  V30 7890 H 757.799 -1.59002 3.72157 0
M  V30 7891 H 756.369 -1.6413 2.66046 0
M  V30 7892 H 755.589 0.508008 3.90913 0
M  V30 7893 H 756.877 0.189382 5.08447 0
M  V30 7894 H 756.275 -2.97981 4.80857 0
M  V30 7895 H 754.832 -3.10067 5.73325 0
M  V30 7896 N 758.265 -1.50454 0.469181 0
M  V30 7897 C 759.676 -1.86695 0.0136034 0
M  V30 7898 C 760.027 -1.38413 -1.39055 0
M  V30 7899 O 759.152 -0.748294 -2.03051 0
M  V30 7900 C 759.747 -3.38795 0.0179098 0
M  V30 7901 C 758.306 -3.74455 -0.382191 0
M  V30 7902 C 757.453 -2.74338 0.404207 0
M  V30 7903 H 760.404 -1.43225 0.683547 0
M  V30 7904 H 760.425 -3.72321 -0.78468 0
M  V30 7905 H 759.937 -3.73906 1.04 0
M  V30 7906 H 758.038 -3.44944 -1.4087 0
M  V30 7907 H 758.151 -4.79025 -0.084862 0
M  V30 7908 H 756.515 -2.54305 -0.141829 0
M  V30 7909 H 757.298 -3.12293 1.42577 0
M  V30 7910 N 759.743 -0.201713 -1.56304 0
M  V30 7911 C 760.991 0.434447 -1.97375 0
M  V30 7912 C 761.312 1.61692 -1.08998 0
M  V30 7913 O 760.582 1.95223 -0.162682 0
M  V30 7914 H 759.162 0.163497 -0.728888 0
M  V30 7915 H 761.824 -0.289988 -1.92731 0
M  V30 7916 H 760.92 0.774136 -3.02347 0
M  V30 7917 N 761.222 1.57436 0.0718424 0
M  V30 7918 C 762.132 2.07039 1.10326 0
M  V30 7919 C 763.148 0.999918 1.424 0
M  V30 7920 O 764.324 1.31462 1.52577 0
M  V30 7921 C 761.389 2.50439 2.39752 0
M  V30 7922 C 760.45 3.71784 2.14651 0
M  V30 7923 C 759.683 4.13104 3.37906 0
M  V30 7924 O 759.906 3.54298 4.47023 0
M  V30 7925 O 758.84 5.05894 3.26121 0
M  V30 7926 H 762.666 2.95239 0.711872 0
M  V30 7927 H 760.251 1.46638 0.28597 0
M  V30 7928 H 762.133 2.78876 3.15921 0
M  V30 7929 H 760.808 1.65368 2.78271 0
M  V30 7930 H 759.715 3.48431 1.36187 0
M  V30 7931 H 761.048 4.57707 1.81012 0
M  V30 7932 N 762.7 -0.34323 1.53817 0
M  V30 7933 C 763.946 -1.08504 1.71332 0
M  V30 7934 C 764.279 -1.88294 0.475285 0
M  V30 7935 O 763.554 -1.87205 -0.527688 0
M  V30 7936 C 763.837 -2.02597 2.97702 0
M  V30 7937 C 763.69 -1.26268 4.31713 0
M  V30 7938 C 765.009 -3.0241 3.19744 0
M  V30 7939 H 762.128 -0.393072 0.623429 0
M  V30 7940 H 764.77 -0.363579 1.86489 0
M  V30 7941 H 762.92 -2.64118 2.8491 0
M  V30 7942 H 764.592 -0.673594 4.56356 0
M  V30 7943 H 762.835 -0.564696 4.30109 0
M  V30 7944 H 763.506 -1.95253 5.16314 0
M  V30 7945 H 765.982 -2.51004 3.31868 0
M  V30 7946 H 764.858 -3.65449 4.09558 0
M  V30 7947 H 765.119 -3.73806 2.36054 0
M  V30 7948 N 764.178 -1.45556 -0.604258 0
M  V30 7949 C 765.418 -1.51289 -1.37445 0
M  V30 7950 C 765.782 -0.152112 -1.91397 0
M  V30 7951 O 766.983 -0.0841419 -2.68668 0
M  V30 7952 C 765.254 -2.5646 -2.48924 0
M  V30 7953 S 766.813 -2.81442 -3.36654 0
M  V30 7954 H 763.631 -0.534774 -0.468549 0
M  V30 7955 H 766.233 -1.82657 -0.696902 0
M  V30 7956 H 764.937 -3.53995 -2.07644 0
M  V30 7957 H 764.468 -2.26753 -3.21476 0
M  V30 7958 H 766.483 -2.15074 -4.47166 0
M  V30 7959 N 765.656 0.84705 -1.32902 0
M  V30 7960 C 766.896 1.61554 -1.25218 0
M  V30 7961 C 767.26 1.91141 0.18143 0
M  V30 7962 O 768.461 2.6607 0.382106 0
M  V30 7963 C 766.732 2.89553 -2.09509 0
M  V30 7964 S 768.291 3.80283 -2.18931 0
M  V30 7965 H 765.109 0.554031 -0.445613 0
M  V30 7966 H 767.711 1.00251 -1.67839 0
M  V30 7967 H 766.415 2.65776 -3.12716 0
M  V30 7968 H 765.946 3.55868 -1.67694 0
M  V30 7969 H 767.961 4.77641 -1.34438 0
M  V30 7970 N 767.134 1.16236 1.06428 0
M  V30 7971 C 768.38 0.954417 1.79617 0
M  V30 7972 C 768.735 -0.512411 1.85451 0
M  V30 7973 O 768.028 -1.37523 1.33409 0
M  V30 7974 C 768.222 1.51396 3.2375 0
M  V30 7975 C 768.051 3.03367 3.31962 0
M  V30 7976 C 766.821 3.71996 3.41975 0
M  V30 7977 C 769.019 4.01075 3.21937 0
M  V30 7978 N 767.001 5.11688 3.39187 0
M  V30 7979 C 768.372 5.27142 3.26376 0
M  V30 7980 C 770.427 3.92917 3.05812 0
M  V30 7981 C 769.13 6.46 3.16348 0
M  V30 7982 C 771.156 5.11344 2.97121 0
M  V30 7983 C 770.518 6.36291 3.02181 0
M  V30 7984 H 766.617 0.403007 0.670156 0
M  V30 7985 H 769.201 1.47605 1.26968 0
M  V30 7986 H 767.372 1.01883 3.74799 0
M  V30 7987 H 769.104 1.2439 3.85109 0
M  V30 7988 H 765.859 3.22623 3.46715 0
M  V30 7989 H 766.283 5.84676 3.41297 0
M  V30 7990 H 770.925 2.97172 3.00746 0
M  V30 7991 H 768.643 7.41968 3.2017 0
M  V30 7992 H 772.229 5.06801 2.85734 0
M  V30 7993 H 771.109 7.26389 2.95513 0
M  V30 7994 N 768.612 -1.24939 0.960631 0
M  V30 7995 C 769.542 -2.28 0.503815 0
M  V30 7996 C 770.523 -1.63959 -0.452928 0
M  V30 7997 O 771.708 -1.91009 -0.350585 0
M  V30 7998 C 768.838 -3.46643 -0.213535 0
M  V30 7999 C 767.792 -4.22903 0.658535 0
M  V30 8000 C 767.118 -5.34363 -0.189902 0
M  V30 8001 C 768.418 -4.84949 1.93963 0
M  V30 8002 H 770.112 -2.66462 1.36521 0
M  V30 8003 H 767.658 -1.28093 0.657897 0
M  V30 8004 H 769.611 -4.1787 -0.544286 0
M  V30 8005 H 768.335 -3.07187 -1.10923 0
M  V30 8006 H 766.994 -3.53467 0.972455 0
M  V30 8007 H 766.642 -4.91147 -1.08553 0
M  V30 8008 H 766.342 -5.86302 0.390331 0
M  V30 8009 H 767.866 -6.0842 -0.515484 0
M  V30 8010 H 769.28 -5.48288 1.67491 0
M  V30 8011 H 767.677 -5.47091 2.46601 0
M  V30 8012 H 768.747 -4.06799 2.639 0
M  V30 8013 N 770.09 -0.729906 -1.39679 0
M  V30 8014 C 771.33 -0.280232 -2.0247 0
M  V30 8015 C 771.694 1.11006 -1.56658 0
M  V30 8016 O 772.895 1.65753 -2.11612 0
M  V30 8017 C 771.166 -0.372922 -3.55449 0
M  V30 8018 S 772.725 -0.00233974 -4.388 0
M  V30 8019 H 769.543 -0.110139 -0.702418 0
M  V30 8020 H 772.145 -0.955296 -1.70571 0
M  V30 8021 H 770.849 -1.38616 -3.86282 0
M  V30 8022 H 770.38 0.320136 -3.92095 0
M  V30 8023 H 772.395 1.21544 -4.81084 0
M  V30 8024 N 771.568 1.50203 -0.477153 0
M  V30 8025 C 772.817 2.01551 0.0774548 0
M  V30 8026 C 773.13 1.36359 1.40234 0
M  V30 8027 O 774.336 1.78898 2.04225 0
M  V30 8028 C 772.792 3.59406 0.188539 0
M  V30 8029 C 772.4 4.3356 -1.12828 0
M  V30 8030 C 774.144 4.18776 0.694782 0
M  V30 8031 C 772.051 5.83213 -0.98066 0
M  V30 8032 H 770.981 0.75329 0.0327212 0
M  V30 8033 H 773.632 1.72959 -0.612969 0
M  V30 8034 H 772.014 3.84611 0.942881 0
M  V30 8035 H 773.188 4.20074 -1.89405 0
M  V30 8036 H 771.503 3.85827 -1.5661 0
M  V30 8037 H 774.1 5.28338 0.822356 0
M  V30 8038 H 774.443 3.80557 1.68766 0
M  V30 8039 H 774.976 3.978 -0.00234519 0
M  V30 8040 H 771.715 6.25914 -1.94709 0
M  V30 8041 H 771.235 5.99256 -0.255375 0
M  V30 8042 H 772.914 6.4373 -0.649717 0
M  V30 8043 N 773.046 0.209999 1.56195 0
M  V30 8044 C 774.457 -0.299943 1.84275 0
M  V30 8045 C 774.808 -1.60314 1.1311 0
M  V30 8046 O 773.933 -2.1273 0.396874 0
M  V30 8047 C 774.528 -0.550986 3.3429 0
M  V30 8048 C 773.087 -1.00526 3.62728 0
M  V30 8049 C 772.234 -0.0619828 2.77231 0
M  V30 8050 H 775.185 0.433458 1.52666 0
M  V30 8051 H 775.206 -1.39846 3.53869 0
M  V30 8052 H 774.718 0.397669 3.86057 0
M  V30 8053 H 772.819 -1.96768 3.16407 0
M  V30 8054 H 772.932 -0.887664 4.70805 0
M  V30 8055 H 771.296 -0.566648 2.48317 0
M  V30 8056 H 772.079 0.881383 3.31793 0
M  V30 8057 N 774.524 -1.57472 -0.0634922 0
M  V30 8058 C 775.764 -1.89491 -0.766312 0
M  V30 8059 C 776.128 -0.80475 -1.74321 0
M  V30 8060 O 777.329 -1.00825 -2.49174 0
M  V30 8061 C 775.6 -3.26731 -1.44851 0
M  V30 8062 S 777.159 -3.80516 -2.18525 0
M  V30 8063 H 773.977 -0.663832 -0.254653 0
M  V30 8064 H 776.579 -1.95488 -0.0220867 0
M  V30 8065 H 775.283 -4.03967 -0.723824 0
M  V30 8066 H 774.814 -3.23953 -2.232 0
M  V30 8067 H 776.829 -3.5647 -3.45172 0
M  V30 8068 N 776.003 0.335068 -1.53997 0
M  V30 8069 C 776.935 1.4327 -1.78903 0
M  V30 8070 C 777.948 1.48347 -0.670598 0
M  V30 8071 O 779.137 1.51277 -0.947494 0
M  V30 8072 C 776.237 2.81878 -1.88144 0
M  V30 8073 C 775.41 3.00141 -3.18174 0
M  V30 8074 C 774.469 4.19041 -3.18263 0
M  V30 8075 O 773.495 4.12751 -3.9195 0
M  V30 8076 N 774.697 5.28004 -2.41231 0
M  V30 8077 H 777.462 1.22272 -2.73623 0
M  V30 8078 H 775.023 0.524996 -1.53152 0
M  V30 8079 H 777.015 3.59609 -1.85644 0
M  V30 8080 H 775.585 2.9598 -1.00572 0
M  V30 8081 H 774.805 2.09808 -3.33728 0
M  V30 8082 H 776.093 3.0923 -4.04047 0
M  V30 8083 H 775.491 5.35986 -1.8093 0
M  V30 8084 H 774.048 6.04196 -2.44521 0
M  V30 8085 N 777.481 1.45874 0.596531 0
M  V30 8086 C 778.892 1.44798 1.17857 0
M  V30 8087 C 779.243 0.181443 1.95359 0
M  V30 8088 O 778.368 -0.716336 2.042 0
M  V30 8089 C 778.963 2.62333 2.14398 0
M  V30 8090 C 777.522 2.64342 2.67955 0
M  V30 8091 C 776.669 2.37244 1.43564 0
M  V30 8092 H 779.62 1.53954 0.385222 0
M  V30 8093 H 779.641 2.37063 2.97626 0
M  V30 8094 H 779.153 3.54499 1.57963 0
M  V30 8095 H 777.254 1.76213 3.28298 0
M  V30 8096 H 777.367 3.63897 3.11634 0
M  V30 8097 H 775.731 1.87022 1.72901 0
M  V30 8098 H 776.514 3.31568 0.889805 0
M  V30 8099 N 778.959 -0.83999 1.33349 0
M  V30 8100 C 780.189 -1.62492 1.27593 0
M  V30 8101 C 780.597 -1.88559 -0.155597 0
M  V30 8102 O 779.94 -1.46537 -1.10782 0
M  V30 8103 C 780.002 -2.99984 1.98116 0
M  V30 8104 C 779.666 -2.96892 3.47425 0
M  V30 8105 C 780.663 -2.72688 4.42648 0
M  V30 8106 C 778.348 -3.17063 3.89585 0
M  V30 8107 C 780.342 -2.68681 5.78004 0
M  V30 8108 C 778.029 -3.12682 5.25046 0
M  V30 8109 C 779.027 -2.88522 6.19067 0
M  V30 8110 O 778.715 -2.84042 7.52047 0
M  V30 8111 H 778.447 -0.512358 0.440982 0
M  V30 8112 H 781.001 -1.0545 1.76265 0
M  V30 8113 H 779.231 -3.58875 1.44034 0
M  V30 8114 H 780.92 -3.6084 1.85875 0
M  V30 8115 H 781.686 -2.56856 4.114 0
M  V30 8116 H 777.565 -3.34889 3.16813 0
M  V30 8117 H 781.109 -2.49743 6.51363 0
M  V30 8118 H 777.006 -3.28063 5.55918 0
M  V30 8119 H 777.774 -2.99892 7.61582 0
M  V30 8120 N 780.437 -1.16799 -1.0581 0
M  V30 8121 C 781.347 -0.893492 -2.16919 0
M  V30 8122 C 782.363 0.136061 -1.73467 0
M  V30 8123 O 783.539 -0.0417348 -2.01357 0
M  V30 8124 C 780.604 -0.403763 -3.44341 0
M  V30 8125 C 779.665 -1.49914 -4.02274 0
M  V30 8126 C 778.898 -1.03269 -5.23614 0
M  V30 8127 O 779.121 0.115647 -5.70283 0
M  V30 8128 O 778.055 -1.8231 -5.73626 0
M  V30 8129 H 781.881 -1.82274 -2.42919 0
M  V30 8130 H 779.466 -0.948361 -1.1544 0
M  V30 8131 H 781.348 -0.137874 -4.21174 0
M  V30 8132 H 780.023 0.497413 -3.19855 0
M  V30 8133 H 778.93 -1.81883 -3.26909 0
M  V30 8134 H 780.263 -2.3758 -4.31064 0
M  V30 8135 N 781.915 1.24427 -0.967243 0
M  V30 8136 C 783.145 1.96256 -0.64554 0
M  V30 8137 C 783.553 1.71959 0.789098 0
M  V30 8138 O 782.896 0.999913 1.54102 0
M  V30 8139 C 782.958 3.49553 -0.839798 0
M  V30 8140 C 782.622 3.97548 -2.25399 0
M  V30 8141 C 783.619 4.07257 -3.23168 0
M  V30 8142 C 781.304 4.30884 -2.58156 0
M  V30 8143 C 783.298 4.49635 -4.51782 0
M  V30 8144 C 780.985 4.72946 -3.86996 0
M  V30 8145 C 781.983 4.82286 -4.83621 0
M  V30 8146 O 781.671 5.23409 -6.10162 0
M  V30 8147 H 781.403 0.632002 -0.239895 0
M  V30 8148 H 783.957 1.59224 -1.29757 0
M  V30 8149 H 782.187 3.86479 -0.130603 0
M  V30 8150 H 783.876 4.02591 -0.517249 0
M  V30 8151 H 784.642 3.8172 -2.9919 0
M  V30 8152 H 780.521 4.22833 -1.83666 0
M  V30 8153 H 784.065 4.5684 -5.27203 0
M  V30 8154 H 779.962 4.9793 -4.10775 0
M  V30 8155 H 780.73 5.4156 -6.13722 0
M  V30 8156 N 783.393 0.737304 1.3929 0
M  V30 8157 C 784.809 0.413132 1.5416 0
M  V30 8158 C 785.009 -1.07574 1.70382 0
M  V30 8159 O 784.065 -1.86185 1.70562 0
M  V30 8160 C 785.378 1.19817 2.75798 0
M  V30 8161 C 786.926 1.18662 2.89635 0
M  V30 8162 C 787.401 1.95427 4.14213 0
M  V30 8163 N 788.892 1.92605 4.21257 0
M  V30 8164 C 789.627 2.48808 5.16606 0
M  V30 8165 N 789.123 3.13659 6.1773 0
M  V30 8166 N 790.916 2.38829 5.08839 0
M  V30 8167 H 783.067 1.70243 1.27008 0
M  V30 8168 H 785.33 0.720802 0.61575 0
M  V30 8169 H 785.036 2.25179 2.70161 0
M  V30 8170 H 784.91 0.804144 3.68529 0
M  V30 8171 H 787.297 0.141112 2.94762 0
M  V30 8172 H 787.378 1.62003 1.97961 0
M  V30 8173 H 787.022 2.9998 4.09847 0
M  V30 8174 H 786.952 1.4949 5.04936 0
M  V30 8175 H 789.443 1.45362 3.48824 0
M  V30 8176 H 789.756 3.54006 6.8695 0
M  V30 8177 H 788.101 3.17749 6.1811 0
M  V30 8178 H 791.292 1.87806 4.28773 0
M  V30 8179 H 791.465 2.82929 5.82971 0
M  V30 8180 N 784.871 -1.49948 0.485112 0
M  V30 8181 C 785.801 -2.31675 -0.291364 0
M  V30 8182 C 786.782 -1.39216 -0.977383 0
M  V30 8183 O 787.967 -1.68133 -0.971855 0
M  V30 8184 C 785.097 -3.19326 -1.36558 0
M  V30 8185 C 784.051 -4.2045 -0.800359 0
M  V30 8186 C 783.377 -4.96931 -1.97391 0
M  V30 8187 C 784.677 -5.21925 0.197867 0
M  V30 8188 H 786.371 -2.96839 0.390775 0
M  V30 8189 H 783.917 -1.42749 0.189375 0
M  V30 8190 H 785.87 -3.75304 -1.91638 0
M  V30 8191 H 784.594 -2.52074 -2.07668 0
M  V30 8192 H 783.253 -3.65594 -0.271428 0
M  V30 8193 H 782.901 -4.26141 -2.67232 0
M  V30 8194 H 782.601 -5.65344 -1.60187 0
M  V30 8195 H 784.125 -5.55749 -2.52935 0
M  V30 8196 H 785.539 -5.72691 -0.264239 0
M  V30 8197 H 783.936 -5.98138 0.484908 0
M  V30 8198 H 785.006 -4.71809 1.11912 0
M  V30 8199 N 786.349 -0.21828 -1.56081 0
M  V30 8200 C 787.626 0.463143 -1.90038 0
M  V30 8201 C 788.006 1.77982 -1.13515 0
M  V30 8202 O 787.354 2.27199 -0.24345 0
M  V30 8203 C 787.564 0.659292 -3.42716 0
M  V30 8204 C 788.912 0.968203 -4.13414 0
M  V30 8205 O 789.936 0.746195 -3.48296 0
M  V30 8206 O 788.795 1.38936 -5.28544 0
M  V30 8207 H 785.889 0.244435 -0.790051 0
M  V30 8208 H 788.435 -0.260221 -1.67693 0
M  V30 8209 H 787.207 -0.269584 -3.9037 0
M  V30 8210 H 786.83 1.43426 -3.7083 0
M  V30 8211 N 787.827 1.57504 0.0551401 0
M  V30 8212 C 788.737 2.08198 1.08124 0
M  V30 8213 C 789.753 1.01496 1.41331 0
M  V30 8214 O 790.929 1.33073 1.51174 0
M  V30 8215 C 787.994 2.52968 2.37083 0
M  V30 8216 C 787.055 3.7404 2.10696 0
M  V30 8217 C 786.288 4.16665 3.33505 0
M  V30 8218 O 786.511 3.59019 4.4324 0
M  V30 8219 O 785.445 5.09324 3.20737 0
M  V30 8220 H 789.271 2.95977 0.680518 0
M  V30 8221 H 786.856 1.46933 0.270401 0
M  V30 8222 H 788.738 2.82211 3.12946 0
M  V30 8223 H 787.413 1.6831 2.76502 0
M  V30 8224 H 786.32 3.49855 1.32484 0
M  V30 8225 H 787.653 4.59601 1.76148 0
M  V30 8226 N 789.305 -0.326896 1.54172 0
M  V30 8227 C 790.552 -1.06523 1.72218 0
M  V30 8228 C 790.88 -1.88119 0.494114 0
M  V30 8229 O 790.135 -1.8855 -0.524147 0
M  V30 8230 C 790.434 -2.0208 2.94785 0
M  V30 8231 C 790.1 -1.36665 4.2969 0
M  V30 8232 C 788.762 -1.18556 4.66367 0
M  V30 8233 C 791.114 -0.896868 5.13425 0
M  V30 8234 C 788.442 -0.521113 5.84381 0
M  V30 8235 C 790.794 -0.246261 6.3212 0
M  V30 8236 C 789.458 -0.052987 6.67479 0
M  V30 8237 H 788.728 -0.389796 0.63019 0
M  V30 8238 H 791.375 -0.342725 1.88408 0
M  V30 8239 H 789.68 -2.8077 2.73268 0
M  V30 8240 H 791.377 -2.59231 3.05941 0
M  V30 8241 H 787.967 -1.51762 4.00832 0
M  V30 8242 H 792.151 -1.02458 4.85609 0
M  V30 8243 H 787.407 -0.36014 6.10338 0
M  V30 8244 H 791.581 0.125775 6.96286 0
M  V30 8245 H 789.208 0.463903 7.58783 0
M  V30 8246 N 790.784 -1.46188 -0.588786 0
M  V30 8247 C 792.012 -1.54743 -1.37339 0
M  V30 8248 C 792.427 -0.186446 -1.87877 0
M  V30 8249 O 791.784 0.815247 -1.63279 0
M  V30 8250 C 791.835 -2.54727 -2.56508 0
M  V30 8251 O 791.556 -3.85539 -2.08066 0
M  V30 8252 C 793.057 -2.73163 -3.49137 0
M  V30 8253 H 790.277 -0.523484 -0.419768 0
M  V30 8254 H 792.821 -1.91543 -0.716345 0
M  V30 8255 H 790.976 -2.20948 -3.18215 0
M  V30 8256 H 791.39 -4.39905 -2.85629 0
M  V30 8257 H 792.864 -3.47057 -4.2925 0
M  V30 8258 H 793.341 -1.79856 -4.00685 0
M  V30 8259 H 793.947 -3.08014 -2.9327 0
M  V30 8260 N 792.262 0.832906 -1.33792 0
M  V30 8261 C 793.502 1.60217 -1.26925 0
M  V30 8262 C 793.866 1.91323 0.161146 0
M  V30 8263 O 795.067 2.66461 0.353864 0
M  V30 8264 C 793.338 2.87314 -2.12568 0
M  V30 8265 S 794.897 3.77939 -2.22952 0
M  V30 8266 H 791.715 0.549273 -0.451464 0
M  V30 8267 H 794.317 0.984648 -1.68893 0
M  V30 8268 H 793.021 2.62444 -3.15518 0
M  V30 8269 H 792.552 3.5407 -1.71459 0
M  V30 8270 H 794.567 4.76188 -1.39496 0
M  V30 8271 N 793.74 1.17359 1.05189 0
M  V30 8272 C 794.703 0.892604 2.11105 0
M  V30 8273 C 795.703 -0.117236 1.60372 0
M  V30 8274 O 796.893 0.114936 1.7382 0
M  V30 8275 C 794.025 0.337032 3.3923 0
M  V30 8276 H 795.218 1.83169 2.37464 0
M  V30 8277 H 792.771 0.984051 1.21434 0
M  V30 8278 H 793.506 -0.609198 3.18527 0
M  V30 8279 H 793.291 1.06484 3.77364 0
M  V30 8280 H 794.781 0.158763 4.17298 0
M  V30 8281 N 795.218 -1.23913 0.973828 0
M  V30 8282 C 796.495 -1.87539 0.555729 0
M  V30 8283 C 796.875 -1.87641 -0.967162 0
M  V30 8284 O 796.223 -1.35335 -1.84111 0
M  V30 8285 C 796.433 -3.29359 1.15427 0
M  V30 8286 C 797.781 -4.06 1.24294 0
M  V30 8287 O 798.805 -3.38554 1.10723 0
M  V30 8288 O 797.664 -5.26689 1.45813 0
M  V30 8289 H 794.758 -0.805769 0.186188 0
M  V30 8290 H 797.304 -1.31838 1.06849 0
M  V30 8291 H 796.076 -3.23817 2.19678 0
M  V30 8292 H 795.699 -3.92642 0.625925 0
M  V30 8293 N 796.696 -0.74468 -1.38897 0
M  V30 8294 C 797.936 -0.301691 -2.02161 0
M  V30 8295 C 798.3 1.09338 -1.57826 0
M  V30 8296 O 799.501 1.63499 -2.13358 0
M  V30 8297 C 797.772 -0.410601 -3.55034 0
M  V30 8298 S 799.331 -0.0488802 -4.38773 0
M  V30 8299 H 796.149 -0.117583 -0.70121 0
M  V30 8300 H 798.751 -0.973334 -1.69548 0
M  V30 8301 H 797.455 -1.42705 -3.8479 0
M  V30 8302 H 796.986 0.278531 -3.92413 0
M  V30 8303 H 799.001 1.16434 -4.82346 0
M  V30 8304 N 798.174 1.49689 -0.493057 0
M  V30 8305 C 799.422 2.02027 0.0541642 0
M  V30 8306 C 799.743 1.37554 1.38217 0
M  V30 8307 O 799.013 0.528174 1.88646 0
M  V30 8308 H 797.593 0.746646 0.0230069 0
M  V30 8309 H 800.255 1.83795 -0.648489 0
M  V30 8310 H 799.351 3.11523 0.189652 0
M  V30 8311 N 799.652 0.226554 1.55963 0
M  V30 8312 C 800.582 -0.676079 2.23498 0
M  V30 8313 C 801.563 -1.19718 1.20837 0
M  V30 8314 O 802.748 -1.24027 1.49436 0
M  V30 8315 C 799.878 -1.88217 2.91876 0
M  V30 8316 C 798.832 -1.4947 4.01052 0
M  V30 8317 C 798.158 -2.77997 4.56751 0
M  V30 8318 C 799.458 -0.680951 5.17842 0
M  V30 8319 H 801.152 -0.112989 2.99187 0
M  V30 8320 H 798.698 -0.0529046 1.43903 0
M  V30 8321 H 800.651 -2.51911 3.37815 0
M  V30 8322 H 799.375 -2.47031 2.13643 0
M  V30 8323 H 798.034 -0.881199 3.55852 0
M  V30 8324 H 797.682 -3.34966 3.75243 0
M  V30 8325 H 797.382 -2.52803 5.30438 0
M  V30 8326 H 798.906 -3.42625 5.05411 0
M  V30 8327 H 800.32 -1.22171 5.60131 0
M  V30 8328 H 798.717 -0.525898 5.97791 0
M  V30 8329 H 799.787 0.311346 4.83899 0
M  V30 8330 N 801.13 -1.57531 -0.0467866 0
M  V30 8331 C 802.378 -1.88078 -0.739656 0
M  V30 8332 C 802.699 -0.821936 -1.76831 0
M  V30 8333 O 801.969 0.146582 -1.95351 0
M  V30 8334 H 800.549 -0.694075 -0.276169 0
M  V30 8335 H 803.211 -1.94893 -0.0169391 0
M  V30 8336 H 802.307 -2.86396 -1.24031 0
M  V30 8337 N 802.608 0.318715 -1.54344 0
M  V30 8338 C 803.838 1.07394 -1.76494 0
M  V30 8339 C 804.246 1.82031 -0.515881 0
M  V30 8340 O 803.589 1.7609 0.52325 0
M  V30 8341 C 803.651 2.11401 -2.90775 0
M  V30 8342 C 803.315 1.56118 -4.29507 0
M  V30 8343 C 804.312 1.00043 -5.10184 0
M  V30 8344 C 801.997 1.60215 -4.76063 0
M  V30 8345 C 803.991 0.487993 -6.35529 0
M  V30 8346 C 801.678 1.08584 -6.01376 0
M  V30 8347 C 802.676 0.529714 -6.80943 0
M  V30 8348 O 802.364 0.0211823 -8.03897 0
M  V30 8349 H 802.096 0.325061 -0.592715 0
M  V30 8350 H 804.65 0.36901 -2.02058 0
M  V30 8351 H 802.88 2.85524 -2.60793 0
M  V30 8352 H 804.569 2.72683 -3.00664 0
M  V30 8353 H 805.335 0.961811 -4.75367 0
M  V30 8354 H 801.214 2.02441 -4.14172 0
M  V30 8355 H 804.758 0.0532608 -6.9758 0
M  V30 8356 H 800.655 1.12155 -6.35682 0
M  V30 8357 H 801.423 0.136151 -8.18387 0
M  V30 8358 N 804.086 1.46499 0.581025 0
M  V30 8359 C 805.332 1.53108 1.33901 0
M  V30 8360 C 805.687 0.181007 1.91547 0
M  V30 8361 O 804.98 -0.810518 1.73612 0
M  V30 8362 C 805.174 2.56686 2.48691 0
M  V30 8363 C 805.003 4.01633 2.0229 0
M  V30 8364 C 803.773 4.69333 1.87228 0
M  V30 8365 C 805.971 4.89379 1.58154 0
M  V30 8366 N 803.953 5.98891 1.34917 0
M  V30 8367 C 805.324 6.08775 1.17445 0
M  V30 8368 C 807.379 4.76017 1.45987 0
M  V30 8369 C 806.082 7.16286 0.657805 0
M  V30 8370 C 808.108 5.83601 0.95726 0
M  V30 8371 C 807.47 7.02171 0.55996 0
M  V30 8372 H 803.569 0.61509 0.482896 0
M  V30 8373 H 806.153 1.83123 0.661361 0
M  V30 8374 H 804.324 2.28578 3.14017 0
M  V30 8375 H 806.056 2.5328 3.15644 0
M  V30 8376 H 802.811 4.24878 2.09226 0
M  V30 8377 H 803.235 6.67852 1.10917 0
M  V30 8378 H 807.877 3.84736 1.75322 0
M  V30 8379 H 805.595 8.07333 0.352047 0
M  V30 8380 H 809.181 5.75304 0.867007 0
M  V30 8381 H 808.061 7.84 0.177046 0
M  V30 8382 N 805.565 -0.825799 1.34232 0
M  V30 8383 C 806.976 -1.39835 1.23706 0
M  V30 8384 C 807.327 -1.95709 -0.138649 0
M  V30 8385 O 806.452 -1.89833 -1.03886 0
M  V30 8386 C 807.047 -2.54203 2.23978 0
M  V30 8387 C 805.606 -3.07374 2.17251 0
M  V30 8388 C 804.753 -1.80232 2.10741 0
M  V30 8389 H 807.704 -0.630442 1.4564 0
M  V30 8390 H 807.725 -3.32214 1.8551 0
M  V30 8391 H 807.237 -2.13506 3.24094 0
M  V30 8392 H 805.338 -3.52583 1.20483 0
M  V30 8393 H 805.451 -3.6666 3.08379 0
M  V30 8394 H 803.815 -2.01012 1.56417 0
M  V30 8395 H 804.598 -1.41713 3.12686 0
M  V30 8396 N 807.043 -1.17915 -1.04565 0
M  V30 8397 C 807.991 -0.897919 -2.1457 0
M  V30 8398 C 808.985 0.139883 -1.68821 0
M  V30 8399 O 810.191 -0.00779463 -1.79998 0
M  V30 8400 H 806.566 -0.272867 -0.700748 0
M  V30 8401 H 808.537 -1.83268 -2.3549 0
M  V30 8402 C 807.286 -0.434634 -3.44973 0
M  V30 8403 H 806.609 -1.22469 -3.8058 0
M  V30 8404 H 808.049 -0.276804 -4.23095 0
M  V30 8405 C 806.508 0.848738 -3.26034 0
M  V30 8406 O 807.038 1.9141 -3.53164 0
M  V30 8407 N 805.244 0.799373 -2.79389 0
M  V30 8408 H 804.791 -0.0678192 -2.57511 0
M  V30 8409 H 804.749 1.6585 -2.67098 0
M  V30 8410 N 808.521 1.23394 -0.980386 0
M  V30 8411 C 809.484 2.23092 -0.525619 0
M  V30 8412 C 810.484 1.56129 0.384745 0
M  V30 8413 O 811.674 1.73284 0.178439 0
M  V30 8414 C 808.806 3.40074 0.23712 0
M  V30 8415 H 809.999 2.64839 -1.40714 0
M  V30 8416 H 807.552 1.36227 -0.766275 0
M  V30 8417 H 808.287 3.03783 1.13518 0
M  V30 8418 H 808.072 3.89883 -0.416356 0
M  V30 8419 H 809.562 4.14043 0.543892 0
M  V30 8420 N 809.999 0.752036 1.385 0
M  V30 8421 C 811.224 0.316993 2.04963 0
M  V30 8422 C 811.649 -1.04582 1.56346 0
M  V30 8423 O 811.007 -1.66616 0.714755 0
M  V30 8424 C 811.055 0.347235 3.58924 0
M  V30 8425 O 810.159 -0.659296 4.07096 0
M  V30 8426 H 809.5 0.140652 0.648932 0
M  V30 8427 H 812.03 1.02272 1.77205 0
M  V30 8428 H 812.04 0.19757 4.07521 0
M  V30 8429 H 810.715 1.34157 3.93668 0
M  V30 8430 H 809.292 -0.474371 3.6987 0
M  V30 8431 N 811.477 -1.49425 0.500989 0
M  V30 8432 C 812.407 -2.31971 -0.266775 0
M  V30 8433 C 813.388 -1.40245 -0.962563 0
M  V30 8434 O 814.573 -1.69154 -0.953968 0
M  V30 8435 C 811.703 -3.20757 -1.33163 0
M  V30 8436 C 810.657 -4.21275 -0.75572 0
M  V30 8437 C 809.983 -4.98997 -1.92109 0
M  V30 8438 C 811.283 -5.21686 0.253213 0
M  V30 8439 H 812.977 -2.96408 0.422237 0
M  V30 8440 H 810.523 -1.4254 0.204505 0
M  V30 8441 H 812.476 -3.77315 -1.87646 0
M  V30 8442 H 811.2 -2.54263 -2.04983 0
M  V30 8443 H 809.859 -3.65861 -0.232637 0
M  V30 8444 H 809.507 -4.28951 -2.62698 0
M  V30 8445 H 809.207 -5.67011 -1.54182 0
M  V30 8446 H 810.731 -5.584 -2.47026 0
M  V30 8447 H 812.145 -5.72939 -0.203483 0
M  V30 8448 H 810.542 -5.9759 0.548322 0
M  V30 8449 H 811.612 -4.70596 1.16909 0
M  V30 8450 N 812.955 -0.234822 -1.55841 0
M  V30 8451 C 814.183 0.397745 -2.03041 0
M  V30 8452 C 814.598 1.52405 -1.11437 0
M  V30 8453 O 813.955 1.82061 -0.126466 0
M  V30 8454 C 814.006 0.916919 -3.49678 0
M  V30 8455 O 813.727 -0.164493 -4.37791 0
M  V30 8456 C 815.228 1.62139 -4.12584 0
M  V30 8457 H 812.448 0.0959214 -0.664108 0
M  V30 8458 H 814.992 -0.355156 -2.01392 0
M  V30 8459 H 813.147 1.62004 -3.519 0
M  V30 8460 H 813.561 0.227794 -5.24005 0
M  V30 8461 H 815.035 1.93651 -5.16917 0
M  V30 8462 H 815.512 2.53918 -3.58361 0
M  V30 8463 H 816.118 0.963145 -4.14251 0
M  V30 8464 N 814.433 1.57553 0.0384317 0
M  V30 8465 C 815.681 1.88468 0.729672 0
M  V30 8466 C 816.002 0.831302 1.76393 0
M  V30 8467 O 815.272 -0.13622 1.95426 0
M  V30 8468 H 813.852 0.695529 0.272485 0
M  V30 8469 H 816.514 1.94899 0.0066032 0
M  V30 8470 H 815.61 2.8705 1.22511 0
M  V30 8471 N 815.911 -0.310526 1.54511 0
M  V30 8472 C 817.151 -1.05498 1.7507 0
M  V30 8473 C 817.515 -1.84814 0.520381 0
M  V30 8474 O 818.716 -2.61937 0.603547 0
M  V30 8475 C 816.987 -1.94466 2.99863 0
M  V30 8476 S 818.546 -2.75686 3.41383 0
M  V30 8477 H 815.364 -0.355951 0.615483 0
M  V30 8478 H 817.966 -0.329464 1.92704 0
M  V30 8479 H 816.67 -1.35055 3.87541 0
M  V30 8480 H 816.201 -2.71401 2.84789 0
M  V30 8481 H 818.216 -3.96971 2.97706 0
M  V30 8482 N 817.389 -1.46805 -0.573248 0
M  V30 8483 C 818.636 -1.52604 -1.3311 0
M  V30 8484 C 818.964 -0.181633 -1.9365 0
M  V30 8485 O 818.219 0.823775 -1.77517 0
M  V30 8486 C 818.518 -2.58001 -2.47326 0
M  V30 8487 C 818.184 -4.01747 -2.04719 0
M  V30 8488 C 816.846 -4.40881 -1.92814 0
M  V30 8489 C 819.198 -4.92008 -1.71982 0
M  V30 8490 C 816.526 -5.68129 -1.46445 0
M  V30 8491 C 818.878 -6.19703 -1.27089 0
M  V30 8492 C 817.542 -6.57733 -1.13768 0
M  V30 8493 H 816.812 -0.558417 -0.487084 0
M  V30 8494 H 819.459 -1.80327 -0.644538 0
M  V30 8495 H 817.764 -2.23974 -3.2147 0
M  V30 8496 H 819.461 -2.59715 -3.05531 0
M  V30 8497 H 816.051 -3.70819 -2.14922 0
M  V30 8498 H 820.235 -4.62485 -1.8006 0
M  V30 8499 H 815.491 -5.96359 -1.34783 0
M  V30 8500 H 819.665 -6.89064 -1.00814 0
M  V30 8501 H 817.292 -7.56228 -0.776142 0
M  V30 8502 N 818.867 0.818669 -1.34668 0
M  V30 8503 C 819.777 1.9616 -1.2868 0
M  V30 8504 C 820.793 1.72918 -0.193742 0
M  V30 8505 O 821.969 1.96951 -0.420975 0
M  V30 8506 C 819.034 3.30534 -1.04633 0
M  V30 8507 C 818.095 3.66755 -2.23136 0
M  V30 8508 C 817.328 4.94717 -2.00227 0
M  V30 8509 O 817.551 5.62218 -0.96264 0
M  V30 8510 O 816.485 5.28915 -2.87286 0
M  V30 8511 H 820.311 2.04157 -2.24842 0
M  V30 8512 H 817.896 0.954691 -1.14917 0
M  V30 8513 H 819.778 4.11005 -0.930216 0
M  V30 8514 H 818.453 3.23495 -0.115139 0
M  V30 8515 H 817.36 2.8671 -2.40308 0
M  V30 8516 H 818.693 3.78484 -3.1466 0
M  V30 8517 N 820.346 1.18468 1.03938 0
M  V30 8518 C 821.276 0.936389 2.13902 0
M  V30 8519 C 822.257 -0.126381 1.6963 0
M  V30 8520 O 823.442 0.0264757 1.94182 0
M  V30 8521 C 820.572 0.462729 3.44204 0
M  V30 8522 C 819.526 1.46613 4.02105 0
M  V30 8523 C 818.852 0.84994 5.27902 0
M  V30 8524 C 820.152 2.84323 4.3813 0
M  V30 8525 H 821.846 1.85602 2.3493 0
M  V30 8526 H 819.392 0.893806 1.12903 0
M  V30 8527 H 821.345 0.276382 4.20493 0
M  V30 8528 H 820.069 -0.492477 3.22866 0
M  V30 8529 H 818.728 1.63944 3.27899 0
M  V30 8530 H 818.376 -0.112493 5.02874 0
M  V30 8531 H 818.076 1.51988 5.67603 0
M  V30 8532 H 819.6 0.674152 6.06867 0
M  V30 8533 H 821.014 2.70636 5.054 0
M  V30 8534 H 819.411 3.48012 4.88884 0
M  V30 8535 H 820.481 3.37776 3.47901 0
M  V30 8536 N 821.824 -1.22873 0.986916 0
M  V30 8537 C 823.235 -1.73264 0.695438 0
M  V30 8538 C 823.586 -1.79679 -0.788023 0
M  V30 8539 O 822.711 -1.43905 -1.61618 0
M  V30 8540 C 823.306 -3.14671 1.2557 0
M  V30 8541 C 821.865 -3.62492 1.01373 0
M  V30 8542 C 821.012 -2.40551 1.37951 0
M  V30 8543 H 823.963 -1.08304 1.15999 0
M  V30 8544 H 823.984 -3.75226 0.631322 0
M  V30 8545 H 823.496 -3.0997 2.33539 0
M  V30 8546 H 821.597 -3.72567 -0.0495917 0
M  V30 8547 H 821.71 -4.48944 1.67289 0
M  V30 8548 H 820.074 -2.41875 0.798033 0
M  V30 8549 H 820.857 -2.38516 2.46911 0
M  V30 8550 N 823.302 -0.75937 -1.38099 0
M  V30 8551 C 824.234 -0.0956547 -2.29 0
M  V30 8552 C 825.247 0.677561 -1.4803 0
M  V30 8553 O 826.436 0.517696 -1.70828 0
M  V30 8554 C 823.536 0.88844 -3.27047 0
M  V30 8555 C 822.709 0.171652 -4.37063 0
M  V30 8556 C 821.768 1.06733 -5.15262 0
M  V30 8557 O 820.794 0.535698 -5.66674 0
M  V30 8558 N 821.996 2.39486 -5.28797 0
M  V30 8559 H 824.761 -0.876354 -2.86601 0
M  V30 8560 H 822.322 -0.61065 -1.49942 0
M  V30 8561 H 824.314 1.49079 -3.76241 0
M  V30 8562 H 822.884 1.57018 -2.70304 0
M  V30 8563 H 822.104 -0.611473 -3.89429 0
M  V30 8564 H 823.392 -0.324121 -5.07767 0
M  V30 8565 H 822.79 2.85127 -4.88589 0
M  V30 8566 H 821.347 2.94758 -5.81344 0
M  V30 8567 N 824.78 1.49157 -0.508906 0
M  V30 8568 C 825.69 2.33045 0.269656 0
M  V30 8569 C 826.706 1.45143 0.959662 0
M  V30 8570 O 827.882 1.78155 0.939295 0
M  V30 8571 C 824.947 3.20772 1.31554 0
M  V30 8572 C 824.008 4.24531 0.638131 0
M  V30 8573 C 823.241 5.08065 1.63418 0
M  V30 8574 O 823.464 4.93238 2.86483 0
M  V30 8575 O 822.398 5.90117 1.18516 0
M  V30 8576 H 826.224 3.00821 -0.417183 0
M  V30 8577 H 823.809 1.46938 -0.270119 0
M  V30 8578 H 825.691 3.75095 1.92047 0
M  V30 8579 H 824.366 2.55681 1.98516 0
M  V30 8580 H 823.273 3.74099 -0.00674357 0
M  V30 8581 H 824.606 4.92199 0.0108155 0
M  V30 8582 N 826.258 0.243083 1.55714 0
M  V30 8583 C 827.488 -0.38641 2.02954 0
M  V30 8584 C 827.896 -1.52358 1.12177 0
M  V30 8585 O 827.239 -1.83255 0.127853 0
M  V30 8586 C 827.301 -0.959388 3.46462 0
M  V30 8587 C 826.965 0.0450546 4.56978 0
M  V30 8588 C 827.962 0.853224 5.12851 0
M  V30 8589 C 825.647 0.170041 5.02012 0
M  V30 8590 C 827.641 1.77288 6.12248 0
M  V30 8591 C 825.328 1.0932 6.01242 0
M  V30 8592 C 826.326 1.89315 6.56238 0
M  V30 8593 O 826.014 2.80075 7.53534 0
M  V30 8594 H 825.746 -0.0964333 0.669086 0
M  V30 8595 H 828.3 0.363399 2.0216 0
M  V30 8596 H 826.53 -1.75869 3.44394 0
M  V30 8597 H 828.219 -1.49856 3.77224 0
M  V30 8598 H 828.985 0.767229 4.78893 0
M  V30 8599 H 824.864 -0.442528 4.58871 0
M  V30 8600 H 828.408 2.39768 6.55101 0
M  V30 8601 H 824.305 1.18013 6.3462 0
M  V30 8602 H 825.073 2.74393 7.71136 0
M  V30 8603 N 827.736 -1.57571 -0.0300757 0
M  V30 8604 C 828.985 -1.88407 -0.720126 0
M  V30 8605 C 829.298 -0.841466 -1.76575 0
M  V30 8606 O 830.504 -1.03902 -2.50832 0
M  V30 8607 C 828.96 -3.34348 -1.33188 0
M  V30 8608 C 828.568 -4.46837 -0.32266 0
M  V30 8609 C 830.312 -3.74333 -2.00187 0
M  V30 8610 C 828.219 -5.83838 -0.942703 0
M  V30 8611 H 827.149 -0.702952 -0.272718 0
M  V30 8612 H 829.8 -1.83482 0.0255337 0
M  V30 8613 H 828.182 -3.34014 -2.12721 0
M  V30 8614 H 829.356 -4.58638 0.445887 0
M  V30 8615 H 827.671 -4.15678 0.245181 0
M  V30 8616 H 830.268 -4.74008 -2.47428 0
M  V30 8617 H 830.611 -3.06275 -2.81959 0
M  V30 8618 H 831.144 -3.76837 -1.2743 0
M  V30 8619 H 827.883 -6.55294 -0.164413 0
M  V30 8620 H 827.403 -5.75759 -1.68111 0
M  V30 8621 H 829.082 -6.30535 -1.45034 0
M  V30 8622 N 829.214 0.302327 -1.54673 0
M  V30 8623 C 830.63 0.647911 -1.45857 0
M  V30 8624 C 830.83 1.90773 -0.64869 0
M  V30 8625 O 829.886 2.52018 -0.155865 0
M  V30 8626 C 831.199 0.802144 -2.89804 0
M  V30 8627 C 832.747 0.898114 -2.99838 0
M  V30 8628 C 833.222 1.08436 -4.44978 0
M  V30 8629 N 834.713 1.15059 -4.48682 0
M  V30 8630 C 835.448 1.31296 -5.58166 0
M  V30 8631 N 834.944 1.4444 -6.77576 0
M  V30 8632 N 836.737 1.34174 -5.45851 0
M  V30 8633 H 828.888 -0.525428 -2.05798 0
M  V30 8634 H 831.151 -0.173423 -0.932002 0
M  V30 8635 H 830.857 -0.0526531 -3.51661 0
M  V30 8636 H 830.731 1.69155 -3.37145 0
M  V30 8637 H 833.118 1.7434 -2.38096 0
M  V30 8638 H 833.199 -0.0152752 -2.55795 0
M  V30 8639 H 832.843 0.243843 -5.07314 0
M  V30 8640 H 832.773 2.01195 -4.8665 0
M  V30 8641 H 835.264 1.0626 -3.62653 0
M  V30 8642 H 835.577 1.56582 -7.56771 0
M  V30 8643 H 833.922 1.41499 -6.80443 0
M  V30 8644 H 837.113 1.23516 -4.5151 0
M  V30 8645 H 837.286 1.46485 -6.31226 0
M  V30 8646 N 830.692 1.47107 0.565454 0
M  V30 8647 C 831.938 1.54519 1.3227 0
M  V30 8648 C 832.293 0.201313 1.91344 0
M  V30 8649 O 831.586 -0.792058 1.74462 0
M  V30 8650 C 831.78 2.59309 2.45954 0
M  V30 8651 C 831.609 4.03756 1.98019 0
M  V30 8652 C 830.379 4.71293 1.8224 0
M  V30 8653 C 832.577 4.91029 1.52955 0
M  V30 8654 N 830.559 6.00288 1.28557 0
M  V30 8655 C 831.93 6.09986 1.10981 0
M  V30 8656 C 833.985 4.77539 1.4093 0
M  V30 8657 C 832.688 7.16943 0.581796 0
M  V30 8658 C 834.714 5.84584 0.895307 0
M  V30 8659 C 834.076 7.02725 0.485454 0
M  V30 8660 H 830.175 0.620177 0.476345 0
M  V30 8661 H 832.759 1.83814 0.641901 0
M  V30 8662 H 830.93 2.31896 3.11575 0
M  V30 8663 H 832.662 2.56614 3.1294 0
M  V30 8664 H 829.417 4.27074 2.04707 0
M  V30 8665 H 829.841 6.68991 1.03828 0
M  V30 8666 H 834.483 3.86574 1.71231 0
M  V30 8667 H 832.201 8.07661 0.266399 0
M  V30 8668 H 835.787 5.76191 0.805939 0
M  V30 8669 H 834.667 7.84144 0.0938828 0
M  V30 8670 N 832.17 -0.811516 1.35101 0
M  V30 8671 C 833.418 -1.56525 1.27845 0
M  V30 8672 C 833.739 -1.94435 -0.14829 0
M  V30 8673 O 833.009 -1.63203 -1.08359 0
M  V30 8674 H 831.589 -0.580433 0.47022 0
M  V30 8675 H 834.251 -0.968277 1.69146 0
M  V30 8676 H 833.347 -2.48291 1.89097 0
M  V30 8677 N 833.648 -1.19017 -1.03309 0
M  V30 8678 C 834.925 -0.899659 -1.73682 0
M  V30 8679 C 835.305 0.595677 -2.02521 0
M  V30 8680 O 834.653 1.55263 -1.67648 0
M  V30 8681 C 834.863 -1.75508 -3.01659 0
M  V30 8682 C 836.211 -1.98679 -3.75249 0
M  V30 8683 O 837.235 -1.72624 -3.11576 0
M  V30 8684 O 836.094 -2.42587 -4.89708 0
M  V30 8685 H 833.188 -0.334903 -0.756154 0
M  V30 8686 H 835.734 -1.29809 -1.09305 0
M  V30 8687 H 834.506 -2.7684 -2.76542 0
M  V30 8688 H 834.129 -1.35565 -3.73775 0
M  V30 8689 N 835.127 1.22348 -0.993418 0
M  V30 8690 C 836.09 2.22522 -0.549251 0
M  V30 8691 C 837.09 1.56529 0.368164 0
M  V30 8692 O 838.28 1.73463 0.16005 0
M  V30 8693 C 835.412 3.40307 0.201037 0
M  V30 8694 H 836.605 2.63332 -1.43515 0
M  V30 8695 H 834.158 1.35407 -0.78068 0
M  V30 8696 H 834.893 3.0497 1.10289 0
M  V30 8697 H 834.678 3.8942 -0.457685 0
M  V30 8698 H 836.168 4.14597 0.499946 0
M  V30 8699 N 836.605 0.766683 1.37694 0
M  V30 8700 C 837.851 0.338201 2.00569 0
M  V30 8701 C 838.206 -1.07196 1.59771 0
M  V30 8702 O 837.499 -1.72622 0.831402 0
M  V30 8703 C 837.693 0.413831 3.54996 0
M  V30 8704 C 837.522 1.8298 4.1079 0
M  V30 8705 C 836.292 2.44932 4.41969 0
M  V30 8706 C 838.49 2.78852 4.32141 0
M  V30 8707 N 836.472 3.78353 4.83448 0
M  V30 8708 C 837.843 3.97063 4.76174 0
M  V30 8709 C 839.898 2.76205 4.14265 0
M  V30 8710 C 838.601 5.13003 5.04203 0
M  V30 8711 C 840.627 3.91314 4.43427 0
M  V30 8712 C 839.989 5.08265 4.87694 0
M  V30 8713 H 836.088 0.170693 0.763143 0
M  V30 8714 H 838.672 0.999435 1.67091 0
M  V30 8715 H 836.843 -0.217198 3.87792 0
M  V30 8716 H 838.575 -0.036222 4.04684 0
M  V30 8717 H 835.33 1.9659 4.3087 0
M  V30 8718 H 835.754 4.46937 5.08504 0
M  V30 8719 H 840.396 1.86962 3.79216 0
M  V30 8720 H 838.114 6.0285 5.38142 0
M  V30 8721 H 841.7 3.906 4.31187 0
M  V30 8722 H 840.58 5.95858 5.09827 0
M  V30 8723 N 838.083 -1.48885 0.516809 0
M  V30 8724 C 839.046 -2.27916 -0.242256 0
M  V30 8725 C 840.046 -1.34601 -0.879735 0
M  V30 8726 O 841.236 -1.57616 -0.74182 0
M  V30 8727 C 838.368 -3.13067 -1.34914 0
M  V30 8728 H 839.561 -2.96483 0.451444 0
M  V30 8729 H 837.114 -1.5391 0.272294 0
M  V30 8730 H 837.849 -2.49102 -2.07651 0
M  V30 8731 H 837.634 -3.81695 -0.897313 0
M  V30 8732 H 839.124 -3.72716 -1.88341 0
M  V30 8733 N 839.561 -0.251338 -1.55583 0
M  V30 8734 C 840.807 0.37272 -1.99346 0
M  V30 8735 C 841.14 1.57266 -1.13934 0
M  V30 8736 O 840.415 1.9343 -0.20377 0
M  V30 8737 C 840.698 0.778245 -3.5159 0
M  V30 8738 C 840.551 -0.427394 -4.47765 0
M  V30 8739 C 841.87 1.62358 -4.09057 0
M  V30 8740 H 838.989 0.134002 -0.724715 0
M  V30 8741 H 841.631 -0.353536 -1.86682 0
M  V30 8742 H 839.781 1.39704 -3.62512 0
M  V30 8743 H 841.453 -1.06586 -4.48818 0
M  V30 8744 H 839.696 -1.06972 -4.20404 0
M  V30 8745 H 840.367 -0.10025 -5.51909 0
M  V30 8746 H 842.843 1.1012 -4.01264 0
M  V30 8747 H 841.719 1.87617 -5.1584 0
M  V30 8748 H 841.98 2.59688 -3.57791 0
M  V30 8749 N 841.039 1.57585 0.0217189 0
M  V30 8750 C 842.287 1.89231 0.709641 0
M  V30 8751 C 842.608 0.849964 1.75501 0
M  V30 8752 O 841.878 -0.115485 1.95559 0
M  V30 8753 H 840.458 0.69838 0.265092 0
M  V30 8754 H 843.12 1.94895 -0.0140688 0
M  V30 8755 H 842.216 2.88333 1.19459 0
M  V30 8756 N 842.517 -0.29412 1.54831 0
M  V30 8757 C 843.928 -0.866651 1.65366 0
M  V30 8758 C 844.279 -1.87834 0.56681 0
M  V30 8759 O 843.404 -2.14374 -0.295389 0
M  V30 8760 C 843.999 -1.57869 2.99771 0
M  V30 8761 C 842.558 -2.09954 3.12404 0
M  V30 8762 C 841.705 -0.934492 2.6108 0
M  V30 8763 H 844.656 -0.0709551 1.58541 0
M  V30 8764 H 844.677 -2.44462 2.91579 0
M  V30 8765 H 844.189 -0.84212 3.78853 0
M  V30 8766 H 842.29 -2.86637 2.38055 0
M  V30 8767 H 842.403 -2.32934 4.18663 0
M  V30 8768 H 840.767 -1.32199 2.17705 0
M  V30 8769 H 841.55 -0.211768 3.42646 0
M  V30 8770 N 843.995 -1.47404 -0.557645 0
M  V30 8771 C 845.241 -1.54235 -1.31679 0
M  V30 8772 C 845.574 -0.203782 -1.93128 0
M  V30 8773 O 844.849 0.787536 -1.77843 0
M  V30 8774 C 845.132 -2.66003 -2.42723 0
M  V30 8775 C 844.985 -4.09475 -1.86145 0
M  V30 8776 C 846.304 -2.73685 -3.44652 0
M  V30 8777 H 843.423 -0.561466 -0.477415 0
M  V30 8778 H 846.065 -1.79459 -0.624067 0
M  V30 8779 H 844.215 -2.44627 -3.01811 0
M  V30 8780 H 845.887 -4.42213 -1.31321 0
M  V30 8781 H 844.13 -4.17774 -1.16823 0
M  V30 8782 H 844.801 -4.83451 -2.66418 0
M  V30 8783 H 847.277 -2.92968 -2.95481 0
M  V30 8784 H 846.153 -3.53665 -4.19777 0
M  V30 8785 H 846.414 -1.80726 -4.03473 0
M  V30 8786 N 845.473 0.80434 -1.35529 0
M  V30 8787 C 846.701 1.59283 -1.32048 0
M  V30 8788 C 847.116 1.88527 0.101556 0
M  V30 8789 O 846.473 1.48975 1.05417 0
M  V30 8790 C 846.524 2.92276 -2.12737 0
M  V30 8791 O 846.245 2.64299 -3.49396 0
M  V30 8792 C 847.746 3.86631 -2.16867 0
M  V30 8793 H 844.966 0.494523 -0.453528 0
M  V30 8794 H 847.51 0.999415 -1.78415 0
M  V30 8795 H 845.665 3.48125 -1.69964 0
M  V30 8796 H 846.079 3.4923 -3.91329 0
M  V30 8797 H 847.553 4.77053 -2.77712 0
M  V30 8798 H 848.03 4.23384 -1.16803 0
M  V30 8799 H 848.636 3.36717 -2.59811 0
M  V30 8800 N 846.951 1.19563 1.02676 0
M  V30 8801 C 848.2 0.993864 1.75514 0
M  V30 8802 C 848.513 -0.475882 1.89723 0
M  V30 8803 O 849.719 -0.796525 2.59553 0
M  V30 8804 C 848.175 1.72937 3.15628 0
M  V30 8805 C 847.783 3.23937 3.09466 0
M  V30 8806 C 849.527 1.61092 3.92746 0
M  V30 8807 C 847.434 3.90067 4.44524 0
M  V30 8808 H 846.364 0.368244 0.657961 0
M  V30 8809 H 849.015 1.43081 1.14891 0
M  V30 8810 H 847.397 1.22025 3.76731 0
M  V30 8811 H 848.571 3.81983 2.57731 0
M  V30 8812 H 846.886 3.3608 2.45843 0
M  V30 8813 H 849.483 2.07848 4.92649 0
M  V30 8814 H 849.826 0.565415 4.12442 0
M  V30 8815 H 850.359 2.09361 3.3825 0
M  V30 8816 H 847.098 4.94725 4.30032 0
M  V30 8817 H 846.618 3.36809 4.96306 0
M  V30 8818 H 848.297 3.93736 5.13401 0
M  V30 8819 N 848.429 -1.21819 0.999893 0
M  V30 8820 C 849.392 -2.22227 0.561044 0
M  V30 8821 C 850.392 -1.56722 -0.359858 0
M  V30 8822 O 851.582 -1.73546 -0.150848 0
M  V30 8823 C 848.714 -3.40409 -0.182987 0
M  V30 8824 H 849.907 -2.62567 1.44909 0
M  V30 8825 H 847.46 -1.34991 0.78785 0
M  V30 8826 H 848.195 -3.05551 -1.08671 0
M  V30 8827 H 847.98 -3.89171 0.47833 0
M  V30 8828 H 849.47 -4.14856 -0.477952 0
M  V30 8829 N 849.908 -0.773975 -1.37286 0
M  V30 8830 C 851.148 -0.344505 -2.01476 0
M  V30 8831 C 851.512 1.05966 -1.6011 0
M  V30 8832 O 852.713 1.58937 -2.16778 0
M  V30 8833 C 850.984 -0.485816 -3.54083 0
M  V30 8834 S 852.543 -0.141939 -4.3857 0
M  V30 8835 H 849.361 -0.13243 -0.698558 0
M  V30 8836 H 851.963 -1.00908 -1.67445 0
M  V30 8837 H 850.667 -1.50835 -3.81677 0
M  V30 8838 H 850.198 0.195232 -3.92915 0
M  V30 8839 H 852.213 1.06177 -4.84707 0
M  V30 8840 N 851.386 1.48609 -0.524698 0
M  V30 8841 C 852.316 2.32366 0.229837 0
M  V30 8842 C 853.297 1.41759 0.940129 0
M  V30 8843 O 854.482 1.7065 0.926936 0
M  V30 8844 C 851.612 3.22835 1.28043 0
M  V30 8845 C 850.566 4.22424 0.688603 0
M  V30 8846 C 849.892 5.0199 1.84146 0
M  V30 8847 C 851.192 5.21217 -0.336176 0
M  V30 8848 H 852.886 2.95698 -0.469339 0
M  V30 8849 H 850.432 1.42197 -0.227156 0
M  V30 8850 H 852.385 3.80253 1.8162 0
M  V30 8851 H 851.109 2.57492 2.00912 0
M  V30 8852 H 849.768 3.66185 0.174402 0
M  V30 8853 H 849.416 4.33076 2.5584 0
M  V30 8854 H 849.116 5.69392 1.45142 0
M  V30 8855 H 850.64 5.62259 2.38111 0
M  V30 8856 H 852.054 5.7319 0.112307 0
M  V30 8857 H 850.451 5.96642 -0.643324 0
M  V30 8858 H 851.521 4.68676 -1.24381 0
M  V30 8859 N 852.864 0.259585 1.55447 0
M  V30 8860 C 854.112 -0.360893 1.98852 0
M  V30 8861 C 854.433 -1.57535 1.14924 0
M  V30 8862 O 853.703 -1.94485 0.235025 0
M  V30 8863 H 852.283 -0.136332 0.734454 0
M  V30 8864 H 854.945 0.361319 1.91522 0
M  V30 8865 H 854.041 -0.661388 3.05012 0
M  V30 8866 N 854.342 -1.57594 -0.0133615 0
M  V30 8867 C 855.305 -2.06534 -0.993799 0
M  V30 8868 C 856.305 -0.972267 -1.28077 0
M  V30 8869 O 857.495 -1.23537 -1.22818 0
M  V30 8870 C 854.627 -2.49554 -2.3224 0
M  V30 8871 H 855.82 -2.94419 -0.570741 0
M  V30 8872 H 853.373 -1.54113 -0.260546 0
M  V30 8873 H 854.108 -1.64872 -2.79263 0
M  V30 8874 H 853.893 -3.29371 -2.12737 0
M  V30 8875 H 855.383 -2.8779 -3.026 0
M  V30 8876 N 855.82 0.285905 -1.54985 0
M  V30 8877 C 856.75 1.35752 -1.89983 0
M  V30 8878 C 857.731 1.52163 -0.760295 0
M  V30 8879 O 858.916 1.65421 -1.01733 0
M  V30 8880 C 856.046 2.71925 -2.16042 0
M  V30 8881 C 855 2.70261 -3.31878 0
M  V30 8882 C 854.326 4.09864 -3.43388 0
M  V30 8883 C 855.626 2.30667 -4.68604 0
M  V30 8884 H 857.32 1.06709 -2.79738 0
M  V30 8885 H 854.866 0.511884 -1.34595 0
M  V30 8886 H 856.819 3.46992 -2.39113 0
M  V30 8887 H 855.543 3.02523 -1.23074 0
M  V30 8888 H 854.202 1.97651 -3.08755 0
M  V30 8889 H 853.85 4.37664 -2.47909 0
M  V30 8890 H 853.55 4.09648 -4.21262 0
M  V30 8891 H 855.074 4.86689 -3.68736 0
M  V30 8892 H 856.488 2.95453 -4.91305 0
M  V30 8893 H 854.885 2.41637 -5.49301 0
M  V30 8894 H 855.955 1.25793 -4.68299 0
M  V30 8895 N 857.298 1.47698 0.54982 0
M  V30 8896 C 858.261 1.60282 1.63837 0
M  V30 8897 C 859.261 0.477394 1.5355 0
M  V30 8898 O 860.451 0.742665 1.57576 0
M  V30 8899 C 857.583 1.55431 3.03404 0
M  V30 8900 H 858.776 2.57325 1.54026 0
M  V30 8901 H 856.329 1.35999 0.770329 0
M  V30 8902 H 857.064 0.597912 3.1874 0
M  V30 8903 H 856.849 2.37116 3.12279 0
M  V30 8904 H 858.339 1.6739 3.82584 0
M  V30 8905 N 858.776 -0.797141 1.35954 0
M  V30 8906 C 860.004 -1.5858 1.32891 0
M  V30 8907 C 860.419 -1.88578 -0.0915564 0
M  V30 8908 O 859.776 -1.49532 -1.04625 0
M  V30 8909 C 859.827 -2.91143 2.14284 0
M  V30 8910 O 859.548 -2.62442 3.50793 0
M  V30 8911 C 861.049 -3.85476 2.18914 0
M  V30 8912 H 858.269 -0.492111 0.456144 0
M  V30 8913 H 860.813 -0.98994 1.78943 0
M  V30 8914 H 858.968 -3.47219 1.71807 0
M  V30 8915 H 859.382 -3.4715 3.93175 0
M  V30 8916 H 860.856 -4.75574 2.80238 0
M  V30 8917 H 861.333 -4.22758 1.19047 0
M  V30 8918 H 861.939 -3.35334 2.61593 0
M  V30 8919 N 860.254 -1.20106 -1.0204 0
M  V30 8920 C 861.184 -0.970301 -2.12385 0
M  V30 8921 C 862.165 0.099378 -1.69809 0
M  V30 8922 O 863.35 -0.057365 -1.94115 0
M  V30 8923 C 860.48 -0.517431 -3.43424 0
M  V30 8924 C 859.434 -1.52992 -3.99722 0
M  V30 8925 C 858.76 -0.933817 -5.26483 0
M  V30 8926 C 860.06 -2.91257 -4.33551 0
M  V30 8927 H 861.754 -1.89316 -2.31948 0
M  V30 8928 H 859.3 -0.911655 -1.11467 0
M  V30 8929 H 861.253 -0.343243 -4.2 0
M  V30 8930 H 859.977 0.441049 -3.23608 0
M  V30 8931 H 858.636 -1.6914 -3.2525 0
M  V30 8932 H 858.284 0.0324763 -5.0299 0
M  V30 8933 H 857.984 -1.60999 -5.65113 0
M  V30 8934 H 859.508 -0.770614 -6.05718 0
M  V30 8935 H 860.922 -2.78642 -5.0103 0
M  V30 8936 H 859.319 -3.55745 -4.83286 0
M  V30 8937 H 860.389 -3.43269 -3.42483 0
M  V30 8938 N 861.732 1.21287 -1.00634 0
M  V30 8939 C 862.979 1.90389 -0.6898 0
M  V30 8940 C 863.307 1.78193 0.779574 0
M  V30 8941 O 862.562 1.15358 1.58085 0
M  V30 8942 C 862.861 3.41374 -1.05824 0
M  V30 8943 C 862.527 3.73766 -2.5221 0
M  V30 8944 C 861.189 3.82317 -2.92211 0
M  V30 8945 C 863.541 3.88871 -3.47028 0
M  V30 8946 C 860.869 4.03423 -4.2599 0
M  V30 8947 C 863.221 4.11484 -4.80483 0
M  V30 8948 C 861.885 4.18263 -5.20204 0
M  V30 8949 H 861.155 0.696683 -0.252416 0
M  V30 8950 H 863.802 1.43769 -1.26502 0
M  V30 8951 H 862.107 3.8974 -0.401281 0
M  V30 8952 H 863.804 3.93118 -0.79116 0
M  V30 8953 H 860.394 3.67702 -2.20212 0
M  V30 8954 H 864.578 3.8163 -3.17289 0
M  V30 8955 H 859.834 4.06902 -4.56334 0
M  V30 8956 H 864.008 4.22115 -5.53888 0
M  V30 8957 H 861.635 4.34369 -6.23881 0
M  V30 8958 N 863.21 0.781244 1.36873 0
M  V30 8959 C 864.456 0.350407 1.9975 0
M  V30 8960 C 864.789 -1.07293 1.6187 0
M  V30 8961 O 864.064 -1.73983 0.869491 0
M  V30 8962 C 864.347 0.504834 3.56544 0
M  V30 8963 C 864.2 1.97127 4.04303 0
M  V30 8964 C 865.519 -0.0851272 4.40018 0
M  V30 8965 H 862.638 0.128794 0.725659 0
M  V30 8966 H 865.28 0.98606 1.6241 0
M  V30 8967 H 863.43 -0.0363006 3.88483 0
M  V30 8968 H 865.102 2.57284 3.82887 0
M  V30 8969 H 863.345 2.47676 3.56145 0
M  V30 8970 H 864.016 2.03033 5.13305 0
M  V30 8971 H 866.492 0.376704 4.14391 0
M  V30 8972 H 865.368 0.0530015 5.48874 0
M  V30 8973 H 865.629 -1.17642 4.2616 0
M  V30 8974 N 864.689 -1.48329 0.532571 0
M  V30 8975 C 865.619 -2.32485 -0.217511 0
M  V30 8976 C 866.6 -1.42255 -0.932598 0
M  V30 8977 O 867.785 -1.7114 -0.917873 0
M  V30 8978 C 864.915 -3.23509 -1.26329 0
M  V30 8979 C 863.869 -4.22784 -0.666191 0
M  V30 8980 C 863.195 -5.0296 -1.81482 0
M  V30 8981 C 864.495 -5.21031 0.363813 0
M  V30 8982 H 866.189 -2.95445 0.485014 0
M  V30 8983 H 863.735 -1.42075 0.234694 0
M  V30 8984 H 865.688 -3.81211 -1.79601 0
M  V30 8985 H 864.412 -2.58554 -1.99543 0
M  V30 8986 H 863.071 -3.66272 -0.15498 0
M  V30 8987 H 862.719 -4.34427 -2.5354 0
M  V30 8988 H 862.419 -5.70154 -1.4212 0
M  V30 8989 H 863.943 -5.63514 -2.35126 0
M  V30 8990 H 865.357 -5.73241 -0.0819079 0
M  V30 8991 H 863.754 -5.96292 0.674956 0
M  V30 8992 H 864.824 -4.6801 1.26865 0
M  V30 8993 N 866.167 -0.267825 -1.55308 0
M  V30 8994 C 867.415 0.350343 -1.9904 0
M  V30 8995 C 867.736 1.56924 -1.15758 0
M  V30 8996 O 867.006 1.94358 -0.245336 0
M  V30 8997 H 865.586 0.132435 -0.735167 0
M  V30 8998 H 868.248 -0.371471 -1.91327 0
M  V30 8999 H 867.344 0.645203 -3.05358 0
M  V30 9000 N 867.645 1.57599 0.00500368 0
M  V30 9001 C 868.891 1.90631 0.691919 0
M  V30 9002 C 869.224 0.868443 1.737 0
M  V30 9003 O 868.499 -0.113482 1.94169 0
M  V30 9004 C 868.782 3.34255 1.33961 0
M  V30 9005 C 868.635 4.48755 0.306413 0
M  V30 9006 C 869.954 3.77211 2.26715 0
M  V30 9007 H 867.073 0.693279 0.250066 0
M  V30 9008 H 869.715 1.89946 -0.0452634 0
M  V30 9009 H 867.865 3.3497 1.96793 0
M  V30 9010 H 869.537 4.60176 -0.321841 0
M  V30 9011 H 867.78 4.32203 -0.371852 0
M  V30 9012 H 868.451 5.46193 0.798554 0
M  V30 9013 H 870.927 3.78017 1.73904 0
M  V30 9014 H 869.803 4.78466 2.69002 0
M  V30 9015 H 870.064 3.10801 3.14413 0
M  V30 9016 N 869.123 -0.277682 1.55134 0
M  V30 9017 C 870.37 -1.0099 1.7552 0
M  V30 9018 C 870.698 -1.86452 0.553712 0
M  V30 9019 O 869.953 -1.90122 -0.463896 0
M  V30 9020 C 870.252 -1.92599 3.01065 0
M  V30 9021 C 869.918 -1.22926 4.3382 0
M  V30 9022 C 868.58 -1.03659 4.69902 0
M  V30 9023 C 870.932 -0.733071 5.16019 0
M  V30 9024 C 868.26 -0.334933 5.85743 0
M  V30 9025 C 870.612 -0.0450319 6.32584 0
M  V30 9026 C 869.276 0.159393 6.6731 0
M  V30 9027 H 868.546 -0.36955 0.642273 0
M  V30 9028 H 871.193 -0.282611 1.89403 0
M  V30 9029 H 869.498 -2.71934 2.82062 0
M  V30 9030 H 871.195 -2.49367 3.14034 0
M  V30 9031 H 867.785 -1.38933 4.05457 0
M  V30 9032 H 871.969 -0.869565 4.88623 0
M  V30 9033 H 867.225 -0.165783 6.11175 0
M  V30 9034 H 871.399 0.34723 6.95534 0
M  V30 9035 H 869.026 0.70507 7.56923 0
M  V30 9036 N 870.601 -1.47988 -0.541979 0
M  V30 9037 C 871.847 -1.55623 -1.30036 0
M  V30 9038 C 872.18 -0.224254 -1.92901 0
M  V30 9039 O 871.455 0.768629 -1.78668 0
M  V30 9040 C 871.738 -2.68562 -2.39888 0
M  V30 9041 C 871.591 -4.11426 -1.81792 0
M  V30 9042 C 872.91 -2.77325 -3.41729 0
M  V30 9043 H 870.029 -0.566498 -0.471433 0
M  V30 9044 H 872.671 -1.8011 -0.604998 0
M  V30 9045 H 870.821 -2.47814 -2.992 0
M  V30 9046 H 872.493 -4.43581 -1.26624 0
M  V30 9047 H 870.736 -4.18989 -1.12386 0
M  V30 9048 H 871.407 -4.8625 -2.61276 0
M  V30 9049 H 873.883 -2.96085 -2.92357 0
M  V30 9050 H 872.759 -3.58097 -4.16002 0
M  V30 9051 H 873.02 -1.84995 -4.01534 0
M  V30 9052 N 872.079 0.78992 -1.36375 0
M  V30 9053 C 873.495 1.0879 -1.16777 0
M  V30 9054 C 873.695 2.01498 0.00848236 0
M  V30 9055 O 872.751 2.43338 0.674007 0
M  V30 9056 C 874.064 1.70285 -2.47837 0
M  V30 9057 C 875.612 1.82629 -2.54196 0
M  V30 9058 C 876.087 2.47539 -3.85342 0
M  V30 9059 N 877.578 2.55008 -3.86685 0
M  V30 9060 C 878.313 3.06041 -4.84898 0
M  V30 9061 N 877.809 3.57385 -5.93505 0
M  V30 9062 N 879.602 3.04748 -4.72319 0
M  V30 9063 H 871.753 0.173985 -2.11686 0
M  V30 9064 H 874.016 0.139798 -0.937636 0
M  V30 9065 H 873.722 1.09633 -3.34176 0
M  V30 9066 H 873.596 2.69799 -2.63607 0
M  V30 9067 H 875.983 2.42419 -1.68276 0
M  V30 9068 H 876.064 0.81923 -2.42327 0
M  V30 9069 H 875.708 1.88393 -4.71668 0
M  V30 9070 H 875.638 3.48815 -3.94507 0
M  V30 9071 H 878.129 2.18651 -3.08221 0
M  V30 9072 H 878.442 3.94674 -6.64419 0
M  V30 9073 H 876.787 3.55538 -5.97175 0
M  V30 9074 H 879.978 2.63925 -3.86602 0
M  V30 9075 H 880.151 3.44212 -5.49019 0
M  V30 9076 N 873.557 1.20646 1.01402 0
M  V30 9077 C 874.507 0.925209 2.08384 0
M  V30 9078 C 875.491 -0.115994 1.60481 0
M  V30 9079 O 876.683 0.0917276 1.76762 0
M  V30 9080 C 873.812 0.48193 3.399 0
M  V30 9081 C 872.898 1.5567 3.94497 0
M  V30 9082 N 873.289 2.77971 4.2257 0
M  V30 9083 C 871.587 1.42347 4.22674 0
M  V30 9084 C 872.288 3.47317 4.66632 0
M  V30 9085 N 871.264 2.74736 4.69064 0
M  V30 9086 H 875.066 1.85452 2.28002 0
M  V30 9087 H 872.58 1.10084 1.19395 0
M  V30 9088 H 874.577 0.261835 4.16077 0
M  V30 9089 H 873.237 -0.440725 3.21695 0
M  V30 9090 H 874.248 3.14598 4.11398 0
M  V30 9091 H 870.925 0.565417 4.13654 0
M  V30 9092 H 872.315 4.51985 4.97151 0
M  V30 9093 N 875.035 -1.20752 1.01276 0
M  V30 9094 C 875.983 -2.25432 0.572989 0
M  V30 9095 C 876.977 -1.64935 -0.386354 0
M  V30 9096 O 878.183 -1.7816 -0.256696 0
M  V30 9097 H 874.558 -0.733229 0.166972 0
M  V30 9098 H 876.529 -2.59856 1.46687 0
M  V30 9099 C 875.278 -3.47615 -0.0768249 0
M  V30 9100 H 874.601 -3.94442 0.652354 0
M  V30 9101 H 876.041 -4.22572 -0.3477 0
M  V30 9102 C 874.5 -3.1003 -1.31845 0
M  V30 9103 O 875.03 -3.21216 -2.41211 0
M  V30 9104 N 873.236 -2.64616 -1.20111 0
M  V30 9105 H 872.783 -2.55714 -0.311184 0
M  V30 9106 H 872.741 -2.39838 -2.03286 0
M  V30 9107 N 876.513 -0.788492 -1.36457 0
M  V30 9108 C 877.476 -0.192209 -2.28393 0
M  V30 9109 C 878.476 0.609916 -1.48784 0
M  V30 9110 O 879.666 0.431046 -1.68783 0
M  V30 9111 C 876.798 0.734096 -3.32902 0
M  V30 9112 H 877.991 -1.00284 -2.82636 0
M  V30 9113 H 875.544 -0.557852 -1.46006 0
M  V30 9114 H 876.279 1.5691 -2.83813 0
M  V30 9115 H 876.064 0.160875 -3.9177 0
M  V30 9116 H 877.554 1.1462 -4.01562 0
M  V30 9117 N 877.991 1.48044 -0.54043 0
M  V30 9118 C 879.219 2.06895 -0.0145153 0
M  V30 9119 C 879.634 1.39552 1.27164 0
M  V30 9120 O 878.991 0.486454 1.75897 0
M  V30 9121 C 879.042 3.60934 0.202278 0
M  V30 9122 O 878.763 4.25749 -1.03293 0
M  V30 9123 C 880.264 4.36607 0.767387 0
M  V30 9124 H 877.484 0.66991 -0.0382368 0
M  V30 9125 H 880.028 1.90288 -0.749057 0
M  V30 9126 H 878.183 3.77111 0.886897 0
M  V30 9127 H 878.597 5.18048 -0.820167 0
M  V30 9128 H 880.071 5.45126 0.86845 0
M  V30 9129 H 880.548 4.01745 1.77477 0
M  V30 9130 H 881.154 4.25133 0.119002 0
M  V30 9131 N 879.47 0.276058 1.55163 0
M  V30 9132 C 880.881 -0.221516 1.85381 0
M  V30 9133 C 881.232 -1.55372 1.19808 0
M  V30 9134 O 880.357 -2.10855 0.486742 0
M  V30 9135 C 880.952 -0.408706 3.36326 0
M  V30 9136 C 879.511 -0.850512 3.66665 0
M  V30 9137 C 878.658 0.055656 2.77244 0
M  V30 9138 H 881.609 0.497819 1.5069 0
M  V30 9139 H 881.63 -1.24711 3.59482 0
M  V30 9140 H 881.142 0.561052 3.84023 0
M  V30 9141 H 879.243 -1.83171 3.24468 0
M  V30 9142 H 879.356 -0.687181 4.74146 0
M  V30 9143 H 877.72 -0.460819 2.50497 0
M  V30 9144 H 878.503 1.02131 3.27756 0
M  V30 9145 N 880.948 -1.576 0.00335426 0
M  V30 9146 C 882.194 -1.90996 -0.681799 0
M  V30 9147 C 882.527 -0.877643 -1.73237 0
M  V30 9148 O 881.802 0.103183 -1.94226 0
M  V30 9149 C 882.085 -3.34961 -1.32187 0
M  V30 9150 C 881.938 -4.48911 -0.28261 0
M  V30 9151 C 883.257 -3.78408 -2.24711 0
M  V30 9152 H 880.376 -0.694596 -0.246386 0
M  V30 9153 H 883.018 -1.89919 0.055336 0
M  V30 9154 H 881.168 -3.36008 -1.95014 0
M  V30 9155 H 882.84 -4.59999 0.346241 0
M  V30 9156 H 881.083 -4.32 0.394768 0
M  V30 9157 H 881.754 -5.46609 -0.769576 0
M  V30 9158 H 884.23 -3.78934 -1.71897 0
M  V30 9159 H 883.106 -4.79885 -2.66461 0
M  V30 9160 H 883.367 -3.12464 -3.1276 0
M  V30 9161 N 882.426 0.269451 -1.5528 0
M  V30 9162 C 883.672 1.00206 -1.76314 0
M  V30 9163 C 884.005 1.85812 -0.564581 0
M  V30 9164 O 883.28 1.89509 0.437769 0
M  V30 9165 C 883.563 1.88163 -3.07029 0
M  V30 9166 C 883.416 1.05527 -4.37246 0
M  V30 9167 C 884.735 2.8681 -3.33808 0
M  V30 9168 H 881.854 0.36288 -0.641473 0
M  V30 9169 H 884.496 0.274188 -1.88011 0
M  V30 9170 H 882.646 2.50224 -2.97187 0
M  V30 9171 H 884.318 0.455094 -4.5905 0
M  V30 9172 H 882.561 0.358842 -4.32313 0
M  V30 9173 H 883.232 1.70397 -5.25042 0
M  V30 9174 H 885.708 2.34884 -3.43466 0
M  V30 9175 H 884.584 3.45492 -4.26528 0
M  V30 9176 H 884.845 3.62118 -2.5362 0
M  V30 9177 N 883.904 1.48273 0.534124 0
M  V30 9178 C 884.851 1.62487 1.6391 0
M  V30 9179 C 885.821 0.467062 1.59398 0
M  V30 9180 O 887.006 0.690029 1.77885 0
M  V30 9181 C 884.146 1.66671 3.02183 0
M  V30 9182 C 883.259 2.9353 3.16961 0
M  V30 9183 C 882.394 2.88902 4.45768 0
M  V30 9184 C 881.433 4.10483 4.54059 0
M  V30 9185 N 880.57 4.03956 5.74251 0
M  V30 9186 H 885.41 2.56851 1.51101 0
M  V30 9187 H 882.947 1.27381 0.735704 0
M  V30 9188 H 884.905 1.67079 3.82283 0
M  V30 9189 H 883.535 0.758011 3.13774 0
M  V30 9190 H 882.587 3.02886 2.3014 0
M  V30 9191 H 883.899 3.83501 3.18949 0
M  V30 9192 H 883.053 2.87688 5.34154 0
M  V30 9193 H 881.792 1.96652 4.46295 0
M  V30 9194 H 880.797 4.11977 3.64081 0
M  V30 9195 H 882.022 5.03887 4.55274 0
M  V30 9196 H 879.968 3.14525 5.75682 0
M  V30 9197 H 879.885 4.87628 5.77715 0
M  V30 9198 H 881.153 4.06795 6.64935 0
M  V30 9199 N 885.382 -0.782676 1.36792 0
M  V30 9200 C 886.345 -1.8772 1.31507 0
M  V30 9201 C 887.345 -1.59269 0.221349 0
M  V30 9202 O 888.535 -1.67555 0.476544 0
M  V30 9203 C 885.667 -3.24641 1.04025 0
M  V30 9204 H 886.86 -1.9382 2.28853 0
M  V30 9205 H 884.413 -0.981226 1.21662 0
M  V30 9206 H 885.148 -3.24221 0.0716439 0
M  V30 9207 H 884.933 -3.46681 1.8318 0
M  V30 9208 H 886.423 -4.04711 1.02949 0
M  V30 9209 N 886.86 -1.21182 -1.00761 0
M  V30 9210 C 888.085 -1.05411 -1.78615 0
M  V30 9211 C 888.51 0.391837 -1.83973 0
M  V30 9212 O 887.868 1.28256 -1.28141 0
M  V30 9213 C 887.916 -1.65285 -3.20489 0
M  V30 9214 O 887.02 -0.896558 -4.02536 0
M  V30 9215 H 886.361 -0.37116 -0.550578 0
M  V30 9216 H 888.891 -1.60669 -1.26676 0
M  V30 9217 H 888.901 -1.69397 -3.71172 0
M  V30 9218 H 887.576 -2.70514 -3.15904 0
M  V30 9219 H 886.153 -0.930335 -3.61108 0
M  V30 9220 N 888.338 1.20213 -1.01915 0
M  V30 9221 C 889.586 1.89272 -0.708552 0
M  V30 9222 C 889.907 1.79394 0.76438 0
M  V30 9223 O 889.177 1.198 1.54999 0
M  V30 9224 H 887.757 0.700628 -0.259094 0
M  V30 9225 H 890.419 1.45985 -1.29129 0
M  V30 9226 H 889.515 2.95841 -0.994215 0
M  V30 9227 N 889.816 0.795718 1.36037 0
M  V30 9228 C 891.232 0.478145 1.52269 0
M  V30 9229 C 891.432 -1.0025 1.74792 0
M  V30 9230 O 890.488 -1.78783 1.78305 0
M  V30 9231 C 891.801 1.31406 2.70468 0
M  V30 9232 C 893.349 1.3084 2.84341 0
M  V30 9233 C 893.824 2.12819 4.05551 0
M  V30 9234 N 895.315 2.10298 4.12709 0
M  V30 9235 C 896.05 2.70495 5.05589 0
M  V30 9236 N 895.546 3.39576 6.03871 0
M  V30 9237 N 897.339 2.60195 4.98252 0
M  V30 9238 H 889.49 1.75477 1.19673 0
M  V30 9239 H 891.753 0.74627 0.584624 0
M  V30 9240 H 891.459 2.36435 2.60368 0
M  V30 9241 H 891.333 0.959726 3.64786 0
M  V30 9242 H 893.72 0.266003 2.93899 0
M  V30 9243 H 893.801 1.70254 1.90912 0
M  V30 9244 H 893.445 3.17093 3.96755 0
M  V30 9245 H 893.375 1.70772 4.98141 0
M  V30 9246 H 895.866 1.60026 3.42345 0
M  V30 9247 H 896.179 3.82823 6.71317 0
M  V30 9248 H 894.524 3.43679 6.04077 0
M  V30 9249 H 897.715 2.05823 4.20422 0
M  V30 9250 H 897.888 3.074 5.70447 0
M  V30 9251 N 891.294 -1.47756 0.548274 0
M  V30 9252 C 892.204 -2.33678 -0.207773 0
M  V30 9253 C 893.22 -1.47636 -0.920843 0
M  V30 9254 O 894.396 -1.80583 -0.89173 0
M  V30 9255 C 891.461 -3.24147 -1.23003 0
M  V30 9256 C 890.522 -4.26073 -0.52535 0
M  V30 9257 C 889.755 -5.12219 -1.4989 0
M  V30 9258 O 889.978 -5.0066 -2.73305 0
M  V30 9259 O 888.912 -5.93051 -1.02828 0
M  V30 9260 H 892.738 -2.99609 0.496794 0
M  V30 9261 H 890.323 -1.4617 0.308982 0
M  V30 9262 H 892.205 -3.80055 -1.82034 0
M  V30 9263 H 890.88 -2.60855 -1.91668 0
M  V30 9264 H 889.787 -3.7395 0.105927 0
M  V30 9265 H 891.12 -4.92054 0.119686 0
M  V30 9266 N 892.772 -0.284283 -1.55015 0
M  V30 9267 C 893.702 0.592663 -2.25853 0
M  V30 9268 C 894.683 1.15151 -1.25197 0
M  V30 9269 O 895.868 1.18395 -1.53936 0
M  V30 9270 C 892.998 1.77254 -2.98661 0
M  V30 9271 C 891.952 1.34482 -4.06323 0
M  V30 9272 C 891.278 2.60853 -4.66754 0
M  V30 9273 C 892.578 0.488288 -5.20013 0
M  V30 9274 H 894.272 0.00187041 -2.994 0
M  V30 9275 H 891.818 -0.000540402 -1.44 0
M  V30 9276 H 893.771 2.39199 -3.46932 0
M  V30 9277 H 892.495 2.38931 -2.22664 0
M  V30 9278 H 891.154 0.748519 -3.58877 0
M  V30 9279 H 890.802 3.20808 -3.87416 0
M  V30 9280 H 890.502 2.32942 -5.39455 0
M  V30 9281 H 892.026 3.23631 -5.1778 0
M  V30 9282 H 893.44 1.01298 -5.6428 0
M  V30 9283 H 891.837 0.303669 -5.99331 0
M  V30 9284 H 892.907 -0.490727 -4.8241 0
M  V30 9285 N 894.251 1.57596 -0.0117121 0
M  V30 9286 C 895.491 1.92932 0.675031 0
M  V30 9287 C 895.855 0.887004 1.70283 0
M  V30 9288 O 897.056 1.12599 2.4408 0
M  V30 9289 C 895.327 3.3327 1.29098 0
M  V30 9290 S 896.886 3.90509 2.00121 0
M  V30 9291 H 893.704 0.675226 0.22269 0
M  V30 9292 H 896.306 1.9537 -0.071208 0
M  V30 9293 H 895.01 4.0696 0.530262 0
M  V30 9294 H 894.541 3.34233 2.0749 0
M  V30 9295 H 896.556 3.72532 3.27771 0
M  V30 9296 N 895.729 -0.261212 1.5542 0
M  V30 9297 C 896.959 -1.00769 1.80358 0
M  V30 9298 C 897.367 -1.79991 0.583085 0
M  V30 9299 O 896.71 -1.77911 -0.457534 0
M  V30 9300 C 896.772 -2.00463 2.9842 0
M  V30 9301 C 896.436 -1.4007 4.35005 0
M  V30 9302 C 897.433 -0.810388 5.13545 0
M  V30 9303 C 895.118 -1.42436 4.81682 0
M  V30 9304 C 897.112 -0.251784 6.36903 0
M  V30 9305 C 894.799 -0.861897 6.04991 0
M  V30 9306 C 895.797 -0.276622 6.8244 0
M  V30 9307 O 895.485 0.277194 8.03422 0
M  V30 9308 H 895.217 -0.302839 0.604371 0
M  V30 9309 H 897.771 -0.293763 2.03288 0
M  V30 9310 H 896.001 -2.75648 2.71211 0
M  V30 9311 H 897.69 -2.61336 3.10577 0
M  V30 9312 H 898.456 -0.784719 4.7861 0
M  V30 9313 H 894.335 -1.8693 4.214 0
M  V30 9314 H 897.879 0.205678 6.97297 0
M  V30 9315 H 893.776 -0.884846 6.39407 0
M  V30 9316 H 894.544 0.167682 8.18328 0
M  V30 9317 N 897.207 -1.48554 -0.526253 0
M  V30 9318 C 898.456 -1.56014 -1.27837 0
M  V30 9319 C 898.769 -0.240643 -1.94114 0
M  V30 9320 O 899.975 -0.193525 -2.70809 0
M  V30 9321 C 898.431 -2.75161 -2.31979 0
M  V30 9322 C 898.039 -4.13768 -1.71755 0
M  V30 9323 C 899.783 -2.91936 -3.08178 0
M  V30 9324 C 897.69 -5.24171 -2.7386 0
M  V30 9325 H 896.62 -0.58082 -0.480795 0
M  V30 9326 H 899.271 -1.74895 -0.555335 0
M  V30 9327 H 897.653 -2.49722 -3.07335 0
M  V30 9328 H 898.827 -4.49241 -1.02563 0
M  V30 9329 H 897.142 -4.02141 -1.08036 0
M  V30 9330 H 899.739 -3.71586 -3.84484 0
M  V30 9331 H 900.082 -2.01533 -3.64267 0
M  V30 9332 H 900.615 -3.17294 -2.39937 0
M  V30 9333 H 897.354 -6.16552 -2.22586 0
M  V30 9334 H 896.874 -4.93181 -3.41368 0
M  V30 9335 H 898.553 -5.52442 -3.36774 0
M  V30 9336 N 898.685 0.775411 -1.37205 0
M  V30 9337 C 899.615 1.90258 -1.35367 0
M  V30 9338 C 900.596 1.68634 -0.222864 0
M  V30 9339 O 901.781 1.89545 -0.422659 0
M  V30 9340 C 898.911 3.27488 -1.15623 0
M  V30 9341 C 897.865 3.63668 -2.25676 0
M  V30 9342 C 897.191 4.994 -1.91059 0
M  V30 9343 C 898.491 3.70797 -3.67841 0
M  V30 9344 H 900.185 1.92053 -2.29687 0
M  V30 9345 H 897.731 0.922597 -1.10563 0
M  V30 9346 H 899.684 4.05976 -1.12968 0
M  V30 9347 H 898.408 3.26117 -0.177573 0
M  V30 9348 H 897.067 2.87486 -2.2748 0
M  V30 9349 H 896.715 4.94565 -0.917324 0
M  V30 9350 H 896.415 5.24576 -2.64751 0
M  V30 9351 H 897.939 5.80291 -1.89985 0
M  V30 9352 H 899.353 4.39444 -3.68187 0
M  V30 9353 H 897.75 4.07468 -4.40556 0
M  V30 9354 H 898.82 2.71549 -4.01732 0
M  V30 9355 N 900.163 1.21714 1.00117 0
M  V30 9356 C 901.093 1.00397 2.10815 0
M  V30 9357 C 902.074 -0.0723502 1.69946 0
M  V30 9358 O 903.259 0.0882398 1.93999 0
M  V30 9359 C 900.389 0.572001 3.42557 0
M  V30 9360 C 899.343 1.59331 3.97237 0
M  V30 9361 C 898.669 1.01746 5.2493 0
M  V30 9362 C 899.969 2.98117 4.28863 0
M  V30 9363 H 901.663 1.92983 2.28906 0
M  V30 9364 H 899.209 0.929273 1.10002 0
M  V30 9365 H 901.162 0.410018 4.19401 0
M  V30 9366 H 899.886 -0.38951 3.24269 0
M  V30 9367 H 898.545 1.74293 3.22518 0
M  V30 9368 H 898.193 0.0475491 5.02978 0
M  V30 9369 H 897.893 1.69969 5.62481 0
M  V30 9370 H 899.417 0.866881 6.04415 0
M  V30 9371 H 900.831 2.86578 4.96534 0
M  V30 9372 H 899.228 3.63389 4.77565 0
M  V30 9373 H 900.298 3.48674 3.36979 0
M  V30 9374 N 901.641 -1.19671 1.02551 0
M  V30 9375 C 902.889 -1.88894 0.71858 0
M  V30 9376 C 903.21 -1.79797 -0.754856 0
M  V30 9377 O 902.48 -1.20621 -1.54362 0
M  V30 9378 H 901.06 -0.699244 0.262806 0
M  V30 9379 H 903.722 -1.45298 1.29902 0
M  V30 9380 H 902.818 -2.95309 1.00989 0
M  V30 9381 N 903.119 -0.802921 -1.35613 0
M  V30 9382 C 904.367 -0.380822 -1.9848 0
M  V30 9383 C 904.688 1.05464 -1.6402 0
M  V30 9384 O 903.958 1.72908 -0.920854 0
M  V30 9385 H 902.538 -0.137824 -0.734176 0
M  V30 9386 H 905.2 -1.02795 -1.65587 0
M  V30 9387 H 904.296 -0.483565 -3.08331 0
M  V30 9388 N 904.597 1.47463 -0.556102 0
M  V30 9389 C 905.843 2.02775 -0.0316806 0
M  V30 9390 C 906.176 1.42967 1.3143 0
M  V30 9391 O 905.451 0.584847 1.85499 0
M  V30 9392 C 905.734 3.60046 0.0625742 0
M  V30 9393 C 905.587 4.30288 -1.31043 0
M  V30 9394 C 906.906 4.33195 0.776553 0
M  V30 9395 H 904.025 0.736886 -0.0129869 0
M  V30 9396 H 906.667 1.75904 -0.718177 0
M  V30 9397 H 904.817 3.83071 0.647231 0
M  V30 9398 H 906.489 4.18607 -1.9382 0
M  V30 9399 H 904.732 3.90685 -1.8854 0
M  V30 9400 H 905.403 5.38861 -1.1972 0
M  V30 9401 H 907.879 4.15156 0.280147 0
M  V30 9402 H 906.755 5.42869 0.81146 0
M  V30 9403 H 907.016 4.02336 1.83244 0
M  V30 9404 N 906.075 0.2925 1.54862 0
M  V30 9405 C 907.322 -0.319263 1.99967 0
M  V30 9406 C 907.65 -1.54547 1.18092 0
M  V30 9407 O 906.905 -1.94186 0.242969 0
M  V30 9408 C 907.204 -0.728674 3.49893 0
M  V30 9409 C 906.87 0.394836 4.49168 0
M  V30 9410 C 905.532 0.703289 4.76033 0
M  V30 9411 C 907.884 1.15103 5.08331 0
M  V30 9412 C 905.212 1.77121 5.59325 0
M  V30 9413 C 907.564 2.20881 5.92785 0
M  V30 9414 C 906.228 2.52342 6.17964 0
M  V30 9415 H 905.498 -0.116827 0.731733 0
M  V30 9416 H 908.145 0.40983 1.87063 0
M  V30 9417 H 906.45 -1.53772 3.60363 0
M  V30 9418 H 908.147 -1.21305 3.82212 0
M  V30 9419 H 904.737 0.144319 4.28357 0
M  V30 9420 H 908.921 0.92599 4.87585 0
M  V30 9421 H 904.177 2.01978 5.77074 0
M  V30 9422 H 908.351 2.79939 6.37657 0
M  V30 9423 H 905.978 3.35225 6.82296 0
M  V30 9424 N 907.553 -1.57587 0.0200696 0
M  V30 9425 C 908.483 -2.12702 -0.963333 0
M  V30 9426 C 909.464 -1.04094 -1.34531 0
M  V30 9427 O 910.649 -1.31881 -1.42552 0
M  V30 9428 C 907.779 -2.64673 -2.24868 0
M  V30 9429 C 906.733 -3.77987 -2.00772 0
M  V30 9430 C 906.059 -4.16351 -3.35494 0
M  V30 9431 C 907.359 -5.0444 -1.35416 0
M  V30 9432 H 909.053 -2.95121 -0.504363 0
M  V30 9433 H 906.599 -1.41966 -0.24116 0
M  V30 9434 H 908.552 -3.01862 -2.94036 0
M  V30 9435 H 907.276 -1.79403 -2.72914 0
M  V30 9436 H 905.935 -3.41223 -1.34025 0
M  V30 9437 H 905.583 -3.28075 -3.81282 0
M  V30 9438 H 905.283 -4.92705 -3.20181 0
M  V30 9439 H 906.807 -4.56115 -4.05945 0
M  V30 9440 H 908.221 -5.39273 -1.94571 0
M  V30 9441 H 906.618 -5.85732 -1.30529 0
M  V30 9442 H 907.688 -4.83803 -0.325923 0
M  V30 9443 N 909.032 0.252966 -1.55557 0
M  V30 9444 C 910.272 0.989276 -1.78865 0
M  V30 9445 C 910.636 1.82755 -0.588615 0
M  V30 9446 O 911.837 2.59516 -0.700347 0
M  V30 9447 C 910.108 1.83203 -3.06874 0
M  V30 9448 S 911.667 2.62826 -3.5138 0
M  V30 9449 H 908.485 0.332863 -0.62827 0
M  V30 9450 H 911.087 0.257716 -1.93794 0
M  V30 9451 H 909.791 1.20579 -3.92287 0
M  V30 9452 H 909.322 2.60644 -2.94666 0
M  V30 9453 H 911.337 3.85648 -3.12234 0
M  V30 9454 N 910.51 1.48831 0.518367 0
M  V30 9455 C 911.74 1.60886 1.29612 0
M  V30 9456 C 912.148 0.272713 1.87224 0
M  V30 9457 O 911.491 -0.749653 1.67708 0
M  V30 9458 C 911.553 2.60541 2.47707 0
M  V30 9459 C 911.217 4.05324 2.11095 0
M  V30 9460 C 912.214 4.92658 1.66084 0
M  V30 9461 C 909.899 4.50942 2.21262 0
M  V30 9462 C 911.893 6.23641 1.3172 0
M  V30 9463 C 909.58 5.81943 1.8651 0
M  V30 9464 C 910.578 6.68116 1.41812 0
M  V30 9465 O 910.266 7.96677 1.07522 0
M  V30 9466 H 909.998 0.544968 0.399982 0
M  V30 9467 H 912.552 1.95474 0.630799 0
M  V30 9468 H 910.782 2.21098 3.17258 0
M  V30 9469 H 912.471 2.62308 3.09757 0
M  V30 9470 H 913.237 4.58649 1.5769 0
M  V30 9471 H 909.116 3.84048 2.55007 0
M  V30 9472 H 912.66 6.90857 0.967598 0
M  V30 9473 H 908.557 6.15484 1.94549 0
M  V30 9474 H 909.325 8.09534 1.2082 0
M  V30 9475 N 911.988 -0.768124 1.37614 0
M  V30 9476 C 913.228 -1.53979 1.34424 0
M  V30 9477 C 913.592 -1.91874 -0.0696803 0
M  V30 9478 O 914.793 -2.67845 -0.22633 0
M  V30 9479 C 913.064 -2.76845 2.26034 0
M  V30 9480 S 914.623 -3.66871 2.4073 0
M  V30 9481 H 911.441 -0.527108 0.477157 0
M  V30 9482 H 914.043 -0.902945 1.73399 0
M  V30 9483 H 912.747 -2.47091 3.2768 0
M  V30 9484 H 912.278 -3.45486 1.88157 0
M  V30 9485 H 914.293 -4.6899 1.62057 0
M  V30 9486 N 913.466 -1.22244 -0.994698 0
M  V30 9487 C 914.399 -0.934168 -2.08203 0
M  V30 9488 C 915.377 0.122231 -1.6214 0
M  V30 9489 O 916.561 -0.00896598 -1.88498 0
M  V30 9490 C 913.688 -0.404646 -3.36274 0
M  V30 9491 C 912.734 -1.44544 -4.01259 0
M  V30 9492 S 913.567 -3.01816 -4.42343 0
M  V30 9493 C 914.723 -2.50497 -5.73587 0
M  V30 9494 H 914.956 -1.85493 -2.32335 0
M  V30 9495 H 912.489 -1.0533 -1.12893 0
M  V30 9496 H 914.447 -0.105719 -4.10364 0
M  V30 9497 H 913.108 0.494971 -3.10176 0
M  V30 9498 H 912.301 -1.02478 -4.93472 0
M  V30 9499 H 911.903 -1.69298 -3.33488 0
M  V30 9500 H 914.195 -1.91626 -6.49835 0
M  V30 9501 H 915.138 -3.41193 -6.20478 0
M  V30 9502 H 915.546 -1.91845 -5.30901 0
M  V30 9503 N 914.944 1.19125 -1.03184 0
M  V30 9504 C 916.172 1.92838 -0.74975 0
M  V30 9505 C 916.587 1.75667 0.691851 0
M  V30 9506 O 915.944 1.0805 1.47076 0
M  V30 9507 C 915.995 3.44509 -1.09525 0
M  V30 9508 O 915.716 3.6113 -2.48025 0
M  V30 9509 C 917.217 4.35338 -0.836397 0
M  V30 9510 H 914.437 0.61246 -0.274105 0
M  V30 9511 H 916.981 1.5118 -1.37712 0
M  V30 9512 H 915.136 3.83988 -0.513006 0
M  V30 9513 H 915.55 4.54959 -2.60984 0
M  V30 9514 H 917.024 5.4035 -1.12808 0
M  V30 9515 H 917.501 4.38602 0.229102 0
M  V30 9516 H 918.107 4.01544 -1.40152 0
M  V30 9517 N 916.422 0.810101 1.35185 0
M  V30 9518 C 917.669 0.392117 1.98667 0
M  V30 9519 C 917.997 -1.0416 1.64259 0
M  V30 9520 O 917.252 -1.73795 0.899647 0
M  V30 9521 C 917.551 0.526561 3.535 0
M  V30 9522 C 917.217 1.92411 4.07785 0
M  V30 9523 C 915.879 2.30644 4.22323 0
M  V30 9524 C 918.231 2.83827 4.37141 0
M  V30 9525 C 915.559 3.59655 4.63536 0
M  V30 9526 C 917.911 4.12287 4.79794 0
M  V30 9527 C 916.575 4.50515 4.92536 0
M  V30 9528 H 915.845 0.143486 0.726975 0
M  V30 9529 H 918.492 1.03157 1.61341 0
M  V30 9530 H 916.797 -0.19633 3.91308 0
M  V30 9531 H 918.494 0.183871 4.00578 0
M  V30 9532 H 915.084 1.61707 3.96924 0
M  V30 9533 H 919.268 2.55536 4.25459 0
M  V30 9534 H 914.524 3.89117 4.71591 0
M  V30 9535 H 918.698 4.83221 5.01468 0
M  V30 9536 H 916.325 5.50535 5.24229 0
M  V30 9537 N 917.9 -1.47166 0.563914 0
M  V30 9538 C 919.149 -2.0166 0.0401871 0
M  V30 9539 C 919.462 -1.44303 -1.32046 0
M  V30 9540 O 920.668 -1.905 -1.93448 0
M  V30 9541 C 919.124 -3.59894 0.0213257 0
M  V30 9542 C 918.732 -4.26244 1.37914 0
M  V30 9543 C 920.476 -4.22114 -0.449442 0
M  V30 9544 C 918.383 -5.76503 1.31902 0
M  V30 9545 H 917.313 -0.753916 0.0112534 0
M  V30 9546 H 919.964 -1.69091 0.712766 0
M  V30 9547 H 918.346 -3.89454 -0.717038 0
M  V30 9548 H 919.52 -4.08317 2.13574 0
M  V30 9549 H 917.835 -3.76039 1.78839 0
M  V30 9550 H 920.432 -5.32234 -0.51292 0
M  V30 9551 H 920.775 -3.89749 -1.46291 0
M  V30 9552 H 921.308 -3.9711 0.23427 0
M  V30 9553 H 918.047 -6.13498 2.3087 0
M  V30 9554 H 917.567 -5.96748 0.604324 0
M  V30 9555 H 919.246 -6.38846 1.02392 0
M  V30 9556 N 919.378 -0.300708 -1.54705 0
M  V30 9557 C 920.625 0.308654 -2.00134 0
M  V30 9558 C 920.953 1.53918 -1.1891 0
M  V30 9559 O 920.208 1.94054 -0.253263 0
M  V30 9560 C 920.507 0.710108 -3.50275 0
M  V30 9561 C 920.173 -0.418651 -4.48952 0
M  V30 9562 C 918.835 -0.728524 -4.75653 0
M  V30 9563 C 921.187 -1.17797 -5.07714 0
M  V30 9564 C 918.515 -1.80085 -5.58378 0
M  V30 9565 C 920.867 -2.24022 -5.91606 0
M  V30 9566 C 919.531 -2.55616 -6.16617 0
M  V30 9567 H 918.801 0.112945 -0.732342 0
M  V30 9568 H 921.448 -0.419744 -1.86843 0
M  V30 9569 H 919.753 1.51859 -3.61173 0
M  V30 9570 H 921.45 1.19277 -3.8285 0
M  V30 9571 H 918.04 -0.167034 -4.28274 0
M  V30 9572 H 922.224 -0.951835 -4.87087 0
M  V30 9573 H 917.48 -2.05036 -5.75995 0
M  V30 9574 H 921.654 -2.83317 -6.36164 0
M  V30 9575 H 919.281 -3.38839 -6.80509 0
M  V30 9576 N 920.856 1.57574 -0.0284266 0
M  V30 9577 C 922.105 1.9095 0.649704 0
M  V30 9578 C 922.418 0.906421 1.7333 0
M  V30 9579 O 923.624 1.1314 2.46803 0
M  V30 9580 C 922.08 3.39061 1.20687 0
M  V30 9581 C 921.688 4.47726 0.156597 0
M  V30 9582 C 923.432 3.81505 1.86156 0
M  V30 9583 C 921.339 5.86935 0.725365 0
M  V30 9584 H 920.269 0.712589 0.24644 0
M  V30 9585 H 922.92 1.83261 -0.0936143 0
M  V30 9586 H 921.302 3.41679 2.00178 0
M  V30 9587 H 922.476 4.56667 -0.6158 0
M  V30 9588 H 920.791 4.14481 -0.399288 0
M  V30 9589 H 923.388 4.82865 2.29665 0
M  V30 9590 H 923.731 3.16529 2.70398 0
M  V30 9591 H 924.264 3.81307 1.13356 0
M  V30 9592 H 921.003 6.55453 -0.0789081 0
M  V30 9593 H 920.523 5.81602 1.46627 0
M  V30 9594 H 922.202 6.35483 1.21532 0
M  V30 9595 N 922.334 -0.244713 1.55689 0
M  V30 9596 C 923.297 -1.2864 1.89695 0
M  V30 9597 C 924.297 -1.40969 0.773583 0
M  V30 9598 O 925.487 -1.39632 1.04156 0
M  V30 9599 C 922.619 -2.66379 2.12732 0
M  V30 9600 H 923.812 -0.997033 2.82841 0
M  V30 9601 H 921.365 -0.484103 1.48614 0
M  V30 9602 H 922.1 -3.00452 1.22062 0
M  V30 9603 H 921.885 -2.58812 2.94549 0
M  V30 9604 H 923.375 -3.41592 2.40218 0
M  V30 9605 N 923.813 -1.49104 -0.510467 0
M  V30 9606 C 924.76 -1.65074 -1.61305 0
M  V30 9607 C 925.73 -0.492362 -1.58635 0
M  V30 9608 O 926.915 -0.718241 -1.76765 0
M  V30 9609 C 924.055 -1.71457 -2.99493 0
M  V30 9610 C 923.168 -2.98536 -3.12251 0
M  V30 9611 C 922.303 -2.95957 -4.41116 0
M  V30 9612 C 921.342 -4.17655 -4.47471 0
M  V30 9613 N 920.479 -4.13041 -5.67751 0
M  V30 9614 H 925.319 -2.59222 -1.46996 0
M  V30 9615 H 922.856 -1.28535 -0.715346 0
M  V30 9616 H 924.814 -1.7314 -3.79577 0
M  V30 9617 H 923.444 -0.807834 -3.12528 0
M  V30 9618 H 922.496 -3.06509 -2.25292 0
M  V30 9619 H 923.808 -3.88527 -3.12807 0
M  V30 9620 H 922.962 -2.96149 -5.2951 0
M  V30 9621 H 921.701 -2.03728 -4.4311 0
M  V30 9622 H 920.706 -4.17717 -3.57481 0
M  V30 9623 H 921.931 -5.11066 -4.472 0
M  V30 9624 H 919.877 -3.23643 -5.70606 0
M  V30 9625 H 919.794 -4.96757 -5.69884 0
M  V30 9626 H 921.062 -4.17322 -6.58379 0
M  V30 9627 N 925.291 0.760815 -1.38019 0
M  V30 9628 C 926.702 1.33773 -1.30237 0
M  V30 9629 C 927.053 1.96148 0.0451153 0
M  V30 9630 O 926.178 1.94574 0.9471 0
M  V30 9631 C 926.773 2.43227 -2.35851 0
M  V30 9632 C 925.332 2.96659 -2.31669 0
M  V30 9633 C 924.479 1.69972 -2.191 0
M  V30 9634 H 927.43 0.560237 -1.48482 0
M  V30 9635 H 927.451 3.22985 -2.01149 0
M  V30 9636 H 926.963 1.978 -3.33911 0
M  V30 9637 H 925.064 3.46433 -1.37167 0
M  V30 9638 H 925.177 3.51529 -3.25521 0
M  V30 9639 H 923.541 1.9332 -1.65829 0
M  V30 9640 H 924.324 1.26633 -3.19091 0
M  V30 9641 N 926.769 1.22769 0.988202 0
M  V30 9642 C 927.994 1.08239 1.76915 0
M  V30 9643 C 928.419 -0.362519 1.84574 0
M  V30 9644 O 927.777 -1.26202 1.30165 0
M  V30 9645 C 927.825 1.70363 3.17819 0
M  V30 9646 O 926.929 0.960484 4.01059 0
M  V30 9647 H 926.27 0.379872 0.544604 0
M  V30 9648 H 928.8 1.62663 1.24104 0
M  V30 9649 H 928.81 1.7528 3.6843 0
M  V30 9650 H 927.485 2.75505 3.1156 0
M  V30 9651 H 926.062 0.987667 3.59582 0
M  V30 9652 N 928.247 -1.18576 1.03814 0
M  V30 9653 C 929.475 -1.92437 0.759966 0
M  V30 9654 C 929.89 -1.76031 -0.682526 0
M  V30 9655 O 929.247 -1.08829 -1.46501 0
M  V30 9656 C 929.298 -3.43923 1.11351 0
M  V30 9657 O 929.019 -3.5981 2.49937 0
M  V30 9658 C 930.52 -4.34888 0.859472 0
M  V30 9659 H 927.74 -0.610998 0.277349 0
M  V30 9660 H 930.284 -1.50448 1.38512 0
M  V30 9661 H 928.439 -3.83711 0.533362 0
M  V30 9662 H 928.853 -4.53569 2.63393 0
M  V30 9663 H 930.327 -5.39744 1.15672 0
M  V30 9664 H 930.804 -4.38717 -0.205839 0
M  V30 9665 H 931.41 -4.00795 1.42279 0
M  V30 9666 N 929.725 -0.817259 -1.34754 0
M  V30 9667 C 930.688 -0.240611 -2.27934 0
M  V30 9668 C 931.688 0.578219 -1.50044 0
M  V30 9669 O 932.878 0.395148 -1.69659 0
M  V30 9670 C 930.01 0.663318 -3.34384 0
M  V30 9671 H 931.203 -1.06257 -2.80445 0
M  V30 9672 H 928.756 -0.588697 -1.4479 0
M  V30 9673 H 929.491 1.50855 -2.87077 0
M  V30 9674 H 929.276 0.0777388 -3.92023 0
M  V30 9675 H 930.766 1.06076 -4.03903 0
M  V30 9676 N 931.203 1.46865 -0.571711 0
M  V30 9677 C 932.449 2.0273 -0.0531858 0
M  V30 9678 C 932.782 1.44353 1.29907 0
M  V30 9679 O 932.057 0.604488 1.84868 0
M  V30 9680 C 932.34 3.60092 0.0243831 0
M  V30 9681 C 932.193 4.28874 -1.35599 0
M  V30 9682 C 933.512 4.33994 0.730563 0
M  V30 9683 H 930.631 0.736706 -0.0208018 0
M  V30 9684 H 933.273 1.75132 -0.736794 0
M  V30 9685 H 931.423 3.83736 0.606565 0
M  V30 9686 H 933.095 4.16527 -1.98249 0
M  V30 9687 H 931.338 3.88664 -1.92674 0
M  V30 9688 H 932.009 5.37561 -1.25429 0
M  V30 9689 H 934.485 4.1543 0.236098 0
M  V30 9690 H 933.361 5.43699 0.753836 0
M  V30 9691 H 933.622 4.04257 1.78967 0
M  V30 9692 N 932.681 0.308908 1.54543 0
M  V30 9693 C 933.921 -0.298811 2.02204 0
M  V30 9694 C 934.285 -1.50484 1.19242 0
M  V30 9695 O 935.486 -2.18445 1.56637 0
M  V30 9696 C 933.757 -0.638849 3.51644 0
M  V30 9697 S 935.316 -1.22831 4.21258 0
M  V30 9698 H 932.134 -0.0912638 0.705118 0
M  V30 9699 H 934.736 0.438622 1.90516 0
M  V30 9700 H 933.44 0.24726 4.09654 0
M  V30 9701 H 932.971 -1.40687 3.67384 0
M  V30 9702 H 934.986 -2.51579 4.27694 0
M  V30 9703 N 934.159 -1.57557 0.0367827 0
M  V30 9704 C 935.387 -1.96419 -0.650168 0
M  V30 9705 C 935.802 -0.913656 -1.6522 0
M  V30 9706 O 935.159 0.103718 -1.82205 0
M  V30 9707 C 935.21 -3.35355 -1.3498 0
M  V30 9708 O 934.931 -4.36379 -0.387905 0
M  V30 9709 C 936.432 -3.88892 -2.12786 0
M  V30 9710 H 933.652 -0.646751 -0.178756 0
M  V30 9711 H 936.196 -2.04261 0.0988197 0
M  V30 9712 H 934.351 -3.28708 -2.05012 0
M  V30 9713 H 934.765 -5.16969 -0.885596 0
M  V30 9714 H 936.239 -4.88428 -2.5718 0
M  V30 9715 H 936.716 -3.23547 -2.97008 0
M  V30 9716 H 937.322 -3.98831 -1.47694 0
M  V30 9717 N 935.637 0.236453 -1.55816 0
M  V30 9718 C 936.567 1.29639 -1.94206 0
M  V30 9719 C 937.548 1.49667 -0.808319 0
M  V30 9720 O 938.733 1.621 -1.06945 0
M  V30 9721 C 935.863 2.64914 -2.24584 0
M  V30 9722 C 934.817 2.59565 -3.40308 0
M  V30 9723 C 934.143 3.98732 -3.56254 0
M  V30 9724 C 935.443 2.15642 -4.75706 0
M  V30 9725 H 937.137 0.977552 -2.82992 0
M  V30 9726 H 934.683 0.468804 -1.36155 0
M  V30 9727 H 936.636 3.39209 -2.50031 0
M  V30 9728 H 935.36 2.98455 -1.32636 0
M  V30 9729 H 934.019 1.87728 -3.14887 0
M  V30 9730 H 933.667 4.29556 -2.61707 0
M  V30 9731 H 933.367 3.96039 -4.34082 0
M  V30 9732 H 934.891 4.74711 -3.84033 0
M  V30 9733 H 936.305 2.79673 -5.00456 0
M  V30 9734 H 934.702 2.24039 -5.56711 0
M  V30 9735 H 935.772 1.10831 -4.72064 0
M  V30 9736 N 937.115 1.49373 0.502552 0
M  V30 9737 C 938.531 1.36101 0.833591 0
M  V30 9738 C 938.731 0.392911 1.97632 0
M  V30 9739 O 937.787 -0.175975 2.51886 0
M  V30 9740 C 939.1 2.76782 1.17526 0
M  V30 9741 C 940.648 2.85471 1.28356 0
M  V30 9742 C 941.123 4.26915 1.65853 0
M  V30 9743 N 942.614 4.29719 1.72905 0
M  V30 9744 C 943.349 5.36127 2.0336 0
M  V30 9745 N 942.845 6.52782 2.32049 0
M  V30 9746 N 944.638 5.23542 2.04598 0
M  V30 9747 H 936.789 2.10912 -0.251008 0
M  V30 9748 H 939.052 0.946696 -0.0497037 0
M  V30 9749 H 938.758 3.49314 0.408965 0
M  V30 9750 H 938.632 3.1205 2.11907 0
M  V30 9751 H 941.019 2.13177 2.04058 0
M  V30 9752 H 941.1 2.53787 0.320304 0
M  V30 9753 H 940.744 4.99735 0.907022 0
M  V30 9754 H 940.674 4.56063 2.63276 0
M  V30 9755 H 943.165 3.45586 1.529 0
M  V30 9756 H 943.478 7.29701 2.54471 0
M  V30 9757 H 941.823 6.56011 2.29509 0
M  V30 9758 H 945.014 4.31413 1.8166 0
M  V30 9759 H 945.187 6.06565 2.27998 0
M  V30 9760 N 938.594 -0.753485 1.38421 0
M  V30 9761 C 940.01 -1.05656 1.1962 0
M  V30 9762 C 940.21 -2.0145 0.0449443 0
M  V30 9763 O 939.266 -2.45039 -0.609253 0
M  V30 9764 C 940.579 -1.63655 2.52265 0
M  V30 9765 C 942.127 -1.75825 2.58949 0
M  V30 9766 C 942.602 -2.37236 3.91769 0
M  V30 9767 N 944.093 -2.44666 3.9331 0
M  V30 9768 C 944.828 -2.93077 4.92842 0
M  V30 9769 N 944.324 -3.41523 6.02772 0
M  V30 9770 N 946.117 -2.92118 4.80232 0
M  V30 9771 H 938.268 -0.117799 2.12073 0
M  V30 9772 H 940.531 -0.114889 0.941012 0
M  V30 9773 H 940.237 -1.00734 3.36965 0
M  V30 9774 H 940.111 -2.62715 2.70667 0
M  V30 9775 H 942.498 -2.37873 1.74644 0
M  V30 9776 H 942.579 -0.754693 2.44414 0
M  V30 9777 H 942.223 -1.75822 4.76497 0
M  V30 9778 H 942.153 -3.38233 4.03616 0
M  V30 9779 H 944.644 -2.10403 3.1391 0
M  V30 9780 H 944.957 -3.76919 6.74649 0
M  V30 9781 H 943.302 -3.3958 6.06391 0
M  V30 9782 H 946.493 -2.53582 3.93464 0
M  V30 9783 H 946.666 -3.29535 5.57952 0
M  V30 9784 N 940.072 -1.23292 -0.981677 0
M  V30 9785 C 941.002 -1.03738 -2.09191 0
M  V30 9786 C 941.983 0.0453041 -1.7004 0
M  V30 9787 O 943.168 -0.119092 -1.93834 0
M  V30 9788 C 940.298 -0.626426 -3.41604 0
M  V30 9789 C 939.252 -1.65631 -3.94652 0
M  V30 9790 C 938.578 -1.10084 -5.23245 0
M  V30 9791 C 939.878 -3.04903 -4.24066 0
M  V30 9792 H 941.572 -1.966 -2.25807 0
M  V30 9793 H 939.118 -0.946656 -1.0851 0
M  V30 9794 H 941.071 -0.476689 -4.18695 0
M  V30 9795 H 939.795 0.337873 -3.24848 0
M  V30 9796 H 938.454 -1.79402 -3.19704 0
M  V30 9797 H 938.102 -0.127562 -5.02838 0
M  V30 9798 H 937.802 -1.78896 -5.59705 0
M  V30 9799 H 939.326 -0.962928 -6.02959 0
M  V30 9800 H 940.74 -2.94441 -4.91912 0
M  V30 9801 H 939.137 -3.70941 -4.71724 0
M  V30 9802 H 940.207 -3.53991 -3.31389 0
M  V30 9803 N 941.55 1.18024 -1.04442 0
M  V30 9804 C 942.798 1.87727 -0.74854 0
M  V30 9805 C 943.119 1.80975 0.726156 0
M  V30 9806 O 942.389 1.23061 1.52423 0
M  V30 9807 H 940.969 0.694974 -0.273897 0
M  V30 9808 H 943.631 1.43213 -1.32197 0
M  V30 9809 H 942.727 2.93665 -1.05674 0
M  V30 9810 N 943.028 0.824394 1.34319 0
M  V30 9811 C 943.958 0.262077 2.32025 0
M  V30 9812 C 944.939 -0.622277 1.58309 0
M  V30 9813 O 946.124 -0.548848 1.86283 0
M  V30 9814 C 943.254 -0.57567 3.42496 0
M  V30 9815 C 942.208 0.21167 4.27476 0
M  V30 9816 C 941.534 -0.748913 5.29429 0
M  V30 9817 C 942.834 1.42068 5.02607 0
M  V30 9818 H 944.528 1.07842 2.79304 0
M  V30 9819 H 942.074 0.520022 1.34282 0
M  V30 9820 H 944.027 -0.979251 4.09864 0
M  V30 9821 H 942.751 -1.42508 2.93869 0
M  V30 9822 H 941.41 0.596636 3.61712 0
M  V30 9823 H 941.058 -1.59432 4.77064 0
M  V30 9824 H 940.758 -0.226313 5.87164 0
M  V30 9825 H 942.282 -1.15032 5.99667 0
M  V30 9826 H 943.696 1.09103 5.62823 0
M  V30 9827 H 942.093 1.87903 5.69923 0
M  V30 9828 H 943.163 2.1981 4.32217 0
M  V30 9829 N 944.506 -1.46559 0.579492 0
M  V30 9830 C 945.754 -2.02 0.0637157 0
M  V30 9831 C 946.075 -1.45378 -1.29962 0
M  V30 9832 O 945.345 -0.637262 -1.85245 0
M  V30 9833 H 943.925 -0.746717 0.0205638 0
M  V30 9834 H 946.587 -1.79702 0.754544 0
M  V30 9835 H 945.683 -3.12099 -0.00770254 0
M  V30 9836 N 945.984 -0.3171 -1.54377 0
M  V30 9837 C 947.212 0.289558 -2.04864 0
M  V30 9838 C 947.627 1.46284 -1.19359 0
M  V30 9839 O 946.984 1.81135 -0.222795 0
M  V30 9840 C 947.035 0.730273 -3.54047 0
M  V30 9841 O 946.756 -0.396325 -4.36304 0
M  V30 9842 C 948.257 1.40041 -4.20599 0
M  V30 9843 H 945.477 0.0605836 -0.668259 0
M  V30 9844 H 948.021 -0.461411 -1.99227 0
M  V30 9845 H 946.176 1.43123 -3.59992 0
M  V30 9846 H 946.59 -0.0502901 -5.24476 0
M  V30 9847 H 948.064 1.65979 -5.26455 0
M  V30 9848 H 948.541 2.34565 -3.71316 0
M  V30 9849 H 949.147 0.742206 -4.18774 0
M  V30 9850 N 947.462 1.57535 -0.0451378 0
M  V30 9851 C 948.425 2.1008 0.916461 0
M  V30 9852 C 949.425 1.01913 1.2438 0
M  V30 9853 O 950.615 1.2801 1.18148 0
M  V30 9854 C 947.747 2.58001 2.22818 0
M  V30 9855 H 948.94 2.96334 0.461076 0
M  V30 9856 H 946.493 1.54974 0.203169 0
M  V30 9857 H 947.228 1.75123 2.72951 0
M  V30 9858 H 947.013 3.3704 2.00366 0
M  V30 9859 H 948.503 2.98822 2.9171 0
M  V30 9860 N 948.94 -0.228186 1.55939 0
M  V30 9861 C 950.187 -0.953552 1.78644 0
M  V30 9862 C 950.515 -1.84596 0.61275 0
M  V30 9863 O 949.77 -1.91502 -0.403175 0
M  V30 9864 C 950.069 -1.82924 3.0704 0
M  V30 9865 C 949.735 -1.09062 4.37511 0
M  V30 9866 C 948.397 -0.886565 4.72962 0
M  V30 9867 C 950.749 -0.568533 5.1809 0
M  V30 9868 C 948.077 -0.148413 5.86512 0
M  V30 9869 C 950.429 0.156243 6.32407 0
M  V30 9870 C 949.093 0.371612 6.66465 0
M  V30 9871 H 948.363 -0.348929 0.653704 0
M  V30 9872 H 951.01 -0.222211 1.90206 0
M  V30 9873 H 949.315 -2.62823 2.90571 0
M  V30 9874 H 951.012 -2.3925 3.21808 0
M  V30 9875 H 947.602 -1.25963 4.09672 0
M  V30 9876 H 951.786 -0.713673 4.91142 0
M  V30 9877 H 947.042 0.0287418 6.11393 0
M  V30 9878 H 951.216 0.568333 6.94077 0
M  V30 9879 H 948.843 0.945522 7.54297 0
M  V30 9880 N 950.418 -1.49637 -0.494624 0
M  V30 9881 C 951.643 -1.63431 -1.27691 0
M  V30 9882 C 952.068 -0.30813 -1.85559 0
M  V30 9883 O 951.426 0.725083 -1.66169 0
M  V30 9884 C 951.474 -2.71043 -2.3784 0
M  V30 9885 O 950.578 -2.3066 -3.41862 0
M  V30 9886 H 949.919 -0.546804 -0.376698 0
M  V30 9887 H 952.449 -1.95866 -0.591413 0
M  V30 9888 H 952.459 -2.93406 -2.83508 0
M  V30 9889 H 951.134 -3.67306 -1.95088 0
M  V30 9890 H 949.711 -2.18652 -3.02069 0
M  V30 9891 N 951.896 0.746133 -1.38819 0
M  V30 9892 C 953.142 1.50768 -1.35635 0
M  V30 9893 C 953.475 1.94132 0.0512435 0
M  V30 9894 O 952.75 1.65979 1.01396 0
M  V30 9895 C 953.033 2.7551 -2.31875 0
M  V30 9896 C 952.886 2.38236 -3.81528 0
M  V30 9897 C 954.205 3.77566 -2.26124 0
M  V30 9898 H 951.324 0.546922 -0.494009 0
M  V30 9899 H 953.966 0.854017 -1.69725 0
M  V30 9900 H 952.116 3.31285 -2.02935 0
M  V30 9901 H 953.788 1.88178 -4.21173 0
M  V30 9902 H 952.031 1.70601 -3.98846 0
M  V30 9903 H 952.702 3.27517 -4.44339 0
M  V30 9904 H 955.178 3.31349 -2.51689 0
M  V30 9905 H 954.054 4.62531 -2.95561 0
M  V30 9906 H 954.315 4.23689 -1.26254 0
M  V30 9907 N 953.375 1.23811 0.975125 0
M  V30 9908 C 954.615 1.08517 1.73215 0
M  V30 9909 C 954.979 -0.370777 1.88386 0
M  V30 9910 O 956.18 -0.645036 2.60946 0
M  V30 9911 C 954.451 1.79649 3.08968 0
M  V30 9912 S 956.01 1.79993 4.00185 0
M  V30 9913 H 952.828 0.388256 0.595633 0
M  V30 9914 H 955.43 1.57028 1.16458 0
M  V30 9915 H 954.134 2.8471 2.95581 0
M  V30 9916 H 953.665 1.31441 3.70792 0
M  V30 9917 H 955.68 0.862294 4.8865 0
M  V30 9918 N 954.853 -1.17469 1.05066 0
M  V30 9919 C 956.083 -1.91343 0.779202 0
M  V30 9920 C 956.491 -1.76986 -0.668764 0
M  V30 9921 O 955.834 -1.1037 -1.46848 0
M  V30 9922 C 955.896 -3.42938 1.0786 0
M  V30 9923 C 955.56 -3.81076 2.52249 0
M  V30 9924 C 956.557 -3.84027 3.50456 0
M  V30 9925 C 954.242 -4.12076 2.87225 0
M  V30 9926 C 956.236 -4.17445 4.81683 0
M  V30 9927 C 953.923 -4.45163 4.18656 0
M  V30 9928 C 954.921 -4.47825 5.15696 0
M  V30 9929 O 954.609 -4.80133 6.44769 0
M  V30 9930 H 954.341 -0.613974 0.282863 0
M  V30 9931 H 956.895 -1.49907 1.40417 0
M  V30 9932 H 955.125 -3.84662 0.39653 0
M  V30 9933 H 956.814 -3.98071 0.793357 0
M  V30 9934 H 957.58 -3.60203 3.24775 0
M  V30 9935 H 953.459 -4.09176 2.12358 0
M  V30 9936 H 957.003 -4.19437 5.57421 0
M  V30 9937 H 952.9 -4.68449 4.44101 0
M  V30 9938 H 953.668 -4.97995 6.49571 0
M  V30 9939 N 956.331 -0.831506 -1.3388 0
M  V30 9940 C 957.556 -0.435954 -2.02766 0
M  V30 9941 C 957.981 0.952889 -1.62178 0
M  V30 9942 O 957.339 1.62166 -0.810681 0
M  V30 9943 C 957.387 -0.555907 -3.56289 0
M  V30 9944 O 956.491 0.420826 -4.10247 0
M  V30 9945 H 955.832 -0.178248 -0.639628 0
M  V30 9946 H 958.362 -1.1243 -1.70941 0
M  V30 9947 H 958.372 -0.434831 -4.05676 0
M  V30 9948 H 957.047 -1.56881 -3.85177 0
M  V30 9949 H 955.624 0.257919 -3.72007 0
M  V30 9950 N 957.809 1.4625 -0.587256 0
M  V30 9951 C 958.772 2.28812 0.133238 0
M  V30 9952 C 959.772 1.38645 0.814513 0
M  V30 9953 O 960.962 1.60975 0.665774 0
M  V30 9954 C 958.094 3.19147 1.19824 0
M  V30 9955 H 959.287 2.93991 -0.592386 0
M  V30 9956 H 956.84 1.52435 -0.345416 0
M  V30 9957 H 957.575 2.58725 1.95529 0
M  V30 9958 H 957.36 3.85541 0.71418 0
M  V30 9959 H 958.85 3.81278 1.70344 0
M  V30 9960 N 959.287 0.325282 1.54207 0
M  V30 9961 C 960.217 -0.532574 2.27345 0
M  V30 9962 C 961.198 -1.11791 1.28206 0
M  V30 9963 O 962.383 -1.14272 1.57021 0
M  V30 9964 C 959.513 -1.69274 3.03255 0
M  V30 9965 C 958.467 -1.23662 4.09746 0
M  V30 9966 C 957.793 -2.48386 4.73506 0
M  V30 9967 C 959.093 -0.350244 5.21124 0
M  V30 9968 H 960.787 0.0775108 2.993 0
M  V30 9969 H 958.333 0.0387193 1.43948 0
M  V30 9970 H 960.286 -2.29917 3.53152 0
M  V30 9971 H 959.01 -2.32944 2.28921 0
M  V30 9972 H 957.669 -0.653106 3.60735 0
M  V30 9973 H 957.317 -3.10424 3.95786 0
M  V30 9974 H 957.017 -2.18558 5.45441 0
M  V30 9975 H 958.541 -3.09789 5.26178 0
M  V30 9976 H 959.955 -0.863011 5.66767 0
M  V30 9977 H 958.352 -0.14466 5.99926 0
M  V30 9978 H 959.422 0.618457 4.8094 0
M  V30 9979 N 960.765 -1.57509 0.0534917 0
M  V30 9980 C 961.695 -2.14698 -0.917999 0
M  V30 9981 C 962.676 -1.06924 -1.32292 0
M  V30 9982 O 963.861 -1.34875 -1.39723 0
M  V30 9983 C 960.991 -2.69383 -2.19203 0
M  V30 9984 C 959.945 -3.82161 -1.9271 0
M  V30 9985 C 959.271 -4.23373 -3.26587 0
M  V30 9986 C 960.571 -5.07199 -1.24686 0
M  V30 9987 H 962.265 -2.96125 -0.44165 0
M  V30 9988 H 959.811 -1.42446 -0.210993 0
M  V30 9989 H 961.764 -3.08031 -2.87567 0
M  V30 9990 H 960.488 -1.85151 -2.69048 0
M  V30 9991 H 959.147 -3.43989 -1.26757 0
M  V30 9992 H 958.795 -3.36089 -3.74237 0
M  V30 9993 H 958.495 -4.99385 -3.09658 0
M  V30 9994 H 960.019 -4.64623 -3.96178 0
M  V30 9995 H 961.433 -5.43279 -1.83088 0
M  V30 9996 H 959.83 -5.88369 -1.18076 0
M  V30 9997 H 960.9 -4.84386 -0.223227 0
M  V30 9998 N 962.243 0.219913 -1.56058 0
M  V30 9999 C 963.471 0.960915 -1.83232 0
M  V30 10000 C 963.886 1.77878 -0.632828 0
M  V30 10001 O 963.243 1.78093 0.398624 0
M  V30 10002 C 963.294 1.87716 -3.08942 0
M  V30 10003 O 963.015 1.09235 -4.24263 0
M  V30 10004 C 964.516 2.73192 -3.49115 0
M  V30 10005 H 961.736 0.281546 -0.609075 0
M  V30 10006 H 964.28 0.234648 -2.03149 0
M  V30 10007 H 962.435 2.55736 -2.90995 0
M  V30 10008 H 962.849 1.71446 -4.95688 0
M  V30 10009 H 964.323 3.33181 -4.40107 0
M  V30 10010 H 964.8 3.45668 -2.70943 0
M  V30 10011 H 965.406 2.10583 -3.69506 0
M  V30 10012 N 963.721 1.49897 0.486681 0
M  V30 10013 C 964.668 1.67619 1.58658 0
M  V30 10014 C 965.638 0.517537 1.57831 0
M  V30 10015 O 966.823 0.746272 1.756 0
M  V30 10016 C 963.963 1.762 2.96728 0
M  V30 10017 C 963.076 3.03465 3.07462 0
M  V30 10018 C 962.211 3.02937 4.36351 0
M  V30 10019 C 961.25 4.24721 4.4077 0
M  V30 10020 N 960.387 4.22021 5.61108 0
M  V30 10021 H 965.227 2.61528 1.42853 0
M  V30 10022 H 962.764 1.29657 0.694807 0
M  V30 10023 H 964.722 1.79156 3.76774 0
M  V30 10024 H 963.352 0.857452 3.11203 0
M  V30 10025 H 962.404 3.10054 2.20387 0
M  V30 10026 H 963.716 3.93454 3.06586 0
M  V30 10027 H 962.87 3.04536 5.24731 0
M  V30 10028 H 961.609 2.10751 4.39813 0
M  V30 10029 H 960.614 4.23352 3.5079 0
M  V30 10030 H 961.839 5.18116 4.39013 0
M  V30 10031 H 959.785 3.3268 5.65385 0
M  V30 10032 H 959.702 5.05761 5.61909 0
M  V30 10033 H 960.97 4.27743 6.51656 0
M  V30 10034 N 965.199 -0.738761 1.39212 0
M  V30 10035 C 966.427 -1.52801 1.39497 0
M  V30 10036 C 966.842 -1.88797 -0.0114917 0
M  V30 10037 O 966.199 -1.53835 -0.981887 0
M  V30 10038 C 966.25 -2.81793 2.2644 0
M  V30 10039 O 965.971 -2.47328 3.61608 0
M  V30 10040 C 967.472 -3.75844 2.35067 0
M  V30 10041 H 964.692 -0.472322 0.476606 0
M  V30 10042 H 967.236 -0.913153 1.8298 0
M  V30 10043 H 965.391 -3.3962 1.8638 0
M  V30 10044 H 965.805 -3.30162 4.07545 0
M  V30 10045 H 967.279 -4.6326 3.00157 0
M  V30 10046 H 967.756 -4.17329 1.3687 0
M  V30 10047 H 968.362 -3.23937 2.75581 0
M  V30 10048 N 966.677 -1.24326 -0.968545 0
M  V30 10049 C 967.625 -1.03256 -2.08425 0
M  V30 10050 C 968.619 0.0322356 -1.69369 0
M  V30 10051 O 969.825 -0.122251 -1.79584 0
M  V30 10052 H 966.2 -0.31688 -0.681976 0
M  V30 10053 H 968.171 -1.97873 -2.23358 0
M  V30 10054 C 966.92 -0.653144 -3.4151 0
M  V30 10055 H 966.243 -1.46424 -3.72021 0
M  V30 10056 H 967.683 -0.545316 -4.20479 0
M  V30 10057 C 966.142 0.639674 -3.30771 0
M  V30 10058 O 966.672 1.68563 -3.64622 0
M  V30 10059 N 964.878 0.620074 -2.83907 0
M  V30 10060 H 964.425 -0.231449 -2.56558 0
M  V30 10061 H 964.383 1.48528 -2.77104 0
M  V30 10062 N 968.156 1.1691 -1.05688 0
M  V30 10063 C 969.572 1.39288 -0.779167 0
M  V30 10064 C 969.772 1.91587 0.624231 0
M  V30 10065 O 968.828 2.11072 1.38582 0
M  V30 10066 C 970.141 2.37914 -1.83895 0
M  V30 10067 C 971.689 2.51611 -1.86175 0
M  V30 10068 C 972.164 3.53514 -2.9119 0
M  V30 10069 N 973.655 3.61036 -2.90184 0
M  V30 10070 C 974.39 4.39657 -3.68088 0
M  V30 10071 N 973.886 5.21752 -4.55793 0
M  V30 10072 N 975.679 4.3458 -3.56507 0
M  V30 10073 H 967.83 0.81296 -1.96226 0
M  V30 10074 H 970.093 0.419818 -0.849975 0
M  V30 10075 H 969.799 2.06568 -2.84645 0
M  V30 10076 H 969.673 3.37483 -1.68479 0
M  V30 10077 H 972.06 2.82264 -0.86087 0
M  V30 10078 H 972.141 1.52099 -2.05668 0
M  V30 10079 H 971.785 3.23599 -3.91467 0
M  V30 10080 H 971.715 4.52742 -2.68947 0
M  V30 10081 H 974.206 3.02428 -2.26596 0
M  V30 10082 H 974.519 5.78939 -5.11907 0
M  V30 10083 H 972.864 5.21116 -4.59851 0
M  V30 10084 H 976.055 3.69501 -2.87379 0
M  V30 10085 H 976.228 4.95607 -4.17466 0
M  V30 10086 N 969.634 0.838594 1.33437 0
M  V30 10087 C 970.883 0.430484 1.97053 0
M  V30 10088 C 971.196 -1.01556 1.6717 0
M  V30 10089 O 972.402 -1.52834 2.24397 0
M  V30 10090 C 970.858 0.718828 3.52648 0
M  V30 10091 C 970.466 2.17953 3.91408 0
M  V30 10092 C 972.21 0.377654 4.22817 0
M  V30 10093 C 970.117 2.41194 5.39981 0
M  V30 10094 H 969.047 0.157239 0.737422 0
M  V30 10095 H 971.698 1.02714 1.5206 0
M  V30 10096 H 970.08 0.0518042 3.95966 0
M  V30 10097 H 971.254 2.88701 3.59149 0
M  V30 10098 H 969.569 2.48366 3.34221 0
M  V30 10099 H 972.166 0.528926 5.32077 0
M  V30 10100 H 972.509 -0.679338 4.1072 0
M  V30 10101 H 973.042 0.999899 3.85028 0
M  V30 10102 H 969.781 3.45457 5.57081 0
M  V30 10103 H 969.301 1.75007 5.73701 0
M  V30 10104 H 970.98 2.24334 6.06863 0
M  V30 10105 N 971.112 -1.45937 0.595003 0
M  V30 10106 C 972.075 -2.2888 -0.121102 0
M  V30 10107 C 973.075 -1.39075 -0.807149 0
M  V30 10108 O 974.265 -1.61326 -0.657228 0
M  V30 10109 C 971.397 -3.19778 -1.1813 0
M  V30 10110 H 972.59 -2.93673 0.607968 0
M  V30 10111 H 970.143 -1.5225 0.353495 0
M  V30 10112 H 970.878 -2.59759 -1.94154 0
M  V30 10113 H 970.663 -3.85914 -0.693724 0
M  V30 10114 H 972.153 -3.82176 -1.68319 0
M  V30 10115 N 972.59 -0.333456 -1.54032 0
M  V30 10116 C 974.006 0.0188405 -1.59589 0
M  V30 10117 C 974.206 1.49615 -1.34972 0
M  V30 10118 O 973.262 2.2535 -1.13901 0
M  V30 10119 C 974.575 -0.408273 -2.97915 0
M  V30 10120 C 976.123 -0.359763 -3.10926 0
M  V30 10121 C 976.598 -0.76219 -4.51613 0
M  V30 10122 N 978.089 -0.715981 -4.57633 0
M  V30 10123 C 978.824 -0.999436 -5.64623 0
M  V30 10124 N 978.32 -1.35053 -6.79509 0
M  V30 10125 N 980.113 -0.924343 -5.54448 0
M  V30 10126 H 972.264 -1.29587 -1.68289 0
M  V30 10127 H 974.527 -0.527584 -0.787629 0
M  V30 10128 H 974.233 -1.43793 -3.20962 0
M  V30 10129 H 974.107 0.221685 -3.76548 0
M  V30 10130 H 976.494 0.660703 -2.87609 0
M  V30 10131 H 976.575 -1.02479 -2.34375 0
M  V30 10132 H 976.219 -1.78062 -4.75664 0
M  V30 10133 H 976.149 -0.0747478 -5.26547 0
M  V30 10134 H 978.64 -0.456875 -3.75128 0
M  V30 10135 H 978.953 -1.55194 -7.57057 0
M  V30 10136 H 977.298 -1.38889 -6.80981 0
M  V30 10137 H 980.489 -0.649469 -4.63573 0
M  V30 10138 H 980.662 -1.1486 -6.37739 0
M  V30 10139 N 974.068 1.57479 -0.061844 0
M  V30 10140 C 975.317 1.92285 0.609055 0
M  V30 10141 C 975.63 0.942983 1.71369 0
M  V30 10142 O 976.836 1.18349 2.44348 0
M  V30 10143 C 975.292 3.41545 1.13468 0
M  V30 10144 C 974.9 4.47958 0.0615926 0
M  V30 10145 C 976.644 3.85368 1.78022 0
M  V30 10146 C 974.551 5.88341 0.600705 0
M  V30 10147 H 973.481 0.717656 0.23127 0
M  V30 10148 H 976.132 1.83021 -0.132466 0
M  V30 10149 H 974.514 3.45848 1.92886 0
M  V30 10150 H 975.688 4.55258 -0.712527 0
M  V30 10151 H 974.003 4.13541 -0.487116 0
M  V30 10152 H 976.6 4.87627 2.19371 0
M  V30 10153 H 976.943 3.22193 2.63623 0
M  V30 10154 H 977.476 3.83626 1.05242 0
M  V30 10155 H 974.215 6.55138 -0.217922 0
M  V30 10156 H 973.735 5.84581 1.34257 0
M  V30 10157 H 975.414 6.37918 1.08025 0
M  V30 10158 N 975.546 -0.211634 1.56173 0
M  V30 10159 C 976.793 -0.93455 1.79645 0
M  V30 10160 C 977.121 -1.83936 0.632294 0
M  V30 10161 O 976.376 -1.91919 -0.382841 0
M  V30 10162 C 976.675 -1.79657 3.08963 0
M  V30 10163 C 976.341 -1.04415 4.38644 0
M  V30 10164 C 975.003 -0.836351 4.73876 0
M  V30 10165 C 977.355 -0.51355 5.18664 0
M  V30 10166 C 974.683 -0.0861976 5.86637 0
M  V30 10167 C 977.035 0.223309 6.32206 0
M  V30 10168 C 975.699 0.442279 6.66033 0
M  V30 10169 H 974.969 -0.341976 0.657368 0
M  V30 10170 H 977.616 -0.202024 1.90431 0
M  V30 10171 H 975.921 -2.59726 2.93342 0
M  V30 10172 H 977.618 -2.35823 3.24328 0
M  V30 10173 H 974.208 -1.21611 4.10985 0
M  V30 10174 H 978.392 -0.661541 4.91871 0
M  V30 10175 H 973.648 0.0935866 6.11328 0
M  V30 10176 H 977.822 0.641917 6.93435 0
M  V30 10177 H 975.449 1.02547 7.53252 0
M  V30 10178 N 977.024 -1.50153 -0.478725 0
M  V30 10179 C 978.272 -1.60443 -1.22892 0
M  V30 10180 C 978.593 -0.303276 -1.92627 0
M  V30 10181 O 977.863 0.678798 -1.83764 0
M  V30 10182 H 976.443 -0.591205 -0.456602 0
M  V30 10183 H 979.105 -1.86893 -0.552905 0
M  V30 10184 H 978.201 -2.41175 -1.98094 0
M  V30 10185 N 978.502 0.731368 -1.39602 0
M  V30 10186 C 979.75 1.48805 -1.36753 0
M  V30 10187 C 980.071 1.94969 0.034676 0
M  V30 10188 O 979.341 1.69243 0.986591 0
M  V30 10189 H 977.921 0.55203 -0.503261 0
M  V30 10190 H 980.583 0.868013 -1.74504 0
M  V30 10191 H 979.679 2.36844 -2.03252 0
M  V30 10192 N 979.98 1.24838 0.961938 0
M  V30 10193 C 980.943 1.04674 2.03902 0
M  V30 10194 C 981.943 0.00204674 1.608 0
M  V30 10195 O 983.133 0.243555 1.72489 0
M  V30 10196 C 980.265 0.587736 3.35795 0
M  V30 10197 H 981.458 2.00278 2.23223 0
M  V30 10198 H 979.011 1.07142 1.138 0
M  V30 10199 H 979.746 -0.371244 3.22168 0
M  V30 10200 H 979.531 1.34182 3.68426 0
M  V30 10201 H 981.021 0.467867 4.14971 0
M  V30 10202 N 981.458 -1.16348 1.06306 0
M  V30 10203 C 982.874 -1.38873 0.786543 0
M  V30 10204 C 983.074 -1.91915 -0.614061 0
M  V30 10205 O 982.13 -2.11804 -1.3746 0
M  V30 10206 C 983.443 -2.36936 1.85154 0
M  V30 10207 C 984.991 -2.5062 1.87506 0
M  V30 10208 C 985.466 -3.51965 2.9306 0
M  V30 10209 N 986.957 -3.59492 2.92095 0
M  V30 10210 C 987.692 -4.37699 3.70415 0
M  V30 10211 N 987.188 -5.19327 4.58553 0
M  V30 10212 N 988.981 -4.32683 3.58806 0
M  V30 10213 H 981.132 -0.802542 1.96655 0
M  V30 10214 H 983.395 -0.415304 0.852189 0
M  V30 10215 H 983.101 -2.05056 2.85736 0
M  V30 10216 H 982.975 -3.36585 1.70267 0
M  V30 10217 H 985.362 -2.81804 0.875827 0
M  V30 10218 H 985.443 -1.51006 2.06472 0
M  V30 10219 H 985.087 -3.21518 3.93177 0
M  V30 10220 H 985.017 -4.51309 2.71344 0
M  V30 10221 H 987.508 -3.01222 2.28197 0
M  V30 10222 H 987.821 -5.76216 5.1497 0
M  V30 10223 H 986.166 -5.1867 4.62608 0
M  V30 10224 H 989.357 -3.67971 2.89335 0
M  V30 10225 H 989.53 -4.93386 4.20088 0
M  V30 10226 N 982.937 -0.845659 -1.3299 0
M  V30 10227 C 983.847 -0.2864 -2.32845 0
M  V30 10228 C 984.863 0.591105 -1.63652 0
M  V30 10229 O 986.039 0.493615 -1.95257 0
M  V30 10230 C 983.104 0.523636 -3.42723 0
M  V30 10231 C 982.165 -0.378945 -4.27624 0
M  V30 10232 C 981.398 0.392526 -5.32255 0
M  V30 10233 O 981.621 1.6235 -5.46808 0
M  V30 10234 O 980.555 -0.237 -6.01433 0
M  V30 10235 H 984.381 -1.11346 -2.82552 0
M  V30 10236 H 981.966 -0.608356 -1.36453 0
M  V30 10237 H 983.848 0.983718 -4.09757 0
M  V30 10238 H 982.523 1.32764 -2.95221 0
M  V30 10239 H 981.43 -0.887012 -3.63432 0
M  V30 10240 H 982.763 -1.1479 -4.78627 0
M  V30 10241 N 984.415 1.45619 -0.602734 0
M  V30 10242 C 985.663 2.01873 -0.095844 0
M  V30 10243 C 985.984 1.47427 1.27633 0
M  V30 10244 O 985.254 0.666652 1.84208 0
M  V30 10245 H 983.834 0.746295 -0.0324408 0
M  V30 10246 H 986.496 1.78478 -0.783037 0
M  V30 10247 H 985.592 3.12072 -0.0419507 0
M  V30 10248 N 985.893 0.34162 1.53853 0
M  V30 10249 C 986.856 -0.503541 2.236 0
M  V30 10250 C 987.856 -1.02912 1.23554 0
M  V30 10251 O 989.046 -0.918678 1.48007 0
M  V30 10252 C 986.178 -1.70126 2.95415 0
M  V30 10253 H 987.371 0.106437 2.99711 0
M  V30 10254 H 984.924 0.0929408 1.56023 0
M  V30 10255 H 985.659 -2.34999 2.23486 0
M  V30 10256 H 985.444 -1.33161 3.68796 0
M  V30 10257 H 986.934 -2.30077 3.48503 0
M  V30 10258 N 987.371 -1.57444 0.0701946 0
M  V30 10259 C 988.303 -2.09611 -0.927142 0
M  V30 10260 C 989.316 -1.02791 -1.26245 0
M  V30 10261 O 990.505 -1.30309 -1.21992 0
M  V30 10262 C 987.605 -2.54015 -2.24342 0
M  V30 10263 C 986.778 -3.84389 -2.08719 0
M  V30 10264 C 985.837 -4.14904 -3.23638 0
M  V30 10265 O 984.863 -4.84528 -2.98699 0
M  V30 10266 N 986.065 -3.68322 -4.48686 0
M  V30 10267 H 988.83 -2.95803 -0.481753 0
M  V30 10268 H 986.391 -1.61487 -0.115572 0
M  V30 10269 H 988.383 -2.71492 -3.00124 0
M  V30 10270 H 986.953 -1.72969 -2.60385 0
M  V30 10271 H 986.173 -3.76308 -1.17415 0
M  V30 10272 H 987.461 -4.69729 -1.9553 0
M  V30 10273 H 986.859 -3.12073 -4.71834 0
M  V30 10274 H 985.416 -3.91002 -5.21499 0
M  V30 10275 N 988.849 0.203349 -1.56283 0
M  V30 10276 C 990.265 0.55384 -1.49682 0
M  V30 10277 C 990.465 1.86261 -0.768701 0
M  V30 10278 O 989.521 2.50517 -0.315824 0
M  V30 10279 C 990.834 0.616216 -2.94318 0
M  V30 10280 C 992.382 0.705611 -3.04943 0
M  V30 10281 C 992.857 0.79917 -4.50974 0
M  V30 10282 N 994.348 0.862916 -4.55091 0
M  V30 10283 C 995.083 0.955334 -5.65386 0
M  V30 10284 N 994.579 1.01057 -6.8539 0
M  V30 10285 N 996.372 0.991884 -5.53279 0
M  V30 10286 H 988.523 -0.655244 -2.0204 0
M  V30 10287 H 990.786 -0.232344 -0.919087 0
M  V30 10288 H 990.492 -0.27619 -3.50614 0
M  V30 10289 H 990.366 1.47371 -3.4722 0
M  V30 10290 H 992.753 1.58845 -2.48701 0
M  V30 10291 H 992.834 -0.177921 -2.5518 0
M  V30 10292 H 992.478 -0.0792841 -5.07838 0
M  V30 10293 H 992.408 1.69838 -4.9846 0
M  V30 10294 H 994.899 0.829812 -3.68677 0
M  V30 10295 H 995.212 1.08137 -7.65197 0
M  V30 10296 H 993.557 0.979384 -6.88065 0
M  V30 10297 H 996.748 0.945514 -4.58451 0
M  V30 10298 H 996.921 1.06045 -6.39264 0
M  V30 10299 N 990.327 1.50405 0.470755 0
M  V30 10300 C 991.738 1.54266 1.05162 0
M  V30 10301 C 992.089 0.346359 1.93119 0
M  V30 10302 O 991.214 -0.540699 2.09536 0
M  V30 10303 C 991.809 2.7956 1.91394 0
M  V30 10304 C 990.368 2.86101 2.44588 0
M  V30 10305 C 989.515 2.48557 1.22941 0
M  V30 10306 H 992.466 1.56665 0.253359 0
M  V30 10307 H 992.487 2.61434 2.76464 0
M  V30 10308 H 991.999 3.66611 1.27351 0
M  V30 10309 H 990.1 2.03403 3.12183 0
M  V30 10310 H 990.213 3.88999 2.79672 0
M  V30 10311 H 988.577 2.01003 1.56429 0
M  V30 10312 H 989.36 3.37916 0.605598 0
M  V30 10313 N 991.805 -0.723954 1.39988 0
M  V30 10314 C 993.221 -1.03095 1.21834 0
M  V30 10315 C 993.421 -2.01309 0.0876647 0
M  V30 10316 O 992.477 -2.46277 -0.55714 0
M  V30 10317 C 993.79 -1.58267 2.5568 0
M  V30 10318 C 995.338 -1.70293 2.6262 0
M  V30 10319 C 995.813 -2.28872 3.96713 0
M  V30 10320 N 997.304 -2.36269 3.98411 0
M  V30 10321 C 998.039 -2.82557 4.98948 0
M  V30 10322 N 997.535 -3.28661 6.0988 0
M  V30 10323 N 999.328 -2.81866 4.86321 0
M  V30 10324 H 991.479 -0.0727891 2.12275 0
M  V30 10325 H 993.742 -0.0949029 0.943238 0
M  V30 10326 H 993.448 -0.935642 3.39026 0
M  V30 10327 H 993.322 -2.56914 2.76179 0
M  V30 10328 H 995.709 -2.34115 1.7965 0
M  V30 10329 H 995.79 -0.70268 2.45959 0
M  V30 10330 H 995.434 -1.65675 4.80119 0
M  V30 10331 H 995.364 -3.29595 4.107 0
M  V30 10332 H 997.855 -2.03697 3.18302 0
M  V30 10333 H 998.168 -3.62524 6.82493 0
M  V30 10334 H 996.513 -3.26641 6.13458 0
M  V30 10335 H 999.704 -2.45179 3.98754 0
M  V30 10336 H 999.877 -3.17626 5.64817 0
M  V30 10337 N 993.283 -1.25346 -0.955304 0
M  V30 10338 C 994.53 -1.10055 -1.69983 0
M  V30 10339 C 994.858 0.358586 -1.91166 0
M  V30 10340 O 994.113 1.28071 -1.47974 0
M  V30 10341 C 994.412 -1.7993 -3.08804 0
M  V30 10342 C 994.078 -3.29851 -3.07424 0
M  V30 10343 C 992.74 -3.7075 -3.06754 0
M  V30 10344 C 995.092 -4.25636 -3.00805 0
M  V30 10345 C 992.42 -5.05847 -2.97214 0
M  V30 10346 C 994.772 -5.60756 -2.92806 0
M  V30 10347 C 993.436 -6.00984 -2.90472 0
M  V30 10348 H 992.706 -0.402718 -0.622012 0
M  V30 10349 H 995.353 -1.5561 -1.11614 0
M  V30 10350 H 993.658 -1.26803 -3.70713 0
M  V30 10351 H 995.355 -1.65551 -3.65231 0
M  V30 10352 H 991.945 -2.97308 -3.08716 0
M  V30 10353 H 996.129 -3.9503 -3.00441 0
M  V30 10354 H 991.385 -5.36196 -2.93775 0
M  V30 10355 H 995.559 -6.34671 -2.86645 0
M  V30 10356 H 993.186 -7.05626 -2.82835 0
M  V30 10357 N 994.761 1.15782 -1.06922 0
M  V30 10358 C 996.01 1.85807 -0.784774 0
M  V30 10359 C 996.323 1.82967 0.691551 0
M  V30 10360 O 997.529 2.48632 1.0906 0
M  V30 10361 C 995.985 3.33469 -1.35375 0
M  V30 10362 C 995.593 3.44766 -2.86077 0
M  V30 10363 C 997.337 4.08707 -1.14713 0
M  V30 10364 C 995.244 4.86551 -3.36187 0
M  V30 10365 H 994.174 0.696046 -0.28989 0
M  V30 10366 H 996.825 1.30629 -1.28873 0
M  V30 10367 H 995.207 3.88292 -0.77754 0
M  V30 10368 H 996.381 3.00073 -3.49704 0
M  V30 10369 H 994.696 2.82969 -3.05479 0
M  V30 10370 H 997.293 5.13336 -1.49633 0
M  V30 10371 H 997.636 4.16211 -0.0858868 0
M  V30 10372 H 998.169 3.60142 -1.68946 0
M  V30 10373 H 994.908 4.84229 -4.41818 0
M  V30 10374 H 994.428 5.31844 -2.77312 0
M  V30 10375 H 996.107 5.55392 -3.31887 0
M  V30 10376 N 996.239 0.8527 1.3254 0
M  V30 10377 C 997.464 0.468157 2.02047 0
M  V30 10378 C 997.889 -0.926967 1.63673 0
M  V30 10379 O 997.247 -1.60855 0.836378 0
M  V30 10380 C 997.295 0.612519 3.5536 0
M  V30 10381 O 996.399 -0.355506 4.10865 0
M  V30 10382 H 995.74 0.188401 0.636711 0
M  V30 10383 H 998.27 1.15135 1.6913 0
M  V30 10384 H 998.28 0.499315 4.04933 0
M  V30 10385 H 996.955 1.62988 3.82632 0
M  V30 10386 H 995.532 -0.198703 3.7237 0
M  V30 10387 N 997.718 -1.45297 0.610449 0
M  V30 10388 C 999.129 -1.85715 0.191488 0
M  V30 10389 C 999.48 -1.51036 -1.25229 0
M  V30 10390 O 998.605 -0.938422 -1.94994 0
M  V30 10391 C 999.2 -3.37082 0.340747 0
M  V30 10392 C 997.759 -3.76393 -0.0235433 0
M  V30 10393 C 996.906 -2.69237 0.663849 0
M  V30 10394 H 999.857 -1.36058 0.816948 0
M  V30 10395 H 999.878 -3.78105 -0.426233 0
M  V30 10396 H 999.39 -3.62291 1.39164 0
M  V30 10397 H 997.491 -3.56801 -1.07351 0
M  V30 10398 H 997.604 -4.77653 0.372102 0
M  V30 10399 H 995.968 -2.54499 0.101204 0
M  V30 10400 H 996.751 -2.97281 1.71694 0
M  V30 10401 N 999.196 -0.349774 -1.5367 0
M  V30 10402 C 1000.16 0.491676 -2.23864 0
M  V30 10403 C 1001.16 1.02256 -1.24098 0
M  V30 10404 O 1002.35 0.910816 -1.48492 0
M  V30 10405 C 999.481 1.68557 -2.96313 0
M  V30 10406 H 1000.67 -0.12233 -2.9965 0
M  V30 10407 H 998.227 -0.101214 -1.55972 0
M  V30 10408 H 998.962 2.3381 -2.2473 0
M  V30 10409 H 998.747 1.31203 -3.69497 0
M  V30 10410 H 1000.24 2.28225 -3.49718 0
M  V30 10411 N 1000.67 1.57404 -0.0785433 0
M  V30 10412 C 1001.9 1.98492 0.601292 0
M  V30 10413 C 1002.32 0.956832 1.61945 0
M  V30 10414 O 1001.68 -0.0767502 1.81137 0
M  V30 10415 C 1001.73 3.38596 1.24036 0
M  V30 10416 O 1000.83 3.38461 2.35622 0
M  V30 10417 H 1000.17 0.645882 0.154054 0
M  V30 10418 H 1002.7 2.04012 -0.155056 0
M  V30 10419 H 1002.71 3.75929 1.5856 0
M  V30 10420 H 1001.39 4.12952 0.494341 0
M  V30 10421 H 999.967 3.12906 2.02841 0
M  V30 10422 N 1002.15 -0.195058 1.56388 0
M  V30 10423 C 1003.08 -1.26581 1.91076 0
M  V30 10424 C 1004.1 -1.41707 0.801436 0
M  V30 10425 O 1005.29 -1.42132 1.07985 0
M  V30 10426 C 1002.39 -2.63794 2.12758 0
M  V30 10427 C 1001.56 -2.70275 3.43904 0
M  V30 10428 C 1000.62 -3.88685 3.54698 0
M  V30 10429 O 999.644 -3.75786 4.2752 0
M  V30 10430 N 1000.85 -5.04141 2.87789 0
M  V30 10431 H 1003.61 -0.971401 2.83521 0
M  V30 10432 H 1001.17 -0.384976 1.57256 0
M  V30 10433 H 1003.16 -3.41434 2.17267 0
M  V30 10434 H 1001.73 -2.85723 1.26812 0
M  V30 10435 H 1000.95 -1.78909 3.51262 0
M  V30 10436 H 1002.24 -2.71597 4.30247 0
M  V30 10437 H 1001.64 -5.17519 2.28452 0
M  V30 10438 H 1000.2 -5.79727 2.97925 0
M  V30 10439 N 1003.63 -1.50653 -0.462772 0
M  V30 10440 C 1004.88 -1.62297 -1.21603 0
M  V30 10441 C 1005.21 -0.326191 -1.91441 0
M  V30 10442 O 1004.48 0.67284 -1.82491 0
M  V30 10443 C 1004.77 -2.80901 -2.25315 0
M  V30 10444 C 1004.62 -4.20484 -1.59728 0
M  V30 10445 C 1005.94 -2.95049 -3.26549 0
M  V30 10446 H 1003.06 -0.590691 -0.440741 0
M  V30 10447 H 1005.7 -1.83064 -0.508675 0
M  V30 10448 H 1003.85 -2.63325 -2.85643 0
M  V30 10449 H 1005.52 -4.49669 -1.02932 0
M  V30 10450 H 1003.76 -4.24357 -0.900181 0
M  V30 10451 H 1004.44 -4.99416 -2.35133 0
M  V30 10452 H 1006.91 -3.11166 -2.76251 0
M  V30 10453 H 1005.79 -3.79645 -3.96435 0
M  V30 10454 H 1006.05 -2.06019 -3.91163 0
M  V30 10455 N 1005.11 0.71652 -1.4037 0
M  V30 10456 C 1006.07 1.81231 -1.40313 0
M  V30 10457 C 1007.07 1.58032 -0.297087 0
M  V30 10458 O 1008.26 1.65091 -0.555944 0
M  V30 10459 C 1005.39 3.19308 -1.19395 0
M  V30 10460 H 1006.59 1.8268 -2.3784 0
M  V30 10461 H 1004.14 0.922062 -1.26205 0
M  V30 10462 H 1004.87 3.2351 -0.226252 0
M  V30 10463 H 1004.66 3.37546 -1.99512 0
M  V30 10464 H 1006.15 3.99339 -1.22141 0
M  V30 10465 N 1006.59 1.25851 0.948643 0
M  V30 10466 C 1007.84 1.10347 1.68838 0
M  V30 10467 C 1008.15 -0.354262 1.92365 0
M  V30 10468 O 1009.35 -0.629847 2.64093 0
M  V30 10469 C 1007.81 1.92659 3.03991 0
M  V30 10470 C 1007.42 3.42962 2.88238 0
M  V30 10471 C 1009.16 1.85743 3.81707 0
M  V30 10472 C 1007.07 4.17547 4.18818 0
M  V30 10473 H 1006 0.409342 0.63321 0
M  V30 10474 H 1008.65 1.50098 1.05559 0
M  V30 10475 H 1007.03 1.45736 3.68208 0
M  V30 10476 H 1008.21 3.97601 2.32917 0
M  V30 10477 H 1006.52 3.51035 2.23972 0
M  V30 10478 H 1009.12 2.38758 4.78434 0
M  V30 10479 H 1009.46 0.826568 4.08012 0
M  V30 10480 H 1009.99 2.30449 3.2425 0
M  V30 10481 H 1006.73 5.21072 3.97699 0
M  V30 10482 H 1006.25 3.6769 4.73882 0
M  V30 10483 H 1007.93 4.25589 4.87322 0
M  V30 10484 N 1008.06 -1.15214 1.07534 0
M  V30 10485 C 1009.3 -1.87708 0.809009 0
M  V30 10486 C 1009.67 -1.80552 -0.653066 0
M  V30 10487 O 1010.87 -2.48095 -1.03452 0
M  V30 10488 C 1009.14 -3.32703 1.30552 0
M  V30 10489 S 1010.7 -4.2291 1.17015 0
M  V30 10490 H 1007.52 -0.647767 0.293118 0
M  V30 10491 H 1010.12 -1.38992 1.37482 0
M  V30 10492 H 1008.82 -3.35456 2.36427 0
M  V30 10493 H 1008.35 -3.86473 0.734995 0
M  V30 10494 H 1010.37 -4.96081 0.108836 0
M  V30 10495 N 1009.54 -0.859717 -1.32086 0
M  V30 10496 C 1010.47 -0.323502 -2.31248 0
M  V30 10497 C 1011.45 0.580085 -1.59903 0
M  V30 10498 O 1012.64 0.499265 -1.87673 0
M  V30 10499 C 1009.77 0.484661 -3.43902 0
M  V30 10500 C 1008.72 -0.324933 -4.26765 0
M  V30 10501 C 1008.05 0.608281 -5.31229 0
M  V30 10502 C 1009.35 -1.55344 -4.98664 0
M  V30 10503 H 1011.04 -1.15209 -2.76346 0
M  V30 10504 H 1008.59 -0.555442 -1.32856 0
M  V30 10505 H 1010.54 0.870238 -4.12316 0
M  V30 10506 H 1009.27 1.34666 -2.97544 0
M  V30 10507 H 1007.92 -0.692328 -3.60003 0
M  V30 10508 H 1007.57 1.46727 -4.81124 0
M  V30 10509 H 1007.27 0.0705571 -5.87558 0
M  V30 10510 H 1008.8 0.990925 -6.02506 0
M  V30 10511 H 1010.21 -1.23987 -5.59732 0
M  V30 10512 H 1008.61 -2.02947 -5.64741 0
M  V30 10513 H 1009.68 -2.31192 -4.26237 0
M  V30 10514 N 1011.02 1.44971 -0.618145 0
M  V30 10515 C 1011.98 2.29044 0.0846739 0
M  V30 10516 C 1012.98 1.40341 0.784921 0
M  V30 10517 O 1014.17 1.62351 0.631479 0
M  V30 10518 C 1011.31 3.21617 1.13027 0
M  V30 10519 H 1012.5 2.92668 -0.654612 0
M  V30 10520 H 1010.05 1.51668 -0.377672 0
M  V30 10521 H 1010.79 2.62815 1.89997 0
M  V30 10522 H 1010.57 3.86969 0.63224 0
M  V30 10523 H 1012.06 3.84805 1.62218 0
M  V30 10524 N 1012.5 0.357919 1.53482 0
M  V30 10525 C 1013.43 -0.484231 2.28424 0
M  V30 10526 C 1014.41 -1.09046 1.30548 0
M  V30 10527 O 1015.59 -1.10916 1.59409 0
M  V30 10528 C 1012.72 -1.62803 3.06778 0
M  V30 10529 C 1011.68 -1.14943 4.12277 0
M  V30 10530 C 1011 -2.38287 4.78669 0
M  V30 10531 C 1012.3 -0.239627 5.2175 0
M  V30 10532 H 1014 0.140979 2.99068 0
M  V30 10533 H 1011.54 0.069244 1.43833 0
M  V30 10534 H 1013.5 -2.22374 3.57949 0
M  V30 10535 H 1012.22 -2.28036 2.3381 0
M  V30 10536 H 1010.88 -0.576442 3.6204 0
M  V30 10537 H 1010.53 -3.01959 4.02281 0
M  V30 10538 H 1010.23 -2.06939 5.49955 0
M  V30 10539 H 1011.75 -2.98558 5.32631 0
M  V30 10540 H 1013.17 -0.742597 5.6847 0
M  V30 10541 H 1011.56 -0.0173747 6.00097 0
M  V30 10542 H 1012.63 0.720333 4.7952 0
M  V30 10543 N 1013.98 -1.5736 0.0868897 0
M  V30 10544 C 1015.23 -1.93229 -0.578387 0
M  V30 10545 C 1015.54 -0.970127 -1.69847 0
M  V30 10546 O 1016.74 -1.22222 -2.42434 0
M  V30 10547 C 1015.2 -3.43307 -1.0802 0
M  V30 10548 C 1014.81 -4.47999 0.00968135 0
M  V30 10549 C 1016.55 -3.88151 -1.71868 0
M  V30 10550 C 1014.46 -5.89223 -0.507029 0
M  V30 10551 H 1013.39 -0.721245 -0.219823 0
M  V30 10552 H 1016.04 -1.82787 0.161566 0
M  V30 10553 H 1014.42 -3.48873 -1.87359 0
M  V30 10554 H 1015.6 -4.54067 0.784865 0
M  V30 10555 H 1013.91 -4.12714 0.552845 0
M  V30 10556 H 1016.51 -4.91056 -2.11585 0
M  V30 10557 H 1016.85 -3.26347 -2.58464 0
M  V30 10558 H 1017.38 -3.85252 -0.991259 0
M  V30 10559 H 1014.12 -6.54708 0.322121 0
M  V30 10560 H 1013.64 -5.86643 -1.2494 0
M  V30 10561 H 1015.32 -6.39556 -0.978628 0
M  V30 10562 N 1015.45 0.186762 -1.56489 0
M  V30 10563 C 1016.68 0.925916 -1.85584 0
M  V30 10564 C 1017.1 1.75708 -0.671446 0
M  V30 10565 O 1016.46 1.7728 0.379687 0
M  V30 10566 C 1016.51 1.79107 -3.12975 0
M  V30 10567 O 1015.61 2.89088 -2.94112 0
M  V30 10568 H 1014.96 0.260275 -0.610863 0
M  V30 10569 H 1017.49 0.189561 -2.0372 0
M  V30 10570 H 1017.5 2.19408 -3.43983 0
M  V30 10571 H 1016.17 1.18044 -3.98796 0
M  V30 10572 H 1014.75 2.52482 -2.74422 0
M  V30 10573 N 1016.93 1.50896 0.454776 0
M  V30 10574 C 1018.18 1.62378 1.20324 0
M  V30 10575 C 1018.5 0.333883 1.9212 0
M  V30 10576 O 1017.77 -0.649477 1.8482 0
M  V30 10577 H 1016.35 0.598395 0.447139 0
M  V30 10578 H 1019.01 1.87749 0.523102 0
M  V30 10579 H 1018.11 2.44296 1.94232 0
M  V30 10580 N 1018.41 -0.709066 1.40748 0
M  V30 10581 C 1019.34 -1.83412 1.37451 0
M  V30 10582 C 1020.36 -1.60394 0.27884 0
M  V30 10583 O 1021.54 -1.70147 0.539642 0
M  V30 10584 C 1018.64 -3.19935 1.1178 0
M  V30 10585 C 1017.82 -3.70095 2.33128 0
M  V30 10586 C 1016.88 -4.85249 2.03518 0
M  V30 10587 O 1015.9 -4.97563 2.76442 0
M  V30 10588 N 1017.1 -5.7152 1.01714 0
M  V30 10589 H 1019.87 -1.86736 2.34414 0
M  V30 10590 H 1017.43 -0.890863 1.35186 0
M  V30 10591 H 1019.42 -3.94578 0.899464 0
M  V30 10592 H 1017.99 -3.11718 0.234624 0
M  V30 10593 H 1017.21 -2.8651 2.70751 0
M  V30 10594 H 1018.5 -4.00344 3.1401 0
M  V30 10595 H 1017.9 -5.64188 0.413307 0
M  V30 10596 H 1016.46 -6.46119 0.858696 0
M  V30 10597 N 1019.89 -1.26353 -0.941956 0
M  V30 10598 C 1020.82 -1.10341 -2.05784 0
M  V30 10599 C 1021.8 -0.00881565 -1.70098 0
M  V30 10600 O 1022.99 -0.180699 -1.93357 0
M  V30 10601 C 1020.12 -0.734788 -3.39438 0
M  V30 10602 C 1019.07 -1.78103 -3.89183 0
M  V30 10603 C 1018.4 -1.26675 -5.19478 0
M  V30 10604 C 1019.7 -3.1824 -4.14151 0
M  V30 10605 H 1021.39 -2.03684 -2.19438 0
M  V30 10606 H 1018.94 -0.980698 -1.05443 0
M  V30 10607 H 1020.89 -0.609653 -4.16967 0
M  V30 10608 H 1019.61 0.234354 -3.25758 0
M  V30 10609 H 1018.27 -1.89482 -3.13835 0
M  V30 10610 H 1017.92 -0.287472 -5.02178 0
M  V30 10611 H 1017.62 -1.96612 -5.53731 0
M  V30 10612 H 1019.14 -1.15427 -5.99591 0
M  V30 10613 H 1020.56 -3.09942 -4.82296 0
M  V30 10614 H 1018.95 -3.8576 -4.59684 0
M  V30 10615 H 1020.02 -3.64354 -3.19959 0
M  V30 10616 N 1021.37 1.14642 -1.08144 0
M  V30 10617 C 1022.3 2.21775 -0.730609 0
M  V30 10618 C 1023.28 1.67683 0.285702 0
M  V30 10619 O 1024.46 1.93567 0.156667 0
M  V30 10620 C 1021.59 3.47033 -0.136242 0
M  V30 10621 C 1020.55 4.14134 -1.0806 0
M  V30 10622 C 1019.87 5.33563 -0.348585 0
M  V30 10623 C 1021.17 4.62978 -2.41761 0
M  V30 10624 H 1022.87 2.51378 -1.62633 0
M  V30 10625 H 1020.41 1.20825 -0.783411 0
M  V30 10626 H 1022.37 4.21226 0.121182 0
M  V30 10627 H 1021.09 3.16786 0.7946 0
M  V30 10628 H 1019.75 3.41892 -1.32308 0
M  V30 10629 H 1019.4 4.99575 0.585974 0
M  V30 10630 H 1019.1 5.79402 -0.978122 0
M  V30 10631 H 1020.62 6.10519 -0.0991508 0
M  V30 10632 H 1022.04 5.28659 -2.21795 0
M  V30 10633 H 1020.43 5.1951 -3.00383 0
M  V30 10634 H 1021.5 3.78189 -3.03482 0
M  V30 10635 N 1022.85 0.866709 1.31628 0
M  V30 10636 C 1024.09 0.472185 1.96095 0
M  V30 10637 C 1024.41 -0.979873 1.69286 0
M  V30 10638 O 1025.61 -1.48039 2.27589 0
M  V30 10639 C 1024.07 0.793468 3.51044 0
M  V30 10640 C 1023.68 2.26206 3.86697 0
M  V30 10641 C 1025.42 0.467255 4.21921 0
M  V30 10642 C 1023.33 2.52593 5.34743 0
M  V30 10643 H 1022.26 0.172846 0.733921 0
M  V30 10644 H 1024.91 1.05916 1.49847 0
M  V30 10645 H 1023.29 0.135783 3.95767 0
M  V30 10646 H 1024.47 2.96254 3.52945 0
M  V30 10647 H 1022.78 2.55399 3.28877 0
M  V30 10648 H 1025.38 0.641669 5.30836 0
M  V30 10649 H 1025.72 -0.592065 4.12068 0
M  V30 10650 H 1026.25 1.08134 3.82821 0
M  V30 10651 H 1022.99 3.57196 5.49628 0
M  V30 10652 H 1022.51 1.87136 5.6986 0
M  V30 10653 H 1024.19 2.37156 6.01968 0
M  V30 10654 N 1024.32 -1.44642 0.625825 0
M  V30 10655 C 1025.57 -2.02393 0.128391 0
M  V30 10656 C 1025.9 -1.49075 -1.2446 0
M  V30 10657 O 1025.18 -0.672684 -1.82497 0
M  V30 10658 C 1025.46 -3.59934 0.109279 0
M  V30 10659 C 1025.31 -4.23546 1.51423 0
M  V30 10660 C 1026.63 -4.36406 -0.568985 0
M  V30 10661 H 1023.75 -0.735427 0.0481299 0
M  V30 10662 H 1026.39 -1.72277 0.801286 0
M  V30 10663 H 1024.54 -3.85722 -0.463726 0
M  V30 10664 H 1026.22 -4.08882 2.13572 0
M  V30 10665 H 1024.46 -3.81245 2.06966 0
M  V30 10666 H 1025.13 -5.32535 1.45294 0
M  V30 10667 H 1027.61 -4.1602 -0.0817516 0
M  V30 10668 H 1026.48 -5.46122 -0.551527 0
M  V30 10669 H 1026.74 -4.1062 -1.6384 0
M  V30 10670 N 1025.8 -0.366053 -1.5329 0
M  V30 10671 C 1027.05 0.223824 -2.01561 0
M  V30 10672 C 1027.38 1.48382 -1.25286 0
M  V30 10673 O 1026.66 1.91385 -0.34669 0
M  V30 10674 C 1026.94 0.5153 -3.56394 0
M  V30 10675 C 1026.79 -0.758357 -4.43361 0
M  V30 10676 C 1028.11 1.31568 -4.19974 0
M  V30 10677 H 1025.23 0.0798751 -0.732659 0
M  V30 10678 H 1027.87 -0.491038 -1.83545 0
M  V30 10679 H 1026.02 1.12429 -3.71876 0
M  V30 10680 H 1027.69 -1.39584 -4.39675 0
M  V30 10681 H 1025.94 -1.37862 -4.11311 0
M  V30 10682 H 1026.61 -0.509366 -5.49645 0
M  V30 10683 H 1029.08 0.800514 -4.08327 0
M  V30 10684 H 1027.96 1.48837 -5.28336 0
M  V30 10685 H 1028.22 2.32432 -3.76069 0
M  V30 10686 N 1027.28 1.57312 -0.0952337 0
M  V30 10687 C 1028.24 2.12889 0.849161 0
M  V30 10688 C 1029.24 1.05819 1.21075 0
M  V30 10689 O 1030.43 1.31704 1.14016 0
M  V30 10690 C 1027.56 2.6496 2.14498 0
M  V30 10691 H 1028.76 2.97651 0.366566 0
M  V30 10692 H 1026.31 1.55542 0.153762 0
M  V30 10693 H 1027.05 1.83718 2.67242 0
M  V30 10694 H 1026.83 3.43244 1.89542 0
M  V30 10695 H 1028.32 3.07952 2.82056 0
M  V30 10696 N 1028.76 -0.17846 1.56586 0
M  V30 10697 C 1030 -0.892915 1.82753 0
M  V30 10698 C 1030.36 -1.8018 0.674744 0
M  V30 10699 O 1029.65 -1.8875 -0.329219 0
M  V30 10700 C 1029.85 -1.73063 3.12704 0
M  V30 10701 C 1029.67 -0.904341 4.40513 0
M  V30 10702 C 1028.44 -0.582221 5.01935 0
M  V30 10703 C 1030.64 -0.249232 5.13696 0
M  V30 10704 N 1028.62 0.260955 6.13345 0
M  V30 10705 C 1030 0.455417 6.18325 0
M  V30 10706 C 1032.05 -0.166663 4.97621 0
M  V30 10707 C 1030.75 1.23479 7.08622 0
M  V30 10708 C 1032.78 0.599362 5.88355 0
M  V30 10709 C 1032.14 1.2924 6.92442 0
M  V30 10710 H 1028.24 -0.30559 0.719818 0
M  V30 10711 H 1030.82 -0.160405 1.94038 0
M  V30 10712 H 1029 -2.43461 3.02624 0
M  V30 10713 H 1030.73 -2.38584 3.26894 0
M  V30 10714 H 1027.48 -0.910612 4.64763 0
M  V30 10715 H 1027.91 0.672643 6.7365 0
M  V30 10716 H 1032.55 -0.688116 4.17163 0
M  V30 10717 H 1030.27 1.76762 7.88531 0
M  V30 10718 H 1033.85 0.664826 5.77989 0
M  V30 10719 H 1032.73 1.87564 7.61439 0
M  V30 10720 N 1030.24 -1.51135 -0.446768 0
M  V30 10721 C 1031.17 -1.74709 -1.54916 0
M  V30 10722 C 1032.15 -0.596628 -1.59293 0
M  V30 10723 O 1033.33 -0.838356 -1.75172 0
M  V30 10724 C 1030.46 -1.86353 -2.9307 0
M  V30 10725 C 1029.42 -3.01725 -3.03556 0
M  V30 10726 C 1028.74 -2.9854 -4.43597 0
M  V30 10727 C 1030.04 -4.41848 -2.7851 0
M  V30 10728 H 1031.74 -2.67014 -1.3544 0
M  V30 10729 H 1029.28 -1.28489 -0.650131 0
M  V30 10730 H 1031.23 -2.01428 -3.70141 0
M  V30 10731 H 1029.96 -0.906887 -3.13756 0
M  V30 10732 H 1028.62 -2.86339 -2.28922 0
M  V30 10733 H 1028.27 -2.00673 -4.61237 0
M  V30 10734 H 1027.97 -3.76008 -4.51544 0
M  V30 10735 H 1029.49 -3.15696 -5.22655 0
M  V30 10736 H 1030.9 -4.57633 -3.45319 0
M  V30 10737 H 1029.3 -5.2095 -2.97877 0
M  V30 10738 H 1030.37 -4.52536 -1.74182 0
M  V30 10739 N 1031.71 0.701592 -1.41122 0
M  V30 10740 C 1032.96 1.46376 -1.40363 0
M  V30 10741 C 1033.29 1.94197 -0.0105442 0
M  V30 10742 O 1032.57 1.69121 0.960637 0
M  V30 10743 C 1032.85 2.67994 -2.40523 0
M  V30 10744 C 1032.7 2.25977 -3.88914 0
M  V30 10745 C 1034.02 3.70181 -2.38022 0
M  V30 10746 H 1031.14 0.530929 -0.511159 0
M  V30 10747 H 1033.78 0.799588 -1.72356 0
M  V30 10748 H 1031.93 3.24661 -2.13372 0
M  V30 10749 H 1033.61 1.74684 -4.26946 0
M  V30 10750 H 1031.85 1.57826 -4.04071 0
M  V30 10751 H 1032.52 3.13215 -4.54533 0
M  V30 10752 H 1035 3.23174 -2.62103 0
M  V30 10753 H 1033.87 4.52894 -3.10127 0
M  V30 10754 H 1034.13 4.19458 -1.3967 0
M  V30 10755 N 1033.19 1.2685 0.935242 0
M  V30 10756 C 1034.44 1.12912 1.6846 0
M  V30 10757 C 1034.77 -0.325708 1.91449 0
M  V30 10758 O 1034.05 -1.23884 1.49944 0
M  V30 10759 C 1034.33 1.90513 3.05576 0
M  V30 10760 C 1034.18 3.43936 2.89876 0
M  V30 10761 C 1035.5 1.70363 4.05789 0
M  V30 10762 H 1032.62 0.411559 0.611382 0
M  V30 10763 H 1035.26 1.55917 1.08582 0
M  V30 10764 H 1033.41 1.53963 3.5669 0
M  V30 10765 H 1035.08 3.90272 2.45939 0
M  V30 10766 H 1033.33 3.70659 2.25376 0
M  V30 10767 H 1034 3.93467 3.87153 0
M  V30 10768 H 1036.47 2.02217 3.63659 0
M  V30 10769 H 1035.35 2.27066 4.99732 0
M  V30 10770 H 1035.61 0.649674 4.373 0
M  V30 10771 N 1034.67 -1.14067 1.0875 0
M  V30 10772 C 1035.58 -2.22871 0.732498 0
M  V30 10773 C 1036.6 -1.72008 -0.26253 0
M  V30 10774 O 1037.77 -2.01123 -0.105601 0
M  V30 10775 C 1034.84 -3.46371 0.150913 0
M  V30 10776 C 1033.9 -4.12158 1.201 0
M  V30 10777 C 1033.13 -5.29763 0.647075 0
M  V30 10778 O 1033.35 -5.67911 -0.532307 0
M  V30 10779 O 1032.29 -5.8542 1.3988 0
M  V30 10780 H 1036.11 -2.55596 1.64025 0
M  V30 10781 H 1033.7 -1.22065 0.861417 0
M  V30 10782 H 1035.58 -4.21055 -0.170442 0
M  V30 10783 H 1034.26 -3.15362 -0.729948 0
M  V30 10784 H 1033.16 -3.39332 1.57494 0
M  V30 10785 H 1034.5 -4.47282 2.05426 0
M  V30 10786 N 1036.15 -0.873678 -1.31166 0
M  V30 10787 C 1037.11 -0.337069 -2.26708 0
M  V30 10788 C 1038.11 0.51406 -1.52362 0
M  V30 10789 O 1039.3 0.322834 -1.71182 0
M  V30 10790 C 1036.43 0.520897 -3.36897 0
M  V30 10791 H 1037.63 -1.18056 -2.75686 0
M  V30 10792 H 1035.18 -0.649577 -1.42163 0
M  V30 10793 H 1035.91 1.38543 -2.93217 0
M  V30 10794 H 1035.7 -0.0886015 -3.92 0
M  V30 10795 H 1037.19 0.888497 -4.08039 0
M  V30 10796 N 1037.63 1.44308 -0.633487 0
M  V30 10797 C 1039.04 1.85387 -0.221009 0
M  V30 10798 C 1039.39 1.5301 1.22811 0
M  V30 10799 O 1038.51 0.969325 1.93476 0
M  V30 10800 C 1039.11 3.36497 -0.394331 0
M  V30 10801 C 1037.67 3.76382 -0.0363405 0
M  V30 10802 C 1036.81 2.68146 -0.706598 0
M  V30 10803 H 1039.77 1.34741 -0.83849 0
M  V30 10804 H 1039.79 3.78735 0.366026 0
M  V30 10805 H 1039.3 3.60031 -1.44911 0
M  V30 10806 H 1037.4 3.58463 1.01661 0
M  V30 10807 H 1037.51 4.77 -0.448045 0
M  V30 10808 H 1035.88 2.54306 -0.14168 0
M  V30 10809 H 1036.66 2.94512 -1.76401 0
M  V30 10810 N 1039.1 0.374177 1.53094 0
M  V30 10811 C 1040.35 -0.212396 2.00981 0
M  V30 10812 C 1040.67 -1.48576 1.26293 0
M  V30 10813 O 1039.94 -1.92206 0.378642 0
M  V30 10814 H 1038.52 -0.0814763 0.742543 0
M  V30 10815 H 1041.19 0.502389 1.88314 0
M  V30 10816 H 1040.28 -0.433316 3.09077 0
M  V30 10817 N 1040.58 -1.57259 0.103575 0
M  V30 10818 C 1041.81 -1.99 -0.566275 0
M  V30 10819 C 1042.23 -0.982909 -1.61197 0
M  V30 10820 O 1041.58 0.026345 -1.82481 0
M  V30 10821 C 1041.63 -3.40778 -1.20635 0
M  V30 10822 O 1041.35 -4.37632 -0.202472 0
M  V30 10823 C 1042.86 -3.97567 -1.961 0
M  V30 10824 H 1040.08 -0.653751 -0.151164 0
M  V30 10825 H 1042.62 -2.03658 0.185365 0
M  V30 10826 H 1040.77 -3.37107 -1.90886 0
M  V30 10827 H 1041.19 -5.2026 -0.665535 0
M  V30 10828 H 1042.66 -4.98897 -2.36233 0
M  V30 10829 H 1043.14 -3.35853 -2.83018 0
M  V30 10830 H 1043.75 -4.04737 -1.30645 0
M  V30 10831 N 1042.06 0.170153 -1.56679 0
M  V30 10832 C 1043.31 0.884841 -1.817 0
M  V30 10833 C 1043.63 1.82731 -0.680763 0
M  V30 10834 O 1042.9 1.936 0.299294 0
M  V30 10835 H 1041.48 0.329738 -0.670285 0
M  V30 10836 H 1044.14 0.169691 -1.9416 0
M  V30 10837 H 1043.24 1.46104 -2.7579 0
M  V30 10838 N 1043.54 1.5137 0.438746 0
M  V30 10839 C 1044.49 1.72582 1.53245 0
M  V30 10840 C 1045.46 0.567488 1.56105 0
M  V30 10841 O 1046.64 0.80176 1.73137 0
M  V30 10842 C 1043.78 1.85551 2.90972 0
M  V30 10843 C 1042.89 3.13094 2.97652 0
M  V30 10844 C 1042.03 3.16666 4.26493 0
M  V30 10845 C 1041.07 4.38529 4.27035 0
M  V30 10846 N 1040.2 4.39659 5.47398 0
M  V30 10847 H 1045.04 2.65941 1.3446 0
M  V30 10848 H 1042.58 1.31801 0.653206 0
M  V30 10849 H 1044.54 1.91053 3.70884 0
M  V30 10850 H 1043.17 0.956025 3.08318 0
M  V30 10851 H 1042.22 3.16909 2.10412 0
M  V30 10852 H 1043.53 4.03009 2.93914 0
M  V30 10853 H 1042.69 3.21075 5.14777 0
M  V30 10854 H 1041.43 2.24637 4.32885 0
M  V30 10855 H 1040.43 4.34297 3.37144 0
M  V30 10856 H 1041.66 5.31821 4.22307 0
M  V30 10857 H 1039.6 3.50499 5.54514 0
M  V30 10858 H 1039.52 5.23382 5.45534 0
M  V30 10859 H 1040.79 4.48259 6.37718 0
M  V30 10860 N 1045.02 -0.694098 1.41492 0
M  V30 10861 C 1045.93 -1.83778 1.45818 0
M  V30 10862 C 1046.94 -1.70471 0.348639 0
M  V30 10863 O 1048.12 -1.92361 0.596588 0
M  V30 10864 C 1045.18 -3.19771 1.33967 0
M  V30 10865 C 1044.24 -3.45175 2.5525 0
M  V30 10866 C 1043.48 -4.74681 2.43955 0
M  V30 10867 O 1043.7 -5.51268 1.46491 0
M  V30 10868 O 1042.63 -5.00901 3.33739 0
M  V30 10869 H 1046.46 -1.83084 2.42309 0
M  V30 10870 H 1044.05 -0.847349 1.23046 0
M  V30 10871 H 1045.93 -4.00961 1.29648 0
M  V30 10872 H 1044.6 -3.21145 0.405926 0
M  V30 10873 H 1043.51 -2.6391 2.65146 0
M  V30 10874 H 1044.84 -3.48617 3.47458 0
M  V30 10875 N 1046.49 -1.27344 -0.928501 0
M  V30 10876 C 1047.72 -1.16447 -1.7102 0
M  V30 10877 C 1048.14 0.278799 -1.8673 0
M  V30 10878 O 1047.49 1.18989 -1.38376 0
M  V30 10879 C 1047.55 -1.84242 -3.11026 0
M  V30 10880 O 1047.27 -3.2293 -2.96054 0
M  V30 10881 C 1048.77 -1.7946 -4.05351 0
M  V30 10882 H 1045.99 -0.404898 -0.535069 0
M  V30 10883 H 1048.53 -1.68201 -1.16313 0
M  V30 10884 H 1046.69 -1.36395 -3.62595 0
M  V30 10885 H 1047.1 -3.5667 -3.8456 0
M  V30 10886 H 1048.57 -2.31511 -5.01105 0
M  V30 10887 H 1049.05 -0.763771 -4.32508 0
M  V30 10888 H 1049.66 -2.26918 -3.59706 0
M  V30 10889 N 1047.97 1.13488 -1.09353 0
M  V30 10890 C 1048.94 2.17066 -0.735863 0
M  V30 10891 C 1049.94 1.59086 0.234181 0
M  V30 10892 O 1051.13 1.74196 0.012463 0
M  V30 10893 C 1048.26 3.40786 -0.0880975 0
M  V30 10894 H 1049.45 2.50221 -1.65316 0
M  V30 10895 H 1047 1.28304 -0.89263 0
M  V30 10896 H 1047.74 3.1322 0.840462 0
M  V30 10897 H 1047.52 3.8414 -0.786073 0
M  V30 10898 H 1049.01 4.17342 0.146775 0
M  V30 10899 N 1049.45 0.880621 1.30701 0
M  V30 10900 C 1050.86 0.547993 1.78477 0
M  V30 10901 C 1051.21 -0.935633 1.72454 0
M  V30 10902 O 1050.34 -1.73094 1.29874 0
M  V30 10903 C 1050.93 0.98795 3.24076 0
M  V30 10904 C 1049.49 0.706805 3.69704 0
M  V30 10905 C 1048.64 1.17335 2.51252 0
M  V30 10906 H 1051.59 1.06528 1.17633 0
M  V30 10907 H 1051.61 0.31508 3.79193 0
M  V30 10908 H 1051.12 2.06778 3.28427 0
M  V30 10909 H 1049.22 -0.36122 3.70845 0
M  V30 10910 H 1049.34 1.2913 4.6137 0
M  V30 10911 H 1047.7 0.592808 2.47705 0
M  V30 10912 H 1048.48 2.26083 2.58343 0
M  V30 10913 N 1050.93 -1.4397 0.641131 0
M  V30 10914 C 1051.84 -2.34526 -0.058742 0
M  V30 10915 C 1052.86 -1.53194 -0.825088 0
M  V30 10916 O 1054.03 -1.85888 -0.775081 0
M  V30 10917 C 1051.1 -3.31313 -1.02139 0
M  V30 10918 C 1050.16 -4.28552 -0.253319 0
M  V30 10919 C 1049.39 -5.20715 -1.17012 0
M  V30 10920 O 1049.61 -5.17028 -2.40911 0
M  V30 10921 O 1048.55 -5.9839 -0.649039 0
M  V30 10922 H 1052.37 -2.95843 0.686329 0
M  V30 10923 H 1049.96 -1.43909 0.401316 0
M  V30 10924 H 1051.84 -3.90862 -1.57496 0
M  V30 10925 H 1050.52 -2.72516 -1.7469 0
M  V30 10926 H 1049.42 -3.72519 0.343531 0
M  V30 10927 H 1050.76 -4.90297 0.432372 0
M  V30 10928 N 1052.41 -0.382291 -1.52893 0
M  V30 10929 C 1053.82 -0.031941 -1.59568 0
M  V30 10930 C 1054.02 1.45245 -1.39664 0
M  V30 10931 O 1053.08 2.21612 -1.21013 0
M  V30 10932 C 1054.39 -0.502846 -2.96466 0
M  V30 10933 C 1055.94 -0.4585 -3.09624 0
M  V30 10934 C 1056.42 -0.905481 -4.4896 0
M  V30 10935 N 1057.91 -0.861211 -4.55124 0
M  V30 10936 C 1058.64 -1.17856 -5.61157 0
M  V30 10937 N 1058.14 -1.56603 -6.74868 0
M  V30 10938 N 1059.93 -1.10027 -5.51226 0
M  V30 10939 H 1052.08 -1.34875 -1.64081 0
M  V30 10940 H 1054.34 -0.552375 -0.770446 0
M  V30 10941 H 1054.05 -1.53931 -3.16225 0
M  V30 10942 H 1053.92 0.101777 -3.77063 0
M  V30 10943 H 1056.31 0.568868 -2.89565 0
M  V30 10944 H 1056.39 -1.09884 -2.30996 0
M  V30 10945 H 1056.04 -1.93105 -4.69759 0
M  V30 10946 H 1055.97 -0.242227 -5.26043 0
M  V30 10947 H 1058.46 -0.575988 -3.73485 0
M  V30 10948 H 1058.77 -1.792 -7.51736 0
M  V30 10949 H 1057.12 -1.60484 -6.76217 0
M  V30 10950 H 1060.31 -0.796623 -4.61272 0
M  V30 10951 H 1060.48 -1.35091 -6.33762 0
M  V30 10952 N 1053.89 1.57202 -0.111913 0
M  V30 10953 C 1055.3 1.57713 0.244702 0
M  V30 10954 C 1055.5 1.12419 1.67225 0
M  V30 10955 O 1054.56 0.808329 2.39212 0
M  V30 10956 C 1055.87 3.00695 0.0178289 0
M  V30 10957 C 1057.42 3.12887 0.0842781 0
M  V30 10958 C 1057.89 4.57856 -0.114812 0
M  V30 10959 N 1059.38 4.6316 -0.0605423 0
M  V30 10960 C 1060.12 5.73086 -0.189594 0
M  V30 10961 N 1059.62 6.91787 -0.37442 0
M  V30 10962 N 1061.41 5.6195 -0.12967 0
M  V30 10963 H 1053.56 1.84947 -1.04443 0
M  V30 10964 H 1055.82 0.854418 -0.4107 0
M  V30 10965 H 1055.53 3.38093 -0.968802 0
M  V30 10966 H 1055.4 3.69611 0.752815 0
M  V30 10967 H 1057.79 2.7535 1.06143 0
M  V30 10968 H 1057.87 2.46528 -0.682474 0
M  V30 10969 H 1057.51 4.9609 -1.0889 0
M  V30 10970 H 1057.44 5.22297 0.671839 0
M  V30 10971 H 1059.94 3.77817 0.0790856 0
M  V30 10972 H 1060.25 7.71406 -0.463948 0
M  V30 10973 H 1058.59 6.93788 -0.410303 0
M  V30 10974 H 1061.78 4.68098 0.0137115 0
M  V30 10975 H 1061.96 6.47578 -0.233688 0
M  V30 10976 N 1055.36 -0.161842 1.56767 0
M  V30 10977 C 1056.27 -1.21996 2.00385 0
M  V30 10978 C 1057.29 -1.4789 0.916768 0
M  V30 10979 O 1058.47 -1.59852 1.22513 0
M  V30 10980 C 1055.53 -2.53695 2.36305 0
M  V30 10981 C 1054.59 -2.3558 3.58888 0
M  V30 10982 C 1053.82 -3.60998 3.93085 0
M  V30 10983 O 1054.05 -4.6657 3.28129 0
M  V30 10984 O 1052.98 -3.54544 4.86397 0
M  V30 10985 H 1056.81 -0.879701 2.9068 0
M  V30 10986 H 1054.39 -0.369437 1.4476 0
M  V30 10987 H 1056.27 -3.31366 2.60335 0
M  V30 10988 H 1054.95 -2.87281 1.49169 0
M  V30 10989 H 1053.86 -1.55908 3.40064 0
M  V30 10990 H 1055.19 -2.06915 4.46595 0
M  V30 10991 N 1056.84 -1.516 -0.430713 0
M  V30 10992 C 1058.09 -1.6484 -1.18134 0
M  V30 10993 C 1058.42 -0.366725 -1.90706 0
M  V30 10994 O 1057.7 0.63398 -1.83878 0
M  V30 10995 C 1057.98 -2.85617 -2.19306 0
M  V30 10996 C 1057.83 -4.23778 -1.50773 0
M  V30 10997 C 1059.15 -3.01909 -3.20217 0
M  V30 10998 H 1056.27 -0.599907 -0.428113 0
M  V30 10999 H 1058.91 -1.84102 -0.46973 0
M  V30 11000 H 1057.06 -2.69325 -2.79993 0
M  V30 11001 H 1058.73 -4.51752 -0.93371 0
M  V30 11002 H 1056.98 -4.26171 -0.809966 0
M  V30 11003 H 1057.65 -5.04291 -2.24487 0
M  V30 11004 H 1060.12 -3.16956 -2.69589 0
M  V30 11005 H 1059 -3.87968 -3.88293 0
M  V30 11006 H 1059.26 -2.1427 -3.86705 0
M  V30 11007 N 1058.32 0.686584 -1.41858 0
M  V30 11008 C 1059.57 1.44879 -1.41908 0
M  V30 11009 C 1059.9 1.94175 -0.0311408 0
M  V30 11010 O 1059.17 1.70131 0.942646 0
M  V30 11011 C 1059.46 2.65428 -2.43352 0
M  V30 11012 C 1059.31 2.2184 -3.91289 0
M  V30 11013 C 1060.63 3.67635 -2.41934 0
M  V30 11014 H 1057.75 0.525477 -0.516762 0
M  V30 11015 H 1060.39 0.781263 -1.73194 0
M  V30 11016 H 1058.54 3.2238 -2.16803 0
M  V30 11017 H 1060.21 1.70146 -4.28775 0
M  V30 11018 H 1058.45 1.53531 -4.05722 0
M  V30 11019 H 1059.13 3.08376 -4.5783 0
M  V30 11020 H 1061.6 3.20376 -2.65516 0
M  V30 11021 H 1060.48 4.49579 -3.14913 0
M  V30 11022 H 1060.74 4.17953 -1.44111 0
M  V30 11023 N 1059.8 1.27835 0.921735 0
M  V30 11024 C 1061.03 1.17352 1.704 0
M  V30 11025 C 1061.44 -0.268892 1.86875 0
M  V30 11026 O 1060.8 -1.18253 1.39005 0
M  V30 11027 C 1060.85 1.85889 3.10045 0
M  V30 11028 O 1060.57 3.24495 2.94338 0
M  V30 11029 C 1062.07 1.81607 4.04393 0
M  V30 11030 H 1059.29 0.40773 0.532914 0
M  V30 11031 H 1061.83 1.68815 1.15419 0
M  V30 11032 H 1059.99 1.38316 3.61867 0
M  V30 11033 H 1060.4 3.58705 3.82663 0
M  V30 11034 H 1061.88 2.34165 4.99871 0
M  V30 11035 H 1062.35 0.786697 4.32097 0
M  V30 11036 H 1062.96 2.28822 3.58498 0
M  V30 11037 N 1061.28 -1.12907 1.09954 0
M  V30 11038 C 1062.21 -2.20585 0.765799 0
M  V30 11039 C 1063.19 -1.68117 -0.258989 0
M  V30 11040 O 1064.37 -1.93792 -0.125853 0
M  V30 11041 C 1061.5 -3.46772 0.191435 0
M  V30 11042 C 1060.46 -4.12363 1.14635 0
M  V30 11043 C 1059.78 -5.3294 0.433426 0
M  V30 11044 C 1061.08 -4.59073 2.49096 0
M  V30 11045 H 1062.78 -2.48759 1.66612 0
M  V30 11046 H 1060.32 -1.19563 0.802534 0
M  V30 11047 H 1062.27 -4.21365 -0.0541535 0
M  V30 11048 H 1061 -3.18011 -0.744101 0
M  V30 11049 H 1059.66 -3.39744 1.37731 0
M  V30 11050 H 1059.31 -5.00444 -0.506422 0
M  V30 11051 H 1059.01 -5.77772 1.07018 0
M  V30 11052 H 1060.53 -6.10284 0.196267 0
M  V30 11053 H 1061.94 -5.25063 2.30177 0
M  V30 11054 H 1060.34 -5.14665 3.0861 0
M  V30 11055 H 1061.41 -3.73313 3.0946 0
M  V30 11056 N 1062.75 -0.88754 -1.30232 0
M  V30 11057 C 1064.17 -0.581904 -1.48614 0
M  V30 11058 C 1064.37 0.879711 -1.81282 0
M  V30 11059 O 1063.43 1.66076 -1.90198 0
M  V30 11060 C 1064.74 -1.49726 -2.60773 0
M  V30 11061 C 1066.29 -1.50117 -2.74653 0
M  V30 11062 C 1066.76 -2.40251 -3.89927 0
M  V30 11063 N 1068.25 -2.38229 -3.97242 0
M  V30 11064 C 1068.99 -3.04682 -4.85754 0
M  V30 11065 N 1068.48 -3.80369 -5.79043 0
M  V30 11066 N 1070.28 -2.93901 -4.79144 0
M  V30 11067 H 1062.43 -1.83304 -1.073 0
M  V30 11068 H 1064.69 -0.78477 -0.531826 0
M  V30 11069 H 1064.4 -2.5381 -2.43462 0
M  V30 11070 H 1064.27 -1.20874 -3.57308 0
M  V30 11071 H 1066.66 -0.467832 -2.91368 0
M  V30 11072 H 1066.74 -1.83001 -1.7873 0
M  V30 11073 H 1066.38 -3.43671 -3.73969 0
M  V30 11074 H 1066.31 -2.04682 -4.85194 0
M  V30 11075 H 1068.8 -1.83229 -3.30508 0
M  V30 11076 H 1069.12 -4.28159 -6.4335 0
M  V30 11077 H 1067.46 -3.84477 -5.78967 0
M  V30 11078 H 1070.65 -2.34296 -4.05245 0
M  V30 11079 H 1070.83 -3.45967 -5.47915 0
M  V30 11080 N 1064.23 1.43628 -0.648757 0
M  V30 11081 C 1065.47 2.03742 -0.163878 0
M  V30 11082 C 1065.84 1.50047 1.19791 0
M  V30 11083 O 1067.04 2.01777 1.77594 0
M  V30 11084 C 1065.31 3.57001 -0.168849 0
M  V30 11085 S 1066.87 4.38094 0.248835 0
M  V30 11086 H 1063.69 0.70757 -0.0697515 0
M  V30 11087 H 1066.29 1.75759 -0.856094 0
M  V30 11088 H 1064.99 3.93583 -1.16277 0
M  V30 11089 H 1064.52 3.8962 0.544048 0
M  V30 11090 H 1066.54 4.73338 1.48882 0
M  V30 11091 N 1065.71 0.390394 1.52688 0
M  V30 11092 C 1066.66 -0.4591 2.28024 0
M  V30 11093 C 1067.65 -1.06212 1.31967 0
M  V30 11094 O 1068.86 -1.00247 1.49501 0
M  V30 11095 H 1065.23 -0.16681 0.733266 0
M  V30 11096 H 1067.2 0.197747 2.97744 0
M  V30 11097 C 1065.95 -1.5737 3.10048 0
M  V30 11098 H 1065.28 -1.11901 3.83821 0
M  V30 11099 H 1066.72 -2.1423 3.65898 0
M  V30 11100 C 1065.18 -2.53036 2.22429 0
M  V30 11101 O 1065.71 -3.5647 1.85181 0
M  V30 11102 N 1063.91 -2.22802 1.86567 0
M  V30 11103 H 1063.46 -1.38723 2.17057 0
M  V30 11104 H 1063.42 -2.87061 1.28233 0
M  V30 11105 N 1067.19 -1.57141 0.120249 0
M  V30 11106 C 1068.14 -2.11936 -0.84067 0
M  V30 11107 C 1069.12 -1.04044 -1.22734 0
M  V30 11108 O 1070.31 -1.30275 -1.19822 0
M  V30 11109 C 1067.44 -2.72332 -2.09023 0
M  V30 11110 C 1066.53 -3.87306 -1.72786 0
M  V30 11111 N 1066.92 -4.94302 -1.07232 0
M  V30 11112 C 1065.22 -3.97513 -2.02236 0
M  V30 11113 C 1065.92 -5.7467 -0.901626 0
M  V30 11114 N 1064.9 -5.24535 -1.42702 0
M  V30 11115 H 1068.7 -2.92038 -0.330308 0
M  V30 11116 H 1066.21 -1.62192 -0.0821814 0
M  V30 11117 H 1068.21 -3.09932 -2.78833 0
M  V30 11118 H 1066.87 -1.93693 -2.60601 0
M  V30 11119 H 1067.88 -5.12641 -0.736158 0
M  V30 11120 H 1064.56 -3.29917 -2.55853 0
M  V30 11121 H 1065.95 -6.70785 -0.386974 0
M  V30 11122 N 1068.67 0.153526 -1.5685 0
M  V30 11123 C 1070.08 0.505939 -1.51368 0
M  V30 11124 C 1070.28 1.83721 -0.82757 0
M  V30 11125 O 1069.34 2.49385 -0.395364 0
M  V30 11126 C 1070.65 0.522269 -2.9613 0
M  V30 11127 C 1072.2 0.608238 -3.07033 0
M  V30 11128 C 1072.67 0.655292 -4.53288 0
M  V30 11129 N 1074.17 0.717695 -4.57606 0
M  V30 11130 C 1074.9 0.774977 -5.68139 0
M  V30 11131 N 1074.4 0.792003 -6.88258 0
M  V30 11132 N 1076.19 0.81536 -5.56155 0
M  V30 11133 H 1068.34 -0.71919 -1.99853 0
M  V30 11134 H 1070.6 -0.261466 -0.91123 0
M  V30 11135 H 1070.31 -0.387595 -3.49558 0
M  V30 11136 H 1070.18 1.3625 -3.51733 0
M  V30 11137 H 1072.57 1.50852 -2.53629 0
M  V30 11138 H 1072.65 -0.259014 -2.54485 0
M  V30 11139 H 1072.3 -0.240809 -5.07329 0
M  V30 11140 H 1072.23 1.53894 -5.03611 0
M  V30 11141 H 1074.72 0.7121 -3.7113 0
M  V30 11142 H 1075.03 0.837378 -7.6825 0
M  V30 11143 H 1073.37 0.759986 -6.90832 0
M  V30 11144 H 1076.57 0.799183 -4.61227 0
M  V30 11145 H 1076.74 0.856537 -6.42314 0
M  V30 11146 N 1070.14 1.51827 0.422667 0
M  V30 11147 C 1071.42 1.55772 1.18299 0
M  V30 11148 C 1071.8 0.330657 2.08494 0
M  V30 11149 O 1071.15 -0.683373 2.18042 0
M  V30 11150 C 1071.36 2.87941 1.97208 0
M  V30 11151 C 1072.71 3.4044 2.53744 0
M  V30 11152 O 1073.73 2.8959 2.07403 0
M  V30 11153 O 1072.59 4.29201 3.38303 0
M  V30 11154 H 1069.68 0.626889 0.539388 0
M  V30 11155 H 1072.23 1.64147 0.430545 0
M  V30 11156 H 1071 3.68702 1.31052 0
M  V30 11157 H 1070.63 2.82795 2.79486 0
M  V30 11158 N 1071.62 -0.679052 1.4222 0
M  V30 11159 C 1072.59 -1.77448 1.45069 0
M  V30 11160 C 1073.59 -1.57189 0.338882 0
M  V30 11161 O 1074.78 -1.63559 0.599519 0
M  V30 11162 C 1071.91 -3.1603 1.27819 0
M  V30 11163 H 1073.1 -1.7631 2.426 0
M  V30 11164 H 1070.65 -0.888277 1.28605 0
M  V30 11165 H 1071.39 -3.22796 0.311946 0
M  V30 11166 H 1071.17 -3.32138 2.08391 0
M  V30 11167 H 1072.66 -3.9596 1.32686 0
M  V30 11168 N 1073.1 -1.28322 -0.914942 0
M  V30 11169 C 1074.33 -1.1837 -1.70304 0
M  V30 11170 C 1074.75 0.254291 -1.86373 0
M  V30 11171 O 1074.11 1.18398 -1.37301 0
M  V30 11172 C 1074.16 -1.88603 -3.07346 0
M  V30 11173 O 1073.26 -1.19268 -3.94777 0
M  V30 11174 H 1072.6 -0.410978 -0.52153 0
M  V30 11175 H 1075.13 -1.69622 -1.14409 0
M  V30 11176 H 1075.14 -1.96463 -3.57584 0
M  V30 11177 H 1073.82 -2.93201 -2.94967 0
M  V30 11178 H 1072.39 -1.19563 -3.53212 0
M  V30 11179 N 1074.58 1.12322 -1.10551 0
M  V30 11180 C 1075.51 2.17221 -0.699299 0
M  V30 11181 C 1076.49 1.59809 0.299973 0
M  V30 11182 O 1077.67 1.87451 0.198589 0
M  V30 11183 C 1074.8 3.38685 -0.0320136 0
M  V30 11184 C 1073.85 4.14732 -0.99495 0
M  V30 11185 S 1074.68 4.72879 -2.51288 0
M  V30 11186 C 1075.84 5.97676 -1.85834 0
M  V30 11187 H 1076.07 2.51342 -1.5879 0
M  V30 11188 H 1073.6 1.23802 -0.92263 0
M  V30 11189 H 1075.56 4.09034 0.346656 0
M  V30 11190 H 1074.22 3.02842 0.833407 0
M  V30 11191 H 1073.41 5.01754 -0.475331 0
M  V30 11192 H 1073.02 3.50098 -1.31559 0
M  V30 11193 H 1075.31 6.6698 -1.18927 0
M  V30 11194 H 1076.25 6.54266 -2.70817 0
M  V30 11195 H 1076.66 5.48793 -1.32237 0
M  V30 11196 N 1076.06 0.894434 1.2976 0
M  V30 11197 C 1076.99 0.3847 2.30309 0
M  V30 11198 C 1077.97 -0.537486 1.61385 0
M  V30 11199 O 1079.15 -0.449332 1.8893 0
M  V30 11200 C 1076.28 -0.393311 3.45066 0
M  V30 11201 C 1075.24 0.437968 4.25753 0
M  V30 11202 C 1074.56 -0.467221 5.32655 0
M  V30 11203 C 1075.86 1.6851 4.9437 0
M  V30 11204 H 1077.56 1.22496 2.73194 0
M  V30 11205 H 1075.1 0.590471 1.31337 0
M  V30 11206 H 1077.06 -0.760614 4.14479 0
M  V30 11207 H 1075.78 -1.2673 3.0101 0
M  V30 11208 H 1074.44 0.787533 3.58041 0
M  V30 11209 H 1074.09 -1.33919 4.84845 0
M  V30 11210 H 1073.79 0.0852482 5.87538 0
M  V30 11211 H 1075.31 -0.830833 6.04921 0
M  V30 11212 H 1076.72 1.38784 5.56248 0
M  V30 11213 H 1075.12 2.17849 5.59162 0
M  V30 11214 H 1076.19 2.42412 4.19958 0
M  V30 11215 N 1077.53 -1.43282 0.656365 0
M  V30 11216 C 1078.78 -2.01378 0.170702 0
M  V30 11217 C 1079.1 -1.52063 -1.22073 0
M  V30 11218 O 1078.37 -0.73456 -1.81607 0
M  V30 11219 H 1076.95 -0.744577 0.0601168 0
M  V30 11220 H 1079.62 -1.75449 0.848739 0
M  V30 11221 H 1078.71 -3.11701 0.157745 0
M  V30 11222 N 1079.01 -0.398486 -1.52479 0
M  V30 11223 C 1080.24 0.183059 -2.06591 0
M  V30 11224 C 1080.66 1.3898 -1.26753 0
M  V30 11225 O 1080.02 1.78885 -0.294959 0
M  V30 11226 C 1080.07 0.522392 -3.56796 0
M  V30 11227 O 1079.17 1.61499 -3.79462 0
M  V30 11228 H 1078.51 0.0188411 -0.663733 0
M  V30 11229 H 1081.04 -0.56861 -1.9654 0
M  V30 11230 H 1081.05 0.784078 -4.00395 0
M  V30 11231 H 1079.73 -0.359807 -4.14341 0
M  V30 11232 H 1078.31 1.3463 -3.47749 0
M  V30 11233 N 1080.49 1.57075 -0.12858 0
M  V30 11234 C 1081.42 2.18833 0.814519 0
M  V30 11235 C 1082.4 1.13114 1.2704 0
M  V30 11236 O 1083.59 1.41387 1.33129 0
M  V30 11237 C 1080.72 2.79535 2.06101 0
M  V30 11238 C 1079.67 3.9092 1.74257 0
M  V30 11239 C 1079 4.38473 3.06015 0
M  V30 11240 C 1080.3 5.1257 1.00345 0
M  V30 11241 H 1081.99 2.97895 0.299862 0
M  V30 11242 H 1079.54 1.4329 0.14279 0
M  V30 11243 H 1081.49 3.21401 2.72543 0
M  V30 11244 H 1080.21 1.97777 2.59907 0
M  V30 11245 H 1078.87 3.49645 1.102 0
M  V30 11246 H 1078.52 3.53561 3.57776 0
M  V30 11247 H 1078.22 5.13591 2.85479 0
M  V30 11248 H 1079.75 4.82997 3.7356 0
M  V30 11249 H 1081.16 5.51395 1.56959 0
M  V30 11250 H 1079.56 5.93333 0.898693 0
M  V30 11251 H 1080.63 4.84899 -0.0081335 0
M  V30 11252 N 1081.97 -0.145205 1.5693 0
M  V30 11253 C 1082.93 -1.16316 1.97492 0
M  V30 11254 C 1083.93 -1.35764 0.861668 0
M  V30 11255 O 1085.12 -1.32726 1.12825 0
M  V30 11256 C 1082.25 -2.52311 2.29242 0
M  V30 11257 H 1083.45 -0.815138 2.8861 0
M  V30 11258 H 1081 -0.38861 1.51392 0
M  V30 11259 H 1081.74 -2.92081 1.40922 0
M  V30 11260 H 1081.52 -2.39555 3.10412 0
M  V30 11261 H 1083.01 -3.25624 2.61456 0
M  V30 11262 N 1083.45 -1.52049 -0.414609 0
M  V30 11263 C 1084.68 -1.69433 -1.18221 0
M  V30 11264 C 1085.09 -0.40104 -1.84901 0
M  V30 11265 O 1084.43 0.632342 -1.72474 0
M  V30 11266 C 1084.49 -2.76986 -2.2917 0
M  V30 11267 C 1084.15 -4.18903 -1.82671 0
M  V30 11268 C 1085.15 -5.02929 -1.31751 0
M  V30 11269 C 1082.84 -4.65113 -1.89672 0
M  V30 11270 C 1084.83 -6.31234 -0.884461 0
M  V30 11271 C 1082.52 -5.93408 -1.45978 0
M  V30 11272 C 1083.52 -6.76297 -0.9545 0
M  V30 11273 O 1083.2 -8.02191 -0.523852 0
M  V30 11274 H 1082.94 -0.571228 -0.36149 0
M  V30 11275 H 1085.49 -1.99355 -0.494643 0
M  V30 11276 H 1083.72 -2.42428 -3.01273 0
M  V30 11277 H 1085.41 -2.83023 -2.90951 0
M  V30 11278 H 1086.17 -4.68422 -1.2572 0
M  V30 11279 H 1082.05 -4.00702 -2.27945 0
M  V30 11280 H 1085.6 -6.95881 -0.489383 0
M  V30 11281 H 1081.49 -6.27424 -1.51687 0
M  V30 11282 H 1082.26 -8.15934 -0.647656 0
M  V30 11283 N 1084.93 0.6715 -1.42579 0
M  V30 11284 C 1085.87 1.80623 -1.46554 0
M  V30 11285 C 1086.87 1.65934 -0.340932 0
M  V30 11286 O 1088.07 1.72502 -0.514098 0
M  V30 11287 H 1084.45 0.595619 -0.459067 0
M  V30 11288 H 1086.42 1.74388 -2.42139 0
M  V30 11289 C 1085.17 3.18794 -1.38801 0
M  V30 11290 H 1084.49 3.30725 -2.24635 0
M  V30 11291 H 1085.93 3.98201 -1.45645 0
M  V30 11292 C 1084.39 3.36742 -0.103219 0
M  V30 11293 O 1084.92 3.92761 0.842715 0
M  V30 11294 N 1083.13 2.90594 -0.0193034 0
M  V30 11295 H 1082.67 2.45192 -0.78986 0
M  V30 11296 H 1082.63 3.0298 0.839686 0
M  V30 11297 N 1086.4 1.28806 0.908124 0
M  V30 11298 C 1087.65 1.1646 1.66027 0
M  V30 11299 C 1087.98 -0.285025 1.92097 0
M  V30 11300 O 1087.26 -1.20675 1.52538 0
M  V30 11301 C 1087.54 1.96951 3.01467 0
M  V30 11302 C 1087.39 3.50007 2.82515 0
M  V30 11303 C 1088.71 1.78932 4.02084 0
M  V30 11304 H 1085.83 0.424435 0.602515 0
M  V30 11305 H 1088.47 1.58185 1.0525 0
M  V30 11306 H 1086.62 1.61495 3.53344 0
M  V30 11307 H 1088.3 3.95401 2.37605 0
M  V30 11308 H 1086.54 3.75356 2.17463 0
M  V30 11309 H 1087.21 4.01591 3.7872 0
M  V30 11310 H 1089.69 2.09885 3.59287 0
M  V30 11311 H 1088.56 2.37615 4.94803 0
M  V30 11312 H 1088.82 0.742286 4.35824 0
M  V30 11313 N 1087.88 -1.11734 1.11145 0
M  V30 11314 C 1088.81 -2.1976 0.789152 0
M  V30 11315 C 1089.79 -1.68382 -0.241143 0
M  V30 11316 O 1090.98 -1.93914 -0.105292 0
M  V30 11317 C 1088.11 -3.46549 0.228204 0
M  V30 11318 C 1087.06 -4.11123 1.19002 0
M  V30 11319 C 1086.39 -5.32451 0.489928 0
M  V30 11320 C 1087.69 -4.56406 2.53951 0
M  V30 11321 H 1089.38 -2.46978 1.69241 0
M  V30 11322 H 1086.93 -1.18705 0.81517 0
M  V30 11323 H 1088.88 -4.21399 -0.00945908 0
M  V30 11324 H 1087.6 -3.18782 -0.71033 0
M  V30 11325 H 1086.26 -3.38264 1.41326 0
M  V30 11326 H 1085.91 -5.00953 -0.453315 0
M  V30 11327 H 1085.61 -5.76605 1.1314 0
M  V30 11328 H 1087.14 -6.10042 0.260984 0
M  V30 11329 H 1088.55 -5.22592 2.35733 0
M  V30 11330 H 1086.95 -5.11363 3.14051 0
M  V30 11331 H 1088.02 -3.7001 3.13402 0
M  V30 11332 N 1089.36 -0.901303 -1.29284 0
M  V30 11333 C 1090.29 -0.396909 -2.30102 0
M  V30 11334 C 1091.27 0.528919 -1.61668 0
M  V30 11335 O 1092.46 0.439306 -1.89166 0
M  V30 11336 C 1089.59 0.375006 -3.45269 0
M  V30 11337 C 1088.54 -0.46054 -4.25515 0
M  V30 11338 C 1087.87 0.438967 -5.32895 0
M  V30 11339 C 1089.17 -1.7113 -4.93469 0
M  V30 11340 H 1090.86 -1.23943 -2.72541 0
M  V30 11341 H 1088.41 -0.597428 -1.31022 0
M  V30 11342 H 1090.36 0.738622 -4.14876 0
M  V30 11343 H 1089.08 1.25132 -3.01678 0
M  V30 11344 H 1087.74 -0.80651 -3.57618 0
M  V30 11345 H 1087.39 1.31346 -4.85548 0
M  V30 11346 H 1087.09 -0.116406 -5.87485 0
M  V30 11347 H 1088.61 0.79874 -6.05353 0
M  V30 11348 H 1090.03 -1.41732 -5.55504 0
M  V30 11349 H 1088.42 -2.20811 -5.57999 0
M  V30 11350 H 1089.49 -2.44636 -4.18666 0
M  V30 11351 N 1090.84 1.42931 -0.663954 0
M  V30 11352 C 1092.09 2.00904 -0.179011 0
M  V30 11353 C 1092.4 1.53056 1.21791 0
M  V30 11354 O 1093.61 2.03374 1.79865 0
M  V30 11355 C 1092.06 3.58892 -0.269198 0
M  V30 11356 C 1091.67 4.15731 -1.66949 0
M  V30 11357 C 1093.41 4.24207 0.157589 0
M  V30 11358 C 1091.32 5.66047 -1.71303 0
M  V30 11359 H 1090.25 0.75135 -0.0631623 0
M  V30 11360 H 1092.9 1.6378 -0.827556 0
M  V30 11361 H 1091.28 3.93469 0.447048 0
M  V30 11362 H 1092.46 3.92634 -2.41195 0
M  V30 11363 H 1090.77 3.62826 -2.04318 0
M  V30 11364 H 1093.37 5.34503 0.145057 0
M  V30 11365 H 1093.71 3.98901 1.19095 0
M  V30 11366 H 1094.25 3.94552 -0.507274 0
M  V30 11367 H 1090.98 5.96136 -2.72584 0
M  V30 11368 H 1090.5 5.91167 -1.01398 0
M  V30 11369 H 1092.18 6.30275 -1.46158 0
M  V30 11370 N 1092.32 0.406567 1.52266 0
M  V30 11371 C 1093.28 -0.408251 2.25535 0
M  V30 11372 C 1094.28 -0.975795 1.27808 0
M  V30 11373 O 1095.47 -0.855077 1.5177 0
M  V30 11374 C 1092.6 -1.57443 3.02365 0
M  V30 11375 H 1093.79 0.233459 2.9899 0
M  V30 11376 H 1091.35 0.159032 1.55489 0
M  V30 11377 H 1092.08 -2.25308 2.33252 0
M  V30 11378 H 1091.87 -1.17399 3.74112 0
M  V30 11379 H 1093.36 -2.15088 3.57948 0
M  V30 11380 N 1093.79 -1.57004 0.136909 0
M  V30 11381 C 1094.72 -2.19262 -0.802902 0
M  V30 11382 C 1095.71 -1.13786 -1.26439 0
M  V30 11383 O 1096.89 -1.42091 -1.32377 0
M  V30 11384 C 1094.02 -2.80624 -2.04615 0
M  V30 11385 C 1092.97 -3.91839 -1.72181 0
M  V30 11386 C 1092.3 -4.4009 -3.03686 0
M  V30 11387 C 1093.6 -5.13095 -0.976249 0
M  V30 11388 H 1095.29 -2.98049 -0.28406 0
M  V30 11389 H 1092.84 -1.43364 -0.135189 0
M  V30 11390 H 1094.79 -3.22842 -2.70834 0
M  V30 11391 H 1093.52 -1.99153 -2.58855 0
M  V30 11392 H 1092.18 -3.50224 -1.08344 0
M  V30 11393 H 1091.82 -3.55454 -3.55896 0
M  V30 11394 H 1091.52 -5.15098 -2.82751 0
M  V30 11395 H 1093.05 -4.84971 -3.70993 0
M  V30 11396 H 1094.46 -5.5222 -1.54033 0
M  V30 11397 H 1092.86 -5.93801 -0.867214 0
M  V30 11398 H 1093.93 -4.84888 0.0338488 0
M  V30 11399 N 1095.27 0.136881 -1.57004 0
M  V30 11400 C 1096.51 0.853873 -1.8571 0
M  V30 11401 C 1096.88 1.77885 -0.722556 0
M  V30 11402 O 1098.08 2.53606 -0.89092 0
M  V30 11403 C 1096.35 1.59935 -3.19618 0
M  V30 11404 S 1097.91 2.36038 -3.69908 0
M  V30 11405 H 1094.73 0.285342 -0.65123 0
M  V30 11406 H 1097.33 0.113254 -1.95172 0
M  V30 11407 H 1096.03 0.91148 -4.0015 0
M  V30 11408 H 1095.56 2.38069 -3.13188 0
M  V30 11409 H 1097.58 3.61425 -3.3998 0
M  V30 11410 N 1096.75 1.52266 0.40654 0
M  V30 11411 C 1097.98 1.70304 1.17491 0
M  V30 11412 C 1098.39 0.413656 1.84213 0
M  V30 11413 O 1097.75 -0.610524 1.71985 0
M  V30 11414 C 1097.8 2.84045 2.23609 0
M  V30 11415 O 1097.52 4.0799 1.5961 0
M  V30 11416 C 1099.02 3.13614 3.13306 0
M  V30 11417 H 1096.24 0.570669 0.352955 0
M  V30 11418 H 1098.79 1.98836 0.477967 0
M  V30 11419 H 1096.94 2.58025 2.88967 0
M  V30 11420 H 1097.36 4.7139 2.29983 0
M  V30 11421 H 1098.83 3.96707 3.83833 0
M  V30 11422 H 1099.31 2.27272 3.75824 0
M  V30 11423 H 1099.91 3.41409 2.53614 0
M  V30 11424 N 1098.23 -0.663929 1.42933 0
M  V30 11425 C 1099.16 -1.78899 1.50058 0
M  V30 11426 C 1100.14 -1.66329 0.356164 0
M  V30 11427 O 1101.32 -1.85587 0.571944 0
M  V30 11428 C 1098.45 -3.17265 1.41281 0
M  V30 11429 C 1097.41 -3.44584 2.53861 0
M  V30 11430 C 1096.73 -4.82638 2.3014 0
M  V30 11431 C 1098.03 -3.40394 3.96143 0
M  V30 11432 H 1099.73 -1.73194 2.44222 0
M  V30 11433 H 1097.27 -0.83182 1.17545 0
M  V30 11434 H 1099.23 -3.95715 1.44872 0
M  V30 11435 H 1097.95 -3.23675 0.43616 0
M  V30 11436 H 1096.61 -2.685 2.49606 0
M  V30 11437 H 1096.26 -4.85711 1.30743 0
M  V30 11438 H 1095.96 -5.01879 3.056 0
M  V30 11439 H 1097.48 -5.63359 2.35497 0
M  V30 11440 H 1098.9 -4.08796 4.01943 0
M  V30 11441 H 1097.29 -3.7117 4.71543 0
M  V30 11442 H 1098.36 -2.38767 4.22041 0
M  V30 11443 N 1099.71 -1.29285 -0.901281 0
M  V30 11444 C 1100.94 -1.19874 -1.68267 0
M  V30 11445 C 1101.34 0.243387 -1.87628 0
M  V30 11446 O 1100.69 1.17497 -1.41209 0
M  V30 11447 C 1100.75 -1.83907 -3.08899 0
M  V30 11448 C 1100.41 -3.33198 -3.12775 0
M  V30 11449 C 1101.41 -4.29446 -2.9304 0
M  V30 11450 C 1099.1 -3.7437 -3.34892 0
M  V30 11451 C 1101.09 -5.64842 -2.95352 0
M  V30 11452 C 1098.78 -5.09888 -3.36834 0
M  V30 11453 C 1099.77 -6.04934 -3.17087 0
M  V30 11454 O 1099.46 -7.37979 -3.18815 0
M  V30 11455 H 1099.19 -0.416601 -0.532372 0
M  V30 11456 H 1101.75 -1.71154 -1.13558 0
M  V30 11457 H 1099.98 -1.27136 -3.65203 0
M  V30 11458 H 1101.67 -1.6884 -3.69118 0
M  V30 11459 H 1102.43 -3.9897 -2.75767 0
M  V30 11460 H 1098.31 -3.00846 -3.49303 0
M  V30 11461 H 1101.86 -6.39004 -2.79856 0
M  V30 11462 H 1097.75 -5.40009 -3.53638 0
M  V30 11463 H 1098.52 -7.46763 -3.35092 0
M  V30 11464 N 1101.18 1.11143 -1.11736 0
M  V30 11465 C 1102.15 2.15456 -0.78174 0
M  V30 11466 C 1103.15 1.59547 0.200383 0
M  V30 11467 O 1104.34 1.74183 -0.0244893 0
M  V30 11468 C 1101.47 3.40523 -0.160364 0
M  V30 11469 H 1102.66 2.46658 -1.70586 0
M  V30 11470 H 1100.22 1.26381 -0.919644 0
M  V30 11471 H 1100.95 3.14932 0.773835 0
M  V30 11472 H 1100.74 3.82386 -0.867378 0
M  V30 11473 H 1102.23 4.17559 0.0582175 0
M  V30 11474 N 1102.66 0.908147 1.28804 0
M  V30 11475 C 1103.91 0.538404 1.95211 0
M  V30 11476 C 1104.24 -0.916886 1.71533 0
M  V30 11477 O 1103.49 -1.66643 1.02609 0
M  V30 11478 C 1103.79 0.787327 3.4862 0
M  V30 11479 C 1103.46 2.22129 3.92389 0
M  V30 11480 C 1102.12 2.61336 4.04051 0
M  V30 11481 C 1104.47 3.15471 4.14883 0
M  V30 11482 C 1101.8 3.93048 4.3558 0
M  V30 11483 C 1104.15 4.46741 4.47889 0
M  V30 11484 C 1102.82 4.85809 4.57761 0
M  V30 11485 H 1102.09 0.197016 0.714329 0
M  V30 11486 H 1104.73 1.14841 1.53244 0
M  V30 11487 H 1103.04 0.0944731 3.91686 0
M  V30 11488 H 1104.73 0.480503 3.98111 0
M  V30 11489 H 1101.32 1.90704 3.83836 0
M  V30 11490 H 1105.51 2.86391 4.05332 0
M  V30 11491 H 1100.76 4.23027 4.41428 0
M  V30 11492 H 1104.94 5.19087 4.64243 0
M  V30 11493 H 1102.57 5.87904 4.81947 0
M  V30 11494 N 1104.14 -1.42577 0.671525 0
M  V30 11495 C 1105.09 -2.30798 -0.00883676 0
M  V30 11496 C 1106.06 -1.4578 -0.796076 0
M  V30 11497 O 1107.24 -1.74617 -0.768987 0
M  V30 11498 C 1104.38 -3.31581 -0.956452 0
M  V30 11499 C 1103.5 -4.31691 -0.163381 0
M  V30 11500 C 1102.63 -5.19549 -1.10645 0
M  V30 11501 C 1101.67 -6.1134 -0.304876 0
M  V30 11502 N 1100.81 -6.91761 -1.20048 0
M  V30 11503 H 1105.65 -2.88426 0.749301 0
M  V30 11504 H 1103.18 -1.42074 0.381251 0
M  V30 11505 H 1105.14 -3.88539 -1.51966 0
M  V30 11506 H 1103.77 -2.75561 -1.68126 0
M  V30 11507 H 1102.82 -3.76879 0.516396 0
M  V30 11508 H 1104.14 -4.96683 0.459099 0
M  V30 11509 H 1103.29 -5.81223 -1.73969 0
M  V30 11510 H 1102.03 -4.54726 -1.76282 0
M  V30 11511 H 1101.03 -5.48738 0.341597 0
M  V30 11512 H 1102.26 -6.78211 0.347352 0
M  V30 11513 H 1100.2 -6.2957 -1.84331 0
M  V30 11514 H 1100.12 -7.53345 -0.633003 0
M  V30 11515 H 1101.39 -7.57924 -1.82129 0
M  V30 11516 N 1105.62 -0.414636 -1.52048 0
M  V30 11517 C 1106.85 0.158686 -2.06291 0
M  V30 11518 C 1107.26 1.38397 -1.2842 0
M  V30 11519 O 1106.62 1.79351 -0.337539 0
M  V30 11520 C 1106.67 0.503634 -3.57975 0
M  V30 11521 O 1106.39 -0.672996 -4.329 0
M  V30 11522 C 1107.89 1.13009 -4.28653 0
M  V30 11523 H 1105.11 0.0179622 -0.67076 0
M  V30 11524 H 1107.66 -0.587177 -1.95889 0
M  V30 11525 H 1105.81 1.19939 -3.68366 0
M  V30 11526 H 1106.22 -0.383735 -5.23094 0
M  V30 11527 H 1107.7 1.32162 -5.35945 0
M  V30 11528 H 1108.18 2.10476 -3.85482 0
M  V30 11529 H 1108.78 0.474379 -4.22646 0
M  V30 11530 N 1107.1 1.56929 -0.145233 0
M  V30 11531 C 1108.51 1.58196 0.211194 0
M  V30 11532 C 1108.71 1.15941 1.64803 0
M  V30 11533 O 1107.77 0.858888 2.37443 0
M  V30 11534 C 1109.08 3.00665 -0.0459569 0
M  V30 11535 C 1110.63 3.12995 0.0178913 0
M  V30 11536 C 1111.1 4.5751 -0.211905 0
M  V30 11537 N 1112.6 4.62928 -0.158772 0
M  V30 11538 C 1113.33 5.72555 -0.311111 0
M  V30 11539 N 1112.83 6.90838 -0.521074 0
M  V30 11540 N 1114.62 5.61549 -0.248838 0
M  V30 11541 H 1106.77 1.8269 -1.08342 0
M  V30 11542 H 1109.03 0.845514 -0.428731 0
M  V30 11543 H 1108.74 3.35962 -1.0403 0
M  V30 11544 H 1108.61 3.71125 0.674246 0
M  V30 11545 H 1111 2.7754 1.00278 0
M  V30 11546 H 1111.08 2.45025 -0.734612 0
M  V30 11547 H 1110.73 4.93669 -1.19389 0
M  V30 11548 H 1110.66 5.23604 0.560901 0
M  V30 11549 H 1113.15 3.779 -0.00107283 0
M  V30 11550 H 1113.46 7.70248 -0.62747 0
M  V30 11551 H 1111.8 6.92761 -0.557374 0
M  V30 11552 H 1115 4.68022 -0.0855821 0
M  V30 11553 H 1115.17 6.46937 -0.370997 0
M  V30 11554 N 1108.58 -0.128553 1.57075 0
M  V30 11555 C 1109.52 -1.15812 1.9964 0
M  V30 11556 C 1110.49 -1.41679 0.86696 0
M  V30 11557 O 1111.68 -1.53705 1.13046 0
M  V30 11558 C 1108.82 -2.48198 2.39774 0
M  V30 11559 C 1107.93 -2.29348 3.66092 0
M  V30 11560 C 1107.07 -3.54898 3.95248 0
M  V30 11561 C 1106.1 -3.31164 5.14779 0
M  V30 11562 N 1105.24 -4.48891 5.39853 0
M  V30 11563 H 1110.08 -0.788136 2.87389 0
M  V30 11564 H 1107.62 -0.377682 1.42169 0
M  V30 11565 H 1109.58 -3.25414 2.61077 0
M  V30 11566 H 1108.21 -2.83108 1.5508 0
M  V30 11567 H 1107.26 -1.43095 3.5246 0
M  V30 11568 H 1108.57 -2.07781 4.53463 0
M  V30 11569 H 1107.72 -4.40536 4.17148 0
M  V30 11570 H 1106.46 -3.79487 3.06335 0
M  V30 11571 H 1105.47 -2.43915 4.92733 0
M  V30 11572 H 1106.69 -3.07954 6.05261 0
M  V30 11573 H 1104.64 -4.73619 4.53895 0
M  V30 11574 H 1104.56 -4.30394 6.21528 0
M  V30 11575 H 1105.82 -5.35691 5.66265 0
M  V30 11576 N 1110.05 -1.5248 -0.398459 0
M  V30 11577 C 1111.29 -1.68744 -1.15346 0
M  V30 11578 C 1111.66 -0.413739 -1.87489 0
M  V30 11579 O 1112.86 -0.452624 -2.64962 0
M  V30 11580 C 1111.13 -2.8824 -2.11311 0
M  V30 11581 S 1112.69 -3.25043 -2.94775 0
M  V30 11582 H 1109.51 -0.594099 -0.390598 0
M  V30 11583 H 1112.11 -1.90502 -0.439228 0
M  V30 11584 H 1110.81 -3.79175 -1.57017 0
M  V30 11585 H 1110.34 -2.68787 -2.87258 0
M  V30 11586 H 1112.36 -2.74495 -4.13361 0
M  V30 11587 N 1111.53 0.65634 -1.43283 0
M  V30 11588 C 1112.94 1.23744 -1.39801 0
M  V30 11589 C 1113.29 1.95942 -0.100507 0
M  V30 11590 O 1112.42 2.01063 0.800161 0
M  V30 11591 C 1113.01 2.25062 -2.53244 0
M  V30 11592 C 1111.57 2.78657 -2.53036 0
M  V30 11593 C 1110.72 1.53251 -2.31105 0
M  V30 11594 H 1113.67 0.448553 -1.52229 0
M  V30 11595 H 1113.69 3.07174 -2.24553 0
M  V30 11596 H 1113.2 1.72487 -3.47664 0
M  V30 11597 H 1111.3 3.35304 -1.62487 0
M  V30 11598 H 1111.42 3.26414 -3.507 0
M  V30 11599 H 1109.78 1.80487 -1.79713 0
M  V30 11600 H 1110.56 1.02615 -3.27605 0
M  V30 11601 N 1113.01 1.29761 0.894412 0
M  V30 11602 C 1113.92 1.1724 2.03204 0
M  V30 11603 C 1114.94 0.0944452 1.73743 0
M  V30 11604 O 1116.11 0.307549 1.99038 0
M  V30 11605 C 1113.18 0.855416 3.35981 0
M  V30 11606 C 1112.24 2.01777 3.78926 0
M  V30 11607 C 1111.47 1.71581 5.05367 0
M  V30 11608 O 1111.69 0.639245 5.66807 0
M  V30 11609 O 1110.63 2.56539 5.44492 0
M  V30 11610 H 1114.45 2.12787 2.16692 0
M  V30 11611 H 1112.04 1.09264 1.0189 0
M  V30 11612 H 1113.92 0.693429 4.15656 0
M  V30 11613 H 1112.6 -0.0702195 3.23624 0
M  V30 11614 H 1111.5 2.23502 2.99996 0
M  V30 11615 H 1112.84 2.92479 3.95875 0
M  V30 11616 N 1114.49 -1.10549 1.12324 0
M  V30 11617 C 1115.44 -2.18944 0.785248 0
M  V30 11618 C 1116.43 -1.67867 -0.227389 0
M  V30 11619 O 1117.64 -1.79796 -0.0857162 0
M  V30 11620 H 1114.01 -0.713976 0.236098 0
M  V30 11621 H 1115.98 -2.44692 1.70788 0
M  V30 11622 C 1114.73 -3.46765 0.25485 0
M  V30 11623 H 1114.05 -3.86428 1.02534 0
M  V30 11624 H 1115.49 -4.23962 0.0566526 0
M  V30 11625 C 1113.95 -3.21185 -1.01695 0
M  V30 11626 O 1114.48 -3.42745 -2.09497 0
M  V30 11627 N 1112.69 -2.7486 -0.943423 0
M  V30 11628 H 1112.24 -2.57515 -0.0660366 0
M  V30 11629 H 1112.19 -2.58122 -1.795 0
M  V30 11630 N 1115.97 -0.914965 -1.28321 0
M  V30 11631 C 1117.21 -0.548749 -1.94923 0
M  V30 11632 C 1117.54 0.907776 -1.72016 0
M  V30 11633 O 1116.8 1.66097 -1.03491 0
M  V30 11634 C 1117.09 -0.805805 -3.48198 0
M  V30 11635 C 1116.76 -2.24207 -3.91206 0
M  V30 11636 C 1115.42 -2.63475 -4.02659 0
M  V30 11637 C 1117.77 -3.17667 -4.13204 0
M  V30 11638 C 1115.1 -3.95353 -4.3349 0
M  V30 11639 C 1117.45 -4.4911 -4.45514 0
M  V30 11640 C 1116.12 -4.8823 -4.55179 0
M  V30 11641 H 1115.39 -0.200801 -0.713274 0
M  V30 11642 H 1118.04 -1.15652 -1.52633 0
M  V30 11643 H 1116.34 -0.115244 -3.9163 0
M  V30 11644 H 1118.04 -0.501609 -3.9785 0
M  V30 11645 H 1114.63 -1.92737 -3.82819 0
M  V30 11646 H 1118.81 -2.88537 -4.03807 0
M  V30 11647 H 1114.07 -4.25362 -4.39178 0
M  V30 11648 H 1118.24 -5.21542 -4.61483 0
M  V30 11649 H 1115.87 -5.90451 -4.78823 0
M  V30 11650 N 1117.44 1.42219 -0.679077 0
M  V30 11651 C 1118.39 2.32599 0.00820028 0
M  V30 11652 C 1119.39 1.50059 0.786046 0
M  V30 11653 O 1120.59 1.66103 0.693528 0
M  V30 11654 H 1116.97 0.751694 0.0214483 0
M  V30 11655 H 1118.94 2.88257 -0.77138 0
M  V30 11656 C 1117.69 3.3468 0.942581 0
M  V30 11657 H 1117.01 3.98234 0.353463 0
M  V30 11658 H 1118.45 4.00496 1.39208 0
M  V30 11659 C 1116.91 2.67275 2.05099 0
M  V30 11660 O 1117.44 2.50793 3.13793 0
M  V30 11661 N 1115.64 2.26232 1.82394 0
M  V30 11662 H 1115.19 2.39838 0.939983 0
M  V30 11663 H 1115.15 1.81465 2.56744 0
M  V30 11664 N 1118.92 0.422693 1.51826 0
M  V30 11665 C 1119.83 -0.40261 2.31119 0
M  V30 11666 C 1120.85 -1.04117 1.39412 0
M  V30 11667 O 1122.02 -1.03973 1.72486 0
M  V30 11668 C 1119.09 -1.49699 3.12716 0
M  V30 11669 C 1118.15 -0.880088 4.20182 0
M  V30 11670 C 1117.38 -1.92232 4.97878 0
M  V30 11671 O 1117.61 -3.14246 4.76031 0
M  V30 11672 O 1116.54 -1.521 5.82365 0
M  V30 11673 H 1120.37 0.244308 3.02716 0
M  V30 11674 H 1117.95 0.185569 1.48243 0
M  V30 11675 H 1119.83 -2.13202 3.63487 0
M  V30 11676 H 1118.51 -2.12826 2.43899 0
M  V30 11677 H 1117.41 -0.207404 3.73525 0
M  V30 11678 H 1118.75 -0.292535 4.9133 0
M  V30 11679 N 1120.4 -1.5685 0.153553 0
M  V30 11680 C 1121.36 -2.15894 -0.769564 0
M  V30 11681 C 1122.36 -1.10239 -1.17064 0
M  V30 11682 O 1123.55 -1.35845 -1.09049 0
M  V30 11683 C 1120.68 -2.72738 -2.04516 0
M  V30 11684 H 1121.88 -2.98807 -0.255842 0
M  V30 11685 H 1119.43 -1.56005 -0.0959279 0
M  V30 11686 H 1120.17 -1.9351 -2.60239 0
M  V30 11687 H 1119.95 -3.50042 -1.76672 0
M  V30 11688 H 1121.44 -3.18208 -2.70432 0
M  V30 11689 N 1121.88 0.120221 -1.57141 0
M  V30 11690 C 1122.82 1.14751 -2.00252 0
M  V30 11691 C 1123.79 1.41217 -0.874462 0
M  V30 11692 O 1124.98 1.53104 -1.13859 0
M  V30 11693 C 1122.12 2.46923 -2.41087 0
M  V30 11694 C 1121.23 2.27403 -3.67303 0
M  V30 11695 C 1120.37 3.52797 -3.97125 0
M  V30 11696 C 1119.41 3.28429 -5.16528 0
M  V30 11697 N 1118.54 4.46022 -5.42226 0
M  V30 11698 H 1123.38 0.772884 -2.87803 0
M  V30 11699 H 1120.92 0.370137 -1.42367 0
M  V30 11700 H 1122.88 3.24025 -2.62799 0
M  V30 11701 H 1121.51 2.82281 -1.5658 0
M  V30 11702 H 1120.56 1.41224 -3.53214 0
M  V30 11703 H 1121.87 2.05373 -4.54558 0
M  V30 11704 H 1121.03 4.38318 -4.19479 0
M  V30 11705 H 1119.77 3.77857 -3.08343 0
M  V30 11706 H 1118.77 2.41299 -4.94019 0
M  V30 11707 H 1120 3.0474 -6.06886 0
M  V30 11708 H 1117.94 4.71205 -4.56401 0
M  V30 11709 H 1117.86 4.27092 -6.23802 0
M  V30 11710 H 1119.13 5.3268 -5.69098 0
M  V30 11711 N 1123.36 1.52689 0.390367 0
M  V30 11712 C 1124.6 1.67666 1.13553 0
M  V30 11713 C 1124.93 0.415903 1.90001 0
M  V30 11714 O 1124.19 -0.601664 1.86222 0
M  V30 11715 C 1124.49 2.86177 2.14096 0
M  V30 11716 C 1124.15 4.23671 1.54316 0
M  V30 11717 C 1122.81 4.61066 1.37739 0
M  V30 11718 C 1125.17 5.09278 1.1084 0
M  V30 11719 C 1122.49 5.81727 0.76231 0
M  V30 11720 C 1124.85 6.30562 0.507433 0
M  V30 11721 C 1123.51 6.66689 0.328945 0
M  V30 11722 H 1122.78 0.613533 0.415521 0
M  V30 11723 H 1125.43 1.8683 0.420339 0
M  V30 11724 H 1123.73 2.61424 2.9183 0
M  V30 11725 H 1125.43 2.9496 2.7166 0
M  V30 11726 H 1122.02 3.94214 1.68207 0
M  V30 11727 H 1126.2 4.80957 1.2245 0
M  V30 11728 H 1121.46 6.08327 0.612208 0
M  V30 11729 H 1125.63 6.96211 0.162248 0
M  V30 11730 H 1123.26 7.60052 -0.149748 0
M  V30 11731 N 1124.83 -0.648732 1.43629 0
M  V30 11732 C 1126.08 -1.40446 1.44768 0
M  V30 11733 C 1126.4 -1.95447 0.0773445 0
M  V30 11734 O 1127.6 -2.71479 -0.0337942 0
M  V30 11735 C 1126.06 -2.54194 2.54781 0
M  V30 11736 C 1125.67 -2.05781 3.97942 0
M  V30 11737 C 1127.41 -3.31529 2.65121 0
M  V30 11738 C 1125.32 -3.16767 4.99412 0
M  V30 11739 H 1124.25 -0.527717 0.538545 0
M  V30 11740 H 1126.9 -0.699756 1.69634 0
M  V30 11741 H 1125.28 -3.27156 2.23125 0
M  V30 11742 H 1126.45 -1.398 4.39081 0
M  V30 11743 H 1124.77 -1.41312 3.91688 0
M  V30 11744 H 1127.37 -4.14233 3.38105 0
M  V30 11745 H 1127.71 -3.79855 1.70341 0
M  V30 11746 H 1128.24 -2.65649 2.961 0
M  V30 11747 H 1124.98 -2.73404 5.9576 0
M  V30 11748 H 1124.5 -3.81445 4.62882 0
M  V30 11749 H 1126.18 -3.81827 5.22319 0
M  V30 11750 N 1126.31 -1.30234 -0.887518 0
M  V30 11751 C 1127.56 -1.18675 -1.63587 0
M  V30 11752 C 1127.88 0.259342 -1.93268 0
M  V30 11753 O 1127.15 1.17523 -1.56733 0
M  V30 11754 H 1125.73 -0.436224 -0.606397 0
M  V30 11755 H 1128.39 -1.63326 -1.06351 0
M  V30 11756 H 1127.49 -1.74575 -2.58708 0
M  V30 11757 N 1127.79 1.09952 -1.12909 0
M  V30 11758 C 1129.04 1.82016 -0.887482 0
M  V30 11759 C 1129.37 1.85445 0.586546 0
M  V30 11760 O 1128.62 1.31446 1.44984 0
M  V30 11761 C 1128.92 3.28252 -1.41369 0
M  V30 11762 C 1128.59 3.44965 -2.90362 0
M  V30 11763 C 1127.25 3.49233 -3.31043 0
M  V30 11764 C 1129.6 3.49947 -3.86247 0
M  V30 11765 C 1126.93 3.56057 -4.66305 0
M  V30 11766 C 1129.28 3.58305 -5.21345 0
M  V30 11767 C 1127.94 3.6084 -5.61561 0
M  V30 11768 H 1127.21 0.666046 -0.324753 0
M  V30 11769 H 1129.86 1.29568 -1.41012 0
M  V30 11770 H 1128.17 3.83301 -0.81163 0
M  V30 11771 H 1129.86 3.82533 -1.20289 0
M  V30 11772 H 1126.45 3.42323 -2.57901 0
M  V30 11773 H 1130.64 3.45895 -3.55908 0
M  V30 11774 H 1125.89 3.56305 -4.96847 0
M  V30 11775 H 1130.07 3.61104 -5.95463 0
M  V30 11776 H 1127.69 3.6588 -6.6636 0
M  V30 11777 N 1129.27 0.921757 1.27833 0
M  V30 11778 C 1130.5 0.575202 1.98744 0
M  V30 11779 C 1130.91 -0.845405 1.68815 0
M  V30 11780 O 1130.27 -1.56106 0.94536 0
M  V30 11781 C 1130.32 0.784389 3.52888 0
M  V30 11782 O 1130.04 2.1491 3.81766 0
M  V30 11783 C 1131.54 0.445744 4.41053 0
M  V30 11784 H 1128.76 0.218525 0.634419 0
M  V30 11785 H 1131.31 1.23715 1.62834 0
M  V30 11786 H 1129.46 0.169323 3.8703 0
M  V30 11787 H 1129.87 2.19469 4.76375 0
M  V30 11788 H 1131.35 0.64284 5.48244 0
M  V30 11789 H 1131.83 -0.618433 4.34824 0
M  V30 11790 H 1132.43 1.03869 4.12421 0
M  V30 11791 N 1130.75 -1.41857 0.686609 0
M  V30 11792 C 1131.68 -2.28174 -0.0347358 0
M  V30 11793 C 1132.66 -1.41732 -0.796928 0
M  V30 11794 O 1133.84 -1.71165 -0.789607 0
M  V30 11795 C 1130.97 -3.21801 -1.0565 0
M  V30 11796 C 1130.01 -4.24727 -0.388523 0
M  V30 11797 S 1130.85 -5.28508 0.862546 0
M  V30 11798 C 1132 -6.25701 -0.157849 0
M  V30 11799 H 1132.24 -2.89005 0.697381 0
M  V30 11800 H 1129.77 -1.46861 0.476562 0
M  V30 11801 H 1131.73 -3.76278 -1.64089 0
M  V30 11802 H 1130.39 -2.60082 -1.76114 0
M  V30 11803 H 1129.58 -4.90471 -1.15991 0
M  V30 11804 H 1129.18 -3.73799 0.122567 0
M  V30 11805 H 1131.48 -6.6987 -1.01393 0
M  V30 11806 H 1132.42 -7.06569 0.465437 0
M  V30 11807 H 1132.83 -5.62204 -0.508614 0
M  V30 11808 N 1132.22 -0.430739 -1.51599 0
M  V30 11809 C 1133.45 0.136599 -2.06148 0
M  V30 11810 C 1133.86 1.37577 -1.29881 0
M  V30 11811 O 1133.21 1.80337 -0.349875 0
M  V30 11812 C 1133.27 0.53071 -3.55561 0
M  V30 11813 C 1132.93 -0.600738 -4.53034 0
M  V30 11814 C 1133.93 -1.47089 -4.98659 0
M  V30 11815 C 1131.61 -0.77959 -4.96213 0
M  V30 11816 C 1133.61 -2.50464 -5.86128 0
M  V30 11817 C 1131.29 -1.81663 -5.83474 0
M  V30 11818 C 1132.29 -2.67755 -6.28328 0
M  V30 11819 O 1131.98 -3.69679 -7.13858 0
M  V30 11820 H 1131.71 0.0143071 -0.675849 0
M  V30 11821 H 1134.27 -0.606673 -1.96236 0
M  V30 11822 H 1132.5 1.32659 -3.63233 0
M  V30 11823 H 1134.19 1.02844 -3.92655 0
M  V30 11824 H 1134.95 -1.34421 -4.66 0
M  V30 11825 H 1130.83 -0.119082 -4.60846 0
M  V30 11826 H 1134.37 -3.17695 -6.2106 0
M  V30 11827 H 1130.27 -1.94353 -6.15546 0
M  V30 11828 H 1131.04 -3.66181 -7.3202 0
M  V30 11829 N 1133.7 1.56767 -0.161869 0
M  V30 11830 C 1134.93 2.00964 0.492027 0
M  V30 11831 C 1135.35 1.04206 1.57437 0
M  V30 11832 O 1134.7 0.0413998 1.82453 0
M  V30 11833 C 1134.75 3.4502 1.07904 0
M  V30 11834 O 1134.47 4.38082 0.0399085 0
M  V30 11835 C 1135.98 4.04572 1.81209 0
M  V30 11836 H 1133.2 0.658911 0.126797 0
M  V30 11837 H 1135.74 2.0283 -0.260824 0
M  V30 11838 H 1133.89 3.43959 1.78243 0
M  V30 11839 H 1134.31 5.22372 0.471985 0
M  V30 11840 H 1135.78 5.07321 2.17554 0
M  V30 11841 H 1136.26 3.46126 2.70359 0
M  V30 11842 H 1136.87 4.09307 1.15534 0
M  V30 11843 N 1135.18 -0.111886 1.57202 0
M  V30 11844 C 1136.41 -0.832407 1.89416 0
M  V30 11845 C 1136.82 -1.73096 0.753861 0
M  V30 11846 O 1136.18 -1.80416 -0.274992 0
M  V30 11847 C 1136.23 -1.65988 3.21139 0
M  V30 11848 O 1135.95 -0.797485 4.3078 0
M  V30 11849 C 1137.45 -2.48493 3.67105 0
M  V30 11850 H 1134.67 -0.238919 0.627024 0
M  V30 11851 H 1137.22 -0.0941456 2.04283 0
M  V30 11852 H 1135.37 -2.35082 3.07921 0
M  V30 11853 H 1135.79 -1.36892 5.06321 0
M  V30 11854 H 1137.26 -3.02072 4.62014 0
M  V30 11855 H 1137.74 -3.26182 2.94112 0
M  V30 11856 H 1138.34 -1.84628 3.83135 0
M  V30 11857 N 1136.66 -1.52894 -0.382264 0
M  V30 11858 C 1137.9 -1.69958 -1.1355 0
M  V30 11859 C 1138.26 -0.433602 -1.8704 0
M  V30 11860 O 1139.46 -0.480701 -2.64467 0
M  V30 11861 C 1137.73 -2.90465 -2.08242 0
M  V30 11862 S 1139.29 -3.28151 -2.91311 0
M  V30 11863 H 1136.11 -0.598209 -0.384275 0
M  V30 11864 H 1138.71 -1.90957 -0.418998 0
M  V30 11865 H 1137.42 -3.80819 -1.52987 0
M  V30 11866 H 1136.95 -2.71819 -2.84391 0
M  V30 11867 H 1138.96 -2.78863 -4.10426 0
M  V30 11868 N 1138.14 0.641106 -1.43971 0
M  V30 11869 C 1139.39 1.39676 -1.45511 0
M  V30 11870 C 1139.7 1.95403 -0.0877084 0
M  V30 11871 O 1140.91 2.71493 0.0193965 0
M  V30 11872 C 1139.36 2.52839 -2.56126 0
M  V30 11873 C 1138.97 2.03668 -3.99028 0
M  V30 11874 C 1140.71 3.30118 -2.66875 0
M  V30 11875 C 1138.62 3.14114 -5.01085 0
M  V30 11876 H 1137.55 0.524854 -0.541336 0
M  V30 11877 H 1140.2 0.69075 -1.70003 0
M  V30 11878 H 1138.58 3.25968 -2.24857 0
M  V30 11879 H 1139.76 1.3747 -4.39817 0
M  V30 11880 H 1138.07 1.39233 -3.92432 0
M  V30 11881 H 1140.67 4.12434 -3.40297 0
M  V30 11882 H 1141.01 3.78946 -1.72353 0
M  V30 11883 H 1141.55 2.64075 -2.97505 0
M  V30 11884 H 1138.28 2.70241 -5.97202 0
M  V30 11885 H 1137.8 3.78985 -4.64898 0
M  V30 11886 H 1139.48 3.79051 -5.24337 0
M  V30 11887 N 1139.62 1.30703 0.880598 0
M  V30 11888 C 1140.86 1.19142 1.62752 0
M  V30 11889 C 1141.18 -0.251795 1.93973 0
M  V30 11890 O 1142.38 -0.488971 2.67061 0
M  V30 11891 C 1140.84 2.08503 2.93351 0
M  V30 11892 C 1140.45 3.57758 2.69653 0
M  V30 11893 C 1142.19 2.05715 3.71324 0
M  V30 11894 C 1140.1 4.39161 3.96096 0
M  V30 11895 H 1139.03 0.442332 0.610622 0
M  V30 11896 H 1141.68 1.55483 0.974547 0
M  V30 11897 H 1140.06 1.65049 3.59965 0
M  V30 11898 H 1141.24 4.09388 2.11513 0
M  V30 11899 H 1139.55 3.62414 2.0505 0
M  V30 11900 H 1142.15 2.63783 4.65105 0
M  V30 11901 H 1142.49 1.04168 4.03057 0
M  V30 11902 H 1143.02 2.47313 3.11579 0
M  V30 11903 H 1139.76 5.4142 3.69519 0
M  V30 11904 H 1139.28 3.92293 4.53725 0
M  V30 11905 H 1140.96 4.50823 4.64077 0
M  V30 11906 N 1141.09 -1.09351 1.1349 0
M  V30 11907 C 1142.34 -1.81988 0.908397 0
M  V30 11908 C 1142.69 -1.84087 -0.559442 0
M  V30 11909 O 1141.99 -1.29866 -1.40873 0
M  V30 11910 C 1142.18 -3.27498 1.43108 0
M  V30 11911 C 1142.01 -3.39575 2.9482 0
M  V30 11912 C 1140.78 -3.51332 3.63172 0
M  V30 11913 C 1142.98 -3.3204 3.92752 0
M  V30 11914 N 1140.96 -3.521 5.02891 0
M  V30 11915 C 1142.33 -3.39686 5.18665 0
M  V30 11916 C 1144.39 -3.15712 3.85007 0
M  V30 11917 C 1143.09 -3.32686 6.3774 0
M  V30 11918 C 1145.12 -3.10038 5.03617 0
M  V30 11919 C 1144.48 -3.18277 6.28394 0
M  V30 11920 H 1140.58 -0.680196 0.385821 0
M  V30 11921 H 1143.16 -1.30683 1.44326 0
M  V30 11922 H 1141.33 -3.77271 0.923118 0
M  V30 11923 H 1143.06 -3.8815 1.14549 0
M  V30 11924 H 1139.82 -3.54813 3.13695 0
M  V30 11925 H 1140.24 -3.56066 5.758 0
M  V30 11926 H 1144.88 -3.08212 2.89422 0
M  V30 11927 H 1142.6 -3.38949 7.3358 0
M  V30 11928 H 1146.19 -2.98539 4.99365 0
M  V30 11929 H 1145.07 -3.13904 7.18634 0
M  V30 11930 N 1142.57 -0.928524 -1.27343 0
M  V30 11931 C 1143.5 -0.445627 -2.29208 0
M  V30 11932 C 1144.48 0.494508 -1.62753 0
M  V30 11933 O 1145.67 0.399082 -1.90055 0
M  V30 11934 C 1142.8 0.301684 -3.45987 0
M  V30 11935 C 1141.75 -0.550695 -4.24442 0
M  V30 11936 C 1141.08 0.325833 -5.33706 0
M  V30 11937 C 1142.38 -1.81559 -4.89728 0
M  V30 11938 H 1144.07 -1.29696 -2.69851 0
M  V30 11939 H 1141.62 -0.625085 -1.29725 0
M  V30 11940 H 1143.57 0.650455 -4.1635 0
M  V30 11941 H 1142.29 1.18705 -3.04264 0
M  V30 11942 H 1140.95 -0.882185 -3.55827 0
M  V30 11943 H 1140.6 1.21018 -4.88225 0
M  V30 11944 H 1140.3 -0.240994 -5.87106 0
M  V30 11945 H 1141.83 0.670156 -6.06911 0
M  V30 11946 H 1143.24 -1.53483 -5.52373 0
M  V30 11947 H 1141.64 -2.32598 -5.53189 0
M  V30 11948 H 1142.71 -2.53461 -4.13383 0
M  V30 11949 N 1144.05 1.41491 -0.694123 0
M  V30 11950 C 1145.01 2.2917 -0.0368562 0
M  V30 11951 C 1146.01 1.44305 0.709426 0
M  V30 11952 O 1147.2 1.6547 0.544533 0
M  V30 11953 C 1144.33 3.27156 0.958201 0
M  V30 11954 H 1145.53 2.88787 -0.808829 0
M  V30 11955 H 1143.08 1.49453 -0.457538 0
M  V30 11956 H 1143.82 2.72516 1.75799 0
M  V30 11957 H 1143.6 3.89776 0.426227 0
M  V30 11958 H 1145.09 3.92863 1.41592 0
M  V30 11959 N 1145.53 0.438773 1.51369 0
M  V30 11960 C 1146.77 -0.127213 2.021 0
M  V30 11961 C 1147.1 -1.42587 1.32284 0
M  V30 11962 O 1146.36 -1.90986 0.426949 0
M  V30 11963 C 1146.66 -0.39186 3.55245 0
M  V30 11964 C 1146.32 0.821158 4.4336 0
M  V30 11965 C 1144.98 1.15381 4.67162 0
M  V30 11966 C 1147.34 1.6303 4.95046 0
M  V30 11967 C 1144.66 2.29626 5.39897 0
M  V30 11968 C 1147.02 2.76376 5.69033 0
M  V30 11969 C 1145.68 3.10094 5.91099 0
M  V30 11970 H 1144.95 -0.0465505 0.739536 0
M  V30 11971 H 1147.6 0.586261 1.82305 0
M  V30 11972 H 1145.9 -1.18724 3.73379 0
M  V30 11973 H 1147.6 -0.843228 3.92034 0
M  V30 11974 H 1144.19 0.551946 4.25031 0
M  V30 11975 H 1148.37 1.38651 4.76539 0
M  V30 11976 H 1143.63 2.56062 5.55196 0
M  V30 11977 H 1147.8 3.39442 6.08072 0
M  V30 11978 H 1145.43 3.98731 6.47238 0
M  V30 11979 N 1147.01 -1.56678 0.170181 0
M  V30 11980 C 1147.94 -2.20916 -0.756213 0
M  V30 11981 C 1148.92 -1.16442 -1.23997 0
M  V30 11982 O 1150.1 -1.44867 -1.29333 0
M  V30 11983 C 1147.23 -2.84901 -1.98617 0
M  V30 11984 C 1146.19 -3.95403 -1.63831 0
M  V30 11985 C 1145.51 -4.46432 -2.94282 0
M  V30 11986 C 1146.81 -5.15051 -0.867195 0
M  V30 11987 H 1148.51 -2.98585 -0.220776 0
M  V30 11988 H 1146.05 -1.43619 -0.104748 0
M  V30 11989 H 1148 -3.28514 -2.63926 0
M  V30 11990 H 1146.73 -2.04598 -2.54572 0
M  V30 11991 H 1145.39 -3.52444 -1.00891 0
M  V30 11992 H 1145.04 -3.62923 -3.48276 0
M  V30 11993 H 1144.74 -5.20979 -2.71762 0
M  V30 11994 H 1146.26 -4.92731 -3.60622 0
M  V30 11995 H 1147.67 -5.55363 -1.42285 0
M  V30 11996 H 1146.07 -5.95507 -0.741065 0
M  V30 11997 H 1147.14 -4.84707 0.136693 0
M  V30 11998 N 1148.48 0.103547 -1.57259 0
M  V30 11999 C 1149.89 0.659006 -1.74683 0
M  V30 12000 C 1150.25 1.79542 -0.791142 0
M  V30 12001 O 1149.37 2.16376 0.0323585 0
M  V30 12002 C 1149.97 1.20222 -3.16752 0
M  V30 12003 C 1148.52 1.70382 -3.35629 0
M  V30 12004 C 1147.67 0.609886 -2.7051 0
M  V30 12005 H 1150.62 -0.122474 -1.58227 0
M  V30 12006 H 1150.64 2.07169 -3.19157 0
M  V30 12007 H 1150.16 0.374901 -3.86285 0
M  V30 12008 H 1148.26 2.55542 -2.71162 0
M  V30 12009 H 1148.37 1.80263 -4.43894 0
M  V30 12010 H 1146.73 1.04728 -2.32173 0
M  V30 12011 H 1147.52 -0.206713 -3.42677 0
M  V30 12012 N 1149.96 1.53094 0.37415 0
M  V30 12013 C 1151.21 1.68082 1.11495 0
M  V30 12014 C 1151.52 0.434685 1.90709 0
M  V30 12015 O 1152.73 0.464956 2.67489 0
M  V30 12016 C 1151.19 2.97101 2.03124 0
M  V30 12017 C 1150.79 4.28947 1.29262 0
M  V30 12018 C 1152.54 3.21456 2.77248 0
M  V30 12019 C 1150.44 5.4906 2.19743 0
M  V30 12020 H 1149.37 0.626238 0.419931 0
M  V30 12021 H 1152.03 1.79594 0.376588 0
M  V30 12022 H 1150.41 2.79371 2.80656 0
M  V30 12023 H 1151.58 4.57279 0.568528 0
M  V30 12024 H 1149.9 4.10968 0.670362 0
M  V30 12025 H 1152.49 4.08377 3.45155 0
M  V30 12026 H 1152.84 2.37153 3.42146 0
M  V30 12027 H 1153.37 3.3982 2.06803 0
M  V30 12028 H 1150.11 6.35815 1.59437 0
M  V30 12029 H 1149.63 5.25019 2.90027 0
M  V30 12030 H 1151.31 5.83517 2.79495 0
M  V30 12031 N 1151.44 -0.633461 1.44309 0
M  V30 12032 C 1152.69 -1.39306 1.46969 0
M  V30 12033 C 1153.01 -1.94235 0.101403 0
M  V30 12034 O 1152.27 -1.73959 -0.896475 0
M  V30 12035 C 1152.57 -2.57783 2.47554 0
M  V30 12036 C 1152.23 -2.21156 3.92939 0
M  V30 12037 C 1150.9 -2.1088 4.32531 0
M  V30 12038 C 1153.25 -1.9218 4.84475 0
M  V30 12039 C 1150.58 -1.69812 5.61588 0
M  V30 12040 C 1152.93 -1.52605 6.13917 0
M  V30 12041 C 1151.59 -1.40868 6.52466 0
M  V30 12042 H 1150.86 -0.509758 0.537799 0
M  V30 12043 H 1153.51 -0.718552 1.77508 0
M  V30 12044 H 1151.81 -3.30456 2.1049 0
M  V30 12045 H 1153.51 -3.16009 2.46859 0
M  V30 12046 H 1150.1 -2.30072 3.61614 0
M  V30 12047 H 1154.29 -1.9903 4.54644 0
M  V30 12048 H 1149.54 -1.59327 5.90275 0
M  V30 12049 H 1153.72 -1.29221 6.84306 0
M  V30 12050 H 1151.34 -1.08818 7.52371 0
M  V30 12051 N 1152.92 -1.31168 -0.873655 0
M  V30 12052 C 1154.15 -1.23416 -1.65686 0
M  V30 12053 C 1154.56 0.203534 -1.88102 0
M  V30 12054 O 1153.9 1.14476 -1.4367 0
M  V30 12055 C 1153.96 -1.90418 -3.04929 0
M  V30 12056 C 1153.63 -3.39757 -3.05637 0
M  V30 12057 C 1154.62 -4.35565 -2.83865 0
M  V30 12058 C 1152.31 -3.81389 -3.26875 0
M  V30 12059 C 1154.3 -5.70979 -2.83304 0
M  V30 12060 C 1151.99 -5.16918 -3.25943 0
M  V30 12061 C 1152.99 -6.11524 -3.04184 0
M  V30 12062 O 1152.67 -7.44575 -3.0309 0
M  V30 12063 H 1152.41 -0.4278 -0.523415 0
M  V30 12064 H 1154.96 -1.73525 -1.09902 0
M  V30 12065 H 1153.19 -1.34854 -3.62424 0
M  V30 12066 H 1154.88 -1.76631 -3.65453 0
M  V30 12067 H 1155.65 -4.0473 -2.67243 0
M  V30 12068 H 1151.52 -3.08187 -3.42844 0
M  V30 12069 H 1155.07 -6.44796 -2.66239 0
M  V30 12070 H 1150.97 -5.47389 -3.42104 0
M  V30 12071 H 1151.73 -7.53703 -3.19177 0
M  V30 12072 N 1154.4 1.08748 -1.14068 0
M  V30 12073 C 1155.64 1.81333 -0.908081 0
M  V30 12074 C 1155.98 1.85826 0.564112 0
M  V30 12075 O 1155.25 1.33157 1.41773 0
M  V30 12076 C 1155.53 3.27127 -1.50531 0
M  V30 12077 C 1155.39 3.30865 -3.04711 0
M  V30 12078 C 1156.71 4.24006 -1.17928 0
M  V30 12079 H 1153.82 0.658326 -0.331325 0
M  V30 12080 H 1156.47 1.27345 -1.41008 0
M  V30 12081 H 1154.62 3.73233 -1.07839 0
M  V30 12082 H 1156.29 2.93109 -3.56209 0
M  V30 12083 H 1154.53 2.70241 -3.39341 0
M  V30 12084 H 1155.2 4.33603 -3.41603 0
M  V30 12085 H 1157.68 3.86221 -1.54831 0
M  V30 12086 H 1156.55 5.2434 -1.62353 0
M  V30 12087 H 1156.82 4.42 -0.0940349 0
M  V30 12088 N 1155.87 0.935264 1.26849 0
M  V30 12089 C 1157.1 0.596249 1.98122 0
M  V30 12090 C 1157.52 -0.827452 1.69702 0
M  V30 12091 O 1156.87 -1.55095 0.961864 0
M  V30 12092 C 1156.93 0.821773 3.52036 0
M  V30 12093 O 1156.65 2.18947 3.79465 0
M  V30 12094 C 1158.15 0.492498 4.40556 0
M  V30 12095 H 1155.37 0.225242 0.632066 0
M  V30 12096 H 1157.91 1.25435 1.61512 0
M  V30 12097 H 1156.07 0.210363 3.86828 0
M  V30 12098 H 1156.48 2.24509 4.74021 0
M  V30 12099 H 1157.95 0.700953 5.47531 0
M  V30 12100 H 1158.43 -0.57228 4.35456 0
M  V30 12101 H 1159.04 1.08238 4.11296 0
M  V30 12102 N 1157.35 -1.41121 0.701616 0
M  V30 12103 C 1158.58 -2.05973 0.242896 0
M  V30 12104 C 1159 -1.52474 -1.10151 0
M  V30 12105 O 1158.36 -0.654224 -1.69085 0
M  V30 12106 C 1158.41 -3.59943 0.217614 0
M  V30 12107 O 1157.51 -4.04454 -0.805629 0
M  V30 12108 H 1156.85 -0.653581 0.117166 0
M  V30 12109 H 1159.38 -1.80777 0.958175 0
M  V30 12110 H 1159.39 -4.07969 0.0505267 0
M  V30 12111 H 1158.07 -3.98249 1.19877 0
M  V30 12112 H 1156.65 -3.6792 -0.607404 0
M  V30 12113 N 1158.83 -0.446794 -1.51134 0
M  V30 12114 C 1160.06 0.117242 -2.07068 0
M  V30 12115 C 1160.48 1.34877 -1.3111 0
M  V30 12116 O 1159.84 1.77856 -0.35172 0
M  V30 12117 C 1159.89 0.408616 -3.58277 0
M  V30 12118 O 1158.99 1.49345 -3.84408 0
M  V30 12119 H 1158.33 -0.00228458 -0.663996 0
M  V30 12120 H 1160.86 -0.63085 -1.94632 0
M  V30 12121 H 1160.87 0.656298 -4.02687 0
M  V30 12122 H 1159.55 -0.491444 -4.12986 0
M  V30 12123 H 1158.12 1.23499 -3.51856 0
M  V30 12124 N 1160.31 1.56586 -0.178487 0
M  V30 12125 C 1161.59 1.88798 0.511356 0
M  V30 12126 C 1161.97 1.08949 1.80813 0
M  V30 12127 O 1161.31 0.185551 2.27745 0
M  V30 12128 C 1161.52 3.40927 0.746298 0
M  V30 12129 C 1162.87 4.10816 1.0731 0
M  V30 12130 O 1163.9 3.46285 0.834592 0
M  V30 12131 O 1162.75 5.24837 1.52343 0
M  V30 12132 H 1159.85 0.783574 0.264463 0
M  V30 12133 H 1162.39 1.68301 -0.21746 0
M  V30 12134 H 1161.17 3.9093 -0.17015 0
M  V30 12135 H 1160.79 3.67059 1.52817 0
M  V30 12136 N 1161.79 -0.095206 1.57312 0
M  V30 12137 C 1163.02 -0.811092 1.90013 0
M  V30 12138 C 1163.42 -1.72807 0.770359 0
M  V30 12139 O 1162.77 -1.81755 -0.266615 0
M  V30 12140 C 1162.83 -1.67744 3.17966 0
M  V30 12141 C 1162.49 -0.932301 4.47389 0
M  V30 12142 C 1163.49 -0.262161 5.19239 0
M  V30 12143 C 1161.18 -0.906414 4.94054 0
M  V30 12144 C 1163.17 0.423898 6.35989 0
M  V30 12145 C 1160.86 -0.216569 6.10716 0
M  V30 12146 C 1161.85 0.447408 6.81533 0
M  V30 12147 O 1161.54 1.12619 7.95972 0
M  V30 12148 H 1161.27 -0.237154 0.633035 0
M  V30 12149 H 1163.83 -0.0768976 2.05256 0
M  V30 12150 H 1162.06 -2.45387 2.98868 0
M  V30 12151 H 1163.75 -2.26988 3.36498 0
M  V30 12152 H 1164.51 -0.273621 4.84228 0
M  V30 12153 H 1160.39 -1.41267 4.38822 0
M  V30 12154 H 1163.94 0.942727 6.91201 0
M  V30 12155 H 1159.83 -0.202955 6.45181 0
M  V30 12156 H 1160.6 1.03308 8.11954 0
M  V30 12157 N 1163.26 -1.53291 -0.366026 0
M  V30 12158 C 1164.68 -1.43053 -0.707669 0
M  V30 12159 C 1164.88 -0.56925 -1.93292 0
M  V30 12160 O 1163.94 -0.0515214 -2.52447 0
M  V30 12161 C 1165.25 -2.86239 -0.921292 0
M  V30 12162 C 1166.8 -2.95868 -1.02133 0
M  V30 12163 C 1167.27 -4.40114 -1.26743 0
M  V30 12164 N 1168.76 -4.43541 -1.33514 0
M  V30 12165 C 1169.5 -5.52259 -1.54264 0
M  V30 12166 N 1168.99 -6.71024 -1.72335 0
M  V30 12167 N 1170.79 -5.39836 -1.5663 0
M  V30 12168 H 1162.94 -2.07795 0.43988 0
M  V30 12169 H 1165.2 -0.938376 0.134736 0
M  V30 12170 H 1164.91 -3.51578 -0.0928042 0
M  V30 12171 H 1164.78 -3.29862 -1.82951 0
M  V30 12172 H 1167.17 -2.30683 -1.84036 0
M  V30 12173 H 1167.25 -2.5564 -0.0905097 0
M  V30 12174 H 1166.89 -5.05872 -0.453409 0
M  V30 12175 H 1166.82 -4.77914 -2.21146 0
M  V30 12176 H 1169.31 -3.57949 -1.21165 0
M  V30 12177 H 1169.63 -7.49649 -1.8774 0
M  V30 12178 H 1167.97 -6.7401 -1.69514 0
M  V30 12179 H 1171.16 -4.46017 -1.4208 0
M  V30 12180 H 1171.34 -6.24629 -1.72461 0
M  V30 12181 N 1164.74 0.6258 -1.44643 0
M  V30 12182 C 1165.99 1.3873 -1.47925 0
M  V30 12183 C 1166.32 1.93868 -0.113469 0
M  V30 12184 O 1165.6 1.73976 0.869639 0
M  V30 12185 C 1165.88 2.54867 -2.54391 0
M  V30 12186 C 1165.73 2.05044 -4.00346 0
M  V30 12187 C 1167.05 3.57043 -2.57309 0
M  V30 12188 H 1164.17 0.503087 -0.538584 0
M  V30 12189 H 1166.81 0.707102 -1.76352 0
M  V30 12190 H 1164.96 3.12894 -2.30281 0
M  V30 12191 H 1166.63 1.51807 -4.35606 0
M  V30 12192 H 1164.88 1.36185 -4.11869 0
M  V30 12193 H 1165.55 2.88681 -4.70497 0
M  V30 12194 H 1168.02 3.08826 -2.78865 0
M  V30 12195 H 1166.9 4.35818 -3.33698 0
M  V30 12196 H 1167.16 4.11464 -1.61708 0
M  V30 12197 N 1166.22 1.31629 0.866686 0
M  V30 12198 C 1167.15 1.15377 1.98042 0
M  V30 12199 C 1168.17 0.0919633 1.6254 0
M  V30 12200 O 1169.35 0.339775 1.75236 0
M  V30 12201 C 1166.45 0.741295 3.30693 0
M  V30 12202 C 1165.63 1.88882 3.94516 0
M  V30 12203 C 1164.69 1.46186 5.05486 0
M  V30 12204 O 1163.71 2.17202 5.26129 0
M  V30 12205 N 1164.91 0.351096 5.79437 0
M  V30 12206 H 1167.68 2.11309 2.12529 0
M  V30 12207 H 1165.24 1.24007 1.04085 0
M  V30 12208 H 1167.23 0.438313 4.02319 0
M  V30 12209 H 1165.8 -0.12651 3.12344 0
M  V30 12210 H 1165.02 2.35894 3.15828 0
M  V30 12211 H 1166.31 2.65734 4.33892 0
M  V30 12212 H 1165.71 -0.240245 5.6519 0
M  V30 12213 H 1164.27 0.107663 6.51711 0
M  V30 12214 N 1167.7 -1.08142 1.14644 0
M  V30 12215 C 1168.93 -1.84318 0.939926 0
M  V30 12216 C 1169.34 -1.81735 -0.511636 0
M  V30 12217 O 1168.7 -1.22297 -1.35461 0
M  V30 12218 C 1168.75 -3.31744 1.43625 0
M  V30 12219 O 1168.47 -3.3435 2.83094 0
M  V30 12220 C 1169.97 -4.24717 1.27007 0
M  V30 12221 H 1167.19 -0.581781 0.334323 0
M  V30 12222 H 1169.74 -1.36561 1.52221 0
M  V30 12223 H 1167.89 -3.7688 0.896664 0
M  V30 12224 H 1168.31 -4.26399 3.05425 0
M  V30 12225 H 1169.78 -5.26262 1.66591 0
M  V30 12226 H 1170.26 -4.38682 0.213257 0
M  V30 12227 H 1170.86 -3.85409 1.79833 0
M  V30 12228 N 1169.18 -0.941978 -1.26351 0
M  V30 12229 C 1170.41 -0.606748 -1.97803 0
M  V30 12230 C 1170.82 0.818441 -1.70138 0
M  V30 12231 O 1170.18 1.54583 -0.970076 0
M  V30 12232 C 1170.23 -0.840431 -3.51595 0
M  V30 12233 O 1169.95 -2.20957 -3.78299 0
M  V30 12234 C 1171.45 -0.515855 -4.40288 0
M  V30 12235 H 1168.67 -0.228591 -0.630862 0
M  V30 12236 H 1171.21 -1.2629 -1.60845 0
M  V30 12237 H 1169.37 -0.230875 -3.86711 0
M  V30 12238 H 1169.78 -2.2702 -4.72824 0
M  V30 12239 H 1171.26 -0.72998 -5.47152 0
M  V30 12240 H 1171.73 0.549178 -4.35753 0
M  V30 12241 H 1172.34 -1.10417 -4.10717 0
M  V30 12242 N 1170.66 1.40747 -0.709091 0
M  V30 12243 C 1171.88 2.05319 -0.255258 0
M  V30 12244 C 1172.3 1.53406 1.10054 0
M  V30 12245 O 1171.66 0.687905 1.69039 0
M  V30 12246 C 1171.71 3.60835 -0.219251 0
M  V30 12247 O 1171.43 4.1083 -1.52151 0
M  V30 12248 C 1172.93 4.42572 0.253927 0
M  V30 12249 H 1170.15 0.660904 -0.115959 0
M  V30 12250 H 1172.69 1.80274 -0.965474 0
M  V30 12251 H 1170.85 3.84872 0.441882 0
M  V30 12252 H 1171.26 5.04979 -1.41764 0
M  V30 12253 H 1172.74 5.51529 0.22798 0
M  V30 12254 H 1173.21 4.19673 1.29504 0
M  V30 12255 H 1173.82 4.23629 -0.376694 0
M  V30 12256 N 1172.13 0.454803 1.50895 0
M  V30 12257 C 1173.07 -0.393395 2.24784 0
M  V30 12258 C 1174.04 -1.01005 1.27424 0
M  V30 12259 O 1175.23 -1.04914 1.56605 0
M  V30 12260 C 1172.36 -1.54978 3.01164 0
M  V30 12261 C 1171.4 -1.0521 4.1332 0
M  V30 12262 S 1172.23 0.0200486 5.35496 0
M  V30 12263 C 1173.39 -1.14059 6.1542 0
M  V30 12264 H 1173.62 0.233864 2.96379 0
M  V30 12265 H 1171.16 0.239498 1.52531 0
M  V30 12266 H 1173.11 -2.21262 3.45765 0
M  V30 12267 H 1171.78 -2.1485 2.29125 0
M  V30 12268 H 1170.97 -1.91734 4.66105 0
M  V30 12269 H 1170.57 -0.467234 3.7107 0
M  V30 12270 H 1172.86 -2.05552 6.45565 0
M  V30 12271 H 1173.81 -0.652339 7.05089 0
M  V30 12272 H 1174.21 -1.38705 5.47194 0
M  V30 12273 N 1173.61 -1.56489 0.186789 0
M  V30 12274 C 1174.85 -1.99239 -0.456427 0
M  V30 12275 C 1175.22 -1.07076 -1.5937 0
M  V30 12276 O 1176.42 -1.39028 -2.30054 0
M  V30 12277 C 1174.69 -3.45553 -0.912587 0
M  V30 12278 S 1176.25 -4.1033 -1.55481 0
M  V30 12279 H 1173.06 -0.695792 -0.146267 0
M  V30 12280 H 1175.67 -1.93369 0.287899 0
M  V30 12281 H 1174.37 -4.10332 -0.0746877 0
M  V30 12282 H 1173.9 -3.55222 -1.69058 0
M  V30 12283 H 1175.92 -4.06653 -2.84338 0
M  V30 12284 N 1175.09 0.086862 -1.5736 0
M  V30 12285 C 1176.34 0.790008 -1.8678 0
M  V30 12286 C 1176.67 1.77977 -0.777042 0
M  V30 12287 O 1175.94 1.93317 0.21419 0
M  V30 12288 C 1176.23 1.51143 -3.26845 0
M  V30 12289 C 1176.08 0.539106 -4.46558 0
M  V30 12290 C 1177.4 2.46003 -3.64926 0
M  V30 12291 H 1174.52 0.285741 -0.679354 0
M  V30 12292 H 1177.16 0.0534655 -1.89925 0
M  V30 12293 H 1175.31 2.13928 -3.24295 0
M  V30 12294 H 1176.98 -0.0823679 -4.61226 0
M  V30 12295 H 1175.22 -0.146842 -4.33551 0
M  V30 12296 H 1175.9 1.0812 -5.41308 0
M  V30 12297 H 1178.37 1.93306 -3.68473 0
M  V30 12298 H 1177.25 2.93493 -4.63846 0
M  V30 12299 H 1177.51 3.30133 -2.94049 0
M  V30 12300 N 1176.57 1.53483 0.357892 0
M  V30 12301 C 1177.79 1.74264 1.12458 0
M  V30 12302 C 1178.22 0.473944 1.82031 0
M  V30 12303 O 1177.58 -0.57253 1.72023 0
M  V30 12304 C 1177.62 2.91356 2.12471 0
M  V30 12305 O 1176.73 2.60502 3.19707 0
M  V30 12306 H 1176.07 0.578499 0.325937 0
M  V30 12307 H 1178.6 2.00395 0.412666 0
M  V30 12308 H 1178.61 3.1774 2.5594 0
M  V30 12309 H 1177.28 3.83378 1.61226 0
M  V30 12310 H 1175.86 2.44961 2.81156 0
M  V30 12311 N 1178.05 -0.61812 1.44973 0
M  V30 12312 C 1179.29 -1.37944 1.48658 0
M  V30 12313 C 1179.62 -1.93805 0.123749 0
M  V30 12314 O 1178.9 -1.74434 -0.860401 0
M  V30 12315 C 1179.18 -2.53515 2.55739 0
M  V30 12316 C 1179.04 -2.02918 4.01428 0
M  V30 12317 C 1180.35 -3.55674 2.59199 0
M  V30 12318 H 1177.47 -0.500223 0.541244 0
M  V30 12319 H 1180.12 -0.69774 1.76725 0
M  V30 12320 H 1178.27 -3.11669 2.31937 0
M  V30 12321 H 1179.94 -1.49494 4.36405 0
M  V30 12322 H 1178.18 -1.33999 4.12586 0
M  V30 12323 H 1178.85 -2.86181 4.72021 0
M  V30 12324 H 1181.33 -3.07343 2.80499 0
M  V30 12325 H 1180.2 -4.34042 3.36004 0
M  V30 12326 H 1180.46 -4.10601 1.63888 0
M  V30 12327 N 1179.52 -1.32087 -0.859693 0
M  V30 12328 C 1180.75 -1.25486 -1.6513 0
M  V30 12329 C 1181.17 0.175015 -1.87284 0
M  V30 12330 O 1180.53 1.12468 -1.42199 0
M  V30 12331 C 1180.58 -2.01469 -2.9907 0
M  V30 12332 O 1179.68 -1.35904 -3.89363 0
M  V30 12333 H 1179.02 -0.432728 -0.503629 0
M  V30 12334 H 1181.55 -1.74322 -1.07112 0
M  V30 12335 H 1181.56 -2.11452 -3.4893 0
M  V30 12336 H 1180.24 -3.05448 -2.82266 0
M  V30 12337 H 1178.82 -1.34437 -3.47823 0
M  V30 12338 N 1181 1.07532 -1.15215 0
M  V30 12339 C 1181.93 2.1668 -0.870171 0
M  V30 12340 C 1182.91 1.69161 0.178483 0
M  V30 12341 O 1184.1 1.94172 0.0332489 0
M  V30 12342 C 1181.23 3.45464 -0.356666 0
M  V30 12343 C 1180.18 4.06424 -1.34179 0
M  V30 12344 C 1179.51 5.30266 -0.687206 0
M  V30 12345 C 1180.81 4.46666 -2.70715 0
M  V30 12346 H 1182.5 2.40526 -1.7829 0
M  V30 12347 H 1180.05 1.15598 -0.858665 0
M  V30 12348 H 1182 4.21144 -0.146947 0
M  V30 12349 H 1180.72 3.21199 0.591527 0
M  V30 12350 H 1179.38 3.32786 -1.53783 0
M  V30 12351 H 1179.03 5.0229 0.267077 0
M  V30 12352 H 1178.73 5.72009 -1.34462 0
M  V30 12353 H 1180.26 6.08653 -0.487218 0
M  V30 12354 H 1181.67 5.13483 -2.54966 0
M  V30 12355 H 1180.07 4.99355 -3.32813 0
M  V30 12356 H 1181.14 3.58123 -3.26919 0
M  V30 12357 N 1182.48 0.948665 1.2585 0
M  V30 12358 C 1183.71 0.616741 1.98018 0
M  V30 12359 C 1184.13 -0.803005 1.70098 0
M  V30 12360 O 1183.49 -1.54208 0.953392 0
M  V30 12361 C 1183.54 0.874429 3.49837 0
M  V30 12362 O 1182.64 -0.0497568 4.1237 0
M  V30 12363 H 1181.98 0.235112 0.620982 0
M  V30 12364 H 1184.51 1.27364 1.60124 0
M  V30 12365 H 1184.52 0.798309 4.00114 0
M  V30 12366 H 1183.2 1.90922 3.69488 0
M  V30 12367 H 1181.77 0.0780591 3.72818 0
M  V30 12368 N 1183.96 -1.40369 0.716545 0
M  V30 12369 C 1185.21 -2.00473 0.255959 0
M  V30 12370 C 1185.53 -1.57104 -1.15514 0
M  V30 12371 O 1184.8 -0.810925 -1.78328 0
M  V30 12372 H 1183.38 -0.741357 0.0916427 0
M  V30 12373 H 1186.04 -1.71692 0.922389 0
M  V30 12374 H 1185.14 -3.10752 0.289806 0
M  V30 12375 N 1185.44 -0.462799 -1.50652 0
M  V30 12376 C 1186.66 0.0952726 -2.07181 0
M  V30 12377 C 1187.09 1.33479 -1.32533 0
M  V30 12378 O 1186.44 1.77473 -0.370564 0
M  V30 12379 C 1186.49 0.370592 -3.58691 0
M  V30 12380 O 1185.6 1.4526 -3.85971 0
M  V30 12381 H 1184.94 -0.00932702 -0.663934 0
M  V30 12382 H 1187.47 -0.651458 -1.93951 0
M  V30 12383 H 1187.48 0.613551 -4.0336 0
M  V30 12384 H 1186.15 -0.535219 -4.12442 0
M  V30 12385 H 1184.73 1.1976 -3.53146 0
M  V30 12386 N 1186.91 1.56388 -0.195085 0
M  V30 12387 C 1188.16 1.97872 0.444344 0
M  V30 12388 C 1188.49 1.0819 1.61271 0
M  V30 12389 O 1187.77 0.133904 1.94039 0
M  V30 12390 C 1188.05 3.48556 0.90449 0
M  V30 12391 C 1187.9 4.49015 -0.265693 0
M  V30 12392 C 1189.22 4.02938 1.76999 0
M  V30 12393 H 1186.34 0.719413 0.160041 0
M  V30 12394 H 1188.98 1.87835 -0.286005 0
M  V30 12395 H 1187.13 3.5724 1.52682 0
M  V30 12396 H 1188.81 4.52368 -0.903363 0
M  V30 12397 H 1187.05 4.23987 -0.917462 0
M  V30 12398 H 1187.72 5.51912 0.0987834 0
M  V30 12399 H 1190.2 3.97033 1.24514 0
M  V30 12400 H 1189.07 5.08741 2.06092 0
M  V30 12401 H 1189.33 3.48197 2.72418 0
M  V30 12402 N 1188.39 -0.0785156 1.57404 0
M  V30 12403 C 1189.64 -0.780092 1.87196 0
M  V30 12404 C 1189.97 -1.77562 0.78647 0
M  V30 12405 O 1189.25 -1.93428 -0.203935 0
M  V30 12406 C 1189.53 -1.49408 3.27642 0
M  V30 12407 C 1189.38 -0.515416 4.46837 0
M  V30 12408 C 1190.7 -2.44064 3.66225 0
M  V30 12409 H 1187.82 -0.282134 0.680859 0
M  V30 12410 H 1190.46 -0.0433926 1.8995 0
M  V30 12411 H 1188.61 -2.12205 3.25425 0
M  V30 12412 H 1190.28 0.106827 4.61176 0
M  V30 12413 H 1188.53 0.169832 4.33467 0
M  V30 12414 H 1189.2 -1.05247 5.41874 0
M  V30 12415 H 1191.67 -1.91349 3.69493 0
M  V30 12416 H 1190.55 -2.91029 4.65396 0
M  V30 12417 H 1190.81 -3.28569 2.95796 0
M  V30 12418 N 1189.87 -1.5367 -0.349747 0
M  V30 12419 C 1190.8 -1.84208 -1.43492 0
M  V30 12420 C 1191.78 -0.696725 -1.55177 0
M  V30 12421 O 1192.97 -0.948061 -1.69486 0
M  V30 12422 C 1190.1 -2.04613 -2.80625 0
M  V30 12423 C 1189.05 -3.20419 -2.83753 0
M  V30 12424 C 1188.38 -3.26147 -4.23713 0
M  V30 12425 C 1189.68 -4.58666 -2.49846 0
M  V30 12426 H 1191.37 -2.75087 -1.18185 0
M  V30 12427 H 1188.92 -1.32363 -0.567101 0
M  V30 12428 H 1190.87 -2.2456 -3.56582 0
M  V30 12429 H 1189.59 -1.10459 -3.07354 0
M  V30 12430 H 1188.25 -3.00318 -2.10249 0
M  V30 12431 H 1187.9 -2.29599 -4.47541 0
M  V30 12432 H 1187.6 -4.03963 -4.26717 0
M  V30 12433 H 1189.12 -3.48296 -5.0152 0
M  V30 12434 H 1190.54 -4.78668 -3.15516 0
M  V30 12435 H 1188.94 -5.3884 -2.64144 0
M  V30 12436 H 1190.01 -4.62697 -1.4505 0
M  V30 12437 N 1191.35 0.610423 -1.45298 0
M  V30 12438 C 1192.6 1.3668 -1.48872 0
M  V30 12439 C 1192.92 1.94562 -0.130686 0
M  V30 12440 O 1192.19 1.76996 0.839607 0
M  V30 12441 H 1190.77 0.507393 -0.548235 0
M  V30 12442 H 1193.43 0.716997 -1.81232 0
M  V30 12443 H 1192.53 2.18766 -2.22593 0
M  V30 12444 N 1192.83 1.32541 0.852676 0
M  V30 12445 C 1194.07 1.24532 1.62083 0
M  V30 12446 C 1194.43 -0.189531 1.91062 0
M  V30 12447 O 1195.63 -0.393382 2.65906 0
M  V30 12448 C 1193.9 2.0828 2.90438 0
M  V30 12449 S 1195.46 2.17317 3.81207 0
M  V30 12450 H 1192.28 0.443261 0.555915 0
M  V30 12451 H 1194.88 1.67413 1.00961 0
M  V30 12452 H 1193.59 3.11587 2.67099 0
M  V30 12453 H 1193.12 1.66184 3.56576 0
M  V30 12454 H 1195.13 1.32412 4.78207 0
M  V30 12455 N 1194.3 -1.0692 1.15784 0
M  V30 12456 C 1195.23 -2.16216 0.881649 0
M  V30 12457 C 1196.22 -1.69253 -0.16951 0
M  V30 12458 O 1197.4 -1.94186 -0.0229511 0
M  V30 12459 C 1194.53 -3.4527 0.374982 0
M  V30 12460 C 1193.48 -4.05706 1.36332 0
M  V30 12461 C 1192.81 -5.29894 0.715317 0
M  V30 12462 C 1194.11 -4.45224 2.7308 0
M  V30 12463 H 1195.8 -2.39577 1.79563 0
M  V30 12464 H 1193.35 -1.15141 0.864784 0
M  V30 12465 H 1195.3 -4.2106 0.169279 0
M  V30 12466 H 1194.03 -3.21508 -0.574485 0
M  V30 12467 H 1192.69 -3.31965 1.55546 0
M  V30 12468 H 1192.33 -5.02425 -0.240436 0
M  V30 12469 H 1192.03 -5.71287 1.37494 0
M  V30 12470 H 1193.56 -6.08386 0.519489 0
M  V30 12471 H 1194.97 -5.12124 2.57686 0
M  V30 12472 H 1193.37 -4.97583 3.35457 0
M  V30 12473 H 1194.44 -3.56384 3.28813 0
M  V30 12474 N 1195.78 -0.955326 -1.25345 0
M  V30 12475 C 1197.03 -0.610484 -1.93079 0
M  V30 12476 C 1197.36 0.852591 -1.74817 0
M  V30 12477 O 1196.61 1.6272 -1.08723 0
M  V30 12478 C 1196.91 -0.916173 -3.45458 0
M  V30 12479 C 1196.58 -2.36539 -3.83875 0
M  V30 12480 C 1195.24 -2.76152 -3.94073 0
M  V30 12481 C 1197.59 -3.30652 -4.02888 0
M  V30 12482 C 1194.92 -4.08944 -4.20692 0
M  V30 12483 C 1197.27 -4.63057 -4.31 0
M  V30 12484 C 1195.94 -5.02464 -4.39415 0
M  V30 12485 H 1195.21 -0.223392 -0.706525 0
M  V30 12486 H 1197.85 -1.20449 -1.48877 0
M  V30 12487 H 1196.16 -0.23978 -3.91066 0
M  V30 12488 H 1197.85 -0.627929 -3.96053 0
M  V30 12489 H 1194.44 -2.04819 -3.76493 0
M  V30 12490 H 1198.63 -3.01237 -3.94423 0
M  V30 12491 H 1193.88 -4.39118 -4.25423 0
M  V30 12492 H 1198.06 -5.3596 -4.44657 0
M  V30 12493 H 1195.69 -6.05386 -4.59795 0
M  V30 12494 N 1197.26 1.39987 -0.723979 0
M  V30 12495 C 1198.22 2.29041 -0.0854583 0
M  V30 12496 C 1199.22 1.45777 0.678657 0
M  V30 12497 O 1200.41 1.66588 0.509311 0
M  V30 12498 C 1197.55 3.29115 0.88859 0
M  V30 12499 H 1198.74 2.87006 -0.869903 0
M  V30 12500 H 1196.29 1.48449 -0.489136 0
M  V30 12501 H 1197.03 2.76184 1.69979 0
M  V30 12502 H 1196.81 3.90593 0.343454 0
M  V30 12503 H 1198.3 3.95778 1.33227 0
M  V30 12504 N 1198.74 0.470782 1.50404 0
M  V30 12505 C 1200.15 0.0155901 1.86693 0
M  V30 12506 C 1200.5 -1.38908 1.38561 0
M  V30 12507 O 1199.63 -2.02971 0.750454 0
M  V30 12508 C 1200.22 0.0215152 3.38793 0
M  V30 12509 C 1198.78 -0.378206 3.74495 0
M  V30 12510 C 1197.93 0.407126 2.74295 0
M  V30 12511 H 1200.88 0.68507 1.43152 0
M  V30 12512 H 1200.9 -0.780717 3.72404 0
M  V30 12513 H 1200.41 1.04397 3.73795 0
M  V30 12514 H 1198.51 -1.40503 3.45094 0
M  V30 12515 H 1198.63 -0.0797643 4.79034 0
M  V30 12516 H 1196.99 -0.139123 2.5432 0
M  V30 12517 H 1197.77 1.42909 3.12141 0
M  V30 12518 N 1200.22 -1.56282 0.203376 0
M  V30 12519 C 1201.16 -2.19473 -0.714164 0
M  V30 12520 C 1202.13 -1.14454 -1.20372 0
M  V30 12521 O 1203.32 -1.42739 -1.26611 0
M  V30 12522 C 1200.46 -2.86451 -1.92457 0
M  V30 12523 C 1199.57 -4.06017 -1.47561 0
M  V30 12524 C 1198.71 -4.60829 -2.64216 0
M  V30 12525 C 1197.75 -5.72734 -2.15967 0
M  V30 12526 N 1196.88 -6.21916 -3.25829 0
M  V30 12527 H 1201.72 -2.97523 -0.168558 0
M  V30 12528 H 1199.26 -1.46926 -0.0714525 0
M  V30 12529 H 1201.22 -3.23459 -2.63496 0
M  V30 12530 H 1199.85 -2.10951 -2.44335 0
M  V30 12531 H 1198.9 -3.74617 -0.660784 0
M  V30 12532 H 1200.21 -4.8693 -1.08168 0
M  V30 12533 H 1199.37 -5.00185 -3.43366 0
M  V30 12534 H 1198.11 -3.7904 -3.06887 0
M  V30 12535 H 1197.11 -5.32899 -1.35273 0
M  V30 12536 H 1198.34 -6.56346 -1.74316 0
M  V30 12537 H 1196.28 -5.43047 -3.68016 0
M  V30 12538 H 1196.2 -6.97904 -2.90631 0
M  V30 12539 H 1197.47 -6.65927 -4.05168 0
M  V30 12540 N 1201.7 0.070167 -1.57444 0
M  V30 12541 C 1202.63 1.08351 -2.06839 0
M  V30 12542 C 1203.61 1.40269 -0.962224 0
M  V30 12543 O 1204.79 1.49867 -1.23505 0
M  V30 12544 C 1201.92 2.39649 -2.51368 0
M  V30 12545 C 1200.88 2.22079 -3.65875 0
M  V30 12546 C 1200.2 3.58776 -3.96464 0
M  V30 12547 C 1201.5 1.64069 -4.95862 0
M  V30 12548 H 1203.2 0.672465 -2.9175 0
M  V30 12549 H 1200.74 0.322027 -1.40353 0
M  V30 12550 H 1202.69 3.10833 -2.84537 0
M  V30 12551 H 1201.42 2.82736 -1.63487 0
M  V30 12552 H 1200.08 1.53337 -3.32992 0
M  V30 12553 H 1199.73 3.99436 -3.05712 0
M  V30 12554 H 1199.43 3.47859 -4.7357 0
M  V30 12555 H 1200.95 4.31387 -4.32131 0
M  V30 12556 H 1202.36 2.2512 -5.27251 0
M  V30 12557 H 1200.76 1.63843 -5.773 0
M  V30 12558 H 1201.83 0.60232 -4.81145 0
M  V30 12559 N 1203.17 1.53854 0.341593 0
M  V30 12560 C 1204.12 1.7836 1.42028 0
M  V30 12561 C 1205.11 0.638876 1.47673 0
M  V30 12562 O 1206.3 0.898328 1.52509 0
M  V30 12563 C 1203.43 1.99837 2.79142 0
M  V30 12564 C 1202.51 3.20379 2.77881 0
M  V30 12565 N 1202.91 4.41809 2.46249 0
M  V30 12566 C 1201.2 3.21588 3.09026 0
M  V30 12567 C 1201.9 5.23668 2.53271 0
M  V30 12568 N 1200.88 4.60429 2.88974 0
M  V30 12569 H 1204.68 2.69836 1.16472 0
M  V30 12570 H 1202.2 1.52804 0.549966 0
M  V30 12571 H 1204.19 2.15528 3.56866 0
M  V30 12572 H 1202.85 1.09603 3.05642 0
M  V30 12573 H 1203.86 4.69125 2.19413 0
M  V30 12574 H 1200.54 2.41329 3.40686 0
M  V30 12575 H 1201.93 6.30591 2.31958 0
M  V30 12576 N 1204.65 -0.602709 1.4562 0
M  V30 12577 C 1205.9 -1.35769 1.49163 0
M  V30 12578 C 1206.21 -1.95102 0.139485 0
M  V30 12579 O 1207.42 -2.71449 0.0525919 0
M  V30 12580 C 1205.88 -2.45959 2.62739 0
M  V30 12581 C 1205.48 -1.93017 4.04288 0
M  V30 12582 C 1207.23 -3.22926 2.75534 0
M  V30 12583 C 1205.13 -3.00718 5.09237 0
M  V30 12584 H 1204.06 -0.510317 0.555061 0
M  V30 12585 H 1206.72 -0.645434 1.71774 0
M  V30 12586 H 1205.1 -3.19892 2.3342 0
M  V30 12587 H 1206.27 -1.2576 4.43307 0
M  V30 12588 H 1204.59 -1.2878 3.95986 0
M  V30 12589 H 1207.18 -4.03267 3.51112 0
M  V30 12590 H 1207.53 -3.74243 1.82339 0
M  V30 12591 H 1208.06 -2.56095 3.04402 0
M  V30 12592 H 1204.8 -2.54312 6.04157 0
M  V30 12593 H 1204.32 -3.66526 4.74783 0
M  V30 12594 H 1206 -3.65016 5.34202 0
M  V30 12595 N 1206.13 -1.32992 -0.845635 0
M  V30 12596 C 1207.38 -1.23415 -1.59536 0
M  V30 12597 C 1207.69 0.200278 -1.94572 0
M  V30 12598 O 1208.9 0.417993 -2.68263 0
M  V30 12599 C 1207.35 -2.16207 -2.8772 0
M  V30 12600 C 1206.96 -3.64782 -2.60073 0
M  V30 12601 C 1208.71 -2.15488 -3.65739 0
M  V30 12602 C 1206.61 -4.49508 -3.84313 0
M  V30 12603 H 1205.54 -0.458366 -0.598679 0
M  V30 12604 H 1208.19 -1.58012 -0.932981 0
M  V30 12605 H 1206.58 -1.74535 -3.55462 0
M  V30 12606 H 1207.75 -4.14852 -2.00585 0
M  V30 12607 H 1206.06 -3.67723 -1.95369 0
M  V30 12608 H 1208.66 -2.76021 -4.57948 0
M  V30 12609 H 1209 -1.14818 -4.00153 0
M  V30 12610 H 1209.54 -2.55487 -3.04912 0
M  V30 12611 H 1206.28 -5.51027 -3.55035 0
M  V30 12612 H 1205.8 -4.04185 -4.43165 0
M  V30 12613 H 1207.48 -4.62969 -4.51961 0
M  V30 12614 N 1207.61 1.06304 -1.1635 0
M  V30 12615 C 1208.54 2.15745 -0.893103 0
M  V30 12616 C 1209.52 1.69341 0.160531 0
M  V30 12617 O 1210.7 1.94196 0.0126526 0
M  V30 12618 C 1207.83 3.45066 -0.393287 0
M  V30 12619 C 1206.79 4.04978 -1.38482 0
M  V30 12620 C 1206.11 5.29507 -0.743409 0
M  V30 12621 C 1207.41 4.4377 -2.75438 0
M  V30 12622 H 1209.11 2.38622 -1.80831 0
M  V30 12623 H 1206.65 1.14681 -0.870878 0
M  V30 12624 H 1208.61 4.20964 -0.191607 0
M  V30 12625 H 1207.33 3.21808 0.557426 0
M  V30 12626 H 1205.99 3.31136 -1.57304 0
M  V30 12627 H 1205.64 5.02545 0.213787 0
M  V30 12628 H 1205.34 5.7055 -1.40521 0
M  V30 12629 H 1206.86 6.08102 -0.551746 0
M  V30 12630 H 1208.28 5.1075 -2.60398 0
M  V30 12631 H 1206.67 4.95797 -3.38091 0
M  V30 12632 H 1207.74 3.54636 -3.30699 0
M  V30 12633 N 1209.09 0.96196 1.24836 0
M  V30 12634 C 1210.33 0.620715 1.92752 0
M  V30 12635 C 1210.66 -0.843308 1.75267 0
M  V30 12636 O 1209.92 -1.62141 1.09584 0
M  V30 12637 C 1210.21 0.934481 3.44967 0
M  V30 12638 C 1209.88 2.38572 3.82615 0
M  V30 12639 C 1208.54 2.78238 3.92603 0
M  V30 12640 C 1210.89 3.32784 4.01129 0
M  V30 12641 C 1208.22 4.11169 4.18518 0
M  V30 12642 C 1210.57 4.65336 4.28539 0
M  V30 12643 C 1209.24 5.04788 4.36745 0
M  V30 12644 H 1208.51 0.227136 0.70533 0
M  V30 12645 H 1211.16 1.21237 1.48236 0
M  V30 12646 H 1209.46 0.260516 3.90933 0
M  V30 12647 H 1211.16 0.648923 3.95715 0
M  V30 12648 H 1207.75 2.06812 3.75402 0
M  V30 12649 H 1211.93 3.03325 3.9282 0
M  V30 12650 H 1207.19 4.41368 4.23089 0
M  V30 12651 H 1211.36 5.3831 4.41809 0
M  V30 12652 H 1208.99 6.07816 4.56579 0
M  V30 12653 N 1210.56 -1.39601 0.731392 0
M  V30 12654 C 1211.5 -2.29147 0.0494974 0
M  V30 12655 C 1212.51 -1.46635 -0.707248 0
M  V30 12656 O 1213.7 -1.6975 -0.552008 0
M  V30 12657 C 1210.8 -3.25191 -0.954152 0
M  V30 12658 C 1209.97 -4.36629 -0.259674 0
M  V30 12659 C 1209.03 -5.13007 -1.17092 0
M  V30 12660 O 1208.06 -5.65479 -0.64976 0
M  V30 12661 N 1209.26 -5.23865 -2.50092 0
M  V30 12662 H 1212.02 -2.88308 0.818433 0
M  V30 12663 H 1209.58 -1.51142 0.580316 0
M  V30 12664 H 1211.58 -3.73161 -1.56629 0
M  V30 12665 H 1210.15 -2.67085 -1.62432 0
M  V30 12666 H 1209.37 -3.90582 0.532888 0
M  V30 12667 H 1210.65 -5.08317 0.221753 0
M  V30 12668 H 1210.05 -4.82745 -2.94913 0
M  V30 12669 H 1208.61 -5.75288 -3.0641 0
M  V30 12670 N 1212.04 -0.478751 -1.50152 0
M  V30 12671 C 1213.45 -0.0254907 -1.86683 0
M  V30 12672 C 1213.8 1.38171 -1.39295 0
M  V30 12673 O 1212.93 2.0257 -0.761207 0
M  V30 12674 C 1213.52 -0.0394819 -3.38777 0
M  V30 12675 C 1212.08 0.35834 -3.7469 0
M  V30 12676 C 1211.23 -0.421667 -2.74075 0
M  V30 12677 H 1214.18 -0.692653 -1.42787 0
M  V30 12678 H 1214.2 0.760957 -3.72813 0
M  V30 12679 H 1213.71 -1.06378 -3.73236 0
M  V30 12680 H 1211.82 1.38671 -3.45834 0
M  V30 12681 H 1211.93 0.0543589 -4.79069 0
M  V30 12682 H 1210.29 0.125634 -2.5439 0
M  V30 12683 H 1211.08 -1.44562 -3.11379 0
M  V30 12684 N 1213.52 1.56172 -0.211661 0
M  V30 12685 C 1214.45 2.17107 0.734657 0
M  V30 12686 C 1215.47 1.1374 1.16478 0
M  V30 12687 O 1216.65 1.40763 1.09764 0
M  V30 12688 C 1213.75 2.73182 2.00561 0
M  V30 12689 C 1212.93 4.0162 1.73264 0
M  V30 12690 C 1211.99 4.42357 2.84968 0
M  V30 12691 O 1211.01 5.09453 2.53863 0
M  V30 12692 N 1212.21 4.07223 4.13702 0
M  V30 12693 H 1214.98 2.98939 0.213475 0
M  V30 12694 H 1212.54 1.61872 -0.0302898 0
M  V30 12695 H 1214.53 2.97411 2.74461 0
M  V30 12696 H 1213.1 1.9571 2.43754 0
M  V30 12697 H 1212.32 3.85351 0.830575 0
M  V30 12698 H 1213.61 4.85426 1.52445 0
M  V30 12699 H 1213.01 3.53286 4.4182 0
M  V30 12700 H 1211.57 4.36366 4.84178 0
M  V30 12701 N 1215 -0.0618163 1.57479 0
M  V30 12702 C 1215.95 -1.0724 2.04373 0
M  V30 12703 C 1216.92 -1.37875 0.926271 0
M  V30 12704 O 1218.1 -1.48772 1.19463 0
M  V30 12705 C 1215.24 -2.37805 2.50085 0
M  V30 12706 C 1214.35 -2.13614 3.7549 0
M  V30 12707 C 1213.49 -3.37814 4.09945 0
M  V30 12708 C 1212.53 -3.09032 5.28361 0
M  V30 12709 N 1211.66 -4.25591 5.58406 0
M  V30 12710 H 1216.5 -0.665536 2.90473 0
M  V30 12711 H 1214.04 -0.317043 1.43643 0
M  V30 12712 H 1216 -3.14048 2.74644 0
M  V30 12713 H 1214.63 -2.76275 1.66948 0
M  V30 12714 H 1213.68 -1.28017 3.58212 0
M  V30 12715 H 1214.99 -1.88361 4.61867 0
M  V30 12716 H 1214.15 -4.22447 4.35458 0
M  V30 12717 H 1212.89 -3.66153 3.22154 0
M  V30 12718 H 1211.89 -2.22797 5.02635 0
M  V30 12719 H 1213.12 -2.82006 6.17778 0
M  V30 12720 H 1211.06 -4.53941 4.73575 0
M  V30 12721 H 1210.98 -4.03646 6.39223 0
M  V30 12722 H 1212.25 -5.11191 5.88476 0
M  V30 12723 N 1216.48 -1.54033 -0.333429 0
M  V30 12724 C 1217.42 -1.83441 -1.43011 0
M  V30 12725 C 1218.42 -0.705592 -1.54006 0
M  V30 12726 O 1219.62 -0.889098 -1.56509 0
M  V30 12727 H 1216 -0.581326 -0.477037 0
M  V30 12728 H 1217.97 -2.75172 -1.15426 0
M  V30 12729 C 1216.72 -2.0698 -2.79382 0
M  V30 12730 H 1216.04 -2.93297 -2.71692 0
M  V30 12731 H 1217.48 -2.31517 -3.55212 0
M  V30 12732 C 1215.94 -0.85835 -3.25782 0
M  V30 12733 O 1216.47 -0.062739 -4.01651 0
M  V30 12734 N 1214.68 -0.672738 -2.82706 0
M  V30 12735 H 1214.22 -1.32136 -2.21128 0
M  V30 12736 H 1214.18 0.136347 -3.14104 0
M  V30 12737 N 1217.95 0.594978 -1.45938 0
M  V30 12738 C 1219.2 1.35561 -1.50834 0
M  V30 12739 C 1219.53 1.93584 -0.154566 0
M  V30 12740 O 1218.81 1.75781 0.832541 0
M  V30 12741 C 1219.09 2.49414 -2.5974 0
M  V30 12742 C 1218.94 1.96506 -4.04605 0
M  V30 12743 C 1220.26 3.51505 -2.64825 0
M  V30 12744 H 1217.38 0.491549 -0.549134 0
M  V30 12745 H 1220.02 0.669536 -1.77812 0
M  V30 12746 H 1218.17 3.07939 -2.36866 0
M  V30 12747 H 1219.85 1.42533 -4.38728 0
M  V30 12748 H 1218.09 1.27418 -4.14665 0
M  V30 12749 H 1218.76 2.78636 -4.76515 0
M  V30 12750 H 1221.24 3.02841 -2.85353 0
M  V30 12751 H 1220.11 4.28641 -3.42867 0
M  V30 12752 H 1220.37 4.07942 -1.70399 0
M  V30 12753 N 1219.43 1.33438 0.838571 0
M  V30 12754 C 1220.68 1.25097 1.5962 0
M  V30 12755 C 1221.01 -0.182798 1.93338 0
M  V30 12756 O 1220.29 -1.1242 1.5872 0
M  V30 12757 C 1220.57 2.12655 2.90603 0
M  V30 12758 C 1220.42 3.64491 2.63565 0
M  V30 12759 C 1221.74 1.99994 3.92033 0
M  V30 12760 H 1218.86 0.455776 0.579169 0
M  V30 12761 H 1221.5 1.63542 0.967169 0
M  V30 12762 H 1219.65 1.79998 3.44286 0
M  V30 12763 H 1221.32 4.0744 2.16312 0
M  V30 12764 H 1219.57 3.86356 1.9726 0
M  V30 12765 H 1220.24 4.21101 3.569 0
M  V30 12766 H 1222.71 2.28635 3.47657 0
M  V30 12767 H 1221.59 2.63509 4.81512 0
M  V30 12768 H 1221.85 0.972263 4.31277 0
M  V30 12769 N 1220.91 -1.05686 1.16912 0
M  V30 12770 C 1222.14 -1.82821 0.979348 0
M  V30 12771 C 1222.56 -1.82196 -0.467575 0
M  V30 12772 O 1221.92 -1.22727 -1.33445 0
M  V30 12773 C 1221.97 -3.2705 1.51891 0
M  V30 12774 O 1221.07 -4.05899 0.729341 0
M  V30 12775 H 1220.41 -0.565455 0.348076 0
M  V30 12776 H 1222.94 -1.33211 1.55293 0
M  V30 12777 H 1222.95 -3.77859 1.53904 0
M  V30 12778 H 1221.63 -3.26819 2.5722 0
M  V30 12779 H 1220.2 -3.64646 0.780221 0
M  V30 12780 N 1222.39 -0.968567 -1.24324 0
M  V30 12781 C 1223.34 -0.470481 -2.23093 0
M  V30 12782 C 1224.32 0.447989 -1.54538 0
M  V30 12783 O 1225.51 0.27877 -1.74791 0
M  V30 12784 C 1222.64 0.237222 -3.42479 0
M  V30 12785 C 1221.73 -0.700126 -4.18281 0
M  V30 12786 N 1222.12 -1.83775 -4.71233 0
M  V30 12787 C 1220.42 -0.51108 -4.43062 0
M  V30 12788 C 1221.12 -2.42411 -5.28783 0
M  V30 12789 N 1220.1 -1.70918 -5.16031 0
M  V30 12790 H 1223.9 -1.33848 -2.61652 0
M  V30 12791 H 1221.41 -0.827764 -1.39721 0
M  V30 12792 H 1223.41 0.61128 -4.12394 0
M  V30 12793 H 1222.07 1.10166 -3.0544 0
M  V30 12794 H 1223.08 -2.21926 -4.67942 0
M  V30 12795 H 1219.76 0.309316 -4.16353 0
M  V30 12796 H 1221.15 -3.38417 -5.80451 0
M  V30 12797 N 1223.87 1.39211 -0.738786 0
M  V30 12798 C 1225.28 1.54116 -0.414773 0
M  V30 12799 C 1225.48 1.70497 1.07392 0
M  V30 12800 O 1224.54 1.7076 1.86003 0
M  V30 12801 C 1225.85 2.7567 -1.2011 0
M  V30 12802 C 1227.4 2.89508 -1.1897 0
M  V30 12803 C 1227.87 4.14005 -1.95868 0
M  V30 12804 N 1229.37 4.21052 -1.93053 0
M  V30 12805 C 1230.1 5.16341 -2.49358 0
M  V30 12806 N 1229.6 6.17396 -3.14316 0
M  V30 12807 N 1231.39 5.08585 -2.3937 0
M  V30 12808 H 1223.54 1.26827 -1.70378 0
M  V30 12809 H 1225.8 0.614983 -0.721457 0
M  V30 12810 H 1225.51 2.69922 -2.25467 0
M  V30 12811 H 1225.38 3.68443 -0.808065 0
M  V30 12812 H 1227.77 2.94747 -0.144248 0
M  V30 12813 H 1227.85 1.97788 -1.62214 0
M  V30 12814 H 1227.5 4.09527 -3.00416 0
M  V30 12815 H 1227.43 5.04776 -1.50028 0
M  V30 12816 H 1229.92 3.48669 -1.45733 0
M  V30 12817 H 1230.23 6.86572 -3.54737 0
M  V30 12818 H 1228.57 6.17772 -3.18407 0
M  V30 12819 H 1231.77 4.28573 -1.88262 0
M  V30 12820 H 1231.94 5.8267 -2.83549 0
M  V30 12821 N 1225.34 0.486708 1.49896 0
M  V30 12822 C 1226.31 -0.288126 2.27382 0
M  V30 12823 C 1227.31 -0.906675 1.32801 0
M  V30 12824 O 1228.5 -0.773425 1.56089 0
M  V30 12825 C 1225.63 -1.41194 3.10285 0
M  V30 12826 H 1226.82 0.391618 2.97332 0
M  V30 12827 H 1224.38 0.24123 1.54427 0
M  V30 12828 H 1225.11 -2.12627 2.44868 0
M  V30 12829 H 1224.9 -0.974033 3.79809 0
M  V30 12830 H 1226.39 -1.95812 3.68846 0
M  V30 12831 N 1226.82 -1.56058 0.219941 0
M  V30 12832 C 1228.23 -1.84462 -0.288203 0
M  V30 12833 C 1228.59 -1.14128 -1.59591 0
M  V30 12834 O 1227.71 -0.410411 -2.12473 0
M  V30 12835 C 1228.31 -3.34634 -0.529689 0
M  V30 12836 C 1226.86 -3.63361 -0.982145 0
M  V30 12837 C 1226.01 -2.77265 -0.0443292 0
M  V30 12838 H 1228.96 -1.52387 0.44317 0
M  V30 12839 H 1228.98 -3.54752 -1.3759 0
M  V30 12840 H 1228.5 -3.85796 0.422243 0
M  V30 12841 H 1226.6 -3.17653 -1.94749 0
M  V30 12842 H 1226.71 -4.71361 -0.857668 0
M  V30 12843 H 1225.07 -2.48672 -0.550825 0
M  V30 12844 H 1225.86 -3.31225 0.902491 0
M  V30 12845 N 1228.3 0.053464 -1.57509 0
M  V30 12846 C 1229.53 0.761533 -1.92375 0
M  V30 12847 C 1229.94 1.70179 -0.817585 0
M  V30 12848 O 1229.3 1.81313 0.207843 0
M  V30 12849 C 1229.35 1.53954 -3.27078 0
M  V30 12850 O 1229.07 0.637054 -4.33443 0
M  V30 12851 C 1230.57 2.34697 -3.76075 0
M  V30 12852 H 1227.79 0.215483 -0.635459 0
M  V30 12853 H 1230.34 0.0182624 -2.04492 0
M  V30 12854 H 1228.49 2.23492 -3.16434 0
M  V30 12855 H 1228.91 1.18006 -5.11053 0
M  V30 12856 H 1230.38 2.84716 -4.72906 0
M  V30 12857 H 1230.86 3.15041 -3.06016 0
M  V30 12858 H 1231.46 1.70281 -3.89724 0
M  V30 12859 N 1229.78 1.54207 0.325255 0
M  V30 12860 C 1231 1.7661 1.08736 0
M  V30 12861 C 1231.43 0.512449 1.80985 0
M  V30 12862 O 1230.79 -0.535913 1.73198 0
M  V30 12863 C 1230.84 2.95797 2.06243 0
M  V30 12864 O 1229.94 2.67225 3.14109 0
M  V30 12865 H 1229.28 0.585282 0.313593 0
M  V30 12866 H 1231.81 2.01225 0.370066 0
M  V30 12867 H 1231.82 3.23097 2.49143 0
M  V30 12868 H 1230.5 3.86712 1.53058 0
M  V30 12869 H 1229.07 2.50869 2.75897 0
M  V30 12870 N 1231.26 -0.58723 1.46251 0
M  V30 12871 C 1232.67 -0.910129 1.31106 0
M  V30 12872 C 1232.87 -1.99557 0.279141 0
M  V30 12873 O 1231.93 -2.50466 -0.319867 0
M  V30 12874 C 1233.24 -1.33177 2.69601 0
M  V30 12875 C 1234.79 -1.44486 2.77656 0
M  V30 12876 C 1235.27 -1.90018 4.16722 0
M  V30 12877 N 1236.76 -1.97219 4.19117 0
M  V30 12878 C 1237.49 -2.33714 5.23608 0
M  V30 12879 N 1236.99 -2.69034 6.3843 0
M  V30 12880 N 1238.78 -2.3423 5.10972 0
M  V30 12881 H 1230.93 0.12987 2.12003 0
M  V30 12882 H 1233.19 -0.00456718 0.947989 0
M  V30 12883 H 1232.9 -0.608243 3.464 0
M  V30 12884 H 1232.77 -2.29421 2.99409 0
M  V30 12885 H 1235.16 -2.15926 2.01147 0
M  V30 12886 H 1235.24 -0.465047 2.51537 0
M  V30 12887 H 1234.89 -1.19159 4.93724 0
M  V30 12888 H 1234.82 -2.88949 4.40245 0
M  V30 12889 H 1237.31 -1.72431 3.36268 0
M  V30 12890 H 1237.62 -2.95822 7.13939 0
M  V30 12891 H 1235.97 -2.66683 6.41798 0
M  V30 12892 H 1239.16 -2.06056 4.20308 0
M  V30 12893 H 1239.33 -2.62345 5.92519 0
M  V30 12894 N 1232.74 -1.33881 -0.831482 0
M  V30 12895 C 1233.98 -1.25755 -1.58719 0
M  V30 12896 C 1234.31 0.174746 -1.93713 0
M  V30 12897 O 1233.57 1.13384 -1.59507 0
M  V30 12898 C 1233.86 -2.08544 -2.90249 0
M  V30 12899 C 1233.53 -3.57651 -2.74585 0
M  V30 12900 C 1232.19 -3.983 -2.7002 0
M  V30 12901 C 1234.54 -4.52369 -2.58866 0
M  V30 12902 C 1231.87 -5.31872 -2.47647 0
M  V30 12903 C 1234.22 -5.86112 -2.38025 0
M  V30 12904 C 1232.89 -6.25934 -2.31867 0
M  V30 12905 H 1232.16 -0.460171 -0.580796 0
M  V30 12906 H 1234.81 -1.6554 -0.96274 0
M  V30 12907 H 1233.11 -1.6156 -3.56939 0
M  V30 12908 H 1234.81 -1.99609 -3.47789 0
M  V30 12909 H 1231.4 -3.2538 -2.78973 0
M  V30 12910 H 1235.58 -4.21868 -2.61421 0
M  V30 12911 H 1230.84 -5.61756 -2.41331 0
M  V30 12912 H 1235.01 -6.59103 -2.24847 0
M  V30 12913 H 1232.64 -7.29372 -2.14291 0
M  V30 12914 N 1234.21 1.05064 -1.1747 0
M  V30 12915 C 1235.46 1.77737 -0.961979 0
M  V30 12916 C 1235.78 1.88198 0.510551 0
M  V30 12917 O 1235.05 1.39968 1.37062 0
M  V30 12918 H 1233.63 0.658366 -0.352935 0
M  V30 12919 H 1236.29 1.26851 -1.47969 0
M  V30 12920 H 1235.39 2.79368 -1.39141 0
M  V30 12921 N 1235.69 0.975146 1.23809 0
M  V30 12922 C 1236.92 0.658605 1.96665 0
M  V30 12923 C 1237.34 -0.766744 1.71763 0
M  V30 12924 O 1236.7 -1.52151 0.985887 0
M  V30 12925 C 1236.75 0.948438 3.47904 0
M  V30 12926 O 1235.85 0.0377241 4.12383 0
M  V30 12927 H 1235.19 0.248231 0.615855 0
M  V30 12928 H 1237.72 1.30732 1.57386 0
M  V30 12929 H 1237.73 0.883 3.9833 0
M  V30 12930 H 1236.41 1.98717 3.65355 0
M  V30 12931 H 1234.98 0.157122 3.72569 0
M  V30 12932 N 1237.17 -1.38817 0.746158 0
M  V30 12933 C 1238.13 -2.28876 0.121886 0
M  V30 12934 C 1239.13 -1.46838 -0.655379 0
M  V30 12935 O 1240.32 -1.67377 -0.482744 0
M  V30 12936 C 1237.45 -3.30487 -0.836118 0
M  V30 12937 H 1238.65 -2.85586 0.915453 0
M  V30 12938 H 1236.2 -1.47652 0.512691 0
M  V30 12939 H 1236.94 -2.78853 -1.65563 0
M  V30 12940 H 1236.72 -3.9109 -0.281271 0
M  V30 12941 H 1238.21 -3.97848 -1.26914 0
M  V30 12942 N 1238.65 -0.49465 -1.49636 0
M  V30 12943 C 1239.61 0.276064 -2.27531 0
M  V30 12944 C 1240.61 0.899619 -1.3328 0
M  V30 12945 O 1241.8 0.765136 -1.56497 0
M  V30 12946 C 1238.93 1.39547 -3.1103 0
M  V30 12947 H 1240.13 -0.407381 -2.9712 0
M  V30 12948 H 1237.68 -0.249416 -1.54297 0
M  V30 12949 H 1238.41 2.11326 -2.45992 0
M  V30 12950 H 1238.2 0.953877 -3.8032 0
M  V30 12951 H 1239.69 1.93853 -3.69879 0
M  V30 12952 N 1240.13 1.55939 -0.228214 0
M  V30 12953 C 1241.09 2.1932 0.665681 0
M  V30 12954 C 1242.09 1.15699 1.11671 0
M  V30 12955 O 1243.28 1.40893 1.02444 0
M  V30 12956 C 1240.41 2.82185 1.9127 0
M  V30 12957 H 1241.6 2.99687 0.112986 0
M  V30 12958 H 1239.16 1.56285 0.0213865 0
M  V30 12959 H 1239.89 2.05706 2.5071 0
M  V30 12960 H 1239.68 3.58073 1.5977 0
M  V30 12961 H 1241.17 3.30748 2.54942 0
M  V30 12962 N 1241.6 -0.0451101 1.57535 0
M  V30 12963 C 1243.02 -0.400463 1.54494 0
M  V30 12964 C 1243.22 -1.77584 0.952166 0
M  V30 12965 O 1242.28 -2.46069 0.566221 0
M  V30 12966 C 1243.59 -0.31703 2.99024 0
M  V30 12967 C 1245.14 -0.395284 3.10494 0
M  V30 12968 C 1245.61 -0.341475 4.56725 0
M  V30 12969 N 1247.1 -0.400755 4.61463 0
M  V30 12970 C 1247.84 -0.381757 5.72128 0
M  V30 12971 N 1247.33 -0.315995 6.92079 0
M  V30 12972 N 1249.13 -0.4303 5.60451 0
M  V30 12973 H 1241.28 0.855156 1.94424 0
M  V30 12974 H 1243.54 0.323618 0.891053 0
M  V30 12975 H 1243.25 0.627477 3.46057 0
M  V30 12976 H 1243.12 -1.11696 3.60283 0
M  V30 12977 H 1245.51 -1.33022 2.63418 0
M  V30 12978 H 1245.59 0.433709 2.52096 0
M  V30 12979 H 1245.23 0.589725 5.04465 0
M  V30 12980 H 1245.16 -1.18836 5.13016 0
M  V30 12981 H 1247.65 -0.454745 3.75154 0
M  V30 12982 H 1247.97 -0.306158 7.72193 0
M  V30 12983 H 1246.31 -0.282281 6.94427 0
M  V30 12984 H 1249.5 -0.479555 4.65637 0
M  V30 12985 H 1249.68 -0.412025 6.46689 0
M  V30 12986 N 1243.08 -1.54377 -0.317073 0
M  V30 12987 C 1244.05 -1.83488 -1.37349 0
M  V30 12988 C 1245.05 -0.706981 -1.44424 0
M  V30 12989 O 1246.24 -0.975289 -1.44339 0
M  V30 12990 C 1243.37 -2.00074 -2.76013 0
M  V30 12991 H 1244.56 -2.77883 -1.12789 0
M  V30 12992 H 1242.11 -1.46194 -0.552902 0
M  V30 12993 H 1242.85 -1.07913 -3.05819 0
M  V30 12994 H 1242.63 -2.82155 -2.7227 0
M  V30 12995 H 1244.12 -2.24022 -3.52426 0
M  V30 12996 N 1244.56 0.579466 -1.4656 0
M  V30 12997 C 1245.79 1.36837 -1.55854 0
M  V30 12998 C 1246.21 1.87019 -0.20141 0
M  V30 12999 O 1245.57 1.61746 0.81901 0
M  V30 13000 C 1245.62 2.52965 -2.56985 0
M  V30 13001 O 1244.72 3.54505 -2.10713 0
M  V30 13002 H 1244.06 0.407379 -0.524345 0
M  V30 13003 H 1246.59 0.702558 -1.9216 0
M  V30 13004 H 1246.6 2.99838 -2.76697 0
M  V30 13005 H 1245.28 2.15793 -3.55536 0
M  V30 13006 H 1243.85 3.14089 -2.01003 0
M  V30 13007 N 1246.04 1.3432 0.824371 0
M  V30 13008 C 1247.26 1.2982 1.61745 0
M  V30 13009 C 1247.69 -0.125298 1.87682 0
M  V30 13010 O 1247.05 -1.08658 1.45131 0
M  V30 13011 C 1247.09 2.09327 2.93623 0
M  V30 13012 O 1246.2 1.4618 3.85623 0
M  V30 13013 H 1245.54 0.445929 0.491979 0
M  V30 13014 H 1248.07 1.77101 1.02452 0
M  V30 13015 H 1248.08 2.20629 3.43201 0
M  V30 13016 H 1246.75 3.12825 2.74069 0
M  V30 13017 H 1245.33 1.43611 3.44137 0
M  V30 13018 N 1247.52 -1.0444 1.18026 0
M  V30 13019 C 1248.74 -1.81772 0.998684 0
M  V30 13020 C 1249.17 -1.82682 -0.448225 0
M  V30 13021 O 1248.52 -1.24136 -1.32136 0
M  V30 13022 C 1248.57 -3.2542 1.55352 0
M  V30 13023 O 1247.68 -4.05103 0.772351 0
M  V30 13024 H 1247.02 -0.561731 0.354054 0
M  V30 13025 H 1249.55 -1.31557 1.56697 0
M  V30 13026 H 1249.56 -3.76206 1.57903 0
M  V30 13027 H 1248.23 -3.24073 2.60672 0
M  V30 13028 H 1246.81 -3.63798 0.818852 0
M  V30 13029 N 1248.99 -0.981699 -1.2329 0
M  V30 13030 C 1249.92 -0.542441 -2.27112 0
M  V30 13031 C 1250.91 0.425034 -1.64704 0
M  V30 13032 O 1252.09 0.318114 -1.91577 0
M  V30 13033 C 1249.22 0.154668 -3.46955 0
M  V30 13034 C 1248.17 -0.73022 -4.21725 0
M  V30 13035 C 1247.5 0.0991766 -5.34608 0
M  V30 13036 C 1248.8 -2.02166 -4.81587 0
M  V30 13037 H 1250.49 -1.41024 -2.64107 0
M  V30 13038 H 1248.04 -0.679544 -1.26957 0
M  V30 13039 H 1249.99 0.473281 -4.18734 0
M  V30 13040 H 1248.72 1.05693 -3.09025 0
M  V30 13041 H 1247.38 -1.03231 -3.51765 0
M  V30 13042 H 1247.02 1.00201 -4.92919 0
M  V30 13043 H 1246.72 -0.489788 -5.85555 0
M  V30 13044 H 1248.25 0.412141 -6.09207 0
M  V30 13045 H 1249.66 -1.76773 -5.45366 0
M  V30 13046 H 1248.06 -2.55851 -5.42826 0
M  V30 13047 H 1249.13 -2.70766 -4.02261 0
M  V30 13048 N 1250.47 1.3842 -0.753509 0
M  V30 13049 C 1251.72 1.99723 -0.309021 0
M  V30 13050 C 1252.04 1.60111 1.11308 0
M  V30 13051 O 1251.31 0.85792 1.76115 0
M  V30 13052 H 1249.89 0.738667 -0.111266 0
M  V30 13053 H 1252.55 1.69186 -0.967586 0
M  V30 13054 H 1251.65 3.09874 -0.372095 0
M  V30 13055 N 1251.95 0.502579 1.49372 0
M  V30 13056 C 1252.88 -0.311743 2.2707 0
M  V30 13057 C 1253.9 -0.929204 1.33677 0
M  V30 13058 O 1255.08 -0.812277 1.58948 0
M  V30 13059 C 1252.18 -1.45404 3.06122 0
M  V30 13060 C 1251.36 -0.943591 4.27101 0
M  V30 13061 C 1250.42 -1.96368 4.88186 0
M  V30 13062 O 1249.44 -1.5316 5.48207 0
M  V30 13063 N 1250.64 -3.29419 4.77978 0
M  V30 13064 H 1253.41 0.354503 2.97596 0
M  V30 13065 H 1250.97 0.335222 1.58392 0
M  V30 13066 H 1252.96 -2.13404 3.43862 0
M  V30 13067 H 1251.53 -2.02441 2.38194 0
M  V30 13068 H 1250.75 -0.0884372 3.94101 0
M  V30 13069 H 1252.04 -0.580983 5.05472 0
M  V30 13070 H 1251.44 -3.67211 4.30317 0
M  V30 13071 H 1250 -3.93129 5.19897 0
M  V30 13072 N 1253.43 -1.55816 0.23648 0
M  V30 13073 C 1254.68 -1.98294 -0.390373 0
M  V30 13074 C 1255 -1.12573 -1.59224 0
M  V30 13075 O 1254.27 -0.206128 -1.94813 0
M  V30 13076 H 1252.85 -0.732349 -0.14722 0
M  V30 13077 H 1255.51 -1.92037 0.332848 0
M  V30 13078 H 1254.61 -3.03996 -0.706595 0
M  V30 13079 N 1254.91 0.036755 -1.57557 0
M  V30 13080 C 1256.13 0.744813 -1.93565 0
M  V30 13081 C 1256.56 1.68508 -0.835863 0
M  V30 13082 O 1255.91 1.80091 0.208986 0
M  V30 13083 C 1255.96 1.48461 -3.28621 0
M  V30 13084 O 1255.07 2.59739 -3.20327 0
M  V30 13085 H 1254.41 0.200866 -0.632889 0
M  V30 13086 H 1256.94 -0.00547543 -2.04599 0
M  V30 13087 H 1256.95 1.85622 -3.63329 0
M  V30 13088 H 1255.62 0.794953 -4.08232 0
M  V30 13089 H 1254.2 2.25176 -2.97237 0
M  V30 13090 N 1256.39 1.54543 0.308881 0
M  V30 13091 C 1257.63 1.73107 1.043 0
M  V30 13092 C 1257.95 0.515481 1.88063 0
M  V30 13093 O 1257.22 -0.47036 1.90169 0
M  V30 13094 H 1255.8 0.638289 0.388068 0
M  V30 13095 H 1258.47 1.9188 0.341769 0
M  V30 13096 H 1257.56 2.61697 1.70063 0
M  V30 13097 N 1257.86 -0.571685 1.46866 0
M  V30 13098 C 1259.09 -1.36008 1.56578 0
M  V30 13099 C 1259.51 -1.86909 0.211326 0
M  V30 13100 O 1258.87 -1.62179 -0.810421 0
M  V30 13101 C 1258.92 -2.51598 2.58323 0
M  V30 13102 O 1258.02 -3.53383 2.1259 0
M  V30 13103 H 1257.36 -0.404593 0.526498 0
M  V30 13104 H 1259.89 -0.692357 1.92529 0
M  V30 13105 H 1259.9 -2.98366 2.78283 0
M  V30 13106 H 1258.58 -2.13904 3.56676 0
M  V30 13107 H 1257.16 -3.13019 2.02666 0
M  V30 13108 N 1259.34 -1.34755 -0.817236 0
M  V30 13109 C 1260.27 -1.22648 -1.93624 0
M  V30 13110 C 1261.29 -0.152226 -1.62087 0
M  V30 13111 O 1262.48 -0.404578 -1.73855 0
M  V30 13112 C 1259.58 -0.863519 -3.27714 0
M  V30 13113 C 1258.75 -2.03394 -3.87233 0
M  V30 13114 C 1257.81 -1.64846 -4.99712 0
M  V30 13115 O 1256.83 -2.3658 -5.17705 0
M  V30 13116 N 1258.04 -0.565909 -5.77735 0
M  V30 13117 H 1260.8 -2.19051 -2.0454 0
M  V30 13118 H 1258.36 -1.27785 -0.994113 0
M  V30 13119 H 1260.35 -0.58733 -4.00415 0
M  V30 13120 H 1258.92 0.0104987 -3.12598 0
M  V30 13121 H 1258.14 -2.47454 -3.06856 0
M  V30 13122 H 1259.43 -2.81655 -4.23731 0
M  V30 13123 H 1258.83 0.030313 -5.65692 0
M  V30 13124 H 1257.39 -0.349467 -6.50862 0
M  V30 13125 N 1260.82 1.03812 -1.18578 0
M  V30 13126 C 1262.07 1.77056 -0.982718 0
M  V30 13127 C 1262.39 1.88294 0.487421 0
M  V30 13128 O 1261.65 1.38946 1.37813 0
M  V30 13129 C 1261.95 3.20297 -1.5857 0
M  V30 13130 C 1261.61 3.29088 -3.0824 0
M  V30 13131 C 1260.28 3.31194 -3.4909 0
M  V30 13132 C 1262.63 3.28981 -4.04253 0
M  V30 13133 C 1259.96 3.30839 -4.84523 0
M  V30 13134 C 1262.31 3.30166 -5.39605 0
M  V30 13135 C 1260.97 3.30565 -5.79899 0
M  V30 13136 H 1260.24 0.647895 -0.359602 0
M  V30 13137 H 1262.89 1.21911 -1.47682 0
M  V30 13138 H 1261.19 3.7846 -1.01367 0
M  V30 13139 H 1262.89 3.75619 -1.40398 0
M  V30 13140 H 1259.48 3.28171 -2.75685 0
M  V30 13141 H 1263.67 3.26543 -3.73743 0
M  V30 13142 H 1258.92 3.29467 -5.15035 0
M  V30 13143 H 1263.1 3.29033 -6.13767 0
M  V30 13144 H 1260.72 3.30044 -6.84818 0
M  V30 13145 N 1262.3 0.988223 1.22768 0
M  V30 13146 C 1263.54 0.662441 1.91676 0
M  V30 13147 C 1263.88 -0.802931 1.76824 0
M  V30 13148 O 1263.15 -1.58011 1.13415 0
M  V30 13149 C 1263.43 1.06332 3.44043 0
M  V30 13150 C 1263.29 2.5869 3.67967 0
M  V30 13151 C 1264.61 0.613058 4.35809 0
M  V30 13152 H 1261.73 0.242132 0.69609 0
M  V30 13153 H 1264.37 1.23091 1.44736 0
M  V30 13154 H 1262.52 0.579623 3.84152 0
M  V30 13155 H 1264.19 3.14694 3.37291 0
M  V30 13156 H 1262.43 3.00971 3.12408 0
M  V30 13157 H 1263.1 2.8179 4.74656 0
M  V30 13158 H 1265.58 1.02846 4.0319 0
M  V30 13159 H 1264.46 0.921901 5.41103 0
M  V30 13160 H 1264.72 -0.48641 4.39416 0
M  V30 13161 N 1263.78 -1.38018 0.760839 0
M  V30 13162 C 1265.19 -1.82645 0.387022 0
M  V30 13163 C 1265.54 -1.63445 -1.08536 0
M  V30 13164 O 1264.66 -1.13958 -1.83963 0
M  V30 13165 C 1265.26 -3.3158 0.69569 0
M  V30 13166 C 1263.82 -3.74527 0.375063 0
M  V30 13167 C 1262.96 -2.60696 0.94515 0
M  V30 13168 H 1265.91 -1.26644 0.956396 0
M  V30 13169 H 1265.94 -3.80493 -0.0235511 0
M  V30 13170 H 1265.45 -3.45522 1.76737 0
M  V30 13171 H 1263.55 -3.6616 -0.689741 0
M  V30 13172 H 1263.66 -4.71029 0.875685 0
M  V30 13173 H 1262.03 -2.51997 0.370065 0
M  V30 13174 H 1262.81 -2.77434 2.02201 0
M  V30 13175 N 1265.25 -0.510493 -1.49103 0
M  V30 13176 C 1266.48 0.0271718 -2.06882 0
M  V30 13177 C 1266.9 1.2995 -1.36962 0
M  V30 13178 O 1266.25 1.76842 -0.450916 0
M  V30 13179 C 1266.3 0.274956 -3.60453 0
M  V30 13180 O 1266.03 -0.946941 -4.27744 0
M  V30 13181 C 1267.53 0.855197 -4.34973 0
M  V30 13182 H 1264.75 -0.024732 -0.670544 0
M  V30 13183 H 1267.29 -0.710567 -1.91758 0
M  V30 13184 H 1265.45 0.962696 -3.75248 0
M  V30 13185 H 1265.86 -0.715627 -5.19595 0
M  V30 13186 H 1267.33 0.978103 -5.43265 0
M  V30 13187 H 1267.81 1.85535 -3.98087 0
M  V30 13188 H 1268.42 0.204632 -4.24807 0
M  V30 13189 N 1266.73 1.55688 -0.24474 0
M  V30 13190 C 1267.98 1.99186 0.381167 0
M  V30 13191 C 1268.31 1.13266 1.57748 0
M  V30 13192 O 1267.59 0.195568 1.93514 0
M  V30 13193 C 1267.87 3.51257 0.793142 0
M  V30 13194 C 1267.72 4.47942 -0.408409 0
M  V30 13195 C 1269.04 4.08365 1.64091 0
M  V30 13196 H 1266.16 0.724141 0.137073 0
M  V30 13197 H 1268.8 1.8683 -0.345619 0
M  V30 13198 H 1266.95 3.61917 1.4124 0
M  V30 13199 H 1268.62 4.49265 -1.04682 0
M  V30 13200 H 1266.87 4.20854 -1.05189 0
M  V30 13201 H 1267.54 5.51946 -0.0768531 0
M  V30 13202 H 1270.01 4.00794 1.1182 0
M  V30 13203 H 1268.89 5.1504 1.89802 0
M  V30 13204 H 1269.15 3.56687 2.61202 0
M  V30 13205 N 1268.21 -0.0283989 1.57574 0
M  V30 13206 C 1269.45 -0.723912 1.91151 0
M  V30 13207 C 1269.81 -1.72485 0.843381 0
M  V30 13208 O 1271.01 -2.46866 1.06351 0
M  V30 13209 C 1269.29 -1.37537 3.29876 0
M  V30 13210 S 1270.84 -2.09995 3.85289 0
M  V30 13211 H 1267.66 -0.239802 0.66934 0
M  V30 13212 H 1270.26 0.0214644 1.95488 0
M  V30 13213 H 1268.97 -0.633659 4.05479 0
M  V30 13214 H 1268.5 -2.15928 3.28844 0
M  V30 13215 H 1270.51 -3.37146 3.6407 0
M  V30 13216 N 1269.69 -1.54705 -0.300681 0
M  V30 13217 C 1270.64 -1.86433 -1.39087 0
M  V30 13218 C 1271.63 -0.738101 -1.52474 0
M  V30 13219 O 1272.84 -0.922096 -1.54588 0
M  V30 13220 H 1269.21 -0.591314 -0.464599 0
M  V30 13221 H 1271.18 -2.77558 -1.09563 0
M  V30 13222 C 1269.93 -2.1286 -2.74929 0
M  V30 13223 H 1269.25 -2.98994 -2.6541 0
M  V30 13224 H 1270.69 -2.39 -3.50222 0
M  V30 13225 C 1269.15 -0.92726 -3.23888 0
M  V30 13226 O 1269.68 -0.147921 -4.01428 0
M  V30 13227 N 1267.89 -0.732553 -2.81215 0
M  V30 13228 H 1267.44 -1.36797 -2.18276 0
M  V30 13229 H 1267.39 0.0696902 -3.14323 0
M  V30 13230 N 1271.17 0.563888 -1.47167 0
M  V30 13231 C 1272.41 1.31875 -1.53145 0
M  V30 13232 C 1272.74 1.94047 -0.192518 0
M  V30 13233 O 1272.01 1.79577 0.782872 0
M  V30 13234 H 1270.59 0.489694 -0.5641 0
M  V30 13235 H 1273.25 0.658976 -1.83422 0
M  V30 13236 H 1272.34 2.11574 -2.2944 0
M  V30 13237 N 1272.64 1.35187 0.810078 0
M  V30 13238 C 1274.06 1.15149 1.10512 0
M  V30 13239 C 1274.26 -0.038394 2.01463 0
M  V30 13240 O 1273.32 -0.710056 2.42311 0
M  V30 13241 C 1274.63 2.45282 1.73946 0
M  V30 13242 C 1276.18 2.51457 1.86382 0
M  V30 13243 C 1276.65 3.81625 2.53232 0
M  V30 13244 N 1278.14 3.82856 2.6072 0
M  V30 13245 C 1278.88 4.80302 3.13206 0
M  V30 13246 N 1278.37 5.88134 3.66156 0
M  V30 13247 N 1280.17 4.67743 3.11726 0
M  V30 13248 H 1272.32 2.11405 0.205391 0
M  V30 13249 H 1274.58 0.935457 0.153702 0
M  V30 13250 H 1274.29 3.32512 1.14582 0
M  V30 13251 H 1274.16 2.59573 2.73682 0
M  V30 13252 H 1276.55 1.64659 2.44891 0
M  V30 13253 H 1276.63 2.41084 0.855113 0
M  V30 13254 H 1276.27 4.68819 1.95375 0
M  V30 13255 H 1276.2 3.89285 3.54633 0
M  V30 13256 H 1278.69 3.04941 2.23203 0
M  V30 13257 H 1279.01 6.58487 4.04494 0
M  V30 13258 H 1277.35 5.91831 3.64364 0
M  V30 13259 H 1280.54 3.82642 2.69635 0
M  V30 13260 H 1280.72 5.43849 3.52324 0
M  V30 13261 N 1274.12 -1.03182 1.19127 0
M  V30 13262 C 1275.03 -2.14875 0.94159 0
M  V30 13263 C 1276.05 -1.73727 -0.0973872 0
M  V30 13264 O 1277.22 -2.01214 0.0865775 0
M  V30 13265 C 1274.29 -3.43356 0.480366 0
M  V30 13266 C 1273.35 -3.98835 1.58838 0
M  V30 13267 C 1272.58 -5.21183 1.14907 0
M  V30 13268 O 1272.81 -5.70399 0.0114141 0
M  V30 13269 O 1271.74 -5.69423 1.95042 0
M  V30 13270 H 1275.57 -2.38799 1.8764 0
M  V30 13271 H 1273.15 -1.13299 0.973841 0
M  V30 13272 H 1275.03 -4.20763 0.231658 0
M  V30 13273 H 1273.71 -3.20884 -0.426041 0
M  V30 13274 H 1272.62 -3.22776 1.8912 0
M  V30 13275 H 1273.95 -4.25665 2.47123 0
M  V30 13276 N 1275.6 -0.99472 -1.22242 0
M  V30 13277 C 1276.85 -0.672596 -1.91322 0
M  V30 13278 C 1277.18 0.793542 -1.77247 0
M  V30 13279 O 1276.45 1.57407 -1.14251 0
M  V30 13280 C 1276.74 -1.08155 -3.43474 0
M  V30 13281 C 1276.59 -2.60638 -3.6659 0
M  V30 13282 C 1277.91 -0.636161 -4.35478 0
M  V30 13283 H 1275.03 -0.24582 -0.694796 0
M  V30 13284 H 1277.67 -1.23857 -1.44082 0
M  V30 13285 H 1275.82 -0.599987 -3.83839 0
M  V30 13286 H 1277.49 -3.16479 -3.35617 0
M  V30 13287 H 1275.74 -3.02624 -3.10808 0
M  V30 13288 H 1276.41 -2.84304 -4.73155 0
M  V30 13289 H 1278.88 -1.04982 -4.02639 0
M  V30 13290 H 1277.76 -0.950584 -5.40606 0
M  V30 13291 H 1278.02 0.4631 -4.39668 0
M  V30 13292 N 1277.08 1.37613 -0.768148 0
M  V30 13293 C 1278.32 2.00075 -0.331331 0
M  V30 13294 C 1278.66 1.60839 1.08833 0
M  V30 13295 O 1277.93 0.852849 1.74805 0
M  V30 13296 C 1278.22 3.57009 -0.470789 0
M  V30 13297 C 1278.07 4.06166 -1.9326 0
M  V30 13298 C 1279.39 4.39916 0.127111 0
M  V30 13299 H 1276.51 0.726855 -0.121864 0
M  V30 13300 H 1279.15 1.63343 -0.970518 0
M  V30 13301 H 1277.3 3.88431 0.0733688 0
M  V30 13302 H 1278.97 3.85325 -2.53618 0
M  V30 13303 H 1277.21 3.58492 -2.44266 0
M  V30 13304 H 1277.88 5.15219 -1.98125 0
M  V30 13305 H 1280.36 4.14732 -0.337144 0
M  V30 13306 H 1279.24 5.489 -0.000624226 0
M  V30 13307 H 1279.5 4.25018 1.21704 0
M  V30 13308 N 1278.56 0.518393 1.4883 0
M  V30 13309 C 1279.83 -0.0837498 1.95421 0
M  V30 13310 C 1280.21 -1.52435 1.46037 0
M  V30 13311 O 1279.56 -2.18093 0.681736 0
M  V30 13312 C 1279.77 0.0215333 3.48993 0
M  V30 13313 C 1281.12 -0.143615 4.24357 0
M  V30 13314 O 1282.14 -0.0528223 3.56161 0
M  V30 13315 O 1281 -0.332231 5.45489 0
M  V30 13316 H 1278.1 -0.0857132 0.822546 0
M  V30 13317 H 1280.64 0.582169 1.59402 0
M  V30 13318 H 1279.41 1.02549 3.77623 0
M  V30 13319 H 1279.04 -0.683756 3.91677 0
M  V30 13320 N 1280.03 -1.55556 0.252993 0
M  V30 13321 C 1281.26 -2.03945 -0.376965 0
M  V30 13322 C 1281.68 -1.13089 -1.50308 0
M  V30 13323 O 1281.04 -0.125039 -1.80868 0
M  V30 13324 C 1281.09 -3.50284 -0.856363 0
M  V30 13325 O 1280.19 -3.62551 -1.96546 0
M  V30 13326 H 1279.54 -0.659002 -0.081317 0
M  V30 13327 H 1282.07 -2.01024 0.380831 0
M  V30 13328 H 1282.08 -3.91222 -1.15798 0
M  V30 13329 H 1280.75 -4.15887 -0.0323302 0
M  V30 13330 H 1279.33 -3.33511 -1.66808 0
M  V30 13331 N 1281.51 0.0200419 -1.57587 0
M  V30 13332 C 1282.74 0.720556 -1.93947 0
M  V30 13333 C 1283.16 1.68407 -0.853499 0
M  V30 13334 O 1282.51 1.81713 0.169337 0
M  V30 13335 C 1282.56 1.46982 -3.3027 0
M  V30 13336 O 1282.28 0.544971 -4.34697 0
M  V30 13337 C 1283.79 2.26667 -3.80968 0
M  V30 13338 H 1281.01 0.201956 -0.639887 0
M  V30 13339 H 1283.55 -0.0251175 -2.04485 0
M  V30 13340 H 1281.7 2.16729 -3.21103 0
M  V30 13341 H 1282.12 1.07139 -5.13441 0
M  V30 13342 H 1283.59 2.74621 -4.78839 0
M  V30 13343 H 1284.07 3.0848 -3.12629 0
M  V30 13344 H 1284.68 1.61976 -3.93248 0
M  V30 13345 N 1282.99 1.54862 0.292472 0
M  V30 13346 C 1284.22 1.7855 1.04534 0
M  V30 13347 C 1284.63 0.549161 1.80637 0
M  V30 13348 O 1283.99 -0.481268 1.7604 0
M  V30 13349 C 1284.04 2.99849 2.01923 0
M  V30 13350 O 1283.76 4.18706 1.28907 0
M  V30 13351 C 1285.26 3.35991 2.8918 0
M  V30 13352 H 1282.48 0.595279 0.309652 0
M  V30 13353 H 1285.03 2.01834 0.329159 0
M  V30 13354 H 1283.18 2.78749 2.69032 0
M  V30 13355 H 1283.6 4.87151 1.94383 0
M  V30 13356 H 1285.07 4.24085 3.53349 0
M  V30 13357 H 1285.55 2.54524 3.57931 0
M  V30 13358 H 1286.15 3.59281 2.27591 0
M  V30 13359 N 1284.47 -0.556076 1.47464 0
M  V30 13360 C 1285.69 -1.3434 1.58011 0
M  V30 13361 C 1286.12 -1.86674 0.231138 0
M  V30 13362 O 1285.48 -1.63029 -0.793174 0
M  V30 13363 C 1285.52 -2.48844 2.60977 0
M  V30 13364 O 1284.63 -3.51108 2.16326 0
M  V30 13365 H 1283.97 -0.398986 0.53076 0
M  V30 13366 H 1286.5 -0.671898 1.93253 0
M  V30 13367 H 1286.51 -2.95398 2.81432 0
M  V30 13368 H 1285.18 -2.10109 3.58925 0
M  V30 13369 H 1283.76 -3.10852 2.05975 0
M  V30 13370 N 1285.95 -1.35615 -0.802897 0
M  V30 13371 C 1287.17 -1.32377 -1.59659 0
M  V30 13372 C 1287.6 0.0954235 -1.87858 0
M  V30 13373 O 1286.96 1.06336 -1.46842 0
M  V30 13374 C 1287 -2.13972 -2.90256 0
M  V30 13375 O 1286.11 -1.52296 -3.83249 0
M  V30 13376 H 1285.45 -0.453699 -0.484823 0
M  V30 13377 H 1287.98 -1.78708 -0.996217 0
M  V30 13378 H 1287.99 -2.26061 -3.39647 0
M  V30 13379 H 1286.66 -3.17145 -2.69057 0
M  V30 13380 H 1285.24 -1.49068 -3.41809 0
M  V30 13381 N 1287.43 1.02549 -1.19673 0
M  V30 13382 C 1288.36 2.12794 -0.961289 0
M  V30 13383 C 1289.34 1.69766 0.106575 0
M  V30 13384 O 1290.52 1.94138 -0.0491358 0
M  V30 13385 C 1287.65 3.4364 -0.502868 0
M  V30 13386 C 1286.61 4.00367 -1.51296 0
M  V30 13387 C 1285.93 5.26874 -0.911491 0
M  V30 13388 C 1287.23 4.34782 -2.89416 0
M  V30 13389 H 1288.93 2.32748 -1.88331 0
M  V30 13390 H 1286.47 1.11852 -0.906922 0
M  V30 13391 H 1288.42 4.20141 -0.325436 0
M  V30 13392 H 1287.15 3.23418 0.454764 0
M  V30 13393 H 1285.81 3.25964 -1.67759 0
M  V30 13394 H 1285.46 5.02971 0.0537982 0
M  V30 13395 H 1285.16 5.65791 -1.58602 0
M  V30 13396 H 1286.68 6.06039 -0.74493 0
M  V30 13397 H 1288.09 5.02207 -2.76516 0
M  V30 13398 H 1286.49 4.8479 -3.53693 0
M  V30 13399 H 1287.56 3.43935 -3.41814 0
M  V30 13400 O 1288.94 1.129 1.15481 0
M  V30 13401 H 1289.63 0.842704 1.74408 0
M  V30 END ATOM
M  V30 BEGIN BOND
M  V30 END BOND
M  V30 END CTAB
M  END
$$$$
