drugbank_target|Q14494 Nuclear factor erythroid 2-related factor 1 (DB04147)
 OpenBabel12092120483D

  0  0  0     0  0            999 V3000
M  V30 BEGIN CTAB
M  V30 COUNTS 11707 11815 0 0 0
M  V30 BEGIN ATOM
M  V30 1 H -0.908 1.98254 -0.117106 0
M  V30 2 N 0 1.576 0 0
M  V30 3 C 0.933 2.03868 1.02534 0
M  V30 4 C 1.911 0.928543 1.3348 0
M  V30 5 O 3.095 1.19667 1.45644 0
M  V30 6 C 0.222 2.43627 2.35294 0
M  V30 7 C -0.732 3.65373 2.2001 0
M  V30 8 S 0.101 5.13292 1.52614 0
M  V30 9 C 1.257 5.56322 2.86805 0
M  V30 10 H 1.49 2.90518 0.631377 0
M  V30 11 H -0.977 1.52953 0.210867 0
M  V30 12 H 0.981 2.67203 3.11629 0
M  V30 13 H -0.358 1.57376 2.7183 0
M  V30 14 H -1.165 3.90944 3.18086 0
M  V30 15 H -1.563 3.418 1.51819 0
M  V30 16 H 0.729 5.58782 3.83104 0
M  V30 17 H 1.672 6.56266 2.65933 0
M  V30 18 H 2.08 4.83886 2.90714 0
M  V30 19 N 1.4781 -0.272755 1.55222 0
M  V30 20 C 2.4081 -1.34136 1.91127 0
M  V30 21 C 3.3891 -1.51513 0.773168 0
M  V30 22 O 4.5741 -1.64552 1.03132 0
M  V30 23 C 1.7041 -2.70083 2.1834 0
M  V30 24 C 0.6581 -2.67437 3.34158 0
M  V30 25 C -0.0159 -4.06938 3.46851 0
M  V30 26 C 1.2841 -2.26686 4.70543 0
M  V30 27 H 2.9781 -1.04333 2.80633 0
M  V30 28 H 0.5241 -0.500454 1.35024 0
M  V30 29 H 2.4771 -3.44952 2.42046 0
M  V30 30 H 1.2011 -3.01469 1.25634 0
M  V30 31 H -0.1399 -1.95026 3.1042 0
M  V30 32 H -0.4919 -4.35547 2.51611 0
M  V30 33 H -0.7919 -4.06062 4.2472 0
M  V30 34 H 0.7321 -4.83545 3.72849 0
M  V30 35 H 2.1461 -2.91277 4.93792 0
M  V30 36 H 0.5431 -2.36971 5.5133 0
M  V30 37 H 1.6131 -1.21818 4.69349 0
M  V30 38 N 2.9562 -1.48159 -0.537278 0
M  V30 39 C 4.1812 -1.59707 -1.32319 0
M  V30 40 C 4.6062 -0.254859 -1.86365 0
M  V30 41 O 3.9642 0.772378 -1.64024 0
M  V30 42 C 4.0122 -2.6412 -2.45505 0
M  V30 43 O 3.1162 -2.20774 -3.48328 0
M  V30 44 H 2.4572 -0.535791 -0.392204 0
M  V30 45 H 4.9872 -1.94092 -0.647268 0
M  V30 46 H 4.9972 -2.85166 -2.91795 0
M  V30 47 H 3.6722 -3.61567 -2.05528 0
M  V30 48 H 2.2492 -2.09911 -3.08207 0
M  V30 49 N 4.4343 0.785586 -1.36625 0
M  V30 50 C 5.3643 1.91259 -1.33949 0
M  V30 51 C 6.3453 1.68795 -0.210325 0
M  V30 52 O 7.5303 1.89854 -0.408561 0
M  V30 53 C 4.6603 3.28339 -1.13186 0
M  V30 54 C 3.6143 3.65335 -2.22967 0
M  V30 55 C 2.9403 5.00806 -1.87342 0
M  V30 56 C 4.2403 3.7352 -3.65075 0
M  V30 57 H 5.9343 1.93755 -2.28253 0
M  V30 58 H 3.4803 0.930788 -1.09874 0
M  V30 59 H 5.4333 4.06804 -1.09948 0
M  V30 60 H 4.1573 3.2624 -0.153332 0
M  V30 61 H 2.8163 2.89169 -2.25337 0
M  V30 62 H 2.4643 4.95233 -0.880545 0
M  V30 63 H 2.1643 5.26529 -2.60846 0
M  V30 64 H 3.6883 5.81687 -1.85667 0
M  V30 65 H 5.1023 4.42168 -3.64911 0
M  V30 66 H 3.4993 4.10731 -4.37516 0
M  V30 67 H 4.5693 2.74527 -3.99703 0
M  V30 68 N 5.9124 1.20967 1.01018 0
M  V30 69 C 6.8594 0.964281 2.09691 0
M  V30 70 C 7.8294 -0.107853 1.65749 0
M  V30 71 O 9.0144 0.0381987 1.90762 0
M  V30 72 C 6.1544 0.52943 3.41015 0
M  V30 73 C 5.2674 1.67043 3.98398 0
M  V30 74 C 4.4024 1.18525 5.17808 0
M  V30 75 C 3.4414 2.29892 5.67288 0
M  V30 76 N 2.5784 1.82546 6.77954 0
M  V30 77 H 7.4184 1.89463 2.30017 0
M  V30 78 H 4.9554 0.944289 1.1279 0
M  V30 79 H 6.9134 0.258588 4.16398 0
M  V30 80 H 5.5434 -0.363919 3.20742 0
M  V30 81 H 4.5954 2.05603 3.20049 0
M  V30 82 H 5.9074 2.50877 4.31117 0
M  V30 83 H 5.0614 0.870762 6.00419 0
M  V30 84 H 3.8004 0.316887 4.86669 0
M  V30 85 H 2.8054 2.6215 4.83278 0
M  V30 86 H 4.0304 3.17216 6.00459 0
M  V30 87 H 1.9764 0.980454 6.48632 0
M  V30 88 H 1.8934 2.59956 7.09901 0
M  V30 89 H 3.1614 1.54115 7.64113 0
M  V30 90 N 7.3905 -1.2043 1.01659 0
M  V30 91 C 8.3375 -2.23215 0.586822 0
M  V30 92 C 9.3075 -1.61382 -0.393085 0
M  V30 93 O 10.4925 -1.88544 -0.292525 0
M  V30 94 C 7.6325 -3.45032 -0.0687464 0
M  V30 95 C 6.7455 -4.21296 0.955724 0
M  V30 96 C 5.8805 -5.30507 0.271208 0
M  V30 97 C 4.9195 -5.98515 1.28244 0
M  V30 98 N 4.0565 -6.99316 0.62459 0
M  V30 99 H 8.8965 -2.59336 1.46796 0
M  V30 100 H 6.4335 -1.27431 0.734836 0
M  V30 101 H 8.3915 -4.1459 -0.465965 0
M  V30 102 H 7.0215 -3.09604 -0.913529 0
M  V30 103 H 6.0735 -3.50803 1.4711 0
M  V30 104 H 7.3855 -4.6803 1.72479 0
M  V30 105 H 6.5395 -6.06428 -0.18151 0
M  V30 106 H 5.2785 -4.8481 -0.530163 0
M  V30 107 H 4.2835 -5.21355 1.74554 0
M  V30 108 H 5.5085 -6.46298 2.08509 0
M  V30 109 H 3.4545 -6.55812 -0.156914 0
M  V30 110 H 3.3715 -7.44178 1.33172 0
M  V30 111 H 4.6395 -7.79255 0.195462 0
M  V30 112 N 8.8686 -0.792821 -1.36206 0
M  V30 113 C 10.0986 -0.378275 -2.03107 0
M  V30 114 C 10.5066 1.01119 -1.59911 0
M  V30 115 O 9.8496 1.66052 -0.785658 0
M  V30 116 C 9.9116 -0.366535 -3.57627 0
M  V30 117 C 9.5756 -1.70416 -4.24037 0
M  V30 118 C 10.5726 -2.6602 -4.46687 0
M  V30 119 C 8.2576 -1.98439 -4.6144 0
M  V30 120 C 10.2516 -3.8784 -5.05825 0
M  V30 121 C 7.9386 -3.20525 -5.20295 0
M  V30 122 C 8.9366 -4.15044 -5.42427 0
M  V30 123 O 8.6246 -5.34978 -6.00045 0
M  V30 124 H 8.3566 -0.153543 -0.658332 0
M  V30 125 H 10.9106 -1.07383 -1.75094 0
M  V30 126 H 9.1406 0.385539 -3.84773 0
M  V30 127 H 10.8296 0.0238088 -4.05893 0
M  V30 128 H 11.5956 -2.45658 -4.18183 0
M  V30 129 H 7.4746 -1.25686 -4.43536 0
M  V30 130 H 11.0186 -4.61628 -5.23015 0
M  V30 131 H 6.9156 -3.40764 -5.48225 0
M  V30 132 H 7.6836 -5.36088 -6.18508 0
M  V30 133 N 10.3467 1.47872 -0.545128 0
M  V30 134 C 11.2767 2.32661 0.197793 0
M  V30 135 C 12.2577 1.43041 0.920504 0
M  V30 136 O 13.4427 1.71912 0.90333 0
M  V30 137 C 10.5727 3.24569 1.23582 0
M  V30 138 C 9.5267 4.23333 0.630323 0
M  V30 139 C 8.8527 5.0448 1.77211 0
M  V30 140 C 10.1527 5.20704 -0.407974 0
M  V30 141 H 11.8467 2.95024 -0.510045 0
M  V30 142 H 9.3927 1.4187 -0.246731 0
M  V30 143 H 11.3457 3.8272 1.76362 0
M  V30 144 H 10.0697 2.60236 1.97344 0
M  V30 145 H 8.7287 3.6639 0.123922 0
M  V30 146 H 8.3767 4.36561 2.49847 0
M  V30 147 H 8.0767 5.71339 1.37281 0
M  V30 148 H 9.6007 5.65487 2.3034 0
M  V30 149 H 11.0147 5.7329 0.033305 0
M  V30 150 H 9.4117 5.95699 -0.725486 0
M  V30 151 H 10.4817 4.66917 -1.30828 0
M  V30 152 N 11.8248 0.280983 1.55075 0
M  V30 153 C 13.0528 -0.337293 2.04132 0
M  V30 154 C 13.4678 -1.4903 1.15912 0
M  V30 155 O 12.8248 -1.81606 0.180459 0
M  V30 156 C 12.8758 -0.812706 3.52246 0
M  V30 157 O 12.5968 0.294387 4.3711 0
M  V30 158 C 14.0978 -1.4982 4.17216 0
M  V30 159 H 11.3178 -0.0761638 0.666663 0
M  V30 160 H 13.8618 0.414787 2.00249 0
M  V30 161 H 12.0168 -1.51486 3.56554 0
M  V30 162 H 12.4308 -0.0721325 5.2445 0
M  V30 163 H 13.9048 -1.7822 5.22438 0
M  V30 164 H 14.3818 -2.43168 3.65741 0
M  V30 165 H 14.9878 -0.839742 4.16927 0
M  V30 166 N 13.3029 -1.57598 0.00835791 0
M  V30 167 C 14.2129 -2.12385 -0.996487 0
M  V30 168 C 15.2289 -1.07108 -1.37127 0
M  V30 169 O 16.4049 -1.39055 -1.4569 0
M  V30 170 C 13.4699 -2.62314 -2.26699 0
M  V30 171 C 12.5309 -3.82225 -1.95456 0
M  V30 172 C 11.7639 -4.29763 -3.16449 0
M  V30 173 O 11.9869 -3.76584 -4.28416 0
M  V30 174 O 10.9209 -5.21832 -2.99958 0
M  V30 175 H 14.7469 -2.98479 -0.560725 0
M  V30 176 H 12.3319 -1.47903 -0.210987 0
M  V30 177 H 14.2139 -2.94589 -3.01322 0
M  V30 178 H 12.8889 -1.79313 -2.69497 0
M  V30 179 H 11.7959 -3.54909 -1.18282 0
M  V30 180 H 13.1289 -4.66324 -1.57489 0
M  V30 181 N 14.781 0.264519 -1.55364 0
M  V30 182 C 16.029 0.993021 -1.76021 0
M  V30 183 C 16.35 1.86511 -0.569099 0
M  V30 184 O 15.62 1.91438 0.415735 0
M  V30 185 H 14.2 0.369639 -0.649135 0
M  V30 186 H 16.862 0.286707 -1.9278 0
M  V30 187 H 15.958 1.62502 -2.66457 0
M  V30 188 N 16.2591 1.48442 0.529413 0
M  V30 189 C 17.1891 1.65902 1.64313 0
M  V30 190 C 18.1701 0.507897 1.6234 0
M  V30 191 O 19.3551 0.740503 1.79528 0
M  V30 192 C 16.4851 1.69911 3.02898 0
M  V30 193 C 15.4391 2.8453 3.19729 0
M  V30 194 C 14.7651 2.73629 4.59381 0
M  V30 195 C 16.0651 4.25821 3.02447 0
M  V30 196 H 17.7591 2.5914 1.49955 0
M  V30 197 H 15.3051 1.24709 0.719982 0
M  V30 198 H 17.2581 1.80715 3.80684 0
M  V30 199 H 15.9821 0.732524 3.18279 0
M  V30 200 H 14.6411 2.73283 2.44361 0
M  V30 201 H 14.2891 1.74938 4.71599 0
M  V30 202 H 13.9891 3.50541 4.71588 0
M  V30 203 H 15.5131 2.86401 5.39265 0
M  V30 204 H 16.9271 4.37898 3.70024 0
M  V30 205 H 15.3241 5.03735 3.26146 0
M  V30 206 H 16.3941 4.42244 1.98867 0
M  V30 207 N 17.7372 -0.778329 1.37039 0
M  V30 208 C 18.6672 -1.90546 1.34962 0
M  V30 209 C 19.6482 -1.68681 0.219274 0
M  V30 210 O 20.8332 -1.89634 0.418624 0
M  V30 211 C 17.9632 -3.27734 1.14925 0
M  V30 212 C 16.9172 -3.64147 2.24902 0
M  V30 213 C 16.2432 -4.99806 1.89996 0
M  V30 214 C 17.5432 -3.71579 3.67051 0
M  V30 215 H 19.2372 -1.92541 2.29277 0
M  V30 216 H 16.7832 -0.924948 1.10366 0
M  V30 217 H 18.7362 -4.06215 1.12104 0
M  V30 218 H 17.4602 -3.26154 0.170631 0
M  V30 219 H 16.1192 -2.8797 2.26868 0
M  V30 220 H 15.7672 -4.94759 0.906796 0
M  V30 221 H 15.4672 -5.25139 2.63634 0
M  V30 222 H 16.9912 -5.80694 1.88749 0
M  V30 223 H 18.4052 -4.40227 3.67251 0
M  V30 224 H 16.8022 -4.08405 4.39688 0
M  V30 225 H 17.8722 -2.72404 4.01154 0
M  V30 226 N 19.2153 -1.21501 -1.00376 0
M  V30 227 C 20.1473 -0.933174 -2.09343 0
M  V30 228 C 21.1603 0.0840896 -1.62583 0
M  V30 229 O 22.3493 -0.148563 -1.77881 0
M  V30 230 C 19.4493 -0.379869 -3.36764 0
M  V30 231 C 18.6223 -1.45176 -4.12605 0
M  V30 232 C 17.6813 -0.907476 -5.18316 0
M  V30 233 O 16.7073 -1.5912 -5.46507 0
M  V30 234 N 17.9093 0.276649 -5.7984 0
M  V30 235 H 20.6743 -1.87124 -2.34104 0
M  V30 236 H 18.2353 -1.12043 -1.16867 0
M  V30 237 H 20.2273 -0.00131488 -4.047 0
M  V30 238 H 18.7973 0.463048 -3.09151 0
M  V30 239 H 18.0173 -2.00411 -3.39454 0
M  V30 240 H 19.3053 -2.17328 -4.6005 0
M  V30 241 H 18.7033 0.849147 -5.59291 0
M  V30 242 H 17.2603 0.596702 -6.49063 0
M  V30 243 N 20.6934 1.19889 -1.02296 0
M  V30 244 C 21.9404 1.8942 -0.715972 0
M  V30 245 C 22.2684 1.79251 0.754944 0
M  V30 246 O 21.5234 1.17526 1.56481 0
M  V30 247 C 21.8224 3.39883 -1.10518 0
M  V30 248 C 21.4884 3.70254 -2.57337 0
M  V30 249 C 20.1504 3.78254 -2.97452 0
M  V30 250 C 22.5024 3.84052 -3.52354 0
M  V30 251 C 19.8304 3.97514 -4.31509 0
M  V30 252 C 22.1824 4.04824 -4.86108 0
M  V30 253 C 20.8464 4.11054 -5.25919 0
M  V30 254 H 20.1164 0.693138 -0.261993 0
M  V30 255 H 22.7634 1.42012 -1.28472 0
M  V30 256 H 21.0684 3.8915 -0.454953 0
M  V30 257 H 22.7654 3.9199 -0.845261 0
M  V30 258 H 19.3554 3.64632 -2.25258 0
M  V30 259 H 23.5394 3.77221 -3.22518 0
M  V30 260 H 18.7954 4.00574 -4.61898 0
M  V30 261 H 22.9694 4.14442 -5.59653 0
M  V30 262 H 20.5964 4.2573 -6.29808 0
M  V30 263 N 22.1715 0.800033 1.35784 0
M  V30 264 C 23.3995 0.389606 2.03199 0
M  V30 265 C 23.8145 -0.997375 1.60306 0
M  V30 266 O 23.1715 -1.64154 0.797481 0
M  V30 267 C 23.2225 0.455855 3.58614 0
M  V30 268 O 22.9435 1.78815 3.99946 0
M  V30 269 C 24.4445 0.0374032 4.43284 0
M  V30 270 H 21.6645 0.159132 0.651857 0
M  V30 271 H 24.2085 1.08183 1.73541 0
M  V30 272 H 22.3635 -0.188057 3.86943 0
M  V30 273 H 22.7775 1.74636 4.94573 0
M  V30 274 H 24.2515 0.134882 5.51835 0
M  V30 275 H 24.7285 -1.01651 4.27275 0
M  V30 276 H 25.3345 0.654215 4.20238 0
M  V30 277 N 23.6496 -1.47581 0.552962 0
M  V30 278 C 24.8986 -2.01684 0.0251995 0
M  V30 279 C 25.2116 -1.43317 -1.33115 0
M  V30 280 O 26.4176 -1.89057 -1.94858 0
M  V30 281 C 24.8736 -3.599 -0.00542052 0
M  V30 282 C 24.4816 -4.27257 1.34742 0
M  V30 283 C 26.2256 -4.21768 -0.4808 0
M  V30 284 C 24.1326 -5.77467 1.27614 0
M  V30 285 H 23.0626 -0.753979 0.00565033 0
M  V30 286 H 25.7136 -1.69616 0.70018 0
M  V30 287 H 24.0956 -3.88911 -0.745961 0
M  V30 288 H 25.2696 -4.09893 2.10534 0
M  V30 289 H 23.5846 -3.77358 1.76039 0
M  V30 290 H 26.1816 -5.31838 -0.55246 0
M  V30 291 H 26.5246 -3.88651 -1.49184 0
M  V30 292 H 27.0576 -3.97273 0.204752 0
M  V30 293 H 23.7966 -6.15196 2.26304 0
M  V30 294 H 23.3166 -5.9718 0.55996 0
M  V30 295 H 24.9956 -6.3959 0.976421 0
M  V30 296 N 25.1277 -0.289203 -1.54924 0
M  V30 297 C 26.0577 0.58549 -2.2604 0
M  V30 298 C 27.0387 1.14753 -1.25562 0
M  V30 299 O 28.2237 1.17906 -1.54311 0
M  V30 300 C 25.3537 1.76305 -2.99222 0
M  V30 301 C 24.3077 1.33191 -4.06748 0
M  V30 302 C 23.6337 2.5937 -4.6758 0
M  V30 303 C 24.9337 0.471775 -5.20165 0
M  V30 304 H 26.6277 -0.00763532 -2.99399 0
M  V30 305 H 24.1737 -0.00511229 -1.43999 0
M  V30 306 H 26.1267 2.38097 -3.47689 0
M  V30 307 H 24.8507 2.38223 -2.23422 0
M  V30 308 H 23.5097 0.737121 -3.59113 0
M  V30 309 H 23.1577 3.19576 -3.88433 0
M  V30 310 H 22.8577 2.31228 -5.40192 0
M  V30 311 H 24.3817 3.21985 -5.18804 0
M  V30 312 H 25.7957 0.995056 -5.64599 0
M  V30 313 H 24.1927 0.284639 -5.99425 0
M  V30 314 H 25.2627 -0.506041 -4.82252 0
M  V30 315 N 26.6058 1.57591 -0.0167156 0
M  V30 316 C 27.5358 2.12496 0.967858 0
M  V30 317 C 28.5168 1.03807 1.34752 0
M  V30 318 O 29.7018 1.31577 1.42833 0
M  V30 319 C 26.8318 2.64194 2.25431 0
M  V30 320 C 25.7858 3.77559 2.01576 0
M  V30 321 C 25.1118 4.15636 3.36379 0
M  V30 322 C 26.4118 5.04151 1.36489 0
M  V30 323 H 28.1058 2.95013 0.510643 0
M  V30 324 H 25.6518 1.41915 0.244181 0
M  V30 325 H 27.6048 3.01236 2.94678 0
M  V30 326 H 26.3288 1.78821 2.73296 0
M  V30 327 H 24.9878 3.40937 1.34751 0
M  V30 328 H 24.6358 3.27263 3.81979 0
M  V30 329 H 24.3358 4.92022 3.21229 0
M  V30 330 H 25.8598 4.5525 4.06915 0
M  V30 331 H 27.2738 5.38857 1.95718 0
M  V30 332 H 25.6708 5.85453 1.31776 0
M  V30 333 H 26.7408 4.83733 0.336219 0
M  V30 334 N 28.0839 -0.256276 1.55502 0
M  V30 335 C 29.3089 -1.00766 1.81276 0
M  V30 336 C 29.7339 -1.78524 0.59252 0
M  V30 337 O 29.0919 -1.75413 -0.45827 0
M  V30 338 C 29.1399 -1.92869 3.04687 0
M  V30 339 O 28.2439 -3.019 2.80945 0
M  V30 340 H 27.5849 -0.287224 0.598664 0
M  V30 341 H 30.1149 -0.280109 2.02674 0
M  V30 342 H 30.1249 -2.34511 3.33869 0
M  V30 343 H 28.7999 -1.35689 3.93143 0
M  V30 344 H 27.3769 -2.64454 2.62904 0
M  V30 345 N 29.562 -1.4872 -0.521534 0
M  V30 346 C 30.492 -1.66771 -1.63431 0
M  V30 347 C 31.473 -0.516499 -1.62069 0
M  V30 348 O 32.658 -0.750013 -1.79132 0
M  V30 349 C 29.788 -1.71515 -3.01993 0
M  V30 350 C 28.742 -2.86222 -3.18216 0
M  V30 351 C 28.068 -2.76061 -4.57924 0
M  V30 352 C 29.368 -4.27419 -3.00184 0
M  V30 353 H 31.062 -2.59932 -1.48579 0
M  V30 354 H 28.608 -1.25089 -0.713358 0
M  V30 355 H 30.561 -1.82731 -3.7972 0
M  V30 356 H 29.285 -0.749393 -3.17886 0
M  V30 357 H 27.944 -2.74575 -2.42908 0
M  V30 358 H 27.592 -1.77437 -4.70665 0
M  V30 359 H 27.292 -3.53037 -4.69722 0
M  V30 360 H 28.816 -2.89256 -5.37739 0
M  V30 361 H 30.23 -4.39855 -3.67697 0
M  V30 362 H 28.627 -5.05458 -3.2347 0
M  V30 363 H 29.697 -4.43293 -1.96518 0
M  V30 364 N 31.0401 0.771051 -1.3745 0
M  V30 365 C 32.2891 1.52491 -1.3202 0
M  V30 366 C 32.6021 1.9538 0.0927347 0
M  V30 367 O 33.8081 2.70159 0.269503 0
M  V30 368 C 32.2641 2.75366 -2.31736 0
M  V30 369 C 31.8721 2.39573 -3.78562 0
M  V30 370 C 33.6161 3.53307 -2.35318 0
M  V30 371 C 31.5231 3.58954 -4.70007 0
M  V30 372 H 30.4531 0.572506 -0.490666 0
M  V30 373 H 33.1041 0.844474 -1.62914 0
M  V30 374 H 31.4861 3.45303 -1.93861 0
M  V30 375 H 32.6601 1.77415 -4.25277 0
M  V30 376 H 30.9751 1.74805 -3.77932 0
M  V30 377 H 33.5721 4.42039 -3.00842 0
M  V30 378 H 33.9151 3.93217 -1.36698 0
M  V30 379 H 34.4481 2.90367 -2.71904 0
M  V30 380 H 31.1871 3.24125 -5.69757 0
M  V30 381 H 30.7071 4.20214 -4.27996 0
M  V30 382 H 32.3861 4.25758 -4.87175 0
M  V30 383 N 32.5182 1.22032 0.997298 0
M  V30 384 C 33.7662 1.04016 1.73278 0
M  V30 385 C 34.0872 -0.426255 1.90284 0
M  V30 386 O 33.3572 -1.30694 1.45931 0
M  V30 387 H 31.9372 0.381897 0.642 0
M  V30 388 H 34.5992 1.5347 1.20137 0
M  V30 389 H 33.6952 1.51441 2.72896 0
M  V30 390 N 33.9963 -1.19345 1.0293 0
M  V30 391 C 35.2423 -1.89318 0.727083 0
M  V30 392 C 35.5753 -1.79446 -0.742483 0
M  V30 393 O 34.8503 -1.1871 -1.54072 0
M  V30 394 C 35.1333 -3.40238 1.17942 0
M  V30 395 C 34.9863 -3.58979 2.71024 0
M  V30 396 C 36.3053 -4.33479 0.760548 0
M  V30 397 H 33.4243 -0.687475 0.265606 0
M  V30 398 H 36.0663 -1.40477 1.2793 0
M  V30 399 H 34.2163 -3.81964 0.709608 0
M  V30 400 H 35.8883 -3.26421 3.25955 0
M  V30 401 H 34.1313 -3.02018 3.11396 0
M  V30 402 H 34.8023 -4.64823 2.9773 0
M  V30 403 H 37.2783 -3.99469 1.16464 0
M  V30 404 H 36.1543 -5.37664 1.10493 0
M  V30 405 H 36.4153 -4.40813 -0.337063 0
M  V30 406 N 35.4744 -0.807222 -1.35358 0
M  V30 407 C 36.8904 -0.491038 -1.51858 0
M  V30 408 C 37.0904 0.987648 -1.75635 0
M  V30 409 O 36.1464 1.77265 -1.79815 0
M  V30 410 C 37.4594 -1.33695 -2.69344 0
M  V30 411 C 39.0074 -1.33246 -2.83222 0
M  V30 412 C 39.4824 -2.1625 -4.03733 0
M  V30 413 N 40.9734 -2.1379 -4.10911 0
M  V30 414 C 41.7084 -2.74772 -5.03277 0
M  V30 415 N 41.2044 -3.44684 -6.0097 0
M  V30 416 N 42.9974 -2.6441 -4.96028 0
M  V30 417 H 35.1484 -1.76485 -1.18181 0
M  V30 418 H 37.4114 -0.751199 -0.578276 0
M  V30 419 H 37.1174 -2.38634 -2.58354 0
M  V30 420 H 36.9914 -0.990618 -3.6396 0
M  V30 421 H 39.3784 -0.290911 -2.93663 0
M  V30 422 H 39.4594 -1.71866 -1.89461 0
M  V30 423 H 39.1034 -3.20445 -3.94052 0
M  V30 424 H 39.0334 -1.74989 -4.96675 0
M  V30 425 H 41.5244 -1.62923 -3.40976 0
M  V30 426 H 41.8374 -3.88501 -6.68047 0
M  V30 427 H 40.1824 -3.48788 -6.01142 0
M  V30 428 H 43.3734 -2.0938 -4.18662 0
M  V30 429 H 43.5464 -3.12225 -5.6782 0
M  V30 430 N 36.9525 1.47285 -0.560781 0
M  V30 431 C 38.1985 2.02764 -0.0381184 0
M  V30 432 C 38.5315 1.43384 1.30976 0
M  V30 433 O 37.8065 0.590733 1.85312 0
M  V30 434 C 38.0895 3.60064 0.0511427 0
M  V30 435 C 37.9425 4.2987 -1.32408 0
M  V30 436 C 39.2615 4.33439 0.762795 0
M  V30 437 H 36.3805 0.736841 -0.0153264 0
M  V30 438 H 39.0225 1.75675 -0.723759 0
M  V30 439 H 37.1725 3.83274 0.635065 0
M  V30 440 H 38.8445 4.17989 -1.95148 0
M  V30 441 H 37.0875 3.90085 -1.8978 0
M  V30 442 H 37.7585 5.38478 -1.21431 0
M  V30 443 H 40.2345 4.15243 0.266965 0
M  V30 444 H 39.1105 5.43124 0.794221 0
M  V30 445 H 39.3715 4.02915 1.81966 0
M  V30 446 N 38.4306 0.297415 1.54768 0
M  V30 447 C 39.7076 -0.365847 1.92148 0
M  V30 448 C 40.0876 -1.71975 1.22424 0
M  V30 449 O 39.4356 -2.25666 0.358739 0
M  V30 450 C 39.6456 -0.484056 3.45627 0
M  V30 451 C 40.9936 -0.756594 4.17805 0
M  V30 452 O 42.0176 -0.568007 3.51642 0
M  V30 453 O 40.8766 -1.11863 5.34929 0
M  V30 454 H 37.9706 -0.203919 0.801465 0
M  V30 455 H 40.5166 0.34521 1.66152 0
M  V30 456 H 39.2886 0.467865 3.88493 0
M  V30 457 H 38.9116 -1.24372 3.77647 0
M  V30 458 N 39.9087 -1.5758 0.0250728 0
M  V30 459 C 41.1547 -1.91917 -0.655413 0
M  V30 460 C 41.4877 -0.901433 -1.72011 0
M  V30 461 O 40.7627 0.0764069 -1.9435 0
M  V30 462 C 41.0457 -3.36751 -1.27558 0
M  V30 463 C 40.8987 -4.49258 -0.220719 0
M  V30 464 C 42.2177 -3.81469 -2.19475 0
M  V30 465 H 39.3367 -0.697925 -0.23679 0
M  V30 466 H 41.9787 -1.89825 0.0815036 0
M  V30 467 H 40.1287 -3.38664 -1.90365 0
M  V30 468 H 41.8007 -4.59478 0.409601 0
M  V30 469 H 40.0437 -4.31415 0.454264 0
M  V30 470 H 40.7147 -5.47618 -0.694175 0
M  V30 471 H 43.1907 -3.81266 -1.66659 0
M  V30 472 H 42.0667 -4.83512 -2.59822 0
M  V30 473 H 42.3277 -3.16744 -3.08424 0
M  V30 474 N 41.3868 0.248026 -1.55636 0
M  V30 475 C 42.6638 0.998988 -1.68165 0
M  V30 476 C 43.0438 2.03409 -0.564621 0
M  V30 477 O 42.3918 2.24378 0.432076 0
M  V30 478 C 42.6018 1.63334 -3.0842 0
M  V30 479 C 43.9498 2.13562 -3.66983 0
M  V30 480 O 44.9738 1.73277 -3.11213 0
M  V30 481 O 43.8328 2.87526 -4.64749 0
M  V30 482 H 40.9268 0.464933 -0.683935 0
M  V30 483 H 43.4728 0.241902 -1.67967 0
M  V30 484 H 42.2448 0.884583 -3.8117 0
M  V30 485 H 41.8678 2.45666 -3.12624 0
M  V30 486 N 42.8649 1.48995 0.513639 0
M  V30 487 C 44.0929 1.61531 1.29288 0
M  V30 488 C 44.5079 0.281801 1.86685 0
M  V30 489 O 43.8649 -0.731111 1.67215 0
M  V30 490 C 43.9159 2.67449 2.43215 0
M  V30 491 O 43.6369 3.95626 1.88179 0
M  V30 492 C 45.1379 2.90575 3.34785 0
M  V30 493 H 42.3579 0.544165 0.392588 0
M  V30 494 H 44.9019 1.9494 0.617956 0
M  V30 495 H 43.0569 2.36853 3.0656 0
M  V30 496 H 43.4709 4.53868 2.62876 0
M  V30 497 H 44.9449 3.68449 4.11035 0
M  V30 498 H 45.4219 2.00011 3.91015 0
M  V30 499 H 46.0279 3.22538 2.77218 0
M  V30 500 N 44.343 -0.763751 1.37857 0
M  V30 501 C 45.573 -1.55067 1.3652 0
M  V30 502 C 45.981 -1.89135 -0.0494227 0
M  V30 503 O 45.324 -1.52529 -1.02375 0
M  V30 504 C 45.386 -2.8838 2.14656 0
M  V30 505 C 45.05 -2.76905 3.63555 0
M  V30 506 C 46.047 -2.4739 4.57268 0
M  V30 507 C 43.732 -2.94676 4.06781 0
M  V30 508 C 45.726 -2.35786 5.92186 0
M  V30 509 C 43.413 -2.82692 5.41782 0
M  V30 510 C 44.411 -2.53289 6.34298 0
M  V30 511 O 44.099 -2.41345 7.66817 0
M  V30 512 H 43.831 -0.486776 0.469069 0
M  V30 513 H 46.385 -0.953812 1.81911 0
M  V30 514 H 44.615 -3.50217 1.63967 0
M  V30 515 H 46.304 -3.49828 2.05852 0
M  V30 516 H 47.07 -2.33339 4.2518 0
M  V30 517 H 42.949 -3.16563 3.35126 0
M  V30 518 H 46.493 -2.12757 6.64365 0
M  V30 519 H 42.39 -2.96314 5.7347 0
M  V30 520 H 43.158 -2.56634 7.77226 0
M  V30 521 N 45.8211 -1.22559 -0.990812 0
M  V30 522 C 46.7511 -1.0218 -2.09956 0
M  V30 523 C 47.7321 0.0579394 -1.70001 0
M  V30 524 O 48.9171 -0.104684 -1.93918 0
M  V30 525 C 46.0471 -0.601023 -3.4206 0
M  V30 526 C 45.0011 -1.62694 -3.95872 0
M  V30 527 C 44.3271 -1.06193 -5.24049 0
M  V30 528 C 45.6271 -3.01743 -4.2632 0
M  V30 529 H 47.3211 -1.94916 -2.27262 0
M  V30 530 H 44.8671 -0.938566 -1.09211 0
M  V30 531 H 46.8201 -0.445561 -4.19038 0
M  V30 532 H 45.5441 0.362005 -3.24588 0
M  V30 533 H 44.2031 -1.77021 -3.21028 0
M  V30 534 H 43.8511 -0.0901903 -5.02919 0
M  V30 535 H 43.5511 -1.74732 -5.61019 0
M  V30 536 H 45.0751 -0.918092 -6.03658 0
M  V30 537 H 46.4891 -2.90777 -4.94087 0
M  V30 538 H 44.8861 -3.67425 -4.74467 0
M  V30 539 H 45.9561 -3.51518 -3.34011 0
M  V30 540 N 47.2992 1.18797 -1.03562 0
M  V30 541 C 48.5272 1.92599 -0.755869 0
M  V30 542 C 48.9422 1.75886 0.686271 0
M  V30 543 O 48.2992 1.08517 1.46732 0
M  V30 544 C 48.3502 3.44159 -1.10619 0
M  V30 545 O 48.0712 3.60341 -2.4917 0
M  V30 546 C 49.5722 4.3507 -0.850214 0
M  V30 547 H 46.7922 0.611587 -0.276048 0
M  V30 548 H 49.3362 1.50742 -1.38192 0
M  V30 549 H 47.4912 3.83823 -0.525194 0
M  V30 550 H 47.9052 4.54128 -2.62427 0
M  V30 551 H 49.3792 5.39989 -1.14523 0
M  V30 552 H 49.8562 4.38673 0.215176 0
M  V30 553 H 50.4622 4.01097 -1.41426 0
M  V30 554 N 48.7773 0.814389 1.34928 0
M  V30 555 C 50.0023 0.410097 2.03305 0
M  V30 556 C 50.4273 -0.973464 1.60951 0
M  V30 557 O 49.7853 -1.63185 0.789964 0
M  V30 558 C 49.8333 0.51049 3.56968 0
M  V30 559 O 48.9373 -0.473035 4.09678 0
M  V30 560 H 48.2783 0.170088 0.641846 0
M  V30 561 H 50.8083 1.10244 1.72358 0
M  V30 562 H 50.8183 0.383135 4.06197 0
M  V30 563 H 49.4933 1.51963 3.87144 0
M  V30 564 H 48.0703 -0.305272 3.71648 0
M  V30 565 N 50.2554 -1.46986 0.568584 0
M  V30 566 C 51.1874 -2.28233 -0.210337 0
M  V30 567 C 52.2004 -1.37682 -0.868767 0
M  V30 568 O 53.3894 -1.62406 -0.740705 0
M  V30 569 C 50.4894 -3.12293 -1.3163 0
M  V30 570 C 49.6624 -4.30878 -0.7525 0
M  V30 571 C 48.7214 -4.96445 -1.74439 0
M  V30 572 O 47.7474 -5.54482 -1.286 0
M  V30 573 N 48.9494 -4.92171 -3.07812 0
M  V30 574 H 51.7144 -2.95723 0.486648 0
M  V30 575 H 49.2754 -1.56742 0.405409 0
M  V30 576 H 51.2674 -3.53022 -1.97883 0
M  V30 577 H 49.8374 -2.46971 -1.91636 0
M  V30 578 H 49.0574 -3.94104 0.0871128 0
M  V30 579 H 50.3454 -5.07558 -0.35536 0
M  V30 580 H 49.7434 -4.46239 -3.47688 0
M  V30 581 H 48.3004 -5.36884 -3.69592 0
M  V30 582 N 51.7335 -0.305618 -1.54608 0
M  V30 583 C 52.6635 0.561482 -2.26649 0
M  V30 584 C 53.6445 1.13415 -1.26772 0
M  V30 585 O 54.8295 1.16262 -1.55553 0
M  V30 586 C 51.9595 1.73122 -3.01075 0
M  V30 587 C 50.9135 1.2887 -4.08138 0
M  V30 588 C 50.2395 2.54396 -4.70305 0
M  V30 589 C 51.5395 0.416578 -5.20636 0
M  V30 590 H 53.2335 -0.0393902 -2.99374 0
M  V30 591 H 50.7795 -0.020385 -1.43986 0
M  V30 592 H 52.7325 2.34396 -3.50195 0
M  V30 593 H 51.4565 2.3584 -2.25936 0
M  V30 594 H 50.1155 0.698991 -3.59875 0
M  V30 595 H 49.7635 3.15439 -3.918 0
M  V30 596 H 49.4635 2.25486 -5.42614 0
M  V30 597 H 50.9875 3.16464 -5.2219 0
M  V30 598 H 52.4015 0.935116 -5.65622 0
M  V30 599 H 50.7985 0.221046 -5.99693 0
M  V30 600 H 51.8685 -0.557162 -4.81688 0
M  V30 601 N 53.2116 1.57565 -0.0334293 0
M  V30 602 C 54.6226 1.79746 0.504798 0
M  V30 603 C 54.9736 0.944091 1.71992 0
M  V30 604 O 54.0986 0.155694 2.15839 0
M  V30 605 C 54.6936 3.25997 0.922567 0
M  V30 606 C 53.2526 3.49159 1.40588 0
M  V30 607 C 52.3996 2.74785 0.372633 0
M  V30 608 H 55.3506 1.56565 -0.259436 0
M  V30 609 H 55.3716 3.35945 1.78666 0
M  V30 610 H 54.8836 3.88081 0.0379825 0
M  V30 611 H 52.9846 2.92332 2.31025 0
M  V30 612 H 53.0976 4.57873 1.41028 0
M  V30 613 H 51.4616 2.40391 0.841672 0
M  V30 614 H 52.2446 3.39587 -0.503559 0
M  V30 615 N 54.6897 -0.239769 1.55765 0
M  V30 616 C 56.1007 -0.808263 1.68297 0
M  V30 617 C 56.4517 -1.85736 0.632181 0
M  V30 618 O 55.5767 -2.15277 -0.220204 0
M  V30 619 C 56.1717 -1.47284 3.05111 0
M  V30 620 C 54.7307 -1.98895 3.19559 0
M  V30 621 C 53.8777 -0.842575 2.64189 0
M  V30 622 H 56.8287 -0.0154422 1.58692 0
M  V30 623 H 56.8497 -2.34111 2.99954 0
M  V30 624 H 56.3617 -0.709053 3.81568 0
M  V30 625 H 54.4627 -2.78132 2.47938 0
M  V30 626 H 54.5757 -2.18143 4.26556 0
M  V30 627 H 52.9397 -1.24501 2.22197 0
M  V30 628 H 53.7227 -0.0917552 3.43177 0
M  V30 629 N 56.1678 -1.49265 -0.50573 0
M  V30 630 C 57.0978 -1.68495 -1.61653 0
M  V30 631 C 58.0788 -0.53366 -1.61512 0
M  V30 632 O 59.2638 -0.76897 -1.78327 0
M  V30 633 C 56.3938 -1.74709 -3.00157 0
M  V30 634 C 55.3478 -2.89581 -3.15162 0
M  V30 635 C 54.6738 -2.80903 -4.5497 0
M  V30 636 C 55.9738 -4.30578 -2.95634 0
M  V30 637 H 57.6678 -2.61493 -1.45814 0
M  V30 638 H 55.2138 -1.25838 -0.70005 0
M  V30 639 H 57.1668 -1.86748 -3.77761 0
M  V30 640 H 55.8908 -0.783067 -3.17074 0
M  V30 641 H 54.5498 -2.77136 -2.39982 0
M  V30 642 H 54.1978 -1.82419 -4.68756 0
M  V30 643 H 53.8978 -3.57999 -4.65951 0
M  V30 644 H 55.4218 -2.94944 -5.34641 0
M  V30 645 H 56.8358 -4.4373 -3.63011 0
M  V30 646 H 55.2328 -5.0886 -3.18091 0
M  V30 647 H 56.3028 -4.45352 -1.91806 0
M  V30 648 N 57.6459 0.756429 -1.3826 0
M  V30 649 C 59.0619 1.0591 -1.19395 0
M  V30 650 C 59.2619 2.01459 -0.0406567 0
M  V30 651 O 58.3179 2.44909 0.614467 0
M  V30 652 C 59.6309 1.64191 -2.51916 0
M  V30 653 C 61.1789 1.76376 -2.58574 0
M  V30 654 C 61.6539 2.38069 -3.91264 0
M  V30 655 N 63.1449 2.45503 -3.92788 0
M  V30 656 C 63.8799 2.94126 -4.92217 0
M  V30 657 N 63.3759 3.42805 -6.02043 0
M  V30 658 N 65.1689 2.9314 -4.7961 0
M  V30 659 H 57.3199 0.122313 -2.12048 0
M  V30 660 H 59.5829 0.116892 -0.940766 0
M  V30 661 H 59.2889 1.01451 -3.3675 0
M  V30 662 H 59.1629 2.6329 -2.70108 0
M  V30 663 H 61.5499 2.38244 -1.74137 0
M  V30 664 H 61.6309 0.759894 -2.44252 0
M  V30 665 H 61.2749 1.76835 -4.76121 0
M  V30 666 H 61.2049 3.39091 -4.02895 0
M  V30 667 H 63.6959 2.1107 -3.13461 0
M  V30 668 H 64.0089 3.78354 -6.73846 0
M  V30 669 H 62.3539 3.4087 -6.05667 0
M  V30 670 H 65.5449 2.54419 -3.92923 0
M  V30 671 H 65.7179 3.30721 -5.5725 0
M  V30 672 N 59.124 1.23083 0.984299 0
M  V30 673 C 60.034 1.02515 2.11016 0
M  V30 674 C 61.05 -0.0291702 1.73976 0
M  V30 675 O 62.226 0.165434 2.00719 0
M  V30 676 C 59.291 0.614673 3.41208 0
M  V30 677 C 58.352 1.74359 3.92297 0
M  V30 678 C 57.585 1.35261 5.16275 0
M  V30 679 O 57.808 0.235136 5.69915 0
M  V30 680 O 56.742 2.17227 5.61334 0
M  V30 681 H 60.568 1.96862 2.31255 0
M  V30 682 H 58.153 1.01753 1.09392 0
M  V30 683 H 60.035 0.396518 4.1953 0
M  V30 684 H 58.71 -0.299851 3.22308 0
M  V30 685 H 57.617 2.01635 3.1511 0
M  V30 686 H 58.95 2.63629 4.15645 0
M  V30 687 N 60.6021 -1.18246 1.0419 0
M  V30 688 C 61.8511 -1.87588 0.741194 0
M  V30 689 C 62.1641 -1.81303 -0.734066 0
M  V30 690 O 63.3701 -2.46019 -1.14834 0
M  V30 691 C 61.8261 -3.36538 1.27555 0
M  V30 692 C 61.4341 -3.51349 2.77953 0
M  V30 693 C 63.1781 -4.11273 1.05143 0
M  V30 694 C 61.0851 -4.94265 3.2474 0
M  V30 695 H 60.0151 -0.702622 0.273565 0
M  V30 696 H 62.6661 -1.33601 1.25789 0
M  V30 697 H 61.0481 -3.9 0.686703 0
M  V30 698 H 62.2221 -3.08153 3.42605 0
M  V30 699 H 60.5371 -2.90022 2.98791 0
M  V30 700 H 63.1341 -5.16689 1.37611 0
M  V30 701 H 63.4771 -4.16298 -0.0112774 0
M  V30 702 H 64.0101 -3.63987 1.60495 0
M  V30 703 H 60.7491 -4.94408 4.30396 0
M  V30 704 H 60.2691 -5.38172 2.64823 0
M  V30 705 H 61.9481 -5.62987 3.18834 0
M  V30 706 N 62.0802 -0.821533 -1.34494 0
M  V30 707 C 63.3292 -0.405355 -1.97585 0
M  V30 708 C 63.6422 1.03677 -1.65863 0
M  V30 709 O 64.8482 1.55679 -2.22433 0
M  V30 710 C 63.3042 -0.673861 -3.53535 0
M  V30 711 C 62.9122 -2.12951 -3.94152 0
M  V30 712 C 64.6562 -0.32378 -4.23263 0
M  V30 713 C 62.5632 -2.34298 -5.43009 0
M  V30 714 H 61.4932 -0.147836 -0.739365 0
M  V30 715 H 64.1442 -1.00769 -1.53355 0
M  V30 716 H 62.5262 -0.00137554 -3.96 0
M  V30 717 H 63.7002 -2.84104 -3.62797 0
M  V30 718 H 62.0152 -2.44089 -3.37356 0
M  V30 719 H 64.6122 -0.461126 -5.32708 0
M  V30 720 H 64.9552 0.731586 -4.09821 0
M  V30 721 H 65.4882 -0.950786 -3.8627 0
M  V30 722 H 62.2272 -3.38335 -5.61435 0
M  V30 723 H 61.7472 -1.67687 -5.75883 0
M  V30 724 H 63.4262 -2.16588 -6.09671 0
M  V30 725 N 63.5583 1.46682 -0.576371 0
M  V30 726 C 64.4883 2.33028 0.148397 0
M  V30 727 C 65.4693 1.44961 0.889956 0
M  V30 728 O 66.6543 1.73789 0.866662 0
M  V30 729 C 63.7843 3.27117 1.1667 0
M  V30 730 C 62.7383 4.24575 0.540386 0
M  V30 731 C 62.0643 5.08126 1.6647 0
M  V30 732 C 63.3643 5.19722 -0.518331 0
M  V30 733 H 65.0583 2.93875 -0.572509 0
M  V30 734 H 62.6043 1.41315 -0.276768 0
M  V30 735 H 64.5573 3.86374 1.68204 0
M  V30 736 H 63.2813 2.64364 1.9178 0
M  V30 737 H 61.9403 3.66571 0.0461769 0
M  V30 738 H 61.5883 4.41762 2.40531 0
M  V30 739 H 61.2883 5.74122 1.25131 0
M  V30 740 H 62.8123 5.70246 2.18293 0
M  V30 741 H 64.2263 5.73232 -0.0883058 0
M  V30 742 H 62.6233 5.94026 -0.851679 0
M  V30 743 H 63.6933 4.64037 -1.40703 0
M  V30 744 N 65.0364 0.313813 1.54444 0
M  V30 745 C 66.2844 -0.291099 1.99993 0
M  V30 746 C 66.6054 -1.53418 1.20366 0
M  V30 747 O 65.8754 -1.93544 0.302927 0
M  V30 748 H 64.4554 -0.110552 0.738774 0
M  V30 749 H 67.1174 0.428106 1.9014 0
M  V30 750 H 66.2134 -0.554268 3.07139 0
M  V30 751 N 66.5145 -1.57545 0.0417849 0
M  V30 752 C 67.9255 -1.80011 -0.495259 0
M  V30 753 C 68.2765 -0.953199 -1.71489 0
M  V30 754 O 67.4015 -0.167138 -2.15754 0
M  V30 755 C 67.9965 -3.26482 -0.905265 0
M  V30 756 C 66.5555 -3.499 -1.38734 0
M  V30 757 C 65.7025 -2.74979 -0.358056 0
M  V30 758 H 68.6535 -1.56425 0.267736 0
M  V30 759 H 68.6745 -3.36887 -1.76882 0
M  V30 760 H 68.1865 -3.88096 -0.017401 0
M  V30 761 H 66.2875 -2.93553 -2.29471 0
M  V30 762 H 66.4005 -4.58615 -1.38598 0
M  V30 763 H 64.7645 -2.40834 -0.828912 0
M  V30 764 H 65.5475 -3.39315 0.521561 0
M  V30 765 N 67.9926 0.231505 -1.5589 0
M  V30 766 C 69.2176 0.978689 -1.82856 0
M  V30 767 C 69.6426 1.77559 -0.620846 0
M  V30 768 O 69.0006 1.76119 0.430305 0
M  V30 769 C 69.0486 1.87997 -3.07716 0
M  V30 770 O 68.1526 2.97393 -2.85712 0
M  V30 771 H 67.4936 0.277663 -0.603158 0
M  V30 772 H 70.0236 0.24783 -2.03093 0
M  V30 773 H 70.0336 2.2917 -3.37558 0
M  V30 774 H 68.7086 1.29417 -3.95252 0
M  V30 775 H 67.2856 2.60238 -2.67078 0
M  V30 776 N 69.4707 1.49531 0.497807 0
M  V30 777 C 70.6957 1.63159 1.28039 0
M  V30 778 C 71.1207 0.30418 1.85624 0
M  V30 779 O 70.4787 -0.728618 1.66015 0
M  V30 780 C 70.5267 2.70537 2.38416 0
M  V30 781 O 69.6307 2.29931 3.42353 0
M  V30 782 H 68.9717 0.546001 0.377861 0
M  V30 783 H 71.5017 1.9574 0.59558 0
M  V30 784 H 71.5117 2.92802 2.84132 0
M  V30 785 H 70.1867 3.6689 1.95869 0
M  V30 786 H 68.7637 2.18009 3.02533 0
M  V30 787 N 70.9488 -0.749086 1.3866 0
M  V30 788 C 71.9118 -1.84457 1.36045 0
M  V30 789 C 72.9118 -1.58682 0.260122 0
M  V30 790 O 74.1018 -1.66343 0.517261 0
M  V30 791 C 71.2338 -3.22008 1.11911 0
M  V30 792 H 72.4268 -1.88182 2.33512 0
M  V30 793 H 69.9798 -0.951266 1.24019 0
M  V30 794 H 70.7148 -3.2395 0.150686 0
M  V30 795 H 70.4998 -3.42111 1.91579 0
M  V30 796 H 71.9898 -4.0208 1.12788 0
M  V30 797 N 72.4269 -1.23603 -0.977757 0
M  V30 798 C 73.6569 -1.09487 -1.75203 0
M  V30 799 C 74.0649 0.356321 -1.85814 0
M  V30 800 O 73.4079 1.25816 -1.33851 0
M  V30 801 C 73.4699 -1.64905 -3.19447 0
M  V30 802 C 73.1339 -3.13688 -3.32338 0
M  V30 803 C 74.1309 -4.10953 -3.18455 0
M  V30 804 C 71.8159 -3.53449 -3.56902 0
M  V30 805 C 73.8099 -5.45962 -3.28944 0
M  V30 806 C 71.4969 -4.88602 -3.6703 0
M  V30 807 C 72.4949 -5.84668 -3.53062 0
M  V30 808 O 72.1829 -7.17365 -3.62826 0
M  V30 809 H 71.9149 -0.38367 -0.556573 0
M  V30 810 H 74.4689 -1.6398 -1.23693 0
M  V30 811 H 72.6989 -1.04835 -3.72218 0
M  V30 812 H 74.3879 -1.46226 -3.78646 0
M  V30 813 H 75.1539 -3.81577 -2.99372 0
M  V30 814 H 71.0329 -2.79188 -3.66844 0
M  V30 815 H 74.5769 -6.20925 -3.17958 0
M  V30 816 H 70.4739 -5.17653 -3.85623 0
M  V30 817 H 71.2419 -7.2515 -3.79605 0
M  V30 818 N 73.905 1.17692 -1.04816 0
M  V30 819 C 75.133 1.91786 -0.776254 0
M  V30 820 C 75.548 1.76604 0.667577 0
M  V30 821 O 74.905 1.10067 1.45573 0
M  V30 822 C 74.956 3.42967 -1.14263 0
M  V30 823 O 74.677 3.57678 -2.52978 0
M  V30 824 C 76.178 4.34144 -0.896311 0
M  V30 825 H 73.398 0.608624 -0.282519 0
M  V30 826 H 75.942 1.49268 -1.39783 0
M  V30 827 H 74.097 3.83245 -0.565874 0
M  V30 828 H 74.511 4.51319 -2.67229 0
M  V30 829 H 75.985 5.38744 -1.20244 0
M  V30 830 H 76.462 4.38876 0.168636 0
M  V30 831 H 77.068 3.99574 -1.45672 0
M  V30 832 N 75.3831 0.828654 1.34056 0
M  V30 833 C 76.3151 0.212052 2.28217 0
M  V30 834 C 77.3281 -0.601362 1.51286 0
M  V30 835 O 78.5171 -0.430104 1.73241 0
M  V30 836 C 75.6171 -0.72088 3.31144 0
M  V30 837 C 74.7901 0.0509587 4.3737 0
M  V30 838 C 73.8491 -0.803766 5.20025 0
M  V30 839 O 72.8751 -0.246667 5.68665 0
M  V30 840 N 74.0771 -2.1227 5.40298 0
M  V30 841 H 76.8421 1.02105 2.81771 0
M  V30 842 H 74.4031 0.686153 1.46641 0
M  V30 843 H 76.3951 -1.29742 3.8334 0
M  V30 844 H 74.9651 -1.43061 2.77943 0
M  V30 845 H 74.1851 0.808831 3.85813 0
M  V30 846 H 75.4731 0.582065 5.0546 0
M  V30 847 H 74.8711 -2.59898 5.02464 0
M  V30 848 H 73.4281 -2.64796 5.95589 0
M  V30 849 N 76.8612 -1.46375 0.584142 0
M  V30 850 C 78.0892 -2.06761 0.0759296 0
M  V30 851 C 78.5042 -1.43266 -1.22965 0
M  V30 852 O 77.8612 -0.538458 -1.74376 0
M  V30 853 C 77.9122 -3.61375 -0.0950384 0
M  V30 854 O 77.6332 -4.22495 1.15887 0
M  V30 855 C 79.1342 -4.38693 -0.637434 0
M  V30 856 H 76.3542 -0.668479 0.0581075 0
M  V30 857 H 78.8982 -1.8798 0.805218 0
M  V30 858 H 77.0532 -3.79578 -0.774554 0
M  V30 859 H 77.4672 -5.15385 0.973598 0
M  V30 860 H 78.9412 -5.47464 -0.706237 0
M  V30 861 H 79.4182 -4.06836 -1.65472 0
M  V30 862 H 80.0242 -4.25299 0.00725967 0
M  V30 863 N 78.3393 -0.321999 -1.54275 0
M  V30 864 C 79.2713 0.578671 -2.21775 0
M  V30 865 C 80.2843 1.08109 -1.21722 0
M  V30 866 O 81.4733 0.994938 -1.482 0
M  V30 867 C 78.5733 1.80661 -2.86731 0
M  V30 868 C 77.7463 1.44314 -4.12907 0
M  V30 869 C 76.8053 2.52845 -4.61472 0
M  V30 870 O 75.8313 2.17054 -5.2619 0
M  V30 871 N 77.0333 3.83748 -4.35566 0
M  V30 872 H 79.7983 0.000709447 -2.997 0
M  V30 873 H 77.3593 -0.145132 -1.61248 0
M  V30 874 H 79.3513 2.52655 -3.16145 0
M  V30 875 H 77.9213 2.29245 -2.12521 0
M  V30 876 H 77.1413 0.554906 -3.90275 0
M  V30 877 H 78.4293 1.17598 -4.95023 0
M  V30 878 H 77.8273 4.15625 -3.83761 0
M  V30 879 H 76.3843 4.51977 -4.69638 0
M  V30 880 N 79.8174 1.5752 -0.0501392 0
M  V30 881 C 81.0644 1.9265 0.623874 0
M  V30 882 C 81.3924 0.928411 1.70912 0
M  V30 883 O 80.6474 -0.0594525 1.9561 0
M  V30 884 C 80.9464 3.34467 1.25963 0
M  V30 885 C 80.6124 4.49883 0.302689 0
M  V30 886 C 79.2744 4.81184 0.0393636 0
M  V30 887 C 81.6264 5.20002 -0.353205 0
M  V30 888 C 78.9544 5.79951 -0.887308 0
M  V30 889 C 81.3064 6.1976 -1.26806 0
M  V30 890 C 79.9704 6.49491 -1.54007 0
M  V30 891 H 79.2404 0.704957 0.228292 0
M  V30 892 H 81.8874 1.91146 -0.116398 0
M  V30 893 H 80.1924 3.32333 2.07514 0
M  V30 894 H 81.8894 3.58928 1.78806 0
M  V30 895 H 78.4794 4.25457 0.518109 0
M  V30 896 H 82.6634 4.96033 -0.162854 0
M  V30 897 H 77.9194 6.01322 -1.10553 0
M  V30 898 H 82.0934 6.73205 -1.78236 0
M  V30 899 H 79.7204 7.25837 -2.25976 0
M  V30 900 N 81.2955 -0.223234 1.56011 0
M  V30 901 C 82.2455 -1.28008 1.88674 0
M  V30 902 C 83.2295 -1.42369 0.749663 0
M  V30 903 O 84.4215 -1.45212 1.01205 0
M  V30 904 C 81.5505 -2.63084 2.20548 0
M  V30 905 C 80.6365 -2.52632 3.40643 0
M  V30 906 N 81.0275 -2.11829 4.59306 0
M  V30 907 C 79.3255 -2.83594 3.44224 0
M  V30 908 C 80.0265 -2.12587 5.41463 0
M  V30 909 N 79.0025 -2.5301 4.81131 0
M  V30 910 H 82.8045 -0.955487 2.77935 0
M  V30 911 H 80.3185 -0.431801 1.56554 0
M  V30 912 H 82.3155 -3.39385 2.42122 0
M  V30 913 H 80.9755 -2.96391 1.32599 0
M  V30 914 H 81.9865 -1.82988 4.84496 0
M  V30 915 H 78.6635 -3.21284 2.66614 0
M  V30 916 H 80.0535 -1.83179 6.46448 0
M  V30 917 N 82.7736 -1.49793 -0.48987 0
M  V30 918 C 83.7216 -1.67783 -1.61095 0
M  V30 919 C 84.7156 -0.543683 -1.60438 0
M  V30 920 O 85.9216 -0.723647 -1.64813 0
M  V30 921 H 82.2966 -0.529255 -0.534222 0
M  V30 922 H 84.2676 -2.61861 -1.43078 0
M  V30 923 C 83.0166 -1.77191 -2.99164 0
M  V30 924 H 82.3396 -2.63841 -3.0038 0
M  V30 925 H 83.7796 -1.93809 -3.77113 0
M  V30 926 C 82.2386 -0.519203 -3.32875 0
M  V30 927 O 82.7686 0.350124 -4.00171 0
M  V30 928 N 80.9746 -0.378816 -2.8812 0
M  V30 929 H 80.5216 -1.08725 -2.33531 0
M  V30 930 H 80.4796 0.458239 -3.11043 0
M  V30 931 N 84.2517 0.741722 -1.39055 0
M  V30 932 C 85.1817 1.869 -1.39966 0
M  V30 933 C 86.1627 1.6804 -0.26392 0
M  V30 934 O 87.3477 1.88458 -0.468755 0
M  V30 935 C 84.4777 3.24572 -1.23574 0
M  V30 936 C 83.4317 3.58056 -2.34477 0
M  V30 937 C 82.7577 4.94593 -2.0318 0
M  V30 938 C 84.0577 3.61716 -3.76774 0
M  V30 939 H 85.7517 1.86395 -2.34302 0
M  V30 940 H 83.2977 0.895361 -1.1278 0
M  V30 941 H 85.2507 4.031 -1.22834 0
M  V30 942 H 83.9747 3.25587 -0.257045 0
M  V30 943 H 82.6337 2.81854 -2.34423 0
M  V30 944 H 82.2817 4.92181 -1.03765 0
M  V30 945 H 81.9817 5.17964 -2.77465 0
M  V30 946 H 83.5057 5.75486 -2.04079 0
M  V30 947 H 84.9197 4.30335 -3.78794 0
M  V30 948 H 83.3167 3.96603 -4.50362 0
M  V30 949 H 84.3867 2.61672 -4.08235 0
M  V30 950 N 85.7298 1.2412 0.971189 0
M  V30 951 C 87.1458 1.00584 1.23916 0
M  V30 952 C 87.3458 -0.287481 1.99439 0
M  V30 953 O 86.4018 -1.00454 2.31658 0
M  V30 954 C 87.7148 2.21864 2.0297 0
M  V30 955 C 89.2628 2.26452 2.16076 0
M  V30 956 C 89.7378 3.47343 2.98524 0
M  V30 957 N 91.2288 3.47639 3.06107 0
M  V30 958 C 91.9638 4.37837 3.70251 0
M  V30 959 N 91.4598 5.38286 4.36142 0
M  V30 960 N 93.2528 4.25558 3.67228 0
M  V30 961 H 85.4038 2.07236 0.465499 0
M  V30 962 H 87.6668 0.909236 0.268315 0
M  V30 963 H 87.3728 3.15771 1.54861 0
M  V30 964 H 87.2468 2.23698 3.03709 0
M  V30 965 H 89.6338 1.33078 2.6339 0
M  V30 966 H 89.7148 2.28645 1.14696 0
M  V30 967 H 89.3588 4.41029 2.51905 0
M  V30 968 H 89.2888 3.42393 4.00093 0
M  V30 969 H 91.7798 2.74966 2.59233 0
M  V30 970 H 92.0928 6.03352 4.82894 0
M  V30 971 H 90.4378 5.42176 4.34822 0
M  V30 972 H 93.6288 3.46322 3.14927 0
M  V30 973 H 93.8018 4.96054 4.16935 0
M  V30 974 N 87.2079 -1.17134 1.05439 0
M  V30 975 C 88.1559 -2.23289 0.651511 0
M  V30 976 C 89.1499 -1.66186 -0.328411 0
M  V30 977 O 90.3559 -1.78949 -0.194206 0
M  V30 978 H 86.7309 -0.726938 0.192523 0
M  V30 979 H 88.7019 -2.54565 1.55689 0
M  V30 980 C 87.4509 -3.47671 0.0448436 0
M  V30 981 H 86.7739 -3.91918 0.78996 0
M  V30 982 H 88.2139 -4.2353 -0.19964 0
M  V30 983 C 86.6729 -3.14453 -1.20918 0
M  V30 984 O 87.2029 -3.29459 -2.29825 0
M  V30 985 N 85.4089 -2.68657 -1.10779 0
M  V30 986 H 84.9559 -2.56646 -0.221526 0
M  V30 987 H 84.9139 -2.46804 -1.9477 0
M  V30 988 N 88.686 -0.835752 -1.33615 0
M  V30 989 C 89.914 -0.443344 -2.02094 0
M  V30 990 C 90.329 0.954522 -1.62894 0
M  V30 991 O 89.686 1.61982 -0.840723 0
M  V30 992 C 89.737 -0.550775 -3.5728 0
M  V30 993 O 89.458 -1.89356 -3.95065 0
M  V30 994 C 90.959 -0.154919 -4.43029 0
M  V30 995 H 88.179 -0.176359 -0.647409 0
M  V30 996 H 90.723 -1.12746 -1.70612 0
M  V30 997 H 88.878 0.0853997 -3.87306 0
M  V30 998 H 89.292 -1.87687 -4.89769 0
M  V30 999 H 90.766 -0.281144 -5.51284 0
M  V30 1000 H 91.243 0.902863 -4.2982 0
M  V30 1001 H 91.849 -0.765404 -4.18356 0
M  V30 1002 N 90.1641 1.46063 -0.591896 0
M  V30 1003 C 91.0941 2.33172 0.123673 0
M  V30 1004 C 92.0751 1.45897 0.87453 0
M  V30 1005 O 93.2601 1.74698 0.848181 0
M  V30 1006 C 90.3901 3.28336 1.13194 0
M  V30 1007 C 89.3441 4.25124 0.495324 0
M  V30 1008 C 88.6701 5.09863 1.61071 0
M  V30 1009 C 89.9701 5.19143 -0.573425 0
M  V30 1010 H 91.6641 2.93252 -0.603646 0
M  V30 1011 H 89.2101 1.41014 -0.291741 0
M  V30 1012 H 91.1631 3.88137 1.64097 0
M  V30 1013 H 89.8871 2.66383 1.88965 0
M  V30 1014 H 88.5461 3.66599 0.00729452 0
M  V30 1015 H 88.1941 4.44288 2.35832 0
M  V30 1016 H 87.8941 5.75417 1.19035 0
M  V30 1017 H 89.4181 5.72529 2.12233 0
M  V30 1018 H 90.8321 5.73106 -0.1491 0
M  V30 1019 H 89.2291 5.93089 -0.914636 0
M  V30 1020 H 90.2991 4.62519 -1.45617 0
M  V30 1021 N 91.6422 0.330177 1.54103 0
M  V30 1022 C 92.9192 -0.325007 1.92881 0
M  V30 1023 C 93.2992 -1.6934 1.26045 0
M  V30 1024 O 92.6472 -2.24855 0.406526 0
M  V30 1025 C 92.8572 -0.410634 3.46576 0
M  V30 1026 C 94.2052 -0.667801 4.19316 0
M  V30 1027 O 95.2292 -0.49329 3.52768 0
M  V30 1028 O 94.0882 -1.00491 5.37181 0
M  V30 1029 H 91.1822 -0.186873 0.80561 0
M  V30 1030 H 93.7282 0.380376 1.65382 0
M  V30 1031 H 92.5002 0.550164 3.87413 0
M  V30 1032 H 92.1232 -1.16333 3.802 0
M  V30 1033 N 93.1203 -1.57491 0.0584922 0
M  V30 1034 C 94.3683 -1.92597 -0.612436 0
M  V30 1035 C 94.6893 -0.938162 -1.70949 0
M  V30 1036 O 93.9593 0.0158301 -1.95894 0
M  V30 1037 H 92.5393 -0.710964 -0.229214 0
M  V30 1038 H 95.2013 -1.94571 0.113218 0
M  V30 1039 H 94.2973 -2.94038 -1.04633 0
M  V30 1040 N 94.5984 0.214957 -1.56127 0
M  V30 1041 C 95.8284 0.953707 -1.8327 0
M  V30 1042 C 96.2364 1.78181 -0.636262 0
M  V30 1043 O 95.5794 1.79191 0.404516 0
M  V30 1044 C 95.6414 1.91516 -3.0424 0
M  V30 1045 C 95.3054 1.27094 -4.38972 0
M  V30 1046 C 96.3024 0.657575 -5.15725 0
M  V30 1047 C 93.9874 1.28073 -4.85698 0
M  V30 1048 C 95.9814 0.0625968 -6.37369 0
M  V30 1049 C 93.6684 0.681914 -6.07283 0
M  V30 1050 C 94.6664 0.0739046 -6.8296 0
M  V30 1051 O 94.3544 -0.515582 -8.02245 0
M  V30 1052 H 94.0864 0.284764 -0.613095 0
M  V30 1053 H 96.6404 0.233283 -2.04071 0
M  V30 1054 H 94.8704 2.67475 -2.79274 0
M  V30 1055 H 96.5594 2.52001 -3.18198 0
M  V30 1056 H 97.3254 0.642288 -4.80728 0
M  V30 1057 H 93.2044 1.74337 -4.26764 0
M  V30 1058 H 96.7484 -0.412593 -6.96379 0
M  V30 1059 H 92.6454 0.694636 -6.41752 0
M  V30 1060 H 93.4134 -0.410544 -8.1747 0
M  V30 1061 N 96.0765 1.50051 0.48192 0
M  V30 1062 C 97.3245 1.60181 1.23234 0
M  V30 1063 C 97.6455 0.299176 1.92691 0
M  V30 1064 O 96.9155 -0.682708 1.83619 0
M  V30 1065 H 95.4955 0.590232 0.457859 0
M  V30 1066 H 98.1575 1.86775 0.556881 0
M  V30 1067 H 97.2535 2.40753 1.98607 0
M  V30 1068 N 97.5546 -0.734337 1.39446 0
M  V30 1069 C 98.8036 -1.48937 1.36017 0
M  V30 1070 C 99.1166 -1.95557 -0.0409005 0
M  V30 1071 O 100.323 -2.70779 -0.19778 0
M  V30 1072 C 98.7786 -2.69125 2.38955 0
M  V30 1073 C 98.3866 -2.29452 3.8478 0
M  V30 1074 C 100.131 -3.46944 2.44603 0
M  V30 1075 C 98.0376 -3.46366 4.79358 0
M  V30 1076 H 96.9676 -0.559296 0.505672 0
M  V30 1077 H 99.6186 -0.800983 1.65095 0
M  V30 1078 H 98.0006 -3.40041 2.02948 0
M  V30 1079 H 99.1746 -1.66077 4.29831 0
M  V30 1080 H 97.4896 -1.64723 3.82433 0
M  V30 1081 H 100.087 -4.33907 3.12456 0
M  V30 1082 H 100.43 -3.89454 1.47076 0
M  V30 1083 H 100.963 -2.83056 2.79507 0
M  V30 1084 H 97.7016 -3.08905 5.78151 0
M  V30 1085 H 97.2216 -4.08719 4.38986 0
M  V30 1086 H 98.9006 -4.12691 4.98292 0
M  V30 1087 N 99.0327 -1.24633 -0.964593 0
M  V30 1088 C 99.9827 -1.00841 -2.04487 0
M  V30 1089 C 100.967 0.0512468 -1.60818 0
M  V30 1090 O 102.159 -0.162865 -1.76249 0
M  V30 1091 C 99.2877 -0.618474 -3.37683 0
M  V30 1092 C 98.3737 -1.71437 -3.87905 0
M  V30 1093 N 98.7647 -2.9477 -4.11029 0
M  V30 1094 C 97.0627 -1.5926 -4.16596 0
M  V30 1095 C 97.7637 -3.65834 -4.52261 0
M  V30 1096 N 96.7397 -2.9341 -4.57615 0
M  V30 1097 H 100.542 -1.94487 -2.20345 0
M  V30 1098 H 98.0557 -1.14805 -1.14863 0
M  V30 1099 H 100.053 -0.429247 -4.14684 0
M  V30 1100 H 98.7127 0.310766 -3.23209 0
M  V30 1101 H 99.7237 -3.30917 -3.9839 0
M  V30 1102 H 96.4007 -0.731606 -4.1104 0
M  V30 1103 H 97.7907 -4.71646 -4.78539 0
M  V30 1104 N 100.511 1.16574 -1.06058 0
M  V30 1105 C 101.922 1.68662 -0.800632 0
M  V30 1106 C 102.273 1.84184 0.67608 0
M  V30 1107 O 101.398 1.53568 1.52466 0
M  V30 1108 C 101.993 3.06356 -1.44676 0
M  V30 1109 C 100.552 3.55575 -1.23465 0
M  V30 1110 C 99.6988 2.31616 -1.52477 0
M  V30 1111 H 102.65 1.00969 -1.22438 0
M  V30 1112 H 102.671 3.70636 -0.860788 0
M  V30 1113 H 102.183 2.95027 -2.52152 0
M  V30 1114 H 100.284 3.72167 -0.179527 0
M  V30 1115 H 100.397 4.37812 -1.94571 0
M  V30 1116 H 98.7608 2.36512 -0.945209 0
M  V30 1117 H 99.5438 2.22887 -2.61106 0
M  V30 1118 N 101.989 0.842826 1.3317 0
M  V30 1119 C 102.936 0.276885 2.29133 0
M  V30 1120 C 103.906 -0.609527 1.54512 0
M  V30 1121 O 105.091 -0.546955 1.82792 0
M  V30 1122 C 102.231 -0.538707 3.40869 0
M  V30 1123 C 101.344 0.372169 4.30394 0
M  V30 1124 C 100.479 -0.454908 5.29249 0
M  V30 1125 C 99.5179 0.45411 6.10413 0
M  V30 1126 N 98.6549 -0.335075 7.013 0
M  V30 1127 H 103.495 1.10052 2.76934 0
M  V30 1128 H 101.032 0.554161 1.36262 0
M  V30 1129 H 102.99 -1.02709 4.0436 0
M  V30 1130 H 101.62 -1.32727 2.9425 0
M  V30 1131 H 100.672 0.97888 3.6759 0
M  V30 1132 H 101.984 1.0703 4.87182 0
M  V30 1133 H 101.138 -1.00695 5.98285 0
M  V30 1134 H 99.8769 -1.18646 4.73048 0
M  V30 1135 H 98.8819 1.01813 5.40291 0
M  V30 1136 H 100.107 1.18409 6.68697 0
M  V30 1137 H 98.0529 -1.04994 6.47543 0
M  V30 1138 H 97.9699 0.304262 7.55387 0
M  V30 1139 H 99.2379 -0.869224 7.74638 0
M  V30 1140 N 103.467 -1.45747 0.599634 0
M  V30 1141 C 104.692 -2.07178 0.0960198 0
M  V30 1142 C 105.117 -1.44268 -1.207 0
M  V30 1143 O 104.475 -0.532503 -1.73303 0
M  V30 1144 C 104.523 -3.60579 -0.0385348 0
M  V30 1145 O 103.627 -3.97713 -1.0908 0
M  V30 1146 H 102.968 -0.660251 0.0704593 0
M  V30 1147 H 105.498 -1.87124 0.827385 0
M  V30 1148 H 105.508 -4.07298 -0.239304 0
M  V30 1149 H 104.183 -4.05756 0.912947 0
M  V30 1150 H 102.76 -3.62678 -0.867135 0
M  V30 1151 N 104.945 -0.338344 -1.53925 0
M  V30 1152 C 106.194 0.260732 -2.00008 0
M  V30 1153 C 106.507 1.52073 -1.23017 0
M  V30 1154 O 107.713 2.19672 -1.5955 0
M  V30 1155 C 106.169 0.51515 -3.56194 0
M  V30 1156 C 105.777 -0.728645 -4.42035 0
M  V30 1157 C 107.521 1.07337 -4.10706 0
M  V30 1158 C 105.428 -0.445315 -5.89721 0
M  V30 1159 H 104.358 0.101205 -0.747177 0
M  V30 1160 H 107.009 -0.452866 -1.77824 0
M  V30 1161 H 105.391 1.28932 -3.74423 0
M  V30 1162 H 106.565 -1.50352 -4.35581 0
M  V30 1163 H 104.88 -1.20813 -3.98489 0
M  V30 1164 H 107.477 1.30022 -5.18651 0
M  V30 1165 H 107.82 2.0273 -3.63602 0
M  V30 1166 H 108.353 0.360034 -3.96167 0
M  V30 1167 H 105.092 -1.36883 -6.41049 0
M  V30 1168 H 104.612 0.291569 -5.99091 0
M  V30 1169 H 106.291 -0.0606218 -6.46972 0
M  V30 1170 N 106.423 1.57458 -0.0668435 0
M  V30 1171 C 107.7 1.8469 0.644132 0
M  V30 1172 C 108.08 0.958343 1.88093 0
M  V30 1173 O 107.428 0.0233579 2.28488 0
M  V30 1174 C 107.638 3.34767 0.986509 0
M  V30 1175 C 108.986 4.02159 1.36212 0
M  V30 1176 O 110.01 3.39484 1.07839 0
M  V30 1177 O 108.869 5.12694 1.89227 0
M  V30 1178 H 105.963 0.762816 0.319437 0
M  V30 1179 H 108.509 1.6942 -0.0973986 0
M  V30 1180 H 107.281 3.91151 0.107883 0
M  V30 1181 H 106.904 3.55281 1.78497 0
M  V30 1182 N 107.901 -0.206675 1.56239 0
M  V30 1183 C 108.831 -1.25909 1.96645 0
M  V30 1184 C 109.812 -1.48097 0.836734 0
M  V30 1185 O 110.997 -1.6003 1.10019 0
M  V30 1186 C 108.127 -2.6058 2.29599 0
M  V30 1187 C 107.081 -2.53024 3.452 0
M  V30 1188 C 106.407 -3.91861 3.63798 0
M  V30 1189 C 107.707 -2.06524 4.79734 0
M  V30 1190 H 109.401 -0.923369 2.84806 0
M  V30 1191 H 106.947 -0.442735 1.37025 0
M  V30 1192 H 108.9 -3.34375 2.56459 0
M  V30 1193 H 107.624 -2.95869 1.38307 0
M  V30 1194 H 106.283 -1.81684 3.18412 0
M  V30 1195 H 105.931 -4.24483 2.69857 0
M  V30 1196 H 105.631 -3.87683 4.4156 0
M  V30 1197 H 107.155 -4.67296 3.93022 0
M  V30 1198 H 108.569 -2.70072 5.05702 0
M  V30 1199 H 106.966 -2.13374 5.60885 0
M  V30 1200 H 108.036 -1.01802 4.74093 0
M  V30 1201 N 109.379 -1.50304 -0.473955 0
M  V30 1202 C 110.656 -1.51667 -1.23518 0
M  V30 1203 C 111.036 -0.259701 -2.09496 0
M  V30 1204 O 110.384 0.756986 -2.15597 0
M  V30 1205 C 110.594 -2.81082 -2.06868 0
M  V30 1206 C 111.942 -3.31631 -2.65153 0
M  V30 1207 O 112.966 -2.82384 -2.17113 0
M  V30 1208 O 111.825 -4.17471 -3.52675 0
M  V30 1209 H 108.919 -0.60822 -0.560355 0
M  V30 1210 H 111.465 -1.62592 -0.486011 0
M  V30 1211 H 110.237 -3.64041 -1.4349 0
M  V30 1212 H 109.86 -2.73146 -2.88924 0
M  V30 1213 N 110.857 0.726932 -1.39834 0
M  V30 1214 C 111.805 1.86235 -1.39353 0
M  V30 1215 C 112.799 1.67144 -0.275555 0
M  V30 1216 O 114.005 1.74387 -0.44601 0
M  V30 1217 H 110.38 0.613174 -0.43534 0
M  V30 1218 H 112.351 1.83756 -2.35109 0
M  V30 1219 C 111.1 3.23995 -1.26185 0
M  V30 1220 H 110.423 3.39285 -2.11484 0
M  V30 1221 H 111.863 4.03609 -1.29907 0
M  V30 1222 C 110.322 3.36888 0.0290018 0
M  V30 1223 O 110.852 3.89152 0.99619 0
M  V30 1224 N 109.058 2.90446 0.0947437 0
M  V30 1225 H 108.605 2.48102 -0.693035 0
M  V30 1226 H 108.563 2.99451 0.957932 0
M  V30 1227 N 112.336 1.25143 0.95797 0
M  V30 1228 C 113.566 1.12261 1.73439 0
M  V30 1229 C 113.974 -0.326715 1.86358 0
M  V30 1230 O 113.317 -1.2367 1.35836 0
M  V30 1231 C 113.379 1.69966 3.16784 0
M  V30 1232 C 113.043 3.18936 3.27305 0
M  V30 1233 C 114.04 4.15968 3.11877 0
M  V30 1234 C 111.725 3.59083 3.51234 0
M  V30 1235 C 113.719 5.51126 3.20217 0
M  V30 1236 C 111.406 4.9438 3.5921 0
M  V30 1237 C 112.404 5.90211 3.43716 0
M  V30 1238 O 112.092 7.23046 3.51368 0
M  V30 1239 H 111.824 0.392476 0.550399 0
M  V30 1240 H 114.378 1.65927 1.21068 0
M  V30 1241 H 112.608 1.10744 3.70503 0
M  V30 1242 H 114.297 1.52232 3.76272 0
M  V30 1243 H 115.063 3.86292 2.93264 0
M  V30 1244 H 110.942 2.84989 3.62356 0
M  V30 1245 H 114.486 6.25905 3.0804 0
M  V30 1246 H 110.383 5.23723 3.77339 0
M  V30 1247 H 111.151 7.31097 3.6802 0
M  V30 1248 N 113.814 -1.1601 1.06675 0
M  V30 1249 C 115.061 -1.86633 0.785781 0
M  V30 1250 C 115.389 -1.81929 -0.687896 0
M  V30 1251 O 114.644 -1.23253 -1.52011 0
M  V30 1252 C 114.943 -3.35547 1.23057 0
M  V30 1253 C 114.609 -3.60448 2.70902 0
M  V30 1254 C 113.271 -3.66954 3.11285 0
M  V30 1255 C 115.623 -3.7071 3.66365 0
M  V30 1256 C 112.951 -3.81225 4.45965 0
M  V30 1257 C 115.303 -3.86503 5.00797 0
M  V30 1258 C 113.967 -3.91252 5.40813 0
M  V30 1259 H 113.237 -0.682937 0.287538 0
M  V30 1260 H 115.884 -1.37146 1.33654 0
M  V30 1261 H 114.189 -3.87193 0.59907 0
M  V30 1262 H 115.886 -3.88583 0.990163 0
M  V30 1263 H 112.476 -3.56021 2.38636 0
M  V30 1264 H 116.66 -3.64991 3.36296 0
M  V30 1265 H 111.916 -3.83155 4.76447 0
M  V30 1266 H 116.09 -3.93385 5.74649 0
M  V30 1267 H 113.717 -4.02062 6.45174 0
M  V30 1268 N 115.292 -0.849877 -1.32721 0
M  V30 1269 C 116.52 -0.464754 -2.01613 0
M  V30 1270 C 116.935 0.937191 -1.63897 0
M  V30 1271 O 116.292 1.61081 -0.857856 0
M  V30 1272 C 116.343 -0.588638 -3.56675 0
M  V30 1273 O 116.064 -1.93535 -3.93034 0
M  V30 1274 C 117.565 -0.2019 -4.4284 0
M  V30 1275 H 114.785 -0.183215 -0.645502 0
M  V30 1276 H 117.329 -1.1455 -1.69407 0
M  V30 1277 H 115.484 0.0443159 -3.87375 0
M  V30 1278 H 115.898 -1.92871 -4.87751 0
M  V30 1279 H 117.372 -0.339599 -5.50954 0
M  V30 1280 H 117.849 0.857224 -4.30753 0
M  V30 1281 H 118.455 -0.809733 -4.17521 0
M  V30 1282 N 116.77 1.45427 -0.607355 0
M  V30 1283 C 117.733 2.28974 0.101693 0
M  V30 1284 C 118.733 1.39754 0.795329 0
M  V30 1285 O 119.923 1.61878 0.643527 0
M  V30 1286 C 117.055 3.20768 1.15414 0
M  V30 1287 H 118.248 2.93147 -0.632844 0
M  V30 1288 H 115.801 1.51945 -0.366391 0
M  V30 1289 H 116.536 2.61395 1.91945 0
M  V30 1290 H 116.321 3.86489 0.66098 0
M  V30 1291 H 117.811 3.83589 1.65073 0
M  V30 1292 N 118.248 0.346503 1.53744 0
M  V30 1293 C 119.664 -0.00530975 1.59599 0
M  V30 1294 C 119.864 -1.48465 1.36236 0
M  V30 1295 O 118.92 -2.24376 1.15808 0
M  V30 1296 C 120.233 0.433516 2.97559 0
M  V30 1297 C 121.781 0.386111 3.10609 0
M  V30 1298 C 122.256 0.800451 4.50951 0
M  V30 1299 N 123.747 0.754753 4.5701 0
M  V30 1300 C 124.482 1.04727 5.63755 0
M  V30 1301 N 123.978 1.4081 6.7834 0
M  V30 1302 N 125.771 0.971316 5.53644 0
M  V30 1303 H 117.922 1.31009 1.67184 0
M  V30 1304 H 120.185 0.534242 0.783128 0
M  V30 1305 H 119.891 1.46509 3.19731 0
M  V30 1306 H 119.765 -0.189753 3.76722 0
M  V30 1307 H 122.152 -0.636295 2.88158 0
M  V30 1308 H 122.233 1.04462 2.33498 0
M  V30 1309 H 121.877 1.82088 4.74137 0
M  V30 1310 H 121.807 0.119386 5.26465 0
M  V30 1311 H 124.298 0.488662 3.74727 0
M  V30 1312 H 124.611 1.61607 7.55714 0
M  V30 1313 H 122.956 1.44657 6.79779 0
M  V30 1314 H 126.147 0.688748 4.63005 0
M  V30 1315 H 126.32 1.20263 6.36742 0
M  V30 1316 N 119.726 -1.57421 0.075193 0
M  V30 1317 C 121.142 -1.57099 -0.281444 0
M  V30 1318 C 121.342 -1.08486 -1.69803 0
M  V30 1319 O 120.398 -0.752279 -2.41033 0
M  V30 1320 C 121.711 -3.00571 -0.0880041 0
M  V30 1321 C 123.259 -3.12605 -0.157281 0
M  V30 1322 C 123.734 -4.57999 0.0079207 0
M  V30 1323 N 125.225 -4.63176 -0.0475725 0
M  V30 1324 C 125.96 -5.73373 0.0557876 0
M  V30 1325 N 125.456 -6.92473 0.21286 0
M  V30 1326 N 127.249 -5.621 -0.00152098 0
M  V30 1327 H 119.4 -1.87335 1.00098 0
M  V30 1328 H 121.663 -0.86377 0.390646 0
M  V30 1329 H 121.369 -3.40262 0.889629 0
M  V30 1330 H 121.243 -3.67754 -0.838875 0
M  V30 1331 H 123.63 -2.72798 -1.1254 0
M  V30 1332 H 123.711 -2.48053 0.62475 0
M  V30 1333 H 123.355 -4.98496 0.972824 0
M  V30 1334 H 123.285 -5.20586 -0.793556 0
M  V30 1335 H 125.776 -3.7753 -0.167244 0
M  V30 1336 H 126.089 -7.72279 0.283781 0
M  V30 1337 H 124.434 -6.94556 0.248267 0
M  V30 1338 H 127.625 -4.67938 -0.122958 0
M  V30 1339 H 127.798 -6.47948 0.0824844 0
M  V30 1340 N 121.204 0.198386 -1.56346 0
M  V30 1341 C 122.134 1.24865 -1.9731 0
M  V30 1342 C 123.115 1.47651 -0.844576 0
M  V30 1343 O 124.3 1.59444 -1.10866 0
M  V30 1344 C 121.43 2.59358 -2.30977 0
M  V30 1345 C 120.384 2.5119 -3.46537 0
M  V30 1346 C 119.71 3.89926 -3.65871 0
M  V30 1347 C 121.01 2.03977 -4.80823 0
M  V30 1348 H 122.704 0.908252 -2.85291 0
M  V30 1349 H 120.25 0.435462 -1.37258 0
M  V30 1350 H 122.203 3.33011 -2.58228 0
M  V30 1351 H 120.927 2.95132 -1.39874 0
M  V30 1352 H 119.586 1.79993 -3.19371 0
M  V30 1353 H 119.234 4.23046 -2.72105 0
M  V30 1354 H 118.934 3.85336 -4.4361 0
M  V30 1355 H 120.458 4.65205 -3.95495 0
M  V30 1356 H 121.872 2.67386 -5.07127 0
M  V30 1357 H 120.269 2.10397 -5.62008 0
M  V30 1358 H 121.339 0.992861 -4.74626 0
M  V30 1359 N 122.682 1.50554 0.465978 0
M  V30 1360 C 123.612 1.72722 1.57128 0
M  V30 1361 C 124.593 0.576294 1.6004 0
M  V30 1362 O 125.778 0.81598 1.76225 0
M  V30 1363 C 122.908 1.82605 2.95419 0
M  V30 1364 C 121.862 2.97835 3.07373 0
M  V30 1365 C 121.188 2.92867 4.47363 0
M  V30 1366 C 122.488 4.38265 2.84114 0
M  V30 1367 H 124.182 2.65267 1.38829 0
M  V30 1368 H 121.728 1.2765 0.666441 0
M  V30 1369 H 123.681 1.96698 3.72677 0
M  V30 1370 H 122.405 0.866858 3.14886 0
M  V30 1371 H 121.064 2.83401 2.3255 0
M  V30 1372 H 120.712 1.94783 4.63755 0
M  V30 1373 H 120.412 3.70227 4.56296 0
M  V30 1374 H 121.936 3.09015 5.26633 0
M  V30 1375 H 123.35 4.53198 3.51118 0
M  V30 1376 H 121.747 5.17115 3.04487 0
M  V30 1377 H 122.817 4.50281 1.7993 0
M  V30 1378 N 124.16 -0.719506 1.40217 0
M  V30 1379 C 125.385 -1.51371 1.4178 0
M  V30 1380 C 125.81 -1.88091 0.0182355 0
M  V30 1381 O 125.168 -1.52997 -0.972707 0
M  V30 1382 C 125.216 -2.768 2.31115 0
M  V30 1383 O 124.32 -3.73349 1.7517 0
M  V30 1384 H 123.661 -0.456529 0.482159 0
M  V30 1385 H 126.191 -0.88644 1.844 0
M  V30 1386 H 126.201 -3.25371 2.46167 0
M  V30 1387 H 124.876 -2.49407 3.3282 0
M  V30 1388 H 123.453 -3.32179 1.69444 0
M  V30 1389 N 125.638 -1.25649 -0.95132 0
M  V30 1390 C 126.57 -1.02112 -2.05197 0
M  V30 1391 C 127.583 0.0150571 -1.62793 0
M  V30 1392 O 128.772 -0.223874 -1.77091 0
M  V30 1393 C 125.872 -0.522361 -3.3485 0
M  V30 1394 C 125.045 -1.62546 -4.06076 0
M  V30 1395 C 124.104 -1.12649 -5.14001 0
M  V30 1396 O 123.13 -1.82156 -5.39266 0
M  V30 1397 N 124.332 0.03047 -5.80492 0
M  V30 1398 H 127.097 -1.96885 -2.25957 0
M  V30 1399 H 124.658 -1.16899 -1.1201 0
M  V30 1400 H 126.65 -0.172961 -4.0433 0
M  V30 1401 H 125.22 0.33151 -3.10837 0
M  V30 1402 H 124.44 -2.14628 -3.30649 0
M  V30 1403 H 125.728 -2.36644 -4.50419 0
M  V30 1404 H 125.126 0.611169 -5.62389 0
M  V30 1405 H 123.683 0.320875 -6.5101 0
M  V30 1406 N 127.117 1.15442 -1.07289 0
M  V30 1407 C 128.363 1.86489 -0.796846 0
M  V30 1408 C 128.696 1.82078 0.675371 0
M  V30 1409 O 127.971 1.24346 1.4956 0
M  V30 1410 C 128.254 3.35626 -1.30489 0
M  V30 1411 C 128.107 3.48673 -2.84161 0
M  V30 1412 C 129.426 4.30357 -0.920907 0
M  V30 1413 H 126.545 0.677144 -0.290939 0
M  V30 1414 H 129.187 1.35633 -1.33056 0
M  V30 1415 H 127.337 3.79068 -0.850883 0
M  V30 1416 H 129.009 3.14099 -3.37846 0
M  V30 1417 H 127.252 2.90253 -3.22391 0
M  V30 1418 H 127.923 4.53453 -3.14777 0
M  V30 1419 H 130.399 3.94871 -1.3121 0
M  V30 1420 H 129.275 5.33193 -1.30372 0
M  V30 1421 H 129.536 4.4176 0.173226 0
M  V30 1422 N 128.595 0.856903 1.32268 0
M  V30 1423 C 130.011 0.547061 1.49931 0
M  V30 1424 C 130.211 -0.921781 1.7918 0
M  V30 1425 O 129.267 -1.70469 1.8627 0
M  V30 1426 C 130.58 1.43599 2.64196 0
M  V30 1427 C 132.128 1.43665 2.78081 0
M  V30 1428 C 132.603 2.31085 3.95428 0
M  V30 1429 N 134.094 2.28893 4.02694 0
M  V30 1430 C 134.829 2.93262 4.92732 0
M  V30 1431 N 134.325 3.66751 5.87763 0
M  V30 1432 N 136.118 2.82638 4.85873 0
M  V30 1433 H 128.269 1.8075 1.11549 0
M  V30 1434 H 130.532 0.772144 0.549997 0
M  V30 1435 H 130.238 2.48058 2.49319 0
M  V30 1436 H 130.112 1.12502 3.60032 0
M  V30 1437 H 132.499 0.399701 2.92381 0
M  V30 1438 H 132.58 1.7878 1.82952 0
M  V30 1439 H 132.224 3.34849 3.81888 0
M  V30 1440 H 132.154 1.93302 4.89839 0
M  V30 1441 H 134.645 1.75466 3.34694 0
M  V30 1442 H 134.958 4.13027 6.53168 0
M  V30 1443 H 133.303 3.70859 5.87783 0
M  V30 1444 H 136.494 2.24774 4.10602 0
M  V30 1445 H 136.667 3.33084 5.55841 0
M  V30 1446 N 130.073 -1.45103 0.615059 0
M  V30 1447 C 131.036 -2.29025 -0.0895485 0
M  V30 1448 C 132.036 -1.40174 -0.787906 0
M  V30 1449 O 133.226 -1.62217 -0.634933 0
M  V30 1450 C 130.358 -3.21376 -1.13711 0
M  V30 1451 H 131.551 -2.92807 0.648382 0
M  V30 1452 H 129.104 -1.51749 0.374444 0
M  V30 1453 H 129.839 -2.6241 -1.90556 0
M  V30 1454 H 129.624 -3.86834 -0.640475 0
M  V30 1455 H 131.114 -3.84459 -1.63036 0
M  V30 1456 N 131.551 -0.354651 -1.53558 0
M  V30 1457 C 132.481 0.489091 -2.2832 0
M  V30 1458 C 133.462 1.09324 -1.30316 0
M  V30 1459 O 134.647 1.11255 -1.59173 0
M  V30 1460 C 131.777 1.63456 -3.0643 0
M  V30 1461 C 130.731 1.1582 -4.12031 0
M  V30 1462 C 130.057 2.39305 -4.7816 0
M  V30 1463 C 131.357 0.250731 -5.21698 0
M  V30 1464 H 133.051 -0.134614 -2.99097 0
M  V30 1465 H 130.597 -0.0661826 -1.43848 0
M  V30 1466 H 132.55 2.23136 -3.57475 0
M  V30 1467 H 131.274 2.28533 -2.33325 0
M  V30 1468 H 129.933 0.584146 -3.61916 0
M  V30 1469 H 129.581 3.02814 -4.01637 0
M  V30 1470 H 129.281 2.08109 -5.49513 0
M  V30 1471 H 130.805 2.99691 -5.31994 0
M  V30 1472 H 132.219 0.754695 -5.68311 0
M  V30 1473 H 130.616 0.0301468 -6.00092 0
M  V30 1474 H 131.686 -0.710125 -4.79672 0
M  V30 1475 N 133.029 1.57378 -0.0835403 0
M  V30 1476 C 134.306 1.85363 0.624507 0
M  V30 1477 C 134.686 0.978239 1.87066 0
M  V30 1478 O 134.034 0.0475908 2.2845 0
M  V30 1479 C 134.244 3.35795 0.950947 0
M  V30 1480 C 135.592 4.03581 1.31939 0
M  V30 1481 O 136.616 3.40609 1.04232 0
M  V30 1482 O 135.475 5.14672 1.83779 0
M  V30 1483 H 132.569 0.766162 0.311329 0
M  V30 1484 H 135.115 1.69307 -0.115362 0
M  V30 1485 H 133.887 3.91244 0.0663899 0
M  V30 1486 H 133.51 3.57154 1.74719 0
M  V30 1487 N 134.507 -0.190092 1.56449 0
M  V30 1488 C 135.923 -0.54113 1.50146 0
M  V30 1489 C 136.123 -1.85603 0.784465 0
M  V30 1490 O 135.179 -2.5024 0.337051 0
M  V30 1491 C 136.492 -0.591241 2.9483 0
M  V30 1492 C 138.04 -0.679732 3.0553 0
M  V30 1493 C 138.515 -0.760908 4.51635 0
M  V30 1494 N 140.006 -0.824302 4.55806 0
M  V30 1495 C 140.741 -0.907365 5.66175 0
M  V30 1496 N 140.237 -0.952422 6.86222 0
M  V30 1497 N 142.03 -0.94494 5.541 0
M  V30 1498 H 134.181 0.67235 2.01478 0
M  V30 1499 H 136.444 0.240127 0.917084 0
M  V30 1500 H 136.15 0.305905 3.50367 0
M  V30 1501 H 136.024 -1.44422 3.48457 0
M  V30 1502 H 138.411 -1.56731 2.50039 0
M  V30 1503 H 138.492 0.199549 2.5502 0
M  V30 1504 H 138.136 0.122336 5.07753 0
M  V30 1505 H 138.066 -1.65606 4.99882 0
M  V30 1506 H 140.557 -0.798526 3.69367 0
M  V30 1507 H 140.87 -1.01645 7.66086 0
M  V30 1508 H 139.215 -0.921014 6.8887 0
M  V30 1509 H 142.406 -0.906612 4.59236 0
M  V30 1510 H 142.579 -1.00622 6.4014 0
M  V30 1511 N 135.985 -1.50799 -0.457987 0
M  V30 1512 C 137.232 -1.62442 -1.20908 0
M  V30 1513 C 137.56 -0.330865 -1.91665 0
M  V30 1514 O 136.815 0.68401 -1.83357 0
M  V30 1515 C 137.114 -2.76358 -2.2663 0
M  V30 1516 C 136.78 -4.16378 -1.73033 0
M  V30 1517 C 135.442 -4.54473 -1.58138 0
M  V30 1518 C 137.794 -5.03836 -1.33413 0
M  V30 1519 C 135.122 -5.77754 -1.02065 0
M  V30 1520 C 137.474 -6.27676 -0.78778 0
M  V30 1521 C 136.138 -6.64562 -0.625561 0
M  V30 1522 H 135.408 -0.594417 -0.442435 0
M  V30 1523 H 138.055 -1.84772 -0.503136 0
M  V30 1524 H 136.36 -2.48167 -3.03184 0
M  V30 1525 H 138.057 -2.82568 -2.84528 0
M  V30 1526 H 134.647 -3.86331 -1.85598 0
M  V30 1527 H 138.831 -4.75026 -1.4375 0
M  V30 1528 H 134.087 -6.04997 -0.882547 0
M  V30 1529 H 138.261 -6.94797 -0.472177 0
M  V30 1530 H 135.888 -7.59965 -0.188926 0
M  V30 1531 N 137.463 0.71206 -1.40597 0
M  V30 1532 C 138.395 1.83704 -1.37061 0
M  V30 1533 C 139.408 1.60453 -0.275426 0
M  V30 1534 O 140.597 1.70262 -0.53602 0
M  V30 1535 C 137.697 3.20172 -1.11099 0
M  V30 1536 C 136.87 3.7059 -2.3234 0
M  V30 1537 C 135.929 4.85681 -2.02485 0
M  V30 1538 O 134.955 4.9815 -2.75382 0
M  V30 1539 N 136.157 5.71735 -1.00497 0
M  V30 1540 H 138.922 1.87235 -2.34016 0
M  V30 1541 H 136.483 0.893739 -1.34996 0
M  V30 1542 H 138.475 3.94768 -0.891064 0
M  V30 1543 H 137.045 3.11767 -0.227989 0
M  V30 1544 H 136.265 2.87085 -2.7014 0
M  V30 1545 H 137.553 4.01011 -3.13157 0
M  V30 1546 H 136.951 5.64275 -0.401298 0
M  V30 1547 H 135.508 6.463 -0.844942 0
M  V30 1548 N 138.941 1.26152 0.944643 0
M  V30 1549 C 140.187 1.11657 1.69294 0
M  V30 1550 C 140.52 -0.339926 1.91202 0
M  V30 1551 O 139.795 -1.24994 1.49019 0
M  V30 1552 C 140.078 1.88236 3.06984 0
M  V30 1553 C 139.931 3.41772 2.92424 0
M  V30 1554 C 141.25 1.67343 4.07043 0
M  V30 1555 H 138.369 0.407004 0.614424 0
M  V30 1556 H 141.011 1.55106 1.09737 0
M  V30 1557 H 139.161 1.51308 3.57824 0
M  V30 1558 H 140.833 3.88433 2.48832 0
M  V30 1559 H 139.076 3.68974 2.28124 0
M  V30 1560 H 139.747 3.90579 3.90067 0
M  V30 1561 H 142.223 1.99509 3.65151 0
M  V30 1562 H 141.099 2.23346 5.01406 0
M  V30 1563 H 141.36 0.617158 4.37771 0
M  V30 1564 N 140.419 -1.14872 1.07899 0
M  V30 1565 C 141.83 -1.67367 0.827363 0
M  V30 1566 C 142.181 -1.85236 -0.646693 0
M  V30 1567 O 141.306 -1.55974 -1.50004 0
M  V30 1568 C 141.901 -3.04016 1.49532 0
M  V30 1569 C 140.46 -3.53566 1.29106 0
M  V30 1570 C 139.607 -2.29161 1.56143 0
M  V30 1571 H 142.558 -0.990083 1.24028 0
M  V30 1572 H 142.579 -3.69219 0.919643 0
M  V30 1573 H 142.091 -2.90978 2.56814 0
M  V30 1574 H 140.192 -3.71835 0.238713 0
M  V30 1575 H 140.305 -4.34661 2.01511 0
M  V30 1576 H 138.669 -2.34978 0.982717 0
M  V30 1577 H 139.452 -2.18705 2.64619 0
M  V30 1578 N 141.898 -0.863906 -1.31812 0
M  V30 1579 C 143.126 -0.486111 -2.01108 0
M  V30 1580 C 143.541 0.919755 -1.64882 0
M  V30 1581 O 142.898 1.60162 -0.874893 0
M  V30 1582 C 142.949 -0.626435 -3.56031 0
M  V30 1583 O 142.67 -1.97693 -3.90959 0
M  V30 1584 C 144.171 -0.248857 -4.42601 0
M  V30 1585 H 141.391 -0.190052 -0.643523 0
M  V30 1586 H 143.935 -1.1634 -1.68182 0
M  V30 1587 H 142.09 0.00322717 -3.874 0
M  V30 1588 H 142.504 -1.98034 -4.85678 0
M  V30 1589 H 143.978 -0.398016 -5.50563 0
M  V30 1590 H 144.455 0.811489 -4.31638 0
M  V30 1591 H 145.061 -0.853971 -4.16638 0
M  V30 1592 N 143.376 1.44774 -0.622745 0
M  V30 1593 C 144.604 2.06487 -0.130722 0
M  V30 1594 C 145.019 1.46476 1.19123 0
M  V30 1595 O 144.376 0.584502 1.72887 0
M  V30 1596 C 144.427 3.615 -0.000807207 0
M  V30 1597 O 144.148 4.19274 -1.27048 0
M  V30 1598 C 145.649 4.40229 0.520898 0
M  V30 1599 H 142.869 0.666704 -0.0758106 0
M  V30 1600 H 145.413 1.85779 -0.854774 0
M  V30 1601 H 143.568 3.81498 0.673643 0
M  V30 1602 H 143.982 5.12622 -1.1099 0
M  V30 1603 H 145.456 5.49144 0.560838 0
M  V30 1604 H 145.933 4.1108 1.54627 0
M  V30 1605 H 146.539 4.25131 -0.120018 0
M  V30 1606 N 144.854 0.36279 1.53368 0
M  V30 1607 C 145.764 -0.492994 2.29362 0
M  V30 1608 C 146.78 -1.09507 1.35219 0
M  V30 1609 O 147.956 -1.10662 1.68273 0
M  V30 1610 C 145.021 -1.61855 3.066 0
M  V30 1611 C 144.082 -1.04429 4.16405 0
M  V30 1612 C 143.315 -2.11621 4.89951 0
M  V30 1613 O 143.538 -3.32684 4.63333 0
M  V30 1614 O 142.472 -1.74835 5.75948 0
M  V30 1615 H 146.298 0.125331 3.03441 0
M  V30 1616 H 143.883 0.127253 1.48857 0
M  V30 1617 H 145.765 -2.27302 3.54841 0
M  V30 1618 H 144.44 -2.22233 2.3536 0
M  V30 1619 H 143.347 -0.353819 3.72423 0
M  V30 1620 H 144.68 -0.485113 4.89804 0
M  V30 1621 N 146.332 -1.57332 0.0918853 0
M  V30 1622 C 147.578 -1.94524 -0.573425 0
M  V30 1623 C 147.911 -0.973578 -1.68033 0
M  V30 1624 O 147.186 -0.00609226 -1.94499 0
M  V30 1625 C 147.469 -3.41858 -1.13161 0
M  V30 1626 C 147.322 -4.4979 -0.0299747 0
M  V30 1627 C 148.641 -3.90435 -2.03098 0
M  V30 1628 H 145.76 -0.70734 -0.206975 0
M  V30 1629 H 148.402 -1.89309 0.161942 0
M  V30 1630 H 146.552 -3.46433 -1.7583 0
M  V30 1631 H 148.224 -4.57327 0.604112 0
M  V30 1632 H 146.467 -4.291 0.636833 0
M  V30 1633 H 147.138 -5.50069 -0.461287 0
M  V30 1634 H 149.614 -3.87992 -1.50338 0
M  V30 1635 H 148.49 -4.94097 -2.39081 0
M  V30 1636 H 148.751 -3.29541 -2.94712 0
M  V30 1637 N 147.81 0.181792 -1.56548 0
M  V30 1638 C 148.758 1.24461 -1.965 0
M  V30 1639 C 149.752 1.464 -0.852261 0
M  V30 1640 O 150.958 1.47103 -1.03733 0
M  V30 1641 H 147.333 0.418138 -0.625031 0
M  V30 1642 H 149.304 0.880714 -2.85107 0
M  V30 1643 C 148.053 2.57891 -2.33212 0
M  V30 1644 H 147.376 2.41829 -3.18369 0
M  V30 1645 H 148.816 3.3097 -2.65019 0
M  V30 1646 C 147.275 3.15871 -1.17163 0
M  V30 1647 O 147.805 3.9913 -0.453708 0
M  V30 1648 N 146.011 2.74808 -0.944936 0
M  V30 1649 H 145.558 2.07205 -1.53049 0
M  V30 1650 H 145.516 3.13939 -0.170286 0
M  V30 1651 N 149.288 1.51039 0.449983 0
M  V30 1652 C 150.251 1.70863 1.5277 0
M  V30 1653 C 151.251 0.578846 1.5002 0
M  V30 1654 O 152.441 0.846213 1.52266 0
M  V30 1655 C 149.573 1.75341 2.9235 0
M  V30 1656 H 150.766 2.67034 1.36502 0
M  V30 1657 H 148.319 1.40838 0.677812 0
M  V30 1658 H 149.054 0.809383 3.14037 0
M  V30 1659 H 148.839 2.57436 2.95752 0
M  V30 1660 H 150.329 1.92559 3.70555 0
M  V30 1661 N 150.766 -0.704594 1.40972 0
M  V30 1662 C 152.012 -1.46546 1.41053 0
M  V30 1663 C 152.367 -1.92393 0.0159714 0
M  V30 1664 O 151.66 -1.66017 -0.956506 0
M  V30 1665 C 151.854 -2.698 2.34399 0
M  V30 1666 C 151.683 -2.36008 3.82793 0
M  V30 1667 C 150.453 -2.26812 4.51536 0
M  V30 1668 C 152.651 -1.99565 4.74003 0
M  V30 1669 N 150.633 -1.8581 5.85105 0
M  V30 1670 C 152.004 -1.69251 5.96451 0
M  V30 1671 C 154.059 -1.86296 4.61734 0
M  V30 1672 C 152.762 -1.27003 7.07999 0
M  V30 1673 C 154.788 -1.45452 5.73234 0
M  V30 1674 C 154.15 -1.16043 6.94776 0
M  V30 1675 H 150.249 -0.533896 0.571383 0
M  V30 1676 H 152.833 -0.816061 1.76773 0
M  V30 1677 H 151.004 -3.32473 2.00789 0
M  V30 1678 H 152.736 -3.36214 2.25261 0
M  V30 1679 H 149.491 -2.44913 4.05357 0
M  V30 1680 H 149.915 -1.67817 6.55871 0
M  V30 1681 H 154.557 -2.0769 3.68273 0
M  V30 1682 H 152.275 -1.04353 8.01334 0
M  V30 1683 H 155.861 -1.35748 5.65742 0
M  V30 1684 H 154.741 -0.84915 7.79589 0
M  V30 1685 N 152.244 -1.26651 -0.937939 0
M  V30 1686 C 153.174 -1.10993 -2.05433 0
M  V30 1687 C 154.155 -0.0142161 -1.70094 0
M  V30 1688 O 155.34 -0.186837 -1.93299 0
M  V30 1689 C 152.47 -0.745561 -3.39203 0
M  V30 1690 C 151.424 -1.79337 -3.88616 0
M  V30 1691 C 150.75 -1.28324 -5.19073 0
M  V30 1692 C 152.05 -3.19553 -4.13138 0
M  V30 1693 H 153.744 -2.0438 -2.1879 0
M  V30 1694 H 151.29 -0.984041 -1.05131 0
M  V30 1695 H 153.243 -0.622888 -4.16771 0
M  V30 1696 H 151.967 0.22401 -3.25831 0
M  V30 1697 H 150.626 -1.90477 -3.13231 0
M  V30 1698 H 150.274 -0.303414 -5.02084 0
M  V30 1699 H 149.974 -1.98369 -5.53103 0
M  V30 1700 H 151.498 -1.1733 -5.99221 0
M  V30 1701 H 152.912 -3.11471 -4.81309 0
M  V30 1702 H 151.309 -3.87218 -4.58457 0
M  V30 1703 H 152.379 -3.65368 -3.18801 0
M  V30 1704 N 153.722 1.14298 -1.08507 0
M  V30 1705 C 154.968 1.85633 -0.816581 0
M  V30 1706 C 155.301 1.82784 0.656021 0
M  V30 1707 O 154.576 1.25926 1.48233 0
M  V30 1708 C 154.859 3.34223 -1.34041 0
M  V30 1709 C 154.712 3.45639 -2.87843 0
M  V30 1710 C 156.031 4.29356 -0.9665 0
M  V30 1711 H 153.15 0.67402 -0.298104 0
M  V30 1712 H 155.792 1.34214 -1.34487 0
M  V30 1713 H 153.942 3.78144 -0.89104 0
M  V30 1714 H 155.614 3.10498 -3.41158 0
M  V30 1715 H 153.857 2.86817 -3.25451 0
M  V30 1716 H 154.528 4.50089 -3.19569 0
M  V30 1717 H 157.004 3.93457 -1.35391 0
M  V30 1718 H 155.88 5.3178 -1.3602 0
M  V30 1719 H 156.141 4.41919 0.126362 0
M  V30 1720 N 155.201 0.870884 1.31352 0
M  V30 1721 C 156.151 0.298889 2.26032 0
M  V30 1722 C 157.135 -0.564595 1.50669 0
M  V30 1723 O 158.327 -0.411323 1.72154 0
M  V30 1724 C 155.456 -0.497842 3.39671 0
M  V30 1725 C 154.542 0.378937 4.22404 0
M  V30 1726 N 154.933 1.47284 4.83881 0
M  V30 1727 C 153.231 0.171535 4.4567 0
M  V30 1728 C 153.932 2.01359 5.45738 0
M  V30 1729 N 152.908 1.31047 5.27568 0
M  V30 1730 H 156.71 1.13494 2.71102 0
M  V30 1731 H 154.224 0.718745 1.45629 0
M  V30 1732 H 156.221 -0.924155 4.06528 0
M  V30 1733 H 154.881 -1.33149 2.96144 0
M  V30 1734 H 155.892 1.85575 4.8351 0
M  V30 1735 H 152.569 -0.626091 4.12779 0
M  V30 1736 H 153.959 2.93143 6.0458 0
M  V30 1737 N 156.679 -1.44442 0.630414 0
M  V30 1738 C 158.095 -1.56832 0.295973 0
M  V30 1739 C 158.295 -1.61806 -1.20088 0
M  V30 1740 O 157.351 -1.5607 -1.9849 0
M  V30 1741 C 158.664 -2.84031 0.987264 0
M  V30 1742 C 160.212 -2.97742 0.96534 0
M  V30 1743 C 160.687 -4.27743 1.63708 0
M  V30 1744 N 162.178 -4.34555 1.60364 0
M  V30 1745 C 162.913 -5.33862 2.09234 0
M  V30 1746 N 162.409 -6.39578 2.66292 0
M  V30 1747 N 164.202 -5.25366 1.99867 0
M  V30 1748 H 156.353 -1.39457 1.60205 0
M  V30 1749 H 158.616 -0.668237 0.672431 0
M  V30 1750 H 158.322 -2.86338 2.04215 0
M  V30 1751 H 158.196 -3.73534 0.524588 0
M  V30 1752 H 160.583 -2.94989 -0.0810639 0
M  V30 1753 H 160.664 -2.09589 1.4665 0
M  V30 1754 H 160.308 -4.31255 2.68293 0
M  V30 1755 H 160.238 -5.14752 1.11076 0
M  V30 1756 H 162.729 -3.58772 1.18705 0
M  V30 1757 H 163.042 -7.11637 3.01317 0
M  V30 1758 H 161.387 -6.40265 2.70343 0
M  V30 1759 H 164.578 -4.41688 1.55013 0
M  V30 1760 H 164.751 -6.02606 2.38265 0
M  V30 1761 N 158.157 -0.370918 -1.53173 0
M  V30 1762 C 159.434 0.273754 -1.93675 0
M  V30 1763 C 159.814 1.65938 -1.3049 0
M  V30 1764 O 159.162 2.23698 -0.465999 0
M  V30 1765 C 159.372 0.318602 -3.47543 0
M  V30 1766 C 160.72 0.556392 -4.20939 0
M  V30 1767 O 161.744 0.399587 -3.53952 0
M  V30 1768 O 160.603 0.862133 -5.39657 0
M  V30 1769 H 157.697 0.165448 -0.810281 0
M  V30 1770 H 160.243 -0.42409 -1.64315 0
M  V30 1771 H 159.015 -0.652687 -3.85818 0
M  V30 1772 H 158.638 1.06212 -3.83151 0
M  V30 1773 N 159.635 1.57281 -0.100228 0
M  V30 1774 C 161.046 1.81725 0.428107 0
M  V30 1775 C 161.397 1.01619 1.67833 0
M  V30 1776 O 160.522 0.247098 2.14985 0
M  V30 1777 C 161.117 3.29617 0.78347 0
M  V30 1778 C 159.676 3.54808 1.25653 0
M  V30 1779 C 158.823 2.76118 0.255752 0
M  V30 1780 H 161.774 1.55324 -0.325608 0
M  V30 1781 H 161.795 3.4322 1.64256 0
M  V30 1782 H 161.307 3.87893 -0.12665 0
M  V30 1783 H 159.408 3.01868 2.18418 0
M  V30 1784 H 159.521 4.63443 1.21482 0
M  V30 1785 H 157.885 2.43745 0.738956 0
M  V30 1786 H 158.668 3.37145 -0.647136 0
M  V30 1787 N 161.113 -0.173488 1.56642 0
M  V30 1788 C 162.023 -1.23482 1.99473 0
M  V30 1789 C 163.039 -1.48567 0.905752 0
M  V30 1790 O 164.215 -1.60758 1.21321 0
M  V30 1791 C 161.28 -2.55444 2.34413 0
M  V30 1792 C 160.341 -2.38241 3.57127 0
M  V30 1793 C 159.574 -3.63909 3.90392 0
M  V30 1794 O 159.797 -4.68996 3.24653 0
M  V30 1795 O 158.731 -3.58149 4.83749 0
M  V30 1796 H 162.557 -0.901279 2.90018 0
M  V30 1797 H 160.142 -0.380185 1.44482 0
M  V30 1798 H 162.024 -3.33292 2.57865 0
M  V30 1799 H 160.699 -2.88382 1.4703 0
M  V30 1800 H 159.606 -1.58431 3.38896 0
M  V30 1801 H 160.939 -2.10228 4.45045 0
M  V30 1802 N 162.591 -1.51276 -0.441967 0
M  V30 1803 C 163.839 -1.63392 -1.18943 0
M  V30 1804 C 164.16 -0.350159 -1.9183 0
M  V30 1805 O 163.43 0.633784 -1.85364 0
M  V30 1806 H 162.01 -0.602164 -0.442049 0
M  V30 1807 H 164.672 -1.88186 -0.507165 0
M  V30 1808 H 163.768 -2.45934 -1.92154 0
M  V30 1809 N 164.069 0.697108 -1.41344 0
M  V30 1810 C 165.294 1.49096 -1.44171 0
M  V30 1811 C 165.719 1.88038 -0.0481568 0
M  V30 1812 O 165.077 1.54525 0.948243 0
M  V30 1813 C 165.125 2.73088 -2.3549 0
M  V30 1814 O 164.229 3.70514 -1.81088 0
M  V30 1815 H 163.57 0.448801 -0.489361 0
M  V30 1816 H 166.1 0.856992 -1.85787 0
M  V30 1817 H 166.11 3.21413 -2.51312 0
M  V30 1818 H 164.785 2.44081 -3.36745 0
M  V30 1819 H 163.362 3.29441 -1.74708 0
M  V30 1820 N 165.547 1.27147 0.931209 0
M  V30 1821 C 166.793 1.13446 1.68101 0
M  V30 1822 C 167.126 -0.319628 1.91552 0
M  V30 1823 O 166.401 -1.23407 1.50336 0
M  V30 1824 C 166.684 1.91482 3.0497 0
M  V30 1825 C 166.537 3.44855 2.88782 0
M  V30 1826 C 167.856 1.71651 4.05246 0
M  V30 1827 H 164.975 0.413498 0.610072 0
M  V30 1828 H 167.617 1.56261 1.08086 0
M  V30 1829 H 165.767 1.55095 3.56199 0
M  V30 1830 H 167.439 3.9105 2.44698 0
M  V30 1831 H 165.682 3.71373 2.24198 0
M  V30 1832 H 166.353 3.94694 3.85902 0
M  V30 1833 H 168.829 2.0337 3.63015 0
M  V30 1834 H 167.705 2.28651 4.99009 0
M  V30 1835 H 167.966 0.663555 4.37092 0
M  V30 1836 N 167.025 -1.13721 1.09112 0
M  V30 1837 C 168.25 -1.89314 0.847053 0
M  V30 1838 C 168.675 -1.78416 -0.595774 0
M  V30 1839 O 168.033 -1.12942 -1.41823 0
M  V30 1840 C 168.081 -3.3701 1.28284 0
M  V30 1841 O 167.185 -4.10054 0.439267 0
M  V30 1842 H 166.526 -0.588745 0.307044 0
M  V30 1843 H 169.056 -1.43902 1.45442 0
M  V30 1844 H 169.066 -3.87834 1.26683 0
M  V30 1845 H 167.741 -3.4426 2.33363 0
M  V30 1846 H 166.318 -3.69266 0.519312 0
M  V30 1847 N 168.503 -0.877838 -1.30888 0
M  V30 1848 C 169.751 -0.491723 -1.96027 0
M  V30 1849 C 170.072 0.960827 -1.69685 0
M  V30 1850 O 169.342 1.67462 -1.01654 0
M  V30 1851 H 167.922 -0.17885 -0.725273 0
M  V30 1852 H 170.584 -1.11935 -1.59551 0
M  V30 1853 H 169.68 -0.656016 -3.05128 0
M  V30 1854 N 169.982 1.44106 -0.638065 0
M  V30 1855 C 171.207 2.0685 -0.150916 0
M  V30 1856 C 171.632 1.47417 1.16833 0
M  V30 1857 O 170.99 0.578264 1.71831 0
M  V30 1858 C 171.038 3.60555 -0.05708 0
M  V30 1859 O 170.142 4.00465 0.984972 0
M  V30 1860 H 169.483 0.658151 -0.0879399 0
M  V30 1861 H 172.013 1.84865 -0.876707 0
M  V30 1862 H 172.023 4.07789 0.131232 0
M  V30 1863 H 170.698 4.03193 -1.02021 0
M  V30 1864 H 169.275 3.64849 0.770672 0
M  V30 1865 N 171.46 0.379036 1.52974 0
M  V30 1866 C 172.392 -0.495963 2.2377 0
M  V30 1867 C 173.405 -1.03517 1.25651 0
M  V30 1868 O 174.594 -0.939249 1.51791 0
M  V30 1869 C 171.694 -1.69894 2.93239 0
M  V30 1870 C 170.867 -1.2889 4.17979 0
M  V30 1871 C 169.926 -2.35543 4.70538 0
M  V30 1872 O 168.952 -1.97375 5.33883 0
M  V30 1873 N 170.154 -3.67318 4.49508 0
M  V30 1874 H 172.919 0.110523 2.99496 0
M  V30 1875 H 170.48 0.204878 1.60598 0
M  V30 1876 H 172.472 -2.40747 3.25304 0
M  V30 1877 H 171.042 -2.212 2.20883 0
M  V30 1878 H 170.262 -0.409676 3.92065 0
M  V30 1879 H 171.55 -0.991443 4.99047 0
M  V30 1880 H 170.948 -4.01095 3.98923 0
M  V30 1881 H 169.505 -4.34235 4.8609 0
M  V30 1882 N 172.938 -1.57226 0.108567 0
M  V30 1883 C 174.349 -1.8195 -0.418464 0
M  V30 1884 C 174.7 -1.02508 -1.67292 0
M  V30 1885 O 173.825 -0.258496 -2.14851 0
M  V30 1886 C 174.42 -3.30028 -0.765979 0
M  V30 1887 C 172.979 -3.55469 -1.23769 0
M  V30 1888 C 172.126 -2.7625 -0.241106 0
M  V30 1889 H 175.077 -1.55149 0.33384 0
M  V30 1890 H 175.098 -3.44086 -1.62434 0
M  V30 1891 H 174.61 -3.87821 0.147219 0
M  V30 1892 H 172.711 -3.03022 -2.16814 0
M  V30 1893 H 172.824 -4.6408 -1.19022 0
M  V30 1894 H 171.188 -2.44133 -0.72602 0
M  V30 1895 H 171.971 -3.36797 0.665007 0
M  V30 1896 N 174.416 0.165178 -1.56732 0
M  V30 1897 C 175.364 1.22369 -1.97809 0
M  V30 1898 C 176.358 1.45488 -0.867741 0
M  V30 1899 O 177.564 1.45995 -1.05288 0
M  V30 1900 H 173.939 0.411486 -0.629431 0
M  V30 1901 H 175.91 0.850425 -2.86025 0
M  V30 1902 C 174.659 2.55403 -2.35934 0
M  V30 1903 H 173.982 2.38438 -3.20916 0
M  V30 1904 H 175.422 3.2814 -2.68514 0
M  V30 1905 C 173.881 3.14611 -1.20506 0
M  V30 1906 O 174.411 3.98626 -0.496016 0
M  V30 1907 N 172.617 2.7379 -0.97403 0
M  V30 1908 H 172.164 2.0557 -1.55238 0
M  V30 1909 H 172.122 3.1374 -0.203573 0
M  V30 1910 N 175.894 1.51508 0.433938 0
M  V30 1911 C 177.119 1.68443 1.21003 0
M  V30 1912 C 177.544 0.382636 1.84167 0
M  V30 1913 O 176.902 -0.65755 1.68956 0
M  V30 1914 C 176.95 2.80405 2.26727 0
M  V30 1915 O 176.054 2.44245 3.32292 0
M  V30 1916 H 175.395 0.561536 0.354363 0
M  V30 1917 H 177.925 1.9809 0.512024 0
M  V30 1918 H 177.935 3.0459 2.71457 0
M  V30 1919 H 176.61 3.74867 1.80132 0
M  V30 1920 H 175.187 2.30644 2.93015 0
M  V30 1921 N 177.372 -0.689602 1.41712 0
M  V30 1922 C 178.62 -1.4468 1.4111 0
M  V30 1923 C 178.941 -1.94986 0.0232196 0
M  V30 1924 O 178.211 -1.72097 -0.935913 0
M  V30 1925 H 176.791 -0.536847 0.519427 0
M  V30 1926 H 179.453 -0.815825 1.77004 0
M  V30 1927 H 178.549 -2.30706 2.10193 0
M  V30 1928 N 178.85 -1.27639 -0.924453 0
M  V30 1929 C 179.78 -1.13166 -2.04244 0
M  V30 1930 C 180.761 -0.032256 -1.70069 0
M  V30 1931 O 181.946 -0.207328 -1.9309 0
M  V30 1932 C 179.076 -0.781496 -3.38393 0
M  V30 1933 C 178.03 -1.83449 -3.86692 0
M  V30 1934 C 177.356 -1.33822 -5.17683 0
M  V30 1935 C 178.656 -3.23917 -4.09726 0
M  V30 1936 H 180.35 -2.06689 -2.1661 0
M  V30 1937 H 177.896 -0.995136 -1.04082 0
M  V30 1938 H 179.849 -0.667057 -4.16087 0
M  V30 1939 H 178.573 0.189439 -3.2605 0
M  V30 1940 H 177.232 -1.93789 -3.11193 0
M  V30 1941 H 176.88 -0.35665 -5.01734 0
M  V30 1942 H 176.58 -2.04224 -5.50968 0
M  V30 1943 H 178.104 -1.23679 -5.97943 0
M  V30 1944 H 179.518 -3.16559 -4.77978 0
M  V30 1945 H 177.915 -3.92059 -4.54324 0
M  V30 1946 H 178.985 -3.68729 -3.14908 0
M  V30 1947 N 180.328 1.1314 -1.09713 0
M  V30 1948 C 181.291 2.16831 -0.742751 0
M  V30 1949 C 182.291 1.59159 0.229129 0
M  V30 1950 O 183.481 1.74199 0.00693237 0
M  V30 1951 C 180.613 3.40756 -0.0989168 0
M  V30 1952 H 181.806 2.49695 -1.66109 0
M  V30 1953 H 179.359 1.2802 -0.896699 0
M  V30 1954 H 180.094 3.13485 0.830514 0
M  V30 1955 H 179.879 3.83888 -0.798265 0
M  V30 1956 H 181.369 4.17386 0.133524 0
M  V30 1957 N 181.806 0.884767 1.30421 0
M  V30 1958 C 182.736 0.367574 2.30589 0
M  V30 1959 C 183.717 -0.549464 1.60981 0
M  V30 1960 O 184.902 -0.46336 1.88591 0
M  V30 1961 C 182.032 -0.418944 3.44764 0
M  V30 1962 C 180.986 0.406316 4.26067 0
M  V30 1963 C 180.312 -0.506793 5.32293 0
M  V30 1964 C 181.612 1.64832 4.95608 0
M  V30 1965 H 183.306 1.20462 2.74097 0
M  V30 1966 H 180.852 0.580695 1.31772 0
M  V30 1967 H 182.805 -0.791395 4.13902 0
M  V30 1968 H 181.529 -1.28964 3.0006 0
M  V30 1969 H 180.188 0.760903 3.58617 0
M  V30 1970 H 179.836 -1.37519 4.83836 0
M  V30 1971 H 179.536 0.0415828 5.87585 0
M  V30 1972 H 181.06 -0.875764 6.04287 0
M  V30 1973 H 182.474 1.34646 5.57264 0
M  V30 1974 H 180.871 2.13688 5.60765 0
M  V30 1975 H 181.941 2.39284 4.21748 0
M  V30 1976 N 183.284 -1.43765 0.645699 0
M  V30 1977 C 184.194 -2.34544 -0.0512957 0
M  V30 1978 C 185.21 -1.53455 -0.82022 0
M  V30 1979 O 186.386 -1.86133 -0.769176 0
M  V30 1980 C 183.451 -3.31636 -1.01087 0
M  V30 1981 C 182.512 -4.2863 -0.239712 0
M  V30 1982 C 181.745 -5.21084 -1.15358 0
M  V30 1983 O 181.968 -5.1779 -2.39269 0
M  V30 1984 O 180.902 -5.98593 -0.630038 0
M  V30 1985 H 184.728 -2.95624 0.695718 0
M  V30 1986 H 182.313 -1.43781 0.405882 0
M  V30 1987 H 184.195 -3.9136 -1.56254 0
M  V30 1988 H 182.87 -2.73069 -1.73824 0
M  V30 1989 H 181.777 -3.72408 0.355356 0
M  V30 1990 H 183.11 -4.90157 0.447936 0
M  V30 1991 N 184.763 -0.387143 -1.52771 0
M  V30 1992 C 185.988 0.198407 -2.06449 0
M  V30 1993 C 186.413 1.39918 -1.25716 0
M  V30 1994 O 185.771 1.79099 -0.281657 0
M  V30 1995 C 185.819 0.548893 -3.56398 0
M  V30 1996 O 184.923 1.64315 -3.78252 0
M  V30 1997 H 184.264 0.0237731 -0.663574 0
M  V30 1998 H 186.794 -0.553989 -1.96957 0
M  V30 1999 H 186.804 0.813812 -3.99801 0
M  V30 2000 H 185.479 -0.329005 -4.14597 0
M  V30 2001 H 184.056 1.37211 -3.46738 0
M  V30 2002 N 186.241 1.57166 -0.116904 0
M  V30 2003 C 187.466 1.999 0.55271 0
M  V30 2004 C 187.891 0.996039 1.59564 0
M  V30 2005 O 187.249 -0.032556 1.81271 0
M  V30 2006 C 187.297 3.4152 1.15742 0
M  V30 2007 O 186.401 3.44106 2.27299 0
M  V30 2008 H 185.742 0.649447 0.138258 0
M  V30 2009 H 188.272 2.03573 -0.204759 0
M  V30 2010 H 188.282 3.79684 1.49346 0
M  V30 2011 H 186.957 4.14034 0.393493 0
M  V30 2012 H 185.534 3.17759 1.9515 0
M  V30 2013 N 187.719 -0.156864 1.56817 0
M  V30 2014 C 188.944 -0.890331 1.87318 0
M  V30 2015 C 189.369 -1.74394 0.704855 0
M  V30 2016 O 188.727 -1.77972 -0.345786 0
M  V30 2017 C 188.775 -1.73102 3.16336 0
M  V30 2018 O 187.879 -2.83422 2.99576 0
M  V30 2019 H 187.22 -0.24857 0.615718 0
M  V30 2020 H 189.75 -0.150649 2.04045 0
M  V30 2021 H 189.76 -2.12803 3.48107 0
M  V30 2022 H 188.435 -1.10412 4.00976 0
M  V30 2023 H 187.012 -2.47199 2.7919 0
M  V30 2024 N 189.197 -1.51736 -0.425897 0
M  V30 2025 C 190.445 -1.64644 -1.17204 0
M  V30 2026 C 190.766 -0.370486 -1.91448 0
M  V30 2027 O 190.036 0.614088 -1.86026 0
M  V30 2028 H 188.616 -0.606819 -0.435638 0
M  V30 2029 H 191.278 -1.88713 -0.487177 0
M  V30 2030 H 190.374 -2.47958 -1.89534 0
M  V30 2031 N 190.675 0.682077 -1.42076 0
M  V30 2032 C 191.605 1.80796 -1.47767 0
M  V30 2033 C 192.586 1.6677 -0.334954 0
M  V30 2034 O 193.771 1.863 -0.548264 0
M  V30 2035 C 190.901 3.19038 -1.37229 0
M  V30 2036 C 189.855 3.47789 -2.49453 0
M  V30 2037 C 189.181 4.8553 -2.23975 0
M  V30 2038 C 190.481 3.45411 -3.91776 0
M  V30 2039 H 192.175 1.7629 -2.41997 0
M  V30 2040 H 189.721 0.846721 -1.16476 0
M  V30 2041 H 191.674 3.97528 -1.39821 0
M  V30 2042 H 190.398 3.24204 -0.394907 0
M  V30 2043 H 189.057 2.71657 -2.46166 0
M  V30 2044 H 188.705 4.87337 -1.24547 0
M  V30 2045 H 188.405 5.0573 -2.99184 0
M  V30 2046 H 189.929 5.66312 -2.28304 0
M  V30 2047 H 191.343 4.13882 -3.96705 0
M  V30 2048 H 189.74 3.77145 -4.66778 0
M  V30 2049 H 190.81 2.44122 -4.18966 0
M  V30 2050 N 192.153 1.28127 0.917671 0
M  V30 2051 C 193.085 1.07517 2.02417 0
M  V30 2052 C 194.098 0.0281099 1.62776 0
M  V30 2053 O 195.287 0.270748 1.76435 0
M  V30 2054 C 192.387 0.610957 3.33347 0
M  V30 2055 C 191.56 1.73255 4.01624 0
M  V30 2056 C 190.619 1.26238 5.10833 0
M  V30 2057 O 189.645 1.96389 5.34247 0
M  V30 2058 N 190.847 0.123448 5.80369 0
M  V30 2059 H 193.612 2.02806 2.20658 0
M  V30 2060 H 191.173 1.19827 1.08871 0
M  V30 2061 H 193.165 0.280101 4.0373 0
M  V30 2062 H 191.735 -0.24898 3.11607 0
M  V30 2063 H 190.955 2.23319 3.24842 0
M  V30 2064 H 192.243 2.48503 4.43986 0
M  V30 2065 H 191.641 -0.461847 5.63812 0
M  V30 2066 H 190.198 -0.148158 6.51632 0
M  V30 2067 N 193.631 -1.12557 1.10312 0
M  V30 2068 C 194.908 -1.80363 0.756878 0
M  V30 2069 C 195.288 -1.97067 -0.756824 0
M  V30 2070 O 194.636 -1.54601 -1.68259 0
M  V30 2071 C 194.846 -3.14812 1.50647 0
M  V30 2072 C 196.194 -3.90029 1.67817 0
M  V30 2073 O 197.218 -3.24464 1.46974 0
M  V30 2074 O 196.077 -5.07652 2.02365 0
M  V30 2075 H 193.171 -0.780667 0.272926 0
M  V30 2076 H 195.717 -1.19404 1.20586 0
M  V30 2077 H 194.489 -2.97936 2.53672 0
M  V30 2078 H 194.112 -3.83478 1.05026 0
M  V30 2079 N 195.109 -0.891671 -1.2995 0
M  V30 2080 C 196.355 -0.514261 -1.96171 0
M  V30 2081 C 196.688 0.935506 -1.70182 0
M  V30 2082 O 195.963 1.66204 -1.01028 0
M  V30 2083 C 196.246 -0.797719 -3.51153 0
M  V30 2084 C 196.099 -2.2986 -3.86632 0
M  V30 2085 C 197.418 -0.278749 -4.39216 0
M  V30 2086 H 194.537 -0.188314 -0.712535 0
M  V30 2087 H 197.179 -1.11689 -1.53706 0
M  V30 2088 H 195.329 -0.284826 -3.87455 0
M  V30 2089 H 197.001 -2.88042 -3.60319 0
M  V30 2090 H 195.244 -2.76257 -3.34462 0
M  V30 2091 H 195.915 -2.44753 -4.94773 0
M  V30 2092 H 198.391 -0.717825 -4.09862 0
M  V30 2093 H 197.267 -0.506353 -5.46559 0
M  V30 2094 H 197.528 0.820266 -4.34424 0
M  V30 2095 N 196.587 1.43421 -0.653314 0
M  V30 2096 C 197.815 2.06163 -0.174491 0
M  V30 2097 C 198.23 1.48969 1.1599 0
M  V30 2098 O 197.587 0.621042 1.71608 0
M  V30 2099 C 197.638 3.61417 -0.0774865 0
M  V30 2100 O 197.359 4.16485 -1.35912 0
M  V30 2101 C 198.86 4.41235 0.427402 0
M  V30 2102 H 196.08 0.664946 -0.0899353 0
M  V30 2103 H 198.624 1.83924 -0.893988 0
M  V30 2104 H 196.779 3.82841 0.59257 0
M  V30 2105 H 197.193 5.10153 -1.21839 0
M  V30 2106 H 198.667 5.5021 0.44423 0
M  V30 2107 H 199.144 4.14268 1.45873 0
M  V30 2108 H 199.75 4.2478 -0.210167 0
M  V30 2109 N 198.065 0.39524 1.52563 0
M  V30 2110 C 199.313 -0.184678 2.01254 0
M  V30 2111 C 199.634 -1.46822 1.28329 0
M  V30 2112 O 198.904 -1.91666 0.405094 0
M  V30 2113 H 197.484 -0.0712355 0.743596 0
M  V30 2114 H 200.146 0.528293 1.87603 0
M  V30 2115 H 199.242 -0.390681 3.09645 0
M  V30 2116 N 199.544 -1.57102 0.125237 0
M  V30 2117 C 200.955 -1.82384 -0.399142 0
M  V30 2118 C 201.306 -1.04276 -1.66195 0
M  V30 2119 O 200.431 -0.281269 -2.14564 0
M  V30 2120 C 201.026 -3.30821 -0.730932 0
M  V30 2121 C 199.585 -3.56762 -1.19992 0
M  V30 2122 C 198.732 -2.7649 -0.211792 0
M  V30 2123 H 201.683 -1.54786 0.350277 0
M  V30 2124 H 201.704 -3.4579 -1.58775 0
M  V30 2125 H 201.216 -3.87643 0.188345 0
M  V30 2126 H 199.317 -3.05305 -2.13588 0
M  V30 2127 H 199.43 -4.65317 -1.14093 0
M  V30 2128 H 197.794 -2.4489 -0.700085 0
M  V30 2129 H 198.577 -3.36073 0.700691 0
M  V30 2130 N 201.022 0.148545 -1.56898 0
M  V30 2131 C 202.299 0.890019 -1.74178 0
M  V30 2132 C 202.679 1.99407 -0.692839 0
M  V30 2133 O 202.027 2.26671 0.288505 0
M  V30 2134 C 202.237 1.43389 -3.18183 0
M  V30 2135 C 203.585 1.89791 -3.79822 0
M  V30 2136 O 204.609 1.53134 -3.21603 0
M  V30 2137 O 203.468 2.57387 -4.82093 0
M  V30 2138 H 200.562 0.420496 -0.712118 0
M  V30 2139 H 203.108 0.134591 -1.69165 0
M  V30 2140 H 201.88 0.640383 -3.86024 0
M  V30 2141 H 201.503 2.25287 -3.27615 0
M  V30 2142 N 202.5 1.5196 0.417844 0
M  V30 2143 C 203.448 1.75278 1.52907 0
M  V30 2144 C 204.442 0.619611 1.57662 0
M  V30 2145 O 205.648 0.801457 1.61173 0
M  V30 2146 H 202.023 0.554141 0.508362 0
M  V30 2147 H 203.994 2.68389 1.30422 0
M  V30 2148 C 202.743 1.91262 2.90369 0
M  V30 2149 H 202.066 2.77872 2.8745 0
M  V30 2150 H 203.506 2.11581 3.67436 0
M  V30 2151 C 201.965 0.677431 3.30019 0
M  V30 2152 O 202.495 -0.158799 4.01386 0
M  V30 2153 N 200.701 0.515851 2.85985 0
M  V30 2154 H 200.248 1.19744 2.28077 0
M  V30 2155 H 200.206 -0.309315 3.12875 0
M  V30 2156 N 203.978 -0.674533 1.42435 0
M  V30 2157 C 205.226 -1.43175 1.42637 0
M  V30 2158 C 205.547 -1.94951 0.0438992 0
M  V30 2159 O 204.817 -1.7308 -0.917607 0
M  V30 2160 H 203.397 -0.531307 0.525092 0
M  V30 2161 H 206.059 -0.797006 1.77859 0
M  V30 2162 H 205.155 -2.28463 2.12629 0
M  V30 2163 N 205.456 -1.28612 -0.910864 0
M  V30 2164 C 206.702 -1.16106 -1.66274 0
M  V30 2165 C 207.035 0.289113 -1.92036 0
M  V30 2166 O 206.31 1.21 -1.52281 0
M  V30 2167 C 206.593 -1.96309 -3.01885 0
M  V30 2168 C 206.446 -3.49405 -2.8326 0
M  V30 2169 C 207.765 -1.78076 -4.02463 0
M  V30 2170 H 204.884 -0.423152 -0.603417 0
M  V30 2171 H 207.526 -1.57961 -1.05586 0
M  V30 2172 H 205.676 -1.60742 -3.53687 0
M  V30 2173 H 207.348 -3.94894 -2.38446 0
M  V30 2174 H 205.591 -3.74893 -2.18261 0
M  V30 2175 H 206.262 -4.00784 -3.79574 0
M  V30 2176 H 208.738 -2.0912 -3.59733 0
M  V30 2177 H 207.614 -2.36561 -4.95308 0
M  V30 2178 H 207.875 -0.733008 -4.35981 0
M  V30 2179 N 206.934 1.1197 -1.10907 0
M  V30 2180 C 208.35 1.35591 -0.841852 0
M  V30 2181 C 208.55 1.94233 0.536246 0
M  V30 2182 O 207.606 2.1717 1.28816 0
M  V30 2183 C 208.919 2.29284 -1.94549 0
M  V30 2184 C 210.467 2.42862 -1.97451 0
M  V30 2185 C 210.942 3.39873 -3.07002 0
M  V30 2186 N 212.433 3.47433 -3.06341 0
M  V30 2187 C 213.168 4.22421 -3.87748 0
M  V30 2188 N 212.664 5.00432 -4.79103 0
M  V30 2189 N 214.457 4.17876 -3.75946 0
M  V30 2190 H 206.608 0.722664 -1.99728 0
M  V30 2191 H 208.871 0.380635 -0.868229 0
M  V30 2192 H 208.577 1.93378 -2.93765 0
M  V30 2193 H 208.451 3.29452 -1.83688 0
M  V30 2194 H 210.838 2.78046 -0.988645 0
M  V30 2195 H 210.919 1.42566 -2.12388 0
M  V30 2196 H 210.563 3.05417 -4.05811 0
M  V30 2197 H 210.493 4.40011 -2.89306 0
M  V30 2198 H 212.984 2.91784 -2.40147 0
M  V30 2199 H 213.297 5.55002 -5.37766 0
M  V30 2200 H 211.642 4.99612 -4.83128 0
M  V30 2201 H 214.833 3.56016 -3.03924 0
M  V30 2202 H 215.006 4.76061 -4.39624 0
M  V30 2203 N 208.412 0.89855 1.29475 0
M  V30 2204 C 209.322 0.379974 2.31502 0
M  V30 2205 C 210.338 -0.524695 1.659 0
M  V30 2206 O 211.514 -0.414551 1.97087 0
M  V30 2207 C 208.579 -0.385138 3.44554 0
M  V30 2208 C 207.64 0.550914 4.2575 0
M  V30 2209 C 206.873 -0.177778 5.33404 0
M  V30 2210 O 207.096 -1.40189 5.52904 0
M  V30 2211 O 206.03 0.479106 5.9999 0
M  V30 2212 H 209.856 1.22639 2.77837 0
M  V30 2213 H 207.441 0.662834 1.33891 0
M  V30 2214 H 209.323 -0.817841 4.13388 0
M  V30 2215 H 207.998 -1.20763 3.0033 0
M  V30 2216 H 206.905 1.03271 3.59564 0
M  V30 2217 H 208.238 1.33979 4.73614 0
M  V30 2218 N 209.89 -1.43072 0.660911 0
M  V30 2219 C 211.115 -2.06584 0.183805 0
M  V30 2220 C 211.54 -1.49257 -1.14472 0
M  V30 2221 O 210.898 -0.605528 -1.70889 0
M  V30 2222 C 210.946 -3.60418 0.114434 0
M  V30 2223 O 210.05 -4.01981 -0.921137 0
M  V30 2224 H 209.391 -0.656669 0.0983994 0
M  V30 2225 H 211.921 -1.83447 0.906006 0
M  V30 2226 H 211.931 -4.07946 -0.0663394 0
M  V30 2227 H 210.606 -4.01519 1.08422 0
M  V30 2228 H 209.183 -3.66029 -0.71253 0
M  V30 2229 N 211.368 -0.403325 -1.52352 0
M  V30 2230 C 212.278 0.432009 -2.30588 0
M  V30 2231 C 213.294 1.05884 -1.38075 0
M  V30 2232 O 214.47 1.06161 -1.71148 0
M  V30 2233 C 211.535 1.53669 -3.10784 0
M  V30 2234 C 210.596 0.933525 -4.19027 0
M  V30 2235 C 209.829 1.98557 -4.9539 0
M  V30 2236 O 210.052 3.20283 -4.71991 0
M  V30 2237 O 208.986 1.59504 -5.80381 0
M  V30 2238 H 212.812 -0.205739 -3.03002 0
M  V30 2239 H 210.397 -0.166675 -1.48467 0
M  V30 2240 H 212.279 2.17814 -3.60742 0
M  V30 2241 H 210.954 2.15915 -2.41169 0
M  V30 2242 H 209.861 0.254954 -3.7323 0
M  V30 2243 H 211.194 0.35508 -4.90918 0
M  V30 2244 N 212.846 1.57033 -0.133567 0
M  V30 2245 C 214.074 2.00044 0.528195 0
M  V30 2246 C 214.489 1.01349 1.59291 0
M  V30 2247 O 213.846 0.00848369 1.82498 0
M  V30 2248 C 213.897 3.43018 1.1411 0
M  V30 2249 O 213.618 4.37939 0.11892 0
M  V30 2250 C 215.119 4.01237 1.88477 0
M  V30 2251 H 212.339 0.656517 0.138661 0
M  V30 2252 H 214.883 2.03267 -0.224196 0
M  V30 2253 H 213.038 3.40688 1.84418 0
M  V30 2254 H 213.452 5.21436 0.56613 0
M  V30 2255 H 214.926 5.03314 2.26669 0
M  V30 2256 H 215.403 3.41193 2.76558 0
M  V30 2257 H 216.009 4.07156 1.22898 0
M  V30 2258 N 214.325 -0.140222 1.56975 0
M  V30 2259 C 215.235 -1.19223 2.02047 0
M  V30 2260 C 216.251 -1.46612 0.937062 0
M  V30 2261 O 217.427 -1.58148 1.24704 0
M  V30 2262 C 214.492 -2.50414 2.39778 0
M  V30 2263 C 213.553 -2.30612 3.621 0
M  V30 2264 C 212.786 -3.55547 3.98023 0
M  V30 2265 O 213.009 -4.62004 3.34528 0
M  V30 2266 O 211.943 -3.47808 4.91237 0
M  V30 2267 H 215.769 -0.839559 2.91865 0
M  V30 2268 H 213.354 -0.349453 1.45256 0
M  V30 2269 H 215.236 -3.27747 2.64877 0
M  V30 2270 H 213.911 -2.85198 1.53114 0
M  V30 2271 H 212.818 -1.51207 3.4218 0
M  V30 2272 H 214.151 -2.00741 4.49404 0
M  V30 2273 N 215.803 -1.52179 -0.40978 0
M  V30 2274 C 216.735 -1.71703 -1.51825 0
M  V30 2275 C 217.748 -0.597445 -1.51441 0
M  V30 2276 O 218.937 -0.872582 -1.55719 0
M  V30 2277 C 216.037 -1.74171 -2.90719 0
M  V30 2278 C 215.21 -3.03156 -3.15302 0
M  V30 2279 C 214.269 -2.97445 -4.34065 0
M  V30 2280 O 213.295 -3.71352 -4.31377 0
M  V30 2281 N 214.497 -2.15191 -5.39141 0
M  V30 2282 H 217.262 -2.67334 -1.35472 0
M  V30 2283 H 214.823 -1.50409 -0.599069 0
M  V30 2284 H 216.815 -1.67884 -3.68235 0
M  V30 2285 H 215.385 -0.860166 -3.00533 0
M  V30 2286 H 214.605 -3.23097 -2.25836 0
M  V30 2287 H 215.893 -3.88484 -3.28569 0
M  V30 2288 H 215.291 -1.54573 -5.44173 0
M  V30 2289 H 213.848 -2.1476 -6.15403 0
M  V30 2290 N 217.281 0.66697 -1.42791 0
M  V30 2291 C 218.529 1.42417 -1.43394 0
M  V30 2292 C 218.85 1.94925 -0.0542373 0
M  V30 2293 O 218.12 1.73564 0.908415 0
M  V30 2294 H 216.7 0.528515 -0.527902 0
M  V30 2295 H 219.362 0.787562 -1.78279 0
M  V30 2296 H 218.458 2.27333 -2.13837 0
M  V30 2297 N 218.759 1.29093 0.90403 0
M  V30 2298 C 220.006 1.16813 1.65411 0
M  V30 2299 C 220.334 -0.28128 1.92455 0
M  V30 2300 O 219.589 -1.22006 1.53013 0
M  V30 2301 C 219.888 1.92224 3.01305 0
M  V30 2302 C 219.554 3.41968 2.93885 0
M  V30 2303 C 218.216 3.82807 2.91569 0
M  V30 2304 C 220.568 4.37409 2.83413 0
M  V30 2305 C 217.896 5.1741 2.76594 0
M  V30 2306 C 220.248 5.72097 2.69977 0
M  V30 2307 C 218.912 6.12199 2.66024 0
M  V30 2308 H 218.182 0.42745 0.605283 0
M  V30 2309 H 220.829 1.59981 1.05254 0
M  V30 2310 H 219.134 1.41635 3.65304 0
M  V30 2311 H 220.831 1.80131 3.58265 0
M  V30 2312 H 217.421 3.09504 2.96488 0
M  V30 2313 H 221.605 4.06813 2.84283 0
M  V30 2314 H 216.861 5.47596 2.71935 0
M  V30 2315 H 221.035 6.45704 2.60844 0
M  V30 2316 H 218.662 7.16448 2.54178 0
M  V30 2317 N 220.237 -1.11381 1.11499 0
M  V30 2318 C 221.485 -1.8277 0.862524 0
M  V30 2319 C 221.806 -1.85097 -0.613534 0
M  V30 2320 O 221.076 -1.32198 -1.4457 0
M  V30 2321 H 219.656 -0.676823 0.316101 0
M  V30 2322 H 222.318 -1.34816 1.4075 0
M  V30 2323 H 221.414 -2.86614 1.23527 0
M  V30 2324 N 221.715 -0.905404 -1.28997 0
M  V30 2325 C 222.625 -0.392246 -2.31298 0
M  V30 2326 C 223.641 0.515889 -1.66176 0
M  V30 2327 O 224.817 0.404093 -1.97304 0
M  V30 2328 C 221.882 0.36686 -3.44754 0
M  V30 2329 C 220.943 -0.573485 -4.25452 0
M  V30 2330 C 220.176 0.149488 -5.33491 0
M  V30 2331 O 220.399 1.37255 -5.5364 0
M  V30 2332 O 219.333 -0.510919 -5.99728 0
M  V30 2333 H 223.159 -1.2411 -2.77183 0
M  V30 2334 H 220.744 -0.669926 -1.33538 0
M  V30 2335 H 222.626 0.795907 -4.13816 0
M  V30 2336 H 221.301 1.19169 -3.00966 0
M  V30 2337 H 220.208 -1.05176 -3.59011 0
M  V30 2338 H 221.541 -1.36489 -4.72897 0
M  V30 2339 N 223.193 1.4272 -0.668489 0
M  V30 2340 C 224.47 1.95248 -0.117373 0
M  V30 2341 C 224.85 1.60919 1.36632 0
M  V30 2342 O 224.198 0.902095 2.09939 0
M  V30 2343 C 224.408 3.46927 -0.379806 0
M  V30 2344 C 225.756 4.23588 -0.292923 0
M  V30 2345 O 226.78 3.5482 -0.313204 0
M  V30 2346 O 225.639 5.46017 -0.229697 0
M  V30 2347 H 222.733 0.827 0.00079152 0
M  V30 2348 H 225.279 1.52581 -0.742783 0
M  V30 2349 H 224.051 3.65096 -1.40786 0
M  V30 2350 H 223.674 3.96627 0.277923 0
M  V30 2351 N 224.671 0.411399 1.52136 0
M  V30 2352 C 225.601 -0.404015 2.29978 0
M  V30 2353 C 226.582 -1.04412 1.34284 0
M  V30 2354 O 227.767 -1.0527 1.63192 0
M  V30 2355 C 224.897 -1.5197 3.12286 0
M  V30 2356 C 223.851 -1.00448 4.16046 0
M  V30 2357 C 223.177 -2.21393 4.86712 0
M  V30 2358 C 224.477 -0.0569336 5.22269 0
M  V30 2359 H 226.171 0.245529 2.98392 0
M  V30 2360 H 223.717 0.119525 1.43503 0
M  V30 2361 H 225.67 -2.09715 3.6551 0
M  V30 2362 H 224.394 -2.19716 2.41646 0
M  V30 2363 H 223.053 -0.449421 3.63835 0
M  V30 2364 H 222.701 -2.87699 4.12599 0
M  V30 2365 H 222.401 -1.87571 5.56858 0
M  V30 2366 H 223.925 -2.7974 5.4275 0
M  V30 2367 H 225.339 -0.54325 5.7072 0
M  V30 2368 H 223.736 0.192594 5.99791 0
M  V30 2369 H 224.806 0.887663 4.76706 0
M  V30 2370 N 226.149 -1.5696 0.141893 0
M  V30 2371 C 227.059 -2.20066 -0.812905 0
M  V30 2372 C 228.075 -1.18344 -1.27557 0
M  V30 2373 O 229.251 -1.50902 -1.33381 0
M  V30 2374 C 226.316 -2.80583 -2.03652 0
M  V30 2375 C 225.377 -3.97414 -1.62359 0
M  V30 2376 C 224.61 -4.55036 -2.78887 0
M  V30 2377 O 224.833 -4.11538 -3.94959 0
M  V30 2378 O 223.767 -5.45376 -2.54653 0
M  V30 2379 H 227.593 -3.02157 -0.305746 0
M  V30 2380 H 225.178 -1.49159 -0.0848799 0
M  V30 2381 H 227.06 -3.19067 -2.75272 0
M  V30 2382 H 225.735 -2.01508 -2.5333 0
M  V30 2383 H 224.642 -3.63656 -0.877775 0
M  V30 2384 H 225.975 -4.77994 -1.17401 0
M  V30 2385 N 227.627 0.131896 -1.57047 0
M  V30 2386 C 228.904 0.871495 -1.75112 0
M  V30 2387 C 229.284 1.9866 -0.713949 0
M  V30 2388 O 228.632 2.26965 0.264447 0
M  V30 2389 C 228.842 1.40007 -3.19686 0
M  V30 2390 C 230.19 1.85752 -3.81813 0
M  V30 2391 O 231.214 1.49715 -3.23209 0
M  V30 2392 O 230.073 2.5226 -4.84796 0
M  V30 2393 H 227.167 0.412919 -0.716538 0
M  V30 2394 H 229.713 0.116641 -1.69299 0
M  V30 2395 H 228.485 0.599404 -3.86682 0
M  V30 2396 H 228.108 2.218 -3.29986 0
M  V30 2397 N 229.106 1.52395 0.401703 0
M  V30 2398 C 230.036 1.79231 1.49661 0
M  V30 2399 C 231.017 0.643654 1.57452 0
M  V30 2400 O 232.202 0.889989 1.72606 0
M  V30 2401 C 229.332 1.94971 2.87409 0
M  V30 2402 C 228.286 3.10604 2.94465 0
M  V30 2403 C 227.612 3.11577 4.34538 0
M  V30 2404 C 228.912 4.49921 2.6527 0
M  V30 2405 H 230.606 2.70917 1.27454 0
M  V30 2406 H 228.152 1.30362 0.6117 0
M  V30 2407 H 230.105 2.12328 3.63999 0
M  V30 2408 H 228.829 0.999632 3.10926 0
M  V30 2409 H 227.488 2.93009 2.20321 0
M  V30 2410 H 227.136 2.14277 4.55076 0
M  V30 2411 H 226.836 3.89247 4.40183 0
M  V30 2412 H 228.36 3.31073 5.13053 0
M  V30 2413 H 229.774 4.67683 3.31581 0
M  V30 2414 H 228.171 5.29564 2.82281 0
M  V30 2415 H 229.241 4.57507 1.60671 0
M  V30 2416 N 230.584 -0.659388 1.43143 0
M  V30 2417 C 231.832 -1.41654 1.44147 0
M  V30 2418 C 232.153 -1.94893 0.0645739 0
M  V30 2419 O 231.423 -1.74044 -0.899198 0
M  V30 2420 H 230.003 -0.525708 0.530697 0
M  V30 2421 H 232.665 -0.778097 1.78694 0
M  V30 2422 H 231.761 -2.26195 2.1504 0
M  V30 2423 N 232.062 -1.29571 -0.897171 0
M  V30 2424 C 233.025 -1.14913 -1.98312 0
M  V30 2425 C 234.025 -0.0838629 -1.60581 0
M  V30 2426 O 235.215 -0.331006 -1.71026 0
M  V30 2427 C 232.347 -0.757835 -3.3237 0
M  V30 2428 H 233.54 -2.11377 -2.12743 0
M  V30 2429 H 231.093 -1.12793 -1.08201 0
M  V30 2430 H 231.828 0.206837 -3.2364 0
M  V30 2431 H 231.613 -1.52755 -3.61121 0
M  V30 2432 H 233.103 -0.678408 -4.12053 0
M  V30 2433 N 233.54 1.10788 -1.12088 0
M  V30 2434 C 234.786 1.82942 -0.875226 0
M  V30 2435 C 235.119 1.84779 0.597538 0
M  V30 2436 O 234.394 1.30578 1.44152 0
M  V30 2437 C 234.677 3.29789 -1.44606 0
M  V30 2438 C 234.53 3.36307 -2.98693 0
M  V30 2439 C 235.849 4.26064 -1.10261 0
M  V30 2440 H 232.968 0.664195 -0.319397 0
M  V30 2441 H 235.61 1.29867 -1.38689 0
M  V30 2442 H 233.76 3.75118 -1.01089 0
M  V30 2443 H 235.432 2.99487 -3.50864 0
M  V30 2444 H 233.675 2.76318 -3.34411 0
M  V30 2445 H 234.346 4.39694 -3.33726 0
M  V30 2446 H 236.822 3.88951 -1.4784 0
M  V30 2447 H 235.698 5.27183 -1.52869 0
M  V30 2448 H 235.959 4.42098 -0.0142953 0
M  V30 2449 N 235.018 0.912232 1.28515 0
M  V30 2450 C 235.981 0.404223 2.25607 0
M  V30 2451 C 236.981 -0.468602 1.53821 0
M  V30 2452 O 238.171 -0.271873 1.72065 0
M  V30 2453 C 235.303 -0.420653 3.38295 0
M  V30 2454 H 236.496 1.26188 2.7206 0
M  V30 2455 H 234.049 0.691495 1.40171 0
M  V30 2456 H 234.784 -1.29777 2.97201 0
M  V30 2457 H 234.569 0.204935 3.91564 0
M  V30 2458 H 236.059 -0.766971 4.10496 0
M  V30 2459 N 236.496 -1.42363 0.676048 0
M  V30 2460 C 237.907 -1.84649 0.275948 0
M  V30 2461 C 238.258 -1.56588 -1.18214 0
M  V30 2462 O 237.383 -1.02634 -1.90513 0
M  V30 2463 C 237.978 -3.35178 0.494053 0
M  V30 2464 C 236.537 -3.76109 0.148061 0
M  V30 2465 C 235.684 -2.65931 0.785891 0
M  V30 2466 H 238.635 -1.32192 0.878121 0
M  V30 2467 H 238.656 -3.79655 -0.25343 0
M  V30 2468 H 238.168 -3.55571 1.55535 0
M  V30 2469 H 236.269 -3.61323 -0.909742 0
M  V30 2470 H 236.382 -4.7546 0.589454 0
M  V30 2471 H 234.746 -2.53773 0.217113 0
M  V30 2472 H 235.529 -2.89146 1.85067 0
M  V30 2473 N 237.974 -0.419461 -1.51915 0
M  V30 2474 C 239.385 0.0477853 -1.86639 0
M  V30 2475 C 239.736 1.43531 -1.33766 0
M  V30 2476 O 238.861 2.05401 -0.68113 0
M  V30 2477 C 239.456 0.0934885 -3.38671 0
M  V30 2478 C 238.015 0.505097 -3.72996 0
M  V30 2479 C 237.162 -0.313792 -2.75519 0
M  V30 2480 H 240.113 -0.636088 -1.45395 0
M  V30 2481 H 240.134 0.906667 -3.6954 0
M  V30 2482 H 239.646 -0.916501 -3.77123 0
M  V30 2483 H 237.747 1.52135 -3.40126 0
M  V30 2484 H 237.86 0.242309 -4.78487 0
M  V30 2485 H 236.224 0.225363 -2.53701 0
M  V30 2486 H 237.007 -1.32232 -3.16812 0
M  V30 2487 N 239.452 1.56882 -0.150215 0
M  V30 2488 C 240.698 1.96518 0.500834 0
M  V30 2489 C 241.031 1.03527 1.64304 0
M  V30 2490 O 240.306 0.0782751 1.94342 0
M  V30 2491 C 240.589 3.45822 1.00395 0
M  V30 2492 C 240.442 4.49591 -0.136983 0
M  V30 2493 C 241.761 3.97704 1.88467 0
M  V30 2494 H 238.88 0.714535 0.18058 0
M  V30 2495 H 241.522 1.88577 -0.232091 0
M  V30 2496 H 239.672 3.5272 1.62851 0
M  V30 2497 H 241.344 4.5477 -0.77343 0
M  V30 2498 H 239.587 4.26441 -0.795652 0
M  V30 2499 H 240.258 5.51402 0.256815 0
M  V30 2500 H 242.734 3.93304 1.35834 0
M  V30 2501 H 241.61 5.0263 2.20578 0
M  V30 2502 H 241.871 3.40252 2.82279 0
M  V30 2503 N 240.93 -0.123565 1.57115 0
M  V30 2504 C 242.155 -0.850398 1.89164 0
M  V30 2505 C 242.58 -1.7286 0.741688 0
M  V30 2506 O 241.938 -1.78665 -0.307958 0
M  V30 2507 C 241.986 -1.66353 3.19936 0
M  V30 2508 O 241.09 -2.77004 3.0552 0
M  V30 2509 H 240.431 -0.235454 0.620852 0
M  V30 2510 H 242.961 -0.107335 2.04318 0
M  V30 2511 H 242.971 -2.05372 3.52543 0
M  V30 2512 H 241.646 -1.01881 4.03228 0
M  V30 2513 H 240.223 -2.41221 2.84371 0
M  V30 2514 N 242.408 -1.52605 -0.393616 0
M  V30 2515 C 243.656 -1.67093 -1.13685 0
M  V30 2516 C 243.977 -0.411011 -1.90619 0
M  V30 2517 O 243.247 0.574491 -1.87287 0
M  V30 2518 H 241.827 -0.615923 -0.422668 0
M  V30 2519 H 244.489 -1.89704 -0.447039 0
M  V30 2520 H 243.585 -2.51922 -1.84232 0
M  V30 2521 N 243.887 0.651787 -1.4349 0
M  V30 2522 C 245.164 1.40909 -1.35661 0
M  V30 2523 C 245.544 2.11099 -0.00511733 0
M  V30 2524 O 244.892 2.04892 1.0115 0
M  V30 2525 C 245.102 2.3926 -2.54078 0
M  V30 2526 C 246.45 3.03217 -2.97228 0
M  V30 2527 O 247.474 2.49588 -2.54135 0
M  V30 2528 O 246.333 4.00455 -3.71885 0
M  V30 2529 H 243.427 0.629625 -0.536191 0
M  V30 2530 H 245.973 0.678575 -1.55542 0
M  V30 2531 H 244.745 1.86352 -3.44076 0
M  V30 2532 H 244.368 3.1976 -2.36303 0
M  V30 2533 N 245.365 1.30045 0.890287 0
M  V30 2534 C 246.295 1.18541 2.01172 0
M  V30 2535 C 247.276 0.0773356 1.69924 0
M  V30 2536 O 248.461 0.25845 1.92473 0
M  V30 2537 C 245.591 0.870941 3.36202 0
M  V30 2538 C 244.545 1.93637 3.81692 0
M  V30 2539 C 243.871 1.475 5.13953 0
M  V30 2540 C 245.171 3.34666 4.00994 0
M  V30 2541 H 246.865 2.12359 2.11054 0
M  V30 2542 H 244.411 1.02238 1.01407 0
M  V30 2543 H 246.364 0.777141 4.14172 0
M  V30 2544 H 245.088 -0.102926 3.26438 0
M  V30 2545 H 243.747 2.01972 3.05946 0
M  V30 2546 H 243.395 0.489551 5.00612 0
M  V30 2547 H 243.095 2.1876 5.4536 0
M  V30 2548 H 244.619 1.39489 5.94454 0
M  V30 2549 H 246.033 3.2912 4.69417 0
M  V30 2550 H 244.43 4.03966 4.43769 0
M  V30 2551 H 245.5 3.76949 3.05021 0
M  V30 2552 N 246.843 -1.10192 1.12674 0
M  V30 2553 C 248.071 -1.85983 0.906527 0
M  V30 2554 C 248.486 -1.80783 -0.544333 0
M  V30 2555 O 247.843 -1.19834 -1.37645 0
M  V30 2556 C 247.894 -3.34281 1.37618 0
M  V30 2557 O 247.615 -3.39401 2.77017 0
M  V30 2558 C 249.116 -4.26938 1.19325 0
M  V30 2559 H 246.336 -0.587716 0.323775 0
M  V30 2560 H 248.88 -1.39284 1.49734 0
M  V30 2561 H 247.035 -3.78436 0.828539 0
M  V30 2562 H 247.449 -4.31838 2.97684 0
M  V30 2563 H 248.923 -5.29181 1.57071 0
M  V30 2564 H 249.4 -4.38995 0.134097 0
M  V30 2565 H 250.006 -3.8859 1.72852 0
M  V30 2566 N 248.321 -0.919034 -1.28029 0
M  V30 2567 C 249.268 -0.410005 -2.27129 0
M  V30 2568 C 250.238 0.518405 -1.57803 0
M  V30 2569 O 251.423 0.439451 -1.8567 0
M  V30 2570 C 248.563 0.339054 -3.4343 0
M  V30 2571 C 247.676 -0.622468 -4.27492 0
M  V30 2572 C 246.811 0.145567 -5.31001 0
M  V30 2573 C 245.85 -0.809226 -6.06727 0
M  V30 2574 N 244.987 -0.0743728 -7.02061 0
M  V30 2575 H 249.827 -1.26011 -2.70047 0
M  V30 2576 H 247.364 -0.632663 -1.328 0
M  V30 2577 H 249.322 0.789586 -4.0966 0
M  V30 2578 H 247.952 1.15346 -3.01488 0
M  V30 2579 H 247.004 -1.19153 -3.61257 0
M  V30 2580 H 248.316 -1.35252 -4.80113 0
M  V30 2581 H 247.47 0.656417 -6.03139 0
M  V30 2582 H 246.209 0.908643 -4.79161 0
M  V30 2583 H 245.214 -1.3314 -5.33436 0
M  V30 2584 H 246.439 -1.57194 -6.60656 0
M  V30 2585 H 244.385 0.670616 -6.52563 0
M  V30 2586 H 244.302 -0.744157 -7.52329 0
M  V30 2587 H 245.57 0.416109 -7.78389 0
M  V30 2588 N 249.799 1.42003 -0.683588 0
M  V30 2589 C 250.709 2.34597 -0.0109075 0
M  V30 2590 C 251.725 1.55576 0.779245 0
M  V30 2591 O 252.901 1.88107 0.719555 0
M  V30 2592 C 249.966 3.34199 0.922588 0
M  V30 2593 C 249.027 4.29115 0.125984 0
M  V30 2594 C 248.26 5.23959 1.01502 0
M  V30 2595 O 248.483 5.23952 2.25456 0
M  V30 2596 O 247.417 6.00053 0.47111 0
M  V30 2597 H 251.243 2.93675 -0.773853 0
M  V30 2598 H 248.828 1.42654 -0.443861 0
M  V30 2599 H 250.71 3.95365 1.45823 0
M  V30 2600 H 249.385 2.77582 1.66523 0
M  V30 2601 H 248.292 3.71335 -0.453969 0
M  V30 2602 H 249.625 4.88798 -0.577736 0
M  V30 2603 N 251.277 0.427512 1.51691 0
M  V30 2604 C 252.554 -0.201684 1.94557 0
M  V30 2605 C 252.934 -1.60981 1.36559 0
M  V30 2606 O 252.282 -2.21814 0.548702 0
M  V30 2607 C 252.492 -0.189394 3.48486 0
M  V30 2608 C 253.84 -0.39978 4.22714 0
M  V30 2609 O 254.864 -0.267945 3.55191 0
M  V30 2610 O 253.723 -0.661249 5.42485 0
M  V30 2611 H 250.817 -0.135261 0.815864 0
M  V30 2612 H 253.363 0.484782 1.62628 0
M  V30 2613 H 252.135 0.795431 3.8313 0
M  V30 2614 H 251.758 -0.919187 3.86829 0
M  V30 2615 N 252.755 -1.56801 0.158532 0
M  V30 2616 C 254.004 -1.95665 -0.489702 0
M  V30 2617 C 254.317 -1.04654 -1.65248 0
M  V30 2618 O 255.523 -1.33146 -2.3661 0
M  V30 2619 C 253.979 -3.47874 -0.922582 0
M  V30 2620 C 253.587 -4.47489 0.213893 0
M  V30 2621 C 255.331 -3.95583 -1.53996 0
M  V30 2622 C 253.238 -5.90921 -0.237903 0
M  V30 2623 H 252.168 -0.730516 -0.186716 0
M  V30 2624 H 254.819 -1.81861 0.244722 0
M  V30 2625 H 253.201 -3.57051 -1.71261 0
M  V30 2626 H 254.375 -4.50017 0.991036 0
M  V30 2627 H 252.69 -4.09764 0.740407 0
M  V30 2628 H 255.287 -5.0019 -1.8898 0
M  V30 2629 H 255.63 -3.37789 -2.43319 0
M  V30 2630 H 256.163 -3.8937 -0.814611 0
M  V30 2631 H 252.902 -6.52559 0.620236 0
M  V30 2632 H 252.422 -5.91729 -0.980676 0
M  V30 2633 H 254.101 -6.43352 -0.686067 0
M  V30 2634 N 254.233 0.115231 -1.57178 0
M  V30 2635 C 255.51 0.852873 -1.76027 0
M  V30 2636 C 255.89 1.97892 -0.73498 0
M  V30 2637 O 255.238 2.27232 0.24036 0
M  V30 2638 C 255.448 1.36608 -3.21153 0
M  V30 2639 C 256.796 1.81692 -3.83762 0
M  V30 2640 O 257.82 1.46278 -3.24779 0
M  V30 2641 O 256.679 2.47104 -4.87444 0
M  V30 2642 H 253.773 0.405296 -0.720877 0
M  V30 2643 H 256.319 0.0986785 -1.69413 0
M  V30 2644 H 255.091 0.558357 -3.87296 0
M  V30 2645 H 254.714 2.18287 -3.3232 0
M  V30 2646 N 255.711 1.52812 0.385517 0
M  V30 2647 C 256.641 1.80808 1.47752 0
M  V30 2648 C 257.622 0.660318 1.5676 0
M  V30 2649 O 258.807 0.908246 1.71652 0
M  V30 2650 C 255.937 1.98008 2.85324 0
M  V30 2651 C 254.891 3.13709 2.91154 0
M  V30 2652 C 254.217 3.16169 4.31209 0
M  V30 2653 C 255.517 4.52709 2.60483 0
M  V30 2654 H 257.211 2.72253 1.24573 0
M  V30 2655 H 254.757 1.31003 0.597839 0
M  V30 2656 H 256.71 2.16176 3.61726 0
M  V30 2657 H 255.434 1.03255 3.09848 0
M  V30 2658 H 254.093 2.95329 2.17201 0
M  V30 2659 H 253.741 2.19092 4.52778 0
M  V30 2660 H 253.441 3.93894 4.36029 0
M  V30 2661 H 254.965 3.36496 5.09512 0
M  V30 2662 H 256.379 4.71173 3.26602 0
M  V30 2663 H 254.776 5.32528 2.76648 0
M  V30 2664 H 255.846 4.59186 1.55809 0
M  V30 2665 N 257.189 -0.644168 1.43834 0
M  V30 2666 C 258.438 -1.39985 1.45214 0
M  V30 2667 C 258.751 -1.95421 0.0835494 0
M  V30 2668 O 259.957 -2.71488 -0.0251748 0
M  V30 2669 C 258.413 -2.53384 2.55587 0
M  V30 2670 C 258.021 -2.04517 3.98594 0
M  V30 2671 C 259.765 -3.30685 2.66172 0
M  V30 2672 C 257.672 -3.1518 5.00416 0
M  V30 2673 H 256.602 -0.526005 0.540218 0
M  V30 2674 H 259.253 -0.694367 1.69855 0
M  V30 2675 H 257.635 -3.26446 2.24163 0
M  V30 2676 H 258.809 -1.38405 4.39523 0
M  V30 2677 H 257.124 -1.40068 3.92135 0
M  V30 2678 H 259.721 -4.13158 3.39418 0
M  V30 2679 H 260.064 -3.79312 1.71546 0
M  V30 2680 H 260.597 -2.64708 2.96942 0
M  V30 2681 H 257.336 -2.71511 5.96625 0
M  V30 2682 H 256.856 -3.79974 4.64091 0
M  V30 2683 H 258.535 -3.80166 5.23529 0
M  V30 2684 N 258.668 -1.30515 -0.883378 0
M  V30 2685 C 259.945 -1.10086 -1.6168 0
M  V30 2686 C 260.325 0.349269 -2.08191 0
M  V30 2687 O 259.673 1.34105 -1.85008 0
M  V30 2688 C 259.883 -2.10315 -2.78511 0
M  V30 2689 C 261.231 -2.42119 -3.48803 0
M  V30 2690 O 262.255 -2.08638 -2.88702 0
M  V30 2691 O 261.114 -2.99396 -4.57192 0
M  V30 2692 H 258.208 -0.422907 -0.710689 0
M  V30 2693 H 260.754 -1.41947 -0.930015 0
M  V30 2694 H 259.526 -3.07917 -2.41459 0
M  V30 2695 H 259.149 -1.79282 -3.54886 0
M  V30 2696 N 260.146 1.09593 -1.13257 0
M  V30 2697 C 261.395 1.81105 -0.887917 0
M  V30 2698 C 261.708 1.86563 0.587672 0
M  V30 2699 O 262.914 2.54367 0.949204 0
M  V30 2700 C 261.37 3.25338 -1.53895 0
M  V30 2701 C 260.978 3.28151 -3.04994 0
M  V30 2702 C 262.722 4.01617 -1.37492 0
M  V30 2703 C 260.629 4.66897 -3.6299 0
M  V30 2704 H 259.559 0.678661 -0.328534 0
M  V30 2705 H 262.21 1.23183 -1.36008 0
M  V30 2706 H 260.592 3.8331 -0.994446 0
M  V30 2707 H 261.766 2.79953 -3.66009 0
M  V30 2708 H 260.081 2.65361 -3.20893 0
M  V30 2709 H 262.678 5.04119 -1.78235 0
M  V30 2710 H 263.021 4.15072 -0.31957 0
M  V30 2711 H 263.554 3.50082 -1.88912 0
M  V30 2712 H 260.293 4.58643 -4.68323 0
M  V30 2713 H 259.813 5.15426 -3.06752 0
M  V30 2714 H 261.492 5.3587 -3.62563 0
M  V30 2715 N 261.624 0.925811 1.2754 0
M  V30 2716 C 262.554 0.440748 2.29303 0
M  V30 2717 C 263.535 -0.497971 1.62648 0
M  V30 2718 O 264.72 -0.403126 1.8997 0
M  V30 2719 C 261.85 -0.309048 3.45922 0
M  V30 2720 C 260.804 0.54166 4.24559 0
M  V30 2721 C 260.13 -0.337191 5.33636 0
M  V30 2722 C 261.43 1.80516 4.90114 0
M  V30 2723 H 263.124 1.29121 2.70126 0
M  V30 2724 H 260.67 0.622323 1.29858 0
M  V30 2725 H 262.623 -0.659315 4.1621 0
M  V30 2726 H 261.347 -1.19352 3.04011 0
M  V30 2727 H 260.006 0.874609 3.56014 0
M  V30 2728 H 259.654 -1.22056 4.87966 0
M  V30 2729 H 259.354 0.228497 5.87156 0
M  V30 2730 H 260.878 -0.683072 6.06767 0
M  V30 2731 H 262.292 1.52307 5.52698 0
M  V30 2732 H 260.689 2.3142 5.53683 0
M  V30 2733 H 261.759 2.52581 4.13921 0
M  V30 2734 N 263.102 -1.41638 0.69111 0
M  V30 2735 C 264.348 -2.02104 0.229258 0
M  V30 2736 C 264.703 -1.53741 -1.15678 0
M  V30 2737 O 263.996 -0.736849 -1.76865 0
M  V30 2738 C 264.19 -3.56714 0.221277 0
M  V30 2739 C 264.019 -4.20083 1.605 0
M  V30 2740 C 262.789 -4.54566 2.20676 0
M  V30 2741 C 264.987 -4.46587 2.55078 0
M  V30 2742 N 262.969 -5.03199 3.5166 0
M  V30 2743 C 264.34 -4.96946 3.70735 0
M  V30 2744 C 266.395 -4.28593 2.53401 0
M  V30 2745 C 265.098 -5.31203 4.8499 0
M  V30 2746 C 267.124 -4.63936 3.66765 0
M  V30 2747 C 266.486 -5.14463 4.81152 0
M  V30 2748 H 262.585 -0.771256 0.12918 0
M  V30 2749 H 265.169 -1.72251 0.907626 0
M  V30 2750 H 263.34 -3.86051 -0.426562 0
M  V30 2751 H 265.072 -4.03896 -0.254983 0
M  V30 2752 H 261.827 -4.4087 1.73005 0
M  V30 2753 H 262.251 -5.31926 4.18789 0
M  V30 2754 H 266.893 -3.88771 1.66184 0
M  V30 2755 H 264.611 -5.69951 5.72871 0
M  V30 2756 H 268.197 -4.51677 3.66714 0
M  V30 2757 H 267.077 -5.41299 5.67419 0
M  V30 2758 N 264.58 -0.43555 -1.51462 0
M  V30 2759 C 265.996 -0.0877501 -1.59359 0
M  V30 2760 C 266.196 1.4027 -1.4466 0
M  V30 2761 O 265.252 2.17243 -1.28693 0
M  V30 2762 C 266.565 -0.606264 -2.94525 0
M  V30 2763 C 268.113 -0.566548 -3.0783 0
M  V30 2764 C 268.588 -1.06201 -4.45517 0
M  V30 2765 N 270.079 -1.01992 -4.51832 0
M  V30 2766 C 270.814 -1.37417 -5.5669 0
M  V30 2767 N 270.31 -1.80119 -6.68976 0
M  V30 2768 N 272.103 -1.29245 -5.47039 0
M  V30 2769 H 264.254 -1.40533 -1.59261 0
M  V30 2770 H 266.517 -0.578992 -0.750648 0
M  V30 2771 H 266.223 -1.64901 -3.10645 0
M  V30 2772 H 266.097 -0.0302097 -3.77188 0
M  V30 2773 H 268.484 0.467208 -2.91378 0
M  V30 2774 H 268.565 -1.17898 -2.2701 0
M  V30 2775 H 268.209 -2.09422 -4.62715 0
M  V30 2776 H 268.139 -0.426127 -5.24873 0
M  V30 2777 H 270.63 -0.706308 -3.71241 0
M  V30 2778 H 270.943 -2.05392 -7.45006 0
M  V30 2779 H 269.288 -1.84044 -6.70189 0
M  V30 2780 H 272.479 -0.957522 -4.58202 0
M  V30 2781 H 272.652 -1.57182 -6.28648 0
M  V30 2782 N 266.058 1.56714 -0.166846 0
M  V30 2783 C 266.99 2.14914 0.796537 0
M  V30 2784 C 268.003 1.10357 1.19688 0
M  V30 2785 O 269.192 1.37561 1.13751 0
M  V30 2786 C 266.292 2.67326 2.08303 0
M  V30 2787 C 265.465 3.96493 1.84696 0
M  V30 2788 C 264.524 4.34014 2.97521 0
M  V30 2789 O 263.55 5.01973 2.6835 0
M  V30 2790 N 264.752 3.95208 4.25196 0
M  V30 2791 H 267.517 2.98205 0.299006 0
M  V30 2792 H 265.078 1.61892 0.0160839 0
M  V30 2793 H 267.07 2.89428 2.82867 0
M  V30 2794 H 265.64 1.88649 2.4926 0
M  V30 2795 H 264.86 3.82814 0.940602 0
M  V30 2796 H 266.148 4.8086 1.66285 0
M  V30 2797 H 265.546 3.40487 4.51758 0
M  V30 2798 H 264.103 4.2232 4.96477 0
M  V30 2799 N 267.536 -0.106894 1.57237 0
M  V30 2800 C 268.813 -0.843526 1.76477 0
M  V30 2801 C 269.193 -1.97499 0.745464 0
M  V30 2802 O 268.541 -2.27357 -0.228306 0
M  V30 2803 C 268.751 -1.34903 3.21873 0
M  V30 2804 C 270.099 -1.79654 3.8472 0
M  V30 2805 O 271.123 -1.44554 3.2555 0
M  V30 2806 O 269.982 -2.44515 4.88748 0
M  V30 2807 H 267.076 -0.401468 0.723016 0
M  V30 2808 H 269.622 -0.0896927 1.69463 0
M  V30 2809 H 268.394 -0.53781 3.87586 0
M  V30 2810 H 268.017 -2.16522 3.33473 0
M  V30 2811 N 269.014 -1.53014 -0.377408 0
M  V30 2812 C 270.263 -1.67845 -1.11853 0
M  V30 2813 C 270.576 -0.430625 -1.90801 0
M  V30 2814 O 271.782 -0.459261 -2.67587 0
M  V30 2815 C 270.238 -2.96668 -2.03756 0
M  V30 2816 C 269.846 -4.28671 -1.30175 0
M  V30 2817 C 271.59 -3.20865 -2.77932 0
M  V30 2818 C 269.497 -5.48591 -2.20911 0
M  V30 2819 H 268.427 -0.625343 -0.421263 0
M  V30 2820 H 271.078 -1.79514 -0.380409 0
M  V30 2821 H 269.46 -2.78773 -2.8125 0
M  V30 2822 H 270.634 -4.57157 -0.578259 0
M  V30 2823 H 268.949 -4.10825 -0.679108 0
M  V30 2824 H 271.546 -4.07642 -3.46024 0
M  V30 2825 H 271.889 -2.36424 -3.4265 0
M  V30 2826 H 272.422 -3.39379 -2.07525 0
M  V30 2827 H 269.161 -6.35474 -1.6079 0
M  V30 2828 H 268.681 -5.244 -2.91144 0
M  V30 2829 H 270.36 -5.8292 -2.80736 0
M  V30 2830 N 270.492 0.636531 -1.44174 0
M  V30 2831 C 271.769 1.39463 -1.37148 0
M  V30 2832 C 272.149 2.11082 -0.027507 0
M  V30 2833 O 271.497 2.05954 0.989716 0
M  V30 2834 C 271.707 2.36552 -2.56601 0
M  V30 2835 C 273.055 3.00048 -3.00427 0
M  V30 2836 O 274.079 2.46878 -2.56767 0
M  V30 2837 O 272.938 3.96488 -3.76111 0
M  V30 2838 H 270.032 0.623903 -0.542839 0
M  V30 2839 H 272.578 0.662039 -1.56253 0
M  V30 2840 H 271.35 1.82692 -3.46034 0
M  V30 2841 H 270.973 3.17236 -2.39681 0
M  V30 2842 N 271.97 1.30982 0.876444 0
M  V30 2843 C 272.9 1.20668 1.99903 0
M  V30 2844 C 273.881 0.095354 1.69833 0
M  V30 2845 O 275.066 0.27885 1.92188 0
M  V30 2846 C 272.196 0.90655 3.3526 0
M  V30 2847 C 271.15 1.97675 3.79617 0
M  V30 2848 C 270.476 1.52943 5.1236 0
M  V30 2849 C 271.776 3.389 3.97422 0
M  V30 2850 H 273.47 2.14586 2.0879 0
M  V30 2851 H 271.016 1.03308 1.00317 0
M  V30 2852 H 272.969 0.821025 4.13324 0
M  V30 2853 H 271.693 -0.0682969 3.26529 0
M  V30 2854 H 270.352 2.05205 3.03787 0
M  V30 2855 H 270 0.54262 5.00065 0
M  V30 2856 H 269.7 2.24532 5.43009 0
M  V30 2857 H 271.224 1.45786 5.92941 0
M  V30 2858 H 272.638 3.34081 4.659 0
M  V30 2859 H 271.035 4.0865 4.3946 0
M  V30 2860 H 272.105 3.80163 3.01006 0
M  V30 2861 N 273.449 -1.08991 1.13837 0
M  V30 2862 C 274.697 -1.80899 0.901098 0
M  V30 2863 C 275.018 -1.86356 -0.574134 0
M  V30 2864 O 274.288 -1.35235 -1.41733 0
M  V30 2865 H 272.868 -0.669966 0.330386 0
M  V30 2866 H 275.53 -1.318 1.43578 0
M  V30 2867 H 274.626 -2.83929 1.29578 0
M  V30 2868 N 274.927 -0.932562 -1.27047 0
M  V30 2869 C 275.89 -0.440064 -2.24936 0
M  V30 2870 C 276.89 0.444071 -1.54547 0
M  V30 2871 O 278.08 0.244465 -1.72476 0
M  V30 2872 C 275.212 0.36678 -3.38921 0
M  V30 2873 H 276.405 -1.305 -2.70018 0
M  V30 2874 H 273.958 -0.713707 -1.39054 0
M  V30 2875 H 274.693 1.25033 -2.99228 0
M  V30 2876 H 274.478 -0.267204 -3.91188 0
M  V30 2877 H 275.968 0.701567 -4.11665 0
M  V30 2878 N 276.405 1.4127 -0.698611 0
M  V30 2879 C 277.653 2.00782 -0.230409 0
M  V30 2880 C 277.974 1.5562 1.17505 0
M  V30 2881 O 277.244 0.78815 1.79346 0
M  V30 2882 H 275.824 0.742464 -0.0821944 0
M  V30 2883 H 278.486 1.72852 -0.90045 0
M  V30 2884 H 277.582 3.11095 -0.25021 0
M  V30 2885 N 277.883 0.443576 1.51229 0
M  V30 2886 C 279.299 0.0962001 1.5931 0
M  V30 2887 C 279.499 -1.39501 1.45402 0
M  V30 2888 O 278.555 -2.16557 1.29843 0
M  V30 2889 C 279.868 0.621875 2.94199 0
M  V30 2890 C 281.416 0.582865 3.07525 0
M  V30 2891 C 281.891 1.08562 4.44948 0
M  V30 2892 N 283.382 1.04387 4.51284 0
M  V30 2893 C 284.117 1.40368 5.55954 0
M  V30 2894 N 283.613 1.83664 6.68011 0
M  V30 2895 N 285.406 1.32145 5.46346 0
M  V30 2896 H 277.557 1.41376 1.58514 0
M  V30 2897 H 279.82 0.582965 0.747567 0
M  V30 2898 H 279.526 1.66546 3.09767 0
M  V30 2899 H 279.4 0.0502125 3.77167 0
M  V30 2900 H 281.787 -0.451749 2.91622 0
M  V30 2901 H 281.868 1.191 2.26382 0
M  V30 2902 H 281.512 2.11873 4.61598 0
M  V30 2903 H 281.442 0.453956 5.2464 0
M  V30 2904 H 283.933 0.725986 3.70861 0
M  V30 2905 H 284.246 2.0934 7.43906 0
M  V30 2906 H 282.591 1.87596 6.69203 0
M  V30 2907 H 285.782 0.981808 4.57688 0
M  V30 2908 H 285.955 1.60514 6.27805 0
M  V30 2909 N 279.361 -1.56624 0.175154 0
M  V30 2910 C 280.271 -2.21741 -0.766042 0
M  V30 2911 C 281.287 -1.21023 -1.25018 0
M  V30 2912 O 282.463 -1.53697 -1.3015 0
M  V30 2913 C 279.528 -2.84839 -1.97655 0
M  V30 2914 C 278.589 -4.00769 -1.53892 0
M  V30 2915 C 277.822 -4.60849 -2.69173 0
M  V30 2916 O 278.045 -4.19823 -3.86141 0
M  V30 2917 O 276.979 -5.50655 -2.43028 0
M  V30 2918 H 280.805 -3.02738 -0.241585 0
M  V30 2919 H 278.39 -1.49305 -0.053222 0
M  V30 2920 H 280.272 -3.24834 -2.68442 0
M  V30 2921 H 278.947 -2.06836 -2.48999 0
M  V30 2922 H 277.854 -3.65436 -0.80044 0
M  V30 2923 H 279.187 -4.80376 -1.07236 0
M  V30 2924 N 280.839 0.0985539 -1.57292 0
M  V30 2925 C 282.085 0.803867 -1.86188 0
M  V30 2926 C 282.418 1.78549 -0.763794 0
M  V30 2927 O 281.693 1.93153 0.22855 0
M  V30 2928 C 281.976 1.53568 -3.25713 0
M  V30 2929 C 281.829 0.572277 -4.46145 0
M  V30 2930 C 283.148 2.48708 -3.63087 0
M  V30 2931 H 280.267 0.290781 -0.677211 0
M  V30 2932 H 282.909 0.0675783 -1.8988 0
M  V30 2933 H 281.059 2.16332 -3.22696 0
M  V30 2934 H 282.731 -0.0480894 -4.61275 0
M  V30 2935 H 280.974 -0.114618 -4.33649 0
M  V30 2936 H 281.645 1.12139 -5.40489 0
M  V30 2937 H 284.121 1.96039 -3.67026 0
M  V30 2938 H 282.997 2.96932 -4.61652 0
M  V30 2939 H 283.258 3.32309 -2.91588 0
M  V30 2940 N 282.317 1.53212 0.369288 0
M  V30 2941 C 283.564 1.69215 1.11232 0
M  V30 2942 C 283.892 0.442048 1.8941 0
M  V30 2943 O 283.147 -0.575944 1.87033 0
M  V30 2944 C 283.446 2.89101 2.10132 0
M  V30 2945 C 283.112 4.25758 1.48463 0
M  V30 2946 C 281.774 4.6292 1.31372 0
M  V30 2947 C 284.126 5.10757 1.03811 0
M  V30 2948 C 281.454 5.82722 0.68207 0
M  V30 2949 C 283.806 6.31201 0.420487 0
M  V30 2950 C 282.47 6.67079 0.237038 0
M  V30 2951 H 281.74 0.619201 0.407027 0
M  V30 2952 H 284.387 1.87391 0.394552 0
M  V30 2953 H 282.692 2.65421 2.88199 0
M  V30 2954 H 284.389 2.98676 2.6757 0
M  V30 2955 H 280.979 3.96494 1.62758 0
M  V30 2956 H 285.163 4.82599 1.1581 0
M  V30 2957 H 280.419 6.09113 0.528316 0
M  V30 2958 H 284.593 6.96368 0.0662874 0
M  V30 2959 H 282.22 7.59774 -0.254477 0
M  V30 2960 N 283.795 -0.628877 1.44509 0
M  V30 2961 C 285.072 -1.38733 1.37886 0
M  V30 2962 C 285.452 -2.11065 0.0387008 0
M  V30 2963 O 284.8 -2.06476 -0.97878 0
M  V30 2964 C 285.01 -2.35188 2.57852 0
M  V30 2965 C 286.358 -2.9845 3.02014 0
M  V30 2966 O 287.382 -2.45513 2.58073 0
M  V30 2967 O 286.241 -3.94487 3.78209 0
M  V30 2968 H 283.335 -0.621015 0.54614 0
M  V30 2969 H 285.881 -0.653744 1.56602 0
M  V30 2970 H 284.653 -1.80855 3.46998 0
M  V30 2971 H 284.276 -3.1596 2.4136 0
M  V30 2972 N 285.273 -1.31445 -0.869486 0
M  V30 2973 C 286.503 -1.23942 -1.65294 0
M  V30 2974 C 286.911 0.197561 -1.88166 0
M  V30 2975 O 286.254 1.14019 -1.44033 0
M  V30 2976 C 286.316 -1.91385 -3.04322 0
M  V30 2977 C 285.98 -3.40726 -3.04557 0
M  V30 2978 C 286.977 -4.36464 -2.82481 0
M  V30 2979 C 284.662 -3.82425 -3.25663 0
M  V30 2980 C 286.656 -5.71876 -2.8149 0
M  V30 2981 C 284.343 -5.1795 -3.243 0
M  V30 2982 C 285.341 -6.12486 -3.02241 0
M  V30 2983 O 285.029 -7.45534 -3.00724 0
M  V30 2984 H 284.761 -0.429459 -0.522054 0
M  V30 2985 H 287.315 -1.73873 -1.0935 0
M  V30 2986 H 285.545 -1.36004 -3.61994 0
M  V30 2987 H 287.234 -1.77791 -3.64891 0
M  V30 2988 H 288 -4.05576 -2.65956 0
M  V30 2989 H 283.879 -3.09274 -3.41863 0
M  V30 2990 H 287.423 -6.45638 -2.64191 0
M  V30 2991 H 283.32 -5.48473 -3.40365 0
M  V30 2992 H 284.088 -7.54713 -3.16782 0
M  V30 2993 N 286.751 1.08385 -1.14413 0
M  V30 2994 C 287.976 1.85057 -0.936413 0
M  V30 2995 C 288.401 1.81055 0.509971 0
M  V30 2996 O 287.759 1.1958 1.36273 0
M  V30 2997 C 287.807 3.30505 -1.44217 0
M  V30 2998 O 286.911 4.07491 -0.634409 0
M  V30 2999 H 286.252 0.573425 -0.334784 0
M  V30 3000 H 288.782 1.36799 -1.52142 0
M  V30 3001 H 288.792 3.81348 -1.45043 0
M  V30 3002 H 287.467 3.32734 -2.49522 0
M  V30 3003 H 286.044 3.66368 -0.694902 0
M  V30 3004 N 288.23 0.939286 1.26551 0
M  V30 3005 C 289.18 0.418284 2.2413 0
M  V30 3006 C 290.164 -0.483935 1.5345 0
M  V30 3007 O 291.356 -0.319489 1.74093 0
M  V30 3008 C 288.485 -0.31709 3.41832 0
M  V30 3009 C 287.571 0.602311 4.19801 0
M  V30 3010 N 287.962 1.72726 4.75394 0
M  V30 3011 C 286.26 0.407534 4.44134 0
M  V30 3012 C 286.961 2.30004 5.34297 0
M  V30 3013 N 285.937 1.58828 5.1988 0
M  V30 3014 H 289.739 1.27705 2.64705 0
M  V30 3015 H 287.253 0.794929 1.41614 0
M  V30 3016 H 289.25 -0.707364 4.10855 0
M  V30 3017 H 287.91 -1.17264 3.02786 0
M  V30 3018 H 288.921 2.10944 4.72994 0
M  V30 3019 H 285.598 -0.406406 4.15517 0
M  V30 3020 H 286.988 3.24778 5.88191 0
M  V30 3021 N 289.708 -1.40897 0.706093 0
M  V30 3022 C 291.124 -1.55042 0.37869 0
M  V30 3023 C 291.324 -1.67944 -1.11342 0
M  V30 3024 O 290.38 -1.66372 -1.89938 0
M  V30 3025 C 291.693 -2.78398 1.13643 0
M  V30 3026 C 293.241 -2.92206 1.12181 0
M  V30 3027 C 293.716 -4.18463 1.86152 0
M  V30 3028 N 295.207 -4.25443 1.83173 0
M  V30 3029 C 295.942 -5.2202 2.37239 0
M  V30 3030 N 295.438 -6.24563 2.99821 0
M  V30 3031 N 297.231 -5.14033 2.27435 0
M  V30 3032 H 289.382 -1.30769 1.67372 0
M  V30 3033 H 291.645 -0.631653 0.706907 0
M  V30 3034 H 291.351 -2.7511 2.19106 0
M  V30 3035 H 291.225 -3.70228 0.721853 0
M  V30 3036 H 293.612 -2.95004 0.0754171 0
M  V30 3037 H 293.693 -2.01521 1.57554 0
M  V30 3038 H 293.337 -4.16427 2.90776 0
M  V30 3039 H 293.267 -5.08141 1.38206 0
M  V30 3040 H 295.758 -3.51976 1.37556 0
M  V30 3041 H 296.071 -6.94665 3.38616 0
M  V30 3042 H 294.416 -6.25035 3.03902 0
M  V30 3043 H 297.607 -4.3285 1.78208 0
M  V30 3044 H 297.78 -5.89129 2.69873 0
M  V30 3045 N 291.186 -0.45159 -1.50991 0
M  V30 3046 C 292.118 0.388634 -2.25881 0
M  V30 3047 C 293.131 0.974041 -1.30446 0
M  V30 3048 O 294.32 0.865758 -1.56099 0
M  V30 3049 C 291.42 1.5571 -3.01011 0
M  V30 3050 C 290.593 1.08801 -4.23652 0
M  V30 3051 C 289.652 2.12825 -4.8124 0
M  V30 3052 O 288.678 1.71678 -5.42693 0
M  V30 3053 N 289.88 3.45453 -4.66522 0
M  V30 3054 H 292.645 -0.25329 -2.98628 0
M  V30 3055 H 290.206 -0.281268 -1.59438 0
M  V30 3056 H 292.198 2.24952 -3.3642 0
M  V30 3057 H 290.768 2.10409 -2.31186 0
M  V30 3058 H 289.988 0.22215 -3.93574 0
M  V30 3059 H 291.276 0.752213 -5.03209 0
M  V30 3060 H 290.674 3.81605 -4.17605 0
M  V30 3061 H 289.231 4.10549 -5.06254 0
M  V30 3062 N 292.664 1.56529 -0.183458 0
M  V30 3063 C 293.611 2.18546 0.742055 0
M  V30 3064 C 294.581 1.12912 1.2182 0
M  V30 3065 O 295.766 1.41115 1.28418 0
M  V30 3066 C 292.906 2.83977 1.96089 0
M  V30 3067 C 292.019 4.04105 1.52719 0
M  V30 3068 C 291.154 4.57427 2.70063 0
M  V30 3069 C 290.193 5.69938 2.23243 0
M  V30 3070 N 289.33 6.17717 3.33722 0
M  V30 3071 H 294.17 2.97284 0.206432 0
M  V30 3072 H 291.707 1.46823 0.0901571 0
M  V30 3073 H 293.665 3.20077 2.67594 0
M  V30 3074 H 292.295 2.07822 2.47002 0
M  V30 3075 H 291.347 3.73745 0.708436 0
M  V30 3076 H 292.659 4.85513 1.1436 0
M  V30 3077 H 291.813 4.95772 3.49708 0
M  V30 3078 H 290.552 3.75101 3.11689 0
M  V30 3079 H 289.557 5.31133 1.42048 0
M  V30 3080 H 290.782 6.54073 1.82661 0
M  V30 3081 H 288.728 5.38317 3.74902 0
M  V30 3082 H 288.645 6.94146 2.99495 0
M  V30 3083 H 289.913 6.60713 4.13616 0
M  V30 3084 N 294.142 -0.090211 1.57342 0
M  V30 3085 C 295.052 -1.12735 2.05738 0
M  V30 3086 C 296.068 -1.43557 0.983231 0
M  V30 3087 O 297.244 -1.54101 1.29672 0
M  V30 3088 C 294.309 -2.42659 2.47624 0
M  V30 3089 C 293.37 -2.18975 3.69254 0
M  V30 3090 C 292.603 -3.42704 4.09133 0
M  V30 3091 O 292.826 -4.51127 3.49057 0
M  V30 3092 O 291.76 -3.32003 5.02053 0
M  V30 3093 H 295.586 -0.746279 2.94388 0
M  V30 3094 H 293.171 -0.303064 1.46294 0
M  V30 3095 H 295.053 -3.19155 2.7517 0
M  V30 3096 H 293.728 -2.80182 1.62109 0
M  V30 3097 H 292.635 -1.40244 3.46818 0
M  V30 3098 H 293.968 -1.86342 4.55563 0
M  V30 3099 N 295.62 -1.53406 -0.361157 0
M  V30 3100 C 296.552 -1.76446 -1.46286 0
M  V30 3101 C 297.565 -0.645322 -1.49464 0
M  V30 3102 O 298.754 -0.921681 -1.52864 0
M  V30 3103 C 295.854 -1.83332 -2.85031 0
M  V30 3104 C 295.027 -3.13033 -3.05498 0
M  V30 3105 C 294.086 -3.11104 -4.24383 0
M  V30 3106 O 293.112 -3.84888 -4.19344 0
M  V30 3107 N 294.314 -2.32234 -5.32022 0
M  V30 3108 H 297.079 -2.71508 -1.26899 0
M  V30 3109 H 294.64 -1.52238 -0.550915 0
M  V30 3110 H 296.632 -1.79514 -3.62708 0
M  V30 3111 H 295.202 -0.955342 -2.97644 0
M  V30 3112 H 294.422 -3.30119 -2.15442 0
M  V30 3113 H 295.71 -3.9874 -3.16044 0
M  V30 3114 H 295.108 -1.71807 -5.38979 0
M  V30 3115 H 293.665 -2.3423 -6.08259 0
M  V30 3116 N 297.098 0.621204 -1.44841 0
M  V30 3117 C 298.375 1.38 -1.38619 0
M  V30 3118 C 298.755 2.11041 -0.0498935 0
M  V30 3119 O 298.103 2.06992 0.967816 0
M  V30 3120 C 298.313 2.33817 -2.59096 0
M  V30 3121 C 299.661 2.96844 -3.03593 0
M  V30 3122 O 300.685 2.44141 -2.59371 0
M  V30 3123 O 299.544 3.92476 -3.80296 0
M  V30 3124 H 296.638 0.61811 -0.549426 0
M  V30 3125 H 299.184 0.645429 -1.56947 0
M  V30 3126 H 297.956 1.79012 -3.47952 0
M  V30 3127 H 297.579 3.14676 -2.43032 0
M  V30 3128 N 298.576 1.31904 0.862503 0
M  V30 3129 C 299.822 1.22197 1.61851 0
M  V30 3130 C 300.155 -0.217641 1.92977 0
M  V30 3131 O 299.43 -1.15264 1.56666 0
M  V30 3132 C 299.713 2.07378 2.94391 0
M  V30 3133 C 299.566 3.59678 2.70096 0
M  V30 3134 C 300.885 1.92891 3.95577 0
M  V30 3135 H 298.004 0.445255 0.587296 0
M  V30 3136 H 300.646 1.6177 0.99651 0
M  V30 3137 H 298.796 1.73758 3.47477 0
M  V30 3138 H 300.468 4.03472 2.23625 0
M  V30 3139 H 298.711 3.82735 2.04197 0
M  V30 3140 H 299.382 4.14595 3.64438 0
M  V30 3141 H 301.858 2.22327 3.51724 0
M  V30 3142 H 300.734 2.54781 4.86187 0
M  V30 3143 H 300.995 0.894315 4.3296 0
M  V30 3144 N 300.054 -1.07777 1.14986 0
M  V30 3145 C 300.964 -2.18404 0.856546 0
M  V30 3146 C 301.98 -1.73211 -0.165485 0
M  V30 3147 O 303.156 -2.01399 0.00755219 0
M  V30 3148 C 300.221 -3.44977 0.34526 0
M  V30 3149 C 299.282 -4.0476 1.43065 0
M  V30 3150 C 298.515 -5.25291 0.943663 0
M  V30 3151 O 298.738 -5.70004 -0.212426 0
M  V30 3152 O 297.672 -5.76638 1.72547 0
M  V30 3153 H 301.498 -2.45978 1.78125 0
M  V30 3154 H 299.083 -1.17033 0.928631 0
M  V30 3155 H 300.965 -4.21348 0.0663671 0
M  V30 3156 H 299.64 -3.18965 -0.551631 0
M  V30 3157 H 298.547 -3.29949 1.76309 0
M  V30 3158 H 299.88 -4.35035 2.30229 0
M  V30 3159 N 301.532 -0.945985 -1.26051 0
M  V30 3160 C 302.479 -0.45809 -2.26208 0
M  V30 3161 C 303.449 0.484816 -1.58867 0
M  V30 3162 O 304.634 0.399969 -1.86561 0
M  V30 3163 C 301.774 0.266131 -3.44072 0
M  V30 3164 C 300.887 -0.713005 -4.26075 0
M  V30 3165 C 300.022 0.0329013 -5.3119 0
M  V30 3166 C 299.061 -0.93774 -6.04874 0
M  V30 3167 N 298.198 -0.223274 -7.01745 0
M  V30 3168 H 303.038 -1.3171 -2.67313 0
M  V30 3169 H 300.575 -0.66069 -1.31428 0
M  V30 3170 H 302.533 0.702514 -4.11243 0
M  V30 3171 H 301.163 1.08925 -3.03867 0
M  V30 3172 H 300.215 -1.26789 -3.58648 0
M  V30 3173 H 301.527 -1.45406 -4.77136 0
M  V30 3174 H 300.681 0.528335 -6.04395 0
M  V30 3175 H 299.42 0.806801 -4.8098 0
M  V30 3176 H 298.425 -1.44425 -5.30492 0
M  V30 3177 H 299.65 -1.71172 -6.57173 0
M  V30 3178 H 297.596 0.532046 -6.53839 0
M  V30 3179 H 297.513 -0.90357 -7.50581 0
M  V30 3180 H 298.781 0.250907 -7.79096 0
M  V30 3181 N 303.011 1.40521 -0.713556 0
M  V30 3182 C 303.921 2.34522 -0.0606667 0
M  V30 3183 C 304.937 1.57193 0.74607 0
M  V30 3184 O 306.113 1.89591 0.679493 0
M  V30 3185 C 303.178 3.36081 0.851491 0
M  V30 3186 C 302.239 4.29286 0.0349339 0
M  V30 3187 C 301.472 5.25994 0.903649 0
M  V30 3188 O 301.695 5.28616 2.14292 0
M  V30 3189 O 300.629 6.00918 0.343723 0
M  V30 3190 H 304.455 2.91968 -0.835972 0
M  V30 3191 H 302.04 1.41681 -0.47402 0
M  V30 3192 H 303.922 3.98369 1.37404 0
M  V30 3193 H 302.597 2.81052 1.60598 0
M  V30 3194 H 301.504 3.70289 -0.532633 0
M  V30 3195 H 302.837 4.87462 -0.681287 0
M  V30 3196 N 304.489 0.459591 1.5075 0
M  V30 3197 C 305.419 -0.330644 2.31147 0
M  V30 3198 C 306.4 -1.00087 1.37538 0
M  V30 3199 O 307.585 -1.00025 1.66459 0
M  V30 3200 C 304.715 -1.41958 3.16962 0
M  V30 3201 C 303.669 -0.871608 4.19031 0
M  V30 3202 C 302.995 -2.05797 4.9351 0
M  V30 3203 C 304.295 0.109251 5.22186 0
M  V30 3204 H 305.989 0.340336 2.97459 0
M  V30 3205 H 303.535 0.165119 1.4305 0
M  V30 3206 H 305.488 -1.9798 3.71997 0
M  V30 3207 H 304.212 -2.11917 2.48513 0
M  V30 3208 H 302.871 -0.333442 3.6508 0
M  V30 3209 H 302.519 -2.74427 4.21544 0
M  V30 3210 H 302.219 -1.6976 5.62544 0
M  V30 3211 H 303.743 -2.62331 5.51375 0
M  V30 3212 H 305.157 -0.361405 5.7216 0
M  V30 3213 H 303.554 0.383316 5.98875 0
M  V30 3214 H 304.624 1.03887 4.73641 0
M  V30 3215 N 305.967 -1.56429 0.191757 0
M  V30 3216 C 307.383 -1.58754 -0.164137 0
M  V30 3217 C 307.583 -1.20782 -1.61288 0
M  V30 3218 O 306.639 -0.928999 -2.34789 0
M  V30 3219 C 307.952 -3.00396 0.135195 0
M  V30 3220 C 309.5 -3.1291 0.0750351 0
M  V30 3221 C 309.975 -4.56679 0.347632 0
M  V30 3222 N 311.466 -4.62252 0.296131 0
M  V30 3223 C 312.201 -5.71379 0.480948 0
M  V30 3224 N 311.697 -6.88986 0.725933 0
M  V30 3225 N 313.49 -5.60563 0.415435 0
M  V30 3226 H 305.641 -1.79393 1.13718 0
M  V30 3227 H 307.904 -0.832414 0.453643 0
M  V30 3228 H 307.61 -3.32726 1.13958 0
M  V30 3229 H 307.484 -3.72963 -0.563773 0
M  V30 3230 H 309.871 -2.80394 -0.919948 0
M  V30 3231 H 309.952 -2.42736 0.807029 0
M  V30 3232 H 309.596 -4.89907 1.33992 0
M  V30 3233 H 309.526 -5.25039 -0.405212 0
M  V30 3234 H 312.017 -3.7773 0.113259 0
M  V30 3235 H 312.33 -7.68046 0.855857 0
M  V30 3236 H 310.675 -6.90801 0.762788 0
M  V30 3237 H 313.866 -4.67561 0.224486 0
M  V30 3238 H 314.039 -6.45551 0.562889 0
M  V30 3239 N 307.445 0.0818655 -1.57387 0
M  V30 3240 C 308.722 0.815343 -1.77796 0
M  V30 3241 C 309.102 1.96289 -0.77679 0
M  V30 3242 O 308.45 2.27691 0.192106 0
M  V30 3243 C 308.66 1.29765 -3.23978 0
M  V30 3244 C 310.008 1.7351 -3.8753 0
M  V30 3245 O 311.032 1.39356 -3.27808 0
M  V30 3246 O 309.891 2.36708 -4.92576 0
M  V30 3247 H 306.985 0.389914 -0.729312 0
M  V30 3248 H 309.531 0.0627213 -1.69584 0
M  V30 3249 H 308.303 0.47608 -3.88393 0
M  V30 3250 H 307.926 2.11189 -3.36875 0
M  V30 3251 N 308.923 1.53595 0.353017 0
M  V30 3252 C 310.171 1.70049 1.09215 0
M  V30 3253 C 310.492 0.461406 1.89463 0
M  V30 3254 O 309.762 -0.524633 1.88744 0
M  V30 3255 H 308.342 0.626912 0.40619 0
M  V30 3256 H 311.004 1.90822 0.396585 0
M  V30 3257 H 310.1 2.56718 1.77488 0
M  V30 3258 N 310.401 -0.613514 1.45168 0
M  V30 3259 C 311.649 -1.36997 1.48581 0
M  V30 3260 C 311.97 -1.94589 0.126545 0
M  V30 3261 O 311.24 -1.76816 -0.843372 0
M  V30 3262 H 309.82 -0.508558 0.547154 0
M  V30 3263 H 312.482 -0.720853 1.81079 0
M  V30 3264 H 311.578 -2.1924 2.22127 0
M  V30 3265 N 311.879 -1.3236 -0.855495 0
M  V30 3266 C 312.789 -1.23221 -1.99634 0
M  V30 3267 C 313.805 -0.145983 -1.73387 0
M  V30 3268 O 314.981 -0.366502 -1.98037 0
M  V30 3269 C 312.046 -0.954782 -3.33294 0
M  V30 3270 C 311.107 -2.12937 -3.72769 0
M  V30 3271 C 310.34 -1.86508 -5.00051 0
M  V30 3272 O 310.563 -0.807231 -5.64659 0
M  V30 3273 O 309.497 -2.72591 -5.36636 0
M  V30 3274 H 313.323 -2.19126 -2.1028 0
M  V30 3275 H 310.908 -1.12241 -0.986018 0
M  V30 3276 H 312.79 -0.816519 -4.13414 0
M  V30 3277 H 311.465 -0.0258854 -3.2369 0
M  V30 3278 H 310.372 -2.3231 -2.93228 0
M  V30 3279 H 311.705 -3.04102 -3.87018 0
M  V30 3280 N 313.357 1.07166 -1.15556 0
M  V30 3281 C 314.289 2.14341 -0.811815 0
M  V30 3282 C 315.302 1.61835 0.177015 0
M  V30 3283 O 316.491 1.78439 -0.0464996 0
M  V30 3284 C 313.591 3.38387 -0.186481 0
M  V30 3285 C 312.764 4.20238 -1.21321 0
M  V30 3286 C 311.823 5.2266 -0.609302 0
M  V30 3287 O 310.849 5.54719 -1.27576 0
M  V30 3288 N 312.051 5.77306 0.608099 0
M  V30 3289 H 314.816 2.44431 -1.73417 0
M  V30 3290 H 312.377 1.23089 -1.0517 0
M  V30 3291 H 314.369 4.04044 0.230339 0
M  V30 3292 H 312.939 3.05994 0.639249 0
M  V30 3293 H 312.159 3.50369 -1.80652 0
M  V30 3294 H 313.447 4.71736 -1.90638 0
M  V30 3295 H 312.845 5.53513 1.1679 0
M  V30 3296 H 311.402 6.44583 0.96725 0
M  V30 3297 N 314.835 0.952656 1.25548 0
M  V30 3298 C 316.112 0.523818 1.88456 0
M  V30 3299 C 316.492 -0.998871 1.85973 0
M  V30 3300 O 315.84 -1.86381 1.3219 0
M  V30 3301 C 316.05 1.0982 3.31271 0
M  V30 3302 C 317.398 1.17385 4.08051 0
M  V30 3303 O 318.422 1.04961 3.40384 0
M  V30 3304 O 317.281 1.36852 5.29088 0
M  V30 3305 H 314.375 0.172485 0.808813 0
M  V30 3306 H 316.921 1.04596 1.33633 0
M  V30 3307 H 315.693 2.1415 3.27499 0
M  V30 3308 H 315.316 0.559191 3.93648 0
M  V30 3309 N 316.313 -1.40141 0.720998 0
M  V30 3310 C 317.541 -2.05096 0.272656 0
M  V30 3311 C 317.956 -1.54334 -1.0875 0
M  V30 3312 O 317.313 -0.702211 -1.6845 0
M  V30 3313 C 317.364 -3.60636 0.249835 0
M  V30 3314 O 317.085 -4.09526 1.55629 0
M  V30 3315 C 318.586 -4.42772 -0.216396 0
M  V30 3316 H 315.806 -0.659897 0.121558 0
M  V30 3317 H 318.35 -1.79449 0.980723 0
M  V30 3318 H 316.505 -3.85232 -0.409237 0
M  V30 3319 H 316.919 -5.03758 1.4604 0
M  V30 3320 H 318.393 -5.51702 -0.181212 0
M  V30 3321 H 318.87 -4.20756 -1.25941 0
M  V30 3322 H 319.476 -4.23294 0.412596 0
M  V30 3323 N 317.792 -0.46758 -1.50504 0
M  V30 3324 C 319.038 0.0808869 -2.03239 0
M  V30 3325 C 319.393 1.37721 -1.34353 0
M  V30 3326 O 318.686 1.86016 -0.459194 0
M  V30 3327 C 318.88 0.323995 -3.55928 0
M  V30 3328 C 318.709 -0.947215 -4.39611 0
M  V30 3329 C 317.479 -1.48951 -4.82848 0
M  V30 3330 C 319.677 -1.84166 -4.80195 0
M  V30 3331 N 317.659 -2.71011 -5.50842 0
M  V30 3332 C 319.03 -2.90815 -5.47564 0
M  V30 3333 C 321.085 -1.85246 -4.62156 0
M  V30 3334 C 319.788 -3.98529 -5.98805 0
M  V30 3335 C 321.814 -2.91914 -5.14335 0
M  V30 3336 C 321.176 -3.97282 -5.81676 0
M  V30 3337 H 317.275 -0.0103394 -0.781932 0
M  V30 3338 H 319.859 -0.635003 -1.84054 0
M  V30 3339 H 318.03 1.00892 -3.75067 0
M  V30 3340 H 319.762 0.866492 -3.95315 0
M  V30 3341 H 316.517 -1.03918 -4.62058 0
M  V30 3342 H 316.941 -3.32988 -5.89447 0
M  V30 3343 H 321.583 -1.05103 -4.09528 0
M  V30 3344 H 319.301 -4.79491 -6.50472 0
M  V30 3345 H 322.887 -2.93729 -5.0221 0
M  V30 3346 H 321.767 -4.78462 -6.21324 0
M  V30 3347 N 319.27 1.56325 -0.20005 0
M  V30 3348 C 320.233 2.18084 0.705132 0
M  V30 3349 C 321.233 1.13666 1.1374 0
M  V30 3350 O 322.423 1.39023 1.04968 0
M  V30 3351 C 319.555 2.78689 1.96329 0
M  V30 3352 H 320.748 2.99435 0.167023 0
M  V30 3353 H 318.301 1.56221 0.0495725 0
M  V30 3354 H 319.036 2.0115 2.5438 0
M  V30 3355 H 318.821 3.55133 1.66202 0
M  V30 3356 H 320.311 3.26096 2.60866 0
M  V30 3357 N 320.748 -0.0735177 1.57428 0
M  V30 3358 C 321.996 -0.771472 1.86796 0
M  V30 3359 C 322.317 -1.78201 0.791804 0
M  V30 3360 O 321.587 -1.95074 -0.179718 0
M  V30 3361 H 320.167 -0.28791 0.689287 0
M  V30 3362 H 322.829 -0.0500161 1.94836 0
M  V30 3363 H 321.925 -1.28874 2.8425 0
M  V30 3364 N 322.226 -1.5378 -0.344866 0
M  V30 3365 C 323.136 -1.84667 -1.4469 0
M  V30 3366 C 324.152 -0.736704 -1.57635 0
M  V30 3367 O 325.328 -1.02888 -1.73136 0
M  V30 3368 C 322.393 -2.04869 -2.79696 0
M  V30 3369 C 321.454 -3.28731 -2.76106 0
M  V30 3370 C 320.687 -3.4796 -4.04673 0
M  V30 3371 O 320.91 -2.71052 -5.01883 0
M  V30 3372 O 319.844 -4.41383 -4.09224 0
M  V30 3373 H 323.67 -2.78334 -1.21506 0
M  V30 3374 H 321.255 -1.39418 -0.536921 0
M  V30 3375 H 323.137 -2.19609 -3.59652 0
M  V30 3376 H 321.812 -1.14391 -3.02814 0
M  V30 3377 H 320.719 -3.19396 -1.94774 0
M  V30 3378 H 322.052 -4.19198 -2.57941 0
M  V30 3379 N 323.704 0.605807 -1.45491 0
M  V30 3380 C 324.952 1.36207 -1.49305 0
M  V30 3381 C 325.273 1.94519 -0.136863 0
M  V30 3382 O 324.543 1.77261 0.833983 0
M  V30 3383 H 323.123 0.50565 -0.549843 0
M  V30 3384 H 325.785 0.711239 -1.81459 0
M  V30 3385 H 324.881 2.18058 -2.23287 0
M  V30 3386 N 325.182 1.32811 0.848464 0
M  V30 3387 C 326.145 1.22194 1.9391 0
M  V30 3388 C 327.145 0.143404 1.60159 0
M  V30 3389 O 328.335 0.394253 1.6968 0
M  V30 3390 C 325.467 0.88067 3.29328 0
M  V30 3391 H 326.66 2.19127 2.04752 0
M  V30 3392 H 324.213 1.16731 1.0394 0
M  V30 3393 H 324.948 -0.0865776 3.24184 0
M  V30 3394 H 324.733 1.66052 3.55203 0
M  V30 3395 H 326.223 0.830871 4.09251 0
M  V30 3396 N 326.66 -1.06551 1.16123 0
M  V30 3397 C 327.57 -2.17484 0.879662 0
M  V30 3398 C 328.586 -1.73377 -0.147104 0
M  V30 3399 O 329.762 -2.01379 0.0289128 0
M  V30 3400 C 326.827 -3.44591 0.381829 0
M  V30 3401 C 325.888 -4.0322 1.4735 0
M  V30 3402 C 325.121 -5.24261 0.999324 0
M  V30 3403 O 325.344 -5.70198 -0.151957 0
M  V30 3404 O 324.278 -5.74775 1.78653 0
M  V30 3405 H 328.104 -2.44075 1.80724 0
M  V30 3406 H 325.689 -1.16042 0.940992 0
M  V30 3407 H 327.571 -4.21254 0.111053 0
M  V30 3408 H 326.246 -3.19532 -0.51777 0
M  V30 3409 H 325.153 -3.2806 1.79798 0
M  V30 3410 H 326.486 -4.32568 2.34831 0
M  V30 3411 N 328.138 -0.959301 -1.25041 0
M  V30 3412 C 329.101 -0.487677 -2.23952 0
M  V30 3413 C 330.101 0.41119 -1.55454 0
M  V30 3414 O 331.291 0.207825 -1.72956 0
M  V30 3415 C 328.423 0.294807 -3.39623 0
M  V30 3416 H 329.616 -1.36198 -2.67189 0
M  V30 3417 H 327.169 -0.743042 -1.37508 0
M  V30 3418 H 327.904 1.18658 -3.01813 0
M  V30 3419 H 327.689 -0.35012 -3.90534 0
M  V30 3420 H 329.179 0.614089 -4.1306 0
M  V30 3421 N 329.616 1.39756 -0.72842 0
M  V30 3422 C 330.546 2.33289 -0.0991354 0
M  V30 3423 C 331.527 1.53568 0.731489 0
M  V30 3424 O 332.712 1.81987 0.677807 0
M  V30 3425 C 329.842 3.3763 0.813834 0
M  V30 3426 C 328.796 4.2791 0.0878663 0
M  V30 3427 C 328.122 5.22894 1.11741 0
M  V30 3428 C 329.422 5.11314 -1.06563 0
M  V30 3429 H 331.116 2.86163 -0.880408 0
M  V30 3430 H 328.662 1.37591 -0.424819 0
M  V30 3431 H 330.615 4.0201 1.26355 0
M  V30 3432 H 329.339 2.83181 1.62715 0
M  V30 3433 H 327.998 3.65 -0.342159 0
M  V30 3434 H 327.646 4.64744 1.92412 0
M  V30 3435 H 327.346 5.84143 0.636477 0
M  V30 3436 H 328.87 5.90151 1.56697 0
M  V30 3437 H 330.284 5.69076 -0.694671 0
M  V30 3438 H 328.681 5.81671 -1.47577 0
M  V30 3439 H 329.751 4.46534 -1.89038 0
M  V30 3440 N 331.094 0.475555 1.50254 0
M  V30 3441 C 332.057 -0.305016 2.27161 0
M  V30 3442 C 333.057 -0.916519 1.32123 0
M  V30 3443 O 334.247 -0.785003 1.5551 0
M  V30 3444 C 331.379 -1.43496 3.09227 0
M  V30 3445 H 332.572 0.369511 2.97615 0
M  V30 3446 H 330.125 0.229747 1.54602 0
M  V30 3447 H 330.86 -2.14441 2.43281 0
M  V30 3448 H 330.645 -1.00223 3.79075 0
M  V30 3449 H 332.135 -1.98548 3.67381 0
M  V30 3450 N 332.573 -1.56217 0.208337 0
M  V30 3451 C 333.989 -1.58919 -0.14729 0
M  V30 3452 C 334.189 -1.22486 -1.59998 0
M  V30 3453 O 333.245 -0.953849 -2.3379 0
M  V30 3454 C 334.558 -3.00236 0.167048 0
M  V30 3455 C 336.106 -3.12813 0.108219 0
M  V30 3456 C 336.581 -4.56284 0.396049 0
M  V30 3457 N 338.072 -4.61912 0.345142 0
M  V30 3458 C 338.807 -5.70837 0.541523 0
M  V30 3459 N 338.303 -6.88178 0.798968 0
M  V30 3460 N 340.096 -5.60091 0.474867 0
M  V30 3461 H 332.247 -1.78177 1.15614 0
M  V30 3462 H 334.51 -0.827555 0.462446 0
M  V30 3463 H 334.216 -3.31499 1.1748 0
M  V30 3464 H 334.09 -3.7354 -0.524184 0
M  V30 3465 H 336.477 -2.81354 -0.890157 0
M  V30 3466 H 336.558 -2.41866 0.832729 0
M  V30 3467 H 336.202 -4.88458 1.3918 0
M  V30 3468 H 336.132 -5.25439 -0.349502 0
M  V30 3469 H 338.623 -3.77589 0.153316 0
M  V30 3470 H 338.936 -7.67095 0.93727 0
M  V30 3471 H 337.281 -6.89953 0.836013 0
M  V30 3472 H 340.472 -4.67297 0.274064 0
M  V30 3473 H 340.645 -6.44917 0.631326 0
M  V30 3474 N 334.051 0.0651679 -1.57465 0
M  V30 3475 C 334.999 1.09542 -2.05191 0
M  V30 3476 C 335.993 1.39675 -0.958509 0
M  V30 3477 O 337.199 1.39003 -1.14359 0
M  V30 3478 H 333.574 0.370623 -0.654326 0
M  V30 3479 H 335.545 0.666802 -2.90854 0
M  V30 3480 C 334.294 2.39881 -2.51699 0
M  V30 3481 H 333.617 2.17547 -3.3543 0
M  V30 3482 H 335.057 3.104 -2.88839 0
M  V30 3483 C 333.516 3.0631 -1.40271 0
M  V30 3484 O 334.046 3.94664 -0.748523 0
M  V30 3485 N 332.252 2.67041 -1.14618 0
M  V30 3486 H 331.799 1.95281 -1.67997 0
M  V30 3487 H 331.757 3.1181 -0.402688 0
M  V30 3488 N 335.529 1.53961 0.336706 0
M  V30 3489 C 336.459 1.85417 1.41925 0
M  V30 3490 C 337.44 0.709856 1.5458 0
M  V30 3491 O 338.625 0.962396 1.68676 0
M  V30 3492 C 335.755 2.06985 2.78881 0
M  V30 3493 C 334.709 3.22813 2.81026 0
M  V30 3494 C 334.035 3.29727 4.20932 0
M  V30 3495 C 335.335 4.60767 2.45949 0
M  V30 3496 H 337.029 2.76079 1.15848 0
M  V30 3497 H 334.575 1.32839 0.555859 0
M  V30 3498 H 336.528 2.27575 3.54665 0
M  V30 3499 H 335.252 1.13061 3.06406 0
M  V30 3500 H 333.911 3.0209 2.07695 0
M  V30 3501 H 333.559 2.33385 4.45579 0
M  V30 3502 H 333.259 4.07566 4.23277 0
M  V30 3503 H 334.783 3.52536 4.98549 0
M  V30 3504 H 336.197 4.81325 3.11446 0
M  V30 3505 H 334.594 5.4106 2.59566 0
M  V30 3506 H 335.664 4.6391 1.41122 0
M  V30 3507 N 337.007 -0.598083 1.45811 0
M  V30 3508 C 337.937 -1.71873 1.58057 0
M  V30 3509 C 338.918 -1.64533 0.431615 0
M  V30 3510 O 340.103 -1.82787 0.65595 0
M  V30 3511 C 337.233 -3.10495 1.55597 0
M  V30 3512 C 336.187 -3.32654 2.69305 0
M  V30 3513 C 335.513 -4.71646 2.51902 0
M  V30 3514 C 336.813 -3.21981 4.11248 0
M  V30 3515 H 338.507 -1.61881 2.51863 0
M  V30 3516 H 336.053 -0.777372 1.21214 0
M  V30 3517 H 338.006 -3.88699 1.6276 0
M  V30 3518 H 336.73 -3.2135 0.583255 0
M  V30 3519 H 335.389 -2.56843 2.61586 0
M  V30 3520 H 335.037 -4.79246 1.52748 0
M  V30 3521 H 334.737 -4.87426 3.2816 0
M  V30 3522 H 336.261 -5.52038 2.60933 0
M  V30 3523 H 337.675 -3.90049 4.20161 0
M  V30 3524 H 336.072 -3.49289 4.87972 0
M  V30 3525 H 337.142 -2.1928 4.32486 0
M  V30 3526 N 338.485 -1.33259 -0.841409 0
M  V30 3527 C 339.731 -1.24757 -1.59886 0
M  V30 3528 C 340.064 0.186913 -1.93298 0
M  V30 3529 O 339.339 1.12757 -1.5848 0
M  V30 3530 C 339.622 -2.12036 -2.91055 0
M  V30 3531 C 339.475 -3.63929 -2.6434 0
M  V30 3532 C 340.794 -1.9916 -3.92458 0
M  V30 3533 H 337.913 -0.454542 -0.580138 0
M  V30 3534 H 340.555 -1.63335 -0.970647 0
M  V30 3535 H 338.705 -1.79265 -3.44669 0
M  V30 3536 H 340.377 -4.06978 -2.17178 0
M  V30 3537 H 338.62 -3.85935 -1.98082 0
M  V30 3538 H 339.291 -4.20341 -3.57796 0
M  V30 3539 H 341.767 -2.27895 -3.48143 0
M  V30 3540 H 340.643 -2.62484 -4.82072 0
M  V30 3541 H 340.904 -0.963082 -4.31482 0
M  V30 3542 N 339.963 1.05934 -1.16686 0
M  V30 3543 C 341.24 1.75643 -0.860747 0
M  V30 3544 C 341.62 2.01144 0.640641 0
M  V30 3545 O 340.968 1.64147 1.58959 0
M  V30 3546 C 341.178 3.05493 -1.68745 0
M  V30 3547 C 342.526 3.79581 -1.90271 0
M  V30 3548 O 343.55 3.15344 -1.65641 0
M  V30 3549 O 342.409 4.9499 -2.31618 0
M  V30 3550 H 339.503 0.763426 -0.317977 0
M  V30 3551 H 342.049 1.1217 -1.27342 0
M  V30 3552 H 340.821 2.8264 -2.70611 0
M  V30 3553 H 340.444 3.76702 -1.27206 0
M  V30 3554 N 341.441 0.965919 1.2453 0
M  V30 3555 C 342.689 0.625593 1.92174 0
M  V30 3556 C 343.01 -0.841652 1.75901 0
M  V30 3557 O 342.28 -1.60061 1.12948 0
M  V30 3558 H 340.86 0.228388 0.71123 0
M  V30 3559 H 343.522 1.2266 1.51461 0
M  V30 3560 H 342.618 0.864653 2.99884 0
M  V30 3561 N 342.919 -1.39368 0.735821 0
M  V30 3562 C 343.829 -2.34395 0.0979693 0
M  V30 3563 C 344.845 -1.58361 -0.720968 0
M  V30 3564 O 346.021 -1.90648 -0.649245 0
M  V30 3565 C 343.086 -3.37393 -0.797916 0
M  V30 3566 C 342.147 -4.29287 0.0333662 0
M  V30 3567 C 341.38 -5.27365 -0.819854 0
M  V30 3568 O 341.603 -5.31959 -2.05855 0
M  V30 3569 O 340.537 -6.01389 -0.248079 0
M  V30 3570 H 344.363 -2.90601 0.882315 0
M  V30 3571 H 341.948 -1.40909 0.4965 0
M  V30 3572 H 343.83 -4.00505 -1.31048 0
M  V30 3573 H 342.505 -2.83571 -1.56106 0
M  V30 3574 H 341.412 -3.69395 0.591475 0
M  V30 3575 H 342.745 -4.86317 0.758752 0
M  V30 3576 N 344.397 -0.483516 -1.5 0
M  V30 3577 C 345.625 0.0644831 -2.06799 0
M  V30 3578 C 346.04 1.32399 -1.34596 0
M  V30 3579 O 345.397 1.77626 -0.418946 0
M  V30 3580 C 345.448 0.339927 -3.59898 0
M  V30 3581 O 345.169 -0.869635 -4.29382 0
M  V30 3582 C 346.67 0.933515 -4.33359 0
M  V30 3583 H 343.89 -0.0126333 -0.670881 0
M  V30 3584 H 346.434 -0.675864 -1.93009 0
M  V30 3585 H 344.589 1.03022 -3.7345 0
M  V30 3586 H 345.003 -0.62179 -5.20801 0
M  V30 3587 H 346.477 1.07593 -5.41413 0
M  V30 3588 H 346.954 1.92685 -3.94676 0
M  V30 3589 H 347.56 0.281221 -4.24369 0
M  V30 3590 N 345.875 1.56104 -0.216619 0
M  V30 3591 C 347.123 1.97781 0.415593 0
M  V30 3592 C 347.444 1.10536 1.60645 0
M  V30 3593 O 346.714 0.181303 1.95059 0
M  V30 3594 H 345.294 0.730415 0.156534 0
M  V30 3595 H 347.956 1.92445 -0.308366 0
M  V30 3596 H 347.052 3.03072 0.74525 0
M  V30 3597 N 347.353 -0.0568162 1.57498 0
M  V30 3598 C 348.263 -1.08346 2.08083 0
M  V30 3599 C 349.279 -1.41439 1.01346 0
M  V30 3600 O 350.455 -1.51316 1.32912 0
M  V30 3601 C 347.52 -2.37352 2.52715 0
M  V30 3602 C 346.581 -2.11093 3.73816 0
M  V30 3603 C 345.814 -3.33949 4.1631 0
M  V30 3604 O 346.037 -4.43622 3.58547 0
M  V30 3605 O 344.971 -3.21279 5.08983 0
M  V30 3606 H 348.797 -0.683667 2.95905 0
M  V30 3607 H 346.382 -0.271965 1.46904 0
M  V30 3608 H 348.264 -3.13246 2.81877 0
M  V30 3609 H 346.939 -2.76681 1.68016 0
M  V30 3610 H 345.846 -1.32856 3.49714 0
M  V30 3611 H 347.179 -1.76637 4.59413 0
M  V30 3612 N 348.832 -1.54138 -0.328536 0
M  V30 3613 C 350.057 -1.76378 -1.09112 0
M  V30 3614 C 350.482 -0.508596 -1.81094 0
M  V30 3615 O 349.84 0.539598 -1.73084 0
M  V30 3616 C 349.888 -2.95358 -2.06872 0
M  V30 3617 O 348.992 -2.66556 -3.14677 0
M  V30 3618 H 348.333 -0.584614 -0.314838 0
M  V30 3619 H 350.863 -2.01146 -0.374348 0
M  V30 3620 H 350.873 -3.22566 -2.4983 0
M  V30 3621 H 349.548 -3.86385 -1.5388 0
M  V30 3622 H 348.125 -2.50282 -2.7643 0
M  V30 3623 N 350.31 0.590341 -1.46126 0
M  V30 3624 C 351.557 1.34882 -1.5104 0
M  V30 3625 C 351.885 1.93849 -0.159021 0
M  V30 3626 O 351.14 1.76544 0.844436 0
M  V30 3627 C 351.439 2.5032 -2.55097 0
M  V30 3628 C 351.105 2.09394 -3.99331 0
M  V30 3629 C 349.767 1.97947 -4.38601 0
M  V30 3630 C 352.119 1.77712 -4.89967 0
M  V30 3631 C 349.447 1.53065 -5.66381 0
M  V30 3632 C 351.799 1.34312 -6.18177 0
M  V30 3633 C 350.463 1.21436 -6.56361 0
M  V30 3634 H 349.733 0.493568 -0.552695 0
M  V30 3635 H 352.38 0.665539 -1.79563 0
M  V30 3636 H 350.685 3.24062 -2.20207 0
M  V30 3637 H 352.382 3.08541 -2.56132 0
M  V30 3638 H 348.972 2.19235 -3.68285 0
M  V30 3639 H 353.156 1.85445 -4.60352 0
M  V30 3640 H 348.412 1.41733 -5.94745 0
M  V30 3641 H 352.586 1.08849 -6.87841 0
M  V30 3642 H 350.213 0.864345 -7.5527 0
M  V30 3643 N 351.788 1.33704 0.83433 0
M  V30 3644 C 353.199 1.22813 1.4062 0
M  V30 3645 C 353.55 -0.151107 1.95617 0
M  V30 3646 O 352.675 -1.05092 1.89168 0
M  V30 3647 C 353.27 2.22355 2.55624 0
M  V30 3648 C 351.829 2.1529 3.08751 0
M  V30 3649 C 350.976 2.09589 1.8157 0
M  V30 3650 H 353.927 1.45236 0.639702 0
M  V30 3651 H 353.948 1.83391 3.33389 0
M  V30 3652 H 353.46 3.22728 2.15566 0
M  V30 3653 H 351.561 1.18235 3.53343 0
M  V30 3654 H 351.674 3.06038 3.68616 0
M  V30 3655 H 350.038 1.55134 2.02004 0
M  V30 3656 H 350.821 3.11777 1.43701 0
M  V30 3657 N 353.266 -1.05314 1.17247 0
M  V30 3658 C 354.229 -2.112 0.890357 0
M  V30 3659 C 355.229 -1.60359 -0.118943 0
M  V30 3660 O 356.419 -1.73833 0.113086 0
M  V30 3661 C 353.551 -3.39266 0.333422 0
M  V30 3662 H 354.744 -2.37659 1.82916 0
M  V30 3663 H 352.297 -1.21538 0.982758 0
M  V30 3664 H 353.032 -3.18462 -0.612587 0
M  V30 3665 H 352.817 -3.77477 1.06082 0
M  V30 3666 H 354.307 -4.17315 0.154322 0
M  V30 3667 N 354.744 -0.972509 -1.24016 0
M  V30 3668 C 355.676 -0.464375 -2.24446 0
M  V30 3669 C 356.689 0.4295 -1.57032 0
M  V30 3670 O 357.878 0.234902 -1.76948 0
M  V30 3671 C 354.978 0.348385 -3.37105 0
M  V30 3672 C 354.151 -0.53673 -4.34094 0
M  V30 3673 C 353.21 0.220838 -5.25736 0
M  V30 3674 O 352.236 -0.386867 -5.67884 0
M  V30 3675 N 353.438 1.50907 -5.60542 0
M  V30 3676 H 356.203 -1.32788 -2.68677 0
M  V30 3677 H 353.764 -0.844877 -1.38107 0
M  V30 3678 H 355.756 0.863341 -3.95384 0
M  V30 3679 H 354.326 1.11285 -2.92121 0
M  V30 3680 H 353.546 -1.23261 -3.74433 0
M  V30 3681 H 354.834 -1.14022 -4.95859 0
M  V30 3682 H 354.232 2.02444 -5.28236 0
M  V30 3683 H 352.789 1.96962 -6.21329 0
M  V30 3684 N 356.222 1.38976 -0.743202 0
M  V30 3685 C 357.468 2.0064 -0.295189 0
M  V30 3686 C 357.801 1.5885 1.11716 0
M  V30 3687 O 357.076 0.821181 1.76315 0
M  V30 3688 C 357.359 3.578 -0.406318 0
M  V30 3689 C 357.212 4.09586 -1.85903 0
M  V30 3690 C 358.531 4.39616 0.206439 0
M  V30 3691 H 355.65 0.728935 -0.108733 0
M  V30 3692 H 358.292 1.65067 -0.940897 0
M  V30 3693 H 356.442 3.88235 0.143419 0
M  V30 3694 H 358.114 3.89837 -2.46627 0
M  V30 3695 H 356.357 3.6284 -2.3776 0
M  V30 3696 H 357.028 5.18708 -1.888 0
M  V30 3697 H 359.504 4.15273 -0.262283 0
M  V30 3698 H 358.38 5.48812 0.0983819 0
M  V30 3699 H 358.641 4.22754 1.2935 0
M  V30 3700 N 357.7 0.491464 1.49741 0
M  V30 3701 C 359.111 0.0413169 1.86654 0
M  V30 3702 C 359.462 -1.36985 1.40462 0
M  V30 3703 O 358.587 -2.01917 0.778354 0
M  V30 3704 C 359.182 0.0682023 3.38731 0
M  V30 3705 C 357.741 -0.32656 3.74981 0
M  V30 3706 C 356.888 0.444888 2.73708 0
M  V30 3707 H 359.839 0.704733 1.42194 0
M  V30 3708 H 359.86 -0.729322 3.73445 0
M  V30 3709 H 359.372 1.09539 3.72321 0
M  V30 3710 H 357.473 -1.35734 3.46997 0
M  V30 3711 H 357.586 -0.013741 4.79098 0
M  V30 3712 H 355.95 -0.104062 2.54487 0
M  V30 3713 H 356.733 1.47197 3.10142 0
M  V30 3714 N 359.178 -1.55987 0.224894 0
M  V30 3715 C 360.403 -2.03232 -0.41369 0
M  V30 3716 C 360.828 -1.10359 -1.52323 0
M  V30 3717 O 360.186 -0.092395 -1.81064 0
M  V30 3718 C 360.234 -3.48682 -0.919405 0
M  V30 3719 O 359.338 -3.58947 -2.03054 0
M  V30 3720 H 358.679 -0.657428 -0.0931903 0
M  V30 3721 H 361.209 -2.01679 0.34451 0
M  V30 3722 H 361.219 -3.8907 -1.22835 0
M  V30 3723 H 359.894 -4.15761 -0.107339 0
M  V30 3724 H 358.471 -3.30448 -1.72796 0
M  V30 3725 N 360.656 0.0484629 -1.57525 0
M  V30 3726 C 361.904 0.741657 -1.88 0
M  V30 3727 C 362.225 1.76918 -0.820054 0
M  V30 3728 O 361.495 1.95335 0.148661 0
M  V30 3729 H 360.075 0.276908 -0.69378 0
M  V30 3730 H 362.737 0.019013 -1.94891 0
M  V30 3731 H 361.833 1.24336 -2.86264 0
M  V30 3732 N 362.134 1.5431 0.320358 0
M  V30 3733 C 363.044 1.86946 1.41734 0
M  V30 3734 C 364.06 0.761689 1.56443 0
M  V30 3735 O 365.236 1.05629 1.71477 0
M  V30 3736 C 362.301 2.09293 2.76401 0
M  V30 3737 C 361.362 3.33082 2.70841 0
M  V30 3738 C 360.595 3.54353 3.99086 0
M  V30 3739 O 360.818 2.79002 4.97508 0
M  V30 3740 O 359.752 4.47838 4.0215 0
M  V30 3741 H 363.578 2.80232 1.17062 0
M  V30 3742 H 361.163 1.40255 0.514673 0
M  V30 3743 H 363.045 2.25303 3.56113 0
M  V30 3744 H 361.72 1.19194 3.00956 0
M  V30 3745 H 360.627 3.22454 1.89668 0
M  V30 3746 H 361.96 4.23249 2.5124 0
M  V30 3747 N 363.613 -0.582584 1.46437 0
M  V30 3748 C 364.89 -1.34276 1.4223 0
M  V30 3749 C 365.27 -2.10835 0.10583 0
M  V30 3750 O 364.618 -2.09485 -0.912596 0
M  V30 3751 C 364.828 -2.26865 2.65204 0
M  V30 3752 C 366.176 -2.88691 3.11356 0
M  V30 3753 O 367.2 -2.37178 2.65753 0
M  V30 3754 O 366.059 -3.82255 3.90568 0
M  V30 3755 H 363.153 -0.603326 0.565621 0
M  V30 3756 H 365.699 -0.603591 1.58603 0
M  V30 3757 H 364.471 -1.69724 3.52576 0
M  V30 3758 H 364.094 -3.08122 2.5129 0
M  V30 3759 N 365.091 -1.34144 -0.827227 0
M  V30 3760 C 366.023 -1.21206 -1.9453 0
M  V30 3761 C 367.036 -0.140176 -1.62195 0
M  V30 3762 O 368.225 -0.391647 -1.7415 0
M  V30 3763 C 365.325 -0.839141 -3.28347 0
M  V30 3764 C 364.498 -2.0051 -3.88734 0
M  V30 3765 C 363.557 -1.61128 -5.00923 0
M  V30 3766 O 362.583 -2.32726 -5.19449 0
M  V30 3767 N 363.785 -0.522958 -5.7814 0
M  V30 3768 H 366.55 -2.17525 -2.06162 0
M  V30 3769 H 364.111 -1.27043 -1.00358 0
M  V30 3770 H 366.103 -0.557556 -4.00841 0
M  V30 3771 H 364.673 0.0337293 -3.12582 0
M  V30 3772 H 363.893 -2.45166 -3.08686 0
M  V30 3773 H 365.181 -2.78498 -4.25812 0
M  V30 3774 H 364.579 0.0723518 -5.65654 0
M  V30 3775 H 363.136 -0.301089 -6.51104 0
M  V30 3776 N 366.569 1.04691 -1.17803 0
M  V30 3777 C 367.797 1.81446 -0.99423 0
M  V30 3778 C 368.212 1.83174 0.457459 0
M  V30 3779 O 367.569 1.26265 1.31771 0
M  V30 3780 C 367.62 3.27334 -1.5341 0
M  V30 3781 O 367.341 3.25798 -2.92895 0
M  V30 3782 C 368.842 4.20759 -1.39559 0
M  V30 3783 H 366.062 0.571599 -0.351447 0
M  V30 3784 H 368.606 1.31982 -1.56208 0
M  V30 3785 H 366.761 3.74052 -1.00815 0
M  V30 3786 H 367.175 4.17144 -3.17949 0
M  V30 3787 H 368.649 5.21084 -1.82141 0
M  V30 3788 H 369.126 4.37856 -0.343394 0
M  V30 3789 H 369.732 3.79901 -1.91195 0
M  V30 3790 N 368.047 0.979072 1.23499 0
M  V30 3791 C 369.01 0.523244 2.23147 0
M  V30 3792 C 370.01 -0.386406 1.56088 0
M  V30 3793 O 371.2 -0.180283 1.73265 0
M  V30 3794 C 368.332 -0.240739 3.40049 0
M  V30 3795 H 369.525 1.40432 2.64989 0
M  V30 3796 H 367.078 0.764824 1.36309 0
M  V30 3797 H 367.813 -1.13841 3.03662 0
M  V30 3798 H 367.598 0.412207 3.89927 0
M  V30 3799 H 369.088 -0.548297 4.13985 0
M  V30 3800 N 369.525 -1.3858 0.750561 0
M  V30 3801 C 370.455 -2.33102 0.136237 0
M  V30 3802 C 371.436 -1.54713 -0.706965 0
M  V30 3803 O 372.621 -1.83043 -0.648769 0
M  V30 3804 C 369.751 -3.38882 -0.760017 0
M  V30 3805 C 368.705 -4.27995 -0.0197785 0
M  V30 3806 C 368.031 -5.24605 -1.03408 0
M  V30 3807 C 369.331 -5.09554 1.14684 0
M  V30 3808 H 371.025 -2.84726 0.925822 0
M  V30 3809 H 368.571 -1.36898 0.446654 0
M  V30 3810 H 370.524 -4.0397 -1.19943 0
M  V30 3811 H 369.248 -2.85734 -1.58189 0
M  V30 3812 H 367.907 -3.64409 0.400184 0
M  V30 3813 H 367.555 -4.67746 -1.84994 0
M  V30 3814 H 367.255 -5.85081 -0.543464 0
M  V30 3815 H 368.779 -5.9257 -1.47288 0
M  V30 3816 H 370.193 -5.67899 0.785118 0
M  V30 3817 H 368.59 -5.7925 1.56812 0
M  V30 3818 H 369.66 -4.4347 1.96118 0
M  V30 3819 N 371.003 -0.499398 -1.49478 0
M  V30 3820 C 372.228 0.044722 -2.07352 0
M  V30 3821 C 372.653 1.30207 -1.35749 0
M  V30 3822 O 372.011 1.76516 -0.413732 0
M  V30 3823 C 372.059 0.283013 -3.59488 0
M  V30 3824 O 371.163 1.35804 -3.89398 0
M  V30 3825 H 370.504 -0.0255147 -0.66351 0
M  V30 3826 H 373.034 -0.698561 -1.92305 0
M  V30 3827 H 373.044 0.515007 -4.04737 0
M  V30 3828 H 371.719 -0.635636 -4.11014 0
M  V30 3829 H 370.296 1.11113 -3.55961 0
M  V30 3830 N 372.481 1.55866 -0.233164 0
M  V30 3831 C 373.411 2.23783 0.666599 0
M  V30 3832 C 374.392 1.21343 1.19205 0
M  V30 3833 O 375.577 1.4996 1.23392 0
M  V30 3834 C 372.707 2.92671 1.86978 0
M  V30 3835 C 371.661 4.01682 1.47768 0
M  V30 3836 C 370.987 4.57926 2.76058 0
M  V30 3837 C 372.287 5.18126 0.658993 0
M  V30 3838 H 373.981 2.99232 0.100306 0
M  V30 3839 H 371.527 1.43924 0.046804 0
M  V30 3840 H 373.48 3.3888 2.50476 0
M  V30 3841 H 372.204 2.14688 2.46123 0
M  V30 3842 H 370.863 3.56222 0.866106 0
M  V30 3843 H 370.511 3.76659 3.33372 0
M  V30 3844 H 370.211 5.31505 2.50552 0
M  V30 3845 H 371.735 5.06859 3.40479 0
M  V30 3846 H 373.149 5.60644 1.19795 0
M  V30 3847 H 371.546 5.98009 0.500552 0
M  V30 3848 H 372.616 4.83763 -0.331856 0
M  V30 3849 N 373.959 -0.0401083 1.57549 0
M  V30 3850 C 374.869 -1.06133 2.0922 0
M  V30 3851 C 375.885 -1.40356 1.0284 0
M  V30 3852 O 377.061 -1.49897 1.34509 0
M  V30 3853 C 374.126 -2.34658 2.55218 0
M  V30 3854 C 373.187 -2.07117 3.76033 0
M  V30 3855 C 372.42 -3.29514 4.19829 0
M  V30 3856 O 372.643 -4.39794 3.63232 0
M  V30 3857 O 371.577 -3.15863 5.12362 0
M  V30 3858 H 375.403 -0.652244 2.96613 0
M  V30 3859 H 372.988 -0.256368 1.47184 0
M  V30 3860 H 374.87 -3.10239 2.85184 0
M  V30 3861 H 373.545 -2.74883 1.70941 0
M  V30 3862 H 372.452 -1.29139 3.51104 0
M  V30 3863 H 373.785 -1.71754 4.61261 0
M  V30 3864 N 375.437 -1.54477 -0.31217 0
M  V30 3865 C 376.347 -1.87695 -1.4074 0
M  V30 3866 C 377.363 -0.769975 -1.56036 0
M  V30 3867 O 378.539 -1.06537 -1.70915 0
M  V30 3868 C 375.604 -2.10755 -2.75287 0
M  V30 3869 C 374.665 -3.34514 -2.69071 0
M  V30 3870 C 373.898 -3.56465 -3.97201 0
M  V30 3871 O 374.121 -2.81637 -4.96021 0
M  V30 3872 O 373.055 -4.49964 -3.9977 0
M  V30 3873 H 376.881 -2.80849 -1.15574 0
M  V30 3874 H 374.466 -1.40526 -0.507228 0
M  V30 3875 H 376.348 -2.27188 -3.54913 0
M  V30 3876 H 375.023 -1.20788 -3.0032 0
M  V30 3877 H 373.93 -3.23456 -1.87955 0
M  V30 3878 H 375.263 -4.24575 -2.48992 0
M  V30 3879 N 376.915 0.57481 -1.46744 0
M  V30 3880 C 378.155 1.34369 -1.54027 0
M  V30 3881 C 378.519 1.91051 -0.190642 0
M  V30 3882 O 379.72 2.68444 -0.138255 0
M  V30 3883 C 377.991 2.43706 -2.61423 0
M  V30 3884 S 379.55 3.30915 -2.88167 0
M  V30 3885 H 376.368 0.45768 -0.544105 0
M  V30 3886 H 378.97 0.659959 -1.84024 0
M  V30 3887 H 377.674 2.0047 -3.58106 0
M  V30 3888 H 377.205 3.16842 -2.33184 0
M  V30 3889 H 379.22 4.42742 -2.24039 0
M  V30 3890 N 378.394 1.34581 0.820102 0
M  V30 3891 C 379.324 1.29038 1.94606 0
M  V30 3892 C 380.305 0.1673 1.69275 0
M  V30 3893 O 381.49 0.360112 1.90832 0
M  V30 3894 C 378.62 1.04793 3.31113 0
M  V30 3895 C 377.574 2.13597 3.70891 0
M  V30 3896 C 376.9 1.74537 5.05412 0
M  V30 3897 C 378.2 3.55451 3.8269 0
M  V30 3898 H 379.894 2.23248 1.99501 0
M  V30 3899 H 377.44 1.0747 0.958449 0
M  V30 3900 H 379.393 0.995592 4.0947 0
M  V30 3901 H 378.117 0.0702565 3.26524 0
M  V30 3902 H 376.776 2.17905 2.9481 0
M  V30 3903 H 376.424 0.754226 4.97313 0
M  V30 3904 H 376.124 2.47361 5.32997 0
M  V30 3905 H 377.648 1.70803 5.86224 0
M  V30 3906 H 379.062 3.5354 4.51312 0
M  V30 3907 H 377.459 4.26922 4.21732 0
M  V30 3908 H 378.529 3.92587 2.84611 0
M  V30 3909 N 379.872 -1.04064 1.18357 0
M  V30 3910 C 381.288 -1.2947 0.933258 0
M  V30 3911 C 381.488 -1.97466 -0.401169 0
M  V30 3912 O 380.544 -2.25528 -1.13549 0
M  V30 3913 C 381.857 -2.15337 2.09882 0
M  V30 3914 C 383.405 -2.28683 2.13712 0
M  V30 3915 C 383.88 -3.17917 3.29686 0
M  V30 3916 N 385.371 -3.25504 3.29547 0
M  V30 3917 C 386.106 -3.94706 4.15926 0
M  V30 3918 N 385.602 -4.66239 5.12439 0
M  V30 3919 N 387.395 -3.90986 4.0384 0
M  V30 3920 H 379.546 -0.583359 2.04232 0
M  V30 3921 H 381.809 -0.319921 0.892387 0
M  V30 3922 H 381.515 -1.72682 3.06389 0
M  V30 3923 H 381.389 -3.16015 2.05947 0
M  V30 3924 H 383.776 -2.70575 1.17784 0
M  V30 3925 H 383.857 -1.27596 2.21705 0
M  V30 3926 H 383.501 -2.76736 4.25887 0
M  V30 3927 H 383.431 -4.19036 3.1893 0
M  V30 3928 H 385.922 -2.74547 2.59677 0
M  V30 3929 H 386.235 -5.16638 5.74722 0
M  V30 3930 H 384.58 -4.65143 5.16398 0
M  V30 3931 H 387.771 -3.34234 3.27727 0
M  V30 3932 H 387.944 -4.44646 4.71375 0
M  V30 3933 N 381.35 -0.985608 -1.22978 0
M  V30 3934 C 382.28 -0.549649 -2.26939 0
M  V30 3935 C 383.261 0.419803 -1.64838 0
M  V30 3936 O 384.446 0.31203 -1.91677 0
M  V30 3937 C 381.576 0.143652 -3.47003 0
M  V30 3938 C 380.53 -0.743606 -4.21491 0
M  V30 3939 C 379.856 0.0822027 -5.34637 0
M  V30 3940 C 381.156 -2.03694 -4.80943 0
M  V30 3941 H 382.85 -1.41862 -2.63658 0
M  V30 3942 H 380.396 -0.683571 -1.26741 0
M  V30 3943 H 382.349 0.459985 -4.18882 0
M  V30 3944 H 381.073 1.04711 -3.09359 0
M  V30 3945 H 379.732 -1.04347 -3.51436 0
M  V30 3946 H 379.38 0.986359 -4.93234 0
M  V30 3947 H 379.08 -0.508377 -5.85397 0
M  V30 3948 H 380.604 0.392797 -6.09335 0
M  V30 3949 H 382.018 -1.78504 -5.44802 0
M  V30 3950 H 380.415 -2.57573 -5.42011 0
M  V30 3951 H 381.485 -2.72042 -4.01399 0
M  V30 3952 N 382.828 1.3818 -0.7579 0
M  V30 3953 C 383.758 2.33027 -0.148597 0
M  V30 3954 C 384.739 1.55085 0.69875 0
M  V30 3955 O 385.924 1.83384 0.639053 0
M  V30 3956 C 383.054 3.3928 0.742034 0
M  V30 3957 C 382.008 4.28 -0.00291946 0
M  V30 3958 C 381.334 5.25146 1.00625 0
M  V30 3959 C 382.634 5.08938 -1.17385 0
M  V30 3960 H 384.328 2.84231 -0.940909 0
M  V30 3961 H 381.874 1.36659 -0.453908 0
M  V30 3962 H 383.827 4.046 1.17799 0
M  V30 3963 H 382.551 2.86569 1.56671 0
M  V30 3964 H 381.21 3.64192 -0.419504 0
M  V30 3965 H 380.858 4.68721 1.8251 0
M  V30 3966 H 380.558 5.85361 0.512428 0
M  V30 3967 H 382.082 5.93342 1.44143 0
M  V30 3968 H 383.496 5.67474 -0.815224 0
M  V30 3969 H 381.893 5.7841 -1.59882 0
M  V30 3970 H 382.963 4.42424 -1.98468 0
M  V30 3971 N 384.306 0.507319 1.49211 0
M  V30 3972 C 385.216 -0.272136 2.33016 0
M  V30 3973 C 386.232 -0.961206 1.45041 0
M  V30 3974 O 387.408 -0.941191 1.78055 0
M  V30 3975 C 384.473 -1.31895 3.20631 0
M  V30 3976 C 383.534 -0.642648 4.24463 0
M  V30 3977 C 382.767 -1.63959 5.07891 0
M  V30 3978 O 382.99 -2.87007 4.92933 0
M  V30 3979 O 381.924 -1.19143 5.8999 0
M  V30 3980 H 385.75 0.413982 3.00865 0
M  V30 3981 H 383.335 0.268556 1.46966 0
M  V30 3982 H 385.217 -1.92446 3.7489 0
M  V30 3983 H 383.892 -1.98788 2.5547 0
M  V30 3984 H 382.799 0.00276252 3.741 0
M  V30 3985 H 384.132 -0.0160534 4.92197 0
M  V30 3986 N 385.784 -1.5574 0.241426 0
M  V30 3987 C 386.747 -2.19877 -0.647063 0
M  V30 3988 C 387.747 -1.16642 -1.10686 0
M  V30 3989 O 388.937 -1.41757 -1.01245 0
M  V30 3990 C 386.069 -2.83797 -1.88871 0
M  V30 3991 H 387.262 -2.99772 -0.087574 0
M  V30 3992 H 384.815 -1.56298 -0.00813574 0
M  V30 3993 H 385.55 -2.07824 -2.48957 0
M  V30 3994 H 385.335 -3.59414 -1.56728 0
M  V30 3995 H 386.825 -3.32898 -2.52129 0
M  V30 3996 N 387.262 0.0317525 -1.57568 0
M  V30 3997 C 388.49 0.734949 -1.93407 0
M  V30 3998 C 388.905 1.69036 -0.84096 0
M  V30 3999 O 388.262 1.81582 0.182836 0
M  V30 4000 C 388.313 1.49432 -3.29169 0
M  V30 4001 O 388.034 0.577261 -4.3428 0
M  V30 4002 C 389.535 2.29492 -3.79273 0
M  V30 4003 H 386.755 0.206706 -0.638368 0
M  V30 4004 H 389.299 -0.00992046 -2.04498 0
M  V30 4005 H 387.454 2.1911 -3.19483 0
M  V30 4006 H 387.868 1.10952 -5.1263 0
M  V30 4007 H 389.342 2.78172 -4.76785 0
M  V30 4008 H 389.819 3.10794 -3.10328 0
M  V30 4009 H 390.425 1.64894 -3.92033 0
M  V30 4010 N 388.74 1.54641 0.303973 0
M  V30 4011 C 389.98 1.75516 1.04755 0
M  V30 4012 C 390.344 0.528211 1.84591 0
M  V30 4013 O 391.545 0.614645 2.61678 0
M  V30 4014 C 389.816 3.00685 1.93193 0
M  V30 4015 S 391.375 3.42549 2.74237 0
M  V30 4016 H 388.193 0.616987 0.353339 0
M  V30 4017 H 390.795 1.92842 0.321292 0
M  V30 4018 H 389.499 3.8811 1.33411 0
M  V30 4019 H 389.03 2.85937 2.70191 0
M  V30 4020 H 391.045 2.99386 3.95705 0
M  V30 4021 N 390.218 -0.567019 1.47046 0
M  V30 4022 C 391.629 -1.14916 1.47143 0
M  V30 4023 C 391.98 -1.94954 0.220767 0
M  V30 4024 O 391.105 -2.05602 -0.67505 0
M  V30 4025 C 391.7 -2.09069 2.666 0
M  V30 4026 C 390.259 -2.62575 2.69687 0
M  V30 4027 C 389.406 -1.38755 2.40088 0
M  V30 4028 H 392.357 -0.354126 1.54699 0
M  V30 4029 H 392.378 -2.92789 2.43011 0
M  V30 4030 H 391.89 -1.50789 3.57609 0
M  V30 4031 H 389.991 -3.24681 1.82792 0
M  V30 4032 H 390.104 -3.04239 3.70102 0
M  V30 4033 H 388.468 -1.69098 1.90468 0
M  V30 4034 H 389.251 -0.822822 3.33293 0
M  V30 4035 N 391.696 -1.35014 -0.812953 0
M  V30 4036 C 392.943 -1.27931 -1.56971 0
M  V30 4037 C 393.271 0.148034 -1.93936 0
M  V30 4038 O 392.526 1.11175 -1.61054 0
M  V30 4039 C 392.825 -2.12524 -2.87347 0
M  V30 4040 C 392.491 -3.61401 -2.6963 0
M  V30 4041 C 391.153 -4.01983 -2.64506 0
M  V30 4042 C 393.505 -4.55894 -2.52607 0
M  V30 4043 C 390.833 -5.35235 -2.40293 0
M  V30 4044 C 393.185 -5.89336 -2.29925 0
M  V30 4045 C 391.849 -6.2907 -2.23219 0
M  V30 4046 H 391.119 -0.468131 -0.574399 0
M  V30 4047 H 393.766 -1.66851 -0.939836 0
M  V30 4048 H 392.071 -1.66463 -3.54679 0
M  V30 4049 H 393.768 -2.04383 -3.45005 0
M  V30 4050 H 390.358 -3.29193 -2.74463 0
M  V30 4051 H 394.542 -4.25431 -2.55583 0
M  V30 4052 H 389.798 -5.65028 -2.33566 0
M  V30 4053 H 393.972 -6.62139 -2.15743 0
M  V30 4054 H 391.599 -7.32256 -2.04219 0
M  V30 4055 N 393.175 1.03435 -1.18907 0
M  V30 4056 C 394.423 1.76394 -0.986382 0
M  V30 4057 C 394.744 1.88883 0.484567 0
M  V30 4058 O 394.014 1.41843 1.3512 0
M  V30 4059 H 392.594 0.65344 -0.361975 0
M  V30 4060 H 395.256 1.248 -1.49703 0
M  V30 4061 H 394.352 2.77424 -1.42978 0
M  V30 4062 N 394.653 0.992116 1.22453 0
M  V30 4063 C 395.563 0.55065 2.28046 0
M  V30 4064 C 396.579 -0.400189 1.69335 0
M  V30 4065 O 397.755 -0.267215 1.99619 0
M  V30 4066 C 394.82 -0.128496 3.46462 0
M  V30 4067 C 393.881 0.865208 4.20491 0
M  V30 4068 C 393.114 0.218377 5.33253 0
M  V30 4069 O 393.337 -0.987894 5.6178 0
M  V30 4070 O 392.271 0.922845 5.94783 0
M  V30 4071 H 396.097 1.4291 2.67975 0
M  V30 4072 H 393.682 0.760326 1.28606 0
M  V30 4073 H 395.564 -0.508947 4.18315 0
M  V30 4074 H 394.239 -0.981526 3.0846 0
M  V30 4075 H 393.146 1.29658 3.50913 0
M  V30 4076 H 394.479 1.68741 4.62371 0
M  V30 4077 N 396.131 -1.37776 0.765217 0
M  V30 4078 C 397.079 -2.32209 0.134798 0
M  V30 4079 C 398.073 -1.54607 -0.692315 0
M  V30 4080 O 399.279 -1.70052 -0.590109 0
M  V30 4081 H 395.654 -0.751591 0.0248005 0
M  V30 4082 H 397.625 -2.8297 0.947119 0
M  V30 4083 C 396.374 -3.39841 -0.735063 0
M  V30 4084 H 395.697 -3.99654 -0.107991 0
M  V30 4085 H 397.137 -4.08296 -1.14326 0
M  V30 4086 C 395.596 -2.79378 -1.88281 0
M  V30 4087 O 396.126 -2.69608 -2.97783 0
M  V30 4088 N 394.332 -2.37016 -1.68142 0
M  V30 4089 H 393.879 -2.45162 -0.790772 0
M  V30 4090 H 393.837 -1.96905 -2.45104 0
M  V30 4091 N 397.609 -0.515225 -1.4894 0
M  V30 4092 C 398.572 0.244681 -2.2789 0
M  V30 4093 C 399.572 0.881166 -1.34507 0
M  V30 4094 O 400.762 0.743497 -1.57537 0
M  V30 4095 C 397.894 1.35247 -3.12923 0
M  V30 4096 H 399.087 -0.448289 -2.96531 0
M  V30 4097 H 396.64 -0.270656 -1.53939 0
M  V30 4098 H 397.375 2.07916 -2.48881 0
M  V30 4099 H 397.16 0.901374 -3.81599 0
M  V30 4100 H 398.65 1.88737 -3.72516 0
M  V30 4101 N 399.087 1.5561 -0.249682 0
M  V30 4102 C 399.997 2.25143 0.659375 0
M  V30 4103 C 401.013 1.2685 1.19101 0
M  V30 4104 O 402.189 1.59732 1.22669 0
M  V30 4105 C 399.254 2.93945 1.8384 0
M  V30 4106 C 398.315 4.07655 1.34596 0
M  V30 4107 C 397.548 4.73167 2.46878 0
M  V30 4108 O 397.771 4.37768 3.65671 0
M  V30 4109 O 396.705 5.61623 2.16478 0
M  V30 4110 H 400.531 3.03545 0.0968698 0
M  V30 4111 H 398.116 1.49389 -0.018074 0
M  V30 4112 H 399.998 3.37271 2.52638 0
M  V30 4113 H 398.673 2.18481 2.38847 0
M  V30 4114 H 397.58 3.68839 0.625174 0
M  V30 4115 H 398.913 4.84946 0.841941 0
M  V30 4116 N 400.565 -0.0233959 1.57583 0
M  V30 4117 C 401.812 -0.713063 1.8953 0
M  V30 4118 C 402.14 -1.75056 0.847673 0
M  V30 4119 O 401.395 -1.95119 -0.150636 0
M  V30 4120 C 401.694 -1.41428 3.28227 0
M  V30 4121 C 401.36 -0.512222 4.47981 0
M  V30 4122 C 400.022 -0.263785 4.80476 0
M  V30 4123 C 402.374 0.110248 5.21083 0
M  V30 4124 C 399.702 0.615804 5.83459 0
M  V30 4125 C 402.054 0.977573 6.25001 0
M  V30 4126 C 400.718 1.23542 6.55968 0
M  V30 4127 H 399.988 -0.260928 0.69354 0
M  V30 4128 H 402.635 0.0271047 1.91481 0
M  V30 4129 H 400.94 -2.22791 3.22291 0
M  V30 4130 H 402.637 -1.95355 3.50196 0
M  V30 4131 H 399.227 -0.716013 4.22577 0
M  V30 4132 H 403.411 -0.0687137 4.96252 0
M  V30 4133 H 398.667 0.82382 6.05824 0
M  V30 4134 H 402.841 1.46638 6.80786 0
M  V30 4135 H 400.468 1.91871 7.35588 0
M  V30 4136 N 402.043 -1.548 -0.295768 0
M  V30 4137 C 403.454 -1.65274 -0.868411 0
M  V30 4138 C 403.805 -0.56481 -1.87894 0
M  V30 4139 O 402.93 0.29767 -2.14343 0
M  V30 4140 C 403.525 -2.99603 -1.58188 0
M  V30 4141 C 402.084 -3.12181 -2.10286 0
M  V30 4142 C 401.231 -2.6098 -0.93727 0
M  V30 4143 H 404.182 -1.58534 -0.0726422 0
M  V30 4144 H 404.203 -2.91319 -2.44772 0
M  V30 4145 H 403.715 -3.78764 -0.846151 0
M  V30 4146 H 401.816 -2.3775 -2.8689 0
M  V30 4147 H 401.929 -4.18415 -2.33379 0
M  V30 4148 H 400.293 -2.17564 -1.32431 0
M  V30 4149 H 401.076 -3.42623 -0.215414 0
M  V30 4150 N 403.521 0.559213 -1.47345 0
M  V30 4151 C 404.484 1.64854 -1.59235 0
M  V30 4152 C 405.484 1.53851 -0.467607 0
M  V30 4153 O 406.674 1.58045 -0.732617 0
M  V30 4154 C 403.806 3.04388 -1.53496 0
M  V30 4155 H 404.999 1.55662 -2.56339 0
M  V30 4156 H 402.552 0.778973 -1.35505 0
M  V30 4157 H 403.287 3.19115 -0.577604 0
M  V30 4158 H 403.072 3.13783 -2.35123 0
M  V30 4159 H 404.562 3.83642 -1.6495 0
M  V30 4160 N 404.999 1.35443 0.805782 0
M  V30 4161 C 406.276 1.19325 1.54987 0
M  V30 4162 C 406.656 -0.227294 2.09873 0
M  V30 4163 O 406.004 -1.2309 1.92512 0
M  V30 4164 C 406.214 2.26196 2.65775 0
M  V30 4165 C 407.562 2.62043 3.34094 0
M  V30 4166 O 408.586 2.25115 2.76046 0
M  V30 4167 O 407.445 3.25542 4.38958 0
M  V30 4168 H 404.539 0.463623 0.684823 0
M  V30 4169 H 407.085 1.47127 0.845674 0
M  V30 4170 H 405.857 3.21471 2.23096 0
M  V30 4171 H 405.48 1.99667 3.43829 0
M  V30 4172 N 406.477 -1.02803 1.19454 0
M  V30 4173 C 407.726 -1.7562 0.991996 0
M  V30 4174 C 408.039 -1.89672 -0.477901 0
M  V30 4175 O 409.245 -2.59468 -0.799287 0
M  V30 4176 C 407.701 -3.15812 1.72601 0
M  V30 4177 C 407.309 -3.0981 3.23607 0
M  V30 4178 C 409.053 -3.92918 1.60674 0
M  V30 4179 C 406.96 -4.44939 3.89594 0
M  V30 4180 H 405.89 -0.658352 0.367543 0
M  V30 4181 H 408.541 -1.15044 1.42959 0
M  V30 4182 H 406.923 -3.7686 1.21624 0
M  V30 4183 H 408.097 -2.58138 3.81709 0
M  V30 4184 H 406.412 -2.46201 3.35819 0
M  V30 4185 H 409.009 -4.9287 2.07323 0
M  V30 4186 H 409.352 -4.12502 0.561025 0
M  V30 4187 H 409.885 -3.38472 2.09001 0
M  V30 4188 H 406.624 -4.30559 4.94267 0
M  V30 4189 H 406.144 -4.96664 3.36281 0
M  V30 4190 H 407.823 -5.1382 3.93189 0
M  V30 4191 N 407.956 -0.998596 -1.21925 0
M  V30 4192 C 409.181 -0.696015 -1.95372 0
M  V30 4193 C 409.606 0.733826 -1.73195 0
M  V30 4194 O 408.964 1.50242 -1.01474 0
M  V30 4195 C 409.012 -1.01466 -3.4603 0
M  V30 4196 O 408.116 -0.116415 -4.12236 0
M  V30 4197 H 407.457 -0.259938 -0.611006 0
M  V30 4198 H 409.987 -1.33711 -1.54863 0
M  V30 4199 H 409.997 -0.958855 -3.96573 0
M  V30 4200 H 408.672 -2.05653 -3.61497 0
M  V30 4201 H 407.249 -0.228193 -3.72201 0
M  V30 4202 N 409.434 1.37368 -0.772513 0
M  V30 4203 C 410.659 2.0447 -0.347386 0
M  V30 4204 C 411.084 1.57882 1.0225 0
M  V30 4205 O 410.442 0.73941 1.65537 0
M  V30 4206 C 410.49 3.58369 -0.400479 0
M  V30 4207 O 409.594 4.0803 0.598789 0
M  V30 4208 H 408.935 0.646773 -0.15027 0
M  V30 4209 H 411.465 1.75667 -1.04892 0
M  V30 4210 H 411.475 4.07183 -0.258045 0
M  V30 4211 H 410.15 3.91633 -1.39986 0
M  V30 4212 H 408.727 3.70534 0.419411 0
M  V30 4213 N 410.912 0.523116 1.48665 0
M  V30 4214 C 412.161 -0.01544 2.01694 0
M  V30 4215 C 412.474 -1.35975 1.40606 0
M  V30 4216 O 413.68 -1.98627 1.85093 0
M  V30 4217 C 412.136 -0.0779303 3.59816 0
M  V30 4218 C 411.744 1.26107 4.29885 0
M  V30 4219 C 413.488 -0.565678 4.20714 0
M  V30 4220 C 411.395 1.15954 5.79921 0
M  V30 4221 H 410.325 -0.00954163 0.75394 0
M  V30 4222 H 412.976 0.665865 1.70993 0
M  V30 4223 H 411.358 -0.824165 3.87329 0
M  V30 4224 H 412.532 2.02233 4.14051 0
M  V30 4225 H 410.847 1.68401 3.80828 0
M  V30 4226 H 413.444 -0.6595 5.30617 0
M  V30 4227 H 413.787 -1.56984 3.85567 0
M  V30 4228 H 414.32 0.12467 3.97605 0
M  V30 4229 H 411.059 2.13864 6.19631 0
M  V30 4230 H 410.579 0.439529 5.98187 0
M  V30 4231 H 412.258 0.847361 6.41427 0
M  V30 4232 N 412.39 -1.55475 0.257931 0
M  V30 4233 C 413.618 -2.03609 -0.367559 0
M  V30 4234 C 414.033 -1.13687 -1.50734 0
M  V30 4235 O 413.39 -0.153479 -1.81853 0
M  V30 4236 C 413.441 -3.51001 -0.864908 0
M  V30 4237 O 413.162 -4.37499 0.229465 0
M  V30 4238 C 414.663 -4.14946 -1.55997 0
M  V30 4239 H 411.883 -0.665459 -0.0860521 0
M  V30 4240 H 414.427 -2.00843 0.385014 0
M  V30 4241 H 412.582 -3.54266 -1.56762 0
M  V30 4242 H 412.996 -5.24286 -0.14998 0
M  V30 4243 H 414.47 -5.19735 -1.85956 0
M  V30 4244 H 414.947 -3.6209 -2.4857 0
M  V30 4245 H 415.553 -4.15635 -0.901543 0
M  V30 4246 N 413.868 0.0150385 -1.57593 0
M  V30 4247 C 414.778 1.02791 -2.10882 0
M  V30 4248 C 415.794 1.38702 -1.0506 0
M  V30 4249 O 416.97 1.47739 -1.36877 0
M  V30 4250 C 414.035 2.30568 -2.58919 0
M  V30 4251 C 413.096 2.01108 -3.79281 0
M  V30 4252 C 412.329 3.22794 -4.25018 0
M  V30 4253 O 412.552 4.33959 -3.70183 0
M  V30 4254 O 411.486 3.07672 -5.17322 0
M  V30 4255 H 415.312 0.604973 -2.97613 0
M  V30 4256 H 412.897 0.23292 -1.47573 0
M  V30 4257 H 414.779 3.05662 -2.90084 0
M  V30 4258 H 413.454 2.72129 -1.75293 0
M  V30 4259 H 412.361 1.23537 -3.53114 0
M  V30 4260 H 413.694 1.64394 -4.63935 0
M  V30 4261 N 415.346 1.54954 0.287554 0
M  V30 4262 C 416.309 1.86076 1.33823 0
M  V30 4263 C 417.309 0.734414 1.43049 0
M  V30 4264 O 418.499 1.00266 1.42452 0
M  V30 4265 C 415.631 2.05305 2.72144 0
M  V30 4266 H 416.824 2.79984 1.07465 0
M  V30 4267 H 414.377 1.47223 0.524902 0
M  V30 4268 H 415.112 1.1373 3.03704 0
M  V30 4269 H 414.897 2.873 2.66836 0
M  V30 4270 H 416.387 2.30706 3.48087 0
M  V30 4271 N 416.824 -0.551391 1.4764 0
M  V30 4272 C 418.07 -1.31024 1.54792 0
M  V30 4273 C 418.403 -1.9304 0.211967 0
M  V30 4274 O 417.678 -1.78175 -0.77999 0
M  V30 4275 C 417.961 -2.41593 2.67029 0
M  V30 4276 C 417.814 -1.84408 4.10261 0
M  V30 4277 C 419.133 -3.43488 2.75143 0
M  V30 4278 H 416.252 -0.475031 0.563485 0
M  V30 4279 H 418.894 -0.616454 1.79722 0
M  V30 4280 H 417.044 -3.00772 2.45904 0
M  V30 4281 H 418.716 -1.29445 4.42766 0
M  V30 4282 H 416.959 -1.15051 4.18265 0
M  V30 4283 H 417.63 -2.64367 4.84576 0
M  V30 4284 H 420.106 -2.94236 2.94218 0
M  V30 4285 H 418.982 -4.18274 3.55441 0
M  V30 4286 H 419.243 -4.02703 1.82435 0
M  V30 4287 N 418.302 -1.35869 -0.798587 0
M  V30 4288 C 419.713 -1.26498 -1.37314 0
M  V30 4289 C 420.064 0.0991899 -1.95949 0
M  V30 4290 O 419.189 1.0004 -1.91888 0
M  V30 4291 C 419.784 -2.29054 -2.49639 0
M  V30 4292 C 418.343 -2.234 -3.02935 0
M  V30 4293 C 417.49 -2.14329 -1.75949 0
M  V30 4294 H 420.441 -1.46881 -0.600971 0
M  V30 4295 H 420.462 -1.92166 -3.28409 0
M  V30 4296 H 419.974 -3.2833 -2.06933 0
M  V30 4297 H 418.075 -1.27562 -3.50084 0
M  V30 4298 H 418.188 -3.15703 -3.60372 0
M  V30 4299 H 416.552 -1.60435 -1.9782 0
M  V30 4300 H 417.335 -3.15477 -1.35384 0
M  V30 4301 N 419.78 1.02168 -1.19998 0
M  V30 4302 C 421.005 1.79833 -1.03319 0
M  V30 4303 C 421.43 1.83504 0.413281 0
M  V30 4304 O 420.788 1.26635 1.29743 0
M  V30 4305 C 420.836 3.22396 -1.61533 0
M  V30 4306 O 419.94 4.03555 -0.849519 0
M  V30 4307 H 419.281 0.554872 -0.364709 0
M  V30 4308 H 421.811 1.28542 -1.59179 0
M  V30 4309 H 421.821 3.73124 -1.65054 0
M  V30 4310 H 420.496 3.19039 -2.66809 0
M  V30 4311 H 419.073 3.62169 -0.888129 0
M  V30 4312 N 421.258 1.00505 1.21394 0
M  V30 4313 C 422.168 0.574806 2.27449 0
M  V30 4314 C 423.184 -0.382206 1.6975 0
M  V30 4315 O 424.36 -0.246027 1.99892 0
M  V30 4316 C 421.425 -0.0917414 3.46579 0
M  V30 4317 C 420.486 0.909758 4.1955 0
M  V30 4318 C 419.719 0.274924 5.32991 0
M  V30 4319 O 419.942 -0.928254 5.62796 0
M  V30 4320 O 418.876 0.985877 5.93771 0
M  V30 4321 H 422.702 1.45744 2.66444 0
M  V30 4322 H 420.287 0.773923 1.27792 0
M  V30 4323 H 422.169 -0.464551 4.18832 0
M  V30 4324 H 420.844 -0.948755 3.09484 0
M  V30 4325 H 419.751 1.33372 3.49518 0
M  V30 4326 H 421.084 1.73636 4.60555 0
M  V30 4327 N 422.737 -1.36956 0.779787 0
M  V30 4328 C 423.962 -2.04283 0.358224 0
M  V30 4329 C 424.387 -1.58422 -1.01411 0
M  V30 4330 O 423.745 -0.748179 -1.65142 0
M  V30 4331 C 423.793 -3.58152 0.419479 0
M  V30 4332 O 422.897 -4.08342 -0.577142 0
M  V30 4333 H 422.238 -0.645967 0.153698 0
M  V30 4334 H 424.768 -1.75108 1.05822 0
M  V30 4335 H 424.778 -4.07041 0.279636 0
M  V30 4336 H 423.453 -3.90886 1.42061 0
M  V30 4337 H 422.03 -3.70751 -0.399755 0
M  V30 4338 N 424.215 -0.530993 -1.48385 0
M  V30 4339 C 425.125 0.23503 -2.3342 0
M  V30 4340 C 426.141 0.93801 -1.46552 0
M  V30 4341 O 427.317 0.912745 -1.7953 0
M  V30 4342 C 424.382 1.26778 -3.22689 0
M  V30 4343 C 423.443 0.575038 -4.25431 0
M  V30 4344 C 422.676 1.55858 -5.10435 0
M  V30 4345 O 422.899 2.79129 -4.97437 0
M  V30 4346 O 421.833 1.09742 -5.91811 0
M  V30 4347 H 425.659 -0.461794 -3.00169 0
M  V30 4348 H 423.244 -0.291903 -1.46521 0
M  V30 4349 H 425.126 1.86457 -3.77904 0
M  V30 4350 H 423.801 1.94699 -2.586 0
M  V30 4351 H 422.708 -0.0622782 -3.74048 0
M  V30 4352 H 424.041 -0.062253 -4.92161 0
M  V30 4353 N 425.693 1.55336 -0.266172 0
M  V30 4354 C 427.104 1.85236 0.233315 0
M  V30 4355 C 427.455 1.18816 1.56132 0
M  V30 4356 O 426.58 0.473307 2.11161 0
M  V30 4357 C 427.175 3.36059 0.430113 0
M  V30 4358 C 425.734 3.66116 0.873842 0
M  V30 4359 C 424.881 2.77274 -0.0380016 0
M  V30 4360 H 427.832 1.51004 -0.488214 0
M  V30 4361 H 427.853 3.58681 1.26998 0
M  V30 4362 H 427.365 3.84373 -0.536588 0
M  V30 4363 H 425.466 3.23295 1.85233 0
M  V30 4364 H 425.579 4.73699 0.717358 0
M  V30 4365 H 423.943 2.50198 0.476759 0
M  V30 4366 H 424.726 3.284 -1.00042 0
M  V30 4367 N 427.171 -0.0066808 1.57599 0
M  V30 4368 C 428.582 -0.550379 1.78403 0
M  V30 4369 C 428.933 -1.74339 0.900014 0
M  V30 4370 O 428.058 -2.16166 0.100713 0
M  V30 4371 C 428.653 -1.00523 3.23544 0
M  V30 4372 C 427.212 -1.49428 3.45468 0
M  V30 4373 C 426.359 -0.442444 2.73748 0
M  V30 4374 H 429.31 0.219508 1.57175 0
M  V30 4375 H 429.331 -1.87157 3.31289 0
M  V30 4376 H 428.843 -0.136735 3.87859 0
M  V30 4377 H 426.944 -2.3839 2.86358 0
M  V30 4378 H 427.057 -1.52635 4.54136 0
M  V30 4379 H 425.421 -0.902578 2.38171 0
M  V30 4380 H 426.204 0.416973 3.40758 0
M  V30 4381 N 428.649 -1.55105 -0.279332 0
M  V30 4382 C 429.612 -1.86783 -1.32834 0
M  V30 4383 C 430.612 -0.74199 -1.42657 0
M  V30 4384 O 431.802 -1.0102 -1.41918 0
M  V30 4385 C 428.934 -2.06746 -2.71052 0
M  V30 4386 H 430.127 -2.8055 -1.05979 0
M  V30 4387 H 427.68 -1.47499 -0.517087 0
M  V30 4388 H 428.415 -1.15339 -3.03097 0
M  V30 4389 H 428.2 -2.88711 -2.65309 0
M  V30 4390 H 429.69 -2.32549 -3.46858 0
M  V30 4391 N 430.127 0.543554 -1.4793 0
M  V30 4392 C 431.057 1.65888 -1.64327 0
M  V30 4393 C 432.038 1.62818 -0.492383 0
M  V30 4394 O 433.223 1.80226 -0.723338 0
M  V30 4395 C 430.353 3.04506 -1.67013 0
M  V30 4396 C 429.307 3.2243 -2.81466 0
M  V30 4397 C 428.633 4.61972 -2.69233 0
M  V30 4398 C 429.933 3.06496 -4.22915 0
M  V30 4399 H 431.627 1.52421 -2.57698 0
M  V30 4400 H 429.173 0.731849 -1.24016 0
M  V30 4401 H 431.126 3.82391 -1.77074 0
M  V30 4402 H 429.85 3.18964 -0.70212 0
M  V30 4403 H 428.509 2.46957 -2.70938 0
M  V30 4404 H 428.157 4.73247 -1.7043 0
M  V30 4405 H 427.857 4.74911 -3.46025 0
M  V30 4406 H 429.381 5.41974 -2.81242 0
M  V30 4407 H 430.795 3.74186 -4.34348 0
M  V30 4408 H 429.192 3.30938 -5.006 0
M  V30 4409 H 430.262 2.03077 -4.40327 0
M  V30 4410 N 431.605 1.3629 0.791371 0
M  V30 4411 C 432.537 1.26321 1.91248 0
M  V30 4412 C 433.55 0.18313 1.61767 0
M  V30 4413 O 434.739 0.437682 1.73051 0
M  V30 4414 C 431.839 0.925901 3.26007 0
M  V30 4415 C 431.012 2.10746 3.83281 0
M  V30 4416 C 430.071 1.74352 4.96475 0
M  V30 4417 O 429.097 2.46416 5.13096 0
M  V30 4418 N 430.299 0.676058 5.7655 0
M  V30 4419 H 433.064 2.22915 2.00323 0
M  V30 4420 H 430.625 1.29659 0.969546 0
M  V30 4421 H 432.617 0.663636 3.99222 0
M  V30 4422 H 431.187 0.0491581 3.12561 0
M  V30 4423 H 430.407 2.53264 3.02077 0
M  V30 4424 H 431.695 2.8969 4.18279 0
M  V30 4425 H 431.093 0.0776467 5.65647 0
M  V30 4426 H 429.65 0.473612 6.50077 0
M  V30 4427 N 433.083 -1.0153 1.20538 0
M  V30 4428 C 434.031 -2.12215 0.952235 0
M  V30 4429 C 435.025 -1.69123 -0.0968735 0
M  V30 4430 O 436.231 -1.7992 0.0536006 0
M  V30 4431 H 432.606 -0.693576 0.290613 0
M  V30 4432 H 434.577 -2.3075 1.89201 0
M  V30 4433 C 433.326 -3.43755 0.522287 0
M  V30 4434 H 432.649 -3.7734 1.32115 0
M  V30 4435 H 434.089 -4.22254 0.384389 0
M  V30 4436 C 432.548 -3.28088 -0.765489 0
M  V30 4437 O 433.078 -3.57921 -1.8236 0
M  V30 4438 N 431.284 -2.81333 -0.728011 0
M  V30 4439 H 430.831 -2.57255 0.133332 0
M  V30 4440 H 430.789 -2.71232 -1.58999 0
M  V30 4441 N 434.561 -1.01147 -1.20859 0
M  V30 4442 C 435.509 -0.57059 -2.25493 0
M  V30 4443 C 436.503 0.388109 -1.64894 0
M  V30 4444 O 437.709 0.258592 -1.78133 0
M  V30 4445 H 434.084 -0.166191 -0.733406 0
M  V30 4446 H 436.055 -1.46411 -2.60012 0
M  V30 4447 C 434.804 0.0805241 -3.47607 0
M  V30 4448 H 434.127 -0.648156 -3.94511 0
M  V30 4449 H 435.567 0.352197 -4.22535 0
M  V30 4450 C 434.026 1.32175 -3.09889 0
M  V30 4451 O 434.556 2.41553 -3.20959 0
M  V30 4452 N 432.762 1.20392 -2.64488 0
M  V30 4453 H 432.309 0.313905 -2.5568 0
M  V30 4454 H 432.267 2.03541 -2.39621 0
M  V30 4455 N 436.039 1.36541 -0.78704 0
M  V30 4456 C 436.969 2.32659 -0.197992 0
M  V30 4457 C 437.95 1.56533 0.665697 0
M  V30 4458 O 439.135 1.84698 0.60001 0
M  V30 4459 C 436.265 3.40778 0.669901 0
M  V30 4460 C 435.219 4.27897 -0.0937039 0
M  V30 4461 C 434.545 5.27163 0.894629 0
M  V30 4462 C 435.845 5.06334 -1.28154 0
M  V30 4463 H 437.539 2.82171 -1.00099 0
M  V30 4464 H 435.085 1.35665 -0.482793 0
M  V30 4465 H 437.038 4.07008 1.09191 0
M  V30 4466 H 435.762 2.89827 1.50558 0
M  V30 4467 H 434.421 3.6322 -0.49666 0
M  V30 4468 H 434.069 4.72486 1.72527 0
M  V30 4469 H 433.769 5.86317 0.388149 0
M  V30 4470 H 435.293 5.96266 1.31525 0
M  V30 4471 H 436.707 5.65617 -0.93541 0
M  V30 4472 H 435.104 5.74888 -1.72115 0
M  V30 4473 H 436.174 4.38114 -2.07807 0
M  V30 4474 N 437.518 0.538854 1.48102 0
M  V30 4475 C 438.448 -0.207654 2.32575 0
M  V30 4476 C 439.429 -0.926559 1.4265 0
M  V30 4477 O 440.614 -0.91061 1.71527 0
M  V30 4478 C 437.744 -1.24957 3.24042 0
M  V30 4479 C 436.698 -0.648263 4.23062 0
M  V30 4480 C 436.024 -1.79348 5.03725 0
M  V30 4481 C 437.324 0.385897 5.20872 0
M  V30 4482 H 439.018 0.497534 2.95237 0
M  V30 4483 H 436.564 0.240715 1.41974 0
M  V30 4484 H 438.517 -1.77983 3.81969 0
M  V30 4485 H 437.241 -1.98446 2.59397 0
M  V30 4486 H 435.9 -0.139452 3.66335 0
M  V30 4487 H 435.548 -2.51696 4.35498 0
M  V30 4488 H 435.248 -1.39702 5.70751 0
M  V30 4489 H 436.772 -2.32735 5.64506 0
M  V30 4490 H 438.186 -0.057607 5.73271 0
M  V30 4491 H 436.583 0.700227 5.96001 0
M  V30 4492 H 437.653 1.28848 4.67468 0
M  V30 4493 N 438.996 -1.55193 0.274407 0
M  V30 4494 C 440.221 -2.04446 -0.348824 0
M  V30 4495 C 440.646 -1.15149 -1.48735 0
M  V30 4496 O 440.004 -0.149952 -1.80679 0
M  V30 4497 C 440.052 -3.51431 -0.808009 0
M  V30 4498 O 439.156 -3.65225 -1.91531 0
M  V30 4499 H 438.497 -0.66006 -0.0722276 0
M  V30 4500 H 441.027 -2.00481 0.408498 0
M  V30 4501 H 441.037 -3.92781 -1.10395 0
M  V30 4502 H 439.712 -4.15892 0.0249865 0
M  V30 4503 H 438.289 -3.35778 -1.62196 0
M  V30 4504 N 440.474 -0.00167713 -1.576 0
M  V30 4505 C 441.885 0.54091 -1.78693 0
M  V30 4506 C 442.236 1.7386 -0.909247 0
M  V30 4507 O 441.361 2.16109 -0.112176 0
M  V30 4508 C 441.956 0.98806 -3.24072 0
M  V30 4509 C 440.515 1.47594 -3.46256 0
M  V30 4510 C 439.662 0.42792 -2.73978 0
M  V30 4511 H 442.613 -0.22784 -1.57056 0
M  V30 4512 H 442.634 1.85398 -3.32277 0
M  V30 4513 H 442.146 0.116164 -3.87926 0
M  V30 4514 H 440.247 2.36868 -2.87618 0
M  V30 4515 H 440.36 1.50225 -4.54939 0
M  V30 4516 H 438.724 0.889934 -2.38647 0
M  V30 4517 H 439.507 -0.435038 -3.40532 0
M  V30 4518 N 441.952 1.55251 0.271103 0
M  V30 4519 C 442.882 1.9127 1.33933 0
M  V30 4520 C 443.863 0.77478 1.5143 0
M  V30 4521 O 445.048 1.03307 1.64442 0
M  V30 4522 C 442.178 2.18627 2.69851 0
M  V30 4523 C 441.132 3.34442 2.67081 0
M  V30 4524 C 440.458 3.47284 4.06569 0
M  V30 4525 C 441.758 4.70784 2.26185 0
M  V30 4526 H 443.452 2.80744 1.04035 0
M  V30 4527 H 440.998 1.35077 0.499017 0
M  V30 4528 H 442.951 2.42413 3.44694 0
M  V30 4529 H 441.675 1.25955 3.01335 0
M  V30 4530 H 440.334 3.10627 1.94695 0
M  V30 4531 H 439.982 2.52074 4.35279 0
M  V30 4532 H 439.682 4.25152 4.0561 0
M  V30 4533 H 441.206 3.73363 4.83148 0
M  V30 4534 H 442.62 4.94102 2.90751 0
M  V30 4535 H 441.017 5.51582 2.36384 0
M  V30 4536 H 442.087 4.69478 1.21319 0
M  V30 4537 N 443.43 -0.535701 1.48216 0
M  V30 4538 C 444.36 -1.65014 1.65204 0
M  V30 4539 C 445.341 -1.62554 0.501011 0
M  V30 4540 O 446.526 -1.7984 0.732886 0
M  V30 4541 C 443.656 -3.03616 1.68626 0
M  V30 4542 C 442.61 -3.20932 2.83172 0
M  V30 4543 C 441.936 -4.60537 2.71679 0
M  V30 4544 C 443.236 -3.04249 4.24535 0
M  V30 4545 H 444.93 -1.51053 2.58502 0
M  V30 4546 H 442.476 -0.725262 1.24402 0
M  V30 4547 H 444.429 -3.81446 1.79099 0
M  V30 4548 H 443.153 -3.18587 0.719026 0
M  V30 4549 H 441.812 -2.45517 2.72244 0
M  V30 4550 H 441.46 -4.72336 1.72937 0
M  V30 4551 H 441.16 -4.73069 3.48538 0
M  V30 4552 H 442.684 -5.40475 2.84112 0
M  V30 4553 H 444.098 -3.71877 4.36326 0
M  V30 4554 H 442.495 -3.28278 5.02348 0
M  V30 4555 H 443.565 -2.00739 4.41397 0
M  V30 4556 N 444.908 -1.36708 -0.784132 0
M  V30 4557 C 446.136 -1.34398 -1.57305 0
M  V30 4558 C 446.551 0.0735577 -1.88657 0
M  V30 4559 O 445.908 1.03193 -1.50524 0
M  V30 4560 C 445.959 -2.17053 -2.89085 0
M  V30 4561 O 445.68 -3.53281 -2.59083 0
M  V30 4562 C 447.181 -2.22583 -3.83369 0
M  V30 4563 H 444.401 -0.460819 -0.487736 0
M  V30 4564 H 446.945 -1.79879 -0.972819 0
M  V30 4565 H 445.1 -1.75113 -3.45564 0
M  V30 4566 H 445.514 -3.9647 -3.43383 0
M  V30 4567 H 446.988 -2.84763 -4.72878 0
M  V30 4568 H 447.465 -1.23075 -4.21603 0
M  V30 4569 H 448.071 -2.64781 -3.32823 0
M  V30 4570 N 446.386 1.0089 -1.21074 0
M  V30 4571 C 447.634 1.74262 -1.02358 0
M  V30 4572 C 447.955 1.89869 0.444393 0
M  V30 4573 O 447.225 1.44677 1.32081 0
M  V30 4574 H 445.805 0.645615 -0.375754 0
M  V30 4575 H 448.467 1.21596 -1.52317 0
M  V30 4576 H 447.563 2.74328 -1.4883 0
M  V30 4577 N 447.864 1.01787 1.20321 0
M  V30 4578 C 449.092 0.727194 1.937 0
M  V30 4579 C 449.507 -0.712305 1.74848 0
M  V30 4580 O 448.864 -1.48327 1.06327 0
M  V30 4581 C 448.915 1.05497 3.45764 0
M  V30 4582 O 448.636 2.43794 3.64 0
M  V30 4583 C 450.137 0.785534 4.36285 0
M  V30 4584 H 447.357 0.266939 0.615617 0
M  V30 4585 H 449.901 1.35939 1.52777 0
M  V30 4586 H 448.056 0.468158 3.84561 0
M  V30 4587 H 448.47 2.55656 4.57974 0
M  V30 4588 H 449.944 1.06495 5.4163 0
M  V30 4589 H 450.421 -0.280273 4.38305 0
M  V30 4590 H 451.027 1.35456 4.03152 0
M  V30 4591 N 449.342 -1.36122 0.79427 0
M  V30 4592 C 450.252 -2.33769 0.197296 0
M  V30 4593 C 451.268 -1.61276 -0.653153 0
M  V30 4594 O 452.444 -1.9323 -0.5678 0
M  V30 4595 C 449.509 -3.40474 -0.654098 0
M  V30 4596 C 448.57 -4.28759 0.215411 0
M  V30 4597 C 447.803 -5.30368 -0.595443 0
M  V30 4598 O 448.026 -5.40211 -1.83107 0
M  V30 4599 O 446.96 -6.019 0.00721351 0
M  V30 4600 H 450.786 -2.86597 1.00478 0
M  V30 4601 H 448.371 -1.38676 0.555818 0
M  V30 4602 H 450.253 -4.05703 -1.13944 0
M  V30 4603 H 448.928 -2.89937 -1.43938 0
M  V30 4604 H 447.835 -3.66554 0.747615 0
M  V30 4605 H 449.168 -4.82661 0.964332 0
M  V30 4606 N 450.82 -0.546701 -1.47814 0
M  V30 4607 C 452.045 -0.021268 -2.07389 0
M  V30 4608 C 452.47 1.25822 -1.39822 0
M  V30 4609 O 451.828 1.75111 -0.46968 0
M  V30 4610 C 451.876 0.168502 -3.60206 0
M  V30 4611 O 450.98 1.23347 -3.93522 0
M  V30 4612 H 450.321 -0.0466108 -0.662362 0
M  V30 4613 H 452.851 -0.759387 -1.89985 0
M  V30 4614 H 452.861 0.385982 -4.0617 0
M  V30 4615 H 451.536 -0.766075 -4.08784 0
M  V30 4616 H 450.113 0.997319 -3.59316 0
M  V30 4617 N 452.299 1.55045 -0.282633 0
M  V30 4618 C 453.71 1.85473 0.213655 0
M  V30 4619 C 454.061 1.20465 1.54863 0
M  V30 4620 O 453.186 0.495676 2.10647 0
M  V30 4621 C 453.781 3.36496 0.394445 0
M  V30 4622 C 452.34 3.67022 0.834961 0
M  V30 4623 C 451.487 2.77218 -0.0674081 0
M  V30 4624 H 454.438 1.50478 -0.504202 0
M  V30 4625 H 454.459 3.60007 1.23186 0
M  V30 4626 H 453.971 3.83782 -0.577326 0
M  V30 4627 H 452.072 3.25241 1.81794 0
M  V30 4628 H 452.185 4.74433 0.667075 0
M  V30 4629 H 450.549 2.5069 0.450196 0
M  V30 4630 H 451.332 3.2732 -1.0352 0
M  V30 4631 N 453.777 0.010035 1.57597 0
M  V30 4632 C 455.024 -0.6727 1.91 0
M  V30 4633 C 455.352 -1.73219 0.884614 0
M  V30 4634 O 454.607 -1.95395 -0.109215 0
M  V30 4635 C 454.906 -1.34434 3.31153 0
M  V30 4636 C 454.572 -0.417083 4.48967 0
M  V30 4637 C 453.234 -0.161809 4.80928 0
M  V30 4638 C 455.586 0.220753 5.20732 0
M  V30 4639 C 452.914 0.739426 5.82022 0
M  V30 4640 C 455.266 1.10993 6.22787 0
M  V30 4641 C 453.93 1.37428 6.532 0
M  V30 4642 H 453.2 -0.246158 0.698918 0
M  V30 4643 H 455.847 0.0677145 1.9138 0
M  V30 4644 H 454.152 -2.15905 3.26944 0
M  V30 4645 H 455.849 -1.87883 3.54261 0
M  V30 4646 H 452.439 -0.626217 4.24001 0
M  V30 4647 H 456.623 0.0365643 4.96287 0
M  V30 4648 H 451.879 0.952139 6.03941 0
M  V30 4649 H 456.053 1.61046 6.77523 0
M  V30 4650 H 453.68 2.0743 7.31353 0
M  V30 4651 N 455.255 -1.55392 -0.262866 0
M  V30 4652 C 456.532 -1.67204 -1.01499 0
M  V30 4653 C 456.912 -0.545186 -2.03939 0
M  V30 4654 O 456.26 0.453467 -2.23955 0
M  V30 4655 C 456.47 -3.06847 -1.6627 0
M  V30 4656 C 457.818 -3.64928 -2.17054 0
M  V30 4657 O 458.842 -3.09545 -1.76239 0
M  V30 4658 O 457.701 -4.61984 -2.91947 0
M  V30 4659 H 454.795 -0.679467 -0.471438 0
M  V30 4660 H 457.341 -1.67729 -0.257918 0
M  V30 4661 H 456.113 -3.80309 -0.920915 0
M  V30 4662 H 455.736 -3.10266 -2.48638 0
M  V30 4663 N 456.733 0.527833 -1.48498 0
M  V30 4664 C 457.663 1.64136 -1.66077 0
M  V30 4665 C 458.644 1.62286 -0.509625 0
M  V30 4666 O 459.829 1.79449 -0.742413 0
M  V30 4667 C 456.959 3.02717 -1.70234 0
M  V30 4668 C 455.913 3.19426 -2.8487 0
M  V30 4669 C 455.239 4.5909 -2.74118 0
M  V30 4670 C 456.539 3.01993 -4.26142 0
M  V30 4671 H 458.233 1.4968 -2.593 0
M  V30 4672 H 455.779 0.718654 -1.24785 0
M  V30 4673 H 457.732 3.80491 -1.8112 0
M  V30 4674 H 456.456 3.18201 -0.735911 0
M  V30 4675 H 455.115 2.4407 -2.73542 0
M  V30 4676 H 454.763 4.71413 -1.7544 0
M  V30 4677 H 454.463 4.71214 -3.51042 0
M  V30 4678 H 455.987 5.3896 -2.86974 0
M  V30 4679 H 457.401 3.69558 -4.38292 0
M  V30 4680 H 455.798 3.2561 -5.04082 0
M  V30 4681 H 456.868 1.98396 -4.42456 0
M  V30 4682 N 458.211 1.37122 0.776871 0
M  V30 4683 C 459.121 1.34651 1.9211 0
M  V30 4684 C 460.137 0.246824 1.7224 0
M  V30 4685 O 461.313 0.48134 1.95563 0
M  V30 4686 C 458.378 1.14748 3.2716 0
M  V30 4687 C 457.439 2.34308 3.5972 0
M  V30 4688 C 456.672 2.15345 4.88326 0
M  V30 4689 O 456.895 1.13507 5.58992 0
M  V30 4690 O 455.829 3.03414 5.1983 0
M  V30 4691 H 459.655 2.31013 1.97146 0
M  V30 4692 H 457.24 1.17799 0.918901 0
M  V30 4693 H 459.122 1.05616 4.0795 0
M  V30 4694 H 457.797 0.214562 3.22988 0
M  V30 4695 H 456.704 2.49011 2.79185 0
M  V30 4696 H 458.037 3.26149 3.68629 0
M  V30 4697 N 459.689 -1.00246 1.21608 0
M  V30 4698 C 460.621 -2.09244 0.935401 0
M  V30 4699 C 461.634 -1.62592 -0.0823594 0
M  V30 4700 O 462.823 -1.77865 0.150456 0
M  V30 4701 C 459.923 -3.36724 0.383453 0
M  V30 4702 C 459.096 -4.1245 1.45615 0
M  V30 4703 C 458.155 -5.18219 0.912991 0
M  V30 4704 O 457.181 -5.46337 1.59701 0
M  V30 4705 N 458.383 -5.7987 -0.270478 0
M  V30 4706 H 461.148 -2.33905 1.87373 0
M  V30 4707 H 458.709 -1.16748 1.12167 0
M  V30 4708 H 460.701 -4.047 0.00562157 0
M  V30 4709 H 459.271 -3.09201 -0.459758 0
M  V30 4710 H 458.491 -3.39241 2.00772 0
M  V30 4711 H 459.779 -4.59819 2.17817 0
M  V30 4712 H 459.177 -5.59381 -0.843195 0
M  V30 4713 H 457.734 -6.49126 -0.589794 0
M  V30 4714 N 461.167 -1.02423 -1.1978 0
M  V30 4715 C 462.099 -0.559152 -2.22275 0
M  V30 4716 C 463.112 0.36251 -1.58713 0
M  V30 4717 O 464.301 0.159641 -1.77785 0
M  V30 4718 C 461.401 0.205094 -3.38279 0
M  V30 4719 C 460.574 -0.720361 -4.31427 0
M  V30 4720 C 459.633 -0.00234368 -5.262 0
M  V30 4721 O 458.659 -0.627378 -5.65732 0
M  V30 4722 N 459.861 1.26996 -5.66438 0
M  V30 4723 H 462.626 -1.44064 -2.62804 0
M  V30 4724 H 460.187 -0.902692 -1.34399 0
M  V30 4725 H 462.179 0.694868 -3.9869 0
M  V30 4726 H 460.749 0.987947 -2.96578 0
M  V30 4727 H 459.969 -1.39031 -3.68869 0
M  V30 4728 H 461.257 -1.3495 -4.90577 0
M  V30 4729 H 460.655 1.79858 -5.36347 0
M  V30 4730 H 459.212 1.70432 -6.29123 0
M  V30 4731 N 462.645 1.35699 -0.801477 0
M  V30 4732 C 463.891 1.99643 -0.389135 0
M  V30 4733 C 464.246 1.62447 1.03095 0
M  V30 4734 O 463.539 0.875064 1.7045 0
M  V30 4735 C 463.733 3.53828 -0.504041 0
M  V30 4736 C 463.562 4.06 -1.93375 0
M  V30 4737 C 462.332 4.35592 -2.561 0
M  V30 4738 C 464.53 4.24905 -2.89759 0
M  V30 4739 N 462.512 4.73663 -3.90534 0
M  V30 4740 C 463.883 4.65914 -4.09052 0
M  V30 4741 C 465.938 4.07101 -2.86658 0
M  V30 4742 C 464.641 4.90984 -5.25669 0
M  V30 4743 C 466.667 4.33324 -4.02472 0
M  V30 4744 C 466.029 4.74601 -5.20512 0
M  V30 4745 H 462.128 0.758552 -0.19006 0
M  V30 4746 H 464.712 1.64493 -1.04164 0
M  V30 4747 H 462.883 3.88219 0.118437 0
M  V30 4748 H 464.615 4.04645 -0.0667794 0
M  V30 4749 H 461.37 4.25728 -2.07492 0
M  V30 4750 H 461.794 4.96965 -4.59734 0
M  V30 4751 H 466.436 3.74335 -1.96552 0
M  V30 4752 H 464.154 5.22626 -6.1635 0
M  V30 4753 H 467.74 4.21107 -4.01447 0
M  V30 4754 H 466.62 4.94497 -6.08639 0
M  V30 4755 N 464.123 0.554532 1.47522 0
M  V30 4756 C 465.055 -0.232106 2.28022 0
M  V30 4757 C 466.068 -0.881865 1.36847 0
M  V30 4758 O 467.257 -0.756168 1.61692 0
M  V30 4759 C 464.357 -1.34604 3.11022 0
M  V30 4760 C 463.53 -0.793582 4.30141 0
M  V30 4761 C 462.589 -1.79168 4.94758 0
M  V30 4762 O 461.615 -1.33886 5.5323 0
M  V30 4763 N 462.817 -3.12495 4.89211 0
M  V30 4764 H 465.582 0.458407 2.96173 0
M  V30 4765 H 463.143 0.390433 1.57122 0
M  V30 4766 H 465.135 -2.01243 3.51118 0
M  V30 4767 H 463.705 -1.93983 2.45131 0
M  V30 4768 H 462.925 0.0495025 3.94169 0
M  V30 4769 H 464.213 -0.403776 5.07195 0
M  V30 4770 H 463.611 -3.51931 4.42901 0
M  V30 4771 H 462.168 -3.74698 5.33333 0
M  V30 4772 N 465.601 -1.54893 0.290851 0
M  V30 4773 C 466.878 -1.91991 -0.373989 0
M  V30 4774 C 467.258 -1.21694 -1.72493 0
M  V30 4775 O 466.606 -0.34917 -2.25816 0
M  V30 4776 C 466.816 -3.45419 -0.498703 0
M  V30 4777 C 468.164 -4.1748 -0.774298 0
M  V30 4778 O 469.188 -3.51398 -0.582908 0
M  V30 4779 O 468.047 -5.3445 -1.14129 0
M  V30 4780 H 465.141 -0.800593 -0.207315 0
M  V30 4781 H 467.687 -1.66297 0.338164 0
M  V30 4782 H 466.459 -3.88688 0.451392 0
M  V30 4783 H 466.082 -3.77117 -1.25972 0
M  V30 4784 N 467.08 -0.0183926 -1.57589 0
M  V30 4785 C 468.01 0.965596 -2.12599 0
M  V30 4786 C 468.991 1.34641 -1.0395 0
M  V30 4787 O 470.176 1.42693 -1.31729 0
M  V30 4788 C 467.306 2.25149 -2.64434 0
M  V30 4789 C 466.26 2.01175 -3.77773 0
M  V30 4790 C 465.586 3.35937 -4.15994 0
M  V30 4791 C 466.886 1.35953 -5.04296 0
M  V30 4792 H 468.58 0.507504 -2.95067 0
M  V30 4793 H 466.126 0.242671 -1.41941 0
M  V30 4794 H 468.079 2.94357 -3.01549 0
M  V30 4795 H 466.803 2.73105 -1.79112 0
M  V30 4796 H 465.462 1.34388 -3.4108 0
M  V30 4797 H 465.11 3.81631 -3.27669 0
M  V30 4798 H 464.81 3.20705 -4.92364 0
M  V30 4799 H 466.334 4.0643 -4.55683 0
M  V30 4800 H 467.748 1.95144 -5.39065 0
M  V30 4801 H 466.145 1.31152 -5.85593 0
M  V30 4802 H 467.215 0.331071 -4.83768 0
M  V30 4803 N 468.558 1.5553 0.254621 0
M  V30 4804 C 469.491 1.84624 1.34124 0
M  V30 4805 C 470.469 0.700693 1.46728 0
M  V30 4806 O 471.653 0.94564 1.63064 0
M  V30 4807 C 468.78 2.02412 2.71564 0
M  V30 4808 C 467.826 3.25028 2.7615 0
M  V30 4809 S 468.659 4.81893 2.33538 0
M  V30 4810 C 469.815 5.02677 3.72917 0
M  V30 4811 H 470.048 2.76501 1.09245 0
M  V30 4812 H 467.581 1.47537 0.455211 0
M  V30 4813 H 469.539 2.13345 3.50705 0
M  V30 4814 H 468.2 1.11391 2.93685 0
M  V30 4815 H 467.393 3.34418 3.77069 0
M  V30 4816 H 466.995 3.12781 2.05046 0
M  V30 4817 H 469.287 4.89546 4.68349 0
M  V30 4818 H 470.23 6.0468 3.68467 0
M  V30 4819 H 470.638 4.30561 3.65072 0
M  V30 4820 N 470.036 -0.519951 1.48776 0
M  V30 4821 C 471.261 -1.30447 1.6124 0
M  V30 4822 C 471.686 -1.86055 0.276591 0
M  V30 4823 O 471.044 -1.64915 -0.753183 0
M  V30 4824 C 471.092 -2.42406 2.66967 0
M  V30 4825 O 470.196 -3.45728 2.24824 0
M  V30 4826 H 469.537 -0.385924 0.540332 0
M  V30 4827 H 472.067 -0.624572 1.94834 0
M  V30 4828 H 472.077 -2.88447 2.88552 0
M  V30 4829 H 470.752 -2.01294 3.63941 0
M  V30 4830 H 469.329 -3.05737 2.13494 0
M  V30 4831 N 471.514 -1.37532 -0.769588 0
M  V30 4832 C 472.763 -1.32183 -1.5235 0
M  V30 4833 C 473.076 0.0906555 -1.9539 0
M  V30 4834 O 474.282 0.266628 -2.70188 0
M  V30 4835 C 472.738 -2.32029 -2.75119 0
M  V30 4836 C 472.346 -3.78816 -2.3917 0
M  V30 4837 C 474.09 -2.35694 -3.53056 0
M  V30 4838 C 471.997 -4.70388 -3.58453 0
M  V30 4839 H 470.927 -0.491275 -0.571984 0
M  V30 4840 H 473.578 -1.63004 -0.842739 0
M  V30 4841 H 471.96 -1.94229 -3.45096 0
M  V30 4842 H 473.134 -4.25466 -1.76962 0
M  V30 4843 H 471.449 -3.78117 -1.74402 0
M  V30 4844 H 474.046 -3.01312 -4.41718 0
M  V30 4845 H 474.389 -1.37117 -3.93071 0
M  V30 4846 H 474.922 -2.72212 -2.90078 0
M  V30 4847 H 471.661 -5.70102 -3.23518 0
M  V30 4848 H 471.181 -4.28442 -4.19758 0
M  V30 4849 H 472.86 -4.87628 -4.25239 0
M  V30 4850 N 472.992 0.995999 -1.22138 0
M  V30 4851 C 473.925 2.08302 -0.931952 0
M  V30 4852 C 474.903 1.62127 0.123956 0
M  V30 4853 O 476.087 1.88499 -0.00696004 0
M  V30 4854 C 473.214 3.36317 -0.401068 0
M  V30 4855 C 472.26 4.01413 -1.44117 0
M  V30 4856 S 473.093 4.42664 -3.01345 0
M  V30 4857 C 474.249 5.73853 -2.49887 0
M  V30 4858 H 474.482 2.32532 -1.85246 0
M  V30 4859 H 472.015 1.13005 -1.0521 0
M  V30 4860 H 473.973 4.10375 -0.101352 0
M  V30 4861 H 472.634 3.10123 0.498272 0
M  V30 4862 H 471.827 4.9358 -1.01952 0
M  V30 4863 H 471.429 3.33668 -1.68943 0
M  V30 4864 H 473.721 6.50039 -1.90934 0
M  V30 4865 H 474.664 6.20841 -3.40532 0
M  V30 4866 H 475.072 5.31105 -1.9128 0
M  V30 4867 N 474.47 1.03057 1.19235 0
M  V30 4868 C 475.38 0.622922 2.26179 0
M  V30 4869 C 476.396 -0.346113 1.70523 0
M  V30 4870 O 477.572 -0.203572 2.00369 0
M  V30 4871 C 474.637 -0.0182063 3.46695 0
M  V30 4872 C 473.698 0.998546 4.17526 0
M  V30 4873 C 472.931 0.387917 5.32288 0
M  V30 4874 O 473.154 -0.808668 5.64639 0
M  V30 4875 O 472.088 1.1116 5.91546 0
M  V30 4876 H 475.914 1.51363 2.63292 0
M  V30 4877 H 473.499 0.800856 1.26122 0
M  V30 4878 H 475.381 -0.375606 4.19723 0
M  V30 4879 H 474.056 -0.882895 3.11427 0
M  V30 4880 H 472.963 1.40756 3.4661 0
M  V30 4881 H 474.296 1.83366 4.56769 0
M  V30 4882 N 475.948 -1.35272 0.808662 0
M  V30 4883 C 476.881 -2.27595 0.165994 0
M  V30 4884 C 477.859 -1.48189 -0.669241 0
M  V30 4885 O 479.043 -1.77444 -0.636073 0
M  V30 4886 C 476.17 -3.29843 -0.769505 0
M  V30 4887 C 475.216 -4.26498 -0.0136267 0
M  V30 4888 S 476.049 -5.18878 1.32384 0
M  V30 4889 C 477.205 -6.24666 0.392838 0
M  V30 4890 H 477.438 -2.81755 0.948756 0
M  V30 4891 H 474.971 -1.42103 0.603828 0
M  V30 4892 H 476.929 -3.89247 -1.30374 0
M  V30 4893 H 475.59 -2.74558 -1.52567 0
M  V30 4894 H 474.783 -4.98769 -0.724227 0
M  V30 4895 H 474.385 -3.71274 0.450713 0
M  V30 4896 H 476.677 -6.7619 -0.4211 0
M  V30 4897 H 477.62 -6.99741 1.0848 0
M  V30 4898 H 478.028 -5.64499 -0.0123908 0
M  V30 4899 N 477.426 -0.562348 -1.47226 0
M  V30 4900 C 478.358 0.220011 -2.28142 0
M  V30 4901 C 479.371 0.874596 -1.37312 0
M  V30 4902 O 480.56 0.747583 -1.62091 0
M  V30 4903 C 477.66 1.32953 -3.11732 0
M  V30 4904 C 476.833 0.770759 -4.30556 0
M  V30 4905 C 475.892 1.76541 -4.95701 0
M  V30 4906 O 474.918 1.3095 -5.53932 0
M  V30 4907 N 476.12 3.09896 -4.90861 0
M  V30 4908 H 478.885 -0.474107 -2.95926 0
M  V30 4909 H 476.446 -0.398761 -1.56912 0
M  V30 4910 H 478.438 1.99378 -3.5218 0
M  V30 4911 H 477.008 1.92681 -2.46156 0
M  V30 4912 H 476.228 -0.0704056 -3.94137 0
M  V30 4913 H 477.516 0.376872 -5.07402 0
M  V30 4914 H 476.914 3.49577 -4.44761 0
M  V30 4915 H 475.471 3.71865 -5.35313 0
M  V30 4916 N 478.904 1.54736 -0.299062 0
M  V30 4917 C 479.867 2.22127 0.565012 0
M  V30 4918 C 480.867 1.20669 1.06281 0
M  V30 4919 O 482.057 1.45417 0.959145 0
M  V30 4920 C 479.189 2.90611 1.78208 0
M  V30 4921 H 480.382 2.99891 -0.0237448 0
M  V30 4922 H 477.935 1.5622 -0.0498788 0
M  V30 4923 H 478.67 2.16921 2.41072 0
M  V30 4924 H 478.455 3.64984 1.43281 0
M  V30 4925 H 479.945 3.42026 2.396 0
M  V30 4926 N 480.382 0.0267497 1.57577 0
M  V30 4927 C 481.315 -0.99059 2.05579 0
M  V30 4928 C 482.293 -1.31884 0.951065 0
M  V30 4929 O 483.477 -1.43592 1.22121 0
M  V30 4930 C 480.604 -2.31125 2.47586 0
M  V30 4931 C 479.65 -2.13777 3.69055 0
M  V30 4932 S 480.483 -1.4388 5.15809 0
M  V30 4933 C 481.639 -2.77321 5.6111 0
M  V30 4934 H 481.872 -0.581976 2.91548 0
M  V30 4935 H 479.405 -0.184876 1.53289 0
M  V30 4936 H 481.363 -3.07049 2.72454 0
M  V30 4937 H 480.024 -2.6912 1.61967 0
M  V30 4938 H 479.217 -3.11405 3.96287 0
M  V30 4939 H 478.819 -1.45996 3.44327 0
M  V30 4940 H 481.111 -3.73565 5.65204 0
M  V30 4941 H 482.054 -2.54756 6.60685 0
M  V30 4942 H 482.462 -2.82459 4.88751 0
M  V30 4943 N 481.861 -1.55662 -0.24637 0
M  V30 4944 C 482.771 -1.93495 -1.32653 0
M  V30 4945 C 483.787 -0.835462 -1.5263 0
M  V30 4946 O 484.963 -1.1369 -1.66242 0
M  V30 4947 C 482.028 -2.22242 -2.66101 0
M  V30 4948 C 481.089 -3.45625 -2.54641 0
M  V30 4949 C 480.322 -3.72991 -3.81724 0
M  V30 4950 O 480.545 -3.02421 -4.8363 0
M  V30 4951 O 479.479 -4.66515 -3.80325 0
M  V30 4952 H 483.305 -2.85498 -1.03559 0
M  V30 4953 H 480.89 -1.42551 -0.44717 0
M  V30 4954 H 482.772 -2.42037 -3.44958 0
M  V30 4955 H 481.447 -1.33417 -2.94926 0
M  V30 4956 H 480.354 -3.31136 -1.74067 0
M  V30 4957 H 481.687 -4.34754 -2.3076 0
M  V30 4958 N 483.339 0.512053 -1.4905 0
M  V30 4959 C 484.585 1.26874 -1.58212 0
M  V30 4960 C 484.918 1.9241 -0.263073 0
M  V30 4961 O 484.193 1.80181 0.732476 0
M  V30 4962 C 484.476 2.34428 -2.73341 0
M  V30 4963 C 484.329 1.73466 -4.15006 0
M  V30 4964 C 485.648 3.36073 -2.84154 0
M  V30 4965 H 482.767 0.459924 -0.575881 0
M  V30 4966 H 485.409 0.568587 -1.81293 0
M  V30 4967 H 483.559 2.94146 -2.53792 0
M  V30 4968 H 485.231 1.17661 -4.46042 0
M  V30 4969 H 483.474 1.03921 -4.21168 0
M  V30 4970 H 484.145 2.51426 -4.91415 0
M  V30 4971 H 486.621 2.86332 -3.01916 0
M  V30 4972 H 485.497 4.08703 -3.66406 0
M  V30 4973 H 485.758 3.97725 -1.93048 0
M  V30 4974 N 484.817 1.37938 0.762283 0
M  V30 4975 C 485.765 1.34569 1.89721 0
M  V30 4976 C 486.759 0.232929 1.67791 0
M  V30 4977 O 487.965 0.401485 1.75465 0
M  V30 4978 H 484.34 0.419594 0.624055 0
M  V30 4979 H 486.311 2.30357 1.8968 0
M  V30 4980 C 485.06 1.17898 3.27101 0
M  V30 4981 H 484.383 2.02781 3.44558 0
M  V30 4982 H 485.823 1.19593 4.06784 0
M  V30 4983 C 484.282 -0.114728 3.36705 0
M  V30 4984 O 484.812 -1.0949 3.8649 0
M  V30 4985 N 483.018 -0.16863 2.9011 0
M  V30 4986 H 482.565 0.62967 2.49786 0
M  V30 4987 H 482.523 -1.03383 2.96916 0
M  V30 4988 N 486.295 -0.989507 1.22664 0
M  V30 4989 C 487.523 -1.76496 1.07967 0
M  V30 4990 C 487.938 -1.85148 -0.369543 0
M  V30 4991 O 487.295 -1.32408 -1.25596 0
M  V30 4992 C 487.346 -3.19642 1.68853 0
M  V30 4993 O 487.067 -3.11453 3.08105 0
M  V30 4994 C 488.568 -4.13621 1.59475 0
M  V30 4995 H 485.788 -0.55418 0.378319 0
M  V30 4996 H 488.332 -1.24378 1.62328 0
M  V30 4997 H 486.487 -3.68816 1.18547 0
M  V30 4998 H 486.901 -4.01499 3.37489 0
M  V30 4999 H 488.375 -5.11801 2.06795 0
M  V30 5000 H 488.852 -4.35718 0.55191 0
M  V30 5001 H 489.458 -3.70346 2.09103 0
M  V30 5002 N 487.773 -1.03688 -1.18687 0
M  V30 5003 C 488.998 -0.757819 -1.93059 0
M  V30 5004 C 489.423 0.678353 -1.75442 0
M  V30 5005 O 488.781 1.46938 -1.06203 0
M  V30 5006 C 488.829 -1.12423 -3.42627 0
M  V30 5007 O 487.933 -0.247505 -4.11657 0
M  V30 5008 H 487.274 -0.279245 -0.602427 0
M  V30 5009 H 489.804 -1.3857 -1.5053 0
M  V30 5010 H 489.814 -1.08454 -3.93322 0
M  V30 5011 H 488.489 -2.17049 -3.54771 0
M  V30 5012 H 487.066 -0.34649 -3.71287 0
M  V30 5013 N 489.251 1.34841 -0.815825 0
M  V30 5014 C 490.214 2.27959 -0.238185 0
M  V30 5015 C 491.214 1.49983 0.579816 0
M  V30 5016 O 492.404 1.69617 0.396953 0
M  V30 5017 C 489.536 3.34314 0.666876 0
M  V30 5018 H 490.729 2.80558 -1.05958 0
M  V30 5019 H 488.282 1.44852 -0.587156 0
M  V30 5020 H 489.017 2.86916 1.5116 0
M  V30 5021 H 488.802 3.92014 0.0819106 0
M  V30 5022 H 490.292 4.0379 1.06506 0
M  V30 5023 N 490.729 0.570148 1.46925 0
M  V30 5024 C 491.954 0.0542592 2.07329 0
M  V30 5025 C 492.379 -1.23582 1.41806 0
M  V30 5026 O 491.737 -1.74341 0.497479 0
M  V30 5027 C 491.785 -0.111175 3.60429 0
M  V30 5028 O 490.889 -1.17071 3.95434 0
M  V30 5029 H 490.23 0.0571425 0.661537 0
M  V30 5030 H 492.76 0.789516 1.88753 0
M  V30 5031 H 492.77 -0.321315 4.06733 0
M  V30 5032 H 491.445 0.831012 4.07513 0
M  V30 5033 H 490.022 -0.940029 3.60857 0
M  V30 5034 N 492.207 -1.54576 0.307264 0
M  V30 5035 C 493.117 -2.27435 -0.57536 0
M  V30 5036 C 494.133 -1.31183 -1.14311 0
M  V30 5037 O 495.309 -1.64175 -1.16656 0
M  V30 5038 C 492.374 -3.00566 -1.72803 0
M  V30 5039 C 491.435 -4.12369 -1.19373 0
M  V30 5040 C 490.668 -4.82003 -2.29147 0
M  V30 5041 O 490.891 -4.51038 -3.49171 0
M  V30 5042 O 489.825 -5.69271 -1.95485 0
M  V30 5043 H 493.651 -3.03696 0.0158558 0
M  V30 5044 H 491.236 -1.49219 0.0735064 0
M  V30 5045 H 493.118 -3.46416 -2.39946 0
M  V30 5046 H 491.793 -2.27195 -2.30574 0
M  V30 5047 H 490.7 -3.70905 -0.487851 0
M  V30 5048 H 492.033 -4.87736 -0.661376 0
M  V30 5049 N 493.685 -0.035106 -1.57561 0
M  V30 5050 C 494.934 0.641604 -1.91223 0
M  V30 5051 C 495.247 1.72944 -0.913761 0
M  V30 5052 O 496.453 2.46321 -1.14185 0
M  V30 5053 C 494.909 1.19249 -3.3957 0
M  V30 5054 C 494.517 0.137616 -4.47789 0
M  V30 5055 C 496.261 1.84537 -3.82291 0
M  V30 5056 C 494.168 0.700478 -5.87237 0
M  V30 5057 H 493.098 0.243417 -0.713627 0
M  V30 5058 H 495.749 -0.101382 -1.8322 0
M  V30 5059 H 494.131 1.98728 -3.42525 0
M  V30 5060 H 495.305 -0.635153 -4.56402 0
M  V30 5061 H 493.62 -0.416855 -4.14308 0
M  V30 5062 H 496.217 2.27616 -4.83834 0
M  V30 5063 H 496.56 2.69054 -3.17672 0
M  V30 5064 H 497.093 1.11739 -3.81784 0
M  V30 5065 H 493.832 -0.106693 -6.55413 0
M  V30 5066 H 493.352 1.4416 -5.82218 0
M  V30 5067 H 495.031 1.18837 -6.35993 0
M  V30 5068 N 495.163 1.55791 0.238111 0
M  V30 5069 C 496.093 1.94068 1.29846 0
M  V30 5070 C 497.074 0.806726 1.49753 0
M  V30 5071 O 498.259 1.06772 1.62214 0
M  V30 5072 C 495.389 2.24302 2.65153 0
M  V30 5073 C 494.343 3.40032 2.59927 0
M  V30 5074 C 493.669 3.55829 3.99111 0
M  V30 5075 C 494.969 4.75476 2.16148 0
M  V30 5076 H 496.663 2.82887 0.980563 0
M  V30 5077 H 494.209 1.36105 0.470253 0
M  V30 5078 H 496.162 2.4967 3.39475 0
M  V30 5079 H 494.886 1.32318 2.98596 0
M  V30 5080 H 493.545 3.14687 1.88063 0
M  V30 5081 H 493.193 2.6125 4.29834 0
M  V30 5082 H 492.893 4.3366 3.96501 0
M  V30 5083 H 494.417 3.83528 4.7512 0
M  V30 5084 H 495.831 5.00158 2.80205 0
M  V30 5085 H 494.228 5.56472 2.24631 0
M  V30 5086 H 495.298 4.71946 1.11333 0
M  V30 5087 N 496.642 -0.504142 1.49319 0
M  V30 5088 C 497.872 -1.28071 1.62116 0
M  V30 5089 C 498.28 -1.86955 0.290566 0
M  V30 5090 O 497.623 -1.68415 -0.733616 0
M  V30 5091 C 497.685 -2.4521 2.62893 0
M  V30 5092 C 497.349 -2.07218 4.0732 0
M  V30 5093 C 498.346 -1.61375 4.94221 0
M  V30 5094 C 496.031 -2.16949 4.53033 0
M  V30 5095 C 498.025 -1.25763 6.2487 0
M  V30 5096 C 495.712 -1.80949 5.83696 0
M  V30 5097 C 496.71 -1.3543 6.69438 0
M  V30 5098 O 496.398 -0.99915 7.97667 0
M  V30 5099 H 496.13 -0.394763 0.54876 0
M  V30 5100 H 498.684 -0.612118 1.96067 0
M  V30 5101 H 496.914 -3.15134 2.24115 0
M  V30 5102 H 498.603 -3.0724 2.65252 0
M  V30 5103 H 499.369 -1.53306 4.60133 0
M  V30 5104 H 495.248 -2.5133 3.86463 0
M  V30 5105 H 498.792 -0.901631 6.91749 0
M  V30 5106 H 494.689 -1.88667 6.17313 0
M  V30 5107 H 495.457 -1.13089 8.1065 0
M  V30 5108 N 498.12 -1.38341 -0.754957 0
M  V30 5109 C 499.345 -1.37882 -1.5493 0
M  V30 5110 C 499.77 0.0296385 -1.88077 0
M  V30 5111 O 499.128 1.01133 -1.50472 0
M  V30 5112 C 499.176 -2.23996 -2.82592 0
M  V30 5113 O 498.28 -1.65612 -3.77686 0
M  V30 5114 H 497.621 -0.470384 -0.468652 0
M  V30 5115 H 500.151 -1.82084 -0.933082 0
M  V30 5116 H 500.161 -2.37806 -3.3153 0
M  V30 5117 H 498.836 -3.26365 -2.57796 0
M  V30 5118 H 497.413 -1.60936 -3.36384 0
M  V30 5119 N 499.598 0.982988 -1.23187 0
M  V30 5120 C 500.561 2.05649 -1.01198 0
M  V30 5121 C 501.561 1.6078 0.0252464 0
M  V30 5122 O 502.751 1.72878 -0.214243 0
M  V30 5123 C 499.883 3.36744 -0.530656 0
M  V30 5124 H 501.076 2.2659 -1.96461 0
M  V30 5125 H 498.629 1.15602 -1.05195 0
M  V30 5126 H 499.364 3.21492 0.425873 0
M  V30 5127 H 499.149 3.7065 -1.2791 0
M  V30 5128 H 500.639 4.15705 -0.397366 0
M  V30 5129 N 501.076 1.04316 1.18135 0
M  V30 5130 C 502.487 0.775505 1.69832 0
M  V30 5131 C 502.838 -0.703348 1.8316 0
M  V30 5132 O 501.963 -1.54729 1.51287 0
M  V30 5133 C 502.558 1.40112 3.0847 0
M  V30 5134 C 501.117 1.18172 3.57368 0
M  V30 5135 C 500.264 1.49022 2.33854 0
M  V30 5136 H 503.215 1.20925 1.02775 0
M  V30 5137 H 503.236 0.805672 3.71873 0
M  V30 5138 H 502.748 2.47744 2.98738 0
M  V30 5139 H 500.849 0.124258 3.72393 0
M  V30 5140 H 500.962 1.8805 4.40652 0
M  V30 5141 H 499.326 0.909995 2.37889 0
M  V30 5142 H 500.109 2.57768 2.26738 0
M  V30 5143 N 502.554 -1.34406 0.822964 0
M  V30 5144 C 503.965 -1.8069 0.469879 0
M  V30 5145 C 504.316 -1.68223 -1.00972 0
M  V30 5146 O 503.441 -1.22226 -1.78577 0
M  V30 5147 C 504.036 -3.28064 0.846118 0
M  V30 5148 C 502.595 -3.72428 0.545402 0
M  V30 5149 C 501.742 -2.56116 1.06301 0
M  V30 5150 H 504.693 -1.22153 1.01313 0
M  V30 5151 H 504.714 -3.80205 0.149922 0
M  V30 5152 H 504.226 -3.37107 1.92304 0
M  V30 5153 H 502.327 -3.68924 -0.522109 0
M  V30 5154 H 502.44 -4.66548 1.0895 0
M  V30 5155 H 500.804 -2.50048 0.484554 0
M  V30 5156 H 501.587 -2.67928 2.14638 0
M  V30 5157 N 504.032 -0.577932 -1.46621 0
M  V30 5158 C 505.28 -0.061566 -2.02006 0
M  V30 5159 C 505.601 1.30117 -1.4524 0
M  V30 5160 O 504.871 1.85313 -0.63529 0
M  V30 5161 H 503.451 -0.0197692 -0.746738 0
M  V30 5162 H 506.113 -0.752631 -1.79782 0
M  V30 5163 H 505.209 0.0110238 -3.12098 0
M  V30 5164 N 505.51 1.54411 -0.315457 0
M  V30 5165 C 506.787 1.92562 0.343398 0
M  V30 5166 C 507.167 1.24423 1.70535 0
M  V30 5167 O 506.515 0.385051 2.25232 0
M  V30 5168 C 506.725 3.46168 0.443687 0
M  V30 5169 C 508.073 4.18659 0.707783 0
M  V30 5170 O 509.097 3.52281 0.52693 0
M  V30 5171 O 507.956 5.36198 1.05612 0
M  V30 5172 H 505.05 0.80379 0.194552 0
M  V30 5173 H 507.596 1.65738 -0.364577 0
M  V30 5174 H 506.368 3.8792 -0.513172 0
M  V30 5175 H 505.991 3.79073 1.19956 0
M  V30 5176 N 506.988 0.0434614 1.5754 0
M  V30 5177 C 508.399 -0.493343 1.80064 0
M  V30 5178 C 508.75 -1.71388 0.955023 0
M  V30 5179 O 507.875 -2.15736 0.169434 0
M  V30 5180 C 508.47 -0.90179 3.26578 0
M  V30 5181 C 507.029 -1.38362 3.50047 0
M  V30 5182 C 506.176 -0.355129 2.75017 0
M  V30 5183 H 509.127 0.2694 1.56397 0
M  V30 5184 H 509.148 -1.76523 3.37075 0
M  V30 5185 H 508.66 -0.013271 3.88098 0
M  V30 5186 H 506.761 -2.29159 2.93798 0
M  V30 5187 H 506.874 -1.3811 4.58762 0
M  V30 5188 H 505.238 -0.826348 2.40922 0
M  V30 5189 H 506.021 0.525172 3.39259 0
M  V30 5190 N 508.466 -1.55915 -0.229846 0
M  V30 5191 C 509.396 -1.94754 -1.28815 0
M  V30 5192 C 510.377 -0.814657 -1.49323 0
M  V30 5193 O 511.562 -1.07631 -1.61645 0
M  V30 5194 C 508.692 -2.25705 -2.63959 0
M  V30 5195 C 507.646 -3.41406 -2.5812 0
M  V30 5196 C 506.972 -3.57941 -3.97218 0
M  V30 5197 C 508.272 -4.76616 -2.13623 0
M  V30 5198 H 509.966 -2.83404 -0.965547 0
M  V30 5199 H 507.512 -1.36353 -0.463028 0
M  V30 5200 H 509.465 -2.51467 -3.38146 0
M  V30 5201 H 508.189 -1.339 -2.9789 0
M  V30 5202 H 506.848 -3.1568 -1.86391 0
M  V30 5203 H 506.496 -2.63526 -4.28443 0
M  V30 5204 H 506.196 -4.35757 -3.94195 0
M  V30 5205 H 507.72 -3.86042 -4.73079 0
M  V30 5206 H 509.134 -5.01637 -2.77549 0
M  V30 5207 H 507.531 -5.57655 -2.21677 0
M  V30 5208 H 508.601 -4.7253 -1.08829 0
M  V30 5209 N 509.944 0.496216 -1.49584 0
M  V30 5210 C 511.169 1.27865 -1.63295 0
M  V30 5211 C 511.594 1.85592 -0.306156 0
M  V30 5212 O 510.952 1.66092 0.726851 0
M  V30 5213 C 511 2.38128 -2.7079 0
M  V30 5214 O 510.104 3.42108 -2.30296 0
M  V30 5215 H 509.445 0.377279 -0.546403 0
M  V30 5216 H 511.975 0.593497 -1.95803 0
M  V30 5217 H 511.985 2.8382 -2.93104 0
M  V30 5218 H 510.66 1.95479 -3.67098 0
M  V30 5219 H 509.237 3.02301 -2.18331 0
M  V30 5220 N 511.423 1.38739 0.74761 0
M  V30 5221 C 512.651 1.38521 1.53686 0
M  V30 5222 C 513.066 -0.0235129 1.88785 0
M  V30 5223 O 512.423 -0.991662 1.53207 0
M  V30 5224 C 512.474 2.24641 2.83229 0
M  V30 5225 O 512.195 3.60026 2.49625 0
M  V30 5226 C 513.696 2.32669 3.77333 0
M  V30 5227 H 510.916 0.473589 0.475347 0
M  V30 5228 H 513.46 1.82395 0.924786 0
M  V30 5229 H 511.615 1.84213 3.40799 0
M  V30 5230 H 512.029 4.05435 3.3275 0
M  V30 5231 H 513.503 2.97201 4.65162 0
M  V30 5232 H 513.98 1.3421 4.18192 0
M  V30 5233 H 514.586 2.73512 3.25685 0
M  V30 5234 N 512.901 -0.976442 1.23707 0
M  V30 5235 C 513.849 -2.09078 1.01927 0
M  V30 5236 C 514.843 -1.69345 -0.0430193 0
M  V30 5237 O 516.049 -1.79659 0.110814 0
M  V30 5238 H 512.424 -0.68398 0.312531 0
M  V30 5239 H 514.395 -2.24614 1.96447 0
M  V30 5240 C 513.144 -3.41919 0.631385 0
M  V30 5241 H 512.467 -3.72946 1.44053 0
M  V30 5242 H 513.907 -4.20817 0.518532 0
M  V30 5243 C 512.366 -3.30357 -0.660723 0
M  V30 5244 O 512.896 -3.63542 -1.70881 0
M  V30 5245 N 511.102 -2.83507 -0.638139 0
M  V30 5246 H 510.649 -2.567 0.215108 0
M  V30 5247 H 510.607 -2.76153 -1.50289 0
M  V30 5248 N 514.379 -1.04941 -1.1758 0
M  V30 5249 C 515.609 -0.777166 -1.91425 0
M  V30 5250 C 516.017 0.670647 -1.76915 0
M  V30 5251 O 515.36 1.46965 -1.10213 0
M  V30 5252 C 515.422 -1.07495 -3.43052 0
M  V30 5253 C 515.086 -2.51844 -3.81345 0
M  V30 5254 C 516.083 -3.50047 -3.844 0
M  V30 5255 C 513.768 -2.86787 -4.12382 0
M  V30 5256 C 515.762 -4.81239 -4.17957 0
M  V30 5257 C 513.449 -4.18182 -4.45608 0
M  V30 5258 C 514.447 -5.15219 -4.48373 0
M  V30 5259 O 514.135 -6.44258 -4.80819 0
M  V30 5260 H 513.867 -0.282209 -0.614275 0
M  V30 5261 H 516.421 -1.40258 -1.50056 0
M  V30 5262 H 514.651 -0.392437 -3.84704 0
M  V30 5263 H 516.34 -0.78912 -3.98155 0
M  V30 5264 H 517.106 -3.24391 -3.60548 0
M  V30 5265 H 512.985 -2.11922 -4.09402 0
M  V30 5266 H 516.529 -5.56974 -4.2003 0
M  V30 5267 H 512.426 -4.43602 -4.68922 0
M  V30 5268 H 513.194 -6.49041 -4.98686 0
M  V30 5269 N 515.857 1.33968 -0.830081 0
M  V30 5270 C 517.082 2.02813 -0.433796 0
M  V30 5271 C 517.507 1.62076 0.954614 0
M  V30 5272 O 516.865 0.808955 1.62252 0
M  V30 5273 C 516.913 3.56348 -0.552115 0
M  V30 5274 O 516.017 4.10202 0.425191 0
M  V30 5275 H 515.358 0.639817 -0.177567 0
M  V30 5276 H 517.888 1.7106 -1.12248 0
M  V30 5277 H 517.898 4.05722 -0.430513 0
M  V30 5278 H 516.573 3.85344 -1.56471 0
M  V30 5279 H 515.15 3.71979 0.261878 0
M  V30 5280 N 517.335 0.585699 1.46312 0
M  V30 5281 C 518.265 -0.133556 2.33118 0
M  V30 5282 C 519.246 -0.880707 1.45525 0
M  V30 5283 O 520.431 -0.855579 1.74337 0
M  V30 5284 C 517.561 -1.14585 3.27853 0
M  V30 5285 C 516.515 -0.513341 4.2491 0
M  V30 5286 C 515.841 -1.63231 5.09175 0
M  V30 5287 C 517.141 0.551413 5.19381 0
M  V30 5288 H 518.835 0.59121 2.93505 0
M  V30 5289 H 516.381 0.285761 1.41136 0
M  V30 5290 H 518.334 -1.65741 3.87438 0
M  V30 5291 H 517.058 -1.90093 2.65579 0
M  V30 5292 H 515.717 -0.0228349 3.66593 0
M  V30 5293 H 515.365 -2.37713 4.43285 0
M  V30 5294 H 515.065 -1.21473 5.74907 0
M  V30 5295 H 516.589 -2.14658 5.71624 0
M  V30 5296 H 518.003 0.124804 5.73164 0
M  V30 5297 H 516.4 0.889486 5.93471 0
M  V30 5298 H 517.47 1.43655 4.63132 0
M  V30 5299 N 518.813 -1.54241 0.323641 0
M  V30 5300 C 519.776 -2.22997 -0.529602 0
M  V30 5301 C 520.776 -1.22345 -1.04347 0
M  V30 5302 O 521.966 -1.46924 -0.935889 0
M  V30 5303 C 519.098 -2.93409 -1.73562 0
M  V30 5304 H 520.291 -2.99815 0.0714518 0
M  V30 5305 H 517.844 -1.56121 0.0747258 0
M  V30 5306 H 518.579 -2.20729 -2.37591 0
M  V30 5307 H 518.364 -3.67217 -1.37456 0
M  V30 5308 H 519.854 -3.45794 -2.34128 0
M  V30 5309 N 520.291 -0.0518155 -1.57515 0
M  V30 5310 C 521.702 0.483787 -1.80323 0
M  V30 5311 C 522.053 1.70879 -0.964099 0
M  V30 5312 O 521.178 2.15643 -0.180872 0
M  V30 5313 C 521.773 0.884459 -3.27052 0
M  V30 5314 C 520.332 1.36504 -3.50776 0
M  V30 5315 C 519.479 0.340539 -2.75201 0
M  V30 5316 H 522.43 -0.277691 -1.56252 0
M  V30 5317 H 522.451 1.74733 -3.38007 0
M  V30 5318 H 521.963 -0.00731093 -3.88099 0
M  V30 5319 H 520.064 2.27598 -2.95009 0
M  V30 5320 H 520.177 1.35675 -4.59488 0
M  V30 5321 H 518.541 0.81356 -2.41357 0
M  V30 5322 H 519.324 -0.543156 -3.38976 0
M  V30 5323 N 521.769 1.56035 0.221574 0
M  V30 5324 C 522.717 1.93269 1.29421 0
M  V30 5325 C 523.711 0.814727 1.48521 0
M  V30 5326 O 524.917 0.999559 1.49696 0
M  V30 5327 H 521.292 0.614188 0.43391 0
M  V30 5328 H 523.263 2.82773 0.952987 0
M  V30 5329 C 522.012 2.26573 2.63742 0
M  V30 5330 H 521.335 3.12112 2.49853 0
M  V30 5331 H 522.775 2.5651 3.37607 0
M  V30 5332 C 521.234 1.09086 3.1875 0
M  V30 5333 O 521.764 0.351985 4.00155 0
M  V30 5334 N 519.97 0.874693 2.77124 0
M  V30 5335 H 519.517 1.47726 2.11033 0
M  V30 5336 H 519.475 0.0903349 3.1427 0
M  V30 5337 N 523.247 -0.488276 1.49845 0
M  V30 5338 C 524.475 -1.26527 1.63702 0
M  V30 5339 C 524.89 -1.8618 0.313447 0
M  V30 5340 O 524.247 -1.68432 -0.702624 0
M  V30 5341 C 524.298 -2.3864 2.71538 0
M  V30 5342 O 524.019 -1.81437 3.98763 0
M  V30 5343 C 525.52 -3.29805 2.96215 0
M  V30 5344 H 522.74 -0.383295 0.55075 0
M  V30 5345 H 525.284 -0.584779 1.95961 0
M  V30 5346 H 523.439 -3.02496 2.42023 0
M  V30 5347 H 523.853 -2.55135 4.58265 0
M  V30 5348 H 525.327 -4.04722 3.75372 0
M  V30 5349 H 525.804 -3.87563 2.06619 0
M  V30 5350 H 526.41 -2.71703 3.27196 0
M  V30 5351 N 524.725 -1.39134 -0.740242 0
M  V30 5352 C 526.136 -1.32208 -1.31825 0
M  V30 5353 C 526.487 0.0159919 -1.96193 0
M  V30 5354 O 525.612 0.918111 -1.95958 0
M  V30 5355 C 526.207 -2.39436 -2.39699 0
M  V30 5356 C 524.766 -2.36048 -2.93187 0
M  V30 5357 C 523.913 -2.21599 -1.66701 0
M  V30 5358 H 526.864 -1.49298 -0.538133 0
M  V30 5359 H 526.885 -2.05922 -3.19963 0
M  V30 5360 H 526.397 -3.36811 -1.92821 0
M  V30 5361 H 524.498 -1.42295 -3.44359 0
M  V30 5362 H 524.611 -3.30704 -3.46658 0
M  V30 5363 H 522.975 -1.68681 -1.90837 0
M  V30 5364 H 523.758 -3.20936 -1.21882 0
M  V30 5365 N 526.204 0.969867 -1.24223 0
M  V30 5366 C 527.453 1.70687 -1.07466 0
M  V30 5367 C 527.766 1.91736 0.386861 0
M  V30 5368 O 528.972 2.62986 0.674581 0
M  V30 5369 C 527.428 3.07217 -1.87472 0
M  V30 5370 C 527.036 2.94018 -3.3802 0
M  V30 5371 C 528.78 3.84804 -1.79237 0
M  V30 5372 C 526.687 4.25844 -4.10379 0
M  V30 5373 H 525.617 0.640067 -0.398536 0
M  V30 5374 H 528.268 1.08092 -1.48285 0
M  V30 5375 H 526.65 3.70628 -1.39466 0
M  V30 5376 H 527.824 2.39632 -3.9359 0
M  V30 5377 H 526.139 2.29898 -3.47183 0
M  V30 5378 H 528.736 4.82417 -2.30603 0
M  V30 5379 H 529.079 4.09356 -0.757197 0
M  V30 5380 H 529.612 3.28115 -2.24912 0
M  V30 5381 H 526.351 4.06486 -5.14246 0
M  V30 5382 H 525.871 4.80054 -3.59594 0
M  V30 5383 H 527.55 4.94475 -4.17257 0
M  V30 5384 N 527.682 1.05563 1.17022 0
M  V30 5385 C 528.63 0.653887 2.2322 0
M  V30 5386 C 529.624 -0.326642 1.66221 0
M  V30 5387 O 530.83 -0.192301 1.7897 0
M  V30 5388 H 527.205 0.193297 0.726733 0
M  V30 5389 H 529.176 1.5596 2.54399 0
M  V30 5390 C 527.925 0.0485434 3.47666 0
M  V30 5391 H 527.248 0.79413 3.91834 0
M  V30 5392 H 528.688 -0.195133 4.23551 0
M  V30 5393 C 527.147 -1.20583 3.14581 0
M  V30 5394 O 527.677 -2.29475 3.29703 0
M  V30 5395 N 525.883 -1.10493 2.68774 0
M  V30 5396 H 525.43 -0.218795 2.56669 0
M  V30 5397 H 525.388 -1.94507 2.47011 0
M  V30 5398 N 529.16 -1.33526 0.837174 0
M  V30 5399 C 530.092 -2.28077 0.226579 0
M  V30 5400 C 531.105 -1.51666 -0.591717 0
M  V30 5401 O 532.294 -1.73511 -0.419064 0
M  V30 5402 C 529.394 -3.31597 -0.69978 0
M  V30 5403 C 528.567 -4.37329 0.0788067 0
M  V30 5404 C 527.626 -5.20526 -0.770637 0
M  V30 5405 O 526.652 -5.68811 -0.210453 0
M  V30 5406 N 527.854 -5.41639 -2.08825 0
M  V30 5407 H 530.619 -2.81115 1.03897 0
M  V30 5408 H 528.18 -1.46201 0.695476 0
M  V30 5409 H 530.172 -3.84158 -1.27298 0
M  V30 5410 H 528.742 -2.78848 -1.41288 0
M  V30 5411 H 527.962 -3.8529 0.833381 0
M  V30 5412 H 529.25 -5.05079 0.614238 0
M  V30 5413 H 528.648 -5.04108 -2.56693 0
M  V30 5414 H 527.205 -5.97263 -2.60998 0
M  V30 5415 N 530.638 -0.59345 -1.46 0
M  V30 5416 C 531.586 0.146268 -2.3214 0
M  V30 5417 C 532.58 0.873743 -1.45128 0
M  V30 5418 O 533.786 0.790912 -1.61693 0
M  V30 5419 H 530.161 0.0660349 -0.749095 0
M  V30 5420 H 532.132 -0.598895 -2.92328 0
M  V30 5421 C 530.881 1.1396 -3.28494 0
M  V30 5422 H 530.204 0.589252 -3.95434 0
M  V30 5423 H 531.644 1.62738 -3.91526 0
M  V30 5424 C 530.103 2.20604 -2.54628 0
M  V30 5425 O 530.633 3.28128 -2.31722 0
M  V30 5426 N 528.839 1.95502 -2.15005 0
M  V30 5427 H 528.386 1.0807 -2.33834 0
M  V30 5428 H 528.344 2.67064 -1.65904 0
M  V30 5429 N 532.116 1.54067 -0.331816 0
M  V30 5430 C 533.362 2.01012 0.268667 0
M  V30 5431 C 533.695 1.2195 1.51136 0
M  V30 5432 O 532.97 0.303972 1.9211 0
M  V30 5433 C 533.253 3.55158 0.59456 0
M  V30 5434 C 533.106 4.4494 -0.659409 0
M  V30 5435 C 534.425 4.16939 1.4089 0
M  V30 5436 H 531.544 0.730698 0.0961756 0
M  V30 5437 H 534.186 1.84593 -0.450031 0
M  V30 5438 H 532.336 3.6928 1.20685 0
M  V30 5439 H 534.008 4.42675 -1.29756 0
M  V30 5440 H 532.251 4.1428 -1.28665 0
M  V30 5441 H 532.922 5.50643 -0.386804 0
M  V30 5442 H 535.398 4.06443 0.891272 0
M  V30 5443 H 534.274 5.24889 1.60569 0
M  V30 5444 H 534.535 3.70798 2.40752 0
M  V30 5445 N 533.594 0.0601682 1.57485 0
M  V30 5446 C 534.819 -0.624416 1.97777 0
M  V30 5447 C 535.244 -1.63051 0.937867 0
M  V30 5448 O 534.602 -1.81036 -0.0978845 0
M  V30 5449 C 534.65 -1.27979 3.37126 0
M  V30 5450 O 533.754 -2.39556 3.35688 0
M  V30 5451 H 533.095 -0.161581 0.64404 0
M  V30 5452 H 535.625 0.131237 2.04179 0
M  V30 5453 H 535.635 -1.62937 3.74053 0
M  V30 5454 H 534.31 -0.542501 4.12347 0
M  V30 5455 H 532.887 -2.06478 3.10517 0
M  V30 5456 N 535.072 -1.5615 -0.213296 0
M  V30 5457 C 536.002 -1.96109 -1.26742 0
M  V30 5458 C 536.983 -0.830448 -1.48451 0
M  V30 5459 O 538.168 -1.09339 -1.60495 0
M  V30 5460 C 535.298 -2.28492 -2.61551 0
M  V30 5461 C 534.252 -3.44124 -2.54485 0
M  V30 5462 C 533.578 -3.62134 -3.93399 0
M  V30 5463 C 534.878 -4.78855 -2.08556 0
M  V30 5464 H 536.572 -2.84412 -0.935434 0
M  V30 5465 H 534.118 -1.36836 -0.44854 0
M  V30 5466 H 536.071 -2.55039 -3.3546 0
M  V30 5467 H 534.795 -1.37052 -2.96453 0
M  V30 5468 H 533.454 -3.17639 -1.83033 0
M  V30 5469 H 533.102 -2.68055 -4.25623 0
M  V30 5470 H 532.802 -4.39913 -3.89551 0
M  V30 5471 H 534.326 -3.91038 -4.68958 0
M  V30 5472 H 535.74 -5.04552 -2.72213 0
M  V30 5473 H 534.137 -5.59975 -2.1575 0
M  V30 5474 H 535.207 -4.73657 -1.03811 0
M  V30 5475 N 536.55 0.480323 -1.50102 0
M  V30 5476 C 537.5 1.57685 -1.6468 0
M  V30 5477 C 538.484 1.52878 -0.5017 0
M  V30 5478 O 539.676 1.60058 -0.755668 0
M  V30 5479 C 536.805 2.96185 -1.73578 0
M  V30 5480 C 535.891 3.0591 -2.93734 0
M  V30 5481 N 536.282 2.85471 -4.1754 0
M  V30 5482 C 534.58 3.37036 -2.92101 0
M  V30 5483 C 535.281 2.99921 -4.9842 0
M  V30 5484 N 534.257 3.29715 -4.32191 0
M  V30 5485 H 538.059 1.40568 -2.58104 0
M  V30 5486 H 535.573 0.686874 -1.47159 0
M  V30 5487 H 537.57 3.75015 -1.82124 0
M  V30 5488 H 536.23 3.14356 -0.813057 0
M  V30 5489 H 537.241 2.61235 -4.47188 0
M  V30 5490 H 533.918 3.61253 -2.09291 0
M  V30 5491 H 535.308 2.88436 -6.06839 0
M  V30 5492 N 538.028 1.39524 0.732853 0
M  V30 5493 C 538.96 1.34318 1.85718 0
M  V30 5494 C 539.973 0.251576 1.60844 0
M  V30 5495 O 541.162 0.510685 1.71039 0
M  V30 5496 C 538.262 1.06334 3.21786 0
M  V30 5497 C 537.435 2.26813 3.73998 0
M  V30 5498 C 536.494 1.95253 4.88634 0
M  V30 5499 O 535.52 2.67957 5.02183 0
M  V30 5500 N 536.722 0.919984 5.73164 0
M  V30 5501 H 539.487 2.3121 1.90688 0
M  V30 5502 H 537.048 1.33654 0.91368 0
M  V30 5503 H 539.04 0.832363 3.96048 0
M  V30 5504 H 537.61 0.181682 3.12072 0
M  V30 5505 H 536.83 2.65849 2.91064 0
M  V30 5506 H 538.118 3.0717 4.05616 0
M  V30 5507 H 537.516 0.317487 5.64808 0
M  V30 5508 H 536.073 0.748905 6.47483 0
M  V30 5509 N 539.506 -0.963266 1.24736 0
M  V30 5510 C 540.469 -2.04013 1.04457 0
M  V30 5511 C 541.469 -1.608 0.000335555 0
M  V30 5512 O 542.659 -1.72515 0.241719 0
M  V30 5513 C 539.791 -3.35858 0.584162 0
M  V30 5514 H 540.984 -2.23436 2.00041 0
M  V30 5515 H 538.537 -1.13914 1.07021 0
M  V30 5516 H 539.272 -3.22128 -0.374673 0
M  V30 5517 H 539.057 -3.68568 1.3379 0
M  V30 5518 H 540.547 -4.1502 0.463451 0
M  V30 5519 N 540.985 -1.06182 -1.16461 0
M  V30 5520 C 542.21 -0.798599 -1.91408 0
M  V30 5521 C 542.635 0.640987 -1.76842 0
M  V30 5522 O 541.993 1.44652 -1.09296 0
M  V30 5523 C 542.041 -1.19665 -3.40165 0
M  V30 5524 O 541.145 -0.334768 -4.11039 0
M  V30 5525 H 540.486 -0.291961 -0.596368 0
M  V30 5526 H 543.016 -1.41732 -1.47557 0
M  V30 5527 H 543.026 -1.16772 -3.90933 0
M  V30 5528 H 541.701 -2.24526 -3.50087 0
M  V30 5529 H 540.278 -0.425168 -3.70468 0
M  V30 5530 N 542.463 1.3308 -0.844243 0
M  V30 5531 C 543.393 2.3161 -0.296493 0
M  V30 5532 C 544.374 1.59215 0.598707 0
M  V30 5533 O 545.559 1.87077 0.521134 0
M  V30 5534 C 542.689 3.43313 0.524762 0
M  V30 5535 C 541.643 4.27115 -0.275106 0
M  V30 5536 C 540.969 5.30483 0.670236 0
M  V30 5537 C 542.269 5.00443 -1.49514 0
M  V30 5538 H 543.963 2.77672 -1.11976 0
M  V30 5539 H 541.509 1.33496 -0.539899 0
M  V30 5540 H 543.462 4.11273 0.918298 0
M  V30 5541 H 542.186 2.95952 1.3813 0
M  V30 5542 H 540.845 3.60787 -0.650267 0
M  V30 5543 H 540.493 4.79379 1.52332 0
M  V30 5544 H 540.193 5.87435 0.139123 0
M  V30 5545 H 541.717 6.01308 1.06117 0
M  V30 5546 H 543.131 5.61141 -1.17447 0
M  V30 5547 H 541.528 5.67071 -1.96343 0
M  V30 5548 H 542.598 4.28906 -2.26202 0
M  V30 5549 N 543.941 0.601185 1.45683 0
M  V30 5550 C 545.189 0.0936957 2.01883 0
M  V30 5551 C 545.51 -1.2779 1.47291 0
M  V30 5552 O 544.78 -1.84279 0.664691 0
M  V30 5553 H 543.36 0.0316466 0.746329 0
M  V30 5554 H 546.022 0.781137 1.78562 0
M  V30 5555 H 545.118 0.0386297 3.12076 0
M  V30 5556 N 545.419 -1.53889 0.339982 0
M  V30 5557 C 546.667 -2.00458 -0.257112 0
M  V30 5558 C 546.988 -1.22953 -1.51353 0
M  V30 5559 O 546.258 -0.335734 -1.93002 0
M  V30 5560 H 544.838 -0.740544 -0.0979965 0
M  V30 5561 H 547.5 -1.89386 0.460317 0
M  V30 5562 H 546.596 -3.08035 -0.502057 0
M  V30 5563 N 546.897 -0.0685191 -1.57451 0
M  V30 5564 C 548.137 0.605038 -1.9524 0
M  V30 5565 C 548.501 1.66974 -0.947816 0
M  V30 5566 O 549.702 2.39862 -1.21325 0
M  V30 5567 C 547.973 1.16999 -3.37707 0
M  V30 5568 S 549.532 1.85913 -3.97469 0
M  V30 5569 H 546.35 0.198203 -0.682815 0
M  V30 5570 H 548.952 -0.141594 -1.94987 0
M  V30 5571 H 547.656 0.383205 -4.08607 0
M  V30 5572 H 547.187 1.95305 -3.41496 0
M  V30 5573 H 549.202 3.14128 -3.84107 0
M  V30 5574 N 548.375 1.56261 0.205012 0
M  V30 5575 C 549.6 1.84491 0.947512 0
M  V30 5576 C 550.025 0.650894 1.76479 0
M  V30 5577 O 549.383 -0.40035 1.76824 0
M  V30 5578 C 549.431 3.10863 1.82747 0
M  V30 5579 O 548.535 2.90719 2.925 0
M  V30 5580 H 547.876 0.607783 0.267386 0
M  V30 5581 H 550.406 2.03485 0.213323 0
M  V30 5582 H 550.416 3.41399 2.23407 0
M  V30 5583 H 549.091 3.97392 1.2269 0
M  V30 5584 H 547.668 2.71457 2.55667 0
M  V30 5585 N 549.853 -0.472356 1.50355 0
M  V30 5586 C 550.785 -1.58795 1.65278 0
M  V30 5587 C 551.798 -1.53782 0.534313 0
M  V30 5588 O 552.987 -1.59193 0.807446 0
M  V30 5589 C 550.087 -2.97672 1.62001 0
M  V30 5590 C 549.26 -3.27568 2.89859 0
M  V30 5591 C 548.319 -4.45993 2.79242 0
M  V30 5592 O 547.345 -4.46364 3.53197 0
M  V30 5593 N 548.547 -5.47578 1.92713 0
M  V30 5594 H 551.312 -1.46411 2.61503 0
M  V30 5595 H 548.873 -0.660751 1.47803 0
M  V30 5596 H 550.865 -3.74862 1.52513 0
M  V30 5597 H 549.435 -3.03832 0.735159 0
M  V30 5598 H 548.655 -2.39003 3.13483 0
M  V30 5599 H 549.943 -3.44352 3.74565 0
M  V30 5600 H 549.341 -5.50099 1.31939 0
M  V30 5601 H 547.898 -6.23757 1.8913 0
M  V30 5602 N 551.331 -1.39911 -0.725443 0
M  V30 5603 C 552.608 -1.28158 -1.47766 0
M  V30 5604 C 552.988 0.104545 -2.10841 0
M  V30 5605 O 552.336 1.11657 -1.99361 0
M  V30 5606 C 552.546 -2.41306 -2.52135 0
M  V30 5607 C 553.894 -2.81076 -3.18247 0
M  V30 5608 O 554.918 -2.40827 -2.62452 0
M  V30 5609 O 553.777 -3.50581 -4.19231 0
M  V30 5610 H 550.871 -0.502761 -0.656628 0
M  V30 5611 H 553.417 -1.51808 -0.758456 0
M  V30 5612 H 552.189 -3.33932 -2.03974 0
M  V30 5613 H 551.812 -2.19374 -3.31603 0
M  V30 5614 N 552.809 0.956637 -1.25245 0
M  V30 5615 C 554.056 1.701 -1.09874 0
M  V30 5616 C 554.384 1.91128 0.36062 0
M  V30 5617 O 553.639 1.47837 1.28229 0
M  V30 5618 C 553.938 3.08996 -1.79601 0
M  V30 5619 C 553.604 3.07774 -3.29523 0
M  V30 5620 C 552.266 3.07149 -3.70423 0
M  V30 5621 C 554.618 3.01257 -4.25316 0
M  V30 5622 C 551.946 2.97752 -5.0553 0
M  V30 5623 C 554.298 2.93403 -5.60444 0
M  V30 5624 C 552.962 2.91111 -6.00675 0
M  V30 5625 H 552.232 0.62244 -0.402056 0
M  V30 5626 H 554.879 1.1178 -1.55491 0
M  V30 5627 H 553.184 3.70848 -1.26408 0
M  V30 5628 H 554.881 3.65407 -1.65162 0
M  V30 5629 H 551.471 3.09032 -2.9698 0
M  V30 5630 H 555.655 3.00861 -3.9471 0
M  V30 5631 H 550.911 2.94346 -5.35883 0
M  V30 5632 H 555.085 2.87321 -6.34366 0
M  V30 5633 H 552.712 2.83586 -7.05325 0
M  V30 5634 N 554.287 1.06798 1.15896 0
M  V30 5635 C 555.217 0.704677 2.22613 0
M  V30 5636 C 556.198 -0.305252 1.67339 0
M  V30 5637 O 557.383 -0.179247 1.93371 0
M  V30 5638 C 554.513 0.0957325 3.47168 0
M  V30 5639 C 553.467 1.0322 4.15367 0
M  V30 5640 C 552.793 0.286293 5.33933 0
M  V30 5641 C 554.093 2.36341 4.65768 0
M  V30 5642 H 555.787 1.59688 2.53259 0
M  V30 5643 H 553.333 0.769257 1.21731 0
M  V30 5644 H 555.286 -0.170333 4.21056 0
M  V30 5645 H 554.01 -0.831516 3.15838 0
M  V30 5646 H 552.669 1.28309 3.43413 0
M  V30 5647 H 552.317 -0.644237 4.98857 0
M  V30 5648 H 552.017 0.910436 5.80504 0
M  V30 5649 H 553.541 0.0278938 6.10594 0
M  V30 5650 H 554.955 2.1561 5.31211 0
M  V30 5651 H 553.352 2.94299 5.2298 0
M  V30 5652 H 554.422 2.99047 3.81705 0
M  V30 5653 N 555.766 -1.3263 0.851289 0
M  V30 5654 C 556.696 -2.31449 0.308771 0
M  V30 5655 C 557.677 -1.59531 -0.590255 0
M  V30 5656 O 558.862 -1.87351 -0.511205 0
M  V30 5657 C 555.992 -3.43586 -0.506548 0
M  V30 5658 C 554.946 -4.26963 0.297753 0
M  V30 5659 C 554.272 -5.30831 -0.642094 0
M  V30 5660 C 555.572 -4.99643 1.52166 0
M  V30 5661 H 557.266 -2.77074 1.13447 0
M  V30 5662 H 554.812 -1.33207 0.546971 0
M  V30 5663 H 556.765 -4.11754 -0.896474 0
M  V30 5664 H 555.489 -2.96681 -1.36558 0
M  V30 5665 H 554.148 -3.60437 0.669391 0
M  V30 5666 H 553.796 -4.8018 -1.49788 0
M  V30 5667 H 553.496 -5.87501 -0.107968 0
M  V30 5668 H 555.02 -6.01862 -1.02927 0
M  V30 5669 H 556.434 -5.6051 1.20421 0
M  V30 5670 H 554.831 -5.66022 1.99347 0
M  V30 5671 H 555.901 -4.27701 2.28474 0
M  V30 5672 N 557.244 -0.608902 -1.45362 0
M  V30 5673 C 558.491 -0.104607 -2.0223 0
M  V30 5674 C 558.819 1.26534 -1.47714 0
M  V30 5675 O 558.074 1.84855 -0.642435 0
M  V30 5676 C 558.373 -0.0167296 -3.57396 0
M  V30 5677 C 558.039 -1.32251 -4.31069 0
M  V30 5678 C 556.701 -1.68019 -4.50914 0
M  V30 5679 C 559.053 -2.18542 -4.73169 0
M  V30 5680 C 556.381 -2.89828 -5.10114 0
M  V30 5681 C 558.733 -3.39602 -5.33717 0
M  V30 5682 C 557.397 -3.7562 -5.51784 0
M  V30 5683 H 556.667 -0.0382785 -0.740011 0
M  V30 5684 H 559.314 -0.790782 -1.7441 0
M  V30 5685 H 557.619 0.752715 -3.84502 0
M  V30 5686 H 559.316 0.389634 -3.99103 0
M  V30 5687 H 555.906 -1.03411 -4.15938 0
M  V30 5688 H 560.09 -1.92208 -4.5757 0
M  V30 5689 H 555.346 -3.17839 -5.22291 0
M  V30 5690 H 559.52 -4.06716 -5.65292 0
M  V30 5691 H 557.147 -4.70093 -5.97425 0
M  V30 5692 N 558.722 1.53707 -0.348139 0
M  V30 5693 C 559.947 2.05877 0.250883 0
M  V30 5694 C 560.372 1.22115 1.43072 0
M  V30 5695 O 559.73 0.235986 1.79758 0
M  V30 5696 C 559.778 3.54886 0.639416 0
M  V30 5697 O 558.882 3.73948 1.73888 0
M  V30 5698 H 558.223 0.662754 0.040653 0
M  V30 5699 H 560.753 1.98303 -0.503685 0
M  V30 5700 H 560.763 3.97601 0.915295 0
M  V30 5701 H 559.438 4.153 -0.223386 0
M  V30 5702 H 558.015 3.43134 1.45991 0
M  V30 5703 N 560.2 0.0768682 1.57412 0
M  V30 5704 C 561.611 -0.455037 1.8107 0
M  V30 5705 C 561.962 -1.69323 0.991162 0
M  V30 5706 O 561.087 -2.15328 0.215156 0
M  V30 5707 C 561.682 -0.832316 3.28417 0
M  V30 5708 C 560.241 -1.30906 3.52903 0
M  V30 5709 C 559.388 -0.296714 2.75708 0
M  V30 5710 H 562.339 0.302514 1.5579 0
M  V30 5711 H 562.36 -1.69333 3.40744 0
M  V30 5712 H 561.872 0.0690532 3.88039 0
M  V30 5713 H 559.973 -2.22875 2.98592 0
M  V30 5714 H 560.086 -1.28348 4.61588 0
M  V30 5715 H 558.45 -0.775059 2.42621 0
M  V30 5716 H 559.233 0.597015 3.38069 0
M  V30 5717 N 561.678 -1.56367 -0.196722 0
M  V30 5718 C 562.588 -1.97617 -1.2643 0
M  V30 5719 C 563.604 -0.883598 -1.49895 0
M  V30 5720 O 564.78 -1.18921 -1.62541 0
M  V30 5721 C 561.845 -2.30595 -2.58895 0
M  V30 5722 C 560.906 -3.53551 -2.43516 0
M  V30 5723 C 560.139 -3.84946 -3.69665 0
M  V30 5724 O 560.362 -3.17655 -4.73763 0
M  V30 5725 O 559.296 -4.78379 -3.65291 0
M  V30 5726 H 563.122 -2.88648 -0.944233 0
M  V30 5727 H 560.707 -1.43901 -0.401592 0
M  V30 5728 H 562.589 -2.52889 -3.37083 0
M  V30 5729 H 561.264 -1.42732 -2.90533 0
M  V30 5730 H 560.171 -3.36507 -1.63445 0
M  V30 5731 H 561.504 -4.41875 -2.16812 0
M  V30 5732 N 563.156 0.464375 -1.50603 0
M  V30 5733 C 564.402 1.21776 -1.62168 0
M  V30 5734 C 564.735 1.91476 -0.324154 0
M  V30 5735 O 564.01 1.8242 0.674782 0
M  V30 5736 C 564.293 2.25614 -2.80661 0
M  V30 5737 C 564.146 1.60175 -4.20314 0
M  V30 5738 C 565.465 3.26862 -2.94702 0
M  V30 5739 H 562.584 0.44137 -0.590222 0
M  V30 5740 H 565.226 0.510623 -1.8301 0
M  V30 5741 H 563.376 2.85923 -2.63021 0
M  V30 5742 H 565.048 1.03411 -4.4956 0
M  V30 5743 H 563.291 0.904697 -4.24261 0
M  V30 5744 H 563.962 2.35665 -4.99165 0
M  V30 5745 H 566.438 2.76582 -3.10872 0
M  V30 5746 H 565.314 3.96839 -3.79223 0
M  V30 5747 H 565.575 3.91382 -2.05603 0
M  V30 5748 N 564.634 1.40294 0.718013 0
M  V30 5749 C 565.544 1.42678 1.86226 0
M  V30 5750 C 566.56 0.319655 1.71039 0
M  V30 5751 O 567.736 0.563852 1.93346 0
M  V30 5752 C 564.801 1.2852 3.21999 0
M  V30 5753 C 563.862 2.49354 3.49458 0
M  V30 5754 C 563.095 2.35863 4.78753 0
M  V30 5755 O 563.318 1.37114 5.53675 0
M  V30 5756 O 562.252 3.25189 5.06494 0
M  V30 5757 H 566.078 2.39167 1.87171 0
M  V30 5758 H 563.663 1.2159 0.868112 0
M  V30 5759 H 565.545 1.22824 4.03103 0
M  V30 5760 H 564.22 0.351359 3.21787 0
M  V30 5761 H 563.127 2.60628 2.68373 0
M  V30 5762 H 564.46 3.41491 3.54464 0
M  V30 5763 N 566.112 -0.949982 1.2575 0
M  V30 5764 C 567.337 -1.73503 1.13628 0
M  V30 5765 C 567.762 -1.85601 -0.30559 0
M  V30 5766 O 567.12 -1.33984 -1.22139 0
M  V30 5767 C 567.168 -3.1243 1.80055 0
M  V30 5768 O 566.272 -3.97916 1.08336 0
M  V30 5769 H 565.613 -0.532665 0.396439 0
M  V30 5770 H 568.143 -1.19043 1.66403 0
M  V30 5771 H 568.153 -3.62866 1.86527 0
M  V30 5772 H 566.828 -3.02941 2.84956 0
M  V30 5773 H 565.405 -3.56375 1.09777 0
M  V30 5774 N 567.59 -1.07411 -1.15328 0
M  V30 5775 C 568.52 -0.716472 -2.22236 0
M  V30 5776 C 569.501 0.296373 -1.67498 0
M  V30 5777 O 570.686 0.168989 -1.93463 0
M  V30 5778 C 567.816 -0.114142 -3.47112 0
M  V30 5779 C 566.77 -1.05421 -4.14814 0
M  V30 5780 C 566.096 -0.314604 -5.33774 0
M  V30 5781 C 567.396 -2.38808 -4.64508 0
M  V30 5782 H 569.09 -1.61029 -2.52408 0
M  V30 5783 H 566.636 -0.775702 -1.21321 0
M  V30 5784 H 568.589 0.148001 -4.2114 0
M  V30 5785 H 567.313 0.814755 -3.16274 0
M  V30 5786 H 565.972 -1.30128 -3.42728 0
M  V30 5787 H 565.62 0.617772 -4.99192 0
M  V30 5788 H 565.32 -0.941209 -5.80013 0
M  V30 5789 H 566.844 -0.0602747 -6.1057 0
M  V30 5790 H 568.258 -2.18424 -5.3006 0
M  V30 5791 H 566.655 -2.97069 -5.21412 0
M  V30 5792 H 567.725 -3.01067 -3.80114 0
M  V30 5793 N 569.068 1.32177 -0.85831 0
M  V30 5794 C 570.479 1.79381 -0.517621 0
M  V30 5795 C 570.83 1.70841 0.964769 0
M  V30 5796 O 569.955 1.26917 1.75274 0
M  V30 5797 C 570.55 3.25706 -0.932801 0
M  V30 5798 C 569.109 3.70851 -0.643953 0
M  V30 5799 C 568.256 2.53208 -1.13054 0
M  V30 5800 H 571.207 1.19424 -1.04516 0
M  V30 5801 H 571.228 3.79673 -0.250674 0
M  V30 5802 H 570.74 3.31889 -2.01174 0
M  V30 5803 H 568.841 3.70178 0.424112 0
M  V30 5804 H 568.954 4.63495 -1.21281 0
M  V30 5805 H 567.318 2.48676 -0.550679 0
M  V30 5806 H 568.101 2.62143 -2.21666 0
M  V30 5807 N 570.547 0.616602 1.45037 0
M  V30 5808 C 571.793 0.115501 2.02471 0
M  V30 5809 C 572.126 -1.25406 1.4828 0
M  V30 5810 O 571.401 -1.82922 0.661051 0
M  V30 5811 C 571.684 0.0863588 3.59996 0
M  V30 5812 C 571.537 1.48723 4.24501 0
M  V30 5813 C 572.856 -0.596762 4.36035 0
M  V30 5814 H 569.975 0.0434461 0.735718 0
M  V30 5815 H 572.617 0.7903 1.72784 0
M  V30 5816 H 570.767 -0.488277 3.85419 0
M  V30 5817 H 572.439 2.10964 4.10234 0
M  V30 5818 H 570.682 2.04534 3.82555 0
M  V30 5819 H 571.353 1.419 5.3345 0
M  V30 5820 H 573.829 -0.10824 4.15959 0
M  V30 5821 H 572.705 -0.586289 5.4576 0
M  V30 5822 H 572.966 -1.66451 4.09569 0
M  V30 5823 N 572.025 -1.5352 0.356285 0
M  V30 5824 C 572.988 -2.24071 -0.482182 0
M  V30 5825 C 573.988 -1.24531 -1.01729 0
M  V30 5826 O 575.178 -1.48876 -0.904513 0
M  V30 5827 C 572.31 -2.97025 -1.67299 0
M  V30 5828 H 573.503 -2.99596 0.135031 0
M  V30 5829 H 571.056 -1.55928 0.107825 0
M  V30 5830 H 571.791 -2.25719 -2.32855 0
M  V30 5831 H 571.576 -3.7005 -1.29636 0
M  V30 5832 H 573.066 -3.50683 -2.26741 0
M  V30 5833 N 573.503 -0.0852151 -1.57369 0
M  V30 5834 C 574.728 0.592872 -1.98746 0
M  V30 5835 C 575.153 1.61538 -0.963689 0
M  V30 5836 O 574.511 1.81168 0.069071 0
M  V30 5837 C 574.559 1.22599 -3.39119 0
M  V30 5838 O 573.663 2.34185 -3.39457 0
M  V30 5839 H 573.004 0.151314 -0.646529 0
M  V30 5840 H 575.534 -0.163703 -2.03944 0
M  V30 5841 H 575.544 1.56965 -3.76598 0
M  V30 5842 H 574.219 0.476831 -4.13158 0
M  V30 5843 H 572.796 2.01512 -3.13763 0
M  V30 5844 N 574.981 1.5647 0.188427 0
M  V30 5845 C 576.206 1.85486 0.927891 0
M  V30 5846 C 576.631 0.669575 1.75779 0
M  V30 5847 O 575.989 -0.381573 1.77239 0
M  V30 5848 C 576.037 3.12784 1.7944 0
M  V30 5849 O 575.141 2.93805 2.894 0
M  V30 5850 H 574.482 0.610585 0.260925 0
M  V30 5851 H 577.012 2.037 0.191729 0
M  V30 5852 H 577.022 3.43749 2.19774 0
M  V30 5853 H 575.697 3.98671 1.18468 0
M  V30 5854 H 574.274 2.74153 2.52774 0
M  V30 5855 N 576.459 -0.456382 1.50847 0
M  V30 5856 C 577.684 -1.2349 1.66628 0
M  V30 5857 C 578.109 -1.84715 0.355254 0
M  V30 5858 O 577.467 -1.67961 -0.682559 0
M  V30 5859 C 577.515 -2.30865 2.77009 0
M  V30 5860 O 576.619 -3.35882 2.39285 0
M  V30 5861 H 575.96 -0.36266 0.556214 0
M  V30 5862 H 578.49 -0.541374 1.97308 0
M  V30 5863 H 578.5 -2.75949 3.00526 0
M  V30 5864 H 577.175 -1.85677 3.72152 0
M  V30 5865 H 575.752 -2.96406 2.26269 0
M  V30 5866 N 577.937 -1.40673 -0.710563 0
M  V30 5867 C 579.165 -1.42547 -1.4996 0
M  V30 5868 C 579.58 -0.0265485 -1.88781 0
M  V30 5869 O 578.937 0.950694 -1.55782 0
M  V30 5870 C 578.988 -2.32071 -2.77173 0
M  V30 5871 O 578.709 -3.66518 -2.39992 0
M  V30 5872 C 580.21 -2.42591 -3.71032 0
M  V30 5873 H 577.43 -0.486025 -0.462623 0
M  V30 5874 H 579.974 -1.84783 -0.876102 0
M  V30 5875 H 578.129 -1.93184 -3.35795 0
M  V30 5876 H 578.543 -4.14115 -3.21884 0
M  V30 5877 H 580.017 -3.09429 -4.57119 0
M  V30 5878 H 580.494 -1.4525 -4.14486 0
M  V30 5879 H 581.1 -2.82051 -3.18319 0
M  V30 5880 N 579.415 0.9433 -1.26252 0
M  V30 5881 C 580.345 2.05902 -1.10122 0
M  V30 5882 C 581.326 1.70099 -0.00700552 0
M  V30 5883 O 582.511 1.93377 -0.178641 0
M  V30 5884 C 579.641 3.39516 -0.731175 0
M  V30 5885 C 578.595 3.89372 -1.77688 0
M  V30 5886 C 577.921 5.19613 -1.26122 0
M  V30 5887 C 579.221 4.14489 -3.17799 0
M  V30 5888 H 580.915 2.19655 -2.03451 0
M  V30 5889 H 578.461 1.05548 -0.979576 0
M  V30 5890 H 580.414 4.17031 -0.605215 0
M  V30 5891 H 579.138 3.25733 0.23782 0
M  V30 5892 H 577.797 3.14036 -1.89148 0
M  V30 5893 H 577.445 5.02208 -0.282128 0
M  V30 5894 H 577.145 5.53939 -1.96023 0
M  V30 5895 H 578.669 5.99713 -1.14789 0
M  V30 5896 H 580.083 4.82625 -3.09428 0
M  V30 5897 H 578.48 4.60094 -3.85271 0
M  V30 5898 H 579.55 3.20347 -3.64014 0
M  V30 5899 N 580.893 1.08022 1.14757 0
M  V30 5900 C 581.823 0.728248 2.21853 0
M  V30 5901 C 582.804 -0.287486 1.67653 0
M  V30 5902 O 583.989 -0.158727 1.9355 0
M  V30 5903 C 581.119 0.132549 3.47047 0
M  V30 5904 C 580.073 1.07619 4.14249 0
M  V30 5905 C 579.399 0.342907 5.33599 0
M  V30 5906 C 580.699 2.41268 4.63235 0
M  V30 5907 H 582.393 1.62365 2.51551 0
M  V30 5908 H 579.939 0.782125 1.20908 0
M  V30 5909 H 581.892 -0.125665 4.21213 0
M  V30 5910 H 580.616 -0.797971 3.16702 0
M  V30 5911 H 579.275 1.31944 3.42033 0
M  V30 5912 H 578.923 -0.59129 4.99513 0
M  V30 5913 H 578.623 0.971955 5.79506 0
M  V30 5914 H 580.147 0.0926538 6.1053 0
M  V30 5915 H 581.561 2.21232 5.28894 0
M  V30 5916 H 579.958 2.9983 5.19829 0
M  V30 5917 H 581.028 3.03079 3.78512 0
M  V30 5918 N 582.371 -1.3172 0.865308 0
M  V30 5919 C 583.782 -1.79104 0.527126 0
M  V30 5920 C 584.133 -1.7135 -0.955695 0
M  V30 5921 O 583.258 -1.27845 -1.74598 0
M  V30 5922 C 583.853 -3.25207 0.950061 0
M  V30 5923 C 582.412 -3.70504 0.663611 0
M  V30 5924 C 581.559 -2.52605 1.14395 0
M  V30 5925 H 584.51 -1.18868 1.05148 0
M  V30 5926 H 584.531 -3.79535 0.270805 0
M  V30 5927 H 584.043 -3.30818 2.02931 0
M  V30 5928 H 582.144 -3.70398 -0.404474 0
M  V30 5929 H 582.257 -4.62845 1.23737 0
M  V30 5930 H 580.621 -2.4838 0.563859 0
M  V30 5931 H 581.404 -2.60964 2.23053 0
M  V30 5932 N 583.85 -0.624285 -1.44708 0
M  V30 5933 C 584.779 0.0717025 -2.3339 0
M  V30 5934 C 585.76 0.841814 -1.47809 0
M  V30 5935 O 586.946 0.809056 -1.76544 0
M  V30 5936 C 584.076 1.05852 -3.30776 0
M  V30 5937 C 583.029 0.400503 -4.26122 0
M  V30 5938 C 582.356 1.49674 -5.13324 0
M  V30 5939 C 583.656 -0.688924 -5.17737 0
M  V30 5940 H 585.35 -0.668819 -2.91834 0
M  V30 5941 H 582.896 -0.32308 -1.40329 0
M  V30 5942 H 584.849 1.5541 -3.91696 0
M  V30 5943 H 583.572 1.82984 -2.70526 0
M  V30 5944 H 582.231 -0.0743687 -3.66525 0
M  V30 5945 H 581.88 2.25877 -4.49431 0
M  V30 5946 H 581.58 1.06188 -5.77926 0
M  V30 5947 H 583.104 1.99427 -5.77115 0
M  V30 5948 H 584.518 -0.276724 -5.72632 0
M  V30 5949 H 582.915 -1.04652 -5.90904 0
M  V30 5950 H 583.985 -1.55884 -4.5916 0
M  V30 5951 N 585.328 1.53329 -0.364422 0
M  V30 5952 C 586.291 2.24323 0.470292 0
M  V30 5953 C 587.291 1.25068 1.01067 0
M  V30 5954 O 588.481 1.49354 0.896605 0
M  V30 5955 C 585.613 2.97908 1.65722 0
M  V30 5956 H 586.806 2.9952 -0.150917 0
M  V30 5957 H 584.359 1.55868 -0.116092 0
M  V30 5958 H 585.094 2.2695 2.31655 0
M  V30 5959 H 584.879 3.70732 1.27671 0
M  V30 5960 H 586.369 3.5188 2.24878 0
M  V30 5961 N 586.806 0.0935595 1.57322 0
M  V30 5962 C 588.217 -0.435807 1.81542 0
M  V30 5963 C 588.568 -1.68263 1.00907 0
M  V30 5964 O 587.693 -2.15087 0.237983 0
M  V30 5965 C 588.288 -0.797436 3.29282 0
M  V30 5966 C 586.847 -1.27155 3.54272 0
M  V30 5967 C 585.994 -0.267455 2.76007 0
M  V30 5968 H 588.945 0.31902 1.5546 0
M  V30 5969 H 588.966 -1.6571 3.42521 0
M  V30 5970 H 588.478 0.110206 3.87943 0
M  V30 5971 H 586.579 -2.19696 3.00939 0
M  V30 5972 H 586.692 -1.23445 4.62923 0
M  V30 5973 H 585.056 -0.749282 2.43429 0
M  V30 5974 H 585.839 0.632839 3.37417 0
M  V30 5975 N 588.284 -1.56567 -0.180126 0
M  V30 5976 C 589.509 -1.85975 -0.918041 0
M  V30 5977 C 589.934 -0.678888 -1.75422 0
M  V30 5978 O 589.292 0.372168 -1.77439 0
M  V30 5979 C 589.34 -3.13731 -1.77779 0
M  V30 5980 O 588.444 -2.95335 -2.87838 0
M  V30 5981 H 587.785 -0.61196 -0.257683 0
M  V30 5982 H 590.315 -2.03798 -0.180923 0
M  V30 5983 H 590.325 -3.4491 -2.17948 0
M  V30 5984 H 589 -3.99293 -1.16352 0
M  V30 5985 H 587.577 -2.7549 -2.51316 0
M  V30 5986 N 589.762 0.448376 -1.51087 0
M  V30 5987 C 590.71 1.56407 -1.72161 0
M  V30 5988 C 591.704 1.58878 -0.587721 0
M  V30 5989 O 592.91 1.62755 -0.768822 0
M  V30 5990 H 589.285 0.519423 -0.543786 0
M  V30 5991 H 591.256 1.35803 -2.65707 0
M  V30 5992 C 590.005 2.94163 -1.85373 0
M  V30 5993 H 589.328 2.9299 -2.72024 0
M  V30 5994 H 590.768 3.71625 -2.04135 0
M  V30 5995 C 589.227 3.31317 -0.610803 0
M  V30 5996 O 589.757 4.00985 0.239636 0
M  V30 5997 N 587.963 2.86966 -0.458127 0
M  V30 5998 H 587.51 2.30443 -1.15124 0
M  V30 5999 H 587.468 3.12188 0.372289 0
M  V30 6000 N 591.24 1.41047 0.703093 0
M  V30 6001 C 592.465 1.43537 1.49706 0
M  V30 6002 C 592.89 0.0401853 1.88057 0
M  V30 6003 O 592.248 -0.954785 1.54122 0
M  V30 6004 C 592.296 2.3433 2.74084 0
M  V30 6005 O 591.4 1.79515 3.71279 0
M  V30 6006 H 590.741 0.487454 0.450871 0
M  V30 6007 H 593.271 1.85422 0.86486 0
M  V30 6008 H 593.281 2.49947 3.22476 0
M  V30 6009 H 591.956 3.35708 2.45506 0
M  V30 6010 H 590.533 1.7331 3.30179 0
M  V30 6011 N 592.718 -0.936591 1.26751 0
M  V30 6012 C 593.946 -1.71758 1.15355 0
M  V30 6013 C 594.361 -1.86549 -0.290683 0
M  V30 6014 O 593.718 -1.37616 -1.19868 0
M  V30 6015 C 593.769 -3.12193 1.82258 0
M  V30 6016 O 593.49 -2.98105 3.21038 0
M  V30 6017 C 594.991 -4.06485 1.76875 0
M  V30 6018 H 592.211 -0.537636 0.401483 0
M  V30 6019 H 594.755 -1.17382 1.67457 0
M  V30 6020 H 592.91 -3.63456 1.34083 0
M  V30 6021 H 593.324 -3.86824 3.54214 0
M  V30 6022 H 594.798 -5.02569 2.28316 0
M  V30 6023 H 595.275 -4.32986 0.736216 0
M  V30 6024 H 595.881 -3.61144 2.24623 0
M  V30 6025 N 594.196 -1.08629 -1.14182 0
M  V30 6026 C 595.421 -0.83902 -1.89671 0
M  V30 6027 C 595.846 0.603332 -1.78161 0
M  V30 6028 O 595.204 1.42301 -1.12339 0
M  V30 6029 C 595.252 -1.26854 -3.37551 0
M  V30 6030 O 594.356 -0.42188 -4.10236 0
M  V30 6031 H 593.697 -0.304545 -0.590041 0
M  V30 6032 H 596.227 -1.4483 -1.44518 0
M  V30 6033 H 596.237 -1.25038 -3.88368 0
M  V30 6034 H 594.912 -2.31901 -3.45246 0
M  V30 6035 H 593.489 -0.503654 -3.69483 0
M  V30 6036 N 595.674 1.31259 -0.872281 0
M  V30 6037 C 596.604 2.30929 -0.345554 0
M  V30 6038 C 597.585 1.60449 0.5648 0
M  V30 6039 O 598.77 1.8814 0.481335 0
M  V30 6040 C 595.9 3.44348 0.451823 0
M  V30 6041 C 594.854 4.26435 -0.365641 0
M  V30 6042 C 594.18 5.31785 0.557562 0
M  V30 6043 C 595.48 4.97159 -1.60095 0
M  V30 6044 H 597.174 2.75234 -1.17841 0
M  V30 6045 H 594.72 1.3232 -0.568094 0
M  V30 6046 H 596.673 4.13128 0.830854 0
M  V30 6047 H 595.397 2.98816 1.31821 0
M  V30 6048 H 594.056 3.59326 -0.726649 0
M  V30 6049 H 593.704 4.82502 1.4213 0
M  V30 6050 H 593.404 5.87598 0.0144878 0
M  V30 6051 H 594.928 6.03424 0.933387 0
M  V30 6052 H 596.342 5.58523 -1.29323 0
M  V30 6053 H 594.739 5.62779 -2.08327 0
M  V30 6054 H 595.809 4.24012 -2.35249 0
M  V30 6055 N 597.152 0.631951 1.44375 0
M  V30 6056 C 598.1 -0.0846693 2.32446 0
M  V30 6057 C 599.094 -0.834957 1.47393 0
M  V30 6058 O 600.3 -0.747764 1.63733 0
M  V30 6059 H 596.675 -0.0461508 0.750583 0
M  V30 6060 H 598.646 0.67619 2.90638 0
M  V30 6061 C 597.395 -1.05211 3.314 0
M  V30 6062 H 596.718 -0.484203 3.96857 0
M  V30 6063 H 598.158 -1.523 3.95703 0
M  V30 6064 C 596.617 -2.13776 2.60387 0
M  V30 6065 O 597.147 -3.21869 2.4034 0
M  V30 6066 N 595.353 -1.89733 2.20113 0
M  V30 6067 H 594.9 -1.01833 2.36618 0
M  V30 6068 H 594.858 -2.62572 1.72926 0
M  V30 6069 N 598.631 -1.53133 0.372548 0
M  V30 6070 C 599.856 -2.0625 -0.218098 0
M  V30 6071 C 600.281 -1.24375 -1.41111 0
M  V30 6072 O 599.639 -0.264554 -1.79359 0
M  V30 6073 C 599.687 -3.55858 -0.582876 0
M  V30 6074 O 598.791 -3.76667 -1.67917 0
M  V30 6075 H 598.132 -0.663317 -0.030104 0
M  V30 6076 H 600.662 -1.97477 0.535169 0
M  V30 6077 H 600.672 -3.99007 -0.851925 0
M  V30 6078 H 599.347 -4.14892 0.289428 0
M  V30 6079 H 597.924 -3.45413 -1.40513 0
M  V30 6080 N 600.109 -0.101901 -1.5727 0
M  V30 6081 C 601.337 0.568392 -1.98939 0
M  V30 6082 C 601.752 1.61301 -0.981194 0
M  V30 6083 O 601.109 1.82478 0.0282869 0
M  V30 6084 C 601.16 1.20997 -3.40649 0
M  V30 6085 O 600.881 0.207129 -4.3761 0
M  V30 6086 C 602.382 1.96523 -3.97358 0
M  V30 6087 H 599.602 0.15186 -0.65359 0
M  V30 6088 H 602.146 -0.183198 -2.03678 0
M  V30 6089 H 600.301 1.91245 -3.36904 0
M  V30 6090 H 600.715 0.671071 -5.20189 0
M  V30 6091 H 602.189 2.36764 -4.98645 0
M  V30 6092 H 602.666 2.83376 -3.35552 0
M  V30 6093 H 603.272 1.31076 -4.04598 0
M  V30 6094 N 601.587 1.56661 0.17182 0
M  V30 6095 C 602.834 1.81965 0.888529 0
M  V30 6096 C 603.162 0.6789 1.82267 0
M  V30 6097 O 602.417 -0.333875 1.92831 0
M  V30 6098 C 602.716 3.13435 1.71736 0
M  V30 6099 C 602.382 4.41159 0.932184 0
M  V30 6100 C 601.044 4.75851 0.715481 0
M  V30 6101 C 603.396 5.19803 0.381387 0
M  V30 6102 C 600.724 5.86666 -0.063126 0
M  V30 6103 C 603.076 6.31433 -0.384129 0
M  V30 6104 C 601.74 6.64692 -0.611637 0
M  V30 6105 H 601.01 0.665859 0.325136 0
M  V30 6106 H 603.657 1.90884 0.153495 0
M  V30 6107 H 601.962 2.99857 2.52177 0
M  V30 6108 H 603.659 3.30224 2.27493 0
M  V30 6109 H 600.249 4.13947 1.11112 0
M  V30 6110 H 604.433 4.93396 0.536148 0
M  V30 6111 H 599.689 6.10892 -0.249136 0
M  V30 6112 H 603.863 6.91577 -0.818185 0
M  V30 6113 H 601.49 7.50398 -1.21684 0
M  V30 6114 N 603.065 -0.440357 1.51323 0
M  V30 6115 C 604.313 -1.18769 1.63518 0
M  V30 6116 C 604.634 -1.91793 0.352201 0
M  V30 6117 O 603.904 -1.85432 -0.631811 0
M  V30 6118 H 602.484 -0.441408 0.602634 0
M  V30 6119 H 605.146 -0.505162 1.8824 0
M  V30 6120 H 604.242 -1.91892 2.46138 0
M  V30 6121 N 604.543 -1.41418 -0.695603 0
M  V30 6122 C 605.768 -1.44329 -1.48942 0
M  V30 6123 C 606.193 -0.0501579 -1.88033 0
M  V30 6124 O 605.551 0.946598 -1.54626 0
M  V30 6125 C 605.599 -2.3578 -2.72837 0
M  V30 6126 O 604.703 -1.81482 -3.70322 0
M  V30 6127 H 604.044 -0.489838 -0.44828 0
M  V30 6128 H 606.574 -1.85878 -0.855014 0
M  V30 6129 H 606.584 -2.51654 -3.21145 0
M  V30 6130 H 605.259 -3.37005 -2.43722 0
M  V30 6131 H 603.836 -1.75058 -3.29255 0
M  V30 6132 N 606.021 0.929856 -1.27246 0
M  V30 6133 C 607.249 1.71144 -1.16265 0
M  V30 6134 C 607.664 1.867 0.280786 0
M  V30 6135 O 607.021 1.38249 1.19136 0
M  V30 6136 C 607.072 3.11222 -1.83911 0
M  V30 6137 O 606.793 2.96398 -3.22614 0
M  V30 6138 C 608.294 4.05541 -1.79028 0
M  V30 6139 H 605.514 0.535499 -0.404328 0
M  V30 6140 H 608.058 1.16492 -1.68077 0
M  V30 6141 H 606.213 3.6274 -1.36009 0
M  V30 6142 H 606.627 3.8494 -3.56261 0
M  V30 6143 H 608.101 5.01351 -2.30978 0
M  V30 6144 H 608.578 4.32589 -0.759168 0
M  V30 6145 H 609.184 3.59947 -2.26535 0
M  V30 6146 N 607.499 1.09233 1.13605 0
M  V30 6147 C 608.447 0.724572 2.21027 0
M  V30 6148 C 609.441 -0.273595 1.67176 0
M  V30 6149 O 610.647 -0.135266 1.79491 0
M  V30 6150 H 607.022 0.216319 0.720215 0
M  V30 6151 H 608.993 1.63975 2.49309 0
M  V30 6152 C 607.742 0.159126 3.47336 0
M  V30 6153 H 607.065 0.918387 3.89109 0
M  V30 6154 H 608.505 -0.0602851 4.23957 0
M  V30 6155 C 606.964 -1.10514 3.18258 0
M  V30 6156 O 607.494 -2.18869 3.36837 0
M  V30 6157 N 605.7 -1.01886 2.72154 0
M  V30 6158 H 605.247 -0.137027 2.57235 0
M  V30 6159 H 605.205 -1.8655 2.53074 0
M  V30 6160 N 608.977 -1.30795 0.87923 0
M  V30 6161 C 609.907 -2.30742 0.357796 0
M  V30 6162 C 610.888 -1.60747 -0.556283 0
M  V30 6163 O 612.073 -1.88393 -0.47135 0
M  V30 6164 C 609.203 -3.44583 -0.433555 0
M  V30 6165 C 608.157 -4.26235 0.388251 0
M  V30 6166 C 607.483 -5.32073 -0.529352 0
M  V30 6167 C 608.783 -4.96303 1.62729 0
M  V30 6168 H 610.477 -2.74605 1.19299 0
M  V30 6169 H 608.023 -1.32017 0.575104 0
M  V30 6170 H 609.976 -4.13563 -0.808934 0
M  V30 6171 H 608.7 -2.99511 -1.30234 0
M  V30 6172 H 607.359 -3.58936 0.745695 0
M  V30 6173 H 607.007 -4.83249 -1.39569 0
M  V30 6174 H 606.707 -5.87598 0.0166741 0
M  V30 6175 H 608.231 -6.0391 -0.901373 0
M  V30 6176 H 609.645 -5.5783 1.32283 0
M  V30 6177 H 608.042 -5.61666 2.11309 0
M  V30 6178 H 609.112 -4.22758 2.37494 0
M  V30 6179 N 610.455 -0.639598 -1.44038 0
M  V30 6180 C 611.683 -0.154811 -2.0632 0
M  V30 6181 C 612.098 1.17406 -1.47856 0
M  V30 6182 O 611.455 1.72193 -0.604638 0
M  V30 6183 C 611.506 -0.0429958 -3.61474 0
M  V30 6184 O 611.227 -1.31932 -4.17763 0
M  V30 6185 C 612.728 0.469486 -4.40807 0
M  V30 6186 H 609.948 -0.0835862 -0.665773 0
M  V30 6187 H 612.492 -0.876397 -1.84769 0
M  V30 6188 H 610.647 0.629075 -3.82258 0
M  V30 6189 H 611.061 -1.16965 -5.11292 0
M  V30 6190 H 612.535 0.496712 -5.49761 0
M  V30 6191 H 613.012 1.49819 -4.12857 0
M  V30 6192 H 613.618 -0.169624 -4.24962 0
M  V30 6193 N 611.933 1.52934 -0.380664 0
M  V30 6194 C 613.181 2.01069 0.203874 0
M  V30 6195 C 613.502 1.26922 1.4804 0
M  V30 6196 O 612.772 0.386787 1.92044 0
M  V30 6197 H 611.352 0.742882 0.0783279 0
M  V30 6198 H 614.014 1.88099 -0.510368 0
M  V30 6199 H 613.11 3.09258 0.42021 0
M  V30 6200 N 613.412 0.11024 1.57214 0
M  V30 6201 C 614.342 -0.840002 2.17867 0
M  V30 6202 C 615.323 -1.28352 1.11624 0
M  V30 6203 O 616.508 -1.3477 1.39824 0
M  V30 6204 C 613.638 -2.09349 2.77111 0
M  V30 6205 C 612.592 -1.78807 3.8886 0
M  V30 6206 C 611.918 -3.11112 4.34872 0
M  V30 6207 C 613.218 -1.0632 5.11364 0
M  V30 6208 H 614.912 -0.334608 2.97524 0
M  V30 6209 H 612.458 -0.159502 1.43114 0
M  V30 6210 H 614.411 -2.76275 3.18198 0
M  V30 6211 H 613.135 -2.62198 1.9473 0
M  V30 6212 H 611.794 -1.14273 3.48335 0
M  V30 6213 H 611.442 -3.61877 3.49362 0
M  V30 6214 H 611.142 -2.91453 5.10224 0
M  V30 6215 H 612.666 -3.79171 4.78604 0
M  V30 6216 H 614.08 -1.63383 5.49526 0
M  V30 6217 H 612.477 -0.967876 5.92243 0
M  V30 6218 H 613.547 -0.0484569 4.84876 0
M  V30 6219 N 614.89 -1.56749 -0.16351 0
M  V30 6220 C 616.137 -1.82434 -0.878866 0
M  V30 6221 C 616.465 -0.688557 -1.81904 0
M  V30 6222 O 615.72 0.323644 -1.93005 0
M  V30 6223 C 616.019 -3.14342 -1.70071 0
M  V30 6224 C 615.685 -4.41647 -0.908775 0
M  V30 6225 C 614.347 -4.76224 -0.690236 0
M  V30 6226 C 616.699 -5.19998 -0.353815 0
M  V30 6227 C 614.027 -5.86624 0.0942374 0
M  V30 6228 C 616.379 -6.3122 0.41761 0
M  V30 6229 C 615.043 -6.64358 0.646879 0
M  V30 6230 H 614.313 -0.667574 -0.3216 0
M  V30 6231 H 616.96 -1.90963 -0.14337 0
M  V30 6232 H 615.265 -3.0119 -2.50583 0
M  V30 6233 H 616.962 -3.31426 -2.25738 0
M  V30 6234 H 613.552 -4.1453 -1.08916 0
M  V30 6235 H 617.736 -4.93673 -0.509975 0
M  V30 6236 H 612.992 -6.10751 0.281529 0
M  V30 6237 H 617.166 -6.91133 0.854849 0
M  V30 6238 H 614.793 -7.49742 1.25662 0
M  V30 6239 N 616.368 0.432326 -1.51554 0
M  V30 6240 C 617.615 1.18134 -1.64471 0
M  V30 6241 C 617.943 1.91076 -0.363349 0
M  V30 6242 O 617.198 1.84492 0.65279 0
M  V30 6243 C 617.497 2.21907 -2.80164 0
M  V30 6244 C 617.163 1.65941 -4.19255 0
M  V30 6245 C 615.825 1.50401 -4.57092 0
M  V30 6246 C 618.177 1.24843 -5.06027 0
M  V30 6247 C 615.505 0.922443 -5.79403 0
M  V30 6248 C 617.857 0.68113 -6.28922 0
M  V30 6249 C 616.521 0.512673 -6.65528 0
M  V30 6250 H 615.791 0.432283 -0.601841 0
M  V30 6251 H 618.438 0.471701 -1.856 0
M  V30 6252 H 616.743 2.98928 -2.53277 0
M  V30 6253 H 618.44 2.79691 -2.87357 0
M  V30 6254 H 615.03 1.79014 -3.89425 0
M  V30 6255 H 619.214 1.35667 -4.77397 0
M  V30 6256 H 614.47 0.779733 -6.06408 0
M  V30 6257 H 618.644 0.35418 -6.95499 0
M  V30 6258 H 616.271 0.0599084 -7.60176 0
M  V30 6259 N 617.846 1.41785 0.688094 0
M  V30 6260 C 619.257 1.3701 1.26828 0
M  V30 6261 C 619.608 0.056835 1.96118 0
M  V30 6262 O 618.733 -0.84475 1.99231 0
M  V30 6263 C 619.328 2.48168 2.30648 0
M  V30 6264 C 617.887 2.46766 2.84224 0
M  V30 6265 C 617.034 2.27633 1.58361 0
M  V30 6266 H 619.985 1.51192 0.482351 0
M  V30 6267 H 620.006 2.17655 3.121 0
M  V30 6268 H 619.518 3.43735 1.80188 0
M  V30 6269 H 617.619 1.54978 3.3884 0
M  V30 6270 H 617.732 3.43342 3.34145 0
M  V30 6271 H 616.096 1.75648 1.84445 0
M  V30 6272 H 616.879 3.25238 1.09887 0
M  V30 6273 N 619.324 -0.923095 1.27737 0
M  V30 6274 C 620.735 -1.48626 1.12993 0
M  V30 6275 C 621.086 -1.94142 -0.283439 0
M  V30 6276 O 620.211 -1.81605 -1.17681 0
M  V30 6277 C 620.806 -2.70117 2.04505 0
M  V30 6278 C 619.365 -3.22642 1.93853 0
M  V30 6279 C 618.512 -1.95368 1.96791 0
M  V30 6280 H 621.463 -0.736737 1.40563 0
M  V30 6281 H 621.484 -3.4506 1.60356 0
M  V30 6282 H 620.996 -2.36959 3.07363 0
M  V30 6283 H 619.097 -3.60549 0.939968 0
M  V30 6284 H 619.21 -3.88525 2.80331 0
M  V30 6285 H 617.574 -2.12061 1.41076 0
M  V30 6286 H 618.357 -1.64517 3.01312 0
M  V30 6287 N 620.802 -1.09834 -1.13024 0
M  V30 6288 C 621.734 -0.699379 -2.18269 0
M  V30 6289 C 622.747 0.260841 -1.60697 0
M  V30 6290 O 623.936 0.0462538 -1.7844 0
M  V30 6291 C 621.036 -0.0104537 -3.38898 0
M  V30 6292 C 620.209 -0.993275 -4.25973 0
M  V30 6293 C 619.268 -0.336982 -5.2512 0
M  V30 6294 O 618.294 -0.985892 -5.60597 0
M  V30 6295 N 619.496 0.90716 -5.73368 0
M  V30 6296 H 622.261 -1.60486 -2.5311 0
M  V30 6297 H 619.822 -0.986337 -1.28386 0
M  V30 6298 H 621.814 0.43991 -4.02302 0
M  V30 6299 H 620.384 0.797335 -3.0226 0
M  V30 6300 H 619.604 -1.62208 -3.5928 0
M  V30 6301 H 620.892 -1.65876 -4.81002 0
M  V30 6302 H 620.29 1.45384 -5.46699 0
M  V30 6303 H 618.847 1.30077 -6.38689 0
M  V30 6304 N 622.28 1.30327 -0.886154 0
M  V30 6305 C 623.21 2.30549 -0.370028 0
M  V30 6306 C 624.191 1.61039 0.547751 0
M  V30 6307 O 625.376 1.8864 0.461353 0
M  V30 6308 C 622.506 3.44808 0.415275 0
M  V30 6309 C 621.46 4.26024 -0.41085 0
M  V30 6310 C 620.786 5.32347 0.501128 0
M  V30 6311 C 622.086 4.95433 -1.65359 0
M  V30 6312 H 623.78 2.73969 -1.20754 0
M  V30 6313 H 621.326 1.3171 -0.582097 0
M  V30 6314 H 623.279 4.13986 0.78699 0
M  V30 6315 H 622.003 3.00197 1.28644 0
M  V30 6316 H 620.662 3.58535 -0.764719 0
M  V30 6317 H 620.31 4.83982 1.37004 0
M  V30 6318 H 620.01 5.87581 -0.0478356 0
M  V30 6319 H 621.534 6.0438 0.869333 0
M  V30 6320 H 622.948 5.5712 -1.35239 0
M  V30 6321 H 621.345 5.60537 -2.14284 0
M  V30 6322 H 622.415 4.21493 -2.39733 0
M  V30 6323 N 623.758 0.647228 1.43697 0
M  V30 6324 C 624.706 -0.0600105 2.32523 0
M  V30 6325 C 625.7 -0.819277 1.48271 0
M  V30 6326 O 626.906 -0.730356 1.64517 0
M  V30 6327 H 623.281 -0.0381872 0.75103 0
M  V30 6328 H 625.252 0.706978 2.89904 0
M  V30 6329 C 624.001 -1.0169 3.32497 0
M  V30 6330 H 623.324 -0.442083 3.97348 0
M  V30 6331 H 624.764 -1.48095 3.97296 0
M  V30 6332 C 623.223 -2.11002 2.6264 0
M  V30 6333 O 623.753 -3.19302 2.4374 0
M  V30 6334 N 621.959 -1.87388 2.22113 0
M  V30 6335 H 621.506 -0.993174 2.37684 0
M  V30 6336 H 621.464 -2.60723 1.75701 0
M  V30 6337 N 625.236 -1.5273 0.388769 0
M  V30 6338 C 626.484 -2.01174 -0.193208 0
M  V30 6339 C 626.805 -1.27705 -1.47365 0
M  V30 6340 O 626.075 -0.396966 -1.91836 0
M  V30 6341 H 624.655 -0.743287 -0.0743871 0
M  V30 6342 H 627.317 -1.87826 0.520336 0
M  V30 6343 H 626.413 -3.09477 -0.403803 0
M  V30 6344 N 626.714 -0.118576 -1.57153 0
M  V30 6345 C 627.942 0.54726 -1.99531 0
M  V30 6346 C 628.357 1.60251 -0.998246 0
M  V30 6347 O 627.714 1.82498 0.00893106 0
M  V30 6348 C 627.765 1.17378 -3.41913 0
M  V30 6349 O 627.486 0.160703 -4.37805 0
M  V30 6350 C 628.987 1.92297 -3.9942 0
M  V30 6351 H 626.207 0.144919 -0.655164 0
M  V30 6352 H 628.751 -0.20479 -2.03472 0
M  V30 6353 H 626.906 1.87661 -3.38913 0
M  V30 6354 H 627.32 0.61586 -5.20872 0
M  V30 6355 H 628.794 2.31462 -5.01128 0
M  V30 6356 H 629.271 2.79801 -3.38538 0
M  V30 6357 H 629.877 1.26777 -4.05965 0
M  V30 6358 N 628.193 1.56834 0.155195 0
M  V30 6359 C 629.156 1.96748 1.17571 0
M  V30 6360 C 630.156 0.853006 1.3631 0
M  V30 6361 O 631.346 1.11978 1.33441 0
M  V30 6362 C 628.478 2.27631 2.53765 0
M  V30 6363 H 629.671 2.88085 0.833498 0
M  V30 6364 H 627.224 1.51141 0.398242 0
M  V30 6365 H 627.959 1.39059 2.92973 0
M  V30 6366 H 627.744 3.0888 2.41527 0
M  V30 6367 H 629.234 2.59377 3.27282 0
M  V30 6368 N 629.671 -0.424282 1.51781 0
M  V30 6369 C 630.619 -1.53649 1.74628 0
M  V30 6370 C 631.613 -1.57923 0.612922 0
M  V30 6371 O 632.819 -1.61511 0.794618 0
M  V30 6372 H 629.194 -0.510706 0.551981 0
M  V30 6373 H 631.165 -1.31558 2.67834 0
M  V30 6374 C 629.914 -2.91177 1.9003 0
M  V30 6375 H 629.237 -2.88625 2.76651 0
M  V30 6376 H 630.677 -3.6833 2.10021 0
M  V30 6377 C 629.136 -3.30303 0.663435 0
M  V30 6378 O 629.666 -4.01315 -0.175812 0
M  V30 6379 N 627.872 -2.86201 0.503723 0
M  V30 6380 H 627.419 -2.28583 1.18776 0
M  V30 6381 H 627.377 -3.12741 -0.322575 0
M  V30 6382 N 631.149 -1.42148 -0.680565 0
M  V30 6383 C 632.426 -1.32795 -1.43614 0
M  V30 6384 C 632.806 0.037415 -2.11067 0
M  V30 6385 O 632.154 1.05258 -2.02813 0
M  V30 6386 C 632.364 -2.49206 -2.44331 0
M  V30 6387 C 633.712 -2.91059 -3.09144 0
M  V30 6388 O 634.736 -2.49054 -2.54657 0
M  V30 6389 O 633.595 -3.63741 -4.07866 0
M  V30 6390 H 630.689 -0.523397 -0.640301 0
M  V30 6391 H 633.235 -1.54144 -0.709775 0
M  V30 6392 H 632.007 -3.40252 -1.93247 0
M  V30 6393 H 631.63 -2.29813 -3.24456 0
M  V30 6394 N 632.627 0.916307 -1.28225 0
M  V30 6395 C 633.855 1.69901 -1.18073 0
M  V30 6396 C 634.27 1.86988 0.260968 0
M  V30 6397 O 633.627 1.39505 1.17663 0
M  V30 6398 C 633.678 3.09254 -1.87201 0
M  V30 6399 O 633.399 2.92959 -3.2574 0
M  V30 6400 C 634.9 4.0362 -1.83319 0
M  V30 6401 H 632.12 0.531181 -0.409985 0
M  V30 6402 H 634.664 1.14703 -1.69303 0
M  V30 6403 H 632.819 3.61277 -1.39848 0
M  V30 6404 H 633.233 3.81139 -3.60324 0
M  V30 6405 H 634.707 4.98873 -2.36282 0
M  V30 6406 H 635.184 4.3176 -0.805007 0
M  V30 6407 H 635.79 3.57524 -2.3034 0
M  V30 6408 N 634.105 1.10431 1.1244 0
M  V30 6409 C 635.068 0.756542 2.16354 0
M  V30 6410 C 636.068 -0.21899 1.59302 0
M  V30 6411 O 637.258 0.00415969 1.742 0
M  V30 6412 C 634.39 0.120612 3.40687 0
M  V30 6413 H 635.583 1.67696 2.48632 0
M  V30 6414 H 633.136 0.904832 1.27446 0
M  V30 6415 H 633.871 -0.810536 3.14008 0
M  V30 6416 H 633.656 0.822693 3.83372 0
M  V30 6417 H 635.146 -0.106945 4.17463 0
M  V30 6418 N 635.583 -1.29855 0.893053 0
M  V30 6419 C 636.831 -1.9544 0.514566 0
M  V30 6420 C 637.152 -1.70795 -0.940959 0
M  V30 6421 O 636.422 -1.03601 -1.66264 0
M  V30 6422 H 635.002 -0.723137 0.187302 0
M  V30 6423 H 637.664 -1.58234 1.13789 0
M  V30 6424 H 636.76 -3.04341 0.691581 0
M  V30 6425 N 637.061 -0.65484 -1.43351 0
M  V30 6426 C 638.472 -0.248506 -1.85039 0
M  V30 6427 C 638.823 1.20526 -1.54816 0
M  V30 6428 O 637.948 1.92016 -0.99794 0
M  V30 6429 C 638.543 -0.444241 -3.35875 0
M  V30 6430 C 637.102 -0.0922108 -3.76287 0
M  V30 6431 C 636.249 -0.746327 -2.67068 0
M  V30 6432 H 639.2 -0.8584 -1.33481 0
M  V30 6433 H 639.221 0.309762 -3.79237 0
M  V30 6434 H 638.733 -1.50239 -3.5784 0
M  V30 6435 H 636.834 0.96328 -3.59933 0
M  V30 6436 H 636.947 -0.518807 -4.76283 0
M  V30 6437 H 635.311 -0.179416 -2.54067 0
M  V30 6438 H 636.094 -1.80754 -2.91861 0
M  V30 6439 N 638.539 1.52521 -0.396863 0
M  V30 6440 C 639.449 2.30403 0.44178 0
M  V30 6441 C 640.465 1.37625 1.06468 0
M  V30 6442 O 641.641 1.70697 1.06886 0
M  V30 6443 C 638.706 3.1013 1.54986 0
M  V30 6444 C 637.767 4.18628 0.951279 0
M  V30 6445 C 637 4.94543 2.00655 0
M  V30 6446 O 637.223 4.70629 3.22281 0
M  V30 6447 O 636.157 5.797 1.61962 0
M  V30 6448 H 639.983 3.03087 -0.192892 0
M  V30 6449 H 637.568 1.48537 -0.16038 0
M  V30 6450 H 639.45 3.59816 2.19341 0
M  V30 6451 H 638.125 2.40251 2.16935 0
M  V30 6452 H 637.032 3.73119 0.270773 0
M  V30 6453 H 638.365 4.90763 0.375887 0
M  V30 6454 N 640.017 0.126909 1.57088 0
M  V30 6455 C 640.947 -0.816847 2.18746 0
M  V30 6456 C 641.928 -1.27161 1.12979 0
M  V30 6457 O 643.113 -1.33279 1.41246 0
M  V30 6458 C 640.243 -2.06398 2.79315 0
M  V30 6459 C 639.197 -1.74673 3.90735 0
M  V30 6460 C 638.523 -3.06482 4.38147 0
M  V30 6461 C 639.823 -1.0089 5.12463 0
M  V30 6462 H 641.517 -0.303032 2.97863 0
M  V30 6463 H 639.063 -0.144314 1.43275 0
M  V30 6464 H 641.016 -2.72885 3.2111 0
M  V30 6465 H 639.74 -2.60118 1.975 0
M  V30 6466 H 638.399 -1.10572 3.49527 0
M  V30 6467 H 638.047 -3.58152 3.5318 0
M  V30 6468 H 637.747 -2.86025 5.13287 0
M  V30 6469 H 639.271 -3.74073 4.82599 0
M  V30 6470 H 640.685 -1.57546 5.51228 0
M  V30 6471 H 639.082 -0.905006 5.93237 0
M  V30 6472 H 640.152 0.00297335 4.849 0
M  V30 6473 N 641.495 -1.56914 -0.146875 0
M  V30 6474 C 642.906 -1.72799 -0.706928 0
M  V30 6475 C 643.257 -0.741329 -1.81656 0
M  V30 6476 O 642.382 0.0920162 -2.16204 0
M  V30 6477 C 642.977 -3.13317 -1.28911 0
M  V30 6478 C 641.536 -3.30803 -1.79573 0
M  V30 6479 C 640.683 -2.68725 -0.684252 0
M  V30 6480 H 643.634 -1.58504 0.0787931 0
M  V30 6481 H 643.655 -3.13323 -2.15891 0
M  V30 6482 H 643.167 -3.85104 -0.481284 0
M  V30 6483 H 641.268 -2.64012 -2.62923 0
M  V30 6484 H 641.381 -4.38754 -1.92436 0
M  V30 6485 H 639.745 -2.29196 -1.11091 0
M  V30 6486 H 640.528 -3.43117 0.112134 0
M  V30 6487 N 642.974 0.416227 -1.52004 0
M  V30 6488 C 644.251 1.17637 -1.56272 0
M  V30 6489 C 644.631 2.08352 -0.339493 0
M  V30 6490 O 643.979 2.1833 0.674124 0
M  V30 6491 C 644.189 1.95986 -2.88774 0
M  V30 6492 C 645.537 2.52299 -3.41512 0
M  V30 6493 O 646.561 2.06174 -2.90467 0
M  V30 6494 O 645.42 3.3648 -4.30631 0
M  V30 6495 H 642.514 0.536726 -0.629169 0
M  V30 6496 H 645.06 0.423583 -1.64329 0
M  V30 6497 H 643.832 1.29487 -3.69254 0
M  V30 6498 H 643.455 2.78285 -2.83978 0
M  V30 6499 N 644.452 1.42507 0.673017 0
M  V30 6500 C 645.863 1.38347 1.25367 0
M  V30 6501 C 646.214 0.0776327 1.96046 0
M  V30 6502 O 645.339 -0.823571 2.00116 0
M  V30 6503 C 645.934 2.506 2.28002 0
M  V30 6504 C 644.493 2.49767 2.81591 0
M  V30 6505 C 643.64 2.293 1.55938 0
M  V30 6506 H 646.591 1.51695 0.466288 0
M  V30 6507 H 646.612 2.20953 3.09774 0
M  V30 6508 H 646.124 3.45627 1.76532 0
M  V30 6509 H 644.225 1.58563 3.37177 0
M  V30 6510 H 644.338 3.46867 3.30485 0
M  V30 6511 H 642.702 1.77594 1.82572 0
M  V30 6512 H 643.485 3.26385 1.06431 0
M  V30 6513 N 645.93 -0.909495 1.28709 0
M  V30 6514 C 646.86 -2.0291 1.15542 0
M  V30 6515 C 647.841 -1.7002 0.0521017 0
M  V30 6516 O 649.026 -1.92835 0.229849 0
M  V30 6517 C 646.156 -3.37458 0.820935 0
M  V30 6518 C 645.11 -3.84524 1.87949 0
M  V30 6519 C 644.436 -5.16086 1.39854 0
M  V30 6520 C 645.736 -4.05918 3.28676 0
M  V30 6521 H 647.43 -2.14183 2.09203 0
M  V30 6522 H 644.976 -1.02913 1.00722 0
M  V30 6523 H 646.929 -4.1528 0.715571 0
M  V30 6524 H 645.653 -3.26249 -0.151374 0
M  V30 6525 H 644.312 -3.08911 1.97408 0
M  V30 6526 H 643.96 -5.01284 0.41518 0
M  V30 6527 H 643.66 -5.48547 2.1064 0
M  V30 6528 H 645.184 -5.96459 1.30649 0
M  V30 6529 H 646.598 -4.74252 3.22115 0
M  V30 6530 H 644.995 -4.49717 3.97334 0
M  V30 6531 H 646.065 -3.10583 3.72379 0
M  V30 6532 N 647.408 -1.11026 -1.11852 0
M  V30 6533 C 648.656 -0.854769 -1.83134 0
M  V30 6534 C 648.977 0.621375 -1.84835 0
M  V30 6535 O 648.247 1.45129 -1.31584 0
M  V30 6536 H 646.827 -0.313229 -0.678157 0
M  V30 6537 H 649.489 -1.40178 -1.35411 0
M  V30 6538 H 648.585 -1.22311 -2.87135 0
M  V30 6539 N 648.886 1.2938 -0.899927 0
M  V30 6540 C 650.134 1.95164 -0.524924 0
M  V30 6541 C 650.455 1.71292 0.931888 0
M  V30 6542 O 649.725 1.04481 1.65712 0
M  V30 6543 H 648.305 0.722133 -0.191135 0
M  V30 6544 H 650.967 1.57628 -1.14627 0
M  V30 6545 H 650.063 3.0397 -0.707711 0
M  V30 6546 N 650.364 0.662433 1.43002 0
M  V30 6547 C 651.294 -0.00979809 2.33498 0
M  V30 6548 C 652.275 -0.802329 1.49989 0
M  V30 6549 O 653.46 -0.761964 1.78627 0
M  V30 6550 C 650.59 -0.970446 3.33466 0
M  V30 6551 C 649.544 -0.287383 4.27034 0
M  V30 6552 C 648.87 -1.36012 5.17112 0
M  V30 6553 C 650.17 0.82595 5.15728 0
M  V30 6554 H 651.864 0.745959 2.89958 0
M  V30 6555 H 649.41 0.360172 1.39423 0
M  V30 6556 H 651.363 -1.44971 3.95679 0
M  V30 6557 H 650.087 -1.75748 2.75282 0
M  V30 6558 H 648.746 0.17152 3.66199 0
M  V30 6559 H 648.394 -2.13882 4.55262 0
M  V30 6560 H 648.094 -0.908276 5.80538 0
M  V30 6561 H 649.618 -1.84056 5.82199 0
M  V30 6562 H 651.032 0.42845 5.71697 0
M  V30 6563 H 649.429 1.20282 5.87922 0
M  V30 6564 H 650.499 1.68003 4.54866 0
M  V30 6565 N 651.842 -1.52309 0.404946 0
M  V30 6566 C 652.772 -2.29805 -0.41376 0
M  V30 6567 C 653.753 -1.3384 -1.0498 0
M  V30 6568 O 654.938 -1.62745 -1.05961 0
M  V30 6569 C 652.068 -3.11639 -1.53292 0
M  V30 6570 C 651.022 -4.15616 -1.02211 0
M  V30 6571 C 650.348 -4.8577 -2.23455 0
M  V30 6572 C 651.648 -5.2224 -0.0790725 0
M  V30 6573 H 653.342 -2.98493 0.232878 0
M  V30 6574 H 650.888 -1.43552 0.113441 0
M  V30 6575 H 652.841 -3.64618 -2.11262 0
M  V30 6576 H 651.565 -2.40712 -2.20738 0
M  V30 6577 H 650.224 -3.63641 -0.46484 0
M  V30 6578 H 649.872 -4.11376 -2.89445 0
M  V30 6579 H 649.572 -5.56058 -1.89929 0
M  V30 6580 H 651.096 -5.4156 -2.82038 0
M  V30 6581 H 652.51 -5.70485 -0.567438 0
M  V30 6582 H 650.907 -5.99867 0.167167 0
M  V30 6583 H 651.977 -4.77078 0.867447 0
M  V30 6584 N 653.32 -0.135238 -1.57019 0
M  V30 6585 C 654.597 0.563227 -1.87316 0
M  V30 6586 C 654.977 1.83749 -1.03921 0
M  V30 6587 O 654.325 2.2817 -0.122675 0
M  V30 6588 C 654.535 0.840031 -3.3874 0
M  V30 6589 C 655.883 1.18598 -4.077 0
M  V30 6590 O 656.907 0.92977 -3.43851 0
M  V30 6591 O 655.766 1.66758 -5.20436 0
M  V30 6592 H 652.86 0.285971 -0.775983 0
M  V30 6593 H 655.406 -0.170965 -1.68837 0
M  V30 6594 H 654.178 -0.0622785 -3.9125 0
M  V30 6595 H 653.801 1.62882 -3.62706 0
M  V30 6596 N 654.798 1.5699 0.138552 0
M  V30 6597 C 655.708 2.02174 1.19008 0
M  V30 6598 C 656.724 0.938622 1.46512 0
M  V30 6599 O 657.9 1.24872 1.58016 0
M  V30 6600 C 654.965 2.40045 2.50159 0
M  V30 6601 C 654.026 3.62346 2.30226 0
M  V30 6602 C 653.259 3.98401 3.55123 0
M  V30 6603 O 653.482 3.35019 4.61647 0
M  V30 6604 O 652.416 4.91606 3.47285 0
M  V30 6605 H 656.242 2.91954 0.836452 0
M  V30 6606 H 653.827 1.45293 0.347907 0
M  V30 6607 H 655.709 2.65225 3.27465 0
M  V30 6608 H 654.384 1.53417 2.85035 0
M  V30 6609 H 653.291 3.42341 1.50843 0
M  V30 6610 H 654.624 4.49617 2.00262 0
M  V30 6611 N 656.276 -0.40816 1.52223 0
M  V30 6612 C 657.239 -1.48 1.7501 0
M  V30 6613 C 658.239 -1.48367 0.619996 0
M  V30 6614 O 659.429 -1.49874 0.887881 0
M  V30 6615 C 656.561 -2.87403 1.83336 0
M  V30 6616 H 657.754 -1.29086 2.70697 0
M  V30 6617 H 655.307 -0.638715 1.42654 0
M  V30 6618 H 656.042 -3.11686 0.895677 0
M  V30 6619 H 655.827 -2.8854 2.65494 0
M  V30 6620 H 657.317 -3.65103 2.02705 0
M  V30 6621 N 657.755 -1.42862 -0.66545 0
M  V30 6622 C 658.688 -1.41509 -1.79026 0
M  V30 6623 C 659.666 -0.278106 -1.60204 0
M  V30 6624 O 660.85 -0.469792 -1.82552 0
M  V30 6625 C 657.977 -1.21494 -3.1616 0
M  V30 6626 C 657.023 -2.38308 -3.53711 0
M  V30 6627 S 657.856 -4.00852 -3.55075 0
M  V30 6628 C 659.012 -3.83197 -4.94885 0
M  V30 6629 H 659.245 -2.36691 -1.79902 0
M  V30 6630 H 656.778 -1.29746 -0.836977 0
M  V30 6631 H 658.736 -1.10633 -3.95311 0
M  V30 6632 H 657.397 -0.27881 -3.1286 0
M  V30 6633 H 656.59 -2.20076 -4.53412 0
M  V30 6634 H 656.192 -2.45732 -2.81943 0
M  V30 6635 H 658.484 -3.44765 -5.83218 0
M  V30 6636 H 659.427 -4.82607 -5.18166 0
M  V30 6637 H 659.835 -3.15884 -4.67843 0
M  V30 6638 N 659.233 0.902656 -1.29189 0
M  V30 6639 C 660.163 2.02294 -1.16616 0
M  V30 6640 C 661.144 1.6999 -0.0611175 0
M  V30 6641 O 662.329 1.9271 -0.240072 0
M  V30 6642 C 659.459 3.37018 -0.83882 0
M  V30 6643 C 658.413 3.83522 -1.89986 0
M  V30 6644 C 657.739 5.15337 -1.42589 0
M  V30 6645 C 659.039 4.04169 -3.30824 0
M  V30 6646 H 660.733 2.13071 -2.10336 0
M  V30 6647 H 658.279 1.02378 -1.01266 0
M  V30 6648 H 660.232 4.14895 -0.737584 0
M  V30 6649 H 658.956 3.26325 0.134071 0
M  V30 6650 H 657.615 3.07859 -1.99043 0
M  V30 6651 H 657.263 5.01056 -0.441759 0
M  V30 6652 H 656.963 5.47423 -2.13547 0
M  V30 6653 H 658.487 5.95758 -1.3381 0
M  V30 6654 H 659.901 4.72537 -3.24626 0
M  V30 6655 H 658.298 4.47604 -3.99713 0
M  V30 6656 H 659.368 3.08604 -3.74021 0
M  V30 6657 N 660.711 1.11618 1.11262 0
M  V30 6658 C 661.988 0.777876 1.79467 0
M  V30 6659 C 662.368 -0.733774 1.97937 0
M  V30 6660 O 661.716 -1.66443 1.56554 0
M  V30 6661 C 661.926 1.5431 3.13032 0
M  V30 6662 C 663.274 1.72357 3.88044 0
M  V30 6663 O 664.298 1.5075 3.22727 0
M  V30 6664 O 663.157 2.08276 5.05256 0
M  V30 6665 H 660.251 0.282018 0.777428 0
M  V30 6666 H 662.797 1.21971 1.17988 0
M  V30 6667 H 661.569 2.57132 2.94956 0
M  V30 6668 H 661.192 1.09495 3.82226 0
M  V30 6669 N 662.189 -1.289 0.906776 0
M  V30 6670 C 663.099 -2.31256 0.394707 0
M  V30 6671 C 664.115 -1.66231 -0.514121 0
M  V30 6672 O 665.291 -1.97347 -0.401994 0
M  V30 6673 C 662.356 -3.44792 -0.363191 0
M  V30 6674 C 661.417 -4.25391 0.578012 0
M  V30 6675 C 660.65 -5.33506 -0.143811 0
M  V30 6676 O 660.873 -5.53786 -1.36665 0
M  V30 6677 O 659.807 -5.99673 0.5173 0
M  V30 6678 H 663.633 -2.77051 1.24405 0
M  V30 6679 H 661.218 -1.33466 0.671346 0
M  V30 6680 H 663.1 -4.139 -0.791503 0
M  V30 6681 H 661.775 -3.01093 -1.18848 0
M  V30 6682 H 660.682 -3.58899 1.05558 0
M  V30 6683 H 662.015 -4.72752 1.36992 0
M  V30 6684 N 663.667 -0.670007 -1.42649 0
M  V30 6685 C 664.916 -0.187526 -2.00826 0
M  V30 6686 C 665.229 1.21142 -1.53571 0
M  V30 6687 O 666.435 1.79001 -2.04134 0
M  V30 6688 C 664.891 -0.284409 -3.58774 0
M  V30 6689 C 664.499 -1.6871 -4.15019 0
M  V30 6690 C 666.243 0.139605 -4.2427 0
M  V30 6691 C 664.15 -1.73701 -5.65316 0
M  V30 6692 H 663.08 -0.0663468 -0.751075 0
M  V30 6693 H 665.731 -0.834492 -1.63427 0
M  V30 6694 H 664.113 0.430364 -3.93655 0
M  V30 6695 H 665.287 -2.42857 -3.91608 0
M  V30 6696 H 663.602 -2.05855 -3.61957 0
M  V30 6697 H 666.199 0.122398 -5.3456 0
M  V30 6698 H 666.542 1.17403 -3.99402 0
M  V30 6699 H 667.075 -0.523995 -3.94334 0
M  V30 6700 H 663.814 -2.75109 -5.94975 0
M  V30 6701 H 663.334 -1.03903 -5.90732 0
M  V30 6702 H 665.013 -1.48829 -6.2965 0
M  V30 6703 N 665.145 1.52092 -0.413018 0
M  V30 6704 C 666.37 2.06756 0.163338 0
M  V30 6705 C 666.795 1.28073 1.37764 0
M  V30 6706 O 666.153 0.312015 1.78595 0
M  V30 6707 C 666.201 3.57278 0.488322 0
M  V30 6708 O 665.305 3.80986 1.57871 0
M  V30 6709 H 664.646 0.663882 0.0125068 0
M  V30 6710 H 667.176 1.95988 -0.587339 0
M  V30 6711 H 667.186 4.01125 0.745836 0
M  V30 6712 H 665.861 4.13978 -0.399327 0
M  V30 6713 H 664.438 3.49017 1.31306 0
M  V30 6714 N 666.623 0.143563 1.56945 0
M  V30 6715 C 667.553 -0.7936 2.196 0
M  V30 6716 C 668.534 -1.25955 1.14321 0
M  V30 6717 O 669.719 -1.31773 1.42651 0
M  V30 6718 C 666.849 -2.03424 2.81489 0
M  V30 6719 C 665.803 -1.70519 3.92565 0
M  V30 6720 C 665.129 -3.01817 4.41373 0
M  V30 6721 C 666.429 -0.95449 5.13504 0
M  V30 6722 H 668.123 -0.271423 2.98167 0
M  V30 6723 H 665.669 -0.12911 1.4342 0
M  V30 6724 H 667.622 -2.69463 3.23987 0
M  V30 6725 H 666.346 -2.58008 2.00248 0
M  V30 6726 H 665.005 -1.06859 3.5068 0
M  V30 6727 H 664.653 -3.54386 3.56959 0
M  V30 6728 H 664.353 -2.80565 5.16292 0
M  V30 6729 H 665.877 -3.68934 4.86539 0
M  V30 6730 H 667.291 -1.5169 5.52868 0
M  V30 6731 H 665.688 -0.842035 5.94163 0
M  V30 6732 H 666.758 0.0544033 4.84869 0
M  V30 6733 N 668.101 -1.57061 -0.130224 0
M  V30 6734 C 669.034 -1.94698 -1.19029 0
M  V30 6735 C 670.012 -0.815074 -1.40696 0
M  V30 6736 O 671.196 -1.07223 -1.55034 0
M  V30 6737 C 668.323 -2.23352 -2.5462 0
M  V30 6738 C 667.369 -3.45945 -2.49448 0
M  V30 6739 S 668.202 -4.98927 -1.94505 0
M  V30 6740 C 669.358 -5.30721 -3.31792 0
M  V30 6741 H 669.591 -2.84308 -0.869272 0
M  V30 6742 H 667.124 -1.50688 -0.336531 0
M  V30 6743 H 669.082 -2.40539 -3.32643 0
M  V30 6744 H 667.743 -1.34376 -2.83905 0
M  V30 6745 H 666.936 -3.63324 -3.49302 0
M  V30 6746 H 666.538 -3.28086 -1.79543 0
M  V30 6747 H 668.83 -5.25215 -4.27966 0
M  V30 6748 H 669.773 -6.32048 -3.19251 0
M  V30 6749 H 670.181 -4.5821 -3.29703 0
M  V30 6750 N 669.579 0.400081 -1.52437 0
M  V30 6751 C 670.856 1.15973 -1.57511 0
M  V30 6752 C 671.236 2.0798 -0.361572 0
M  V30 6753 O 670.584 2.19032 0.650929 0
M  V30 6754 C 670.794 1.92912 -2.90837 0
M  V30 6755 C 672.142 2.48662 -3.44169 0
M  V30 6756 O 673.166 2.03081 -2.92637 0
M  V30 6757 O 672.025 3.31894 -4.34176 0
M  V30 6758 H 669.119 0.530023 -0.634827 0
M  V30 6759 H 671.665 0.40613 -1.64769 0
M  V30 6760 H 670.437 1.25564 -3.70607 0
M  V30 6761 H 670.06 2.75257 -2.86913 0
M  V30 6762 N 671.057 1.43213 0.657864 0
M  V30 6763 C 671.987 1.50815 1.78262 0
M  V30 6764 C 672.968 0.363211 1.66177 0
M  V30 6765 O 674.153 0.579806 1.85343 0
M  V30 6766 C 671.283 1.42625 3.16663 0
M  V30 6767 C 670.237 2.5532 3.43505 0
M  V30 6768 C 669.563 2.32184 4.81658 0
M  V30 6769 C 670.863 3.97583 3.38711 0
M  V30 6770 H 672.557 2.44954 1.72157 0
M  V30 6771 H 670.103 1.17896 0.82683 0
M  V30 6772 H 672.056 1.46548 3.95097 0
M  V30 6773 H 670.78 0.449877 3.23487 0
M  V30 6774 H 669.439 2.50742 2.6744 0
M  V30 6775 H 669.087 1.32801 4.85153 0
M  V30 6776 H 668.787 3.07724 5.00579 0
M  V30 6777 H 670.311 2.37883 5.62356 0
M  V30 6778 H 671.725 4.03673 4.07089 0
M  V30 6779 H 670.122 4.73112 3.69168 0
M  V30 6780 H 671.192 4.23049 2.36976 0
M  V30 6781 N 672.536 -0.895792 1.29666 0
M  V30 6782 C 673.499 -1.98189 1.15124 0
M  V30 6783 C 674.499 -1.60572 0.0855717 0
M  V30 6784 O 675.689 -1.70991 0.332826 0
M  V30 6785 C 672.821 -3.32289 0.761372 0
M  V30 6786 H 674.014 -2.12518 2.11603 0
M  V30 6787 H 671.567 -1.0808 1.12908 0
M  V30 6788 H 672.302 -3.23662 -0.203393 0
M  V30 6789 H 672.087 -3.60958 1.53139 0
M  V30 6790 H 673.577 -4.1198 0.682792 0
M  V30 6791 N 674.014 -1.12206 -1.10668 0
M  V30 6792 C 675.263 -0.870595 -1.81944 0
M  V30 6793 C 675.576 0.605447 -1.85994 0
M  V30 6794 O 676.782 0.973433 -2.53449 0
M  V30 6795 C 675.238 -1.50783 -3.26791 0
M  V30 6796 C 674.846 -3.01849 -3.31046 0
M  V30 6797 C 676.59 -1.33653 -4.02911 0
M  V30 6798 C 674.497 -3.58518 -4.70339 0
M  V30 6799 H 673.427 -0.322043 -0.681765 0
M  V30 6800 H 676.078 -1.34827 -1.24475 0
M  V30 6801 H 674.46 -0.957825 -3.84242 0
M  V30 6802 H 675.634 -3.63321 -2.83433 0
M  V30 6803 H 673.949 -3.18346 -2.68411 0
M  V30 6804 H 676.546 -1.73416 -5.05797 0
M  V30 6805 H 676.889 -0.279949 -4.15358 0
M  V30 6806 H 677.422 -1.85562 -3.51868 0
M  V30 6807 H 674.161 -4.63925 -4.63091 0
M  V30 6808 H 673.681 -3.01819 -5.18329 0
M  V30 6809 H 675.36 -3.57434 -5.39305 0
M  V30 6810 N 675.492 1.28418 -0.913599 0
M  V30 6811 C 676.402 2.31043 -0.406965 0
M  V30 6812 C 677.418 1.66501 0.505298 0
M  V30 6813 O 678.594 1.97558 0.391522 0
M  V30 6814 C 675.659 3.4498 0.344901 0
M  V30 6815 C 674.72 4.25078 -0.600563 0
M  V30 6816 C 673.953 5.33575 0.115516 0
M  V30 6817 O 674.176 5.54503 1.33727 0
M  V30 6818 O 673.11 5.9939 -0.549095 0
M  V30 6819 H 676.936 2.76387 -1.25873 0
M  V30 6820 H 674.521 1.33109 -0.678415 0
M  V30 6821 H 676.403 4.14314 0.769542 0
M  V30 6822 H 675.078 3.01719 1.1725 0
M  V30 6823 H 673.985 3.58334 -1.0746 0
M  V30 6824 H 675.318 4.72018 -1.39497 0
M  V30 6825 N 676.97 0.677563 1.42291 0
M  V30 6826 C 677.88 0.000962654 2.346 0
M  V30 6827 C 678.896 -0.785833 1.55244 0
M  V30 6828 O 680.072 -0.727523 1.87801 0
M  V30 6829 C 677.137 -0.936746 3.33805 0
M  V30 6830 C 676.198 -0.144173 4.29058 0
M  V30 6831 C 675.431 -1.03722 5.23524 0
M  V30 6832 O 675.654 -2.27675 5.22992 0
M  V30 6833 O 674.588 -0.496542 5.99848 0
M  V30 6834 H 678.414 0.761397 2.94001 0
M  V30 6835 H 675.999 0.43781 1.42841 0
M  V30 6836 H 677.881 -1.47497 3.94744 0
M  V30 6837 H 676.556 -1.67698 2.76874 0
M  V30 6838 H 675.463 0.438224 3.71524 0
M  V30 6839 H 676.796 0.55701 4.89038 0
M  V30 6840 N 678.448 -1.51871 0.421078 0
M  V30 6841 C 679.696 -2.01539 -0.150492 0
M  V30 6842 C 680.017 -1.30803 -1.44623 0
M  V30 6843 O 679.287 -0.437568 -1.90951 0
M  V30 6844 H 677.867 -0.744698 -0.0586041 0
M  V30 6845 H 680.529 -1.8668 0.560059 0
M  V30 6846 H 679.625 -3.10264 -0.338068 0
M  V30 6847 N 679.926 -0.151884 -1.56866 0
M  V30 6848 C 681.173 0.498004 -1.96281 0
M  V30 6849 C 681.501 1.64551 -1.03698 0
M  V30 6850 O 680.756 1.95585 -0.0671497 0
M  V30 6851 C 681.055 1.04074 -3.41911 0
M  V30 6852 C 680.721 0.0111688 -4.50899 0
M  V30 6853 C 679.383 -0.271844 -4.80432 0
M  V30 6854 C 681.735 -0.68869 -5.1663 0
M  V30 6855 C 679.063 -1.26044 -5.73001 0
M  V30 6856 C 681.415 -1.66613 -6.10264 0
M  V30 6857 C 680.079 -1.9568 -6.38174 0
M  V30 6858 H 679.349 0.182233 -0.718242 0
M  V30 6859 H 681.996 -0.239746 -1.89993 0
M  V30 6860 H 680.301 1.85592 -3.45055 0
M  V30 6861 H 681.998 1.55224 -3.69738 0
M  V30 6862 H 678.588 0.241932 -4.27917 0
M  V30 6863 H 682.772 -0.48324 -4.93942 0
M  V30 6864 H 678.028 -1.49202 -5.92915 0
M  V30 6865 H 682.202 -2.21392 -6.60272 0
M  V30 6866 H 679.829 -2.72434 -7.09707 0
M  V30 6867 N 681.404 1.57128 0.121893 0
M  V30 6868 C 682.352 2.01109 1.16868 0
M  V30 6869 C 683.346 0.907532 1.43039 0
M  V30 6870 O 684.552 1.09274 1.43036 0
M  V30 6871 H 680.927 0.640539 0.393971 0
M  V30 6872 H 682.898 2.88261 0.771224 0
M  V30 6873 C 681.647 2.42887 2.48799 0
M  V30 6874 H 680.97 3.2737 2.29498 0
M  V30 6875 H 682.41 2.77461 3.20611 0
M  V30 6876 C 680.869 1.29137 3.11168 0
M  V30 6877 O 681.399 0.605756 3.97106 0
M  V30 6878 N 679.605 1.04916 2.71 0
M  V30 6879 H 679.152 1.60848 2.01211 0
M  V30 6880 H 679.11 0.290016 3.1306 0
M  V30 6881 N 682.882 -0.391992 1.52647 0
M  V30 6882 C 684.293 -0.970064 1.5952 0
M  V30 6883 C 684.644 -1.91059 0.446207 0
M  V30 6884 O 683.769 -2.12062 -0.431125 0
M  V30 6885 C 684.364 -1.76614 2.89125 0
M  V30 6886 C 682.923 -2.29396 2.9842 0
M  V30 6887 C 682.07 -1.09864 2.54608 0
M  V30 6888 H 685.021 -0.171638 1.57769 0
M  V30 6889 H 685.042 -2.62511 2.75442 0
M  V30 6890 H 684.554 -1.08135 3.72731 0
M  V30 6891 H 682.655 -3.01196 2.19344 0
M  V30 6892 H 682.768 -2.59088 4.03002 0
M  V30 6893 H 681.132 -1.45777 2.08857 0
M  V30 6894 H 681.915 -0.429249 3.40606 0
M  V30 6895 N 684.36 -1.4356 -0.65026 0
M  V30 6896 C 685.606 -1.45549 -1.41221 0
M  V30 6897 C 685.939 -0.0805472 -1.94033 0
M  V30 6898 O 685.214 0.899043 -1.72475 0
M  V30 6899 C 685.497 -2.50028 -2.59148 0
M  V30 6900 C 685.35 -3.96808 -2.1181 0
M  V30 6901 C 686.669 -2.51212 -3.61359 0
M  V30 6902 H 683.788 -0.529967 -0.512156 0
M  V30 6903 H 686.43 -1.75127 -0.736933 0
M  V30 6904 H 684.58 -2.24937 -3.16758 0
M  V30 6905 H 686.252 -4.32966 -1.59178 0
M  V30 6906 H 684.495 -4.09498 -1.43156 0
M  V30 6907 H 685.166 -4.6553 -2.96625 0
M  V30 6908 H 687.642 -2.73583 -3.13515 0
M  V30 6909 H 686.518 -3.26252 -4.41419 0
M  V30 6910 H 686.779 -1.54701 -4.1415 0
M  V30 6911 N 685.838 0.888903 -1.30139 0
M  V30 6912 C 686.77 1.99972 -1.11999 0
M  V30 6913 C 687.783 1.62673 -0.0643619 0
M  V30 6914 O 688.972 1.75788 -0.309983 0
M  V30 6915 C 686.072 3.31904 -0.685059 0
M  V30 6916 C 685.245 3.97665 -1.82158 0
M  V30 6917 C 684.304 5.07894 -1.37585 0
M  V30 6918 O 683.33 5.2974 -2.08241 0
M  V30 6919 N 684.532 5.7995 -0.252697 0
M  V30 6920 H 687.297 2.16085 -2.07671 0
M  V30 6921 H 684.858 1.06175 -1.22223 0
M  V30 6922 H 686.85 4.03005 -0.369964 0
M  V30 6923 H 685.42 3.12084 0.179507 0
M  V30 6924 H 684.64 3.19787 -2.305 0
M  V30 6925 H 685.928 4.3834 -2.58332 0
M  V30 6926 H 685.326 5.647 0.336141 0
M  V30 6927 H 683.883 6.518 0.00296813 0
M  V30 6928 N 687.317 1.12792 1.10072 0
M  V30 6929 C 688.28 0.802264 2.14701 0
M  V30 6930 C 689.28 -0.18515 1.59731 0
M  V30 6931 O 690.47 0.041109 1.74151 0
M  V30 6932 C 687.602 0.19285 3.40354 0
M  V30 6933 H 688.795 1.72932 2.45019 0
M  V30 6934 H 686.348 0.931662 1.25498 0
M  V30 6935 H 687.083 -0.743748 3.15656 0
M  V30 6936 H 686.868 0.903827 3.81541 0
M  V30 6937 H 688.358 -0.0183704 4.17596 0
M  V30 6938 N 688.795 -1.27931 0.920396 0
M  V30 6939 C 690.02 -1.99343 0.572478 0
M  V30 6940 C 690.445 -1.68267 -0.840696 0
M  V30 6941 O 689.803 -0.918805 -1.56294 0
M  V30 6942 C 689.851 -3.51698 0.796284 0
M  V30 6943 O 688.955 -4.12157 -0.141602 0
M  V30 6944 H 688.296 -0.626065 0.221221 0
M  V30 6945 H 690.826 -1.62921 1.23765 0
M  V30 6946 H 690.836 -4.01793 0.708984 0
M  V30 6947 H 689.511 -3.73649 1.82644 0
M  V30 6948 H 688.088 -3.729 -0.005007 0
M  V30 6949 N 690.273 -0.685099 -1.4193 0
M  V30 6950 C 691.205 0.0258679 -2.29185 0
M  V30 6951 C 692.218 0.755076 -1.44231 0
M  V30 6952 O 693.407 0.60752 -1.67844 0
M  V30 6953 C 690.507 1.06055 -3.21878 0
M  V30 6954 C 689.68 0.403088 -4.35539 0
M  V30 6955 C 688.739 1.33895 -5.0888 0
M  V30 6956 O 687.765 0.835326 -5.63037 0
M  V30 6957 N 688.967 2.6718 -5.15359 0
M  V30 6958 H 691.732 -0.723201 -2.90843 0
M  V30 6959 H 689.293 -0.53031 -1.52968 0
M  V30 6960 H 691.285 1.68813 -3.6781 0
M  V30 6961 H 689.855 1.71126 -2.616 0
M  V30 6962 H 689.075 -0.404185 -3.92122 0
M  V30 6963 H 690.363 -0.0545098 -5.08771 0
M  V30 6964 H 689.761 3.10626 -4.72788 0
M  V30 6965 H 688.318 3.25159 -5.64903 0
M  V30 6966 N 691.751 1.51645 -0.429126 0
M  V30 6967 C 692.681 2.30434 0.377148 0
M  V30 6968 C 693.662 1.35493 1.02838 0
M  V30 6969 O 694.847 1.6441 1.03359 0
M  V30 6970 C 691.977 3.14038 1.48315 0
M  V30 6971 C 690.931 4.1719 0.955855 0
M  V30 6972 C 690.257 4.89263 2.15698 0
M  V30 6973 C 691.557 5.223 -0.00402136 0
M  V30 6974 H 693.251 2.98085 -0.280336 0
M  V30 6975 H 690.797 1.43354 -0.136265 0
M  V30 6976 H 692.75 3.67933 2.05435 0
M  V30 6977 H 691.474 2.44193 2.16881 0
M  V30 6978 H 690.133 3.64335 0.406929 0
M  V30 6979 H 689.781 4.15929 2.82864 0
M  V30 6980 H 689.481 5.59009 1.81059 0
M  V30 6981 H 691.005 5.45978 2.73387 0
M  V30 6982 H 692.419 5.71315 0.476607 0
M  V30 6983 H 690.816 5.99525 -0.26258 0
M  V30 6984 H 691.886 4.75638 -0.943236 0
M  V30 6985 N 693.229 0.160201 1.56784 0
M  V30 6986 C 694.139 -0.787167 2.21 0
M  V30 6987 C 695.155 -1.26167 1.19825 0
M  V30 6988 O 696.331 -1.31611 1.52448 0
M  V30 6989 C 693.396 -2.00364 2.8294 0
M  V30 6990 C 692.457 -1.5771 3.99282 0
M  V30 6991 C 691.69 -2.73558 4.58259 0
M  V30 6992 O 691.913 -3.90129 4.16119 0
M  V30 6993 O 690.847 -2.48271 5.48311 0
M  V30 6994 H 694.673 -0.270462 3.02493 0
M  V30 6995 H 692.258 -0.0674666 1.49248 0
M  V30 6996 H 694.14 -2.71529 3.22257 0
M  V30 6997 H 692.815 -2.50961 2.04451 0
M  V30 6998 H 691.722 -0.835274 3.64656 0
M  V30 6999 H 693.055 -1.11815 4.79331 0
M  V30 7000 N 694.707 -1.5719 -0.113559 0
M  V30 7001 C 695.617 -2.04041 -1.15777 0
M  V30 7002 C 696.633 -0.961812 -1.45001 0
M  V30 7003 O 697.809 -1.2737 -1.56009 0
M  V30 7004 C 694.874 -2.43994 -2.46308 0
M  V30 7005 C 693.935 -3.65962 -2.24433 0
M  V30 7006 C 693.168 -4.04 -3.4874 0
M  V30 7007 O 693.391 -3.42321 -4.56259 0
M  V30 7008 O 692.325 -4.97069 -3.3942 0
M  V30 7009 H 696.151 -2.93248 -0.789899 0
M  V30 7010 H 693.736 -1.45828 -0.324748 0
M  V30 7011 H 695.618 -2.70401 -3.23204 0
M  V30 7012 H 694.293 -1.57932 -2.82558 0
M  V30 7013 H 693.2 -3.44697 -1.45377 0
M  V30 7014 H 694.533 -4.52746 -1.93084 0
M  V30 7015 N 696.185 0.383891 -1.52853 0
M  V30 7016 C 697.095 1.49343 -1.80925 0
M  V30 7017 C 698.111 1.59458 -0.696348 0
M  V30 7018 O 699.287 1.75698 -0.984481 0
M  V30 7019 C 696.352 2.84819 -1.97684 0
M  V30 7020 C 695.413 2.84382 -3.21598 0
M  V30 7021 C 694.646 4.13397 -3.37548 0
M  V30 7022 O 694.869 5.08619 -2.58192 0
M  V30 7023 O 693.803 4.20325 -4.30826 0
M  V30 7024 H 697.629 1.2855 -2.75152 0
M  V30 7025 H 695.214 0.572229 -1.38007 0
M  V30 7026 H 697.096 3.65125 -2.10385 0
M  V30 7027 H 695.771 3.05627 -1.06647 0
M  V30 7028 H 694.678 2.0284 -3.14336 0
M  V30 7029 H 696.011 2.68526 -4.12498 0
M  V30 7030 N 697.663 1.43903 0.642637 0
M  V30 7031 C 698.91 1.46079 1.40239 0
M  V30 7032 C 699.238 0.0890335 1.94296 0
M  V30 7033 O 698.493 -0.907533 1.73385 0
M  V30 7034 C 698.792 2.45907 2.59354 0
M  V30 7035 C 698.458 3.91522 2.23654 0
M  V30 7036 C 697.12 4.31179 2.1363 0
M  V30 7037 C 699.472 4.83242 1.95261 0
M  V30 7038 C 696.8 5.60495 1.73384 0
M  V30 7039 C 699.152 6.12933 1.56511 0
M  V30 7040 C 697.816 6.51556 1.4502 0
M  V30 7041 H 697.086 0.534542 0.513172 0
M  V30 7042 H 699.733 1.77047 0.72984 0
M  V30 7043 H 698.038 2.08381 3.3179 0
M  V30 7044 H 699.735 2.44842 3.17574 0
M  V30 7045 H 696.325 3.60142 2.32369 0
M  V30 7046 H 700.509 4.53367 2.0192 0
M  V30 7047 H 695.765 5.89249 1.63082 0
M  V30 7048 H 699.939 6.83469 1.33576 0
M  V30 7049 H 697.566 7.51663 1.13606 0
M  V30 7050 N 699.141 -0.881989 1.30609 0
M  V30 7051 C 700.418 -1.61563 1.10258 0
M  V30 7052 C 700.798 -2.08228 -0.347053 0
M  V30 7053 O 700.146 -1.85151 -1.33908 0
M  V30 7054 C 700.356 -2.78287 2.10612 0
M  V30 7055 C 701.704 -3.48545 2.4249 0
M  V30 7056 O 702.728 -2.88479 2.08945 0
M  V30 7057 O 701.587 -4.56873 2.99883 0
M  V30 7058 H 698.681 -0.710238 0.423663 0
M  V30 7059 H 701.227 -0.928503 1.42045 0
M  V30 7060 H 699.999 -2.41131 3.08174 0
M  V30 7061 H 699.622 -3.54695 1.79659 0
M  V30 7062 N 700.619 -1.13374 -1.09472 0
M  V30 7063 C 701.844 -0.918711 -1.85942 0
M  V30 7064 C 702.269 0.527225 -1.8056 0
M  V30 7065 O 701.627 1.37408 -1.18274 0
M  V30 7066 C 701.675 -1.41056 -3.31867 0
M  V30 7067 O 700.779 -0.595496 -4.08078 0
M  V30 7068 H 700.12 -0.329297 -0.576593 0
M  V30 7069 H 702.65 -1.50829 -1.38245 0
M  V30 7070 H 702.66 -1.41398 -3.82715 0
M  V30 7071 H 701.335 -2.46335 -3.35099 0
M  V30 7072 H 699.912 -0.659911 -3.67014 0
M  V30 7073 N 702.098 1.27442 -0.927168 0
M  V30 7074 C 703.375 1.89473 -0.485742 0
M  V30 7075 C 703.755 1.83922 1.03614 0
M  V30 7076 O 703.103 1.28409 1.89007 0
M  V30 7077 C 703.313 3.33417 -1.03123 0
M  V30 7078 C 704.661 4.10333 -1.0914 0
M  V30 7079 O 705.685 3.4243 -0.98082 0
M  V30 7080 O 704.544 5.31737 -1.26165 0
M  V30 7081 H 701.638 0.812124 -0.156154 0
M  V30 7082 H 704.184 1.35713 -1.01882 0
M  V30 7083 H 702.956 3.31747 -2.07508 0
M  V30 7084 H 702.579 3.94695 -0.479767 0
M  V30 7085 N 703.576 0.692616 1.41565 0
M  V30 7086 C 704.801 0.229776 2.06123 0
M  V30 7087 C 705.226 -1.11119 1.5177 0
M  V30 7088 O 704.584 -1.69498 0.643444 0
M  V30 7089 C 704.632 0.19469 3.60074 0
M  V30 7090 O 703.736 -0.831366 4.03933 0
M  V30 7091 H 703.077 0.113002 0.654314 0
M  V30 7092 H 705.607 0.946645 1.81383 0
M  V30 7093 H 705.617 0.0245487 4.07993 0
M  V30 7094 H 704.292 1.17339 3.99004 0
M  V30 7095 H 702.869 -0.630819 3.67526 0
M  V30 7096 N 705.054 -1.51416 0.437162 0
M  V30 7097 C 706.302 -2.01687 -0.129108 0
M  V30 7098 C 706.623 -1.32329 -1.43227 0
M  V30 7099 O 705.893 -0.457796 -1.90476 0
M  V30 7100 H 704.473 -0.745277 -0.0507023 0
M  V30 7101 H 707.135 -1.86075 0.579828 0
M  V30 7102 H 706.231 -3.10605 -0.305141 0
M  V30 7103 N 706.532 -0.168513 -1.56696 0
M  V30 7104 C 707.462 0.758563 -2.20835 0
M  V30 7105 C 708.443 1.24121 -1.1631 0
M  V30 7106 O 709.628 1.29487 -1.4473 0
M  V30 7107 C 706.758 1.9892 -2.8469 0
M  V30 7108 C 705.712 1.64252 -3.95228 0
M  V30 7109 C 705.038 2.94757 -4.46119 0
M  V30 7110 C 706.338 0.872675 -5.14958 0
M  V30 7111 H 708.032 0.223953 -2.98561 0
M  V30 7112 H 705.578 0.106277 -1.43607 0
M  V30 7113 H 707.531 2.64275 -3.28233 0
M  V30 7114 H 706.255 2.5479 -2.04327 0
M  V30 7115 H 704.914 1.01266 -3.52336 0
M  V30 7116 H 704.562 3.48662 -3.62552 0
M  V30 7117 H 704.262 2.72316 -5.2069 0
M  V30 7118 H 705.786 3.61147 -4.92347 0
M  V30 7119 H 707.2 1.42875 -5.55211 0
M  V30 7120 H 705.597 0.747402 -5.95428 0
M  V30 7121 H 706.667 -0.131535 -4.84722 0
M  V30 7122 N 708.01 1.57248 0.105221 0
M  V30 7123 C 709.235 1.90143 0.828264 0
M  V30 7124 C 709.66 0.761811 1.71983 0
M  V30 7125 O 709.018 -0.287086 1.79013 0
M  V30 7126 C 709.066 3.21856 1.62608 0
M  V30 7127 O 708.17 3.08732 2.7342 0
M  V30 7128 H 707.511 0.623558 0.228192 0
M  V30 7129 H 710.041 2.0443 0.0834826 0
M  V30 7130 H 710.051 3.54916 2.01243 0
M  V30 7131 H 708.726 4.0439 0.971687 0
M  V30 7132 H 707.303 2.87167 2.37886 0
M  V30 7133 N 709.488 -0.375779 1.53054 0
M  V30 7134 C 710.418 -1.46598 1.81745 0
M  V30 7135 C 711.399 -1.56337 0.670286 0
M  V30 7136 O 712.584 -1.71071 0.919158 0
M  V30 7137 C 709.714 -2.84058 1.99821 0
M  V30 7138 C 708.668 -2.8915 3.15557 0
M  V30 7139 C 707.994 -4.29187 3.18908 0
M  V30 7140 C 709.294 -2.57595 4.54359 0
M  V30 7141 H 710.988 -1.22837 2.73041 0
M  V30 7142 H 708.534 -0.589485 1.31381 0
M  V30 7143 H 710.487 -3.60342 2.18475 0
M  V30 7144 H 709.211 -3.09184 1.05226 0
M  V30 7145 H 707.87 -2.15316 2.96706 0
M  V30 7146 H 707.518 -4.51374 2.2197 0
M  V30 7147 H 707.218 -4.33512 3.96662 0
M  V30 7148 H 708.742 -5.07359 3.39734 0
M  V30 7149 H 710.156 -3.23595 4.73243 0
M  V30 7150 H 708.553 -2.73252 5.34279 0
M  V30 7151 H 709.623 -1.52882 4.60169 0
M  V30 7152 N 710.966 -1.44241 -0.634997 0
M  V30 7153 C 712.243 -1.37296 -1.39317 0
M  V30 7154 C 712.623 -0.0297532 -2.11079 0
M  V30 7155 O 711.971 0.987524 -2.06059 0
M  V30 7156 C 712.181 -2.56853 -2.36279 0
M  V30 7157 C 713.529 -3.00747 -2.99728 0
M  V30 7158 O 714.553 -2.5703 -2.46605 0
M  V30 7159 O 713.412 -3.76533 -3.96087 0
M  V30 7160 H 710.506 -0.543503 -0.623325 0
M  V30 7161 H 713.052 -1.56324 -0.660376 0
M  V30 7162 H 711.824 -3.46228 -1.82324 0
M  V30 7163 H 711.447 -2.40019 -3.16981 0
M  V30 7164 N 712.444 0.87505 -1.31075 0
M  V30 7165 C 713.669 1.66583 -1.23551 0
M  V30 7166 C 714.094 1.87067 0.19686 0
M  V30 7167 O 713.452 1.40877 1.1412 0
M  V30 7168 C 713.5 3.01401 -1.97965 0
M  V30 7169 O 712.604 3.90923 -1.31351 0
M  V30 7170 H 711.945 0.508645 -0.426821 0
M  V30 7171 H 714.475 1.09139 -1.7306 0
M  V30 7172 H 714.485 3.51374 -2.07366 0
M  V30 7173 H 713.16 2.85812 -3.02133 0
M  V30 7174 H 711.737 3.49369 -1.30368 0
M  V30 7175 N 713.922 1.13953 1.08869 0
M  V30 7176 C 715.147 0.928559 1.85452 0
M  V30 7177 C 715.572 -0.517642 1.80837 0
M  V30 7178 O 714.93 -1.36779 1.19001 0
M  V30 7179 C 714.978 1.42814 3.31114 0
M  V30 7180 O 714.082 0.617129 4.07756 0
M  V30 7181 H 713.423 0.33235 0.574839 0
M  V30 7182 H 715.953 1.5156 1.37443 0
M  V30 7183 H 715.963 1.43425 3.8196 0
M  V30 7184 H 714.638 2.48109 3.33788 0
M  V30 7185 H 713.215 0.679365 3.66659 0
M  V30 7186 N 715.4 -1.26948 0.933913 0
M  V30 7187 C 716.35 -2.24306 0.408779 0
M  V30 7188 C 717.334 -1.53243 -0.490435 0
M  V30 7189 O 718.526 -1.73956 -0.326866 0
M  V30 7190 C 715.655 -3.41695 -0.331578 0
M  V30 7191 C 714.741 -4.20053 0.58451 0
M  V30 7192 N 715.132 -4.76122 1.70709 0
M  V30 7193 C 713.43 -4.44303 0.388703 0
M  V30 7194 C 714.131 -5.35267 2.27737 0
M  V30 7195 N 713.107 -5.20548 1.56622 0
M  V30 7196 H 716.909 -2.65244 1.26582 0
M  V30 7197 H 714.423 -1.4195 0.788919 0
M  V30 7198 H 716.42 -4.10552 -0.724774 0
M  V30 7199 H 715.08 -3.02286 -1.18547 0
M  V30 7200 H 716.091 -4.73884 2.08937 0
M  V30 7201 H 712.768 -4.15341 -0.424016 0
M  V30 7202 H 714.158 -5.89563 3.22282 0
M  V30 7203 N 716.879 -0.700114 -1.41195 0
M  V30 7204 C 718.104 -0.240704 -2.05998 0
M  V30 7205 C 718.529 1.10313 -1.52357 0
M  V30 7206 O 717.887 1.69154 -0.652424 0
M  V30 7207 C 717.935 -0.213783 -3.59966 0
M  V30 7208 O 717.039 0.809933 -4.04368 0
M  V30 7209 H 716.38 -0.116471 -0.653705 0
M  V30 7210 H 718.91 -0.956251 -1.80878 0
M  V30 7211 H 718.92 -0.0461852 -4.07974 0
M  V30 7212 H 717.595 -1.19454 -3.98376 0
M  V30 7213 H 716.172 0.611319 -3.67855 0
M  V30 7214 N 718.357 1.51182 -0.445186 0
M  V30 7215 C 719.768 1.86693 0.0160999 0
M  V30 7216 C 720.119 1.36183 1.4124 0
M  V30 7217 O 719.244 0.715895 2.04215 0
M  V30 7218 C 719.839 3.38781 0.0359918 0
M  V30 7219 C 718.398 3.73799 0.441715 0
M  V30 7220 C 717.545 2.74947 -0.360511 0
M  V30 7221 H 720.496 1.44294 -0.660674 0
M  V30 7222 H 720.517 3.71026 0.843813 0
M  V30 7223 H 720.029 3.75513 -0.980378 0
M  V30 7224 H 718.13 3.42659 1.4634 0
M  V30 7225 H 718.243 4.78829 0.16106 0
M  V30 7226 H 716.607 2.54047 0.182269 0
M  V30 7227 H 717.39 3.14521 -1.3759 0
M  V30 7228 N 719.835 0.176821 1.56605 0
M  V30 7229 C 721.06 -0.47599 2.01864 0
M  V30 7230 C 721.485 -1.55645 1.05623 0
M  V30 7231 O 720.843 -1.81263 0.0366729 0
M  V30 7232 C 720.891 -1.02619 3.4569 0
M  V30 7233 O 719.995 -2.13996 3.52533 0
M  V30 7234 H 719.336 -0.113363 0.654251 0
M  V30 7235 H 721.866 0.28233 2.02643 0
M  V30 7236 H 721.876 -1.34742 3.85109 0
M  V30 7237 H 720.551 -0.235138 4.15235 0
M  V30 7238 H 719.128 -1.82876 3.24978 0
M  V30 7239 N 721.313 -1.57302 -0.09688 0
M  V30 7240 C 722.538 -1.9058 -0.818169 0
M  V30 7241 C 722.963 -0.770921 -1.71576 0
M  V30 7242 O 722.321 0.277588 -1.79162 0
M  V30 7243 C 722.369 -3.22714 -1.60898 0
M  V30 7244 O 721.473 -3.10178 -2.71779 0
M  V30 7245 H 720.814 -0.624759 -0.224882 0
M  V30 7246 H 723.344 -2.04471 -0.07264 0
M  V30 7247 H 723.354 -3.55978 -1.99358 0
M  V30 7248 H 722.029 -4.04899 -0.950227 0
M  V30 7249 H 720.606 -2.88424 -2.3636 0
M  V30 7250 N 722.791 0.367657 -1.53252 0
M  V30 7251 C 723.721 1.45632 -1.8252 0
M  V30 7252 C 724.702 1.55979 -0.678568 0
M  V30 7253 O 725.887 1.70581 -0.928217 0
M  V30 7254 C 723.017 2.82994 -2.01325 0
M  V30 7255 C 721.971 2.87473 -3.17086 0
M  V30 7256 C 721.297 4.2749 -3.21179 0
M  V30 7257 C 722.597 2.55182 -4.55719 0
M  V30 7258 H 724.291 1.21387 -2.73689 0
M  V30 7259 H 721.837 0.58251 -1.31692 0
M  V30 7260 H 723.79 3.59179 -2.20383 0
M  V30 7261 H 722.514 3.08622 -1.06864 0
M  V30 7262 H 721.173 2.13739 -2.97844 0
M  V30 7263 H 720.821 4.5019 -2.24361 0
M  V30 7264 H 720.521 4.31403 -3.98955 0
M  V30 7265 H 722.045 5.0555 -3.42419 0
M  V30 7266 H 723.459 3.21081 -4.74953 0
M  V30 7267 H 721.856 2.70414 -5.3572 0
M  V30 7268 H 722.926 1.5044 -4.60973 0
M  V30 7269 N 724.269 1.44576 0.627338 0
M  V30 7270 C 725.494 1.51271 1.41887 0
M  V30 7271 C 725.919 0.139814 1.8758 0
M  V30 7272 O 725.277 -0.871746 1.58966 0
M  V30 7273 C 725.325 2.48529 2.61277 0
M  V30 7274 O 724.429 1.98944 3.61241 0
M  V30 7275 H 723.77 0.510668 0.424399 0
M  V30 7276 H 726.3 1.89746 0.765356 0
M  V30 7277 H 726.31 2.66689 3.08773 0
M  V30 7278 H 724.985 3.48249 2.27366 0
M  V30 7279 H 723.562 1.90568 3.20528 0
M  V30 7280 N 725.747 -0.868086 1.31537 0
M  V30 7281 C 726.972 -1.65926 1.24432 0
M  V30 7282 C 727.397 -1.87169 -0.186936 0
M  V30 7283 O 726.755 -1.4148 -1.13371 0
M  V30 7284 C 726.803 -3.00347 1.9956 0
M  V30 7285 O 725.907 -3.90221 1.33422 0
M  V30 7286 H 725.248 -0.506375 0.429512 0
M  V30 7287 H 727.778 -1.0822 1.73637 0
M  V30 7288 H 727.788 -3.50269 2.09226 0
M  V30 7289 H 726.463 -2.84205 3.03645 0
M  V30 7290 H 725.04 -3.48672 1.32219 0
M  V30 7291 N 727.225 -1.14528 -1.08264 0
M  V30 7292 C 728.45 -0.938381 -1.84957 0
M  V30 7293 C 728.875 0.508044 -1.81109 0
M  V30 7294 O 728.233 1.36146 -1.19724 0
M  V30 7295 C 728.281 -1.44568 -3.30352 0
M  V30 7296 O 727.385 -0.638745 -4.07423 0
M  V30 7297 H 726.726 -0.335394 -0.573068 0
M  V30 7298 H 729.256 -1.52287 -1.36637 0
M  V30 7299 H 729.266 -1.45449 -3.81194 0
M  V30 7300 H 727.941 -2.49876 -3.32468 0
M  V30 7301 H 726.518 -0.698801 -3.66294 0
M  V30 7302 N 728.703 1.26451 -0.940633 0
M  V30 7303 C 729.613 2.30128 -0.455881 0
M  V30 7304 C 730.629 1.67536 0.469867 0
M  V30 7305 O 731.805 1.98344 0.349529 0
M  V30 7306 C 728.87 3.45634 0.271648 0
M  V30 7307 C 727.931 4.23709 -0.690594 0
M  V30 7308 C 727.164 5.337 0.00231047 0
M  V30 7309 O 727.387 5.57215 1.21935 0
M  V30 7310 O 726.321 5.98091 -0.676111 0
M  V30 7311 H 730.147 2.73655 -1.31707 0
M  V30 7312 H 727.732 1.3164 -0.706497 0
M  V30 7313 H 729.614 4.15853 0.681486 0
M  V30 7314 H 728.289 3.04138 1.10824 0
M  V30 7315 H 727.196 3.55974 -1.15037 0
M  V30 7316 H 728.529 4.68953 -1.49478 0
M  V30 7317 N 730.181 0.707592 1.40822 0
M  V30 7318 C 731.429 0.243189 2.00632 0
M  V30 7319 C 731.75 -1.16512 1.56365 0
M  V30 7320 O 731.02 -1.78841 0.799553 0
M  V30 7321 H 729.6 0.0869203 0.741926 0
M  V30 7322 H 732.262 0.911438 1.72275 0
M  V30 7323 H 731.358 0.270014 3.1093 0
M  V30 7324 N 731.66 -1.50943 0.453197 0
M  V30 7325 C 732.885 -2.07116 -0.108463 0
M  V30 7326 C 733.31 -1.31681 -1.3432 0
M  V30 7327 O 732.668 -0.359256 -1.77705 0
M  V30 7328 C 732.716 -3.58447 -0.393424 0
M  V30 7329 O 731.82 -3.85038 -1.47714 0
M  V30 7330 H 731.161 -0.66398 0.0050993 0
M  V30 7331 H 733.691 -1.94362 0.639095 0
M  V30 7332 H 733.701 -4.02961 -0.639222 0
M  V30 7333 H 732.376 -4.12774 0.508946 0
M  V30 7334 H 730.953 -3.52376 -1.22006 0
M  V30 7335 N 733.138 -0.185124 -1.56509 0
M  V30 7336 C 734.363 0.465278 -2.02114 0
M  V30 7337 C 734.788 1.55083 -1.06447 0
M  V30 7338 O 734.146 1.81241 -0.0462852 0
M  V30 7339 C 734.194 1.00784 -3.46229 0
M  V30 7340 O 733.298 2.12123 -3.53663 0
M  V30 7341 H 732.639 0.109891 -0.654843 0
M  V30 7342 H 735.169 -0.293072 -2.0249 0
M  V30 7343 H 735.179 1.32697 -3.85818 0
M  V30 7344 H 733.854 0.213113 -4.15354 0
M  V30 7345 H 732.431 1.8115 -3.25943 0
M  V30 7346 N 734.616 1.57351 0.0885366 0
M  V30 7347 C 735.841 1.91011 0.80805 0
M  V30 7348 C 736.266 0.780009 1.71165 0
M  V30 7349 O 735.624 -0.268083 1.79307 0
M  V30 7350 C 735.672 3.23562 1.59185 0
M  V30 7351 O 734.776 3.11615 2.7013 0
M  V30 7352 H 734.117 0.625943 0.221565 0
M  V30 7353 H 736.647 2.04507 0.0617954 0
M  V30 7354 H 736.657 3.5703 1.97468 0
M  V30 7355 H 735.332 4.05398 0.928741 0
M  V30 7356 H 733.909 2.89673 2.34827 0
M  V30 7357 N 736.094 -0.359525 1.53444 0
M  V30 7358 C 737.319 -1.12644 1.74144 0
M  V30 7359 C 737.744 -1.82082 0.472007 0
M  V30 7360 O 737.102 -1.71962 -0.57436 0
M  V30 7361 C 737.15 -2.12781 2.9113 0
M  V30 7362 O 736.254 -3.19984 2.60162 0
M  V30 7363 H 735.595 -0.326553 0.578152 0
M  V30 7364 H 738.125 -0.414798 2.00351 0
M  V30 7365 H 738.135 -2.56278 3.17467 0
M  V30 7366 H 736.81 -1.61634 3.83207 0
M  V30 7367 H 735.387 -2.81417 2.44661 0
M  V30 7368 N 737.572 -1.44907 -0.619662 0
M  V30 7369 C 738.797 -1.52021 -1.41083 0
M  V30 7370 C 739.222 -0.14976 -1.87503 0
M  V30 7371 O 738.58 0.863303 -1.59426 0
M  V30 7372 C 738.628 -2.49911 -2.59955 0
M  V30 7373 O 737.732 -2.00857 -3.60181 0
M  V30 7374 H 737.073 -0.512912 -0.421684 0
M  V30 7375 H 739.603 -1.90149 -0.755282 0
M  V30 7376 H 739.613 -2.68323 -3.07354 0
M  V30 7377 H 738.288 -3.4945 -2.25516 0
M  V30 7378 H 736.865 -1.92265 -3.19513 0
M  V30 7379 N 739.05 0.861098 -1.31996 0
M  V30 7380 C 740.275 1.65264 -1.2531 0
M  V30 7381 C 740.7 1.87265 0.177007 0
M  V30 7382 O 740.058 1.4208 1.12619 0
M  V30 7383 C 740.106 2.99284 -2.0115 0
M  V30 7384 O 739.21 3.89508 -1.3549 0
M  V30 7385 H 738.551 0.50409 -0.432192 0
M  V30 7386 H 741.081 1.07297 -1.74208 0
M  V30 7387 H 741.091 3.49154 -2.11081 0
M  V30 7388 H 739.766 2.82591 -3.05148 0
M  V30 7389 H 738.343 3.47966 -1.34066 0
M  V30 7390 N 740.528 1.15101 1.07655 0
M  V30 7391 C 741.753 0.948177 1.84457 0
M  V30 7392 C 742.178 -0.498432 1.81376 0
M  V30 7393 O 741.536 -1.35509 1.20445 0
M  V30 7394 C 741.584 1.46318 3.29581 0
M  V30 7395 O 740.688 0.660342 4.07079 0
M  V30 7396 H 740.029 0.338428 0.571281 0
M  V30 7397 H 742.559 1.5301 1.35828 0
M  V30 7398 H 742.569 1.47468 3.80417 0
M  V30 7399 H 741.244 2.51635 3.31138 0
M  V30 7400 H 739.821 0.718216 3.65918 0
M  V30 7401 N 742.006 -1.2595 0.947325 0
M  V30 7402 C 743.231 -1.98083 0.614633 0
M  V30 7403 C 743.656 -1.70013 -0.804815 0
M  V30 7404 O 743.014 -0.95175 -1.54309 0
M  V30 7405 C 743.062 -3.4993 0.870706 0
M  V30 7406 O 742.166 -4.12364 -0.0541451 0
M  V30 7407 H 741.507 -0.621232 0.234451 0
M  V30 7408 H 744.037 -1.60259 1.27193 0
M  V30 7409 H 744.047 -4.00198 0.794051 0
M  V30 7410 H 742.722 -3.69691 1.90529 0
M  V30 7411 H 741.299 -3.72826 0.0740917 0
M  V30 7412 N 743.484 -0.715051 -1.40445 0
M  V30 7413 C 744.709 -0.26254 -2.05732 0
M  V30 7414 C 745.134 1.08691 -1.53519 0
M  V30 7415 O 744.492 1.68453 -0.670328 0
M  V30 7416 C 744.54 -0.25195 -3.59719 0
M  V30 7417 O 743.644 0.766998 -4.05205 0
M  V30 7418 H 742.985 -0.123398 -0.652433 0
M  V30 7419 H 745.515 -0.975382 -1.79854 0
M  V30 7420 H 745.525 -0.0894537 -4.07902 0
M  V30 7421 H 744.2 -1.23672 -3.97087 0
M  V30 7422 H 742.777 0.572269 -3.68483 0
M  V30 7423 N 744.962 1.50701 -0.461195 0
M  V30 7424 C 746.187 2.07171 0.0974773 0
M  V30 7425 C 746.612 1.32391 1.3362 0
M  V30 7426 O 745.97 0.368676 1.77512 0
M  V30 7427 C 746.018 3.58651 0.374409 0
M  V30 7428 O 745.122 3.85816 1.4567 0
M  V30 7429 H 744.463 0.663944 -0.00862047 0
M  V30 7430 H 746.993 1.94021 -0.649394 0
M  V30 7431 H 747.003 4.03295 0.617843 0
M  V30 7432 H 745.678 4.12498 -0.530829 0
M  V30 7433 H 744.255 3.53018 1.20136 0
M  V30 7434 N 746.441 0.193421 1.56409 0
M  V30 7435 C 747.666 -0.454552 2.02358 0
M  V30 7436 C 748.091 -1.54516 1.07268 0
M  V30 7437 O 747.449 -1.81214 0.0558962 0
M  V30 7438 C 747.497 -0.989469 3.46759 0
M  V30 7439 O 746.601 -2.10244 3.54783 0
M  V30 7440 H 745.942 -0.106417 0.655417 0
M  V30 7441 H 748.472 0.303807 2.02332 0
M  V30 7442 H 748.482 -1.30649 3.86516 0
M  V30 7443 H 747.157 -0.191083 4.15461 0
M  V30 7444 H 745.734 -1.79419 3.26899 0
M  V30 7445 N 747.919 -1.57396 -0.0801906 0
M  V30 7446 C 749.144 -1.91437 -0.797909 0
M  V30 7447 C 749.569 -0.789075 -1.70749 0
M  V30 7448 O 748.927 0.25857 -1.79447 0
M  V30 7449 C 748.975 -3.24402 -1.57467 0
M  V30 7450 O 748.079 -3.13043 -2.68473 0
M  V30 7451 H 747.42 -0.627109 -0.218243 0
M  V30 7452 H 749.95 -2.04537 -0.050949 0
M  V30 7453 H 749.96 -3.58072 -1.95571 0
M  V30 7454 H 748.635 -4.05884 -0.907229 0
M  V30 7455 H 747.212 -2.90915 -2.33287 0
M  V30 7456 N 749.397 0.351382 -1.53633 0
M  V30 7457 C 750.622 1.11718 -1.74739 0
M  V30 7458 C 751.047 1.81829 -0.481657 0
M  V30 7459 O 750.405 1.72264 0.565233 0
M  V30 7460 C 750.453 2.11234 -2.92254 0
M  V30 7461 O 749.557 3.186 -2.61855 0
M  V30 7462 H 748.898 0.323482 -0.579875 0
M  V30 7463 H 751.428 0.404167 -2.00568 0
M  V30 7464 H 751.438 2.54591 -3.18822 0
M  V30 7465 H 750.113 1.59599 -3.84058 0
M  V30 7466 H 748.69 2.80115 -2.4615 0
M  V30 7467 N 750.875 1.45233 0.611969 0
M  V30 7468 C 752.1 1.52767 1.40274 0
M  V30 7469 C 752.525 0.159701 1.87421 0
M  V30 7470 O 751.883 -0.854837 1.59882 0
M  V30 7471 C 751.931 2.51286 2.58626 0
M  V30 7472 O 751.035 2.02764 3.59111 0
M  V30 7473 H 750.376 0.515141 0.418958 0
M  V30 7474 H 752.906 1.90547 0.745188 0
M  V30 7475 H 752.916 2.69949 3.05927 0
M  V30 7476 H 751.591 3.50641 2.23659 0
M  V30 7477 H 750.168 1.93957 3.18489 0
M  V30 7478 N 752.353 -0.854086 1.3245 0
M  V30 7479 C 753.316 -1.94427 1.21371 0
M  V30 7480 C 754.316 -1.60219 0.136613 0
M  V30 7481 O 755.506 -1.69846 0.387057 0
M  V30 7482 C 752.638 -3.29698 0.866701 0
M  V30 7483 H 753.831 -2.05679 2.18257 0
M  V30 7484 H 751.384 -1.04434 1.1629 0
M  V30 7485 H 752.119 -3.24145 -0.100319 0
M  V30 7486 H 751.904 -3.55903 1.64545 0
M  V30 7487 H 753.394 -4.09599 0.813515 0
M  V30 7488 N 753.831 -1.1567 -1.07043 0
M  V30 7489 C 755.056 -0.957946 -1.83952 0
M  V30 7490 C 755.481 0.488807 -1.81638 0
M  V30 7491 O 754.839 1.34869 -1.21162 0
M  V30 7492 C 754.887 -1.48064 -3.288 0
M  V30 7493 O 753.991 -0.681921 -4.06723 0
M  V30 7494 H 753.332 -0.341453 -0.569479 0
M  V30 7495 H 755.862 -1.53728 -1.35015 0
M  V30 7496 H 755.872 -1.49484 -3.7963 0
M  V30 7497 H 754.547 -2.53388 -3.29799 0
M  V30 7498 H 753.124 -0.737612 -3.65532 0
M  V30 7499 N 755.309 1.25446 -0.953992 0
M  V30 7500 C 756.534 1.97755 -0.625129 0
M  V30 7501 C 756.959 1.70437 0.795787 0
M  V30 7502 O 756.317 0.95992 1.53803 0
M  V30 7503 C 756.365 3.49463 -0.889251 0
M  V30 7504 O 755.469 4.12387 0.0322757 0
M  V30 7505 H 754.81 0.61998 -0.237742 0
M  V30 7506 H 757.34 1.59582 -1.28041 0
M  V30 7507 H 757.35 3.99772 -0.815263 0
M  V30 7508 H 756.025 3.68676 -1.92487 0
M  V30 7509 H 754.602 3.72782 -0.0938625 0
M  V30 7510 N 756.787 0.722489 1.40064 0
M  V30 7511 C 758.012 0.273446 2.05589 0
M  V30 7512 C 758.437 -1.07875 1.54093 0
M  V30 7513 O 757.795 -1.68095 0.679252 0
M  V30 7514 C 757.843 0.271023 3.5958 0
M  V30 7515 O 756.947 -0.745499 4.05606 0
M  V30 7516 H 756.288 0.126856 0.65177 0
M  V30 7517 H 758.818 0.984906 1.79334 0
M  V30 7518 H 758.828 0.111084 4.07849 0
M  V30 7519 H 757.503 1.25776 3.96425 0
M  V30 7520 H 756.08 -0.552719 3.68781 0
M  V30 7521 N 758.265 -1.50454 0.469181 0
M  V30 7522 C 759.228 -2.2703 -0.314643 0
M  V30 7523 C 760.228 -1.31734 -0.922111 0
M  V30 7524 O 761.418 -1.55176 -0.791588 0
M  V30 7525 C 758.55 -3.08616 -1.44806 0
M  V30 7526 H 759.743 -2.97769 0.356892 0
M  V30 7527 H 757.296 -1.54698 0.223191 0
M  V30 7528 H 758.031 -2.42369 -2.1547 0
M  V30 7529 H 757.816 -3.78647 -1.01829 0
M  V30 7530 H 759.306 -3.66536 -2.00103 0
M  V30 7531 N 759.743 -0.201713 -1.56304 0
M  V30 7532 C 760.968 0.443815 -2.02596 0
M  V30 7533 C 761.393 1.53945 -1.08086 0
M  V30 7534 O 760.751 1.81182 -0.0655056 0
M  V30 7535 C 760.799 0.971066 -3.47279 0
M  V30 7536 O 759.903 2.0836 -3.55893 0
M  V30 7537 H 759.244 0.10294 -0.655972 0
M  V30 7538 H 761.774 -0.314533 -2.02168 0
M  V30 7539 H 761.784 1.28598 -3.87204 0
M  V30 7540 H 760.459 0.169048 -4.15556 0
M  V30 7541 H 759.036 1.77683 -3.27846 0
M  V30 7542 N 761.222 1.57436 0.0718424 0
M  V30 7543 C 762.447 1.91858 0.787745 0
M  V30 7544 C 762.872 0.798119 1.70328 0
M  V30 7545 O 762.23 -0.24905 1.79581 0
M  V30 7546 C 762.278 3.25232 1.55744 0
M  V30 7547 O 761.382 3.14462 2.6681 0
M  V30 7548 H 760.723 0.628258 0.214914 0
M  V30 7549 H 763.253 2.04561 0.0401012 0
M  V30 7550 H 763.263 3.59105 1.9367 0
M  V30 7551 H 761.938 4.0636 0.885691 0
M  V30 7552 H 760.515 2.92148 2.31741 0
M  V30 7553 N 762.7 -0.34323 1.53817 0
M  V30 7554 C 763.925 -1.1079 1.75329 0
M  V30 7555 C 764.35 -1.81571 0.491293 0
M  V30 7556 O 763.708 -1.72561 -0.556089 0
M  V30 7557 C 763.756 -2.09681 2.9337 0
M  V30 7558 O 762.86 -3.17207 2.63541 0
M  V30 7559 H 762.201 -0.320402 0.581583 0
M  V30 7560 H 764.731 -0.393525 2.0078 0
M  V30 7561 H 764.741 -2.52897 3.20168 0
M  V30 7562 H 763.416 -1.5756 3.84899 0
M  V30 7563 H 761.993 -2.78806 2.47632 0
M  V30 7564 N 764.178 -1.45556 -0.604258 0
M  V30 7565 C 765.425 -1.49746 -1.36317 0
M  V30 7566 C 765.753 -0.140516 -1.93992 0
M  V30 7567 O 765.008 0.861244 -1.7573 0
M  V30 7568 C 765.307 -2.52697 -2.52743 0
M  V30 7569 C 764.973 -3.97315 -2.13195 0
M  V30 7570 C 763.635 -4.36692 -2.02123 0
M  V30 7571 C 765.987 -4.88249 -1.8238 0
M  V30 7572 C 763.315 -5.64895 -1.58463 0
M  V30 7573 C 765.667 -6.16867 -1.40205 0
M  V30 7574 C 764.331 -6.55172 -1.27694 0
M  V30 7575 H 763.601 -0.54796 -0.49882 0
M  V30 7576 H 766.248 -1.7892 -0.682643 0
M  V30 7577 H 764.553 -2.17105 -3.26148 0
M  V30 7578 H 766.25 -2.53176 -3.10971 0
M  V30 7579 H 762.84 -3.66176 -2.22739 0
M  V30 7580 H 767.024 -4.58561 -1.89829 0
M  V30 7581 H 762.28 -5.93365 -1.47402 0
M  V30 7582 H 766.454 -6.86771 -1.15408 0
M  V30 7583 H 764.081 -7.54411 -0.936375 0
M  V30 7584 N 765.656 0.84705 -1.32902 0
M  V30 7585 C 766.881 1.63925 -1.27056 0
M  V30 7586 C 767.306 1.87443 0.157136 0
M  V30 7587 O 766.664 1.43266 1.11106 0
M  V30 7588 C 766.712 2.97134 -2.04313 0
M  V30 7589 O 765.816 3.88049 -1.39614 0
M  V30 7590 H 765.157 0.499477 -0.437514 0
M  V30 7591 H 767.687 1.05443 -1.75336 0
M  V30 7592 H 767.697 3.46896 -2.14772 0
M  V30 7593 H 766.372 2.79339 -3.08128 0
M  V30 7594 H 764.949 3.46525 -1.3775 0
M  V30 7595 N 767.134 1.16236 1.06428 0
M  V30 7596 C 768.044 0.881976 2.1739 0
M  V30 7597 C 769.06 -0.145259 1.73393 0
M  V30 7598 O 770.236 0.0310558 2.01376 0
M  V30 7599 C 767.301 0.385496 3.4455 0
M  V30 7600 C 766.362 1.47779 4.03063 0
M  V30 7601 C 765.595 1.0049 5.24154 0
M  V30 7602 O 765.818 -0.145889 5.70213 0
M  V30 7603 O 764.752 1.79265 5.74585 0
M  V30 7604 H 768.578 1.80983 2.43883 0
M  V30 7605 H 766.163 0.942226 1.15942 0
M  V30 7606 H 768.045 0.115536 4.21242 0
M  V30 7607 H 766.72 -0.514369 3.19587 0
M  V30 7608 H 765.627 1.80147 3.27869 0
M  V30 7609 H 766.96 2.35291 4.32318 0
M  V30 7610 N 768.612 -1.24939 0.960631 0
M  V30 7611 C 769.522 -2.29374 0.492435 0
M  V30 7612 C 770.538 -1.68262 -0.443154 0
M  V30 7613 O 771.714 -1.98875 -0.31793 0
M  V30 7614 C 768.779 -3.46023 -0.216626 0
M  V30 7615 C 767.84 -4.22557 0.757915 0
M  V30 7616 C 767.073 -5.33636 0.0825969 0
M  V30 7617 O 767.296 -5.59084 -1.13054 0
M  V30 7618 O 766.23 -5.96939 0.771177 0
M  V30 7619 H 770.056 -2.71525 1.36044 0
M  V30 7620 H 767.641 -1.30499 0.72735 0
M  V30 7621 H 769.523 -4.16885 -0.615241 0
M  V30 7622 H 768.198 -3.05862 -1.05971 0
M  V30 7623 H 767.105 -3.54099 1.20685 0
M  V30 7624 H 768.438 -4.66516 1.5692 0
M  V30 7625 N 770.09 -0.729906 -1.39679 0
M  V30 7626 C 771.338 -0.275077 -2.00219 0
M  V30 7627 C 771.659 1.1401 -1.58199 0
M  V30 7628 O 770.929 1.77546 -0.827904 0
M  V30 7629 H 769.509 -0.0987127 -0.740449 0
M  V30 7630 H 772.171 -0.93873 -1.70804 0
M  V30 7631 H 771.267 -0.319446 -3.10461 0
M  V30 7632 N 771.568 1.50203 -0.477153 0
M  V30 7633 C 772.531 2.27194 0.302599 0
M  V30 7634 C 773.531 1.32221 0.915112 0
M  V30 7635 O 774.721 1.55593 0.783348 0
M  V30 7636 C 771.853 3.0938 1.43167 0
M  V30 7637 H 773.046 2.97575 -0.372678 0
M  V30 7638 H 770.599 1.54578 -0.231392 0
M  V30 7639 H 771.334 2.43509 2.14182 0
M  V30 7640 H 771.119 3.79181 0.998197 0
M  V30 7641 H 772.609 3.67592 1.98157 0
M  V30 7642 N 773.046 0.209999 1.56195 0
M  V30 7643 C 774.292 -0.425442 1.98287 0
M  V30 7644 C 774.625 -1.60232 1.09724 0
M  V30 7645 O 773.9 -1.93902 0.152414 0
M  V30 7646 C 774.183 -0.871189 3.49403 0
M  V30 7647 C 774.036 0.308527 4.48741 0
M  V30 7648 C 775.355 -1.73146 4.04609 0
M  V30 7649 H 772.474 -0.153169 0.720908 0
M  V30 7650 H 775.116 0.303916 1.87554 0
M  V30 7651 H 773.266 -1.49266 3.58681 0
M  V30 7652 H 774.938 0.946487 4.51486 0
M  V30 7653 H 773.181 0.957878 4.23092 0
M  V30 7654 H 773.852 -0.0461143 5.51981 0
M  V30 7655 H 776.328 -1.2072 3.98203 0
M  V30 7656 H 775.204 -2.01228 5.10684 0
M  V30 7657 H 775.465 -2.69083 3.5078 0
M  V30 7658 N 774.524 -1.57472 -0.0634922 0
M  V30 7659 C 775.772 -1.87283 -0.759563 0
M  V30 7660 C 776.093 -0.803135 -1.77693 0
M  V30 7661 O 775.363 0.167293 -1.95184 0
M  V30 7662 H 773.943 -0.691106 -0.283516 0
M  V30 7663 H 776.605 -1.94864 -0.0376091 0
M  V30 7664 H 775.701 -2.85064 -1.27062 0
M  V30 7665 N 776.003 0.335068 -1.53997 0
M  V30 7666 C 777.233 1.0926 -1.75345 0
M  V30 7667 C 777.641 1.82568 -0.496545 0
M  V30 7668 O 776.984 1.75525 0.541897 0
M  V30 7669 C 777.046 2.14473 -2.88516 0
M  V30 7670 C 776.71 1.60665 -4.27827 0
M  V30 7671 C 777.707 1.05448 -5.09094 0
M  V30 7672 C 775.392 1.65255 -4.74337 0
M  V30 7673 C 777.386 0.555372 -6.34976 0
M  V30 7674 C 775.073 1.14956 -6.0019 0
M  V30 7675 C 776.071 0.601907 -6.80343 0
M  V30 7676 O 775.759 0.106445 -8.0383 0
M  V30 7677 H 775.491 0.331329 -0.589234 0
M  V30 7678 H 778.045 0.39042 -2.01655 0
M  V30 7679 H 776.275 2.88274 -2.5775 0
M  V30 7680 H 777.964 2.75857 -2.97755 0
M  V30 7681 H 778.73 1.01218 -4.74321 0
M  V30 7682 H 774.609 2.06822 -4.12002 0
M  V30 7683 H 778.153 0.127245 -6.97484 0
M  V30 7684 H 774.05 1.18891 -6.34457 0
M  V30 7685 H 774.818 0.222944 -8.18196 0
M  V30 7686 N 777.481 1.45874 0.596531 0
M  V30 7687 C 778.706 1.54247 1.38646 0
M  V30 7688 C 779.131 0.179571 1.87241 0
M  V30 7689 O 778.489 -0.837831 1.6078 0
M  V30 7690 C 778.537 2.54015 2.55946 0
M  V30 7691 O 777.641 2.06561 3.5694 0
M  V30 7692 H 776.982 0.519555 0.413471 0
M  V30 7693 H 779.512 1.91327 0.724936 0
M  V30 7694 H 779.522 2.73179 3.03047 0
M  V30 7695 H 778.197 3.52994 2.19928 0
M  V30 7696 H 776.774 1.97324 3.16414 0
M  V30 7697 N 778.959 -0.83999 1.33349 0
M  V30 7698 C 780.184 -1.63249 1.27924 0
M  V30 7699 C 780.609 -1.87523 -0.147193 0
M  V30 7700 O 779.967 -1.43853 -1.10345 0
M  V30 7701 C 780.015 -2.96046 2.05886 0
M  V30 7702 O 779.119 -3.87303 1.4167 0
M  V30 7703 H 778.46 -0.49715 0.440157 0
M  V30 7704 H 780.99 -1.04512 1.75893 0
M  V30 7705 H 781 -3.45752 2.16609 0
M  V30 7706 H 779.675 -2.77701 3.09605 0
M  V30 7707 H 778.252 -3.45789 1.39585 0
M  V30 7708 N 780.437 -1.16799 -1.0581 0
M  V30 7709 C 781.714 -0.862616 -1.75551 0
M  V30 7710 C 782.094 0.6385 -2.01212 0
M  V30 7711 O 781.442 1.58784 -1.64317 0
M  V30 7712 C 781.652 -1.6907 -3.05314 0
M  V30 7713 C 783 -1.90675 -3.79379 0
M  V30 7714 O 784.024 -1.65976 -3.15167 0
M  V30 7715 O 782.883 -2.32145 -4.94743 0
M  V30 7716 H 779.977 -0.318789 -0.763088 0
M  V30 7717 H 782.523 -1.27461 -1.12034 0
M  V30 7718 H 781.295 -2.70912 -2.82352 0
M  V30 7719 H 780.918 -1.27606 -3.76567 0
M  V30 7720 N 781.915 1.24427 -0.967243 0
M  V30 7721 C 783.14 1.9708 -0.646069 0
M  V30 7722 C 783.565 1.71272 0.777665 0
M  V30 7723 O 782.923 0.976179 1.52776 0
M  V30 7724 C 782.971 3.48501 -0.926266 0
M  V30 7725 O 782.075 4.12398 -0.0114653 0
M  V30 7726 H 781.416 0.617423 -0.244304 0
M  V30 7727 H 783.946 1.58215 -1.29727 0
M  V30 7728 H 783.956 3.98885 -0.857619 0
M  V30 7729 H 782.631 3.66613 -1.96386 0
M  V30 7730 H 781.208 3.72661 -0.133396 0
M  V30 7731 N 783.393 0.737304 1.3929 0
M  V30 7732 C 784.303 0.100464 2.34385 0
M  V30 7733 C 785.319 -0.719282 1.58437 0
M  V30 7734 O 786.495 -0.647216 1.90717 0
M  V30 7735 C 783.56 -0.794325 3.37478 0
M  V30 7736 C 782.621 0.0379345 4.29283 0
M  V30 7737 C 781.854 -0.814241 5.27452 0
M  V30 7738 O 782.077 -2.05288 5.32177 0
M  V30 7739 O 781.011 -0.241679 6.01415 0
M  V30 7740 H 784.837 0.885407 2.90507 0
M  V30 7741 H 782.422 0.497999 1.40856 0
M  V30 7742 H 784.304 -1.30622 4.00644 0
M  V30 7743 H 782.979 -1.55804 2.83737 0
M  V30 7744 H 781.886 0.595405 3.69331 0
M  V30 7745 H 783.219 0.763926 4.86236 0
M  V30 7746 N 784.871 -1.49948 0.485112 0
M  V30 7747 C 786.099 -2.06806 -0.0622824 0
M  V30 7748 C 786.514 -1.34736 -1.32256 0
M  V30 7749 O 785.871 -0.420836 -1.77582 0
M  V30 7750 C 785.922 -3.59934 -0.336096 0
M  V30 7751 O 785.643 -4.29289 0.874203 0
M  V30 7752 C 787.144 -4.33459 -0.928903 0
M  V30 7753 H 784.364 -0.670867 0.0133472 0
M  V30 7754 H 786.908 -1.92937 0.677917 0
M  V30 7755 H 785.063 -3.7356 -1.02625 0
M  V30 7756 H 785.477 -5.20735 0.627332 0
M  V30 7757 H 786.951 -5.41527 -1.07017 0
M  V30 7758 H 787.428 -3.94881 -1.92265 0
M  V30 7759 H 788.034 -4.24399 -0.276705 0
M  V30 7760 N 786.349 -0.21828 -1.56081 0
M  V30 7761 C 787.279 0.687922 -2.23136 0
M  V30 7762 C 788.26 1.20357 -1.202 0
M  V30 7763 O 789.445 1.24817 -1.48776 0
M  V30 7764 C 786.575 1.89762 -2.90874 0
M  V30 7765 C 785.529 1.51595 -4.00254 0
M  V30 7766 C 784.855 2.80415 -4.55271 0
M  V30 7767 C 786.155 0.708404 -5.17474 0
M  V30 7768 H 787.849 0.128854 -2.99123 0
M  V30 7769 H 785.395 0.0605354 -1.43873 0
M  V30 7770 H 787.348 2.53699 -3.36474 0
M  V30 7771 H 786.072 2.4816 -2.1233 0
M  V30 7772 H 784.731 0.900058 -3.55379 0
M  V30 7773 H 784.379 3.36951 -3.73461 0
M  V30 7774 H 784.079 2.55613 -5.2909 0
M  V30 7775 H 785.603 3.453 -5.03587 0
M  V30 7776 H 787.017 1.2514 -5.59476 0
M  V30 7777 H 785.414 0.557593 -5.97504 0
M  V30 7778 H 786.484 -0.285679 -4.84058 0
M  V30 7779 N 787.827 1.57504 0.0551401 0
M  V30 7780 C 789.104 1.79155 0.785048 0
M  V30 7781 C 789.484 0.809995 1.94942 0
M  V30 7782 O 788.832 -0.153432 2.27984 0
M  V30 7783 C 789.042 3.26134 1.24247 0
M  V30 7784 C 790.39 3.90419 1.66908 0
M  V30 7785 O 791.414 3.30126 1.33772 0
M  V30 7786 O 790.273 4.96523 2.28314 0
M  V30 7787 H 787.367 0.735825 0.377479 0
M  V30 7788 H 789.913 1.69666 0.0339285 0
M  V30 7789 H 788.685 3.89145 0.410089 0
M  V30 7790 H 788.308 3.40411 2.05441 0
M  V30 7791 N 789.305 -0.326896 1.54172 0
M  V30 7792 C 790.235 -1.40741 1.86317 0
M  V30 7793 C 791.216 -1.54125 0.719684 0
M  V30 7794 O 792.401 -1.6806 0.973117 0
M  V30 7795 C 789.531 -2.77557 2.08757 0
M  V30 7796 C 788.485 -2.78965 3.24596 0
M  V30 7797 C 787.811 -4.18824 3.32401 0
M  V30 7798 C 789.111 -2.4301 4.62324 0
M  V30 7799 H 790.805 -1.14088 2.76811 0
M  V30 7800 H 788.351 -0.547389 1.3319 0
M  V30 7801 H 790.304 -3.53209 2.29829 0
M  V30 7802 H 789.028 -3.0568 1.15009 0
M  V30 7803 H 787.687 -2.05767 3.03406 0
M  V30 7804 H 787.335 -4.44083 2.36218 0
M  V30 7805 H 787.035 -4.20673 4.10253 0
M  V30 7806 H 788.559 -4.96294 3.55703 0
M  V30 7807 H 789.973 -3.08375 4.83299 0
M  V30 7808 H 788.37 -2.56116 5.42701 0
M  V30 7809 H 789.44 -1.38165 4.64799 0
M  V30 7810 N 790.784 -1.46188 -0.588786 0
M  V30 7811 C 791.694 -1.58865 -1.72624 0
M  V30 7812 C 792.71 -0.472348 -1.67466 0
M  V30 7813 O 793.886 -0.735638 -1.87484 0
M  V30 7814 C 790.951 -1.56989 -3.0912 0
M  V30 7815 C 790.012 -2.79804 -3.25589 0
M  V30 7816 C 789.245 -2.78009 -4.55573 0
M  V30 7817 O 789.468 -1.86406 -5.39082 0
M  V30 7818 O 788.402 -3.6947 -4.75159 0
M  V30 7819 H 792.228 -2.55047 -1.64878 0
M  V30 7820 H 789.813 -1.28912 -0.755115 0
M  V30 7821 H 791.695 -1.58618 -3.90408 0
M  V30 7822 H 790.37 -0.639648 -3.17317 0
M  V30 7823 H 789.277 -2.83732 -2.43818 0
M  V30 7824 H 790.61 -3.72017 -3.22279 0
M  V30 7825 N 792.262 0.832906 -1.33792 0
M  V30 7826 C 793.172 1.97514 -1.26592 0
M  V30 7827 C 794.188 1.73114 -0.175391 0
M  V30 7828 O 795.364 1.97387 -0.400062 0
M  V30 7829 C 792.429 3.31625 -1.01121 0
M  V30 7830 C 791.49 3.69101 -2.19233 0
M  V30 7831 C 790.723 4.96813 -1.94968 0
M  V30 7832 O 790.946 5.63208 -0.902955 0
M  V30 7833 O 789.88 5.31932 -2.8166 0
M  V30 7834 H 793.706 2.0653 -2.22664 0
M  V30 7835 H 791.291 0.966826 -1.13898 0
M  V30 7836 H 793.173 4.11968 -0.886571 0
M  V30 7837 H 791.848 3.23599 -0.080822 0
M  V30 7838 H 790.755 2.89243 -2.37253 0
M  V30 7839 H 792.088 3.818 -3.10628 0
M  V30 7840 N 793.74 1.17359 1.05189 0
M  V30 7841 C 794.703 0.892604 2.11105 0
M  V30 7842 C 795.703 -0.117236 1.60372 0
M  V30 7843 O 796.893 0.114936 1.7382 0
M  V30 7844 C 794.025 0.337032 3.3923 0
M  V30 7845 H 795.218 1.83169 2.37464 0
M  V30 7846 H 792.771 0.984051 1.21434 0
M  V30 7847 H 793.506 -0.609198 3.18527 0
M  V30 7848 H 793.291 1.06484 3.77364 0
M  V30 7849 H 794.781 0.158763 4.17298 0
M  V30 7850 N 795.218 -1.23913 0.973828 0
M  V30 7851 C 796.128 -2.28838 0.516735 0
M  V30 7852 C 797.144 -1.68723 -0.425282 0
M  V30 7853 O 798.32 -1.99201 -0.296819 0
M  V30 7854 C 795.385 -3.46233 -0.179914 0
M  V30 7855 C 794.446 -4.21729 0.80269 0
M  V30 7856 C 793.679 -5.33518 0.139191 0
M  V30 7857 O 793.902 -5.60252 -1.07118 0
M  V30 7858 O 792.836 -5.96088 0.834447 0
M  V30 7859 H 796.662 -2.70067 1.38916 0
M  V30 7860 H 794.247 -1.2972 0.74115 0
M  V30 7861 H 796.129 -4.17514 -0.570991 0
M  V30 7862 H 794.804 -3.06969 -1.02721 0
M  V30 7863 H 793.711 -3.52799 1.24434 0
M  V30 7864 H 795.044 -4.64825 1.61859 0
M  V30 7865 N 796.696 -0.74468 -1.38897 0
M  V30 7866 C 797.944 -0.296298 -1.99916 0
M  V30 7867 C 798.265 1.12325 -1.59399 0
M  V30 7868 O 797.535 1.76658 -0.846689 0
M  V30 7869 H 796.115 -0.106561 -0.73936 0
M  V30 7870 H 798.777 -0.956793 -1.69798 0
M  V30 7871 H 797.873 -0.352356 -3.10105 0
M  V30 7872 N 798.174 1.49689 -0.493057 0
M  V30 7873 C 799.137 2.27502 0.278485 0
M  V30 7874 C 800.137 1.33184 0.901037 0
M  V30 7875 O 801.327 1.56415 0.766801 0
M  V30 7876 C 798.459 3.10881 1.39878 0
M  V30 7877 H 799.652 2.97163 -0.404219 0
M  V30 7878 H 797.205 1.54324 -0.247774 0
M  V30 7879 H 797.94 2.45767 2.11587 0
M  V30 7880 H 797.725 3.80219 0.957924 0
M  V30 7881 H 799.215 3.69673 1.94247 0
M  V30 7882 N 799.652 0.226554 1.55963 0
M  V30 7883 C 800.898 -0.404387 1.98727 0
M  V30 7884 C 801.231 -1.59059 1.11418 0
M  V30 7885 O 800.506 -1.93729 0.172971 0
M  V30 7886 C 800.789 -0.834081 3.50307 0
M  V30 7887 C 800.642 0.356104 4.48388 0
M  V30 7888 C 801.961 -1.68845 4.06423 0
M  V30 7889 H 799.08 -0.145515 0.722492 0
M  V30 7890 H 801.722 0.323791 1.87221 0
M  V30 7891 H 799.872 -1.45454 3.60244 0
M  V30 7892 H 801.544 0.99432 4.50456 0
M  V30 7893 H 799.787 1.0027 4.22053 0
M  V30 7894 H 800.458 0.0124333 5.51999 0
M  V30 7895 H 802.934 -1.16489 3.99461 0
M  V30 7896 H 801.81 -1.958 5.1279 0
M  V30 7897 H 802.071 -2.65347 3.53615 0
M  V30 7898 N 801.13 -1.57531 -0.0467866 0
M  V30 7899 C 802.378 -1.88078 -0.739656 0
M  V30 7900 C 802.699 -0.821936 -1.76831 0
M  V30 7901 O 801.969 0.146582 -1.95351 0
M  V30 7902 H 800.549 -0.694075 -0.276169 0
M  V30 7903 H 803.211 -1.94893 -0.0169391 0
M  V30 7904 H 802.307 -2.86396 -1.24031 0
M  V30 7905 N 802.608 0.318715 -1.54344 0
M  V30 7906 C 803.838 1.07394 -1.76494 0
M  V30 7907 C 804.246 1.82031 -0.515881 0
M  V30 7908 O 803.589 1.7609 0.52325 0
M  V30 7909 C 803.651 2.11401 -2.90775 0
M  V30 7910 C 803.315 1.56118 -4.29507 0
M  V30 7911 C 804.312 1.00043 -5.10184 0
M  V30 7912 C 801.997 1.60215 -4.76063 0
M  V30 7913 C 803.991 0.487993 -6.35529 0
M  V30 7914 C 801.678 1.08584 -6.01376 0
M  V30 7915 C 802.676 0.529714 -6.80943 0
M  V30 7916 O 802.364 0.0211823 -8.03897 0
M  V30 7917 H 802.096 0.325061 -0.592715 0
M  V30 7918 H 804.65 0.36901 -2.02058 0
M  V30 7919 H 802.88 2.85524 -2.60793 0
M  V30 7920 H 804.569 2.72683 -3.00664 0
M  V30 7921 H 805.335 0.961811 -4.75367 0
M  V30 7922 H 801.214 2.02441 -4.14172 0
M  V30 7923 H 804.758 0.0532608 -6.9758 0
M  V30 7924 H 800.655 1.12155 -6.35682 0
M  V30 7925 H 801.423 0.136151 -8.18387 0
M  V30 7926 N 804.086 1.46499 0.581025 0
M  V30 7927 C 805.018 1.53225 1.70455 0
M  V30 7928 C 806.031 0.420443 1.57277 0
M  V30 7929 O 807.22 0.688888 1.64671 0
M  V30 7930 C 804.32 1.39803 3.08721 0
M  V30 7931 C 803.493 2.65132 3.47884 0
M  V30 7932 C 802.552 2.45886 4.65217 0
M  V30 7933 O 801.578 3.19615 4.70993 0
M  V30 7934 N 802.78 1.5216 5.60203 0
M  V30 7935 H 805.545 2.50098 1.65139 0
M  V30 7936 H 803.106 1.42576 0.76705 0
M  V30 7937 H 805.098 1.24697 3.8501 0
M  V30 7938 H 803.668 0.51104 3.08394 0
M  V30 7939 H 802.888 2.95169 2.61284 0
M  V30 7940 H 804.176 3.48385 3.70817 0
M  V30 7941 H 803.574 0.913646 5.58273 0
M  V30 7942 H 802.131 1.43017 6.35916 0
M  V30 7943 N 805.565 -0.825799 1.34232 0
M  V30 7944 C 806.976 -1.39835 1.23706 0
M  V30 7945 C 807.327 -1.95709 -0.138649 0
M  V30 7946 O 806.452 -1.89833 -1.03886 0
M  V30 7947 C 807.047 -2.54203 2.23978 0
M  V30 7948 C 805.606 -3.07374 2.17251 0
M  V30 7949 C 804.753 -1.80232 2.10741 0
M  V30 7950 H 807.704 -0.630442 1.4564 0
M  V30 7951 H 807.725 -3.32214 1.8551 0
M  V30 7952 H 807.237 -2.13506 3.24094 0
M  V30 7953 H 805.338 -3.52583 1.20483 0
M  V30 7954 H 805.451 -3.6666 3.08379 0
M  V30 7955 H 803.815 -2.01012 1.56417 0
M  V30 7956 H 804.598 -1.41713 3.12686 0
M  V30 7957 N 807.043 -1.17915 -1.04565 0
M  V30 7958 C 807.953 -0.916449 -2.15959 0
M  V30 7959 C 808.969 0.117655 -1.73602 0
M  V30 7960 O 810.145 -0.063089 -2.01301 0
M  V30 7961 C 807.21 -0.440262 -3.43893 0
M  V30 7962 C 806.271 -1.54172 -4.00661 0
M  V30 7963 C 805.504 -1.08816 -5.22489 0
M  V30 7964 O 805.727 0.0551547 -5.70373 0
M  V30 7965 O 804.661 -1.88383 -5.7166 0
M  V30 7966 H 808.487 -1.8484 -2.40972 0
M  V30 7967 H 806.072 -0.960552 -1.14428 0
M  V30 7968 H 807.954 -0.182537 -4.21004 0
M  V30 7969 H 806.629 0.46346 -3.20365 0
M  V30 7970 H 805.536 -1.85341 -3.24961 0
M  V30 7971 H 806.869 -2.42139 -4.2852 0
M  V30 7972 N 808.521 1.23394 -0.980386 0
M  V30 7973 C 809.751 1.9556 -0.666319 0
M  V30 7974 C 810.159 1.72786 0.770815 0
M  V30 7975 O 809.502 1.0162 1.53033 0
M  V30 7976 C 809.564 3.48643 -0.876825 0
M  V30 7977 C 809.228 3.95135 -2.29602 0
M  V30 7978 C 810.225 4.03806 -3.2747 0
M  V30 7979 C 807.91 4.28122 -2.62711 0
M  V30 7980 C 809.904 4.44818 -4.56526 0
M  V30 7981 C 807.591 4.68814 -3.9199 0
M  V30 7982 C 808.589 4.77129 -4.88709 0
M  V30 7983 O 808.277 5.16908 -6.15679 0
M  V30 7984 H 808.009 0.629422 -0.246585 0
M  V30 7985 H 810.563 1.57839 -1.31438 0
M  V30 7986 H 808.793 3.86319 -0.171587 0
M  V30 7987 H 810.482 4.0202 -0.55992 0
M  V30 7988 H 811.248 3.78526 -3.03222 0
M  V30 7989 H 807.127 4.20861 -1.8814 0
M  V30 7990 H 810.671 4.51223 -5.32018 0
M  V30 7991 H 806.568 4.93545 -4.16033 0
M  V30 7992 H 807.336 5.3502 -6.19432 0
M  V30 7993 N 809.999 0.752036 1.385 0
M  V30 7994 C 811.224 0.316993 2.04963 0
M  V30 7995 C 811.649 -1.04582 1.56346 0
M  V30 7996 O 811.007 -1.66616 0.714755 0
M  V30 7997 C 811.055 0.347235 3.58924 0
M  V30 7998 O 810.159 -0.659296 4.07096 0
M  V30 7999 H 809.5 0.140652 0.648932 0
M  V30 8000 H 812.03 1.02272 1.77205 0
M  V30 8001 H 812.04 0.19757 4.07521 0
M  V30 8002 H 810.715 1.34157 3.93668 0
M  V30 8003 H 809.292 -0.474371 3.6987 0
M  V30 8004 N 811.477 -1.49425 0.500989 0
M  V30 8005 C 812.424 -2.29126 -0.277443 0
M  V30 8006 C 813.394 -1.35522 -0.960363 0
M  V30 8007 O 814.579 -1.64479 -0.967027 0
M  V30 8008 C 811.719 -3.18193 -1.33593 0
M  V30 8009 C 810.832 -4.26854 -0.664791 0
M  V30 8010 C 809.967 -5.03137 -1.70372 0
M  V30 8011 C 809.006 -6.03635 -1.01445 0
M  V30 8012 N 808.143 -6.73083 -1.99758 0
M  V30 8013 H 812.983 -2.95187 0.408458 0
M  V30 8014 H 810.52 -1.45546 0.213275 0
M  V30 8015 H 812.478 -3.68207 -1.96161 0
M  V30 8016 H 811.108 -2.54116 -1.9906 0
M  V30 8017 H 810.16 -3.80328 0.0741708 0
M  V30 8018 H 811.472 -4.9865 -0.122197 0
M  V30 8019 H 810.626 -5.5702 -2.40445 0
M  V30 8020 H 809.365 -4.31114 -2.28017 0
M  V30 8021 H 808.37 -5.48984 -0.299496 0
M  V30 8022 H 809.595 -6.77644 -0.444497 0
M  V30 8023 H 807.541 -6.03832 -2.56365 0
M  V30 8024 H 807.458 -7.40855 -1.50565 0
M  V30 8025 H 808.726 -7.3157 -2.69119 0
M  V30 8026 N 812.955 -0.234822 -1.55841 0
M  V30 8027 C 814.202 0.39326 -1.98645 0
M  V30 8028 C 814.53 1.58823 -1.12274 0
M  V30 8029 O 813.785 1.94954 -0.170731 0
M  V30 8030 C 814.084 0.858032 -3.46947 0
M  V30 8031 C 813.75 -0.227858 -4.50324 0
M  V30 8032 C 812.412 -0.526128 -4.78315 0
M  V30 8033 C 814.764 -0.961576 -5.12253 0
M  V30 8034 C 812.092 -1.5624 -5.65514 0
M  V30 8035 C 814.444 -1.98728 -6.00575 0
M  V30 8036 C 813.108 -2.29233 -6.26904 0
M  V30 8037 H 812.378 0.143904 -0.726892 0
M  V30 8038 H 815.025 -0.34012 -1.88455 0
M  V30 8039 H 813.33 1.67041 -3.54408 0
M  V30 8040 H 815.027 1.35407 -3.77447 0
M  V30 8041 H 811.617 0.0147624 -4.28597 0
M  V30 8042 H 815.801 -0.744388 -4.90686 0
M  V30 8043 H 811.057 -1.80422 -5.84173 0
M  V30 8044 H 815.231 -2.5608 -6.47608 0
M  V30 8045 H 812.858 -3.09671 -6.94268 0
M  V30 8046 N 814.433 1.57553 0.0384317 0
M  V30 8047 C 815.673 1.90687 0.736069 0
M  V30 8048 C 816.037 0.832381 1.73019 0
M  V30 8049 O 817.238 1.04777 2.47538 0
M  V30 8050 C 815.509 3.28994 1.39635 0
M  V30 8051 S 817.068 3.83944 2.12444 0
M  V30 8052 H 813.886 0.667799 0.244059 0
M  V30 8053 H 816.488 1.95498 -0.00901643 0
M  V30 8054 H 815.192 4.05067 0.659465 0
M  V30 8055 H 814.723 3.27463 2.18018 0
M  V30 8056 H 816.738 3.61916 3.39457 0
M  V30 8057 N 815.911 -0.310526 1.54511 0
M  V30 8058 C 817.327 -0.655637 1.45511 0
M  V30 8059 C 817.527 -1.91114 0.638564 0
M  V30 8060 O 816.583 -2.52098 0.142497 0
M  V30 8061 C 817.896 -0.817501 2.89374 0
M  V30 8062 C 819.444 -0.914003 2.99358 0
M  V30 8063 C 819.919 -1.10794 4.44397 0
M  V30 8064 N 821.41 -1.17437 4.48066 0
M  V30 8065 C 822.145 -1.34255 5.57461 0
M  V30 8066 N 821.641 -1.48032 6.768 0
M  V30 8067 N 823.434 -1.37067 5.45132 0
M  V30 8068 H 815.585 0.514506 2.06074 0
M  V30 8069 H 817.848 0.168478 0.932909 0
M  V30 8070 H 817.554 0.034003 3.51684 0
M  V30 8071 H 817.428 -1.7094 3.36243 0
M  V30 8072 H 819.815 -1.756 2.37168 0
M  V30 8073 H 819.896 0.00170958 2.558 0
M  V30 8074 H 819.54 -0.270743 5.07178 0
M  V30 8075 H 819.47 -2.03773 4.85576 0
M  V30 8076 H 821.961 -1.08181 3.62084 0
M  V30 8077 H 822.274 -1.60593 7.5593 0
M  V30 8078 H 820.619 -1.45105 6.79683 0
M  V30 8079 H 823.81 -1.25909 4.50849 0
M  V30 8080 H 823.983 -1.49831 6.3044 0
M  V30 8081 N 817.389 -1.46805 -0.573248 0
M  V30 8082 C 818.322 -1.52608 -1.69665 0
M  V30 8083 C 819.3 -0.379426 -1.58111 0
M  V30 8084 O 820.484 -0.584938 -1.79195 0
M  V30 8085 C 817.611 -1.41355 -3.07793 0
M  V30 8086 C 816.657 -2.60321 -3.37839 0
M  V30 8087 S 817.49 -4.22622 -3.28863 0
M  V30 8088 C 818.646 -4.13894 -4.69513 0
M  V30 8089 H 818.879 -2.47653 -1.64485 0
M  V30 8090 H 816.412 -1.34806 -0.752769 0
M  V30 8091 H 818.37 -1.35549 -3.87475 0
M  V30 8092 H 817.031 -0.477213 -3.10454 0
M  V30 8093 H 816.224 -2.48466 -4.38498 0
M  V30 8094 H 815.826 -2.63165 -2.65745 0
M  V30 8095 H 818.118 -3.81158 -5.60111 0
M  V30 8096 H 819.061 -5.14584 -4.86425 0
M  V30 8097 H 819.469 -3.44998 -4.46807 0
M  V30 8098 N 818.867 0.818669 -1.34668 0
M  V30 8099 C 820.092 1.61193 -1.30505 0
M  V30 8100 C 820.517 1.87734 0.117341 0
M  V30 8101 O 819.875 1.45591 1.08042 0
M  V30 8102 C 819.923 2.92733 -2.1057 0
M  V30 8103 O 819.027 3.85 -1.47813 0
M  V30 8104 H 818.368 0.490085 -0.44801 0
M  V30 8105 H 820.898 1.01701 -1.77534 0
M  V30 8106 H 820.908 3.42262 -2.22082 0
M  V30 8107 H 819.583 2.7274 -3.13984 0
M  V30 8108 H 818.16 3.43525 -1.45069 0
M  V30 8109 N 820.346 1.18468 1.03938 0
M  V30 8110 C 821.576 1.0043 1.80547 0
M  V30 8111 C 821.984 -0.450407 1.83761 0
M  V30 8112 O 821.327 -1.32463 1.27276 0
M  V30 8113 C 821.389 1.48437 3.27424 0
M  V30 8114 C 821.053 2.96372 3.47869 0
M  V30 8115 C 822.05 3.94217 3.38953 0
M  V30 8116 C 819.735 3.34831 3.74424 0
M  V30 8117 C 821.729 5.28517 3.56298 0
M  V30 8118 C 819.416 4.69294 3.91416 0
M  V30 8119 C 820.414 5.65946 3.82354 0
M  V30 8120 O 820.102 6.97974 3.98858 0
M  V30 8121 H 819.834 0.354853 0.575374 0
M  V30 8122 H 822.388 1.57473 1.31876 0
M  V30 8123 H 820.618 0.857601 3.7707 0
M  V30 8124 H 822.307 1.2677 3.85596 0
M  V30 8125 H 823.073 3.6585 3.184 0
M  V30 8126 H 818.952 2.60161 3.80575 0
M  V30 8127 H 822.496 6.03943 3.49141 0
M  V30 8128 H 818.393 4.97361 4.11463 0
M  V30 8129 H 819.161 7.04895 4.1601 0
M  V30 8130 N 821.824 -1.22873 0.986916 0
M  V30 8131 C 822.756 -2.23889 0.490537 0
M  V30 8132 C 823.769 -1.57523 -0.411144 0
M  V30 8133 O 824.958 -1.7721 -0.214236 0
M  V30 8134 C 822.058 -3.37488 -0.30902 0
M  V30 8135 C 821.231 -4.33438 0.587354 0
M  V30 8136 C 820.29 -5.25958 -0.159467 0
M  V30 8137 O 819.316 -5.67394 0.453115 0
M  V30 8138 N 820.518 -5.62265 -1.44355 0
M  V30 8139 H 823.283 -2.67109 1.35914 0
M  V30 8140 H 820.844 -1.37111 0.860937 0
M  V30 8141 H 822.836 -3.96365 -0.817139 0
M  V30 8142 H 821.406 -2.934 -1.07868 0
M  V30 8143 H 820.626 -3.72969 1.27622 0
M  V30 8144 H 821.914 -4.94495 1.19801 0
M  V30 8145 H 821.312 -5.30562 -1.96266 0
M  V30 8146 H 819.869 -6.23585 -1.89698 0
M  V30 8147 N 823.302 -0.75937 -1.38099 0
M  V30 8148 C 824.579 -0.243371 -1.9408 0
M  V30 8149 C 824.959 1.25942 -1.69416 0
M  V30 8150 O 824.307 2.03667 -1.03595 0
M  V30 8151 C 824.517 -0.603328 -3.43745 0
M  V30 8152 C 825.865 -0.566195 -4.20808 0
M  V30 8153 O 826.889 -0.541969 -3.52053 0
M  V30 8154 O 825.748 -0.582261 -5.43389 0
M  V30 8155 H 822.842 -0.0526825 -0.82532 0
M  V30 8156 H 825.388 -0.839884 -1.47459 0
M  V30 8157 H 824.16 -1.64098 -3.55229 0
M  V30 8158 H 823.783 0.0208887 -3.97595 0
M  V30 8159 N 824.78 1.49157 -0.508906 0
M  V30 8160 C 826.191 1.86593 -0.0630975 0
M  V30 8161 C 826.542 1.42051 1.35337 0
M  V30 8162 O 825.667 0.801866 2.00995 0
M  V30 8163 C 826.262 3.38629 -0.107729 0
M  V30 8164 C 824.821 3.75336 0.282776 0
M  V30 8165 C 823.968 2.7317 -0.4768 0
M  V30 8166 H 826.919 1.41362 -0.72128 0
M  V30 8167 H 826.94 3.74271 0.685689 0
M  V30 8168 H 826.452 3.71017 -1.13876 0
M  V30 8169 H 824.553 3.48558 1.31675 0
M  V30 8170 H 824.666 4.79081 -0.0421728 0
M  V30 8171 H 823.03 2.54591 0.0743552 0
M  V30 8172 H 823.813 3.08403 -1.50807 0
M  V30 8173 N 826.258 0.243083 1.55714 0
M  V30 8174 C 827.221 -0.644723 2.19945 0
M  V30 8175 C 828.221 -1.10562 1.16759 0
M  V30 8176 O 829.411 -1.01095 1.41865 0
M  V30 8177 C 826.543 -1.88569 2.83997 0
M  V30 8178 H 827.736 -0.0843839 2.99781 0
M  V30 8179 H 825.289 -0.00647246 1.56299 0
M  V30 8180 H 826.024 -2.48736 2.08089 0
M  V30 8181 H 825.809 -1.56345 3.59581 0
M  V30 8182 H 827.299 -2.51774 3.33166 0
M  V30 8183 N 827.736 -1.57571 -0.0300757 0
M  V30 8184 C 828.668 -2.0329 -1.05857 0
M  V30 8185 C 829.681 -0.945543 -1.32527 0
M  V30 8186 O 830.87 -1.22287 -1.30032 0
M  V30 8187 C 827.97 -2.39234 -2.40042 0
M  V30 8188 C 827.143 -3.70337 -2.32743 0
M  V30 8189 C 826.202 -3.93482 -3.49369 0
M  V30 8190 O 825.228 -4.64551 -3.28909 0
M  V30 8191 N 826.43 -3.39042 -4.71201 0
M  V30 8192 H 829.195 -2.9214 -0.668897 0
M  V30 8193 H 826.756 -1.60425 -0.218038 0
M  V30 8194 H 828.748 -2.51856 -3.16782 0
M  V30 8195 H 827.318 -1.5606 -2.70858 0
M  V30 8196 H 826.538 -3.68079 -1.41109 0
M  V30 8197 H 827.826 -4.56343 -2.25007 0
M  V30 8198 H 827.224 -2.81434 -4.90725 0
M  V30 8199 H 825.781 -3.57045 -5.45309 0
M  V30 8200 N 829.214 0.302327 -1.54673 0
M  V30 8201 C 830.144 1.37759 -1.88533 0
M  V30 8202 C 831.125 1.52961 -0.744113 0
M  V30 8203 O 832.31 1.6649 -0.999731 0
M  V30 8204 C 829.44 2.74201 -2.13146 0
M  V30 8205 C 828.394 2.73765 -3.28993 0
M  V30 8206 C 827.72 4.13483 -3.39022 0
M  V30 8207 C 829.02 2.35624 -4.66132 0
M  V30 8208 H 830.714 1.0967 -2.78591 0
M  V30 8209 H 828.26 0.52613 -1.34044 0
M  V30 8210 H 830.213 3.49508 -2.35419 0
M  V30 8211 H 828.937 3.03812 -1.19858 0
M  V30 8212 H 827.596 2.00914 -3.06642 0
M  V30 8213 H 827.244 4.40269 -2.43253 0
M  V30 8214 H 826.944 4.14093 -4.16894 0
M  V30 8215 H 828.468 4.90572 -3.63553 0
M  V30 8216 H 829.882 3.00647 -4.88143 0
M  V30 8217 H 828.279 2.47449 -5.46707 0
M  V30 8218 H 829.349 1.30753 -4.66939 0
M  V30 8219 N 830.692 1.47107 0.565454 0
M  V30 8220 C 831.917 1.57153 1.35343 0
M  V30 8221 C 832.342 0.219247 1.86818 0
M  V30 8222 O 831.7 -0.803539 1.62521 0
M  V30 8223 C 831.748 2.59387 2.50501 0
M  V30 8224 O 830.852 2.14086 3.52478 0
M  V30 8225 H 830.193 0.528209 0.402357 0
M  V30 8226 H 832.723 1.92821 0.684189 0
M  V30 8227 H 832.733 2.79546 2.97184 0
M  V30 8228 H 831.408 3.57579 2.12391 0
M  V30 8229 H 829.985 2.03991 3.12157 0
M  V30 8230 N 832.17 -0.811516 1.35101 0
M  V30 8231 C 833.41 -1.58177 1.29458 0
M  V30 8232 C 833.774 -1.91555 -0.130688 0
M  V30 8233 O 834.975 -2.6699 -0.311428 0
M  V30 8234 C 833.246 -2.83896 2.17112 0
M  V30 8235 S 834.805 -3.74344 2.28936 0
M  V30 8236 H 831.623 -0.542021 0.460146 0
M  V30 8237 H 834.225 -0.957653 1.70438 0
M  V30 8238 H 832.929 -2.57391 3.19653 0
M  V30 8239 H 832.46 -3.51297 1.7707 0
M  V30 8240 H 834.475 -4.73909 1.47054 0
M  V30 8241 N 833.648 -1.19017 -1.03309 0
M  V30 8242 C 834.578 -0.94772 -2.13402 0
M  V30 8243 C 835.559 0.117383 -1.69694 0
M  V30 8244 O 836.744 -0.0367733 -1.94165 0
M  V30 8245 C 833.874 -0.480977 -3.43953 0
M  V30 8246 C 832.828 -1.48743 -4.01322 0
M  V30 8247 C 832.154 -0.877924 -5.27443 0
M  V30 8248 C 833.454 -2.86642 -4.36616 0
M  V30 8249 H 835.148 -1.86846 -2.33942 0
M  V30 8250 H 832.694 -0.899781 -1.12427 0
M  V30 8251 H 834.647 -0.298677 -4.2034 0
M  V30 8252 H 833.371 0.475348 -3.23122 0
M  V30 8253 H 832.03 -1.65681 -3.27025 0
M  V30 8254 H 831.678 0.0858232 -5.02927 0
M  V30 8255 H 831.378 -1.54996 -5.66789 0
M  V30 8256 H 832.902 -0.706326 -6.06501 0
M  V30 8257 H 834.316 -2.73312 -5.03958 0
M  V30 8258 H 832.713 -3.50599 -4.87032 0
M  V30 8259 H 833.783 -3.39617 -3.46105 0
M  V30 8260 N 835.127 1.22348 -0.993418 0
M  V30 8261 C 836.538 1.72893 -0.704616 0
M  V30 8262 C 836.889 1.80095 0.778483 0
M  V30 8263 O 836.014 1.4476 1.60853 0
M  V30 8264 C 836.609 3.14 -1.27237 0
M  V30 8265 C 835.168 3.61949 -1.03294 0
M  V30 8266 C 834.315 2.39816 -1.39225 0
M  V30 8267 H 837.266 1.07688 -1.16572 0
M  V30 8268 H 837.287 3.74886 -0.651212 0
M  V30 8269 H 836.799 3.08727 -2.3518 0
M  V30 8270 H 834.9 3.72588 0.0298329 0
M  V30 8271 H 835.013 4.48051 -1.69668 0
M  V30 8272 H 833.377 2.41448 -0.810849 0
M  V30 8273 H 834.16 2.37203 -2.48172 0
M  V30 8274 N 836.605 0.766683 1.37694 0
M  V30 8275 C 837.835 0.339446 2.03792 0
M  V30 8276 C 838.243 -1.04153 1.57952 0
M  V30 8277 O 837.586 -1.67521 0.753826 0
M  V30 8278 C 837.648 0.29822 3.58261 0
M  V30 8279 C 837.312 1.62293 4.27212 0
M  V30 8280 C 838.309 2.57447 4.51682 0
M  V30 8281 C 835.994 1.89597 4.65143 0
M  V30 8282 C 837.988 3.78117 5.13134 0
M  V30 8283 C 835.675 3.10538 5.26317 0
M  V30 8284 C 836.673 4.04617 5.50249 0
M  V30 8285 O 836.361 5.23429 6.10145 0
M  V30 8286 H 836.093 0.140952 0.661142 0
M  V30 8287 H 838.647 1.04022 1.77111 0
M  V30 8288 H 836.877 -0.458897 3.83967 0
M  V30 8289 H 838.566 -0.101263 4.05774 0
M  V30 8290 H 839.332 2.37633 4.22795 0
M  V30 8291 H 835.211 1.17199 4.45854 0
M  V30 8292 H 838.755 4.51563 5.3173 0
M  V30 8293 H 834.652 3.3024 5.54628 0
M  V30 8294 H 835.42 5.24187 6.28626 0
M  V30 8295 N 838.083 -1.48885 0.516809 0
M  V30 8296 C 839.013 -2.32241 -0.242157 0
M  V30 8297 C 839.994 -1.41258 -0.947633 0
M  V30 8298 O 841.179 -1.70156 -0.935973 0
M  V30 8299 C 838.309 -3.22151 -1.29754 0
M  V30 8300 C 837.263 -4.22053 -0.710995 0
M  V30 8301 C 836.589 -5.01007 -1.86806 0
M  V30 8302 C 837.889 -5.21388 0.30853 0
M  V30 8303 H 839.583 -2.95943 0.453651 0
M  V30 8304 H 837.129 -1.42316 0.219612 0
M  V30 8305 H 839.082 -3.79284 -1.83634 0
M  V30 8306 H 837.806 -2.56423 -2.02274 0
M  V30 8307 H 836.465 -3.66087 -0.193819 0
M  V30 8308 H 836.113 -4.31713 -2.58133 0
M  V30 8309 H 835.813 -5.68615 -1.48159 0
M  V30 8310 H 837.337 -5.60989 -2.4109 0
M  V30 8311 H 838.751 -5.73122 -0.142703 0
M  V30 8312 H 837.148 -5.96975 0.611673 0
M  V30 8313 H 838.218 -4.69329 1.21894 0
M  V30 8314 N 839.561 -0.251338 -1.55583 0
M  V30 8315 C 840.471 0.656978 -2.25213 0
M  V30 8316 C 841.487 1.18966 -1.26977 0
M  V30 8317 O 842.663 1.22499 -1.59862 0
M  V30 8318 C 839.728 1.83527 -2.94141 0
M  V30 8319 C 838.789 1.34162 -4.07798 0
M  V30 8320 C 838.022 2.46375 -4.73429 0
M  V30 8321 O 838.245 3.65205 -4.38157 0
M  V30 8322 O 837.179 2.15881 -5.61853 0
M  V30 8323 H 841.005 0.0936395 -3.03556 0
M  V30 8324 H 838.59 -0.0196638 -1.49387 0
M  V30 8325 H 840.472 2.52279 -3.3754 0
M  V30 8326 H 839.147 2.38614 -2.18735 0
M  V30 8327 H 838.054 0.621249 -3.68906 0
M  V30 8328 H 839.387 0.836779 -4.85035 0
M  V30 8329 N 841.039 1.57585 0.0217189 0
M  V30 8330 C 841.989 2.03506 1.02807 0
M  V30 8331 C 842.973 0.925716 1.31603 0
M  V30 8332 O 844.165 1.18958 1.31065 0
M  V30 8333 C 841.294 2.52407 2.32693 0
M  V30 8334 C 840.38 3.70176 2.06955 0
M  V30 8335 N 840.771 4.82641 1.513 0
M  V30 8336 C 839.069 3.77691 2.37204 0
M  V30 8337 C 839.77 5.64218 1.41536 0
M  V30 8338 N 838.746 5.09557 1.89348 0
M  V30 8339 H 842.548 2.87878 0.591899 0
M  V30 8340 H 840.062 1.60793 0.227875 0
M  V30 8341 H 842.059 2.83569 3.05605 0
M  V30 8342 H 840.719 1.69444 2.76982 0
M  V30 8343 H 841.73 5.03931 1.19472 0
M  V30 8344 H 838.407 3.05542 2.84517 0
M  V30 8345 H 839.797 6.64576 0.989333 0
M  V30 8346 N 842.517 -0.29412 1.54831 0
M  V30 8347 C 843.763 -1.02999 1.74697 0
M  V30 8348 C 844.096 -1.86687 0.534949 0
M  V30 8349 O 843.371 -1.88789 -0.467863 0
M  V30 8350 C 843.654 -1.93024 3.03996 0
M  V30 8351 C 843.507 -1.1247 4.35512 0
M  V30 8352 C 844.826 -2.92085 3.29203 0
M  V30 8353 H 841.945 -0.373039 0.635618 0
M  V30 8354 H 844.587 -0.304065 1.87551 0
M  V30 8355 H 842.737 -2.5492 2.93169 0
M  V30 8356 H 844.409 -0.528067 4.58268 0
M  V30 8357 H 842.652 -0.427574 4.31688 0
M  V30 8358 H 843.323 -1.78728 5.22265 0
M  V30 8359 H 845.799 -2.40319 3.39685 0
M  V30 8360 H 844.675 -3.52234 4.20978 0
M  V30 8361 H 844.936 -3.66107 2.47827 0
M  V30 8362 N 843.995 -1.47404 -0.557645 0
M  V30 8363 C 845.243 -1.53703 -1.31224 0
M  V30 8364 C 845.564 -0.200742 -1.93964 0
M  V30 8365 O 844.834 0.775253 -1.79907 0
M  V30 8366 H 843.414 -0.566171 -0.487299 0
M  V30 8367 H 846.076 -1.83699 -0.651195 0
M  V30 8368 H 845.172 -2.30335 -2.10599 0
M  V30 8369 N 845.473 0.80434 -1.35529 0
M  V30 8370 C 846.423 1.90565 -1.25175 0
M  V30 8371 C 847.407 1.60232 -0.146512 0
M  V30 8372 O 848.599 1.72918 -0.377943 0
M  V30 8373 C 845.728 3.2754 -1.02823 0
M  V30 8374 C 844.814 3.63932 -2.17748 0
M  V30 8375 N 845.205 3.71744 -3.42986 0
M  V30 8376 C 843.503 3.93901 -2.09184 0
M  V30 8377 C 844.204 4.03944 -4.18574 0
M  V30 8378 N 843.18 4.18146 -3.47355 0
M  V30 8379 H 846.982 1.9481 -2.20059 0
M  V30 8380 H 844.496 0.99905 -1.28034 0
M  V30 8381 H 846.493 4.06281 -0.934941 0
M  V30 8382 H 845.153 3.2458 -0.0882551 0
M  V30 8383 H 846.164 3.54765 -3.77309 0
M  V30 8384 H 842.841 3.98954 -1.23054 0
M  V30 8385 H 844.231 4.17036 -5.26811 0
M  V30 8386 N 846.951 1.19563 1.02676 0
M  V30 8387 C 847.899 0.931942 2.13114 0
M  V30 8388 C 848.893 -0.113007 1.69023 0
M  V30 8389 O 850.099 0.0364298 1.79963 0
M  V30 8390 H 846.474 0.283981 0.696318 0
M  V30 8391 H 848.445 1.86991 2.32545 0
M  V30 8392 C 847.194 0.489461 3.44238 0
M  V30 8393 H 846.517 1.28508 3.78584 0
M  V30 8394 H 847.957 0.34408 4.22602 0
M  V30 8395 C 846.416 -0.796761 3.27343 0
M  V30 8396 O 846.946 -1.85767 3.56165 0
M  V30 8397 N 845.152 -0.754824 2.80626 0
M  V30 8398 H 844.699 0.108778 2.5737 0
M  V30 8399 H 844.657 -1.6158 2.69702 0
M  V30 8400 N 848.429 -1.21819 0.999893 0
M  V30 8401 C 849.379 -2.21823 0.527104 0
M  V30 8402 C 850.363 -1.55628 -0.408515 0
M  V30 8403 O 851.555 -1.75444 -0.234196 0
M  V30 8404 C 848.684 -3.42972 -0.149986 0
M  V30 8405 C 847.77 -4.16364 0.806349 0
M  V30 8406 N 848.161 -4.66403 1.95708 0
M  V30 8407 C 846.459 -4.41618 0.623672 0
M  V30 8408 C 847.16 -5.22443 2.5579 0
M  V30 8409 N 846.136 -5.11514 1.83995 0
M  V30 8410 H 849.938 -2.58161 1.40464 0
M  V30 8411 H 847.452 -1.37569 0.863054 0
M  V30 8412 H 849.449 -4.13816 -0.50613 0
M  V30 8413 H 848.109 -3.08145 -1.02357 0
M  V30 8414 H 849.12 -4.62142 2.33763 0
M  V30 8415 H 845.797 -4.17005 -0.203257 0
M  V30 8416 H 847.187 -5.7165 3.5308 0
M  V30 8417 N 849.908 -0.773975 -1.37286 0
M  V30 8418 C 851.136 -0.350758 -2.03905 0
M  V30 8419 C 851.551 1.02779 -1.58373 0
M  V30 8420 O 850.908 1.65646 -0.766009 0
M  V30 8421 C 850.959 -0.387335 -3.59419 0
M  V30 8422 O 850.68 -1.7115 -4.03286 0
M  V30 8423 C 852.181 0.047198 -4.43275 0
M  V30 8424 H 849.401 -0.146663 -0.654775 0
M  V30 8425 H 851.945 -1.04852 -1.75574 0
M  V30 8426 H 850.1 0.261865 -3.86514 0
M  V30 8427 H 850.514 -1.65166 -4.97816 0
M  V30 8428 H 851.988 -0.0295474 -5.51992 0
M  V30 8429 H 852.465 1.09786 -4.25257 0
M  V30 8430 H 853.071 -0.573899 -4.2141 0
M  V30 8431 N 851.386 1.48609 -0.524698 0
M  V30 8432 C 852.616 2.06599 0.00741868 0
M  V30 8433 C 853.024 1.3823 1.29186 0
M  V30 8434 O 852.367 0.461962 1.77797 0
M  V30 8435 C 852.429 3.58184 0.307324 0
M  V30 8436 C 852.093 4.48391 -0.882864 0
M  V30 8437 C 853.09 4.88485 -1.77984 0
M  V30 8438 C 850.775 4.90367 -1.08837 0
M  V30 8439 C 852.769 5.69319 -2.86627 0
M  V30 8440 C 850.456 5.70972 -2.17794 0
M  V30 8441 C 851.454 6.10355 -3.06523 0
M  V30 8442 O 851.142 6.89343 -4.13596 0
M  V30 8443 H 850.874 0.675421 -0.0279846 0
M  V30 8444 H 853.428 1.92058 -0.7282 0
M  V30 8445 H 851.658 3.70818 1.09685 0
M  V30 8446 H 853.347 3.98318 0.780886 0
M  V30 8447 H 854.113 4.56682 -1.63299 0
M  V30 8448 H 849.992 4.592 -0.407035 0
M  V30 8449 H 853.536 5.99978 -3.55911 0
M  V30 8450 H 849.433 6.02188 -2.32465 0
M  V30 8451 H 850.201 7.07689 -4.1124 0
M  V30 8452 N 852.864 0.259585 1.55447 0
M  V30 8453 C 853.812 -0.6507 2.23313 0
M  V30 8454 C 854.806 -1.17014 1.22491 0
M  V30 8455 O 856.012 -1.12557 1.40467 0
M  V30 8456 H 852.387 -0.228354 0.71649 0
M  V30 8457 H 854.358 -0.0553039 2.98349 0
M  V30 8458 C 853.107 -1.83081 2.95596 0
M  V30 8459 H 852.43 -1.44027 3.72956 0
M  V30 8460 H 853.87 -2.44469 3.46426 0
M  V30 8461 C 852.329 -2.70976 2.00184 0
M  V30 8462 O 852.859 -3.70882 1.54304 0
M  V30 8463 N 851.065 -2.37813 1.67014 0
M  V30 8464 H 850.612 -1.5662 2.04519 0
M  V30 8465 H 850.57 -2.96896 1.03443 0
M  V30 8466 N 854.342 -1.57594 -0.0133615 0
M  V30 8467 C 855.275 -2.02991 -1.04259 0
M  V30 8468 C 856.253 -0.917193 -1.34262 0
M  V30 8469 O 857.437 -1.18428 -1.46653 0
M  V30 8470 C 854.564 -2.41624 -2.37351 0
M  V30 8471 C 853.61 -3.63495 -2.231 0
M  V30 8472 S 854.443 -5.1198 -1.5696 0
M  V30 8473 C 855.599 -5.5387 -2.91511 0
M  V30 8474 H 855.832 -2.89973 -0.655985 0
M  V30 8475 H 853.365 -1.52769 -0.223827 0
M  V30 8476 H 855.323 -2.64551 -3.13884 0
M  V30 8477 H 853.984 -1.55065 -2.73155 0
M  V30 8478 H 853.177 -3.88233 -3.21389 0
M  V30 8479 H 852.779 -3.405 -1.54711 0
M  V30 8480 H 855.071 -5.55514 -3.87828 0
M  V30 8481 H 856.014 -6.53988 -2.71488 0
M  V30 8482 H 856.422 -4.81404 -2.94806 0
M  V30 8483 N 855.82 0.285905 -1.54985 0
M  V30 8484 C 856.783 1.33625 -1.86218 0
M  V30 8485 C 857.783 1.42971 -0.735936 0
M  V30 8486 O 858.973 1.42345 -1.00417 0
M  V30 8487 C 856.105 2.71926 -2.05595 0
M  V30 8488 H 857.298 1.07167 -2.80099 0
M  V30 8489 H 854.851 0.523335 -1.47278 0
M  V30 8490 H 855.586 3.03583 -1.14053 0
M  V30 8491 H 855.371 2.6653 -2.87583 0
M  V30 8492 H 856.861 3.47841 -2.31077 0
M  V30 8493 N 857.298 1.47698 0.54982 0
M  V30 8494 C 858.709 1.48474 1.13191 0
M  V30 8495 C 859.06 0.243504 1.94683 0
M  V30 8496 O 858.185 -0.651009 2.06375 0
M  V30 8497 C 858.78 2.69022 2.05944 0
M  V30 8498 C 857.339 2.72733 2.5941 0
M  V30 8499 C 856.486 2.41691 1.35944 0
M  V30 8500 H 859.437 1.55101 0.336048 0
M  V30 8501 H 859.458 2.46412 2.89934 0
M  V30 8502 H 858.97 3.59345 1.46605 0
M  V30 8503 H 857.071 1.86568 3.22526 0
M  V30 8504 H 857.184 3.73628 2.99899 0
M  V30 8505 H 855.548 1.92428 1.66864 0
M  V30 8506 H 856.331 3.34231 0.783869 0
M  V30 8507 N 858.776 -0.797141 1.35954 0
M  V30 8508 C 860.001 -1.59097 1.33053 0
M  V30 8509 C 860.426 -1.87897 -0.0874592 0
M  V30 8510 O 859.784 -1.47291 -1.05712 0
M  V30 8511 C 859.832 -2.89346 2.152 0
M  V30 8512 O 858.936 -3.826 1.5392 0
M  V30 8513 H 858.277 -0.482895 0.45575 0
M  V30 8514 H 860.807 -0.988633 1.79129 0
M  V30 8515 H 860.817 -3.38686 2.27499 0
M  V30 8516 H 859.492 -2.6771 3.18283 0
M  V30 8517 H 858.069 -3.41174 1.50516 0
M  V30 8518 N 860.254 -1.20106 -1.0204 0
M  V30 8519 C 861.217 -0.948261 -2.08664 0
M  V30 8520 C 862.217 0.0746753 -1.60627 0
M  V30 8521 O 863.407 -0.160981 -1.73455 0
M  V30 8522 C 860.539 -0.426854 -3.38217 0
M  V30 8523 H 861.732 -1.894 -2.32524 0
M  V30 8524 H 859.285 -1.0159 -1.18782 0
M  V30 8525 H 860.02 0.524532 -3.2003 0
M  V30 8526 H 859.805 -1.16451 -3.74408 0
M  V30 8527 H 861.295 -0.269346 -4.1673 0
M  V30 8528 N 861.732 1.21287 -1.00634 0
M  V30 8529 C 862.662 2.25973 -0.588089 0
M  V30 8530 C 863.643 1.65527 0.391764 0
M  V30 8531 O 864.828 1.92179 0.279452 0
M  V30 8532 C 861.958 3.47197 0.0847336 0
M  V30 8533 C 860.912 4.20168 -0.815039 0
M  V30 8534 C 860.238 5.34699 -0.00855393 0
M  V30 8535 C 861.538 4.77416 -2.11828 0
M  V30 8536 H 863.232 2.61212 -1.46317 0
M  V30 8537 H 860.778 1.25563 -0.704985 0
M  V30 8538 H 862.731 4.19602 0.388821 0
M  V30 8539 H 861.455 3.11092 0.994456 0
M  V30 8540 H 860.114 3.49614 -1.10297 0
M  V30 8541 H 859.762 4.94837 0.902499 0
M  V30 8542 H 859.462 5.84449 -0.607664 0
M  V30 8543 H 860.986 6.09914 0.289317 0
M  V30 8544 H 862.4 5.41694 -1.87725 0
M  V30 8545 H 860.797 5.37561 -2.66736 0
M  V30 8546 H 861.867 3.96724 -2.78816 0
M  V30 8547 N 863.21 0.781244 1.36873 0
M  V30 8548 C 864.487 0.274217 1.93668 0
M  V30 8549 C 864.867 -1.2323 1.71399 0
M  V30 8550 O 864.215 -2.01993 1.06822 0
M  V30 8551 C 864.425 0.657939 3.42742 0
M  V30 8552 C 865.773 0.63307 4.19854 0
M  V30 8553 O 866.797 0.597909 3.51146 0
M  V30 8554 O 865.656 0.668636 5.42394 0
M  V30 8555 H 862.75 0.0658059 0.824378 0
M  V30 8556 H 865.296 0.863238 1.46104 0
M  V30 8557 H 864.068 1.69728 3.52573 0
M  V30 8558 H 863.691 0.0423678 3.97577 0
M  V30 8559 N 864.689 -1.48329 0.532571 0
M  V30 8560 C 865.914 -2.074 0.00147755 0
M  V30 8561 C 866.339 -1.38615 -1.27151 0
M  V30 8562 O 865.697 -0.452949 -1.75551 0
M  V30 8563 C 865.745 -3.60029 -0.202866 0
M  V30 8564 O 864.849 -3.92327 -1.27097 0
M  V30 8565 H 864.19 -0.662777 0.0402883 0
M  V30 8566 H 866.72 -1.90701 0.741224 0
M  V30 8567 H 866.73 -4.05783 -0.424722 0
M  V30 8568 H 865.405 -4.09496 0.727033 0
M  V30 8569 H 863.982 -3.58348 -1.03156 0
M  V30 8570 N 866.167 -0.267825 -1.55308 0
M  V30 8571 C 867.13 0.60965 -2.20943 0
M  V30 8572 C 868.13 1.0869 -1.18504 0
M  V30 8573 O 869.32 0.988248 -1.43455 0
M  V30 8574 C 866.452 1.84027 -2.86961 0
M  V30 8575 H 867.645 0.0366806 -2.99878 0
M  V30 8576 H 865.198 -0.0183941 -1.56289 0
M  V30 8577 H 865.933 2.45394 -2.1202 0
M  V30 8578 H 865.718 1.50605 -3.62023 0
M  V30 8579 H 867.208 2.46442 -3.37129 0
M  V30 8580 N 867.645 1.57599 0.00500368 0
M  V30 8581 C 868.922 1.81561 0.727654 0
M  V30 8582 C 869.302 0.871604 1.92266 0
M  V30 8583 O 868.65 -0.0808232 2.28357 0
M  V30 8584 C 868.86 3.29922 1.13809 0
M  V30 8585 C 870.208 3.95531 1.54403 0
M  V30 8586 O 871.232 3.34215 1.23202 0
M  V30 8587 O 870.091 5.03535 2.12402 0
M  V30 8588 H 867.185 0.747462 0.353878 0
M  V30 8589 H 869.731 1.69688 -0.0200667 0
M  V30 8590 H 868.503 3.90253 0.286078 0
M  V30 8591 H 868.126 3.46775 1.94507 0
M  V30 8592 N 869.123 -0.277682 1.55134 0
M  V30 8593 C 870.053 -1.34742 1.90701 0
M  V30 8594 C 871.034 -1.51757 0.768354 0
M  V30 8595 O 872.219 -1.64879 1.02609 0
M  V30 8596 C 869.349 -2.70775 2.17481 0
M  V30 8597 C 868.303 -2.68497 3.33307 0
M  V30 8598 C 867.629 -4.08037 3.45557 0
M  V30 8599 C 868.929 -2.28178 4.69821 0
M  V30 8600 H 870.623 -1.05224 2.803 0
M  V30 8601 H 868.169 -0.504738 1.34864 0
M  V30 8602 H 870.122 -3.45719 2.40949 0
M  V30 8603 H 868.846 -3.01867 1.24676 0
M  V30 8604 H 867.505 -1.9601 3.09799 0
M  V30 8605 H 867.153 -4.36344 2.50226 0
M  V30 8606 H 866.853 -4.07409 4.23429 0
M  V30 8607 H 868.377 -4.84726 3.71312 0
M  V30 8608 H 869.791 -2.92843 4.92865 0
M  V30 8609 H 868.188 -2.3872 5.50575 0
M  V30 8610 H 869.258 -1.23308 4.6896 0
M  V30 8611 N 870.601 -1.47988 -0.541979 0
M  V30 8612 C 872.012 -1.49073 -1.12402 0
M  V30 8613 C 872.363 -0.253825 -1.94551 0
M  V30 8614 O 871.488 0.640056 -2.06718 0
M  V30 8615 C 872.083 -2.7011 -2.04514 0
M  V30 8616 C 870.642 -2.74105 -2.5796 0
M  V30 8617 C 869.789 -2.42409 -1.3466 0
M  V30 8618 H 872.74 -1.55277 -0.327818 0
M  V30 8619 H 872.761 -2.47946 -2.88623 0
M  V30 8620 H 872.273 -3.60117 -1.44697 0
M  V30 8621 H 870.374 -1.88276 -3.21532 0
M  V30 8622 H 870.487 -3.75213 -2.97913 0
M  V30 8623 H 868.851 -1.9331 -1.65841 0
M  V30 8624 H 869.634 -3.34642 -0.766133 0
M  V30 8625 N 872.079 0.78992 -1.36375 0
M  V30 8626 C 873.49 1.36506 -1.2737 0
M  V30 8627 C 873.841 1.96008 0.086711 0
M  V30 8628 O 872.966 1.92521 0.988159 0
M  V30 8629 C 873.561 2.48175 -2.30639 0
M  V30 8630 C 872.12 3.01506 -2.25325 0
M  V30 8631 C 871.267 1.74581 -2.15445 0
M  V30 8632 H 874.218 0.591606 -1.47261 0
M  V30 8633 H 874.239 3.27179 -1.94253 0
M  V30 8634 H 873.751 2.04838 -3.2964 0
M  V30 8635 H 871.852 3.49265 -1.29788 0
M  V30 8636 H 871.965 3.58355 -3.17992 0
M  V30 8637 H 870.329 1.96794 -1.61692 0
M  V30 8638 H 871.112 1.33373 -3.16333 0
M  V30 8639 N 873.557 1.20646 1.01402 0
M  V30 8640 C 874.968 1.01823 1.56489 0
M  V30 8641 C 875.319 -0.42463 1.9155 0
M  V30 8642 O 874.444 -1.30644 1.72514 0
M  V30 8643 C 875.039 1.84208 2.84347 0
M  V30 8644 C 873.598 1.69743 3.35953 0
M  V30 8645 C 872.745 1.8198 2.09233 0
M  V30 8646 H 875.696 1.348 0.837539 0
M  V30 8647 H 875.717 1.34698 3.55861 0
M  V30 8648 H 875.229 2.89215 2.58798 0
M  V30 8649 H 873.33 0.673833 3.66456 0
M  V30 8650 H 873.443 2.51173 4.07981 0
M  V30 8651 H 871.807 1.25193 2.21808 0
M  V30 8652 H 872.59 2.88477 1.86107 0
M  V30 8653 N 875.035 -1.20752 1.01276 0
M  V30 8654 C 876.26 -1.94547 0.718769 0
M  V30 8655 C 876.685 -1.7404 -0.713563 0
M  V30 8656 O 876.043 -1.03221 -1.49047 0
M  V30 8657 C 876.091 -3.44823 1.05497 0
M  V30 8658 O 875.195 -4.12072 0.164516 0
M  V30 8659 H 874.536 -0.607931 0.267051 0
M  V30 8660 H 877.066 -1.53292 1.35509 0
M  V30 8661 H 877.076 -3.95427 1.00507 0
M  V30 8662 H 875.751 -3.59072 2.09858 0
M  V30 8663 H 874.328 -3.71909 0.271615 0
M  V30 8664 N 876.513 -0.788492 -1.36457 0
M  V30 8665 C 877.476 -0.192209 -2.28393 0
M  V30 8666 C 878.476 0.609916 -1.48784 0
M  V30 8667 O 879.666 0.431046 -1.68783 0
M  V30 8668 C 876.798 0.734096 -3.32902 0
M  V30 8669 H 877.991 -1.00284 -2.82636 0
M  V30 8670 H 875.544 -0.557852 -1.46006 0
M  V30 8671 H 876.279 1.5691 -2.83813 0
M  V30 8672 H 876.064 0.160875 -3.9177 0
M  V30 8673 H 877.554 1.1462 -4.01562 0
M  V30 8674 N 877.991 1.48044 -0.54043 0
M  V30 8675 C 878.921 2.32597 0.205178 0
M  V30 8676 C 879.902 1.42748 0.925041 0
M  V30 8677 O 881.087 1.71624 0.908784 0
M  V30 8678 C 878.217 3.24175 1.24612 0
M  V30 8679 C 877.171 4.23131 0.64376 0
M  V30 8680 C 876.497 5.03915 1.78812 0
M  V30 8681 C 877.797 5.20831 -0.39144 0
M  V30 8682 H 879.491 2.95184 -0.500676 0
M  V30 8683 H 877.037 1.41948 -0.242225 0
M  V30 8684 H 878.99 3.82158 1.77576 0
M  V30 8685 H 877.714 2.59608 1.98169 0
M  V30 8686 H 876.373 3.66349 0.135554 0
M  V30 8687 H 876.021 4.35765 2.51232 0
M  V30 8688 H 875.721 5.709 1.39094 0
M  V30 8689 H 877.245 5.64753 2.32134 0
M  V30 8690 H 878.659 5.73277 0.0515064 0
M  V30 8691 H 877.056 5.95926 -0.706569 0
M  V30 8692 H 878.126 4.6733 -1.29345 0
M  V30 8693 N 879.47 0.276058 1.55163 0
M  V30 8694 C 880.417 -0.611006 2.22565 0
M  V30 8695 C 881.387 -1.14902 1.19945 0
M  V30 8696 O 882.572 -1.19815 1.48489 0
M  V30 8697 C 879.712 -1.78885 2.95117 0
M  V30 8698 C 878.825 -1.2846 4.12458 0
M  V30 8699 C 877.96 -2.42432 4.72652 0
M  V30 8700 C 876.999 -1.89015 5.82185 0
M  V30 8701 N 876.136 -2.96463 6.36439 0
M  V30 8702 H 880.976 -0.0295849 2.97985 0
M  V30 8703 H 878.513 -0.00283607 1.471 0
M  V30 8704 H 880.471 -2.48121 3.35398 0
M  V30 8705 H 879.101 -2.34229 2.22119 0
M  V30 8706 H 878.153 -0.485312 3.77292 0
M  V30 8707 H 879.465 -0.853358 4.91446 0
M  V30 8708 H 878.619 -3.19659 5.15658 0
M  V30 8709 H 877.358 -2.88872 3.92943 0
M  V30 8710 H 876.363 -1.10267 5.38629 0
M  V30 8711 H 877.588 -1.43509 6.63763 0
M  V30 8712 H 875.534 -3.42283 5.59623 0
M  V30 8713 H 875.451 -2.57759 7.10701 0
M  V30 8714 H 876.719 -3.73663 6.84103 0
M  V30 8715 N 880.948 -1.576 0.00335426 0
M  V30 8716 C 881.895 -2.08632 -0.986975 0
M  V30 8717 C 882.865 -0.982491 -1.33927 0
M  V30 8718 O 884.05 -1.25513 -1.43705 0
M  V30 8719 C 881.19 -2.59705 -2.27261 0
M  V30 8720 C 880.303 -3.84002 -1.97905 0
M  V30 8721 C 879.438 -4.23563 -3.20574 0
M  V30 8722 C 878.477 -5.40688 -2.8692 0
M  V30 8723 N 877.614 -5.75526 -4.02136 0
M  V30 8724 H 882.454 -2.92977 -0.544855 0
M  V30 8725 H 879.991 -1.44831 -0.257376 0
M  V30 8726 H 881.949 -2.87395 -3.02423 0
M  V30 8727 H 880.579 -1.7823 -2.69136 0
M  V30 8728 H 879.631 -3.63199 -1.13096 0
M  V30 8729 H 880.943 -4.69261 -1.69102 0
M  V30 8730 H 880.097 -4.52554 -4.04079 0
M  V30 8731 H 878.836 -3.37019 -3.52518 0
M  V30 8732 H 877.841 -5.11417 -2.01822 0
M  V30 8733 H 879.066 -6.2891 -2.5622 0
M  V30 8734 H 877.012 -4.9194 -4.33971 0
M  V30 8735 H 876.929 -6.55367 -3.76869 0
M  V30 8736 H 878.197 -6.0911 -4.8642 0
M  V30 8737 N 882.426 0.269451 -1.5528 0
M  V30 8738 C 883.674 0.998604 -1.75705 0
M  V30 8739 C 883.995 1.86691 -0.563175 0
M  V30 8740 O 883.265 1.91305 0.421811 0
M  V30 8741 H 881.845 0.371698 -0.647958 0
M  V30 8742 H 884.507 0.292826 -1.92688 0
M  V30 8743 H 883.603 1.63348 -2.6594 0
M  V30 8744 N 883.904 1.48273 0.534124 0
M  V30 8745 C 885.129 1.59988 1.31979 0
M  V30 8746 C 885.554 0.258824 1.86311 0
M  V30 8747 O 884.912 -0.768885 1.64188 0
M  V30 8748 C 884.96 2.64642 2.44943 0
M  V30 8749 O 884.064 2.21515 3.47858 0
M  V30 8750 H 883.405 0.536625 0.391063 0
M  V30 8751 H 885.935 1.94229 0.643135 0
M  V30 8752 H 885.945 2.85786 2.91187 0
M  V30 8753 H 884.62 3.62004 2.04758 0
M  V30 8754 H 883.197 2.10567 3.0776 0
M  V30 8755 N 885.382 -0.782676 1.36792 0
M  V30 8756 C 886.329 -1.89558 1.31667 0
M  V30 8757 C 887.299 -1.65076 0.184147 0
M  V30 8758 O 888.484 -1.87143 0.371753 0
M  V30 8759 C 885.624 -3.26469 1.11858 0
M  V30 8760 C 884.737 -3.62978 2.34245 0
M  V30 8761 C 883.872 -4.89041 2.07394 0
M  V30 8762 C 882.911 -5.18249 3.25706 0
M  V30 8763 N 882.048 -6.35497 2.98476 0
M  V30 8764 H 886.888 -1.93274 2.26824 0
M  V30 8765 H 884.425 -0.945057 1.12726 0
M  V30 8766 H 886.383 -4.05431 0.983968 0
M  V30 8767 H 885.013 -3.22158 0.203531 0
M  V30 8768 H 884.065 -2.79087 2.58485 0
M  V30 8769 H 885.377 -3.80507 3.22514 0
M  V30 8770 H 884.531 -5.75883 1.90901 0
M  V30 8771 H 883.27 -4.73594 1.16446 0
M  V30 8772 H 882.275 -4.29887 3.4275 0
M  V30 8773 H 883.5 -5.35611 4.1749 0
M  V30 8774 H 881.446 -6.21429 2.10146 0
M  V30 8775 H 881.363 -6.5339 3.80286 0
M  V30 8776 H 882.631 -7.25304 2.85577 0
M  V30 8777 N 886.86 -1.21182 -1.00761 0
M  V30 8778 C 887.77 -0.984691 -2.12934 0
M  V30 8779 C 888.786 0.0623657 -1.73888 0
M  V30 8780 O 889.962 -0.1271 -2.00999 0
M  V30 8781 C 887.027 -0.549447 -3.42319 0
M  V30 8782 C 886.088 -1.66841 -3.95553 0
M  V30 8783 C 885.321 -1.25384 -5.18763 0
M  V30 8784 O 885.544 -0.126333 -5.7026 0
M  V30 8785 O 884.478 -2.06475 -5.65377 0
M  V30 8786 H 888.304 -1.92413 -2.3497 0
M  V30 8787 H 885.889 -0.99647 -1.11314 0
M  V30 8788 H 887.771 -0.316384 -4.20211 0
M  V30 8789 H 886.446 0.361304 -3.21677 0
M  V30 8790 H 885.353 -1.95585 -3.189 0
M  V30 8791 H 886.686 -2.55649 -4.206 0
M  V30 8792 N 888.338 1.20213 -1.01915 0
M  V30 8793 C 889.285 2.2309 -0.591571 0
M  V30 8794 C 890.255 1.61465 0.389649 0
M  V30 8795 O 891.44 1.88606 0.288511 0
M  V30 8796 C 888.58 3.45045 0.0614028 0
M  V30 8797 C 887.693 4.21091 -0.964688 0
M  V30 8798 C 886.828 5.30448 -0.282499 0
M  V30 8799 C 885.867 5.98241 -1.29517 0
M  V30 8800 N 885.004 6.99182 -0.639472 0
M  V30 8801 H 889.844 2.59023 -1.47347 0
M  V30 8802 H 887.381 1.27274 -0.737547 0
M  V30 8803 H 889.339 4.14688 0.45714 0
M  V30 8804 H 887.969 3.09797 0.906937 0
M  V30 8805 H 887.021 3.50489 -1.47857 0
M  V30 8806 H 888.333 4.67662 -1.73475 0
M  V30 8807 H 887.487 6.06466 0.168603 0
M  V30 8808 H 886.226 4.84922 0.519843 0
M  V30 8809 H 885.231 5.20982 -1.75663 0
M  V30 8810 H 886.456 6.45853 -2.09884 0
M  V30 8811 H 884.402 6.55844 0.142955 0
M  V30 8812 H 884.319 7.43893 -1.34756 0
M  V30 8813 H 885.587 7.79212 -0.212047 0
M  V30 8814 N 889.816 0.795718 1.36037 0
M  V30 8815 C 890.748 0.156336 2.28666 0
M  V30 8816 C 891.761 -0.638075 1.49775 0
M  V30 8817 O 892.95 -0.472222 1.7214 0
M  V30 8818 C 890.05 -0.801417 3.29288 0
M  V30 8819 C 889.223 -0.0557118 4.37365 0
M  V30 8820 C 888.282 -0.930338 5.1791 0
M  V30 8821 O 887.308 -0.385266 5.67895 0
M  V30 8822 N 888.51 -2.25382 5.34961 0
M  V30 8823 H 891.275 0.952033 2.84177 0
M  V30 8824 H 888.836 0.650189 1.48271 0
M  V30 8825 H 890.828 -1.39051 3.80062 0
M  V30 8826 H 889.398 -1.49796 2.74372 0
M  V30 8827 H 888.618 0.714508 3.87671 0
M  V30 8828 H 889.906 0.458633 5.06729 0
M  V30 8829 H 889.304 -2.72073 4.95977 0
M  V30 8830 H 887.861 -2.79241 5.88955 0
M  V30 8831 N 891.294 -1.47756 0.548274 0
M  V30 8832 C 892.257 -2.28379 -0.193857 0
M  V30 8833 C 893.257 -1.36436 -0.850986 0
M  V30 8834 O 894.447 -1.59154 -0.70822 0
M  V30 8835 C 891.579 -3.15858 -1.28243 0
M  V30 8836 H 892.772 -2.95458 0.514231 0
M  V30 8837 H 890.325 -1.53298 0.304879 0
M  V30 8838 H 891.06 -2.5345 -2.0232 0
M  V30 8839 H 890.845 -3.83512 -0.816148 0
M  V30 8840 H 892.335 -3.76627 -1.80393 0
M  V30 8841 N 892.772 -0.284283 -1.55015 0
M  V30 8842 C 894.049 0.382125 -1.91831 0
M  V30 8843 C 894.429 1.73007 -1.20962 0
M  V30 8844 O 893.777 2.25962 -0.339594 0
M  V30 8845 C 893.987 0.513341 -3.45204 0
M  V30 8846 C 895.335 0.791989 -4.17148 0
M  V30 8847 O 896.359 0.597799 -3.51148 0
M  V30 8848 O 895.218 1.16394 -5.33961 0
M  V30 8849 H 892.312 0.210707 -0.799707 0
M  V30 8850 H 894.858 -0.331111 -1.66438 0
M  V30 8851 H 893.63 -0.434911 -3.88876 0
M  V30 8852 H 893.253 1.27569 -3.76579 0
M  V30 8853 N 894.251 1.57596 -0.0117121 0
M  V30 8854 C 895.498 1.91071 0.670667 0
M  V30 8855 C 895.826 0.886457 1.73125 0
M  V30 8856 O 895.081 -0.107135 1.95407 0
M  V30 8857 C 895.38 3.31296 1.34082 0
M  V30 8858 C 895.046 4.49011 0.412305 0
M  V30 8859 C 893.708 4.80945 0.156691 0
M  V30 8860 C 896.06 5.20709 -0.226294 0
M  V30 8861 C 893.388 5.81943 -0.745619 0
M  V30 8862 C 895.74 6.22668 -1.11655 0
M  V30 8863 C 894.404 6.53053 -1.38123 0
M  V30 8864 H 893.674 0.69918 0.245415 0
M  V30 8865 H 896.321 1.91373 -0.0697511 0
M  V30 8866 H 894.626 3.27174 2.15557 0
M  V30 8867 H 896.323 3.54461 1.87506 0
M  V30 8868 H 892.913 4.24067 0.621705 0
M  V30 8869 H 897.097 4.96282 -0.0418456 0
M  V30 8870 H 892.353 6.03839 -0.958566 0
M  V30 8871 H 896.527 6.77351 -1.61767 0
M  V30 8872 H 894.154 7.31132 -2.08208 0
M  V30 8873 N 895.729 -0.261212 1.5542 0
M  V30 8874 C 896.659 -1.32712 1.92119 0
M  V30 8875 C 897.64 -1.50934 0.784406 0
M  V30 8876 O 898.825 -1.63781 1.04352 0
M  V30 8877 C 895.955 -2.68453 2.20341 0
M  V30 8878 C 894.909 -2.64947 3.36136 0
M  V30 8879 C 894.235 -4.04349 3.49865 0
M  V30 8880 C 895.535 -2.23182 4.72215 0
M  V30 8881 H 897.229 -1.02245 2.81401 0
M  V30 8882 H 894.775 -0.490406 1.35392 0
M  V30 8883 H 896.728 -3.43144 2.44603 0
M  V30 8884 H 895.452 -3.00527 1.27871 0
M  V30 8885 H 894.111 -1.92714 3.11861 0
M  V30 8886 H 893.759 -4.33665 2.5484 0
M  V30 8887 H 893.459 -4.02895 4.27726 0
M  V30 8888 H 894.983 -4.80761 3.76432 0
M  V30 8889 H 896.397 -2.87599 4.95943 0
M  V30 8890 H 894.794 -2.32867 5.53076 0
M  V30 8891 H 895.864 -1.18327 4.70241 0
M  V30 8892 N 897.207 -1.48554 -0.526253 0
M  V30 8893 C 898.484 -1.47252 -1.28748 0
M  V30 8894 C 898.864 -0.186245 -2.10277 0
M  V30 8895 O 898.212 0.831954 -2.12816 0
M  V30 8896 C 898.422 -2.73672 -2.16575 0
M  V30 8897 C 899.77 -3.22151 -2.76593 0
M  V30 8898 O 900.794 -2.74614 -2.2686 0
M  V30 8899 O 899.653 -4.04877 -3.67066 0
M  V30 8900 H 896.747 -0.588242 -0.581292 0
M  V30 8901 H 899.293 -1.60792 -0.5426 0
M  V30 8902 H 898.065 -3.58798 -1.56139 0
M  V30 8903 H 897.688 -2.6287 -2.98304 0
M  V30 8904 N 898.685 0.775411 -1.37205 0
M  V30 8905 C 899.632 1.88857 -1.32671 0
M  V30 8906 C 900.602 1.64976 -0.192899 0
M  V30 8907 O 901.787 1.86944 -0.381673 0
M  V30 8908 C 898.927 3.25871 -1.13588 0
M  V30 8909 C 898.04 3.61731 -2.36167 0
M  V30 8910 C 897.175 4.87934 -2.09985 0
M  V30 8911 C 896.214 5.16514 -3.2845 0
M  V30 8912 N 895.351 6.33905 -3.01842 0
M  V30 8913 H 900.191 1.92068 -2.27846 0
M  V30 8914 H 897.728 0.939066 -1.13225 0
M  V30 8915 H 899.686 4.04903 -1.00546 0
M  V30 8916 H 898.316 3.22045 -0.220613 0
M  V30 8917 H 897.368 2.77712 -2.59962 0
M  V30 8918 H 898.68 3.78792 -3.24528 0
M  V30 8919 H 897.834 5.74863 -1.93953 0
M  V30 8920 H 896.573 4.7297 -1.18956 0
M  V30 8921 H 895.578 4.28063 -3.45025 0
M  V30 8922 H 896.803 5.33389 -4.20325 0
M  V30 8923 H 894.749 6.20306 -2.13439 0
M  V30 8924 H 894.666 6.51364 -3.83746 0
M  V30 8925 H 895.934 7.23779 -2.8942 0
M  V30 8926 N 900.163 1.21714 1.00117 0
M  V30 8927 C 901.095 0.937627 2.09144 0
M  V30 8928 C 902.108 -0.0806291 1.626 0
M  V30 8929 O 903.297 0.152348 1.77849 0
M  V30 8930 C 900.397 0.387036 3.36683 0
M  V30 8931 C 899.57 1.46054 4.12295 0
M  V30 8932 C 898.629 0.918505 5.18122 0
M  V30 8933 O 897.655 1.60282 5.46167 0
M  V30 8934 N 898.857 -0.264308 5.79898 0
M  V30 8935 H 901.622 1.87622 2.33705 0
M  V30 8936 H 899.183 1.12291 1.16629 0
M  V30 8937 H 901.175 0.00992825 4.04699 0
M  V30 8938 H 899.745 -0.456467 3.09249 0
M  V30 8939 H 898.965 2.01133 3.39027 0
M  V30 8940 H 900.253 2.18306 4.59587 0
M  V30 8941 H 899.651 -0.837242 5.5947 0
M  V30 8942 H 898.208 -0.582886 6.49188 0
M  V30 8943 N 901.641 -1.19671 1.02551 0
M  V30 8944 C 902.574 -2.21522 0.547998 0
M  V30 8945 C 903.552 -1.57363 -0.409349 0
M  V30 8946 O 904.736 -1.85638 -0.327248 0
M  V30 8947 C 901.863 -3.38101 -0.201375 0
M  V30 8948 C 900.909 -4.20601 0.706886 0
M  V30 8949 S 901.742 -4.89066 2.18116 0
M  V30 8950 C 902.898 -6.09058 1.4422 0
M  V30 8951 H 903.131 -2.61684 1.41099 0
M  V30 8952 H 900.664 -1.29864 0.835153 0
M  V30 8953 H 902.622 -4.05674 -0.627607 0
M  V30 8954 H 901.283 -2.96381 -1.04005 0
M  V30 8955 H 900.476 -5.03836 0.128554 0
M  V30 8956 H 900.078 -3.58329 1.07129 0
M  V30 8957 H 902.37 -6.73588 0.726975 0
M  V30 8958 H 903.313 -6.71368 2.25102 0
M  V30 8959 H 903.721 -5.56599 0.941176 0
M  V30 8960 N 903.119 -0.802921 -1.35613 0
M  V30 8961 C 904.344 -0.392846 -2.03645 0
M  V30 8962 C 904.769 0.987075 -1.6012 0
M  V30 8963 O 904.127 1.63849 -0.776101 0
M  V30 8964 C 904.175 -0.480208 -3.57388 0
M  V30 8965 O 903.279 0.507751 -4.09262 0
M  V30 8966 H 902.62 -0.16464 -0.643265 0
M  V30 8967 H 905.15 -1.08779 -1.73287 0
M  V30 8968 H 905.16 -0.348683 -4.06507 0
M  V30 8969 H 903.835 -1.48675 -3.88418 0
M  V30 8970 H 902.412 0.336769 -3.71376 0
M  V30 8971 N 904.597 1.47463 -0.556102 0
M  V30 8972 C 906.013 1.58134 -0.21579 0
M  V30 8973 C 906.213 1.55486 1.28166 0
M  V30 8974 O 905.269 1.45768 2.06174 0
M  V30 8975 C 906.582 2.88686 -0.841464 0
M  V30 8976 C 908.13 3.02268 -0.812591 0
M  V30 8977 C 908.605 4.35518 -1.41731 0
M  V30 8978 N 910.096 4.42151 -1.38045 0
M  V30 8979 C 910.831 5.43817 -1.81799 0
M  V30 8980 N 910.327 6.52299 -2.33404 0
M  V30 8981 N 912.12 5.34855 -1.72877 0
M  V30 8982 H 904.271 1.47428 -1.52901 0
M  V30 8983 H 906.534 0.701586 -0.637559 0
M  V30 8984 H 906.24 2.96358 -1.8938 0
M  V30 8985 H 906.114 3.7572 -0.333846 0
M  V30 8986 H 908.501 2.94194 0.231056 0
M  V30 8987 H 908.582 2.16779 -1.35796 0
M  V30 8988 H 908.226 4.44348 -2.46002 0
M  V30 8989 H 908.156 5.19737 -0.847402 0
M  V30 8990 H 910.647 3.64348 -1.00296 0
M  V30 8991 H 910.96 7.26047 -2.64717 0
M  V30 8992 H 909.305 6.53192 -2.37414 0
M  V30 8993 H 912.496 4.49004 -1.32338 0
M  V30 8994 H 912.669 6.13949 -2.07294 0
M  V30 8995 N 906.075 0.2925 1.54862 0
M  V30 8996 C 907.352 -0.371946 1.92031 0
M  V30 8997 C 907.732 -1.72363 1.21878 0
M  V30 8998 O 907.08 -2.25779 0.351573 0
M  V30 8999 C 907.29 -0.495027 3.45471 0
M  V30 9000 C 908.638 -0.769855 4.17562 0
M  V30 9001 O 909.662 -0.579168 3.5146 0
M  V30 9002 O 908.521 -1.13561 5.34571 0
M  V30 9003 H 905.615 -0.206463 0.800813 0
M  V30 9004 H 908.161 0.339933 1.6626 0
M  V30 9005 H 906.933 0.455528 3.88639 0
M  V30 9006 H 906.556 -1.2557 3.7725 0
M  V30 9007 N 907.553 -1.57587 0.0200696 0
M  V30 9008 C 908.463 -2.13119 -0.980676 0
M  V30 9009 C 909.479 -1.08124 -1.36328 0
M  V30 9010 O 910.655 -1.40134 -1.44653 0
M  V30 9011 C 907.72 -2.63991 -2.24743 0
M  V30 9012 C 906.781 -3.83667 -1.9261 0
M  V30 9013 C 906.014 -4.32103 -3.13246 0
M  V30 9014 O 906.237 -3.79758 -4.25606 0
M  V30 9015 O 905.171 -5.24047 -2.96072 0
M  V30 9016 H 908.997 -2.98887 -0.538528 0
M  V30 9017 H 906.582 -1.48055 -0.19999 0
M  V30 9018 H 908.464 -2.9682 -2.99125 0
M  V30 9019 H 907.139 -1.81311 -2.68157 0
M  V30 9020 H 906.046 -3.55778 -1.15641 0
M  V30 9021 H 907.379 -4.67482 -1.54019 0
M  V30 9022 N 909.032 0.252966 -1.55557 0
M  V30 9023 C 909.982 1.31585 -1.86197 0
M  V30 9024 C 910.966 1.43773 -0.722357 0
M  V30 9025 O 912.158 1.47117 -0.984152 0
M  V30 9026 C 909.287 2.67245 -2.15487 0
M  V30 9027 C 908.373 2.59087 -3.3576 0
M  V30 9028 N 908.764 2.20556 -4.5518 0
M  V30 9029 C 907.062 2.90112 -3.3875 0
M  V30 9030 C 907.763 2.22881 -5.37307 0
M  V30 9031 N 906.739 2.62145 -4.76215 0
M  V30 9032 H 910.541 1.00835 -2.76061 0
M  V30 9033 H 908.055 0.461598 -1.55702 0
M  V30 9034 H 910.052 3.43944 -2.35602 0
M  V30 9035 H 908.712 2.98867 -1.26919 0
M  V30 9036 H 909.723 1.922 -4.80915 0
M  V30 9037 H 906.4 3.26313 -2.60434 0
M  V30 9038 H 907.79 1.95482 -6.42835 0
M  V30 9039 N 910.51 1.48831 0.518367 0
M  V30 9040 C 911.926 1.35209 0.847979 0
M  V30 9041 C 912.126 0.371927 1.98038 0
M  V30 9042 O 911.182 -0.202681 2.51685 0
M  V30 9043 C 912.495 2.7552 1.20455 0
M  V30 9044 C 914.043 2.84094 1.31377 0
M  V30 9045 C 914.518 4.25132 1.70372 0
M  V30 9046 N 916.009 4.27861 1.77453 0
M  V30 9047 C 916.744 5.3394 2.09035 0
M  V30 9048 N 916.24 6.50285 2.3896 0
M  V30 9049 N 918.033 5.21343 2.10139 0
M  V30 9050 H 910.184 2.11166 -0.228624 0
M  V30 9051 H 912.447 0.94717 -0.0396599 0
M  V30 9052 H 912.153 3.48861 0.445991 0
M  V30 9053 H 912.027 3.09785 2.15204 0
M  V30 9054 H 914.414 2.11001 2.06307 0
M  V30 9055 H 914.495 2.53433 0.347203 0
M  V30 9056 H 914.139 4.98745 0.959975 0
M  V30 9057 H 914.069 4.53245 2.68098 0
M  V30 9058 H 916.56 3.43945 1.56557 0
M  V30 9059 H 916.873 7.26961 2.62196 0
M  V30 9060 H 915.218 6.5354 2.36454 0
M  V30 9061 H 918.409 4.29462 1.86225 0
M  V30 9062 H 918.582 6.04112 2.34419 0
M  V30 9063 N 911.988 -0.768124 1.37614 0
M  V30 9064 C 912.951 -1.86314 1.3349 0
M  V30 9065 C 913.951 -1.59025 0.23823 0
M  V30 9066 O 915.141 -1.6704 0.494288 0
M  V30 9067 C 912.273 -3.23519 1.07462 0
M  V30 9068 H 913.466 -1.91382 2.30896 0
M  V30 9069 H 911.019 -0.968267 1.22696 0
M  V30 9070 H 911.754 -3.24127 0.106028 0
M  V30 9071 H 911.539 -3.44719 1.86846 0
M  V30 9072 H 913.029 -4.03597 1.07236 0
M  V30 9073 N 913.466 -1.22244 -0.994698 0
M  V30 9074 C 914.882 -0.982006 -1.25813 0
M  V30 9075 C 915.082 0.325488 -1.98854 0
M  V30 9076 O 914.138 1.04857 -2.29698 0
M  V30 9077 C 915.451 -2.1795 -2.07167 0
M  V30 9078 C 916.999 -2.22287 -2.20358 0
M  V30 9079 C 917.474 -3.41583 -3.05098 0
M  V30 9080 N 918.965 -3.41734 -3.12686 0
M  V30 9081 C 919.7 -4.30692 -3.78539 0
M  V30 9082 N 919.196 -5.29865 -4.46335 0
M  V30 9083 N 920.989 -4.18473 -3.75283 0
M  V30 9084 H 913.14 -2.0631 -0.504963 0
M  V30 9085 H 915.403 -0.90395 -0.285618 0
M  V30 9086 H 915.109 -3.12758 -1.60858 0
M  V30 9087 H 914.983 -2.17862 -3.07922 0
M  V30 9088 H 917.37 -1.28028 -2.65881 0
M  V30 9089 H 917.451 -2.26414 -1.19039 0
M  V30 9090 H 917.095 -4.36141 -2.60275 0
M  V30 9091 H 917.025 -3.34695 -4.06555 0
M  V30 9092 H 919.516 -2.69969 -2.64433 0
M  V30 9093 H 919.829 -5.94027 -4.9432 0
M  V30 9094 H 918.174 -5.3378 -4.45089 0
M  V30 9095 H 921.365 -3.40249 -3.21478 0
M  V30 9096 H 921.538 -4.88007 -4.26326 0
M  V30 9097 N 914.944 1.19125 -1.03184 0
M  V30 9098 C 915.907 2.20662 -0.619766 0
M  V30 9099 C 916.907 1.57621 0.318179 0
M  V30 9100 O 918.097 1.73885 0.104783 0
M  V30 9101 C 915.229 3.40774 0.0926696 0
M  V30 9102 H 916.422 2.58633 -1.5182 0
M  V30 9103 H 913.975 1.32855 -0.823364 0
M  V30 9104 H 914.71 3.08324 1.00531 0
M  V30 9105 H 914.495 3.87766 -0.581344 0
M  V30 9106 H 915.985 4.15977 0.367792 0
M  V30 9107 N 916.422 0.810101 1.35185 0
M  V30 9108 C 917.355 0.168416 2.27578 0
M  V30 9109 C 918.333 -0.667664 1.4826 0
M  V30 9110 O 919.517 -0.634184 1.77512 0
M  V30 9111 C 916.644 -0.765994 3.29925 0
M  V30 9112 C 915.69 -0.00908802 4.26499 0
M  V30 9113 S 916.523 1.32936 5.18737 0
M  V30 9114 C 917.679 0.399485 6.24624 0
M  V30 9115 H 917.912 0.951753 2.81654 0
M  V30 9116 H 915.445 0.60534 1.42039 0
M  V30 9117 H 917.403 -1.2996 3.89385 0
M  V30 9118 H 916.064 -1.52275 2.7472 0
M  V30 9119 H 915.257 -0.718919 4.98846 0
M  V30 9120 H 914.859 0.454663 3.71226 0
M  V30 9121 H 917.151 -0.413904 6.76234 0
M  V30 9122 H 918.094 1.09225 6.99625 0
M  V30 9123 H 918.502 -0.00638358 5.645 0
M  V30 9124 N 917.9 -1.47166 0.563914 0
M  V30 9125 C 918.847 -2.30097 -0.180013 0
M  V30 9126 C 919.817 -1.39473 -0.902019 0
M  V30 9127 O 921.002 -1.68432 -0.896396 0
M  V30 9128 C 918.142 -3.23573 -1.19978 0
M  V30 9129 C 917.255 -4.2929 -0.483149 0
M  V30 9130 C 916.39 -5.0991 -1.48879 0
M  V30 9131 C 915.429 -6.07395 -0.757513 0
M  V30 9132 N 914.566 -6.8095 -1.71031 0
M  V30 9133 H 919.406 -2.93189 0.53329 0
M  V30 9134 H 916.943 -1.4451 0.274814 0
M  V30 9135 H 918.901 -3.76196 -1.80368 0
M  V30 9136 H 917.531 -2.6233 -1.88103 0
M  V30 9137 H 916.583 -3.79671 0.235414 0
M  V30 9138 H 917.895 -4.9872 0.0894075 0
M  V30 9139 H 917.049 -5.66717 -2.16603 0
M  V30 9140 H 915.788 -4.40397 -2.09527 0
M  V30 9141 H 914.793 -5.4976 -0.0663841 0
M  V30 9142 H 916.018 -6.78919 -0.156685 0
M  V30 9143 H 913.964 -6.14162 -2.30524 0
M  V30 9144 H 913.881 -7.46574 -1.19007 0
M  V30 9145 H 915.149 -7.42326 -2.37849 0
M  V30 9146 N 919.378 -0.300708 -1.54705 0
M  V30 9147 C 920.627 0.309428 -1.99312 0
M  V30 9148 C 920.94 1.55027 -1.19272 0
M  V30 9149 O 922.146 2.23498 -1.54146 0
M  V30 9150 C 920.602 0.601856 -3.54832 0
M  V30 9151 C 920.21 -0.620636 -4.4368 0
M  V30 9152 C 921.954 1.1732 -4.07966 0
M  V30 9153 C 919.861 -0.301376 -5.90632 0
M  V30 9154 H 918.791 0.119395 -0.744487 0
M  V30 9155 H 921.442 -0.409368 -1.78875 0
M  V30 9156 H 919.824 1.38024 -3.71168 0
M  V30 9157 H 920.998 -1.39685 -4.39118 0
M  V30 9158 H 919.313 -1.1106 -4.01316 0
M  V30 9159 H 921.91 1.42631 -5.15326 0
M  V30 9160 H 922.253 2.11537 -3.5855 0
M  V30 9161 H 922.786 0.456534 -3.95172 0
M  V30 9162 H 919.525 -1.21209 -6.44196 0
M  V30 9163 H 919.045 0.437574 -5.98202 0
M  V30 9164 H 920.724 0.097164 -6.46927 0
M  V30 9165 N 920.856 1.57574 -0.0284266 0
M  V30 9166 C 922.267 1.79585 0.510502 0
M  V30 9167 C 922.618 0.938625 1.72291 0
M  V30 9168 O 921.743 0.14884 2.15888 0
M  V30 9169 C 922.338 3.25703 0.932912 0
M  V30 9170 C 920.897 3.48711 1.41696 0
M  V30 9171 C 920.044 2.74665 0.381356 0
M  V30 9172 H 922.995 1.56647 -0.254464 0
M  V30 9173 H 923.016 3.35376 1.79731 0
M  V30 9174 H 922.528 3.88067 0.0503036 0
M  V30 9175 H 920.629 2.91597 2.31952 0
M  V30 9176 H 920.742 4.57423 1.42481 0
M  V30 9177 H 919.106 2.40123 0.8493 0
M  V30 9178 H 919.889 3.39745 -0.492775 0
M  V30 9179 N 922.334 -0.244713 1.55689 0
M  V30 9180 C 923.581 -0.972446 1.77622 0
M  V30 9181 C 923.909 -1.85235 0.593137 0
M  V30 9182 O 923.164 -1.91064 -0.423464 0
M  V30 9183 C 923.463 -1.8617 3.05083 0
M  V30 9184 C 923.129 -1.13696 4.3633 0
M  V30 9185 C 921.791 -0.936679 4.71996 0
M  V30 9186 C 924.143 -0.623451 5.17458 0
M  V30 9187 C 921.471 -0.210612 5.86322 0
M  V30 9188 C 923.823 0.0891587 6.32537 0
M  V30 9189 C 922.487 0.300904 6.66821 0
M  V30 9190 H 921.757 -0.355843 0.649967 0
M  V30 9191 H 924.404 -0.242372 1.8996 0
M  V30 9192 H 922.709 -2.6589 2.87767 0
M  V30 9193 H 924.406 -2.4265 3.19253 0
M  V30 9194 H 920.996 -1.30301 4.08313 0
M  V30 9195 H 925.18 -0.765725 4.90357 0
M  V30 9196 H 920.436 -0.0361062 6.11389 0
M  V30 9197 H 924.61 0.494685 6.94641 0
M  V30 9198 H 922.237 0.865466 7.55257 0
M  V30 9199 N 923.813 -1.49104 -0.510467 0
M  V30 9200 C 925.041 -1.61806 -1.28944 0
M  V30 9201 C 925.456 -0.285774 -1.86625 0
M  V30 9202 O 924.813 0.727551 -1.67371 0
M  V30 9203 C 924.864 -2.67966 -2.42645 0
M  V30 9204 O 924.585 -3.96026 -1.87337 0
M  V30 9205 C 926.086 -2.91286 -3.34166 0
M  V30 9206 H 923.306 -0.544999 -0.391429 0
M  V30 9207 H 925.85 -1.95071 -0.613805 0
M  V30 9208 H 924.005 -2.37505 -3.06056 0
M  V30 9209 H 924.419 -4.54427 -2.61909 0
M  V30 9210 H 925.893 -3.69323 -4.1025 0
M  V30 9211 H 926.37 -2.00842 -3.90588 0
M  V30 9212 H 926.976 -3.23127 -2.76531 0
M  V30 9213 N 925.291 0.760815 -1.38019 0
M  V30 9214 C 926.239 1.89578 -1.34771 0
M  V30 9215 C 927.233 1.67766 -0.234714 0
M  V30 9216 O 928.439 1.75423 -0.403352 0
M  V30 9217 H 924.814 0.623608 -0.420258 0
M  V30 9218 H 926.785 1.89434 -2.30558 0
M  V30 9219 C 925.534 3.26976 -1.18246 0
M  V30 9220 H 924.857 3.44342 -2.03147 0
M  V30 9221 H 926.297 4.06657 -1.20026 0
M  V30 9222 C 924.756 3.36717 0.111145 0
M  V30 9223 O 925.286 3.86607 1.09079 0
M  V30 9224 N 923.492 2.90128 0.165542 0
M  V30 9225 H 923.039 2.49719 -0.632328 0
M  V30 9226 H 922.997 2.97026 1.03067 0
M  V30 9227 N 926.769 1.22769 0.988202 0
M  V30 9228 C 928.046 0.9635 1.70223 0
M  V30 9229 C 928.426 -0.520102 2.04593 0
M  V30 9230 O 927.774 -1.48934 1.73295 0
M  V30 9231 C 927.984 1.86583 2.94937 0
M  V30 9232 C 929.332 2.12469 3.67616 0
M  V30 9233 O 930.356 1.84069 3.04954 0
M  V30 9234 O 929.215 2.60595 4.80367 0
M  V30 9235 H 926.309 0.362737 0.743203 0
M  V30 9236 H 928.855 1.33776 1.04412 0
M  V30 9237 H 927.627 2.86913 2.66077 0
M  V30 9238 H 927.25 1.49344 3.68486 0
M  V30 9239 N 928.247 -1.18576 1.03814 0
M  V30 9240 C 929.194 -2.2212 0.626988 0
M  V30 9241 C 930.164 -1.62064 -0.363912 0
M  V30 9242 O 931.349 -1.89041 -0.258469 0
M  V30 9243 C 928.489 -3.45099 -0.00650133 0
M  V30 9244 C 927.602 -4.19503 1.03156 0
M  V30 9245 C 926.737 -5.29932 0.366852 0
M  V30 9246 C 925.776 -5.96104 1.39018 0
M  V30 9247 N 924.913 -6.98076 0.750625 0
M  V30 9248 H 929.753 -2.56646 1.51449 0
M  V30 9249 H 927.29 -1.26084 0.757702 0
M  V30 9250 H 929.248 -4.15363 -0.391108 0
M  V30 9251 H 927.878 -3.11201 -0.857536 0
M  V30 9252 H 926.93 -3.48092 1.53414 0
M  V30 9253 H 928.242 -4.64843 1.80893 0
M  V30 9254 H 927.396 -6.06657 -0.0720979 0
M  V30 9255 H 926.135 -4.85687 -0.442631 0
M  V30 9256 H 925.14 -5.18122 1.8393 0
M  V30 9257 H 926.365 -6.42432 2.20132 0
M  V30 9258 H 924.311 -6.55989 -0.0385981 0
M  V30 9259 H 924.228 -7.41655 1.46574 0
M  V30 9260 H 925.496 -7.78776 0.335986 0
M  V30 9261 N 929.725 -0.817259 -1.34754 0
M  V30 9262 C 930.974 -0.39908 -1.97713 0
M  V30 9263 C 931.287 1.04203 -1.65533 0
M  V30 9264 O 932.493 1.56384 -2.21937 0
M  V30 9265 C 930.949 -0.662634 -3.53747 0
M  V30 9266 C 930.557 -2.11699 -3.94826 0
M  V30 9267 C 932.301 -0.31034 -4.23364 0
M  V30 9268 C 930.208 -2.32573 -5.4375 0
M  V30 9269 H 929.138 -0.145488 -0.739831 0
M  V30 9270 H 931.789 -1.00282 -1.53674 0
M  V30 9271 H 930.171 0.0111972 -3.95998 0
M  V30 9272 H 931.345 -2.82951 -3.63697 0
M  V30 9273 H 929.66 -2.43017 -3.3813 0
M  V30 9274 H 932.257 -0.44421 -5.32852 0
M  V30 9275 H 932.6 0.744594 -4.09587 0
M  V30 9276 H 933.133 -0.938518 -3.8657 0
M  V30 9277 H 929.872 -3.36551 -5.62507 0
M  V30 9278 H 929.392 -1.65858 -5.76412 0
M  V30 9279 H 931.071 -2.14651 -6.10356 0
M  V30 9280 N 931.203 1.46865 -0.571711 0
M  V30 9281 C 932.452 2.01636 -0.050881 0
M  V30 9282 C 932.765 1.45001 1.31279 0
M  V30 9283 O 933.971 1.91523 1.92435 0
M  V30 9284 C 932.427 3.59877 -0.0404114 0
M  V30 9285 C 932.035 4.25506 -1.40172 0
M  V30 9286 C 933.779 4.22346 0.42705 0
M  V30 9287 C 931.686 5.75795 -1.34958 0
M  V30 9288 H 930.616 0.753846 -0.0152514 0
M  V30 9289 H 933.267 1.68711 -0.721723 0
M  V30 9290 H 931.649 3.89829 0.696374 0
M  V30 9291 H 932.823 4.07178 -2.15737 0
M  V30 9292 H 931.138 3.75086 -1.8083 0
M  V30 9293 H 933.735 5.32499 0.484688 0
M  V30 9294 H 934.078 3.9052 1.44222 0
M  V30 9295 H 934.611 3.9698 -0.255326 0
M  V30 9296 H 931.35 6.12265 -2.3412 0
M  V30 9297 H 930.87 5.96419 -0.635962 0
M  V30 9298 H 932.549 6.38294 -1.05779 0
M  V30 9299 N 932.681 0.308908 1.54543 0
M  V30 9300 C 933.629 -0.579326 2.2527 0
M  V30 9301 C 934.623 -1.13058 1.26152 0
M  V30 9302 O 935.829 -1.08031 1.43977 0
M  V30 9303 H 932.204 -0.205444 0.723392 0
M  V30 9304 H 934.175 0.0396415 2.98374 0
M  V30 9305 C 932.924 -1.73584 3.01271 0
M  V30 9306 H 932.247 -1.32089 3.77349 0
M  V30 9307 H 933.687 -2.33324 3.54028 0
M  V30 9308 C 932.146 -2.6447 2.08703 0
M  V30 9309 O 932.676 -3.65785 1.66025 0
M  V30 9310 N 930.882 -2.32379 1.74495 0
M  V30 9311 H 930.429 -1.50034 2.09398 0
M  V30 9312 H 930.387 -2.93454 1.12836 0
M  V30 9313 N 934.159 -1.57557 0.0367827 0
M  V30 9314 C 935.089 -2.13712 -0.940719 0
M  V30 9315 C 936.07 -1.05515 -1.33419 0
M  V30 9316 O 937.255 -1.33385 -1.41146 0
M  V30 9317 C 934.385 -2.67043 -2.22048 0
M  V30 9318 C 933.339 -3.80096 -1.96752 0
M  V30 9319 C 932.665 -4.19886 -3.31059 0
M  V30 9320 C 933.965 -5.05848 -1.30058 0
M  V30 9321 H 935.659 -2.9564 -0.473033 0
M  V30 9322 H 933.205 -1.42214 -0.226089 0
M  V30 9323 H 935.158 -3.04964 -2.90818 0
M  V30 9324 H 933.882 -1.82287 -2.70996 0
M  V30 9325 H 932.541 -3.42625 -1.30398 0
M  V30 9326 H 932.189 -3.32101 -3.77781 0
M  V30 9327 H 931.889 -4.96073 -3.14937 0
M  V30 9328 H 933.413 -4.60395 -4.01084 0
M  V30 9329 H 934.827 -5.41306 -1.8884 0
M  V30 9330 H 933.224 -5.87084 -1.24309 0
M  V30 9331 H 934.294 -4.84122 -0.274591 0
M  V30 9332 N 935.637 0.236453 -1.55816 0
M  V30 9333 C 937.048 0.80468 -1.68469 0
M  V30 9334 C 937.399 1.85601 -0.636133 0
M  V30 9335 O 936.524 2.15323 0.215622 0
M  V30 9336 C 937.119 1.46634 -3.05424 0
M  V30 9337 C 935.678 1.98214 -3.19981 0
M  V30 9338 C 934.825 0.83695 -2.64368 0
M  V30 9339 H 937.776 0.0120647 -1.58695 0
M  V30 9340 H 937.797 2.33472 -3.00451 0
M  V30 9341 H 937.309 0.700931 -3.81718 0
M  V30 9342 H 935.41 2.77604 -2.4853 0
M  V30 9343 H 935.523 2.17235 -4.2702 0
M  V30 9344 H 933.887 1.24028 -2.22462 0
M  V30 9345 H 934.67 0.084451 -3.43196 0
M  V30 9346 N 937.115 1.49373 0.502552 0
M  V30 9347 C 938.361 1.59016 1.25864 0
M  V30 9348 C 938.694 0.27532 1.92238 0
M  V30 9349 O 937.969 -0.720988 1.80643 0
M  V30 9350 C 938.252 2.74828 2.32683 0
M  V30 9351 C 938.105 4.16102 1.7082 0
M  V30 9352 C 939.424 2.86288 3.34256 0
M  V30 9353 H 936.543 0.578798 0.456248 0
M  V30 9354 H 939.185 1.81651 0.557032 0
M  V30 9355 H 937.335 2.5566 2.92524 0
M  V30 9356 H 939.007 4.46782 1.14818 0
M  V30 9357 H 937.25 4.21822 1.01238 0
M  V30 9358 H 937.921 4.93006 2.48292 0
M  V30 9359 H 940.397 3.03733 2.84404 0
M  V30 9360 H 939.273 3.69001 4.06362 0
M  V30 9361 H 939.534 1.95576 3.96488 0
M  V30 9362 N 938.594 -0.753485 1.38421 0
M  V30 9363 C 939.504 -1.89797 1.37892 0
M  V30 9364 C 940.52 -1.71797 0.276023 0
M  V30 9365 O 941.696 -1.94718 0.514464 0
M  V30 9366 C 938.761 -3.25166 1.20284 0
M  V30 9367 C 937.822 -3.55691 2.4038 0
M  V30 9368 C 937.055 -4.84601 2.23602 0
M  V30 9369 O 937.278 -5.56985 1.22979 0
M  V30 9370 O 936.212 -5.14605 3.12194 0
M  V30 9371 H 940.038 -1.93197 2.34326 0
M  V30 9372 H 937.623 -0.898775 1.19342 0
M  V30 9373 H 939.505 -4.06099 1.12525 0
M  V30 9374 H 938.18 -3.22577 0.269352 0
M  V30 9375 H 937.087 -2.74919 2.53714 0
M  V30 9376 H 938.42 -3.6304 3.32359 0
M  V30 9377 N 940.072 -1.23292 -0.981677 0
M  V30 9378 C 940.982 -1.02964 -2.10798 0
M  V30 9379 C 941.998 0.0254674 -1.73981 0
M  V30 9380 O 943.174 -0.169706 -2.00684 0
M  V30 9381 C 940.239 -0.621934 -3.41076 0
M  V30 9382 C 939.3 -1.75194 -3.91926 0
M  V30 9383 C 938.533 -1.36359 -5.15986 0
M  V30 9384 O 938.756 -0.247265 -5.69864 0
M  V30 9385 O 937.69 -2.18421 -5.60871 0
M  V30 9386 H 941.516 -1.97354 -2.30836 0
M  V30 9387 H 939.101 -1.01986 -1.09175 0
M  V30 9388 H 940.983 -0.405446 -4.19445 0
M  V30 9389 H 939.658 0.29299 -3.22371 0
M  V30 9390 H 938.565 -2.02305 -3.1468 0
M  V30 9391 H 939.898 -2.64513 -4.15083 0
M  V30 9392 N 941.55 1.18024 -1.04442 0
M  V30 9393 C 942.797 1.88098 -0.750022 0
M  V30 9394 C 943.125 1.80583 0.722489 0
M  V30 9395 O 942.38 1.20329 1.54335 0
M  V30 9396 C 942.679 3.37834 -1.16631 0
M  V30 9397 C 942.345 3.65553 -2.63974 0
M  V30 9398 C 941.007 3.72827 -3.04226 0
M  V30 9399 C 943.359 3.77634 -3.59224 0
M  V30 9400 C 940.687 3.89666 -4.38608 0
M  V30 9401 C 943.039 3.9599 -4.9333 0
M  V30 9402 C 941.703 4.01501 -5.33248 0
M  V30 9403 H 940.973 0.6883 -0.274452 0
M  V30 9404 H 943.62 1.39671 -1.31012 0
M  V30 9405 H 941.925 3.88266 -0.525071 0
M  V30 9406 H 943.622 3.90402 -0.915827 0
M  V30 9407 H 940.212 3.6051 -2.31798 0
M  V30 9408 H 944.396 3.71342 -3.2927 0
M  V30 9409 H 939.652 3.92178 -4.69048 0
M  V30 9410 H 943.826 4.0428 -5.67037 0
M  V30 9411 H 941.453 4.14301 -6.37384 0
M  V30 9412 N 943.028 0.824394 1.34319 0
M  V30 9413 C 943.976 0.235628 2.31403 0
M  V30 9414 C 944.97 -0.624443 1.57471 0
M  V30 9415 O 946.176 -0.515618 1.72457 0
M  V30 9416 H 942.551 0.0574537 0.749802 0
M  V30 9417 H 944.522 1.06925 2.78585 0
M  V30 9418 C 943.271 -0.586617 3.42716 0
M  V30 9419 H 942.594 0.0658669 3.99746 0
M  V30 9420 H 944.034 -0.964661 4.1288 0
M  V30 9421 C 942.493 -1.75957 2.87299 0
M  V30 9422 O 943.023 -2.8578 2.82299 0
M  V30 9423 N 941.229 -1.57678 2.44102 0
M  V30 9424 H 940.776 -0.683436 2.48369 0
M  V30 9425 H 940.734 -2.36311 2.07375 0
M  V30 9426 N 944.506 -1.46559 0.579492 0
M  V30 9427 C 945.416 -2.34066 -0.15816 0
M  V30 9428 C 946.432 -1.49556 -0.88932 0
M  V30 9429 O 947.608 -1.82434 -0.853226 0
M  V30 9430 C 944.673 -3.26683 -1.161 0
M  V30 9431 C 943.734 -4.27092 -0.434855 0
M  V30 9432 C 942.967 -5.15283 -1.38992 0
M  V30 9433 O 943.19 -5.06345 -2.62623 0
M  V30 9434 O 942.124 -5.95099 -0.902253 0
M  V30 9435 H 945.95 -2.98488 0.560234 0
M  V30 9436 H 943.535 -1.45482 0.339918 0
M  V30 9437 H 945.417 -3.8383 -1.73932 0
M  V30 9438 H 944.092 -2.64862 -1.86091 0
M  V30 9439 H 942.999 -3.73641 0.185224 0
M  V30 9440 H 944.332 -4.9169 0.224031 0
M  V30 9441 N 945.984 -0.3171 -1.54377 0
M  V30 9442 C 946.914 0.544623 -2.2706 0
M  V30 9443 C 947.895 1.12469 -1.27611 0
M  V30 9444 O 949.08 1.15103 -1.56413 0
M  V30 9445 C 946.21 1.70879 -3.02353 0
M  V30 9446 C 945.164 1.25833 -4.09084 0
M  V30 9447 C 944.49 2.50894 -4.72182 0
M  V30 9448 C 945.79 0.377876 -5.20931 0
M  V30 9449 H 947.484 -0.0616372 -2.99337 0
M  V30 9450 H 945.03 -0.0310848 -1.43966 0
M  V30 9451 H 946.983 2.31787 -3.51927 0
M  V30 9452 H 945.707 2.34155 -2.27682 0
M  V30 9453 H 944.366 0.672228 -3.60384 0
M  V30 9454 H 944.014 3.12518 -3.94134 0
M  V30 9455 H 943.714 2.21447 -5.44275 0
M  V30 9456 H 945.238 3.12575 -5.24528 0
M  V30 9457 H 946.652 0.893056 -5.66302 0
M  V30 9458 H 945.049 0.176474 -5.9984 0
M  V30 9459 H 946.119 -0.592943 -4.81261 0
M  V30 9460 N 947.462 1.57535 -0.0451378 0
M  V30 9461 C 948.392 2.14208 0.929372 0
M  V30 9462 C 949.373 1.06221 1.32858 0
M  V30 9463 O 950.558 1.34132 1.40436 0
M  V30 9464 C 947.688 2.68217 2.20629 0
M  V30 9465 C 946.642 3.81134 1.94734 0
M  V30 9466 C 945.968 4.21636 3.28828 0
M  V30 9467 C 947.268 5.06531 1.27374 0
M  V30 9468 H 948.962 2.95886 0.457348 0
M  V30 9469 H 946.508 1.42332 0.218544 0
M  V30 9470 H 948.461 3.06502 2.89196 0
M  V30 9471 H 947.185 1.83722 2.70026 0
M  V30 9472 H 945.844 3.43312 1.28579 0
M  V30 9473 H 945.492 3.34099 3.76014 0
M  V30 9474 H 945.192 4.97736 3.12302 0
M  V30 9475 H 946.716 4.62516 3.98637 0
M  V30 9476 H 948.13 5.423 1.85967 0
M  V30 9477 H 946.527 5.87735 1.21194 0
M  V30 9478 H 947.597 4.84261 0.248913 0
M  V30 9479 N 948.94 -0.228186 1.55939 0
M  V30 9480 C 950.165 -0.974795 1.83064 0
M  V30 9481 C 950.59 -1.77426 0.624624 0
M  V30 9482 O 949.948 -1.76211 -0.426556 0
M  V30 9483 C 949.996 -1.87342 3.08116 0
M  V30 9484 O 949.1 -2.96784 2.86344 0
M  V30 9485 H 948.441 -0.276379 0.603747 0
M  V30 9486 H 950.971 -0.243507 2.03146 0
M  V30 9487 H 950.981 -2.28451 3.38045 0
M  V30 9488 H 949.656 -1.28575 3.95526 0
M  V30 9489 H 948.233 -2.59669 2.67631 0
M  V30 9490 N 950.418 -1.49637 -0.494624 0
M  V30 9491 C 951.365 -1.66776 -1.59545 0
M  V30 9492 C 952.335 -0.509159 -1.58104 0
M  V30 9493 O 953.52 -0.736949 -1.75993 0
M  V30 9494 C 950.66 -1.74624 -2.97658 0
M  V30 9495 C 949.773 -3.01831 -3.09067 0
M  V30 9496 C 948.908 -3.00619 -4.37952 0
M  V30 9497 C 947.947 -4.22378 -4.43016 0
M  V30 9498 N 947.084 -4.1904 -5.63339 0
M  V30 9499 H 951.924 -2.60767 -1.44238 0
M  V30 9500 H 949.461 -1.29286 -0.701673 0
M  V30 9501 H 951.419 -1.77156 -3.77719 0
M  V30 9502 H 950.049 -0.840936 -3.11654 0
M  V30 9503 H 949.101 -3.08881 -2.22029 0
M  V30 9504 H 950.413 -3.91823 -3.08669 0
M  V30 9505 H 949.567 -3.01749 -5.26339 0
M  V30 9506 H 948.306 -2.08416 -4.40924 0
M  V30 9507 H 947.311 -4.21485 -3.5303 0
M  V30 9508 H 948.536 -5.15781 -4.41755 0
M  V30 9509 H 946.482 -3.29677 -5.67141 0
M  V30 9510 H 946.399 -5.02774 -5.64583 0
M  V30 9511 H 947.667 -4.24281 -6.53916 0
M  V30 9512 N 951.896 0.746133 -1.38819 0
M  V30 9513 C 953.126 1.53316 -1.38484 0
M  V30 9514 C 953.534 1.89183 0.0253332 0
M  V30 9515 O 952.877 1.5382 1.00424 0
M  V30 9516 C 952.939 2.85623 -2.18311 0
M  V30 9517 C 952.603 2.72253 -3.67052 0
M  V30 9518 C 953.6 2.41547 -4.60381 0
M  V30 9519 C 951.285 2.89472 -4.10501 0
M  V30 9520 C 953.279 2.28226 -5.9514 0
M  V30 9521 C 950.966 2.7577 -5.45338 0
M  V30 9522 C 951.964 2.45191 -6.37472 0
M  V30 9523 O 951.652 2.31561 -7.69828 0
M  V30 9524 H 951.384 0.480763 -0.475229 0
M  V30 9525 H 953.938 0.93057 -1.83111 0
M  V30 9526 H 952.168 3.481 -1.68414 0
M  V30 9527 H 953.857 3.47178 -2.10291 0
M  V30 9528 H 954.623 2.27905 -4.28117 0
M  V30 9529 H 950.502 3.12269 -3.3913 0
M  V30 9530 H 954.046 2.04279 -6.6702 0
M  V30 9531 H 949.943 2.88987 -5.77197 0
M  V30 9532 H 950.711 2.46716 -7.80432 0
M  V30 9533 N 953.375 1.23811 0.975125 0
M  V30 9534 C 954.307 0.981779 2.07108 0
M  V30 9535 C 955.32 -0.0461211 1.62735 0
M  V30 9536 O 956.509 0.190039 1.77486 0
M  V30 9537 C 953.609 0.458364 3.35786 0
M  V30 9538 C 952.782 1.54767 4.09104 0
M  V30 9539 C 951.841 1.0282 5.16057 0
M  V30 9540 O 950.867 1.71831 5.42644 0
M  V30 9541 N 952.069 -0.141243 5.80328 0
M  V30 9542 H 954.834 1.92537 2.29673 0
M  V30 9543 H 952.395 1.1474 1.14221 0
M  V30 9544 H 954.387 0.0957686 4.04587 0
M  V30 9545 H 952.957 -0.390768 3.10148 0
M  V30 9546 H 952.177 2.08279 3.34684 0
M  V30 9547 H 953.465 2.28006 4.54853 0
M  V30 9548 H 952.863 -0.718382 5.6112 0
M  V30 9549 H 951.42 -0.445052 6.50279 0
M  V30 9550 N 954.853 -1.17469 1.05066 0
M  V30 9551 C 955.783 -2.23635 0.671552 0
M  V30 9552 C 956.764 -1.66867 -0.33006 0
M  V30 9553 O 957.949 -1.93084 -0.207933 0
M  V30 9554 C 955.079 -3.47272 0.0441845 0
M  V30 9555 C 954.033 -4.16854 0.97042 0
M  V30 9556 C 953.359 -5.34299 0.206998 0
M  V30 9557 C 954.659 -4.69225 2.29401 0
M  V30 9558 H 956.353 -2.55602 1.55911 0
M  V30 9559 H 953.899 -1.2286 0.751101 0
M  V30 9560 H 955.852 -4.20756 -0.23282 0
M  V30 9561 H 954.576 -3.14568 -0.878311 0
M  V30 9562 H 953.235 -3.4528 1.23197 0
M  V30 9563 H 952.883 -4.97846 -0.718222 0
M  V30 9564 H 952.583 -5.81792 0.82416 0
M  V30 9565 H 954.107 -6.10568 -0.0627525 0
M  V30 9566 H 955.521 -5.34353 2.077 0
M  V30 9567 H 953.918 -5.27291 2.86503 0
M  V30 9568 H 954.988 -3.86102 2.93348 0
M  V30 9569 N 956.331 -0.831506 -1.3388 0
M  V30 9570 C 957.556 -0.435954 -2.02766 0
M  V30 9571 C 957.981 0.952889 -1.62178 0
M  V30 9572 O 957.339 1.62166 -0.810681 0
M  V30 9573 C 957.387 -0.555907 -3.56289 0
M  V30 9574 O 956.491 0.420826 -4.10247 0
M  V30 9575 H 955.832 -0.178248 -0.639628 0
M  V30 9576 H 958.362 -1.1243 -1.70941 0
M  V30 9577 H 958.372 -0.434831 -4.05676 0
M  V30 9578 H 957.047 -1.56881 -3.85177 0
M  V30 9579 H 955.624 0.257919 -3.72007 0
M  V30 9580 N 957.809 1.4625 -0.587256 0
M  V30 9581 C 958.719 2.34147 0.145744 0
M  V30 9582 C 959.735 1.50026 0.881376 0
M  V30 9583 O 960.911 1.82884 0.843539 0
M  V30 9584 C 957.976 3.27294 1.14366 0
M  V30 9585 C 957.037 4.27317 0.412199 0
M  V30 9586 C 956.27 5.16013 1.36257 0
M  V30 9587 O 956.493 5.0773 2.59934 0
M  V30 9588 O 955.427 5.95569 0.870681 0
M  V30 9589 H 959.253 2.98187 -0.576055 0
M  V30 9590 H 956.838 1.45299 -0.347628 0
M  V30 9591 H 958.72 3.84747 1.71894 0
M  V30 9592 H 957.395 2.65845 1.84684 0
M  V30 9593 H 956.302 3.73538 -0.205036 0
M  V30 9594 H 957.635 4.91564 -0.250104 0
M  V30 9595 N 959.287 0.325282 1.54207 0
M  V30 9596 C 960.25 -0.527228 2.23054 0
M  V30 9597 C 961.25 -1.04217 1.22456 0
M  V30 9598 O 962.44 -0.934325 1.47024 0
M  V30 9599 C 959.572 -1.7325 2.93594 0
M  V30 9600 H 960.765 0.0746423 2.99807 0
M  V30 9601 H 958.318 0.0763872 1.56113 0
M  V30 9602 H 959.053 -2.37356 2.20981 0
M  V30 9603 H 958.838 -1.37065 3.67363 0
M  V30 9604 H 960.328 -2.3376 3.46043 0
M  V30 9605 N 960.765 -1.57509 0.0534917 0
M  V30 9606 C 961.697 -2.08616 -0.949322 0
M  V30 9607 C 962.71 -1.01446 -1.27328 0
M  V30 9608 O 963.899 -1.29007 -1.23367 0
M  V30 9609 C 960.999 -2.51622 -2.27024 0
M  V30 9610 C 960.172 -3.82154 -2.12785 0
M  V30 9611 C 959.231 -4.11448 -3.2802 0
M  V30 9612 O 958.257 -4.81333 -3.03822 0
M  V30 9613 N 959.459 -3.63543 -4.52567 0
M  V30 9614 H 962.224 -2.95275 -0.5131 0
M  V30 9615 H 959.785 -1.61355 -0.132693 0
M  V30 9616 H 961.777 -2.68293 -3.02986 0
M  V30 9617 H 960.347 -1.70198 -2.62205 0
M  V30 9618 H 959.567 -3.75041 -1.21399 0
M  V30 9619 H 960.855 -4.67629 -2.00501 0
M  V30 9620 H 960.253 -3.07051 -4.75117 0
M  V30 9621 H 958.81 -3.85448 -5.25617 0
M  V30 9622 N 962.243 0.219913 -1.56058 0
M  V30 9623 C 963.173 1.27572 -1.9557 0
M  V30 9624 C 964.154 1.48801 -0.824148 0
M  V30 9625 O 965.339 1.60957 -1.08658 0
M  V30 9626 C 962.469 2.62517 -2.27381 0
M  V30 9627 C 961.423 2.55941 -3.43042 0
M  V30 9628 C 960.749 3.94931 -3.60463 0
M  V30 9629 C 962.049 2.10584 -4.77966 0
M  V30 9630 H 963.743 0.947482 -2.84013 0
M  V30 9631 H 961.289 0.454337 -1.36645 0
M  V30 9632 H 963.242 3.36538 -2.53615 0
M  V30 9633 H 961.966 2.97031 -1.35794 0
M  V30 9634 H 960.625 1.84377 -3.1686 0
M  V30 9635 H 960.273 4.26756 -2.66249 0
M  V30 9636 H 959.973 3.91413 -4.38258 0
M  V30 9637 H 961.497 4.70611 -3.89046 0
M  V30 9638 H 962.911 2.74349 -5.03394 0
M  V30 9639 H 961.308 2.18122 -5.59055 0
M  V30 9640 H 962.378 1.05818 -4.73213 0
M  V30 9641 N 963.721 1.49897 0.486681 0
M  V30 9642 C 964.946 1.64106 1.26823 0
M  V30 9643 C 965.371 0.317967 1.85393 0
M  V30 9644 O 964.729 -0.71626 1.66551 0
M  V30 9645 C 964.777 2.72301 2.36399 0
M  V30 9646 O 963.881 2.32469 3.40634 0
M  V30 9647 H 963.222 0.548794 0.373793 0
M  V30 9648 H 965.752 1.96177 0.581017 0
M  V30 9649 H 965.762 2.94906 2.81948 0
M  V30 9650 H 964.437 3.68335 1.93137 0
M  V30 9651 H 963.014 2.20251 3.00905 0
M  V30 9652 N 965.199 -0.738761 1.39212 0
M  V30 9653 C 966.129 -1.86602 1.40364 0
M  V30 9654 C 967.11 -1.67984 0.267495 0
M  V30 9655 O 968.295 -1.88358 0.472765 0
M  V30 9656 C 965.425 -3.24308 1.24265 0
M  V30 9657 C 964.379 -3.57557 2.35239 0
M  V30 9658 C 963.705 -4.94159 2.04233 0
M  V30 9659 C 965.005 -3.60914 3.77543 0
M  V30 9660 H 966.699 -1.85896 2.34698 0
M  V30 9661 H 964.245 -0.892959 1.1297 0
M  V30 9662 H 966.198 -4.02838 1.23692 0
M  V30 9663 H 964.922 -3.25531 0.263974 0
M  V30 9664 H 963.581 -2.81354 2.35022 0
M  V30 9665 H 963.229 -4.91959 1.04813 0
M  V30 9666 H 962.929 -5.17373 2.78567 0
M  V30 9667 H 964.453 -5.7505 2.05303 0
M  V30 9668 H 965.867 -4.29528 3.79709 0
M  V30 9669 H 964.264 -3.95644 4.51205 0
M  V30 9670 H 965.334 -2.60803 4.08791 0
M  V30 9671 N 966.677 -1.24326 -0.968545 0
M  V30 9672 C 967.926 -1.07647 -1.70572 0
M  V30 9673 C 968.239 0.384821 -1.91777 0
M  V30 9674 O 969.445 0.671782 -2.63058 0
M  V30 9675 C 967.901 -1.87799 -3.07017 0
M  V30 9676 C 967.509 -3.38333 -2.93658 0
M  V30 9677 C 969.253 -1.79647 -3.84613 0
M  V30 9678 C 967.16 -4.10831 -4.25407 0
M  V30 9679 H 966.09 -0.399216 -0.639642 0
M  V30 9680 H 968.741 -1.484 -1.07934 0
M  V30 9681 H 967.123 -1.3986 -3.7048 0
M  V30 9682 H 968.297 -3.93845 -2.39213 0
M  V30 9683 H 966.612 -3.47427 -2.29528 0
M  V30 9684 H 969.209 -2.31116 -4.82172 0
M  V30 9685 H 969.552 -0.761553 -4.09275 0
M  V30 9686 H 970.085 -2.25261 -3.27875 0
M  V30 9687 H 966.824 -5.14679 -4.05939 0
M  V30 9688 H 966.344 -3.60105 -4.79671 0
M  V30 9689 H 968.023 -4.17783 -4.94031 0
M  V30 9690 N 968.156 1.1691 -1.05688 0
M  V30 9691 C 969.572 1.39288 -0.779167 0
M  V30 9692 C 969.772 1.91587 0.624231 0
M  V30 9693 O 968.828 2.11072 1.38582 0
M  V30 9694 C 970.141 2.37914 -1.83895 0
M  V30 9695 C 971.689 2.51611 -1.86175 0
M  V30 9696 C 972.164 3.53514 -2.9119 0
M  V30 9697 N 973.655 3.61036 -2.90184 0
M  V30 9698 C 974.39 4.39657 -3.68088 0
M  V30 9699 N 973.886 5.21752 -4.55793 0
M  V30 9700 N 975.679 4.3458 -3.56507 0
M  V30 9701 H 967.83 0.81296 -1.96226 0
M  V30 9702 H 970.093 0.419818 -0.849975 0
M  V30 9703 H 969.799 2.06568 -2.84645 0
M  V30 9704 H 969.673 3.37483 -1.68479 0
M  V30 9705 H 972.06 2.82264 -0.86087 0
M  V30 9706 H 972.141 1.52099 -2.05668 0
M  V30 9707 H 971.785 3.23599 -3.91467 0
M  V30 9708 H 971.715 4.52742 -2.68947 0
M  V30 9709 H 974.206 3.02428 -2.26596 0
M  V30 9710 H 974.519 5.78939 -5.11907 0
M  V30 9711 H 972.864 5.21116 -4.59851 0
M  V30 9712 H 976.055 3.69501 -2.87379 0
M  V30 9713 H 976.228 4.95607 -4.17466 0
M  V30 9714 N 969.634 0.838594 1.33437 0
M  V30 9715 C 970.911 0.356112 1.92331 0
M  V30 9716 C 971.291 -1.1585 1.76471 0
M  V30 9717 O 970.639 -1.97281 1.15293 0
M  V30 9718 C 970.849 0.802715 3.39643 0
M  V30 9719 C 972.197 0.810575 4.16791 0
M  V30 9720 O 973.221 0.746304 3.48294 0
M  V30 9721 O 972.08 0.898082 5.3907 0
M  V30 9722 H 969.174 0.100711 0.820845 0
M  V30 9723 H 971.72 0.924428 1.42311 0
M  V30 9724 H 970.492 1.84529 3.45057 0
M  V30 9725 H 970.115 0.210956 3.9704 0
M  V30 9726 N 971.112 -1.45937 0.595003 0
M  V30 9727 C 972.361 -2.01529 0.0829531 0
M  V30 9728 C 972.674 -1.47071 -1.28955 0
M  V30 9729 O 973.88 -1.94561 -1.89363 0
M  V30 9730 C 972.336 -3.59767 0.0976597 0
M  V30 9731 C 971.944 -4.23223 1.46924 0
M  V30 9732 C 973.688 -4.22972 -0.359805 0
M  V30 9733 C 971.595 -5.73576 1.44101 0
M  V30 9734 H 970.525 -0.753508 0.0272425 0
M  V30 9735 H 973.176 -1.67541 0.748473 0
M  V30 9736 H 971.558 -3.90888 -0.634268 0
M  V30 9737 H 972.732 -4.03695 2.22187 0
M  V30 9738 H 971.047 -3.72161 1.86775 0
M  V30 9739 H 973.644 -5.33202 -0.39991 0
M  V30 9740 H 973.987 -3.92765 -1.37991 0
M  V30 9741 H 974.52 -3.96523 0.31845 0
M  V30 9742 H 971.259 -6.08462 2.43831 0
M  V30 9743 H 970.779 -5.95332 0.730767 0
M  V30 9744 H 972.458 -6.36531 1.1592 0
M  V30 9745 N 972.59 -0.333456 -1.54032 0
M  V30 9746 C 974.006 0.0188405 -1.59589 0
M  V30 9747 C 974.206 1.49615 -1.34972 0
M  V30 9748 O 973.262 2.2535 -1.13901 0
M  V30 9749 C 974.575 -0.408273 -2.97915 0
M  V30 9750 C 976.123 -0.359763 -3.10926 0
M  V30 9751 C 976.598 -0.76219 -4.51613 0
M  V30 9752 N 978.089 -0.715981 -4.57633 0
M  V30 9753 C 978.824 -0.999436 -5.64623 0
M  V30 9754 N 978.32 -1.35053 -6.79509 0
M  V30 9755 N 980.113 -0.924343 -5.54448 0
M  V30 9756 H 972.264 -1.29587 -1.68289 0
M  V30 9757 H 974.527 -0.527584 -0.787629 0
M  V30 9758 H 974.233 -1.43793 -3.20962 0
M  V30 9759 H 974.107 0.221685 -3.76548 0
M  V30 9760 H 976.494 0.660703 -2.87609 0
M  V30 9761 H 976.575 -1.02479 -2.34375 0
M  V30 9762 H 976.219 -1.78062 -4.75664 0
M  V30 9763 H 976.149 -0.0747478 -5.26547 0
M  V30 9764 H 978.64 -0.456875 -3.75128 0
M  V30 9765 H 978.953 -1.55194 -7.57057 0
M  V30 9766 H 977.298 -1.38889 -6.80981 0
M  V30 9767 H 980.489 -0.649469 -4.63573 0
M  V30 9768 H 980.662 -1.1486 -6.37739 0
M  V30 9769 N 974.068 1.57479 -0.061844 0
M  V30 9770 C 975.484 1.56855 0.294753 0
M  V30 9771 C 975.684 1.07042 1.70717 0
M  V30 9772 O 974.74 0.731817 2.41662 0
M  V30 9773 C 976.053 3.00486 0.113484 0
M  V30 9774 C 977.601 3.1246 0.183778 0
M  V30 9775 C 978.076 4.5799 0.0309092 0
M  V30 9776 N 979.567 4.63119 0.0868393 0
M  V30 9777 C 980.302 5.734 -0.00717446 0
M  V30 9778 N 979.798 6.92628 -0.154144 0
M  V30 9779 N 981.591 5.62078 0.0491763 0
M  V30 9780 H 973.742 1.88176 -0.985058 0
M  V30 9781 H 976.005 0.867051 -0.383309 0
M  V30 9782 H 975.711 3.41004 -0.86075 0
M  V30 9783 H 975.585 3.67029 0.870023 0
M  V30 9784 H 977.972 2.71834 1.14849 0
M  V30 9785 H 978.053 2.48574 -0.603697 0
M  V30 9786 H 977.697 4.99303 -0.930526 0
M  V30 9787 H 977.627 5.19895 0.837664 0
M  V30 9788 H 980.118 3.77374 0.199245 0
M  V30 9789 H 980.431 7.72492 -0.218296 0
M  V30 9790 H 978.776 6.94742 -0.189372 0
M  V30 9791 H 981.967 4.67817 0.162626 0
M  V30 9792 H 982.14 6.47994 -0.0275478 0
M  V30 9793 N 975.546 -0.211634 1.56173 0
M  V30 9794 C 976.962 -0.56177 1.49386 0
M  V30 9795 C 977.162 -1.86666 0.758813 0
M  V30 9796 O 976.218 -2.50681 0.302534 0
M  V30 9797 C 977.531 -0.631815 2.93987 0
M  V30 9798 C 979.079 -0.721773 3.04564 0
M  V30 9799 C 979.554 -0.823075 4.50544 0
M  V30 9800 N 981.045 -0.887038 4.54627 0
M  V30 9801 C 981.78 -0.985304 5.64871 0
M  V30 9802 N 981.276 -1.0469 6.84844 0
M  V30 9803 N 983.069 -1.02121 5.52746 0
M  V30 9804 H 975.22 0.64452 2.02385 0
M  V30 9805 H 977.483 0.227466 0.920306 0
M  V30 9806 H 977.189 0.257592 3.50755 0
M  V30 9807 H 977.063 -1.4921 3.46433 0
M  V30 9808 H 979.45 -1.60162 2.47855 0
M  V30 9809 H 979.531 0.164385 2.55271 0
M  V30 9810 H 979.175 0.0523511 5.07873 0
M  V30 9811 H 979.105 -1.72479 4.97552 0
M  V30 9812 H 981.596 -0.849352 3.68231 0
M  V30 9813 H 981.909 -1.12193 7.64613 0
M  V30 9814 H 980.254 -1.01586 6.87536 0
M  V30 9815 H 983.445 -0.969814 4.57943 0
M  V30 9816 H 983.618 -1.09434 6.38693 0
M  V30 9817 N 977.024 -1.50153 -0.478725 0
M  V30 9818 C 978.272 -1.60443 -1.22892 0
M  V30 9819 C 978.593 -0.303276 -1.92627 0
M  V30 9820 O 977.863 0.678798 -1.83764 0
M  V30 9821 H 976.443 -0.591205 -0.456602 0
M  V30 9822 H 979.105 -1.86893 -0.552905 0
M  V30 9823 H 978.201 -2.41175 -1.98094 0
M  V30 9824 N 978.502 0.731368 -1.39602 0
M  V30 9825 C 979.449 1.84541 -1.38612 0
M  V30 9826 C 980.419 1.64279 -0.245287 0
M  V30 9827 O 981.604 1.85635 -0.440954 0
M  V30 9828 C 978.744 3.22092 -1.23897 0
M  V30 9829 C 977.857 3.54034 -2.47555 0
M  V30 9830 C 976.992 4.81007 -2.25402 0
M  V30 9831 C 976.031 5.05804 -3.44716 0
M  V30 9832 N 975.168 6.23981 -3.21857 0
M  V30 9833 H 980.008 1.84722 -2.33841 0
M  V30 9834 H 977.545 0.902569 -1.16156 0
M  V30 9835 H 979.503 4.01499 -1.13376 0
M  V30 9836 H 978.133 3.2118 -0.322958 0
M  V30 9837 H 977.185 2.69301 -2.68665 0
M  V30 9838 H 978.497 3.68275 -3.36415 0
M  V30 9839 H 977.651 5.68401 -2.12143 0
M  V30 9840 H 976.39 4.68946 -1.33943 0
M  V30 9841 H 975.395 4.1687 -3.58468 0
M  V30 9842 H 976.62 5.19747 -4.37081 0
M  V30 9843 H 974.566 6.13202 -2.33065 0
M  V30 9844 H 974.483 6.38826 -4.04274 0
M  V30 9845 H 975.751 7.14205 -3.123 0
M  V30 9846 N 979.98 1.24838 0.961938 0
M  V30 9847 C 980.928 1.0436 2.07874 0
M  V30 9848 C 981.922 -0.0232531 1.69384 0
M  V30 9849 O 983.128 0.131773 1.79517 0
M  V30 9850 H 979.503 0.320492 0.680286 0
M  V30 9851 H 981.474 1.99055 2.22306 0
M  V30 9852 C 980.223 0.671246 3.41159 0
M  V30 9853 H 979.546 1.48395 3.7124 0
M  V30 9854 H 980.986 0.567608 4.20184 0
M  V30 9855 C 979.445 -0.622124 3.31106 0
M  V30 9856 O 979.975 -1.66627 3.65511 0
M  V30 9857 N 978.181 -0.605009 2.84232 0
M  V30 9858 H 977.728 0.245052 2.56432 0
M  V30 9859 H 977.686 -1.47056 2.77888 0
M  V30 9860 N 981.458 -1.16348 1.06306 0
M  V30 9861 C 982.405 -2.20741 0.673962 0
M  V30 9862 C 983.375 -1.628 -0.329454 0
M  V30 9863 O 984.56 -1.89547 -0.218313 0
M  V30 9864 C 981.7 -3.45036 0.0667008 0
M  V30 9865 C 980.813 -4.17221 1.12031 0
M  V30 9866 C 979.948 -5.29034 0.479176 0
M  V30 9867 C 978.987 -5.93021 1.51631 0
M  V30 9868 N 978.124 -6.96327 0.898528 0
M  V30 9869 H 982.964 -2.53376 1.56859 0
M  V30 9870 H 980.501 -1.24449 0.784276 0
M  V30 9871 H 982.459 -4.16099 -0.302916 0
M  V30 9872 H 981.089 -3.1295 -0.791333 0
M  V30 9873 H 980.141 -3.4476 1.60763 0
M  V30 9874 H 981.453 -4.60902 1.90712 0
M  V30 9875 H 980.607 -6.06674 0.0565993 0
M  V30 9876 H 979.346 -4.86517 -0.33951 0
M  V30 9877 H 978.351 -5.14104 1.94878 0
M  V30 9878 H 979.576 -6.37618 2.3371 0
M  V30 9879 H 977.522 -6.55923 0.100555 0
M  V30 9880 H 977.439 -7.38379 1.62272 0
M  V30 9881 H 978.707 -7.77888 0.5011 0
M  V30 9882 N 982.937 -0.845659 -1.3299 0
M  V30 9883 C 983.87 -0.228695 -2.27051 0
M  V30 9884 C 984.848 0.62812 -1.49978 0
M  V30 9885 O 986.032 0.586897 -1.79131 0
M  V30 9886 C 983.159 0.678251 -3.31839 0
M  V30 9887 C 982.205 -0.103994 -4.26373 0
M  V30 9888 S 983.038 -1.46642 -5.1503 0
M  V30 9889 C 984.194 -0.564953 -6.23345 0
M  V30 9890 H 984.427 -1.02609 -2.79032 0
M  V30 9891 H 981.96 -0.642786 -1.40384 0
M  V30 9892 H 983.918 1.1959 -3.92694 0
M  V30 9893 H 982.579 1.44937 -2.78661 0
M  V30 9894 H 981.772 0.586406 -5.00577 0
M  V30 9895 H 981.374 -0.552927 -3.6989 0
M  V30 9896 H 983.666 0.234466 -6.77094 0
M  V30 9897 H 984.609 -1.27736 -6.96483 0
M  V30 9898 H 985.017 -0.143286 -5.64318 0
M  V30 9899 N 984.415 1.45619 -0.602734 0
M  V30 9900 C 985.378 2.28941 0.108962 0
M  V30 9901 C 986.378 1.39501 0.799762 0
M  V30 9902 O 987.568 1.61673 0.648663 0
M  V30 9903 C 984.7 3.204 1.16432 0
M  V30 9904 H 985.893 2.93346 -0.623534 0
M  V30 9905 H 983.446 1.52061 -0.361565 0
M  V30 9906 H 984.181 2.60785 1.92774 0
M  V30 9907 H 983.966 3.86277 0.673248 0
M  V30 9908 H 985.456 3.83063 1.6629 0
M  V30 9909 N 985.893 0.34162 1.53853 0
M  V30 9910 C 986.856 -0.503541 2.236 0
M  V30 9911 C 987.856 -1.02912 1.23554 0
M  V30 9912 O 989.046 -0.918678 1.48007 0
M  V30 9913 C 986.178 -1.70126 2.95415 0
M  V30 9914 H 987.371 0.106437 2.99711 0
M  V30 9915 H 984.924 0.0929408 1.56023 0
M  V30 9916 H 985.659 -2.34999 2.23486 0
M  V30 9917 H 985.444 -1.33161 3.68796 0
M  V30 9918 H 986.934 -2.30077 3.48503 0
M  V30 9919 N 987.371 -1.57444 0.0701946 0
M  V30 9920 C 988.303 -2.09611 -0.927142 0
M  V30 9921 C 989.316 -1.02791 -1.26245 0
M  V30 9922 O 990.505 -1.30309 -1.21992 0
M  V30 9923 C 987.605 -2.54015 -2.24342 0
M  V30 9924 C 986.778 -3.84389 -2.08719 0
M  V30 9925 C 985.837 -4.14904 -3.23638 0
M  V30 9926 O 984.863 -4.84528 -2.98699 0
M  V30 9927 N 986.065 -3.68322 -4.48686 0
M  V30 9928 H 988.83 -2.95803 -0.481753 0
M  V30 9929 H 986.391 -1.61487 -0.115572 0
M  V30 9930 H 988.383 -2.71492 -3.00124 0
M  V30 9931 H 986.953 -1.72969 -2.60385 0
M  V30 9932 H 986.173 -3.76308 -1.17415 0
M  V30 9933 H 987.461 -4.69729 -1.9553 0
M  V30 9934 H 986.859 -3.12073 -4.71834 0
M  V30 9935 H 985.416 -3.91002 -5.21499 0
M  V30 9936 N 988.849 0.203349 -1.56283 0
M  V30 9937 C 989.797 1.27157 -1.94766 0
M  V30 9938 C 990.791 1.4756 -0.832005 0
M  V30 9939 O 991.997 1.48519 -1.01696 0
M  V30 9940 H 988.372 0.426712 -0.61921 0
M  V30 9941 H 990.343 0.919921 -2.83866 0
M  V30 9942 C 989.092 2.6108 -2.29636 0
M  V30 9943 H 988.415 2.46193 -3.15006 0
M  V30 9944 H 989.855 3.34591 -2.60433 0
M  V30 9945 C 988.314 3.17456 -1.12799 0
M  V30 9946 O 988.844 3.99717 -0.398661 0
M  V30 9947 N 987.05 2.76084 -0.906975 0
M  V30 9948 H 986.597 2.09294 -1.50179 0
M  V30 9949 H 986.555 3.14143 -0.127005 0
M  V30 9950 N 990.327 1.50405 0.470755 0
M  V30 9951 C 991.567 1.63049 1.23266 0
M  V30 9952 C 991.931 0.323815 1.8925 0
M  V30 9953 O 993.132 0.325692 2.6682 0
M  V30 9954 C 991.403 2.7783 2.24823 0
M  V30 9955 S 992.962 3.10609 3.09948 0
M  V30 9956 H 989.78 0.574787 0.418499 0
M  V30 9957 H 992.382 1.8819 0.529619 0
M  V30 9958 H 991.086 3.71252 1.74929 0
M  V30 9959 H 990.617 2.54776 2.99755 0
M  V30 9960 H 992.632 2.5446 4.25987 0
M  V30 9961 N 991.805 -0.723954 1.39988 0
M  V30 9962 C 993.221 -1.03095 1.21834 0
M  V30 9963 C 993.421 -2.01309 0.0876647 0
M  V30 9964 O 992.477 -2.46277 -0.55714 0
M  V30 9965 C 993.79 -1.58267 2.5568 0
M  V30 9966 C 995.338 -1.70293 2.6262 0
M  V30 9967 C 995.813 -2.28872 3.96713 0
M  V30 9968 N 997.304 -2.36269 3.98411 0
M  V30 9969 C 998.039 -2.82557 4.98948 0
M  V30 9970 N 997.535 -3.28661 6.0988 0
M  V30 9971 N 999.328 -2.81866 4.86321 0
M  V30 9972 H 991.479 -0.0727891 2.12275 0
M  V30 9973 H 993.742 -0.0949029 0.943238 0
M  V30 9974 H 993.448 -0.935642 3.39026 0
M  V30 9975 H 993.322 -2.56914 2.76179 0
M  V30 9976 H 995.709 -2.34115 1.7965 0
M  V30 9977 H 995.79 -0.70268 2.45959 0
M  V30 9978 H 995.434 -1.65675 4.80119 0
M  V30 9979 H 995.364 -3.29595 4.107 0
M  V30 9980 H 997.855 -2.03697 3.18302 0
M  V30 9981 H 998.168 -3.62524 6.82493 0
M  V30 9982 H 996.513 -3.26641 6.13458 0
M  V30 9983 H 999.704 -2.45179 3.98754 0
M  V30 9984 H 999.877 -3.17626 5.64817 0
M  V30 9985 N 993.283 -1.25346 -0.955304 0
M  V30 9986 C 994.23 -1.05672 -2.05188 0
M  V30 9987 C 995.2 0.0339217 -1.66065 0
M  V30 9988 O 996.385 -0.123126 -1.90402 0
M  V30 9989 C 993.525 -0.680791 -3.38318 0
M  V30 9990 C 992.638 -1.84622 -3.90562 0
M  V30 9991 C 991.773 -1.41471 -5.12015 0
M  V30 9992 C 990.812 -2.54931 -5.56486 0
M  V30 9993 N 989.949 -2.1256 -6.69151 0
M  V30 9994 H 994.789 -1.9952 -2.2135 0
M  V30 9995 H 992.326 -0.993588 -1.08472 0
M  V30 9996 H 994.284 -0.443794 -4.14833 0
M  V30 9997 H 992.914 0.2207 -3.22045 0
M  V30 9998 H 991.966 -2.19654 -3.10574 0
M  V30 9999 H 993.278 -2.6983 -4.19515 0
M  V30 10000 H 992.432 -1.13732 -5.95945 0
M  V30 10001 H 991.171 -0.533334 -4.84775 0
M  V30 10002 H 990.176 -2.83415 -4.71122 0
M  V30 10003 H 991.401 -3.43645 -5.85734 0
M  V30 10004 H 989.347 -1.26838 -6.43621 0
M  V30 10005 H 989.264 -2.91317 -6.97618 0
M  V30 10006 H 990.532 -1.87996 -7.5649 0
M  V30 10007 N 994.761 1.15782 -1.06922 0
M  V30 10008 C 996.177 1.38454 -0.793896 0
M  V30 10009 C 996.377 1.92238 0.603875 0
M  V30 10010 O 995.433 2.1253 1.36335 0
M  V30 10011 C 996.746 2.3595 -1.86408 0
M  V30 10012 C 998.294 2.49622 -1.88833 0
M  V30 10013 C 998.769 3.50406 -2.94923 0
M  V30 10014 N 1000.26 3.57938 -2.93997 0
M  V30 10015 C 1001 4.35728 -3.72731 0
M  V30 10016 N 1000.49 5.16888 -4.61301 0
M  V30 10017 N 1002.28 4.30774 -3.61096 0
M  V30 10018 H 994.435 0.792101 -1.97077 0
M  V30 10019 H 996.698 0.410779 -0.85438 0
M  V30 10020 H 996.404 2.03537 -2.86819 0
M  V30 10021 H 996.278 3.35677 -1.72049 0
M  V30 10022 H 998.665 2.81335 -0.890759 0
M  V30 10023 H 998.746 1.49909 -2.0727 0
M  V30 10024 H 998.39 3.19429 -3.94877 0
M  V30 10025 H 998.32 4.49864 -2.73734 0
M  V30 10026 H 1000.81 3.00007 -2.29791 0
M  V30 10027 H 1001.12 5.73477 -5.18019 0
M  V30 10028 H 999.469 5.16209 -4.65353 0
M  V30 10029 H 1002.66 3.66432 -2.91282 0
M  V30 10030 H 1002.83 4.91151 -4.22699 0
M  V30 10031 N 996.239 0.8527 1.3254 0
M  V30 10032 C 997.186 0.293905 2.28921 0
M  V30 10033 C 998.156 -0.598027 1.54961 0
M  V30 10034 O 999.341 -0.533355 1.83194 0
M  V30 10035 C 996.481 -0.513361 3.4126 0
M  V30 10036 C 995.594 0.404144 4.30105 0
M  V30 10037 C 994.729 -0.415564 5.29572 0
M  V30 10038 C 993.768 0.499461 6.10059 0
M  V30 10039 N 992.905 -0.282949 7.0153 0
M  V30 10040 H 997.745 1.12107 2.76109 0
M  V30 10041 H 995.282 0.564272 1.35847 0
M  V30 10042 H 997.24 -0.997008 4.05112 0
M  V30 10043 H 995.87 -1.30537 2.95229 0
M  V30 10044 H 994.922 1.00617 3.66852 0
M  V30 10045 H 996.234 1.10648 4.86373 0
M  V30 10046 H 995.388 -0.962458 5.99017 0
M  V30 10047 H 994.127 -1.15127 4.73917 0
M  V30 10048 H 993.132 1.05825 5.39519 0
M  V30 10049 H 994.357 1.23375 6.67799 0
M  V30 10050 H 992.303 -1.00179 6.48306 0
M  V30 10051 H 992.22 0.36039 7.55141 0
M  V30 10052 H 993.488 -0.811632 7.75263 0
M  V30 10053 N 997.718 -1.45297 0.610449 0
M  V30 10054 C 998.648 -2.33311 -0.0939698 0
M  V30 10055 C 999.629 -1.46999 -0.85588 0
M  V30 10056 O 1000.81 -1.75764 -0.825865 0
M  V30 10057 C 997.944 -3.29751 -1.09003 0
M  V30 10058 C 996.898 -4.2572 -0.441146 0
M  V30 10059 C 996.224 -5.11873 -1.54566 0
M  V30 10060 C 997.524 -5.1837 0.639489 0
M  V30 10061 H 999.218 -2.92459 0.640941 0
M  V30 10062 H 996.764 -1.40631 0.309675 0
M  V30 10063 H 998.717 -3.90195 -1.59141 0
M  V30 10064 H 997.441 -2.68768 -1.85557 0
M  V30 10065 H 996.1 -3.66579 0.0393908 0
M  V30 10066 H 995.748 -4.47256 -2.30155 0
M  V30 10067 H 995.448 -5.76886 -1.11698 0
M  V30 10068 H 996.972 -5.75185 -2.04925 0
M  V30 10069 H 998.386 -5.7287 0.22207 0
M  V30 10070 H 996.783 -5.91876 0.990089 0
M  V30 10071 H 997.853 -4.60627 1.51495 0
M  V30 10072 N 999.196 -0.349774 -1.5367 0
M  V30 10073 C 1000.47 0.300419 -1.93279 0
M  V30 10074 C 1000.85 1.67721 -1.28191 0
M  V30 10075 O 1000.2 2.24319 -0.435127 0
M  V30 10076 C 1000.41 0.366466 -3.47071 0
M  V30 10077 C 1001.76 0.614349 -4.20132 0
M  V30 10078 O 1002.78 0.448327 -3.53367 0
M  V30 10079 O 1001.64 0.936421 -5.38417 0
M  V30 10080 H 998.736 0.176599 -0.807924 0
M  V30 10081 H 1001.28 -0.401405 -1.64884 0
M  V30 10082 H 1000.05 -0.599455 -3.86681 0
M  V30 10083 H 999.677 1.11482 -3.81651 0
M  V30 10084 N 1000.67 1.57404 -0.0785433 0
M  V30 10085 C 1001.9 1.98074 0.597862 0
M  V30 10086 C 1002.32 0.95714 1.6274 0
M  V30 10087 O 1001.67 -0.0553728 1.82416 0
M  V30 10088 C 1001.72 3.38815 1.26041 0
M  V30 10089 O 1001.45 4.37254 0.27207 0
M  V30 10090 C 1002.95 3.94397 2.024 0
M  V30 10091 H 1000.17 0.651263 0.161546 0
M  V30 10092 H 1002.71 2.03927 -0.152941 0
M  V30 10093 H 1000.87 3.34028 1.96225 0
M  V30 10094 H 1001.28 5.19136 0.74822 0
M  V30 10095 H 1002.75 4.95075 2.4414 0
M  V30 10096 H 1003.23 3.31308 2.88326 0
M  V30 10097 H 1003.84 4.02607 1.37068 0
M  V30 10098 N 1002.15 -0.195058 1.56388 0
M  V30 10099 C 1003.4 -0.913626 1.79821 0
M  V30 10100 C 1003.71 -1.84422 0.651767 0
M  V30 10101 O 1004.92 -2.6034 0.770402 0
M  V30 10102 C 1003.38 -1.67497 3.18548 0
M  V30 10103 C 1002.98 -0.789205 4.40994 0
M  V30 10104 C 1004.73 -2.38318 3.5129 0
M  V30 10105 C 1002.63 -1.54942 5.70742 0
M  V30 10106 H 1001.56 -0.344891 0.670497 0
M  V30 10107 H 1004.22 -0.166912 1.82739 0
M  V30 10108 H 1002.6 -2.46557 3.0988 0
M  V30 10109 H 1003.77 -0.0372595 4.60785 0
M  V30 10110 H 1002.09 -0.191834 4.15958 0
M  V30 10111 H 1004.68 -2.95745 4.45465 0
M  V30 10112 H 1005.03 -3.12507 2.75037 0
M  V30 10113 H 1005.56 -1.66224 3.61406 0
M  V30 10114 H 1002.3 -0.85031 6.49962 0
M  V30 10115 H 1001.82 -2.2753 5.54969 0
M  V30 10116 H 1003.5 -2.1032 6.11861 0
M  V30 10117 N 1003.63 -1.50653 -0.462772 0
M  V30 10118 C 1004.56 -1.73056 -1.5676 0
M  V30 10119 C 1005.54 -0.579699 -1.59917 0
M  V30 10120 O 1006.73 -0.819729 -1.76051 0
M  V30 10121 C 1003.86 -1.83234 -2.9503 0
M  V30 10122 C 1002.81 -2.98488 -3.06739 0
M  V30 10123 C 1002.14 -2.93818 -4.46738 0
M  V30 10124 C 1003.44 -4.38869 -2.83181 0
M  V30 10125 H 1005.13 -2.65562 -1.38265 0
M  V30 10126 H 1002.68 -1.27792 -0.663722 0
M  V30 10127 H 1004.63 -1.97491 -3.72257 0
M  V30 10128 H 1003.35 -0.873558 -3.14701 0
M  V30 10129 H 1002.01 -2.83895 -2.31946 0
M  V30 10130 H 1001.66 -1.95769 -4.63339 0
M  V30 10131 H 1001.36 -3.71197 -4.55507 0
M  V30 10132 H 1002.88 -3.10135 -5.25974 0
M  V30 10133 H 1004.3 -4.53945 -3.50153 0
M  V30 10134 H 1002.69 -5.17762 -3.03386 0
M  V30 10135 H 1003.76 -4.50663 -1.78972 0
M  V30 10136 N 1005.11 0.71652 -1.4037 0
M  V30 10137 C 1006.06 1.85194 -1.40734 0
M  V30 10138 C 1007.05 1.66934 -0.287969 0
M  V30 10139 O 1008.26 1.74051 -0.458957 0
M  V30 10140 H 1004.63 0.609922 -0.439885 0
M  V30 10141 H 1006.6 1.82003 -2.36468 0
M  V30 10142 C 1005.35 3.23048 -1.28589 0
M  V30 10143 H 1004.67 3.37704 -2.13999 0
M  V30 10144 H 1006.11 4.02633 -1.32902 0
M  V30 10145 C 1004.57 3.369 0.00396512 0
M  V30 10146 O 1005.1 3.89881 0.967243 0
M  V30 10147 N 1003.31 2.90508 0.0731565 0
M  V30 10148 H 1002.86 2.4758 -0.711454 0
M  V30 10149 H 1002.81 3.00155 0.935652 0
M  V30 10150 N 1006.59 1.25851 0.948643 0
M  V30 10151 C 1007.52 1.09248 2.06367 0
M  V30 10152 C 1008.5 -0.000205168 1.701 0
M  V30 10153 O 1009.68 0.170442 1.93451 0
M  V30 10154 C 1006.81 0.716777 3.39823 0
M  V30 10155 C 1005.77 1.76036 3.90122 0
M  V30 10156 C 1005.09 1.23918 5.20143 0
M  V30 10157 C 1006.39 3.16039 4.15833 0
M  V30 10158 H 1008.09 2.02518 2.20515 0
M  V30 10159 H 1005.63 0.975093 1.05962 0
M  V30 10160 H 1007.59 0.587531 4.17284 0
M  V30 10161 H 1006.31 -0.251626 3.25629 0
M  V30 10162 H 1004.97 1.87815 3.14835 0
M  V30 10163 H 1004.62 0.260836 5.02323 0
M  V30 10164 H 1004.32 1.93673 5.54765 0
M  V30 10165 H 1005.84 1.12245 6.00194 0
M  V30 10166 H 1007.25 3.0738 4.83933 0
M  V30 10167 H 1005.65 3.83317 4.61723 0
M  V30 10168 H 1006.72 3.62652 3.21887 0
M  V30 10169 N 1008.06 -1.15214 1.07534 0
M  V30 10170 C 1008.97 -2.23636 0.708818 0
M  V30 10171 C 1009.99 -1.7172 -0.280759 0
M  V30 10172 O 1011.17 -2.01 -0.126927 0
M  V30 10173 C 1008.23 -3.46512 0.114167 0
M  V30 10174 C 1007.29 -4.13409 1.15722 0
M  V30 10175 C 1006.53 -5.30419 0.59085 0
M  V30 10176 O 1006.75 -5.67314 -0.592512 0
M  V30 10177 O 1005.68 -5.86871 1.33663 0
M  V30 10178 H 1009.51 -2.57322 1.61305 0
M  V30 10179 H 1007.09 -1.22972 0.848422 0
M  V30 10180 H 1008.98 -4.20851 -0.215091 0
M  V30 10181 H 1007.65 -3.1457 -0.763356 0
M  V30 10182 H 1006.56 -3.40984 1.53886 0
M  V30 10183 H 1007.89 -4.49435 2.00671 0
M  V30 10184 N 1009.54 -0.859717 -1.32086 0
M  V30 10185 C 1010.96 -0.55025 -1.49815 0
M  V30 10186 C 1011.16 0.917966 -1.79376 0
M  V30 10187 O 1010.21 1.70073 -1.86632 0
M  V30 10188 C 1011.53 -1.44161 -2.6389 0
M  V30 10189 C 1013.08 -1.44257 -2.77775 0
M  V30 10190 C 1013.55 -2.31926 -3.94936 0
M  V30 10191 N 1015.04 -2.2975 -4.02206 0
M  V30 10192 C 1015.78 -2.9431 -4.92107 0
M  V30 10193 N 1015.27 -3.68001 -5.86981 0
M  V30 10194 N 1017.07 -2.83671 -4.8527 0
M  V30 10195 H 1009.22 -1.80987 -1.11164 0
M  V30 10196 H 1011.48 -0.773313 -0.548353 0
M  V30 10197 H 1011.19 -2.48588 -2.4879 0
M  V30 10198 H 1011.06 -1.13268 -3.59792 0
M  V30 10199 H 1013.45 -0.405923 -2.92295 0
M  V30 10200 H 1013.53 -1.79169 -1.82571 0
M  V30 10201 H 1013.17 -3.35661 -3.81174 0
M  V30 10202 H 1013.1 -1.94344 -4.89426 0
M  V30 10203 H 1015.59 -1.76177 -3.3432 0
M  V30 10204 H 1015.91 -4.14417 -6.52287 0
M  V30 10205 H 1014.25 -3.72109 -5.86992 0
M  V30 10206 H 1017.44 -2.25647 -4.10123 0
M  V30 10207 H 1017.61 -3.34267 -5.5513 0
M  V30 10208 N 1011.02 1.44971 -0.618145 0
M  V30 10209 C 1012.3 1.95539 -0.0489895 0
M  V30 10210 C 1012.68 1.5604 1.42179 0
M  V30 10211 O 1012.03 0.82809 2.12967 0
M  V30 10212 C 1012.24 3.48044 -0.258193 0
M  V30 10213 C 1013.58 4.24354 -0.144541 0
M  V30 10214 O 1014.61 3.55699 -0.18887 0
M  V30 10215 O 1013.47 5.46486 -0.038519 0
M  V30 10216 H 1010.56 0.826466 0.0297256 0
M  V30 10217 H 1013.11 1.55086 -0.688944 0
M  V30 10218 H 1011.88 3.69798 -1.27926 0
M  V30 10219 H 1011.5 3.95412 0.416522 0
M  V30 10220 N 1012.5 0.357919 1.53482 0
M  V30 10221 C 1013.74 -0.23451 2.0144 0
M  V30 10222 C 1014.08 -1.49044 1.24497 0
M  V30 10223 O 1013.35 -1.91566 0.336535 0
M  V30 10224 C 1013.64 -0.534193 3.56116 0
M  V30 10225 C 1013.49 0.734834 4.43757 0
M  V30 10226 C 1014.81 -1.33793 4.1927 0
M  V30 10227 H 1011.93 -0.0837595 0.732225 0
M  V30 10228 H 1014.57 0.481297 1.83803 0
M  V30 10229 H 1012.72 -1.144 3.71275 0
M  V30 10230 H 1014.39 1.37251 4.40409 0
M  V30 10231 H 1012.63 1.35678 4.12036 0
M  V30 10232 H 1013.3 0.48021 5.49907 0
M  V30 10233 H 1015.78 -0.822158 4.07897 0
M  V30 10234 H 1014.66 -1.51636 5.27539 0
M  V30 10235 H 1014.92 -2.34423 3.74831 0
M  V30 10236 N 1013.98 -1.5736 0.0868897 0
M  V30 10237 C 1014.89 -2.17087 -0.889402 0
M  V30 10238 C 1015.9 -1.13809 -1.31619 0
M  V30 10239 O 1017.08 -1.46143 -1.38579 0
M  V30 10240 C 1014.14 -2.73286 -2.13344 0
M  V30 10241 C 1013.2 -3.91491 -1.76164 0
M  V30 10242 C 1012.44 -4.45 -2.94637 0
M  V30 10243 O 1012.66 -3.97467 -4.09116 0
M  V30 10244 O 1011.59 -5.36133 -2.73579 0
M  V30 10245 H 1015.42 -3.00902 -0.411275 0
M  V30 10246 H 1013.01 -1.4877 -0.137015 0
M  V30 10247 H 1014.89 -3.0924 -2.86266 0
M  V30 10248 H 1013.56 -1.92521 -2.60225 0
M  V30 10249 H 1012.47 -3.60363 -1.00447 0
M  V30 10250 H 1013.8 -4.73593 -1.34053 0
M  V30 10251 N 1015.45 0.186762 -1.56489 0
M  V30 10252 C 1016.73 0.932229 -1.71956 0
M  V30 10253 C 1017.11 2.01037 -0.644006 0
M  V30 10254 O 1016.46 2.259 0.343694 0
M  V30 10255 C 1016.67 1.51106 -3.14592 0
M  V30 10256 C 1018.02 1.98997 -3.75081 0
M  V30 10257 O 1019.04 1.60931 -3.17773 0
M  V30 10258 O 1017.9 2.69067 -4.75673 0
M  V30 10259 H 1014.99 0.437736 -0.701652 0
M  V30 10260 H 1017.54 0.175803 -1.68787 0
M  V30 10261 H 1016.31 0.734327 -3.84348 0
M  V30 10262 H 1015.94 2.33209 -3.22024 0
M  V30 10263 N 1016.93 1.50896 0.454776 0
M  V30 10264 C 1017.86 1.73885 1.5584 0
M  V30 10265 C 1018.84 0.588172 1.59607 0
M  V30 10266 O 1020.03 0.829054 1.75614 0
M  V30 10267 C 1017.16 1.84796 2.94054 0
M  V30 10268 C 1016.11 3.00111 3.05152 0
M  V30 10269 C 1015.44 2.96183 4.45174 0
M  V30 10270 C 1016.74 4.40365 2.80849 0
M  V30 10271 H 1018.43 2.66292 1.36854 0
M  V30 10272 H 1015.98 1.28142 0.656936 0
M  V30 10273 H 1017.93 1.99462 3.71204 0
M  V30 10274 H 1016.66 0.890235 3.14233 0
M  V30 10275 H 1015.31 2.85121 2.30438 0
M  V30 10276 H 1014.96 1.98224 4.62295 0
M  V30 10277 H 1014.66 3.73608 4.53532 0
M  V30 10278 H 1016.19 3.1292 5.24322 0
M  V30 10279 H 1017.6 4.55795 3.47741 0
M  V30 10280 H 1016 5.19363 3.00636 0
M  V30 10281 H 1017.07 4.51606 1.76579 0
M  V30 10282 N 1018.41 -0.709066 1.40748 0
M  V30 10283 C 1019.34 -1.83412 1.37451 0
M  V30 10284 C 1020.36 -1.60394 0.27884 0
M  V30 10285 O 1021.54 -1.70147 0.539642 0
M  V30 10286 C 1018.64 -3.19935 1.1178 0
M  V30 10287 C 1017.82 -3.70095 2.33128 0
M  V30 10288 C 1016.88 -4.85249 2.03518 0
M  V30 10289 O 1015.9 -4.97563 2.76442 0
M  V30 10290 N 1017.1 -5.7152 1.01714 0
M  V30 10291 H 1019.87 -1.86736 2.34414 0
M  V30 10292 H 1017.43 -0.890863 1.35186 0
M  V30 10293 H 1019.42 -3.94578 0.899464 0
M  V30 10294 H 1017.99 -3.11718 0.234624 0
M  V30 10295 H 1017.21 -2.8651 2.70751 0
M  V30 10296 H 1018.5 -4.00344 3.1401 0
M  V30 10297 H 1017.9 -5.64188 0.413307 0
M  V30 10298 H 1016.46 -6.46119 0.858696 0
M  V30 10299 N 1019.89 -1.26353 -0.941956 0
M  V30 10300 C 1021.31 -1.03448 -1.21534 0
M  V30 10301 C 1021.51 0.240855 -2.00055 0
M  V30 10302 O 1020.56 0.950199 -2.33939 0
M  V30 10303 C 1021.87 -2.2654 -1.97737 0
M  V30 10304 C 1023.42 -2.31433 -2.10731 0
M  V30 10305 C 1023.9 -3.54216 -2.90336 0
M  V30 10306 N 1025.39 -3.54688 -2.9791 0
M  V30 10307 C 1026.12 -4.4636 -3.59931 0
M  V30 10308 N 1025.62 -5.48319 -4.2346 0
M  V30 10309 N 1027.41 -4.34013 -3.57196 0
M  V30 10310 H 1019.56 -2.08266 -0.417005 0
M  V30 10311 H 1021.83 -0.915251 -0.247021 0
M  V30 10312 H 1021.53 -3.19299 -1.47449 0
M  V30 10313 H 1021.41 -2.30726 -2.98405 0
M  V30 10314 H 1023.79 -1.3919 -2.60212 0
M  V30 10315 H 1023.87 -2.31259 -1.09329 0
M  V30 10316 H 1023.52 -4.46788 -2.41543 0
M  V30 10317 H 1023.45 -3.51637 -3.91993 0
M  V30 10318 H 1025.94 -2.80942 -2.52745 0
M  V30 10319 H 1026.25 -6.14458 -4.6868 0
M  V30 10320 H 1024.6 -5.52177 -4.22049 0
M  V30 10321 H 1027.79 -3.53578 -3.06758 0
M  V30 10322 H 1027.96 -5.0565 -4.05244 0
M  V30 10323 N 1021.37 1.14642 -1.08144 0
M  V30 10324 C 1022.64 1.81774 -0.72232 0
M  V30 10325 C 1023.02 1.95587 0.794294 0
M  V30 10326 O 1022.37 1.51361 1.71178 0
M  V30 10327 C 1022.58 3.1763 -1.44611 0
M  V30 10328 C 1023.93 3.93161 -1.60343 0
M  V30 10329 O 1024.95 3.2721 -1.40755 0
M  V30 10330 O 1023.81 5.11422 -1.9264 0
M  V30 10331 H 1020.91 0.785733 -0.257978 0
M  V30 10332 H 1023.45 1.21683 -1.18285 0
M  V30 10333 H 1022.23 3.02723 -2.4794 0
M  V30 10334 H 1021.85 3.85412 -0.976892 0
M  V30 10335 N 1022.85 0.866709 1.31628 0
M  V30 10336 C 1023.79 0.318169 2.28596 0
M  V30 10337 C 1024.76 -0.581558 1.55586 0
M  V30 10338 O 1025.95 -0.513895 1.83749 0
M  V30 10339 C 1023.09 -0.477137 3.41786 0
M  V30 10340 C 1022.2 0.449739 4.29653 0
M  V30 10341 C 1021.34 -0.359373 5.29983 0
M  V30 10342 C 1020.37 0.564138 6.09495 0
M  V30 10343 N 1019.51 -0.208526 7.0179 0
M  V30 10344 H 1024.35 1.15029 2.74904 0
M  V30 10345 H 1021.89 0.578649 1.35241 0
M  V30 10346 H 1023.85 -0.953985 4.06146 0
M  V30 10347 H 1022.48 -1.27398 2.96597 0
M  V30 10348 H 1021.53 1.04502 3.65764 0
M  V30 10349 H 1022.84 1.158 4.85172 0
M  V30 10350 H 1021.99 -0.89887 6.00004 0
M  V30 10351 H 1020.73 -1.10094 4.75111 0
M  V30 10352 H 1019.74 1.11542 5.38366 0
M  V30 10353 H 1020.96 1.30451 6.66453 0
M  V30 10354 H 1018.91 -0.932969 6.49332 0
M  V30 10355 H 1018.83 0.440463 7.54716 0
M  V30 10356 H 1020.09 -0.72936 7.7608 0
M  V30 10357 N 1024.32 -1.44642 0.625825 0
M  V30 10358 C 1025.29 -2.29085 -0.072526 0
M  V30 10359 C 1026.29 -1.40755 -0.777467 0
M  V30 10360 O 1027.48 -1.62684 -0.622861 0
M  V30 10361 C 1024.61 -3.22212 -1.1132 0
M  V30 10362 H 1025.8 -2.92317 0.670124 0
M  V30 10363 H 1023.35 -1.51466 0.38571 0
M  V30 10364 H 1024.09 -2.63819 -1.88601 0
M  V30 10365 H 1023.87 -3.87299 -0.611709 0
M  V30 10366 H 1025.36 -3.8566 -1.60175 0
M  V30 10367 N 1025.8 -0.366053 -1.5329 0
M  V30 10368 C 1027.22 -0.0150149 -1.59593 0
M  V30 10369 C 1027.42 1.46719 -1.38116 0
M  V30 10370 O 1026.47 2.22884 -1.18656 0
M  V30 10371 C 1027.79 -0.471374 -2.96982 0
M  V30 10372 C 1029.33 -0.425634 -3.10092 0
M  V30 10373 C 1029.81 -0.857812 -4.49895 0
M  V30 10374 N 1031.3 -0.81289 -4.56011 0
M  V30 10375 C 1032.04 -1.11898 -5.62376 0
M  V30 10376 N 1031.53 -1.49436 -6.76491 0
M  V30 10377 N 1033.32 -1.04174 -5.52362 0
M  V30 10378 H 1025.48 -1.33127 -1.65502 0
M  V30 10379 H 1027.74 -0.544172 -0.776261 0
M  V30 10380 H 1027.44 -1.50569 -3.1784 0
M  V30 10381 H 1027.32 0.141764 -3.76934 0
M  V30 10382 H 1029.71 0.599548 -2.88945 0
M  V30 10383 H 1029.79 -1.07427 -2.32149 0
M  V30 10384 H 1029.43 -1.88111 -4.7178 0
M  V30 10385 H 1029.36 -0.186419 -5.2627 0
M  V30 10386 H 1031.85 -0.536343 -3.74075 0
M  V30 10387 H 1032.16 -1.71217 -7.53594 0
M  V30 10388 H 1030.51 -1.53302 -6.77882 0
M  V30 10389 H 1033.7 -0.747654 -4.62091 0
M  V30 10390 H 1033.87 -1.28362 -6.35159 0
M  V30 10391 N 1027.28 1.57312 -0.0952337 0
M  V30 10392 C 1028.21 2.17056 0.860753 0
M  V30 10393 C 1029.19 1.10394 1.29411 0
M  V30 10394 O 1030.38 1.38532 1.36098 0
M  V30 10395 C 1027.51 2.751 2.11984 0
M  V30 10396 C 1026.46 3.87136 1.8251 0
M  V30 10397 C 1025.79 4.31883 3.15247 0
M  V30 10398 C 1027.09 5.10326 1.11194 0
M  V30 10399 H 1028.78 2.97192 0.362983 0
M  V30 10400 H 1026.33 1.42955 0.173151 0
M  V30 10401 H 1028.28 3.15547 2.79299 0
M  V30 10402 H 1027 1.92219 2.64044 0
M  V30 10403 H 1025.66 3.47229 1.17592 0
M  V30 10404 H 1025.31 3.45893 3.65195 0
M  V30 10405 H 1025.01 5.0742 2.96309 0
M  V30 10406 H 1026.53 4.74964 3.83721 0
M  V30 10407 H 1027.95 5.47942 1.6862 0
M  V30 10408 H 1026.34 5.91293 1.02435 0
M  V30 10409 H 1027.41 4.84807 0.0947227 0
M  V30 10410 N 1028.76 -0.17846 1.56586 0
M  V30 10411 C 1029.69 -1.22342 1.98884 0
M  V30 10412 C 1030.67 -1.46564 0.86331 0
M  V30 10413 O 1031.85 -1.58019 1.12887 0
M  V30 10414 C 1028.98 -2.56396 2.34261 0
M  V30 10415 C 1027.94 -2.46756 3.49708 0
M  V30 10416 C 1027.26 -3.85235 3.70807 0
M  V30 10417 C 1028.56 -1.97838 4.83381 0
M  V30 10418 H 1030.26 -0.871848 2.86425 0
M  V30 10419 H 1027.8 -0.417948 1.37801 0
M  V30 10420 H 1029.76 -3.29695 2.62448 0
M  V30 10421 H 1028.48 -2.93327 1.43621 0
M  V30 10422 H 1027.14 -1.75912 3.21637 0
M  V30 10423 H 1026.79 -4.19547 2.7747 0
M  V30 10424 H 1026.49 -3.79655 4.48481 0
M  V30 10425 H 1028.01 -4.60131 4.01387 0
M  V30 10426 H 1029.43 -2.60906 5.10491 0
M  V30 10427 H 1027.82 -2.03223 5.64642 0
M  V30 10428 H 1028.89 -0.932339 4.75852 0
M  V30 10429 N 1030.24 -1.51135 -0.446768 0
M  V30 10430 C 1031.65 -1.39101 -0.782504 0
M  V30 10431 C 1031.85 -0.46599 -1.96038 0
M  V30 10432 O 1030.91 0.0823679 -2.52366 0
M  V30 10433 C 1032.22 -2.80953 -1.07173 0
M  V30 10434 C 1033.77 -2.90038 -1.17673 0
M  V30 10435 C 1034.24 -4.32777 -1.49894 0
M  V30 10436 N 1035.73 -4.3584 -1.56837 0
M  V30 10437 C 1036.47 -5.43305 -1.83322 0
M  V30 10438 N 1035.97 -6.60945 -2.07662 0
M  V30 10439 N 1037.76 -5.30775 -1.85026 0
M  V30 10440 H 1029.91 -2.09835 0.329114 0
M  V30 10441 H 1032.17 -0.944199 0.0848054 0
M  V30 10442 H 1031.88 -3.50591 -0.279037 0
M  V30 10443 H 1031.75 -3.197 -2.00179 0
M  V30 10444 H 1034.14 -2.20603 -1.96005 0
M  V30 10445 H 1034.22 -2.54801 -0.225892 0
M  V30 10446 H 1033.86 -5.02757 -0.720924 0
M  V30 10447 H 1033.79 -4.6552 -2.46168 0
M  V30 10448 H 1036.29 -3.51023 -1.39968 0
M  V30 10449 H 1036.6 -7.38643 -2.27214 0
M  V30 10450 H 1034.94 -6.64077 -2.05003 0
M  V30 10451 H 1038.13 -4.37858 -1.65523 0
M  V30 10452 H 1038.31 -6.14609 -2.05329 0
M  V30 10453 N 1031.71 0.701592 -1.41122 0
M  V30 10454 C 1032.62 1.84548 -1.44841 0
M  V30 10455 C 1033.64 1.70654 -0.339594 0
M  V30 10456 O 1034.82 1.92675 -0.586378 0
M  V30 10457 C 1031.88 3.20477 -1.3227 0
M  V30 10458 C 1030.94 3.46524 -2.53415 0
M  V30 10459 C 1030.17 4.75968 -2.41434 0
M  V30 10460 O 1030.4 5.52037 -1.43566 0
M  V30 10461 O 1029.33 5.02664 -3.31078 0
M  V30 10462 H 1033.16 1.84367 -2.41335 0
M  V30 10463 H 1030.74 0.853863 -1.22595 0
M  V30 10464 H 1032.62 4.01642 -1.2752 0
M  V30 10465 H 1031.3 3.21355 -0.388889 0
M  V30 10466 H 1030.21 2.65313 -2.63742 0
M  V30 10467 H 1031.54 3.50455 -3.45604 0
M  V30 10468 N 1033.19 1.2685 0.935242 0
M  V30 10469 C 1034.14 1.08923 2.03481 0
M  V30 10470 C 1035.11 -0.00749786 1.66098 0
M  V30 10471 O 1036.29 0.153401 1.90182 0
M  V30 10472 C 1033.43 0.734529 3.37192 0
M  V30 10473 C 1032.55 1.90812 3.87576 0
M  V30 10474 C 1031.68 1.49599 5.097 0
M  V30 10475 C 1030.72 2.63752 5.5236 0
M  V30 10476 N 1029.86 2.23179 6.65684 0
M  V30 10477 H 1034.7 2.03016 2.18148 0
M  V30 10478 H 1032.23 1.01072 1.06878 0
M  V30 10479 H 1034.19 0.509734 4.14074 0
M  V30 10480 H 1032.82 -0.169438 3.22355 0
M  V30 10481 H 1031.87 2.24567 3.0704 0
M  V30 10482 H 1033.19 2.7647 4.1517 0
M  V30 10483 H 1032.34 1.23199 5.9406 0
M  V30 10484 H 1031.08 0.61039 4.83865 0
M  V30 10485 H 1030.08 2.90874 4.66554 0
M  V30 10486 H 1031.31 3.5292 5.80193 0
M  V30 10487 H 1029.26 1.37061 6.41522 0
M  V30 10488 H 1029.17 3.02379 6.92895 0
M  V30 10489 H 1030.44 2.00007 7.53404 0
M  V30 10490 N 1034.67 -1.14067 1.0875 0
M  V30 10491 C 1035.92 -1.85459 0.82053 0
M  V30 10492 C 1036.25 -1.82923 -0.65213 0
M  V30 10493 O 1035.52 -1.26241 -1.47965 0
M  V30 10494 C 1035.81 -3.33937 1.34752 0
M  V30 10495 C 1035.66 -3.45026 2.88578 0
M  V30 10496 C 1036.98 -4.2915 0.975636 0
M  V30 10497 H 1034.1 -0.673384 0.299538 0
M  V30 10498 H 1036.74 -1.33927 1.34772 0
M  V30 10499 H 1034.89 -3.77953 0.899086 0
M  V30 10500 H 1036.56 -3.09771 3.41818 0
M  V30 10501 H 1034.81 -2.86124 3.26061 0
M  V30 10502 H 1035.48 -4.49408 3.20526 0
M  V30 10503 H 1037.95 -3.93168 1.36228 0
M  V30 10504 H 1036.83 -5.31489 1.37152 0
M  V30 10505 H 1037.09 -4.41945 -0.116956 0
M  V30 10506 N 1036.15 -0.873678 -1.31166 0
M  V30 10507 C 1037.06 -0.335726 -2.32185 0
M  V30 10508 C 1038.07 0.556259 -1.64869 0
M  V30 10509 O 1039.25 0.452087 -1.9626 0
M  V30 10510 C 1036.32 0.450822 -3.43756 0
M  V30 10511 C 1035.38 -0.469565 -4.26724 0
M  V30 10512 C 1034.61 0.279538 -5.32967 0
M  V30 10513 O 1034.83 1.50715 -5.50128 0
M  V30 10514 O 1033.77 -0.36452 -6.00795 0
M  V30 10515 H 1037.59 -1.17314 -2.80127 0
M  V30 10516 H 1035.18 -0.637163 -1.35132 0
M  V30 10517 H 1037.06 0.896582 -4.11752 0
M  V30 10518 H 1035.73 1.26472 -2.9797 0
M  V30 10519 H 1034.64 -0.963902 -3.61469 0
M  V30 10520 H 1035.97 -1.24916 -4.76085 0
M  V30 10521 N 1037.63 1.44308 -0.633487 0
M  V30 10522 C 1038.87 2.02023 -0.138917 0
M  V30 10523 C 1039.2 1.49841 1.24008 0
M  V30 10524 O 1038.46 0.673718 1.83738 0
M  V30 10525 C 1038.76 3.57316 -0.0773886 0
M  V30 10526 C 1038.42 4.28762 -1.39548 0
M  V30 10527 C 1037.08 4.47997 -1.75648 0
M  V30 10528 C 1039.44 4.69391 -2.26542 0
M  V30 10529 C 1036.76 5.05121 -2.98445 0
M  V30 10530 C 1039.12 5.27876 -3.48612 0
M  V30 10531 C 1037.78 5.45329 -3.84932 0
M  V30 10532 H 1037.05 0.739254 -0.0508333 0
M  V30 10533 H 1039.7 1.73043 -0.820271 0
M  V30 10534 H 1038 3.85724 0.687345 0
M  V30 10535 H 1039.7 3.99706 0.321837 0
M  V30 10536 H 1036.29 4.14122 -1.10456 0
M  V30 10537 H 1040.47 4.54241 -1.99946 0
M  V30 10538 H 1035.73 5.16821 -3.26658 0
M  V30 10539 H 1039.9 5.58307 -4.16253 0
M  V30 10540 H 1037.53 5.8936 -4.80166 0
M  V30 10541 N 1039.1 0.374177 1.53094 0
M  V30 10542 C 1040.03 -0.459976 2.28925 0
M  V30 10543 C 1041.02 -1.07656 1.31698 0
M  V30 10544 O 1042.2 -1.09219 1.60577 0
M  V30 10545 C 1039.33 -1.5954 3.08487 0
M  V30 10546 C 1038.28 -1.10563 4.13473 0
M  V30 10547 C 1037.61 -2.33196 4.81169 0
M  V30 10548 C 1038.91 -0.184275 5.21975 0
M  V30 10549 H 1040.6 0.172692 2.98902 0
M  V30 10550 H 1038.15 0.0844956 1.43752 0
M  V30 10551 H 1040.1 -2.18565 3.60288 0
M  V30 10552 H 1038.83 -2.25543 2.36216 0
M  V30 10553 H 1037.49 -0.53801 3.62631 0
M  V30 10554 H 1037.13 -2.97675 4.05461 0
M  V30 10555 H 1036.83 -2.01094 5.52119 0
M  V30 10556 H 1038.36 -2.92892 5.35767 0
M  V30 10557 H 1039.77 -0.682262 5.69226 0
M  V30 10558 H 1038.17 0.0462746 6.00082 0
M  V30 10559 H 1039.24 0.771152 4.78729 0
M  V30 10560 N 1040.58 -1.57259 0.103575 0
M  V30 10561 C 1042 -1.57581 -0.253062 0
M  V30 10562 C 1042.2 -1.11531 -1.67819 0
M  V30 10563 O 1041.25 -0.795632 -2.39637 0
M  V30 10564 C 1042.57 -3.00681 -0.0337753 0
M  V30 10565 C 1044.12 -3.12837 -0.10087 0
M  V30 10566 C 1044.59 -4.57911 0.0905295 0
M  V30 10567 N 1046.08 -4.63186 0.0359789 0
M  V30 10568 C 1046.82 -5.73179 0.159199 0
M  V30 10569 N 1046.31 -6.91976 0.337728 0
M  V30 10570 N 1048.11 -5.62011 0.0998662 0
M  V30 10571 H 1040.26 -1.85499 1.0346 0
M  V30 10572 H 1042.52 -0.856584 0.406163 0
M  V30 10573 H 1042.23 -3.38602 0.950858 0
M  V30 10574 H 1042.1 -3.69207 -0.772406 0
M  V30 10575 H 1044.49 -2.74783 -1.07601 0
M  V30 10576 H 1044.57 -2.46886 0.66939 0
M  V30 10577 H 1044.21 -4.9666 1.06258 0
M  V30 10578 H 1044.14 -5.21933 -0.699528 0
M  V30 10579 H 1046.63 -3.7777 -0.099121 0
M  V30 10580 H 1046.95 -7.71641 0.423032 0
M  V30 10581 H 1045.29 -6.93996 0.373504 0
M  V30 10582 H 1048.48 -4.68084 -0.0385356 0
M  V30 10583 H 1048.65 -6.47693 0.199342 0
M  V30 10584 N 1042.06 0.170153 -1.56679 0
M  V30 10585 C 1043.29 0.90618 -1.86556 0
M  V30 10586 C 1043.71 1.74986 -0.690044 0
M  V30 10587 O 1043.07 1.77672 0.360862 0
M  V30 10588 C 1043.12 1.75777 -3.14857 0
M  V30 10589 O 1042.22 2.85952 -2.97162 0
M  V30 10590 H 1041.56 0.253781 -0.613589 0
M  V30 10591 H 1044.09 0.167943 -2.0391 0
M  V30 10592 H 1044.1 2.15747 -3.46291 0
M  V30 10593 H 1042.78 1.13807 -4.00026 0
M  V30 10594 H 1041.35 2.49557 -2.77084 0
M  V30 10595 N 1043.54 1.5137 0.438746 0
M  V30 10596 C 1044.47 1.75528 1.53987 0
M  V30 10597 C 1045.45 0.605067 1.58975 0
M  V30 10598 O 1046.63 0.847634 1.74725 0
M  V30 10599 C 1043.76 1.87904 2.92078 0
M  V30 10600 C 1042.72 3.0333 3.01951 0
M  V30 10601 C 1042.04 3.00888 4.42007 0
M  V30 10602 C 1043.34 4.43319 2.76163 0
M  V30 10603 H 1045.04 2.67728 1.34022 0
M  V30 10604 H 1042.58 1.28831 0.643308 0
M  V30 10605 H 1044.54 2.03388 3.69068 0
M  V30 10606 H 1043.26 0.923514 3.13271 0
M  V30 10607 H 1041.92 2.87549 2.274 0
M  V30 10608 H 1041.57 2.03116 4.60166 0
M  V30 10609 H 1041.27 3.78397 4.49544 0
M  V30 10610 H 1042.79 3.18464 5.20973 0
M  V30 10611 H 1044.21 4.59458 3.42887 0
M  V30 10612 H 1042.6 5.22523 2.9511 0
M  V30 10613 H 1043.67 4.53453 1.71779 0
M  V30 10614 N 1045.02 -0.694098 1.41492 0
M  V30 10615 C 1046.43 -1.00487 1.23994 0
M  V30 10616 C 1046.63 -2.01078 0.130346 0
M  V30 10617 O 1045.69 -2.47403 -0.504775 0
M  V30 10618 C 1047 -1.52808 2.58979 0
M  V30 10619 C 1048.55 -1.64684 2.66173 0
M  V30 10620 C 1049.02 -2.20406 4.01479 0
M  V30 10621 N 1050.52 -2.27765 4.03333 0
M  V30 10622 C 1051.25 -2.7191 5.04829 0
M  V30 10623 N 1050.75 -3.1565 6.16714 0
M  V30 10624 N 1052.54 -2.71487 4.9219 0
M  V30 10625 H 1044.69 -0.027746 2.12382 0
M  V30 10626 H 1046.95 -0.0748741 0.945039 0
M  V30 10627 H 1046.66 -0.863519 3.40934 0
M  V30 10628 H 1046.53 -2.50998 2.81566 0
M  V30 10629 H 1048.92 -2.30251 1.84576 0
M  V30 10630 H 1049 -0.65035 2.47395 0
M  V30 10631 H 1048.65 -1.55454 4.83525 0
M  V30 10632 H 1048.58 -3.2081 4.17599 0
M  V30 10633 H 1051.07 -1.96899 3.22551 0
M  V30 10634 H 1051.38 -3.47966 6.90029 0
M  V30 10635 H 1049.72 -3.13555 6.20248 0
M  V30 10636 H 1052.92 -2.36666 4.03865 0
M  V30 10637 H 1053.09 -3.05573 5.71427 0
M  V30 10638 N 1046.49 -1.27344 -0.928501 0
M  V30 10639 C 1047.43 -1.05797 -2.03322 0
M  V30 10640 C 1048.44 -0.0143086 -1.62794 0
M  V30 10641 O 1049.63 -0.25578 -1.76658 0
M  V30 10642 C 1046.73 -0.582673 -3.33853 0
M  V30 10643 C 1045.9 -1.69844 -4.03078 0
M  V30 10644 C 1044.96 -1.21902 -5.11885 0
M  V30 10645 O 1043.99 -1.91853 -5.35893 0
M  V30 10646 N 1045.19 -0.0742392 -5.80453 0
M  V30 10647 H 1047.95 -2.00928 -2.22369 0
M  V30 10648 H 1045.51 -1.189 -1.09883 0
M  V30 10649 H 1047.51 -0.245862 -4.03952 0
M  V30 10650 H 1046.08 0.27539 -3.11385 0
M  V30 10651 H 1045.3 -2.20557 -3.26723 0
M  V30 10652 H 1046.58 -2.4473 -4.46077 0
M  V30 10653 H 1045.98 0.509631 -5.634 0
M  V30 10654 H 1044.54 0.203399 -6.51483 0
M  V30 10655 N 1047.97 1.13488 -1.09353 0
M  V30 10656 C 1048.91 2.17951 -0.67622 0
M  V30 10657 C 1049.88 1.59482 0.316906 0
M  V30 10658 O 1051.07 1.8723 0.218459 0
M  V30 10659 C 1048.19 3.387 0.00391024 0
M  V30 10660 C 1047.24 4.15764 -0.950906 0
M  V30 10661 S 1048.07 4.75517 -2.46259 0
M  V30 10662 C 1049.23 5.99613 -1.79485 0
M  V30 10663 H 1049.46 2.53012 -1.56115 0
M  V30 10664 H 1047 1.24773 -0.909447 0
M  V30 10665 H 1048.95 4.08643 0.39002 0
M  V30 10666 H 1047.61 3.01941 0.86548 0
M  V30 10667 H 1046.81 5.02229 -0.422086 0
M  V30 10668 H 1046.41 3.51473 -1.27838 0
M  V30 10669 H 1048.7 6.68204 -1.11846 0
M  V30 10670 H 1049.64 6.57102 -2.63862 0
M  V30 10671 H 1050.05 5.50165 -1.26409 0
M  V30 10672 N 1049.45 0.880621 1.30701 0
M  V30 10673 C 1050.4 0.342397 2.28246 0
M  V30 10674 C 1051.37 -0.565023 1.56194 0
M  V30 10675 O 1052.55 -0.494377 1.84284 0
M  V30 10676 C 1049.69 -0.440859 3.42272 0
M  V30 10677 C 1048.81 0.495284 4.29151 0
M  V30 10678 C 1047.94 -0.303141 5.30334 0
M  V30 10679 C 1046.98 0.628751 6.08862 0
M  V30 10680 N 1046.12 -0.13408 7.01972 0
M  V30 10681 H 1050.96 1.17938 2.73669 0
M  V30 10682 H 1048.49 0.59296 1.34619 0
M  V30 10683 H 1050.45 -0.910854 4.07135 0
M  V30 10684 H 1049.08 -1.24245 2.97931 0
M  V30 10685 H 1048.13 1.08376 3.64635 0
M  V30 10686 H 1049.45 1.2094 4.83916 0
M  V30 10687 H 1048.6 -0.835181 6.00924 0
M  V30 10688 H 1047.34 -1.05049 4.76252 0
M  V30 10689 H 1046.34 1.17246 5.37153 0
M  V30 10690 H 1047.57 1.37512 6.65032 0
M  V30 10691 H 1045.52 -0.864046 6.50285 0
M  V30 10692 H 1045.43 0.520486 7.54206 0
M  V30 10693 H 1046.7 -0.647005 7.7681 0
M  V30 10694 N 1050.93 -1.4397 0.641131 0
M  V30 10695 C 1051.86 -2.28997 -0.0963315 0
M  V30 10696 C 1052.87 -1.4184 -0.799071 0
M  V30 10697 O 1054.06 -1.65896 -0.658846 0
M  V30 10698 C 1051.16 -3.18465 -1.15903 0
M  V30 10699 C 1050.34 -4.34093 -0.536828 0
M  V30 10700 C 1049.4 -5.04522 -1.4948 0
M  V30 10701 O 1048.42 -5.60202 -1.00807 0
M  V30 10702 N 1049.62 -5.06899 -2.82901 0
M  V30 10703 H 1052.39 -2.9293 0.633422 0
M  V30 10704 H 1049.95 -1.54527 0.48302 0
M  V30 10705 H 1051.94 -3.62445 -1.80044 0
M  V30 10706 H 1050.51 -2.56214 -1.79089 0
M  V30 10707 H 1049.73 -3.9318 0.283414 0
M  V30 10708 H 1051.02 -5.08698 -0.101966 0
M  V30 10709 H 1050.42 -4.63012 -3.25017 0
M  V30 10710 H 1048.97 -5.54637 -3.42376 0
M  V30 10711 N 1052.41 -0.382291 -1.52893 0
M  V30 10712 C 1053.35 0.456234 -2.26246 0
M  V30 10713 C 1054.32 1.06366 -1.27575 0
M  V30 10714 O 1055.51 1.09301 -1.5639 0
M  V30 10715 C 1052.65 1.5813 -3.06739 0
M  V30 10716 C 1051.76 0.997416 -4.20328 0
M  V30 10717 C 1050.9 2.09296 -4.8823 0
M  V30 10718 C 1049.94 1.4846 -5.93823 0
M  V30 10719 N 1049.07 2.51916 -6.55349 0
M  V30 10720 H 1053.91 -0.175761 -2.97481 0
M  V30 10721 H 1051.45 -0.0985046 -1.4677 0
M  V30 10722 H 1053.41 2.24426 -3.51694 0
M  V30 10723 H 1052.04 2.18371 -2.37727 0
M  V30 10724 H 1051.09 0.224251 -3.79738 0
M  V30 10725 H 1052.4 0.512784 -4.96157 0
M  V30 10726 H 1051.56 2.83377 -5.36453 0
M  V30 10727 H 1050.3 2.61116 -4.1191 0
M  V30 10728 H 1049.3 0.729001 -5.44946 0
M  V30 10729 H 1050.53 0.97443 -6.72073 0
M  V30 10730 H 1048.47 3.02919 -5.81873 0
M  V30 10731 H 1048.39 2.08188 -7.26769 0
M  V30 10732 H 1049.66 3.25649 -7.08218 0
M  V30 10733 N 1053.89 1.57202 -0.111913 0
M  V30 10734 C 1055.13 1.95239 0.548607 0
M  V30 10735 C 1055.46 0.994897 1.6678 0
M  V30 10736 O 1054.74 0.0308603 1.94476 0
M  V30 10737 C 1055.02 3.43271 1.08798 0
M  V30 10738 C 1054.88 4.49792 -0.0273064 0
M  V30 10739 C 1056.19 3.92989 1.98109 0
M  V30 10740 H 1053.31 0.709919 0.197951 0
M  V30 10741 H 1055.96 1.89087 -0.186036 0
M  V30 10742 H 1054.11 3.48644 1.71404 0
M  V30 10743 H 1055.78 4.56521 -0.662302 0
M  V30 10744 H 1054.02 4.28254 -0.691426 0
M  V30 10745 H 1054.69 5.50612 0.391201 0
M  V30 10746 H 1057.17 3.89875 1.45385 0
M  V30 10747 H 1056.04 4.97101 2.32769 0
M  V30 10748 H 1056.3 3.33267 2.90492 0
M  V30 10749 N 1055.36 -0.161842 1.56767 0
M  V30 10750 C 1056.3 -1.22499 1.93718 0
M  V30 10751 C 1057.31 -1.39975 0.831314 0
M  V30 10752 O 1058.5 -1.3981 1.10975 0
M  V30 10753 C 1055.6 -2.59222 2.18306 0
M  V30 10754 C 1054.77 -2.6292 3.4956 0
M  V30 10755 C 1053.83 -3.81074 3.62863 0
M  V30 10756 O 1052.86 -3.66633 4.35395 0
M  V30 10757 N 1054.06 -4.97923 2.98418 0
M  V30 10758 H 1056.82 -0.911043 2.85517 0
M  V30 10759 H 1054.38 -0.351533 1.58038 0
M  V30 10760 H 1056.38 -3.36749 2.24461 0
M  V30 10761 H 1054.95 -2.82969 1.32844 0
M  V30 10762 H 1054.17 -1.71418 3.54978 0
M  V30 10763 H 1055.45 -2.62409 4.35911 0
M  V30 10764 H 1054.85 -5.12557 2.39378 0
M  V30 10765 H 1053.41 -5.73277 3.10155 0
M  V30 10766 N 1056.84 -1.516 -0.430713 0
M  V30 10767 C 1058.07 -1.687 -1.20644 0
M  V30 10768 C 1058.49 -0.386555 -1.84085 0
M  V30 10769 O 1057.85 0.653952 -1.69095 0
M  V30 10770 C 1057.9 -2.80887 -2.2613 0
M  V30 10771 O 1057 -2.44952 -3.31772 0
M  V30 10772 H 1056.34 -0.562289 -0.353167 0
M  V30 10773 H 1058.87 -1.98198 -0.507807 0
M  V30 10774 H 1058.88 -3.05167 -2.70809 0
M  V30 10775 H 1057.56 -3.75249 -1.79334 0
M  V30 10776 H 1056.13 -2.31267 -2.92523 0
M  V30 10777 N 1058.32 0.686584 -1.41858 0
M  V30 10778 C 1059.25 1.81264 -1.47193 0
M  V30 10779 C 1060.23 1.66875 -0.329657 0
M  V30 10780 O 1061.42 1.86473 -0.542347 0
M  V30 10781 C 1058.55 3.19472 -1.36216 0
M  V30 10782 C 1057.5 3.4858 -2.48347 0
M  V30 10783 C 1056.83 4.86239 -2.22432 0
M  V30 10784 C 1058.13 3.46653 -3.90678 0
M  V30 10785 H 1059.82 1.77057 -2.41436 0
M  V30 10786 H 1057.37 0.850415 -1.16206 0
M  V30 10787 H 1059.32 3.97969 -1.38558 0
M  V30 10788 H 1058.04 3.24327 -0.384611 0
M  V30 10789 H 1056.7 2.72437 -2.45303 0
M  V30 10790 H 1056.35 4.8773 -1.22999 0
M  V30 10791 H 1056.05 5.06677 -2.97577 0
M  V30 10792 H 1057.57 5.67034 -2.26505 0
M  V30 10793 H 1058.99 4.15139 -3.95389 0
M  V30 10794 H 1057.38 3.78625 -4.65578 0
M  V30 10795 H 1058.45 2.45451 -4.18189 0
M  V30 10796 N 1059.8 1.27835 0.921735 0
M  V30 10797 C 1061.03 1.17182 1.70153 0
M  V30 10798 C 1061.44 -0.273207 1.87217 0
M  V30 10799 O 1060.78 -1.19729 1.39322 0
M  V30 10800 C 1060.84 1.78969 3.11786 0
M  V30 10801 C 1060.5 3.28179 3.18037 0
M  V30 10802 C 1061.5 4.24729 2.99835 0
M  V30 10803 C 1059.19 3.68995 3.40805 0
M  V30 10804 C 1061.18 5.60071 3.04301 0
M  V30 10805 C 1058.87 5.04465 3.44904 0
M  V30 10806 C 1059.87 5.99813 3.2667 0
M  V30 10807 O 1059.55 7.32813 3.30515 0
M  V30 10808 H 1059.29 0.408079 0.538932 0
M  V30 10809 H 1061.84 1.69326 1.16266 0
M  V30 10810 H 1060.07 1.2131 3.6718 0
M  V30 10811 H 1061.76 1.62946 3.71757 0
M  V30 10812 H 1062.52 3.94533 2.8208 0
M  V30 10813 H 1058.4 2.9525 3.54045 0
M  V30 10814 H 1061.95 6.34471 2.89987 0
M  V30 10815 H 1057.84 5.34315 3.62185 0
M  V30 10816 H 1058.61 7.41338 3.4693 0
M  V30 10817 N 1061.28 -1.12907 1.09954 0
M  V30 10818 C 1062.21 -2.18194 0.701701 0
M  V30 10819 C 1063.22 -1.60724 -0.259131 0
M  V30 10820 O 1064.41 -1.78445 -0.0443549 0
M  V30 10821 C 1061.51 -3.38897 0.0140602 0
M  V30 10822 C 1060.68 -4.25867 0.997807 0
M  V30 10823 C 1059.74 -5.25084 0.34257 0
M  V30 10824 O 1058.77 -5.60492 0.991857 0
M  V30 10825 N 1059.97 -5.73464 -0.901058 0
M  V30 10826 H 1062.73 -2.52939 1.60755 0
M  V30 10827 H 1060.3 -1.28281 0.987703 0
M  V30 10828 H 1062.29 -4.02349 -0.435628 0
M  V30 10829 H 1060.86 -3.02345 -0.794118 0
M  V30 10830 H 1060.08 -3.59107 1.6259 0
M  V30 10831 H 1061.37 -4.80825 1.66388 0
M  V30 10832 H 1060.76 -5.46854 -1.44802 0
M  V30 10833 H 1059.32 -6.38827 -1.29398 0
M  V30 10834 N 1062.75 -0.88754 -1.30232 0
M  V30 10835 C 1063.66 -0.360333 -2.31816 0
M  V30 10836 C 1064.68 0.538741 -1.6545 0
M  V30 10837 O 1065.86 0.431246 -1.96729 0
M  V30 10838 C 1062.92 0.414336 -3.44215 0
M  V30 10839 C 1061.98 -0.514799 -4.26202 0
M  V30 10840 C 1061.21 0.222994 -5.33234 0
M  V30 10841 O 1061.44 1.44871 -5.51696 0
M  V30 10842 O 1060.37 -0.428221 -6.00375 0
M  V30 10843 H 1064.2 -1.20279 -2.78867 0
M  V30 10844 H 1061.78 -0.651459 -1.34448 0
M  V30 10845 H 1063.66 0.852859 -4.12679 0
M  V30 10846 H 1062.34 1.23305 -2.99295 0
M  V30 10847 H 1061.25 -1.00219 -3.60426 0
M  V30 10848 H 1062.58 -1.29959 -4.74733 0
M  V30 10849 N 1064.23 1.43628 -0.648757 0
M  V30 10850 C 1065.48 2.02163 -0.160574 0
M  V30 10851 C 1065.81 1.51037 1.22072 0
M  V30 10852 O 1065.09 0.701633 1.81404 0
M  V30 10853 C 1065.37 3.59715 -0.166528 0
M  V30 10854 C 1065.22 4.21083 -1.58142 0
M  V30 10855 C 1066.54 4.37256 0.499485 0
M  V30 10856 H 1063.66 0.734568 -0.0598238 0
M  V30 10857 H 1066.3 1.70981 -0.828592 0
M  V30 10858 H 1064.45 3.86411 0.402302 0
M  V30 10859 H 1066.12 4.05433 -2.2005 0
M  V30 10860 H 1064.37 3.77904 -2.13005 0
M  V30 10861 H 1065.04 5.30156 -1.53748 0
M  V30 10862 H 1067.51 4.16097 0.0155561 0
M  V30 10863 H 1066.39 5.4693 0.464574 0
M  V30 10864 H 1066.65 4.13175 1.57286 0
M  V30 10865 N 1065.71 0.390394 1.52688 0
M  V30 10866 C 1066.96 -0.191445 2.01593 0
M  V30 10867 C 1067.29 -1.46723 1.27681 0
M  V30 10868 O 1066.54 -1.92248 0.365972 0
M  V30 10869 C 1066.84 -0.50468 3.53819 0
M  V30 10870 C 1066.51 0.679691 4.45748 0
M  V30 10871 C 1065.17 1.0046 4.70597 0
M  V30 10872 C 1067.52 1.47198 4.99982 0
M  V30 10873 C 1064.85 2.12334 5.46929 0
M  V30 10874 C 1067.2 2.58133 5.77538 0
M  V30 10875 C 1065.86 2.91131 6.00665 0
M  V30 10876 H 1065.13 -0.0700548 0.737681 0
M  V30 10877 H 1067.78 0.527965 1.84078 0
M  V30 10878 H 1066.09 -1.30543 3.69413 0
M  V30 10879 H 1067.78 -0.967524 3.89153 0
M  V30 10880 H 1064.37 0.416446 4.26572 0
M  V30 10881 H 1068.56 1.2342 4.80709 0
M  V30 10882 H 1063.81 2.38269 5.63061 0
M  V30 10883 H 1067.99 3.19925 6.18564 0
M  V30 10884 H 1065.61 3.77938 6.59596 0
M  V30 10885 N 1067.19 -1.57141 0.120249 0
M  V30 10886 C 1068.44 -1.94852 -0.536387 0
M  V30 10887 C 1068.76 -1.00452 -1.67136 0
M  V30 10888 O 1068.03 -0.061053 -1.95805 0
M  V30 10889 H 1066.61 -0.719411 -0.201138 0
M  V30 10890 H 1069.27 -1.93977 0.189482 0
M  V30 10891 H 1068.37 -2.97917 -0.930145 0
M  V30 10892 N 1068.67 0.153526 -1.5685 0
M  V30 10893 C 1070.08 0.505939 -1.51368 0
M  V30 10894 C 1070.28 1.83721 -0.82757 0
M  V30 10895 O 1069.34 2.49385 -0.395364 0
M  V30 10896 C 1070.65 0.522269 -2.9613 0
M  V30 10897 C 1072.2 0.608238 -3.07033 0
M  V30 10898 C 1072.67 0.655292 -4.53288 0
M  V30 10899 N 1074.17 0.717695 -4.57606 0
M  V30 10900 C 1074.9 0.774977 -5.68139 0
M  V30 10901 N 1074.4 0.792003 -6.88258 0
M  V30 10902 N 1076.19 0.81536 -5.56155 0
M  V30 10903 H 1068.34 -0.71919 -1.99853 0
M  V30 10904 H 1070.6 -0.261466 -0.91123 0
M  V30 10905 H 1070.31 -0.387595 -3.49558 0
M  V30 10906 H 1070.18 1.3625 -3.51733 0
M  V30 10907 H 1072.57 1.50852 -2.53629 0
M  V30 10908 H 1072.65 -0.259014 -2.54485 0
M  V30 10909 H 1072.3 -0.240809 -5.07329 0
M  V30 10910 H 1072.23 1.53894 -5.03611 0
M  V30 10911 H 1074.72 0.7121 -3.7113 0
M  V30 10912 H 1075.03 0.837378 -7.6825 0
M  V30 10913 H 1073.37 0.759986 -6.90832 0
M  V30 10914 H 1076.57 0.799183 -4.61227 0
M  V30 10915 H 1076.74 0.856537 -6.42314 0
M  V30 10916 N 1070.14 1.51827 0.422667 0
M  V30 10917 C 1071.07 1.77152 1.52117 0
M  V30 10918 C 1072.06 0.621895 1.58324 0
M  V30 10919 O 1073.24 0.866118 1.73816 0
M  V30 10920 C 1070.37 1.90991 2.90068 0
M  V30 10921 C 1069.32 3.06516 2.98717 0
M  V30 10922 C 1068.65 3.05559 4.38791 0
M  V30 10923 C 1069.95 4.46223 2.71445 0
M  V30 10924 H 1071.64 2.69135 1.31175 0
M  V30 10925 H 1069.19 1.29507 0.629607 0
M  V30 10926 H 1071.14 2.07291 3.6689 0
M  V30 10927 H 1069.87 0.956688 3.12274 0
M  V30 10928 H 1068.53 2.89945 2.24338 0
M  V30 10929 H 1068.17 2.07985 4.57986 0
M  V30 10930 H 1067.87 3.83144 4.45505 0
M  V30 10931 H 1069.4 3.23971 5.17566 0
M  V30 10932 H 1070.81 4.63069 3.37994 0
M  V30 10933 H 1069.21 5.25623 2.89552 0
M  V30 10934 H 1070.28 4.5525 1.6696 0
M  V30 10935 N 1071.62 -0.679052 1.4222 0
M  V30 10936 C 1073.04 -0.991665 1.25053 0
M  V30 10937 C 1073.24 -2.00928 0.151665 0
M  V30 10938 O 1072.29 -2.47925 -0.478507 0
M  V30 10939 C 1073.61 -1.50053 2.60585 0
M  V30 10940 C 1075.16 -1.61852 2.67905 0
M  V30 10941 C 1075.63 -2.16135 4.03794 0
M  V30 10942 N 1077.12 -2.23474 4.05726 0
M  V30 10943 C 1077.86 -2.66541 5.07685 0
M  V30 10944 N 1077.35 -3.09092 6.20028 0
M  V30 10945 N 1079.15 -2.66252 4.95042 0
M  V30 10946 H 1071.3 -0.00521851 2.12399 0
M  V30 10947 H 1073.56 -0.0648465 0.94578 0
M  V30 10948 H 1073.27 -0.82731 3.41831 0
M  V30 10949 H 1073.14 -2.47998 2.84213 0
M  V30 10950 H 1075.53 -2.28281 1.87008 0
M  V30 10951 H 1075.61 -0.624074 2.4807 0
M  V30 10952 H 1075.25 -1.50316 4.85147 0
M  V30 10953 H 1075.18 -3.16363 4.20978 0
M  V30 10954 H 1077.67 -1.93467 3.24621 0
M  V30 10955 H 1077.99 -3.40627 6.93681 0
M  V30 10956 H 1076.33 -3.06959 6.23539 0
M  V30 10957 H 1079.52 -2.32369 4.06352 0
M  V30 10958 H 1079.69 -2.99496 5.74636 0
M  V30 10959 N 1073.1 -1.28322 -0.914942 0
M  V30 10960 C 1074.38 -1.06111 -1.64316 0
M  V30 10961 C 1074.76 0.399934 -2.07277 0
M  V30 10962 O 1074.11 1.38577 -1.81683 0
M  V30 10963 C 1074.32 -2.03461 -2.83557 0
M  V30 10964 C 1075.66 -2.33541 -3.54604 0
M  V30 10965 O 1076.69 -2.01536 -2.93704 0
M  V30 10966 O 1075.55 -2.88158 -4.64357 0
M  V30 10967 H 1072.64 -0.405451 -0.72079 0
M  V30 10968 H 1075.19 -1.39636 -0.964352 0
M  V30 10969 H 1073.96 -3.01938 -2.48896 0
M  V30 10970 H 1073.58 -1.70574 -3.59152 0
M  V30 10971 N 1074.58 1.12322 -1.10551 0
M  V30 10972 C 1075.49 2.21678 -0.767862 0
M  V30 10973 C 1076.5 1.72404 0.235132 0
M  V30 10974 O 1077.68 2.01266 0.0735912 0
M  V30 10975 C 1074.75 3.46087 -0.205999 0
M  V30 10976 C 1073.81 4.10195 -1.26642 0
M  V30 10977 C 1073.04 5.28666 -0.731274 0
M  V30 10978 O 1073.26 5.68686 0.44189 0
M  V30 10979 O 1072.2 5.83121 -1.49176 0
M  V30 10980 H 1076.02 2.52955 -1.6807 0
M  V30 10981 H 1073.61 1.2068 -0.880728 0
M  V30 10982 H 1075.49 4.21273 0.103435 0
M  V30 10983 H 1074.16 3.16484 0.679685 0
M  V30 10984 H 1073.07 3.36784 -1.62873 0
M  V30 10985 H 1074.4 4.43957 -2.12516 0
M  V30 10986 N 1076.06 0.894434 1.2976 0
M  V30 10987 C 1077 0.357958 2.29829 0
M  V30 10988 C 1078 -0.540093 1.6056 0
M  V30 10989 O 1079.2 -0.423478 1.74948 0
M  V30 10990 H 1075.58 0.0971183 0.745702 0
M  V30 10991 H 1077.55 1.21542 2.72526 0
M  V30 10992 C 1076.3 -0.404126 3.45343 0
M  V30 10993 H 1075.62 0.277671 3.98835 0
M  V30 10994 H 1077.06 -0.744446 4.17413 0
M  V30 10995 C 1075.52 -1.6048 2.96222 0
M  V30 10996 O 1076.05 -2.70414 2.97051 0
M  V30 10997 N 1074.26 -1.44517 2.52117 0
M  V30 10998 H 1073.8 -0.55082 2.51642 0
M  V30 10999 H 1073.76 -2.24987 2.1961 0
M  V30 11000 N 1077.53 -1.43282 0.656365 0
M  V30 11001 C 1078.78 -2.01378 0.170702 0
M  V30 11002 C 1079.1 -1.52063 -1.22073 0
M  V30 11003 O 1078.37 -0.73456 -1.81607 0
M  V30 11004 H 1076.95 -0.744577 0.0601168 0
M  V30 11005 H 1079.62 -1.75449 0.848739 0
M  V30 11006 H 1078.71 -3.11701 0.157745 0
M  V30 11007 N 1079.01 -0.398486 -1.52479 0
M  V30 11008 C 1080.43 -0.0488635 -1.59525 0
M  V30 11009 C 1080.63 1.43756 -1.41197 0
M  V30 11010 O 1079.69 2.20317 -1.23357 0
M  V30 11011 C 1081 -0.534262 -2.95916 0
M  V30 11012 C 1082.55 -0.491314 -3.0912 0
M  V30 11013 C 1083.02 -0.953049 -4.47974 0
M  V30 11014 N 1084.51 -0.909434 -4.54184 0
M  V30 11015 C 1085.25 -1.23801 -5.59876 0
M  V30 11016 N 1084.74 -1.63752 -6.73169 0
M  V30 11017 N 1086.54 -1.15867 -5.50028 0
M  V30 11018 H 1078.69 -1.36608 -1.62641 0
M  V30 11019 H 1080.95 -0.560515 -0.764544 0
M  V30 11020 H 1080.66 -1.57277 -3.14574 0
M  V30 11021 H 1080.53 0.0617787 -3.77149 0
M  V30 11022 H 1082.92 0.538123 -2.90152 0
M  V30 11023 H 1083 -1.12327 -2.29818 0
M  V30 11024 H 1082.64 -1.98076 -4.67684 0
M  V30 11025 H 1082.57 -0.298007 -5.25756 0
M  V30 11026 H 1085.06 -0.615569 -3.72853 0
M  V30 11027 H 1085.38 -1.87163 -7.49793 0
M  V30 11028 H 1083.72 -1.67647 -6.74477 0
M  V30 11029 H 1086.91 -0.845502 -4.60401 0
M  V30 11030 H 1087.09 -1.41805 -6.32294 0
M  V30 11031 N 1080.49 1.57075 -0.12858 0
M  V30 11032 C 1081.9 1.82468 0.39526 0
M  V30 11033 C 1082.25 1.0463 1.65973 0
M  V30 11034 O 1081.38 0.285835 2.14504 0
M  V30 11035 C 1081.97 3.30976 0.723889 0
M  V30 11036 C 1080.53 3.57016 1.19232 0
M  V30 11037 C 1079.68 2.76534 0.205907 0
M  V30 11038 H 1082.63 1.54711 -0.353571 0
M  V30 11039 H 1082.65 3.46127 1.58039 0
M  V30 11040 H 1082.16 3.87602 -0.196595 0
M  V30 11041 H 1080.26 3.05758 2.12938 0
M  V30 11042 H 1080.38 4.65558 1.13103 0
M  V30 11043 H 1078.74 2.45038 0.694872 0
M  V30 11044 H 1079.52 3.35923 -0.707842 0
M  V30 11045 N 1081.97 -0.145205 1.5693 0
M  V30 11046 C 1083.2 -0.871133 1.87336 0
M  V30 11047 C 1083.61 -1.7517 0.714992 0
M  V30 11048 O 1082.95 -1.80815 -0.324304 0
M  V30 11049 C 1083.01 -1.77775 3.12468 0
M  V30 11050 C 1082.68 -1.07416 4.44197 0
M  V30 11051 C 1083.67 -0.42722 5.18142 0
M  V30 11052 C 1081.36 -1.06313 4.9092 0
M  V30 11053 C 1083.35 0.221348 6.37016 0
M  V30 11054 C 1081.04 -0.410755 6.09718 0
M  V30 11055 C 1082.04 0.230357 6.82611 0
M  V30 11056 O 1081.73 0.872389 7.99152 0
M  V30 11057 H 1081.46 -0.257174 0.62517 0
M  V30 11058 H 1084.01 -0.142159 2.04907 0
M  V30 11059 H 1082.24 -2.54771 2.9091 0
M  V30 11060 H 1083.93 -2.37579 3.29107 0
M  V30 11061 H 1084.7 -0.427536 4.83112 0
M  V30 11062 H 1080.58 -1.55156 4.34105 0
M  V30 11063 H 1084.12 0.722349 6.9385 0
M  V30 11064 H 1080.02 -0.408112 6.44209 0
M  V30 11065 H 1080.78 0.774236 8.1483 0
M  V30 11066 N 1083.45 -1.52049 -0.414609 0
M  V30 11067 C 1084.67 -1.6997 -1.18848 0
M  V30 11068 C 1085.1 -0.406058 -1.83665 0
M  V30 11069 O 1084.46 0.635981 -1.69779 0
M  V30 11070 C 1084.5 -2.8327 -2.23138 0
M  V30 11071 O 1083.61 -2.48457 -3.29155 0
M  V30 11072 H 1082.95 -0.566003 -0.347183 0
M  V30 11073 H 1085.48 -1.98726 -0.486757 0
M  V30 11074 H 1085.49 -3.08022 -2.67557 0
M  V30 11075 H 1084.16 -3.7713 -1.75344 0
M  V30 11076 H 1082.74 -2.34357 -2.90054 0
M  V30 11077 N 1084.93 0.6715 -1.42579 0
M  V30 11078 C 1086.34 1.2522 -1.38481 0
M  V30 11079 C 1086.69 1.96038 -0.079719 0
M  V30 11080 O 1085.81 2.00203 0.821441 0
M  V30 11081 C 1086.41 2.27736 -2.50842 0
M  V30 11082 C 1084.97 2.81325 -2.50067 0
M  V30 11083 C 1084.11 1.55694 -2.29466 0
M  V30 11084 H 1087.06 0.464673 -1.51745 0
M  V30 11085 H 1087.09 3.09539 -2.21283 0
M  V30 11086 H 1086.6 1.76164 -3.45815 0
M  V30 11087 H 1084.7 3.37008 -1.58922 0
M  V30 11088 H 1084.81 3.30116 -3.47218 0
M  V30 11089 H 1083.18 1.82383 -1.77788 0
M  V30 11090 H 1083.96 1.06084 -3.26498 0
M  V30 11091 N 1086.4 1.28806 0.908124 0
M  V30 11092 C 1087.63 1.19271 1.69674 0
M  V30 11093 C 1088.05 -0.244403 1.86505 0
M  V30 11094 O 1087.41 -1.17668 1.37927 0
M  V30 11095 C 1087.46 1.9023 3.06341 0
M  V30 11096 O 1086.56 1.2136 3.94139 0
M  V30 11097 H 1085.9 0.413738 0.519343 0
M  V30 11098 H 1088.43 1.70227 1.13508 0
M  V30 11099 H 1088.44 1.98356 3.56537 0
M  V30 11100 H 1087.12 2.94762 2.93408 0
M  V30 11101 H 1085.7 1.21435 3.52573 0
M  V30 11102 N 1087.88 -1.11734 1.11145 0
M  V30 11103 C 1088.81 -2.17438 0.724804 0
M  V30 11104 C 1089.83 -1.6099 -0.242069 0
M  V30 11105 O 1091.02 -1.78482 -0.0254259 0
M  V30 11106 C 1088.12 -3.38863 0.050004 0
M  V30 11107 C 1087.29 -4.24785 1.04292 0
M  V30 11108 C 1086.35 -5.24691 0.398243 0
M  V30 11109 O 1085.37 -5.59408 1.05125 0
M  V30 11110 N 1086.58 -5.74388 -0.840184 0
M  V30 11111 H 1089.34 -2.51219 1.63429 0
M  V30 11112 H 1086.9 -1.27226 1.00125 0
M  V30 11113 H 1088.89 -4.02788 -0.392929 0
M  V30 11114 H 1087.46 -3.0317 -0.762005 0
M  V30 11115 H 1086.68 -3.57363 1.6639 0
M  V30 11116 H 1087.97 -4.79033 1.71478 0
M  V30 11117 H 1087.37 -5.48359 -1.38994 0
M  V30 11118 H 1085.93 -6.40163 -1.22615 0
M  V30 11119 N 1089.36 -0.901303 -1.29284 0
M  V30 11120 C 1090.59 -0.542723 -1.99344 0
M  V30 11121 C 1091 0.877357 -1.67628 0
M  V30 11122 O 1090.34 1.59088 -0.918515 0
M  V30 11123 C 1090.4 -0.657088 -3.53444 0
M  V30 11124 C 1090.07 -2.04444 -4.0872 0
M  V30 11125 C 1091.06 -3.01577 -4.23494 0
M  V30 11126 C 1088.75 -2.35425 -4.43712 0
M  V30 11127 C 1090.74 -4.27816 -4.72496 0
M  V30 11128 C 1088.43 -3.61906 -4.9241 0
M  V30 11129 C 1089.43 -4.57916 -5.06757 0
M  V30 11130 O 1089.12 -5.8215 -5.54397 0
M  V30 11131 H 1088.85 -0.206742 -0.64361 0
M  V30 11132 H 1091.4 -1.21311 -1.65749 0
M  V30 11133 H 1089.63 0.0703305 -3.86636 0
M  V30 11134 H 1091.32 -0.307425 -4.04734 0
M  V30 11135 H 1092.09 -2.78957 -3.96747 0
M  V30 11136 H 1087.97 -1.61454 -4.31803 0
M  V30 11137 H 1091.51 -5.0276 -4.83609 0
M  V30 11138 H 1087.41 -3.84356 -5.18595 0
M  V30 11139 H 1088.17 -5.84762 -5.72709 0
M  V30 11140 N 1090.84 1.42931 -0.663954 0
M  V30 11141 C 1091.8 2.29197 0.0117626 0
M  V30 11142 C 1092.8 1.42767 0.739875 0
M  V30 11143 O 1093.99 1.64278 0.579509 0
M  V30 11144 C 1091.12 3.2505 1.02738 0
M  V30 11145 H 1092.32 2.90438 -0.747391 0
M  V30 11146 H 1089.87 1.5039 -0.425733 0
M  V30 11147 H 1090.6 2.68726 1.8154 0
M  V30 11148 H 1090.39 3.88785 0.508809 0
M  V30 11149 H 1091.88 3.89771 1.49893 0
M  V30 11150 N 1092.32 0.406567 1.52266 0
M  V30 11151 C 1093.25 -0.411314 2.29849 0
M  V30 11152 C 1094.23 -1.04838 1.33952 0
M  V30 11153 O 1095.41 -1.05788 1.62857 0
M  V30 11154 C 1092.54 -1.52961 3.11802 0
M  V30 11155 C 1091.5 -1.01768 4.15725 0
M  V30 11156 C 1090.82 -2.22938 4.86007 0
M  V30 11157 C 1092.12 -0.073515 5.22248 0
M  V30 11158 H 1093.82 0.236054 2.98468 0
M  V30 11159 H 1091.36 0.114968 1.4354 0
M  V30 11160 H 1093.31 -2.10874 3.64843 0
M  V30 11161 H 1092.04 -2.20482 2.40947 0
M  V30 11162 H 1090.7 -0.46097 3.6369 0
M  V30 11163 H 1090.35 -2.89007 4.11684 0
M  V30 11164 H 1090.05 -1.89338 5.5626 0
M  V30 11165 H 1091.57 -2.81462 5.41859 0
M  V30 11166 H 1092.98 -0.561367 5.70545 0
M  V30 11167 H 1091.38 0.173551 5.99849 0
M  V30 11168 H 1092.45 0.872524 4.76985 0
M  V30 11169 N 1093.79 -1.57004 0.136909 0
M  V30 11170 C 1094.73 -2.13355 -0.837405 0
M  V30 11171 C 1095.74 -1.08053 -1.21772 0
M  V30 11172 O 1096.93 -1.35365 -1.16355 0
M  V30 11173 C 1094.03 -2.63302 -2.13366 0
M  V30 11174 C 1093.2 -3.92896 -1.92228 0
M  V30 11175 C 1092.26 -4.28257 -3.05749 0
M  V30 11176 O 1091.29 -4.96761 -2.7788 0
M  V30 11177 N 1092.49 -3.87021 -4.3266 0
M  V30 11178 H 1095.25 -2.9758 -0.35586 0
M  V30 11179 H 1092.81 -1.61832 -0.0469758 0
M  V30 11180 H 1094.81 -2.83977 -2.88339 0
M  V30 11181 H 1093.38 -1.83858 -2.52814 0
M  V30 11182 H 1092.6 -3.80949 -1.01349 0
M  V30 11183 H 1093.88 -4.776 -1.75431 0
M  V30 11184 H 1093.28 -3.31804 -4.58173 0
M  V30 11185 H 1091.84 -4.12768 -5.04446 0
M  V30 11186 N 1095.27 0.136881 -1.57004 0
M  V30 11187 C 1096.5 0.861186 -1.87796 0
M  V30 11188 C 1096.91 1.74788 -0.724272 0
M  V30 11189 O 1096.25 1.80984 0.31471 0
M  V30 11190 C 1096.32 1.76115 -3.13407 0
M  V30 11191 C 1095.98 1.05059 -4.4476 0
M  V30 11192 C 1096.98 0.399736 -5.18361 0
M  V30 11193 C 1094.66 1.03709 -4.91477 0
M  V30 11194 C 1096.66 -0.255127 -6.36889 0
M  V30 11195 C 1094.34 0.378414 -6.09927 0
M  V30 11196 C 1095.34 -0.266555 -6.8248 0
M  V30 11197 O 1095.03 -0.914757 -7.98679 0
M  V30 11198 H 1094.76 0.253855 -0.626525 0
M  V30 11199 H 1097.31 0.131291 -2.0498 0
M  V30 11200 H 1095.54 2.53224 -2.92257 0
M  V30 11201 H 1097.23 2.3583 -3.30362 0
M  V30 11202 H 1098 0.401909 -4.83332 0
M  V30 11203 H 1093.88 1.52852 -4.34922 0
M  V30 11204 H 1097.42 -0.759135 -6.93457 0
M  V30 11205 H 1093.32 0.373942 -6.44416 0
M  V30 11206 H 1094.09 -0.817437 -8.14408 0
M  V30 11207 N 1096.75 1.52266 0.40654 0
M  V30 11208 C 1097.71 1.75168 1.47814 0
M  V30 11209 C 1098.71 0.621575 1.48301 0
M  V30 11210 O 1099.9 0.889476 1.4978 0
M  V30 11211 C 1097.04 1.83642 2.87208 0
M  V30 11212 H 1098.23 2.70834 1.28798 0
M  V30 11213 H 1095.78 1.42722 0.637196 0
M  V30 11214 H 1096.52 0.898994 3.1159 0
M  V30 11215 H 1096.3 2.65801 2.88257 0
M  V30 11216 H 1097.79 2.03093 3.64888 0
M  V30 11217 N 1098.23 -0.663929 1.42933 0
M  V30 11218 C 1099.48 -1.42111 1.43697 0
M  V30 11219 C 1099.8 -1.94913 0.0583858 0
M  V30 11220 O 1099.07 -1.73757 -0.904719 0
M  V30 11221 H 1097.65 -0.527391 0.529026 0
M  V30 11222 H 1100.31 -0.783766 1.78446 0
M  V30 11223 H 1099.41 -2.26877 2.1432 0
M  V30 11224 N 1099.71 -1.29285 -0.901281 0
M  V30 11225 C 1100.98 -1.07847 -1.63182 0
M  V30 11226 C 1101.36 0.377927 -2.07689 0
M  V30 11227 O 1100.71 1.36642 -1.83143 0
M  V30 11228 C 1100.92 -2.06457 -2.81383 0
M  V30 11229 C 1102.27 -2.37289 -3.52107 0
M  V30 11230 O 1103.29 -2.0464 -2.91549 0
M  V30 11231 O 1102.15 -2.93067 -4.61274 0
M  V30 11232 H 1099.25 -0.413073 -0.71645 0
M  V30 11233 H 1101.79 -1.40651 -0.949488 0
M  V30 11234 H 1100.56 -3.04561 -2.4568 0
M  V30 11235 H 1100.19 -1.74374 -3.57323 0
M  V30 11236 N 1101.18 1.11143 -1.11736 0
M  V30 11237 C 1102.43 1.82586 -0.866412 0
M  V30 11238 C 1102.75 1.85227 0.609593 0
M  V30 11239 O 1102.02 1.32505 1.44288 0
M  V30 11240 H 1100.6 0.676149 -0.31754 0
M  V30 11241 H 1103.27 1.34516 -1.41037 0
M  V30 11242 H 1102.36 2.8635 -1.24136 0
M  V30 11243 N 1102.66 0.908147 1.28804 0
M  V30 11244 C 1103.89 0.553431 1.9988 0
M  V30 11245 C 1104.31 -0.856714 1.67458 0
M  V30 11246 O 1103.67 -1.57163 0.903849 0
M  V30 11247 C 1103.72 0.762688 3.52442 0
M  V30 11248 O 1102.82 -0.180924 4.12003 0
M  V30 11249 H 1102.16 0.215237 0.628147 0
M  V30 11250 H 1104.69 1.22205 1.64095 0
M  V30 11251 H 1104.7 0.670612 4.02451 0
M  V30 11252 H 1103.38 1.79071 3.75375 0
M  V30 11253 H 1101.96 -0.0405897 3.72878 0
M  V30 11254 N 1104.14 -1.42577 0.671525 0
M  V30 11255 C 1105.39 -2.01882 0.192716 0
M  V30 11256 C 1105.72 -1.52959 -1.19654 0
M  V30 11257 O 1104.99 -0.730404 -1.80265 0
M  V30 11258 C 1105.28 -3.59404 0.223734 0
M  V30 11259 C 1105.13 -4.18514 1.64821 0
M  V30 11260 C 1106.45 -4.37996 -0.429858 0
M  V30 11261 H 1103.57 -0.733523 0.0715026 0
M  V30 11262 H 1106.21 -1.69641 0.855689 0
M  V30 11263 H 1104.36 -3.87003 -0.340776 0
M  V30 11264 H 1106.03 -4.01881 2.26472 0
M  V30 11265 H 1104.28 -3.74467 2.1899 0
M  V30 11266 H 1104.95 -5.27643 1.62162 0
M  V30 11267 H 1107.42 -4.16069 0.0506433 0
M  V30 11268 H 1106.3 -5.476 -0.377503 0
M  V30 11269 H 1106.56 -4.15625 -1.50693 0
M  V30 11270 N 1105.62 -0.414636 -1.52048 0
M  V30 11271 C 1106.55 0.399119 -2.30064 0
M  V30 11272 C 1107.53 1.04126 -1.34506 0
M  V30 11273 O 1108.71 1.04923 -1.63416 0
M  V30 11274 C 1105.84 1.51305 -3.12608 0
M  V30 11275 C 1104.8 0.995621 -4.16259 0
M  V30 11276 C 1104.12 2.20357 -4.87183 0
M  V30 11277 C 1105.42 0.0458178 -5.2228 0
M  V30 11278 H 1107.12 -0.251879 -2.98339 0
M  V30 11279 H 1104.66 -0.122579 -1.43477 0
M  V30 11280 H 1106.62 2.08936 -3.65956 0
M  V30 11281 H 1105.34 2.19201 -2.42113 0
M  V30 11282 H 1104 0.441676 -3.6393 0
M  V30 11283 H 1103.65 2.8682 -4.13211 0
M  V30 11284 H 1103.35 1.86385 -5.57256 0
M  V30 11285 H 1104.87 2.78584 -5.43345 0
M  V30 11286 H 1106.29 0.531102 -5.70835 0
M  V30 11287 H 1104.68 -0.20536 -5.99749 0
M  V30 11288 H 1105.75 -0.897807 -4.76516 0
M  V30 11289 N 1107.1 1.56929 -0.145233 0
M  V30 11290 C 1108.03 2.19685 0.791263 0
M  V30 11291 C 1109.01 1.14455 1.25833 0
M  V30 11292 O 1110.19 1.42791 1.31622 0
M  V30 11293 C 1107.32 2.81705 2.03124 0
M  V30 11294 C 1106.28 3.92746 1.70101 0
M  V30 11295 C 1105.6 4.41694 3.01347 0
M  V30 11296 C 1106.9 5.13606 0.949025 0
M  V30 11297 H 1108.6 2.98196 0.26825 0
M  V30 11298 H 1106.14 1.43434 0.127584 0
M  V30 11299 H 1108.1 3.24273 2.69119 0
M  V30 11300 H 1106.82 2.00523 2.57795 0
M  V30 11301 H 1105.48 3.50794 1.06486 0
M  V30 11302 H 1105.13 3.57336 3.54006 0
M  V30 11303 H 1104.83 5.1659 2.80016 0
M  V30 11304 H 1106.35 4.86931 3.68416 0
M  V30 11305 H 1107.76 5.53029 1.51102 0
M  V30 11306 H 1106.16 5.94252 0.835711 0
M  V30 11307 H 1107.23 4.84863 -0.0595631 0
M  V30 11308 N 1108.58 -0.128553 1.57075 0
M  V30 11309 C 1109.82 -0.836536 1.83535 0
M  V30 11310 C 1110.14 -1.81491 0.7294 0
M  V30 11311 O 1111.34 -2.56838 0.880128 0
M  V30 11312 C 1109.8 -1.53836 3.25365 0
M  V30 11313 C 1109.41 -0.601454 4.43944 0
M  V30 11314 C 1111.15 -2.23204 3.61082 0
M  V30 11315 C 1109.06 -1.30596 5.768 0
M  V30 11316 H 1107.99 -0.316142 0.684522 0
M  V30 11317 H 1110.64 -0.0892555 1.83283 0
M  V30 11318 H 1109.02 -2.33192 3.20058 0
M  V30 11319 H 1110.2 0.158209 4.60528 0
M  V30 11320 H 1108.51 -0.0152393 4.16397 0
M  V30 11321 H 1111.11 -2.76585 4.57608 0
M  V30 11322 H 1111.45 -3.0056 2.88044 0
M  V30 11323 H 1111.98 -1.50746 3.68131 0
M  V30 11324 H 1108.72 -0.573874 6.52983 0
M  V30 11325 H 1108.24 -2.03787 5.6412 0
M  V30 11326 H 1109.92 -1.8418 6.20231 0
M  V30 11327 N 1110.05 -1.5248 -0.398459 0
M  V30 11328 C 1111.46 -1.59107 -0.976817 0
M  V30 11329 C 1111.82 -0.438104 -1.91246 0
M  V30 11330 O 1110.94 0.440111 -2.11877 0
M  V30 11331 C 1111.54 -2.88373 -1.77838 0
M  V30 11332 C 1110.09 -2.97445 -2.30659 0
M  V30 11333 C 1109.24 -2.5414 -1.10942 0
M  V30 11334 H 1112.19 -1.57695 -0.178324 0
M  V30 11335 H 1112.21 -2.74327 -2.63676 0
M  V30 11336 H 1111.73 -3.72269 -1.09714 0
M  V30 11337 H 1109.83 -2.18066 -3.02123 0
M  V30 11338 H 1109.94 -4.019 -2.60794 0
M  V30 11339 H 1108.3 -2.08237 -1.46661 0
M  V30 11340 H 1109.09 -3.40421 -0.443684 0
M  V30 11341 N 1111.53 0.65634 -1.43283 0
M  V30 11342 C 1112.95 0.971645 -1.26614 0
M  V30 11343 C 1113.15 2.00662 -0.183612 0
M  V30 11344 O 1112.2 2.48654 0.439003 0
M  V30 11345 C 1113.52 1.45888 -2.6294 0
M  V30 11346 C 1115.06 1.57569 -2.70446 0
M  V30 11347 C 1115.54 2.09684 -4.07181 0
M  V30 11348 N 1117.03 2.16991 -4.0923 0
M  V30 11349 C 1117.77 2.5843 -5.11861 0
M  V30 11350 N 1117.26 2.99188 -6.24867 0
M  V30 11351 N 1119.05 2.58342 -4.99215 0
M  V30 11352 H 1111.21 -0.028573 -2.12381 0
M  V30 11353 H 1113.47 0.0497918 -0.946691 0
M  V30 11354 H 1113.17 0.772823 -3.43104 0
M  V30 11355 H 1113.05 2.43445 -2.88122 0
M  V30 11356 H 1115.44 2.25277 -1.90616 0
M  V30 11357 H 1115.52 0.584529 -2.49032 0
M  V30 11358 H 1115.16 1.42579 -4.87477 0
M  V30 11359 H 1115.09 3.09625 -4.25958 0
M  V30 11360 H 1117.58 1.88278 -3.27658 0
M  V30 11361 H 1117.89 3.29549 -6.99012 0
M  V30 11362 H 1116.24 2.97 -6.28344 0
M  V30 11363 H 1119.43 2.25875 -4.09998 0
M  V30 11364 H 1119.6 2.90316 -5.79328 0
M  V30 11365 N 1113.01 1.29761 0.894412 0
M  V30 11366 C 1114.24 1.2094 1.67872 0
M  V30 11367 C 1114.65 -0.229192 1.87404 0
M  V30 11368 O 1114.01 -1.15278 1.41482 0
M  V30 11369 C 1114.06 1.92424 3.06032 0
M  V30 11370 O 1113.78 3.30665 2.87388 0
M  V30 11371 C 1115.28 1.90144 4.0045 0
M  V30 11372 H 1112.5 0.418942 0.524145 0
M  V30 11373 H 1115.05 1.71226 1.11813 0
M  V30 11374 H 1113.2 1.4596 3.58851 0
M  V30 11375 H 1113.62 3.66741 3.74969 0
M  V30 11376 H 1115.09 2.44716 4.94791 0
M  V30 11377 H 1115.57 0.878175 4.30331 0
M  V30 11378 H 1116.17 2.36375 3.53563 0
M  V30 11379 N 1114.49 -1.10549 1.12324 0
M  V30 11380 C 1115.42 -2.16081 0.733768 0
M  V30 11381 C 1116.4 -1.60266 -0.274511 0
M  V30 11382 O 1117.58 -1.87743 -0.168742 0
M  V30 11383 C 1114.71 -3.38591 0.0858914 0
M  V30 11384 C 1113.76 -4.13097 1.0608 0
M  V30 11385 S 1114.59 -4.68821 2.5878 0
M  V30 11386 C 1115.74 -5.94644 1.95319 0
M  V30 11387 H 1115.98 -2.48784 1.62769 0
M  V30 11388 H 1113.51 -1.22318 0.942209 0
M  V30 11389 H 1115.47 -4.09533 -0.281538 0
M  V30 11390 H 1114.13 -3.04129 -0.785122 0
M  V30 11391 H 1113.32 -5.00934 0.555095 0
M  V30 11392 H 1112.92 -3.4796 1.37112 0
M  V30 11393 H 1115.22 -6.65004 1.29523 0
M  V30 11394 H 1116.16 -6.49875 2.81191 0
M  V30 11395 H 1116.57 -5.4662 1.40951 0
M  V30 11396 N 1115.97 -0.914965 -1.28321 0
M  V30 11397 C 1116.93 -0.409024 -2.25521 0
M  V30 11398 C 1117.93 0.465327 -1.5392 0
M  V30 11399 O 1119.12 0.26821 -1.72123 0
M  V30 11400 C 1116.25 0.413452 -3.38383 0
M  V30 11401 H 1117.44 -1.26767 -2.71791 0
M  V30 11402 H 1115 -0.694477 -1.40024 0
M  V30 11403 H 1115.73 1.29145 -2.97476 0
M  V30 11404 H 1115.52 -0.213268 -3.9152 0
M  V30 11405 H 1117.01 0.758232 -4.10659 0
M  V30 11406 N 1117.44 1.42219 -0.679077 0
M  V30 11407 C 1118.72 1.95155 -0.13188 0
M  V30 11408 C 1119.1 1.6193 1.35433 0
M  V30 11409 O 1118.45 0.917672 2.09263 0
M  V30 11410 C 1118.66 3.46635 -0.405578 0
M  V30 11411 C 1120.01 4.23359 -0.324394 0
M  V30 11412 O 1121.03 3.54578 -0.339564 0
M  V30 11413 O 1119.89 5.45831 -0.270268 0
M  V30 11414 H 1116.98 0.826983 -0.00535438 0
M  V30 11415 H 1119.53 1.52024 -0.754101 0
M  V30 11416 H 1118.3 3.6404 -1.43495 0
M  V30 11417 H 1117.92 3.96823 0.248439 0
M  V30 11418 N 1118.92 0.422693 1.51826 0
M  V30 11419 C 1119.85 -0.43167 2.25098 0
M  V30 11420 C 1120.87 -0.998758 1.28564 0
M  V30 11421 O 1122.06 -0.89539 1.54418 0
M  V30 11422 C 1119.16 -1.61426 2.97985 0
M  V30 11423 C 1118.33 -1.16866 4.21499 0
M  V30 11424 C 1117.39 -2.2197 4.77091 0
M  V30 11425 O 1116.41 -1.82004 5.39317 0
M  V30 11426 N 1117.62 -3.54293 4.59844 0
M  V30 11427 H 1120.38 0.196255 2.99057 0
M  V30 11428 H 1117.94 0.25079 1.59946 0
M  V30 11429 H 1119.93 -2.31331 3.32066 0
M  V30 11430 H 1118.5 -2.14783 2.27128 0
M  V30 11431 H 1117.72 -0.297217 3.93078 0
M  V30 11432 H 1119.01 -0.848106 5.01682 0
M  V30 11433 H 1118.41 -3.89505 4.10247 0
M  V30 11434 H 1116.97 -4.20135 4.98327 0
M  V30 11435 N 1120.4 -1.5685 0.153553 0
M  V30 11436 C 1121.33 -2.14231 -0.814729 0
M  V30 11437 C 1122.34 -1.09339 -1.20619 0
M  V30 11438 O 1123.53 -1.36592 -1.14913 0
M  V30 11439 C 1120.63 -2.6555 -2.10562 0
M  V30 11440 C 1119.81 -3.94912 -1.8805 0
M  V30 11441 C 1118.87 -4.31476 -3.0119 0
M  V30 11442 O 1117.89 -4.9968 -2.72596 0
M  V30 11443 N 1119.09 -3.91588 -4.28531 0
M  V30 11444 H 1121.86 -2.9794 -0.324277 0
M  V30 11445 H 1119.42 -1.61873 -0.0298087 0
M  V30 11446 H 1121.41 -2.87019 -2.85311 0
M  V30 11447 H 1119.98 -1.86529 -2.5085 0
M  V30 11448 H 1119.2 -3.82002 -0.973024 0
M  V30 11449 H 1120.49 -4.79433 -1.70356 0
M  V30 11450 H 1119.89 -3.36645 -4.54628 0
M  V30 11451 H 1118.44 -4.18095 -5.00039 0
M  V30 11452 N 1121.88 0.120221 -1.57141 0
M  V30 11453 C 1122.84 1.13159 -1.99318 0
M  V30 11454 C 1123.84 1.34376 -0.883158 0
M  V30 11455 O 1125.03 1.30914 -1.14922 0
M  V30 11456 C 1122.16 2.48632 -2.33227 0
M  V30 11457 H 1123.36 0.769119 -2.8987 0
M  V30 11458 H 1120.91 0.364475 -1.51991 0
M  V30 11459 H 1121.64 2.89802 -1.45551 0
M  V30 11460 H 1121.43 2.34587 -3.14184 0
M  V30 11461 H 1122.92 3.21423 -2.66603 0
M  V30 11462 N 1123.36 1.52689 0.390367 0
M  V30 11463 C 1124.77 1.41909 0.730338 0
M  V30 11464 C 1124.97 0.538427 1.94173 0
M  V30 11465 O 1124.03 0.0113527 2.52497 0
M  V30 11466 C 1125.34 2.84737 0.966714 0
M  V30 11467 C 1126.89 2.94206 1.06827 0
M  V30 11468 C 1127.36 4.38042 1.33728 0
M  V30 11469 N 1128.86 4.4136 1.40553 0
M  V30 11470 C 1129.59 5.49735 1.63031 0
M  V30 11471 N 1129.09 6.68197 1.82988 0
M  V30 11472 N 1130.88 5.37276 1.65199 0
M  V30 11473 H 1123.03 2.08469 -0.406766 0
M  V30 11474 H 1125.29 0.940401 -0.11979 0
M  V30 11475 H 1125 3.51385 0.148725 0
M  V30 11476 H 1124.87 3.26909 1.88176 0
M  V30 11477 H 1127.26 2.27726 1.87683 0
M  V30 11478 H 1127.34 2.55463 0.131168 0
M  V30 11479 H 1126.99 5.05087 0.533832 0
M  V30 11480 H 1126.92 4.74336 2.28721 0
M  V30 11481 H 1129.41 3.55976 1.26844 0
M  V30 11482 H 1129.72 7.46567 1.99643 0
M  V30 11483 H 1128.06 6.71228 1.80215 0
M  V30 11484 H 1131.26 4.437 1.49158 0
M  V30 11485 H 1131.43 6.21806 1.82377 0
M  V30 11486 N 1124.83 -0.648732 1.43629 0
M  V30 11487 C 1126.25 -0.964917 1.27128 0
M  V30 11488 C 1126.45 -2.00561 0.194251 0
M  V30 11489 O 1125.51 -2.48884 -0.42581 0
M  V30 11490 C 1126.82 -1.44491 2.6371 0
M  V30 11491 C 1128.37 -1.56133 2.71278 0
M  V30 11492 C 1128.84 -2.07521 4.08288 0
M  V30 11493 N 1130.33 -2.14817 4.10375 0
M  V30 11494 C 1131.07 -2.55712 5.13224 0
M  V30 11495 N 1130.56 -2.9587 6.26444 0
M  V30 11496 N 1132.36 -2.55691 5.00578 0
M  V30 11497 H 1124.51 0.0398357 2.12363 0
M  V30 11498 H 1126.77 -0.0447705 0.946942 0
M  V30 11499 H 1126.48 -0.754616 3.43509 0
M  V30 11500 H 1126.35 -2.41914 2.89409 0
M  V30 11501 H 1128.74 -2.24263 1.91808 0
M  V30 11502 H 1128.82 -0.571314 2.49338 0
M  V30 11503 H 1128.46 -1.39992 4.88226 0
M  V30 11504 H 1128.39 -3.07362 4.27594 0
M  V30 11505 H 1130.88 -1.86538 3.28652 0
M  V30 11506 H 1131.2 -3.25837 7.0075 0
M  V30 11507 H 1129.54 -2.93664 6.2991 0
M  V30 11508 H 1132.73 -2.23697 4.1119 0
M  V30 11509 H 1132.91 -2.87239 5.80859 0
M  V30 11510 N 1126.31 -1.30234 -0.887518 0
M  V30 11511 C 1127.24 -1.12212 -1.99853 0
M  V30 11512 C 1128.26 -0.0660929 -1.62666 0
M  V30 11513 O 1129.45 -0.311853 -1.75755 0
M  V30 11514 C 1126.55 -0.688591 -3.31831 0
M  V30 11515 C 1125.72 -1.82581 -3.97471 0
M  V30 11516 C 1124.78 -1.38126 -5.07748 0
M  V30 11517 O 1123.8 -2.08805 -5.29518 0
M  V30 11518 N 1125.01 -0.258868 -5.79923 0
M  V30 11519 H 1127.77 -2.07901 -2.15864 0
M  V30 11520 H 1125.33 -1.22336 -1.06045 0
M  V30 11521 H 1127.32 -0.374252 -4.02966 0
M  V30 11522 H 1125.89 0.176185 -3.12103 0
M  V30 11523 H 1125.11 -2.3084 -3.19541 0
M  V30 11524 H 1126.4 -2.58798 -4.38065 0
M  V30 11525 H 1125.8 0.330131 -5.64736 0
M  V30 11526 H 1124.36 -0.00396813 -6.518 0
M  V30 11527 N 1127.79 1.09952 -1.12909 0
M  V30 11528 C 1128.7 2.19999 -0.81471 0
M  V30 11529 C 1129.72 1.72864 0.19851 0
M  V30 11530 O 1130.89 2.01376 0.0308832 0
M  V30 11531 C 1127.96 3.45573 -0.279363 0
M  V30 11532 C 1127.02 4.07417 -1.35314 0
M  V30 11533 C 1126.25 5.26996 -0.843247 0
M  V30 11534 O 1126.47 5.69495 0.321164 0
M  V30 11535 O 1125.41 5.79826 -1.61511 0
M  V30 11536 H 1129.23 2.49333 -1.73398 0
M  V30 11537 H 1126.82 1.18784 -0.906128 0
M  V30 11538 H 1128.7 4.21398 0.0140531 0
M  V30 11539 H 1127.38 3.17854 0.612401 0
M  V30 11540 H 1126.28 3.33253 -1.6998 0
M  V30 11541 H 1127.62 4.39349 -2.21885 0
M  V30 11542 N 1129.27 0.921757 1.27833 0
M  V30 11543 C 1130.68 0.621102 1.47019 0
M  V30 11544 C 1130.88 -0.831338 1.83551 0
M  V30 11545 O 1129.94 -1.60974 1.94534 0
M  V30 11546 C 1131.25 1.56588 2.56712 0
M  V30 11547 C 1132.8 1.57346 2.70576 0
M  V30 11548 C 1133.28 2.50505 3.8342 0
M  V30 11549 N 1134.77 2.48678 3.90786 0
M  V30 11550 C 1135.5 3.17454 4.77505 0
M  V30 11551 N 1135 3.95588 5.68755 0
M  V30 11552 N 1136.79 3.06501 4.71183 0
M  V30 11553 H 1128.94 1.86085 1.02403 0
M  V30 11554 H 1131.21 0.798595 0.510833 0
M  V30 11555 H 1130.91 2.60175 2.36647 0
M  V30 11556 H 1130.79 1.30305 3.53978 0
M  V30 11557 H 1133.17 0.544919 2.90025 0
M  V30 11558 H 1133.25 1.87675 1.73815 0
M  V30 11559 H 1132.9 3.53466 3.64725 0
M  V30 11560 H 1132.83 2.17474 4.79596 0
M  V30 11561 H 1135.32 1.91928 3.25534 0
M  V30 11562 H 1135.63 4.45066 6.31772 0
M  V30 11563 H 1133.98 3.99692 5.6857 0
M  V30 11564 H 1137.17 2.44958 3.9889 0
M  V30 11565 H 1137.34 3.60372 5.3855 0
M  V30 11566 N 1130.75 -1.41857 0.686609 0
M  V30 11567 C 1131.69 -2.30795 0.015643 0
M  V30 11568 C 1132.66 -1.46616 -0.780569 0
M  V30 11569 O 1133.85 -1.75423 -0.750424 0
M  V30 11570 C 1130.99 -3.32577 -0.921229 0
M  V30 11571 C 1130.1 -4.3184 -0.117585 0
M  V30 11572 C 1129.24 -5.20693 -1.05128 0
M  V30 11573 C 1128.28 -6.11629 -0.240018 0
M  V30 11574 N 1127.41 -6.92995 -1.12704 0
M  V30 11575 H 1132.25 -2.87615 0.77985 0
M  V30 11576 H 1129.79 -1.41661 0.396298 0
M  V30 11577 H 1131.75 -3.90129 -1.47836 0
M  V30 11578 H 1130.38 -2.77328 -1.65193 0
M  V30 11579 H 1129.43 -3.7631 0.55634 0
M  V30 11580 H 1130.74 -4.96168 0.511753 0
M  V30 11581 H 1129.9 -5.83035 -1.67795 0
M  V30 11582 H 1128.63 -4.5657 -1.71449 0
M  V30 11583 H 1127.64 -5.48345 0.399779 0
M  V30 11584 H 1128.86 -6.77805 0.419266 0
M  V30 11585 H 1126.81 -6.31489 -1.77644 0
M  V30 11586 H 1126.73 -7.53974 -0.553065 0
M  V30 11587 H 1128 -7.59813 -1.7408 0
M  V30 11588 N 1132.22 -0.430739 -1.51599 0
M  V30 11589 C 1133.64 0.0339139 -1.86669 0
M  V30 11590 C 1133.99 1.42533 -1.34829 0
M  V30 11591 O 1133.11 2.04889 -0.696376 0
M  V30 11592 C 1133.71 0.0683174 -3.38731 0
M  V30 11593 C 1132.27 0.477363 -3.73361 0
M  V30 11594 C 1131.41 -0.334258 -2.75278 0
M  V30 11595 H 1134.36 -0.646875 -1.44918 0
M  V30 11596 H 1134.38 0.879179 -3.70204 0
M  V30 11597 H 1133.9 -0.944501 -3.76432 0
M  V30 11598 H 1132 1.49603 -3.41247 0
M  V30 11599 H 1132.11 0.206744 -4.78654 0
M  V30 11600 H 1130.47 0.206503 -2.53861 0
M  V30 11601 H 1131.26 -1.34583 -3.1582 0
M  V30 11602 N 1133.7 1.56767 -0.161869 0
M  V30 11603 C 1134.65 2.17502 0.772102 0
M  V30 11604 C 1135.62 1.11223 1.23364 0
M  V30 11605 O 1136.8 1.39332 1.30351 0
M  V30 11606 C 1133.94 2.81248 1.99984 0
M  V30 11607 C 1133.06 4.01962 1.58274 0
M  V30 11608 C 1132.19 4.53662 2.76341 0
M  V30 11609 C 1131.23 5.66807 2.31076 0
M  V30 11610 N 1130.37 6.13059 3.42203 0
M  V30 11611 H 1135.21 2.96971 0.247382 0
M  V30 11612 H 1132.75 1.46685 0.110382 0
M  V30 11613 H 1134.7 3.16359 2.7198 0
M  V30 11614 H 1133.33 2.04398 2.49842 0
M  V30 11615 H 1132.39 3.72733 0.759874 0
M  V30 11616 H 1133.7 4.83891 1.2104 0
M  V30 11617 H 1132.85 4.90905 3.56507 0
M  V30 11618 H 1131.59 3.7077 3.16829 0
M  V30 11619 H 1130.6 5.29125 1.49354 0
M  V30 11620 H 1131.82 6.51494 1.91657 0
M  V30 11621 H 1129.77 5.33099 3.82285 0
M  V30 11622 H 1129.68 6.89953 3.09033 0
M  V30 11623 H 1130.95 6.54951 4.22682 0
M  V30 11624 N 1135.18 -0.111886 1.57202 0
M  V30 11625 C 1136.46 -0.849125 1.76208 0
M  V30 11626 C 1136.84 -1.97735 0.73919 0
M  V30 11627 O 1136.19 -2.27283 -0.235523 0
M  V30 11628 C 1136.4 -1.35924 3.21443 0
M  V30 11629 C 1137.74 -1.80874 3.84148 0
M  V30 11630 O 1138.77 -1.45587 3.25089 0
M  V30 11631 O 1137.63 -2.46065 4.87969 0
M  V30 11632 H 1134.72 -0.403761 0.721738 0
M  V30 11633 H 1137.27 -0.0950726 1.69433 0
M  V30 11634 H 1136.04 -0.550113 3.87414 0
M  V30 11635 H 1135.66 -2.17579 3.32784 0
M  V30 11636 N 1136.66 -1.52894 -0.382264 0
M  V30 11637 C 1138.07 -1.42295 -0.722802 0
M  V30 11638 C 1138.27 -0.548717 -1.93885 0
M  V30 11639 O 1137.33 -0.0247431 -2.52488 0
M  V30 11640 C 1138.64 -2.85246 -0.9516 0
M  V30 11641 C 1140.19 -2.94768 -1.05265 0
M  V30 11642 C 1140.67 -4.38745 -1.31404 0
M  V30 11643 N 1142.16 -4.421 -1.38211 0
M  V30 11644 C 1142.89 -5.50592 -1.60113 0
M  V30 11645 N 1142.39 -6.69158 -1.79442 0
M  V30 11646 N 1144.18 -5.38145 -1.62347 0
M  V30 11647 H 1136.33 -2.0825 0.417816 0
M  V30 11648 H 1138.6 -0.939753 0.124776 0
M  V30 11649 H 1138.3 -3.51459 -0.130088 0
M  V30 11650 H 1138.18 -3.27903 -1.86439 0
M  V30 11651 H 1140.56 -2.28718 -1.86472 0
M  V30 11652 H 1140.64 -2.55529 -0.117619 0
M  V30 11653 H 1140.29 -5.05363 -0.507038 0
M  V30 11654 H 1140.22 -4.75542 -2.26202 0
M  V30 11655 H 1142.71 -3.56644 -1.24954 0
M  V30 11656 H 1143.02 -7.47615 -1.95681 0
M  V30 11657 H 1141.37 -6.72175 -1.76653 0
M  V30 11658 H 1144.56 -4.44485 -1.46803 0
M  V30 11659 H 1144.73 -6.22764 -1.79077 0
M  V30 11660 N 1138.14 0.641106 -1.43971 0
M  V30 11661 C 1139.55 0.958161 -1.27638 0
M  V30 11662 C 1139.75 2.00456 -0.204885 0
M  V30 11663 O 1138.81 2.49106 0.412606 0
M  V30 11664 C 1140.12 1.43091 -2.64472 0
M  V30 11665 C 1141.67 1.54692 -2.72102 0
M  V30 11666 C 1142.15 2.05353 -4.09382 0
M  V30 11667 N 1143.64 2.12638 -4.11509 0
M  V30 11668 C 1144.37 2.52987 -5.14573 0
M  V30 11669 N 1143.87 2.92544 -6.28005 0
M  V30 11670 N 1145.66 2.53033 -5.01927 0
M  V30 11671 H 1137.81 -0.0510973 -2.12339 0
M  V30 11672 H 1140.07 0.039748 -0.947166 0
M  V30 11673 H 1139.78 0.736389 -3.43904 0
M  V30 11674 H 1139.65 2.40375 -2.90688 0
M  V30 11675 H 1142.04 2.23242 -1.92994 0
M  V30 11676 H 1142.12 0.558083 -2.49638 0
M  V30 11677 H 1141.77 1.37401 -4.88962 0
M  V30 11678 H 1141.7 3.0509 -4.29218 0
M  V30 11679 H 1144.19 1.84792 -3.29636 0
M  V30 11680 H 1144.5 3.22116 -7.02468 0
M  V30 11681 H 1142.85 2.90319 -6.31458 0
M  V30 11682 H 1146.04 2.21514 -4.1237 0
M  V30 11683 H 1146.21 2.84155 -5.82375 0
M  V30 11684 N 1139.62 1.30703 0.880598 0
M  V30 11685 C 1140.56 1.17455 1.98678 0
M  V30 11686 C 1141.53 0.0629569 1.65981 0
M  V30 11687 O 1142.72 0.233926 1.89361 0
M  V30 11688 C 1139.86 0.876882 3.33774 0
M  V30 11689 C 1138.97 2.07078 3.79134 0
M  V30 11690 C 1138.11 1.71082 5.02896 0
M  V30 11691 C 1137.14 2.86942 5.40676 0
M  V30 11692 N 1136.28 2.51212 6.55619 0
M  V30 11693 H 1141.12 2.12086 2.09341 0
M  V30 11694 H 1138.66 1.05514 1.02495 0
M  V30 11695 H 1140.62 0.684899 4.1154 0
M  V30 11696 H 1139.25 -0.0325633 3.22784 0
M  V30 11697 H 1138.3 2.37388 2.97239 0
M  V30 11698 H 1139.61 2.9383 4.0307 0
M  V30 11699 H 1138.76 1.48284 5.883 0
M  V30 11700 H 1137.5 0.815064 4.80841 0
M  V30 11701 H 1136.51 3.10401 4.53797 0
M  V30 11702 H 1137.73 3.77211 5.64703 0
M  V30 11703 H 1135.68 1.64147 6.35131 0
M  V30 11704 H 1135.6 3.31495 6.79446 0
M  V30 11705 H 1136.86 2.31781 7.44243 0
M  V30 11706 O 1141.13 -1.01687 1.25467 0
M  V30 11707 H 1141.82 -1.63523 1.03826 0
M  V30 END ATOM
M  V30 BEGIN BOND
M  V30 END BOND
M  V30 END CTAB
M  END
$$$$
