drugbank_target|Q14520 Hyaluronan-binding protein 2 (DB08818)
 OpenBabel12092121013D

  0  0  0     0  0            999 V3000
M  V30 BEGIN CTAB
M  V30 COUNTS 8556 8673 0 0 0
M  V30 BEGIN ATOM
M  V30 1 H -0.908 1.98254 -0.117106 0
M  V30 2 N 0 1.576 0 0
M  V30 3 C 0.933 2.03868 1.02534 0
M  V30 4 C 1.911 0.928543 1.3348 0
M  V30 5 O 3.095 1.19667 1.45644 0
M  V30 6 C 0.222 2.43627 2.35294 0
M  V30 7 C -0.732 3.65373 2.2001 0
M  V30 8 S 0.101 5.13292 1.52614 0
M  V30 9 C 1.257 5.56322 2.86805 0
M  V30 10 H 1.49 2.90518 0.631377 0
M  V30 11 H -0.977 1.52953 0.210867 0
M  V30 12 H 0.981 2.67203 3.11629 0
M  V30 13 H -0.358 1.57376 2.7183 0
M  V30 14 H -1.165 3.90944 3.18086 0
M  V30 15 H -1.563 3.418 1.51819 0
M  V30 16 H 0.729 5.58782 3.83104 0
M  V30 17 H 1.672 6.56266 2.65933 0
M  V30 18 H 2.08 4.83886 2.90714 0
M  V30 19 N 1.4781 -0.272755 1.55222 0
M  V30 20 C 2.7251 -1.00433 1.7584 0
M  V30 21 C 3.0531 -1.86275 0.559629 0
M  V30 22 O 2.3081 -1.90269 -0.457857 0
M  V30 23 C 2.6071 -1.91642 3.01675 0
M  V30 24 C 2.2731 -1.21548 4.34208 0
M  V30 25 C 0.9351 -1.02166 4.70229 0
M  V30 26 C 3.2871 -0.716684 5.16249 0
M  V30 27 C 0.6151 -0.316334 5.85847 0
M  V30 28 C 2.9671 -0.0249476 6.32595 0
M  V30 29 C 1.6311 0.180579 6.67256 0
M  V30 30 H 0.9011 -0.367509 0.643443 0
M  V30 31 H 3.5481 -0.276596 1.89492 0
M  V30 32 H 1.8531 -2.71037 2.82924 0
M  V30 33 H 3.5501 -2.48369 3.14824 0
M  V30 34 H 0.1401 -1.37645 4.05896 0
M  V30 35 H 4.3241 -0.854047 4.88896 0
M  V30 36 H -0.4199 -0.146378 6.11225 0
M  V30 37 H 3.7541 0.369311 6.9542 0
M  V30 38 H 1.3811 0.729098 7.56696 0
M  V30 39 N 2.9562 -1.48159 -0.537278 0
M  V30 40 C 3.9192 -1.61665 -1.62472 0
M  V30 41 C 4.9192 -0.490395 -1.5314 0
M  V30 42 O 6.1092 -0.755998 -1.5694 0
M  V30 43 C 3.2412 -1.57997 -3.02076 0
M  V30 44 H 4.4342 -2.58621 -1.51839 0
M  V30 45 H 1.9872 -1.36647 -0.758771 0
M  V30 46 H 2.7222 -0.624913 -3.18222 0
M  V30 47 H 2.5072 -2.39755 -3.10258 0
M  V30 48 H 3.9972 -1.70627 -3.81151 0
M  V30 49 N 4.4343 0.785586 -1.36625 0
M  V30 50 C 5.8503 1.08419 -1.17122 0
M  V30 51 C 6.0503 2.015 0.00208491 0
M  V30 52 O 5.1063 2.43551 0.666278 0
M  V30 53 C 6.4193 1.69498 -2.48377 0
M  V30 54 C 7.9673 1.81821 -2.54775 0
M  V30 55 C 8.4423 2.46315 -3.86126 0
M  V30 56 N 9.9333 2.53779 -3.87492 0
M  V30 57 C 10.6683 3.045 -4.85868 0
M  V30 58 N 10.1643 3.55499 -5.94637 0
M  V30 59 N 11.9573 3.03247 -4.73284 0
M  V30 60 H 4.1083 0.167264 -2.1174 0
M  V30 61 H 6.3713 0.13682 -0.938075 0
M  V30 62 H 6.0773 1.08571 -3.34522 0
M  V30 63 H 5.9513 2.6896 -2.64462 0
M  V30 64 H 8.3383 2.41884 -1.69045 0
M  V30 65 H 8.4193 0.811532 -2.42586 0
M  V30 66 H 8.0633 1.86895 -4.72263 0
M  V30 67 H 7.9933 3.47561 -3.95612 0
M  V30 68 H 10.4843 2.17672 -3.08913 0
M  V30 69 H 10.7973 3.92562 -6.65669 0
M  V30 70 H 9.1423 3.5364 -5.98301 0
M  V30 71 H 12.3333 2.62696 -3.87438 0
M  V30 72 H 12.5063 3.42467 -5.50109 0
M  V30 73 N 5.9124 1.20967 1.01018 0
M  V30 74 C 6.8454 0.907578 2.09376 0
M  V30 75 C 7.8234 -0.142868 1.61971 0
M  V30 76 O 9.0074 -0.0150391 1.88494 0
M  V30 77 C 6.1344 0.361791 3.36762 0
M  V30 78 C 5.1804 1.39423 4.03068 0
M  V30 79 S 6.0134 2.96159 4.4615 0
M  V30 80 C 7.1694 2.43173 5.7673 0
M  V30 81 H 7.4024 1.82519 2.34678 0
M  V30 82 H 4.9354 1.03884 1.14225 0
M  V30 83 H 6.8934 0.0534523 4.10465 0
M  V30 84 H 5.5544 -0.53443 3.0952 0
M  V30 85 H 4.7474 0.961853 4.94737 0
M  V30 86 H 4.3494 1.65038 3.35617 0
M  V30 87 H 6.6414 1.83335 6.52223 0
M  V30 88 H 7.5844 3.33264 6.24773 0
M  V30 89 H 7.9924 1.85069 5.33301 0
M  V30 90 N 7.3905 -1.2043 1.01659 0
M  V30 91 C 8.6155 -1.94318 0.724942 0
M  V30 92 C 9.0405 -1.74266 -0.708034 0
M  V30 93 O 8.3985 -1.03694 -1.48719 0
M  V30 94 C 8.4465 -3.44486 1.06591 0
M  V30 95 O 7.5505 -4.12017 0.177599 0
M  V30 96 H 6.8915 -0.60708 0.26898 0
M  V30 97 H 9.4215 -1.52861 1.35995 0
M  V30 98 H 9.4315 -3.95106 1.01762 0
M  V30 99 H 8.1065 -3.58404 2.10997 0
M  V30 100 H 6.6835 -3.71821 0.283421 0
M  V30 101 N 8.8686 -0.792821 -1.36206 0
M  V30 102 C 10.1456 -0.290627 -1.93429 0
M  V30 103 C 10.5256 1.21773 -1.72437 0
M  V30 104 O 9.8736 2.0108 -1.08531 0
M  V30 105 C 10.0836 -0.686973 -3.42172 0
M  V30 106 C 11.4316 -0.668643 -4.19302 0
M  V30 107 O 12.4556 -0.627658 -3.50626 0
M  V30 108 O 11.3146 -0.714597 -5.41808 0
M  V30 109 H 8.4086 -0.0727927 -0.82379 0
M  V30 110 H 10.9546 -0.875593 -1.45367 0
M  V30 111 H 9.7266 -1.72711 -3.51122 0
M  V30 112 H 9.3496 -0.0760733 -3.97527 0
M  V30 113 N 10.3467 1.47872 -0.545128 0
M  V30 114 C 11.2767 2.32661 0.197793 0
M  V30 115 C 12.2577 1.43041 0.920504 0
M  V30 116 O 13.4427 1.71912 0.90333 0
M  V30 117 C 10.5727 3.24569 1.23582 0
M  V30 118 C 9.5267 4.23333 0.630323 0
M  V30 119 C 8.8527 5.0448 1.77211 0
M  V30 120 C 10.1527 5.20704 -0.407974 0
M  V30 121 H 11.8467 2.95024 -0.510045 0
M  V30 122 H 9.3927 1.4187 -0.246731 0
M  V30 123 H 11.3457 3.8272 1.76362 0
M  V30 124 H 10.0697 2.60236 1.97344 0
M  V30 125 H 8.7287 3.6639 0.123922 0
M  V30 126 H 8.3767 4.36561 2.49847 0
M  V30 127 H 8.0767 5.71339 1.37281 0
M  V30 128 H 9.6007 5.65487 2.3034 0
M  V30 129 H 11.0147 5.7329 0.033305 0
M  V30 130 H 9.4117 5.95699 -0.725486 0
M  V30 131 H 10.4817 4.66917 -1.30828 0
M  V30 132 N 11.8248 0.280983 1.55075 0
M  V30 133 C 12.7748 -0.618585 2.19448 0
M  V30 134 C 13.7588 -1.11401 1.16098 0
M  V30 135 O 14.9508 -1.0581 1.41891 0
M  V30 136 C 12.0798 -1.79951 2.92357 0
M  V30 137 C 11.1658 -1.321 4.03002 0
M  V30 138 N 11.5568 -0.559044 5.02701 0
M  V30 139 C 9.8548 -1.60346 4.16179 0
M  V30 140 C 10.5558 -0.306722 5.80891 0
M  V30 141 N 9.5318 -0.880825 5.36416 0
M  V30 142 H 13.3338 -0.0286638 2.93886 0
M  V30 143 H 10.8478 0.0848104 1.62178 0
M  V30 144 H 12.8448 -2.45531 3.36927 0
M  V30 145 H 11.5048 -2.39333 2.19431 0
M  V30 146 H 12.5158 -0.205827 5.17491 0
M  V30 147 H 9.1928 -2.20621 3.54447 0
M  V30 148 H 10.5828 0.30391 6.71212 0
M  V30 149 N 13.3029 -1.57598 0.00835791 0
M  V30 150 C 14.5489 -1.91211 -0.675732 0
M  V30 151 C 14.8819 -0.883139 -1.72958 0
M  V30 152 O 14.1569 0.097016 -1.94258 0
M  V30 153 C 14.4399 -3.35379 -1.31123 0
M  V30 154 C 14.2929 -4.48999 -0.268356 0
M  V30 155 C 15.6119 -3.7912 -2.23508 0
M  V30 156 H 12.7309 -0.695374 -0.244179 0
M  V30 157 H 15.3729 -1.89901 0.0613655 0
M  V30 158 H 13.5229 -3.36626 -1.93946 0
M  V30 159 H 15.1949 -4.59887 0.360844 0
M  V30 160 H 13.4379 -4.31873 0.408482 0
M  V30 161 H 14.1089 -5.46851 -0.752218 0
M  V30 162 H 16.5849 -3.79477 -1.70693 0
M  V30 163 H 15.4609 -4.80729 -2.64936 0
M  V30 164 H 15.7219 -3.13455 -3.11766 0
M  V30 165 N 14.781 0.264519 -1.55364 0
M  V30 166 C 15.711 1.33121 -1.91836 0
M  V30 167 C 16.692 1.51101 -0.781192 0
M  V30 168 O 17.877 1.64003 -1.04003 0
M  V30 169 C 15.007 2.68921 -2.19769 0
M  V30 170 C 13.961 2.65661 -3.35571 0
M  V30 171 C 13.287 4.05093 -3.49004 0
M  V30 172 C 14.587 2.24187 -4.71739 0
M  V30 173 H 16.281 1.02844 -2.81182 0
M  V30 174 H 13.827 0.493286 -1.35287 0
M  V30 175 H 15.78 3.43663 -2.43872 0
M  V30 176 H 14.504 3.00799 -1.27231 0
M  V30 177 H 13.163 1.93377 -3.1145 0
M  V30 178 H 12.811 4.34206 -2.53917 0
M  V30 179 H 12.511 4.03804 -4.26868 0
M  V30 180 H 14.035 4.81561 -3.75408 0
M  V30 181 H 15.449 2.88654 -4.9533 0
M  V30 182 H 13.846 2.34044 -5.52579 0
M  V30 183 H 14.916 1.19327 -4.69988 0
M  V30 184 N 16.2591 1.48442 0.529413 0
M  V30 185 C 17.1891 1.65902 1.64313 0
M  V30 186 C 18.1701 0.507897 1.6234 0
M  V30 187 O 19.3551 0.740503 1.79528 0
M  V30 188 C 16.4851 1.69911 3.02898 0
M  V30 189 C 15.4391 2.8453 3.19729 0
M  V30 190 C 14.7651 2.73629 4.59381 0
M  V30 191 C 16.0651 4.25821 3.02447 0
M  V30 192 H 17.7591 2.5914 1.49955 0
M  V30 193 H 15.3051 1.24709 0.719982 0
M  V30 194 H 17.2581 1.80715 3.80684 0
M  V30 195 H 15.9821 0.732524 3.18279 0
M  V30 196 H 14.6411 2.73283 2.44361 0
M  V30 197 H 14.2891 1.74938 4.71599 0
M  V30 198 H 13.9891 3.50541 4.71588 0
M  V30 199 H 15.5131 2.86401 5.39265 0
M  V30 200 H 16.9271 4.37898 3.70024 0
M  V30 201 H 15.3241 5.03735 3.26146 0
M  V30 202 H 16.3941 4.42244 1.98867 0
M  V30 203 N 17.7372 -0.778329 1.37039 0
M  V30 204 C 18.6672 -1.90546 1.34962 0
M  V30 205 C 19.6482 -1.68681 0.219274 0
M  V30 206 O 20.8332 -1.89634 0.418624 0
M  V30 207 C 17.9632 -3.27734 1.14925 0
M  V30 208 C 16.9172 -3.64147 2.24902 0
M  V30 209 C 16.2432 -4.99806 1.89996 0
M  V30 210 C 17.5432 -3.71579 3.67051 0
M  V30 211 H 19.2372 -1.92541 2.29277 0
M  V30 212 H 16.7832 -0.924948 1.10366 0
M  V30 213 H 18.7362 -4.06215 1.12104 0
M  V30 214 H 17.4602 -3.26154 0.170631 0
M  V30 215 H 16.1192 -2.8797 2.26868 0
M  V30 216 H 15.7672 -4.94759 0.906796 0
M  V30 217 H 15.4672 -5.25139 2.63634 0
M  V30 218 H 16.9912 -5.80694 1.88749 0
M  V30 219 H 18.4052 -4.40227 3.67251 0
M  V30 220 H 16.8022 -4.08405 4.39688 0
M  V30 221 H 17.8722 -2.72404 4.01154 0
M  V30 222 N 19.2153 -1.21501 -1.00376 0
M  V30 223 C 20.1483 -0.918669 -2.08892 0
M  V30 224 C 21.1263 0.134277 -1.62045 0
M  V30 225 O 22.3103 0.00504255 -1.88499 0
M  V30 226 C 19.4373 -0.379645 -3.36566 0
M  V30 227 C 18.4833 -1.41559 -4.02323 0
M  V30 228 S 19.3163 -2.98521 -4.44574 0
M  V30 229 C 20.4723 -2.46228 -5.75433 0
M  V30 230 H 20.7053 -1.83761 -2.33707 0
M  V30 231 H 18.2383 -1.04489 -1.13673 0
M  V30 232 H 20.1963 -0.0752195 -4.10431 0
M  V30 233 H 18.8573 0.518008 -3.09799 0
M  V30 234 H 18.0503 -0.988076 -4.9422 0
M  V30 235 H 17.6523 -1.66815 -3.34737 0
M  V30 236 H 19.9443 -1.86791 -6.51241 0
M  V30 237 H 20.8873 -3.36572 -6.22997 0
M  V30 238 H 21.2953 -1.87894 -5.32312 0
M  V30 239 N 20.6934 1.19889 -1.02296 0
M  V30 240 C 21.6564 2.21116 -0.603351 0
M  V30 241 C 22.6564 1.5738 0.329884 0
M  V30 242 O 23.8464 1.73802 0.117702 0
M  V30 243 C 20.9784 3.40696 0.117992 0
M  V30 244 H 22.1714 2.59754 -1.49893 0
M  V30 245 H 19.7244 1.33463 -0.813468 0
M  V30 246 H 20.4594 3.07569 1.0282 0
M  V30 247 H 20.2444 3.88188 -0.552511 0
M  V30 248 H 21.7344 4.15692 0.398696 0
M  V30 249 N 22.1715 0.800033 1.35784 0
M  V30 250 C 23.1015 0.220184 2.3246 0
M  V30 251 C 24.0825 -0.65073 1.57161 0
M  V30 252 O 25.2675 -0.582359 1.85263 0
M  V30 253 C 22.3975 -0.637353 3.41402 0
M  V30 254 C 21.3515 0.134531 4.27789 0
M  V30 255 C 20.6775 -0.844285 5.27992 0
M  V30 256 C 21.9775 1.32979 5.05088 0
M  V30 257 H 23.6715 1.02787 2.81203 0
M  V30 258 H 21.2175 0.495717 1.35199 0
M  V30 259 H 23.1705 -1.05302 4.08031 0
M  V30 260 H 21.8945 -1.47785 2.91251 0
M  V30 261 H 20.5535 0.531296 3.6273 0
M  V30 262 H 20.2015 -1.68011 4.74111 0
M  V30 263 H 19.9015 -0.332184 5.8666 0
M  V30 264 H 21.4255 -1.2583 5.97494 0
M  V30 265 H 22.8395 0.98934 5.64699 0
M  V30 266 H 21.2365 1.77593 5.7322 0
M  V30 267 H 22.3065 2.11978 4.36111 0
M  V30 268 N 23.6496 -1.47581 0.552962 0
M  V30 269 C 24.8956 -2.02782 0.0273648 0
M  V30 270 C 25.2286 -1.42687 -1.31734 0
M  V30 271 O 24.5036 -0.580897 -1.85623 0
M  V30 272 C 24.7866 -3.60031 -0.0702371 0
M  V30 273 C 24.6396 -4.30566 1.30126 0
M  V30 274 C 25.9586 -4.33028 -0.785771 0
M  V30 275 H 23.0776 -0.736912 0.0114185 0
M  V30 276 H 25.7196 -1.76056 0.714432 0
M  V30 277 H 23.8696 -3.82932 -0.655382 0
M  V30 278 H 25.5416 -4.19018 1.92929 0
M  V30 279 H 23.7846 -3.91086 1.87709 0
M  V30 280 H 24.4556 -5.39114 1.18573 0
M  V30 281 H 26.9316 -4.15095 -0.288982 0
M  V30 282 H 25.8076 -5.42695 -0.823013 0
M  V30 283 H 26.0686 -4.01945 -1.841 0
M  V30 284 N 25.1277 -0.289203 -1.54924 0
M  V30 285 C 26.3757 0.322879 -1.99504 0
M  V30 286 C 26.6967 1.55313 -1.1791 0
M  V30 287 O 25.9667 1.94001 -0.272097 0
M  V30 288 H 24.5467 0.122291 -0.736922 0
M  V30 289 H 27.2087 -0.397802 -1.90797 0
M  V30 290 H 26.3047 0.603061 -3.06218 0
M  V30 291 N 26.6058 1.57591 -0.0167156 0
M  V30 292 C 27.5528 2.09462 0.969251 0
M  V30 293 C 28.5228 0.99381 1.33089 0
M  V30 294 O 29.7078 1.26726 1.42636 0
M  V30 295 C 26.8478 2.61622 2.25051 0
M  V30 296 C 25.9608 3.85666 1.94642 0
M  V30 297 C 25.0958 4.26266 3.16972 0
M  V30 298 C 24.1348 5.43101 2.82326 0
M  V30 299 N 23.2718 5.78915 3.97243 0
M  V30 300 H 28.1118 2.93428 0.519997 0
M  V30 301 H 25.6488 1.45044 0.245087 0
M  V30 302 H 27.6068 2.89949 2.99976 0
M  V30 303 H 26.2368 1.80505 2.67615 0
M  V30 304 H 25.2888 3.64145 1.10013 0
M  V30 305 H 26.6008 4.70678 1.65117 0
M  V30 306 H 25.7548 4.55963 4.00228 0
M  V30 307 H 24.4938 3.39996 3.49648 0
M  V30 308 H 23.4988 5.1311 1.97479 0
M  V30 309 H 24.7238 6.3106 2.50879 0
M  V30 310 H 22.6698 4.95602 4.29785 0
M  V30 311 H 22.5868 6.58539 3.71299 0
M  V30 312 H 23.8548 6.13212 4.81239 0
M  V30 313 N 28.0839 -0.256276 1.55502 0
M  V30 314 C 29.3119 -1.00342 1.8094 0
M  V30 315 C 29.7269 -1.79307 0.59114 0
M  V30 316 O 29.0839 -1.77114 -0.440081 0
M  V30 317 C 29.1349 -1.94875 3.04476 0
M  V30 318 O 28.8559 -1.19107 4.21598 0
M  V30 319 C 30.3569 -2.81266 3.42644 0
M  V30 320 H 27.5769 -0.295685 0.602338 0
M  V30 321 H 30.1209 -0.281998 2.02546 0
M  V30 322 H 28.2759 -2.62457 2.84947 0
M  V30 323 H 28.6899 -1.82969 4.91551 0
M  V30 324 H 30.1639 -3.43362 4.32211 0
M  V30 325 H 30.6409 -3.51897 2.62802 0
M  V30 326 H 31.2469 -2.1915 3.64491 0
M  V30 327 N 29.562 -1.4872 -0.521534 0
M  V30 328 C 30.525 -1.63379 -1.60748 0
M  V30 329 C 31.525 -0.50661 -1.52611 0
M  V30 330 O 32.715 -0.772601 -1.5613 0
M  V30 331 C 29.847 -1.61192 -3.00383 0
M  V30 332 H 31.04 -2.60217 -1.49087 0
M  V30 333 H 28.593 -1.37444 -0.744235 0
M  V30 334 H 29.328 -0.65863 -3.17541 0
M  V30 335 H 29.113 -2.43032 -3.07698 0
M  V30 336 H 30.603 -1.7466 -3.7932 0
M  V30 337 N 31.0401 0.771051 -1.3745 0
M  V30 338 C 32.2801 1.54264 -1.34096 0
M  V30 339 C 32.6441 1.91858 0.0737639 0
M  V30 340 O 33.8451 2.67797 0.23203 0
M  V30 341 C 32.1161 2.77326 -2.25445 0
M  V30 342 S 33.6751 3.67383 -2.39948 0
M  V30 343 H 30.4931 0.528122 -0.476034 0
M  V30 344 H 33.0951 0.906633 -1.73206 0
M  V30 345 H 31.7991 2.47788 -3.27153 0
M  V30 346 H 31.3301 3.45886 -1.87421 0
M  V30 347 H 33.3451 4.69334 -1.61059 0
M  V30 348 N 32.5182 1.22032 0.997298 0
M  V30 349 C 33.7662 1.04016 1.73278 0
M  V30 350 C 34.0872 -0.426255 1.90284 0
M  V30 351 O 33.3572 -1.30694 1.45931 0
M  V30 352 H 31.9372 0.381897 0.642 0
M  V30 353 H 34.5992 1.5347 1.20137 0
M  V30 354 H 33.6952 1.51441 2.72896 0
M  V30 355 N 33.9963 -1.19345 1.0293 0
M  V30 356 C 35.2433 -1.89038 0.726008 0
M  V30 357 C 35.5713 -1.79649 -0.745427 0
M  V30 358 O 34.8263 -1.18354 -1.55855 0
M  V30 359 C 35.1253 -3.39292 1.12319 0
M  V30 360 C 34.7913 -3.68885 2.59297 0
M  V30 361 C 33.4533 -3.76671 2.99453 0
M  V30 362 C 35.8053 -3.82178 3.54386 0
M  V30 363 C 33.1333 -3.9522 4.33611 0
M  V30 364 C 35.4853 -4.0224 4.88248 0
M  V30 365 C 34.1493 -4.08259 5.28092 0
M  V30 366 H 33.4193 -0.691739 0.265665 0
M  V30 367 H 36.0663 -1.41328 1.29223 0
M  V30 368 H 34.3713 -3.88903 0.475584 0
M  V30 369 H 36.0683 -3.91536 0.866037 0
M  V30 370 H 32.6583 -3.63433 2.27189 0
M  V30 371 H 36.8423 -3.75505 3.24514 0
M  V30 372 H 32.0983 -3.98119 4.64016 0
M  V30 373 H 36.2723 -4.11468 5.61843 0
M  V30 374 H 33.8993 -4.22384 6.32057 0
M  V30 375 N 35.4744 -0.807222 -1.35358 0
M  V30 376 C 36.6994 -0.399309 -2.0352 0
M  V30 377 C 37.1244 0.981986 -1.60433 0
M  V30 378 O 36.4824 1.63601 -0.781299 0
M  V30 379 C 36.5304 -0.491552 -3.57234 0
M  V30 380 O 35.6344 0.494754 -4.09421 0
M  V30 381 H 34.9754 -0.166682 -0.642739 0
M  V30 382 H 37.5054 -1.09328 -1.72941 0
M  V30 383 H 37.5154 -0.361588 -4.06395 0
M  V30 384 H 36.1904 -1.49907 -3.87944 0
M  V30 385 H 34.7674 0.324977 -3.71481 0
M  V30 386 N 36.9525 1.47285 -0.560781 0
M  V30 387 C 37.8825 2.32857 0.173105 0
M  V30 388 C 38.8635 1.44009 0.905281 0
M  V30 389 O 40.0485 1.7286 0.885046 0
M  V30 390 C 37.1785 3.25861 1.20133 0
M  V30 391 C 36.1325 4.23978 0.585388 0
M  V30 392 C 35.4585 5.06332 1.7185 0
M  V30 393 C 36.7585 5.20242 -0.463178 0
M  V30 394 H 38.4525 2.94466 -0.541307 0
M  V30 395 H 35.9985 1.41601 -0.261764 0
M  V30 396 H 37.9515 3.84569 1.72293 0
M  V30 397 H 36.6755 2.62315 1.94573 0
M  V30 398 H 35.3345 3.66501 0.085054 0
M  V30 399 H 34.9825 4.39186 2.45203 0
M  V30 400 H 34.6825 5.72762 1.31213 0
M  V30 401 H 36.2065 5.67899 2.24329 0
M  V30 402 H 37.6205 5.73293 -0.027502 0
M  V30 403 H 36.0175 5.94896 -0.788627 0
M  V30 404 H 37.0875 4.65504 -1.35773 0
M  V30 405 N 38.4306 0.297415 1.54768 0
M  V30 406 C 39.3636 -0.622188 2.19554 0
M  V30 407 C 40.3416 -1.13558 1.16376 0
M  V30 408 O 41.5256 -1.20444 1.45002 0
M  V30 409 C 38.6526 -1.8509 2.83653 0
M  V30 410 C 37.6986 -1.47106 4.00328 0
M  V30 411 S 38.5316 -0.53006 5.3287 0
M  V30 412 C 39.6876 -1.76665 6.0045 0
M  V30 413 H 39.9206 -0.0717806 2.97213 0
M  V30 414 H 37.4536 0.0815678 1.54184 0
M  V30 415 H 39.4116 -2.55605 3.21211 0
M  V30 416 H 38.0726 -2.37247 2.05846 0
M  V30 417 H 37.2656 -2.38594 4.43947 0
M  V30 418 H 36.8676 -0.845885 3.64309 0
M  V30 419 H 39.1596 -2.7077 6.21039 0
M  V30 420 H 40.1026 -1.37308 6.9466 0
M  V30 421 H 40.5106 -1.94174 5.30054 0
M  V30 422 N 39.9087 -1.5758 0.0250728 0
M  V30 423 C 41.1337 -1.96337 -0.668317 0
M  V30 424 C 41.5587 -0.901314 -1.651 0
M  V30 425 O 40.9167 0.138187 -1.80773 0
M  V30 426 C 40.9647 -3.34191 -1.35457 0
M  V30 427 O 40.0687 -3.30269 -2.46974 0
M  V30 428 H 39.4097 -0.640281 -0.175887 0
M  V30 429 H 41.9397 -2.0442 0.0857224 0
M  V30 430 H 41.9497 -3.70331 -1.71228 0
M  V30 431 H 40.6247 -4.11036 -0.634218 0
M  V30 432 H 39.2017 -3.05841 -2.13344 0
M  V30 433 N 41.3868 0.248026 -1.55636 0
M  V30 434 C 42.3168 1.31079 -1.93237 0
M  V30 435 C 43.2978 1.50264 -0.797174 0
M  V30 436 O 44.4828 1.62891 -1.05737 0
M  V30 437 C 41.6128 2.66575 -2.22609 0
M  V30 438 C 40.5668 2.62087 -3.3837 0
M  V30 439 C 39.8928 4.01369 -3.53281 0
M  V30 440 C 41.1928 2.19171 -4.7409 0
M  V30 441 H 42.8868 0.998556 -2.82257 0
M  V30 442 H 40.4328 0.47891 -1.35803 0
M  V30 443 H 42.3858 3.41057 -2.47503 0
M  V30 444 H 41.1098 2.99432 -1.30414 0
M  V30 445 H 39.7688 1.90063 -3.13483 0
M  V30 446 H 39.4168 4.31489 -2.58508 0
M  V30 447 H 39.1168 3.99254 -4.31127 0
M  V30 448 H 40.6408 4.77552 -3.80495 0
M  V30 449 H 42.0548 2.83384 -4.98363 0
M  V30 450 H 40.4518 2.2817 -5.5503 0
M  V30 451 H 41.5218 1.14336 -4.71227 0
M  V30 452 N 42.8649 1.48995 0.513639 0
M  V30 453 C 43.7949 1.67636 1.62544 0
M  V30 454 C 44.7759 0.525087 1.61793 0
M  V30 455 O 45.9609 0.759502 1.78732 0
M  V30 456 C 43.0909 1.73114 3.01079 0
M  V30 457 C 42.0449 2.87905 3.16693 0
M  V30 458 C 41.3709 2.78486 4.56453 0
M  V30 459 C 42.6709 4.29005 2.97913 0
M  V30 460 H 44.3649 2.60716 1.47198 0
M  V30 461 H 41.9109 1.25465 0.706714 0
M  V30 462 H 43.8639 1.84742 3.78746 0
M  V30 463 H 42.5879 0.766241 3.17484 0
M  V30 464 H 41.2469 2.75859 2.41448 0
M  V30 465 H 40.8949 1.7993 4.69717 0
M  V30 466 H 40.5949 3.55523 4.67843 0
M  V30 467 H 42.1189 2.92104 5.36197 0
M  V30 468 H 43.5329 4.41798 3.65359 0
M  V30 469 H 41.9299 5.07166 3.20785 0
M  V30 470 H 42.9999 4.44329 1.94165 0
M  V30 471 N 44.343 -0.763751 1.37857 0
M  V30 472 C 45.253 -1.90817 1.36478 0
M  V30 473 C 46.269 -1.71997 0.263248 0
M  V30 474 O 47.445 -1.95095 0.499979 0
M  V30 475 C 44.51 -3.2605 1.17864 0
M  V30 476 C 43.571 -3.57467 2.3773 0
M  V30 477 C 42.804 -4.86249 2.19995 0
M  V30 478 O 43.027 -5.57884 1.18836 0
M  V30 479 O 41.961 -5.16911 3.08361 0
M  V30 480 H 45.787 -1.94933 2.32884 0
M  V30 481 H 43.372 -0.907619 1.1867 0
M  V30 482 H 45.254 -4.06924 1.09504 0
M  V30 483 H 43.929 -3.22769 0.245372 0
M  V30 484 H 42.836 -2.76796 2.51664 0
M  V30 485 H 44.169 -3.655 3.29652 0
M  V30 486 N 45.8211 -1.22559 -0.990812 0
M  V30 487 C 47.0461 -1.07862 -1.77145 0
M  V30 488 C 47.4711 0.366447 -1.84496 0
M  V30 489 O 46.8291 1.26478 -1.29896 0
M  V30 490 C 46.8771 -1.69686 -3.18181 0
M  V30 491 O 45.9811 -0.951946 -4.01263 0
M  V30 492 H 45.3221 -0.378712 -0.545411 0
M  V30 493 H 47.8521 -1.62399 -1.2445 0
M  V30 494 H 47.8621 -1.74496 -3.68802 0
M  V30 495 H 46.5371 -2.74841 -3.12146 0
M  V30 496 H 45.1141 -0.980011 -3.59792 0
M  V30 497 N 47.2992 1.18797 -1.03562 0
M  V30 498 C 48.2292 2.24472 -0.643019 0
M  V30 499 C 49.2102 1.66433 0.351283 0
M  V30 500 O 50.3952 1.92803 0.232505 0
M  V30 501 C 47.5252 3.473 4.24935e-05 0
M  V30 502 C 46.4792 4.18055 -0.917257 0
M  V30 503 C 45.8052 5.34519 -0.138941 0
M  V30 504 C 47.1052 4.72109 -2.23407 0
M  V30 505 H 48.7992 2.57566 -1.52643 0
M  V30 506 H 46.3452 1.23806 -0.735394 0
M  V30 507 H 48.2982 4.20426 0.286383 0
M  V30 508 H 47.0222 3.13424 0.918299 0
M  V30 509 H 45.6812 3.46821 -1.1879 0
M  V30 510 H 45.3292 4.96891 0.781562 0
M  V30 511 H 45.0292 5.82794 -0.750005 0
M  V30 512 H 46.5532 6.10438 0.1405 0
M  V30 513 H 47.9672 5.36955 -2.00879 0
M  V30 514 H 46.3642 5.30897 -2.79765 0
M  V30 515 H 47.4342 3.89807 -2.88407 0
M  V30 516 N 48.7773 0.814389 1.34928 0
M  V30 517 C 50.0543 0.321363 1.92942 0
M  V30 518 C 50.4343 -1.19014 1.74353 0
M  V30 519 O 49.7823 -1.99328 1.11716 0
M  V30 520 C 49.9923 0.741323 3.41036 0
M  V30 521 C 51.3403 0.735266 4.18185 0
M  V30 522 O 52.3643 0.68336 3.49584 0
M  V30 523 O 51.2233 0.800703 5.40602 0
M  V30 524 H 48.3173 0.0858893 0.822528 0
M  V30 525 H 50.8633 0.898609 1.43955 0
M  V30 526 H 49.6353 1.78276 3.4833 0
M  V30 527 H 49.2583 0.139307 3.97356 0
M  V30 528 N 50.2554 -1.46986 0.568584 0
M  V30 529 C 51.6664 -1.86188 0.138219 0
M  V30 530 C 52.0174 -1.47388 -1.29504 0
M  V30 531 O 51.1424 -0.88219 -1.97602 0
M  V30 532 C 51.7374 -3.3792 0.244065 0
M  V30 533 C 50.2964 -3.76171 -0.131335 0
M  V30 534 C 49.4434 -2.71027 0.586465 0
M  V30 535 H 52.3944 -1.38342 0.777645 0
M  V30 536 H 52.4154 -3.76729 -0.534351 0
M  V30 537 H 51.9274 -3.66128 1.28731 0
M  V30 538 H 50.0284 -3.5358 -1.17526 0
M  V30 539 H 50.1414 -4.78523 0.235146 0
M  V30 540 H 48.5054 -2.54684 0.0282722 0
M  V30 541 H 49.2884 -3.02077 1.63109 0
M  V30 542 N 51.7335 -0.305618 -1.54608 0
M  V30 543 C 53.0105 0.355652 -1.92339 0
M  V30 544 C 53.3905 1.71324 -1.23335 0
M  V30 545 O 52.7385 2.25473 -0.370702 0
M  V30 546 C 52.9485 0.46572 -3.45879 0
M  V30 547 C 54.2965 0.734426 -4.182 0
M  V30 548 O 55.3205 0.54935 -3.51938 0
M  V30 549 O 54.1795 1.09024 -5.35515 0
M  V30 550 H 51.2735 0.199666 -0.802535 0
M  V30 551 H 53.8195 -0.354017 -1.65966 0
M  V30 552 H 52.5915 -0.488461 -3.88239 0
M  V30 553 H 52.2145 1.22367 -3.78301 0
M  V30 554 N 53.2116 1.57565 -0.0334293 0
M  V30 555 C 54.4576 1.93088 0.639417 0
M  V30 556 C 54.8126 0.910589 1.69488 0
M  V30 557 O 54.1056 -0.0727725 1.91462 0
M  V30 558 C 54.2996 3.33112 1.29504 0
M  V30 559 C 54.1286 4.48667 0.304604 0
M  V30 560 C 52.8986 5.05207 -0.0970777 0
M  V30 561 C 55.0966 5.1239 -0.442845 0
M  V30 562 N 53.0786 6.04286 -1.08223 0
M  V30 563 C 54.4496 6.06609 -1.28161 0
M  V30 564 C 56.5046 4.95352 -0.50308 0
M  V30 565 C 55.2076 6.85622 -2.17519 0
M  V30 566 C 57.2336 5.74978 -1.38401 0
M  V30 567 C 56.5956 6.68816 -2.21054 0
M  V30 568 H 52.6946 0.754335 0.206161 0
M  V30 569 H 55.2786 1.94435 -0.101613 0
M  V30 570 H 53.4496 3.32576 2.00618 0
M  V30 571 H 55.1816 3.55972 1.92525 0
M  V30 572 H 51.9366 4.72782 0.278255 0
M  V30 573 H 52.3606 6.58516 -1.57117 0
M  V30 574 H 57.0026 4.22625 0.121694 0
M  V30 575 H 54.7206 7.57652 -2.81049 0
M  V30 576 H 58.3066 5.63826 -1.43496 0
M  V30 577 H 57.1866 7.29355 -2.88116 0
M  V30 578 N 54.6897 -0.239769 1.55765 0
M  V30 579 C 55.9177 -0.98417 1.81994 0
M  V30 580 C 56.3327 -1.7867 0.610124 0
M  V30 581 O 55.6897 -1.77571 -0.421271 0
M  V30 582 C 55.7407 -1.91635 3.06526 0
M  V30 583 O 55.4617 -1.14629 4.22838 0
M  V30 584 C 56.9627 -2.77616 3.45607 0
M  V30 585 H 54.1827 -0.28928 0.605441 0
M  V30 586 H 56.7267 -0.260499 2.02834 0
M  V30 587 H 54.8817 -2.5942 2.87715 0
M  V30 588 H 55.2957 -1.77745 4.93464 0
M  V30 589 H 56.7697 -3.38759 4.35828 0
M  V30 590 H 57.2467 -3.4909 2.6652 0
M  V30 591 H 57.8527 -2.15271 3.66795 0
M  V30 592 N 56.1678 -1.49265 -0.50573 0
M  V30 593 C 57.5788 -1.51769 -1.08734 0
M  V30 594 C 57.9298 -0.301192 -1.93874 0
M  V30 595 O 57.0548 0.589456 -2.08217 0
M  V30 596 C 57.6498 -2.75017 -1.97867 0
M  V30 597 C 56.2088 -2.80314 -2.51199 0
M  V30 598 C 55.3558 -2.4562 -1.28709 0
M  V30 599 H 58.3068 -1.56031 -0.289855 0
M  V30 600 H 58.3278 -2.5491 -2.82491 0
M  V30 601 H 57.8398 -3.63539 -1.35873 0
M  V30 602 H 55.9408 -1.96061 -3.16845 0
M  V30 603 H 56.0538 -3.82366 -2.88675 0
M  V30 604 H 54.4178 -1.97297 -1.61078 0
M  V30 605 H 55.2008 -3.36411 -0.6843 0
M  V30 606 N 57.6459 0.756429 -1.3826 0
M  V30 607 C 58.9229 1.50584 -1.24835 0
M  V30 608 C 59.3029 2.10556 0.151485 0
M  V30 609 O 58.6509 1.96825 1.1607 0
M  V30 610 C 58.8609 2.57448 -2.3563 0
M  V30 611 C 60.2089 3.24429 -2.73917 0
M  V30 612 O 61.2329 2.67751 -2.34921 0
M  V30 613 O 60.0919 4.26937 -3.41156 0
M  V30 614 H 57.1859 0.667664 -0.48801 0
M  V30 615 H 59.7319 0.792083 -1.5008 0
M  V30 616 H 58.5039 2.11362 -3.29305 0
M  V30 617 H 58.1269 3.36408 -2.11933 0
M  V30 618 N 59.124 1.23083 0.984299 0
M  V30 619 C 60.056 0.96636 2.07832 0
M  V30 620 C 61.069 -0.0582135 1.62696 0
M  V30 621 O 62.258 0.176843 1.77622 0
M  V30 622 C 59.358 0.433397 3.36117 0
M  V30 623 C 58.531 1.51722 4.10243 0
M  V30 624 C 57.59 0.989821 5.16807 0
M  V30 625 O 56.616 1.67794 5.43906 0
M  V30 626 N 57.818 -0.184367 5.80207 0
M  V30 627 H 60.583 1.90824 2.31098 0
M  V30 628 H 58.144 1.13888 1.1507 0
M  V30 629 H 60.136 0.065699 4.04647 0
M  V30 630 H 58.706 -0.413806 3.09849 0
M  V30 631 H 57.926 2.05786 3.36223 0
M  V30 632 H 59.214 2.24619 4.56534 0
M  V30 633 H 58.612 -0.760062 5.60571 0
M  V30 634 H 57.169 -0.493366 6.4993 0
M  V30 635 N 60.6021 -1.18246 1.0419 0
M  V30 636 C 61.8321 -1.91916 0.764961 0
M  V30 637 C 62.2401 -1.76485 -0.681898 0
M  V30 638 O 61.5831 -1.09275 -1.47664 0
M  V30 639 C 61.6451 -3.4373 1.05309 0
M  V30 640 C 61.3091 -3.8294 2.4941 0
M  V30 641 C 62.3061 -3.86621 3.47592 0
M  V30 642 C 59.9911 -4.142 2.84155 0
M  V30 643 C 61.9851 -4.21013 4.78568 0
M  V30 644 C 59.6721 -4.48262 4.15337 0
M  V30 645 C 60.6701 -4.51645 5.12353 0
M  V30 646 O 60.3581 -4.84911 6.41183 0
M  V30 647 H 60.0901 -0.61606 0.278292 0
M  V30 648 H 62.6441 -1.50947 1.39299 0
M  V30 649 H 60.8741 -3.84946 0.367933 0
M  V30 650 H 62.5631 -3.9865 0.763752 0
M  V30 651 H 63.3291 -3.62607 3.22089 0
M  V30 652 H 59.2081 -4.10743 2.09311 0
M  V30 653 H 62.7521 -4.23568 5.54289 0
M  V30 654 H 58.6491 -4.71737 4.40607 0
M  V30 655 H 59.4171 -5.02809 6.45852 0
M  V30 656 N 62.0802 -0.821533 -1.34494 0
M  V30 657 C 63.3572 -0.33159 -1.92769 0
M  V30 658 C 63.7372 1.18088 -1.74981 0
M  V30 659 O 63.0852 1.98733 -1.12772 0
M  V30 660 C 63.2952 -0.759398 -3.40638 0
M  V30 661 C 64.6432 -0.757433 -4.1779 0
M  V30 662 O 65.6672 -0.70189 -3.49216 0
M  V30 663 O 64.5262 -0.829361 -5.4017 0
M  V30 664 H 61.6202 -0.0902502 -0.822061 0
M  V30 665 H 64.1662 -0.906231 -1.43477 0
M  V30 666 H 62.9382 -1.8012 -3.47379 0
M  V30 667 H 62.5612 -0.160378 -3.97276 0
M  V30 668 N 63.5583 1.46682 -0.576371 0
M  V30 669 C 64.7883 2.06498 -0.0648694 0
M  V30 670 C 65.1963 1.42665 1.24271 0
M  V30 671 O 64.5393 0.523886 1.76071 0
M  V30 672 C 64.6013 3.5904 0.181816 0
M  V30 673 C 64.2653 4.45028 -1.0392 0
M  V30 674 C 65.2623 4.81959 -1.94966 0
M  V30 675 C 62.9473 4.86259 -1.25927 0
M  V30 676 C 64.9413 5.58942 -3.06371 0
M  V30 677 C 62.6283 5.63002 -2.37638 0
M  V30 678 C 63.6263 5.99257 -3.2769 0
M  V30 679 O 63.3143 6.7445 -4.37461 0
M  V30 680 H 63.0463 0.674028 -0.0515987 0
M  V30 681 H 65.6003 1.89393 -0.794951 0
M  V30 682 H 63.8303 3.74429 0.966436 0
M  V30 683 H 65.5193 4.00806 0.641047 0
M  V30 684 H 66.2853 4.50689 -1.79177 0
M  V30 685 H 62.1643 4.57494 -0.567448 0
M  V30 686 H 65.7083 5.87158 -3.76684 0
M  V30 687 H 61.6053 5.93686 -2.53392 0
M  V30 688 H 62.3733 6.92867 -4.35749 0
M  V30 689 N 65.0364 0.313813 1.54444 0
M  V30 690 C 66.2614 -0.296681 2.05267 0
M  V30 691 C 66.6864 -1.45757 1.18897 0
M  V30 692 O 66.0444 -1.80239 0.195886 0
M  V30 693 C 66.0924 -0.71831 3.53373 0
M  V30 694 O 65.1964 -1.82175 3.69981 0
M  V30 695 H 64.5374 -0.0554061 0.661684 0
M  V30 696 H 67.0674 0.459387 1.99376 0
M  V30 697 H 67.0774 -1.00364 3.95463 0
M  V30 698 H 65.7524 0.130821 4.15694 0
M  V30 699 H 64.3294 -1.53598 3.39797 0
M  V30 700 N 66.5145 -1.57545 0.0417849 0
M  V30 701 C 67.7445 -1.96339 -0.642995 0
M  V30 702 C 68.1525 -0.917536 -1.65463 0
M  V30 703 O 67.4955 0.107747 -1.83384 0
M  V30 704 C 67.5575 -3.31333 -1.39494 0
M  V30 705 C 67.2215 -4.53796 -0.540204 0
M  V30 706 C 68.2185 -5.19553 0.189806 0
M  V30 707 C 65.9035 -5.0006 -0.473886 0
M  V30 708 C 67.8975 -6.29904 0.974674 0
M  V30 709 C 65.5845 -6.10289 0.314677 0
M  V30 710 C 66.5825 -6.75072 1.03765 0
M  V30 711 O 66.2705 -7.83183 1.81327 0
M  V30 712 H 66.0025 -0.651241 -0.181277 0
M  V30 713 H 68.5565 -2.05148 0.101665 0
M  V30 714 H 66.7865 -3.19052 -2.18502 0
M  V30 715 H 68.4755 -3.54942 -1.96904 0
M  V30 716 H 69.2415 -4.84774 0.147981 0
M  V30 717 H 65.1205 -4.49433 -1.0262 0
M  V30 718 H 68.6645 -6.80401 1.5395 0
M  V30 719 H 64.5615 -6.44506 0.358174 0
M  V30 720 H 65.3295 -7.99913 1.73438 0
M  V30 721 N 67.9926 0.231505 -1.5589 0
M  V30 722 C 68.9026 1.308 -1.94752 0
M  V30 723 C 69.9186 1.51826 -0.849989 0
M  V30 724 O 71.0946 1.6515 -1.15271 0
M  V30 725 C 68.1596 2.63968 -2.24771 0
M  V30 726 C 67.2206 2.51331 -3.48039 0
M  V30 727 C 66.4536 3.78148 -3.76616 0
M  V30 728 O 66.6766 4.80722 -3.07022 0
M  V30 729 O 65.6106 3.75857 -4.70123 0
M  V30 730 H 69.4366 1.0083 -2.86474 0
M  V30 731 H 67.0216 0.433547 -1.42971 0
M  V30 732 H 68.9036 3.42633 -2.45318 0
M  V30 733 H 67.5786 2.9364 -1.36225 0
M  V30 734 H 66.4856 1.709 -3.32782 0
M  V30 735 H 67.8186 2.26601 -4.36936 0
M  V30 736 N 69.4707 1.49531 0.497807 0
M  V30 737 C 70.7477 1.49682 1.25915 0
M  V30 738 C 71.1277 0.226339 2.09883 0
M  V30 739 O 70.4757 -0.791189 2.14365 0
M  V30 740 C 70.6857 2.77755 2.11313 0
M  V30 741 C 72.0337 3.27371 2.70395 0
M  V30 742 O 73.0577 2.78894 2.21578 0
M  V30 743 O 71.9167 4.11808 3.59272 0
M  V30 744 H 69.0107 0.599228 0.56996 0
M  V30 745 H 71.5567 1.61798 0.511816 0
M  V30 746 H 70.3287 3.61713 1.49264 0
M  V30 747 H 69.9517 2.68515 2.93233 0
M  V30 748 N 70.9488 -0.749086 1.3866 0
M  V30 749 C 72.1788 -1.53611 1.38157 0
M  V30 750 C 72.5868 -1.89177 -0.0293595 0
M  V30 751 O 71.9298 -1.53606 -1.00752 0
M  V30 752 C 71.9918 -2.86087 2.17702 0
M  V30 753 C 71.6558 -2.73034 3.66472 0
M  V30 754 C 72.6528 -2.42526 4.59866 0
M  V30 755 C 70.3378 -2.90345 4.09884 0
M  V30 756 C 72.3318 -2.29492 5.94653 0
M  V30 757 C 70.0188 -2.7693 5.4475 0
M  V30 758 C 71.0168 -2.46547 6.36949 0
M  V30 759 O 70.7048 -2.33199 7.69333 0
M  V30 760 H 70.4368 -0.481773 0.474205 0
M  V30 761 H 72.9908 -0.934465 1.82912 0
M  V30 762 H 71.2208 -3.48458 1.67672 0
M  V30 763 H 72.9098 -3.47625 2.09551 0
M  V30 764 H 73.6758 -2.28816 4.27631 0
M  V30 765 H 69.5548 -3.1299 3.38464 0
M  V30 766 H 73.0988 -2.05698 6.66584 0
M  V30 767 H 68.9958 -2.90215 5.76581 0
M  V30 768 H 69.7638 -2.48376 7.79905 0
M  V30 769 N 72.4269 -1.23603 -0.977757 0
M  V30 770 C 73.3749 -1.01704 -2.09187 0
M  V30 771 C 74.3689 0.0448214 -1.69341 0
M  V30 772 O 75.5749 -0.108902 -1.7967 0
M  V30 773 H 71.9499 -0.311803 -0.684312 0
M  V30 774 H 73.9209 -1.96207 -2.24823 0
M  V30 775 C 72.6699 -0.627746 -3.41986 0
M  V30 776 H 71.9929 -1.43656 -3.73099 0
M  V30 777 H 73.4329 -0.514053 -4.20872 0
M  V30 778 C 71.8919 0.664238 -3.30287 0
M  V30 779 O 72.4219 1.71268 -3.6336 0
M  V30 780 N 70.6279 0.641156 -2.83439 0
M  V30 781 H 70.1749 -0.212376 -2.56723 0
M  V30 782 H 70.1329 1.50583 -2.75993 0
M  V30 783 N 73.905 1.17692 -1.04816 0
M  V30 784 C 74.837 2.21103 -0.603822 0
M  V30 785 C 75.85 1.59411 0.33046 0
M  V30 786 O 77.039 1.7807 0.12379 0
M  V30 787 C 74.139 3.38623 0.136898 0
M  V30 788 C 73.312 4.29888 -0.807137 0
M  V30 789 C 72.371 5.26088 -0.10836 0
M  V30 790 O 71.397 5.64353 -0.741232 0
M  V30 791 N 72.599 5.68882 1.15558 0
M  V30 792 H 75.364 2.59848 -1.49329 0
M  V30 793 H 72.925 1.32553 -0.929587 0
M  V30 794 H 74.917 4.00009 0.614401 0
M  V30 795 H 73.487 2.98508 0.927993 0
M  V30 796 H 72.707 3.65993 -1.46434 0
M  V30 797 H 73.995 4.87759 -1.44807 0
M  V30 798 H 73.393 5.39861 1.69015 0
M  V30 799 H 71.95 6.32429 1.57722 0
M  V30 800 N 75.3831 0.828654 1.34056 0
M  V30 801 C 76.2931 0.256725 2.33191 0
M  V30 802 C 77.3091 -0.611898 1.62886 0
M  V30 803 O 78.4851 -0.51844 1.94613 0
M  V30 804 C 75.5501 -0.567238 3.42028 0
M  V30 805 C 74.6111 0.324458 4.28072 0
M  V30 806 C 73.8441 -0.460274 5.31712 0
M  V30 807 O 74.0671 -1.693 5.44696 0
M  V30 808 O 73.0011 0.160391 6.01686 0
M  V30 809 H 76.8271 1.07739 2.83947 0
M  V30 810 H 74.4121 0.59093 1.37217 0
M  V30 811 H 76.2941 -1.03582 4.08471 0
M  V30 812 H 74.9691 -1.36513 2.93506 0
M  V30 813 H 73.8761 0.840659 3.64532 0
M  V30 814 H 75.2091 1.08685 4.8005 0
M  V30 815 N 76.8612 -1.46375 0.584142 0
M  V30 816 C 77.7712 -2.34115 -0.150728 0
M  V30 817 C 78.7872 -1.49838 -0.884567 0
M  V30 818 O 79.9632 -1.82704 -0.847429 0
M  V30 819 C 77.0282 -3.2705 -1.15062 0
M  V30 820 C 76.0892 -4.27228 -0.421293 0
M  V30 821 C 75.3222 -5.15722 -1.37355 0
M  V30 822 O 75.5452 -5.07176 -2.61014 0
M  V30 823 O 74.4792 -5.95383 -0.883355 0
M  V30 824 H 78.3052 -2.98309 0.569708 0
M  V30 825 H 75.8902 -1.45373 0.344535 0
M  V30 826 H 77.7722 -3.84381 -1.72712 0
M  V30 827 H 76.4472 -2.65451 -1.8525 0
M  V30 828 H 75.3542 -3.7358 0.197085 0
M  V30 829 H 76.6872 -4.91616 0.239641 0
M  V30 830 N 78.3393 -0.321999 -1.54275 0
M  V30 831 C 79.2873 0.560206 -2.25753 0
M  V30 832 C 80.2813 1.11984 -1.27106 0
M  V30 833 O 81.4873 1.06806 -1.44888 0
M  V30 834 H 77.8623 0.199304 -0.725108 0
M  V30 835 H 79.8333 -0.0649365 -2.98329 0
M  V30 836 C 78.5823 1.71023 -3.02731 0
M  V30 837 H 77.9053 1.28885 -3.78456 0
M  V30 838 H 79.3453 2.30314 -3.55993 0
M  V30 839 C 77.8043 2.62692 -2.10938 0
M  V30 840 O 78.3343 3.64364 -1.6912 0
M  V30 841 N 76.5403 2.30891 -1.76459 0
M  V30 842 H 76.0873 1.48253 -2.10663 0
M  V30 843 H 76.0453 2.92487 -1.1532 0
M  V30 844 N 79.8174 1.5752 -0.0501392 0
M  V30 845 C 81.0454 1.96963 0.633492 0
M  V30 846 C 81.4604 0.927631 1.6444 0
M  V30 847 O 80.8174 -0.0882665 1.82286 0
M  V30 848 C 80.8684 3.36487 1.32132 0
M  V30 849 O 80.5894 4.36693 0.350894 0
M  V30 850 C 82.0904 3.90682 2.09481 0
M  V30 851 H 79.3104 0.648244 0.173266 0
M  V30 852 H 81.8544 2.0417 -0.116134 0
M  V30 853 H 80.0094 3.30434 2.02218 0
M  V30 854 H 80.4234 5.17702 0.841735 0
M  V30 855 H 81.8974 4.90591 2.5303 0
M  V30 856 H 82.3744 3.26053 2.94255 0
M  V30 857 H 82.9804 4.00069 1.44307 0
M  V30 858 N 81.2955 -0.223234 1.56011 0
M  V30 859 C 82.5205 -0.968978 1.83373 0
M  V30 860 C 82.9455 -1.77227 0.630254 0
M  V30 861 O 82.3035 -1.76345 -0.420959 0
M  V30 862 C 82.3515 -1.86363 3.08709 0
M  V30 863 O 81.4555 -2.95873 2.87285 0
M  V30 864 H 80.7965 -0.274461 0.604622 0
M  V30 865 H 83.3265 -0.237056 2.03222 0
M  V30 866 H 83.3365 -2.27376 3.38768 0
M  V30 867 H 82.0115 -1.27319 3.95933 0
M  V30 868 H 80.5885 -2.58818 2.68454 0
M  V30 869 N 82.7736 -1.49793 -0.48987 0
M  V30 870 C 83.9986 -1.63836 -1.27172 0
M  V30 871 C 84.4236 -0.31402 -1.8546 0
M  V30 872 O 83.7816 0.719803 -1.66399 0
M  V30 873 C 83.8296 -2.71797 -2.36978 0
M  V30 874 O 82.9336 -2.31744 -3.41128 0
M  V30 875 H 82.2746 -0.547997 -0.37496 0
M  V30 876 H 84.8046 -1.96053 -0.585191 0
M  V30 877 H 84.8146 -2.94305 -2.82575 0
M  V30 878 H 83.4896 -3.67923 -1.93921 0
M  V30 879 H 82.0666 -2.1961 -3.01373 0
M  V30 880 N 84.2517 0.741722 -1.39055 0
M  V30 881 C 85.4797 1.53098 -1.39171 0
M  V30 882 C 85.8947 1.88794 0.0155099 0
M  V30 883 O 85.2517 1.53626 0.985159 0
M  V30 884 C 85.3027 2.82274 -2.2584 0
M  V30 885 O 85.0237 2.48097 -3.61081 0
M  V30 886 C 86.5247 3.76343 -2.34266 0
M  V30 887 H 83.7447 0.473335 -0.4756 0
M  V30 888 H 86.2887 0.917045 -1.82785 0
M  V30 889 H 84.4437 3.40015 -1.85656 0
M  V30 890 H 84.8577 3.31029 -4.06842 0
M  V30 891 H 86.3317 4.63898 -2.9917 0
M  V30 892 H 86.8087 4.17619 -1.35982 0
M  V30 893 H 87.4147 3.24523 -2.74891 0
M  V30 894 N 85.7298 1.2412 0.971189 0
M  V30 895 C 86.6598 1.05508 2.08304 0
M  V30 896 C 87.6408 -0.0308864 1.70072 0
M  V30 897 O 88.8258 0.135521 1.93727 0
M  V30 898 C 85.9558 0.655365 3.4106 0
M  V30 899 C 84.9098 1.68971 3.93234 0
M  V30 900 C 84.2358 1.14516 5.22293 0
M  V30 901 C 85.5358 3.08487 4.21465 0
M  V30 902 H 87.2298 1.98507 2.24132 0
M  V30 903 H 84.7758 0.955821 1.07704 0
M  V30 904 H 86.7288 0.51217 4.18276 0
M  V30 905 H 85.4528 -0.31032 3.25122 0
M  V30 906 H 84.1118 1.82106 3.18171 0
M  V30 907 H 83.7598 0.170189 5.02712 0
M  V30 908 H 83.4598 1.83635 5.58168 0
M  V30 909 H 84.9838 1.01401 6.02121 0
M  V30 910 H 86.3978 2.98601 4.89398 0
M  V30 911 H 84.7948 3.74926 4.68562 0
M  V30 912 H 85.8648 3.56787 3.28376 0
M  V30 913 N 87.2079 -1.17134 1.05439 0
M  V30 914 C 88.4359 -1.91372 0.786414 0
M  V30 915 C 88.8509 -1.76955 -0.658202 0
M  V30 916 O 88.2079 -1.10838 -1.44987 0
M  V30 917 C 88.2589 -3.42356 1.1608 0
M  V30 918 O 87.9799 -3.56332 2.54871 0
M  V30 919 C 89.4809 -4.33663 0.919322 0
M  V30 920 H 86.7009 -0.607118 0.285743 0
M  V30 921 H 89.2449 -1.48525 1.40572 0
M  V30 922 H 87.3999 -3.82939 0.586191 0
M  V30 923 H 87.8139 -4.49896 2.69618 0
M  V30 924 H 89.2879 -5.38099 1.231 0
M  V30 925 H 89.7649 -4.38959 -0.145359 0
M  V30 926 H 90.3709 -3.98796 1.47789 0
M  V30 927 N 88.686 -0.835752 -1.33615 0
M  V30 928 C 89.636 -0.238856 -2.26745 0
M  V30 929 C 90.62 0.604343 -1.49119 0
M  V30 930 O 91.812 0.456822 -1.71003 0
M  V30 931 C 88.941 0.587725 -3.38232 0
M  V30 932 C 88.027 -0.266811 -4.2326 0
M  V30 933 N 88.418 -1.34403 -4.87616 0
M  V30 934 C 86.716 -0.0533131 -4.45968 0
M  V30 935 C 87.417 -1.86819 -5.50884 0
M  V30 936 N 86.393 -1.17013 -5.30857 0
M  V30 937 H 90.195 -1.06266 -2.74016 0
M  V30 938 H 87.709 -0.679881 -1.47483 0
M  V30 939 H 89.706 1.03161 -4.03935 0
M  V30 940 H 88.366 1.40954 -2.9251 0
M  V30 941 H 89.377 -1.7269 -4.88261 0
M  V30 942 H 86.054 0.735312 -4.10974 0
M  V30 943 H 87.444 -2.7701 -6.1214 0
M  V30 944 N 90.1641 1.46063 -0.591896 0
M  V30 945 C 91.1271 2.28854 0.125973 0
M  V30 946 C 92.1271 1.38903 0.810107 0
M  V30 947 O 93.3171 1.61186 0.66066 0
M  V30 948 C 90.4491 3.19526 1.1881 0
M  V30 949 H 91.6421 2.93802 -0.601717 0
M  V30 950 H 89.1951 1.52325 -0.350254 0
M  V30 951 H 89.9301 2.59345 1.94707 0
M  V30 952 H 89.7151 3.85766 0.701936 0
M  V30 953 H 91.2051 3.81817 1.69132 0
M  V30 954 N 91.6422 0.330177 1.54103 0
M  V30 955 C 92.5522 -0.541534 2.28264 0
M  V30 956 C 93.5682 -1.12351 1.32866 0
M  V30 957 O 94.7442 -1.14206 1.65888 0
M  V30 958 C 91.8092 -1.68322 3.03098 0
M  V30 959 C 90.8702 -1.13238 4.14096 0
M  V30 960 C 90.1032 -2.21966 4.85352 0
M  V30 961 O 90.3262 -3.42437 4.56172 0
M  V30 962 O 89.2602 -1.87013 5.7211 0
M  V30 963 H 93.0862 0.060938 3.03639 0
M  V30 964 H 90.6712 0.09565 1.49093 0
M  V30 965 H 92.5532 -2.34777 3.49939 0
M  V30 966 H 91.2282 -2.27176 2.30593 0
M  V30 967 H 90.1352 -0.432736 3.71589 0
M  V30 968 H 91.4682 -0.588898 4.88664 0
M  V30 969 N 93.1203 -1.57491 0.0584922 0
M  V30 970 C 94.0683 -2.13148 -0.931168 0
M  V30 971 C 95.0623 -1.06507 -1.31729 0
M  V30 972 O 96.2683 -1.24906 -1.29609 0
M  V30 973 H 92.6433 -0.68137 -0.31818 0
M  V30 974 H 94.6143 -2.95187 -0.436707 0
M  V30 975 C 93.3633 -2.69732 -2.19408 0
M  V30 976 H 92.6863 -3.51454 -1.90578 0
M  V30 977 H 94.1263 -3.12287 -2.86798 0
M  V30 978 C 92.5853 -1.63855 -2.94369 0
M  V30 979 O 93.1153 -1.05565 -3.87581 0
M  V30 980 N 91.3213 -1.35202 -2.57233 0
M  V30 981 H 90.8683 -1.82791 -1.81508 0
M  V30 982 H 90.8263 -0.645922 -3.07693 0
M  V30 983 N 94.5984 0.214957 -1.56127 0
M  V30 984 C 96.0094 0.781386 -1.69562 0
M  V30 985 C 96.3604 1.84707 -0.66165 0
M  V30 986 O 95.4854 2.156 0.185927 0
M  V30 987 C 96.0804 1.42411 -3.07416 0
M  V30 988 C 94.6394 1.93786 -3.22683 0
M  V30 989 C 93.7864 0.800438 -2.65496 0
M  V30 990 H 96.7374 -0.00980633 -1.58697 0
M  V30 991 H 96.7584 2.29309 -3.0364 0
M  V30 992 H 96.2704 0.64826 -3.82648 0
M  V30 993 H 94.3714 2.74152 -2.52332 0
M  V30 994 H 94.4844 2.1133 -4.29973 0
M  V30 995 H 92.8484 1.2095 -2.2415 0
M  V30 996 H 93.6314 0.0371471 -3.4328 0
M  V30 997 N 96.0765 1.50051 0.48192 0
M  V30 998 C 97.3535 1.51009 1.2432 0
M  V30 999 C 97.7335 0.248587 2.09631 0
M  V30 1000 O 97.0815 -0.768409 2.15192 0
M  V30 1001 C 97.2915 2.79981 2.08355 0
M  V30 1002 C 98.6395 3.3022 2.66908 0
M  V30 1003 O 99.6635 2.81228 2.18607 0
M  V30 1004 O 98.5225 4.15595 3.54884 0
M  V30 1005 H 95.6165 0.605239 0.563573 0
M  V30 1006 H 98.1625 1.62332 0.494627 0
M  V30 1007 H 96.9345 3.63275 1.45419 0
M  V30 1008 H 96.5575 2.7161 2.90368 0
M  V30 1009 N 97.5546 -0.734337 1.39446 0
M  V30 1010 C 98.8006 -1.49505 1.37913 0
M  V30 1011 C 99.1556 -1.92384 -0.0248416 0
M  V30 1012 O 98.4486 -1.6395 -0.991506 0
M  V30 1013 C 98.6426 -2.74711 2.28623 0
M  V30 1014 C 98.4716 -2.44075 3.777 0
M  V30 1015 C 97.2416 -2.36338 4.46623 0
M  V30 1016 C 99.4396 -2.09574 4.69663 0
M  V30 1017 N 97.4216 -1.9818 5.81032 0
M  V30 1018 C 98.7926 -1.81865 5.92727 0
M  V30 1019 C 100.848 -1.96048 4.57678 0
M  V30 1020 C 99.5506 -1.41992 7.05146 0
M  V30 1021 C 101.577 -1.57579 5.7002 0
M  V30 1022 C 100.939 -1.30754 6.92158 0
M  V30 1023 H 97.0376 -0.545896 0.55993 0
M  V30 1024 H 99.6216 -0.853373 1.75002 0
M  V30 1025 H 97.7926 -3.36657 1.93692 0
M  V30 1026 H 99.5246 -3.40916 2.18078 0
M  V30 1027 H 96.2796 -2.53456 4.00071 0
M  V30 1028 H 96.7036 -1.81691 6.52163 0
M  V30 1029 H 101.346 -2.15455 3.63784 0
M  V30 1030 H 99.0636 -1.21327 7.9894 0
M  V30 1031 H 102.65 -1.47718 5.62735 0
M  V30 1032 H 101.53 -1.01432 7.77612 0
M  V30 1033 N 99.0327 -1.24633 -0.964593 0
M  V30 1034 C 100.263 -1.11339 -1.74032 0
M  V30 1035 C 100.671 0.336593 -1.86182 0
M  V30 1036 O 100.014 1.24389 -1.35178 0
M  V30 1037 C 100.076 -1.68284 -3.1768 0
M  V30 1038 C 99.7397 -3.17196 -3.28992 0
M  V30 1039 C 100.737 -4.14308 -3.14078 0
M  V30 1040 C 98.4217 -3.57215 -3.53133 0
M  V30 1041 C 100.416 -5.4942 -3.23135 0
M  V30 1042 C 98.1027 -4.92468 -3.61827 0
M  V30 1043 C 99.1007 -5.8838 -3.46841 0
M  V30 1044 O 98.7887 -7.21173 -3.55197 0
M  V30 1045 H 98.5207 -0.389551 -0.552472 0
M  V30 1046 H 101.075 -1.65282 -1.21946 0
M  V30 1047 H 99.3047 -1.08777 -3.71085 0
M  V30 1048 H 100.994 -1.50234 -3.77074 0
M  V30 1049 H 101.76 -3.84731 -2.95308 0
M  V30 1050 H 97.6387 -2.83063 -3.63863 0
M  V30 1051 H 101.183 -6.24263 -3.11355 0
M  V30 1052 H 97.0797 -5.21714 -3.80111 0
M  V30 1053 H 97.8477 -7.29135 -3.71892 0
M  V30 1054 N 100.511 1.16574 -1.06058 0
M  V30 1055 C 101.741 1.90675 -0.795397 0
M  V30 1056 C 102.149 1.77547 0.653735 0
M  V30 1057 O 101.492 1.11611 1.45907 0
M  V30 1058 C 101.554 3.42011 -1.10764 0
M  V30 1059 C 101.218 3.78924 -2.55471 0
M  V30 1060 C 102.215 3.81042 -3.53699 0
M  V30 1061 C 99.8998 4.09626 -2.90708 0
M  V30 1062 C 101.894 4.13346 -4.85205 0
M  V30 1063 C 99.5808 4.41597 -4.22416 0
M  V30 1064 C 100.579 4.43436 -5.19474 0
M  V30 1065 O 100.267 4.74649 -6.48817 0
M  V30 1066 H 99.9988 0.611554 -0.288058 0
M  V30 1067 H 102.553 1.48711 -1.41683 0
M  V30 1068 H 100.783 3.84312 -0.429128 0
M  V30 1069 H 102.472 3.97384 -0.827077 0
M  V30 1070 H 103.238 3.57437 -3.27817 0
M  V30 1071 H 99.1168 4.07361 -2.15819 0
M  V30 1072 H 102.661 4.14696 -5.60957 0
M  V30 1073 H 98.5578 4.64667 -4.48056 0
M  V30 1074 H 99.3258 4.9247 -6.5377 0
M  V30 1075 N 101.989 0.842826 1.3317 0
M  V30 1076 C 103.217 0.454055 2.01856 0
M  V30 1077 C 103.632 -0.94587 1.63397 0
M  V30 1078 O 102.989 -1.61534 0.849302 0
M  V30 1079 C 103.04 0.569715 3.56982 0
M  V30 1080 O 102.761 1.91448 3.94055 0
M  V30 1081 C 104.262 0.178412 4.42941 0
M  V30 1082 H 101.482 0.17979 0.646465 0
M  V30 1083 H 104.026 1.1365 1.70012 0
M  V30 1084 H 102.181 -0.0648587 3.87346 0
M  V30 1085 H 102.595 1.90282 4.88767 0
M  V30 1086 H 104.069 0.310376 5.51127 0
M  V30 1087 H 104.546 -0.880056 4.30293 0
M  V30 1088 H 105.152 0.787579 4.17944 0
M  V30 1089 N 103.467 -1.45747 0.599634 0
M  V30 1090 C 104.377 -2.34262 -0.125888 0
M  V30 1091 C 105.393 -1.50768 -0.868625 0
M  V30 1092 O 106.569 -1.83592 -0.828003 0
M  V30 1093 C 103.634 -3.28252 -1.11587 0
M  V30 1094 C 102.695 -4.27651 -0.375956 0
M  V30 1095 C 101.928 -5.1715 -1.31877 0
M  V30 1096 O 102.151 -5.09916 -2.55621 0
M  V30 1097 O 101.085 -5.96286 -0.820157 0
M  V30 1098 H 104.911 -2.97688 0.601315 0
M  V30 1099 H 102.496 -1.44999 0.359934 0
M  V30 1100 H 104.378 -3.86191 -1.68626 0
M  V30 1101 H 103.053 -2.67401 -1.82424 0
M  V30 1102 H 101.96 -3.7335 0.236698 0
M  V30 1103 H 103.293 -4.91334 0.29177 0
M  V30 1104 N 104.945 -0.338344 -1.53925 0
M  V30 1105 C 106.222 0.314774 -1.93051 0
M  V30 1106 C 106.602 1.68669 -1.26941 0
M  V30 1107 O 105.95 2.24636 -0.418445 0
M  V30 1108 C 106.16 0.392249 -3.46789 0
M  V30 1109 C 107.508 0.645554 -4.19664 0
M  V30 1110 O 108.532 0.474575 -3.53024 0
M  V30 1111 O 107.391 0.976408 -5.37707 0
M  V30 1112 H 104.485 0.182598 -0.80659 0
M  V30 1113 H 107.031 -0.389141 -1.65178 0
M  V30 1114 H 105.803 -0.570702 -3.87116 0
M  V30 1115 H 105.426 1.14316 -3.80812 0
M  V30 1116 N 106.423 1.57458 -0.0668435 0
M  V30 1117 C 107.355 2.09413 0.931601 0
M  V30 1118 C 108.368 1.02522 1.26464 0
M  V30 1119 O 109.557 1.30049 1.22269 0
M  V30 1120 C 106.657 2.53537 2.24882 0
M  V30 1121 C 105.83 3.83944 2.09537 0
M  V30 1122 C 104.889 4.14214 3.2452 0
M  V30 1123 O 103.915 4.83891 2.9973 0
M  V30 1124 N 105.117 3.67367 4.49469 0
M  V30 1125 H 107.882 2.95699 0.488048 0
M  V30 1126 H 105.443 1.61462 0.119009 0
M  V30 1127 H 107.435 2.70853 3.00701 0
M  V30 1128 H 106.005 1.72415 2.60753 0
M  V30 1129 H 105.225 3.76057 1.18215 0
M  V30 1130 H 106.513 4.69312 1.96529 0
M  V30 1131 H 105.911 3.11068 4.72497 0
M  V30 1132 H 104.468 3.89891 5.2233 0
M  V30 1133 N 107.901 -0.206675 1.56239 0
M  V30 1134 C 108.864 -1.23976 1.92776 0
M  V30 1135 C 109.864 -1.39041 0.807729 0
M  V30 1136 O 111.054 -1.37051 1.0753 0
M  V30 1137 C 108.186 -2.61112 2.19165 0
M  V30 1138 H 109.379 -0.927764 2.85189 0
M  V30 1139 H 106.932 -0.447718 1.4975 0
M  V30 1140 H 107.667 -2.97386 1.29352 0
M  V30 1141 H 107.452 -2.51552 3.00772 0
M  V30 1142 H 108.942 -3.35633 2.48476 0
M  V30 1143 N 109.379 -1.50304 -0.473955 0
M  V30 1144 C 110.656 -1.51667 -1.23518 0
M  V30 1145 C 111.036 -0.259701 -2.09496 0
M  V30 1146 O 110.384 0.756986 -2.15597 0
M  V30 1147 C 110.594 -2.81082 -2.06868 0
M  V30 1148 C 111.942 -3.31631 -2.65153 0
M  V30 1149 O 112.966 -2.82384 -2.17113 0
M  V30 1150 O 111.825 -4.17471 -3.52675 0
M  V30 1151 H 108.919 -0.60822 -0.560355 0
M  V30 1152 H 111.465 -1.62592 -0.486011 0
M  V30 1153 H 110.237 -3.64041 -1.4349 0
M  V30 1154 H 109.86 -2.73146 -2.88924 0
M  V30 1155 N 110.857 0.726932 -1.39834 0
M  V30 1156 C 112.268 1.30558 -1.3346 0
M  V30 1157 C 112.619 1.962 -0.00273003 0
M  V30 1158 O 111.744 1.96826 0.899371 0
M  V30 1159 C 112.339 2.37404 -2.41713 0
M  V30 1160 C 110.898 2.90921 -2.38835 0
M  V30 1161 C 110.045 1.64578 -2.2318 0
M  V30 1162 H 112.996 0.523862 -1.49804 0
M  V30 1163 H 113.017 3.17984 -2.08966 0
M  V30 1164 H 112.529 1.89599 -3.38635 0
M  V30 1165 H 110.63 3.42985 -1.45575 0
M  V30 1166 H 110.743 3.43487 -3.33997 0
M  V30 1167 H 109.107 1.89219 -1.70494 0
M  V30 1168 H 109.89 1.18814 -3.22084 0
M  V30 1169 N 112.336 1.25143 0.95797 0
M  V30 1170 C 113.576 1.10893 1.71703 0
M  V30 1171 C 113.94 -0.34478 1.88879 0
M  V30 1172 O 115.141 -0.609014 2.6181 0
M  V30 1173 C 113.412 1.83889 3.06463 0
M  V30 1174 S 114.971 1.85491 3.97666 0
M  V30 1175 H 111.789 0.396428 0.590226 0
M  V30 1176 H 114.391 1.58618 1.14283 0
M  V30 1177 H 113.095 2.88756 2.9163 0
M  V30 1178 H 112.626 1.36538 3.68946 0
M  V30 1179 H 114.641 0.929553 4.87415 0
M  V30 1180 N 113.814 -1.1601 1.06675 0
M  V30 1181 C 114.746 -2.20115 0.638921 0
M  V30 1182 C 115.759 -1.59916 -0.305057 0
M  V30 1183 O 116.948 -1.78245 -0.0954446 0
M  V30 1184 C 114.048 -3.38798 -0.0830083 0
M  V30 1185 C 113.221 -4.2855 0.875426 0
M  V30 1186 C 112.28 -5.25849 0.192042 0
M  V30 1187 O 111.306 -5.63102 0.830921 0
M  V30 1188 N 112.508 -5.70648 -1.06493 0
M  V30 1189 H 115.273 -2.57439 1.53444 0
M  V30 1190 H 112.834 -1.31057 0.950557 0
M  V30 1191 H 114.826 -4.00936 -0.550685 0
M  V30 1192 H 113.396 -2.99947 -0.880386 0
M  V30 1193 H 112.616 -3.63617 1.52238 0
M  V30 1194 H 113.904 -4.85393 1.52548 0
M  V30 1195 H 113.302 -5.42482 -1.60405 0
M  V30 1196 H 111.859 -6.34859 -1.47641 0
M  V30 1197 N 115.292 -0.849877 -1.32721 0
M  V30 1198 C 116.703 -0.506188 -1.79707 0
M  V30 1199 C 117.054 0.975627 -1.70223 0
M  V30 1200 O 116.179 1.76078 -1.25799 0
M  V30 1201 C 116.774 -0.912044 -3.26293 0
M  V30 1202 C 115.333 -0.620326 -3.71253 0
M  V30 1203 C 114.48 -1.11439 -2.53922 0
M  V30 1204 H 117.431 -1.03754 -1.20087 0
M  V30 1205 H 117.452 -0.226493 -3.79825 0
M  V30 1206 H 116.964 -1.99057 -3.33164 0
M  V30 1207 H 115.065 0.447674 -3.69901 0
M  V30 1208 H 115.178 -1.18327 -4.64258 0
M  V30 1209 H 113.542 -0.534834 -2.49021 0
M  V30 1210 H 114.325 -2.19992 -2.6355 0
M  V30 1211 N 116.77 1.45427 -0.607355 0
M  V30 1212 C 117.718 2.32269 0.12411 0
M  V30 1213 C 118.712 1.45955 0.859854 0
M  V30 1214 O 119.918 1.6244 0.775447 0
M  V30 1215 H 116.293 0.749691 0.0588839 0
M  V30 1216 H 118.264 2.91743 -0.626762 0
M  V30 1217 C 117.013 3.29567 1.1082 0
M  V30 1218 H 116.336 3.95978 0.551492 0
M  V30 1219 H 117.776 3.93061 1.58995 0
M  V30 1220 C 116.235 2.56722 2.18164 0
M  V30 1221 O 116.765 2.34842 3.25902 0
M  V30 1222 N 114.971 2.16861 1.93442 0
M  V30 1223 H 114.518 2.34855 1.05834 0
M  V30 1224 H 114.476 1.68444 2.65469 0
M  V30 1225 N 118.248 0.346503 1.53744 0
M  V30 1226 C 119.659 -0.136779 1.86198 0
M  V30 1227 C 120.01 -1.49749 1.26766 0
M  V30 1228 O 119.135 -2.08417 0.582355 0
M  V30 1229 C 119.73 -0.254966 3.37839 0
M  V30 1230 C 118.289 -0.682482 3.70161 0
M  V30 1231 C 117.436 0.181981 2.76702 0
M  V30 1232 H 120.387 0.565994 1.48264 0
M  V30 1233 H 120.408 -1.08195 3.64793 0
M  V30 1234 H 119.92 0.735526 3.81066 0
M  V30 1235 H 118.021 -1.68189 3.3248 0
M  V30 1236 H 118.134 -0.470326 4.76786 0
M  V30 1237 H 116.498 -0.34615 2.52337 0
M  V30 1238 H 117.281 1.16966 3.2276 0
M  V30 1239 N 119.726 -1.57421 0.075193 0
M  V30 1240 C 120.966 -1.95495 -0.596757 0
M  V30 1241 C 121.33 -0.954886 -1.66571 0
M  V30 1242 O 122.531 -1.22341 -2.39345 0
M  V30 1243 C 120.802 -3.382 -1.15566 0
M  V30 1244 S 122.361 -3.98254 -1.84226 0
M  V30 1245 H 119.179 -0.683649 -0.195307 0
M  V30 1246 H 121.781 -1.94925 0.149859 0
M  V30 1247 H 120.485 -4.08766 -0.36588 0
M  V30 1248 H 120.016 -3.42321 -1.93856 0
M  V30 1249 H 122.031 -3.85435 -3.12497 0
M  V30 1250 N 121.204 0.198386 -1.56346 0
M  V30 1251 C 122.114 1.2664 -1.97483 0
M  V30 1252 C 123.13 1.49989 -0.882002 0
M  V30 1253 O 124.306 1.62668 -1.18748 0
M  V30 1254 C 121.371 2.59141 -2.30319 0
M  V30 1255 C 120.432 2.43892 -3.53292 0
M  V30 1256 C 119.665 3.70074 -3.84553 0
M  V30 1257 O 119.888 4.74101 -3.1715 0
M  V30 1258 O 118.822 3.658 -4.7799 0
M  V30 1259 H 122.648 0.947304 -2.88548 0
M  V30 1260 H 120.233 0.403123 -1.43859 0
M  V30 1261 H 122.115 3.37352 -2.5253 0
M  V30 1262 H 120.79 2.90684 -1.42423 0
M  V30 1263 H 119.697 1.63803 -3.36332 0
M  V30 1264 H 121.03 2.17282 -4.41644 0
M  V30 1265 N 122.682 1.50554 0.465978 0
M  V30 1266 C 123.632 1.66177 1.56106 0
M  V30 1267 C 124.616 0.516265 1.52393 0
M  V30 1268 O 125.808 0.770906 1.5933 0
M  V30 1269 C 122.937 1.76396 2.94515 0
M  V30 1270 C 122.023 2.9664 3.03093 0
M  V30 1271 N 122.414 4.20245 2.81474 0
M  V30 1272 C 120.712 2.95304 3.34233 0
M  V30 1273 C 121.413 5.01259 2.95151 0
M  V30 1274 N 120.389 4.35318 3.25576 0
M  V30 1275 H 124.191 2.59434 1.38099 0
M  V30 1276 H 121.705 1.47808 0.6728 0
M  V30 1277 H 123.702 1.85694 3.73261 0
M  V30 1278 H 122.362 0.843017 3.13565 0
M  V30 1279 H 123.373 4.4966 2.56956 0
M  V30 1280 H 120.05 2.12729 3.59239 0
M  V30 1281 H 121.44 6.09564 2.82632 0
M  V30 1282 N 124.16 -0.719506 1.40217 0
M  V30 1283 C 125.408 -1.47641 1.3801 0
M  V30 1284 C 125.729 -1.94992 -0.018145 0
M  V30 1285 O 124.999 -1.70073 -0.972207 0
M  V30 1286 H 123.579 -0.547744 0.507923 0
M  V30 1287 H 126.241 -0.853187 1.75233 0
M  V30 1288 H 125.337 -2.35112 2.05253 0
M  V30 1289 N 125.638 -1.25649 -0.95132 0
M  V30 1290 C 126.886 -1.10375 -1.69298 0
M  V30 1291 C 127.207 0.355339 -1.91735 0
M  V30 1292 O 126.477 1.25188 -1.50681 0
M  V30 1293 H 125.057 -0.405461 -0.627384 0
M  V30 1294 H 127.719 -1.57823 -1.14358 0
M  V30 1295 H 126.815 -1.61465 -2.67087 0
M  V30 1296 N 127.117 1.15442 -1.07289 0
M  V30 1297 C 128.394 1.82306 -0.708792 0
M  V30 1298 C 128.774 1.94991 0.808807 0
M  V30 1299 O 128.122 1.50085 1.72298 0
M  V30 1300 C 128.332 3.18695 -1.42247 0
M  V30 1301 C 129.68 3.94341 -1.57417 0
M  V30 1302 O 130.704 3.28247 -1.38319 0
M  V30 1303 O 129.563 5.12839 -1.88834 0
M  V30 1304 H 126.657 0.787628 -0.252132 0
M  V30 1305 H 129.203 1.22559 -1.17377 0
M  V30 1306 H 127.975 3.04557 -2.45684 0
M  V30 1307 H 127.598 3.86128 -0.948223 0
M  V30 1308 N 128.595 0.856903 1.32268 0
M  V30 1309 C 129.835 0.467705 1.98977 0
M  V30 1310 C 130.199 -0.959231 1.66321 0
M  V30 1311 O 131.4 -1.4531 2.26138 0
M  V30 1312 C 129.671 0.70256 3.50427 0
M  V30 1313 S 131.23 0.411269 4.36868 0
M  V30 1314 H 128.048 0.175121 0.689096 0
M  V30 1315 H 130.65 1.1101 1.60925 0
M  V30 1316 H 129.354 1.74012 3.71683 0
M  V30 1317 H 128.885 0.0466707 3.93372 0
M  V30 1318 H 130.9 -0.761799 4.90317 0
M  V30 1319 N 130.073 -1.45103 0.615059 0
M  V30 1320 C 131.003 -2.33339 -0.0865619 0
M  V30 1321 C 131.984 -1.4727 -0.851209 0
M  V30 1322 O 133.169 -1.76026 -0.820281 0
M  V30 1323 C 130.299 -3.30095 -1.07956 0
M  V30 1324 C 129.253 -4.25858 -0.427628 0
M  V30 1325 C 128.579 -5.12361 -1.5294 0
M  V30 1326 C 129.879 -5.18165 0.655944 0
M  V30 1327 H 131.573 -2.92254 0.650224 0
M  V30 1328 H 129.119 -1.40532 0.314138 0
M  V30 1329 H 131.072 -3.90698 -1.57901 0
M  V30 1330 H 129.796 -2.69355 -1.84703 0
M  V30 1331 H 128.455 -3.66564 0.0510292 0
M  V30 1332 H 128.103 -4.47984 -2.28734 0
M  V30 1333 H 127.803 -5.77238 -1.09865 0
M  V30 1334 H 129.327 -5.75833 -2.03098 0
M  V30 1335 H 130.741 -5.72796 0.240257 0
M  V30 1336 H 129.138 -5.91559 1.00888 0
M  V30 1337 H 130.208 -4.60144 1.52957 0
M  V30 1338 N 131.551 -0.354651 -1.53558 0
M  V30 1339 C 132.797 0.238797 -2.01389 0
M  V30 1340 C 133.13 1.49309 -1.2418 0
M  V30 1341 O 132.405 1.91638 -0.332457 0
M  V30 1342 C 132.688 0.541771 -3.56001 0
M  V30 1343 C 132.541 -0.725388 -4.43912 0
M  V30 1344 C 133.86 1.34685 -4.18984 0
M  V30 1345 H 130.979 0.0853177 -0.732045 0
M  V30 1346 H 133.621 -0.477384 -1.83905 0
M  V30 1347 H 131.771 1.15189 -3.71031 0
M  V30 1348 H 133.443 -1.36313 -4.407 0
M  V30 1349 H 131.686 -1.34801 -4.12324 0
M  V30 1350 H 132.357 -0.468505 -5.50008 0
M  V30 1351 H 134.833 0.830837 -4.07721 0
M  V30 1352 H 133.709 1.52759 -5.27215 0
M  V30 1353 H 133.97 2.35221 -3.74331 0
M  V30 1354 N 133.029 1.57378 -0.0835403 0
M  V30 1355 C 133.979 2.09916 0.889905 0
M  V30 1356 C 134.963 1.01151 1.25129 0
M  V30 1357 O 136.155 1.27443 1.2283 0
M  V30 1358 C 133.284 2.67379 2.15322 0
M  V30 1359 C 132.37 3.83167 1.81779 0
M  V30 1360 N 132.761 4.91665 1.18739 0
M  V30 1361 C 131.059 3.92685 2.11459 0
M  V30 1362 C 131.76 5.72409 1.0355 0
M  V30 1363 N 130.736 5.21062 1.54906 0
M  V30 1364 H 134.538 2.91188 0.398378 0
M  V30 1365 H 132.052 1.61956 0.120013 0
M  V30 1366 H 134.049 3.0334 2.8599 0
M  V30 1367 H 132.709 1.87558 2.65051 0
M  V30 1368 H 133.72 5.10784 0.855604 0
M  V30 1369 H 130.397 3.23856 2.63483 0
M  V30 1370 H 131.787 6.69699 0.543425 0
M  V30 1371 N 134.507 -0.190092 1.56449 0
M  V30 1372 C 135.755 -0.907908 1.80559 0
M  V30 1373 C 136.076 -1.83583 0.657438 0
M  V30 1374 O 135.346 -1.93203 -0.323924 0
M  V30 1375 H 133.926 -0.338247 0.666032 0
M  V30 1376 H 136.588 -0.194403 1.93928 0
M  V30 1377 H 135.684 -1.49604 2.73907 0
M  V30 1378 N 135.985 -1.50799 -0.457987 0
M  V30 1379 C 137.21 -1.66496 -1.23668 0
M  V30 1380 C 137.635 -0.353288 -1.84752 0
M  V30 1381 O 136.993 0.684346 -1.67888 0
M  V30 1382 C 137.041 -2.76763 -2.3116 0
M  V30 1383 O 136.145 -2.38928 -3.36136 0
M  V30 1384 H 135.486 -0.555828 -0.363252 0
M  V30 1385 H 138.016 -1.9725 -0.543474 0
M  V30 1386 H 138.026 -3.00232 -2.76269 0
M  V30 1387 H 136.701 -3.71954 -1.86073 0
M  V30 1388 H 135.278 -2.25953 -2.96647 0
M  V30 1389 N 137.463 0.71206 -1.40597 0
M  V30 1390 C 138.691 1.50111 -1.42388 0
M  V30 1391 C 139.106 1.88784 -0.0245395 0
M  V30 1392 O 138.463 1.55681 0.952351 0
M  V30 1393 C 138.514 2.7742 -2.31776 0
M  V30 1394 O 138.235 2.40382 -3.66262 0
M  V30 1395 C 139.736 3.7129 -2.42196 0
M  V30 1396 H 136.956 0.46314 -0.485533 0
M  V30 1397 H 139.5 0.878068 -1.8469 0
M  V30 1398 H 137.655 3.36001 -1.92827 0
M  V30 1399 H 138.069 3.22324 -4.13772 0
M  V30 1400 H 139.543 4.57448 -3.08943 0
M  V30 1401 H 140.02 4.14641 -1.44809 0
M  V30 1402 H 140.626 3.18619 -2.81712 0
M  V30 1403 N 138.941 1.26152 0.944643 0
M  V30 1404 C 140.188 1.11492 1.69044 0
M  V30 1405 C 140.516 -0.342366 1.91463 0
M  V30 1406 O 139.771 -1.26812 1.49054 0
M  V30 1407 C 140.07 1.82541 3.07268 0
M  V30 1408 C 139.736 3.32445 3.04616 0
M  V30 1409 C 138.398 3.73337 3.036 0
M  V30 1410 C 140.75 4.28171 2.97185 0
M  V30 1411 C 138.078 5.08348 2.92915 0
M  V30 1412 C 140.43 5.63218 2.88041 0
M  V30 1413 C 139.094 6.03426 2.85366 0
M  V30 1414 H 138.364 0.407977 0.618576 0
M  V30 1415 H 141.011 1.56551 1.10291 0
M  V30 1416 H 139.316 1.29941 3.69625 0
M  V30 1417 H 141.013 1.68642 3.63815 0
M  V30 1418 H 137.603 2.99915 3.06185 0
M  V30 1419 H 141.787 3.97563 2.97081 0
M  V30 1420 H 137.043 5.38667 2.89219 0
M  V30 1421 H 141.217 6.37078 2.81254 0
M  V30 1422 H 138.844 7.07999 2.76842 0
M  V30 1423 N 140.419 -1.14872 1.07899 0
M  V30 1424 C 141.647 -1.89661 0.82683 0
M  V30 1425 C 142.062 -1.78312 -0.620519 0
M  V30 1426 O 141.419 -1.13888 -1.42604 0
M  V30 1427 C 141.47 -3.39817 1.23316 0
M  V30 1428 O 141.191 -3.50845 2.62372 0
M  V30 1429 C 142.692 -4.31615 1.0111 0
M  V30 1430 H 139.912 -0.60092 0.298557 0
M  V30 1431 H 142.456 -1.4551 1.43691 0
M  V30 1432 H 140.611 -3.8161 0.667286 0
M  V30 1433 H 141.025 -4.44076 2.79101 0
M  V30 1434 H 142.499 -5.35367 1.34486 0
M  V30 1435 H 142.976 -4.39169 -0.0522168 0
M  V30 1436 H 143.582 -3.95572 1.56215 0
M  V30 1437 N 141.898 -0.863906 -1.31812 0
M  V30 1438 C 143.138 -0.47825 -1.98726 0
M  V30 1439 C 143.502 0.950397 -1.66828 0
M  V30 1440 O 144.703 1.44109 -2.26905 0
M  V30 1441 C 142.974 -0.721134 -3.50049 0
M  V30 1442 S 144.533 -0.434432 -4.36644 0
M  V30 1443 H 141.351 -0.178773 -0.688158 0
M  V30 1444 H 143.953 -1.11862 -1.60334 0
M  V30 1445 H 142.657 -1.75981 -3.70755 0
M  V30 1446 H 142.188 -0.0675315 -3.93342 0
M  V30 1447 H 144.203 0.735786 -4.90714 0
M  V30 1448 N 143.376 1.44774 -0.622745 0
M  V30 1449 C 144.601 2.06999 -0.128968 0
M  V30 1450 C 145.026 1.4617 1.1839 0
M  V30 1451 O 144.384 0.560007 1.72434 0
M  V30 1452 C 144.432 3.60595 -0.0188351 0
M  V30 1453 O 143.536 3.99398 1.02739 0
M  V30 1454 H 142.877 0.659047 -0.0809544 0
M  V30 1455 H 145.407 1.85784 -0.85705 0
M  V30 1456 H 145.417 4.07627 0.174476 0
M  V30 1457 H 144.092 4.04252 -0.977384 0
M  V30 1458 H 142.669 3.64011 0.809326 0
M  V30 1459 N 144.854 0.36279 1.53368 0
M  V30 1460 C 146.094 -0.227882 2.03126 0
M  V30 1461 C 146.458 -1.4622 1.24434 0
M  V30 1462 O 147.659 -2.12831 1.64184 0
M  V30 1463 C 145.93 -0.515427 3.53664 0
M  V30 1464 S 147.489 -1.08017 4.25297 0
M  V30 1465 H 144.307 -0.0665377 0.70788 0
M  V30 1466 H 146.909 0.50501 1.88865 0
M  V30 1467 H 145.613 0.390436 4.08539 0
M  V30 1468 H 145.144 -1.27747 3.72081 0
M  V30 1469 H 147.159 -2.36462 4.36234 0
M  V30 1470 N 146.332 -1.57332 0.0918853 0
M  V30 1471 C 147.262 -2.16872 -0.865371 0
M  V30 1472 C 148.243 -1.10118 -1.29646 0
M  V30 1473 O 149.428 -1.38242 -1.36392 0
M  V30 1474 C 146.558 -2.74649 -2.12569 0
M  V30 1475 C 145.512 -3.86747 -1.83333 0
M  V30 1476 C 144.838 -4.31212 -3.16166 0
M  V30 1477 C 146.138 -5.10089 -1.1228 0
M  V30 1478 H 147.832 -2.97114 -0.369307 0
M  V30 1479 H 145.378 -1.42918 -0.176194 0
M  V30 1480 H 147.331 -3.14952 -2.7997 0
M  V30 1481 H 146.055 -1.91657 -2.64452 0
M  V30 1482 H 144.714 -3.46978 -1.18331 0
M  V30 1483 H 144.362 -3.45115 -3.6593 0
M  V30 1484 H 144.062 -5.06788 -2.97388 0
M  V30 1485 H 145.586 -4.74146 -3.84731 0
M  V30 1486 H 147 -5.47582 -1.69785 0
M  V30 1487 H 145.397 -5.91073 -1.03693 0
M  V30 1488 H 146.467 -4.84786 -0.105041 0
M  V30 1489 N 147.81 0.181792 -1.56548 0
M  V30 1490 C 148.773 1.20894 -1.94724 0
M  V30 1491 C 149.773 1.37738 -0.829747 0
M  V30 1492 O 150.963 1.35323 -1.09697 0
M  V30 1493 C 148.095 2.57593 -2.23291 0
M  V30 1494 H 149.288 0.882275 -2.86629 0
M  V30 1495 H 146.841 0.423838 -1.50444 0
M  V30 1496 H 147.576 2.95291 -1.34067 0
M  V30 1497 H 147.361 2.46735 -3.04736 0
M  V30 1498 H 148.851 3.31637 -2.53785 0
M  V30 1499 N 149.288 1.51039 0.449983 0
M  V30 1500 C 150.699 1.557 1.03026 0
M  V30 1501 C 151.05 0.372939 1.92623 0
M  V30 1502 O 150.175 -0.511771 2.10261 0
M  V30 1503 C 150.77 2.82171 1.87523 0
M  V30 1504 C 149.329 2.89444 2.40622 0
M  V30 1505 C 148.476 2.50228 1.19504 0
M  V30 1506 H 151.427 1.56999 0.231745 0
M  V30 1507 H 151.448 2.65219 2.72835 0
M  V30 1508 H 150.96 3.68331 1.22286 0
M  V30 1509 H 149.061 2.07685 3.0935 0
M  V30 1510 H 149.174 3.92816 2.74285 0
M  V30 1511 H 147.538 2.03139 1.53644 0
M  V30 1512 H 148.321 3.38719 0.558972 0
M  V30 1513 N 150.766 -0.704594 1.40972 0
M  V30 1514 C 152.013 -1.46458 1.39844 0
M  V30 1515 C 152.341 -1.94499 0.00447594 0
M  V30 1516 O 151.596 -1.69275 -0.982057 0
M  V30 1517 C 151.895 -2.698 2.34399 0
M  V30 1518 C 151.561 -2.40464 3.81429 0
M  V30 1519 C 150.223 -2.32174 4.21484 0
M  V30 1520 C 152.575 -2.16086 4.74296 0
M  V30 1521 C 149.903 -1.97589 5.52427 0
M  V30 1522 C 152.255 -1.83011 6.05549 0
M  V30 1523 C 150.919 -1.7321 6.44635 0
M  V30 1524 H 150.189 -0.535927 0.511725 0
M  V30 1525 H 152.836 -0.806124 1.73706 0
M  V30 1526 H 151.141 -3.40536 1.93759 0
M  V30 1527 H 152.838 -3.27919 2.30804 0
M  V30 1528 H 149.428 -2.47808 3.49699 0
M  V30 1529 H 153.612 -2.2144 4.4416 0
M  V30 1530 H 148.868 -1.88547 5.81601 0
M  V30 1531 H 153.042 -1.63164 6.77016 0
M  V30 1532 H 150.669 -1.46179 7.46013 0
M  V30 1533 N 152.244 -1.26651 -0.937939 0
M  V30 1534 C 153.469 -1.15279 -1.72411 0
M  V30 1535 C 153.894 0.287866 -1.85884 0
M  V30 1536 O 153.252 1.20855 -1.35143 0
M  V30 1537 C 153.3 -1.83028 -3.10698 0
M  V30 1538 O 152.404 -1.12128 -3.96864 0
M  V30 1539 H 151.745 -0.401504 -0.528858 0
M  V30 1540 H 154.275 -1.67531 -1.1745 0
M  V30 1541 H 154.285 -1.89981 -3.6107 0
M  V30 1542 H 152.96 -2.87833 -3.00208 0
M  V30 1543 H 151.537 -1.13173 -3.55312 0
M  V30 1544 N 153.722 1.14298 -1.08507 0
M  V30 1545 C 154.97 1.84993 -0.813763 0
M  V30 1546 C 155.291 1.83405 0.662393 0
M  V30 1547 O 154.561 1.28319 1.48024 0
M  V30 1548 H 153.141 0.684966 -0.298045 0
M  V30 1549 H 155.803 1.385 -1.37126 0
M  V30 1550 H 154.899 2.89788 -1.15884 0
M  V30 1551 N 155.201 0.870884 1.31352 0
M  V30 1552 C 156.149 0.316445 2.30437 0
M  V30 1553 C 157.143 -0.568965 1.59559 0
M  V30 1554 O 158.349 -0.454964 1.74155 0
M  V30 1555 H 154.724 0.0836521 0.747333 0
M  V30 1556 H 156.695 1.16606 2.74673 0
M  V30 1557 C 155.444 -0.46635 3.44558 0
M  V30 1558 H 154.767 0.205687 3.99271 0
M  V30 1559 H 156.207 -0.819614 4.16003 0
M  V30 1560 C 154.666 -1.65797 2.9328 0
M  V30 1561 O 155.196 -2.75728 2.92125 0
M  V30 1562 N 153.402 -1.49041 2.4947 0
M  V30 1563 H 152.949 -0.59612 2.50608 0
M  V30 1564 H 152.907 -2.28911 2.15516 0
M  V30 1565 N 156.679 -1.44442 0.630414 0
M  V30 1566 C 157.626 -2.30678 -0.0749355 0
M  V30 1567 C 158.596 -1.4344 -0.837502 0
M  V30 1568 O 159.781 -1.72343 -0.818684 0
M  V30 1569 C 156.921 -3.28706 -1.05103 0
M  V30 1570 C 156.034 -4.31046 -0.286954 0
M  V30 1571 C 155.169 -5.16167 -1.2548 0
M  V30 1572 C 154.208 -6.10216 -0.479843 0
M  V30 1573 N 153.345 -6.88039 -1.39811 0
M  V30 1574 H 158.185 -2.90454 0.666386 0
M  V30 1575 H 155.722 -1.43107 0.340404 0
M  V30 1576 H 157.68 -3.84027 -1.63031 0
M  V30 1577 H 156.31 -2.70632 -1.75949 0
M  V30 1578 H 155.362 -3.78203 0.408243 0
M  V30 1579 H 156.674 -4.97794 0.316657 0
M  V30 1580 H 155.828 -5.76002 -1.90544 0
M  V30 1581 H 154.567 -4.49491 -1.89233 0
M  V30 1582 H 153.572 -5.49491 0.184295 0
M  V30 1583 H 154.797 -6.78928 0.152965 0
M  V30 1584 H 152.743 -6.24032 -2.02287 0
M  V30 1585 H 152.66 -7.51223 -0.848508 0
M  V30 1586 H 153.928 -7.52397 -2.03762 0
M  V30 1587 N 158.157 -0.370918 -1.53173 0
M  V30 1588 C 159.397 0.217106 -2.03244 0
M  V30 1589 C 159.761 1.45558 -1.25207 0
M  V30 1590 O 160.962 2.11957 -1.65311 0
M  V30 1591 C 159.233 0.496664 -3.53932 0
M  V30 1592 S 160.792 1.0576 -4.25864 0
M  V30 1593 H 157.61 0.0627827 -0.708223 0
M  V30 1594 H 160.212 -0.515019 -1.88594 0
M  V30 1595 H 158.916 -0.412096 -4.08326 0
M  V30 1596 H 158.447 1.25772 -3.72753 0
M  V30 1597 H 160.462 2.34145 -4.37482 0
M  V30 1598 N 159.635 1.57281 -0.100228 0
M  V30 1599 C 160.567 2.11342 0.886972 0
M  V30 1600 C 161.58 1.05182 1.24261 0
M  V30 1601 O 162.769 1.32613 1.19483 0
M  V30 1602 C 159.869 2.5825 2.19454 0
M  V30 1603 C 159.042 3.88302 2.01346 0
M  V30 1604 C 158.101 4.21004 3.15661 0
M  V30 1605 O 157.127 4.9014 2.89398 0
M  V30 1606 N 158.329 3.76818 4.41575 0
M  V30 1607 H 161.094 2.96668 0.425216 0
M  V30 1608 H 158.655 1.61678 0.0847334 0
M  V30 1609 H 160.647 2.7717 2.94888 0
M  V30 1610 H 159.217 1.77907 2.57037 0
M  V30 1611 H 158.437 3.7848 1.10212 0
M  V30 1612 H 159.725 4.73375 1.8653 0
M  V30 1613 H 159.123 3.2102 4.65792 0
M  V30 1614 H 157.68 4.00882 5.13942 0
M  V30 1615 N 161.113 -0.173488 1.56642 0
M  V30 1616 C 162.06 -1.21482 1.96242 0
M  V30 1617 C 163.03 -1.44104 0.826027 0
M  V30 1618 O 164.215 -1.5688 1.08597 0
M  V30 1619 C 161.355 -2.54964 2.32567 0
M  V30 1620 C 160.468 -2.39739 3.59373 0
M  V30 1621 C 159.603 -3.66072 3.84921 0
M  V30 1622 C 158.642 -3.45771 5.05083 0
M  V30 1623 N 157.779 -4.64169 5.26775 0
M  V30 1624 H 162.619 -0.870123 2.85014 0
M  V30 1625 H 160.156 -0.418245 1.41029 0
M  V30 1626 H 162.114 -3.32758 2.5165 0
M  V30 1627 H 160.744 -2.87433 1.46908 0
M  V30 1628 H 159.796 -1.53131 3.48217 0
M  V30 1629 H 161.108 -2.20683 4.47326 0
M  V30 1630 H 160.262 -4.52303 4.0436 0
M  V30 1631 H 159.001 -3.88105 2.9534 0
M  V30 1632 H 158.006 -2.57927 4.85545 0
M  V30 1633 H 159.231 -3.25163 5.96193 0
M  V30 1634 H 157.177 -4.86425 4.40144 0
M  V30 1635 H 157.094 -4.48019 6.08946 0
M  V30 1636 H 158.362 -5.51689 5.5069 0
M  V30 1637 N 162.591 -1.51276 -0.441967 0
M  V30 1638 C 163.837 -1.63958 -1.19355 0
M  V30 1639 C 164.17 -0.352543 -1.90973 0
M  V30 1640 O 163.445 0.647627 -1.83401 0
M  V30 1641 C 163.728 -2.83979 -2.21422 0
M  V30 1642 C 163.581 -4.22646 -1.53918 0
M  V30 1643 C 164.9 -2.99521 -3.22451 0
M  V30 1644 H 162.019 -0.596709 -0.432559 0
M  V30 1645 H 164.661 -1.83748 -0.483398 0
M  V30 1646 H 162.811 -2.67237 -2.81987 0
M  V30 1647 H 164.483 -4.51045 -0.967256 0
M  V30 1648 H 162.726 -4.25558 -0.841615 0
M  V30 1649 H 163.397 -5.02609 -2.28229 0
M  V30 1650 H 165.873 -3.14944 -2.71937 0
M  V30 1651 H 164.749 -3.85072 -3.91166 0
M  V30 1652 H 165.01 -2.11391 -3.88287 0
M  V30 1653 N 164.069 0.697108 -1.41344 0
M  V30 1654 C 165.001 1.8224 -1.39001 0
M  V30 1655 C 166.014 1.60152 -0.292428 0
M  V30 1656 O 167.203 1.69684 -0.554048 0
M  V30 1657 C 164.303 3.18976 -1.14489 0
M  V30 1658 C 163.476 3.68105 -2.36258 0
M  V30 1659 C 162.535 4.83506 -2.07625 0
M  V30 1660 O 161.561 4.95201 -2.8065 0
M  V30 1661 N 162.763 5.70637 -1.06555 0
M  V30 1662 H 165.528 1.84742 -2.35988 0
M  V30 1663 H 163.089 0.87937 -1.35936 0
M  V30 1664 H 165.081 3.93801 -0.932885 0
M  V30 1665 H 163.651 3.11508 -0.261043 0
M  V30 1666 H 162.871 2.84204 -2.7317 0
M  V30 1667 H 164.159 3.97667 -3.17393 0
M  V30 1668 H 163.557 5.63817 -0.461125 0
M  V30 1669 H 162.114 6.45368 -0.913444 0
M  V30 1670 N 165.547 1.27147 0.931209 0
M  V30 1671 C 166.495 1.09398 2.05268 0
M  V30 1672 C 167.489 0.0180591 1.6939 0
M  V30 1673 O 168.695 0.17551 1.79142 0
M  V30 1674 H 165.07 0.336986 0.672268 0
M  V30 1675 H 167.041 2.04416 2.17386 0
M  V30 1676 C 165.79 0.75424 3.39421 0
M  V30 1677 H 165.113 1.57404 3.67511 0
M  V30 1678 H 166.553 0.669903 4.18674 0
M  V30 1679 C 165.012 -0.541197 3.32525 0
M  V30 1680 O 165.542 -1.57664 3.69466 0
M  V30 1681 N 163.748 -0.535517 2.85623 0
M  V30 1682 H 163.295 0.307511 2.55758 0
M  V30 1683 H 163.253 -1.40236 2.81392 0
M  V30 1684 N 167.025 -1.13721 1.09112 0
M  V30 1685 C 168.253 -1.88773 0.846899 0
M  V30 1686 C 168.668 -1.7896 -0.601572 0
M  V30 1687 O 168.025 -1.15394 -1.41388 0
M  V30 1688 C 168.076 -3.3849 1.26913 0
M  V30 1689 O 167.797 -3.48043 2.66079 0
M  V30 1690 C 169.298 -4.30518 1.05682 0
M  V30 1691 H 166.518 -0.59772 0.304914 0
M  V30 1692 H 169.062 -1.43977 1.45227 0
M  V30 1693 H 167.217 -3.80881 0.707723 0
M  V30 1694 H 167.631 -4.4109 2.83795 0
M  V30 1695 H 169.105 -5.3391 1.40156 0
M  V30 1696 H 169.582 -4.392 -0.00563416 0
M  V30 1697 H 170.188 -3.93893 1.60402 0
M  V30 1698 N 168.503 -0.877838 -1.30888 0
M  V30 1699 C 169.743 -0.499301 -1.98208 0
M  V30 1700 C 170.107 0.932649 -1.67826 0
M  V30 1701 O 171.308 1.41694 -2.28421 0
M  V30 1702 C 169.579 -0.758221 -3.49265 0
M  V30 1703 S 171.138 -0.480719 -4.36159 0
M  V30 1704 H 167.956 -0.186062 -0.686223 0
M  V30 1705 H 170.558 -1.13556 -1.59139 0
M  V30 1706 H 169.262 -1.79903 -3.68867 0
M  V30 1707 H 168.793 -0.109247 -3.93248 0
M  V30 1708 H 170.808 0.683698 -4.91467 0
M  V30 1709 N 169.982 1.44106 -0.638065 0
M  V30 1710 C 170.929 2.30715 0.062701 0
M  V30 1711 C 171.899 1.43882 0.829883 0
M  V30 1712 O 173.084 1.72775 0.809532 0
M  V30 1713 C 170.224 3.29258 1.03358 0
M  V30 1714 C 169.337 4.31192 0.26409 0
M  V30 1715 C 168.472 5.16825 1.22741 0
M  V30 1716 C 167.511 6.10462 0.447475 0
M  V30 1717 N 166.648 6.8877 1.36161 0
M  V30 1718 H 171.488 2.90096 -0.681781 0
M  V30 1719 H 169.025 1.42925 -0.347988 0
M  V30 1720 H 170.983 3.84886 1.60992 0
M  V30 1721 H 169.613 2.71562 1.74511 0
M  V30 1722 H 168.665 3.77981 -0.428295 0
M  V30 1723 H 169.977 4.97619 -0.343052 0
M  V30 1724 H 169.131 5.77004 1.87487 0
M  V30 1725 H 167.87 4.50488 1.86847 0
M  V30 1726 H 166.875 5.49386 -0.213433 0
M  V30 1727 H 168.1 6.78837 -0.188968 0
M  V30 1728 H 166.046 6.25096 1.98975 0
M  V30 1729 H 165.963 7.51663 0.808656 0
M  V30 1730 H 167.231 7.53467 1.99769 0
M  V30 1731 N 171.46 0.379036 1.52974 0
M  V30 1732 C 172.737 -0.263479 1.93817 0
M  V30 1733 C 173.117 -1.65244 1.31368 0
M  V30 1734 O 172.465 -2.23448 0.477856 0
M  V30 1735 C 172.675 -0.300166 3.47707 0
M  V30 1736 C 174.023 -0.534061 4.21228 0
M  V30 1737 O 175.047 -0.38081 3.54159 0
M  V30 1738 O 173.906 -0.833501 5.40106 0
M  V30 1739 H 171 -0.161149 0.811147 0
M  V30 1740 H 173.546 0.432798 1.64088 0
M  V30 1741 H 172.318 0.673138 3.85467 0
M  V30 1742 H 171.941 -1.04179 3.83709 0
M  V30 1743 N 172.938 -1.57226 0.108567 0
M  V30 1744 C 173.886 -2.16002 -0.862885 0
M  V30 1745 C 174.88 -1.10644 -1.28274 0
M  V30 1746 O 176.086 -1.28966 -1.2557 0
M  V30 1747 H 172.461 -0.691148 -0.296342 0
M  V30 1748 H 174.432 -2.96427 -0.342575 0
M  V30 1749 C 173.181 -2.76576 -2.10716 0
M  V30 1750 H 172.504 -3.5734 -1.793 0
M  V30 1751 H 173.944 -3.21253 -2.76717 0
M  V30 1752 C 172.403 -1.73137 -2.89007 0
M  V30 1753 O 172.933 -1.17842 -3.84026 0
M  V30 1754 N 171.139 -1.43317 -2.52801 0
M  V30 1755 H 170.686 -1.88473 -1.75601 0
M  V30 1756 H 170.644 -0.743485 -3.05483 0
M  V30 1757 N 174.416 0.165178 -1.56732 0
M  V30 1758 C 175.827 0.727046 -1.71962 0
M  V30 1759 C 176.178 1.82508 -0.720078 0
M  V30 1760 O 175.303 2.16082 0.117242 0
M  V30 1761 C 175.898 1.32559 -3.11791 0
M  V30 1762 C 174.457 1.83422 -3.28684 0
M  V30 1763 C 173.604 0.715567 -2.67908 0
M  V30 1764 H 176.555 -0.0602896 -1.58585 0
M  V30 1765 H 176.576 2.19533 -3.10782 0
M  V30 1766 H 176.088 0.526195 -3.84516 0
M  V30 1767 H 174.189 2.65986 -2.60926 0
M  V30 1768 H 174.302 1.97543 -4.36478 0
M  V30 1769 H 172.666 1.13758 -2.27884 0
M  V30 1770 H 173.449 -0.0720836 -3.43224 0
M  V30 1771 N 175.894 1.51508 0.433938 0
M  V30 1772 C 177.134 1.66006 1.19253 0
M  V30 1773 C 177.498 0.369868 1.88404 0
M  V30 1774 O 178.699 0.39066 2.65946 0
M  V30 1775 C 176.97 2.83229 2.17981 0
M  V30 1776 S 178.529 3.18075 3.02281 0
M  V30 1777 H 175.347 0.584821 0.404358 0
M  V30 1778 H 177.949 1.89425 0.48357 0
M  V30 1779 H 176.653 3.75407 1.65824 0
M  V30 1780 H 176.184 2.6201 2.93453 0
M  V30 1781 H 178.199 2.64772 4.19655 0
M  V30 1782 N 177.372 -0.689602 1.41712 0
M  V30 1783 C 178.62 -1.4468 1.4111 0
M  V30 1784 C 178.941 -1.94986 0.0232196 0
M  V30 1785 O 178.211 -1.72097 -0.935913 0
M  V30 1786 H 176.791 -0.536847 0.519427 0
M  V30 1787 H 179.453 -0.815825 1.77004 0
M  V30 1788 H 178.549 -2.30706 2.10193 0
M  V30 1789 N 178.85 -1.27639 -0.924453 0
M  V30 1790 C 180.266 -1.05113 -1.20097 0
M  V30 1791 C 180.466 0.213262 -2.00368 0
M  V30 1792 O 179.522 0.91787 -2.35226 0
M  V30 1793 C 180.835 -2.29244 -1.94596 0
M  V30 1794 C 182.383 -2.34315 -2.07522 0
M  V30 1795 C 182.858 -3.58183 -2.85427 0
M  V30 1796 N 184.349 -3.5876 -2.92994 0
M  V30 1797 C 185.084 -4.51277 -3.53746 0
M  V30 1798 N 184.58 -5.54102 -4.15863 0
M  V30 1799 N 186.373 -4.38894 -3.51181 0
M  V30 1800 H 178.524 -2.08821 -0.388264 0
M  V30 1801 H 180.787 -0.918568 -0.234385 0
M  V30 1802 H 180.493 -3.21301 -1.43034 0
M  V30 1803 H 180.367 -2.34816 -2.95197 0
M  V30 1804 H 182.754 -1.42762 -2.58269 0
M  V30 1805 H 182.835 -2.32744 -1.06131 0
M  V30 1806 H 182.479 -4.50074 -2.35363 0
M  V30 1807 H 182.409 -3.57006 -3.8711 0
M  V30 1808 H 184.9 -2.84398 -2.4885 0
M  V30 1809 H 185.213 -6.20859 -4.60168 0
M  V30 1810 H 183.558 -5.57941 -4.144 0
M  V30 1811 H 186.749 -3.57772 -3.01856 0
M  V30 1812 H 186.922 -5.11186 -3.98237 0
M  V30 1813 N 180.328 1.1314 -1.09713 0
M  V30 1814 C 181.576 1.84119 -0.833338 0
M  V30 1815 C 181.897 1.84097 0.642904 0
M  V30 1816 O 181.167 1.29881 1.46655 0
M  V30 1817 H 179.747 0.681766 -0.305293 0
M  V30 1818 H 182.409 1.37038 -1.38588 0
M  V30 1819 H 181.505 2.88543 -1.18951 0
M  V30 1820 N 181.806 0.884767 1.30421 0
M  V30 1821 C 182.738 0.308655 2.27112 0
M  V30 1822 C 183.751 -0.536655 1.53701 0
M  V30 1823 O 184.94 -0.35624 1.74909 0
M  V30 1824 C 182.04 -0.579782 3.33904 0
M  V30 1825 C 181.213 0.236417 4.36761 0
M  V30 1826 C 180.272 -0.582482 5.22966 0
M  V30 1827 O 179.298 -0.00525502 5.692 0
M  V30 1828 N 180.5 -1.89163 5.48815 0
M  V30 1829 H 183.265 1.13964 2.77186 0
M  V30 1830 H 180.826 0.747731 1.43599 0
M  V30 1831 H 182.818 -1.13366 3.88497 0
M  V30 1832 H 181.388 -1.31144 2.83761 0
M  V30 1833 H 180.608 0.97174 3.82035 0
M  V30 1834 H 181.896 0.795924 5.02536 0
M  V30 1835 H 181.294 -2.38352 5.13035 0
M  V30 1836 H 179.851 -2.39296 6.06284 0
M  V30 1837 N 183.284 -1.43765 0.645699 0
M  V30 1838 C 184.524 -2.03776 0.159542 0
M  V30 1839 C 184.888 -1.49792 -1.2011 0
M  V30 1840 O 186.089 -2.01398 -1.78023 0
M  V30 1841 C 184.36 -3.57036 0.161251 0
M  V30 1842 S 185.919 -4.3804 -0.258159 0
M  V30 1843 H 182.737 -0.707717 0.0682454 0
M  V30 1844 H 185.339 -1.75941 0.852352 0
M  V30 1845 H 184.043 -3.9383 1.15439 0
M  V30 1846 H 183.574 -3.89503 -0.552339 0
M  V30 1847 H 185.589 -4.7302 -1.49889 0
M  V30 1848 N 184.763 -0.387143 -1.52771 0
M  V30 1849 C 185.693 0.440551 -2.29306 0
M  V30 1850 C 186.674 1.06535 -1.32606 0
M  V30 1851 O 187.859 1.07853 -1.61497 0
M  V30 1852 C 184.989 1.56919 -3.09829 0
M  V30 1853 C 183.943 1.07054 -4.14395 0
M  V30 1854 C 183.269 2.29109 -4.83129 0
M  V30 1855 C 184.569 0.140015 -5.22112 0
M  V30 1856 H 186.263 -0.198026 -2.98744 0
M  V30 1857 H 183.809 -0.09668 -1.43675 0
M  V30 1858 H 185.762 2.15503 -3.62128 0
M  V30 1859 H 184.486 2.23532 -2.3812 0
M  V30 1860 H 183.145 0.507247 -3.63074 0
M  V30 1861 H 182.793 2.94227 -4.0797 0
M  V30 1862 H 182.493 1.96406 -5.53804 0
M  V30 1863 H 184.017 2.88339 -5.38231 0
M  V30 1864 H 185.431 0.633978 -5.69784 0
M  V30 1865 H 183.828 -0.0971485 -6.00021 0
M  V30 1866 H 184.898 -0.811711 -4.78058 0
M  V30 1867 N 186.241 1.57166 -0.116904 0
M  V30 1868 C 187.49 1.94298 0.541407 0
M  V30 1869 C 187.803 1.00236 1.67964 0
M  V30 1870 O 189.009 1.26826 2.40057 0
M  V30 1871 C 187.465 3.45306 1.01449 0
M  V30 1872 C 187.073 4.47899 -0.0951738 0
M  V30 1873 C 188.817 3.91361 1.6443 0
M  V30 1874 C 186.724 5.90083 0.394491 0
M  V30 1875 H 185.654 0.725308 0.206019 0
M  V30 1876 H 188.305 1.82446 -0.196419 0
M  V30 1877 H 186.687 3.52385 1.80667 0
M  V30 1878 H 187.861 4.52486 -0.871374 0
M  V30 1879 H 186.176 4.11583 -0.631505 0
M  V30 1880 H 188.773 4.95004 2.02176 0
M  V30 1881 H 189.116 3.3122 2.52189 0
M  V30 1882 H 189.649 3.87073 0.917559 0
M  V30 1883 H 186.388 6.53974 -0.447004 0
M  V30 1884 H 185.908 5.88921 1.13722 0
M  V30 1885 H 187.587 6.41307 0.856399 0
M  V30 1886 N 187.719 -0.156864 1.56817 0
M  V30 1887 C 188.947 -0.886316 1.86955 0
M  V30 1888 C 189.362 -1.75185 0.703975 0
M  V30 1889 O 188.719 -1.79555 -0.326552 0
M  V30 1890 C 188.77 -1.75117 3.16253 0
M  V30 1891 O 188.491 -0.920537 4.2832 0
M  V30 1892 C 189.992 -2.58905 3.59837 0
M  V30 1893 H 187.212 -0.25678 0.619923 0
M  V30 1894 H 189.756 -0.152615 2.0393 0
M  V30 1895 H 187.911 -2.43805 3.01062 0
M  V30 1896 H 188.325 -1.51337 5.02192 0
M  V30 1897 H 189.799 -3.1518 4.53172 0
M  V30 1898 H 190.276 -3.34472 2.84649 0
M  V30 1899 H 190.882 -1.95526 3.7769 0
M  V30 1900 N 189.197 -1.51736 -0.425897 0
M  V30 1901 C 190.129 -1.70083 -1.53638 0
M  V30 1902 C 191.142 -0.581349 -1.52066 0
M  V30 1903 O 192.331 -0.856017 -1.56635 0
M  V30 1904 C 189.431 -1.71078 -2.9255 0
M  V30 1905 C 188.604 -2.99795 -3.185 0
M  V30 1906 C 187.663 -2.92825 -4.37196 0
M  V30 1907 O 186.689 -3.66756 -4.35291 0
M  V30 1908 N 187.891 -2.0946 -5.41393 0
M  V30 1909 H 190.656 -2.65882 -1.383 0
M  V30 1910 H 188.217 -1.49765 -0.614988 0
M  V30 1911 H 190.209 -1.63969 -3.69995 0
M  V30 1912 H 188.779 -0.828242 -3.01428 0
M  V30 1913 H 187.999 -3.20684 -2.2925 0
M  V30 1914 H 189.287 -3.84977 -3.32671 0
M  V30 1915 H 188.685 -1.48792 -5.45781 0
M  V30 1916 H 187.242 -2.08221 -6.17647 0
M  V30 1917 N 190.675 0.682077 -1.42076 0
M  V30 1918 C 191.9 1.47558 -1.45744 0
M  V30 1919 C 192.325 1.87977 -0.0680981 0
M  V30 1920 O 191.683 1.55522 0.9318 0
M  V30 1921 C 191.731 2.70575 -2.38373 0
M  V30 1922 O 190.835 3.68573 -1.85007 0
M  V30 1923 H 190.176 0.443585 -0.494093 0
M  V30 1924 H 192.706 0.837238 -1.86686 0
M  V30 1925 H 192.716 3.18729 -2.54707 0
M  V30 1926 H 191.391 2.40495 -3.39315 0
M  V30 1927 H 189.968 3.2757 -1.78192 0
M  V30 1928 N 192.153 1.28127 0.917671 0
M  V30 1929 C 193.564 1.13622 1.48145 0
M  V30 1930 C 193.915 -0.275207 1.9426 0
M  V30 1931 O 193.04 -1.1691 1.82102 0
M  V30 1932 C 193.635 2.05648 2.69248 0
M  V30 1933 C 192.194 1.95219 3.21818 0
M  V30 1934 C 191.341 1.97618 1.94532 0
M  V30 1935 H 194.292 1.40874 0.730772 0
M  V30 1936 H 194.313 1.61818 3.44377 0
M  V30 1937 H 193.825 3.08365 2.35653 0
M  V30 1938 H 191.926 0.955244 3.60147 0
M  V30 1939 H 192.039 2.81976 3.87333 0
M  V30 1940 H 190.403 1.41973 2.11461 0
M  V30 1941 H 191.186 3.02007 1.63238 0
M  V30 1942 N 193.631 -1.12557 1.10312 0
M  V30 1943 C 195.042 -1.65574 0.862678 0
M  V30 1944 C 195.393 -1.86566 -0.607256 0
M  V30 1945 O 194.518 -1.59121 -1.46662 0
M  V30 1946 C 195.113 -3.00776 1.55947 0
M  V30 1947 C 193.672 -3.50748 1.36576 0
M  V30 1948 C 192.819 -2.25797 1.60968 0
M  V30 1949 H 195.77 -0.963552 1.26101 0
M  V30 1950 H 195.791 -3.67185 0.997753 0
M  V30 1951 H 195.303 -2.85465 2.62928 0
M  V30 1952 H 193.404 -3.71245 0.317531 0
M  V30 1953 H 193.517 -4.30289 2.10686 0
M  V30 1954 H 191.881 -2.32841 1.03234 0
M  V30 1955 H 192.664 -2.13043 2.69198 0
M  V30 1956 N 195.109 -0.891671 -1.2995 0
M  V30 1957 C 196.339 -0.527893 -1.99742 0
M  V30 1958 C 196.747 0.88979 -1.66971 0
M  V30 1959 O 196.09 1.59766 -0.906667 0
M  V30 1960 C 196.152 -0.630804 -3.53922 0
M  V30 1961 C 195.816 -2.01401 -4.10228 0
M  V30 1962 C 196.813 -2.98422 -4.25724 0
M  V30 1963 C 194.498 -2.32121 -4.45449 0
M  V30 1964 C 196.492 -4.24293 -4.75662 0
M  V30 1965 C 194.179 -3.58237 -4.95086 0
M  V30 1966 C 195.177 -4.54137 -5.10146 0
M  V30 1967 O 194.865 -5.78014 -5.58708 0
M  V30 1968 H 194.597 -0.201953 -0.645129 0
M  V30 1969 H 197.151 -1.20076 -1.66646 0
M  V30 1970 H 195.381 0.0990616 -3.86573 0
M  V30 1971 H 197.07 -0.277338 -4.04951 0
M  V30 1972 H 197.836 -2.76001 -3.98809 0
M  V30 1973 H 193.715 -1.5824 -4.32991 0
M  V30 1974 H 197.259 -4.99153 -4.87332 0
M  V30 1975 H 193.156 -3.80491 -5.21437 0
M  V30 1976 H 193.924 -5.8049 -5.77039 0
M  V30 1977 N 196.587 1.43421 -0.653314 0
M  V30 1978 C 197.817 2.05864 -0.174238 0
M  V30 1979 C 198.225 1.49052 1.16534 0
M  V30 1980 O 197.568 0.616481 1.73047 0
M  V30 1981 C 197.63 3.59499 -0.00875873 0
M  V30 1982 C 197.294 4.38893 -1.27364 0
M  V30 1983 C 198.291 4.70947 -2.20239 0
M  V30 1984 C 195.976 4.789 -1.51525 0
M  V30 1985 C 197.97 5.41916 -3.35568 0
M  V30 1986 C 195.657 5.49614 -2.67147 0
M  V30 1987 C 196.655 5.81044 -3.58994 0
M  V30 1988 O 196.343 6.50313 -4.72597 0
M  V30 1989 H 196.075 0.670345 -0.0872549 0
M  V30 1990 H 198.629 1.84913 -0.894226 0
M  V30 1991 H 196.859 3.79025 0.7666 0
M  V30 1992 H 198.548 4.0364 0.427687 0
M  V30 1993 H 199.314 4.40558 -2.02815 0
M  V30 1994 H 195.193 4.53843 -0.809158 0
M  V30 1995 H 198.737 5.66365 -4.07279 0
M  V30 1996 H 194.634 5.79419 -2.84505 0
M  V30 1997 H 195.402 6.68795 -4.71864 0
M  V30 1998 N 198.065 0.39524 1.52563 0
M  V30 1999 C 199.481 0.0454682 1.59535 0
M  V30 2000 C 199.681 -1.44056 1.4089 0
M  V30 2001 O 198.737 -2.20579 1.22888 0
M  V30 2002 C 200.05 0.527963 2.96029 0
M  V30 2003 C 201.598 0.484733 3.09224 0
M  V30 2004 C 202.073 0.943512 4.48176 0
M  V30 2005 N 203.564 0.899765 4.54377 0
M  V30 2006 C 204.299 1.22609 5.60138 0
M  V30 2007 N 203.795 1.62319 6.73516 0
M  V30 2008 N 205.588 1.14696 5.50274 0
M  V30 2009 H 197.739 1.36261 1.62931 0
M  V30 2010 H 200.002 0.558887 0.765735 0
M  V30 2011 H 199.708 1.56607 3.14908 0
M  V30 2012 H 199.582 -0.0698056 3.77135 0
M  V30 2013 H 201.969 -0.544298 2.90037 0
M  V30 2014 H 202.05 1.11838 2.30056 0
M  V30 2015 H 201.694 1.9708 4.68104 0
M  V30 2016 H 201.624 0.286817 5.25818 0
M  V30 2017 H 204.115 0.607632 3.72983 0
M  V30 2018 H 204.428 1.85567 7.5019 0
M  V30 2019 H 202.773 1.66211 6.74833 0
M  V30 2020 H 205.964 0.835701 4.6058 0
M  V30 2021 H 206.137 1.40459 6.32594 0
M  V30 2022 N 199.544 -1.57102 0.125237 0
M  V30 2023 C 200.784 -1.97294 -0.534259 0
M  V30 2024 C 201.148 -1.0074 -1.63449 0
M  V30 2025 O 202.349 -1.29893 -2.35332 0
M  V30 2026 C 200.62 -3.41705 -1.04748 0
M  V30 2027 S 202.179 -4.03913 -1.71463 0
M  V30 2028 H 198.997 -0.689517 -0.173458 0
M  V30 2029 H 201.599 -1.94349 0.211797 0
M  V30 2030 H 200.303 -4.09723 -0.235649 0
M  V30 2031 H 199.834 -3.48315 -1.82867 0
M  V30 2032 H 201.849 -3.95182 -3.00077 0
M  V30 2033 N 201.022 0.148545 -1.56898 0
M  V30 2034 C 202.268 0.862694 -1.83536 0
M  V30 2035 C 202.601 1.80889 -0.706604 0
M  V30 2036 O 201.876 1.92328 0.289885 0
M  V30 2037 C 202.159 1.63853 -3.20662 0
M  V30 2038 C 202.012 0.713925 -4.44098 0
M  V30 2039 C 203.331 2.60133 -3.54991 0
M  V30 2040 H 200.45 0.312179 -0.667618 0
M  V30 2041 H 203.092 0.127953 -1.89569 0
M  V30 2042 H 201.242 2.26489 -3.1565 0
M  V30 2043 H 202.914 0.098686 -4.61194 0
M  V30 2044 H 201.157 0.0234019 -4.33794 0
M  V30 2045 H 201.828 1.29278 -5.36648 0
M  V30 2046 H 204.304 2.07616 -3.60603 0
M  V30 2047 H 203.18 3.11468 -4.51972 0
M  V30 2048 H 203.441 3.41417 -2.80868 0
M  V30 2049 N 202.5 1.5196 0.417844 0
M  V30 2050 C 203.74 1.67262 1.17486 0
M  V30 2051 C 204.104 0.38983 1.88001 0
M  V30 2052 O 205.305 0.418845 2.65517 0
M  V30 2053 C 203.576 2.85526 2.14965 0
M  V30 2054 S 205.135 3.21263 2.98891 0
M  V30 2055 H 201.953 0.589077 0.398132 0
M  V30 2056 H 204.555 1.89927 0.463452 0
M  V30 2057 H 203.259 3.77145 1.61833 0
M  V30 2058 H 202.79 2.65107 2.90657 0
M  V30 2059 H 204.805 2.69208 4.16823 0
M  V30 2060 N 203.978 -0.674533 1.42435 0
M  V30 2061 C 204.925 -1.78807 1.45934 0
M  V30 2062 C 205.895 -1.63157 0.311271 0
M  V30 2063 O 207.08 -1.83707 0.515383 0
M  V30 2064 C 204.22 -3.16839 1.36773 0
M  V30 2065 C 203.333 -3.43774 2.61617 0
M  V30 2066 C 202.468 -4.71536 2.44597 0
M  V30 2067 C 201.507 -4.91505 3.64814 0
M  V30 2068 N 200.644 -6.10508 3.46734 0
M  V30 2069 H 205.484 -1.75151 2.41093 0
M  V30 2070 H 203.021 -0.85504 1.19697 0
M  V30 2071 H 204.979 -3.96606 1.29459 0
M  V30 2072 H 203.609 -3.19619 0.452089 0
M  V30 2073 H 202.661 -2.58259 2.79297 0
M  V30 2074 H 203.973 -3.54423 3.50978 0
M  V30 2075 H 203.127 -5.59393 2.3487 0
M  V30 2076 H 201.866 -4.6317 1.52726 0
M  V30 2077 H 200.871 -4.0209 3.74972 0
M  V30 2078 H 202.096 -5.01716 4.57665 0
M  V30 2079 H 200.042 -6.03315 2.5758 0
M  V30 2080 H 199.959 -6.2202 4.29682 0
M  V30 2081 H 201.227 -7.01044 3.40819 0
M  V30 2082 N 205.456 -1.28612 -0.910864 0
M  V30 2083 C 206.406 -1.09423 -2.00026 0
M  V30 2084 C 207.39 -0.0170079 -1.60891 0
M  V30 2085 O 208.582 -0.237472 -1.754 0
M  V30 2086 C 205.711 -0.76114 -3.34756 0
M  V30 2087 C 204.797 -1.87735 -3.80285 0
M  V30 2088 N 205.188 -3.11938 -3.98156 0
M  V30 2089 C 203.486 -1.76786 -4.09467 0
M  V30 2090 C 204.187 -3.84687 -4.36338 0
M  V30 2091 N 203.163 -3.12555 -4.44759 0
M  V30 2092 H 206.965 -2.03658 -2.11898 0
M  V30 2093 H 204.479 -1.19573 -1.09891 0
M  V30 2094 H 206.476 -0.604743 -4.12491 0
M  V30 2095 H 205.136 0.173403 -3.24237 0
M  V30 2096 H 206.147 -3.47516 -3.83996 0
M  V30 2097 H 202.824 -0.905284 -4.07567 0
M  V30 2098 H 204.214 -4.91518 -4.58104 0
M  V30 2099 N 206.934 1.1197 -1.10907 0
M  V30 2100 C 208.345 1.65114 -0.871446 0
M  V30 2101 C 208.696 1.86885 0.597353 0
M  V30 2102 O 207.821 1.59896 1.45816 0
M  V30 2103 C 208.416 2.99944 -1.5754 0
M  V30 2104 C 206.975 3.50018 -1.38435 0
M  V30 2105 C 206.122 2.24941 -1.62164 0
M  V30 2106 H 209.073 0.956851 -1.2661 0
M  V30 2107 H 209.094 3.66651 -1.01721 0
M  V30 2108 H 208.606 2.84067 -2.64438 0
M  V30 2109 H 206.707 3.71071 -0.337214 0
M  V30 2110 H 206.82 4.29165 -2.12965 0
M  V30 2111 H 205.184 2.3229 -1.04467 0
M  V30 2112 H 205.967 2.11612 -2.70324 0
M  V30 2113 N 208.412 0.89855 1.29475 0
M  V30 2114 C 209.642 0.538479 1.99459 0
M  V30 2115 C 210.05 -0.880922 1.67441 0
M  V30 2116 O 209.393 -1.59283 0.915127 0
M  V30 2117 C 209.455 0.649564 3.53583 0
M  V30 2118 C 209.119 2.03573 4.09154 0
M  V30 2119 C 210.116 3.00675 4.24135 0
M  V30 2120 C 207.801 2.3448 4.44212 0
M  V30 2121 C 209.795 4.26809 4.73405 0
M  V30 2122 C 207.482 3.60857 4.93179 0
M  V30 2123 C 208.48 4.56836 5.0773 0
M  V30 2124 O 208.168 5.80969 5.55635 0
M  V30 2125 H 207.9 0.205372 0.644048 0
M  V30 2126 H 210.454 1.20958 1.66007 0
M  V30 2127 H 208.684 -0.0785592 3.8662 0
M  V30 2128 H 210.373 0.29881 4.04799 0
M  V30 2129 H 211.139 2.78112 3.97339 0
M  V30 2130 H 207.018 1.60534 4.32145 0
M  V30 2131 H 210.562 5.0173 4.84678 0
M  V30 2132 H 206.459 3.83251 5.19412 0
M  V30 2133 H 207.227 5.83542 5.73952 0
M  V30 2134 N 209.89 -1.43072 0.660911 0
M  V30 2135 C 211.118 -2.06067 0.185422 0
M  V30 2136 C 211.533 -1.49582 -1.15198 0
M  V30 2137 O 210.89 -0.630134 -1.71276 0
M  V30 2138 C 210.941 -3.61371 0.0966523 0
M  V30 2139 O 210.662 -4.15758 1.38119 0
M  V30 2140 C 212.163 -4.41455 -0.403996 0
M  V30 2141 H 209.383 -0.664459 0.0934604 0
M  V30 2142 H 211.927 -1.83447 0.90373 0
M  V30 2143 H 210.082 -3.8315 -0.572259 0
M  V30 2144 H 210.496 -5.09499 1.24542 0
M  V30 2145 H 211.97 -5.50437 -0.415045 0
M  V30 2146 H 212.447 -4.15036 -1.43674 0
M  V30 2147 H 213.053 -4.24663 0.232691 0
M  V30 2148 N 211.368 -0.403325 -1.52352 0
M  V30 2149 C 212.616 0.174003 -2.0135 0
M  V30 2150 C 212.937 1.46139 -1.29106 0
M  V30 2151 O 212.207 1.91448 -0.415253 0
M  V30 2152 H 210.787 0.0672911 -0.743963 0
M  V30 2153 H 213.449 -0.538235 -1.87321 0
M  V30 2154 H 212.545 0.374254 -3.09848 0
M  V30 2155 N 212.846 1.57033 -0.133567 0
M  V30 2156 C 214.257 1.82593 0.389464 0
M  V30 2157 C 214.608 1.05156 1.6564 0
M  V30 2158 O 213.733 0.292644 2.14412 0
M  V30 2159 C 214.328 3.31204 0.713377 0
M  V30 2160 C 212.887 3.57393 1.18098 0
M  V30 2161 C 212.034 2.76598 0.197126 0
M  V30 2162 H 214.985 1.54598 -0.358481 0
M  V30 2163 H 215.006 3.46627 1.56939 0
M  V30 2164 H 214.518 3.87537 -0.2089 0
M  V30 2165 H 212.619 3.06433 2.11966 0
M  V30 2166 H 212.732 4.65915 1.11624 0
M  V30 2167 H 211.096 2.45257 0.687088 0
M  V30 2168 H 211.879 3.35697 -0.718504 0
M  V30 2169 N 214.325 -0.140222 1.56975 0
M  V30 2170 C 215.55 -0.870414 1.88251 0
M  V30 2171 C 215.975 -1.73637 0.723312 0
M  V30 2172 O 215.333 -1.78329 -0.32689 0
M  V30 2173 C 215.381 -1.69737 3.18154 0
M  V30 2174 O 214.485 -2.80229 3.02565 0
M  V30 2175 H 213.826 -0.242025 0.61832 0
M  V30 2176 H 216.356 -0.128999 2.04193 0
M  V30 2177 H 216.366 -2.09099 3.50345 0
M  V30 2178 H 215.041 -1.06152 4.02125 0
M  V30 2179 H 213.618 -2.44224 2.81796 0
M  V30 2180 N 215.803 -1.52179 -0.40978 0
M  V30 2181 C 217.043 -1.67882 -1.16597 0
M  V30 2182 C 217.407 -0.399795 -1.87791 0
M  V30 2183 O 218.608 -0.43292 -2.65291 0
M  V30 2184 C 216.879 -2.86662 -2.13448 0
M  V30 2185 S 218.438 -3.22843 -2.97183 0
M  V30 2186 H 215.256 -0.59118 -0.395002 0
M  V30 2187 H 217.858 -1.9017 -0.453373 0
M  V30 2188 H 216.562 -3.77998 -1.59831 0
M  V30 2189 H 216.093 -2.66645 -2.89247 0
M  V30 2190 H 218.108 -2.71415 -4.15389 0
M  V30 2191 N 217.281 0.66697 -1.42791 0
M  V30 2192 C 218.506 1.46004 -1.47301 0
M  V30 2193 C 218.931 1.87894 -0.0880317 0
M  V30 2194 O 218.289 1.56502 0.915253 0
M  V30 2195 C 218.337 2.68031 -2.41229 0
M  V30 2196 O 217.441 3.6659 -1.88906 0
M  V30 2197 H 216.782 0.43832 -0.49877 0
M  V30 2198 H 219.312 0.817391 -1.87563 0
M  V30 2199 H 219.322 3.1601 -2.58073 0
M  V30 2200 H 217.997 2.36883 -3.41847 0
M  V30 2201 H 216.574 3.25661 -1.81656 0
M  V30 2202 N 218.759 1.29093 0.90403 0
M  V30 2203 C 219.691 1.09658 2.01266 0
M  V30 2204 C 220.704 0.0453729 1.62737 0
M  V30 2205 O 221.893 0.289446 1.76138 0
M  V30 2206 C 218.993 0.646278 3.32681 0
M  V30 2207 C 218.166 1.77505 3.99763 0
M  V30 2208 C 217.225 1.31649 5.09465 0
M  V30 2209 O 216.251 2.02045 5.32134 0
M  V30 2210 N 217.453 0.184997 5.80205 0
M  V30 2211 H 220.218 2.05135 2.18494 0
M  V30 2212 H 217.779 1.20975 1.07594 0
M  V30 2213 H 219.771 0.322906 4.0341 0
M  V30 2214 H 218.341 -0.215916 3.11853 0
M  V30 2215 H 217.561 2.26752 3.22455 0
M  V30 2216 H 218.849 2.53198 4.41325 0
M  V30 2217 H 218.247 -0.402021 5.6427 0
M  V30 2218 H 216.804 -0.0790358 6.51752 0
M  V30 2219 N 220.237 -1.11381 1.11499 0
M  V30 2220 C 221.483 -1.83403 0.865512 0
M  V30 2221 C 221.816 -1.84459 -0.607329 0
M  V30 2222 O 221.091 -1.29811 -1.44842 0
M  V30 2223 C 221.374 -3.30552 1.42855 0
M  V30 2224 C 221.227 -3.37886 2.96906 0
M  V30 2225 C 222.546 -4.26643 1.08 0
M  V30 2226 H 219.665 -0.665879 0.31587 0
M  V30 2227 H 222.307 -1.30601 1.37998 0
M  V30 2228 H 220.457 -3.75648 0.990985 0
M  V30 2229 H 222.129 -3.01343 3.49271 0
M  V30 2230 H 220.372 -2.78088 3.32941 0
M  V30 2231 H 221.043 -4.41458 3.31389 0
M  V30 2232 H 223.519 -3.89729 1.45775 0
M  V30 2233 H 222.395 -5.27986 1.50072 0
M  V30 2234 H 222.656 -4.42099 -0.00915037 0
M  V30 2235 N 221.715 -0.905404 -1.28997 0
M  V30 2236 C 222.961 -0.535039 -1.95615 0
M  V30 2237 C 223.294 0.917404 -1.71165 0
M  V30 2238 O 222.569 1.65123 -1.02785 0
M  V30 2239 C 222.852 -0.834918 -3.50287 0
M  V30 2240 C 222.705 -2.33948 -3.84172 0
M  V30 2241 C 224.024 -0.325318 -4.38896 0
M  V30 2242 H 221.143 -0.195861 -0.710498 0
M  V30 2243 H 223.785 -1.13313 -1.52513 0
M  V30 2244 H 221.935 -0.325904 -3.87131 0
M  V30 2245 H 223.607 -2.91847 -3.57243 0
M  V30 2246 H 221.85 -2.79789 -3.31513 0
M  V30 2247 H 222.521 -2.49987 -4.92149 0
M  V30 2248 H 224.997 -0.761256 -4.09077 0
M  V30 2249 H 223.873 -0.564295 -5.45992 0
M  V30 2250 H 224.134 0.774144 -4.35269 0
M  V30 2251 N 223.193 1.4272 -0.668489 0
M  V30 2252 C 224.604 1.84793 -0.266151 0
M  V30 2253 C 224.955 1.55959 1.19043 0
M  V30 2254 O 224.08 1.01622 1.91055 0
M  V30 2255 C 224.675 3.35436 -0.476271 0
M  V30 2256 C 223.234 3.76182 -0.128113 0
M  V30 2257 C 222.381 2.66344 -0.771777 0
M  V30 2258 H 225.332 1.32656 -0.871098 0
M  V30 2259 H 225.353 3.79515 0.273561 0
M  V30 2260 H 224.865 3.5639 -1.53647 0
M  V30 2261 H 222.966 3.60836 0.928891 0
M  V30 2262 H 223.079 4.75766 -0.564231 0
M  V30 2263 H 221.443 2.53885 -0.203652 0
M  V30 2264 H 222.226 2.90123 -1.83531 0
M  V30 2265 N 224.671 0.411399 1.52136 0
M  V30 2266 C 225.917 -0.163888 2.02137 0
M  V30 2267 C 226.25 -1.44597 1.29636 0
M  V30 2268 O 225.525 -1.90272 0.403353 0
M  V30 2269 C 225.808 -0.40927 3.57767 0
M  V30 2270 C 225.661 0.889643 4.40914 0
M  V30 2271 C 226.98 -1.19042 4.23694 0
M  V30 2272 H 224.099 -0.0580896 0.734707 0
M  V30 2273 H 226.741 0.54531 1.82007 0
M  V30 2274 H 224.891 -1.0134 3.7505 0
M  V30 2275 H 226.563 1.52575 4.35337 0
M  V30 2276 H 224.806 1.50011 4.07037 0
M  V30 2277 H 225.477 0.672314 5.4789 0
M  V30 2278 H 227.953 -0.678942 4.10524 0
M  V30 2279 H 226.829 -1.33086 5.32522 0
M  V30 2280 H 227.09 -2.21166 3.82803 0
M  V30 2281 N 226.149 -1.5696 0.141893 0
M  V30 2282 C 227.389 -1.9785 -0.513304 0
M  V30 2283 C 227.753 -1.02467 -1.62371 0
M  V30 2284 O 228.954 -1.32382 -2.33941 0
M  V30 2285 C 227.225 -3.42797 -1.01118 0
M  V30 2286 S 228.784 -4.05709 -1.67169 0
M  V30 2287 H 225.602 -0.691318 -0.166135 0
M  V30 2288 H 228.204 -1.94114 0.232398 0
M  V30 2289 H 226.908 -4.0995 -0.192179 0
M  V30 2290 H 226.439 -3.50235 -1.79162 0
M  V30 2291 H 228.454 -3.98342 -2.95868 0
M  V30 2292 N 227.627 0.131896 -1.57047 0
M  V30 2293 C 229.043 0.485031 -1.52051 0
M  V30 2294 C 229.243 1.82563 -0.85281 0
M  V30 2295 O 228.299 2.48817 -0.429694 0
M  V30 2296 C 229.612 0.481409 -2.96821 0
M  V30 2297 C 231.16 0.565868 -3.07842 0
M  V30 2298 C 231.635 0.592762 -4.54148 0
M  V30 2299 N 233.126 0.654564 -4.58552 0
M  V30 2300 C 233.861 0.696608 -5.69153 0
M  V30 2301 N 233.357 0.697078 -6.89284 0
M  V30 2302 N 235.15 0.738639 -5.57226 0
M  V30 2303 H 227.301 -0.746664 -1.98843 0
M  V30 2304 H 229.564 -0.273999 -0.90754 0
M  V30 2305 H 229.27 -0.435731 -3.4899 0
M  V30 2306 H 229.144 1.3139 -3.53577 0
M  V30 2307 H 231.531 1.47343 -2.55684 0
M  V30 2308 H 231.612 -0.29406 -2.54104 0
M  V30 2309 H 231.256 -0.310701 -5.06949 0
M  V30 2310 H 231.186 1.46939 -5.05684 0
M  V30 2311 H 233.677 0.660887 -3.72076 0
M  V30 2312 H 233.99 0.731426 -7.69331 0
M  V30 2313 H 232.335 0.66471 -6.91814 0
M  V30 2314 H 235.526 0.735545 -4.62285 0
M  V30 2315 H 235.699 0.767938 -6.43434 0
M  V30 2316 N 229.106 1.52395 0.401703 0
M  V30 2317 C 230.517 1.58899 0.980202 0
M  V30 2318 C 230.868 0.434032 1.91339 0
M  V30 2319 O 229.993 -0.444619 2.11783 0
M  V30 2320 C 230.588 2.87994 1.78451 0
M  V30 2321 C 229.147 2.96953 2.31292 0
M  V30 2322 C 228.294 2.53903 1.11483 0
M  V30 2323 H 231.245 1.57657 0.18168 0
M  V30 2324 H 231.266 2.73765 2.64259 0
M  V30 2325 H 230.778 3.72035 1.10506 0
M  V30 2326 H 228.879 2.17422 3.02586 0
M  V30 2327 H 228.992 4.01344 2.61649 0
M  V30 2328 H 227.356 2.07925 1.47104 0
M  V30 2329 H 228.139 3.40326 0.450928 0
M  V30 2330 N 230.584 -0.659388 1.43143 0
M  V30 2331 C 231.532 -1.79374 1.4808 0
M  V30 2332 C 232.526 -1.65639 0.354988 0
M  V30 2333 O 233.732 -1.7206 0.528704 0
M  V30 2334 H 230.107 -0.591705 0.4641 0
M  V30 2335 H 232.078 -1.72329 2.43609 0
M  V30 2336 C 230.827 -3.17606 1.41499 0
M  V30 2337 H 230.15 -3.28809 2.27431 0
M  V30 2338 H 231.59 -3.96951 1.49015 0
M  V30 2339 C 230.049 -3.36642 0.131765 0
M  V30 2340 O 230.579 -3.93461 -0.809386 0
M  V30 2341 N 228.785 -2.90567 0.0439396 0
M  V30 2342 H 228.332 -2.44513 0.810619 0
M  V30 2343 H 228.29 -3.03681 -0.813969 0
M  V30 2344 N 232.062 -1.29571 -0.897171 0
M  V30 2345 C 233.473 -1.15964 -1.46319 0
M  V30 2346 C 233.824 0.244267 -1.94674 0
M  V30 2347 O 232.949 1.13998 -1.83939 0
M  V30 2348 C 233.544 -2.09906 -2.65942 0
M  V30 2349 C 232.103 -2.00314 -3.18671 0
M  V30 2350 C 231.25 -2.00687 -1.91363 0
M  V30 2351 H 234.201 -1.42019 -0.708268 0
M  V30 2352 H 234.222 -1.67276 -3.41759 0
M  V30 2353 H 233.734 -3.12075 -2.30718 0
M  V30 2354 H 231.835 -1.01242 -3.58582 0
M  V30 2355 H 231.948 -2.88102 -3.82798 0
M  V30 2356 H 230.312 -1.45319 -2.09175 0
M  V30 2357 H 231.095 -3.04566 -1.58413 0
M  V30 2358 N 233.54 1.10788 -1.12088 0
M  V30 2359 C 234.78 1.84297 -0.883974 0
M  V30 2360 C 235.144 1.83036 0.579797 0
M  V30 2361 O 236.345 2.52061 0.933734 0
M  V30 2362 C 234.616 3.27173 -1.43849 0
M  V30 2363 S 236.175 4.17853 -1.33957 0
M  V30 2364 H 232.993 0.635433 -0.318977 0
M  V30 2365 H 235.595 1.33341 -1.4297 0
M  V30 2366 H 234.299 3.25658 -2.49749 0
M  V30 2367 H 233.83 3.83198 -0.890096 0
M  V30 2368 H 235.845 4.95239 -0.308603 0
M  V30 2369 N 235.018 0.912232 1.28515 0
M  V30 2370 C 235.95 0.35676 2.26406 0
M  V30 2371 C 236.963 -0.503933 1.54804 0
M  V30 2372 O 238.152 -0.319059 1.75625 0
M  V30 2373 C 235.252 -0.508825 3.35058 0
M  V30 2374 C 234.425 0.329007 4.36161 0
M  V30 2375 C 233.484 -0.471422 5.24084 0
M  V30 2376 O 232.51 0.115482 5.69083 0
M  V30 2377 N 233.712 -1.77479 5.52704 0
M  V30 2378 H 236.477 1.19818 2.74707 0
M  V30 2379 H 234.038 0.778022 1.4198 0
M  V30 2380 H 236.03 -1.051 3.90815 0
M  V30 2381 H 234.6 -1.25095 2.86478 0
M  V30 2382 H 233.82 1.05256 3.79888 0
M  V30 2383 H 235.108 0.90234 5.00735 0
M  V30 2384 H 234.506 -2.27417 5.17975 0
M  V30 2385 H 233.063 -2.26382 6.11224 0
M  V30 2386 N 236.496 -1.42363 0.676048 0
M  V30 2387 C 237.444 -2.32596 -0.0131507 0
M  V30 2388 C 238.438 -1.49891 -0.789238 0
M  V30 2389 O 239.644 -1.65955 -0.697061 0
M  V30 2390 H 236.019 -0.751647 -0.0230481 0
M  V30 2391 H 237.99 -2.88421 0.765243 0
M  V30 2392 C 236.739 -3.34479 -0.949702 0
M  V30 2393 H 236.062 -3.98158 -0.361938 0
M  V30 2394 H 237.502 -4.00199 -1.4006 0
M  V30 2395 C 235.961 -2.66838 -2.05667 0
M  V30 2396 O 236.491 -2.50124 -3.14326 0
M  V30 2397 N 234.697 -2.25843 -1.82875 0
M  V30 2398 H 234.244 -2.39637 -0.945085 0
M  V30 2399 H 234.202 -1.80918 -2.5713 0
M  V30 2400 N 237.974 -0.419461 -1.51915 0
M  V30 2401 C 239.222 0.152637 -2.01523 0
M  V30 2402 C 239.543 1.44762 -1.30649 0
M  V30 2403 O 238.813 1.90997 -0.435535 0
M  V30 2404 H 237.393 0.0593966 -0.744635 0
M  V30 2405 H 240.055 -0.558073 -1.86739 0
M  V30 2406 H 239.151 0.341369 -3.10227 0
M  V30 2407 N 239.452 1.56882 -0.150215 0
M  V30 2408 C 240.415 2.1573 0.774157 0
M  V30 2409 C 241.415 1.0999 1.17298 0
M  V30 2410 O 242.605 1.35613 1.09338 0
M  V30 2411 C 239.737 2.72302 2.05096 0
M  V30 2412 H 240.93 2.98752 0.262201 0
M  V30 2413 H 238.483 1.55985 0.099248 0
M  V30 2414 H 239.218 1.92956 2.6065 0
M  V30 2415 H 239.003 3.49665 1.77416 0
M  V30 2416 H 240.493 3.17632 2.71109 0
M  V30 2417 N 240.93 -0.123565 1.57115 0
M  V30 2418 C 242.158 -0.846461 1.88793 0
M  V30 2419 C 242.573 -1.73652 0.740976 0
M  V30 2420 O 241.93 -1.80207 -0.288393 0
M  V30 2421 C 241.981 -1.6837 3.19897 0
M  V30 2422 O 241.702 -0.829477 4.30176 0
M  V30 2423 C 243.203 -2.51214 3.65248 0
M  V30 2424 H 240.423 -0.243573 0.625231 0
M  V30 2425 H 242.967 -0.109324 2.04208 0
M  V30 2426 H 241.122 -2.37364 3.06165 0
M  V30 2427 H 241.536 -1.40651 5.0529 0
M  V30 2428 H 243.01 -3.05497 4.59756 0
M  V30 2429 H 243.487 -3.28359 2.9168 0
M  V30 2430 H 244.093 -1.8747 3.81752 0
M  V30 2431 N 242.408 -1.52605 -0.393616 0
M  V30 2432 C 243.648 -1.6911 -1.1481 0
M  V30 2433 C 244.012 -0.41969 -1.87357 0
M  V30 2434 O 245.213 -0.461034 -2.64817 0
M  V30 2435 C 243.484 -2.88909 -2.10395 0
M  V30 2436 S 245.043 -3.25977 -2.93742 0
M  V30 2437 H 241.861 -0.595337 -0.38871 0
M  V30 2438 H 244.463 -1.90641 -0.433178 0
M  V30 2439 H 243.167 -3.79672 -1.55812 0
M  V30 2440 H 242.698 -2.69698 -2.86403 0
M  V30 2441 H 244.713 -2.75806 -4.12487 0
M  V30 2442 N 243.887 0.651787 -1.4349 0
M  V30 2443 C 245.112 1.44434 -1.48841 0
M  V30 2444 C 245.537 1.8779 -0.107955 0
M  V30 2445 O 244.895 1.57464 0.898602 0
M  V30 2446 C 244.943 2.65458 -2.44059 0
M  V30 2447 O 244.047 3.64566 -1.92784 0
M  V30 2448 H 243.388 0.433005 -0.503391 0
M  V30 2449 H 245.918 0.797451 -1.88419 0
M  V30 2450 H 245.928 3.13255 -2.6141 0
M  V30 2451 H 244.603 2.33244 -3.4434 0
M  V30 2452 H 243.18 3.23716 -1.851 0
M  V30 2453 N 245.365 1.30045 0.890287 0
M  V30 2454 C 246.781 1.08261 1.17268 0
M  V30 2455 C 246.981 -0.160063 2.00863 0
M  V30 2456 O 246.037 -0.855181 2.37577 0
M  V30 2457 C 247.35 2.34323 1.8845 0
M  V30 2458 C 248.898 2.39735 2.01237 0
M  V30 2459 C 249.373 3.65625 2.7583 0
M  V30 2460 N 250.864 3.66402 2.83379 0
M  V30 2461 C 251.599 4.60498 3.41657 0
M  V30 2462 N 251.095 5.64933 4.01026 0
M  V30 2463 N 252.888 4.48051 3.39421 0
M  V30 2464 H 245.039 2.09777 0.332762 0
M  V30 2465 H 247.302 0.92446 0.209948 0
M  V30 2466 H 247.008 3.2498 1.34465 0
M  V30 2467 H 246.882 2.4256 2.88867 0
M  V30 2468 H 249.269 1.4956 2.54393 0
M  V30 2469 H 249.35 2.35476 0.999232 0
M  V30 2470 H 248.994 4.56156 2.23347 0
M  V30 2471 H 248.924 3.67144 3.77509 0
M  V30 2472 H 251.415 2.90896 2.41222 0
M  V30 2473 H 251.728 6.32841 4.43545 0
M  V30 2474 H 250.073 5.68732 3.99461 0
M  V30 2475 H 253.264 3.65649 2.92264 0
M  V30 2476 H 253.437 5.21565 3.84544 0
M  V30 2477 N 246.843 -1.10192 1.12674 0
M  V30 2478 C 247.793 -2.14754 0.765801 0
M  V30 2479 C 248.777 -1.59154 -0.236409 0
M  V30 2480 O 249.969 -1.76951 -0.0415261 0
M  V30 2481 C 247.098 -3.42563 0.224827 0
M  V30 2482 C 246.184 -4.05091 1.25548 0
M  V30 2483 N 246.575 -4.42287 2.4539 0
M  V30 2484 C 244.873 -4.32186 1.10142 0
M  V30 2485 C 245.574 -4.91441 3.11224 0
M  V30 2486 N 244.55 -4.88405 2.38666 0
M  V30 2487 H 248.352 -2.41309 1.67772 0
M  V30 2488 H 245.866 -1.27339 1.00789 0
M  V30 2489 H 247.863 -4.16868 -0.0519578 0
M  V30 2490 H 246.523 -3.17467 -0.681515 0
M  V30 2491 H 247.534 -4.33902 2.82754 0
M  V30 2492 H 244.211 -4.16735 0.252587 0
M  V30 2493 H 245.601 -5.29749 4.13298 0
M  V30 2494 N 248.321 -0.919034 -1.28029 0
M  V30 2495 C 249.268 -0.410005 -2.27129 0
M  V30 2496 C 250.238 0.518405 -1.57803 0
M  V30 2497 O 251.423 0.439451 -1.8567 0
M  V30 2498 C 248.563 0.339054 -3.4343 0
M  V30 2499 C 247.676 -0.622468 -4.27492 0
M  V30 2500 C 246.811 0.145567 -5.31001 0
M  V30 2501 C 245.85 -0.809226 -6.06727 0
M  V30 2502 N 244.987 -0.0743728 -7.02061 0
M  V30 2503 H 249.827 -1.26011 -2.70047 0
M  V30 2504 H 247.364 -0.632663 -1.328 0
M  V30 2505 H 249.322 0.789586 -4.0966 0
M  V30 2506 H 247.952 1.15346 -3.01488 0
M  V30 2507 H 247.004 -1.19153 -3.61257 0
M  V30 2508 H 248.316 -1.35252 -4.80113 0
M  V30 2509 H 247.47 0.656417 -6.03139 0
M  V30 2510 H 246.209 0.908643 -4.79161 0
M  V30 2511 H 245.214 -1.3314 -5.33436 0
M  V30 2512 H 246.439 -1.57194 -6.60656 0
M  V30 2513 H 244.385 0.670616 -6.52563 0
M  V30 2514 H 244.302 -0.744157 -7.52329 0
M  V30 2515 H 245.57 0.416109 -7.78389 0
M  V30 2516 N 249.799 1.42003 -0.683588 0
M  V30 2517 C 251.215 1.55625 -0.353976 0
M  V30 2518 C 251.415 1.66151 1.14 0
M  V30 2519 O 250.471 1.63329 1.92561 0
M  V30 2520 C 251.784 2.80171 -1.092 0
M  V30 2521 C 253.332 2.93954 -1.07518 0
M  V30 2522 C 253.807 4.21372 -1.79471 0
M  V30 2523 N 255.298 4.28303 -1.76381 0
M  V30 2524 C 256.033 5.25729 -2.28904 0
M  V30 2525 N 255.529 6.29254 -2.89846 0
M  V30 2526 N 257.322 5.17586 -2.19228 0
M  V30 2527 H 249.473 1.33415 -1.6527 0
M  V30 2528 H 251.736 0.64282 -0.696769 0
M  V30 2529 H 251.442 2.78561 -2.14701 0
M  V30 2530 H 251.316 3.7133 -0.662862 0
M  V30 2531 H 253.703 2.95086 -0.028475 0
M  V30 2532 H 253.784 2.04002 -1.54328 0
M  V30 2533 H 253.428 4.21001 -2.84114 0
M  V30 2534 H 253.358 5.10275 -1.30104 0
M  V30 2535 H 255.849 3.54119 -1.31939 0
M  V30 2536 H 256.162 6.99964 -3.27522 0
M  V30 2537 H 254.507 6.29791 -2.93919 0
M  V30 2538 H 257.698 4.35631 -1.71299 0
M  V30 2539 H 257.871 5.93348 -2.60466 0
M  V30 2540 N 251.277 0.427512 1.51691 0
M  V30 2541 C 252.693 0.0792977 1.59403 0
M  V30 2542 C 252.893 -1.41035 1.43914 0
M  V30 2543 O 251.949 -2.17922 1.27539 0
M  V30 2544 C 253.262 0.590636 2.94842 0
M  V30 2545 C 254.81 0.550215 3.08126 0
M  V30 2546 C 255.285 1.03836 4.46074 0
M  V30 2547 N 256.776 0.995943 4.52366 0
M  V30 2548 C 257.511 1.34463 5.57411 0
M  V30 2549 N 257.007 1.76569 6.69922 0
M  V30 2550 N 258.8 1.26343 5.47717 0
M  V30 2551 H 250.951 1.39687 1.60004 0
M  V30 2552 H 253.214 0.575003 0.753708 0
M  V30 2553 H 252.92 1.63251 3.11516 0
M  V30 2554 H 252.794 0.0102061 3.77199 0
M  V30 2555 H 255.181 -0.482654 2.91126 0
M  V30 2556 H 255.262 1.16693 2.27632 0
M  V30 2557 H 254.906 2.06965 4.63819 0
M  V30 2558 H 254.836 0.398286 5.25092 0
M  V30 2559 H 257.327 0.68661 3.7161 0
M  V30 2560 H 257.64 2.01438 7.46085 0
M  V30 2561 H 255.985 1.80488 6.71155 0
M  V30 2562 H 259.176 0.933209 4.58703 0
M  V30 2563 H 259.349 1.53846 6.29472 0
M  V30 2564 N 252.755 -1.56801 0.158532 0
M  V30 2565 C 253.98 -2.01295 -0.499516 0
M  V30 2566 C 254.405 -1.03799 -1.56867 0
M  V30 2567 O 253.763 -0.0155162 -1.81293 0
M  V30 2568 C 253.811 -3.44469 -1.06647 0
M  V30 2569 O 252.915 -3.50012 -2.18095 0
M  V30 2570 H 252.256 -0.652884 -0.12099 0
M  V30 2571 H 254.786 -2.02958 0.258661 0
M  V30 2572 H 254.796 -3.8351 -1.39227 0
M  V30 2573 H 253.471 -4.14932 -0.283581 0
M  V30 2574 H 252.048 -3.22822 -1.86656 0
M  V30 2575 N 254.233 0.115231 -1.57178 0
M  V30 2576 C 255.18 1.14115 -2.00615 0
M  V30 2577 C 256.15 1.40939 -0.878941 0
M  V30 2578 O 257.335 1.52741 -1.14345 0
M  V30 2579 C 254.475 2.46156 -2.4187 0
M  V30 2580 C 253.588 2.26236 -3.68024 0
M  V30 2581 C 252.723 3.51534 -3.98243 0
M  V30 2582 C 251.762 3.26787 -5.17568 0
M  V30 2583 N 250.899 4.44298 -5.43639 0
M  V30 2584 H 255.739 0.763743 -2.88047 0
M  V30 2585 H 253.276 0.365615 -1.42484 0
M  V30 2586 H 255.234 3.23189 -2.63827 0
M  V30 2587 H 253.864 2.81783 -1.57475 0
M  V30 2588 H 252.916 1.40102 -3.5366 0
M  V30 2589 H 254.228 2.03929 -4.55208 0
M  V30 2590 H 253.382 4.36984 -4.20868 0
M  V30 2591 H 252.121 3.76876 -3.09541 0
M  V30 2592 H 251.126 2.39729 -4.94783 0
M  V30 2593 H 252.351 3.02812 -6.0785 0
M  V30 2594 H 250.297 4.69754 -4.57895 0
M  V30 2595 H 250.214 4.25109 -6.25154 0
M  V30 2596 H 251.482 5.3087 -5.70786 0
M  V30 2597 N 255.711 1.52812 0.385517 0
M  V30 2598 C 256.958 1.68026 1.1302 0
M  V30 2599 C 257.286 0.421934 1.89868 0
M  V30 2600 O 256.541 -0.595749 1.86412 0
M  V30 2601 C 256.84 2.86856 2.13187 0
M  V30 2602 C 256.506 4.24159 1.5297 0
M  V30 2603 C 255.168 4.61501 1.36274 0
M  V30 2604 C 257.52 5.09627 1.09223 0
M  V30 2605 C 254.848 5.81966 0.743837 0
M  V30 2606 C 257.2 6.30719 0.487411 0
M  V30 2607 C 255.864 6.6679 0.307777 0
M  V30 2608 H 255.134 0.614849 0.413571 0
M  V30 2609 H 257.781 1.86962 0.414405 0
M  V30 2610 H 256.086 2.6235 2.90998 0
M  V30 2611 H 257.783 2.95821 2.70722 0
M  V30 2612 H 254.373 3.94746 1.66954 0
M  V30 2613 H 258.557 4.81343 1.20922 0
M  V30 2614 H 253.813 6.08519 0.592891 0
M  V30 2615 H 257.987 6.96259 0.140143 0
M  V30 2616 H 255.614 7.60001 -0.173879 0
M  V30 2617 N 257.189 -0.644168 1.43834 0
M  V30 2618 C 258.417 -1.43147 1.49387 0
M  V30 2619 C 258.832 -1.88452 0.114583 0
M  V30 2620 O 258.189 -1.60047 -0.876989 0
M  V30 2621 C 258.24 -2.66046 2.44748 0
M  V30 2622 O 257.961 -2.22633 3.77314 0
M  V30 2623 C 259.462 -3.59311 2.59635 0
M  V30 2624 H 256.682 -0.439447 0.507077 0
M  V30 2625 H 259.226 -0.78895 1.88669 0
M  V30 2626 H 257.381 -3.26418 2.08638 0
M  V30 2627 H 257.795 -3.02216 4.28679 0
M  V30 2628 H 259.269 -4.42187 3.30416 0
M  V30 2629 H 259.746 -4.07259 1.64427 0
M  V30 2630 H 260.352 -3.04816 2.96593 0
M  V30 2631 N 258.668 -1.30515 -0.883378 0
M  V30 2632 C 259.908 -1.20716 -1.64946 0
M  V30 2633 C 260.272 0.234072 -1.90568 0
M  V30 2634 O 261.473 0.455335 -2.64915 0
M  V30 2635 C 259.744 -2.01444 -2.9522 0
M  V30 2636 S 261.303 -2.0836 -3.86175 0
M  V30 2637 H 258.121 -0.430165 -0.566109 0
M  V30 2638 H 260.723 -1.65011 -1.04841 0
M  V30 2639 H 259.427 -3.05268 -2.74298 0
M  V30 2640 H 258.958 -1.57817 -3.60357 0
M  V30 2641 H 260.973 -1.21215 -4.81167 0
M  V30 2642 N 260.146 1.09593 -1.13257 0
M  V30 2643 C 261.109 2.14359 -0.811358 0
M  V30 2644 C 262.109 1.59808 0.178377 0
M  V30 2645 O 263.299 1.74132 -0.0484911 0
M  V30 2646 C 260.431 3.40269 -0.207276 0
M  V30 2647 H 261.624 2.44284 -1.73969 0
M  V30 2648 H 259.177 1.25102 -0.936973 0
M  V30 2649 H 259.912 3.15969 0.73036 0
M  V30 2650 H 259.697 3.81154 -0.919992 0
M  V30 2651 H 261.187 4.176 0.000667944 0
M  V30 2652 N 261.624 0.925811 1.2754 0
M  V30 2653 C 262.864 0.572521 1.96218 0
M  V30 2654 C 263.228 -0.869719 1.71172 0
M  V30 2655 O 264.429 -1.33119 2.33523 0
M  V30 2656 C 262.7 0.887325 3.4621 0
M  V30 2657 S 264.259 0.642266 4.34074 0
M  V30 2658 H 261.077 0.211403 0.678845 0
M  V30 2659 H 263.679 1.19384 1.54815 0
M  V30 2660 H 262.383 1.93469 3.61936 0
M  V30 2661 H 261.914 0.255123 3.92572 0
M  V30 2662 H 263.929 -0.500822 4.93666 0
M  V30 2663 N 263.102 -1.41638 0.69111 0
M  V30 2664 C 264.513 -1.84346 0.295517 0
M  V30 2665 C 264.864 -1.57833 -1.16547 0
M  V30 2666 O 263.989 -1.04648 -1.89414 0
M  V30 2667 C 264.584 -3.34636 0.529575 0
M  V30 2668 C 263.143 -3.7593 0.187944 0
M  V30 2669 C 262.29 -2.65082 0.814052 0
M  V30 2670 H 265.241 -1.31253 0.892092 0
M  V30 2671 H 265.262 -3.79903 -0.213148 0
M  V30 2672 H 264.774 -3.53901 1.59297 0
M  V30 2673 H 262.875 -3.62268 -0.871367 0
M  V30 2674 H 262.988 -4.74808 0.63985 0
M  V30 2675 H 261.352 -2.53528 0.244017 0
M  V30 2676 H 262.135 -2.87167 1.88123 0
M  V30 2677 N 264.58 -0.43555 -1.51462 0
M  V30 2678 C 265.857 0.191364 -1.94662 0
M  V30 2679 C 266.237 1.60254 -1.37411 0
M  V30 2680 O 265.585 2.2152 -0.560458 0
M  V30 2681 C 265.795 0.17091 -3.48581 0
M  V30 2682 C 267.143 0.377357 -4.2292 0
M  V30 2683 O 268.167 0.249104 -3.55328 0
M  V30 2684 O 267.026 0.63247 -5.42828 0
M  V30 2685 H 264.12 0.130932 -0.816569 0
M  V30 2686 H 266.666 -0.4934 -1.62369 0
M  V30 2687 H 265.438 -0.815738 -3.82703 0
M  V30 2688 H 265.061 0.898659 -3.87311 0
M  V30 2689 N 266.058 1.56714 -0.166846 0
M  V30 2690 C 266.99 2.14914 0.796537 0
M  V30 2691 C 268.003 1.10357 1.19688 0
M  V30 2692 O 269.192 1.37561 1.13751 0
M  V30 2693 C 266.292 2.67326 2.08303 0
M  V30 2694 C 265.465 3.96493 1.84696 0
M  V30 2695 C 264.524 4.34014 2.97521 0
M  V30 2696 O 263.55 5.01973 2.6835 0
M  V30 2697 N 264.752 3.95208 4.25196 0
M  V30 2698 H 267.517 2.98205 0.299006 0
M  V30 2699 H 265.078 1.61892 0.0160839 0
M  V30 2700 H 267.07 2.89428 2.82867 0
M  V30 2701 H 265.64 1.88649 2.4926 0
M  V30 2702 H 264.86 3.82814 0.940602 0
M  V30 2703 H 266.148 4.8086 1.66285 0
M  V30 2704 H 265.546 3.40487 4.51758 0
M  V30 2705 H 264.103 4.2232 4.96477 0
M  V30 2706 N 267.536 -0.106894 1.57237 0
M  V30 2707 C 268.783 -0.812526 1.85484 0
M  V30 2708 C 269.111 -1.79304 0.753687 0
M  V30 2709 O 268.366 -1.94047 -0.253853 0
M  V30 2710 C 268.665 -1.58628 3.20268 0
M  V30 2711 C 268.331 -0.748967 4.44636 0
M  V30 2712 C 266.993 -0.518104 4.78403 0
M  V30 2713 C 269.345 -0.166122 5.20935 0
M  V30 2714 C 266.673 0.305659 5.85903 0
M  V30 2715 C 269.025 0.644899 6.29304 0
M  V30 2716 C 267.689 0.885965 6.61594 0
M  V30 2717 H 266.959 -0.297324 0.678734 0
M  V30 2718 H 269.606 -0.0744332 1.91355 0
M  V30 2719 H 267.911 -2.39562 3.10028 0
M  V30 2720 H 269.608 -2.13643 3.39349 0
M  V30 2721 H 266.198 -0.939006 4.18187 0
M  V30 2722 H 270.382 -0.33167 4.95191 0
M  V30 2723 H 265.638 0.501528 6.0934 0
M  V30 2724 H 269.812 1.10345 6.87602 0
M  V30 2725 H 267.439 1.52609 7.44725 0
M  V30 2726 N 269.014 -1.53014 -0.377408 0
M  V30 2727 C 269.961 -1.78616 -1.46168 0
M  V30 2728 C 270.931 -0.629917 -1.53692 0
M  V30 2729 O 272.116 -0.870861 -1.69766 0
M  V30 2730 C 269.256 -1.97123 -2.8326 0
M  V30 2731 C 268.369 -3.24831 -2.84796 0
M  V30 2732 C 267.504 -3.33591 -4.13389 0
M  V30 2733 C 266.543 -4.55377 -4.09021 0
M  V30 2734 N 265.68 -4.61355 -5.29241 0
M  V30 2735 H 270.52 -2.71142 -1.23637 0
M  V30 2736 H 268.057 -1.34326 -0.599577 0
M  V30 2737 H 270.015 -2.05839 -3.62886 0
M  V30 2738 H 268.645 -1.07946 -3.04216 0
M  V30 2739 H 267.697 -3.25128 -1.97474 0
M  V30 2740 H 269.009 -4.14523 -2.77439 0
M  V30 2741 H 268.163 -3.41554 -5.01424 0
M  V30 2742 H 266.902 -2.41894 -4.23484 0
M  V30 2743 H 265.907 -4.47527 -3.19373 0
M  V30 2744 H 267.132 -5.48402 -4.00539 0
M  V30 2745 H 265.078 -3.72554 -5.39944 0
M  V30 2746 H 264.995 -5.44935 -5.24006 0
M  V30 2747 H 266.263 -4.73586 -6.19141 0
M  V30 2748 N 270.492 0.636531 -1.44174 0
M  V30 2749 C 271.74 1.39343 -1.46383 0
M  V30 2750 C 272.061 1.94766 -0.0955715 0
M  V30 2751 O 271.331 1.75452 0.871395 0
M  V30 2752 H 269.911 0.517199 -0.538994 0
M  V30 2753 H 272.573 0.74957 -1.7991 0
M  V30 2754 H 271.669 2.22746 -2.18611 0
M  V30 2755 N 271.97 1.30982 0.876444 0
M  V30 2756 C 272.917 1.18085 1.98304 0
M  V30 2757 C 273.887 0.0682263 1.6596 0
M  V30 2758 O 275.072 0.239937 1.89285 0
M  V30 2759 C 272.212 0.887475 3.33493 0
M  V30 2760 C 271.325 2.08281 3.78475 0
M  V30 2761 C 270.46 1.72678 5.0235 0
M  V30 2762 C 269.499 2.88657 5.39762 0
M  V30 2763 N 268.636 2.53292 6.54819 0
M  V30 2764 H 273.476 2.1275 2.08666 0
M  V30 2765 H 271.013 1.05839 1.02159 0
M  V30 2766 H 272.971 0.697961 4.1132 0
M  V30 2767 H 271.601 -0.022315 3.22792 0
M  V30 2768 H 270.653 2.3833 2.96484 0
M  V30 2769 H 271.965 2.95108 4.02135 0
M  V30 2770 H 271.119 1.50151 5.87826 0
M  V30 2771 H 269.858 0.830327 4.8058 0
M  V30 2772 H 268.863 3.1184 4.52809 0
M  V30 2773 H 270.088 3.79002 5.63502 0
M  V30 2774 H 268.034 1.66163 6.34607 0
M  V30 2775 H 267.951 3.3365 6.7839 0
M  V30 2776 H 269.219 2.34143 7.43503 0
M  V30 2777 N 273.449 -1.08991 1.13837 0
M  V30 2778 C 274.696 -1.81258 0.902882 0
M  V30 2779 C 275.024 -1.85936 -0.570803 0
M  V30 2780 O 274.279 -1.3267 -1.43865 0
M  V30 2781 C 274.578 -3.27042 1.44147 0
M  V30 2782 C 274.244 -3.4249 2.93276 0
M  V30 2783 C 272.906 -3.46414 3.33992 0
M  V30 2784 C 275.258 -3.4666 3.892 0
M  V30 2785 C 272.586 -3.52091 4.69307 0
M  V30 2786 C 274.938 -3.53872 5.24364 0
M  V30 2787 C 273.602 -3.56066 5.646 0
M  V30 2788 H 272.872 -0.663268 0.330388 0
M  V30 2789 H 275.519 -1.28368 1.42105 0
M  V30 2790 H 273.824 -3.82599 0.844097 0
M  V30 2791 H 275.521 -3.81499 1.23528 0
M  V30 2792 H 272.111 -3.40124 2.60794 0
M  V30 2793 H 276.295 -3.42865 3.58828 0
M  V30 2794 H 271.551 -3.52079 4.9985 0
M  V30 2795 H 275.725 -3.56043 5.98503 0
M  V30 2796 H 273.352 -3.60218 6.69438 0
M  V30 2797 N 274.927 -0.932562 -1.27047 0
M  V30 2798 C 276.167 -0.582919 -1.95912 0
M  V30 2799 C 276.531 0.860629 -1.71631 0
M  V30 2800 O 277.732 1.31878 -2.34225 0
M  V30 2801 C 276.003 -0.905673 -3.45734 0
M  V30 2802 S 277.562 -0.665277 -4.33727 0
M  V30 2803 H 274.38 -0.215 -0.677714 0
M  V30 2804 H 276.982 -1.20204 -1.54179 0
M  V30 2805 H 275.686 -1.95386 -3.60905 0
M  V30 2806 H 275.217 -0.275939 -3.92431 0
M  V30 2807 H 277.232 0.474635 -4.93925 0
M  V30 2808 N 276.405 1.4127 -0.698611 0
M  V30 2809 C 277.315 2.34573 -0.0357891 0
M  V30 2810 C 278.331 1.56393 0.762701 0
M  V30 2811 O 279.507 1.8886 0.699564 0
M  V30 2812 C 276.572 3.35159 0.887089 0
M  V30 2813 C 275.633 4.29225 0.0804634 0
M  V30 2814 C 274.866 5.25006 0.959387 0
M  V30 2815 O 275.089 5.26314 2.19886 0
M  V30 2816 O 274.023 6.00519 0.407439 0
M  V30 2817 H 277.849 2.92838 -0.804957 0
M  V30 2818 H 275.434 1.42175 -0.458966 0
M  V30 2819 H 277.316 3.9689 1.41621 0
M  V30 2820 H 275.991 2.79333 1.6357 0
M  V30 2821 H 274.898 3.70833 -0.493328 0
M  V30 2822 H 276.231 4.88157 -0.629547 0
M  V30 2823 N 277.883 0.443576 1.51229 0
M  V30 2824 C 279.132 -0.122332 2.01329 0
M  V30 2825 C 279.445 -1.43237 1.33201 0
M  V30 2826 O 280.651 -2.0816 1.74304 0
M  V30 2827 C 279.107 -0.268551 3.58897 0
M  V30 2828 C 278.715 1.03142 4.35965 0
M  V30 2829 C 280.459 -0.787894 4.17124 0
M  V30 2830 C 278.366 0.850504 5.85252 0
M  V30 2831 H 277.296 -0.0494929 0.752374 0
M  V30 2832 H 279.947 0.574289 1.74282 0
M  V30 2833 H 278.329 -1.02832 3.82415 0
M  V30 2834 H 279.503 1.80001 4.24189 0
M  V30 2835 H 277.818 1.47977 3.89219 0
M  V30 2836 H 280.415 -0.939841 5.26375 0
M  V30 2837 H 280.758 -1.77201 3.76703 0
M  V30 2838 H 281.291 -0.0862669 3.97706 0
M  V30 2839 H 278.03 1.80718 6.30096 0
M  V30 2840 H 277.55 0.121825 5.99676 0
M  V30 2841 H 279.229 0.506163 6.45017 0
M  V30 2842 N 279.361 -1.56624 0.175154 0
M  V30 2843 C 280.609 -1.96609 -0.467885 0
M  V30 2844 C 280.93 -1.06238 -1.63519 0
M  V30 2845 O 280.2 -0.129523 -1.95471 0
M  V30 2846 H 278.78 -0.726008 -0.175845 0
M  V30 2847 H 281.442 -1.93195 0.257234 0
M  V30 2848 H 280.538 -3.00989 -0.825342 0
M  V30 2849 N 280.839 0.0985539 -1.57292 0
M  V30 2850 C 282.064 0.820196 -1.90493 0
M  V30 2851 C 282.489 1.71658 -0.769094 0
M  V30 2852 O 281.847 1.79133 0.279495 0
M  V30 2853 C 281.895 1.61242 -3.22542 0
M  V30 2854 O 280.999 2.72108 -3.09888 0
M  V30 2855 H 280.34 0.225547 -0.62452 0
M  V30 2856 H 282.87 0.0748159 -2.04463 0
M  V30 2857 H 282.88 1.99737 -3.55766 0
M  V30 2858 H 281.555 0.954535 -4.04798 0
M  V30 2859 H 280.132 2.36667 -2.88172 0
M  V30 2860 N 282.317 1.53212 0.369288 0
M  V30 2861 C 283.594 1.59815 1.12776 0
M  V30 2862 C 283.974 0.403402 2.0721 0
M  V30 2863 O 283.322 -0.606667 2.20299 0
M  V30 2864 C 283.532 2.94664 1.87013 0
M  V30 2865 C 284.88 3.49109 2.41677 0
M  V30 2866 O 285.904 2.96669 1.97144 0
M  V30 2867 O 284.763 4.40775 3.23079 0
M  V30 2868 H 281.857 0.645376 0.517125 0
M  V30 2869 H 284.403 1.65553 0.37285 0
M  V30 2870 H 283.175 3.73061 1.18071 0
M  V30 2871 H 282.798 2.92401 2.69421 0
M  V30 2872 N 283.795 -0.628877 1.44509 0
M  V30 2873 C 285.072 -1.38733 1.37886 0
M  V30 2874 C 285.452 -2.11065 0.0387008 0
M  V30 2875 O 284.8 -2.06476 -0.97878 0
M  V30 2876 C 285.01 -2.35188 2.57852 0
M  V30 2877 C 286.358 -2.9845 3.02014 0
M  V30 2878 O 287.382 -2.45513 2.58073 0
M  V30 2879 O 286.241 -3.94487 3.78209 0
M  V30 2880 H 283.335 -0.621015 0.54614 0
M  V30 2881 H 285.881 -0.653744 1.56602 0
M  V30 2882 H 284.653 -1.80855 3.46998 0
M  V30 2883 H 284.276 -3.1596 2.4136 0
M  V30 2884 N 285.273 -1.31445 -0.869486 0
M  V30 2885 C 286.513 -1.22458 -1.63656 0
M  V30 2886 C 286.877 0.213846 -1.90805 0
M  V30 2887 O 288.078 0.427212 -2.65383 0
M  V30 2888 C 286.349 -2.04564 -2.93067 0
M  V30 2889 S 287.908 -2.12445 -3.83944 0
M  V30 2890 H 284.726 -0.436145 -0.561514 0
M  V30 2891 H 287.328 -1.66114 -1.03085 0
M  V30 2892 H 286.032 -3.0816 -2.71045 0
M  V30 2893 H 285.563 -1.6163 -3.58663 0
M  V30 2894 H 287.578 -1.26312 -4.79854 0
M  V30 2895 N 286.751 1.08385 -1.14413 0
M  V30 2896 C 287.981 1.8425 -0.934644 0
M  V30 2897 C 288.389 1.81907 0.520234 0
M  V30 2898 O 287.732 1.22126 1.37226 0
M  V30 2899 C 287.794 3.32853 -1.35828 0
M  V30 2900 C 287.458 3.5893 -2.82875 0
M  V30 2901 C 288.455 3.53756 -3.80989 0
M  V30 2902 C 286.14 3.86934 -3.20293 0
M  V30 2903 C 288.134 3.76216 -5.14529 0
M  V30 2904 C 285.821 4.09047 -4.54008 0
M  V30 2905 C 286.819 4.03682 -5.50936 0
M  V30 2906 O 286.507 4.25214 -6.82238 0
M  V30 2907 H 286.239 0.588502 -0.332628 0
M  V30 2908 H 288.793 1.37792 -1.52324 0
M  V30 2909 H 287.023 3.8007 -0.713019 0
M  V30 2910 H 288.712 3.90154 -1.11957 0
M  V30 2911 H 289.478 3.32135 -3.53428 0
M  V30 2912 H 285.357 3.9023 -2.45442 0
M  V30 2913 H 288.901 3.71943 -5.90173 0
M  V30 2914 H 284.798 4.30151 -4.8129 0
M  V30 2915 H 285.566 4.42619 -6.88499 0
M  V30 2916 N 288.23 0.939286 1.26551 0
M  V30 2917 C 289.476 0.586715 1.94128 0
M  V30 2918 C 289.809 -0.8717 1.73537 0
M  V30 2919 O 289.084 -1.62339 1.07127 0
M  V30 2920 C 289.367 0.927497 3.4795 0
M  V30 2921 C 289.22 2.44052 3.77834 0
M  V30 2922 C 290.539 0.441569 4.37879 0
M  V30 2923 H 287.658 0.21463 0.705055 0
M  V30 2924 H 290.3 1.17316 1.49455 0
M  V30 2925 H 288.45 0.428431 3.8613 0
M  V30 2926 H 290.122 3.01216 3.4938 0
M  V30 2927 H 288.365 2.8848 3.23978 0
M  V30 2928 H 289.036 2.62947 4.85348 0
M  V30 2929 H 291.512 0.869448 4.06915 0
M  V30 2930 H 290.388 0.708856 5.44304 0
M  V30 2931 H 290.649 -0.658467 4.37169 0
M  V30 2932 N 289.708 -1.40897 0.706093 0
M  V30 2933 C 290.956 -2.00657 0.241054 0
M  V30 2934 C 291.277 -1.56241 -1.16678 0
M  V30 2935 O 290.547 -0.79765 -1.78926 0
M  V30 2936 H 289.127 -0.742018 0.0861308 0
M  V30 2937 H 291.789 -1.72372 0.909604 0
M  V30 2938 H 290.885 -3.10958 0.266705 0
M  V30 2939 N 291.186 -0.45159 -1.50991 0
M  V30 2940 C 292.463 0.170707 -1.94854 0
M  V30 2941 C 292.843 1.58788 -1.39103 0
M  V30 2942 O 292.191 2.20913 -0.583921 0
M  V30 2943 C 292.401 0.133929 -3.48743 0
M  V30 2944 C 293.749 0.33248 -4.23296 0
M  V30 2945 O 294.773 0.211403 -3.55572 0
M  V30 2946 O 293.632 0.57486 -5.43468 0
M  V30 2947 H 290.726 0.122264 -0.817912 0
M  V30 2948 H 293.272 -0.510594 -1.61836 0
M  V30 2949 H 292.044 -0.856283 -3.81816 0
M  V30 2950 H 291.667 0.857529 -3.88242 0
M  V30 2951 N 292.664 1.56529 -0.183458 0
M  V30 2952 C 293.912 1.96855 0.457452 0
M  V30 2953 C 294.233 1.07104 1.62953 0
M  V30 2954 O 293.503 0.139887 1.954 0
M  V30 2955 H 292.083 0.72693 0.171992 0
M  V30 2956 H 294.745 1.93056 -0.267476 0
M  V30 2957 H 293.841 3.01423 0.809368 0
M  V30 2958 N 294.142 -0.090211 1.57342 0
M  V30 2959 C 295.372 -0.805055 1.90269 0
M  V30 2960 C 295.78 -1.72561 0.775842 0
M  V30 2961 O 295.123 -1.81839 -0.260843 0
M  V30 2962 C 295.185 -1.66734 3.18497 0
M  V30 2963 C 294.849 -0.918092 4.47683 0
M  V30 2964 C 295.846 -0.245674 5.19319 0
M  V30 2965 C 293.531 -0.890724 4.94339 0
M  V30 2966 C 295.525 0.444088 6.35851 0
M  V30 2967 C 293.212 -0.197179 6.10782 0
M  V30 2968 C 294.21 0.469044 6.81388 0
M  V30 2969 O 293.898 1.15146 7.95611 0
M  V30 2970 H 293.63 -0.235143 0.633785 0
M  V30 2971 H 296.184 -0.0703805 2.05279 0
M  V30 2972 H 294.414 -2.44437 2.99646 0
M  V30 2973 H 296.103 -2.25919 3.37217 0
M  V30 2974 H 296.869 -0.258246 4.84312 0
M  V30 2975 H 292.748 -1.39873 4.39268 0
M  V30 2976 H 296.292 0.964667 6.90898 0
M  V30 2977 H 292.189 -0.18247 6.45242 0
M  V30 2978 H 292.957 1.05885 8.11622 0
M  V30 2979 N 295.62 -1.53406 -0.361157 0
M  V30 2980 C 296.845 -1.74024 -1.12829 0
M  V30 2981 C 297.27 -0.470069 -1.82132 0
M  V30 2982 O 296.628 0.57619 -1.719 0
M  V30 2983 C 296.676 -2.90903 -2.13091 0
M  V30 2984 O 295.78 -2.59821 -3.20261 0
M  V30 2985 H 295.121 -0.577804 -0.327168 0
M  V30 2986 H 297.651 -2.00307 -0.41693 0
M  V30 2987 H 297.661 -3.17194 -2.56616 0
M  V30 2988 H 296.336 -3.83034 -1.62042 0
M  V30 2989 H 294.913 -2.44362 -2.81677 0
M  V30 2990 N 297.098 0.621204 -1.44841 0
M  V30 2991 C 298.328 1.40548 -1.51426 0
M  V30 2992 C 298.736 1.88673 -0.141083 0
M  V30 2993 O 298.079 1.62053 0.865128 0
M  V30 2994 C 298.141 2.65325 -2.42576 0
M  V30 2995 C 297.805 2.3893 -3.89566 0
M  V30 2996 C 298.802 2.00138 -4.79834 0
M  V30 2997 C 296.487 2.52263 -4.3436 0
M  V30 2998 C 298.481 1.75021 -6.129 0
M  V30 2999 C 296.168 2.2676 -5.67471 0
M  V30 3000 C 297.166 1.88199 -6.56559 0
M  V30 3001 O 296.854 1.62986 -7.87204 0
M  V30 3002 H 296.586 0.437122 -0.515655 0
M  V30 3003 H 299.14 0.765987 -1.90583 0
M  V30 3004 H 297.37 3.31947 -1.98364 0
M  V30 3005 H 299.059 3.27347 -2.39998 0
M  V30 3006 H 299.825 1.89386 -4.46495 0
M  V30 3007 H 295.704 2.81246 -3.65269 0
M  V30 3008 H 299.248 1.44848 -6.82396 0
M  V30 3009 H 295.145 2.37125 -6.00368 0
M  V30 3010 H 295.913 1.7715 -7.991 0
M  V30 3011 N 298.576 1.31904 0.862503 0
M  V30 3012 C 299.992 1.10724 1.14945 0
M  V30 3013 C 300.192 -0.117421 2.01158 0
M  V30 3014 O 299.248 -0.804595 2.39338 0
M  V30 3015 C 300.561 2.38267 1.83437 0
M  V30 3016 C 302.109 2.43949 1.96106 0
M  V30 3017 C 302.584 3.71394 2.68013 0
M  V30 3018 N 304.075 3.72331 2.75543 0
M  V30 3019 C 304.81 4.67641 3.31812 0
M  V30 3020 N 304.306 5.73313 3.88953 0
M  V30 3021 N 306.099 4.5515 3.29841 0
M  V30 3022 H 298.25 2.10436 0.288191 0
M  V30 3023 H 300.513 0.928705 0.190292 0
M  V30 3024 H 300.219 3.27759 1.27542 0
M  V30 3025 H 300.093 2.48633 2.83657 0
M  V30 3026 H 302.48 1.54922 2.51164 0
M  V30 3027 H 302.561 2.37543 0.949059 0
M  V30 3028 H 302.205 4.60791 2.13621 0
M  V30 3029 H 302.135 3.75069 3.69636 0
M  V30 3030 H 304.626 2.95947 2.34997 0
M  V30 3031 H 304.939 6.42107 4.30022 0
M  V30 3032 H 303.284 5.77077 3.87308 0
M  V30 3033 H 306.475 3.71766 2.84443 0
M  V30 3034 H 306.648 5.29604 3.73394 0
M  V30 3035 N 300.054 -1.07777 1.14986 0
M  V30 3036 C 301.302 -1.79934 0.920235 0
M  V30 3037 C 301.623 -1.86955 -0.554336 0
M  V30 3038 O 300.893 -1.36731 -1.40291 0
M  V30 3039 H 299.473 -0.666424 0.337473 0
M  V30 3040 H 302.135 -1.3027 1.44968 0
M  V30 3041 H 301.231 -2.82539 1.32583 0
M  V30 3042 N 301.532 -0.945985 -1.26051 0
M  V30 3043 C 302.479 -0.45809 -2.26208 0
M  V30 3044 C 303.449 0.484816 -1.58867 0
M  V30 3045 O 304.634 0.399969 -1.86561 0
M  V30 3046 C 301.774 0.266131 -3.44072 0
M  V30 3047 C 300.887 -0.713005 -4.26075 0
M  V30 3048 C 300.022 0.0329013 -5.3119 0
M  V30 3049 C 299.061 -0.93774 -6.04874 0
M  V30 3050 N 298.198 -0.223274 -7.01745 0
M  V30 3051 H 303.038 -1.3171 -2.67313 0
M  V30 3052 H 300.575 -0.66069 -1.31428 0
M  V30 3053 H 302.533 0.702514 -4.11243 0
M  V30 3054 H 301.163 1.08925 -3.03867 0
M  V30 3055 H 300.215 -1.26789 -3.58648 0
M  V30 3056 H 301.527 -1.45406 -4.77136 0
M  V30 3057 H 300.681 0.528335 -6.04395 0
M  V30 3058 H 299.42 0.806801 -4.8098 0
M  V30 3059 H 298.425 -1.44425 -5.30492 0
M  V30 3060 H 299.65 -1.71172 -6.57173 0
M  V30 3061 H 297.596 0.532046 -6.53839 0
M  V30 3062 H 297.513 -0.90357 -7.50581 0
M  V30 3063 H 298.781 0.250907 -7.79096 0
M  V30 3064 N 303.011 1.40521 -0.713556 0
M  V30 3065 C 303.944 2.28198 -0.00881422 0
M  V30 3066 C 304.922 1.43227 0.769735 0
M  V30 3067 O 306.106 1.72641 0.756799 0
M  V30 3068 C 303.233 3.23758 0.994899 0
M  V30 3069 C 302.279 4.25391 0.3074 0
M  V30 3070 S 303.112 5.26765 -0.963247 0
M  V30 3071 C 304.268 6.25888 0.0384143 0
M  V30 3072 H 304.501 2.87622 -0.752407 0
M  V30 3073 H 302.034 1.45925 -0.504502 0
M  V30 3074 H 303.992 3.79341 1.56879 0
M  V30 3075 H 302.653 2.63396 1.71118 0
M  V30 3076 H 301.846 4.92596 1.0661 0
M  V30 3077 H 301.448 3.73497 -0.193879 0
M  V30 3078 H 303.74 6.71683 0.885912 0
M  V30 3079 H 304.683 7.05552 -0.60019 0
M  V30 3080 H 305.091 5.63072 0.401233 0
M  V30 3081 N 304.489 0.459591 1.5075 0
M  V30 3082 C 305.437 -0.354678 2.2988 0
M  V30 3083 C 306.431 -1.00086 1.36672 0
M  V30 3084 O 307.637 -0.933277 1.53915 0
M  V30 3085 H 304.012 -0.13321 0.740107 0
M  V30 3086 H 305.983 0.333269 2.96533 0
M  V30 3087 C 304.732 -1.43073 3.169 0
M  V30 3088 H 304.055 -0.942882 3.88523 0
M  V30 3089 H 305.495 -1.97328 3.75284 0
M  V30 3090 C 303.954 -2.42633 2.33732 0
M  V30 3091 O 304.484 -3.47658 2.01238 0
M  V30 3092 N 302.69 -2.14066 1.9653 0
M  V30 3093 H 302.237 -1.28685 2.23155 0
M  V30 3094 H 302.195 -2.80917 1.41185 0
M  V30 3095 N 305.967 -1.56429 0.191757 0
M  V30 3096 C 307.383 -1.58754 -0.164137 0
M  V30 3097 C 307.583 -1.20782 -1.61288 0
M  V30 3098 O 306.639 -0.928999 -2.34789 0
M  V30 3099 C 307.952 -3.00396 0.135195 0
M  V30 3100 C 309.5 -3.1291 0.0750351 0
M  V30 3101 C 309.975 -4.56679 0.347632 0
M  V30 3102 N 311.466 -4.62252 0.296131 0
M  V30 3103 C 312.201 -5.71379 0.480948 0
M  V30 3104 N 311.697 -6.88986 0.725933 0
M  V30 3105 N 313.49 -5.60563 0.415435 0
M  V30 3106 H 305.641 -1.79393 1.13718 0
M  V30 3107 H 307.904 -0.832414 0.453643 0
M  V30 3108 H 307.61 -3.32726 1.13958 0
M  V30 3109 H 307.484 -3.72963 -0.563773 0
M  V30 3110 H 309.871 -2.80394 -0.919948 0
M  V30 3111 H 309.952 -2.42736 0.807029 0
M  V30 3112 H 309.596 -4.89907 1.33992 0
M  V30 3113 H 309.526 -5.25039 -0.405212 0
M  V30 3114 H 312.017 -3.7773 0.113259 0
M  V30 3115 H 312.33 -7.68046 0.855857 0
M  V30 3116 H 310.675 -6.90801 0.762788 0
M  V30 3117 H 313.866 -4.67561 0.224486 0
M  V30 3118 H 314.039 -6.45551 0.562889 0
M  V30 3119 N 307.445 0.0818655 -1.57387 0
M  V30 3120 C 308.673 0.796108 -1.9097 0
M  V30 3121 C 309.088 1.71626 -0.786757 0
M  V30 3122 O 308.445 1.80908 0.240513 0
M  V30 3123 C 308.496 1.59829 -3.24248 0
M  V30 3124 O 308.217 0.715131 -4.32224 0
M  V30 3125 C 309.718 2.41442 -3.7178 0
M  V30 3126 H 306.938 0.22691 -0.631469 0
M  V30 3127 H 309.482 0.0551439 -2.04426 0
M  V30 3128 H 307.637 2.29163 -3.12351 0
M  V30 3129 H 308.051 1.27205 -5.08841 0
M  V30 3130 H 309.525 2.932 -4.67694 0
M  V30 3131 H 310.002 3.2051 -3.00283 0
M  V30 3132 H 310.608 1.77283 -3.86589 0
M  V30 3133 N 308.923 1.53595 0.353017 0
M  V30 3134 C 310.169 1.70638 1.09593 0
M  V30 3135 C 310.502 0.463286 1.88593 0
M  V30 3136 O 309.777 -0.539597 1.86865 0
M  V30 3137 C 310.06 2.96406 2.04489 0
M  V30 3138 C 309.913 4.30901 1.29014 0
M  V30 3139 C 311.232 3.17812 3.0444 0
M  V30 3140 H 308.351 0.620913 0.397034 0
M  V30 3141 H 310.993 1.86254 0.375446 0
M  V30 3142 H 309.143 2.83223 2.65927 0
M  V30 3143 H 310.815 4.55917 0.702638 0
M  V30 3144 H 309.058 4.29741 0.592071 0
M  V30 3145 H 309.729 5.1506 1.98537 0
M  V30 3146 H 312.205 3.30263 2.53112 0
M  V30 3147 H 311.081 4.07223 3.6805 0
M  V30 3148 H 311.342 2.33669 3.75301 0
M  V30 3149 N 310.401 -0.613514 1.45168 0
M  V30 3150 C 311.349 -1.74572 1.53712 0
M  V30 3151 C 312.343 -1.64426 0.407505 0
M  V30 3152 O 313.549 -1.70291 0.583176 0
M  V30 3153 H 309.924 -0.576641 0.48269 0
M  V30 3154 H 311.895 -1.64492 2.48968 0
M  V30 3155 C 310.644 -3.12943 1.51532 0
M  V30 3156 H 309.967 -3.21407 2.37776 0
M  V30 3157 H 311.407 -3.9201 1.61569 0
M  V30 3158 C 309.866 -3.36053 0.238798 0
M  V30 3159 O 310.396 -3.95837 -0.6838 0
M  V30 3160 N 308.602 -2.9028 0.136359 0
M  V30 3161 H 308.149 -2.41811 0.887999 0
M  V30 3162 H 308.107 -3.06116 -0.716944 0
M  V30 3163 N 311.879 -1.3236 -0.855495 0
M  V30 3164 C 312.811 -1.17052 -1.97057 0
M  V30 3165 C 313.824 -0.10574 -1.62456 0
M  V30 3166 O 315.013 -0.354619 -1.74942 0
M  V30 3167 C 312.113 -0.769305 -3.30053 0
M  V30 3168 C 311.286 -1.9222 -3.929 0
M  V30 3169 C 310.345 -1.50466 -5.04228 0
M  V30 3170 O 309.371 -2.21655 -5.24269 0
M  V30 3171 N 310.573 -0.400209 -5.79119 0
M  V30 3172 H 313.338 -2.13103 -2.1073 0
M  V30 3173 H 310.899 -1.24885 -1.0303 0
M  V30 3174 H 312.891 -0.472407 -4.01933 0
M  V30 3175 H 311.461 0.100025 -3.1244 0
M  V30 3176 H 310.681 -2.38563 -3.13817 0
M  V30 3177 H 311.969 -2.69403 -4.31624 0
M  V30 3178 H 311.367 0.192319 -5.65373 0
M  V30 3179 H 309.924 -0.162912 -6.51596 0
M  V30 3180 N 313.357 1.07166 -1.15556 0
M  V30 3181 C 314.307 2.12649 -0.82247 0
M  V30 3182 C 315.291 1.59725 0.194129 0
M  V30 3183 O 316.483 1.76999 -0.00540402 0
M  V30 3184 C 313.612 3.41847 -0.315572 0
M  V30 3185 C 312.698 4.0162 -1.36244 0
M  V30 3186 N 313.089 4.35625 -2.5703 0
M  V30 3187 C 311.387 4.29114 -1.21562 0
M  V30 3188 C 312.088 4.83017 -3.24144 0
M  V30 3189 N 311.064 4.81906 -2.51531 0
M  V30 3190 H 314.866 2.36776 -1.74111 0
M  V30 3191 H 312.38 1.24622 -1.0413 0
M  V30 3192 H 314.377 4.16859 -0.0585855 0
M  V30 3193 H 313.037 3.19163 0.597105 0
M  V30 3194 H 314.048 4.26253 -2.94158 0
M  V30 3195 H 310.725 4.15919 -0.362988 0
M  V30 3196 H 312.115 5.18605 -4.27198 0
M  V30 3197 N 314.835 0.952656 1.25548 0
M  V30 3198 C 315.798 0.475794 2.24207 0
M  V30 3199 C 316.798 -0.419428 1.55234 0
M  V30 3200 O 317.988 -0.216994 1.72843 0
M  V30 3201 C 315.12 -0.312814 3.39462 0
M  V30 3202 H 316.313 1.34779 2.67908 0
M  V30 3203 H 313.866 0.735739 1.37901 0
M  V30 3204 H 314.601 -1.20257 3.01179 0
M  V30 3205 H 314.386 0.329404 3.90714 0
M  V30 3206 H 315.876 -0.635986 4.12729 0
M  V30 3207 N 316.313 -1.40141 0.720998 0
M  V30 3208 C 317.553 -2.02644 0.267335 0
M  V30 3209 C 317.917 -1.55948 -1.12001 0
M  V30 3210 O 319.118 -2.10552 -1.67097 0
M  V30 3211 C 317.389 -3.55679 0.350281 0
M  V30 3212 S 318.948 -4.38793 -0.0256004 0
M  V30 3213 H 315.766 -0.703105 0.105664 0
M  V30 3214 H 318.368 -1.71175 0.944416 0
M  V30 3215 H 317.072 -3.87157 1.36153 0
M  V30 3216 H 316.603 -3.91883 -0.345096 0
M  V30 3217 H 318.618 -4.803 -1.24604 0
M  V30 3218 N 317.792 -0.46758 -1.50504 0
M  V30 3219 C 318.722 0.318381 -2.31319 0
M  V30 3220 C 319.703 0.993564 -1.38066 0
M  V30 3221 O 320.888 0.991411 -1.66987 0
M  V30 3222 C 318.018 1.40275 -3.17711 0
M  V30 3223 C 316.972 0.849373 -4.19487 0
M  V30 3224 C 316.298 2.03177 -4.94594 0
M  V30 3225 C 317.598 -0.136942 -5.2212 0
M  V30 3226 H 319.292 -0.356106 -2.97275 0
M  V30 3227 H 316.838 -0.172703 -1.42961 0
M  V30 3228 H 318.791 1.96004 -3.73042 0
M  V30 3229 H 317.515 2.10596 -2.49634 0
M  V30 3230 H 316.174 0.314076 -3.65252 0
M  V30 3231 H 315.822 2.72187 -4.22993 0
M  V30 3232 H 315.522 1.66774 -5.63436 0
M  V30 3233 H 317.046 2.59403 -5.52759 0
M  V30 3234 H 318.46 0.331056 -5.72343 0
M  V30 3235 H 316.857 -0.41507 -5.98663 0
M  V30 3236 H 317.927 -1.06398 -4.73083 0
M  V30 3237 N 319.27 1.56325 -0.20005 0
M  V30 3238 C 320.5 2.01811 0.442232 0
M  V30 3239 C 320.908 1.07932 1.55394 0
M  V30 3240 O 320.251 0.0772685 1.83537 0
M  V30 3241 C 320.313 3.43685 1.05457 0
M  V30 3242 C 319.977 4.56928 0.0809833 0
M  V30 3243 C 320.974 5.15009 -0.711471 0
M  V30 3244 C 318.659 5.0229 -0.0315364 0
M  V30 3245 C 320.653 6.16904 -1.60336 0
M  V30 3246 C 318.34 6.04028 -0.926981 0
M  V30 3247 C 319.338 6.6121 -1.71146 0
M  V30 3248 O 319.026 7.60971 -2.59189 0
M  V30 3249 H 318.758 0.666173 0.114848 0
M  V30 3250 H 321.312 2.03085 -0.307511 0
M  V30 3251 H 319.542 3.39413 1.85299 0
M  V30 3252 H 321.231 3.72948 1.60201 0
M  V30 3253 H 321.997 4.80827 -0.634873 0
M  V30 3254 H 317.876 4.57476 0.568902 0
M  V30 3255 H 321.42 6.61464 -2.21611 0
M  V30 3256 H 317.317 6.37634 -1.00468 0
M  V30 3257 H 318.085 7.7841 -2.53023 0
M  V30 3258 N 320.748 -0.0735177 1.57428 0
M  V30 3259 C 321.994 -0.768909 1.88307 0
M  V30 3260 C 322.349 -1.75273 0.793535 0
M  V30 3261 O 321.642 -1.90527 -0.202466 0
M  V30 3262 C 321.836 -1.51799 3.23561 0
M  V30 3263 C 321.665 -0.608217 4.45568 0
M  V30 3264 C 320.435 -0.245808 5.04702 0
M  V30 3265 C 322.633 0.0942904 5.14214 0
M  V30 3266 N 320.615 0.66987 6.10234 0
M  V30 3267 C 321.986 0.867222 6.13905 0
M  V30 3268 C 324.041 0.165943 4.97623 0
M  V30 3269 C 322.744 1.70515 6.98797 0
M  V30 3270 C 324.77 0.990837 5.83041 0
M  V30 3271 C 324.132 1.75182 6.82269 0
M  V30 3272 H 320.231 -0.25685 0.738615 0
M  V30 3273 H 322.815 -0.030499 1.94676 0
M  V30 3274 H 320.986 -2.22713 3.18203 0
M  V30 3275 H 322.718 -2.16226 3.42094 0
M  V30 3276 H 319.473 -0.598284 4.69806 0
M  V30 3277 H 319.897 1.1209 6.67656 0
M  V30 3278 H 324.539 -0.408064 4.20826 0
M  V30 3279 H 322.257 2.29013 7.7497 0
M  V30 3280 H 325.843 1.04923 5.72261 0
M  V30 3281 H 324.723 2.37983 7.47217 0
M  V30 3282 N 322.226 -1.5378 -0.344866 0
M  V30 3283 C 323.174 -1.82373 -1.4437 0
M  V30 3284 C 324.168 -0.694128 -1.54526 0
M  V30 3285 O 325.374 -0.877442 -1.57165 0
M  V30 3286 H 321.749 -0.577765 -0.481344 0
M  V30 3287 H 323.72 -2.74306 -1.17468 0
M  V30 3288 C 322.469 -2.04898 -2.80913 0
M  V30 3289 H 321.792 -2.9127 -2.73865 0
M  V30 3290 H 323.232 -2.28871 -3.56923 0
M  V30 3291 C 321.691 -0.834116 -3.26411 0
M  V30 3292 O 322.221 -0.0328885 -4.01687 0
M  V30 3293 N 320.427 -0.65171 -2.83198 0
M  V30 3294 H 319.974 -1.30489 -2.22104 0
M  V30 3295 H 319.932 0.159686 -3.13994 0
M  V30 3296 N 323.704 0.605807 -1.45491 0
M  V30 3297 C 324.929 1.39625 -1.53361 0
M  V30 3298 C 325.354 1.87351 -0.167645 0
M  V30 3299 O 324.712 1.60243 0.848051 0
M  V30 3300 C 324.76 2.57559 -2.5238 0
M  V30 3301 O 323.864 3.58248 -2.04285 0
M  V30 3302 H 323.205 0.416771 -0.516912 0
M  V30 3303 H 325.735 0.737103 -1.90861 0
M  V30 3304 H 325.745 3.0478 -2.71244 0
M  V30 3305 H 324.42 2.22171 -3.51586 0
M  V30 3306 H 322.997 3.17664 -1.95305 0
M  V30 3307 N 325.182 1.32811 0.848464 0
M  V30 3308 C 326.132 1.18842 1.94578 0
M  V30 3309 C 327.116 0.0937517 1.60627 0
M  V30 3310 O 328.308 0.320887 1.74067 0
M  V30 3311 C 325.437 0.91999 3.30743 0
M  V30 3312 C 324.523 2.05665 3.70894 0
M  V30 3313 N 324.914 3.30579 3.8282 0
M  V30 3314 C 323.212 1.9612 4.00566 0
M  V30 3315 C 323.913 4.05067 4.17487 0
M  V30 3316 N 322.889 3.33419 4.2934 0
M  V30 3317 H 326.691 2.13536 2.0194 0
M  V30 3318 H 324.205 1.2468 1.0406 0
M  V30 3319 H 326.202 0.800859 4.09136 0
M  V30 3320 H 324.862 -0.0185076 3.24695 0
M  V30 3321 H 325.873 3.65441 3.66978 0
M  V30 3322 H 322.55 1.09871 4.02784 0
M  V30 3323 H 323.94 5.12815 4.34131 0
M  V30 3324 N 326.66 -1.06551 1.16123 0
M  V30 3325 C 327.59 -2.15935 0.88851 0
M  V30 3326 C 328.571 -1.69306 -0.164135 0
M  V30 3327 O 329.756 -1.94193 -0.0167857 0
M  V30 3328 C 326.886 -3.45149 0.385942 0
M  V30 3329 C 325.84 -4.05271 1.3762 0
M  V30 3330 C 325.166 -5.29664 0.732137 0
M  V30 3331 C 326.466 -4.44355 2.74493 0
M  V30 3332 H 328.16 -2.39006 1.80323 0
M  V30 3333 H 325.706 -1.14866 0.868435 0
M  V30 3334 H 327.659 -4.21004 0.182647 0
M  V30 3335 H 326.383 -3.21689 -0.564274 0
M  V30 3336 H 325.042 -3.3147 1.56599 0
M  V30 3337 H 324.69 -5.02499 -0.224483 0
M  V30 3338 H 324.39 -5.70848 1.39307 0
M  V30 3339 H 325.914 -6.08218 0.538802 0
M  V30 3340 H 327.328 -5.11303 2.59311 0
M  V30 3341 H 325.725 -4.96515 3.37035 0
M  V30 3342 H 326.795 -3.55339 3.29943 0
M  V30 3343 N 328.138 -0.959301 -1.25041 0
M  V30 3344 C 329.068 -0.501388 -2.28053 0
M  V30 3345 C 330.049 0.454673 -1.63911 0
M  V30 3346 O 331.234 0.352618 -1.90972 0
M  V30 3347 C 328.364 0.217224 -3.4662 0
M  V30 3348 C 327.318 -0.654034 -4.22973 0
M  V30 3349 C 326.644 0.195589 -5.34342 0
M  V30 3350 C 327.944 -1.93447 -4.85155 0
M  V30 3351 H 329.638 -1.36238 -2.66608 0
M  V30 3352 H 327.184 -0.656534 -1.28163 0
M  V30 3353 H 329.137 0.548732 -4.17812 0
M  V30 3354 H 327.861 1.1125 -3.07068 0
M  V30 3355 H 326.52 -0.968693 -3.5357 0
M  V30 3356 H 326.168 1.09076 -4.91031 0
M  V30 3357 H 325.868 -0.384091 -5.86343 0
M  V30 3358 H 327.392 0.521958 -6.08365 0
M  V30 3359 H 328.806 -1.66908 -5.48466 0
M  V30 3360 H 327.203 -2.46018 -5.47353 0
M  V30 3361 H 328.273 -2.63466 -4.07079 0
M  V30 3362 N 329.616 1.39756 -0.72842 0
M  V30 3363 C 330.546 2.33289 -0.0991354 0
M  V30 3364 C 331.527 1.53568 0.731489 0
M  V30 3365 O 332.712 1.81987 0.677807 0
M  V30 3366 C 329.842 3.3763 0.813834 0
M  V30 3367 C 328.796 4.2791 0.0878663 0
M  V30 3368 C 328.122 5.22894 1.11741 0
M  V30 3369 C 329.422 5.11314 -1.06563 0
M  V30 3370 H 331.116 2.86163 -0.880408 0
M  V30 3371 H 328.662 1.37591 -0.424819 0
M  V30 3372 H 330.615 4.0201 1.26355 0
M  V30 3373 H 329.339 2.83181 1.62715 0
M  V30 3374 H 327.998 3.65 -0.342159 0
M  V30 3375 H 327.646 4.64744 1.92412 0
M  V30 3376 H 327.346 5.84143 0.636477 0
M  V30 3377 H 328.87 5.90151 1.56697 0
M  V30 3378 H 330.284 5.69076 -0.694671 0
M  V30 3379 H 328.681 5.81671 -1.47577 0
M  V30 3380 H 329.751 4.46534 -1.89038 0
M  V30 3381 N 331.094 0.475555 1.50254 0
M  V30 3382 C 332.026 -0.352649 2.26471 0
M  V30 3383 C 333.039 -0.953165 1.3198 0
M  V30 3384 O 334.228 -0.840815 1.57457 0
M  V30 3385 C 331.328 -1.50902 3.0345 0
M  V30 3386 C 330.501 -1.02047 4.25329 0
M  V30 3387 C 329.56 -2.05142 4.84565 0
M  V30 3388 O 328.586 -1.63023 5.45355 0
M  V30 3389 N 329.788 -3.37987 4.71959 0
M  V30 3390 H 332.553 0.300767 2.98187 0
M  V30 3391 H 330.114 0.306598 1.5897 0
M  V30 3392 H 332.106 -2.19572 3.39956 0
M  V30 3393 H 330.676 -2.06705 2.34504 0
M  V30 3394 H 329.896 -0.159507 3.93877 0
M  V30 3395 H 331.184 -0.672061 5.04342 0
M  V30 3396 H 330.582 -3.74913 4.23623 0
M  V30 3397 H 329.139 -4.02443 5.12721 0
M  V30 3398 N 332.573 -1.56217 0.208337 0
M  V30 3399 C 333.483 -2.23316 -0.718836 0
M  V30 3400 C 334.499 -1.23648 -1.22422 0
M  V30 3401 O 335.675 -1.56423 -1.26861 0
M  V30 3402 C 332.74 -2.88968 -1.91568 0
M  V30 3403 C 331.801 -4.03943 -1.45357 0
M  V30 3404 C 331.034 -4.66455 -2.59337 0
M  V30 3405 O 331.257 -4.27919 -3.77149 0
M  V30 3406 O 330.191 -5.55686 -2.31293 0
M  V30 3407 H 334.017 -3.03182 -0.177315 0
M  V30 3408 H 331.602 -1.49384 -0.0215402 0
M  V30 3409 H 333.484 -3.30455 -2.61491 0
M  V30 3410 H 332.159 -2.12071 -2.44556 0
M  V30 3411 H 331.066 -3.67052 -0.722746 0
M  V30 3412 H 332.399 -4.82543 -0.970219 0
M  V30 3413 N 334.051 0.0651679 -1.57465 0
M  V30 3414 C 334.999 1.09542 -2.05191 0
M  V30 3415 C 335.993 1.39675 -0.958509 0
M  V30 3416 O 337.199 1.39003 -1.14359 0
M  V30 3417 H 333.574 0.370623 -0.654326 0
M  V30 3418 H 335.545 0.666802 -2.90854 0
M  V30 3419 C 334.294 2.39881 -2.51699 0
M  V30 3420 H 333.617 2.17547 -3.3543 0
M  V30 3421 H 335.057 3.104 -2.88839 0
M  V30 3422 C 333.516 3.0631 -1.40271 0
M  V30 3423 O 334.046 3.94664 -0.748523 0
M  V30 3424 N 332.252 2.67041 -1.14618 0
M  V30 3425 H 331.799 1.95281 -1.67997 0
M  V30 3426 H 331.757 3.1181 -0.402688 0
M  V30 3427 N 335.529 1.53961 0.336706 0
M  V30 3428 C 336.759 1.75229 1.09446 0
M  V30 3429 C 337.167 0.494602 1.82621 0
M  V30 3430 O 336.51 -0.543764 1.75468 0
M  V30 3431 C 336.572 2.88288 2.1478 0
M  V30 3432 C 336.236 4.27656 1.6112 0
M  V30 3433 C 337.233 5.08981 1.0599 0
M  V30 3434 C 334.918 4.74161 1.6576 0
M  V30 3435 C 336.912 6.34916 0.562129 0
M  V30 3436 C 334.599 6.00067 1.15595 0
M  V30 3437 C 335.597 6.80278 0.609147 0
M  V30 3438 O 335.285 8.03818 0.114999 0
M  V30 3439 H 335.017 0.588881 0.331956 0
M  V30 3440 H 337.571 2.01614 0.392566 0
M  V30 3441 H 335.801 2.57443 2.88548 0
M  V30 3442 H 337.49 2.97461 2.76174 0
M  V30 3443 H 338.256 4.74213 1.01722 0
M  V30 3444 H 334.135 4.11781 2.07261 0
M  V30 3445 H 337.679 6.9747 0.134668 0
M  V30 3446 H 333.576 6.3433 1.19566 0
M  V30 3447 H 334.344 8.18172 0.231651 0
M  V30 3448 N 337.007 -0.598083 1.45811 0
M  V30 3449 C 337.955 -1.72932 1.55555 0
M  V30 3450 C 338.949 -1.63984 0.424921 0
M  V30 3451 O 340.155 -1.69663 0.601205 0
M  V30 3452 H 336.53 -0.571489 0.488779 0
M  V30 3453 H 338.501 -1.61842 2.50699 0
M  V30 3454 C 337.25 -3.11318 1.54843 0
M  V30 3455 H 336.573 -3.18867 2.41172 0
M  V30 3456 H 338.013 -3.90274 1.65717 0
M  V30 3457 C 336.472 -3.3578 0.274427 0
M  V30 3458 O 337.002 -3.9654 -0.641778 0
M  V30 3459 N 335.208 -2.90119 0.167139 0
M  V30 3460 H 334.755 -2.40855 0.913596 0
M  V30 3461 H 334.713 -3.0686 -0.684435 0
M  V30 3462 N 338.485 -1.33259 -0.841409 0
M  V30 3463 C 339.418 -1.1764 -1.95541 0
M  V30 3464 C 340.396 -0.072501 -1.62438 0
M  V30 3465 O 341.58 -0.23427 -1.87039 0
M  V30 3466 C 338.707 -0.803794 -3.29024 0
M  V30 3467 C 337.753 -1.91482 -3.81099 0
M  V30 3468 S 338.586 -3.52538 -4.03085 0
M  V30 3469 C 339.742 -3.17279 -5.39523 0
M  V30 3470 H 339.975 -2.11941 -2.08491 0
M  V30 3471 H 337.508 -1.18072 -0.9949 0
M  V30 3472 H 339.466 -0.595592 -4.06156 0
M  V30 3473 H 338.127 0.120574 -3.13868 0
M  V30 3474 H 337.32 -1.60742 -4.7768 0
M  V30 3475 H 336.922 -2.07956 -3.10854 0
M  V30 3476 H 339.214 -2.67946 -6.22263 0
M  V30 3477 H 340.157 -4.1293 -5.75234 0
M  V30 3478 H 340.565 -2.53943 -5.04156 0
M  V30 3479 N 339.963 1.05934 -1.16686 0
M  V30 3480 C 341.21 1.788 -0.950622 0
M  V30 3481 C 341.538 1.87384 0.521305 0
M  V30 3482 O 340.793 1.36438 1.40297 0
M  V30 3483 C 341.092 3.23105 -1.52767 0
M  V30 3484 C 340.758 3.34594 -3.02254 0
M  V30 3485 C 339.42 3.37437 -3.43059 0
M  V30 3486 C 341.772 3.36219 -3.98254 0
M  V30 3487 C 339.1 3.39525 -4.78477 0
M  V30 3488 C 341.452 3.39845 -5.33562 0
M  V30 3489 C 340.116 3.40971 -5.73842 0
M  V30 3490 H 339.386 0.654275 -0.347857 0
M  V30 3491 H 342.033 1.24555 -1.45459 0
M  V30 3492 H 340.338 3.80227 -0.94524 0
M  V30 3493 H 342.035 3.7809 -1.336 0
M  V30 3494 H 338.625 3.3309 -2.6972 0
M  V30 3495 H 342.809 3.33231 -3.67792 0
M  V30 3496 H 338.065 3.38703 -5.09009 0
M  V30 3497 H 342.239 3.4005 -6.07733 0
M  V30 3498 H 339.866 3.42342 -6.78753 0
M  V30 3499 N 341.441 0.965919 1.2453 0
M  V30 3500 C 342.374 0.4393 2.23932 0
M  V30 3501 C 343.352 -0.485615 1.55179 0
M  V30 3502 O 344.536 -0.417402 1.83821 0
M  V30 3503 C 341.663 -0.366042 3.36716 0
M  V30 3504 C 340.709 0.5009 4.23548 0
M  V30 3505 S 341.542 1.94002 4.99123 0
M  V30 3506 C 342.698 1.14342 6.15367 0
M  V30 3507 H 342.931 1.28167 2.68254 0
M  V30 3508 H 340.464 0.770819 1.33782 0
M  V30 3509 H 342.422 -0.824724 4.0213 0
M  V30 3510 H 341.083 -1.18337 2.90956 0
M  V30 3511 H 340.276 -0.117341 5.03863 0
M  V30 3512 H 339.878 0.89524 3.63127 0
M  V30 3513 H 342.17 0.397572 6.76332 0
M  V30 3514 H 343.113 1.92089 6.81548 0
M  V30 3515 H 343.521 0.668579 5.60527 0
M  V30 3516 N 342.919 -1.39368 0.735821 0
M  V30 3517 C 343.829 -2.34395 0.0979693 0
M  V30 3518 C 344.845 -1.58361 -0.720968 0
M  V30 3519 O 346.021 -1.90648 -0.649245 0
M  V30 3520 C 343.086 -3.37393 -0.797916 0
M  V30 3521 C 342.147 -4.29287 0.0333662 0
M  V30 3522 C 341.38 -5.27365 -0.819854 0
M  V30 3523 O 341.603 -5.31959 -2.05855 0
M  V30 3524 O 340.537 -6.01389 -0.248079 0
M  V30 3525 H 344.363 -2.90601 0.882315 0
M  V30 3526 H 341.948 -1.40909 0.4965 0
M  V30 3527 H 343.83 -4.00505 -1.31048 0
M  V30 3528 H 342.505 -2.83571 -1.56106 0
M  V30 3529 H 341.412 -3.69395 0.591475 0
M  V30 3530 H 342.745 -4.86317 0.758752 0
M  V30 3531 N 344.397 -0.483516 -1.5 0
M  V30 3532 C 345.674 0.129337 -1.95172 0
M  V30 3533 C 346.054 1.55802 -1.4244 0
M  V30 3534 O 345.402 2.19625 -0.630649 0
M  V30 3535 C 345.612 0.0599251 -3.48949 0
M  V30 3536 C 346.96 0.242617 -4.23906 0
M  V30 3537 O 347.984 0.135933 -3.55941 0
M  V30 3538 O 346.843 0.459454 -5.44565 0
M  V30 3539 H 343.937 0.104887 -0.820322 0
M  V30 3540 H 346.483 -0.544807 -1.60717 0
M  V30 3541 H 345.255 -0.937079 -3.79914 0
M  V30 3542 H 344.878 0.774984 -3.89974 0
M  V30 3543 N 345.875 1.56104 -0.216619 0
M  V30 3544 C 346.838 2.18819 0.681962 0
M  V30 3545 C 347.838 1.14866 1.12528 0
M  V30 3546 O 349.028 1.40128 1.03488 0
M  V30 3547 C 346.16 2.80756 1.93362 0
M  V30 3548 H 347.353 2.99595 0.135254 0
M  V30 3549 H 344.906 1.56265 0.0330003 0
M  V30 3550 H 345.641 2.03837 2.52232 0
M  V30 3551 H 345.426 3.56876 1.62426 0
M  V30 3552 H 346.916 3.28844 2.57393 0
M  V30 3553 N 347.353 -0.0568162 1.57498 0
M  V30 3554 C 348.263 -1.08346 2.08083 0
M  V30 3555 C 349.279 -1.41439 1.01346 0
M  V30 3556 O 350.455 -1.51316 1.32912 0
M  V30 3557 C 347.52 -2.37352 2.52715 0
M  V30 3558 C 346.581 -2.11093 3.73816 0
M  V30 3559 C 345.814 -3.33949 4.1631 0
M  V30 3560 O 346.037 -4.43622 3.58547 0
M  V30 3561 O 344.971 -3.21279 5.08983 0
M  V30 3562 H 348.797 -0.683667 2.95905 0
M  V30 3563 H 346.382 -0.271965 1.46904 0
M  V30 3564 H 348.264 -3.13246 2.81877 0
M  V30 3565 H 346.939 -2.76681 1.68016 0
M  V30 3566 H 345.846 -1.32856 3.49714 0
M  V30 3567 H 347.179 -1.76637 4.59413 0
M  V30 3568 N 348.832 -1.54138 -0.328536 0
M  V30 3569 C 350.06 -1.76062 -1.08673 0
M  V30 3570 C 350.475 -0.506852 -1.81869 0
M  V30 3571 O 349.832 0.522223 -1.74869 0
M  V30 3572 C 349.883 -2.95054 -2.08866 0
M  V30 3573 O 349.604 -4.15583 -1.38644 0
M  V30 3574 C 351.105 -3.2915 -2.96943 0
M  V30 3575 H 348.325 -0.587889 -0.323461 0
M  V30 3576 H 350.869 -2.0101 -0.376175 0
M  V30 3577 H 349.024 -2.72394 -2.75464 0
M  V30 3578 H 349.438 -4.82481 -2.05699 0
M  V30 3579 H 350.912 -4.15723 -3.63151 0
M  V30 3580 H 351.389 -2.461 -3.63774 0
M  V30 3581 H 351.995 -3.53871 -2.35914 0
M  V30 3582 N 350.31 0.590341 -1.46126 0
M  V30 3583 C 351.26 1.69466 -1.5253 0
M  V30 3584 C 352.244 1.56179 -0.386917 0
M  V30 3585 O 353.436 1.65223 -0.634858 0
M  V30 3586 C 350.565 3.08245 -1.5113 0
M  V30 3587 C 349.651 3.26856 -2.70233 0
M  V30 3588 N 350.042 3.15657 -3.95214 0
M  V30 3589 C 348.34 3.57775 -2.66296 0
M  V30 3590 C 349.041 3.36066 -4.74799 0
M  V30 3591 N 348.017 3.60865 -4.06543 0
M  V30 3592 H 351.819 1.59326 -2.46966 0
M  V30 3593 H 349.333 0.79414 -1.41659 0
M  V30 3594 H 351.33 3.87492 -1.53804 0
M  V30 3595 H 349.99 3.19521 -0.577636 0
M  V30 3596 H 351.001 2.93686 -4.26578 0
M  V30 3597 H 347.678 3.75782 -1.81918 0
M  V30 3598 H 349.068 3.32655 -5.83772 0
M  V30 3599 N 351.788 1.33704 0.83433 0
M  V30 3600 C 353.036 1.25169 1.58673 0
M  V30 3601 C 353.357 -0.18127 1.94156 0
M  V30 3602 O 352.627 -1.11113 1.6134 0
M  V30 3603 H 351.207 0.4603 0.58833 0
M  V30 3604 H 353.869 1.67478 0.996847 0
M  V30 3605 H 352.965 1.84856 2.51465 0
M  V30 3606 N 353.266 -1.05314 1.17247 0
M  V30 3607 C 354.515 -1.77685 0.954521 0
M  V30 3608 C 354.828 -1.88616 -0.518025 0
M  V30 3609 O 356.034 -2.57714 -0.854144 0
M  V30 3610 C 354.49 -3.19402 1.65863 0
M  V30 3611 C 354.098 -3.16605 3.16963 0
M  V30 3612 C 355.842 -3.96237 1.52303 0
M  V30 3613 C 353.749 -4.53103 3.80068 0
M  V30 3614 H 352.679 -0.666 0.353496 0
M  V30 3615 H 355.33 -1.1805 1.40486 0
M  V30 3616 H 353.712 -3.79355 1.13602 0
M  V30 3617 H 354.886 -2.66176 3.76148 0
M  V30 3618 H 353.201 -2.53268 3.30521 0
M  V30 3619 H 355.798 -4.97157 1.96822 0
M  V30 3620 H 356.141 -4.136 0.473401 0
M  V30 3621 H 356.674 -3.42829 2.01775 0
M  V30 3622 H 353.413 -4.40946 4.85023 0
M  V30 3623 H 352.933 -5.03686 3.2567 0
M  V30 3624 H 354.612 -5.22045 3.82202 0
M  V30 3625 N 354.744 -0.972509 -1.24016 0
M  V30 3626 C 355.992 -0.635776 -1.91839 0
M  V30 3627 C 356.313 0.832312 -1.76345 0
M  V30 3628 O 355.583 1.5946 -1.13795 0
M  V30 3629 H 354.163 -0.232157 -0.710009 0
M  V30 3630 H 356.825 -1.23462 -1.50809 0
M  V30 3631 H 355.921 -0.880545 -2.99421 0
M  V30 3632 N 356.222 1.38976 -0.743202 0
M  V30 3633 C 357.132 2.3434 -0.110399 0
M  V30 3634 C 358.148 1.58741 0.712559 0
M  V30 3635 O 359.324 1.9099 0.639125 0
M  V30 3636 C 356.389 3.37812 0.780012 0
M  V30 3637 C 355.45 4.29263 -0.0561319 0
M  V30 3638 C 354.683 5.27793 0.791875 0
M  V30 3639 O 354.906 5.33043 2.03031 0
M  V30 3640 O 353.84 6.01512 0.216183 0
M  V30 3641 H 357.666 2.90129 -0.897714 0
M  V30 3642 H 355.251 1.40643 -0.503966 0
M  V30 3643 H 357.133 4.01194 1.28923 0
M  V30 3644 H 355.808 2.84395 1.546 0
M  V30 3645 H 354.715 3.69076 -0.611056 0
M  V30 3646 H 356.048 4.85907 -0.784531 0
M  V30 3647 N 357.7 0.491464 1.49741 0
M  V30 3648 C 358.65 -0.311086 2.25868 0
M  V30 3649 C 359.634 -0.943857 1.30308 0
M  V30 3650 O 360.826 -0.853035 1.55088 0
M  V30 3651 C 357.955 -1.38059 3.14316 0
M  V30 3652 C 357.041 -0.754541 4.17334 0
M  V30 3653 N 357.432 0.137216 5.05614 0
M  V30 3654 C 355.73 -1.01621 4.34269 0
M  V30 3655 C 356.431 0.494614 5.79593 0
M  V30 3656 N 355.407 -0.135169 5.43432 0
M  V30 3657 H 359.209 0.37555 2.91491 0
M  V30 3658 H 356.723 0.306917 1.59473 0
M  V30 3659 H 358.72 -1.96891 3.67477 0
M  V30 3660 H 357.38 -2.06901 2.50244 0
M  V30 3661 H 358.391 0.50741 5.15408 0
M  V30 3662 H 355.068 -1.69808 3.81407 0
M  V30 3663 H 356.458 1.2236 6.60665 0
M  V30 3664 N 359.178 -1.55987 0.224894 0
M  V30 3665 C 360.126 -2.21808 -0.700283 0
M  V30 3666 C 361.12 -1.19854 -1.19714 0
M  V30 3667 O 362.326 -1.37925 -1.15658 0
M  V30 3668 H 358.701 -0.711226 -0.244258 0
M  V30 3669 H 360.672 -2.98152 -0.121749 0
M  V30 3670 C 359.421 -2.91444 -1.8962 0
M  V30 3671 H 358.744 -3.69655 -1.52299 0
M  V30 3672 H 360.184 -3.40894 -2.52125 0
M  V30 3673 C 358.643 -1.94098 -2.75368 0
M  V30 3674 O 359.173 -1.46004 -3.74227 0
M  V30 3675 N 357.379 -1.61675 -2.41474 0
M  V30 3676 H 356.926 -2.00979 -1.61137 0
M  V30 3677 H 356.884 -0.968036 -2.99126 0
M  V30 3678 N 360.656 0.0484629 -1.57525 0
M  V30 3679 C 361.903 0.743125 -1.88372 0
M  V30 3680 C 362.231 1.76383 -0.819715 0
M  V30 3681 O 361.486 1.94855 0.181659 0
M  V30 3682 C 361.785 1.46632 -3.25935 0
M  V30 3683 C 361.451 0.583427 -4.4711 0
M  V30 3684 C 360.113 0.340191 -4.79996 0
M  V30 3685 C 362.465 -0.0273345 -5.21193 0
M  V30 3686 C 359.793 -0.522903 -5.84365 0
M  V30 3687 C 362.145 -0.878017 -6.26477 0
M  V30 3688 C 360.809 -1.1309 -6.5785 0
M  V30 3689 H 360.079 0.271929 -0.689301 0
M  V30 3690 H 362.726 0.00336166 -1.915 0
M  V30 3691 H 361.031 2.2789 -3.18706 0
M  V30 3692 H 362.728 2.00902 -3.47044 0
M  V30 3693 H 359.318 0.783151 -4.21384 0
M  V30 3694 H 363.502 0.147654 -4.9608 0
M  V30 3695 H 358.758 -0.727335 -6.07058 0
M  V30 3696 H 362.932 -1.35789 -6.83033 0
M  V30 3697 H 360.559 -1.80144 -7.38547 0
M  V30 3698 N 362.134 1.5431 0.320358 0
M  V30 3699 C 363.374 1.74395 1.0661 0
M  V30 3700 C 363.738 0.508602 1.85141 0
M  V30 3701 O 364.939 0.586856 2.62316 0
M  V30 3702 C 363.21 2.98619 1.96371 0
M  V30 3703 S 364.769 3.39621 2.77854 0
M  V30 3704 H 361.587 0.613204 0.359863 0
M  V30 3705 H 364.189 1.9249 0.341727 0
M  V30 3706 H 362.893 3.86673 1.3752 0
M  V30 3707 H 362.424 2.83055 2.73209 0
M  V30 3708 H 364.439 2.95172 3.98858 0
M  V30 3709 N 363.613 -0.582584 1.46437 0
M  V30 3710 C 365.029 -0.905962 1.31394 0
M  V30 3711 C 365.229 -1.99468 0.285476 0
M  V30 3712 O 364.285 -2.50566 -0.311914 0
M  V30 3713 C 365.598 -1.3232 2.70022 0
M  V30 3714 C 367.146 -1.43604 2.78113 0
M  V30 3715 C 367.621 -1.88694 4.17323 0
M  V30 3716 N 369.112 -1.95887 4.19741 0
M  V30 3717 C 369.847 -2.32051 5.24347 0
M  V30 3718 N 369.343 -2.67006 6.39281 0
M  V30 3719 N 371.136 -2.32606 5.11713 0
M  V30 3720 H 363.287 0.1366 2.1196 0
M  V30 3721 H 365.55 -0.00155736 0.947999 0
M  V30 3722 H 365.256 -0.597242 3.46592 0
M  V30 3723 H 365.13 -2.28469 3.00136 0
M  V30 3724 H 367.517 -2.15286 2.01832 0
M  V30 3725 H 367.598 -0.457059 2.51684 0
M  V30 3726 H 367.242 -1.1759 4.941 0
M  V30 3727 H 367.172 -2.8755 4.4116 0
M  V30 3728 H 369.663 -1.71362 3.36814 0
M  V30 3729 H 369.976 -2.93554 7.14875 0
M  V30 3730 H 368.321 -2.64644 6.42642 0
M  V30 3731 H 371.512 -2.04721 4.2096 0
M  V30 3732 H 371.685 -2.60462 5.93349 0
M  V30 3733 N 365.091 -1.34144 -0.827227 0
M  V30 3734 C 366.039 -1.25364 -1.95925 0
M  V30 3735 C 367.033 -0.152608 -1.68711 0
M  V30 3736 O 368.239 -0.317311 -1.77181 0
M  V30 3737 H 364.614 -0.389342 -0.643364 0
M  V30 3738 H 366.585 -2.21045 -2.00454 0
M  V30 3739 C 365.334 -1.02158 -3.32354 0
M  V30 3740 H 364.657 -1.86111 -3.5384 0
M  V30 3741 H 366.097 -1.00048 -4.12027 0
M  V30 3742 C 364.556 0.275244 -3.35774 0
M  V30 3743 O 365.086 1.27806 -3.80826 0
M  V30 3744 N 363.292 0.306853 -2.88975 0
M  V30 3745 H 362.839 -0.509777 -2.52506 0
M  V30 3746 H 362.797 1.17432 -2.91646 0
M  V30 3747 N 366.569 1.04691 -1.17803 0
M  V30 3748 C 367.98 1.59238 -0.974689 0
M  V30 3749 C 368.331 1.90306 0.477292 0
M  V30 3750 O 367.456 1.68846 1.35352 0
M  V30 3751 C 368.051 2.89318 -1.76296 0
M  V30 3752 C 366.61 3.40506 -1.60414 0
M  V30 3753 C 365.757 2.14172 -1.76141 0
M  V30 3754 H 368.708 0.874395 -1.32439 0
M  V30 3755 H 368.729 3.5944 -1.24833 0
M  V30 3756 H 368.241 2.66675 -2.81968 0
M  V30 3757 H 366.342 3.68175 -0.572519 0
M  V30 3758 H 366.455 4.14753 -2.39827 0
M  V30 3759 H 364.819 2.25176 -1.19028 0
M  V30 3760 H 365.602 1.93992 -2.83235 0
M  V30 3761 N 368.047 0.979072 1.23499 0
M  V30 3762 C 369.324 0.563674 1.87302 0
M  V30 3763 C 369.704 -0.959199 1.88049 0
M  V30 3764 O 369.052 -1.83535 1.36114 0
M  V30 3765 C 369.262 1.16822 3.28867 0
M  V30 3766 C 370.61 1.26014 4.0547 0
M  V30 3767 O 371.634 1.12158 3.38082 0
M  V30 3768 O 370.493 1.48044 5.26066 0
M  V30 3769 H 367.587 0.189602 0.804972 0
M  V30 3770 H 370.133 1.07407 1.31384 0
M  V30 3771 H 368.905 2.21049 3.22883 0
M  V30 3772 H 368.528 0.642564 3.92373 0
M  V30 3773 N 369.525 -1.3858 0.750561 0
M  V30 3774 C 370.488 -2.28836 0.129152 0
M  V30 3775 C 371.488 -1.47045 -0.650714 0
M  V30 3776 O 372.678 -1.6753 -0.477428 0
M  V30 3777 C 369.81 -3.30751 -0.825622 0
M  V30 3778 H 371.003 -2.85294 0.924516 0
M  V30 3779 H 368.556 -1.47489 0.517376 0
M  V30 3780 H 369.291 -2.79378 -1.64677 0
M  V30 3781 H 369.076 -3.91177 -0.268852 0
M  V30 3782 H 370.566 -3.98249 -1.2565 0
M  V30 3783 N 371.003 -0.499398 -1.49478 0
M  V30 3784 C 372.28 0.108629 -1.95298 0
M  V30 3785 C 372.66 1.54282 -1.44084 0
M  V30 3786 O 372.008 2.18944 -0.653908 0
M  V30 3787 C 372.218 0.0229111 -3.48992 0
M  V30 3788 C 373.566 0.197643 -4.2414 0
M  V30 3789 O 374.59 0.0981735 -3.56065 0
M  V30 3790 O 373.449 0.401669 -5.45022 0
M  V30 3791 H 370.543 0.096181 -0.821388 0
M  V30 3792 H 373.089 -0.561822 -1.6013 0
M  V30 3793 H 371.861 -0.977321 -3.78899 0
M  V30 3794 H 371.484 0.733579 -3.90774 0
M  V30 3795 N 372.481 1.55866 -0.233164 0
M  V30 3796 C 373.391 2.24431 0.683217 0
M  V30 3797 C 374.407 1.2558 1.2044 0
M  V30 3798 O 375.583 1.58422 1.24356 0
M  V30 3799 C 372.648 2.91979 1.86947 0
M  V30 3800 C 371.709 4.06204 1.38912 0
M  V30 3801 C 370.942 4.70522 2.51883 0
M  V30 3802 O 371.165 4.33865 3.70293 0
M  V30 3803 O 370.099 5.59296 2.22423 0
M  V30 3804 H 373.925 3.03426 0.129059 0
M  V30 3805 H 371.51 1.494 -0.0022283 0
M  V30 3806 H 373.392 3.34573 2.56201 0
M  V30 3807 H 372.067 2.15935 2.41151 0
M  V30 3808 H 370.974 3.68155 0.664259 0
M  V30 3809 H 372.307 4.84025 0.893328 0
M  V30 3810 N 373.959 -0.0401083 1.57549 0
M  V30 3811 C 374.906 -1.04413 2.05831 0
M  V30 3812 C 375.876 -1.36585 0.945184 0
M  V30 3813 O 377.061 -1.47112 1.21502 0
M  V30 3814 C 374.201 -2.34336 2.53339 0
M  V30 3815 C 373.314 -2.08419 3.78398 0
M  V30 3816 C 372.449 -3.32133 4.14561 0
M  V30 3817 C 371.488 -3.01721 5.3257 0
M  V30 3818 N 370.625 -4.17855 5.64218 0
M  V30 3819 H 375.465 -0.625442 2.91363 0
M  V30 3820 H 373.002 -0.297218 1.44066 0
M  V30 3821 H 374.96 -3.10234 2.78946 0
M  V30 3822 H 373.59 -2.73948 1.7074 0
M  V30 3823 H 372.642 -1.23069 3.59942 0
M  V30 3824 H 373.954 -1.81978 4.64419 0
M  V30 3825 H 373.108 -4.16406 4.41238 0
M  V30 3826 H 371.847 -3.61678 3.2717 0
M  V30 3827 H 370.852 -2.15849 5.05657 0
M  V30 3828 H 372.077 -2.73466 6.21605 0
M  V30 3829 H 370.023 -4.47372 4.79786 0
M  V30 3830 H 369.94 -3.94798 6.44725 0
M  V30 3831 H 371.208 -5.03033 5.95465 0
M  V30 3832 N 375.437 -1.54477 -0.31217 0
M  V30 3833 C 376.848 -1.64344 -0.885891 0
M  V30 3834 C 377.199 -0.54485 -1.88483 0
M  V30 3835 O 376.324 0.320387 -2.14015 0
M  V30 3836 C 376.919 -2.97908 -1.61357 0
M  V30 3837 C 375.478 -3.09933 -2.13585 0
M  V30 3838 C 374.625 -2.59971 -0.964897 0
M  V30 3839 H 377.576 -1.58448 -0.0894528 0
M  V30 3840 H 377.597 -2.88706 -2.47848 0
M  V30 3841 H 377.109 -3.77845 -0.886277 0
M  V30 3842 H 375.21 -2.34694 -2.89395 0
M  V30 3843 H 375.323 -4.15916 -2.37804 0
M  V30 3844 H 373.687 -2.16147 -1.34731 0
M  V30 3845 H 374.47 -3.42376 -0.251742 0
M  V30 3846 N 376.915 0.57481 -1.46744 0
M  V30 3847 C 378.161 1.33251 -1.53674 0
M  V30 3848 C 378.516 1.91468 -0.189125 0
M  V30 3849 O 377.809 1.73954 0.803151 0
M  V30 3850 C 378.003 2.476 -2.57738 0
M  V30 3851 C 377.832 2.00586 -4.02487 0
M  V30 3852 C 376.602 1.85237 -4.70123 0
M  V30 3853 C 378.8 1.56078 -4.90045 0
M  V30 3854 N 376.782 1.32377 -5.99458 0
M  V30 3855 C 378.153 1.14863 -6.09267 0
M  V30 3856 C 380.208 1.43968 -4.76632 0
M  V30 3857 C 378.911 0.627435 -7.16558 0
M  V30 3858 C 380.937 0.932512 -5.84002 0
M  V30 3859 C 380.299 0.53019 -7.02402 0
M  V30 3860 H 376.398 0.480284 -0.617131 0
M  V30 3861 H 378.982 0.653592 -1.83402 0
M  V30 3862 H 377.153 3.13045 -2.29907 0
M  V30 3863 H 378.885 3.14567 -2.54616 0
M  V30 3864 H 375.64 2.07423 -4.25761 0
M  V30 3865 H 376.064 1.08085 -6.68316 0
M  V30 3866 H 380.706 1.73689 -3.85476 0
M  V30 3867 H 378.424 0.317821 -8.07475 0
M  V30 3868 H 382.01 0.842611 -5.75666 0
M  V30 3869 H 380.89 0.14381 -7.84068 0
M  V30 3870 N 378.394 1.34581 0.820102 0
M  V30 3871 C 379.634 1.28448 1.58998 0
M  V30 3872 C 379.998 -0.142883 1.91468 0
M  V30 3873 O 381.199 -0.328422 2.66786 0
M  V30 3874 C 379.47 2.153 2.85273 0
M  V30 3875 S 381.029 2.26548 3.75794 0
M  V30 3876 H 377.847 0.456685 0.54494 0
M  V30 3877 H 380.449 1.69825 0.968487 0
M  V30 3878 H 379.153 3.18008 2.59421 0
M  V30 3879 H 378.684 1.7483 3.52417 0
M  V30 3880 H 380.699 1.44034 4.74835 0
M  V30 3881 N 379.872 -1.04064 1.18357 0
M  V30 3882 C 381.119 -1.77265 0.978947 0
M  V30 3883 C 381.447 -1.88189 -0.491428 0
M  V30 3884 O 380.702 -1.38653 -1.38108 0
M  V30 3885 C 381.001 -3.20634 1.57888 0
M  V30 3886 C 380.667 -3.29743 3.07539 0
M  V30 3887 C 379.329 -3.31937 3.48384 0
M  V30 3888 C 381.681 -3.29841 4.03552 0
M  V30 3889 C 379.009 -3.3187 4.83818 0
M  V30 3890 C 381.361 -3.31313 5.38901 0
M  V30 3891 C 380.025 -3.31799 5.79194 0
M  V30 3892 H 379.295 -0.648659 0.358222 0
M  V30 3893 H 381.942 -1.22225 1.47422 0
M  V30 3894 H 380.247 -3.78675 1.00561 0
M  V30 3895 H 381.944 -3.75917 1.39598 0
M  V30 3896 H 378.534 -3.28757 2.74986 0
M  V30 3897 H 382.718 -3.27337 3.73047 0
M  V30 3898 H 377.974 -3.30562 5.14333 0
M  V30 3899 H 382.148 -3.30338 6.13066 0
M  V30 3900 H 379.775 -3.315 6.84114 0
M  V30 3901 N 381.35 -0.985608 -1.22978 0
M  V30 3902 C 382.599 -0.652881 -1.90841 0
M  V30 3903 C 382.912 0.817842 -1.77681 0
M  V30 3904 O 384.118 1.26185 -2.40395 0
M  V30 3905 C 382.574 -1.11717 -3.42122 0
M  V30 3906 C 382.182 -2.6126 -3.63933 0
M  V30 3907 C 383.926 -0.85843 -4.1573 0
M  V30 3908 C 381.833 -3.0133 -5.08876 0
M  V30 3909 H 380.763 -0.240491 -0.714619 0
M  V30 3910 H 383.414 -1.1942 -1.39324 0
M  V30 3911 H 381.796 -0.504027 -3.92779 0
M  V30 3912 H 382.97 -3.27858 -3.23799 0
M  V30 3913 H 381.285 -2.84937 -3.03644 0
M  V30 3914 H 383.882 -1.13359 -5.22546 0
M  V30 3915 H 384.225 0.205461 -4.15793 0
M  V30 3916 H 384.758 -1.43341 -3.71077 0
M  V30 3917 H 381.497 -4.06864 -5.13947 0
M  V30 3918 H 381.017 -2.3943 -5.49939 0
M  V30 3919 H 382.696 -2.92224 -5.77247 0
M  V30 3920 N 382.828 1.3818 -0.7579 0
M  V30 3921 C 383.775 2.30416 -0.133057 0
M  V30 3922 C 384.745 1.50398 0.704957 0
M  V30 3923 O 385.93 1.79014 0.660192 0
M  V30 3924 C 383.07 3.36834 0.750813 0
M  V30 3925 C 382.183 4.31879 -0.102297 0
M  V30 3926 C 381.318 5.25368 0.784979 0
M  V30 3927 C 380.357 6.12058 -0.0715046 0
M  V30 3928 N 379.494 6.97832 0.772972 0
M  V30 3929 H 384.334 2.83274 -0.925186 0
M  V30 3930 H 381.871 1.39461 -0.467866 0
M  V30 3931 H 383.829 3.97145 1.27794 0
M  V30 3932 H 382.459 2.85374 1.50868 0
M  V30 3933 H 381.511 3.72991 -0.747095 0
M  V30 3934 H 382.823 4.92921 -0.763552 0
M  V30 3935 H 381.977 5.90818 1.37911 0
M  V30 3936 H 380.716 4.64703 1.47996 0
M  V30 3937 H 379.721 5.456 -0.678272 0
M  V30 3938 H 380.946 6.74793 -0.763606 0
M  V30 3939 H 378.892 6.3971 1.45282 0
M  V30 3940 H 378.809 7.55812 0.168709 0
M  V30 3941 H 380.077 7.67687 1.35194 0
M  V30 3942 N 384.306 0.507319 1.49211 0
M  V30 3943 C 385.552 -0.0350047 2.0277 0
M  V30 3944 C 385.885 -1.3606 1.38569 0
M  V30 3945 O 385.16 -1.87321 0.523542 0
M  V30 3946 C 385.443 -0.180916 3.59645 0
M  V30 3947 C 385.296 1.16825 4.34364 0
M  V30 3948 C 386.615 -0.918558 4.30407 0
M  V30 3949 H 383.734 -0.0112473 0.736914 0
M  V30 3950 H 386.376 0.659956 1.7817 0
M  V30 3951 H 384.526 -0.772826 3.80736 0
M  V30 3952 H 386.198 1.79952 4.24753 0
M  V30 3953 H 384.441 1.75594 3.96673 0
M  V30 3954 H 385.112 1.01939 5.42506 0
M  V30 3955 H 387.588 -0.41649 4.1401 0
M  V30 3956 H 386.464 -0.989505 5.39907 0
M  V30 3957 H 386.725 -1.96373 3.96093 0
M  V30 3958 N 385.784 -1.5574 0.241426 0
M  V30 3959 C 387.012 -2.03208 -0.389134 0
M  V30 3960 C 387.427 -1.12082 -1.51931 0
M  V30 3961 O 386.784 -0.134183 -1.82006 0
M  V30 3962 C 386.835 -3.50064 -0.902087 0
M  V30 3963 O 386.556 -4.37717 0.18305 0
M  V30 3964 C 388.057 -4.13268 -1.60389 0
M  V30 3965 H 385.277 -0.664509 -0.0931053 0
M  V30 3966 H 387.821 -2.0124 0.36369 0
M  V30 3967 H 385.976 -3.52583 -1.60511 0
M  V30 3968 H 386.39 -5.24097 -0.205579 0
M  V30 3969 H 387.864 -5.17733 -1.91458 0
M  V30 3970 H 388.341 -3.59434 -2.52397 0
M  V30 3971 H 388.947 -4.14655 -0.945576 0
M  V30 3972 N 387.262 0.0317525 -1.57568 0
M  V30 3973 C 388.21 1.05165 -2.07468 0
M  V30 3974 C 389.204 1.3761 -0.98792 0
M  V30 3975 O 390.41 1.36546 -1.17282 0
M  V30 3976 H 386.785 0.35666 -0.66204 0
M  V30 3977 H 388.756 0.604958 -2.92203 0
M  V30 3978 C 387.505 2.34488 -2.56731 0
M  V30 3979 H 386.828 2.10383 -3.39969 0
M  V30 3980 H 388.268 3.04203 -2.95358 0
M  V30 3981 C 386.727 3.03266 -1.46736 0
M  V30 3982 O 387.257 3.92988 -0.832069 0
M  V30 3983 N 385.463 2.6455 -1.20256 0
M  V30 3984 H 385.01 1.91674 -1.72102 0
M  V30 3985 H 384.968 3.10886 -0.468737 0
M  V30 3986 N 388.74 1.54641 0.303973 0
M  V30 3987 C 390.017 1.64455 1.05896 0
M  V30 3988 C 390.397 0.490923 2.05312 0
M  V30 3989 O 389.745 -0.512685 2.22674 0
M  V30 3990 C 389.955 3.02331 1.74347 0
M  V30 3991 C 391.303 3.59045 2.26653 0
M  V30 3992 O 392.327 3.04764 1.84384 0
M  V30 3993 O 391.186 4.54081 3.04093 0
M  V30 3994 H 388.28 0.666729 0.489287 0
M  V30 3995 H 390.826 1.66986 0.302298 0
M  V30 3996 H 389.598 3.77734 1.02142 0
M  V30 3997 H 389.221 3.03565 2.56777 0
M  V30 3998 N 390.218 -0.567019 1.47046 0
M  V30 3999 C 391.165 -1.67489 1.58796 0
M  V30 4000 C 392.135 -1.60399 0.43144 0
M  V30 4001 O 393.32 -1.79378 0.650233 0
M  V30 4002 C 390.46 -3.05821 1.59899 0
M  V30 4003 C 389.573 -3.2342 2.86397 0
M  V30 4004 C 388.708 -4.52093 2.789 0
M  V30 4005 C 387.747 -4.6309 4.00267 0
M  V30 4006 N 386.884 -5.83106 3.91064 0
M  V30 4007 H 391.724 -1.56785 2.53422 0
M  V30 4008 H 389.261 -0.763896 1.2571 0
M  V30 4009 H 391.219 -3.8591 1.58522 0
M  V30 4010 H 389.849 -3.15384 0.687929 0
M  V30 4011 H 388.901 -2.3683 2.97684 0
M  V30 4012 H 390.213 -3.27412 3.76301 0
M  V30 4013 H 389.367 -5.4043 2.75718 0
M  V30 4014 H 388.106 -4.50565 1.86662 0
M  V30 4015 H 387.111 -3.73168 4.03765 0
M  V30 4016 H 388.336 -4.66386 4.93621 0
M  V30 4017 H 386.282 -5.82546 3.01623 0
M  V30 4018 H 386.199 -5.88434 4.74638 0
M  V30 4019 H 387.467 -6.73831 3.91882 0
M  V30 4020 N 391.696 -1.35014 -0.812953 0
M  V30 4021 C 392.942 -1.2812 -1.57204 0
M  V30 4022 C 393.275 0.145869 -1.93651 0
M  V30 4023 O 392.55 1.0937 -1.60836 0
M  V30 4024 C 392.833 -2.18162 -2.86492 0
M  V30 4025 C 392.686 -3.69454 -2.56561 0
M  V30 4026 C 394.005 -2.07439 -3.88145 0
M  V30 4027 H 391.124 -0.466746 -0.570366 0
M  V30 4028 H 393.766 -1.65357 -0.935783 0
M  V30 4029 H 391.916 -1.86535 -3.40789 0
M  V30 4030 H 393.588 -4.11493 -2.08497 0
M  V30 4031 H 391.831 -3.9005 -1.89851 0
M  V30 4032 H 392.502 -4.27835 -3.48799 0
M  V30 4033 H 394.978 -2.35228 -3.4323 0
M  V30 4034 H 393.854 -2.7265 -4.76396 0
M  V30 4035 H 394.115 -1.05439 -4.29343 0
M  V30 4036 N 393.175 1.03435 -1.18907 0
M  V30 4037 C 394.122 2.11591 -0.921837 0
M  V30 4038 C 395.092 1.65499 0.141226 0
M  V30 4039 O 396.277 1.908 0.000242829 0
M  V30 4040 C 393.417 3.42012 -0.460616 0
M  V30 4041 C 392.53 4.01682 -1.58982 0
M  V30 4042 C 391.665 5.20091 -1.08069 0
M  V30 4043 C 390.704 5.71805 -2.18416 0
M  V30 4044 N 389.841 6.81494 -1.68849 0
M  V30 4045 H 394.681 2.33787 -1.8479 0
M  V30 4046 H 392.218 1.1467 -0.921373 0
M  V30 4047 H 394.176 4.16834 -0.174642 0
M  V30 4048 H 392.806 3.19944 0.428467 0
M  V30 4049 H 391.858 3.24127 -1.99113 0
M  V30 4050 H 393.17 4.36084 -2.4214 0
M  V30 4051 H 392.324 6.02051 -0.749615 0
M  V30 4052 H 391.063 4.87209 -0.218771 0
M  V30 4053 H 390.068 4.88461 -2.5236 0
M  V30 4054 H 391.293 6.06728 -3.05054 0
M  V30 4055 H 389.239 6.50475 -0.849572 0
M  V30 4056 H 389.156 7.14994 -2.45601 0
M  V30 4057 H 390.424 7.67063 -1.38689 0
M  V30 4058 N 394.653 0.992116 1.22453 0
M  V30 4059 C 395.899 0.678177 1.91761 0
M  V30 4060 C 396.254 -0.781141 1.75829 0
M  V30 4061 O 395.547 -1.55747 1.11595 0
M  V30 4062 C 395.741 1.01832 3.42586 0
M  V30 4063 C 395.57 2.50916 3.73191 0
M  V30 4064 C 394.34 3.17308 3.93248 0
M  V30 4065 C 396.538 3.49032 3.77732 0
M  V30 4066 N 394.52 4.55876 4.11157 0
M  V30 4067 C 395.891 4.73055 4.00773 0
M  V30 4068 C 397.946 3.43349 3.60577 0
M  V30 4069 C 396.649 5.92089 4.0844 0
M  V30 4070 C 398.675 4.61759 3.69503 0
M  V30 4071 C 398.037 5.84582 3.92993 0
M  V30 4072 H 394.136 0.299425 0.722405 0
M  V30 4073 H 396.72 1.27197 1.47408 0
M  V30 4074 H 394.891 0.453118 3.85748 0
M  V30 4075 H 396.623 0.660454 3.99274 0
M  V30 4076 H 393.378 2.67778 3.9063 0
M  V30 4077 H 393.802 5.27748 4.24042 0
M  V30 4078 H 398.444 2.49408 3.41402 0
M  V30 4079 H 396.162 6.86435 4.26418 0
M  V30 4080 H 399.748 4.58951 3.57569 0
M  V30 4081 H 398.628 6.74676 3.99728 0
M  V30 4082 N 396.131 -1.37776 0.765217 0
M  V30 4083 C 397.041 -2.34135 0.147666 0
M  V30 4084 C 398.057 -1.59854 -0.687215 0
M  V30 4085 O 399.233 -1.91983 -0.608659 0
M  V30 4086 C 396.298 -3.3901 -0.72617 0
M  V30 4087 C 395.359 -4.2912 0.124417 0
M  V30 4088 C 394.592 -5.28986 -0.707807 0
M  V30 4089 O 394.815 -5.36205 -1.94525 0
M  V30 4090 O 393.749 -6.01779 -0.12046 0
M  V30 4091 H 397.575 -2.88664 0.943758 0
M  V30 4092 H 395.16 -1.39824 0.526277 0
M  V30 4093 H 397.042 -4.03195 -1.22524 0
M  V30 4094 H 395.717 -2.86819 -1.50056 0
M  V30 4095 H 394.624 -3.68057 0.669696 0
M  V30 4096 H 395.957 -4.84598 0.861736 0
M  V30 4097 N 397.609 -0.515225 -1.4894 0
M  V30 4098 C 398.839 0.0205735 -2.0659 0
M  V30 4099 C 399.247 1.30064 -1.37405 0
M  V30 4100 O 398.59 1.78087 -0.450632 0
M  V30 4101 C 398.652 0.330124 -3.57981 0
M  V30 4102 C 398.316 -0.854295 -4.48944 0
M  V30 4103 C 399.313 -1.7487 -4.89609 0
M  V30 4104 C 396.998 -1.05712 -4.9105 0
M  V30 4105 C 398.992 -2.82996 -5.71132 0
M  V30 4106 C 396.679 -2.14154 -5.72347 0
M  V30 4107 C 397.677 -3.0263 -6.12294 0
M  V30 4108 O 397.365 -4.09198 -6.91962 0
M  V30 4109 H 397.097 -0.0236833 -0.675585 0
M  V30 4110 H 399.651 -0.715956 -1.92518 0
M  V30 4111 H 397.881 1.12044 -3.70112 0
M  V30 4112 H 399.57 0.806233 -3.97812 0
M  V30 4113 H 400.336 -1.60388 -4.57712 0
M  V30 4114 H 396.215 -0.377788 -4.59449 0
M  V30 4115 H 399.759 -3.52083 -6.02232 0
M  V30 4116 H 395.656 -2.28626 -6.03656 0
M  V30 4117 H 396.424 -4.06726 -7.10293 0
M  V30 4118 N 399.087 1.5561 -0.249682 0
M  V30 4119 C 400.327 2.00916 0.37579 0
M  V30 4120 C 400.691 1.13409 1.54927 0
M  V30 4121 O 401.892 1.48183 2.24266 0
M  V30 4122 C 400.163 3.48949 0.772633 0
M  V30 4123 S 401.722 4.16261 1.38824 0
M  V30 4124 H 398.54 0.70112 0.118117 0
M  V30 4125 H 401.142 1.92052 -0.365567 0
M  V30 4126 H 399.846 4.103 -0.090683 0
M  V30 4127 H 399.377 3.61745 1.5461 0
M  V30 4128 H 401.392 4.17778 2.67724 0
M  V30 4129 N 400.565 -0.0233959 1.57583 0
M  V30 4130 C 401.842 -0.748794 1.807 0
M  V30 4131 C 402.222 -1.9327 0.849106 0
M  V30 4132 O 401.57 -2.28247 -0.107468 0
M  V30 4133 C 401.78 -1.17651 3.28571 0
M  V30 4134 C 403.128 -1.59008 3.93702 0
M  V30 4135 O 404.152 -1.27094 3.32755 0
M  V30 4136 O 403.011 -2.18264 5.01022 0
M  V30 4137 H 400.105 -0.362578 0.743281 0
M  V30 4138 H 402.651 0.000261958 1.697 0
M  V30 4139 H 401.423 -0.331603 3.89892 0
M  V30 4140 H 401.046 -1.98541 3.44481 0
M  V30 4141 N 402.043 -1.548 -0.295768 0
M  V30 4142 C 403.289 -1.74588 -1.03184 0
M  V30 4143 C 403.622 -0.532962 -1.86744 0
M  V30 4144 O 402.897 0.469872 -1.88739 0
M  V30 4145 C 403.18 -3.03791 -1.93347 0
M  V30 4146 C 403.033 -4.35392 -1.12933 0
M  V30 4147 C 404.352 -3.28892 -2.92435 0
M  V30 4148 H 401.471 -0.635221 -0.373715 0
M  V30 4149 H 404.113 -1.87519 -0.30606 0
M  V30 4150 H 402.263 -2.92898 -2.55232 0
M  V30 4151 H 403.935 -4.58211 -0.532943 0
M  V30 4152 H 402.178 -4.31642 -0.432168 0
M  V30 4153 H 402.849 -5.22074 -1.79284 0
M  V30 4154 H 405.325 -3.39429 -2.4068 0
M  V30 4155 H 404.201 -4.20603 -3.52682 0
M  V30 4156 H 404.462 -2.47437 -3.6637 0
M  V30 4157 N 403.521 0.559213 -1.47345 0
M  V30 4158 C 404.746 1.34676 -1.57725 0
M  V30 4159 C 405.171 1.86723 -0.227164 0
M  V30 4160 O 404.529 1.6286 0.796642 0
M  V30 4161 C 404.577 2.49399 -2.60447 0
M  V30 4162 O 403.681 3.51567 -2.15578 0
M  V30 4163 H 403.022 0.400115 -0.52991 0
M  V30 4164 H 405.552 0.676009 -1.93109 0
M  V30 4165 H 405.562 2.95996 -2.80803 0
M  V30 4166 H 404.237 2.10873 -3.58477 0
M  V30 4167 H 402.814 3.11289 -2.05313 0
M  V30 4168 N 404.999 1.35443 0.805782 0
M  V30 4169 C 405.962 1.28301 1.89925 0
M  V30 4170 C 406.962 0.194285 1.59622 0
M  V30 4171 O 408.152 0.448036 1.6834 0
M  V30 4172 C 405.284 0.984997 3.2636 0
M  V30 4173 H 406.477 2.2553 1.97677 0
M  V30 4174 H 404.03 1.19979 1.00173 0
M  V30 4175 H 404.765 0.016603 3.24296 0
M  V30 4176 H 404.55 1.77269 3.4974 0
M  V30 4177 H 406.04 0.960651 4.064 0
M  V30 4178 N 406.477 -1.02803 1.19454 0
M  V30 4179 C 407.717 -1.77769 1.00883 0
M  V30 4180 C 408.081 -1.86596 -0.45233 0
M  V30 4181 O 409.282 -2.57895 -0.757877 0
M  V30 4182 C 407.553 -3.16486 1.66046 0
M  V30 4183 S 409.112 -4.07632 1.62424 0
M  V30 4184 H 405.93 -0.611949 0.361993 0
M  V30 4185 H 408.532 -1.23175 1.51816 0
M  V30 4186 H 407.236 -3.0768 2.7159 0
M  V30 4187 H 406.767 -3.76156 1.15196 0
M  V30 4188 H 408.782 -4.91937 0.64903 0
M  V30 4189 N 407.956 -0.998596 -1.21925 0
M  V30 4190 C 409.181 -0.696015 -1.95372 0
M  V30 4191 C 409.606 0.733826 -1.73195 0
M  V30 4192 O 408.964 1.50242 -1.01474 0
M  V30 4193 C 409.012 -1.01466 -3.4603 0
M  V30 4194 O 408.116 -0.116415 -4.12236 0
M  V30 4195 H 407.457 -0.259938 -0.611006 0
M  V30 4196 H 409.987 -1.33711 -1.54863 0
M  V30 4197 H 409.997 -0.958855 -3.96573 0
M  V30 4198 H 408.672 -2.05653 -3.61497 0
M  V30 4199 H 407.249 -0.228193 -3.72201 0
M  V30 4200 N 409.434 1.37368 -0.772513 0
M  V30 4201 C 410.397 2.28601 -0.165541 0
M  V30 4202 C 411.397 1.48062 0.627238 0
M  V30 4203 O 412.587 1.68268 0.450715 0
M  V30 4204 C 409.719 3.32023 0.772897 0
M  V30 4205 H 410.912 2.83787 -0.969787 0
M  V30 4206 H 408.465 1.46647 -0.540775 0
M  V30 4207 H 409.2 2.81962 1.60212 0
M  V30 4208 H 408.985 3.91555 0.206585 0
M  V30 4209 H 410.475 4.00197 1.19298 0
M  V30 4210 N 410.912 0.523116 1.48665 0
M  V30 4211 C 411.844 -0.280421 2.27478 0
M  V30 4212 C 412.857 -0.910694 1.34945 0
M  V30 4213 O 414.046 -0.790295 1.60052 0
M  V30 4214 C 411.146 -1.41171 3.08097 0
M  V30 4215 C 410.319 -0.884642 4.28361 0
M  V30 4216 C 409.378 -1.89622 4.90846 0
M  V30 4217 O 408.404 -1.4559 5.50265 0
M  V30 4218 N 409.606 -3.22801 4.82472 0
M  V30 4219 H 412.371 0.395481 2.97079 0
M  V30 4220 H 409.932 0.357018 1.57915 0
M  V30 4221 H 411.924 -2.08645 3.4677 0
M  V30 4222 H 410.494 -1.99139 2.40961 0
M  V30 4223 H 409.714 -0.0341177 3.94185 0
M  V30 4224 H 411.002 -0.511268 5.06225 0
M  V30 4225 H 410.4 -3.61246 4.35336 0
M  V30 4226 H 408.957 -3.85927 5.25265 0
M  V30 4227 N 412.39 -1.55475 0.257931 0
M  V30 4228 C 413.667 -1.91155 -0.414629 0
M  V30 4229 C 414.047 -1.18008 -1.75035 0
M  V30 4230 O 413.395 -0.301193 -2.26506 0
M  V30 4231 C 413.605 -3.44283 -0.571859 0
M  V30 4232 C 414.953 -4.15744 -0.862678 0
M  V30 4233 O 415.977 -3.50083 -0.657314 0
M  V30 4234 O 414.836 -5.31909 -1.2544 0
M  V30 4235 H 411.93 -0.796016 -0.22425 0
M  V30 4236 H 414.476 -1.66976 0.302814 0
M  V30 4237 H 413.248 -3.89558 0.368844 0
M  V30 4238 H 412.871 -3.7436 -1.33943 0
M  V30 4239 N 413.868 0.0150385 -1.57593 0
M  V30 4240 C 415.114 0.704043 -1.90187 0
M  V30 4241 C 415.447 1.74249 -0.857366 0
M  V30 4242 O 414.722 1.94092 0.125843 0
M  V30 4243 C 415.005 1.36087 -3.33395 0
M  V30 4244 C 414.858 0.334981 -4.48551 0
M  V30 4245 C 416.177 2.29112 -3.7576 0
M  V30 4246 H 413.296 0.254475 -0.691673 0
M  V30 4247 H 415.938 -0.0331678 -1.89971 0
M  V30 4248 H 414.088 1.98922 -3.3371 0
M  V30 4249 H 415.76 -0.292534 -4.60372 0
M  V30 4250 H 414.003 -0.344325 -4.32431 0
M  V30 4251 H 414.674 0.833316 -5.45674 0
M  V30 4252 H 417.15 1.76308 -3.76902 0
M  V30 4253 H 416.026 2.72043 -4.76743 0
M  V30 4254 H 416.287 3.16385 -3.08793 0
M  V30 4255 N 415.346 1.54954 0.287554 0
M  V30 4256 C 416.309 1.86076 1.33823 0
M  V30 4257 C 417.309 0.734414 1.43049 0
M  V30 4258 O 418.499 1.00266 1.42452 0
M  V30 4259 C 415.631 2.05305 2.72144 0
M  V30 4260 H 416.824 2.79984 1.07465 0
M  V30 4261 H 414.377 1.47223 0.524902 0
M  V30 4262 H 415.112 1.1373 3.03704 0
M  V30 4263 H 414.897 2.873 2.66836 0
M  V30 4264 H 416.387 2.30706 3.48087 0
M  V30 4265 N 416.824 -0.551391 1.4764 0
M  V30 4266 C 418.054 -1.33163 1.57959 0
M  V30 4267 C 418.462 -1.87785 0.23094 0
M  V30 4268 O 417.805 -1.65996 -0.786825 0
M  V30 4269 C 417.867 -2.53449 2.54958 0
M  V30 4270 C 417.531 -2.20071 4.00522 0
M  V30 4271 C 418.528 -1.77017 4.88836 0
M  V30 4272 C 416.213 -2.31252 4.45901 0
M  V30 4273 C 418.207 -1.4558 6.20552 0
M  V30 4274 C 415.894 -1.99427 5.77644 0
M  V30 4275 C 416.892 -1.56659 6.64791 0
M  V30 4276 O 416.58 -1.25242 7.94084 0
M  V30 4277 H 416.312 -0.412022 0.535923 0
M  V30 4278 H 418.866 -0.674186 1.9402 0
M  V30 4279 H 417.096 -3.22104 2.13976 0
M  V30 4280 H 418.785 -3.15523 2.55343 0
M  V30 4281 H 419.551 -1.67867 4.55023 0
M  V30 4282 H 415.43 -2.63498 3.78272 0
M  V30 4283 H 418.974 -1.12125 6.8853 0
M  V30 4284 H 414.871 -2.08211 6.10998 0
M  V30 4285 H 415.639 -1.38822 8.06642 0
M  V30 4286 N 418.302 -1.35869 -0.798587 0
M  V30 4287 C 419.713 -1.26498 -1.37314 0
M  V30 4288 C 420.064 0.0991899 -1.95949 0
M  V30 4289 O 419.189 1.0004 -1.91888 0
M  V30 4290 C 419.784 -2.29054 -2.49639 0
M  V30 4291 C 418.343 -2.234 -3.02935 0
M  V30 4292 C 417.49 -2.14329 -1.75949 0
M  V30 4293 H 420.441 -1.46881 -0.600971 0
M  V30 4294 H 420.462 -1.92166 -3.28409 0
M  V30 4295 H 419.974 -3.2833 -2.06933 0
M  V30 4296 H 418.075 -1.27562 -3.50084 0
M  V30 4297 H 418.188 -3.15703 -3.60372 0
M  V30 4298 H 416.552 -1.60435 -1.9782 0
M  V30 4299 H 417.335 -3.15477 -1.35384 0
M  V30 4300 N 419.78 1.02168 -1.19998 0
M  V30 4301 C 420.69 2.14069 -0.959774 0
M  V30 4302 C 421.706 1.73804 0.082655 0
M  V30 4303 O 422.882 2.01133 -0.103633 0
M  V30 4304 C 419.947 3.42936 -0.509459 0
M  V30 4305 C 419.008 3.97474 -1.62213 0
M  V30 4306 C 418.241 5.2019 -1.19321 0
M  V30 4307 O 418.464 5.70369 -0.0597726 0
M  V30 4308 O 417.398 5.67749 -1.99863 0
M  V30 4309 H 421.224 2.37199 -1.89658 0
M  V30 4310 H 418.809 1.12469 -0.983411 0
M  V30 4311 H 420.691 4.20551 -0.267322 0
M  V30 4312 H 419.366 3.21234 0.398821 0
M  V30 4313 H 418.273 3.21161 -1.9185 0
M  V30 4314 H 419.606 4.23555 -2.50723 0
M  V30 4315 N 421.258 1.00505 1.21394 0
M  V30 4316 C 422.168 0.574806 2.27449 0
M  V30 4317 C 423.184 -0.382206 1.6975 0
M  V30 4318 O 424.36 -0.246027 1.99892 0
M  V30 4319 C 421.425 -0.0917414 3.46579 0
M  V30 4320 C 420.486 0.909758 4.1955 0
M  V30 4321 C 419.719 0.274924 5.32991 0
M  V30 4322 O 419.942 -0.928254 5.62796 0
M  V30 4323 O 418.876 0.985877 5.93771 0
M  V30 4324 H 422.702 1.45744 2.66444 0
M  V30 4325 H 420.287 0.773923 1.27792 0
M  V30 4326 H 422.169 -0.464551 4.18832 0
M  V30 4327 H 420.844 -0.948755 3.09484 0
M  V30 4328 H 419.751 1.33372 3.49518 0
M  V30 4329 H 421.084 1.73636 4.60555 0
M  V30 4330 N 422.737 -1.36956 0.779787 0
M  V30 4331 C 423.962 -2.04283 0.358224 0
M  V30 4332 C 424.387 -1.58422 -1.01411 0
M  V30 4333 O 423.745 -0.748179 -1.65142 0
M  V30 4334 C 423.793 -3.58152 0.419479 0
M  V30 4335 O 422.897 -4.08342 -0.577142 0
M  V30 4336 H 422.238 -0.645967 0.153698 0
M  V30 4337 H 424.768 -1.75108 1.05822 0
M  V30 4338 H 424.778 -4.07041 0.279636 0
M  V30 4339 H 423.453 -3.90886 1.42061 0
M  V30 4340 H 422.03 -3.70751 -0.399755 0
M  V30 4341 N 424.215 -0.530993 -1.48385 0
M  V30 4342 C 425.626 -0.0907905 -1.86479 0
M  V30 4343 C 425.977 1.33213 -1.44044 0
M  V30 4344 O 425.102 1.99783 -0.831615 0
M  V30 4345 C 425.697 -0.157987 -3.38431 0
M  V30 4346 C 424.256 0.227026 -3.75715 0
M  V30 4347 C 423.403 -0.5173 -2.72432 0
M  V30 4348 H 426.354 -0.742186 -1.40276 0
M  V30 4349 H 426.375 0.630053 -3.75247 0
M  V30 4350 H 425.887 -1.19372 -3.69286 0
M  V30 4351 H 423.988 1.26486 -3.50474 0
M  V30 4352 H 424.101 -0.113288 -4.78966 0
M  V30 4353 H 422.465 0.0365527 -2.54674 0
M  V30 4354 H 423.248 -1.55368 -3.0613 0
M  V30 4355 N 425.693 1.55336 -0.266172 0
M  V30 4356 C 426.921 2.03801 0.356756 0
M  V30 4357 C 427.336 1.14485 1.50129 0
M  V30 4358 O 426.693 0.163121 1.8177 0
M  V30 4359 C 426.744 3.51455 0.846281 0
M  V30 4360 O 426.465 4.37371 -0.252663 0
M  V30 4361 C 427.966 4.15767 1.53794 0
M  V30 4362 H 425.186 0.665906 0.0825218 0
M  V30 4363 H 427.73 2.00636 -0.39566 0
M  V30 4364 H 425.885 3.55092 1.54881 0
M  V30 4365 H 426.299 5.24358 0.122173 0
M  V30 4366 H 427.773 5.20714 1.83198 0
M  V30 4367 H 428.25 3.63404 2.46646 0
M  V30 4368 H 428.856 4.16107 0.879488 0
M  V30 4369 N 427.171 -0.0066808 1.57599 0
M  V30 4370 C 428.081 -1.01671 2.11424 0
M  V30 4371 C 429.097 -1.38143 1.05795 0
M  V30 4372 O 430.273 -1.47011 1.37658 0
M  V30 4373 C 427.338 -2.29192 2.60139 0
M  V30 4374 C 426.399 -1.99094 3.80342 0
M  V30 4375 C 425.632 -3.20535 4.26724 0
M  V30 4376 O 425.855 -4.3199 3.72479 0
M  V30 4377 O 424.789 -3.04924 5.18946 0
M  V30 4378 H 428.615 -0.589181 2.9793 0
M  V30 4379 H 426.2 -0.225091 1.47695 0
M  V30 4380 H 428.082 -3.0412 2.917 0
M  V30 4381 H 426.757 -2.71195 1.76733 0
M  V30 4382 H 425.664 -1.21663 3.53764 0
M  V30 4383 H 426.997 -1.61931 4.648 0
M  V30 4384 N 428.649 -1.55105 -0.279332 0
M  V30 4385 C 430.06 -1.66186 -0.850832 0
M  V30 4386 C 430.411 -0.584707 -1.87285 0
M  V30 4387 O 429.536 0.274919 -2.14647 0
M  V30 4388 C 430.131 -3.01264 -1.55001 0
M  V30 4389 C 428.69 -3.14394 -2.06963 0
M  V30 4390 C 427.837 -2.61959 -0.909536 0
M  V30 4391 H 430.788 -1.58602 -0.0558235 0
M  V30 4392 H 430.809 -2.93899 -2.41669 0
M  V30 4393 H 430.321 -3.7964 -0.805931 0
M  V30 4394 H 428.422 -2.4078 -2.84352 0
M  V30 4395 H 428.535 -4.20867 -2.28928 0
M  V30 4396 H 426.899 -2.18957 -1.30116 0
M  V30 4397 H 427.682 -3.42833 -0.179062 0
M  V30 4398 N 430.127 0.543554 -1.4793 0
M  V30 4399 C 431.352 1.32995 -1.59145 0
M  V30 4400 C 431.777 1.86472 -0.246956 0
M  V30 4401 O 431.135 1.63696 0.779324 0
M  V30 4402 C 431.183 2.46623 -2.63077 0
M  V30 4403 O 430.287 3.49261 -2.19295 0
M  V30 4404 H 429.628 0.394472 -0.534124 0
M  V30 4405 H 432.158 0.655489 -1.93816 0
M  V30 4406 H 432.168 2.93001 -2.83926 0
M  V30 4407 H 430.843 2.07059 -3.60693 0
M  V30 4408 H 429.42 3.09094 -2.08603 0
M  V30 4409 N 431.605 1.3629 0.791371 0
M  V30 4410 C 432.833 1.33562 1.58016 0
M  V30 4411 C 433.248 -0.0835616 1.88615 0
M  V30 4412 O 432.605 -1.0399 1.49974 0
M  V30 4413 C 432.656 2.15517 2.90232 0
M  V30 4414 O 432.377 3.51902 2.60953 0
M  V30 4415 C 433.878 2.20546 3.84544 0
M  V30 4416 H 431.098 0.458226 0.490173 0
M  V30 4417 H 433.642 1.79361 0.982345 0
M  V30 4418 H 431.797 1.73278 3.46487 0
M  V30 4419 H 432.211 3.94644 3.4548 0
M  V30 4420 H 433.685 2.82252 4.74382 0
M  V30 4421 H 434.162 1.20838 4.2225 0
M  V30 4422 H 434.768 2.63013 3.34222 0
M  V30 4423 N 433.083 -1.0153 1.20538 0
M  V30 4424 C 434.03 -2.10098 0.955383 0
M  V30 4425 C 435 -1.65702 -0.114878 0
M  V30 4426 O 436.185 -1.90776 0.0301118 0
M  V30 4427 C 433.325 -3.41236 0.514969 0
M  V30 4428 C 432.438 -3.99102 1.65353 0
M  V30 4429 C 431.573 -5.18306 1.16329 0
M  V30 4430 C 430.612 -5.68258 2.27485 0
M  V30 4431 N 429.749 -6.78722 1.7967 0
M  V30 4432 H 434.589 -2.30818 1.88486 0
M  V30 4433 H 432.126 -1.13189 0.939499 0
M  V30 4434 H 434.084 -4.16504 0.240935 0
M  V30 4435 H 432.714 -3.20585 -0.377512 0
M  V30 4436 H 431.766 -3.20918 2.04245 0
M  V30 4437 H 433.078 -4.32177 2.49047 0
M  V30 4438 H 432.232 -6.00782 0.845302 0
M  V30 4439 H 430.971 -4.86799 0.296254 0
M  V30 4440 H 429.976 -4.84385 2.60099 0
M  V30 4441 H 431.201 -6.01798 3.14667 0
M  V30 4442 H 429.147 -6.49042 0.95295 0
M  V30 4443 H 429.064 -7.10996 2.56944 0
M  V30 4444 H 430.332 -7.64759 1.50875 0
M  V30 4445 N 434.561 -1.01147 -1.20859 0
M  V30 4446 C 435.491 -0.597663 -2.25722 0
M  V30 4447 C 436.472 0.384744 -1.65692 0
M  V30 4448 O 437.657 0.271303 -1.92296 0
M  V30 4449 C 434.787 0.0700149 -3.47229 0
M  V30 4450 C 433.741 -0.832843 -4.19819 0
M  V30 4451 C 433.067 -0.0312202 -5.34691 0
M  V30 4452 C 434.367 -2.1385 -4.76514 0
M  V30 4453 H 436.061 -1.47423 -2.60589 0
M  V30 4454 H 433.607 -0.710301 -1.25263 0
M  V30 4455 H 435.56 0.37103 -4.19763 0
M  V30 4456 H 434.284 0.981259 -3.11511 0
M  V30 4457 H 432.943 -1.11778 -3.49144 0
M  V30 4458 H 432.591 0.881515 -4.95215 0
M  V30 4459 H 432.291 -0.632434 -5.84187 0
M  V30 4460 H 433.815 0.26346 -6.10031 0
M  V30 4461 H 435.229 -1.9002 -5.40893 0
M  V30 4462 H 433.626 -2.69012 -5.36426 0
M  V30 4463 H 434.696 -2.80495 -3.95538 0
M  V30 4464 N 436.039 1.36541 -0.78704 0
M  V30 4465 C 437.45 1.81873 -0.421807 0
M  V30 4466 C 437.801 1.65487 1.05397 0
M  V30 4467 O 436.926 1.17448 1.81755 0
M  V30 4468 C 437.521 3.30192 -0.758841 0
M  V30 4469 C 436.08 3.73743 -0.446468 0
M  V30 4470 C 435.227 2.58844 -0.994728 0
M  V30 4471 H 438.178 1.24796 -0.98039 0
M  V30 4472 H 438.199 3.80468 -0.0490648 0
M  V30 4473 H 437.711 3.42087 -1.83299 0
M  V30 4474 H 435.812 3.6741 0.619739 0
M  V30 4475 H 435.925 4.69272 -0.965415 0
M  V30 4476 H 434.289 2.51245 -0.418087 0
M  V30 4477 H 435.072 2.73525 -2.07458 0
M  V30 4478 N 437.518 0.538854 1.48102 0
M  V30 4479 C 438.766 0.00798599 2.02098 0
M  V30 4480 C 439.087 -1.33922 1.41739 0
M  V30 4481 O 438.357 -1.86932 0.585934 0
M  V30 4482 H 436.937 -3.62179e-05 0.747 0
M  V30 4483 H 439.599 0.7047 1.81714 0
M  V30 4484 H 438.695 -0.0937672 3.11959 0
M  V30 4485 N 438.996 -1.55193 0.274407 0
M  V30 4486 C 440.243 -1.99581 -0.342579 0
M  V30 4487 C 440.571 -1.1628 -1.55914 0
M  V30 4488 O 439.826 -0.22029 -1.94456 0
M  V30 4489 C 440.125 -3.49019 -0.769458 0
M  V30 4490 C 439.791 -4.49598 0.342389 0
M  V30 4491 C 438.453 -4.76821 0.647686 0
M  V30 4492 C 440.805 -5.0964 1.09163 0
M  V30 4493 C 438.133 -5.61354 1.70581 0
M  V30 4494 C 440.485 -5.95323 2.13948 0
M  V30 4495 C 439.149 -6.20867 2.45113 0
M  V30 4496 H 438.419 -0.730319 -0.125358 0
M  V30 4497 H 441.066 -1.87529 0.387971 0
M  V30 4498 H 439.371 -3.58544 -1.57967 0
M  V30 4499 H 441.068 -3.8077 -1.25757 0
M  V30 4500 H 437.658 -4.28496 0.094318 0
M  V30 4501 H 441.842 -4.88632 0.869024 0
M  V30 4502 H 437.098 -5.79392 1.9523 0
M  V30 4503 H 441.272 -6.40881 2.72478 0
M  V30 4504 H 438.899 -6.86162 3.27239 0
M  V30 4505 N 440.474 -0.00167713 -1.576 0
M  V30 4506 C 441.751 0.719951 -1.81868 0
M  V30 4507 C 442.131 1.91895 -0.879747 0
M  V30 4508 O 441.479 2.28389 0.0711423 0
M  V30 4509 C 441.689 1.12409 -3.30402 0
M  V30 4510 C 443.037 1.52724 -3.96182 0
M  V30 4511 O 444.061 1.21784 -3.34734 0
M  V30 4512 O 442.92 2.10265 -5.04431 0
M  V30 4513 H 440.014 0.350707 -0.748955 0
M  V30 4514 H 442.56 -0.0272597 -1.69678 0
M  V30 4515 H 441.332 0.269532 -3.90371 0
M  V30 4516 H 440.955 1.93035 -3.47596 0
M  V30 4517 N 441.952 1.55251 0.271103 0
M  V30 4518 C 443.177 1.80306 1.02491 0
M  V30 4519 C 443.602 0.575457 1.79081 0
M  V30 4520 O 442.96 -0.474987 1.74967 0
M  V30 4521 C 443.008 3.02832 1.95768 0
M  V30 4522 O 442.112 2.78051 3.04568 0
M  V30 4523 H 441.453 0.595896 0.292923 0
M  V30 4524 H 443.983 2.02397 0.299436 0
M  V30 4525 H 443.993 3.31616 2.37686 0
M  V30 4526 H 442.668 3.9183 1.39434 0
M  V30 4527 H 441.245 2.60369 2.66951 0
M  V30 4528 N 443.43 -0.535701 1.48216 0
M  V30 4529 C 444.67 -1.30238 1.57536 0
M  V30 4530 C 445.034 -1.90479 0.241229 0
M  V30 4531 O 446.235 -2.67983 0.20938 0
M  V30 4532 C 444.506 -2.3669 2.67792 0
M  V30 4533 S 446.065 -3.23159 2.9684 0
M  V30 4534 H 442.883 -0.443093 0.556048 0
M  V30 4535 H 445.485 -0.610937 1.85709 0
M  V30 4536 H 444.189 -1.90905 3.63296 0
M  V30 4537 H 443.72 -3.10548 2.41502 0
M  V30 4538 H 445.735 -4.36647 2.35699 0
M  V30 4539 N 444.908 -1.36708 -0.784132 0
M  V30 4540 C 446.156 -1.30972 -1.53918 0
M  V30 4541 C 446.477 0.109086 -1.94695 0
M  V30 4542 O 445.747 1.05048 -1.65353 0
M  V30 4543 H 444.327 -0.481819 -0.570841 0
M  V30 4544 H 446.989 -1.71063 -0.934002 0
M  V30 4545 H 446.085 -1.94061 -2.44431 0
M  V30 4546 N 446.386 1.0089 -1.21074 0
M  V30 4547 C 447.333 2.09588 -0.966512 0
M  V30 4548 C 448.303 1.65761 0.106089 0
M  V30 4549 O 449.488 1.90758 -0.0402287 0
M  V30 4550 C 446.628 3.40958 -0.533058 0
M  V30 4551 C 445.741 3.9822 -1.67467 0
M  V30 4552 C 444.876 5.17682 -1.19076 0
M  V30 4553 C 443.915 5.67043 -2.30496 0
M  V30 4554 N 443.052 6.77759 -1.83267 0
M  V30 4555 H 447.892 2.29815 -1.89708 0
M  V30 4556 H 445.429 1.12689 -0.945489 0
M  V30 4557 H 447.387 4.1637 -0.263019 0
M  V30 4558 H 446.017 3.20781 0.360505 0
M  V30 4559 H 445.069 3.1983 -2.05944 0
M  V30 4560 H 446.381 4.3085 -2.51336 0
M  V30 4561 H 445.535 6.00326 -0.877151 0
M  V30 4562 H 444.274 4.86635 -0.322066 0
M  V30 4563 H 443.279 4.82999 -2.62664 0
M  V30 4564 H 444.504 6.00121 -3.17855 0
M  V30 4565 H 442.45 6.48527 -0.987356 0
M  V30 4566 H 442.367 7.09624 -2.60711 0
M  V30 4567 H 443.635 7.63949 -1.54928 0
M  V30 4568 N 447.864 1.01787 1.20321 0
M  V30 4569 C 449.092 0.727194 1.937 0
M  V30 4570 C 449.507 -0.712305 1.74848 0
M  V30 4571 O 448.864 -1.48327 1.06327 0
M  V30 4572 C 448.915 1.05497 3.45764 0
M  V30 4573 O 448.636 2.43794 3.64 0
M  V30 4574 C 450.137 0.785534 4.36285 0
M  V30 4575 H 447.357 0.266939 0.615617 0
M  V30 4576 H 449.901 1.35939 1.52777 0
M  V30 4577 H 448.056 0.468158 3.84561 0
M  V30 4578 H 448.47 2.55656 4.57974 0
M  V30 4579 H 449.944 1.06495 5.4163 0
M  V30 4580 H 450.421 -0.280273 4.38305 0
M  V30 4581 H 451.027 1.35456 4.03152 0
M  V30 4582 N 449.342 -1.36122 0.79427 0
M  V30 4583 C 450.252 -2.33769 0.197296 0
M  V30 4584 C 451.268 -1.61276 -0.653153 0
M  V30 4585 O 452.444 -1.9323 -0.5678 0
M  V30 4586 C 449.509 -3.40474 -0.654098 0
M  V30 4587 C 448.57 -4.28759 0.215411 0
M  V30 4588 C 447.803 -5.30368 -0.595443 0
M  V30 4589 O 448.026 -5.40211 -1.83107 0
M  V30 4590 O 446.96 -6.019 0.00721351 0
M  V30 4591 H 450.786 -2.86597 1.00478 0
M  V30 4592 H 448.371 -1.38676 0.555818 0
M  V30 4593 H 450.253 -4.05703 -1.13944 0
M  V30 4594 H 448.928 -2.89937 -1.43938 0
M  V30 4595 H 447.835 -3.66554 0.747615 0
M  V30 4596 H 449.168 -4.82661 0.964332 0
M  V30 4597 N 450.82 -0.546701 -1.47814 0
M  V30 4598 C 452.069 -0.0166497 -2.01693 0
M  V30 4599 C 452.382 1.33721 -1.42752 0
M  V30 4600 O 453.588 1.95658 -1.8823 0
M  V30 4601 C 452.044 0.0206769 -3.59894 0
M  V30 4602 C 451.652 -1.3293 -4.27824 0
M  V30 4603 C 453.396 0.498674 -4.21561 0
M  V30 4604 C 451.303 -1.25165 -5.78003 0
M  V30 4605 H 450.233 -0.0024541 -0.753996 0
M  V30 4606 H 452.884 -0.692984 -1.69912 0
M  V30 4607 H 451.266 0.76244 -3.88591 0
M  V30 4608 H 452.44 -2.08795 -4.10781 0
M  V30 4609 H 450.755 -1.74438 -3.78101 0
M  V30 4610 H 453.352 0.575 -5.31599 0
M  V30 4611 H 453.695 1.5083 -3.88016 0
M  V30 4612 H 454.228 -0.18791 -3.97356 0
M  V30 4613 H 450.967 -2.23695 -6.1615 0
M  V30 4614 H 450.487 -0.53464 -5.97412 0
M  V30 4615 H 452.166 -0.949299 -6.39998 0
M  V30 4616 N 452.299 1.55045 -0.282633 0
M  V30 4617 C 453.262 2.21515 0.588539 0
M  V30 4618 C 454.262 1.19535 1.07554 0
M  V30 4619 O 455.452 1.44391 0.974514 0
M  V30 4620 C 452.584 2.88704 1.8128 0
M  V30 4621 H 453.777 2.99899 0.00806397 0
M  V30 4622 H 451.33 1.56265 -0.0333067 0
M  V30 4623 H 452.065 2.14352 2.43359 0
M  V30 4624 H 451.85 3.63443 1.47144 0
M  V30 4625 H 453.34 3.39465 2.43214 0
M  V30 4626 N 453.777 0.010035 1.57597 0
M  V30 4627 C 454.687 -0.994226 2.12491 0
M  V30 4628 C 455.703 -1.37013 1.07254 0
M  V30 4629 O 456.879 -1.45542 1.3921 0
M  V30 4630 C 453.944 -2.2642 2.62555 0
M  V30 4631 C 453.005 -1.95049 3.82432 0
M  V30 4632 C 452.238 -3.15991 4.30099 0
M  V30 4633 O 452.461 -4.28015 3.7704 0
M  V30 4634 O 451.395 -2.99403 5.22151 0
M  V30 4635 H 455.221 -0.557549 2.98538 0
M  V30 4636 H 452.806 -0.209413 1.47925 0
M  V30 4637 H 454.688 -3.01009 2.9491 0
M  V30 4638 H 453.363 -2.69306 1.796 0
M  V30 4639 H 452.27 -1.17904 3.55034 0
M  V30 4640 H 453.603 -1.56992 4.66491 0
M  V30 4641 N 455.255 -1.55392 -0.262866 0
M  V30 4642 C 456.671 -1.47459 -0.610582 0
M  V30 4643 C 456.871 -0.697031 -1.8906 0
M  V30 4644 O 455.927 -0.219952 -2.5154 0
M  V30 4645 C 457.24 -2.91751 -0.728131 0
M  V30 4646 C 458.788 -3.02027 -0.821517 0
M  V30 4647 C 459.263 -4.47594 -0.97076 0
M  V30 4648 N 460.754 -4.51465 -1.03603 0
M  V30 4649 C 461.489 -5.61326 -1.17049 0
M  V30 4650 N 460.985 -6.81032 -1.2715 0
M  V30 4651 N 462.778 -5.49089 -1.20239 0
M  V30 4652 H 454.929 -2.04395 0.577632 0
M  V30 4653 H 457.192 -0.927287 0.197086 0
M  V30 4654 H 456.898 -3.51413 0.142132 0
M  V30 4655 H 456.772 -3.4134 -1.6052 0
M  V30 4656 H 459.159 -2.42456 -1.68224 0
M  V30 4657 H 459.24 -2.55674 0.0803688 0
M  V30 4658 H 458.884 -5.07771 -0.114655 0
M  V30 4659 H 458.814 -4.91613 -1.88745 0
M  V30 4660 H 461.305 -3.6524 -0.96996 0
M  V30 4661 H 461.618 -7.60511 -1.37271 0
M  V30 4662 H 459.963 -6.83824 -1.24136 0
M  V30 4663 H 463.154 -4.54507 -1.11985 0
M  V30 4664 H 463.327 -6.34749 -1.30373 0
M  V30 4665 N 456.733 0.527833 -1.48498 0
M  V30 4666 C 457.68 1.6322 -1.6318 0
M  V30 4667 C 458.65 1.59199 -0.473815 0
M  V30 4668 O 459.835 1.77591 -0.697563 0
M  V30 4669 C 456.975 3.01474 -1.67951 0
M  V30 4670 C 456.088 3.15713 -2.94871 0
M  V30 4671 C 455.223 4.44539 -2.90789 0
M  V30 4672 C 454.262 4.52315 -4.12404 0
M  V30 4673 N 453.399 5.72533 -4.06387 0
M  V30 4674 H 458.239 1.50011 -2.57489 0
M  V30 4675 H 455.776 0.730298 -1.27691 0
M  V30 4676 H 457.734 3.81572 -1.68698 0
M  V30 4677 H 456.364 3.1345 -0.771306 0
M  V30 4678 H 455.416 2.28854 -3.03859 0
M  V30 4679 H 456.728 3.1732 -3.8485 0
M  V30 4680 H 455.882 5.3293 -2.89949 0
M  V30 4681 H 454.621 4.45457 -1.98542 0
M  V30 4682 H 453.626 3.62331 -4.13517 0
M  V30 4683 H 454.851 4.53134 -5.05812 0
M  V30 4684 H 452.797 5.74344 -3.16962 0
M  V30 4685 H 452.714 5.75643 -4.90073 0
M  V30 4686 H 453.982 6.63204 -4.0961 0
M  V30 4687 N 458.211 1.37122 0.776871 0
M  V30 4688 C 459.46 1.31373 1.53049 0
M  V30 4689 C 459.773 -0.101016 1.95339 0
M  V30 4690 O 460.979 -0.280953 2.70042 0
M  V30 4691 C 459.435 2.30567 2.76346 0
M  V30 4692 C 459.043 3.77543 2.41175 0
M  V30 4693 C 460.787 2.33818 3.54301 0
M  V30 4694 C 458.694 4.68481 3.60943 0
M  V30 4695 H 457.624 0.488234 0.574581 0
M  V30 4696 H 460.275 1.62554 0.851372 0
M  V30 4697 H 458.657 1.92396 3.46121 0
M  V30 4698 H 459.831 4.24521 1.79216 0
M  V30 4699 H 458.146 3.77187 1.76405 0
M  V30 4700 H 460.743 2.98965 4.4331 0
M  V30 4701 H 461.086 1.3503 3.93793 0
M  V30 4702 H 461.619 2.7067 2.91518 0
M  V30 4703 H 458.358 5.68378 3.26537 0
M  V30 4704 H 457.878 4.2621 4.22025 0
M  V30 4705 H 459.557 4.85366 4.27819 0
M  V30 4706 N 459.689 -1.00246 1.21608 0
M  V30 4707 C 460.636 -2.09073 0.977613 0
M  V30 4708 C 461.606 -1.65815 -0.097297 0
M  V30 4709 O 462.791 -1.90734 0.0503445 0
M  V30 4710 C 459.931 -3.40671 0.551133 0
M  V30 4711 C 459.044 -3.97326 1.69576 0
M  V30 4712 C 458.179 -5.17043 1.2182 0
M  V30 4713 C 457.218 -5.65813 2.335 0
M  V30 4714 N 456.355 -6.76778 1.86859 0
M  V30 4715 H 461.195 -2.28806 1.90924 0
M  V30 4716 H 458.732 -1.12186 0.951452 0
M  V30 4717 H 460.69 -4.16225 0.285097 0
M  V30 4718 H 459.32 -3.20967 -0.343489 0
M  V30 4719 H 458.372 -3.18734 2.07637 0
M  V30 4720 H 459.684 -4.29511 2.53617 0
M  V30 4721 H 458.838 -5.99852 0.908975 0
M  V30 4722 H 457.577 -4.86458 0.347869 0
M  V30 4723 H 456.582 -4.81599 2.65222 0
M  V30 4724 H 457.807 -5.98427 3.21033 0
M  V30 4725 H 455.753 -6.47994 1.02174 0
M  V30 4726 H 455.67 -7.08231 2.64471 0
M  V30 4727 H 456.938 -7.63116 1.58978 0
M  V30 4728 N 461.167 -1.02423 -1.1978 0
M  V30 4729 C 462.583 -0.740459 -1.41384 0
M  V30 4730 C 462.783 0.676827 -1.89793 0
M  V30 4731 O 461.839 1.4435 -2.0717 0
M  V30 4732 C 463.152 -1.77264 -2.42895 0
M  V30 4733 C 464.7 -1.79165 -2.56649 0
M  V30 4734 C 465.175 -2.8133 -3.6141 0
M  V30 4735 N 466.666 -2.80118 -3.68901 0
M  V30 4736 C 467.401 -3.55824 -4.49641 0
M  V30 4737 N 466.897 -4.41231 -5.34123 0
M  V30 4738 N 468.69 -3.44387 -4.44246 0
M  V30 4739 H 460.841 -1.9391 -0.866764 0
M  V30 4740 H 463.104 -0.838074 -0.443098 0
M  V30 4741 H 462.81 -2.7884 -2.14339 0
M  V30 4742 H 462.684 -1.59108 -3.42001 0
M  V30 4743 H 465.071 -0.782702 -2.84531 0
M  V30 4744 H 465.152 -2.01396 -1.57713 0
M  V30 4745 H 464.796 -3.82394 -3.34271 0
M  V30 4746 H 464.726 -2.56359 -4.59986 0
M  V30 4747 H 467.217 -2.1817 -3.08562 0
M  V30 4748 H 467.53 -4.95747 -5.92836 0
M  V30 4749 H 465.875 -4.45306 -5.33599 0
M  V30 4750 H 469.066 -2.7708 -3.77285 0
M  V30 4751 H 469.239 -4.0364 -5.06931 0
M  V30 4752 N 462.645 1.35699 -0.801477 0
M  V30 4753 C 463.894 1.98165 -0.375979 0
M  V30 4754 C 464.207 1.64306 1.06127 0
M  V30 4755 O 465.413 2.20097 1.58964 0
M  V30 4756 C 463.869 3.54497 -0.621305 0
M  V30 4757 C 463.477 3.9727 -2.07076 0
M  V30 4758 C 465.221 4.23697 -0.26091 0
M  V30 4759 C 463.128 5.46427 -2.26211 0
M  V30 4760 H 462.058 0.741478 -0.136844 0
M  V30 4761 H 464.709 1.54834 -0.984814 0
M  V30 4762 H 463.091 3.95958 0.0574112 0
M  V30 4763 H 464.265 3.66974 -2.78687 0
M  V30 4764 H 462.58 3.40943 -2.39054 0
M  V30 4765 H 465.177 5.33334 -0.381994 0
M  V30 4766 H 465.52 4.0869 0.792344 0
M  V30 4767 H 466.053 3.87639 -0.893339 0
M  V30 4768 H 462.792 5.66396 -3.29963 0
M  V30 4769 H 462.312 5.78309 -1.59119 0
M  V30 4770 H 463.991 6.12819 -2.07513 0
M  V30 4771 N 464.123 0.554532 1.47522 0
M  V30 4772 C 465.353 0.0342074 2.06572 0
M  V30 4773 C 465.761 -1.26375 1.40805 0
M  V30 4774 O 465.104 -1.7683 0.49769 0
M  V30 4775 C 465.166 -0.235096 3.5873 0
M  V30 4776 C 464.83 0.973024 4.46521 0
M  V30 4777 C 465.827 1.8779 4.848 0
M  V30 4778 C 463.512 1.18694 4.88075 0
M  V30 4779 C 465.506 2.98039 5.63428 0
M  V30 4780 C 463.193 2.29254 5.66468 0
M  V30 4781 C 464.191 3.18757 6.04055 0
M  V30 4782 O 463.879 4.27401 6.8087 0
M  V30 4783 H 463.611 0.041587 0.67472 0
M  V30 4784 H 466.165 0.766748 1.90552 0
M  V30 4785 H 464.395 -1.02191 3.72953 0
M  V30 4786 H 466.084 -0.700477 3.9981 0
M  V30 4787 H 466.85 1.72467 4.53299 0
M  V30 4788 H 462.729 0.49947 4.58286 0
M  V30 4789 H 466.273 3.67926 5.92685 0
M  V30 4790 H 462.17 2.4455 5.97382 0
M  V30 4791 H 462.938 4.25415 6.9926 0
M  V30 4792 N 465.601 -1.54893 0.290851 0
M  V30 4793 C 466.849 -1.99538 -0.320756 0
M  V30 4794 C 467.17 -1.18075 -1.55188 0
M  V30 4795 O 466.44 -0.274162 -1.93972 0
M  V30 4796 H 465.02 -0.737052 -0.121507 0
M  V30 4797 H 467.682 -1.90755 0.399832 0
M  V30 4798 H 466.778 -3.06282 -0.599802 0
M  V30 4799 N 467.08 -0.0183926 -1.57589 0
M  V30 4800 C 468.328 0.661253 -1.90976 0
M  V30 4801 C 468.649 1.73281 -0.894353 0
M  V30 4802 O 467.919 1.9579 0.0656788 0
M  V30 4803 H 466.499 0.247233 -0.704901 0
M  V30 4804 H 469.161 -0.0636639 -1.94796 0
M  V30 4805 H 468.257 1.12083 -2.9128 0
M  V30 4806 N 468.558 1.5553 0.254621 0
M  V30 4807 C 469.805 1.77 0.983736 0
M  V30 4808 C 470.133 0.58133 1.85609 0
M  V30 4809 O 469.388 -0.435621 1.9079 0
M  V30 4810 C 469.687 3.03891 1.88109 0
M  V30 4811 C 469.353 4.35597 1.16472 0
M  V30 4812 C 468.015 4.7139 0.966714 0
M  V30 4813 C 470.367 5.1705 0.656387 0
M  V30 4814 C 467.695 5.86176 0.247942 0
M  V30 4815 C 470.047 6.32581 -0.0488807 0
M  V30 4816 C 468.711 6.67 -0.258438 0
M  V30 4817 H 467.981 0.647688 0.359974 0
M  V30 4818 H 470.628 1.89802 0.254463 0
M  V30 4819 H 468.933 2.86068 2.67717 0
M  V30 4820 H 470.63 3.17701 2.44677 0
M  V30 4821 H 467.22 4.07475 1.32899 0
M  V30 4822 H 471.404 4.8986 0.796933 0
M  V30 4823 H 466.66 6.11354 0.075035 0
M  V30 4824 H 470.834 6.94942 -0.450444 0
M  V30 4825 H 468.461 7.55793 -0.817358 0
M  V30 4826 N 470.036 -0.519951 1.48776 0
M  V30 4827 C 470.983 -1.62352 1.64044 0
M  V30 4828 C 471.953 -1.58945 0.482251 0
M  V30 4829 O 473.138 -1.77219 0.706971 0
M  V30 4830 C 470.278 -3.00579 1.69547 0
M  V30 4831 C 469.391 -3.14145 2.96541 0
M  V30 4832 C 468.526 -4.42991 2.93142 0
M  V30 4833 C 467.565 -4.50122 4.14797 0
M  V30 4834 N 466.702 -5.7037 4.09418 0
M  V30 4835 H 471.542 -1.48643 2.58281 0
M  V30 4836 H 469.079 -0.723516 1.28077 0
M  V30 4837 H 471.037 -3.80671 1.70719 0
M  V30 4838 H 469.667 -3.13036 0.787918 0
M  V30 4839 H 468.719 -2.27239 3.05068 0
M  V30 4840 H 470.031 -3.15275 3.86527 0
M  V30 4841 H 469.185 -5.31385 2.92772 0
M  V30 4842 H 467.924 -4.44398 2.00902 0
M  V30 4843 H 466.929 -3.60133 4.15433 0
M  V30 4844 H 468.154 -4.50445 5.08208 0
M  V30 4845 H 466.1 -5.72655 3.20004 0
M  V30 4846 H 466.017 -5.73036 4.93119 0
M  V30 4847 H 467.285 -6.61023 4.13121 0
M  V30 4848 N 471.514 -1.37532 -0.769588 0
M  V30 4849 C 472.739 -1.36231 -1.56384 0
M  V30 4850 C 473.164 0.0495849 -1.88035 0
M  V30 4851 O 472.522 1.02723 -1.49391 0
M  V30 4852 C 472.57 -2.20986 -2.84952 0
M  V30 4853 O 471.674 -1.61597 -3.79421 0
M  V30 4854 H 471.015 -0.465387 -0.473615 0
M  V30 4855 H 473.545 -1.81085 -0.952342 0
M  V30 4856 H 473.555 -2.34277 -3.34034 0
M  V30 4857 H 472.23 -3.23612 -2.61243 0
M  V30 4858 H 470.807 -1.57359 -3.38072 0
M  V30 4859 N 472.992 0.995999 -1.22138 0
M  V30 4860 C 474.22 1.77066 -1.07029 0
M  V30 4861 C 474.635 1.8495 0.379357 0
M  V30 4862 O 473.992 1.3174 1.26297 0
M  V30 4863 C 474.043 3.20533 -1.67155 0
M  V30 4864 O 473.764 3.13082 -3.06449 0
M  V30 4865 C 475.265 4.14461 -1.5728 0
M  V30 4866 H 472.485 0.556179 -0.375374 0
M  V30 4867 H 475.029 1.25238 -1.61666 0
M  V30 4868 H 473.184 3.6944 -1.16589 0
M  V30 4869 H 473.598 4.03283 -3.35355 0
M  V30 4870 H 475.072 5.1289 -2.04078 0
M  V30 4871 H 475.549 4.36005 -0.528795 0
M  V30 4872 H 476.155 3.71449 -2.07136 0
M  V30 4873 N 474.47 1.03057 1.19235 0
M  V30 4874 C 475.433 0.617418 2.20727 0
M  V30 4875 C 476.433 -0.319856 1.57587 0
M  V30 4876 O 477.623 -0.106633 1.73873 0
M  V30 4877 C 474.755 -0.096296 3.40764 0
M  V30 4878 H 475.948 1.51544 2.58794 0
M  V30 4879 H 473.501 0.821949 1.32942 0
M  V30 4880 H 474.236 -1.00859 3.08217 0
M  V30 4881 H 474.021 0.577217 3.87828 0
M  V30 4882 H 475.511 -0.372219 4.15938 0
M  V30 4883 N 475.948 -1.35272 0.808662 0
M  V30 4884 C 477.196 -1.98316 0.389233 0
M  V30 4885 C 477.517 -1.64465 -1.04767 0
M  V30 4886 O 476.787 -0.928175 -1.72516 0
M  V30 4887 H 475.367 -0.733585 0.140935 0
M  V30 4888 H 478.029 -1.6515 1.03496 0
M  V30 4889 H 477.125 -3.08123 0.496631 0
M  V30 4890 N 477.426 -0.562348 -1.47226 0
M  V30 4891 C 478.373 0.182461 -2.30078 0
M  V30 4892 C 479.343 0.903503 -1.39377 0
M  V30 4893 O 480.528 0.898188 -1.68337 0
M  V30 4894 C 477.668 1.20322 -3.23445 0
M  V30 4895 C 476.781 0.487717 -4.29238 0
M  V30 4896 C 475.916 1.49422 -5.09752 0
M  V30 4897 C 474.955 0.763976 -6.07314 0
M  V30 4898 N 474.092 1.71755 -6.80768 0
M  V30 4899 H 478.932 -0.530169 -2.93246 0
M  V30 4900 H 476.469 -0.273276 -1.44539 0
M  V30 4901 H 478.427 1.80768 -3.76004 0
M  V30 4902 H 477.057 1.88382 -2.6213 0
M  V30 4903 H 476.109 -0.231374 -3.79696 0
M  V30 4904 H 477.421 -0.0841003 -4.98729 0
M  V30 4905 H 476.575 2.17206 -5.66486 0
M  V30 4906 H 475.314 2.09995 -4.40174 0
M  V30 4907 H 474.319 0.0722344 -5.49753 0
M  V30 4908 H 475.544 0.16391 -6.78902 0
M  V30 4909 H 473.49 2.31177 -6.13916 0
M  V30 4910 H 473.407 1.19802 -7.46447 0
M  V30 4911 H 474.675 2.38638 -7.42073 0
M  V30 4912 N 478.904 1.54736 -0.299062 0
M  V30 4913 C 479.854 2.20155 0.592932 0
M  V30 4914 C 480.838 1.1739 1.10038 0
M  V30 4915 O 482.03 1.43116 1.04147 0
M  V30 4916 C 479.159 2.94437 1.76527 0
M  V30 4917 C 478.245 4.04516 1.27388 0
M  V30 4918 N 478.636 5.03319 0.500339 0
M  V30 4919 C 476.934 4.18022 1.55478 0
M  V30 4920 C 477.635 5.81209 0.238909 0
M  V30 4921 N 476.611 5.37408 0.818163 0
M  V30 4922 H 480.413 2.93899 -0.00563596 0
M  V30 4923 H 477.927 1.62068 -0.103732 0
M  V30 4924 H 479.924 3.3977 2.41582 0
M  V30 4925 H 478.584 2.22209 2.36756 0
M  V30 4926 H 479.595 5.17696 0.145419 0
M  V30 4927 H 476.272 3.56998 2.16469 0
M  V30 4928 H 477.662 6.70812 -0.382223 0
M  V30 4929 N 480.382 0.0267497 1.57577 0
M  V30 4930 C 481.793 -0.512413 1.79531 0
M  V30 4931 C 482.144 -1.72391 0.936791 0
M  V30 4932 O 481.269 -2.15903 0.146543 0
M  V30 4933 C 481.864 -0.936378 3.25603 0
M  V30 4934 C 480.423 -1.42067 3.4856 0
M  V30 4935 C 479.57 -0.384278 2.74624 0
M  V30 4936 H 482.521 0.252797 1.56674 0
M  V30 4937 H 482.542 -1.80088 3.35184 0
M  V30 4938 H 482.054 -0.0544332 3.88062 0
M  V30 4939 H 480.155 -2.32262 2.9135 0
M  V30 4940 H 480.268 -1.42968 4.57271 0
M  V30 4941 H 478.632 -0.851855 2.40032 0
M  V30 4942 H 479.415 0.489159 3.39797 0
M  V30 4943 N 481.861 -1.55662 -0.24637 0
M  V30 4944 C 483.107 -1.78698 -0.971525 0
M  V30 4945 C 483.462 -0.59577 -1.82944 0
M  V30 4946 O 482.755 0.41097 -1.87141 0
M  V30 4947 C 482.949 -3.04885 -1.86494 0
M  V30 4948 C 482.778 -4.36165 -1.09501 0
M  V30 4949 C 481.548 -4.98929 -0.799895 0
M  V30 4950 C 483.746 -5.12126 -0.472334 0
M  V30 4951 N 481.728 -6.139 -0.00595299 0
M  V30 4952 C 483.099 -6.1972 0.18616 0
M  V30 4953 C 485.154 -4.96426 -0.382854 0
M  V30 4954 C 483.857 -7.13321 0.925542 0
M  V30 4955 C 485.883 -5.90405 0.342999 0
M  V30 4956 C 485.245 -6.97407 0.990128 0
M  V30 4957 H 481.344 -0.705852 -0.336597 0
M  V30 4958 H 483.928 -1.93157 -0.244615 0
M  V30 4959 H 482.099 -2.91753 -2.56388 0
M  V30 4960 H 483.831 -3.16212 -2.5257 0
M  V30 4961 H 480.586 -4.60365 -1.11181 0
M  V30 4962 H 481.01 -6.75938 0.379127 0
M  V30 4963 H 485.652 -4.13777 -0.868834 0
M  V30 4964 H 483.37 -7.9547 1.42312 0
M  V30 4965 H 486.956 -5.80333 0.412907 0
M  V30 4966 H 485.836 -7.68874 1.54282 0
M  V30 4967 N 483.339 0.512053 -1.4905 0
M  V30 4968 C 484.271 1.63121 -1.6101 0
M  V30 4969 C 485.284 1.55145 -0.493352 0
M  V30 4970 O 486.473 1.61278 -0.764955 0
M  V30 4971 C 483.573 3.01863 -1.54052 0
M  V30 4972 C 482.746 3.35138 -2.81072 0
M  V30 4973 C 481.805 4.5324 -2.67319 0
M  V30 4974 O 480.831 4.55571 -3.41238 0
M  V30 4975 N 482.033 5.52495 -1.78127 0
M  V30 4976 H 484.798 1.53292 -2.5753 0
M  V30 4977 H 482.359 0.699706 -1.45999 0
M  V30 4978 H 484.351 3.78774 -1.42521 0
M  V30 4979 H 482.921 3.05675 -0.654345 0
M  V30 4980 H 482.141 2.4723 -3.07036 0
M  V30 4981 H 483.429 3.54162 -3.65304 0
M  V30 4982 H 482.827 5.53403 -1.17308 0
M  V30 4983 H 481.384 6.28553 -1.72525 0
M  V30 4984 N 484.817 1.37938 0.762283 0
M  V30 4985 C 485.78 1.34279 1.85747 0
M  V30 4986 C 486.78 0.244969 1.58923 0
M  V30 4987 O 487.97 0.501365 1.66829 0
M  V30 4988 C 485.102 1.08833 3.23061 0
M  V30 4989 H 486.295 2.31705 1.90401 0
M  V30 4990 H 483.848 1.23105 0.963057 0
M  V30 4991 H 484.583 0.119767 3.24079 0
M  V30 4992 H 484.368 1.88306 3.43923 0
M  V30 4993 H 485.858 1.08946 4.03138 0
M  V30 4994 N 486.295 -0.989507 1.22664 0
M  V30 4995 C 487.52 -1.77031 1.08051 0
M  V30 4996 C 487.945 -1.84535 -0.364483 0
M  V30 4997 O 487.303 -1.3003 -1.2634 0
M  V30 4998 C 487.351 -3.18 1.70024 0
M  V30 4999 O 486.455 -4.01161 0.956216 0
M  V30 5000 H 485.796 -0.545008 0.379292 0
M  V30 5001 H 488.326 -1.24277 1.62531 0
M  V30 5002 H 488.336 -3.68616 1.74888 0
M  V30 5003 H 487.011 -3.11853 2.75174 0
M  V30 5004 H 485.588 -3.59687 0.98384 0
M  V30 5005 N 487.773 -1.03688 -1.18687 0
M  V30 5006 C 488.703 -0.645407 -2.24403 0
M  V30 5007 C 489.684 0.349511 -1.66471 0
M  V30 5008 O 490.869 0.230453 -1.92828 0
M  V30 5009 C 487.999 -0.00365337 -3.473 0
M  V30 5010 C 486.953 -0.921705 -4.17958 0
M  V30 5011 C 486.279 -0.144629 -5.34504 0
M  V30 5012 C 487.579 -2.23909 -4.71871 0
M  V30 5013 H 489.273 -1.52917 -2.57404 0
M  V30 5014 H 486.819 -0.736711 -1.23728 0
M  V30 5015 H 488.772 0.281908 -4.20456 0
M  V30 5016 H 487.496 0.914963 -3.13522 0
M  V30 5017 H 486.155 -1.19159 -3.46694 0
M  V30 5018 H 485.803 0.776274 -4.96974 0
M  V30 5019 H 485.503 -0.756206 -5.82714 0
M  V30 5020 H 487.027 0.134004 -6.10453 0
M  V30 5021 H 488.441 -2.0145 -5.36741 0
M  V30 5022 H 486.838 -2.8033 -5.30599 0
M  V30 5023 H 487.908 -2.88822 -3.895 0
M  V30 5024 N 489.251 1.34841 -0.815825 0
M  V30 5025 C 490.183 2.28409 -0.190265 0
M  V30 5026 C 491.196 1.50705 0.615771 0
M  V30 5027 O 492.385 1.72822 0.446616 0
M  V30 5028 C 489.485 3.30441 0.752446 0
M  V30 5029 C 488.658 4.37399 -0.00922152 0
M  V30 5030 C 487.717 5.19234 0.853351 0
M  V30 5031 O 486.743 5.68404 0.300919 0
M  V30 5032 N 487.945 5.38248 2.17416 0
M  V30 5033 H 490.71 2.82732 -0.994114 0
M  V30 5034 H 488.271 1.47289 -0.672129 0
M  V30 5035 H 490.263 3.82084 1.33394 0
M  V30 5036 H 488.833 2.76565 1.45707 0
M  V30 5037 H 488.053 3.86567 -0.771979 0
M  V30 5038 H 489.341 5.05992 -0.533807 0
M  V30 5039 H 488.739 4.99961 2.6468 0
M  V30 5040 H 487.296 5.93035 2.70467 0
M  V30 5041 N 490.729 0.570148 1.46925 0
M  V30 5042 C 491.954 0.0542592 2.07329 0
M  V30 5043 C 492.379 -1.23582 1.41806 0
M  V30 5044 O 491.737 -1.74341 0.497479 0
M  V30 5045 C 491.785 -0.111175 3.60429 0
M  V30 5046 O 490.889 -1.17071 3.95434 0
M  V30 5047 H 490.23 0.0571425 0.661537 0
M  V30 5048 H 492.76 0.789516 1.88753 0
M  V30 5049 H 492.77 -0.321315 4.06733 0
M  V30 5050 H 491.445 0.831012 4.07513 0
M  V30 5051 H 490.022 -0.940029 3.60857 0
M  V30 5052 N 492.207 -1.54576 0.307264 0
M  V30 5053 C 493.432 -2.05139 -0.305379 0
M  V30 5054 C 493.857 -1.18278 -1.46259 0
M  V30 5055 O 493.215 -0.188243 -1.8032 0
M  V30 5056 C 493.263 -3.53066 -0.733283 0
M  V30 5057 O 492.367 -3.69206 -1.83741 0
M  V30 5058 H 491.708 -0.661444 -0.0582105 0
M  V30 5059 H 494.238 -1.99569 0.450931 0
M  V30 5060 H 494.248 -3.95034 -1.02039 0
M  V30 5061 H 492.923 -4.15746 0.113198 0
M  V30 5062 H 491.5 -3.39143 -1.55037 0
M  V30 5063 N 493.685 -0.035106 -1.57561 0
M  V30 5064 C 494.615 0.942993 -2.13612 0
M  V30 5065 C 495.596 1.33531 -1.05373 0
M  V30 5066 O 496.781 1.41287 -1.33235 0
M  V30 5067 C 493.911 2.22332 -2.66807 0
M  V30 5068 C 492.865 1.97156 -3.79886 0
M  V30 5069 C 492.191 3.31506 -4.19533 0
M  V30 5070 C 493.491 1.30596 -5.05709 0
M  V30 5071 H 495.185 0.476179 -2.95589 0
M  V30 5072 H 492.731 0.227602 -1.4219 0
M  V30 5073 H 494.684 2.91142 -3.04654 0
M  V30 5074 H 493.408 2.7119 -1.81999 0
M  V30 5075 H 492.067 1.30763 -3.42486 0
M  V30 5076 H 491.715 3.78134 -3.31698 0
M  V30 5077 H 491.415 3.15465 -4.95738 0
M  V30 5078 H 492.939 4.01574 -4.59968 0
M  V30 5079 H 494.353 1.89416 -5.41105 0
M  V30 5080 H 492.75 1.24934 -5.86951 0
M  V30 5081 H 493.82 0.279742 -4.84092 0
M  V30 5082 N 495.163 1.55791 0.238111 0
M  V30 5083 C 496.574 1.68383 0.806472 0
M  V30 5084 C 496.925 0.634157 1.85669 0
M  V30 5085 O 496.05 -0.217913 2.153 0
M  V30 5086 C 496.645 3.05268 1.46959 0
M  V30 5087 C 495.204 3.1977 1.98555 0
M  V30 5088 C 494.351 2.64279 0.839763 0
M  V30 5089 H 497.302 1.58694 0.0137535 0
M  V30 5090 H 497.323 3.00203 2.33792 0
M  V30 5091 H 496.835 3.81643 0.704993 0
M  V30 5092 H 494.936 2.48234 2.77868 0
M  V30 5093 H 495.049 4.26788 2.17689 0
M  V30 5094 H 493.413 2.22329 1.24265 0
M  V30 5095 H 494.196 3.43187 0.0881032 0
M  V30 5096 N 496.642 -0.504142 1.49319 0
M  V30 5097 C 497.572 -1.61473 1.68667 0
M  V30 5098 C 498.553 -1.61455 0.535378 0
M  V30 5099 O 499.738 -1.78245 0.770868 0
M  V30 5100 C 496.868 -2.99971 1.75028 0
M  V30 5101 C 495.822 -3.14854 2.89916 0
M  V30 5102 C 495.148 -4.54671 2.81387 0
M  V30 5103 C 496.448 -2.95176 4.30893 0
M  V30 5104 H 498.142 -1.45535 2.61648 0
M  V30 5105 H 495.688 -0.698711 1.25913 0
M  V30 5106 H 497.641 -3.77562 1.8715 0
M  V30 5107 H 496.365 -3.1699 0.786441 0
M  V30 5108 H 495.024 -2.39687 2.77391 0
M  V30 5109 H 494.672 -4.68562 1.82917 0
M  V30 5110 H 494.372 -4.6557 3.58494 0
M  V30 5111 H 495.896 -5.34327 2.95512 0
M  V30 5112 H 497.31 -3.62538 4.44116 0
M  V30 5113 H 495.707 -3.17549 5.09198 0
M  V30 5114 H 496.777 -1.91332 4.45556 0
M  V30 5115 N 498.12 -1.38341 -0.754957 0
M  V30 5116 C 499.348 -1.37704 -1.54419 0
M  V30 5117 C 499.763 0.0335243 -1.8877 0
M  V30 5118 O 499.12 0.999773 -1.52679 0
M  V30 5119 C 499.171 -2.23136 -2.84416 0
M  V30 5120 O 498.892 -3.58697 -2.51531 0
M  V30 5121 C 500.393 -2.30664 -3.78562 0
M  V30 5122 H 497.613 -0.471061 -0.477852 0
M  V30 5123 H 500.157 -1.81902 -0.934446 0
M  V30 5124 H 498.312 -1.82403 -3.41772 0
M  V30 5125 H 498.726 -4.03665 -3.34896 0
M  V30 5126 H 500.2 -2.9473 -4.66732 0
M  V30 5127 H 500.677 -1.3199 -4.18898 0
M  V30 5128 H 501.283 -2.71781 -3.27131 0
M  V30 5129 N 499.598 0.982988 -1.23187 0
M  V30 5130 C 500.847 1.71817 -1.05649 0
M  V30 5131 C 501.16 1.91315 0.407176 0
M  V30 5132 O 502.366 2.62256 0.702436 0
M  V30 5133 C 500.822 3.09188 -1.84203 0
M  V30 5134 C 500.43 2.97586 -3.34882 0
M  V30 5135 C 502.174 3.86684 -1.75146 0
M  V30 5136 C 500.081 4.30173 -4.05839 0
M  V30 5137 H 499.011 0.644258 -0.391724 0
M  V30 5138 H 501.662 1.09659 -1.4713 0
M  V30 5139 H 500.044 3.72087 -1.35527 0
M  V30 5140 H 501.218 2.43793 -3.91026 0
M  V30 5141 H 499.533 2.33567 -3.44725 0
M  V30 5142 H 502.13 4.84836 -2.25473 0
M  V30 5143 H 502.473 4.10136 -0.713737 0
M  V30 5144 H 503.006 3.30482 -2.21419 0
M  V30 5145 H 499.745 4.11918 -5.09906 0
M  V30 5146 H 499.265 4.83841 -3.54482 0
M  V30 5147 H 500.944 4.98873 -4.11989 0
M  V30 5148 N 501.076 1.04316 1.18135 0
M  V30 5149 C 502.301 0.768047 1.92655 0
M  V30 5150 C 502.726 -0.66904 1.758 0
M  V30 5151 O 502.084 -1.46372 1.06981 0
M  V30 5152 C 502.132 1.14239 3.42026 0
M  V30 5153 O 501.236 0.269333 4.1152 0
M  V30 5154 H 500.577 0.282436 0.600937 0
M  V30 5155 H 503.107 1.39367 1.49793 0
M  V30 5156 H 503.117 1.10538 3.92741 0
M  V30 5157 H 501.792 2.18928 3.53615 0
M  V30 5158 H 500.369 0.366175 3.71098 0
M  V30 5159 N 502.554 -1.34406 0.822964 0
M  V30 5160 C 503.487 -2.27407 0.190124 0
M  V30 5161 C 504.465 -1.4889 -0.653486 0
M  V30 5162 O 505.649 -1.78109 -0.617216 0
M  V30 5163 C 502.776 -3.3064 -0.734477 0
M  V30 5164 C 501.822 -4.26488 0.0316099 0
M  V30 5165 S 502.655 -5.17445 1.3788 0
M  V30 5166 C 503.811 -6.24214 0.45907 0
M  V30 5167 H 504.044 -2.80733 0.978586 0
M  V30 5168 H 501.577 -1.41455 0.618866 0
M  V30 5169 H 503.535 -3.90607 -1.26238 0
M  V30 5170 H 502.196 -2.76161 -1.49646 0
M  V30 5171 H 501.389 -4.9951 -0.671285 0
M  V30 5172 H 500.991 -3.70775 0.490066 0
M  V30 5173 H 503.283 -6.76599 -0.349357 0
M  V30 5174 H 504.226 -6.98551 1.15896 0
M  V30 5175 H 504.634 -5.6448 0.0474825 0
M  V30 5176 N 504.032 -0.577932 -1.46621 0
M  V30 5177 C 505.443 -0.150071 -1.86096 0
M  V30 5178 C 505.794 1.28563 -1.48209 0
M  V30 5179 O 504.919 1.97036 -0.894754 0
M  V30 5180 C 505.514 -0.265576 -3.37758 0
M  V30 5181 C 504.073 0.10738 -3.76247 0
M  V30 5182 C 503.22 -0.603711 -2.70649 0
M  V30 5183 H 506.171 -0.786438 -1.37844 0
M  V30 5184 H 506.192 0.510352 -3.77062 0
M  V30 5185 H 505.704 -1.3106 -3.65301 0
M  V30 5186 H 503.805 1.15272 -3.54321 0
M  V30 5187 H 503.918 -0.26561 -4.78363 0
M  V30 5188 H 502.282 -0.0444884 -2.54661 0
M  V30 5189 H 503.065 -1.65029 -3.01032 0
M  V30 5190 N 505.51 1.54411 -0.315457 0
M  V30 5191 C 506.442 2.21527 0.588067 0
M  V30 5192 C 507.455 1.21263 1.08624 0
M  V30 5193 O 508.644 1.47777 1.00121 0
M  V30 5194 C 505.744 2.85963 1.81875 0
M  V30 5195 C 504.917 4.12291 1.46063 0
M  V30 5196 C 503.976 4.60396 2.54799 0
M  V30 5197 O 503.002 5.25265 2.19283 0
M  V30 5198 N 504.204 4.33935 3.85591 0
M  V30 5199 H 506.969 2.99697 0.013414 0
M  V30 5200 H 504.53 1.61308 -0.138295 0
M  V30 5201 H 506.522 3.15071 2.53993 0
M  V30 5202 H 505.092 2.11548 2.30144 0
M  V30 5203 H 504.312 3.90036 0.571445 0
M  V30 5204 H 505.6 4.9452 1.19695 0
M  V30 5205 H 504.998 3.81996 4.17248 0
M  V30 5206 H 503.555 4.67718 4.53964 0
M  V30 5207 N 506.988 0.0434614 1.5754 0
M  V30 5208 C 508.236 -0.630786 1.92004 0
M  V30 5209 C 508.557 -1.71836 0.921807 0
M  V30 5210 O 507.827 -1.9587 -0.034522 0
M  V30 5211 H 506.407 -0.235988 0.708745 0
M  V30 5212 H 509.069 0.0946462 1.9467 0
M  V30 5213 H 508.165 -1.07434 2.93026 0
M  V30 5214 N 508.466 -1.55915 -0.229846 0
M  V30 5215 C 509.416 -1.8813 -1.28807 0
M  V30 5216 C 510.4 -0.743621 -1.42685 0
M  V30 5217 O 511.592 -1.00588 -1.4564 0
M  V30 5218 C 508.721 -2.19431 -2.64017 0
M  V30 5219 C 507.807 -3.39569 -2.54074 0
M  V30 5220 N 508.198 -4.58404 -2.13774 0
M  V30 5221 C 506.496 -3.43019 -2.85051 0
M  V30 5222 C 507.197 -5.40557 -2.1488 0
M  V30 5223 N 506.173 -4.80054 -2.55047 0
M  V30 5224 H 509.975 -2.77527 -0.967261 0
M  V30 5225 H 507.489 -1.5637 -0.438433 0
M  V30 5226 H 509.486 -2.40681 -3.40409 0
M  V30 5227 H 508.146 -1.31341 -2.9695 0
M  V30 5228 H 509.157 -4.83716 -1.8504 0
M  V30 5229 H 505.834 -2.65249 -3.22411 0
M  V30 5230 H 507.224 -6.45666 -1.85918 0
M  V30 5231 N 509.944 0.496216 -1.49584 0
M  V30 5232 C 511.191 1.25003 -1.59312 0
M  V30 5233 C 511.519 1.92445 -0.28198 0
M  V30 5234 O 510.774 1.81557 0.730452 0
M  V30 5235 C 511.073 2.3359 -2.705 0
M  V30 5236 C 510.739 1.83574 -4.11839 0
M  V30 5237 C 509.401 1.69653 -4.50302 0
M  V30 5238 C 511.753 1.46193 -5.00277 0
M  V30 5239 C 509.081 1.16736 -5.74969 0
M  V30 5240 C 511.433 0.947265 -6.25468 0
M  V30 5241 C 510.097 0.794485 -6.62755 0
M  V30 5242 H 509.367 0.45742 -0.582965 0
M  V30 5243 H 512.014 0.549996 -1.83432 0
M  V30 5244 H 510.319 3.09401 -2.40371 0
M  V30 5245 H 512.016 2.91627 -2.75235 0
M  V30 5246 H 508.606 1.9537 -3.81482 0
M  V30 5247 H 512.79 1.55793 -4.71214 0
M  V30 5248 H 508.046 1.03623 -6.02555 0
M  V30 5249 H 512.22 0.648846 -6.93371 0
M  V30 5250 H 509.847 0.382271 -7.59238 0
M  V30 5251 N 511.423 1.38739 0.74761 0
M  V30 5252 C 512.663 1.36695 1.51966 0
M  V30 5253 C 513.027 -0.0411889 1.91956 0
M  V30 5254 O 514.228 -0.186543 2.68152 0
M  V30 5255 C 512.499 2.30119 2.73459 0
M  V30 5256 S 514.058 2.4615 3.63257 0
M  V30 5257 H 510.876 0.484929 0.519966 0
M  V30 5258 H 513.478 1.7472 0.877104 0
M  V30 5259 H 512.182 3.31312 2.422 0
M  V30 5260 H 511.713 1.93265 3.42655 0
M  V30 5261 H 513.728 1.69001 4.66533 0
M  V30 5262 N 512.901 -0.976442 1.23707 0
M  V30 5263 C 514.149 -1.71487 1.06942 0
M  V30 5264 C 514.47 -1.9098 -0.393897 0
M  V30 5265 O 513.74 -1.48128 -1.28198 0
M  V30 5266 H 512.32 -0.635425 0.392739 0
M  V30 5267 H 514.982 -1.17515 1.55487 0
M  V30 5268 H 514.078 -2.70286 1.56051 0
M  V30 5269 N 514.379 -1.04941 -1.1758 0
M  V30 5270 C 515.627 -0.756492 -1.87408 0
M  V30 5271 C 515.948 0.718478 -1.81281 0
M  V30 5272 O 515.218 1.519 -1.23706 0
M  V30 5273 H 513.798 -0.276841 -0.693807 0
M  V30 5274 H 516.46 -1.32803 -1.42652 0
M  V30 5275 H 515.556 -1.06918 -2.93215 0
M  V30 5276 N 515.857 1.33968 -0.830081 0
M  V30 5277 C 516.82 2.27694 -0.26235 0
M  V30 5278 C 517.82 1.50589 0.563876 0
M  V30 5279 O 519.01 1.70028 0.378941 0
M  V30 5280 C 516.142 3.35002 0.63138 0
M  V30 5281 H 517.335 2.79419 -1.08928 0
M  V30 5282 H 514.888 1.44221 -0.602486 0
M  V30 5283 H 515.623 2.88504 1.48109 0
M  V30 5284 H 515.408 3.92079 0.0403276 0
M  V30 5285 H 516.898 4.04897 1.02217 0
M  V30 5286 N 517.335 0.585699 1.46312 0
M  V30 5287 C 518.265 -0.133556 2.33118 0
M  V30 5288 C 519.246 -0.880707 1.45525 0
M  V30 5289 O 520.431 -0.855579 1.74337 0
M  V30 5290 C 517.561 -1.14585 3.27853 0
M  V30 5291 C 516.515 -0.513341 4.2491 0
M  V30 5292 C 515.841 -1.63231 5.09175 0
M  V30 5293 C 517.141 0.551413 5.19381 0
M  V30 5294 H 518.835 0.59121 2.93505 0
M  V30 5295 H 516.381 0.285761 1.41136 0
M  V30 5296 H 518.334 -1.65741 3.87438 0
M  V30 5297 H 517.058 -1.90093 2.65579 0
M  V30 5298 H 515.717 -0.0228349 3.66593 0
M  V30 5299 H 515.365 -2.37713 4.43285 0
M  V30 5300 H 515.065 -1.21473 5.74907 0
M  V30 5301 H 516.589 -2.14658 5.71624 0
M  V30 5302 H 518.003 0.124804 5.73164 0
M  V30 5303 H 516.4 0.889486 5.93471 0
M  V30 5304 H 517.47 1.43655 4.63132 0
M  V30 5305 N 518.813 -1.54241 0.323641 0
M  V30 5306 C 520.062 -1.9975 -0.279806 0
M  V30 5307 C 520.375 -1.2156 -1.5324 0
M  V30 5308 O 521.581 -1.57447 -2.21185 0
M  V30 5309 C 520.037 -3.55686 -0.549115 0
M  V30 5310 C 519.645 -4.4271 0.686432 0
M  V30 5311 C 521.389 -4.09663 -1.11251 0
M  V30 5312 C 519.296 -5.90119 0.389022 0
M  V30 5313 H 518.226 -0.746177 -0.10833 0
M  V30 5314 H 520.877 -1.78248 0.435877 0
M  V30 5315 H 519.259 -3.73176 -1.32499 0
M  V30 5316 H 520.433 -4.36996 1.46188 0
M  V30 5317 H 518.748 -3.99623 1.17005 0
M  V30 5318 H 521.345 -5.17386 -1.34965 0
M  V30 5319 H 521.688 -3.61651 -2.06191 0
M  V30 5320 H 522.221 -3.95806 -0.39782 0
M  V30 5321 H 518.96 -6.42326 1.30759 0
M  V30 5322 H 518.48 -5.98785 -0.348722 0
M  V30 5323 H 520.159 -6.47 -0.0011164 0
M  V30 5324 N 520.291 -0.0518155 -1.57515 0
M  V30 5325 C 521.241 0.932017 -2.0808 0
M  V30 5326 C 522.225 1.27141 -0.986098 0
M  V30 5327 O 523.417 1.25373 -1.24943 0
M  V30 5328 C 520.546 2.20665 -2.62986 0
M  V30 5329 C 519.632 1.89462 -3.79427 0
M  V30 5330 N 520.023 1.28621 -4.89173 0
M  V30 5331 C 518.321 2.19327 -3.88345 0
M  V30 5332 C 519.022 1.15062 -5.70207 0
M  V30 5333 N 517.998 1.65372 -5.17835 0
M  V30 5334 H 521.8 0.456964 -2.90326 0
M  V30 5335 H 519.314 0.152619 -1.61681 0
M  V30 5336 H 521.311 2.92044 -2.97516 0
M  V30 5337 H 519.971 2.68776 -1.8218 0
M  V30 5338 H 520.982 0.958341 -5.08956 0
M  V30 5339 H 517.659 2.69955 -3.18482 0
M  V30 5340 H 519.049 0.678243 -6.68468 0
M  V30 5341 N 521.769 1.56035 0.221574 0
M  V30 5342 C 523.18 1.69229 0.788567 0
M  V30 5343 C 523.531 0.653814 1.84986 0
M  V30 5344 O 522.656 -0.195065 2.15519 0
M  V30 5345 C 523.251 3.06809 1.43713 0
M  V30 5346 C 521.81 3.21858 1.95152 0
M  V30 5347 C 520.957 2.65155 0.811685 0
M  V30 5348 H 523.908 1.587 -0.00307894 0
M  V30 5349 H 523.929 3.02666 2.30594 0
M  V30 5350 H 523.441 3.82369 0.664475 0
M  V30 5351 H 521.542 2.51167 2.7522 0
M  V30 5352 H 521.655 4.29073 2.1315 0
M  V30 5353 H 520.019 2.23635 1.21899 0
M  V30 5354 H 520.802 3.43261 0.0516987 0
M  V30 5355 N 523.247 -0.488276 1.49845 0
M  V30 5356 C 524.487 -1.2516 1.61599 0
M  V30 5357 C 524.851 -1.89615 0.301706 0
M  V30 5358 O 526.052 -2.67182 0.29453 0
M  V30 5359 C 524.323 -2.2805 2.75187 0
M  V30 5360 S 525.882 -3.13552 3.0697 0
M  V30 5361 H 522.7 -0.425178 0.569864 0
M  V30 5362 H 525.302 -0.551545 1.87559 0
M  V30 5363 H 524.006 -1.7925 3.69185 0
M  V30 5364 H 523.537 -3.02708 2.5126 0
M  V30 5365 H 525.552 -4.28927 2.49471 0
M  V30 5366 N 524.725 -1.39134 -0.740242 0
M  V30 5367 C 525.971 -1.37278 -1.50088 0
M  V30 5368 C 526.326 0.0329967 -1.92372 0
M  V30 5369 O 525.619 0.998447 -1.63529 0
M  V30 5370 C 525.813 -2.27457 -2.75678 0
M  V30 5371 C 525.642 -3.76662 -2.45674 0
M  V30 5372 C 524.412 -4.45617 -2.38229 0
M  V30 5373 C 526.61 -4.6877 -2.11563 0
M  V30 5374 N 524.592 -5.80187 -2.00641 0
M  V30 5375 C 525.963 -5.91951 -1.84376 0
M  V30 5376 C 528.018 -4.56843 -1.97987 0
M  V30 5377 C 526.721 -7.04538 -1.4498 0
M  V30 5378 C 528.747 -5.69347 -1.59994 0
M  V30 5379 C 528.109 -6.91597 -1.33687 0
M  V30 5380 H 524.208 -0.557611 -0.548265 0
M  V30 5381 H 526.792 -1.74638 -0.860784 0
M  V30 5382 H 524.963 -1.92263 -3.37475 0
M  V30 5383 H 526.695 -2.16631 -3.41838 0
M  V30 5384 H 523.45 -3.98993 -2.5515 0
M  V30 5385 H 523.874 -6.51387 -1.84454 0
M  V30 5386 H 528.516 -3.62868 -2.16995 0
M  V30 5387 H 526.234 -7.98419 -1.24712 0
M  V30 5388 H 529.82 -5.62104 -1.50102 0
M  V30 5389 H 528.7 -7.77176 -1.04728 0
M  V30 5390 N 526.204 0.969867 -1.24223 0
M  V30 5391 C 527.45 1.7151 -1.08223 0
M  V30 5392 C 527.783 1.90478 0.37838 0
M  V30 5393 O 527.058 1.4647 1.27971 0
M  V30 5394 C 527.341 3.10714 -1.82013 0
M  V30 5395 C 527.194 2.9925 -3.35811 0
M  V30 5396 C 528.513 4.10332 -1.59108 0
M  V30 5397 H 525.632 0.622499 -0.394543 0
M  V30 5398 H 528.274 1.1284 -1.52863 0
M  V30 5399 H 526.424 3.608 -1.44068 0
M  V30 5400 H 528.096 2.56608 -3.83341 0
M  V30 5401 H 526.339 2.35512 -3.64303 0
M  V30 5402 H 527.01 3.97857 -3.82641 0
M  V30 5403 H 529.486 3.69097 -1.92111 0
M  V30 5404 H 528.362 5.05804 -2.13198 0
M  V30 5405 H 528.623 4.38926 -0.528832 0
M  V30 5406 N 527.682 1.05563 1.17022 0
M  V30 5407 C 528.612 0.681026 2.23348 0
M  V30 5408 C 529.593 -0.322983 1.67005 0
M  V30 5409 O 530.778 -0.199746 1.9317 0
M  V30 5410 C 527.908 0.0589053 3.4725 0
M  V30 5411 C 526.862 0.988082 4.16438 0
M  V30 5412 C 526.188 0.229646 5.34207 0
M  V30 5413 C 527.488 2.31388 4.68249 0
M  V30 5414 H 529.182 1.56993 2.54938 0
M  V30 5415 H 526.728 0.756302 1.2254 0
M  V30 5416 H 528.681 -0.214982 4.20851 0
M  V30 5417 H 527.405 -0.864968 3.14938 0
M  V30 5418 H 526.064 1.24659 3.44754 0
M  V30 5419 H 525.712 -0.697111 4.98146 0
M  V30 5420 H 525.412 0.848815 5.81437 0
M  V30 5421 H 526.936 -0.0368694 6.10589 0
M  V30 5422 H 528.35 2.09964 5.33468 0
M  V30 5423 H 526.747 2.88736 5.26072 0
M  V30 5424 H 527.817 2.94982 3.84855 0
M  V30 5425 N 529.16 -1.33526 0.837174 0
M  V30 5426 C 530.388 -2.02047 0.445494 0
M  V30 5427 C 530.803 -1.62995 -0.952788 0
M  V30 5428 O 530.16 -0.842447 -1.61892 0
M  V30 5429 C 530.211 -3.57221 0.554577 0
M  V30 5430 O 529.932 -3.94863 1.89776 0
M  V30 5431 C 531.433 -4.43012 0.159634 0
M  V30 5432 H 528.653 -0.647221 0.177048 0
M  V30 5433 H 531.197 -1.70492 1.12928 0
M  V30 5434 H 529.352 -3.87315 -0.0812781 0
M  V30 5435 H 529.766 -4.89569 1.88208 0
M  V30 5436 H 531.24 -5.51253 0.28701 0
M  V30 5437 H 531.717 -4.29916 -0.898289 0
M  V30 5438 H 532.323 -4.18274 0.769855 0
M  V30 5439 N 530.638 -0.59345 -1.46 0
M  V30 5440 C 531.601 0.123538 -2.28867 0
M  V30 5441 C 532.601 0.808628 -1.38989 0
M  V30 5442 O 533.791 0.658945 -1.61256 0
M  V30 5443 C 530.923 1.1847 -3.19653 0
M  V30 5444 H 532.116 -0.604843 -2.93737 0
M  V30 5445 H 529.669 -0.351875 -1.52288 0
M  V30 5446 H 530.404 1.94431 -2.59552 0
M  V30 5447 H 530.189 0.69783 -3.8584 0
M  V30 5448 H 531.679 1.68726 -3.81997 0
M  V30 5449 N 532.116 1.54067 -0.331816 0
M  V30 5450 C 533.079 2.23275 0.517768 0
M  V30 5451 C 534.079 1.22897 1.03697 0
M  V30 5452 O 535.269 1.47419 0.928084 0
M  V30 5453 C 532.401 2.94326 1.72004 0
M  V30 5454 H 533.594 2.99773 -0.0873507 0
M  V30 5455 H 531.147 1.56079 -0.0830042 0
M  V30 5456 H 531.882 2.21986 2.36417 0
M  V30 5457 H 531.667 3.67941 1.35507 0
M  V30 5458 H 533.157 3.47031 2.32291 0
M  V30 5459 N 533.594 0.0601682 1.57485 0
M  V30 5460 C 534.544 -0.920969 2.08572 0
M  V30 5461 C 535.528 -1.26617 0.992827 0
M  V30 5462 O 536.72 -1.24708 1.25606 0
M  V30 5463 C 533.849 -2.19267 2.64153 0
M  V30 5464 C 532.935 -1.87447 3.80427 0
M  V30 5465 N 533.326 -1.26025 4.89848 0
M  V30 5466 C 531.624 -2.17265 3.89502 0
M  V30 5467 C 532.325 -1.12036 5.70809 0
M  V30 5468 N 531.301 -1.62624 5.18705 0
M  V30 5469 H 535.103 -0.441561 2.90564 0
M  V30 5470 H 532.617 -0.144043 1.6176 0
M  V30 5471 H 534.614 -2.90462 2.99061 0
M  V30 5472 H 533.274 -2.67806 1.83603 0
M  V30 5473 H 534.285 -0.931336 5.09457 0
M  V30 5474 H 530.962 -2.68262 3.19909 0
M  V30 5475 H 532.352 -0.642783 6.68818 0
M  V30 5476 N 535.072 -1.5615 -0.213296 0
M  V30 5477 C 536.312 -1.81325 -0.943435 0
M  V30 5478 C 536.676 -0.634934 -1.81198 0
M  V30 5479 O 537.877 -0.766166 -2.5765 0
M  V30 5480 C 536.148 -3.11437 -1.75334 0
M  V30 5481 S 537.707 -3.57955 -2.53799 0
M  V30 5482 H 534.525 -0.636538 -0.316766 0
M  V30 5483 H 537.127 -1.94387 -0.208313 0
M  V30 5484 H 535.831 -3.95228 -1.10556 0
M  V30 5485 H 535.362 -3.01204 -2.53061 0
M  V30 5486 H 537.377 -3.21947 -3.77577 0
M  V30 5487 N 536.55 0.480323 -1.50102 0
M  V30 5488 C 537.778 1.25657 -1.64371 0
M  V30 5489 C 538.193 1.86011 -0.323316 0
M  V30 5490 O 537.55 1.68803 0.693682 0
M  V30 5491 C 537.601 2.37197 -2.728 0
M  V30 5492 O 537.322 1.7932 -3.9972 0
M  V30 5493 C 538.823 3.2823 -2.9796 0
M  V30 5494 H 536.043 0.380369 -0.552775 0
M  V30 5495 H 538.587 0.574379 -1.96268 0
M  V30 5496 H 536.742 3.01208 -2.43623 0
M  V30 5497 H 537.156 2.52701 -4.59611 0
M  V30 5498 H 538.63 4.02725 -3.77513 0
M  V30 5499 H 539.107 3.86462 -2.08671 0
M  V30 5500 H 539.713 2.69964 -3.28633 0
M  V30 5501 N 538.028 1.39524 0.732853 0
M  V30 5502 C 539.305 1.27373 1.48444 0
M  V30 5503 C 539.685 -0.115725 2.10783 0
M  V30 5504 O 539.033 -1.12713 1.98766 0
M  V30 5505 C 539.243 2.39966 2.53412 0
M  V30 5506 C 540.591 2.79384 3.19733 0
M  V30 5507 O 541.615 2.39431 2.63725 0
M  V30 5508 O 540.474 3.48353 4.21085 0
M  V30 5509 H 537.568 0.499272 0.659285 0
M  V30 5510 H 540.114 1.51403 0.766496 0
M  V30 5511 H 538.886 3.32845 2.05742 0
M  V30 5512 H 538.509 2.17612 3.32762 0
M  V30 5513 N 539.506 -0.963266 1.24736 0
M  V30 5514 C 540.755 -1.70115 1.08369 0
M  V30 5515 C 541.068 -1.91939 -0.376688 0
M  V30 5516 O 542.274 -2.6334 -0.660624 0
M  V30 5517 C 540.73 -3.06218 1.89099 0
M  V30 5518 C 540.338 -2.92221 3.39574 0
M  V30 5519 C 542.082 -3.83848 1.81275 0
M  V30 5520 C 539.989 -4.23662 4.12631 0
M  V30 5521 H 538.919 -0.637944 0.401924 0
M  V30 5522 H 541.57 -1.07304 1.48856 0
M  V30 5523 H 539.952 -3.69884 1.41429 0
M  V30 5524 H 541.126 -2.37541 3.94856 0
M  V30 5525 H 539.441 -2.28054 3.48397 0
M  V30 5526 H 542.038 -4.81188 2.33158 0
M  V30 5527 H 542.381 -4.08949 0.778895 0
M  V30 5528 H 542.914 -3.26918 2.26649 0
M  V30 5529 H 539.653 -4.03753 5.16395 0
M  V30 5530 H 539.173 -4.78141 3.62135 0
M  V30 5531 H 540.852 -4.92256 4.19873 0
M  V30 5532 N 540.985 -1.06182 -1.16461 0
M  V30 5533 C 541.932 -0.671613 -2.20812 0
M  V30 5534 C 542.902 0.331186 -1.62765 0
M  V30 5535 O 544.087 0.22033 -1.89524 0
M  V30 5536 C 541.227 -0.063029 -3.45042 0
M  V30 5537 C 540.34 -1.11587 -4.1734 0
M  V30 5538 C 539.475 -0.473546 -5.29085 0
M  V30 5539 C 538.514 -1.51 -5.93182 0
M  V30 5540 N 537.651 -0.891118 -6.96422 0
M  V30 5541 H 542.491 -1.56589 -2.53542 0
M  V30 5542 H 540.028 -0.782951 -1.24532 0
M  V30 5543 H 541.986 0.307344 -4.16066 0
M  V30 5544 H 540.616 0.794663 -3.12866 0
M  V30 5545 H 539.668 -1.60396 -3.44931 0
M  V30 5546 H 540.98 -1.90221 -4.61104 0
M  V30 5547 H 540.134 -0.0501432 -6.06679 0
M  V30 5548 H 538.873 0.344687 -4.8648 0
M  V30 5549 H 537.878 -1.94331 -5.14311 0
M  V30 5550 H 539.103 -2.33031 -6.37866 0
M  V30 5551 H 537.049 -0.0935753 -6.55933 0
M  V30 5552 H 536.966 -1.61486 -7.38551 0
M  V30 5553 H 538.234 -0.492822 -7.77941 0
M  V30 5554 N 542.463 1.3308 -0.844243 0
M  V30 5555 C 543.691 2.01808 -0.456203 0
M  V30 5556 C 544.106 1.63498 0.944131 0
M  V30 5557 O 543.463 0.85102 1.61443 0
M  V30 5558 C 543.514 3.56922 -0.573513 0
M  V30 5559 O 543.235 3.93851 -1.91868 0
M  V30 5560 C 544.736 4.42922 -0.183125 0
M  V30 5561 H 541.956 0.646273 -0.180477 0
M  V30 5562 H 544.5 1.69891 -1.1383 0
M  V30 5563 H 542.655 3.87352 0.0607367 0
M  V30 5564 H 543.069 4.88564 -1.90802 0
M  V30 5565 H 544.543 5.51093 -0.316241 0
M  V30 5566 H 545.02 4.30386 0.875477 0
M  V30 5567 H 545.626 4.1786 -0.792027 0
M  V30 5568 N 543.941 0.601185 1.45683 0
M  V30 5569 C 545.357 0.264315 1.57396 0
M  V30 5570 C 545.557 -1.23324 1.59353 0
M  V30 5571 O 544.613 -2.01594 1.52039 0
M  V30 5572 C 545.926 0.929839 2.85962 0
M  V30 5573 C 547.474 0.905156 2.99626 0
M  V30 5574 C 547.949 1.55057 4.30954 0
M  V30 5575 N 549.44 1.51576 4.37697 0
M  V30 5576 C 550.175 1.98436 5.37969 0
M  V30 5577 N 549.671 2.53352 6.44813 0
M  V30 5578 N 551.464 1.89242 5.29286 0
M  V30 5579 H 543.615 1.57363 1.42656 0
M  V30 5580 H 545.878 0.658831 0.681649 0
M  V30 5581 H 545.584 1.98404 2.90394 0
M  V30 5582 H 545.458 0.449224 3.74515 0
M  V30 5583 H 547.845 -0.14048 2.94765 0
M  V30 5584 H 547.926 1.42397 2.12501 0
M  V30 5585 H 547.57 2.5955 4.36573 0
M  V30 5586 H 547.5 1.00682 5.16886 0
M  V30 5587 H 549.991 1.11452 3.61091 0
M  V30 5588 H 550.304 2.86918 7.17564 0
M  V30 5589 H 548.649 2.57388 6.45582 0
M  V30 5590 H 551.84 1.46083 4.44722 0
M  V30 5591 H 552.013 2.26075 6.07284 0
M  V30 5592 N 545.419 -1.53889 0.339982 0
M  V30 5593 C 546.369 -2.2165 -0.534354 0
M  V30 5594 C 547.353 -1.20266 -1.06887 0
M  V30 5595 O 548.545 -1.45827 -1.00316 0
M  V30 5596 C 545.674 -2.99014 -1.68659 0
M  V30 5597 C 544.76 -4.07751 -1.16618 0
M  V30 5598 N 545.151 -5.04469 -0.366717 0
M  V30 5599 C 543.449 -4.21998 -1.4434 0
M  V30 5600 C 544.15 -5.81638 -0.0847275 0
M  V30 5601 N 543.126 -5.39388 -0.675391 0
M  V30 5602 H 546.928 -2.93781 0.0835562 0
M  V30 5603 H 544.442 -1.61736 0.146665 0
M  V30 5604 H 546.439 -3.46056 -2.32489 0
M  V30 5605 H 545.099 -2.28408 -2.30781 0
M  V30 5606 H 546.11 -5.17899 -0.00811038 0
M  V30 5607 H 542.787 -3.62612 -2.06928 0
M  V30 5608 H 544.177 -6.69563 0.559943 0
M  V30 5609 N 546.897 -0.0685191 -1.57451 0
M  V30 5610 C 547.827 0.89747 -2.15564 0
M  V30 5611 C 548.808 1.31266 -1.08181 0
M  V30 5612 O 549.993 1.38429 -1.36202 0
M  V30 5613 C 547.123 2.16623 -2.71463 0
M  V30 5614 C 546.077 1.89054 -3.83982 0
M  V30 5615 C 545.403 3.22532 -4.26471 0
M  V30 5616 C 546.703 1.1984 -5.08366 0
M  V30 5617 H 548.397 0.413373 -2.96533 0
M  V30 5618 H 545.943 0.197391 -1.42641 0
M  V30 5619 H 547.896 2.84614 -3.10761 0
M  V30 5620 H 546.62 2.67269 -1.8771 0
M  V30 5621 H 545.279 1.23469 -3.45183 0
M  V30 5622 H 544.927 3.71013 -3.39644 0
M  V30 5623 H 544.627 3.04879 -5.02317 0
M  V30 5624 H 546.151 3.91727 -4.68383 0
M  V30 5625 H 547.565 1.77896 -5.45001 0
M  V30 5626 H 545.962 1.12456 -5.89469 0
M  V30 5627 H 547.032 0.176996 -4.84577 0
M  V30 5628 N 548.375 1.56261 0.205012 0
M  V30 5629 C 549.322 1.93754 1.25411 0
M  V30 5630 C 550.292 0.796826 1.45739 0
M  V30 5631 O 551.477 1.05414 1.59036 0
M  V30 5632 C 548.617 2.27383 2.59598 0
M  V30 5633 C 547.73 3.5447 2.46931 0
M  V30 5634 C 546.865 3.77468 3.73753 0
M  V30 5635 C 545.904 4.98014 3.55877 0
M  V30 5636 N 545.041 5.17316 4.74688 0
M  V30 5637 H 549.881 2.83203 0.92737 0
M  V30 5638 H 547.418 1.40158 0.446574 0
M  V30 5639 H 549.376 2.44895 3.37761 0
M  V30 5640 H 548.006 1.41088 2.90335 0
M  V30 5641 H 547.058 3.45061 1.60116 0
M  V30 5642 H 548.37 4.42789 2.29651 0
M  V30 5643 H 547.524 3.95165 4.60358 0
M  V30 5644 H 546.263 2.87461 3.93976 0
M  V30 5645 H 545.268 4.80249 2.67657 0
M  V30 5646 H 546.493 5.8952 3.37109 0
M  V30 5647 H 544.439 4.30255 4.95194 0
M  V30 5648 H 544.356 5.99796 4.60197 0
M  V30 5649 H 545.624 5.39463 5.62672 0
M  V30 5650 N 549.853 -0.472356 1.50355 0
M  V30 5651 C 551.099 -1.22634 1.6152 0
M  V30 5652 C 551.432 -1.91645 0.313995 0
M  V30 5653 O 550.707 -1.82059 -0.684446 0
M  V30 5654 C 550.99 -2.27099 2.7946 0
M  V30 5655 C 550.843 -1.62402 4.19459 0
M  V30 5656 C 552.162 -3.28421 2.92964 0
M  V30 5657 H 549.281 -0.444494 0.587873 0
M  V30 5658 H 551.923 -0.520321 1.82737 0
M  V30 5659 H 550.073 -2.87314 2.61501 0
M  V30 5660 H 551.745 -1.05793 4.49005 0
M  V30 5661 H 549.988 -0.927184 4.23776 0
M  V30 5662 H 550.659 -2.38309 4.97909 0
M  V30 5663 H 553.135 -2.78227 3.09401 0
M  V30 5664 H 552.011 -3.98845 3.77113 0
M  V30 5665 H 552.272 -3.92467 2.03525 0
M  V30 5666 N 551.331 -1.39911 -0.725443 0
M  V30 5667 C 552.577 -1.37858 -1.48738 0
M  V30 5668 C 552.91 0.0224187 -1.94187 0
M  V30 5669 O 552.185 0.989204 -1.67466 0
M  V30 5670 C 552.468 -2.3594 -2.72038 0
M  V30 5671 C 552.321 -3.85023 -2.32546 0
M  V30 5672 C 553.64 -2.31704 -3.74167 0
M  V30 5673 H 550.759 -0.502074 -0.539528 0
M  V30 5674 H 553.401 -1.70974 -0.828728 0
M  V30 5675 H 551.551 -2.0783 -3.28236 0
M  V30 5676 H 553.223 -4.2392 -1.81905 0
M  V30 5677 H 551.466 -4.01334 -1.64661 0
M  V30 5678 H 552.137 -4.49152 -3.20884 0
M  V30 5679 H 554.613 -2.5658 -3.27576 0
M  V30 5680 H 553.489 -3.02395 -4.58092 0
M  V30 5681 H 553.75 -1.3253 -4.21768 0
M  V30 5682 N 552.809 0.956637 -1.25245 0
M  V30 5683 C 553.739 2.07058 -1.07931 0
M  V30 5684 C 554.72 1.70096 0.0110361 0
M  V30 5685 O 555.905 1.93555 -0.158121 0
M  V30 5686 C 553.035 3.40272 -0.695124 0
M  V30 5687 C 551.989 3.91235 -1.73549 0
M  V30 5688 C 551.315 5.20921 -1.20604 0
M  V30 5689 C 552.615 4.17837 -3.13385 0
M  V30 5690 H 554.309 2.218 -2.01109 0
M  V30 5691 H 551.855 1.06581 -0.968326 0
M  V30 5692 H 553.808 4.1765 -0.560949 0
M  V30 5693 H 552.532 3.25462 0.272355 0
M  V30 5694 H 551.191 3.16025 -1.85807 0
M  V30 5695 H 550.839 5.02479 -0.228846 0
M  V30 5696 H 550.539 5.55987 -1.90136 0
M  V30 5697 H 552.063 6.00897 -1.08421 0
M  V30 5698 H 553.477 4.8588 -3.04292 0
M  V30 5699 H 551.874 4.64154 -3.80369 0
M  V30 5700 H 552.944 3.2419 -3.60595 0
M  V30 5701 N 554.287 1.06798 1.15896 0
M  V30 5702 C 555.535 0.786211 1.8618 0
M  V30 5703 C 555.856 -0.689547 1.82401 0
M  V30 5704 O 555.126 -1.49913 1.26107 0
M  V30 5705 H 553.706 0.287843 0.689315 0
M  V30 5706 H 556.368 1.35055 1.40521 0
M  V30 5707 H 555.464 1.1157 2.91477 0
M  V30 5708 N 555.766 -1.3263 0.851289 0
M  V30 5709 C 557.043 -1.91982 0.374448 0
M  V30 5710 C 557.423 -1.77568 -1.14161 0
M  V30 5711 O 556.771 -1.1717 -1.96172 0
M  V30 5712 C 556.981 -3.38862 0.835088 0
M  V30 5713 C 558.329 -4.15999 0.850309 0
M  V30 5714 O 559.353 -3.47566 0.779505 0
M  V30 5715 O 558.212 -5.38189 0.949481 0
M  V30 5716 H 555.306 -0.819846 0.10854 0
M  V30 5717 H 557.852 -1.41422 0.937966 0
M  V30 5718 H 556.624 -3.43281 1.87814 0
M  V30 5719 H 556.247 -3.96821 0.248833 0
M  V30 5720 N 557.244 -0.608902 -1.45362 0
M  V30 5721 C 558.176 0.147318 -2.28726 0
M  V30 5722 C 559.189 0.830468 -1.40025 0
M  V30 5723 O 560.378 0.695636 -1.64387 0
M  V30 5724 C 557.478 1.22968 -3.15804 0
M  V30 5725 C 556.651 0.633391 -4.3279 0
M  V30 5726 C 555.71 1.60682 -5.01067 0
M  V30 5727 O 554.736 1.13261 -5.57818 0
M  V30 5728 N 555.938 2.94123 -5.00472 0
M  V30 5729 H 558.703 -0.568014 -2.94268 0
M  V30 5730 H 556.264 -0.448479 -1.55564 0
M  V30 5731 H 558.256 1.88072 -3.58345 0
M  V30 5732 H 556.826 1.84752 -2.52162 0
M  V30 5733 H 556.046 -0.195762 -3.93714 0
M  V30 5734 H 557.334 0.215255 -5.08344 0
M  V30 5735 H 556.732 3.3525 -4.55657 0
M  V30 5736 H 555.289 3.54646 -5.46872 0
M  V30 5737 N 558.722 1.53707 -0.348139 0
M  V30 5738 C 559.999 1.93247 0.302475 0
M  V30 5739 C 560.379 1.28012 1.67857 0
M  V30 5740 O 559.727 0.43274 2.24365 0
M  V30 5741 C 559.937 3.47031 0.370159 0
M  V30 5742 C 561.285 4.20066 0.61882 0
M  V30 5743 O 562.309 3.53319 0.452087 0
M  V30 5744 O 561.168 5.38318 0.94215 0
M  V30 5745 H 558.262 0.807736 0.177458 0
M  V30 5746 H 560.808 1.64927 -0.399651 0
M  V30 5747 H 559.58 3.86745 -0.59534 0
M  V30 5748 H 559.203 3.81532 1.11888 0
M  V30 5749 N 560.2 0.0768682 1.57412 0
M  V30 5750 C 561.13 -0.886026 2.16037 0
M  V30 5751 C 562.111 -1.30691 1.08876 0
M  V30 5752 O 563.296 -1.37705 1.36934 0
M  V30 5753 C 560.426 -2.1518 2.72608 0
M  V30 5754 C 559.38 -1.87015 3.8498 0
M  V30 5755 C 558.706 -3.20266 4.28175 0
M  V30 5756 C 560.006 -1.17143 5.08994 0
M  V30 5757 H 561.7 -0.397642 2.96748 0
M  V30 5758 H 559.246 -0.189823 1.42743 0
M  V30 5759 H 561.199 -2.82962 3.12266 0
M  V30 5760 H 559.923 -2.66269 1.89125 0
M  V30 5761 H 558.582 -1.21636 3.45833 0
M  V30 5762 H 558.23 -3.69207 3.41607 0
M  V30 5763 H 557.93 -3.0221 5.03927 0
M  V30 5764 H 559.454 -3.89237 4.70454 0
M  V30 5765 H 560.868 -1.75003 5.45937 0
M  V30 5766 H 559.265 -1.09328 5.90057 0
M  V30 5767 H 560.335 -0.151295 4.84664 0
M  V30 5768 N 561.678 -1.56367 -0.196722 0
M  V30 5769 C 562.625 -1.94417 -1.24382 0
M  V30 5770 C 563.595 -0.804543 -1.45315 0
M  V30 5771 O 564.78 -1.06256 -1.58475 0
M  V30 5772 C 561.92 -2.28757 -2.58388 0
M  V30 5773 C 561.033 -3.55775 -2.45047 0
M  V30 5774 C 560.168 -3.79445 -3.71746 0
M  V30 5775 C 559.207 -4.99894 -3.53231 0
M  V30 5776 N 558.344 -5.19826 -4.71938 0
M  V30 5777 H 563.184 -2.83691 -0.912338 0
M  V30 5778 H 560.721 -1.40392 -0.439135 0
M  V30 5779 H 562.679 -2.46682 -3.36457 0
M  V30 5780 H 561.309 -1.42625 -2.89582 0
M  V30 5781 H 560.361 -3.45905 -1.58284 0
M  V30 5782 H 561.673 -4.44 -2.27299 0
M  V30 5783 H 560.827 -3.97601 -4.58256 0
M  V30 5784 H 559.566 -2.89546 -3.92446 0
M  V30 5785 H 558.571 -4.81662 -2.65107 0
M  V30 5786 H 559.796 -5.913 -3.33978 0
M  V30 5787 H 557.742 -4.32875 -4.92905 0
M  V30 5788 H 557.659 -6.02228 -4.57009 0
M  V30 5789 H 558.927 -5.42439 -5.59803 0
M  V30 5790 N 563.156 0.464375 -1.50603 0
M  V30 5791 C 564.103 1.56152 -1.69956 0
M  V30 5792 C 565.073 1.57046 -0.54091 0
M  V30 5793 O 566.258 1.74473 -0.772258 0
M  V30 5794 C 563.398 2.94079 -1.80586 0
M  V30 5795 C 562.511 3.02923 -3.07996 0
M  V30 5796 C 561.646 4.31806 -3.09382 0
M  V30 5797 C 560.685 4.34417 -4.31218 0
M  V30 5798 N 559.822 5.54782 -4.30304 0
M  V30 5799 H 564.662 1.38955 -2.6362 0
M  V30 5800 H 562.199 0.675482 -1.30674 0
M  V30 5801 H 564.157 3.74073 -1.8473 0
M  V30 5802 H 562.787 3.09896 -0.903556 0
M  V30 5803 H 561.839 2.1576 -3.13292 0
M  V30 5804 H 563.151 3.00712 -3.97962 0
M  V30 5805 H 562.305 5.20153 -3.12292 0
M  V30 5806 H 561.044 4.36636 -2.17257 0
M  V30 5807 H 560.049 3.44467 -4.28512 0
M  V30 5808 H 561.274 4.31273 -5.24576 0
M  V30 5809 H 559.22 5.60384 -3.41037 0
M  V30 5810 H 559.137 5.54339 -5.14047 0
M  V30 5811 H 560.405 6.45235 -4.3737 0
M  V30 5812 N 564.634 1.40294 0.718013 0
M  V30 5813 C 565.544 1.42678 1.86226 0
M  V30 5814 C 566.56 0.319655 1.71039 0
M  V30 5815 O 567.736 0.563852 1.93346 0
M  V30 5816 C 564.801 1.2852 3.21999 0
M  V30 5817 C 563.862 2.49354 3.49458 0
M  V30 5818 C 563.095 2.35863 4.78753 0
M  V30 5819 O 563.318 1.37114 5.53675 0
M  V30 5820 O 562.252 3.25189 5.06494 0
M  V30 5821 H 566.078 2.39167 1.87171 0
M  V30 5822 H 563.663 1.2159 0.868112 0
M  V30 5823 H 565.545 1.22824 4.03103 0
M  V30 5824 H 564.22 0.351359 3.21787 0
M  V30 5825 H 563.127 2.60628 2.68373 0
M  V30 5826 H 564.46 3.41491 3.54464 0
M  V30 5827 N 566.112 -0.949982 1.2575 0
M  V30 5828 C 567.022 -2.08109 1.08295 0
M  V30 5829 C 568.038 -1.7399 0.0188181 0
M  V30 5830 O 569.214 -2.00187 0.220724 0
M  V30 5831 C 566.279 -3.39383 0.708534 0
M  V30 5832 C 565.34 -3.8734 1.85111 0
M  V30 5833 C 564.573 -5.12349 1.49447 0
M  V30 5834 O 564.796 -5.6905 0.392212 0
M  V30 5835 O 563.73 -5.5513 2.32624 0
M  V30 5836 H 567.556 -2.25738 2.03165 0
M  V30 5837 H 565.141 -1.06545 1.04731 0
M  V30 5838 H 567.023 -4.18277 0.512061 0
M  V30 5839 H 565.698 -3.23013 -0.210854 0
M  V30 5840 H 564.605 -3.09429 2.10248 0
M  V30 5841 H 565.938 -4.08216 2.74991 0
M  V30 5842 N 567.59 -1.07411 -1.15328 0
M  V30 5843 C 568.837 -0.797649 -1.86128 0
M  V30 5844 C 569.165 0.676298 -1.82364 0
M  V30 5845 O 568.42 1.51223 -1.24218 0
M  V30 5846 C 568.719 -1.25191 -3.34757 0
M  V30 5847 C 568.385 -2.73191 -3.58716 0
M  V30 5848 C 567.047 -3.13616 -3.64964 0
M  V30 5849 C 569.399 -3.68718 -3.6837 0
M  V30 5850 C 566.727 -4.48383 -3.78377 0
M  V30 5851 C 569.079 -5.03248 -3.83306 0
M  V30 5852 C 567.743 -5.43293 -3.878 0
M  V30 5853 H 567.013 -0.29188 -0.681092 0
M  V30 5854 H 569.66 -1.34524 -1.36292 0
M  V30 5855 H 567.965 -0.623712 -3.86804 0
M  V30 5856 H 569.662 -1.01489 -3.87945 0
M  V30 5857 H 566.252 -2.40898 -3.54494 0
M  V30 5858 H 570.436 -3.38614 -3.62842 0
M  V30 5859 H 565.692 -4.78877 -3.80114 0
M  V30 5860 H 569.866 -5.77142 -3.89718 0
M  V30 5861 H 567.493 -6.47721 -3.97946 0
M  V30 5862 N 569.068 1.32177 -0.85831 0
M  V30 5863 C 570.018 2.26307 -0.277307 0
M  V30 5864 C 571.002 1.50123 0.578946 0
M  V30 5865 O 572.194 1.71754 0.427731 0
M  V30 5866 C 569.323 3.39181 0.530232 0
M  V30 5867 C 568.409 4.22746 -0.338613 0
M  V30 5868 N 568.8 4.85265 -1.4266 0
M  V30 5869 C 567.098 4.45813 -0.129 0
M  V30 5870 C 567.799 5.47634 -1.96142 0
M  V30 5871 N 566.775 5.28794 -1.26007 0
M  V30 5872 H 570.577 2.72173 -1.10902 0
M  V30 5873 H 568.091 1.46308 -0.704816 0
M  V30 5874 H 570.088 4.05628 0.962904 0
M  V30 5875 H 568.748 2.9486 1.35969 0
M  V30 5876 H 569.759 4.85259 -1.80953 0
M  V30 5877 H 566.436 4.12163 0.665451 0
M  V30 5878 H 567.826 6.0735 -2.8736 0
M  V30 5879 N 570.547 0.616602 1.45037 0
M  V30 5880 C 571.457 -0.0985401 2.34393 0
M  V30 5881 C 572.473 -0.850971 1.51771 0
M  V30 5882 O 573.649 -0.806521 1.84546 0
M  V30 5883 C 570.714 -1.07748 3.29532 0
M  V30 5884 C 569.775 -0.326022 4.2806 0
M  V30 5885 C 569.008 -1.25833 5.18654 0
M  V30 5886 O 569.231 -2.49652 5.12864 0
M  V30 5887 O 568.165 -0.750512 5.97203 0
M  V30 5888 H 571.991 0.636016 2.96966 0
M  V30 5889 H 569.576 0.376832 1.44569 0
M  V30 5890 H 571.458 -1.64107 3.88133 0
M  V30 5891 H 570.133 -1.79291 2.69512 0
M  V30 5892 H 569.04 0.280253 3.73049 0
M  V30 5893 H 570.373 0.349091 4.9096 0
M  V30 5894 N 572.025 -1.5352 0.356285 0
M  V30 5895 C 572.957 -2.23009 -0.529127 0
M  V30 5896 C 573.97 -1.241 -1.05371 0
M  V30 5897 O 575.159 -1.50379 -0.961679 0
M  V30 5898 C 572.259 -2.90685 -1.74229 0
M  V30 5899 C 571.432 -4.16019 -1.35081 0
M  V30 5900 C 570.491 -4.66989 -2.42502 0
M  V30 5901 O 569.517 -5.30895 -2.05279 0
M  V30 5902 N 570.719 -4.44006 -3.7395 0
M  V30 5903 H 573.484 -2.99627 0.0660501 0
M  V30 5904 H 571.045 -1.60885 0.181014 0
M  V30 5905 H 573.037 -3.21695 -2.4555 0
M  V30 5906 H 571.607 -2.17575 -2.24454 0
M  V30 5907 H 570.827 -3.91414 -0.467833 0
M  V30 5908 H 572.115 -4.9752 -1.06542 0
M  V30 5909 H 571.513 -3.92924 -4.06973 0
M  V30 5910 H 570.07 -4.7959 -4.41403 0
M  V30 5911 N 573.503 -0.0852151 -1.57369 0
M  V30 5912 C 574.728 0.592872 -1.98746 0
M  V30 5913 C 575.153 1.61538 -0.963689 0
M  V30 5914 O 574.511 1.81168 0.069071 0
M  V30 5915 C 574.559 1.22599 -3.39119 0
M  V30 5916 O 573.663 2.34185 -3.39457 0
M  V30 5917 H 573.004 0.151314 -0.646529 0
M  V30 5918 H 575.534 -0.163703 -2.03944 0
M  V30 5919 H 575.544 1.56965 -3.76598 0
M  V30 5920 H 574.219 0.476831 -4.13158 0
M  V30 5921 H 572.796 2.01512 -3.13763 0
M  V30 5922 N 574.981 1.5647 0.188427 0
M  V30 5923 C 576.228 1.81013 0.907779 0
M  V30 5924 C 576.556 0.65953 1.82977 0
M  V30 5925 O 575.811 -0.354308 1.92466 0
M  V30 5926 C 576.11 3.11596 1.7505 0
M  V30 5927 C 575.776 4.40145 0.978922 0
M  V30 5928 C 574.438 4.75066 0.765912 0
M  V30 5929 C 576.79 5.19369 0.436498 0
M  V30 5930 C 574.118 5.867 -0.00089868 0
M  V30 5931 C 576.47 6.31805 -0.317136 0
M  V30 5932 C 575.134 6.65303 -0.541103 0
M  V30 5933 H 574.404 0.662373 0.33218 0
M  V30 5934 H 577.051 1.9071 0.173732 0
M  V30 5935 H 575.356 2.97165 2.55343 0
M  V30 5936 H 577.053 3.27793 2.30983 0
M  V30 5937 H 573.643 4.12745 1.15497 0
M  V30 5938 H 577.827 4.92799 0.588449 0
M  V30 5939 H 573.083 6.11122 -0.184329 0
M  V30 5940 H 577.257 6.92406 -0.744788 0
M  V30 5941 H 574.884 7.51646 -1.13718 0
M  V30 5942 N 576.459 -0.456382 1.50847 0
M  V30 5943 C 577.875 -0.791345 1.386 0
M  V30 5944 C 578.075 -1.9633 0.453498 0
M  V30 5945 O 577.131 -2.52308 -0.0984353 0
M  V30 5946 C 578.444 -1.08959 2.80265 0
M  V30 5947 C 579.992 -1.19517 2.89283 0
M  V30 5948 C 580.467 -1.52647 4.31814 0
M  V30 5949 N 581.958 -1.59609 4.34832 0
M  V30 5950 C 582.693 -1.86777 5.42127 0
M  V30 5951 N 582.189 -2.11866 6.59609 0
M  V30 5952 N 583.982 -1.88402 5.29586 0
M  V30 5953 H 576.133 0.315746 2.1004 0
M  V30 5954 H 578.396 0.0787916 0.94472 0
M  V30 5955 H 578.102 -0.301355 3.50407 0
M  V30 5956 H 577.976 -2.02211 3.18419 0
M  V30 5957 H 580.363 -1.97406 2.19351 0
M  V30 5958 H 580.444 -0.242111 2.54652 0
M  V30 5959 H 580.088 -0.752922 5.02288 0
M  V30 5960 H 580.018 -2.49127 4.63943 0
M  V30 5961 H 582.509 -1.42201 3.50125 0
M  V30 5962 H 582.822 -2.31912 7.37182 0
M  V30 5963 H 581.167 -2.09228 6.62758 0
M  V30 5964 H 584.358 -1.68307 4.36795 0
M  V30 5965 H 584.531 -2.09238 6.13289 0
M  V30 5966 N 577.937 -1.40673 -0.710563 0
M  V30 5967 C 579.183 -1.39428 -1.47267 0
M  V30 5968 C 579.516 0.00182129 -1.942 0
M  V30 5969 O 578.791 0.971387 -1.68506 0
M  V30 5970 C 579.074 -2.38812 -2.6952 0
M  V30 5971 C 578.927 -3.87467 -2.28449 0
M  V30 5972 C 580.246 -2.3566 -3.71689 0
M  V30 5973 H 577.365 -0.507768 -0.534173 0
M  V30 5974 H 580.007 -1.71843 -0.810547 0
M  V30 5975 H 578.157 -2.113 -3.26013 0
M  V30 5976 H 579.829 -4.25825 -1.77399 0
M  V30 5977 H 578.072 -4.03058 -1.60395 0
M  V30 5978 H 578.743 -4.5253 -3.16103 0
M  V30 5979 H 581.219 -2.6004 -3.24836 0
M  V30 5980 H 580.095 -3.07237 -4.54859 0
M  V30 5981 H 580.356 -1.36996 -4.20339 0
M  V30 5982 N 579.415 0.9433 -1.26252 0
M  V30 5983 C 580.325 2.07532 -1.09397 0
M  V30 5984 C 581.341 1.73977 -0.0280449 0
M  V30 5985 O 582.517 2.00067 -0.231337 0
M  V30 5986 C 579.582 3.39002 -0.726523 0
M  V30 5987 C 578.643 3.86353 -1.87163 0
M  V30 5988 C 577.876 5.11549 -1.52162 0
M  V30 5989 O 578.099 5.68834 -0.422385 0
M  V30 5990 O 577.033 5.53889 -2.35565 0
M  V30 5991 H 580.859 2.24658 -2.04359 0
M  V30 5992 H 578.444 1.05988 -1.05295 0
M  V30 5993 H 580.326 4.18 -0.534236 0
M  V30 5994 H 579.001 3.2312 0.193721 0
M  V30 5995 H 577.908 3.0831 -2.11886 0
M  V30 5996 H 579.241 4.06752 -2.77152 0
M  V30 5997 N 580.893 1.08022 1.14757 0
M  V30 5998 C 581.84 0.706657 2.19716 0
M  V30 5999 C 582.81 -0.30525 1.63271 0
M  V30 6000 O 583.995 -0.19015 1.8985 0
M  V30 6001 C 581.135 0.117914 3.44898 0
M  V30 6002 C 580.248 1.18212 4.15512 0
M  V30 6003 C 579.383 0.557659 5.28265 0
M  V30 6004 C 578.422 1.60418 5.90705 0
M  V30 6005 N 577.559 1.0018 6.94916 0
M  V30 6006 H 582.399 1.60603 2.51019 0
M  V30 6007 H 579.936 0.802664 1.23271 0
M  V30 6008 H 581.894 -0.241112 4.16503 0
M  V30 6009 H 580.524 -0.744788 3.1409 0
M  V30 6010 H 579.576 1.65863 3.42335 0
M  V30 6011 H 580.888 1.97533 4.5802 0
M  V30 6012 H 580.042 0.146654 6.06523 0
M  V30 6013 H 578.781 -0.267249 4.86967 0
M  V30 6014 H 577.786 2.02489 5.11154 0
M  V30 6015 H 579.011 2.43149 6.34078 0
M  V30 6016 H 576.957 0.197917 6.55701 0
M  V30 6017 H 576.874 1.73216 7.35889 0
M  V30 6018 H 578.142 0.616523 7.77058 0
M  V30 6019 N 582.371 -1.3172 0.865308 0
M  V30 6020 C 583.62 -1.96145 0.470098 0
M  V30 6021 C 583.933 -1.69182 -0.981674 0
M  V30 6022 O 585.139 -2.27431 -1.48281 0
M  V30 6023 C 583.595 -3.51129 0.789732 0
M  V30 6024 C 583.203 -3.86938 2.25795 0
M  V30 6025 C 584.947 -4.2197 0.462765 0
M  V30 6026 C 582.854 -5.35012 2.52024 0
M  V30 6027 H 581.784 -0.734105 0.172065 0
M  V30 6028 H 584.435 -1.49959 1.05757 0
M  V30 6029 H 582.817 -3.95781 0.131571 0
M  V30 6030 H 583.991 -3.5326 2.95879 0
M  V30 6031 H 582.306 -3.29149 2.55049 0
M  V30 6032 H 584.903 -5.30904 0.636019 0
M  V30 6033 H 585.246 -4.12005 -0.59645 0
M  V30 6034 H 585.779 -3.82936 1.07727 0
M  V30 6035 H 582.518 -5.50008 3.56611 0
M  V30 6036 H 582.038 -5.70058 1.8653 0
M  V30 6037 H 583.717 -6.0222 2.36515 0
M  V30 6038 N 583.85 -0.624285 -1.44708 0
M  V30 6039 C 585.096 -0.126051 -2.02107 0
M  V30 6040 C 585.425 1.2496 -1.49048 0
M  V30 6041 O 584.68 1.84163 -0.662005 0
M  V30 6042 C 584.979 -0.0546353 -3.57358 0
M  V30 6043 C 584.644 -1.36815 -4.29642 0
M  V30 6044 C 583.307 -1.72792 -4.49106 0
M  V30 6045 C 585.659 -2.23549 -4.70824 0
M  V30 6046 C 582.986 -2.95222 -5.07012 0
M  V30 6047 C 585.339 -3.45243 -5.30085 0
M  V30 6048 C 584.003 -3.81452 -5.47769 0
M  V30 6049 H 583.273 -0.0461252 -0.739563 0
M  V30 6050 H 585.92 -0.809236 -1.73562 0
M  V30 6051 H 584.225 0.711891 -3.85278 0
M  V30 6052 H 585.922 0.347282 -3.99493 0
M  V30 6053 H 582.512 -1.07817 -4.14817 0
M  V30 6054 H 586.696 -1.9705 -4.55505 0
M  V30 6055 H 581.952 -3.23361 -5.18891 0
M  V30 6056 H 586.125 -4.12689 -5.60946 0
M  V30 6057 H 583.753 -4.76403 -5.92405 0
M  V30 6058 N 585.328 1.53329 -0.364422 0
M  V30 6059 C 586.275 2.25698 0.482607 0
M  V30 6060 C 587.245 1.26325 1.07848 0
M  V30 6061 O 588.43 1.55104 1.11119 0
M  V30 6062 C 585.57 3.04873 1.61699 0
M  V30 6063 C 584.683 4.19135 1.0464 0
M  V30 6064 C 583.818 4.85754 2.14979 0
M  V30 6065 C 582.857 5.9205 1.5538 0
M  V30 6066 N 581.994 6.52365 2.59547 0
M  V30 6067 H 586.834 2.97666 -0.141032 0
M  V30 6068 H 584.371 1.46875 -0.0813692 0
M  V30 6069 H 586.329 3.49051 2.28516 0
M  V30 6070 H 584.959 2.35162 2.2113 0
M  V30 6071 H 584.011 3.79451 0.268553 0
M  V30 6072 H 585.323 4.95525 0.570653 0
M  V30 6073 H 584.477 5.3311 2.89619 0
M  V30 6074 H 583.216 4.08834 2.65906 0
M  V30 6075 H 582.221 5.44058 0.792549 0
M  V30 6076 H 583.446 6.7089 1.0528 0
M  V30 6077 H 581.392 5.78298 3.09689 0
M  V30 6078 H 581.309 7.2429 2.16655 0
M  V30 6079 H 582.577 7.0437 3.33892 0
M  V30 6080 N 586.806 0.0935595 1.57322 0
M  V30 6081 C 588.036 -0.578095 1.98347 0
M  V30 6082 C 588.444 -1.62357 0.971441 0
M  V30 6083 O 587.787 -1.83639 -0.0473959 0
M  V30 6084 C 587.849 -1.28525 3.3574 0
M  V30 6085 C 587.513 -0.390714 4.55327 0
M  V30 6086 C 588.51 0.360522 5.18648 0
M  V30 6087 C 586.195 -0.309221 5.01347 0
M  V30 6088 C 588.189 1.18125 6.26359 0
M  V30 6089 C 585.876 0.515157 6.08925 0
M  V30 6090 C 586.874 1.25904 6.71295 0
M  V30 6091 O 586.562 2.06978 7.76798 0
M  V30 6092 H 586.294 -0.159767 0.656849 0
M  V30 6093 H 588.848 0.169058 2.04703 0
M  V30 6094 H 587.078 -2.07894 3.26063 0
M  V30 6095 H 588.767 -1.85128 3.61223 0
M  V30 6096 H 589.533 0.307285 4.84026 0
M  V30 6097 H 585.412 -0.877881 4.52564 0
M  V30 6098 H 588.956 1.76236 6.74971 0
M  V30 6099 H 584.853 0.56988 6.42979 0
M  V30 6100 H 585.621 1.99644 7.93779 0
M  V30 6101 N 588.284 -1.56567 -0.180126 0
M  V30 6102 C 589.509 -1.85975 -0.918041 0
M  V30 6103 C 589.934 -0.678888 -1.75422 0
M  V30 6104 O 589.292 0.372168 -1.77439 0
M  V30 6105 C 589.34 -3.13731 -1.77779 0
M  V30 6106 O 588.444 -2.95335 -2.87838 0
M  V30 6107 H 587.785 -0.61196 -0.257683 0
M  V30 6108 H 590.315 -2.03798 -0.180923 0
M  V30 6109 H 590.325 -3.4491 -2.17948 0
M  V30 6110 H 589 -3.99293 -1.16352 0
M  V30 6111 H 587.577 -2.7549 -2.51316 0
M  V30 6112 N 589.762 0.448376 -1.51087 0
M  V30 6113 C 590.712 1.54156 -1.67988 0
M  V30 6114 C 591.696 1.5178 -0.534015 0
M  V30 6115 O 592.888 1.58419 -0.789448 0
M  V30 6116 C 590.017 2.92437 -1.79822 0
M  V30 6117 C 589.103 2.99611 -3.00157 0
M  V30 6118 N 589.494 2.7655 -4.23502 0
M  V30 6119 C 587.792 3.30764 -2.99184 0
M  V30 6120 C 588.493 2.89281 -5.0467 0
M  V30 6121 N 587.469 3.20473 -4.39088 0
M  V30 6122 H 591.271 1.35061 -2.61028 0
M  V30 6123 H 588.785 0.655504 -1.48583 0
M  V30 6124 H 590.782 3.71068 -1.90037 0
M  V30 6125 H 589.442 3.1256 -0.879554 0
M  V30 6126 H 590.453 2.5169 -4.52628 0
M  V30 6127 H 587.13 3.56732 -2.16907 0
M  V30 6128 H 588.52 2.75499 -6.12821 0
M  V30 6129 N 591.24 1.41047 0.703093 0
M  V30 6130 C 592.47 1.43133 1.48985 0
M  V30 6131 C 592.878 0.0328537 1.89171 0
M  V30 6132 O 592.221 -0.956469 1.56835 0
M  V30 6133 C 592.283 2.26991 2.78775 0
M  V30 6134 C 591.947 3.7525 2.60837 0
M  V30 6135 C 592.944 4.67591 2.27276 0
M  V30 6136 C 590.629 4.19208 2.76712 0
M  V30 6137 C 592.623 6.01877 2.09817 0
M  V30 6138 C 590.31 5.53561 2.5887 0
M  V30 6139 C 591.308 6.4471 2.25472 0
M  V30 6140 O 590.996 7.76584 2.07778 0
M  V30 6141 H 590.728 0.489788 0.465922 0
M  V30 6142 H 593.282 1.85886 0.873822 0
M  V30 6143 H 591.512 1.79038 3.42757 0
M  V30 6144 H 593.201 2.20867 3.40547 0
M  V30 6145 H 593.967 4.34923 2.14633 0
M  V30 6146 H 589.846 3.48572 3.01693 0
M  V30 6147 H 593.39 6.72986 1.83671 0
M  V30 6148 H 589.287 5.85811 2.71102 0
M  V30 6149 H 590.055 7.87649 2.22601 0
M  V30 6150 N 592.718 -0.936591 1.26751 0
M  V30 6151 C 593.666 -2.0573 1.08527 0
M  V30 6152 C 594.66 -1.69397 0.0108784 0
M  V30 6153 O 595.866 -1.79215 0.167915 0
M  V30 6154 H 592.241 -0.673691 0.334133 0
M  V30 6155 H 594.212 -2.1825 2.03493 0
M  V30 6156 C 592.961 -3.39738 0.739845 0
M  V30 6157 H 592.284 -3.68174 1.55845 0
M  V30 6158 H 593.724 -4.18955 0.652149 0
M  V30 6159 C 592.183 -3.32292 -0.555288 0
M  V30 6160 O 592.713 -3.68794 -1.59229 0
M  V30 6161 N 590.919 -2.85394 -0.54762 0
M  V30 6162 H 590.466 -2.55886 0.296667 0
M  V30 6163 H 590.424 -2.80795 -1.41427 0
M  V30 6164 N 594.196 -1.08629 -1.14182 0
M  V30 6165 C 595.106 -0.730126 -2.22949 0
M  V30 6166 C 596.122 0.26436 -1.7198 0
M  V30 6167 O 597.298 0.107742 -2.01112 0
M  V30 6168 C 594.363 -0.147227 -3.46387 0
M  V30 6169 C 593.424 -1.19662 -4.12286 0
M  V30 6170 C 592.657 -0.641437 -5.29831 0
M  V30 6171 O 592.88 0.538351 -5.67854 0
M  V30 6172 O 591.814 -1.39257 -5.85569 0
M  V30 6173 H 595.64 -1.63753 -2.55771 0
M  V30 6174 H 593.225 -0.860118 -1.22157 0
M  V30 6175 H 595.107 0.174923 -4.21037 0
M  V30 6176 H 593.782 0.733304 -3.15285 0
M  V30 6177 H 592.689 -1.57133 -3.395 0
M  V30 6178 H 594.022 -2.0495 -4.475 0
M  V30 6179 N 595.674 1.31259 -0.872281 0
M  V30 6180 C 597.09 1.49283 -0.564521 0
M  V30 6181 C 597.29 1.80243 0.900807 0
M  V30 6182 O 596.346 1.88246 1.68284 0
M  V30 6183 C 597.659 2.62503 -1.46673 0
M  V30 6184 C 599.207 2.76386 -1.46901 0
M  V30 6185 C 599.682 3.92705 -2.35684 0
M  V30 6186 N 601.173 3.99995 -2.33577 0
M  V30 6187 C 601.908 4.89276 -2.98992 0
M  V30 6188 N 601.404 5.83443 -3.73585 0
M  V30 6189 N 603.197 4.82541 -2.88289 0
M  V30 6190 H 595.348 1.09432 -1.82039 0
M  V30 6191 H 597.611 0.540949 -0.77851 0
M  V30 6192 H 597.317 2.46407 -2.50951 0
M  V30 6193 H 597.191 3.58695 -1.16696 0
M  V30 6194 H 599.578 2.91894 -0.433796 0
M  V30 6195 H 599.659 1.80853 -1.80903 0
M  V30 6196 H 599.303 3.77954 -3.39283 0
M  V30 6197 H 599.233 4.87549 -1.99006 0
M  V30 6198 H 601.724 3.32624 -1.7936 0
M  V30 6199 H 602.037 6.48303 -4.20622 0
M  V30 6200 H 600.382 5.83415 -3.77694 0
M  V30 6201 H 603.573 4.07951 -2.2955 0
M  V30 6202 H 603.746 5.51916 -3.39549 0
M  V30 6203 N 597.152 0.631951 1.44375 0
M  V30 6204 C 598.429 0.067646 1.95483 0
M  V30 6205 C 598.809 -1.40683 1.57389 0
M  V30 6206 O 598.157 -2.12167 0.848375 0
M  V30 6207 C 598.367 0.291392 3.47781 0
M  V30 6208 C 599.715 0.185028 4.24197 0
M  V30 6209 O 600.739 0.222803 3.55503 0
M  V30 6210 O 599.598 0.0906642 5.46425 0
M  V30 6211 H 596.692 -0.0218379 0.826712 0
M  V30 6212 H 599.238 0.703711 1.54421 0
M  V30 6213 H 598.01 1.31449 3.68561 0
M  V30 6214 H 597.633 -0.378772 3.95792 0
M  V30 6215 N 598.631 -1.53133 0.372548 0
M  V30 6216 C 599.541 -2.29671 -0.478379 0
M  V30 6217 C 600.557 -1.35913 -1.08644 0
M  V30 6218 O 601.733 -1.68975 -1.09588 0
M  V30 6219 C 598.798 -3.07625 -1.599 0
M  V30 6220 C 597.859 -4.17061 -1.01776 0
M  V30 6221 C 597.092 -4.91289 -2.08497 0
M  V30 6222 O 597.315 -4.65442 -3.29727 0
M  V30 6223 O 596.249 -5.7705 -1.71164 0
M  V30 6224 H 600.075 -3.03355 0.144649 0
M  V30 6225 H 597.66 -1.48773 0.136729 0
M  V30 6226 H 599.542 -3.56281 -2.25038 0
M  V30 6227 H 598.217 -2.3677 -2.2073 0
M  V30 6228 H 597.124 -3.72641 -0.330098 0
M  V30 6229 H 598.457 -4.90102 -0.453915 0
M  V30 6230 N 600.109 -0.101901 -1.5727 0
M  V30 6231 C 601.358 0.559922 -1.93772 0
M  V30 6232 C 601.671 1.68913 -0.98629 0
M  V30 6233 O 602.877 2.41256 -1.24529 0
M  V30 6234 C 601.333 1.04739 -3.44322 0
M  V30 6235 C 600.941 -0.05243 -4.47969 0
M  V30 6236 C 602.685 1.68157 -3.89774 0
M  V30 6237 C 600.592 0.450781 -5.8968 0
M  V30 6238 H 599.522 0.212931 -0.723309 0
M  V30 6239 H 602.173 -0.179001 -1.82625 0
M  V30 6240 H 600.555 1.84021 -3.50645 0
M  V30 6241 H 601.729 -0.828157 -4.53297 0
M  V30 6242 H 600.044 -0.592202 -4.12167 0
M  V30 6243 H 602.641 2.0689 -4.93052 0
M  V30 6244 H 602.984 2.55338 -3.28798 0
M  V30 6245 H 603.517 0.954453 -3.8618 0
M  V30 6246 H 600.256 -0.38458 -6.54371 0
M  V30 6247 H 599.776 1.19336 -5.87809 0
M  V30 6248 H 601.455 0.917555 -6.40461 0
M  V30 6249 N 601.587 1.56661 0.17182 0
M  V30 6250 C 602.998 1.71652 0.734329 0
M  V30 6251 C 603.349 0.712335 1.82812 0
M  V30 6252 O 602.474 -0.126401 2.16031 0
M  V30 6253 C 603.069 3.11226 1.3388 0
M  V30 6254 C 601.628 3.27904 1.84813 0
M  V30 6255 C 600.775 2.67603 0.726917 0
M  V30 6256 H 603.726 1.5861 -0.0535665 0
M  V30 6257 H 603.747 3.09849 2.20849 0
M  V30 6258 H 603.259 3.8429 0.54249 0
M  V30 6259 H 601.36 2.59796 2.6709 0
M  V30 6260 H 601.473 4.35637 1.99392 0
M  V30 6261 H 599.837 2.274 1.14723 0
M  V30 6262 H 600.62 3.43252 -0.0575334 0
M  V30 6263 N 603.065 -0.440357 1.51323 0
M  V30 6264 C 604.015 -1.53263 1.68803 0
M  V30 6265 C 604.999 -1.51494 0.542057 0
M  V30 6266 O 606.191 -1.57999 0.797839 0
M  V30 6267 C 603.32 -2.91479 1.8137 0
M  V30 6268 C 602.406 -2.98015 3.01742 0
M  V30 6269 N 602.797 -2.743 4.24962 0
M  V30 6270 C 601.095 -3.29173 3.00934 0
M  V30 6271 C 601.796 -2.86601 5.06197 0
M  V30 6272 N 600.772 -3.1814 4.40781 0
M  V30 6273 H 604.574 -1.33675 2.61741 0
M  V30 6274 H 602.088 -0.647616 1.48929 0
M  V30 6275 H 604.085 -3.70055 1.92002 0
M  V30 6276 H 602.745 -3.12089 0.896117 0
M  V30 6277 H 603.756 -2.49287 4.53957 0
M  V30 6278 H 600.433 -3.55577 2.18796 0
M  V30 6279 H 601.823 -2.72246 6.14274 0
M  V30 6280 N 604.543 -1.41418 -0.695603 0
M  V30 6281 C 605.491 -1.43467 -1.83084 0
M  V30 6282 C 606.485 -0.312719 -1.66489 0
M  V30 6283 O 607.691 -0.484744 -1.7335 0
M  V30 6284 H 604.066 -0.448891 -0.603325 0
M  V30 6285 H 606.037 -2.39144 -1.78473 0
M  V30 6286 C 604.786 -1.3337 -3.21104 0
M  V30 6287 H 604.109 -2.18989 -3.3449 0
M  V30 6288 H 605.549 -1.38865 -4.00615 0
M  V30 6289 C 604.008 -0.0460484 -3.36869 0
M  V30 6290 O 604.538 0.909258 -3.91274 0
M  V30 6291 N 602.744 0.0300222 -2.90584 0
M  V30 6292 H 602.291 -0.748129 -2.46497 0
M  V30 6293 H 602.249 0.890991 -3.01511 0
M  V30 6294 N 606.021 0.929856 -1.27246 0
M  V30 6295 C 607.298 1.65544 -1.04186 0
M  V30 6296 C 607.678 2.06796 0.424097 0
M  V30 6297 O 607.026 1.80053 1.40688 0
M  V30 6298 C 607.236 2.85912 -2.00138 0
M  V30 6299 C 608.584 3.57305 -2.29387 0
M  V30 6300 O 609.608 2.96036 -1.98094 0
M  V30 6301 O 608.467 4.67688 -2.82719 0
M  V30 6302 H 605.561 0.725473 -0.397011 0
M  V30 6303 H 608.107 0.980583 -1.38501 0
M  V30 6304 H 606.879 2.52403 -2.99013 0
M  V30 6305 H 606.502 3.61118 -1.66371 0
M  V30 6306 N 607.499 1.09233 1.13605 0
M  V30 6307 C 608.748 0.82205 1.84188 0
M  V30 6308 C 609.061 -0.654548 1.84323 0
M  V30 6309 O 610.267 -1.04029 2.50779 0
M  V30 6310 C 608.723 1.42066 3.30674 0
M  V30 6311 C 608.331 2.92965 3.38933 0
M  V30 6312 C 610.075 1.22924 4.06313 0
M  V30 6313 C 607.982 3.45922 4.79679 0
M  V30 6314 H 606.912 0.303854 0.690064 0
M  V30 6315 H 609.563 1.31479 1.28006 0
M  V30 6316 H 607.945 0.855613 3.86646 0
M  V30 6317 H 609.119 3.55679 2.92966 0
M  V30 6318 H 607.434 3.11118 2.76757 0
M  V30 6319 H 610.031 1.59945 5.10217 0
M  V30 6320 H 610.374 0.169726 4.15954 0
M  V30 6321 H 610.907 1.76168 3.56665 0
M  V30 6322 H 607.646 4.51484 4.75229 0
M  V30 6323 H 607.166 2.87971 5.26149 0
M  V30 6324 H 608.845 3.43009 5.48592 0
M  V30 6325 N 608.977 -1.30795 0.87923 0
M  V30 6326 C 609.94 -2.26563 0.346676 0
M  V30 6327 C 610.94 -1.52578 -0.507597 0
M  V30 6328 O 612.13 -1.71318 -0.315575 0
M  V30 6329 C 609.262 -3.37115 -0.506611 0
M  V30 6330 H 610.455 -2.75183 1.19223 0
M  V30 6331 H 608.008 -1.41886 0.655598 0
M  V30 6332 H 608.743 -2.93802 -1.37299 0
M  V30 6333 H 608.528 -3.91959 0.105218 0
M  V30 6334 H 610.018 -4.08412 -0.871192 0
M  V30 6335 N 610.455 -0.639598 -1.44038 0
M  V30 6336 C 611.385 0.0469443 -2.33453 0
M  V30 6337 C 612.366 0.82609 -1.48694 0
M  V30 6338 O 613.551 0.790285 -1.77393 0
M  V30 6339 C 610.681 1.02338 -3.3188 0
M  V30 6340 C 609.635 0.355284 -4.26523 0
M  V30 6341 C 608.961 1.44221 -5.14883 0
M  V30 6342 C 610.261 -0.743798 -5.16977 0
M  V30 6343 H 611.955 -0.699735 -2.91108 0
M  V30 6344 H 609.501 -0.337946 -1.39978 0
M  V30 6345 H 611.454 1.51247 -3.93322 0
M  V30 6346 H 610.178 1.80105 -2.72451 0
M  V30 6347 H 608.837 -0.113239 -3.66425 0
M  V30 6348 H 608.485 2.21097 -4.51802 0
M  V30 6349 H 608.185 1.00052 -5.79019 0
M  V30 6350 H 609.709 1.93295 -5.79197 0
M  V30 6351 H 611.123 -0.337444 -5.72306 0
M  V30 6352 H 609.52 -1.10914 -5.89761 0
M  V30 6353 H 610.59 -1.60745 -4.57481 0
M  V30 6354 N 611.933 1.52934 -0.380664 0
M  V30 6355 C 612.863 2.29118 0.450268 0
M  V30 6356 C 613.844 1.32153 1.07096 0
M  V30 6357 O 615.029 1.61038 1.08537 0
M  V30 6358 C 612.159 3.09161 1.58231 0
M  V30 6359 C 611.113 4.13938 1.0881 0
M  V30 6360 C 610.439 4.82153 2.31155 0
M  V30 6361 C 611.739 5.22048 0.162146 0
M  V30 6362 H 613.433 2.98826 -0.185361 0
M  V30 6363 H 610.979 1.43715 -0.0905886 0
M  V30 6364 H 612.932 3.61211 2.17036 0
M  V30 6365 H 611.656 2.3717 2.2454 0
M  V30 6366 H 610.315 3.62855 0.522633 0
M  V30 6367 H 609.963 4.06719 2.95953 0
M  V30 6368 H 609.663 5.52966 1.98752 0
M  V30 6369 H 611.187 5.37004 2.90618 0
M  V30 6370 H 612.601 5.6951 0.658126 0
M  V30 6371 H 610.998 6.00057 -0.0717122 0
M  V30 6372 H 612.068 4.78398 -0.791438 0
M  V30 6373 N 613.412 0.11024 1.57214 0
M  V30 6374 C 614.359 -0.843195 2.14846 0
M  V30 6375 C 615.329 -1.26954 1.07107 0
M  V30 6376 O 616.514 -1.34861 1.34971 0
M  V30 6377 C 613.654 -2.09123 2.74521 0
M  V30 6378 C 612.767 -1.71404 3.96541 0
M  V30 6379 C 611.902 -2.91107 4.44331 0
M  V30 6380 C 610.941 -2.49586 5.58903 0
M  V30 6381 N 610.078 -3.62175 6.01477 0
M  V30 6382 H 614.918 -0.344886 2.95998 0
M  V30 6383 H 612.455 -0.15855 1.46243 0
M  V30 6384 H 614.413 -2.82234 3.07246 0
M  V30 6385 H 613.043 -2.56427 1.96074 0
M  V30 6386 H 612.095 -0.88201 3.70033 0
M  V30 6387 H 613.407 -1.36884 4.7965 0
M  V30 6388 H 612.561 -3.72454 4.78919 0
M  V30 6389 H 611.3 -3.28848 3.60153 0
M  V30 6390 H 610.305 -1.6667 5.23929 0
M  V30 6391 H 611.53 -2.12973 6.4484 0
M  V30 6392 H 609.476 -3.99605 5.20242 0
M  V30 6393 H 609.393 -3.3155 6.79419 0
M  V30 6394 H 610.661 -4.43987 6.407 0
M  V30 6395 N 614.89 -1.56749 -0.16351 0
M  V30 6396 C 615.82 -2.00042 -1.20438 0
M  V30 6397 C 616.801 -0.877256 -1.45733 0
M  V30 6398 O 617.986 -1.1439 -1.56935 0
M  V30 6399 C 615.116 -2.36697 -2.54149 0
M  V30 6400 C 614.07 -3.52046 -2.43408 0
M  V30 6401 C 613.396 -3.74466 -3.81679 0
M  V30 6402 C 614.696 -4.85247 -1.93216 0
M  V30 6403 H 616.39 -2.87244 -0.844477 0
M  V30 6404 H 613.936 -1.38194 -0.40478 0
M  V30 6405 H 615.889 -2.65582 -3.27176 0
M  V30 6406 H 614.613 -1.46414 -2.91943 0
M  V30 6407 H 613.272 -3.23301 -1.72834 0
M  V30 6408 H 612.92 -2.81461 -4.1688 0
M  V30 6409 H 612.62 -4.52084 -3.75359 0
M  V30 6410 H 614.144 -4.0576 -4.5628 0
M  V30 6411 H 615.558 -5.12957 -2.56023 0
M  V30 6412 H 613.955 -5.66556 -1.97825 0
M  V30 6413 H 615.025 -4.7672 -0.88689 0
M  V30 6414 N 616.368 0.432326 -1.51554 0
M  V30 6415 C 617.315 1.52512 -1.7323 0
M  V30 6416 C 618.285 1.55863 -0.5741 0
M  V30 6417 O 619.47 1.72796 -0.809093 0
M  V30 6418 C 616.61 2.90183 -1.86783 0
M  V30 6419 C 615.723 2.96322 -3.14352 0
M  V30 6420 C 614.858 4.25147 -3.18471 0
M  V30 6421 C 613.897 4.25172 -4.40335 0
M  V30 6422 N 613.034 5.45529 -4.41975 0
M  V30 6423 H 617.874 1.33332 -2.66508 0
M  V30 6424 H 615.411 0.647613 -1.32077 0
M  V30 6425 H 617.369 3.70071 -1.92623 0
M  V30 6426 H 615.999 3.0791 -0.969087 0
M  V30 6427 H 615.051 2.09066 -3.17798 0
M  V30 6428 H 616.363 2.92203 -4.04251 0
M  V30 6429 H 615.517 5.13411 -3.23255 0
M  V30 6430 H 614.256 4.31929 -2.2647 0
M  V30 6431 H 613.261 3.353 -4.35723 0
M  V30 6432 H 614.486 4.20049 -5.33606 0
M  V30 6433 H 612.432 5.53024 -3.52847 0
M  V30 6434 H 612.349 5.43311 -5.25689 0
M  V30 6435 H 613.617 6.35812 -4.50958 0
M  V30 6436 N 617.846 1.41785 0.688094 0
M  V30 6437 C 619.257 1.3701 1.26828 0
M  V30 6438 C 619.608 0.056835 1.96118 0
M  V30 6439 O 618.733 -0.84475 1.99231 0
M  V30 6440 C 619.328 2.48168 2.30648 0
M  V30 6441 C 617.887 2.46766 2.84224 0
M  V30 6442 C 617.034 2.27633 1.58361 0
M  V30 6443 H 619.985 1.51192 0.482351 0
M  V30 6444 H 620.006 2.17655 3.121 0
M  V30 6445 H 619.518 3.43735 1.80188 0
M  V30 6446 H 617.619 1.54978 3.3884 0
M  V30 6447 H 617.732 3.43342 3.34145 0
M  V30 6448 H 616.096 1.75648 1.84445 0
M  V30 6449 H 616.879 3.25238 1.09887 0
M  V30 6450 N 619.324 -0.923095 1.27737 0
M  V30 6451 C 620.57 -1.67375 1.14514 0
M  V30 6452 C 620.903 -1.91751 -0.307424 0
M  V30 6453 O 620.178 -1.51119 -1.22447 0
M  V30 6454 C 620.461 -3.03745 1.9342 0
M  V30 6455 C 620.314 -2.86581 3.46686 0
M  V30 6456 C 621.633 -4.04144 1.74228 0
M  V30 6457 H 618.752 -0.607427 0.417374 0
M  V30 6458 H 621.394 -1.07089 1.56946 0
M  V30 6459 H 619.544 -3.55204 1.5736 0
M  V30 6460 H 621.216 -2.42203 3.92601 0
M  V30 6461 H 619.459 -2.21829 3.72793 0
M  V30 6462 H 620.13 -3.83381 3.97143 0
M  V30 6463 H 622.606 -3.61712 2.05678 0
M  V30 6464 H 621.482 -4.97543 2.31824 0
M  V30 6465 H 621.743 -4.36661 0.691373 0
M  V30 6466 N 620.802 -1.09834 -1.13024 0
M  V30 6467 C 622.079 -0.749225 -1.80682 0
M  V30 6468 C 622.459 0.765171 -1.96744 0
M  V30 6469 O 621.807 1.68912 -1.53886 0
M  V30 6470 C 622.017 -1.49311 -3.15448 0
M  V30 6471 C 623.365 -1.66162 -3.90737 0
M  V30 6472 O 624.389 -1.45597 -3.25085 0
M  V30 6473 O 623.248 -2.00211 -5.08505 0
M  V30 6474 H 620.342 -0.269614 -0.781817 0
M  V30 6475 H 622.888 -1.20078 -1.19914 0
M  V30 6476 H 621.66 -2.52407 -2.99009 0
M  V30 6477 H 621.283 -1.034 -3.8392 0
M  V30 6478 N 622.28 1.30327 -0.886154 0
M  V30 6479 C 623.528 1.9571 -0.504195 0
M  V30 6480 C 623.849 1.70294 0.950003 0
M  V30 6481 O 623.119 1.02718 1.66811 0
M  V30 6482 H 621.699 0.72412 -0.183465 0
M  V30 6483 H 624.361 1.58835 -1.12949 0
M  V30 6484 H 623.457 3.04704 -0.675431 0
M  V30 6485 N 623.758 0.647228 1.43697 0
M  V30 6486 C 624.708 -0.0702191 2.27892 0
M  V30 6487 C 625.692 -0.800601 1.39568 0
M  V30 6488 O 626.884 -0.684055 1.63247 0
M  V30 6489 C 624.013 -1.04008 3.27165 0
M  V30 6490 C 623.099 -0.308484 4.22977 0
M  V30 6491 N 623.49 0.671721 5.0132 0
M  V30 6492 C 621.788 -0.550751 4.42586 0
M  V30 6493 C 622.489 1.10543 5.711 0
M  V30 6494 N 621.465 0.440903 5.41809 0
M  V30 6495 H 625.267 0.682031 2.85877 0
M  V30 6496 H 622.781 0.474022 1.55328 0
M  V30 6497 H 624.778 -1.56881 3.86256 0
M  V30 6498 H 623.438 -1.79246 2.70742 0
M  V30 6499 H 624.449 1.0502 5.0714 0
M  V30 6500 H 621.126 -1.28476 3.97241 0
M  V30 6501 H 622.516 1.91614 6.43998 0
M  V30 6502 N 625.236 -1.5273 0.388769 0
M  V30 6503 C 626.476 -2.03483 -0.193372 0
M  V30 6504 C 626.84 -1.26897 -1.44087 0
M  V30 6505 O 628.041 -1.67773 -2.10014 0
M  V30 6506 C 626.312 -3.54488 -0.455325 0
M  V30 6507 S 627.871 -4.27069 -1.00783 0
M  V30 6508 H 624.689 -0.708907 -0.0545131 0
M  V30 6509 H 627.291 -1.8798 0.536993 0
M  V30 6510 H 625.995 -4.07817 0.459722 0
M  V30 6511 H 625.526 -3.74196 -1.21413 0
M  V30 6512 H 627.541 -4.40185 -2.29023 0
M  V30 6513 N 626.714 -0.118576 -1.57153 0
M  V30 6514 C 627.677 0.817464 -2.14127 0
M  V30 6515 C 628.677 1.1949 -1.07604 0
M  V30 6516 O 629.867 1.12048 -1.33382 0
M  V30 6517 C 626.999 2.10541 -2.68115 0
M  V30 6518 H 628.192 0.322339 -2.98163 0
M  V30 6519 H 625.745 0.130655 -1.55753 0
M  V30 6520 H 626.48 2.64485 -1.87665 0
M  V30 6521 H 626.265 1.84425 -3.4602 0
M  V30 6522 H 627.755 2.77453 -3.12105 0
M  V30 6523 N 628.193 1.56834 0.155195 0
M  V30 6524 C 629.123 2.00678 1.19376 0
M  V30 6525 C 630.104 0.884973 1.45266 0
M  V30 6526 O 631.289 1.1522 1.56326 0
M  V30 6527 C 628.419 2.38042 2.5289 0
M  V30 6528 C 627.373 3.53332 2.41538 0
M  V30 6529 C 626.699 3.76485 3.79688 0
M  V30 6530 C 627.999 4.86265 1.9064 0
M  V30 6531 H 629.693 2.87688 0.829232 0
M  V30 6532 H 627.239 1.38407 0.397445 0
M  V30 6533 H 629.192 2.67314 3.25763 0
M  V30 6534 H 627.916 1.4796 2.91162 0
M  V30 6535 H 626.575 3.24213 1.71117 0
M  V30 6536 H 626.223 2.83667 4.15382 0
M  V30 6537 H 625.923 4.54068 3.72956 0
M  V30 6538 H 627.447 4.08174 4.54122 0
M  V30 6539 H 628.861 5.14308 2.53299 0
M  V30 6540 H 627.258 5.67597 1.94818 0
M  V30 6541 H 628.328 4.77184 0.861596 0
M  V30 6542 N 629.671 -0.424282 1.51781 0
M  V30 6543 C 630.581 -1.54087 1.76902 0
M  V30 6544 C 631.597 -1.61249 0.653826 0
M  V30 6545 O 632.773 -1.78247 0.937552 0
M  V30 6546 C 629.838 -2.8996 1.90063 0
M  V30 6547 C 628.899 -2.92809 3.13945 0
M  V30 6548 C 628.132 -4.22201 3.26469 0
M  V30 6549 O 628.355 -5.15286 2.44616 0
M  V30 6550 O 627.289 -4.31599 4.1953 0
M  V30 6551 H 631.115 -1.358 2.71647 0
M  V30 6552 H 628.7 -0.608618 1.36441 0
M  V30 6553 H 630.582 -3.70575 2.0063 0
M  V30 6554 H 629.257 -3.08347 0.985067 0
M  V30 6555 H 628.164 -2.11102 3.08847 0
M  V30 6556 H 629.497 -2.79369 4.05233 0
M  V30 6557 N 631.149 -1.42148 -0.680565 0
M  V30 6558 C 632.374 -1.45901 -1.47403 0
M  V30 6559 C 632.799 -0.0700985 -1.87969 0
M  V30 6560 O 632.157 0.930145 -1.55621 0
M  V30 6561 C 632.205 -2.38661 -2.70321 0
M  V30 6562 O 631.309 -1.85399 -3.68376 0
M  V30 6563 H 630.65 -0.494565 -0.443059 0
M  V30 6564 H 633.18 -1.86774 -0.835251 0
M  V30 6565 H 633.19 -2.55046 -3.18458 0
M  V30 6566 H 631.865 -3.39571 -2.40134 0
M  V30 6567 H 630.442 -1.78541 -3.2738 0
M  V30 6568 N 632.627 0.916307 -1.28225 0
M  V30 6569 C 633.574 2.01841 -1.11932 0
M  V30 6570 C 634.544 1.66091 -0.0171604 0
M  V30 6571 O 635.729 1.89934 -0.181617 0
M  V30 6572 C 632.869 3.36065 -0.784504 0
M  V30 6573 C 631.982 3.847 -1.96544 0
M  V30 6574 C 631.117 5.07423 -1.57149 0
M  V30 6575 C 630.156 5.48384 -2.71922 0
M  V30 6576 N 629.293 6.62298 -2.33037 0
M  V30 6577 H 634.133 2.1511 -2.06232 0
M  V30 6578 H 631.67 1.05366 -1.02647 0
M  V30 6579 H 633.628 4.13272 -0.571148 0
M  V30 6580 H 632.258 3.22571 0.121565 0
M  V30 6581 H 631.31 3.03673 -2.291 0
M  V30 6582 H 632.622 4.1102 -2.82603 0
M  V30 6583 H 631.776 5.92165 -1.32004 0
M  V30 6584 H 630.515 4.82906 -0.682153 0
M  V30 6585 H 629.52 4.62184 -2.97768 0
M  V30 6586 H 630.745 5.7489 -3.61494 0
M  V30 6587 H 628.691 6.39416 -1.4657 0
M  V30 6588 H 628.608 6.8833 -3.12631 0
M  V30 6589 H 629.876 7.50352 -2.11169 0
M  V30 6590 N 634.105 1.10431 1.1244 0
M  V30 6591 C 635.335 0.867612 1.87499 0
M  V30 6592 C 635.743 -0.585475 1.79913 0
M  V30 6593 O 635.086 -1.41539 1.171 0
M  V30 6594 C 635.148 1.2374 3.37533 0
M  V30 6595 C 634.812 2.69751 3.68895 0
M  V30 6596 C 635.809 3.67988 3.67261 0
M  V30 6597 C 633.494 3.06135 3.98229 0
M  V30 6598 C 635.488 5.00632 3.9452 0
M  V30 6599 C 633.175 4.38967 4.25149 0
M  V30 6600 C 634.173 5.36025 4.23281 0
M  V30 6601 O 633.861 6.66465 4.49533 0
M  V30 6602 H 633.593 0.311196 0.600111 0
M  V30 6603 H 636.147 1.47257 1.43194 0
M  V30 6604 H 634.377 0.575537 3.82393 0
M  V30 6605 H 636.066 0.978187 3.93937 0
M  V30 6606 H 636.832 3.41224 3.44661 0
M  V30 6607 H 632.711 2.31214 3.98825 0
M  V30 6608 H 636.255 5.7638 3.92978 0
M  V30 6609 H 632.152 4.6547 4.47223 0
M  V30 6610 H 632.92 6.72095 4.67152 0
M  V30 6611 N 635.583 -1.29855 0.893053 0
M  V30 6612 C 636.829 -1.96116 0.516349 0
M  V30 6613 C 637.162 -1.70281 -0.933695 0
M  V30 6614 O 636.437 -1.01205 -1.66096 0
M  V30 6615 C 636.72 -3.51068 0.801455 0
M  V30 6616 C 636.573 -3.86387 2.30272 0
M  V30 6617 C 637.892 -4.39186 0.283423 0
M  V30 6618 H 635.011 -0.712335 0.189072 0
M  V30 6619 H 637.653 -1.53587 1.11852 0
M  V30 6620 H 635.803 -3.87424 0.288949 0
M  V30 6621 H 637.475 -3.60012 2.88425 0
M  V30 6622 H 635.718 -3.34167 2.76613 0
M  V30 6623 H 636.389 -4.94512 2.45279 0
M  V30 6624 H 638.865 -4.09785 0.722187 0
M  V30 6625 H 637.741 -5.46505 0.512169 0
M  V30 6626 H 638.002 -4.34511 -0.815643 0
M  V30 6627 N 637.061 -0.65484 -1.43351 0
M  V30 6628 C 638.008 0.0357713 -2.30772 0
M  V30 6629 C 638.978 0.813035 -1.44841 0
M  V30 6630 O 640.163 0.789314 -1.73708 0
M  V30 6631 C 637.303 0.995084 -3.30442 0
M  V30 6632 C 636.416 0.21375 -4.31471 0
M  V30 6633 C 635.551 1.16701 -5.18222 0
M  V30 6634 C 634.59 0.376201 -6.10943 0
M  V30 6635 N 633.727 1.28113 -6.90313 0
M  V30 6636 H 638.567 -0.71559 -2.89281 0
M  V30 6637 H 636.104 -0.364645 -1.42509 0
M  V30 6638 H 638.062 1.5649 -3.86739 0
M  V30 6639 H 636.692 1.7133 -2.7358 0
M  V30 6640 H 635.744 -0.472377 -3.77456 0
M  V30 6641 H 637.056 -0.401103 -4.97185 0
M  V30 6642 H 636.21 1.8074 -5.79153 0
M  V30 6643 H 634.949 1.81577 -4.52638 0
M  V30 6644 H 633.954 -0.277534 -5.49099 0
M  V30 6645 H 635.179 -0.268178 -6.7857 0
M  V30 6646 H 633.125 1.91666 -6.27376 0
M  V30 6647 H 633.042 0.720879 -7.52555 0
M  V30 6648 H 634.31 1.90962 -7.55747 0
M  V30 6649 N 638.539 1.52521 -0.396863 0
M  V30 6650 C 639.767 2.06091 0.18275 0
M  V30 6651 C 640.182 1.26796 1.39886 0
M  V30 6652 O 639.539 0.316585 1.79733 0
M  V30 6653 C 639.59 3.57362 0.545377 0
M  V30 6654 O 639.311 4.33656 -0.622428 0
M  V30 6655 C 640.812 4.27305 1.18004 0
M  V30 6656 H 638.032 0.670504 0.025789 0
M  V30 6657 H 640.576 1.96561 -0.564276 0
M  V30 6658 H 638.731 3.66941 1.2423 0
M  V30 6659 H 639.145 5.23507 -0.322662 0
M  V30 6660 H 640.619 5.34366 1.38408 0
M  V30 6661 H 641.096 3.83 2.1496 0
M  V30 6662 H 641.702 4.22064 0.523671 0
M  V30 6663 N 640.017 0.126909 1.57088 0
M  V30 6664 C 641.263 -0.529952 1.95753 0
M  V30 6665 C 641.596 -1.65823 1.01077 0
M  V30 6666 O 640.871 -1.94437 0.0494162 0
M  V30 6667 C 641.154 -1.05517 3.44294 0
M  V30 6668 C 641.007 0.0702253 4.49745 0
M  V30 6669 C 642.326 -1.9435 3.94862 0
M  V30 6670 H 639.445 -0.191168 0.711775 0
M  V30 6671 H 642.087 0.204071 1.88901 0
M  V30 6672 H 640.237 -1.68069 3.50264 0
M  V30 6673 H 641.909 0.705834 4.55868 0
M  V30 6674 H 640.152 0.732259 4.27575 0
M  V30 6675 H 640.823 -0.338642 5.5096 0
M  V30 6676 H 643.299 -1.41658 3.91244 0
M  V30 6677 H 642.175 -2.28015 4.993 0
M  V30 6678 H 642.436 -2.87299 3.36024 0
M  V30 6679 N 641.495 -1.56914 -0.146875 0
M  V30 6680 C 642.735 -1.85163 -0.86568 0
M  V30 6681 C 643.099 -0.711215 -1.78342 0
M  V30 6682 O 644.3 -0.874754 -2.54168 0
M  V30 6683 C 642.571 -3.18593 -1.61967 0
M  V30 6684 S 644.13 -3.68397 -2.38388 0
M  V30 6685 H 640.948 -0.6494 -0.289483 0
M  V30 6686 H 643.55 -1.95096 -0.125679 0
M  V30 6687 H 642.254 -3.99562 -0.93694 0
M  V30 6688 H 641.785 -3.11666 -2.40058 0
M  V30 6689 H 643.8 -3.37672 -3.63582 0
M  V30 6690 N 642.974 0.416227 -1.52004 0
M  V30 6691 C 643.904 1.51365 -1.77795 0
M  V30 6692 C 644.885 1.58059 -0.628601 0
M  V30 6693 O 646.07 1.73447 -0.873478 0
M  V30 6694 C 643.2 2.89256 -1.92219 0
M  V30 6695 C 642.154 2.97415 -3.0778 0
M  V30 6696 C 641.48 4.37492 -3.07417 0
M  V30 6697 C 642.78 2.69551 -4.47369 0
M  V30 6698 H 644.474 1.30033 -2.69688 0
M  V30 6699 H 642.02 0.624112 -1.29772 0
M  V30 6700 H 643.973 3.66008 -2.08845 0
M  V30 6701 H 642.697 3.11866 -0.969917 0
M  V30 6702 H 641.356 2.23107 -2.90893 0
M  V30 6703 H 641.004 4.571 -2.09925 0
M  V30 6704 H 640.704 4.43877 -3.85029 0
M  V30 6705 H 642.228 5.16188 -3.26162 0
M  V30 6706 H 643.642 3.36028 -4.64497 0
M  V30 6707 H 642.039 2.87321 -5.26846 0
M  V30 6708 H 643.109 1.65029 -4.55953 0
M  V30 6709 N 644.452 1.42507 0.673017 0
M  V30 6710 C 645.863 1.38347 1.25367 0
M  V30 6711 C 646.214 0.0776327 1.96046 0
M  V30 6712 O 645.339 -0.823571 2.00116 0
M  V30 6713 C 645.934 2.506 2.28002 0
M  V30 6714 C 644.493 2.49767 2.81591 0
M  V30 6715 C 643.64 2.293 1.55938 0
M  V30 6716 H 646.591 1.51695 0.466288 0
M  V30 6717 H 646.612 2.20953 3.09774 0
M  V30 6718 H 646.124 3.45627 1.76532 0
M  V30 6719 H 644.225 1.58563 3.37177 0
M  V30 6720 H 644.338 3.46867 3.30485 0
M  V30 6721 H 642.702 1.77594 1.82572 0
M  V30 6722 H 643.485 3.26385 1.06431 0
M  V30 6723 N 645.93 -0.909495 1.28709 0
M  V30 6724 C 647.207 -1.63865 1.06806 0
M  V30 6725 C 647.587 -2.07445 -0.391143 0
M  V30 6726 O 646.935 -1.82269 -1.37805 0
M  V30 6727 C 647.145 -2.82692 2.04661 0
M  V30 6728 C 648.493 -3.5361 2.35042 0
M  V30 6729 O 649.517 -2.92847 2.02779 0
M  V30 6730 O 648.376 -4.63131 2.90124 0
M  V30 6731 H 645.47 -0.719065 0.408502 0
M  V30 6732 H 648.016 -0.958424 1.40044 0
M  V30 6733 H 646.788 -2.47614 3.0299 0
M  V30 6734 H 646.411 -3.58426 1.72095 0
M  V30 6735 N 647.408 -1.11026 -1.11852 0
M  V30 6736 C 648.656 -0.854769 -1.83134 0
M  V30 6737 C 648.977 0.621375 -1.84835 0
M  V30 6738 O 648.247 1.45129 -1.31584 0
M  V30 6739 H 646.827 -0.313229 -0.678157 0
M  V30 6740 H 649.489 -1.40178 -1.35411 0
M  V30 6741 H 648.585 -1.22311 -2.87135 0
M  V30 6742 N 648.886 1.2938 -0.899927 0
M  V30 6743 C 650.111 2.00228 -0.540692 0
M  V30 6744 C 650.536 1.66909 0.867359 0
M  V30 6745 O 649.894 0.893824 1.57735 0
M  V30 6746 C 649.942 3.52921 -0.740232 0
M  V30 6747 O 649.046 4.11879 0.207154 0
M  V30 6748 H 648.387 0.629505 -0.211233 0
M  V30 6749 H 650.917 1.6487 -1.21158 0
M  V30 6750 H 650.927 4.0287 -0.644973 0
M  V30 6751 H 649.602 3.76508 -1.76677 0
M  V30 6752 H 648.179 3.72845 0.0643315 0
M  V30 6753 N 650.364 0.662433 1.43002 0
M  V30 6754 C 651.611 0.179591 2.01702 0
M  V30 6755 C 651.939 -1.20964 1.52309 0
M  V30 6756 O 651.194 -1.82343 0.7106 0
M  V30 6757 C 651.493 0.149363 3.57088 0
M  V30 6758 C 651.159 1.48158 4.25864 0
M  V30 6759 C 649.821 1.84638 4.44367 0
M  V30 6760 C 652.173 2.35953 4.64732 0
M  V30 6761 C 649.501 3.08561 4.99006 0
M  V30 6762 C 651.853 3.59176 5.20745 0
M  V30 6763 C 650.517 3.95841 5.37463 0
M  V30 6764 H 649.787 0.0657172 0.73808 0
M  V30 6765 H 652.434 0.854968 1.71355 0
M  V30 6766 H 650.739 -0.609491 3.8703 0
M  V30 6767 H 652.436 -0.241241 4.00274 0
M  V30 6768 H 649.026 1.18777 4.11813 0
M  V30 6769 H 653.21 2.09058 4.50121 0
M  V30 6770 H 648.466 3.37005 5.10135 0
M  V30 6771 H 652.64 4.27417 5.49807 0
M  V30 6772 H 650.267 4.91942 5.79566 0
M  V30 6773 N 651.842 -1.52309 0.404946 0
M  V30 6774 C 653.253 -1.86585 -0.0655926 0
M  V30 6775 C 653.604 -1.3239 -1.44801 0
M  V30 6776 O 652.729 -0.6615 -2.06042 0
M  V30 6777 C 653.324 -3.38566 -0.125801 0
M  V30 6778 C 651.883 -3.72497 -0.540666 0
M  V30 6779 C 651.03 -2.75806 0.287487 0
M  V30 6780 H 653.981 -1.45995 0.622185 0
M  V30 6781 H 654.002 -3.68658 -0.941888 0
M  V30 6782 H 653.514 -3.77981 0.880473 0
M  V30 6783 H 651.615 -3.38659 -1.55373 0
M  V30 6784 H 651.728 -4.78234 -0.287956 0
M  V30 6785 H 650.092 -2.53474 -0.249561 0
M  V30 6786 H 650.875 -3.18059 1.29203 0
M  V30 6787 N 653.32 -0.135238 -1.57019 0
M  V30 6788 C 654.545 0.529343 -2.00531 0
M  V30 6789 C 654.97 1.58391 -1.01459 0
M  V30 6790 O 654.328 1.81296 0.0113986 0
M  V30 6791 C 654.376 1.11748 -3.42848 0
M  V30 6792 O 653.48 2.23267 -3.46736 0
M  V30 6793 H 652.821 0.130669 -0.651016 0
M  V30 6794 H 655.351 -0.228503 -2.0332 0
M  V30 6795 H 655.361 1.44905 -3.81401 0
M  V30 6796 H 654.036 0.345147 -4.14465 0
M  V30 6797 H 652.613 1.91428 -3.20015 0
M  V30 6798 N 654.798 1.5699 0.138552 0
M  V30 6799 C 656.046 1.83446 0.848053 0
M  V30 6800 C 656.367 0.71744 1.81322 0
M  V30 6801 O 655.637 -0.260228 1.94164 0
M  V30 6802 H 654.217 0.676792 0.316166 0
M  V30 6803 H 656.879 1.94462 0.130538 0
M  V30 6804 H 655.975 2.78677 1.40518 0
M  V30 6805 N 656.276 -0.40816 1.52223 0
M  V30 6806 C 657.501 -1.18127 1.70472 0
M  V30 6807 C 657.926 -1.83491 0.41384 0
M  V30 6808 O 657.284 -1.70047 -0.628778 0
M  V30 6809 C 657.332 -2.21935 2.84213 0
M  V30 6810 O 656.436 -3.28099 2.4985 0
M  V30 6811 H 655.777 -0.344781 0.56747 0
M  V30 6812 H 658.307 -0.478328 1.9893 0
M  V30 6813 H 658.317 -2.66248 3.09153 0
M  V30 6814 H 656.992 -1.73744 3.7787 0
M  V30 6815 H 655.569 -2.89058 2.35584 0
M  V30 6816 N 657.755 -1.42862 -0.66545 0
M  V30 6817 C 658.665 -1.49491 -1.80803 0
M  V30 6818 C 659.681 -0.382914 -1.69734 0
M  V30 6819 O 660.857 -0.635223 -1.9112 0
M  V30 6820 C 657.922 -1.40383 -3.17007 0
M  V30 6821 C 656.983 -2.62152 -3.39963 0
M  V30 6822 C 656.216 -2.53469 -4.69669 0
M  V30 6823 O 656.439 -1.57568 -5.48205 0
M  V30 6824 O 655.373 -3.43763 -4.94075 0
M  V30 6825 H 659.199 -2.45949 -1.78165 0
M  V30 6826 H 656.784 -1.24728 -0.822387 0
M  V30 6827 H 658.666 -1.377 -3.98267 0
M  V30 6828 H 657.341 -0.470546 -3.20262 0
M  V30 6829 H 656.248 -2.70409 -2.58515 0
M  V30 6830 H 657.581 -3.54411 -3.41546 0
M  V30 6831 N 659.233 0.902656 -1.29189 0
M  V30 6832 C 660.473 1.6672 -1.18254 0
M  V30 6833 C 660.837 1.90199 0.262336 0
M  V30 6834 O 662.038 2.6421 0.494612 0
M  V30 6835 C 660.309 2.98178 -1.9704 0
M  V30 6836 S 661.868 3.89226 -2.02605 0
M  V30 6837 H 658.686 0.572432 -0.421714 0
M  V30 6838 H 661.288 1.07279 -1.63436 0
M  V30 6839 H 659.992 2.788 -3.01163 0
M  V30 6840 H 659.523 3.62661 -1.5245 0
M  V30 6841 H 661.538 4.82913 -1.14059 0
M  V30 6842 N 660.711 1.11618 1.11262 0
M  V30 6843 C 661.661 0.745274 2.15475 0
M  V30 6844 C 662.645 -0.251585 1.58921 0
M  V30 6845 O 663.837 -0.0584093 1.76904 0
M  V30 6846 C 660.966 0.192128 3.42762 0
M  V30 6847 C 660.052 1.21676 4.0627 0
M  V30 6848 N 660.443 2.41158 4.44608 0
M  V30 6849 C 658.741 1.06013 4.33217 0
M  V30 6850 C 659.442 3.0652 4.94389 0
M  V30 6851 N 658.418 2.33994 4.9066 0
M  V30 6852 H 662.22 1.65462 2.42898 0
M  V30 6853 H 659.734 0.995695 1.28295 0
M  V30 6854 H 661.731 -0.0917339 4.16799 0
M  V30 6855 H 660.391 -0.711778 3.16802 0
M  V30 6856 H 661.402 2.786 4.3658 0
M  V30 6857 H 658.079 0.212809 4.16957 0
M  V30 6858 H 659.469 4.08225 5.33669 0
M  V30 6859 N 662.189 -1.289 0.906776 0
M  V30 6860 C 663.438 -1.9455 0.532262 0
M  V30 6861 C 663.751 -1.72219 -0.927353 0
M  V30 6862 O 664.957 -2.32033 -1.40971 0
M  V30 6863 C 663.413 -3.48438 0.901041 0
M  V30 6864 C 663.021 -3.79558 2.37991 0
M  V30 6865 C 664.765 -4.20284 0.596777 0
M  V30 6866 C 662.672 -5.26723 2.68918 0
M  V30 6867 H 661.602 -0.728259 0.195333 0
M  V30 6868 H 664.253 -1.46519 1.10474 0
M  V30 6869 H 662.635 -3.95162 0.257419 0
M  V30 6870 H 663.809 -3.43668 3.06967 0
M  V30 6871 H 662.124 -3.20868 2.65391 0
M  V30 6872 H 664.721 -5.28612 0.8046 0
M  V30 6873 H 665.064 -4.13694 -0.465072 0
M  V30 6874 H 665.597 -3.79315 1.19855 0
M  V30 6875 H 662.336 -5.38384 3.73928 0
M  V30 6876 H 661.856 -5.63836 2.04571 0
M  V30 6877 H 663.535 -5.94391 2.55555 0
M  V30 6878 N 663.667 -0.670007 -1.42649 0
M  V30 6879 C 664.892 -0.196955 -2.06463 0
M  V30 6880 C 665.317 1.1352 -1.49983 0
M  V30 6881 O 664.675 1.705 -0.616397 0
M  V30 6882 C 664.723 -0.137381 -3.60338 0
M  V30 6883 O 663.827 0.895523 -4.02559 0
M  V30 6884 H 663.168 -0.102579 -0.656029 0
M  V30 6885 H 665.698 -0.917669 -1.82866 0
M  V30 6886 H 665.708 0.0403625 -4.0798 0
M  V30 6887 H 664.383 -1.10977 -4.0082 0
M  V30 6888 H 662.96 0.689209 -3.66476 0
M  V30 6889 N 665.145 1.52092 -0.413018 0
M  V30 6890 C 666.393 2.01456 0.161178 0
M  V30 6891 C 666.714 1.30034 1.45314 0
M  V30 6892 O 665.984 0.427435 1.9118 0
M  V30 6893 H 664.564 0.744376 0.0625526 0
M  V30 6894 H 667.226 1.86974 -0.550151 0
M  V30 6895 H 666.322 3.1008 0.354517 0
M  V30 6896 N 666.623 0.143563 1.56945 0
M  V30 6897 C 667.869 -0.502787 1.97088 0
M  V30 6898 C 668.224 -1.62703 1.02691 0
M  V30 6899 O 667.517 -1.91502 0.0613323 0
M  V30 6900 C 667.711 -1.05885 3.41355 0
M  V30 6901 C 667.54 0.00998209 4.49699 0
M  V30 6902 C 666.31 0.450229 5.0329 0
M  V30 6903 C 668.508 0.800174 5.08037 0
M  V30 6904 N 666.49 1.50227 5.95235 0
M  V30 6905 C 667.861 1.70279 5.96158 0
M  V30 6906 C 669.916 0.848344 4.9062 0
M  V30 6907 C 668.619 2.64945 6.68728 0
M  V30 6908 C 670.645 1.78281 5.63888 0
M  V30 6909 C 670.007 2.67296 6.51715 0
M  V30 6910 H 666.106 -0.152891 0.766908 0
M  V30 6911 H 668.69 0.23737 1.93248 0
M  V30 6912 H 666.861 -1.76863 3.45795 0
M  V30 6913 H 668.593 -1.67154 3.68567 0
M  V30 6914 H 665.348 0.0531355 4.7357 0
M  V30 6915 H 665.772 2.02795 6.45913 0
M  V30 6916 H 670.414 0.174228 4.22441 0
M  V30 6917 H 668.132 3.33358 7.36137 0
M  V30 6918 H 671.718 1.82584 5.52408 0
M  V30 6919 H 670.598 3.38428 7.07415 0
M  V30 6920 N 668.101 -1.57061 -0.130224 0
M  V30 6921 C 669.349 -1.83893 -0.838313 0
M  V30 6922 C 669.67 -0.727046 -1.80939 0
M  V30 6923 O 668.94 0.249927 -1.94299 0
M  V30 6924 H 667.52 -0.67846 -0.312573 0
M  V30 6925 H 670.182 -1.94529 -0.120224 0
M  V30 6926 H 669.278 -2.79419 -1.39038 0
M  V30 6927 N 669.579 0.400081 -1.52437 0
M  V30 6928 C 670.825 1.14788 -1.67187 0
M  V30 6929 C 671.158 1.89928 -0.405074 0
M  V30 6930 O 670.433 1.85118 0.596804 0
M  V30 6931 C 670.716 2.13507 -2.89977 0
M  V30 6932 C 670.569 1.42204 -4.2673 0
M  V30 6933 C 671.888 3.14069 -3.083 0
M  V30 6934 H 669.007 0.415939 -0.608411 0
M  V30 6935 H 671.649 0.432542 -1.85011 0
M  V30 6936 H 669.799 2.7451 -2.74912 0
M  V30 6937 H 671.471 0.842503 -4.53541 0
M  V30 6938 H 669.714 0.723939 -4.27717 0
M  V30 6939 H 670.385 2.14281 -5.08712 0
M  V30 6940 H 672.861 2.63148 -3.22323 0
M  V30 6941 H 671.737 3.80398 -3.95713 0
M  V30 6942 H 671.998 3.82309 -2.22018 0
M  V30 6943 N 671.057 1.43213 0.657864 0
M  V30 6944 C 672.285 1.48015 1.44566 0
M  V30 6945 C 672.7 0.0965951 1.88553 0
M  V30 6946 O 672.057 -0.892221 1.59203 0
M  V30 6947 C 672.108 2.42199 2.68369 0
M  V30 6948 O 671.829 3.75173 2.26223 0
M  V30 6949 C 673.33 2.56195 3.61772 0
M  V30 6950 H 670.55 0.502861 0.444266 0
M  V30 6951 H 673.094 1.87907 0.806917 0
M  V30 6952 H 671.249 2.05514 3.28394 0
M  V30 6953 H 671.663 4.25776 3.06293 0
M  V30 6954 H 673.137 3.26182 4.4532 0
M  V30 6955 H 673.614 1.60534 4.0881 0
M  V30 6956 H 674.22 2.93671 3.07632 0
M  V30 6957 N 672.536 -0.895792 1.29666 0
M  V30 6958 C 673.446 -2.03329 1.17024 0
M  V30 6959 C 674.462 -1.73753 0.0925962 0
M  V30 6960 O 675.638 -1.99071 0.305431 0
M  V30 6961 C 672.703 -3.36072 0.851841 0
M  V30 6962 C 671.764 -3.7914 2.01373 0
M  V30 6963 C 670.997 -5.05549 1.71043 0
M  V30 6964 O 671.22 -5.66874 0.633213 0
M  V30 6965 O 670.154 -5.44764 2.5596 0
M  V30 6966 H 673.98 -2.16918 2.12556 0
M  V30 6967 H 671.565 -1.02007 1.09156 0
M  V30 6968 H 673.447 -4.15729 0.689006 0
M  V30 6969 H 672.122 -3.23616 -0.0736634 0
M  V30 6970 H 671.029 -3.00233 2.23183 0
M  V30 6971 H 672.362 -3.96186 2.92058 0
M  V30 6972 N 674.014 -1.12206 -1.10668 0
M  V30 6973 C 675.242 -0.898635 -1.86366 0
M  V30 6974 C 675.657 0.551991 -1.80551 0
M  V30 6975 O 675.014 1.38152 -1.19249 0
M  V30 6976 C 675.065 -1.36199 -3.34861 0
M  V30 6977 O 674.786 -2.75576 -3.40573 0
M  V30 6978 C 676.287 -1.17515 -4.2744 0
M  V30 6979 H 673.507 -0.321281 -0.589084 0
M  V30 6980 H 676.051 -1.49142 -1.39918 0
M  V30 6981 H 674.206 -0.81249 -3.78784 0
M  V30 6982 H 674.62 -2.95851 -4.33096 0
M  V30 6983 H 676.094 -1.54827 -5.29842 0
M  V30 6984 H 676.571 -0.115486 -4.39048 0
M  V30 6985 H 677.177 -1.71203 -3.89319 0
M  V30 6986 N 675.492 1.28418 -0.913599 0
M  V30 6987 C 676.74 1.94596 -0.545594 0
M  V30 6988 C 677.061 1.7227 0.913668 0
M  V30 6989 O 676.331 1.06233 1.64595 0
M  V30 6990 H 674.911 0.720065 -0.198783 0
M  V30 6991 H 677.573 1.56404 -1.16292 0
M  V30 6992 H 676.669 3.03202 -0.739911 0
M  V30 6993 N 676.97 0.677563 1.42291 0
M  V30 6994 C 677.917 0.000947061 2.308 0
M  V30 6995 C 678.887 -0.789889 1.46116 0
M  V30 6996 O 680.072 -0.761578 1.74942 0
M  V30 6997 C 677.212 -0.942387 3.31984 0
M  V30 6998 C 676.325 -0.14508 4.31756 0
M  V30 6999 C 675.46 -1.08442 5.20013 0
M  V30 7000 C 674.499 -0.278958 6.11464 0
M  V30 7001 N 673.636 -1.17115 6.92263 0
M  V30 7002 H 678.476 0.761521 2.88106 0
M  V30 7003 H 676.013 0.38727 1.41911 0
M  V30 7004 H 677.971 -1.50317 3.89179 0
M  V30 7005 H 676.601 -1.66956 2.76271 0
M  V30 7006 H 675.653 0.532368 3.76656 0
M  V30 7007 H 676.965 0.48015 4.96484 0
M  V30 7008 H 676.119 -1.71504 5.81955 0
M  V30 7009 H 674.858 -1.74353 4.55469 0
M  V30 7010 H 673.863 0.364856 5.48588 0
M  V30 7011 H 675.088 0.376099 6.78058 0
M  V30 7012 H 673.034 -1.81661 6.30345 0
M  V30 7013 H 672.951 -0.601063 7.53607 0
M  V30 7014 H 674.219 -1.78915 7.58689 0
M  V30 7015 N 678.448 -1.51871 0.421078 0
M  V30 7016 C 679.696 -2.01539 -0.150492 0
M  V30 7017 C 680.017 -1.30803 -1.44623 0
M  V30 7018 O 679.287 -0.437568 -1.90951 0
M  V30 7019 H 677.867 -0.744698 -0.0586041 0
M  V30 7020 H 680.529 -1.8668 0.560059 0
M  V30 7021 H 679.625 -3.10264 -0.338068 0
M  V30 7022 N 679.926 -0.151884 -1.56866 0
M  V30 7023 C 681.151 0.508044 -2.01081 0
M  V30 7024 C 681.576 1.57306 -1.03134 0
M  V30 7025 O 680.934 1.81298 -0.0078309 0
M  V30 7026 C 680.982 1.08106 -3.44014 0
M  V30 7027 O 680.086 2.19577 -3.49084 0
M  V30 7028 H 679.427 0.123757 -0.652365 0
M  V30 7029 H 681.957 -0.250055 -2.03066 0
M  V30 7030 H 681.967 1.40851 -3.82916 0
M  V30 7031 H 680.642 0.301168 -4.14808 0
M  V30 7032 H 679.219 1.88023 -3.22027 0
M  V30 7033 N 681.404 1.57128 0.121893 0
M  V30 7034 C 682.82 1.52357 0.47534 0
M  V30 7035 C 683.02 0.864417 1.82017 0
M  V30 7036 O 682.076 0.445529 2.48538 0
M  V30 7037 C 683.389 2.97122 0.4625 0
M  V30 7038 C 684.937 3.08196 0.546255 0
M  V30 7039 C 685.412 4.54516 0.563833 0
M  V30 7040 N 686.903 4.58959 0.625353 0
M  V30 7041 C 687.638 5.69585 0.660354 0
M  V30 7042 N 687.134 6.89714 0.653175 0
M  V30 7043 N 688.927 5.57685 0.703143 0
M  V30 7044 H 681.078 1.98364 -0.75931 0
M  V30 7045 H 683.341 0.905777 -0.279772 0
M  V30 7046 H 683.047 3.48706 -0.457943 0
M  V30 7047 H 682.921 3.54406 1.29136 0
M  V30 7048 H 685.308 2.56617 1.45712 0
M  V30 7049 H 685.389 2.53912 -0.310234 0
M  V30 7050 H 685.033 5.06741 -0.342974 0
M  V30 7051 H 684.963 5.06609 1.43716 0
M  V30 7052 H 687.454 3.72489 0.637182 0
M  V30 7053 H 687.767 7.69781 0.682425 0
M  V30 7054 H 686.112 6.92223 0.620646 0
M  V30 7055 H 689.303 4.62744 0.706095 0
M  V30 7056 H 689.476 6.43909 0.726952 0
M  V30 7057 N 682.882 -0.391992 1.52647 0
M  V30 7058 C 683.814 -1.49811 1.73463 0
M  V30 7059 C 684.827 -1.50734 0.615078 0
M  V30 7060 O 686.016 -1.5469 0.890696 0
M  V30 7061 C 683.116 -2.88667 1.77552 0
M  V30 7062 C 682.289 -3.11743 3.06815 0
M  V30 7063 C 681.348 -4.30564 3.02491 0
M  V30 7064 O 680.374 -4.27014 3.76361 0
M  V30 7065 N 681.576 -5.36593 2.21468 0
M  V30 7066 H 684.341 -1.32343 2.68897 0
M  V30 7067 H 681.902 -0.581475 1.51098 0
M  V30 7068 H 683.894 -3.66251 1.7217 0
M  V30 7069 H 682.464 -2.99508 0.895181 0
M  V30 7070 H 681.684 -2.2205 3.25711 0
M  V30 7071 H 682.972 -3.24013 3.92292 0
M  V30 7072 H 682.37 -5.42332 1.60913 0
M  V30 7073 H 680.927 -6.12855 2.21928 0
M  V30 7074 N 684.36 -1.4356 -0.65026 0
M  V30 7075 C 685.29 -1.51758 -1.77459 0
M  V30 7076 C 686.271 -0.372019 -1.65982 0
M  V30 7077 O 687.456 -0.589627 -1.85033 0
M  V30 7078 C 684.586 -1.44302 -3.15902 0
M  V30 7079 C 683.54 -2.57138 -3.42146 0
M  V30 7080 C 682.866 -2.34735 -4.8042 0
M  V30 7081 C 684.166 -3.99373 -3.36598 0
M  V30 7082 H 685.86 -2.45863 -1.70855 0
M  V30 7083 H 683.406 -1.18333 -0.820566 0
M  V30 7084 H 685.359 -1.48641 -3.94314 0
M  V30 7085 H 684.083 -0.467026 -3.23244 0
M  V30 7086 H 682.742 -2.52157 -2.66106 0
M  V30 7087 H 682.39 -1.35372 -4.84441 0
M  V30 7088 H 682.09 -3.10375 -4.9894 0
M  V30 7089 H 683.614 -2.40862 -5.61086 0
M  V30 7090 H 685.028 -4.05826 -4.04942 0
M  V30 7091 H 683.425 -4.75063 -3.66654 0
M  V30 7092 H 684.495 -4.243 -2.34729 0
M  V30 7093 N 685.838 0.888903 -1.30139 0
M  V30 7094 C 686.768 2.01046 -1.18755 0
M  V30 7095 C 687.749 1.69916 -0.0791438 0
M  V30 7096 O 688.934 1.92445 -0.260498 0
M  V30 7097 C 686.064 3.36109 -0.874518 0
M  V30 7098 C 685.018 3.81486 -1.94043 0
M  V30 7099 C 684.344 5.13796 -1.48047 0
M  V30 7100 C 685.644 4.00637 -3.35093 0
M  V30 7101 H 687.338 2.10828 -2.12584 0
M  V30 7102 H 684.884 1.01298 -1.02346 0
M  V30 7103 H 686.837 4.14089 -0.781548 0
M  V30 7104 H 685.561 3.26449 0.0994519 0
M  V30 7105 H 684.22 3.05731 -2.02297 0
M  V30 7106 H 683.868 5.0056 -0.494878 0
M  V30 7107 H 683.568 5.45127 -2.19341 0
M  V30 7108 H 685.092 5.94305 -1.40121 0
M  V30 7109 H 686.506 4.69067 -3.2962 0
M  V30 7110 H 684.903 4.43339 -4.04438 0
M  V30 7111 H 685.973 3.0462 -3.77273 0
M  V30 7112 N 687.317 1.12792 1.10072 0
M  V30 7113 C 688.594 0.796867 1.78632 0
M  V30 7114 C 688.974 -0.712739 1.98704 0
M  V30 7115 O 688.322 -1.64773 1.5831 0
M  V30 7116 C 688.532 1.57622 3.11378 0
M  V30 7117 C 689.88 1.76463 3.86194 0
M  V30 7118 O 690.904 1.54165 3.2111 0
M  V30 7119 O 689.763 2.13623 5.03018 0
M  V30 7120 H 686.857 0.290248 0.774394 0
M  V30 7121 H 689.403 1.23215 1.16688 0
M  V30 7122 H 688.175 2.60246 2.92212 0
M  V30 7123 H 687.798 1.13543 3.81043 0
M  V30 7124 N 688.795 -1.27931 0.920396 0
M  V30 7125 C 689.758 -2.25345 0.41858 0
M  V30 7126 C 690.758 -1.54116 -0.458798 0
M  V30 7127 O 691.948 -1.72235 -0.260912 0
M  V30 7128 C 689.08 -3.38556 -0.399104 0
M  V30 7129 H 690.273 -2.71251 1.27918 0
M  V30 7130 H 687.826 -1.39728 0.700406 0
M  V30 7131 H 688.561 -2.98021 -1.27882 0
M  V30 7132 H 688.346 -3.91426 0.229863 0
M  V30 7133 H 689.836 -4.10976 -0.740817 0
M  V30 7134 N 690.273 -0.685099 -1.4193 0
M  V30 7135 C 691.22 -0.0131869 -2.30796 0
M  V30 7136 C 692.19 0.782129 -1.46533 0
M  V30 7137 O 693.375 0.75229 -1.75343 0
M  V30 7138 C 690.515 0.924768 -3.32479 0
M  V30 7139 C 689.628 0.122181 -4.31827 0
M  V30 7140 C 688.763 1.05682 -5.20581 0
M  V30 7141 C 687.802 0.246526 -6.11603 0
M  V30 7142 N 686.939 1.13442 -6.92875 0
M  V30 7143 H 691.779 -0.776789 -2.87698 0
M  V30 7144 H 689.316 -0.394791 -1.41703 0
M  V30 7145 H 691.274 1.48251 -3.89971 0
M  V30 7146 H 689.904 1.65488 -2.77152 0
M  V30 7147 H 688.956 -0.552335 -3.76369 0
M  V30 7148 H 690.268 -0.506473 -4.96222 0
M  V30 7149 H 689.422 1.68415 -5.82856 0
M  V30 7150 H 688.161 1.71935 -4.56388 0
M  V30 7151 H 687.166 -0.393944 -5.48387 0
M  V30 7152 H 688.391 -0.412053 -6.77849 0
M  V30 7153 H 686.337 1.78316 -6.313 0
M  V30 7154 H 686.254 0.561089 -7.53915 0
M  V30 7155 H 687.522 1.74889 -7.59628 0
M  V30 7156 N 691.751 1.51645 -0.429126 0
M  V30 7157 C 692.997 2.02314 0.140286 0
M  V30 7158 C 693.33 1.31314 1.43074 0
M  V30 7159 O 692.605 0.425531 1.89788 0
M  V30 7160 C 692.888 3.5822 0.36749 0
M  V30 7161 C 692.741 4.39846 -0.941039 0
M  V30 7162 C 694.06 4.25055 1.14089 0
M  V30 7163 H 691.179 0.735335 0.0495112 0
M  V30 7164 H 693.821 1.81358 -0.566514 0
M  V30 7165 H 691.971 3.76207 0.969556 0
M  V30 7166 H 693.643 4.33527 -1.57646 0
M  V30 7167 H 691.886 4.05259 -1.54751 0
M  V30 7168 H 692.557 5.47069 -0.73621 0
M  V30 7169 H 695.033 4.11288 0.630986 0
M  V30 7170 H 693.909 5.34038 1.26863 0
M  V30 7171 H 694.17 3.85358 2.16683 0
M  V30 7172 N 693.229 0.160201 1.56784 0
M  V30 7173 C 694.176 -0.774416 2.1742 0
M  V30 7174 C 695.146 -1.23483 1.11091 0
M  V30 7175 O 696.331 -1.30499 1.39193 0
M  V30 7176 C 693.471 -2.00283 2.81035 0
M  V30 7177 C 692.584 -1.58701 4.01793 0
M  V30 7178 C 691.719 -2.76824 4.53367 0
M  V30 7179 C 690.758 -2.31679 5.66561 0
M  V30 7180 N 689.895 -3.42856 6.12694 0
M  V30 7181 H 694.735 -0.250542 2.96945 0
M  V30 7182 H 692.272 -0.111943 1.46673 0
M  V30 7183 H 694.23 -2.72316 3.16069 0
M  V30 7184 H 692.86 -2.5006 2.04132 0
M  V30 7185 H 691.912 -0.76384 3.72652 0
M  V30 7186 H 693.224 -1.21555 4.83762 0
M  V30 7187 H 692.378 -3.57029 4.90525 0
M  V30 7188 H 691.117 -3.17223 3.70433 0
M  V30 7189 H 690.122 -1.49917 5.28966 0
M  V30 7190 H 691.347 -1.9235 6.5129 0
M  V30 7191 H 689.293 -3.82852 5.32692 0
M  V30 7192 H 689.21 -3.09767 6.89624 0
M  V30 7193 H 690.478 -4.23379 6.545 0
M  V30 7194 N 694.707 -1.5719 -0.113559 0
M  V30 7195 C 695.637 -2.03772 -1.14013 0
M  V30 7196 C 696.618 -0.923176 -1.42869 0
M  V30 7197 O 697.803 -1.19325 -1.53216 0
M  V30 7198 C 694.933 -2.44663 -2.4649 0
M  V30 7199 C 693.887 -3.59612 -2.32085 0
M  V30 7200 C 693.213 -3.8642 -3.69573 0
M  V30 7201 C 694.513 -4.91149 -1.7768 0
M  V30 7202 H 696.207 -2.89785 -0.752665 0
M  V30 7203 H 693.753 -1.39412 -0.360609 0
M  V30 7204 H 695.706 -2.75857 -3.18561 0
M  V30 7205 H 694.43 -1.55628 -2.87137 0
M  V30 7206 H 693.089 -3.28636 -1.62461 0
M  V30 7207 H 692.737 -2.94581 -4.07715 0
M  V30 7208 H 692.437 -4.63797 -3.60786 0
M  V30 7209 H 693.961 -4.2007 -4.4314 0
M  V30 7210 H 695.375 -5.20843 -2.39574 0
M  V30 7211 H 693.772 -5.72562 -1.79701 0
M  V30 7212 H 694.842 -4.79301 -0.734776 0
M  V30 7213 N 696.185 0.383891 -1.52853 0
M  V30 7214 C 697.434 1.12563 -1.67369 0
M  V30 7215 C 697.747 1.90982 -0.422533 0
M  V30 7216 O 698.953 2.6778 -0.447914 0
M  V30 7217 C 697.409 2.05011 -2.95801 0
M  V30 7218 C 697.017 1.31991 -4.28115 0
M  V30 7219 C 698.761 2.79289 -3.19684 0
M  V30 7220 C 696.668 2.23235 -5.4765 0
M  V30 7221 H 695.598 0.42391 -0.623552 0
M  V30 7222 H 698.249 0.388016 -1.79351 0
M  V30 7223 H 696.631 2.82429 -2.77578 0
M  V30 7224 H 697.805 0.597633 -4.56908 0
M  V30 7225 H 696.12 0.696517 -4.10533 0
M  V30 7226 H 698.717 3.47749 -4.06171 0
M  V30 7227 H 699.06 3.43649 -2.3497 0
M  V30 7228 H 699.593 2.08962 -3.38496 0
M  V30 7229 H 696.332 1.63482 -6.34786 0
M  V30 7230 H 695.852 2.93364 -5.23161 0
M  V30 7231 H 697.531 2.83205 -5.81725 0
M  V30 7232 N 697.663 1.43903 0.642637 0
M  V30 7233 C 698.626 1.49538 1.73698 0
M  V30 7234 C 699.626 0.378776 1.56275 0
M  V30 7235 O 700.816 0.64095 1.6198 0
M  V30 7236 C 697.948 1.35821 3.12675 0
M  V30 7237 H 699.141 2.47008 1.70079 0
M  V30 7238 H 696.694 1.30824 0.85526 0
M  V30 7239 H 697.429 0.393994 3.21898 0
M  V30 7240 H 697.214 2.16776 3.26727 0
M  V30 7241 H 698.704 1.4272 3.92455 0
M  V30 7242 N 699.141 -0.881989 1.30609 0
M  V30 7243 C 700.089 -2.00942 1.17155 0
M  V30 7244 C 701.083 -1.69198 0.0827154 0
M  V30 7245 O 702.289 -1.78342 0.243775 0
M  V30 7246 H 698.664 -0.658913 0.362406 0
M  V30 7247 H 700.635 -2.09423 2.12567 0
M  V30 7248 C 699.384 -3.36294 0.883273 0
M  V30 7249 H 698.707 -3.61233 1.7132 0
M  V30 7250 H 700.147 -4.15812 0.829255 0
M  V30 7251 C 698.606 -3.34348 -0.413851 0
M  V30 7252 O 699.136 -3.75216 -1.43444 0
M  V30 7253 N 697.342 -2.87459 -0.426082 0
M  V30 7254 H 696.889 -2.54397 0.40493 0
M  V30 7255 H 696.847 -2.8654 -1.29391 0
M  V30 7256 N 700.619 -1.13374 -1.09472 0
M  V30 7257 C 701.847 -0.918351 -1.85402 0
M  V30 7258 C 702.262 0.53281 -1.81126 0
M  V30 7259 O 701.619 1.36879 -1.20708 0
M  V30 7260 C 701.67 -1.39743 -3.33398 0
M  V30 7261 O 701.391 -2.79172 -3.37631 0
M  V30 7262 C 702.892 -1.22042 -4.2617 0
M  V30 7263 H 700.112 -0.327511 -0.585643 0
M  V30 7264 H 702.656 -1.50617 -1.38328 0
M  V30 7265 H 700.811 -0.852619 -3.77901 0
M  V30 7266 H 701.225 -3.00428 -4.29934 0
M  V30 7267 H 702.699 -1.60438 -5.2817 0
M  V30 7268 H 703.176 -0.162047 -4.38901 0
M  V30 7269 H 703.782 -1.75323 -3.87482 0
M  V30 7270 N 702.098 1.27442 -0.927168 0
M  V30 7271 C 703.028 2.29256 -0.443188 0
M  V30 7272 C 704.009 1.62701 0.49624 0
M  V30 7273 O 705.194 1.90013 0.401105 0
M  V30 7274 C 702.324 3.45955 0.305366 0
M  V30 7275 C 701.278 4.24501 -0.546178 0
M  V30 7276 C 700.604 5.33671 0.331512 0
M  V30 7277 C 701.904 4.89921 -1.81037 0
M  V30 7278 H 703.598 2.69988 -1.29409 0
M  V30 7279 H 701.144 1.29792 -0.623705 0
M  V30 7280 H 703.097 4.1628 0.654885 0
M  V30 7281 H 701.821 3.04138 1.19029 0
M  V30 7282 H 700.48 3.55921 -0.878398 0
M  V30 7283 H 700.128 4.88096 1.21537 0
M  V30 7284 H 699.828 5.87131 -0.234746 0
M  V30 7285 H 701.352 6.0684 0.676614 0
M  V30 7286 H 702.766 5.52536 -1.52895 0
M  V30 7287 H 701.163 5.53436 -2.32009 0
M  V30 7288 H 702.233 4.13652 -2.53021 0
M  V30 7289 N 703.576 0.692616 1.41565 0
M  V30 7290 C 704.816 0.226453 2.03142 0
M  V30 7291 C 705.18 -1.1512 1.5366 0
M  V30 7292 O 706.381 -1.71305 2.07143 0
M  V30 7293 C 704.652 0.27855 3.56313 0
M  V30 7294 S 706.211 -0.114001 4.38652 0
M  V30 7295 H 703.029 0.0914767 0.705091 0
M  V30 7296 H 705.631 0.909737 1.73043 0
M  V30 7297 H 704.335 1.28325 3.89821 0
M  V30 7298 H 703.866 -0.423981 3.91109 0
M  V30 7299 H 705.881 -1.34256 4.77692 0
M  V30 7300 N 705.054 -1.51416 0.437162 0
M  V30 7301 C 706.002 -2.29328 -0.388765 0
M  V30 7302 C 706.996 -1.35171 -1.02104 0
M  V30 7303 O 708.202 -1.52513 -0.956024 0
M  V30 7304 H 704.577 -0.738048 -0.144183 0
M  V30 7305 H 706.548 -2.96995 0.289212 0
M  V30 7306 C 705.297 -3.14741 -1.47761 0
M  V30 7307 H 704.62 -3.8708 -1.00045 0
M  V30 7308 H 706.06 -3.72313 -2.02877 0
M  V30 7309 C 704.519 -2.30105 -2.46076 0
M  V30 7310 O 705.049 -1.96055 -3.50607 0
M  V30 7311 N 703.255 -1.93331 -2.1696 0
M  V30 7312 H 702.802 -2.2122 -1.31983 0
M  V30 7313 H 702.76 -1.36999 -2.82982 0
M  V30 7314 N 706.532 -0.168513 -1.56696 0
M  V30 7315 C 707.757 0.486688 -2.01609 0
M  V30 7316 C 708.182 1.56203 -1.04796 0
M  V30 7317 O 707.54 1.8128 -0.0270596 0
M  V30 7318 C 707.588 1.04451 -3.45141 0
M  V30 7319 O 706.692 2.15862 -3.51393 0
M  V30 7320 H 706.033 0.116831 -0.653641 0
M  V30 7321 H 708.563 -0.271579 -2.0279 0
M  V30 7322 H 708.573 1.36782 -3.84389 0
M  V30 7323 H 707.248 0.257155 -4.15104 0
M  V30 7324 H 705.825 1.84597 -3.24004 0
M  V30 7325 N 708.01 1.57248 0.105221 0
M  V30 7326 C 709.426 1.52853 0.459153 0
M  V30 7327 C 709.626 0.883674 1.8109 0
M  V30 7328 O 708.682 0.471864 2.48052 0
M  V30 7329 C 709.995 2.97596 0.43096 0
M  V30 7330 C 711.543 3.08758 0.513536 0
M  V30 7331 C 712.018 4.55089 0.515593 0
M  V30 7332 N 713.509 4.59597 0.576639 0
M  V30 7333 C 714.244 5.70253 0.599904 0
M  V30 7334 N 713.74 6.90368 0.579985 0
M  V30 7335 N 715.533 5.58399 0.643953 0
M  V30 7336 H 707.684 1.97547 -0.780306 0
M  V30 7337 H 709.947 0.902758 -0.289363 0
M  V30 7338 H 709.653 3.48201 -0.494903 0
M  V30 7339 H 709.527 3.55756 1.2537 0
M  V30 7340 H 711.914 2.58148 1.42982 0
M  V30 7341 H 711.995 2.53568 -0.337148 0
M  V30 7342 H 711.639 5.06348 -0.396701 0
M  V30 7343 H 711.569 5.08105 1.38335 0
M  V30 7344 H 714.06 3.73144 0.597639 0
M  V30 7345 H 714.373 7.70462 0.600741 0
M  V30 7346 H 712.718 6.92843 0.547191 0
M  V30 7347 H 715.909 4.63467 0.656975 0
M  V30 7348 H 716.082 6.44644 0.658616 0
M  V30 7349 N 709.488 -0.375779 1.53054 0
M  V30 7350 C 710.42 -1.47963 1.75042 0
M  V30 7351 C 711.433 -1.50073 0.631031 0
M  V30 7352 O 712.622 -1.53736 0.907052 0
M  V30 7353 C 709.722 -2.86767 1.80604 0
M  V30 7354 C 708.895 -3.08471 3.10104 0
M  V30 7355 C 707.954 -4.27332 3.07041 0
M  V30 7356 O 706.98 -4.22998 3.80869 0
M  V30 7357 N 708.182 -5.34214 2.27147 0
M  V30 7358 H 710.947 -1.29484 2.70285 0
M  V30 7359 H 708.508 -0.565416 1.51706 0
M  V30 7360 H 710.5 -3.64404 1.76045 0
M  V30 7361 H 709.07 -2.98542 0.926897 0
M  V30 7362 H 708.29 -2.18583 3.28048 0
M  V30 7363 H 709.578 -3.19834 3.95706 0
M  V30 7364 H 708.976 -5.40594 1.66656 0
M  V30 7365 H 707.533 -6.10467 2.28415 0
M  V30 7366 N 710.966 -1.44241 -0.634997 0
M  V30 7367 C 711.896 -1.53632 -1.7584 0
M  V30 7368 C 712.877 -0.389603 -1.65578 0
M  V30 7369 O 714.062 -0.609219 -1.84397 0
M  V30 7370 C 711.192 -1.47644 -3.14354 0
M  V30 7371 C 710.146 -2.60752 -3.394 0
M  V30 7372 C 709.472 -2.39817 -4.77904 0
M  V30 7373 C 710.772 -4.02921 -3.32343 0
M  V30 7374 H 712.466 -2.47662 -1.68238 0
M  V30 7375 H 710.012 -1.19197 -0.807969 0
M  V30 7376 H 711.965 -1.52815 -3.92716 0
M  V30 7377 H 710.689 -0.501284 -3.2273 0
M  V30 7378 H 709.348 -2.54965 -2.63417 0
M  V30 7379 H 708.996 -1.40502 -4.82978 0
M  V30 7380 H 708.696 -3.15649 -4.9562 0
M  V30 7381 H 710.22 -2.46799 -5.585 0
M  V30 7382 H 711.634 -4.10098 -4.00615 0
M  V30 7383 H 710.031 -4.78925 -3.61595 0
M  V30 7384 H 711.101 -4.26766 -2.30215 0
M  V30 7385 N 712.444 0.87505 -1.31075 0
M  V30 7386 C 713.674 1.65818 -1.2324 0
M  V30 7387 C 714.082 1.8808 0.205536 0
M  V30 7388 O 713.425 1.43548 1.14628 0
M  V30 7389 C 713.487 3.05131 -1.90093 0
M  V30 7390 C 713.151 3.05999 -3.39432 0
M  V30 7391 C 714.148 2.84328 -4.35263 0
M  V30 7392 C 711.833 3.27281 -3.81041 0
M  V30 7393 C 713.827 2.83912 -5.70678 0
M  V30 7394 C 711.514 3.26493 -5.16571 0
M  V30 7395 C 712.512 3.04834 -6.112 0
M  V30 7396 O 712.2 3.03882 -7.44252 0
M  V30 7397 H 711.932 0.52387 -0.427242 0
M  V30 7398 H 714.486 1.10086 -1.73408 0
M  V30 7399 H 712.716 3.62568 -1.34468 0
M  V30 7400 H 714.405 3.65641 -1.76242 0
M  V30 7401 H 715.171 2.67673 -4.04445 0
M  V30 7402 H 711.05 3.43171 -3.07822 0
M  V30 7403 H 714.594 2.66925 -6.44513 0
M  V30 7404 H 710.491 3.42687 -5.47025 0
M  V30 7405 H 711.259 3.19979 -7.53363 0
M  V30 7406 N 713.922 1.13953 1.08869 0
M  V30 7407 C 715.199 0.815768 1.77777 0
M  V30 7408 C 715.579 -0.691624 1.99449 0
M  V30 7409 O 714.927 -1.63085 1.60049 0
M  V30 7410 C 715.137 1.60916 3.09689 0
M  V30 7411 C 716.485 1.80549 3.84301 0
M  V30 7412 O 717.509 1.57562 3.19457 0
M  V30 7413 O 716.368 2.18946 5.00724 0
M  V30 7414 H 713.462 0.298445 0.771271 0
M  V30 7415 H 716.008 1.24446 1.15374 0
M  V30 7416 H 714.78 2.6333 2.89435 0
M  V30 7417 H 714.403 1.17578 3.79817 0
M  V30 7418 N 715.4 -1.26948 0.933913 0
M  V30 7419 C 716.35 -2.24306 0.408779 0
M  V30 7420 C 717.334 -1.53243 -0.490435 0
M  V30 7421 O 718.526 -1.73956 -0.326866 0
M  V30 7422 C 715.655 -3.41695 -0.331578 0
M  V30 7423 C 714.741 -4.20053 0.58451 0
M  V30 7424 N 715.132 -4.76122 1.70709 0
M  V30 7425 C 713.43 -4.44303 0.388703 0
M  V30 7426 C 714.131 -5.35267 2.27737 0
M  V30 7427 N 713.107 -5.20548 1.56622 0
M  V30 7428 H 716.909 -2.65244 1.26582 0
M  V30 7429 H 714.423 -1.4195 0.788919 0
M  V30 7430 H 716.42 -4.10552 -0.724774 0
M  V30 7431 H 715.08 -3.02286 -1.18547 0
M  V30 7432 H 716.091 -4.73884 2.08937 0
M  V30 7433 H 712.768 -4.15341 -0.424016 0
M  V30 7434 H 714.158 -5.89563 3.22282 0
M  V30 7435 N 716.879 -0.700114 -1.41195 0
M  V30 7436 C 717.812 0.0129614 -2.28196 0
M  V30 7437 C 718.79 0.783367 -1.42486 0
M  V30 7438 O 719.974 0.773238 -1.71911 0
M  V30 7439 C 717.101 1.02575 -3.22794 0
M  V30 7440 C 716.147 0.347977 -4.25078 0
M  V30 7441 S 716.98 -0.912938 -5.27661 0
M  V30 7442 C 718.136 0.0981362 -6.25823 0
M  V30 7443 H 718.369 -0.724927 -2.88326 0
M  V30 7444 H 715.902 -0.490554 -1.464 0
M  V30 7445 H 717.86 1.60491 -3.77826 0
M  V30 7446 H 716.521 1.73624 -2.61751 0
M  V30 7447 H 715.714 1.11305 -4.91556 0
M  V30 7448 H 715.316 -0.15823 -3.73665 0
M  V30 7449 H 717.608 0.949965 -6.70807 0
M  V30 7450 H 718.551 -0.532838 -7.06092 0
M  V30 7451 H 718.959 0.454944 -5.62664 0
M  V30 7452 N 718.357 1.51182 -0.445186 0
M  V30 7453 C 719.606 2.01342 0.120189 0
M  V30 7454 C 719.919 1.33353 1.43095 0
M  V30 7455 O 721.125 1.74525 2.07974 0
M  V30 7456 C 719.581 3.58925 0.264732 0
M  V30 7457 C 719.189 4.35855 -1.03606 0
M  V30 7458 C 720.933 4.17208 0.783455 0
M  V30 7459 C 718.84 5.85162 -0.856731 0
M  V30 7460 H 717.77 0.752426 0.0486922 0
M  V30 7461 H 720.421 1.74221 -0.576143 0
M  V30 7462 H 718.803 3.82525 1.02425 0
M  V30 7463 H 719.977 4.23997 -1.80452 0
M  V30 7464 H 718.292 3.89062 -1.48391 0
M  V30 7465 H 720.889 5.26475 0.934239 0
M  V30 7466 H 721.232 3.76892 1.768 0
M  V30 7467 H 721.765 3.97715 0.0820346 0
M  V30 7468 H 718.504 6.29904 -1.81388 0
M  V30 7469 H 718.024 5.99663 -0.128206 0
M  V30 7470 H 719.703 6.44963 -0.513027 0
M  V30 7471 N 719.835 0.176821 1.56605 0
M  V30 7472 C 721.112 -0.513365 1.88743 0
M  V30 7473 C 721.492 -1.80929 1.08757 0
M  V30 7474 O 720.84 -2.27765 0.183127 0
M  V30 7475 C 721.05 -0.749925 3.40848 0
M  V30 7476 C 722.398 -1.07747 4.10701 0
M  V30 7477 O 723.422 -0.838277 3.46196 0
M  V30 7478 O 722.281 -1.52901 5.24675 0
M  V30 7479 H 719.375 -0.265296 0.783292 0
M  V30 7480 H 721.921 0.215669 1.68324 0
M  V30 7481 H 720.693 0.16599 3.90948 0
M  V30 7482 H 720.316 -1.53208 3.66897 0
M  V30 7483 N 721.313 -1.57302 -0.09688 0
M  V30 7484 C 722.59 -1.7701 -0.832272 0
M  V30 7485 C 722.97 -0.758025 -1.97021 0
M  V30 7486 O 722.318 0.213824 -2.27497 0
M  V30 7487 C 722.528 -3.22725 -1.32851 0
M  V30 7488 C 723.876 -3.85856 -1.772 0
M  V30 7489 O 724.9 -3.26464 -1.42478 0
M  V30 7490 O 723.759 -4.90295 -2.41398 0
M  V30 7491 H 720.853 -0.725558 -0.396856 0
M  V30 7492 H 723.399 -1.69516 -0.0789005 0
M  V30 7493 H 722.171 -3.87921 -0.51312 0
M  V30 7494 H 721.794 -3.34845 -2.14394 0
M  V30 7495 N 722.791 0.367657 -1.53252 0
M  V30 7496 C 724.016 1.13566 -1.73544 0
M  V30 7497 C 724.441 1.82329 -0.462344 0
M  V30 7498 O 723.799 1.71655 0.583472 0
M  V30 7499 C 723.847 2.14322 -2.89997 0
M  V30 7500 O 722.951 3.21359 -2.58461 0
M  V30 7501 H 722.292 0.329614 -0.576412 0
M  V30 7502 H 724.822 0.425417 -2.00128 0
M  V30 7503 H 724.832 2.57958 -3.16104 0
M  V30 7504 H 723.507 1.63664 -3.82344 0
M  V30 7505 H 722.084 2.8271 -2.43165 0
M  V30 7506 N 724.269 1.44576 0.627338 0
M  V30 7507 C 725.202 1.46206 1.75212 0
M  V30 7508 C 726.18 0.320483 1.5941 0
M  V30 7509 O 727.364 0.518028 1.81242 0
M  V30 7510 C 724.491 1.29834 3.12827 0
M  V30 7511 C 723.537 2.47603 3.47268 0
M  V30 7512 S 724.37 4.10125 3.44322 0
M  V30 7513 C 725.526 3.96183 4.84551 0
M  V30 7514 H 725.759 2.41378 1.73563 0
M  V30 7515 H 723.292 1.3192 0.802283 0
M  V30 7516 H 725.25 1.21075 3.92239 0
M  V30 7517 H 723.911 0.361662 3.12011 0
M  V30 7518 H 723.104 2.3202 4.47418 0
M  V30 7519 H 722.706 2.53121 2.75329 0
M  V30 7520 H 724.998 3.60107 5.73872 0
M  V30 7521 H 725.941 4.96176 5.05188 0
M  V30 7522 H 726.349 3.28177 4.59304 0
M  V30 7523 N 725.747 -0.868086 1.31537 0
M  V30 7524 C 726.996 -1.61607 1.20689 0
M  V30 7525 C 727.309 -1.94204 -0.233275 0
M  V30 7526 O 728.515 -2.67515 -0.463465 0
M  V30 7527 C 726.971 -2.91348 2.11292 0
M  V30 7528 C 726.579 -2.66227 3.60315 0
M  V30 7529 C 728.323 -3.69344 2.09249 0
M  V30 7530 C 726.23 -3.91887 4.42921 0
M  V30 7531 H 725.16 -0.606373 0.448138 0
M  V30 7532 H 727.811 -0.959666 1.56405 0
M  V30 7533 H 726.193 -3.58374 1.68477 0
M  V30 7534 H 727.367 -2.07597 4.11388 0
M  V30 7535 H 725.682 -2.01582 3.64354 0
M  V30 7536 H 728.279 -4.62567 2.68209 0
M  V30 7537 H 728.622 -4.02044 1.0801 0
M  V30 7538 H 729.155 -3.09205 2.50274 0
M  V30 7539 H 725.894 -3.64336 5.44922 0
M  V30 7540 H 725.414 -4.49961 3.96605 0
M  V30 7541 H 727.093 -4.59754 4.55231 0
M  V30 7542 N 727.225 -1.14528 -1.08264 0
M  V30 7543 C 728.465 -0.924808 -1.82282 0
M  V30 7544 C 728.829 0.538881 -1.84283 0
M  V30 7545 O 730.03 0.877355 -2.54079 0
M  V30 7546 C 728.301 -1.51102 -3.23887 0
M  V30 7547 S 729.86 -1.43232 -4.14765 0
M  V30 7548 H 726.678 -0.333052 -0.62817 0
M  V30 7549 H 729.28 -1.45905 -1.30123 0
M  V30 7550 H 727.984 -2.56942 -3.20014 0
M  V30 7551 H 727.515 -0.975234 -3.8112 0
M  V30 7552 H 729.53 -0.418843 -4.94429 0
M  V30 7553 N 728.703 1.26451 -0.940633 0
M  V30 7554 C 729.666 2.24651 -0.454378 0
M  V30 7555 C 730.666 1.54826 0.434222 0
M  V30 7556 O 731.856 1.72628 0.233477 0
M  V30 7557 C 728.988 3.39148 0.345192 0
M  V30 7558 H 730.181 2.69182 -1.32217 0
M  V30 7559 H 727.734 1.38596 -0.722547 0
M  V30 7560 H 728.469 3.00018 1.23125 0
M  V30 7561 H 728.254 3.9101 -0.292107 0
M  V30 7562 H 729.744 4.12103 0.675341 0
M  V30 7563 N 730.181 0.707592 1.40822 0
M  V30 7564 C 731.429 0.243189 2.00632 0
M  V30 7565 C 731.75 -1.16512 1.56365 0
M  V30 7566 O 731.02 -1.78841 0.799553 0
M  V30 7567 H 729.6 0.0869203 0.741926 0
M  V30 7568 H 732.262 0.911438 1.72275 0
M  V30 7569 H 731.358 0.270014 3.1093 0
M  V30 7570 N 731.66 -1.50943 0.453197 0
M  V30 7571 C 732.608 -2.29728 -0.364419 0
M  V30 7572 C 733.602 -1.36246 -1.00664 0
M  V30 7573 O 734.808 -1.53518 -0.939794 0
M  V30 7574 H 731.183 -0.739536 -0.136347 0
M  V30 7575 H 733.154 -2.96672 0.320696 0
M  V30 7576 C 731.903 -3.1629 -1.44415 0
M  V30 7577 H 731.226 -3.88119 -0.959343 0
M  V30 7578 H 732.666 -3.74444 -1.98917 0
M  V30 7579 C 731.125 -2.32702 -2.43622 0
M  V30 7580 O 731.655 -1.99763 -3.48508 0
M  V30 7581 N 729.861 -1.95621 -2.14897 0
M  V30 7582 H 729.408 -2.22607 -1.29629 0
M  V30 7583 H 729.366 -1.39993 -2.81513 0
M  V30 7584 N 733.138 -0.185124 -1.56509 0
M  V30 7585 C 734.068 0.735098 -2.21627 0
M  V30 7586 C 735.049 1.2288 -1.1762 0
M  V30 7587 O 736.234 1.27945 -1.46095 0
M  V30 7588 C 733.364 1.95889 -2.86783 0
M  V30 7589 C 732.318 1.6005 -3.96948 0
M  V30 7590 C 731.644 2.90009 -4.4922 0
M  V30 7591 C 732.944 0.818008 -5.15855 0
M  V30 7592 H 734.638 0.192274 -2.98782 0
M  V30 7593 H 732.184 0.0910393 -1.43712 0
M  V30 7594 H 734.137 2.60779 -3.31017 0
M  V30 7595 H 732.861 2.52608 -2.07018 0
M  V30 7596 H 731.52 0.975237 -3.5339 0
M  V30 7597 H 731.168 3.44797 -3.6623 0
M  V30 7598 H 730.868 2.66778 -5.23549 0
M  V30 7599 H 732.392 3.55904 -4.9615 0
M  V30 7600 H 733.806 1.36979 -5.56695 0
M  V30 7601 H 732.203 0.684207 -5.96187 0
M  V30 7602 H 733.273 -0.182939 -4.84555 0
M  V30 7603 N 734.616 1.57351 0.0885366 0
M  V30 7604 C 735.548 1.99221 1.13329 0
M  V30 7605 C 736.561 0.895705 1.35945 0
M  V30 7606 O 737.75 1.17376 1.34481 0
M  V30 7607 C 734.85 2.3016 2.48756 0
M  V30 7608 C 734.023 3.61444 2.46327 0
M  V30 7609 C 733.082 3.80244 3.63732 0
M  V30 7610 O 732.108 4.52024 3.45924 0
M  V30 7611 N 733.31 3.2132 4.8346 0
M  V30 7612 H 736.075 2.89456 0.776862 0
M  V30 7613 H 733.636 1.59505 0.277428 0
M  V30 7614 H 735.628 2.39925 3.25911 0
M  V30 7615 H 734.198 1.459 2.76464 0
M  V30 7616 H 733.418 3.62588 1.54673 0
M  V30 7617 H 734.706 4.47678 2.41789 0
M  V30 7618 H 734.104 2.63028 5.00832 0
M  V30 7619 H 732.661 3.3656 5.58185 0
M  V30 7620 N 736.094 -0.359525 1.53444 0
M  V30 7621 C 737.041 -1.44073 1.8031 0
M  V30 7622 C 738.011 -1.52946 0.647811 0
M  V30 7623 O 739.196 -1.68739 0.890614 0
M  V30 7624 C 736.336 -2.80941 2.00416 0
M  V30 7625 C 735.449 -2.80986 3.28132 0
M  V30 7626 C 734.584 -4.09468 3.38393 0
M  V30 7627 C 733.623 -4.03679 4.60119 0
M  V30 7628 N 732.76 -5.23821 4.675 0
M  V30 7629 H 737.6 -1.20464 2.72566 0
M  V30 7630 H 735.137 -0.583859 1.35017 0
M  V30 7631 H 737.095 -3.60459 2.1006 0
M  V30 7632 H 735.725 -3.02936 1.11489 0
M  V30 7633 H 734.777 -1.93666 3.27411 0
M  V30 7634 H 736.089 -2.72583 4.17732 0
M  V30 7635 H 735.243 -4.97404 3.47382 0
M  V30 7636 H 733.982 -4.20632 2.4682 0
M  V30 7637 H 732.987 -3.14129 4.51224 0
M  V30 7638 H 734.212 -3.94112 5.5304 0
M  V30 7639 H 732.158 -5.35559 3.7883 0
M  V30 7640 H 732.075 -5.17611 5.51013 0
M  V30 7641 H 733.343 -6.13572 4.8078 0
M  V30 7642 N 737.572 -1.44907 -0.619662 0
M  V30 7643 C 738.983 -1.42905 -1.20146 0
M  V30 7644 C 739.334 -0.150341 -1.95623 0
M  V30 7645 O 738.459 0.748732 -2.03034 0
M  V30 7646 C 739.054 -2.58889 -2.18545 0
M  V30 7647 C 737.613 -2.60046 -2.72127 0
M  V30 7648 C 736.76 -2.3493 -1.4732 0
M  V30 7649 H 739.711 -1.53321 -0.409666 0
M  V30 7650 H 739.732 -2.32298 -3.0136 0
M  V30 7651 H 739.244 -3.51941 -1.63583 0
M  V30 7652 H 737.345 -1.70968 -3.3106 0
M  V30 7653 H 737.458 -3.58893 -3.17384 0
M  V30 7654 H 735.822 -1.84248 -1.75855 0
M  V30 7655 H 736.605 -3.3011 -0.942442 0
M  V30 7656 N 739.05 0.861098 -1.31996 0
M  V30 7657 C 740.298 1.61162 -1.21947 0
M  V30 7658 C 740.619 1.93751 0.220351 0
M  V30 7659 O 739.889 1.59069 1.14341 0
M  V30 7660 H 738.469 0.597485 -0.448353 0
M  V30 7661 H 741.131 1.03039 -1.65436 0
M  V30 7662 H 740.227 2.55138 -1.79752 0
M  V30 7663 N 740.528 1.15101 1.07655 0
M  V30 7664 C 741.46 0.802722 2.14684 0
M  V30 7665 C 742.473 -0.183874 1.61758 0
M  V30 7666 O 743.662 0.0389349 1.78458 0
M  V30 7667 C 740.762 0.172135 3.38463 0
M  V30 7668 C 739.935 1.19538 4.20749 0
M  V30 7669 C 738.994 0.58714 5.22914 0
M  V30 7670 O 738.02 1.25224 5.55255 0
M  V30 7671 N 739.222 -0.632566 5.77043 0
M  V30 7672 H 741.987 1.72379 2.45164 0
M  V30 7673 H 739.548 1.04647 1.23534 0
M  V30 7674 H 741.54 -0.247465 4.03943 0
M  V30 7675 H 740.11 -0.652214 3.0572 0
M  V30 7676 H 739.33 1.79165 3.51132 0
M  V30 7677 H 740.618 1.88636 4.7254 0
M  V30 7678 H 740.016 -1.19135 5.53013 0
M  V30 7679 H 738.573 -0.994566 6.44167 0
M  V30 7680 N 742.006 -1.2595 0.947325 0
M  V30 7681 C 743.283 -1.88676 0.515824 0
M  V30 7682 C 743.663 -1.85547 -1.00675 0
M  V30 7683 O 743.011 -1.31399 -1.8694 0
M  V30 7684 C 743.221 -3.31734 1.08415 0
M  V30 7685 C 744.569 -4.08545 1.15654 0
M  V30 7686 O 745.593 -3.40826 1.03517 0
M  V30 7687 O 744.452 -5.29663 1.34608 0
M  V30 7688 H 741.546 -0.809537 0.169055 0
M  V30 7689 H 744.092 -1.34075 1.04029 0
M  V30 7690 H 742.864 -3.28404 2.1276 0
M  V30 7691 H 742.487 -3.93882 0.542499 0
M  V30 7692 N 743.484 -0.715051 -1.40445 0
M  V30 7693 C 744.712 -0.263959 -2.05209 0
M  V30 7694 C 745.127 1.09403 -1.53871 0
M  V30 7695 O 744.484 1.68746 -0.695064 0
M  V30 7696 C 744.535 -0.234545 -3.60738 0
M  V30 7697 O 744.256 -1.53891 -4.10182 0
M  V30 7698 C 745.757 0.235164 -4.42676 0
M  V30 7699 H 742.977 -0.11876 -0.660407 0
M  V30 7700 H 745.521 -0.973107 -1.79864 0
M  V30 7701 H 743.676 0.425563 -3.85055 0
M  V30 7702 H 744.09 -1.43903 -5.04373 0
M  V30 7703 H 745.564 0.204598 -5.51621 0
M  V30 7704 H 746.041 1.27724 -4.20218 0
M  V30 7705 H 746.647 -0.394649 -4.23465 0
M  V30 7706 N 744.962 1.50701 -0.461195 0
M  V30 7707 C 746.202 2.04174 0.0960673 0
M  V30 7708 C 746.566 1.33628 1.37868 0
M  V30 7709 O 747.767 1.77602 2.0177 0
M  V30 7710 C 746.038 3.56256 0.285676 0
M  V30 7711 S 747.597 4.31392 0.802917 0
M  V30 7712 H 744.415 0.710701 0.0206282 0
M  V30 7713 H 747.017 1.85204 -0.62607 0
M  V30 7714 H 745.721 4.05159 -0.653773 0
M  V30 7715 H 745.252 3.79562 1.03421 0
M  V30 7716 H 747.267 4.50611 2.07761 0
M  V30 7717 N 746.441 0.193421 1.56409 0
M  V30 7718 C 747.373 -0.759944 2.16235 0
M  V30 7719 C 748.386 -1.17797 1.12373 0
M  V30 7720 O 749.575 -1.11399 1.39472 0
M  V30 7721 C 746.675 -2.03735 2.70823 0
M  V30 7722 C 745.848 -1.77939 3.9957 0
M  V30 7723 C 744.907 -2.90111 4.39001 0
M  V30 7724 O 743.933 -2.59791 5.06456 0
M  V30 7725 N 745.135 -4.18426 4.02368 0
M  V30 7726 H 747.9 -0.248348 2.98669 0
M  V30 7727 H 745.461 0.0113966 1.61896 0
M  V30 7728 H 747.453 -2.77914 2.94187 0
M  V30 7729 H 746.023 -2.46022 1.92852 0
M  V30 7730 H 745.243 -0.875491 3.84355 0
M  V30 7731 H 746.531 -1.58099 4.83614 0
M  V30 7732 H 745.929 -4.45913 3.48106 0
M  V30 7733 H 744.486 -4.89237 4.30686 0
M  V30 7734 N 747.919 -1.57396 -0.0801906 0
M  V30 7735 C 749.167 -1.86467 -0.779384 0
M  V30 7736 C 749.488 -0.784243 -1.78535 0
M  V30 7737 O 748.758 0.187986 -1.94996 0
M  V30 7738 H 747.338 -0.68806 -0.29083 0
M  V30 7739 H 750 -1.94813 -0.0582749 0
M  V30 7740 H 749.096 -2.83701 -1.30078 0
M  V30 7741 N 749.397 0.351382 -1.53633 0
M  V30 7742 C 750.674 1.10903 -1.6112 0
M  V30 7743 C 751.054 2.06725 -0.427556 0
M  V30 7744 O 750.402 2.20992 0.580916 0
M  V30 7745 C 750.612 1.83561 -2.96827 0
M  V30 7746 C 751.96 2.37587 -3.51906 0
M  V30 7747 O 752.984 1.93669 -2.9895 0
M  V30 7748 O 751.843 3.17913 -4.44515 0
M  V30 7749 H 748.937 0.509558 -0.651368 0
M  V30 7750 H 751.483 0.353504 -1.65977 0
M  V30 7751 H 750.255 1.1371 -3.74414 0
M  V30 7752 H 749.878 2.6599 -2.95525 0
M  V30 7753 N 750.875 1.45233 0.611969 0
M  V30 7754 C 752.1 1.52767 1.40274 0
M  V30 7755 C 752.525 0.159701 1.87421 0
M  V30 7756 O 751.883 -0.854837 1.59882 0
M  V30 7757 C 751.931 2.51286 2.58626 0
M  V30 7758 O 751.035 2.02764 3.59111 0
M  V30 7759 H 750.376 0.515141 0.418958 0
M  V30 7760 H 752.906 1.90547 0.745188 0
M  V30 7761 H 752.916 2.69949 3.05927 0
M  V30 7762 H 751.591 3.50641 2.23659 0
M  V30 7763 H 750.168 1.93957 3.18489 0
M  V30 7764 N 752.353 -0.854086 1.3245 0
M  V30 7765 C 753.601 -1.60513 1.228 0
M  V30 7766 C 753.922 -1.93865 -0.210073 0
M  V30 7767 O 753.192 -1.59673 -1.13496 0
M  V30 7768 H 751.772 -0.595099 0.451516 0
M  V30 7769 H 754.434 -1.0216 1.6598 0
M  V30 7770 H 753.53 -2.54182 1.81102 0
M  V30 7771 N 753.831 -1.1567 -1.07043 0
M  V30 7772 C 755.079 -0.931673 -1.79344 0
M  V30 7773 C 755.4 0.542421 -1.87304 0
M  V30 7774 O 754.67 1.39418 -1.37621 0
M  V30 7775 H 753.25 -0.34171 -0.664262 0
M  V30 7776 H 755.912 -1.45795 -1.29344 0
M  V30 7777 H 755.008 -1.34379 -2.81689 0
M  V30 7778 N 755.309 1.25446 -0.953992 0
M  V30 7779 C 756.72 1.75047 -0.649255 0
M  V30 7780 C 757.071 1.77527 0.835385 0
M  V30 7781 O 756.196 1.39569 1.65377 0
M  V30 7782 C 756.791 3.17889 -1.17183 0
M  V30 7783 C 755.35 3.65052 -0.917267 0
M  V30 7784 C 754.497 2.44124 -1.31525 0
M  V30 7785 H 757.448 1.11342 -1.13087 0
M  V30 7786 H 757.469 3.76768 -0.531616 0
M  V30 7787 H 756.981 3.16052 -2.25239 0
M  V30 7788 H 755.082 3.72305 0.148354 0
M  V30 7789 H 755.195 4.53222 -1.55328 0
M  V30 7790 H 753.559 2.43906 -0.733624 0
M  V30 7791 H 754.342 2.44979 -2.405 0
M  V30 7792 N 756.787 0.722489 1.40064 0
M  V30 7793 C 757.717 0.0892452 2.33329 0
M  V30 7794 C 758.698 -0.737992 1.53257 0
M  V30 7795 O 759.883 -0.685516 1.81698 0
M  V30 7796 C 757.013 -0.828139 3.37282 0
M  V30 7797 C 755.967 -0.106005 4.27869 0
M  V30 7798 C 755.293 -1.13957 5.22415 0
M  V30 7799 C 756.593 1.04395 5.11761 0
M  V30 7800 H 758.287 0.868269 2.86534 0
M  V30 7801 H 755.833 0.418982 1.3777 0
M  V30 7802 H 757.786 -1.28058 4.01471 0
M  V30 7803 H 756.51 -1.63914 2.82489 0
M  V30 7804 H 755.169 0.326683 3.65142 0
M  V30 7805 H 754.817 -1.9438 4.63924 0
M  V30 7806 H 754.517 -0.661233 5.83868 0
M  V30 7807 H 756.041 -1.59197 5.89482 0
M  V30 7808 H 757.455 0.670541 5.69365 0
M  V30 7809 H 755.852 1.4511 5.82291 0
M  V30 7810 H 756.922 1.87144 4.47331 0
M  V30 7811 N 758.265 -1.50454 0.469181 0
M  V30 7812 C 759.493 -2.06729 -0.0842134 0
M  V30 7813 C 759.908 -1.33326 -1.33677 0
M  V30 7814 O 759.265 -0.401977 -1.78018 0
M  V30 7815 C 759.316 -3.59557 -0.374253 0
M  V30 7816 O 759.037 -4.30192 0.828622 0
M  V30 7817 C 760.538 -4.32449 -0.974824 0
M  V30 7818 H 757.758 -0.670971 0.006231 0
M  V30 7819 H 760.302 -1.93645 0.657415 0
M  V30 7820 H 758.457 -3.7245 -1.06581 0
M  V30 7821 H 758.871 -5.21371 0.572066 0
M  V30 7822 H 760.345 -5.40361 -1.12755 0
M  V30 7823 H 760.822 -3.92819 -1.96442 0
M  V30 7824 H 761.428 -4.24082 -0.321703 0
M  V30 7825 N 759.743 -0.201713 -1.56304 0
M  V30 7826 C 760.983 0.437395 -1.99665 0
M  V30 7827 C 761.347 1.58341 -1.08592 0
M  V30 7828 O 762.548 2.28716 -1.41217 0
M  V30 7829 C 760.819 0.879572 -3.46408 0
M  V30 7830 S 762.378 1.51558 -4.11795 0
M  V30 7831 H 759.196 0.139621 -0.697156 0
M  V30 7832 H 761.798 -0.306337 -1.93085 0
M  V30 7833 H 760.502 0.0355295 -4.10385 0
M  V30 7834 H 760.033 1.65661 -3.56819 0
M  V30 7835 H 762.048 2.80445 -4.09347 0
M  V30 7836 N 761.222 1.57436 0.0718424 0
M  V30 7837 C 762.132 2.07039 1.10326 0
M  V30 7838 C 763.148 0.999918 1.424 0
M  V30 7839 O 764.324 1.31462 1.52577 0
M  V30 7840 C 761.389 2.50439 2.39752 0
M  V30 7841 C 760.45 3.71784 2.14651 0
M  V30 7842 C 759.683 4.13104 3.37906 0
M  V30 7843 O 759.906 3.54298 4.47023 0
M  V30 7844 O 758.84 5.05894 3.26121 0
M  V30 7845 H 762.666 2.95239 0.711872 0
M  V30 7846 H 760.251 1.46638 0.28597 0
M  V30 7847 H 762.133 2.78876 3.15921 0
M  V30 7848 H 760.808 1.65368 2.78271 0
M  V30 7849 H 759.715 3.48431 1.36187 0
M  V30 7850 H 761.048 4.57707 1.81012 0
M  V30 7851 N 762.7 -0.34323 1.53817 0
M  V30 7852 C 763.647 -1.42153 1.81827 0
M  V30 7853 C 764.617 -1.52251 0.663996 0
M  V30 7854 O 765.802 -1.67784 0.908461 0
M  V30 7855 C 762.942 -2.78799 2.03384 0
M  V30 7856 C 762.055 -2.7749 3.31094 0
M  V30 7857 C 761.19 -4.05856 3.42717 0
M  V30 7858 C 760.229 -3.98776 4.64375 0
M  V30 7859 N 759.366 -5.18833 4.73029 0
M  V30 7860 H 764.206 -1.17567 2.73829 0
M  V30 7861 H 761.743 -0.569506 1.35628 0
M  V30 7862 H 763.701 -3.58211 2.13872 0
M  V30 7863 H 762.331 -3.01736 1.14696 0
M  V30 7864 H 761.383 -1.90182 3.29446 0
M  V30 7865 H 762.695 -2.68137 4.206 0
M  V30 7866 H 761.849 -4.93691 3.52638 0
M  V30 7867 H 760.588 -4.1799 2.51267 0
M  V30 7868 H 759.593 -3.09325 4.5453 0
M  V30 7869 H 760.818 -3.88224 5.57189 0
M  V30 7870 H 758.764 -5.31511 3.84489 0
M  V30 7871 H 758.681 -5.11737 5.56472 0
M  V30 7872 H 759.949 -6.08439 4.87261 0
M  V30 7873 N 764.178 -1.45556 -0.604258 0
M  V30 7874 C 765.455 -1.40221 -1.36373 0
M  V30 7875 C 765.835 -0.0745195 -2.10968 0
M  V30 7876 O 765.183 0.943594 -2.08107 0
M  V30 7877 C 765.393 -2.61807 -2.30777 0
M  V30 7878 C 766.741 -3.07037 -2.93281 0
M  V30 7879 O 767.765 -2.62203 -2.41097 0
M  V30 7880 O 766.624 -3.8485 -3.88011 0
M  V30 7881 H 763.718 -0.556602 -0.611656 0
M  V30 7882 H 766.264 -1.57689 -0.627069 0
M  V30 7883 H 765.036 -3.50017 -1.74939 0
M  V30 7884 H 764.659 -2.46688 -3.11818 0
M  V30 7885 N 765.656 0.84705 -1.32902 0
M  V30 7886 C 766.904 1.5986 -1.2365 0
M  V30 7887 C 767.225 1.93974 0.199789 0
M  V30 7888 O 766.495 1.60273 1.12648 0
M  V30 7889 H 765.075 0.592696 -0.454665 0
M  V30 7890 H 767.737 1.01278 -1.66519 0
M  V30 7891 H 766.833 2.53218 -1.82448 0
M  V30 7892 N 767.134 1.16236 1.06428 0
M  V30 7893 C 768.362 0.967184 1.82902 0
M  V30 7894 C 768.777 -0.484601 1.82475 0
M  V30 7895 O 768.134 -1.33631 1.24294 0
M  V30 7896 C 768.185 1.48534 3.29576 0
M  V30 7897 O 767.906 2.88026 3.3011 0
M  V30 7898 C 769.407 1.33298 4.22784 0
M  V30 7899 H 766.627 0.342923 0.576754 0
M  V30 7900 H 769.171 1.54232 1.34286 0
M  V30 7901 H 767.326 0.952513 3.75508 0
M  V30 7902 H 767.74 3.11721 4.21818 0
M  V30 7903 H 769.214 1.74385 5.23731 0
M  V30 7904 H 769.691 0.278356 4.38317 0
M  V30 7905 H 770.297 1.85535 3.82697 0
M  V30 7906 N 768.612 -1.24939 0.960631 0
M  V30 7907 C 769.842 -1.96595 0.635123 0
M  V30 7908 C 770.25 -1.71538 -0.798206 0
M  V30 7909 O 769.593 -0.991727 -1.5463 0
M  V30 7910 C 769.655 -3.49994 0.821248 0
M  V30 7911 C 769.319 -3.98738 2.23287 0
M  V30 7912 C 770.316 -4.08965 3.21004 0
M  V30 7913 C 768.001 -4.32247 2.55867 0
M  V30 7914 C 769.995 -4.52025 4.49391 0
M  V30 7915 C 767.682 -4.74991 3.84482 0
M  V30 7916 C 768.68 -4.84844 4.81056 0
M  V30 7917 O 768.368 -5.26638 6.07378 0
M  V30 7918 H 768.1 -0.633265 0.23654 0
M  V30 7919 H 770.654 -1.5991 1.28911 0
M  V30 7920 H 768.884 -3.86543 0.110105 0
M  V30 7921 H 770.573 -4.02859 0.495892 0
M  V30 7922 H 771.339 -3.83302 2.97161 0
M  V30 7923 H 767.218 -4.23801 1.81421 0
M  V30 7924 H 770.762 -4.5963 5.24773 0
M  V30 7925 H 766.659 -5.00101 4.08129 0
M  V30 7926 H 767.427 -5.44807 6.10842 0
M  V30 7927 N 770.09 -0.729906 -1.39679 0
M  V30 7928 C 771.32 -0.285295 -2.04621 0
M  V30 7929 C 771.728 1.08304 -1.55135 0
M  V30 7930 O 771.071 1.6946 -0.709146 0
M  V30 7931 C 771.133 -0.203129 -3.58926 0
M  V30 7932 C 770.797 -1.50909 -4.31365 0
M  V30 7933 C 771.794 -2.45381 -4.58349 0
M  V30 7934 C 769.479 -1.77198 -4.70007 0
M  V30 7935 C 771.473 -3.64379 -5.22979 0
M  V30 7936 C 769.16 -2.96474 -5.34365 0
M  V30 7937 C 770.158 -3.89886 -5.60783 0
M  V30 7938 O 769.846 -5.07069 -6.23808 0
M  V30 7939 H 769.578 -0.123373 -0.664647 0
M  V30 7940 H 772.132 -0.992901 -1.79807 0
M  V30 7941 H 770.362 0.560538 -3.82616 0
M  V30 7942 H 772.051 0.208811 -4.05363 0
M  V30 7943 H 772.817 -2.2634 -4.28947 0
M  V30 7944 H 768.696 -1.05337 -4.48804 0
M  V30 7945 H 772.24 -4.37307 -5.43515 0
M  V30 7946 H 768.137 -3.15419 -5.63188 0
M  V30 7947 H 768.905 -5.07335 -6.42303 0
M  V30 7948 N 771.568 1.50203 -0.477153 0
M  V30 7949 C 772.814 2.02658 0.0758507 0
M  V30 7950 C 773.147 1.358 1.38824 0
M  V30 7951 O 772.422 0.485696 1.88338 0
M  V30 7952 C 772.705 3.59208 0.253339 0
M  V30 7953 C 772.558 4.36629 -1.0805 0
M  V30 7954 C 773.877 4.28469 1.00509 0
M  V30 7955 H 770.996 0.736538 0.0260921 0
M  V30 7956 H 773.638 1.79464 -0.623925 0
M  V30 7957 H 771.788 3.79101 0.849378 0
M  V30 7958 H 773.46 4.28292 -1.71358 0
M  V30 7959 H 771.703 4.0013 -1.67566 0
M  V30 7960 H 772.374 5.44449 -0.909883 0
M  V30 7961 H 774.85 4.13087 0.499818 0
M  V30 7962 H 773.726 5.37804 1.09808 0
M  V30 7963 H 773.987 3.92057 2.04314 0
M  V30 7964 N 773.046 0.209999 1.56195 0
M  V30 7965 C 774.276 -0.429373 2.02089 0
M  V30 7966 C 774.684 -1.54703 1.0892 0
M  V30 7967 O 774.027 -1.83485 0.0889535 0
M  V30 7968 C 774.089 -1.03266 3.44349 0
M  V30 7969 C 773.753 -0.0518873 4.56971 0
M  V30 7970 C 774.75 0.744249 5.14545 0
M  V30 7971 C 772.435 0.0635185 5.0226 0
M  V30 7972 C 774.429 1.64261 6.15871 0
M  V30 7973 C 772.116 0.965423 6.03426 0
M  V30 7974 C 773.114 1.75352 6.60106 0
M  V30 7975 O 772.802 2.64029 7.59305 0
M  V30 7976 H 772.534 -0.110604 0.66689 0
M  V30 7977 H 775.088 0.320436 2.02885 0
M  V30 7978 H 773.318 -1.83134 3.40586 0
M  V30 7979 H 775.007 -1.57823 3.73961 0
M  V30 7980 H 775.773 0.665476 4.80413 0
M  V30 7981 H 771.652 -0.539762 4.57829 0
M  V30 7982 H 775.196 2.25819 6.60039 0
M  V30 7983 H 771.093 1.04526 6.36981 0
M  V30 7984 H 771.861 2.57974 7.76783 0
M  V30 7985 N 774.524 -1.57472 -0.0634922 0
M  V30 7986 C 775.772 -1.87283 -0.759563 0
M  V30 7987 C 776.093 -0.803135 -1.77693 0
M  V30 7988 O 775.363 0.167293 -1.95184 0
M  V30 7989 H 773.943 -0.691106 -0.283516 0
M  V30 7990 H 776.605 -1.94864 -0.0376091 0
M  V30 7991 H 775.701 -2.85064 -1.27062 0
M  V30 7992 N 776.003 0.335068 -1.53997 0
M  V30 7993 C 777.252 1.07182 -1.70865 0
M  V30 7994 C 777.565 1.89541 -0.483078 0
M  V30 7995 O 778.771 2.66219 -0.532879 0
M  V30 7996 C 777.227 1.95497 -3.02174 0
M  V30 7997 C 776.835 1.18304 -4.32097 0
M  V30 7998 C 778.579 2.68978 -3.28407 0
M  V30 7999 C 776.486 2.05699 -5.54474 0
M  V30 8000 H 775.416 0.403857 -0.636722 0
M  V30 8001 H 778.067 0.33076 -1.80494 0
M  V30 8002 H 776.449 2.73456 -2.86423 0
M  V30 8003 H 777.623 0.451969 -4.58578 0
M  V30 8004 H 775.938 0.565556 -4.12541 0
M  V30 8005 H 778.535 3.34651 -4.17029 0
M  V30 8006 H 778.878 3.36 -2.45784 0
M  V30 8007 H 779.411 1.98087 -3.44973 0
M  V30 8008 H 776.15 1.43204 -6.39666 0
M  V30 8009 H 775.67 2.76572 -5.32229 0
M  V30 8010 H 777.349 2.64554 -5.90441 0
M  V30 8011 N 777.481 1.45874 0.596531 0
M  V30 8012 C 778.727 1.5069 1.35722 0
M  V30 8013 C 779.06 0.152506 1.936 0
M  V30 8014 O 778.335 -0.834411 1.75692 0
M  V30 8015 C 778.618 2.59474 2.4969 0
M  V30 8016 C 778.471 4.04396 1.96937 0
M  V30 8017 C 779.79 2.64451 3.51787 0
M  V30 8018 H 776.909 0.548611 0.492133 0
M  V30 8019 H 779.551 1.77741 0.671428 0
M  V30 8020 H 777.701 2.36539 3.08191 0
M  V30 8021 H 779.373 4.38576 1.43 0
M  V30 8022 H 777.616 4.14529 1.27859 0
M  V30 8023 H 778.287 4.76218 2.79143 0
M  V30 8024 H 780.763 2.85031 3.03145 0
M  V30 8025 H 779.639 3.42411 4.29006 0
M  V30 8026 H 779.9 1.69965 4.08123 0
M  V30 8027 N 778.959 -0.83999 1.33349 0
M  V30 8028 C 780.184 -1.63249 1.27924 0
M  V30 8029 C 780.609 -1.87523 -0.147193 0
M  V30 8030 O 779.967 -1.43853 -1.10345 0
M  V30 8031 C 780.015 -2.96046 2.05886 0
M  V30 8032 O 779.119 -3.87303 1.4167 0
M  V30 8033 H 778.46 -0.49715 0.440157 0
M  V30 8034 H 780.99 -1.04512 1.75893 0
M  V30 8035 H 781 -3.45752 2.16609 0
M  V30 8036 H 779.675 -2.77701 3.09605 0
M  V30 8037 H 778.252 -3.45789 1.39585 0
M  V30 8038 N 780.437 -1.16799 -1.0581 0
M  V30 8039 C 781.683 -0.963929 -1.79109 0
M  V30 8040 C 782.038 0.502569 -1.8572 0
M  V30 8041 O 781.331 1.36813 -1.34137 0
M  V30 8042 C 781.525 -1.53111 -3.22942 0
M  V30 8043 C 781.354 -3.05123 -3.30348 0
M  V30 8044 C 780.124 -3.73804 -3.39998 0
M  V30 8045 C 782.322 -4.02777 -3.19805 0
M  V30 8046 N 780.304 -5.1348 -3.36469 0
M  V30 8047 C 781.675 -5.28866 -3.23576 0
M  V30 8048 C 783.73 -3.94533 -3.03724 0
M  V30 8049 C 782.433 -6.47669 -3.12918 0
M  V30 8050 C 784.459 -5.12913 -2.94405 0
M  V30 8051 C 783.821 -6.37884 -2.98803 0
M  V30 8052 H 779.92 -0.406555 -0.66801 0
M  V30 8053 H 782.504 -1.48277 -1.26183 0
M  V30 8054 H 780.675 -1.03869 -3.74254 0
M  V30 8055 H 782.407 -1.2643 -3.84444 0
M  V30 8056 H 779.162 -3.24457 -3.44999 0
M  V30 8057 H 779.586 -5.86477 -3.38191 0
M  V30 8058 H 784.228 -2.98763 -2.99166 0
M  V30 8059 H 781.946 -7.43656 -3.16231 0
M  V30 8060 H 785.532 -5.08309 -2.83042 0
M  V30 8061 H 784.412 -7.27946 -2.91657 0
M  V30 8062 N 781.915 1.24427 -0.967243 0
M  V30 8063 C 783.163 1.92107 -0.627638 0
M  V30 8064 C 783.484 1.75991 0.83978 0
M  V30 8065 O 782.754 1.13118 1.59941 0
M  V30 8066 H 781.334 0.710986 -0.229145 0
M  V30 8067 H 783.996 1.51331 -1.22821 0
M  V30 8068 H 783.092 2.99791 -0.867844 0
M  V30 8069 N 783.393 0.737304 1.3929 0
M  V30 8070 C 784.323 0.113988 2.33222 0
M  V30 8071 C 785.304 -0.721695 1.54031 0
M  V30 8072 O 786.489 -0.666206 1.82415 0
M  V30 8073 C 783.619 -0.792319 3.38141 0
M  V30 8074 C 782.573 -0.0606178 4.27957 0
M  V30 8075 C 781.899 -1.08409 5.23595 0
M  V30 8076 C 783.199 1.09817 5.10625 0
M  V30 8077 H 784.893 0.898611 2.85596 0
M  V30 8078 H 782.439 0.433571 1.37318 0
M  V30 8079 H 784.392 -1.23793 4.02807 0
M  V30 8080 H 783.116 -1.60908 2.84211 0
M  V30 8081 H 781.775 0.365393 3.64775 0
M  V30 8082 H 781.423 -1.89449 4.6596 0
M  V30 8083 H 781.123 -0.599269 5.84536 0
M  V30 8084 H 782.647 -1.52936 5.91137 0
M  V30 8085 H 784.061 0.730892 5.68622 0
M  V30 8086 H 782.458 1.51278 5.80719 0
M  V30 8087 H 783.528 1.91878 4.45321 0
M  V30 8088 N 784.871 -1.49948 0.485112 0
M  V30 8089 C 785.781 -2.32587 -0.306697 0
M  V30 8090 C 786.797 -1.43598 -0.982632 0
M  V30 8091 O 787.973 -1.76638 -0.967519 0
M  V30 8092 C 785.038 -3.18638 -1.3664 0
M  V30 8093 C 784.099 -4.23462 -0.705589 0
M  V30 8094 C 783.332 -5.05401 -1.7148 0
M  V30 8095 O 783.555 -4.88618 -2.94293 0
M  V30 8096 O 782.489 -5.88157 -1.27889 0
M  V30 8097 H 786.315 -3.01447 0.369272 0
M  V30 8098 H 783.9 -1.47349 0.246709 0
M  V30 8099 H 785.782 -3.71992 -1.9799 0
M  V30 8100 H 784.457 -2.52491 -2.02559 0
M  V30 8101 H 783.364 -3.74063 -0.0527733 0
M  V30 8102 H 784.697 -4.92119 -0.0891187 0
M  V30 8103 N 786.349 -0.21828 -1.56081 0
M  V30 8104 C 787.589 0.416193 -2.00118 0
M  V30 8105 C 787.953 1.5718 -1.10265 0
M  V30 8106 O 789.154 2.27206 -1.43635 0
M  V30 8107 C 787.425 0.842781 -3.47321 0
M  V30 8108 S 788.984 1.47182 -4.1338 0
M  V30 8109 H 785.802 0.132219 -0.698598 0
M  V30 8110 H 788.404 -0.326799 -1.92749 0
M  V30 8111 H 787.108 -0.00799925 -4.10399 0
M  V30 8112 H 786.639 1.61867 -3.58556 0
M  V30 8113 H 788.654 2.76087 -4.12299 0
M  V30 8114 N 787.827 1.57504 0.0551401 0
M  V30 8115 C 789.075 1.87684 0.74962 0
M  V30 8116 C 789.396 0.812547 1.77264 0
M  V30 8117 O 788.666 -0.15694 1.9527 0
M  V30 8118 H 787.246 0.6926 0.279846 0
M  V30 8119 H 789.908 1.94881 0.0272745 0
M  V30 8120 H 789.004 2.85734 1.25548 0
M  V30 8121 N 789.305 -0.326896 1.54172 0
M  V30 8122 C 790.252 -1.40216 1.83325 0
M  V30 8123 C 791.222 -1.51538 0.680107 0
M  V30 8124 O 792.407 -1.66811 0.926206 0
M  V30 8125 C 789.547 -2.76626 2.0633 0
M  V30 8126 C 788.66 -2.73963 3.34019 0
M  V30 8127 C 787.795 -4.02198 3.47002 0
M  V30 8128 C 786.834 -3.93828 4.68578 0
M  V30 8129 N 785.971 -5.13787 4.78506 0
M  V30 8130 H 790.811 -1.14656 2.7506 0
M  V30 8131 H 788.348 -0.555089 1.36225 0
M  V30 8132 H 790.306 -3.55922 2.17659 0
M  V30 8133 H 788.936 -3.00503 1.1789 0
M  V30 8134 H 787.988 -1.86677 3.31445 0
M  V30 8135 H 789.3 -2.6366 4.2342 0
M  V30 8136 H 788.454 -4.89923 3.57855 0
M  V30 8137 H 787.193 -4.15302 2.55687 0
M  V30 8138 H 786.198 -3.04487 4.57786 0
M  V30 8139 H 787.423 -3.82292 5.61275 0
M  V30 8140 H 785.369 -5.27403 3.90105 0
M  V30 8141 H 785.286 -5.05807 5.61868 0
M  V30 8142 H 786.554 -6.03236 4.93686 0
M  V30 8143 N 790.784 -1.46188 -0.588786 0
M  V30 8144 C 792.2 -1.31009 -0.911524 0
M  V30 8145 C 792.4 -0.277017 -1.99587 0
M  V30 8146 O 791.456 0.322532 -2.50432 0
M  V30 8147 C 792.769 -2.69459 -1.33463 0
M  V30 8148 C 794.317 -2.77502 -1.44782 0
M  V30 8149 C 794.792 -4.1652 -1.90461 0
M  V30 8150 N 796.283 -4.18907 -1.97665 0
M  V30 8151 C 797.018 -5.23359 -2.34271 0
M  V30 8152 N 796.514 -6.38143 -2.69714 0
M  V30 8153 N 798.307 -5.10723 -2.34774 0
M  V30 8154 H 790.458 -2.12016 0.127614 0
M  V30 8155 H 792.721 -0.947984 -0.00557599 0
M  V30 8156 H 792.427 -3.46336 -0.611929 0
M  V30 8157 H 792.301 -2.99165 -2.2974 0
M  V30 8158 H 794.688 -2.00917 -2.1614 0
M  V30 8159 H 794.769 -2.51488 -0.467724 0
M  V30 8160 H 794.413 -4.93597 -1.19684 0
M  V30 8161 H 794.343 -4.39937 -2.89418 0
M  V30 8162 H 796.834 -3.36084 -1.72789 0
M  V30 8163 H 797.147 -7.13624 -2.96582 0
M  V30 8164 H 795.492 -6.41514 -2.67366 0
M  V30 8165 H 798.683 -4.20088 -2.06503 0
M  V30 8166 H 798.856 -5.9224 -2.62975 0
M  V30 8167 N 792.262 0.832906 -1.33792 0
M  V30 8168 C 793.673 1.40489 -1.22963 0
M  V30 8169 C 794.024 1.95633 0.149026 0
M  V30 8170 O 793.149 1.8928 1.04891 0
M  V30 8171 C 793.744 2.55387 -2.22627 0
M  V30 8172 C 792.303 3.08522 -2.15618 0
M  V30 8173 C 791.45 1.81347 -2.09782 0
M  V30 8174 H 794.401 0.638156 -1.45304 0
M  V30 8175 H 794.422 3.33193 -1.83746 0
M  V30 8176 H 793.934 2.15222 -3.22957 0
M  V30 8177 H 792.035 3.53217 -1.18611 0
M  V30 8178 H 792.148 3.6829 -3.0643 0
M  V30 8179 H 790.512 2.01839 -1.55349 0
M  V30 8180 H 791.295 1.43369 -3.1193 0
M  V30 8181 N 793.74 1.17359 1.05189 0
M  V30 8182 C 794.988 0.960087 1.77839 0
M  V30 8183 C 795.309 -0.512554 1.88143 0
M  V30 8184 O 794.579 -1.3721 1.39822 0
M  V30 8185 H 793.159 0.352234 0.658741 0
M  V30 8186 H 795.821 1.47834 1.27008 0
M  V30 8187 H 794.917 1.38843 2.79516 0
M  V30 8188 N 795.218 -1.23913 0.973828 0
M  V30 8189 C 796.464 -1.92436 0.640026 0
M  V30 8190 C 796.797 -1.75875 -0.823512 0
M  V30 8191 O 796.072 -1.11563 -1.59323 0
M  V30 8192 C 796.355 -3.4526 1.0231 0
M  V30 8193 C 796.208 -3.70961 2.54378 0
M  V30 8194 C 797.527 -4.36495 0.562155 0
M  V30 8195 H 794.646 -0.698868 0.233992 0
M  V30 8196 H 797.288 -1.46163 1.21393 0
M  V30 8197 H 795.438 -3.84802 0.534751 0
M  V30 8198 H 797.11 -3.40941 3.10737 0
M  V30 8199 H 795.353 -3.15899 2.97305 0
M  V30 8200 H 796.024 -4.77912 2.76232 0
M  V30 8201 H 798.5 -4.04363 0.981333 0
M  V30 8202 H 797.376 -5.42142 0.858689 0
M  V30 8203 H 797.637 -4.38818 -0.537659 0
M  V30 8204 N 796.696 -0.74468 -1.38897 0
M  V30 8205 C 797.926 -0.306982 -2.04307 0
M  V30 8206 C 798.334 1.06652 -1.56275 0
M  V30 8207 O 797.677 1.68699 -0.72708 0
M  V30 8208 C 797.739 -0.241186 -3.5869 0
M  V30 8209 C 797.403 -1.55476 -4.2974 0
M  V30 8210 C 798.4 -2.50229 -4.55721 0
M  V30 8211 C 796.085 -1.82173 -4.68101 0
M  V30 8212 C 798.079 -3.69905 -5.19085 0
M  V30 8213 C 795.766 -3.02125 -5.31191 0
M  V30 8214 C 796.764 -3.95812 -5.56616 0
M  V30 8215 O 796.452 -5.13656 -6.18395 0
M  V30 8216 H 796.184 -0.130416 -0.663301 0
M  V30 8217 H 798.738 -1.01192 -1.78744 0
M  V30 8218 H 796.968 0.519925 -3.83189 0
M  V30 8219 H 798.657 0.165806 -4.05561 0
M  V30 8220 H 799.423 -2.30877 -4.26522 0
M  V30 8221 H 795.302 -1.10091 -4.47662 0
M  V30 8222 H 798.846 -4.43047 -5.38846 0
M  V30 8223 H 794.743 -3.21374 -5.59811 0
M  V30 8224 H 795.511 -5.14119 -6.36886 0
M  V30 8225 N 798.174 1.49689 -0.493057 0
M  V30 8226 C 799.402 2.06836 0.0513141 0
M  V30 8227 C 799.817 1.35436 1.31539 0
M  V30 8228 O 799.174 0.430248 1.77356 0
M  V30 8229 C 799.225 3.60107 0.317003 0
M  V30 8230 O 798.946 4.2882 -0.896957 0
M  V30 8231 C 800.447 4.33945 0.905902 0
M  V30 8232 H 797.667 0.670787 -0.0169048 0
M  V30 8233 H 800.211 1.92574 -0.688139 0
M  V30 8234 H 798.366 3.74099 1.00642 0
M  V30 8235 H 798.78 5.20395 -0.654939 0
M  V30 8236 H 800.254 5.42087 1.04144 0
M  V30 8237 H 800.731 3.95895 1.90168 0
M  V30 8238 H 801.337 4.2454 0.254195 0
M  V30 8239 N 799.652 0.226554 1.55963 0
M  V30 8240 C 800.584 -0.713907 2.17798 0
M  V30 8241 C 801.597 -1.15387 1.14846 0
M  V30 8242 O 802.786 -1.08416 1.41804 0
M  V30 8243 C 799.886 -1.97945 2.75084 0
M  V30 8244 C 799.059 -1.69424 4.03255 0
M  V30 8245 C 798.118 -2.80734 4.45056 0
M  V30 8246 O 797.144 -2.4899 5.11852 0
M  V30 8247 N 798.346 -4.09797 4.11152 0
M  V30 8248 H 801.111 -0.18494 2.99129 0
M  V30 8249 H 798.672 0.0457346 1.61835 0
M  V30 8250 H 800.664 -2.71611 3.00016 0
M  V30 8251 H 799.234 -2.41876 1.98027 0
M  V30 8252 H 798.454 -0.793767 3.86126 0
M  V30 8253 H 799.742 -1.47806 4.86858 0
M  V30 8254 H 799.14 -4.38429 3.57486 0
M  V30 8255 H 797.697 -4.79992 4.40966 0
M  V30 8256 N 801.13 -1.57531 -0.0467866 0
M  V30 8257 C 802.376 -1.8873 -0.742218 0
M  V30 8258 C 802.709 -0.822084 -1.75941 0
M  V30 8259 O 801.984 0.164922 -1.938 0
M  V30 8260 C 802.267 -3.30586 -1.42776 0
M  V30 8261 C 802.12 -4.47785 -0.425285 0
M  V30 8262 C 803.439 -3.71068 -2.36636 0
M  V30 8263 H 800.558 -0.686406 -0.268359 0
M  V30 8264 H 803.2 -1.89999 -0.00511341 0
M  V30 8265 H 801.35 -3.29634 -2.05605 0
M  V30 8266 H 803.022 -4.60867 0.199721 0
M  V30 8267 H 801.265 -4.33037 0.25713 0
M  V30 8268 H 801.936 -5.43884 -0.943086 0
M  V30 8269 H 804.412 -3.73273 -1.83866 0
M  V30 8270 H 803.288 -4.71165 -2.81593 0
M  V30 8271 H 803.549 -3.02355 -3.22542 0
M  V30 8272 N 802.608 0.318715 -1.54344 0
M  V30 8273 C 803.836 1.0755 -1.7675 0
M  V30 8274 C 804.251 1.81543 -0.518422 0
M  V30 8275 O 803.608 1.75198 0.511078 0
M  V30 8276 C 803.659 2.06983 -2.96378 0
M  V30 8277 O 803.38 1.35995 -4.16458 0
M  V30 8278 C 804.881 2.94841 -3.31034 0
M  V30 8279 H 802.101 0.319711 -0.589937 0
M  V30 8280 H 804.645 0.363369 -2.01246 0
M  V30 8281 H 802.8 2.73724 -2.74142 0
M  V30 8282 H 803.214 2.02623 -4.83781 0
M  V30 8283 H 804.688 3.60496 -4.18027 0
M  V30 8284 H 805.165 3.62199 -2.48412 0
M  V30 8285 H 805.771 2.33656 -3.55366 0
M  V30 8286 N 804.086 1.46499 0.581025 0
M  V30 8287 C 805.033 1.5719 1.68997 0
M  V30 8288 C 806.003 0.416114 1.60803 0
M  V30 8289 O 807.188 0.633086 1.79991 0
M  V30 8290 C 804.328 1.56973 3.07333 0
M  V30 8291 C 803.441 2.83298 3.26139 0
M  V30 8292 C 802.576 2.74574 4.54734 0
M  V30 8293 C 801.615 3.9583 4.66889 0
M  V30 8294 N 800.752 3.85482 5.86811 0
M  V30 8295 H 805.592 2.51914 1.59196 0
M  V30 8296 H 803.129 1.24975 0.775857 0
M  V30 8297 H 805.087 1.54832 3.87405 0
M  V30 8298 H 803.717 0.657803 3.16027 0
M  V30 8299 H 802.769 2.95411 2.3966 0
M  V30 8300 H 804.081 3.7316 3.30988 0
M  V30 8301 H 803.235 2.70548 5.43036 0
M  V30 8302 H 801.974 1.82354 4.52325 0
M  V30 8303 H 800.979 4.00186 3.77003 0
M  V30 8304 H 802.204 4.89148 4.71075 0
M  V30 8305 H 800.15 2.96051 5.85397 0
M  V30 8306 H 800.067 4.69002 5.92936 0
M  V30 8307 H 801.335 3.85434 6.7754 0
M  V30 8308 N 805.565 -0.825799 1.34232 0
M  V30 8309 C 806.812 -1.58185 1.26427 0
M  V30 8310 C 807.14 -1.93786 -0.166533 0
M  V30 8311 O 806.395 -1.59986 -1.12707 0
M  V30 8312 C 806.694 -2.89362 2.09772 0
M  V30 8313 C 806.36 -2.73066 3.58812 0
M  V30 8314 C 805.022 -2.68329 3.99441 0
M  V30 8315 C 807.374 -2.56946 4.53462 0
M  V30 8316 C 804.702 -2.4539 5.32917 0
M  V30 8317 C 807.054 -2.35538 5.87115 0
M  V30 8318 C 805.718 -2.29212 6.26912 0
M  V30 8319 H 804.988 -0.57884 0.462629 0
M  V30 8320 H 807.635 -0.955714 1.65947 0
M  V30 8321 H 805.94 -3.56251 1.63071 0
M  V30 8322 H 807.637 -3.4694 2.01081 0
M  V30 8323 H 804.227 -2.77591 3.26559 0
M  V30 8324 H 808.411 -2.59631 4.22972 0
M  V30 8325 H 803.667 -2.38947 5.62774 0
M  V30 8326 H 807.841 -2.22051 6.6005 0
M  V30 8327 H 805.468 -2.11197 7.30274 0
M  V30 8328 N 807.043 -1.17915 -1.04565 0
M  V30 8329 C 807.973 -0.925033 -2.14395 0
M  V30 8330 C 808.954 0.135375 -1.6956 0
M  V30 8331 O 810.139 -0.0161774 -1.94193 0
M  V30 8332 C 807.269 -0.444469 -3.44444 0
M  V30 8333 C 806.223 -1.44478 -4.02877 0
M  V30 8334 C 805.549 -0.821933 -5.28345 0
M  V30 8335 C 806.849 -2.81995 -4.39632 0
M  V30 8336 H 808.543 -1.84354 -2.35911 0
M  V30 8337 H 806.089 -0.887806 -1.13375 0
M  V30 8338 H 808.042 -0.254078 -4.20633 0
M  V30 8339 H 806.766 0.509592 -3.226 0
M  V30 8340 H 805.425 -1.62203 -3.28764 0
M  V30 8341 H 805.073 0.139161 -5.02807 0
M  V30 8342 H 804.773 -1.48976 -5.68401 0
M  V30 8343 H 806.297 -0.641959 -6.07216 0
M  V30 8344 H 807.711 -2.67952 -5.06828 0
M  V30 8345 H 806.108 -3.45414 -4.90723 0
M  V30 8346 H 807.178 -3.35927 -3.49687 0
M  V30 8347 N 808.521 1.23394 -0.980386 0
M  V30 8348 C 809.469 2.26872 -0.513018 0
M  V30 8349 C 810.463 1.63853 0.429948 0
M  V30 8350 O 811.669 1.77417 0.303842 0
M  V30 8351 H 808.044 0.737398 -0.147473 0
M  V30 8352 H 810.015 2.63654 -1.39746 0
M  V30 8353 C 808.764 3.47289 0.168962 0
M  V30 8354 H 808.087 3.96033 -0.547546 0
M  V30 8355 H 809.527 4.21502 0.459616 0
M  V30 8356 C 807.986 3.06425 1.40019 0
M  V30 8357 O 808.516 3.14708 2.49643 0
M  V30 8358 N 806.722 2.61339 1.27084 0
M  V30 8359 H 806.269 2.54799 0.378872 0
M  V30 8360 H 806.227 2.34364 2.09573 0
M  V30 8361 N 809.999 0.752036 1.385 0
M  V30 8362 C 811.245 0.316909 2.00916 0
M  V30 8363 C 811.6 -1.08884 1.58625 0
M  V30 8364 O 810.893 -1.73494 0.813047 0
M  V30 8365 C 811.087 0.376155 3.55415 0
M  V30 8366 C 810.916 1.78612 4.12708 0
M  V30 8367 C 809.686 2.4023 4.44542 0
M  V30 8368 C 811.884 2.74253 4.35075 0
M  V30 8369 N 809.866 3.73204 4.87434 0
M  V30 8370 C 811.237 3.9199 4.80358 0
M  V30 8371 C 813.292 2.71795 4.17171 0
M  V30 8372 C 811.995 5.07627 5.09615 0
M  V30 8373 C 814.021 3.86589 4.47552 0
M  V30 8374 C 813.383 5.03064 4.93058 0
M  V30 8375 H 809.482 0.16259 0.764911 0
M  V30 8376 H 812.066 0.981657 1.68142 0
M  V30 8377 H 810.237 -0.258317 3.8754 0
M  V30 8378 H 811.969 -0.0791421 4.04623 0
M  V30 8379 H 808.724 1.92009 4.32931 0
M  V30 8380 H 809.148 4.41519 5.13215 0
M  V30 8381 H 813.79 1.82929 3.81178 0
M  V30 8382 H 811.508 5.97109 5.44506 0
M  V30 8383 H 815.094 3.86005 4.35306 0
M  V30 8384 H 813.974 5.90417 5.16118 0
M  V30 8385 N 811.477 -1.49425 0.500989 0
M  V30 8386 C 812.726 -2.01649 -0.04538 0
M  V30 8387 C 813.039 -1.38572 -1.38047 0
M  V30 8388 O 814.245 -1.82124 -2.01353 0
M  V30 8389 C 812.701 -3.5966 -0.131337 0
M  V30 8390 C 812.309 -4.3171 1.19711 0
M  V30 8391 C 814.053 -4.19828 -0.628071 0
M  V30 8392 C 811.96 -5.81579 1.07332 0
M  V30 8393 H 810.89 -0.753715 -0.0207329 0
M  V30 8394 H 813.541 -1.71962 0.640407 0
M  V30 8395 H 811.923 -3.86063 -0.881574 0
M  V30 8396 H 813.097 -4.17008 1.96064 0
M  V30 8397 H 811.412 -3.83286 1.62729 0
M  V30 8398 H 814.009 -5.2958 -0.738198 0
M  V30 8399 H 814.352 -3.83194 -1.6269 0
M  V30 8400 H 814.885 -3.97746 0.0656314 0
M  V30 8401 H 811.624 -6.22738 2.04642 0
M  V30 8402 H 811.144 -5.98774 0.350679 0
M  V30 8403 H 812.823 -6.42614 0.752047 0
M  V30 8404 N 812.955 -0.234822 -1.55841 0
M  V30 8405 C 813.902 0.6698 -2.20867 0
M  V30 8406 C 814.872 1.18042 -1.16856 0
M  V30 8407 O 816.057 1.23709 -1.45261 0
M  V30 8408 C 813.197 1.86646 -2.90271 0
M  V30 8409 C 812.31 1.39351 -4.08908 0
M  V30 8410 C 811.445 2.54878 -4.66059 0
M  V30 8411 C 810.484 2.04384 -5.76969 0
M  V30 8412 N 809.621 3.13233 -6.28355 0
M  V30 8413 H 814.461 0.10858 -2.97802 0
M  V30 8414 H 811.998 0.041836 -1.4704 0
M  V30 8415 H 813.956 2.56926 -3.28702 0
M  V30 8416 H 812.586 2.40035 -2.15831 0
M  V30 8417 H 811.638 0.585173 -3.75872 0
M  V30 8418 H 812.95 0.983356 -4.89011 0
M  V30 8419 H 812.104 3.33219 -5.07001 0
M  V30 8420 H 810.843 2.99188 -3.85146 0
M  V30 8421 H 809.848 1.24509 -5.35516 0
M  V30 8422 H 811.073 1.61057 -6.59725 0
M  V30 8423 H 809.019 3.57 -5.50352 0
M  V30 8424 H 808.936 2.76511 -7.03618 0
M  V30 8425 H 810.204 3.91669 -6.73955 0
M  V30 8426 N 814.433 1.57553 0.0384317 0
M  V30 8427 C 815.396 2.04927 1.02653 0
M  V30 8428 C 816.396 0.951768 1.29607 0
M  V30 8429 O 817.586 1.21568 1.24768 0
M  V30 8430 C 814.718 2.45828 2.36181 0
M  V30 8431 H 815.911 2.93474 0.617508 0
M  V30 8432 H 813.464 1.53679 0.285031 0
M  V30 8433 H 814.199 1.60408 2.8185 0
M  V30 8434 H 813.984 3.25945 2.1795 0
M  V30 8435 H 815.474 2.82939 3.0714 0
M  V30 8436 N 815.911 -0.310526 1.54511 0
M  V30 8437 C 817.139 -1.06611 1.77318 0
M  V30 8438 C 817.554 -1.81265 0.528043 0
M  V30 8439 O 816.911 -1.75466 -0.50178 0
M  V30 8440 C 816.962 -2.05409 2.97472 0
M  V30 8441 O 816.683 -1.33785 4.17173 0
M  V30 8442 C 818.184 -2.93082 3.32593 0
M  V30 8443 H 815.404 -0.316578 0.591624 0
M  V30 8444 H 817.948 -0.352691 2.01436 0
M  V30 8445 H 816.103 -2.72266 2.7559 0
M  V30 8446 H 816.517 -2.00055 4.84849 0
M  V30 8447 H 817.991 -3.58274 4.19933 0
M  V30 8448 H 818.468 -3.60877 2.50329 0
M  V30 8449 H 819.074 -2.31768 3.566 0
M  V30 8450 N 817.389 -1.46805 -0.573248 0
M  V30 8451 C 818.638 -1.51868 -1.32736 0
M  V30 8452 C 818.951 -0.178765 -1.94781 0
M  V30 8453 O 820.157 -0.107272 -2.71288 0
M  V30 8454 C 818.613 -2.67641 -2.40616 0
M  V30 8455 C 818.221 -4.08094 -1.84832 0
M  V30 8456 C 819.965 -2.81984 -3.17309 0
M  V30 8457 C 817.872 -5.15193 -2.90397 0
M  V30 8458 H 816.802 -0.56523 -0.49903 0
M  V30 8459 H 819.453 -1.7304 -0.610695 0
M  V30 8460 H 817.835 -2.39818 -3.15124 0
M  V30 8461 H 819.009 -4.45751 -1.16803 0
M  V30 8462 H 817.324 -3.985 -1.20775 0
M  V30 8463 H 819.921 -3.59166 -3.96111 0
M  V30 8464 H 820.264 -1.89842 -3.70494 0
M  V30 8465 H 820.797 -3.095 -2.4991 0
M  V30 8466 H 817.536 -6.09158 -2.42088 0
M  V30 8467 H 817.056 -4.82071 -3.56886 0
M  V30 8468 H 818.735 -5.41448 -3.54179 0
M  V30 8469 N 818.867 0.818669 -1.34668 0
M  V30 8470 C 819.814 1.92983 -1.26595 0
M  V30 8471 C 820.784 1.65506 -0.140315 0
M  V30 8472 O 821.969 1.88063 -0.322005 0
M  V30 8473 C 819.109 3.2932 -1.03163 0
M  V30 8474 C 818.222 3.69061 -2.24539 0
M  V30 8475 C 817.357 4.94368 -1.94355 0
M  V30 8476 C 816.396 5.26702 -3.11851 0
M  V30 8477 N 815.533 6.43187 -2.81522 0
M  V30 8478 H 820.373 1.99219 -2.2162 0
M  V30 8479 H 817.91 0.974612 -1.1018 0
M  V30 8480 H 819.868 4.07897 -0.87613 0
M  V30 8481 H 818.498 3.22584 -0.118045 0
M  V30 8482 H 817.55 2.85842 -2.50995 0
M  V30 8483 H 818.862 3.88924 -3.12313 0
M  V30 8484 H 818.016 5.80742 -1.75566 0
M  V30 8485 H 816.755 4.76515 -1.03848 0
M  V30 8486 H 815.76 4.38823 -3.31231 0
M  V30 8487 H 816.985 5.46492 -4.03142 0
M  V30 8488 H 814.931 6.26783 -1.93596 0
M  V30 8489 H 814.848 6.63243 -3.62829 0
M  V30 8490 H 816.116 7.32621 -2.66247 0
M  V30 8491 N 820.346 1.18468 1.03938 0
M  V30 8492 C 821.571 1.00638 1.81347 0
M  V30 8493 C 821.996 -0.440477 1.8287 0
M  V30 8494 O 821.354 -1.31609 1.24695 0
M  V30 8495 C 821.402 1.5673 3.24759 0
M  V30 8496 O 820.506 0.789517 4.04772 0
M  V30 8497 H 819.847 0.356432 0.560225 0
M  V30 8498 H 822.377 1.57253 1.30891 0
M  V30 8499 H 822.387 1.59496 3.75533 0
M  V30 8500 H 821.062 2.62043 3.22965 0
M  V30 8501 H 819.639 0.834267 3.63448 0
M  V30 8502 N 821.824 -1.22873 0.986916 0
M  V30 8503 C 822.734 -2.28277 0.540978 0
M  V30 8504 C 823.75 -1.69164 -0.407363 0
M  V30 8505 O 824.926 -1.99504 -0.275674 0
M  V30 8506 C 821.991 -3.46404 -0.143181 0
M  V30 8507 C 821.052 -4.20854 0.847375 0
M  V30 8508 C 820.285 -5.33341 0.19577 0
M  V30 8509 O 820.508 -5.61356 -1.0117 0
M  V30 8510 O 819.442 -5.95169 0.897623 0
M  V30 8511 H 823.268 -2.68578 1.41773 0
M  V30 8512 H 820.853 -1.28927 0.754867 0
M  V30 8513 H 822.735 -4.18096 -0.526676 0
M  V30 8514 H 821.41 -3.08041 -0.994593 0
M  V30 8515 H 820.317 -3.51459 1.28169 0
M  V30 8516 H 821.65 -4.63082 1.6678 0
M  V30 8517 N 823.302 -0.75937 -1.38099 0
M  V30 8518 C 824.527 -0.327859 -2.04792 0
M  V30 8519 C 824.952 1.03752 -1.56899 0
M  V30 8520 O 824.31 1.66235 -0.723581 0
M  V30 8521 C 824.358 -0.366264 -3.58735 0
M  V30 8522 O 823.462 0.637697 -4.0744 0
M  V30 8523 H 822.803 -0.144092 -0.648177 0
M  V30 8524 H 825.333 -1.03211 -1.7666 0
M  V30 8525 H 825.343 -0.219179 -4.07411 0
M  V30 8526 H 824.018 -1.36243 -3.92951 0
M  V30 8527 H 822.595 0.454749 -3.70117 0
M  V30 8528 N 824.78 1.49157 -0.508906 0
M  V30 8529 C 826.028 2.02073 0.0327335 0
M  V30 8530 C 826.349 1.39012 1.3675 0
M  V30 8531 O 825.619 0.548153 1.88075 0
M  V30 8532 H 824.199 0.746848 0.0150864 0
M  V30 8533 H 826.861 1.83097 -0.667946 0
M  V30 8534 H 825.957 3.11707 0.1566 0
M  V30 8535 N 826.258 0.243083 1.55714 0
M  V30 8536 C 827.505 -0.38272 1.9885 0
M  V30 8537 C 827.833 -1.58225 1.13115 0
M  V30 8538 O 827.088 -1.94861 0.181067 0
M  V30 8539 C 827.387 -0.839621 3.47398 0
M  V30 8540 C 827.053 0.251737 4.50197 0
M  V30 8541 C 825.715 0.551487 4.78029 0
M  V30 8542 C 828.067 0.988728 5.11736 0
M  V30 8543 C 825.395 1.59237 5.64677 0
M  V30 8544 C 827.747 2.0191 5.99512 0
M  V30 8545 C 826.411 2.32554 6.2568 0
M  V30 8546 H 825.681 -0.140047 0.727645 0
M  V30 8547 H 828.328 0.35011 1.88272 0
M  V30 8548 H 826.633 -1.65159 3.55288 0
M  V30 8549 H 828.33 -1.33404 3.78159 0
M  V30 8550 H 824.92 0.00796741 4.28599 0
M  V30 8551 H 829.104 0.7704 4.90284 0
M  V30 8552 H 824.36 1.83517 5.83208 0
M  V30 8553 H 828.534 2.59511 6.46241 0
M  V30 8554 H 826.161 3.13349 6.92616 0
M  V30 8555 O 827.775 -1.61141 0.107569 0
M  V30 8556 H 828.466 -1.87321 -0.492993 0
M  V30 END ATOM
M  V30 BEGIN BOND
M  V30 END BOND
M  V30 END CTAB
M  END
$$$$
