drugbank_target|Q14542 Equilibrative nucleoside transporter 2 (DB00898)
 OpenBabel12092120583D

  0  0  0     0  0            999 V3000
M  V30 BEGIN CTAB
M  V30 COUNTS 7129 7224 0 0 0
M  V30 BEGIN ATOM
M  V30 1 H -0.908 1.98254 -0.117106 0
M  V30 2 N 0 1.576 0 0
M  V30 3 C 0.933 2.03868 1.02534 0
M  V30 4 C 1.911 0.928543 1.3348 0
M  V30 5 O 3.095 1.19667 1.45644 0
M  V30 6 C 0.222 2.43627 2.35294 0
M  V30 7 C -0.732 3.65373 2.2001 0
M  V30 8 S 0.101 5.13292 1.52614 0
M  V30 9 C 1.257 5.56322 2.86805 0
M  V30 10 H 1.49 2.90518 0.631377 0
M  V30 11 H -0.977 1.52953 0.210867 0
M  V30 12 H 0.981 2.67203 3.11629 0
M  V30 13 H -0.358 1.57376 2.7183 0
M  V30 14 H -1.165 3.90944 3.18086 0
M  V30 15 H -1.563 3.418 1.51819 0
M  V30 16 H 0.729 5.58782 3.83104 0
M  V30 17 H 1.672 6.56266 2.65933 0
M  V30 18 H 2.08 4.83886 2.90714 0
M  V30 19 N 1.4781 -0.272755 1.55222 0
M  V30 20 C 2.4411 -1.32041 1.87344 0
M  V30 21 C 3.4411 -1.42342 0.74803 0
M  V30 22 O 4.6311 -1.41488 1.0162 0
M  V30 23 C 1.7631 -2.70173 2.07893 0
M  V30 24 H 2.9561 -1.04789 2.80997 0
M  V30 25 H 0.5091 -0.51083 1.47717 0
M  V30 26 H 1.2441 -3.02605 1.16622 0
M  V30 27 H 1.0291 -2.64082 2.89833 0
M  V30 28 H 2.5191 -3.45869 2.34017 0
M  V30 29 N 2.9562 -1.48159 -0.537278 0
M  V30 30 C 4.3722 -1.34118 -0.865129 0
M  V30 31 C 4.5722 -0.346678 -1.98495 0
M  V30 32 O 3.6282 0.234715 -2.51407 0
M  V30 33 C 4.9412 -2.73963 -1.23954 0
M  V30 34 C 6.4892 -2.82397 -1.34984 0
M  V30 35 C 6.9642 -4.22928 -1.75772 0
M  V30 36 N 8.4552 -4.25566 -1.82887 0
M  V30 37 C 9.1902 -5.31235 -2.15817 0
M  V30 38 N 8.6862 -6.47189 -2.47222 0
M  V30 39 N 10.4792 -5.18624 -2.16761 0
M  V30 40 H 2.6302 -2.1144 0.201715 0
M  V30 41 H 4.8932 -0.947598 0.0275949 0
M  V30 42 H 4.5992 -3.48264 -0.490381 0
M  V30 43 H 4.4732 -3.0702 -2.19132 0
M  V30 44 H 6.8602 -2.08356 -2.08978 0
M  V30 45 H 6.9412 -2.5297 -0.379448 0
M  V30 46 H 6.5852 -4.97482 -1.02341 0
M  V30 47 H 6.5152 -4.49794 -2.73848 0
M  V30 48 H 9.0062 -3.41924 -1.60924 0
M  V30 49 H 9.3192 -7.23564 -2.71433 0
M  V30 50 H 7.6642 -6.50476 -2.44757 0
M  V30 51 H 10.8552 -4.27056 -1.91679 0
M  V30 52 H 11.0282 -6.01078 -2.42093 0
M  V30 53 N 4.4343 0.785586 -1.36625 0
M  V30 54 C 5.6823 1.54057 -1.30808 0
M  V30 55 C 6.0033 1.94683 0.111157 0
M  V30 56 O 5.2733 1.65241 1.05224 0
M  V30 57 H 3.8533 0.571354 -0.481211 0
M  V30 58 H 6.5153 0.935821 -1.70963 0
M  V30 59 H 5.6113 2.44637 -1.93801 0
M  V30 60 N 5.9124 1.20967 1.01018 0
M  V30 61 C 7.1894 0.93264 1.71934 0
M  V30 62 C 7.5694 -0.55692 2.03621 0
M  V30 63 O 6.9174 -1.52035 1.7058 0
M  V30 64 C 7.1274 1.81233 2.98254 0
M  V30 65 C 8.4754 2.05804 3.71389 0
M  V30 66 O 9.4994 1.78539 3.08225 0
M  V30 67 O 8.3584 2.51888 4.84989 0
M  V30 68 H 5.4524 0.349272 0.749625 0
M  V30 69 H 7.9984 1.31871 1.06808 0
M  V30 70 H 6.7704 2.82067 2.71208 0
M  V30 71 H 6.3934 1.42674 3.7112 0
M  V30 72 N 7.3905 -1.2043 1.01659 0
M  V30 73 C 8.3535 -2.21433 0.591616 0
M  V30 74 C 9.3535 -1.57203 -0.338226 0
M  V30 75 O 10.5435 -1.73737 -0.126918 0
M  V30 76 C 7.6755 -3.40628 -0.136058 0
M  V30 77 H 8.8685 -2.60545 1.48514 0
M  V30 78 H 6.4215 -1.33893 0.806379 0
M  V30 79 H 7.1565 -3.07019 -1.04449 0
M  V30 80 H 6.9415 -3.88475 0.531917 0
M  V30 81 H 8.4315 -4.15475 -0.420735 0
M  V30 82 N 8.8686 -0.792821 -1.36206 0
M  V30 83 C 10.2796 -0.429513 -1.81692 0
M  V30 84 C 10.6306 1.04695 -1.65932 0
M  V30 85 O 9.7556 1.81256 -1.18218 0
M  V30 86 C 10.3506 -0.772831 -3.29868 0
M  V30 87 C 8.9096 -0.462307 -3.7355 0
M  V30 88 C 8.0566 -1.00569 -2.5842 0
M  V30 89 H 11.0076 -0.985672 -1.24379 0
M  V30 90 H 11.0286 -0.0651928 -3.80444 0
M  V30 91 H 10.5406 -1.84747 -3.41307 0
M  V30 92 H 8.6416 0.604158 -3.67669 0
M  V30 93 H 8.7546 -0.985299 -4.68859 0
M  V30 94 H 7.1186 -0.428734 -2.51066 0
M  V30 95 H 7.9016 -2.08616 -2.72643 0
M  V30 96 N 10.3467 1.47872 -0.545128 0
M  V30 97 C 11.7627 1.5829 -0.204032 0
M  V30 98 C 11.9627 1.54529 1.29317 0
M  V30 99 O 11.0187 1.44232 2.07252 0
M  V30 100 C 12.3317 2.89304 -0.819987 0
M  V30 101 C 13.8797 3.02864 -0.790105 0
M  V30 102 C 14.3547 4.3656 -1.38491 0
M  V30 103 N 15.8457 4.43165 -1.34755 0
M  V30 104 C 16.5807 5.45153 -1.77753 0
M  V30 105 N 16.0767 6.54016 -2.2855 0
M  V30 106 N 17.8697 5.36125 -1.68897 0
M  V30 107 H 10.0207 1.4856 -1.51802 0
M  V30 108 H 12.2837 0.706305 -0.632327 0
M  V30 109 H 11.9897 2.97757 -1.87173 0
M  V30 110 H 11.8637 3.75957 -0.305915 0
M  V30 111 H 14.2507 2.94014 0.252913 0
M  V30 112 H 14.3317 2.17782 -1.34181 0
M  V30 113 H 13.9757 4.46164 -2.42693 0
M  V30 114 H 13.9057 5.20353 -0.808754 0
M  V30 115 H 16.3967 3.65083 -0.975855 0
M  V30 116 H 16.7097 7.27994 -2.59314 0
M  V30 117 H 15.0547 6.54938 -2.32553 0
M  V30 118 H 18.2457 4.49975 -1.28998 0
M  V30 119 H 18.4187 6.15472 -2.02726 0
M  V30 120 N 11.8248 0.280983 1.55075 0
M  V30 121 C 13.1018 -0.386207 1.91749 0
M  V30 122 C 13.4818 -1.73264 1.20594 0
M  V30 123 O 12.8298 -2.26034 0.334784 0
M  V30 124 C 13.0398 -0.520687 3.45094 0
M  V30 125 C 14.3878 -0.800865 4.16979 0
M  V30 126 O 15.4118 -0.605271 3.5102 0
M  V30 127 O 14.2708 -1.1753 5.33712 0
M  V30 128 H 11.3648 -0.212408 0.799257 0
M  V30 129 H 13.9108 0.327568 1.66509 0
M  V30 130 H 12.6828 0.426633 3.88967 0
M  V30 131 H 12.3058 -1.2837 3.76307 0
M  V30 132 N 13.3029 -1.57598 0.00835791 0
M  V30 133 C 14.5279 -1.95617 -0.689103 0
M  V30 134 C 14.9529 -0.883753 -1.66046 0
M  V30 135 O 14.3109 0.157352 -1.80616 0
M  V30 136 C 14.3589 -3.32736 -1.38994 0
M  V30 137 O 13.4629 -3.27631 -2.50463 0
M  V30 138 H 12.8039 -0.638379 -0.182668 0
M  V30 139 H 15.3339 -2.045 0.064036 0
M  V30 140 H 15.3439 -3.68494 -1.75147 0
M  V30 141 H 14.0189 -4.1034 -0.677778 0
M  V30 142 H 12.5959 -3.03561 -2.16576 0
M  V30 143 N 14.781 0.264519 -1.55364 0
M  V30 144 C 16.011 1.01153 -1.80143 0
M  V30 145 C 16.419 1.80115 -0.579253 0
M  V30 146 O 15.762 1.77813 0.46132 0
M  V30 147 C 15.824 2.01098 -2.97993 0
M  V30 148 C 15.488 1.40995 -4.34706 0
M  V30 149 C 16.485 0.821316 -5.13372 0
M  V30 150 C 14.17 1.43461 -4.81378 0
M  V30 151 C 16.164 0.265339 -6.36847 0
M  V30 152 C 13.851 0.874771 -6.04807 0
M  V30 153 C 14.849 0.291146 -6.82379 0
M  V30 154 O 14.537 -0.260093 -8.03479 0
M  V30 155 H 14.269 0.304125 -0.603725 0
M  V30 156 H 16.823 0.298089 -2.03225 0
M  V30 157 H 15.053 2.76224 -2.70623 0
M  V30 158 H 16.742 2.61997 -3.1002 0
M  V30 159 H 17.508 0.794903 -4.78442 0
M  V30 160 H 13.387 1.87826 -4.21002 0
M  V30 161 H 16.931 -0.190837 -6.97339 0
M  V30 162 H 12.828 0.898452 -6.39217 0
M  V30 163 H 13.596 -0.150265 -8.18362 0
M  V30 164 N 16.2591 1.48442 0.529413 0
M  V30 165 C 17.2091 1.59407 1.63014 0
M  V30 166 C 18.1931 0.451166 1.54445 0
M  V30 167 O 19.3851 0.702635 1.62456 0
M  V30 168 C 16.5141 1.63746 3.01732 0
M  V30 169 C 15.6001 2.83518 3.15402 0
M  V30 170 N 15.9911 4.07929 2.99045 0
M  V30 171 C 14.2891 2.80862 3.46457 0
M  V30 172 C 14.9901 4.8829 3.16146 0
M  V30 173 N 13.9661 4.21117 3.43746 0
M  V30 174 H 17.7681 2.53343 1.48978 0
M  V30 175 H 15.2821 1.44821 0.734885 0
M  V30 176 H 17.2791 1.69695 3.80801 0
M  V30 177 H 15.9391 0.709264 3.16859 0
M  V30 178 H 16.9501 4.38357 2.75796 0
M  V30 179 H 13.6271 1.97301 3.67938 0
M  V30 180 H 15.0171 5.97028 3.08232 0
M  V30 181 N 17.7372 -0.778329 1.37039 0
M  V30 182 C 18.6672 -1.90546 1.34962 0
M  V30 183 C 19.6482 -1.68681 0.219274 0
M  V30 184 O 20.8332 -1.89634 0.418624 0
M  V30 185 C 17.9632 -3.27734 1.14925 0
M  V30 186 C 16.9172 -3.64147 2.24902 0
M  V30 187 C 16.2432 -4.99806 1.89996 0
M  V30 188 C 17.5432 -3.71579 3.67051 0
M  V30 189 H 19.2372 -1.92541 2.29277 0
M  V30 190 H 16.7832 -0.924948 1.10366 0
M  V30 191 H 18.7362 -4.06215 1.12104 0
M  V30 192 H 17.4602 -3.26154 0.170631 0
M  V30 193 H 16.1192 -2.8797 2.26868 0
M  V30 194 H 15.7672 -4.94759 0.906796 0
M  V30 195 H 15.4672 -5.25139 2.63634 0
M  V30 196 H 16.9912 -5.80694 1.88749 0
M  V30 197 H 18.4052 -4.40227 3.67251 0
M  V30 198 H 16.8022 -4.08405 4.39688 0
M  V30 199 H 17.8722 -2.72404 4.01154 0
M  V30 200 N 19.2153 -1.21501 -1.00376 0
M  V30 201 C 20.4613 -1.03452 -1.74429 0
M  V30 202 C 20.7943 0.430764 -1.89362 0
M  V30 203 O 20.0693 1.31962 -1.42886 0
M  V30 204 C 20.3523 -1.73375 -3.15615 0
M  V30 205 C 20.2053 -3.27431 -3.08397 0
M  V30 206 C 21.5243 -1.47732 -4.14564 0
M  V30 207 H 18.6433 -0.377226 -0.633143 0
M  V30 208 H 21.2853 -1.49693 -1.17013 0
M  V30 209 H 19.4353 -1.34064 -3.64636 0
M  V30 210 H 21.1073 -3.76119 -2.67081 0
M  V30 211 H 19.3503 -3.5767 -2.45468 0
M  V30 212 H 20.0213 -3.71524 -4.08258 0
M  V30 213 H 22.4973 -1.8186 -3.74254 0
M  V30 214 H 21.3733 -1.99169 -5.11491 0
M  V30 215 H 21.6343 -0.407589 -4.40217 0
M  V30 216 N 20.6934 1.19889 -1.02296 0
M  V30 217 C 21.9414 1.89046 -0.714558 0
M  V30 218 C 22.2624 1.79636 0.758681 0
M  V30 219 O 21.5324 1.20292 1.54618 0
M  V30 220 H 20.1124 0.699802 -0.261317 0
M  V30 221 H 22.7744 1.45574 -1.29592 0
M  V30 222 H 21.8704 2.95524 -1.0036 0
M  V30 223 N 22.1715 0.800033 1.35784 0
M  V30 224 C 23.4205 0.37387 1.98205 0
M  V30 225 C 23.7335 -1.06302 1.64193 0
M  V30 226 O 24.9395 -1.59198 2.19928 0
M  V30 227 C 23.3955 0.617532 3.54562 0
M  V30 228 C 23.0035 2.06654 3.9749 0
M  V30 229 C 24.7475 0.256401 4.23725 0
M  V30 230 C 22.6545 2.2563 5.46667 0
M  V30 231 H 21.5845 0.136055 0.741623 0
M  V30 232 H 24.2355 0.983166 1.54939 0
M  V30 233 H 22.6175 -0.0616248 3.95952 0
M  V30 234 H 23.7915 2.78296 3.67271 0
M  V30 235 H 22.1065 2.38691 3.41197 0
M  V30 236 H 24.7035 0.376318 5.33374 0
M  V30 237 H 25.0465 -0.796692 4.08606 0
M  V30 238 H 25.5795 0.889214 3.87734 0
M  V30 239 H 22.3185 3.2936 5.66747 0
M  V30 240 H 21.8385 1.58504 5.78478 0
M  V30 241 H 23.5175 2.06861 6.1304 0
M  V30 242 N 23.6496 -1.47581 0.552962 0
M  V30 243 C 24.8746 -2.07378 0.0300593 0
M  V30 244 C 25.2996 -1.40355 -1.25229 0
M  V30 245 O 24.6576 -0.477099 -1.7491 0
M  V30 246 C 24.7056 -3.60274 -0.153231 0
M  V30 247 O 23.8096 -3.94041 -1.21678 0
M  V30 248 H 23.1506 -0.662158 0.0494182 0
M  V30 249 H 25.6806 -1.89662 0.767434 0
M  V30 250 H 25.6906 -4.0633 -0.368761 0
M  V30 251 H 24.3656 -4.08455 0.783397 0
M  V30 252 H 22.9426 -3.59735 -0.982079 0
M  V30 253 N 25.1277 -0.289203 -1.54924 0
M  V30 254 C 26.3747 0.323519 -1.99899 0
M  V30 255 C 26.7027 1.54797 -1.17762 0
M  V30 256 O 25.9577 1.94237 -0.238835 0
M  V30 257 C 26.2567 0.736119 -3.49737 0
M  V30 258 C 25.9227 -0.385276 -4.49251 0
M  V30 259 C 24.5847 -0.693156 -4.76181 0
M  V30 260 C 26.9367 -1.14021 -5.08575 0
M  V30 261 C 24.2647 -1.7593 -5.59701 0
M  V30 262 C 26.6167 -2.19619 -5.93254 0
M  V30 263 C 25.2807 -2.51026 -6.185 0
M  V30 264 H 24.5507 0.118384 -0.731482 0
M  V30 265 H 27.1977 -0.405847 -1.8715 0
M  V30 266 H 25.5027 1.54539 -3.60035 0
M  V30 267 H 27.1997 1.22118 -3.81953 0
M  V30 268 H 23.7897 -0.135202 -4.28387 0
M  V30 269 H 27.9737 -0.915611 -4.87781 0
M  V30 270 H 23.2297 -2.0075 -5.77503 0
M  V30 271 H 27.4037 -2.78581 -6.38252 0
M  V30 272 H 25.0307 -3.33772 -6.83008 0
M  V30 273 N 26.6058 1.57591 -0.0167156 0
M  V30 274 C 27.8528 1.91283 0.664597 0
M  V30 275 C 28.1808 0.891949 1.72842 0
M  V30 276 O 27.4358 -0.100931 1.9544 0
M  V30 277 C 27.7348 3.3172 1.33029 0
M  V30 278 C 27.4008 4.4914 0.398047 0
M  V30 279 C 26.0628 4.80992 0.141421 0
M  V30 280 C 28.4148 5.20634 -0.242825 0
M  V30 281 C 25.7428 5.81703 -0.764092 0
M  V30 282 C 28.0948 6.22311 -1.13632 0
M  V30 283 C 26.7588 6.52611 -1.40196 0
M  V30 284 H 26.0288 0.699956 0.243193 0
M  V30 285 H 28.6758 1.9135 -0.0758267 0
M  V30 286 H 26.9808 3.27856 2.14517 0
M  V30 287 H 28.6778 3.55055 1.86379 0
M  V30 288 H 25.2678 4.24262 0.608238 0
M  V30 289 H 29.4518 4.96267 -0.0576019 0
M  V30 290 H 24.7078 6.03532 -0.977732 0
M  V30 291 H 28.8818 6.76834 -1.63917 0
M  V30 292 H 26.5088 7.30467 -2.10529 0
M  V30 293 N 28.0839 -0.256276 1.55502 0
M  V30 294 C 29.3329 -0.983486 1.76098 0
M  V30 295 C 29.6459 -1.86837 0.578896 0
M  V30 296 O 30.8519 -2.63163 0.667648 0
M  V30 297 C 29.3079 -1.79868 3.1173 0
M  V30 298 C 28.9159 -0.961648 4.37557 0
M  V30 299 C 30.6599 -2.51919 3.41668 0
M  V30 300 C 28.5669 -1.77219 5.64223 0
M  V30 301 H 27.4969 -0.370936 0.656447 0
M  V30 302 H 30.1479 -0.238492 1.81944 0
M  V30 303 H 28.5299 -2.58527 2.99966 0
M  V30 304 H 29.7039 -0.218048 4.60284 0
M  V30 305 H 28.0189 -0.354913 4.14885 0
M  V30 306 H 30.6159 -3.12998 4.33516 0
M  V30 307 H 30.9589 -3.23059 2.62562 0
M  V30 308 H 31.4919 -1.80278 3.54605 0
M  V30 309 H 28.2309 -1.10471 6.46124 0
M  V30 310 H 27.7509 -2.49132 5.45613 0
M  V30 311 H 29.4299 -2.34169 6.03137 0
M  V30 312 N 29.562 -1.4872 -0.521534 0
M  V30 313 C 30.492 -1.66771 -1.63431 0
M  V30 314 C 31.473 -0.516499 -1.62069 0
M  V30 315 O 32.658 -0.750013 -1.79132 0
M  V30 316 C 29.788 -1.71515 -3.01993 0
M  V30 317 C 28.742 -2.86222 -3.18216 0
M  V30 318 C 28.068 -2.76061 -4.57924 0
M  V30 319 C 29.368 -4.27419 -3.00184 0
M  V30 320 H 31.062 -2.59932 -1.48579 0
M  V30 321 H 28.608 -1.25089 -0.713358 0
M  V30 322 H 30.561 -1.82731 -3.7972 0
M  V30 323 H 29.285 -0.749393 -3.17886 0
M  V30 324 H 27.944 -2.74575 -2.42908 0
M  V30 325 H 27.592 -1.77437 -4.70665 0
M  V30 326 H 27.292 -3.53037 -4.69722 0
M  V30 327 H 28.816 -2.89256 -5.37739 0
M  V30 328 H 30.23 -4.39855 -3.67697 0
M  V30 329 H 28.627 -5.05458 -3.2347 0
M  V30 330 H 29.697 -4.43293 -1.96518 0
M  V30 331 N 31.0401 0.771051 -1.3745 0
M  V30 332 C 32.2881 1.52661 -1.32435 0
M  V30 333 C 32.6091 1.9479 0.0905024 0
M  V30 334 O 31.8791 1.66348 1.03466 0
M  V30 335 H 30.4591 0.566218 -0.487244 0
M  V30 336 H 33.1211 0.917636 -1.71946 0
M  V30 337 H 32.2171 2.42568 -1.96385 0
M  V30 338 N 32.5182 1.22032 0.997298 0
M  V30 339 C 33.4482 1.01065 2.10495 0
M  V30 340 C 34.4292 -0.0669542 1.69968 0
M  V30 341 O 35.6142 0.0943987 1.9397 0
M  V30 342 C 32.7442 0.582874 3.42374 0
M  V30 343 C 31.6982 1.60592 3.96729 0
M  V30 344 C 31.0242 1.03412 5.24605 0
M  V30 345 C 32.3242 2.99478 4.27914 0
M  V30 346 H 34.0182 1.93708 2.28292 0
M  V30 347 H 31.5642 0.932761 1.09707 0
M  V30 348 H 33.5172 0.423332 4.19268 0
M  V30 349 H 32.2412 -0.379213 3.24391 0
M  V30 350 H 30.9002 1.75316 3.21963 0
M  V30 351 H 30.5482 0.063518 5.0296 0
M  V30 352 H 30.2482 1.71754 5.61938 0
M  V30 353 H 31.7722 0.886066 6.04137 0
M  V30 354 H 33.1862 2.88153 4.95622 0
M  V30 355 H 31.5832 3.64903 4.76409 0
M  V30 356 H 32.6532 3.49742 3.3587 0
M  V30 357 N 33.9963 -1.19345 1.0293 0
M  V30 358 C 35.2443 -1.88665 0.724574 0
M  V30 359 C 35.5653 -1.80036 -0.749144 0
M  V30 360 O 34.8353 -1.2111 -1.53978 0
M  V30 361 H 33.4153 -0.698406 0.265025 0
M  V30 362 H 36.0773 -1.44885 1.30362 0
M  V30 363 H 35.1733 -2.94987 1.01926 0
M  V30 364 N 35.4744 -0.807222 -1.35358 0
M  V30 365 C 36.7024 -0.400377 -2.02989 0
M  V30 366 C 37.1174 0.988859 -1.60832 0
M  V30 367 O 36.4744 1.63729 -0.806175 0
M  V30 368 C 36.5254 -0.474867 -3.58368 0
M  V30 369 O 36.2464 -1.80933 -3.98992 0
M  V30 370 C 37.7474 -0.0609112 -4.43258 0
M  V30 371 H 34.9674 -0.162587 -0.651004 0
M  V30 372 H 37.5114 -1.09102 -1.72965 0
M  V30 373 H 35.6664 0.167534 -3.87038 0
M  V30 374 H 36.0804 -1.77256 -4.9364 0
M  V30 375 H 37.5544 -0.164145 -5.51756 0
M  V30 376 H 38.0314 0.993831 -4.27808 0
M  V30 377 H 38.6374 -0.676492 -4.19885 0
M  V30 378 N 36.9525 1.47285 -0.560781 0
M  V30 379 C 37.8825 2.32857 0.173105 0
M  V30 380 C 38.8635 1.44009 0.905281 0
M  V30 381 O 40.0485 1.7286 0.885046 0
M  V30 382 C 37.1785 3.25861 1.20133 0
M  V30 383 C 36.1325 4.23978 0.585388 0
M  V30 384 C 35.4585 5.06332 1.7185 0
M  V30 385 C 36.7585 5.20242 -0.463178 0
M  V30 386 H 38.4525 2.94466 -0.541307 0
M  V30 387 H 35.9985 1.41601 -0.261764 0
M  V30 388 H 37.9515 3.84569 1.72293 0
M  V30 389 H 36.6755 2.62315 1.94573 0
M  V30 390 H 35.3345 3.66501 0.085054 0
M  V30 391 H 34.9825 4.39186 2.45203 0
M  V30 392 H 34.6825 5.72762 1.31213 0
M  V30 393 H 36.2065 5.67899 2.24329 0
M  V30 394 H 37.6205 5.73293 -0.027502 0
M  V30 395 H 36.0175 5.94896 -0.788627 0
M  V30 396 H 37.0875 4.65504 -1.35773 0
M  V30 397 N 38.4306 0.297415 1.54768 0
M  V30 398 C 39.3606 -0.573494 2.26348 0
M  V30 399 C 40.3416 -1.14085 1.26169 0
M  V30 400 O 41.5266 -1.17086 1.54934 0
M  V30 401 C 38.6566 -1.74716 3.00153 0
M  V30 402 C 37.6106 -1.31032 4.07449 0
M  V30 403 C 36.9366 -2.56887 4.68949 0
M  V30 404 C 38.2366 -0.444183 5.20408 0
M  V30 405 H 39.9306 0.0235131 2.99391 0
M  V30 406 H 37.4766 0.0127488 1.43994 0
M  V30 407 H 39.4296 -2.3625 3.48947 0
M  V30 408 H 38.1536 -2.37035 2.24682 0
M  V30 409 H 36.8126 -0.718066 3.59499 0
M  V30 410 H 36.4606 -3.17512 3.90122 0
M  V30 411 H 36.1606 -2.2836 5.41411 0
M  V30 412 H 37.6846 -3.19229 5.20505 0
M  V30 413 H 39.0986 -0.9651 5.65118 0
M  V30 414 H 37.4956 -0.252846 5.99567 0
M  V30 415 H 38.5656 0.531609 4.81977 0
M  V30 416 N 39.9087 -1.5758 0.0250728 0
M  V30 417 C 41.3197 -1.79476 -0.514323 0
M  V30 418 C 41.6707 -0.934956 -1.72491 0
M  V30 419 O 40.7957 -0.144245 -2.15919 0
M  V30 420 C 41.3907 -3.25503 -0.939842 0
M  V30 421 C 39.9497 -3.48408 -1.42438 0
M  V30 422 C 39.0967 -2.74583 -0.387201 0
M  V30 423 H 42.0477 -1.567 0.25113 0
M  V30 424 H 42.0687 -3.34992 -1.80445 0
M  V30 425 H 41.5807 -3.88056 -0.0585628 0
M  V30 426 H 39.6817 -2.91103 -2.32572 0
M  V30 427 H 39.7947 -4.57119 -1.43455 0
M  V30 428 H 38.1587 -2.39942 -0.854409 0
M  V30 429 H 38.9417 -3.39849 0.485543 0
M  V30 430 N 41.3868 0.248026 -1.55636 0
M  V30 431 C 42.6328 0.973427 -1.78594 0
M  V30 432 C 42.9878 1.83007 -0.593823 0
M  V30 433 O 42.2808 1.87097 0.412961 0
M  V30 434 C 42.4748 1.86819 -3.04686 0
M  V30 435 C 42.3038 1.09965 -4.36048 0
M  V30 436 C 41.0738 0.805204 -4.98843 0
M  V30 437 C 43.2718 0.477783 -5.12076 0
M  V30 438 N 41.2538 0.0124859 -6.13899 0
M  V30 439 C 42.6248 -0.179565 -6.1974 0
M  V30 440 C 44.6798 0.388136 -4.96385 0
M  V30 441 C 43.3828 -0.91795 -7.13419 0
M  V30 442 C 45.4088 -0.336716 -5.90441 0
M  V30 443 C 44.7708 -0.982705 -6.97511 0
M  V30 444 H 40.8698 0.337348 -0.705493 0
M  V30 445 H 43.4538 0.24667 -1.93131 0
M  V30 446 H 41.6248 2.56698 -2.9148 0
M  V30 447 H 43.3568 2.52907 -3.15944 0
M  V30 448 H 40.1118 1.11671 -4.60246 0
M  V30 449 H 40.5358 -0.371933 -6.75978 0
M  V30 450 H 45.1778 0.873237 -4.13684 0
M  V30 451 H 42.8958 -1.41466 -7.95621 0
M  V30 452 H 46.4818 -0.406731 -5.80377 0
M  V30 453 H 45.3618 -1.53464 -7.69037 0
M  V30 454 N 42.8649 1.48995 0.513639 0
M  V30 455 C 43.8129 1.65199 1.63744 0
M  V30 456 C 44.8069 0.51809 1.61283 0
M  V30 457 O 46.0129 0.697335 1.65943 0
M  V30 458 H 42.3879 0.52069 0.542574 0
M  V30 459 H 44.3589 2.59552 1.47226 0
M  V30 460 C 43.1079 1.72409 3.01945 0
M  V30 461 H 42.4309 2.59029 3.04539 0
M  V30 462 H 43.8709 1.87785 3.80148 0
M  V30 463 C 42.3299 0.46618 3.33659 0
M  V30 464 O 42.8599 -0.413744 3.99564 0
M  V30 465 N 41.0659 0.332931 2.88687 0
M  V30 466 H 40.6129 1.04996 2.35231 0
M  V30 467 H 40.5709 -0.507665 3.10274 0
M  V30 468 N 44.343 -0.763751 1.37857 0
M  V30 469 C 45.59 -1.52257 1.33506 0
M  V30 470 C 45.918 -1.94343 -0.078022 0
M  V30 471 O 45.173 -1.64958 -1.05297 0
M  V30 472 C 45.472 -2.79499 2.22745 0
M  V30 473 C 45.138 -2.56426 3.70886 0
M  V30 474 C 43.8 -2.49842 4.11257 0
M  V30 475 C 46.152 -2.36008 4.64704 0
M  V30 476 C 43.48 -2.20841 5.43549 0
M  V30 477 C 45.832 -2.0853 5.97242 0
M  V30 478 C 44.496 -2.00396 6.36709 0
M  V30 479 H 43.766 -0.557149 0.488534 0
M  V30 480 H 46.413 -0.879073 1.70131 0
M  V30 481 H 44.718 -3.48447 1.79142 0
M  V30 482 H 46.415 -3.37413 2.16688 0
M  V30 483 H 43.005 -2.62416 3.38874 0
M  V30 484 H 47.189 -2.40079 4.34368 0
M  V30 485 H 42.445 -2.13045 5.73081 0
M  V30 486 H 46.619 -1.91732 6.69486 0
M  V30 487 H 44.246 -1.77688 7.39142 0
M  V30 488 N 45.8211 -1.22559 -0.990812 0
M  V30 489 C 47.0681 -1.05141 -1.73065 0
M  V30 490 C 47.3961 0.413191 -1.9006 0
M  V30 491 O 46.6511 1.32257 -1.44245 0
M  V30 492 C 46.9501 -1.71011 -3.13831 0
M  V30 493 C 46.6161 -3.20911 -3.16745 0
M  V30 494 C 45.2781 -3.61812 -3.17247 0
M  V30 495 C 47.6301 -4.16846 -3.12872 0
M  V30 496 C 44.9581 -4.97127 -3.1158 0
M  V30 497 C 47.3101 -5.5214 -3.08746 0
M  V30 498 C 45.9741 -5.92419 -3.07565 0
M  V30 499 H 45.2441 -0.384738 -0.633291 0
M  V30 500 H 47.8911 -1.5235 -1.16025 0
M  V30 501 H 46.1961 -1.16133 -3.74193 0
M  V30 502 H 47.8931 -1.55023 -3.69823 0
M  V30 503 H 44.4831 -2.88344 -3.17105 0
M  V30 504 H 48.6671 -3.86263 -3.11632 0
M  V30 505 H 43.9231 -5.27562 -3.09012 0
M  V30 506 H 48.0971 -6.26201 -3.04705 0
M  V30 507 H 45.7241 -6.97236 -3.02929 0
M  V30 508 N 47.2992 1.18797 -1.03562 0
M  V30 509 C 48.5482 1.87978 -0.731235 0
M  V30 510 C 48.8612 1.80911 0.743671 0
M  V30 511 O 50.0672 2.45407 1.16137 0
M  V30 512 C 48.5232 3.3721 -1.25768 0
M  V30 513 C 48.1312 3.52818 -2.76085 0
M  V30 514 C 49.8752 4.11825 -1.0296 0
M  V30 515 C 47.7822 4.9598 -3.22114 0
M  V30 516 H 46.7122 0.704063 -0.269835 0
M  V30 517 H 49.3632 1.34266 -1.25079 0
M  V30 518 H 47.7452 3.90359 -0.666011 0
M  V30 519 H 48.9192 3.09965 -3.40966 0
M  V30 520 H 47.2342 2.91602 -2.97249 0
M  V30 521 H 49.8312 5.17411 -1.34869 0
M  V30 522 H 50.1742 4.16287 0.0333546 0
M  V30 523 H 50.7072 3.64833 -1.58562 0
M  V30 524 H 47.4462 4.96684 -4.27768 0
M  V30 525 H 46.9662 5.39569 -2.61965 0
M  V30 526 H 48.6452 5.6467 -3.15844 0
M  V30 527 N 48.7773 0.814389 1.34928 0
M  V30 528 C 50.0053 0.411136 2.02774 0
M  V30 529 C 50.4203 -0.980316 1.61354 0
M  V30 530 O 49.7773 -1.63299 0.814847 0
M  V30 531 C 49.8283 0.493865 3.58111 0
M  V30 532 O 49.5493 1.83047 3.98027 0
M  V30 533 C 51.0503 0.0844174 4.4322 0
M  V30 534 H 48.2703 0.166037 0.650133 0
M  V30 535 H 50.8143 1.10018 1.72384 0
M  V30 536 H 48.9693 -0.147006 3.87121 0
M  V30 537 H 49.3833 1.79872 4.92693 0
M  V30 538 H 50.8573 0.193404 5.51661 0
M  V30 539 H 51.3343 -0.97113 4.28329 0
M  V30 540 H 51.9403 0.69875 4.19521 0
M  V30 541 N 50.2554 -1.46986 0.568584 0
M  V30 542 C 51.2184 -2.28624 -0.162366 0
M  V30 543 C 52.2184 -1.37596 -0.832103 0
M  V30 544 O 53.4084 -1.60115 -0.68622 0
M  V30 545 C 50.5404 -3.17596 -1.23878 0
M  V30 546 H 51.7334 -2.94722 0.554899 0
M  V30 547 H 49.2864 -1.52863 0.325976 0
M  V30 548 H 50.0214 -2.56214 -1.98808 0
M  V30 549 H 49.8064 -3.846 -0.763219 0
M  V30 550 H 51.2964 -3.79078 -1.75185 0
M  V30 551 N 51.7335 -0.305618 -1.54608 0
M  V30 552 C 52.9825 0.303098 -1.9941 0
M  V30 553 C 53.2955 1.54648 -1.19764 0
M  V30 554 O 54.5015 2.23007 -1.54855 0
M  V30 555 C 52.9575 0.590588 -3.55021 0
M  V30 556 C 52.5655 -0.634719 -4.43481 0
M  V30 557 C 54.3095 1.16025 -4.08336 0
M  V30 558 C 52.2165 -0.320126 -5.90533 0
M  V30 559 H 51.1465 0.117031 -0.744862 0
M  V30 560 H 53.7975 -0.415045 -1.78745 0
M  V30 561 H 52.1795 1.36845 -3.71604 0
M  V30 562 H 53.3535 -1.41079 -4.38672 0
M  V30 563 H 51.6685 -1.12333 -4.00962 0
M  V30 564 H 54.2655 1.40994 -5.15776 0
M  V30 565 H 54.6085 2.10397 -3.5922 0
M  V30 566 H 55.1415 0.443985 -3.95315 0
M  V30 567 H 51.8805 -1.23254 -6.43808 0
M  V30 568 H 51.4005 0.418579 -5.98338 0
M  V30 569 H 53.0795 0.0766241 -6.46955 0
M  V30 570 N 53.2116 1.57565 -0.0334293 0
M  V30 571 C 54.6226 1.79746 0.504798 0
M  V30 572 C 54.9736 0.944091 1.71992 0
M  V30 573 O 54.0986 0.155694 2.15839 0
M  V30 574 C 54.6936 3.25997 0.922567 0
M  V30 575 C 53.2526 3.49159 1.40588 0
M  V30 576 C 52.3996 2.74785 0.372633 0
M  V30 577 H 55.3506 1.56565 -0.259436 0
M  V30 578 H 55.3716 3.35945 1.78666 0
M  V30 579 H 54.8836 3.88081 0.0379825 0
M  V30 580 H 52.9846 2.92332 2.31025 0
M  V30 581 H 53.0976 4.57873 1.41028 0
M  V30 582 H 51.4616 2.40391 0.841672 0
M  V30 583 H 52.2446 3.39587 -0.503559 0
M  V30 584 N 54.6897 -0.239769 1.55765 0
M  V30 585 C 55.9197 -0.982743 1.8173 0
M  V30 586 C 56.3277 -1.7917 0.607835 0
M  V30 587 O 55.6707 -1.78525 -0.432973 0
M  V30 588 C 55.7327 -1.96332 3.01155 0
M  V30 589 C 55.3967 -1.34062 4.36894 0
M  V30 590 C 56.3937 -0.739539 5.14613 0
M  V30 591 C 54.0787 -1.35784 4.83599 0
M  V30 592 C 56.0727 -0.163989 6.37189 0
M  V30 593 C 53.7597 -0.778441 6.06122 0
M  V30 594 C 54.7577 -0.182548 6.82756 0
M  V30 595 O 54.4457 0.387887 8.02964 0
M  V30 596 H 54.1777 -0.294481 0.608487 0
M  V30 597 H 56.7317 -0.26572 2.03674 0
M  V30 598 H 54.9617 -2.71884 2.74984 0
M  V30 599 H 56.6507 -2.57032 3.14149 0
M  V30 600 H 57.4167 -0.718687 4.79646 0
M  V30 601 H 53.2957 -1.81105 4.23936 0
M  V30 602 H 56.8397 0.301753 6.96947 0
M  V30 603 H 52.7367 -0.796645 6.40565 0
M  V30 604 H 53.5047 0.28044 8.18019 0
M  V30 605 N 56.1678 -1.49265 -0.50573 0
M  V30 606 C 57.4148 -1.58513 -1.26015 0
M  V30 607 C 57.7428 -0.26972 -1.92621 0
M  V30 608 O 56.9978 0.741997 -1.81088 0
M  V30 609 C 57.2968 -2.69008 -2.35308 0
M  V30 610 C 56.9628 -4.10662 -1.86192 0
M  V30 611 C 55.6248 -4.49212 -1.72516 0
M  V30 612 C 57.9768 -4.99336 -1.49375 0
M  V30 613 C 55.3048 -5.74214 -1.20394 0
M  V30 614 C 57.6568 -6.24852 -0.987072 0
M  V30 615 C 56.3208 -6.62236 -0.836669 0
M  V30 616 H 55.5908 -0.580041 -0.461122 0
M  V30 617 H 58.2378 -1.83078 -0.561665 0
M  V30 618 H 56.5428 -2.38396 -3.10926 0
M  V30 619 H 58.2398 -2.73373 -2.93374 0
M  V30 620 H 54.8298 -3.8023 -1.97795 0
M  V30 621 H 59.0138 -4.70212 -1.5879 0
M  V30 622 H 54.2698 -6.01883 -1.07458 0
M  V30 623 H 58.4438 -6.92944 -0.692983 0
M  V30 624 H 56.0708 -7.58979 -0.430607 0
M  V30 625 N 57.6459 0.756429 -1.3826 0
M  V30 626 C 58.5779 1.87971 -1.31147 0
M  V30 627 C 59.5909 1.61248 -0.224239 0
M  V30 628 O 60.7799 1.71881 -0.481581 0
M  V30 629 C 57.8799 3.23545 -1.00857 0
M  V30 630 C 57.0529 3.77794 -2.20432 0
M  V30 631 C 56.1119 4.91877 -1.86931 0
M  V30 632 O 55.1379 5.06659 -2.59395 0
M  V30 633 N 56.3399 5.74643 -0.822568 0
M  V30 634 H 59.1049 1.94585 -2.2794 0
M  V30 635 H 56.6659 0.936234 -1.32084 0
M  V30 636 H 58.6579 3.97403 -0.765021 0
M  V30 637 H 57.2279 3.12335 -0.128687 0
M  V30 638 H 56.4479 2.95534 -2.6087 0
M  V30 639 H 57.7359 4.10771 -3.00241 0
M  V30 640 H 57.1339 5.65266 -0.221575 0
M  V30 641 H 55.6909 6.48661 -0.638899 0
M  V30 642 N 59.124 1.23083 0.984299 0
M  V30 643 C 60.087 1.00979 2.05757 0
M  V30 644 C 61.087 -0.0269573 1.60777 0
M  V30 645 O 62.277 0.212403 1.729 0
M  V30 646 C 59.409 0.527072 3.36801 0
M  V30 647 H 60.602 1.9622 2.26799 0
M  V30 648 H 58.155 1.05072 1.15714 0
M  V30 649 H 58.89 -0.429294 3.21446 0
M  V30 650 H 58.675 1.27515 3.70786 0
M  V30 651 H 60.165 0.392942 4.15747 0
M  V30 652 N 60.6021 -1.18246 1.0419 0
M  V30 653 C 62.0181 -1.40269 0.761366 0
M  V30 654 C 62.2181 -1.90777 -0.648578 0
M  V30 655 O 61.2741 -2.0929 -1.41258 0
M  V30 656 C 62.5871 -2.40237 1.8085 0
M  V30 657 C 64.1351 -2.53961 1.82955 0
M  V30 658 C 64.6101 -3.57194 2.86664 0
M  V30 659 N 66.1011 -3.64702 2.85563 0
M  V30 660 C 66.8361 -4.44309 3.6246 0
M  V30 661 N 66.3321 -5.27514 4.49111 0
M  V30 662 N 68.1251 -4.39084 3.50944 0
M  V30 663 H 60.2761 -0.837882 1.95175 0
M  V30 664 H 62.5391 -0.430608 0.84456 0
M  V30 665 H 62.2451 -2.10176 2.81991 0
M  V30 666 H 62.1191 -3.39601 1.64168 0
M  V30 667 H 64.5061 -2.83338 0.824855 0
M  V30 668 H 64.5871 -1.54706 2.03715 0
M  V30 669 H 64.2311 -3.28558 3.87314 0
M  V30 670 H 64.1611 -4.5613 2.6316 0
M  V30 671 H 66.6521 -3.05289 2.22727 0
M  V30 672 H 66.9651 -5.85411 5.04493 0
M  V30 673 H 65.3101 -5.2693 4.53178 0
M  V30 674 H 68.5011 -3.7313 2.82651 0
M  V30 675 H 68.6741 -5.00883 4.11121 0
M  V30 676 N 62.0802 -0.821533 -1.34494 0
M  V30 677 C 63.0102 -0.257138 -2.3208 0
M  V30 678 C 63.9912 0.625645 -1.58176 0
M  V30 679 O 65.1762 0.552811 -1.86166 0
M  V30 680 C 62.3062 0.582958 -3.42372 0
M  V30 681 C 61.2602 -0.202571 -4.2752 0
M  V30 682 C 60.5862 0.760179 -5.29269 0
M  V30 683 C 61.8862 -1.40998 -5.02908 0
M  V30 684 H 63.5802 -1.07247 -2.79532 0
M  V30 685 H 61.1262 -0.517163 -1.34393 0
M  V30 686 H 63.0792 0.987972 -4.09655 0
M  V30 687 H 61.8032 1.43133 -2.93565 0
M  V30 688 H 60.4622 -0.588936 -3.61838 0
M  V30 689 H 60.1102 1.60447 -4.76724 0
M  V30 690 H 59.8102 0.238809 -5.87115 0
M  V30 691 H 61.3342 1.16308 -5.9942 0
M  V30 692 H 62.7482 -1.07905 -5.63054 0
M  V30 693 H 61.1452 -1.86689 -5.70322 0
M  V30 694 H 62.2152 -2.1889 -4.32684 0
M  V30 695 N 63.5583 1.46682 -0.576371 0
M  V30 696 C 64.5213 2.28707 0.150239 0
M  V30 697 C 65.5213 1.38035 0.824794 0
M  V30 698 O 66.7113 1.60476 0.677719 0
M  V30 699 C 63.8433 3.18248 1.22192 0
M  V30 700 H 65.0363 2.94423 -0.570521 0
M  V30 701 H 62.5893 1.52688 -0.334078 0
M  V30 702 H 63.3243 2.57265 1.97447 0
M  V30 703 H 63.1093 3.85 0.742812 0
M  V30 704 H 64.5993 3.80001 1.73172 0
M  V30 705 N 65.0364 0.313813 1.54444 0
M  V30 706 C 66.2844 -0.291099 1.99993 0
M  V30 707 C 66.6054 -1.53418 1.20366 0
M  V30 708 O 65.8754 -1.93544 0.302927 0
M  V30 709 H 64.4554 -0.110552 0.738774 0
M  V30 710 H 67.1174 0.428106 1.9014 0
M  V30 711 H 66.2134 -0.554268 3.07139 0
M  V30 712 N 66.5145 -1.57545 0.0417849 0
M  V30 713 C 67.4775 -2.09885 -0.92093 0
M  V30 714 C 68.4775 -1.01648 -1.24596 0
M  V30 715 O 69.6675 -1.27759 -1.1842 0
M  V30 716 C 66.7995 -2.57527 -2.23367 0
M  V30 717 H 67.9925 -2.96236 -0.467382 0
M  V30 718 H 65.5455 -1.5493 -0.206467 0
M  V30 719 H 66.2805 -1.74542 -2.73323 0
M  V30 720 H 66.0655 -3.36613 -2.01083 0
M  V30 721 H 67.5555 -2.98201 -2.92346 0
M  V30 722 N 67.9926 0.231505 -1.5589 0
M  V30 723 C 69.2406 0.955461 -1.78088 0
M  V30 724 C 69.5616 1.85262 -0.608533 0
M  V30 725 O 68.8316 1.92277 0.375035 0
M  V30 726 H 67.4116 0.355787 -0.656829 0
M  V30 727 H 70.0736 0.245751 -1.93344 0
M  V30 728 H 69.1696 1.56814 -2.69844 0
M  V30 729 N 69.4707 1.49531 0.497807 0
M  V30 730 C 70.4187 1.66926 1.61983 0
M  V30 731 C 71.4127 0.535167 1.60724 0
M  V30 732 O 72.6187 0.714896 1.65195 0
M  V30 733 H 68.9937 0.526415 0.537021 0
M  V30 734 H 70.9647 2.61098 1.44465 0
M  V30 735 C 69.7137 1.75602 3.00099 0
M  V30 736 H 69.0367 2.62244 3.01775 0
M  V30 737 H 70.4767 1.91807 3.78135 0
M  V30 738 C 68.9357 0.501543 3.33146 0
M  V30 739 O 69.4657 -0.371342 3.9998 0
M  V30 740 N 67.6717 0.363531 2.88317 0
M  V30 741 H 67.2187 1.07485 2.34104 0
M  V30 742 H 67.1767 -0.474728 3.10795 0
M  V30 743 N 70.9488 -0.749086 1.3866 0
M  V30 744 C 72.1738 -1.54344 1.38538 0
M  V30 745 C 72.5988 -1.88088 -0.0216655 0
M  V30 746 O 71.9568 -1.50899 -1.00494 0
M  V30 747 C 72.0048 -2.8164 2.25192 0
M  V30 748 O 71.1088 -3.7698 1.67212 0
M  V30 749 H 70.4498 -0.466654 0.472367 0
M  V30 750 H 72.9798 -0.925355 1.82478 0
M  V30 751 H 72.9898 -3.30519 2.3921 0
M  V30 752 H 71.6648 -2.56411 3.27454 0
M  V30 753 H 70.2418 -3.35699 1.6236 0
M  V30 754 N 72.4269 -1.23603 -0.977757 0
M  V30 755 C 73.6549 -1.09646 -1.75458 0
M  V30 756 C 74.0699 0.351859 -1.85492 0
M  V30 757 O 73.4269 1.24327 -1.336 0
M  V30 758 C 73.4779 -1.71895 -3.18016 0
M  V30 759 O 73.1989 -3.11063 -3.08498 0
M  V30 760 C 74.6999 -1.63415 -4.12081 0
M  V30 761 H 71.9199 -0.38359 -0.550545 0
M  V30 762 H 74.4639 -1.63507 -1.22824 0
M  V30 763 H 72.6189 -1.22061 -3.67668 0
M  V30 764 H 73.0329 -3.41305 -3.9826 0
M  V30 765 H 74.5069 -2.11669 -5.09804 0
M  V30 766 H 74.9839 -0.593462 -4.35172 0
M  V30 767 H 75.5899 -2.12628 -3.68334 0
M  V30 768 N 73.905 1.17692 -1.04816 0
M  V30 769 C 74.868 2.19787 -0.650117 0
M  V30 770 C 75.868 1.58044 0.296427 0
M  V30 771 O 77.058 1.74012 0.0808097 0
M  V30 772 C 74.19 3.40869 0.0456987 0
M  V30 773 H 75.383 2.56516 -1.5537 0
M  V30 774 H 72.936 1.31708 -0.841594 0
M  V30 775 H 73.671 3.09681 0.962726 0
M  V30 776 H 73.456 3.86928 -0.634727 0
M  V30 777 H 74.946 4.16445 0.310432 0
M  V30 778 N 75.3831 0.828654 1.34056 0
M  V30 779 C 76.7991 0.515135 1.51058 0
M  V30 780 C 76.9991 -0.959581 1.77184 0
M  V30 781 O 76.0551 -1.74382 1.82612 0
M  V30 782 C 77.3681 1.37963 2.67183 0
M  V30 783 C 78.9161 1.37735 2.81066 0
M  V30 784 C 79.3911 2.22645 4.00241 0
M  V30 785 N 80.8821 2.203 4.07458 0
M  V30 786 C 81.6171 2.82744 4.98842 0
M  V30 787 N 81.1131 3.54201 5.9541 0
M  V30 788 N 82.9061 2.72268 4.91759 0
M  V30 789 H 75.0571 1.78343 1.15358 0
M  V30 790 H 77.3201 0.760304 0.566252 0
M  V30 791 H 77.0261 2.42714 2.54525 0
M  V30 792 H 76.9001 1.0484 3.62338 0
M  V30 793 H 79.2871 0.337593 2.93163 0
M  V30 794 H 79.3681 1.74859 1.86703 0
M  V30 795 H 79.0121 3.26674 3.88905 0
M  V30 796 H 78.9421 1.82869 4.93829 0
M  V30 797 H 81.4331 1.68327 3.38341 0
M  V30 798 H 81.7461 3.9908 6.61782 0
M  V30 799 H 80.0911 3.58308 5.95517 0
M  V30 800 H 83.2821 2.16014 4.15278 0
M  V30 801 H 83.4551 3.21219 5.62781 0
M  V30 802 N 76.8612 -1.46375 0.584142 0
M  V30 803 C 78.1102 -2.01585 0.0679741 0
M  V30 804 C 78.4232 -1.46109 -1.30045 0
M  V30 805 O 79.6292 -1.93148 -1.90804 0
M  V30 806 C 78.0852 -3.5983 0.0709207 0
M  V30 807 C 77.6932 -4.24303 1.43775 0
M  V30 808 C 79.4372 -4.22693 -0.391228 0
M  V30 809 C 77.3442 -5.74631 1.39834 0
M  V30 810 H 76.2742 -0.753689 0.0216421 0
M  V30 811 H 78.9252 -1.68093 0.736001 0
M  V30 812 H 77.3072 -3.90405 -0.663299 0
M  V30 813 H 78.4812 -4.05335 2.19181 0
M  V30 814 H 76.7962 -3.73539 1.84004 0
M  V30 815 H 79.3932 -5.3289 -0.439524 0
M  V30 816 H 79.7362 -3.91728 -1.40906 0
M  V30 817 H 80.2692 -3.96749 0.288974 0
M  V30 818 H 77.0082 -6.10258 2.39303 0
M  V30 819 H 76.5282 -5.95858 0.686505 0
M  V30 820 H 78.2072 -6.37375 1.11187 0
M  V30 821 N 78.3393 -0.321999 -1.54275 0
M  V30 822 C 79.2693 0.537411 -2.27231 0
M  V30 823 C 80.2503 1.12064 -1.27968 0
M  V30 824 O 81.4353 1.14606 -1.56777 0
M  V30 825 C 78.5653 1.69919 -3.02894 0
M  V30 826 C 77.5193 1.24534 -4.09482 0
M  V30 827 C 76.8453 2.49394 -4.72977 0
M  V30 828 C 78.1453 0.361335 -5.21049 0
M  V30 829 H 79.8393 -0.0711406 -2.99315 0
M  V30 830 H 77.3853 -0.0356555 -1.43956 0
M  V30 831 H 79.3383 2.30668 -3.52662 0
M  V30 832 H 78.0623 2.33431 -2.28424 0
M  V30 833 H 76.7213 0.660782 -3.60596 0
M  V30 834 H 76.3693 3.11265 -3.95124 0
M  V30 835 H 76.0693 2.19718 -5.44975 0
M  V30 836 H 77.5933 3.10908 -5.25517 0
M  V30 837 H 79.0073 0.875072 -5.66582 0
M  V30 838 H 77.4043 0.157428 -5.99893 0
M  V30 839 H 78.4743 -0.60822 -4.8107 0
M  V30 840 N 79.8174 1.5752 -0.0501392 0
M  V30 841 C 81.0424 1.97376 0.636997 0
M  V30 842 C 81.4674 0.927466 1.63645 0
M  V30 843 O 80.8254 -0.10941 1.8097 0
M  V30 844 C 80.8734 3.36304 1.30123 0
M  V30 845 O 79.9774 3.34156 2.41689 0
M  V30 846 H 79.3184 0.642998 0.165679 0
M  V30 847 H 81.8484 2.04258 -0.118233 0
M  V30 848 H 81.8584 3.73008 1.65315 0
M  V30 849 H 80.5334 4.11993 0.568746 0
M  V30 850 H 79.1104 3.09196 2.08451 0
M  V30 851 N 81.2955 -0.223234 1.56011 0
M  V30 852 C 82.5235 -0.964812 1.83027 0
M  V30 853 C 82.9385 -1.78013 0.62904 0
M  V30 854 O 82.2955 -1.78008 -0.402414 0
M  V30 855 C 82.3465 -1.88373 3.08542 0
M  V30 856 O 82.0675 -1.10137 4.2403 0
M  V30 857 C 83.5685 -2.73934 3.48533 0
M  V30 858 H 80.7885 -0.282842 0.608475 0
M  V30 859 H 83.3325 -0.238971 2.03099 0
M  V30 860 H 81.4875 -2.56354 2.9045 0
M  V30 861 H 81.9015 -1.72501 4.95322 0
M  V30 862 H 83.3755 -3.34117 4.39397 0
M  V30 863 H 83.8525 -3.46244 2.70207 0
M  V30 864 H 84.4585 -2.11369 3.69057 0
M  V30 865 N 82.7736 -1.49793 -0.48987 0
M  V30 866 C 83.7216 -1.67783 -1.61095 0
M  V30 867 C 84.7156 -0.543683 -1.60438 0
M  V30 868 O 85.9216 -0.723647 -1.64813 0
M  V30 869 H 82.2966 -0.529255 -0.534222 0
M  V30 870 H 84.2676 -2.61861 -1.43078 0
M  V30 871 C 83.0166 -1.77191 -2.99164 0
M  V30 872 H 82.3396 -2.63841 -3.0038 0
M  V30 873 H 83.7796 -1.93809 -3.77113 0
M  V30 874 C 82.2386 -0.519203 -3.32875 0
M  V30 875 O 82.7686 0.350124 -4.00171 0
M  V30 876 N 80.9746 -0.378816 -2.8812 0
M  V30 877 H 80.5216 -1.08725 -2.33531 0
M  V30 878 H 80.4796 0.458239 -3.11043 0
M  V30 879 N 84.2517 0.741722 -1.39055 0
M  V30 880 C 85.2017 1.84661 -1.33732 0
M  V30 881 C 86.1857 1.59397 -0.219401 0
M  V30 882 O 87.3777 1.71015 -0.456375 0
M  V30 883 C 84.5067 3.22512 -1.17647 0
M  V30 884 C 83.5927 3.53628 -2.34112 0
M  V30 885 N 83.9837 3.55723 -3.59576 0
M  V30 886 C 82.2817 3.83956 -2.26923 0
M  V30 887 C 82.9827 3.84443 -4.36553 0
M  V30 888 N 81.9587 4.01877 -3.66055 0
M  V30 889 H 85.7607 1.84576 -2.28711 0
M  V30 890 H 83.2747 0.939647 -1.32455 0
M  V30 891 H 85.2717 4.01597 -1.11917 0
M  V30 892 H 83.9317 3.2384 -0.236124 0
M  V30 893 H 84.9427 3.37196 -3.93089 0
M  V30 894 H 81.6197 3.92929 -1.41113 0
M  V30 895 H 83.0097 3.92588 -5.45274 0
M  V30 896 N 85.7298 1.2412 0.971189 0
M  V30 897 C 86.9578 1.10575 1.74874 0
M  V30 898 C 87.3728 -0.342017 1.85676 0
M  V30 899 O 86.7298 -1.23617 1.34258 0
M  V30 900 C 86.7808 1.73579 3.171 0
M  V30 901 O 86.5018 3.12695 3.06844 0
M  V30 902 C 88.0028 1.65598 4.11208 0
M  V30 903 H 85.2228 0.386504 0.548503 0
M  V30 904 H 87.7668 1.64156 1.21955 0
M  V30 905 H 85.9218 1.24009 3.67016 0
M  V30 906 H 86.3358 3.43412 3.96445 0
M  V30 907 H 87.8098 2.1437 5.08674 0
M  V30 908 H 88.2868 0.616532 4.34851 0
M  V30 909 H 88.8928 2.14578 3.67201 0
M  V30 910 N 87.2079 -1.17134 1.05439 0
M  V30 911 C 88.4559 -1.87085 0.764429 0
M  V30 912 C 88.7769 -1.81584 -0.710787 0
M  V30 913 O 88.0469 -1.24349 -1.51374 0
M  V30 914 H 86.6269 -0.692627 0.279779 0
M  V30 915 H 89.2889 -1.42087 1.33406 0
M  V30 916 H 88.3849 -2.92759 1.0816 0
M  V30 917 N 88.686 -0.835752 -1.33615 0
M  V30 918 C 90.097 -0.487099 -1.80234 0
M  V30 919 C 90.448 0.993627 -1.69179 0
M  V30 920 O 89.573 1.77403 -1.23924 0
M  V30 921 C 90.168 -0.877385 -3.27242 0
M  V30 922 C 88.727 -0.580915 -3.7189 0
M  V30 923 C 87.874 -1.0874 -2.5509 0
M  V30 924 H 90.825 -1.02474 -1.2118 0
M  V30 925 H 90.846 -0.186195 -3.80044 0
M  V30 926 H 90.358 -1.95512 -3.35256 0
M  V30 927 H 88.459 0.486881 -3.69405 0
M  V30 928 H 88.572 -1.13396 -4.65487 0
M  V30 929 H 86.936 -0.508392 -2.49575 0
M  V30 930 H 87.719 -2.17184 -2.65868 0
M  V30 931 N 90.1641 1.46063 -0.591896 0
M  V30 932 C 91.0741 2.34192 0.13831 0
M  V30 933 C 92.0901 1.50305 0.876608 0
M  V30 934 O 93.2661 1.8315 0.837728 0
M  V30 935 C 90.3311 3.27656 1.13326 0
M  V30 936 C 89.3921 4.27445 0.39863 0
M  V30 937 C 88.6251 5.16443 1.34618 0
M  V30 938 O 88.8481 5.08553 2.58321 0
M  V30 939 O 87.7821 5.95843 0.851768 0
M  V30 940 H 91.6081 2.98002 -0.58552 0
M  V30 941 H 89.1931 1.45188 -0.352239 0
M  V30 942 H 91.0751 3.85291 1.70671 0
M  V30 943 H 89.7501 2.6643 1.83839 0
M  V30 944 H 88.6571 3.73471 -0.216895 0
M  V30 945 H 89.9901 4.91482 -0.265709 0
M  V30 946 N 91.6422 0.330177 1.54103 0
M  V30 947 C 92.9192 -0.325007 1.92881 0
M  V30 948 C 93.2992 -1.6934 1.26045 0
M  V30 949 O 92.6472 -2.24855 0.406526 0
M  V30 950 C 92.8572 -0.410634 3.46576 0
M  V30 951 C 94.2052 -0.667801 4.19316 0
M  V30 952 O 95.2292 -0.49329 3.52768 0
M  V30 953 O 94.0882 -1.00491 5.37181 0
M  V30 954 H 91.1822 -0.186873 0.80561 0
M  V30 955 H 93.7282 0.380376 1.65382 0
M  V30 956 H 92.5002 0.550164 3.87413 0
M  V30 957 H 92.1232 -1.16333 3.802 0
M  V30 958 N 93.1203 -1.57491 0.0584922 0
M  V30 959 C 94.0833 -2.1085 -0.898617 0
M  V30 960 C 95.0833 -1.02964 -1.23511 0
M  V30 961 O 96.2733 -1.29007 -1.17059 0
M  V30 962 C 93.4053 -2.59881 -2.20623 0
M  V30 963 H 94.5983 -2.96715 -0.435936 0
M  V30 964 H 92.1513 -1.55141 -0.190023 0
M  V30 965 H 92.8863 -1.77431 -2.71457 0
M  V30 966 H 92.6713 -3.38727 -1.97501 0
M  V30 967 H 94.1613 -3.01285 -2.89166 0
M  V30 968 N 94.5984 0.214957 -1.56127 0
M  V30 969 C 95.8454 0.938372 -1.79446 0
M  V30 970 C 96.1734 1.8407 -0.628378 0
M  V30 971 O 95.4284 1.91837 0.386925 0
M  V30 972 C 95.7274 1.80314 -3.0858 0
M  V30 973 C 95.3934 1.05349 -4.3842 0
M  V30 974 C 94.0554 0.846435 -4.73697 0
M  V30 975 C 96.4074 0.524588 -5.18553 0
M  V30 976 C 93.7354 0.098683 -5.86617 0
M  V30 977 C 96.0874 -0.209853 -6.32252 0
M  V30 978 C 94.7514 -0.428102 -6.66126 0
M  V30 979 H 94.0214 0.343375 -0.656639 0
M  V30 980 H 96.6684 0.206077 -1.90388 0
M  V30 981 H 94.9734 2.6035 -2.92789 0
M  V30 982 H 96.6704 2.36513 -3.23825 0
M  V30 983 H 93.2604 1.22486 -4.10725 0
M  V30 984 H 97.4444 0.672008 -4.91729 0
M  V30 985 H 92.7004 -0.0805753 -6.11347 0
M  V30 986 H 96.8744 -0.627157 -6.9357 0
M  V30 987 H 94.5014 -1.00944 -7.53468 0
M  V30 988 N 96.0765 1.50051 0.48192 0
M  V30 989 C 97.0245 1.68635 1.60203 0
M  V30 990 C 98.0185 0.552184 1.60148 0
M  V30 991 O 99.2245 0.732377 1.64427 0
M  V30 992 H 95.5995 0.532081 0.531407 0
M  V30 993 H 97.5705 2.62616 1.41688 0
M  V30 994 C 96.3195 1.78775 2.9822 0
M  V30 995 H 95.6425 2.6543 2.98976 0
M  V30 996 H 97.0825 1.95806 3.7608 0
M  V30 997 C 95.5415 0.536849 3.32595 0
M  V30 998 O 96.0715 -0.328897 4.00351 0
M  V30 999 N 94.2775 0.394091 2.87915 0
M  V30 1000 H 93.8245 1.09962 2.32951 0
M  V30 1001 H 93.7825 -0.441737 3.11281 0
M  V30 1002 N 97.5546 -0.734337 1.39446 0
M  V30 1003 C 98.8016 -1.49391 1.36706 0
M  V30 1004 C 99.1296 -1.94465 -0.0367813 0
M  V30 1005 O 98.3846 -1.67154 -1.01774 0
M  V30 1006 C 98.6836 -2.74711 2.28623 0
M  V30 1007 C 98.3496 -2.48501 3.76242 0
M  V30 1008 C 97.0116 -2.41062 4.16464 0
M  V30 1009 C 99.3636 -2.26098 4.69606 0
M  V30 1010 C 96.6916 -2.09262 5.48112 0
M  V30 1011 C 99.0436 -1.95814 6.01531 0
M  V30 1012 C 97.7076 -1.86845 6.40816 0
M  V30 1013 H 96.9776 -0.546661 0.500243 0
M  V30 1014 H 99.6246 -0.842788 1.71957 0
M  V30 1015 H 97.9296 -3.44569 1.86492 0
M  V30 1016 H 99.6266 -3.32741 2.23796 0
M  V30 1017 H 96.2166 -2.55169 3.44364 0
M  V30 1018 H 100.401 -2.30812 4.39363 0
M  V30 1019 H 95.6566 -2.00841 5.77471 0
M  V30 1020 H 99.8306 -1.77488 6.73403 0
M  V30 1021 H 97.4576 -1.6197 7.42745 0
M  V30 1022 N 99.0327 -1.24633 -0.964593 0
M  V30 1023 C 99.9807 -1.03917 -2.08096 0
M  V30 1024 C 100.975 0.0268581 -1.69379 0
M  V30 1025 O 102.181 -0.127952 -1.79545 0
M  V30 1026 H 98.5557 -0.319044 -0.680966 0
M  V30 1027 H 100.527 -1.98581 -2.22729 0
M  V30 1028 C 99.2757 -0.663983 -3.41301 0
M  V30 1029 H 98.5987 -1.47605 -3.71555 0
M  V30 1030 H 100.039 -0.558663 -4.20303 0
M  V30 1031 C 98.4977 0.629169 -3.30973 0
M  V30 1032 O 99.0277 1.67404 -3.65156 0
M  V30 1033 N 97.2337 0.611057 -2.84103 0
M  V30 1034 H 96.7807 -0.239593 -2.56483 0
M  V30 1035 H 96.7387 1.47647 -2.77575 0
M  V30 1036 N 100.511 1.16574 -1.06058 0
M  V30 1037 C 101.459 2.22941 -0.663343 0
M  V30 1038 C 102.453 1.66358 0.319593 0
M  V30 1039 O 103.659 1.7905 0.184713 0
M  V30 1040 H 100.034 0.725907 -0.196376 0
M  V30 1041 H 102.005 2.53736 -1.57037 0
M  V30 1042 C 100.754 3.47642 -0.0632808 0
M  V30 1043 H 100.077 3.91493 -0.810733 0
M  V30 1044 H 101.517 4.2363 0.177177 0
M  V30 1045 C 99.9758 3.1509 1.19248 0
M  V30 1046 O 100.506 3.30673 2.28075 0
M  V30 1047 N 98.7118 2.6924 1.09353 0
M  V30 1048 H 98.2588 2.5676 0.207912 0
M  V30 1049 H 98.2168 2.47833 1.93458 0
M  V30 1050 N 101.989 0.842826 1.3317 0
M  V30 1051 C 103.235 0.450342 1.98352 0
M  V30 1052 C 103.59 -0.980508 1.65541 0
M  V30 1053 O 102.883 -1.67678 0.927065 0
M  V30 1054 C 103.077 0.612607 3.52111 0
M  V30 1055 C 102.906 2.05768 3.99862 0
M  V30 1056 C 101.676 2.69374 4.27511 0
M  V30 1057 C 103.874 3.02688 4.15794 0
M  V30 1058 N 101.856 4.04915 4.61429 0
M  V30 1059 C 103.227 4.23186 4.53115 0
M  V30 1060 C 105.282 2.99041 3.98094 0
M  V30 1061 C 103.985 5.40518 4.74587 0
M  V30 1062 C 106.011 4.15607 4.20743 0
M  V30 1063 C 105.373 5.3486 4.58371 0
M  V30 1064 H 101.472 0.213296 0.752349 0
M  V30 1065 H 104.056 1.09173 1.61212 0
M  V30 1066 H 102.227 0.000998822 3.884 0
M  V30 1067 H 103.959 0.191179 4.04248 0
M  V30 1068 H 100.714 2.20485 4.19146 0
M  V30 1069 H 101.138 4.74798 4.82593 0
M  V30 1070 H 105.78 2.0797 3.68114 0
M  V30 1071 H 103.498 6.3213 5.03425 0
M  V30 1072 H 107.084 4.14207 4.08563 0
M  V30 1073 H 105.964 6.23558 4.75547 0
M  V30 1074 N 103.467 -1.45747 0.599634 0
M  V30 1075 C 104.713 -2.02592 0.0918643 0
M  V30 1076 C 105.046 -1.46806 -1.27128 0
M  V30 1077 O 104.321 -0.639658 -1.83681 0
M  V30 1078 C 104.604 -3.60073 0.0443398 0
M  V30 1079 C 104.457 -4.26208 1.43759 0
M  V30 1080 C 105.776 -4.35309 -0.647608 0
M  V30 1081 H 102.895 -0.736175 0.034857 0
M  V30 1082 H 105.537 -1.73694 0.770081 0
M  V30 1083 H 103.687 -3.84823 -0.533224 0
M  V30 1084 H 105.359 -4.12668 2.06162 0
M  V30 1085 H 103.602 -3.84916 2.00056 0
M  V30 1086 H 104.273 -5.35069 1.35665 0
M  V30 1087 H 106.749 -4.15805 -0.156776 0
M  V30 1088 H 105.625 -5.45038 -0.649942 0
M  V30 1089 H 105.886 -4.07598 -1.71219 0
M  V30 1090 N 104.945 -0.338344 -1.53925 0
M  V30 1091 C 106.173 0.261298 -2.05243 0
M  V30 1092 C 106.588 1.44625 -1.21363 0
M  V30 1093 O 105.945 1.80811 -0.247736 0
M  V30 1094 C 105.996 0.681412 -3.5502 0
M  V30 1095 O 105.717 -0.456414 -4.35716 0
M  V30 1096 C 107.218 1.34232 -4.22489 0
M  V30 1097 H 104.438 0.0513685 -0.669031 0
M  V30 1098 H 106.982 -0.488822 -1.98572 0
M  V30 1099 H 105.137 1.38148 -3.61931 0
M  V30 1100 H 105.551 -0.122564 -5.24357 0
M  V30 1101 H 107.025 1.58708 -5.28693 0
M  V30 1102 H 107.502 2.29426 -3.74514 0
M  V30 1103 H 108.108 0.684424 -4.19757 0
M  V30 1104 N 106.423 1.57458 -0.0668435 0
M  V30 1105 C 107.353 2.15468 0.899764 0
M  V30 1106 C 108.334 1.08042 1.31381 0
M  V30 1107 O 109.519 1.36054 1.38574 0
M  V30 1108 C 106.649 2.71232 2.16911 0
M  V30 1109 C 105.603 3.83781 1.89463 0
M  V30 1110 C 104.929 4.26127 3.22986 0
M  V30 1111 C 106.229 5.08238 1.20381 0
M  V30 1112 H 107.923 2.96488 0.416529 0
M  V30 1113 H 105.469 1.4262 0.198908 0
M  V30 1114 H 107.422 3.10458 2.84945 0
M  V30 1115 H 106.146 1.87426 2.67468 0
M  V30 1116 H 104.805 3.45051 1.23836 0
M  V30 1117 H 104.453 3.39249 3.71374 0
M  V30 1118 H 104.153 5.01993 3.05413 0
M  V30 1119 H 105.677 4.67966 3.92225 0
M  V30 1120 H 107.091 5.44811 1.78475 0
M  V30 1121 H 105.488 5.89349 1.13083 0
M  V30 1122 H 106.558 4.84558 0.182153 0
M  V30 1123 N 107.901 -0.206675 1.56239 0
M  V30 1124 C 108.831 -1.25909 1.96645 0
M  V30 1125 C 109.812 -1.48097 0.836734 0
M  V30 1126 O 110.997 -1.6003 1.10019 0
M  V30 1127 C 108.127 -2.6058 2.29599 0
M  V30 1128 C 107.081 -2.53024 3.452 0
M  V30 1129 C 106.407 -3.91861 3.63798 0
M  V30 1130 C 107.707 -2.06524 4.79734 0
M  V30 1131 H 109.401 -0.923369 2.84806 0
M  V30 1132 H 106.947 -0.442735 1.37025 0
M  V30 1133 H 108.9 -3.34375 2.56459 0
M  V30 1134 H 107.624 -2.95869 1.38307 0
M  V30 1135 H 106.283 -1.81684 3.18412 0
M  V30 1136 H 105.931 -4.24483 2.69857 0
M  V30 1137 H 105.631 -3.87683 4.4156 0
M  V30 1138 H 107.155 -4.67296 3.93022 0
M  V30 1139 H 108.569 -2.70072 5.05702 0
M  V30 1140 H 106.966 -2.13374 5.60885 0
M  V30 1141 H 108.036 -1.01802 4.74093 0
M  V30 1142 N 109.379 -1.50304 -0.473955 0
M  V30 1143 C 110.604 -1.65175 -1.25427 0
M  V30 1144 C 111.029 -0.333673 -1.85117 0
M  V30 1145 O 110.387 0.702114 -1.67153 0
M  V30 1146 C 110.435 -2.74295 -2.34082 0
M  V30 1147 O 109.539 -2.35349 -3.38651 0
M  V30 1148 H 108.88 -0.551944 -0.369126 0
M  V30 1149 H 111.41 -1.96662 -0.564364 0
M  V30 1150 H 111.42 -2.97285 -2.79438 0
M  V30 1151 H 110.095 -3.69959 -1.90008 0
M  V30 1152 H 108.672 -2.22794 -2.99027 0
M  V30 1153 N 110.857 0.726932 -1.39834 0
M  V30 1154 C 111.789 1.85147 -1.35104 0
M  V30 1155 C 112.802 1.60736 -0.258392 0
M  V30 1156 O 113.991 1.70821 -0.517931 0
M  V30 1157 C 111.091 3.21332 -1.07697 0
M  V30 1158 C 110.264 3.73033 -2.28396 0
M  V30 1159 C 109.323 4.87802 -1.97322 0
M  V30 1160 O 108.349 5.01043 -2.70083 0
M  V30 1161 N 109.551 5.72768 -0.944273 0
M  V30 1162 H 112.316 1.89706 -2.32017 0
M  V30 1163 H 109.877 0.908006 -1.3404 0
M  V30 1164 H 111.869 3.95691 -0.849144 0
M  V30 1165 H 110.439 3.11992 -0.194909 0
M  V30 1166 H 109.659 2.89934 -2.6708 0
M  V30 1167 H 110.947 4.0431 -3.08887 0
M  V30 1168 H 110.345 5.64669 -0.341427 0
M  V30 1169 H 108.902 6.4716 -0.776346 0
M  V30 1170 N 112.336 1.25143 0.95797 0
M  V30 1171 C 113.266 1.07711 2.07173 0
M  V30 1172 C 114.247 -0.0128462 1.70095 0
M  V30 1173 O 115.432 0.156061 1.93572 0
M  V30 1174 C 112.562 0.691503 3.40346 0
M  V30 1175 C 111.516 1.73132 3.9142 0
M  V30 1176 C 110.842 1.20049 5.21049 0
M  V30 1177 C 112.142 3.1294 4.1817 0
M  V30 1178 H 113.836 2.00873 2.22014 0
M  V30 1179 H 111.382 0.967191 1.06684 0
M  V30 1180 H 113.335 0.556505 4.17709 0
M  V30 1181 H 112.059 -0.275819 3.25433 0
M  V30 1182 H 110.718 1.8547 3.16222 0
M  V30 1183 H 110.366 0.223499 5.02503 0
M  V30 1184 H 110.066 1.89545 5.56189 0
M  V30 1185 H 111.59 1.07782 6.01012 0
M  V30 1186 H 113.004 3.03775 4.86203 0
M  V30 1187 H 111.401 3.79875 4.64559 0
M  V30 1188 H 112.471 3.6025 3.24573 0
M  V30 1189 N 113.814 -1.1601 1.06675 0
M  V30 1190 C 115.225 -1.68235 0.809565 0
M  V30 1191 C 115.576 -1.8454 -0.666303 0
M  V30 1192 O 114.701 -1.54374 -1.5165 0
M  V30 1193 C 115.296 -3.05585 1.46299 0
M  V30 1194 C 113.855 -3.54915 1.25349 0
M  V30 1195 C 113.002 -2.30804 1.53703 0
M  V30 1196 H 115.953 -1.00318 1.22971 0
M  V30 1197 H 115.974 -3.70174 0.880431 0
M  V30 1198 H 115.486 -2.93686 2.53713 0
M  V30 1199 H 113.587 -3.72067 0.199261 0
M  V30 1200 H 113.7 -4.36774 1.9689 0
M  V30 1201 H 112.064 -2.36007 0.957739 0
M  V30 1202 H 112.847 -2.21499 2.62284 0
M  V30 1203 N 115.292 -0.849877 -1.32721 0
M  V30 1204 C 116.222 -0.306308 -2.31482 0
M  V30 1205 C 117.203 0.591952 -1.59468 0
M  V30 1206 O 118.388 0.513199 -1.87296 0
M  V30 1207 C 115.518 0.510204 -3.43532 0
M  V30 1208 C 114.472 -0.293209 -4.26994 0
M  V30 1209 C 113.798 0.647743 -5.30762 0
M  V30 1210 C 115.098 -1.51634 -4.99804 0
M  V30 1211 H 116.792 -1.13153 -2.77195 0
M  V30 1212 H 114.338 -0.545553 -1.33266 0
M  V30 1213 H 116.291 0.900856 -4.11658 0
M  V30 1214 H 115.015 1.36874 -2.96535 0
M  V30 1215 H 113.674 -0.665555 -3.60508 0
M  V30 1216 H 113.322 1.50299 -4.8002 0
M  V30 1217 H 113.022 0.11422 -5.87489 0
M  V30 1218 H 114.546 1.03567 -6.01753 0
M  V30 1219 H 115.96 -1.19824 -5.60638 0
M  V30 1220 H 114.357 -1.98745 -5.66234 0
M  V30 1221 H 115.427 -2.28018 -4.27943 0
M  V30 1222 N 116.77 1.45427 -0.607355 0
M  V30 1223 C 117.7 2.3329 0.0989352 0
M  V30 1224 C 118.681 1.46816 0.859007 0
M  V30 1225 O 119.866 1.75588 0.829604 0
M  V30 1226 C 116.996 3.29518 1.09705 0
M  V30 1227 C 115.95 4.25626 0.450206 0
M  V30 1228 C 115.276 5.11542 1.55655 0
M  V30 1229 C 116.576 5.18505 -0.628455 0
M  V30 1230 H 118.27 2.92595 -0.634716 0
M  V30 1231 H 115.816 1.40696 -0.306681 0
M  V30 1232 H 117.769 3.89855 1.59971 0
M  V30 1233 H 116.493 2.68372 1.86129 0
M  V30 1234 H 115.152 3.66586 -0.0315886 0
M  V30 1235 H 114.8 4.46765 2.31107 0
M  V30 1236 H 114.5 5.76647 1.12925 0
M  V30 1237 H 116.024 5.74748 2.06148 0
M  V30 1238 H 117.438 5.72916 -0.209877 0
M  V30 1239 H 115.835 5.92085 -0.977489 0
M  V30 1240 H 116.905 4.60948 -1.50514 0
M  V30 1241 N 118.248 0.346503 1.53744 0
M  V30 1242 C 119.178 -0.501193 2.28058 0
M  V30 1243 C 120.159 -1.10014 1.29734 0
M  V30 1244 O 121.344 -1.12097 1.58581 0
M  V30 1245 C 118.474 -1.65078 3.05559 0
M  V30 1246 C 117.428 -1.18003 4.11411 0
M  V30 1247 C 116.754 -2.41837 4.76884 0
M  V30 1248 C 118.054 -0.278394 5.21558 0
M  V30 1249 H 119.748 0.11875 2.99164 0
M  V30 1250 H 117.294 0.0585531 1.43881 0
M  V30 1251 H 119.247 -2.25028 3.56287 0
M  V30 1252 H 117.971 -2.29767 2.32109 0
M  V30 1253 H 116.63 -0.603331 3.61601 0
M  V30 1254 H 116.278 -3.0494 4.00026 0
M  V30 1255 H 115.978 -2.1102 5.48402 0
M  V30 1256 H 117.502 -3.02508 5.30397 0
M  V30 1257 H 118.916 -0.784823 5.67903 0
M  V30 1258 H 117.313 -0.0619707 6.00068 0
M  V30 1259 H 118.383 0.684677 4.80042 0
M  V30 1260 N 119.726 -1.57421 0.075193 0
M  V30 1261 C 120.973 -1.93618 -0.593146 0
M  V30 1262 C 121.301 -0.955484 -1.69413 0
M  V30 1263 O 120.556 0.0283251 -1.9568 0
M  V30 1264 C 120.855 -3.36428 -1.20626 0
M  V30 1265 C 120.521 -4.50307 -0.231078 0
M  V30 1266 C 119.183 -4.81186 0.0371936 0
M  V30 1267 C 121.535 -5.19374 0.435888 0
M  V30 1268 C 118.863 -5.78466 0.979461 0
M  V30 1269 C 121.215 -6.17665 1.3665 0
M  V30 1270 C 119.879 -6.46958 1.6432 0
M  V30 1271 H 119.149 -0.708499 -0.217047 0
M  V30 1272 H 121.796 -1.90937 0.146793 0
M  V30 1273 H 120.101 -3.35592 -2.02201 0
M  V30 1274 H 121.798 -3.61727 -1.73073 0
M  V30 1275 H 118.388 -4.26227 -0.450357 0
M  V30 1276 H 122.572 -4.95711 0.241748 0
M  V30 1277 H 117.828 -5.99487 1.20106 0
M  V30 1278 H 122.002 -6.70284 1.88924 0
M  V30 1279 H 119.629 -7.2215 2.37494 0
M  V30 1280 N 121.204 0.198386 -1.56346 0
M  V30 1281 C 122.432 0.935572 -1.84539 0
M  V30 1282 C 122.847 1.76989 -0.657281 0
M  V30 1283 O 122.204 1.78626 0.374043 0
M  V30 1284 C 122.255 1.8344 -3.11499 0
M  V30 1285 O 121.976 1.03377 -4.25728 0
M  V30 1286 C 123.477 2.68355 -3.52846 0
M  V30 1287 H 120.697 0.273126 -0.612897 0
M  V30 1288 H 123.241 0.20663 -2.03453 0
M  V30 1289 H 121.396 2.51701 -2.94492 0
M  V30 1290 H 121.81 1.64599 -4.98003 0
M  V30 1291 H 123.284 3.27085 -4.44657 0
M  V30 1292 H 123.761 3.41901 -2.75681 0
M  V30 1293 H 124.367 2.05471 -3.72373 0
M  V30 1294 N 122.682 1.50554 0.465978 0
M  V30 1295 C 123.612 1.72722 1.57128 0
M  V30 1296 C 124.593 0.576294 1.6004 0
M  V30 1297 O 125.778 0.81598 1.76225 0
M  V30 1298 C 122.908 1.82605 2.95419 0
M  V30 1299 C 121.862 2.97835 3.07373 0
M  V30 1300 C 121.188 2.92867 4.47363 0
M  V30 1301 C 122.488 4.38265 2.84114 0
M  V30 1302 H 124.182 2.65267 1.38829 0
M  V30 1303 H 121.728 1.2765 0.666441 0
M  V30 1304 H 123.681 1.96698 3.72677 0
M  V30 1305 H 122.405 0.866858 3.14886 0
M  V30 1306 H 121.064 2.83401 2.3255 0
M  V30 1307 H 120.712 1.94783 4.63755 0
M  V30 1308 H 120.412 3.70227 4.56296 0
M  V30 1309 H 121.936 3.09015 5.26633 0
M  V30 1310 H 123.35 4.53198 3.51118 0
M  V30 1311 H 121.747 5.17115 3.04487 0
M  V30 1312 H 122.817 4.50281 1.7993 0
M  V30 1313 N 124.16 -0.719506 1.40217 0
M  V30 1314 C 125.09 -1.8465 1.42922 0
M  V30 1315 C 126.071 -1.67599 0.29062 0
M  V30 1316 O 127.256 -1.87688 0.498677 0
M  V30 1317 C 124.386 -3.22565 1.28722 0
M  V30 1318 C 123.34 -3.54281 2.40144 0
M  V30 1319 C 122.666 -4.91298 2.11023 0
M  V30 1320 C 123.966 -3.55676 3.82481 0
M  V30 1321 H 125.66 -1.82644 2.37237 0
M  V30 1322 H 123.206 -0.877305 1.1419 0
M  V30 1323 H 125.159 -4.01095 1.29232 0
M  V30 1324 H 123.883 -3.25137 0.308811 0
M  V30 1325 H 122.542 -2.78088 2.38877 0
M  V30 1326 H 122.19 -4.90468 1.11582 0
M  V30 1327 H 121.89 -5.13485 2.8567 0
M  V30 1328 H 123.414 -5.72166 2.13209 0
M  V30 1329 H 124.828 -4.24254 3.85592 0
M  V30 1330 H 123.225 -3.89388 4.56614 0
M  V30 1331 H 124.295 -2.55144 4.12346 0
M  V30 1332 N 125.638 -1.25649 -0.95132 0
M  V30 1333 C 126.586 -1.06118 -2.06982 0
M  V30 1334 C 127.58 0.00889169 -1.69398 0
M  V30 1335 O 128.786 -0.146988 -1.79399 0
M  V30 1336 H 125.161 -0.326248 -0.677544 0
M  V30 1337 H 127.132 -2.00932 -2.2061 0
M  V30 1338 C 125.881 -0.700145 -3.40578 0
M  V30 1339 H 125.204 -1.51537 -3.69968 0
M  V30 1340 H 126.644 -0.603211 -4.19687 0
M  V30 1341 C 125.103 0.59403 -3.31622 0
M  V30 1342 O 125.633 1.63522 -3.66911 0
M  V30 1343 N 123.839 0.58089 -2.84735 0
M  V30 1344 H 123.386 -0.266783 -2.56215 0
M  V30 1345 H 123.344 1.44695 -2.79125 0
M  V30 1346 N 127.117 1.15442 -1.07289 0
M  V30 1347 C 128.342 1.90638 -0.816828 0
M  V30 1348 C 128.767 1.77445 0.624083 0
M  V30 1349 O 128.125 1.10671 1.43602 0
M  V30 1350 C 128.173 3.39008 -1.22906 0
M  V30 1351 O 127.277 4.10701 -0.373975 0
M  V30 1352 H 126.618 0.593555 -0.297638 0
M  V30 1353 H 129.148 1.46198 -1.43134 0
M  V30 1354 H 129.158 3.89801 -1.20497 0
M  V30 1355 H 127.833 3.47929 -2.27856 0
M  V30 1356 H 126.41 3.70046 -0.460499 0
M  V30 1357 N 128.595 0.856903 1.32268 0
M  V30 1358 C 129.842 0.461386 1.97174 0
M  V30 1359 C 130.17 -0.983491 1.67803 0
M  V30 1360 O 129.425 -1.70541 0.959903 0
M  V30 1361 C 129.724 0.649919 3.51441 0
M  V30 1362 C 129.39 2.0656 4.00804 0
M  V30 1363 C 128.052 2.45279 4.13995 0
M  V30 1364 C 130.404 2.98947 4.26943 0
M  V30 1365 C 127.732 3.75653 4.50668 0
M  V30 1366 C 130.084 4.28822 4.65075 0
M  V30 1367 C 128.748 4.67472 4.76472 0
M  V30 1368 H 128.018 0.168833 0.72151 0
M  V30 1369 H 130.665 1.08739 1.57633 0
M  V30 1370 H 128.97 -0.0593018 3.91755 0
M  V30 1371 H 130.667 0.32391 3.9969 0
M  V30 1372 H 127.257 1.75495 3.91024 0
M  V30 1373 H 131.441 2.70265 4.16258 0
M  V30 1374 H 126.697 4.05379 4.57688 0
M  V30 1375 H 130.871 5.0047 4.84255 0
M  V30 1376 H 128.498 5.68539 5.04646 0
M  V30 1377 N 130.073 -1.45103 0.615059 0
M  V30 1378 C 131.003 -2.33339 -0.0865619 0
M  V30 1379 C 131.984 -1.4727 -0.851209 0
M  V30 1380 O 133.169 -1.76026 -0.820281 0
M  V30 1381 C 130.299 -3.30095 -1.07956 0
M  V30 1382 C 129.253 -4.25858 -0.427628 0
M  V30 1383 C 128.579 -5.12361 -1.5294 0
M  V30 1384 C 129.879 -5.18165 0.655944 0
M  V30 1385 H 131.573 -2.92254 0.650224 0
M  V30 1386 H 129.119 -1.40532 0.314138 0
M  V30 1387 H 131.072 -3.90698 -1.57901 0
M  V30 1388 H 129.796 -2.69355 -1.84703 0
M  V30 1389 H 128.455 -3.66564 0.0510292 0
M  V30 1390 H 128.103 -4.47984 -2.28734 0
M  V30 1391 H 127.803 -5.77238 -1.09865 0
M  V30 1392 H 129.327 -5.75833 -2.03098 0
M  V30 1393 H 130.741 -5.72796 0.240257 0
M  V30 1394 H 129.138 -5.91559 1.00888 0
M  V30 1395 H 130.208 -4.60144 1.52957 0
M  V30 1396 N 131.551 -0.354651 -1.53558 0
M  V30 1397 C 132.781 0.239167 -2.05211 0
M  V30 1398 C 133.189 1.43879 -1.22863 0
M  V30 1399 O 132.532 1.81857 -0.259565 0
M  V30 1400 C 132.594 0.707251 -3.52474 0
M  V30 1401 C 132.258 -0.374212 -4.55465 0
M  V30 1402 C 133.255 -1.22054 -5.0537 0
M  V30 1403 C 130.94 -0.531323 -4.99482 0
M  V30 1404 C 132.934 -2.20942 -5.97882 0
M  V30 1405 C 130.621 -1.52358 -5.91802 0
M  V30 1406 C 131.619 -2.36108 -6.40892 0
M  V30 1407 O 131.307 -3.33643 -7.31394 0
M  V30 1408 H 131.039 0.0479716 -0.674296 0
M  V30 1409 H 133.593 -0.508121 -1.99016 0
M  V30 1410 H 131.823 1.50596 -3.56171 0
M  V30 1411 H 133.512 1.22285 -3.87042 0
M  V30 1412 H 134.278 -1.1103 -4.7212 0
M  V30 1413 H 130.157 0.110738 -4.60867 0
M  V30 1414 H 133.701 -2.86348 -6.36121 0
M  V30 1415 H 129.598 -1.63434 -6.24467 0
M  V30 1416 H 130.366 -3.29244 -7.4936 0
M  V30 1417 N 133.029 1.57378 -0.0835403 0
M  V30 1418 C 133.961 2.10389 0.909338 0
M  V30 1419 C 134.974 1.03858 1.25369 0
M  V30 1420 O 136.163 1.31338 1.20882 0
M  V30 1421 C 133.263 2.55908 2.2218 0
M  V30 1422 C 132.436 3.86145 2.05453 0
M  V30 1423 C 131.495 4.17633 3.20108 0
M  V30 1424 O 130.521 4.87043 2.94581 0
M  V30 1425 N 131.723 3.72113 4.45547 0
M  V30 1426 H 134.488 2.962 0.456657 0
M  V30 1427 H 132.049 1.61579 0.101877 0
M  V30 1428 H 134.041 2.74027 2.97811 0
M  V30 1429 H 132.611 1.75171 2.58909 0
M  V30 1430 H 131.831 3.7729 1.1422 0
M  V30 1431 H 133.119 4.7137 1.91541 0
M  V30 1432 H 132.517 3.16062 4.69171 0
M  V30 1433 H 131.074 3.95409 5.18165 0
M  V30 1434 N 134.507 -0.190092 1.56449 0
M  V30 1435 C 135.747 -0.916414 1.82705 0
M  V30 1436 C 136.111 -1.80235 0.661763 0
M  V30 1437 O 137.312 -2.56484 0.80433 0
M  V30 1438 C 135.583 -1.70691 3.14005 0
M  V30 1439 S 137.142 -2.48457 3.61683 0
M  V30 1440 H 133.96 -0.307281 0.64117 0
M  V30 1441 H 136.562 -0.179433 1.94675 0
M  V30 1442 H 135.266 -1.04677 3.96826 0
M  V30 1443 H 134.797 -2.48562 3.04927 0
M  V30 1444 H 136.812 -3.72756 3.27517 0
M  V30 1445 N 135.985 -1.50799 -0.457987 0
M  V30 1446 C 137.231 -1.62683 -1.21088 0
M  V30 1447 C 137.564 -0.332268 -1.91336 0
M  V30 1448 O 136.839 0.667043 -1.82704 0
M  V30 1449 C 137.122 -2.81615 -2.24422 0
M  V30 1450 C 136.975 -4.20989 -1.58392 0
M  V30 1451 C 138.294 -2.96085 -3.2561 0
M  V30 1452 H 135.413 -0.592087 -0.438864 0
M  V30 1453 H 138.055 -1.83225 -0.50286 0
M  V30 1454 H 136.205 -2.64231 -2.84806 0
M  V30 1455 H 137.877 -4.49994 -1.01504 0
M  V30 1456 H 136.12 -4.24641 -0.886704 0
M  V30 1457 H 136.791 -5.0016 -2.33547 0
M  V30 1458 H 139.267 -3.12042 -2.75262 0
M  V30 1459 H 138.143 -3.80902 -3.95228 0
M  V30 1460 H 138.404 -2.0726 -3.90507 0
M  V30 1461 N 137.463 0.71206 -1.40597 0
M  V30 1462 C 138.874 1.29135 -1.34837 0
M  V30 1463 C 139.225 1.96186 -0.0235395 0
M  V30 1464 O 138.35 1.97768 0.878444 0
M  V30 1465 C 138.945 2.34827 -2.44217 0
M  V30 1466 C 137.504 2.88371 -2.41907 0
M  V30 1467 C 136.651 1.62202 -2.24913 0
M  V30 1468 H 139.602 0.507944 -1.50352 0
M  V30 1469 H 139.623 3.15749 -2.12327 0
M  V30 1470 H 139.135 1.85996 -3.40627 0
M  V30 1471 H 137.236 3.41422 -1.49204 0
M  V30 1472 H 137.349 3.39925 -3.37621 0
M  V30 1473 H 135.713 1.874 -1.72492 0
M  V30 1474 H 136.496 1.15391 -3.23326 0
M  V30 1475 N 138.941 1.26152 0.944643 0
M  V30 1476 C 139.851 1.09176 2.07648 0
M  V30 1477 C 140.867 0.0261935 1.7398 0
M  V30 1478 O 142.043 0.229208 2.00091 0
M  V30 1479 C 139.108 0.722915 3.39079 0
M  V30 1480 C 138.169 1.86752 3.86552 0
M  V30 1481 C 137.402 1.51617 5.11711 0
M  V30 1482 O 137.625 0.416331 5.68879 0
M  V30 1483 O 136.559 2.34975 5.54139 0
M  V30 1484 H 140.385 2.0412 2.24875 0
M  V30 1485 H 137.97 1.05182 1.061 0
M  V30 1486 H 139.852 0.529787 4.18056 0
M  V30 1487 H 138.527 -0.197159 3.23099 0
M  V30 1488 H 137.434 2.11558 3.08535 0
M  V30 1489 H 138.767 2.76719 4.07047 0
M  V30 1490 N 140.419 -1.14872 1.07899 0
M  V30 1491 C 141.647 -1.89661 0.82683 0
M  V30 1492 C 142.062 -1.78312 -0.620519 0
M  V30 1493 O 141.419 -1.13888 -1.42604 0
M  V30 1494 C 141.47 -3.39817 1.23316 0
M  V30 1495 O 141.191 -3.50845 2.62372 0
M  V30 1496 C 142.692 -4.31615 1.0111 0
M  V30 1497 H 139.912 -0.60092 0.298557 0
M  V30 1498 H 142.456 -1.4551 1.43691 0
M  V30 1499 H 140.611 -3.8161 0.667286 0
M  V30 1500 H 141.025 -4.44076 2.79101 0
M  V30 1501 H 142.499 -5.35367 1.34486 0
M  V30 1502 H 142.976 -4.39169 -0.0522168 0
M  V30 1503 H 143.582 -3.95572 1.56215 0
M  V30 1504 N 141.898 -0.863906 -1.31812 0
M  V30 1505 C 143.144 -0.472535 -1.97218 0
M  V30 1506 C 143.477 0.971394 -1.68159 0
M  V30 1507 O 142.752 1.68309 -0.974798 0
M  V30 1508 C 143.035 -0.723054 -3.52766 0
M  V30 1509 C 142.888 -2.21608 -3.91421 0
M  V30 1510 C 144.207 -0.185522 -4.39709 0
M  V30 1511 H 141.326 -0.173158 -0.71637 0
M  V30 1512 H 143.968 -1.08403 -1.56041 0
M  V30 1513 H 142.118 -0.202577 -3.87971 0
M  V30 1514 H 143.79 -2.80334 -3.66347 0
M  V30 1515 H 142.033 -2.691 -3.40246 0
M  V30 1516 H 142.704 -2.34203 -4.99853 0
M  V30 1517 H 145.18 -0.630726 -4.11292 0
M  V30 1518 H 144.056 -0.390306 -5.47511 0
M  V30 1519 H 144.317 0.912229 -4.32586 0
M  V30 1520 N 143.376 1.44774 -0.622745 0
M  V30 1521 C 144.792 1.56986 -0.287652 0
M  V30 1522 C 144.992 1.61167 1.20944 0
M  V30 1523 O 144.048 1.55015 1.99315 0
M  V30 1524 C 145.361 2.84551 -0.972188 0
M  V30 1525 C 146.909 2.9825 -0.949536 0
M  V30 1526 C 147.384 4.28605 -1.61437 0
M  V30 1527 N 148.875 4.35399 -1.58057 0
M  V30 1528 C 149.61 5.34964 -2.064 0
M  V30 1529 N 149.106 6.40981 -2.62897 0
M  V30 1530 N 150.899 5.26419 -1.97078 0
M  V30 1531 H 143.05 1.40304 -1.59463 0
M  V30 1532 H 145.313 0.671794 -0.668878 0
M  V30 1533 H 145.019 2.87417 -2.02693 0
M  V30 1534 H 144.893 3.73807 -0.504771 0
M  V30 1535 H 147.28 2.94941 0.0967067 0
M  V30 1536 H 147.361 2.10364 -1.45536 0
M  V30 1537 H 147.005 4.32672 -2.66002 0
M  V30 1538 H 146.935 5.15334 -1.08344 0
M  V30 1539 H 149.426 3.59397 -1.16801 0
M  V30 1540 H 149.739 7.13225 -2.97539 0
M  V30 1541 H 148.084 6.4169 -2.66943 0
M  V30 1542 H 151.275 4.42504 -1.52669 0
M  V30 1543 H 151.448 6.03861 -2.35066 0
M  V30 1544 N 144.854 0.36279 1.53368 0
M  V30 1545 C 146.103 -0.22888 2.00397 0
M  V30 1546 C 146.416 -1.50096 1.25421 0
M  V30 1547 O 147.622 -2.17106 1.63025 0
M  V30 1548 C 146.078 -0.458417 3.56969 0
M  V30 1549 C 145.686 0.798877 4.4082 0
M  V30 1550 C 147.43 -1.00789 4.12361 0
M  V30 1551 C 145.337 0.539078 5.88938 0
M  V30 1552 H 144.267 -0.089305 0.748693 0
M  V30 1553 H 146.918 0.481099 1.77081 0
M  V30 1554 H 145.3 -1.22959 3.76427 0
M  V30 1555 H 146.474 1.57262 4.33134 0
M  V30 1556 H 144.789 1.27137 3.96516 0
M  V30 1557 H 147.386 -1.21754 5.20653 0
M  V30 1558 H 147.729 -1.9692 3.66781 0
M  V30 1559 H 148.262 -0.296961 3.9669 0
M  V30 1560 H 145.001 1.47064 6.3879 0
M  V30 1561 H 144.521 -0.196222 5.99479 0
M  V30 1562 H 146.2 0.163542 6.46793 0
M  V30 1563 N 146.332 -1.57332 0.0918853 0
M  V30 1564 C 147.262 -2.16872 -0.865371 0
M  V30 1565 C 148.243 -1.10118 -1.29646 0
M  V30 1566 O 149.428 -1.38242 -1.36392 0
M  V30 1567 C 146.558 -2.74649 -2.12569 0
M  V30 1568 C 145.512 -3.86747 -1.83333 0
M  V30 1569 C 144.838 -4.31212 -3.16166 0
M  V30 1570 C 146.138 -5.10089 -1.1228 0
M  V30 1571 H 147.832 -2.97114 -0.369307 0
M  V30 1572 H 145.378 -1.42918 -0.176194 0
M  V30 1573 H 147.331 -3.14952 -2.7997 0
M  V30 1574 H 146.055 -1.91657 -2.64452 0
M  V30 1575 H 144.714 -3.46978 -1.18331 0
M  V30 1576 H 144.362 -3.45115 -3.6593 0
M  V30 1577 H 144.062 -5.06788 -2.97388 0
M  V30 1578 H 145.586 -4.74146 -3.84731 0
M  V30 1579 H 147 -5.47582 -1.69785 0
M  V30 1580 H 145.397 -5.91073 -1.03693 0
M  V30 1581 H 146.467 -4.84786 -0.105041 0
M  V30 1582 N 147.81 0.181792 -1.56548 0
M  V30 1583 C 149.058 0.89832 -1.81038 0
M  V30 1584 C 149.379 1.83232 -0.667164 0
M  V30 1585 O 148.649 1.93372 0.313673 0
M  V30 1586 H 147.229 0.33471 -0.667816 0
M  V30 1587 H 149.891 0.184116 -1.94028 0
M  V30 1588 H 148.987 1.4815 -2.74696 0
M  V30 1589 N 149.288 1.51039 0.449983 0
M  V30 1590 C 150.513 1.6715 1.22783 0
M  V30 1591 C 150.938 0.363081 1.84563 0
M  V30 1592 O 150.296 -0.675433 1.68249 0
M  V30 1593 C 150.344 2.77985 2.29689 0
M  V30 1594 O 149.448 2.40707 3.34864 0
M  V30 1595 H 148.789 0.557746 0.360299 0
M  V30 1596 H 151.319 1.97535 0.533005 0
M  V30 1597 H 151.329 3.01693 2.74673 0
M  V30 1598 H 150.004 3.72935 1.84098 0
M  V30 1599 H 148.581 2.27523 2.95445 0
M  V30 1600 N 150.766 -0.704594 1.40972 0
M  V30 1601 C 151.696 -1.83124 1.44872 0
M  V30 1602 C 152.677 -1.67281 0.30838 0
M  V30 1603 O 153.862 -1.87149 0.518556 0
M  V30 1604 C 150.992 -3.21181 1.32136 0
M  V30 1605 C 149.946 -3.51714 2.43888 0
M  V30 1606 C 149.272 -4.89032 2.16222 0
M  V30 1607 C 150.572 -3.516 3.86232 0
M  V30 1608 H 152.266 -1.80117 2.39161 0
M  V30 1609 H 149.812 -0.865145 1.15114 0
M  V30 1610 H 151.765 -3.99702 1.33479 0
M  V30 1611 H 150.489 -3.24791 0.343279 0
M  V30 1612 H 149.148 -2.75539 2.41813 0
M  V30 1613 H 148.796 -4.89256 1.16778 0
M  V30 1614 H 148.496 -5.10426 2.911 0
M  V30 1615 H 150.02 -5.69873 2.19265 0
M  V30 1616 H 151.434 -4.2014 3.9007 0
M  V30 1617 H 149.831 -3.84523 4.60719 0
M  V30 1618 H 150.901 -2.50757 4.15029 0
M  V30 1619 N 152.244 -1.26651 -0.937939 0
M  V30 1620 C 153.174 -1.10993 -2.05433 0
M  V30 1621 C 154.155 -0.0142161 -1.70094 0
M  V30 1622 O 155.34 -0.186837 -1.93299 0
M  V30 1623 C 152.47 -0.745561 -3.39203 0
M  V30 1624 C 151.424 -1.79337 -3.88616 0
M  V30 1625 C 150.75 -1.28324 -5.19073 0
M  V30 1626 C 152.05 -3.19553 -4.13138 0
M  V30 1627 H 153.744 -2.0438 -2.1879 0
M  V30 1628 H 151.29 -0.984041 -1.05131 0
M  V30 1629 H 153.243 -0.622888 -4.16771 0
M  V30 1630 H 151.967 0.22401 -3.25831 0
M  V30 1631 H 150.626 -1.90477 -3.13231 0
M  V30 1632 H 150.274 -0.303414 -5.02084 0
M  V30 1633 H 149.974 -1.98369 -5.53103 0
M  V30 1634 H 151.498 -1.1733 -5.99221 0
M  V30 1635 H 152.912 -3.11471 -4.81309 0
M  V30 1636 H 151.309 -3.87218 -4.58457 0
M  V30 1637 H 152.379 -3.65368 -3.18801 0
M  V30 1638 N 153.722 1.14298 -1.08507 0
M  V30 1639 C 154.685 2.17607 -0.719711 0
M  V30 1640 C 155.685 1.58907 0.245997 0
M  V30 1641 O 156.875 1.74181 0.0254081 0
M  V30 1642 C 154.007 3.40842 -0.0627695 0
M  V30 1643 H 155.2 2.51443 -1.63452 0
M  V30 1644 H 152.753 1.28963 -0.88307 0
M  V30 1645 H 153.488 3.12587 0.863716 0
M  V30 1646 H 153.273 3.84713 -0.757504 0
M  V30 1647 H 154.763 4.17221 0.177786 0
M  V30 1648 N 155.201 0.870884 1.31352 0
M  V30 1649 C 156.45 0.478408 1.95944 0
M  V30 1650 C 156.763 -0.974493 1.69597 0
M  V30 1651 O 157.969 -1.47316 2.28058 0
M  V30 1652 C 156.425 0.804609 3.50791 0
M  V30 1653 C 156.033 2.27433 3.85977 0
M  V30 1654 C 157.777 0.480648 4.2177 0
M  V30 1655 C 155.684 2.5429 5.33939 0
M  V30 1656 H 154.614 0.175175 0.733369 0
M  V30 1657 H 157.265 1.06391 1.4951 0
M  V30 1658 H 155.647 0.148347 3.95722 0
M  V30 1659 H 156.821 2.97373 3.52002 0
M  V30 1660 H 155.136 2.56442 3.28065 0
M  V30 1661 H 157.733 0.658519 5.30629 0
M  V30 1662 H 158.076 -0.578979 4.12254 0
M  V30 1663 H 158.609 1.09349 3.82476 0
M  V30 1664 H 155.348 3.58939 5.48491 0
M  V30 1665 H 154.868 1.88945 5.69263 0
M  V30 1666 H 156.547 2.39066 6.01212 0
M  V30 1667 N 156.679 -1.44442 0.630414 0
M  V30 1668 C 157.609 -2.33418 -0.0618083 0
M  V30 1669 C 158.59 -1.48165 -0.835541 0
M  V30 1670 O 159.775 -1.76886 -0.801564 0
M  V30 1671 C 156.905 -3.31222 -1.04449 0
M  V30 1672 C 155.859 -4.26288 -0.382436 0
M  V30 1673 C 155.185 -5.13954 -1.47497 0
M  V30 1674 C 156.485 -5.1744 0.710865 0
M  V30 1675 H 158.179 -2.91548 0.681184 0
M  V30 1676 H 155.725 -1.40191 0.329026 0
M  V30 1677 H 157.678 -3.92351 -1.53748 0
M  V30 1678 H 156.402 -2.71299 -1.81836 0
M  V30 1679 H 155.061 -3.6649 0.0899054 0
M  V30 1680 H 154.709 -4.50385 -2.2397 0
M  V30 1681 H 154.409 -5.7837 -1.03737 0
M  V30 1682 H 155.933 -5.77955 -1.96979 0
M  V30 1683 H 157.347 -5.72509 0.300996 0
M  V30 1684 H 155.744 -5.90455 1.07156 0
M  V30 1685 H 156.814 -4.58496 1.57829 0
M  V30 1686 N 158.157 -0.370918 -1.53173 0
M  V30 1687 C 159.087 0.464847 -2.28826 0
M  V30 1688 C 160.068 1.07936 -1.31468 0
M  V30 1689 O 161.253 1.0956 -1.60344 0
M  V30 1690 C 158.383 1.60196 -3.08147 0
M  V30 1691 C 157.337 1.11443 -4.13237 0
M  V30 1692 C 156.663 2.3422 -4.80672 0
M  V30 1693 C 157.963 0.195384 -5.21934 0
M  V30 1694 H 159.657 -0.166329 -2.98938 0
M  V30 1695 H 157.203 -0.0814359 -1.4377 0
M  V30 1696 H 159.156 2.19332 -3.59822 0
M  V30 1697 H 157.88 2.26045 -2.35735 0
M  V30 1698 H 156.539 0.545727 -3.62515 0
M  V30 1699 H 156.187 2.98537 -4.04827 0
M  V30 1700 H 155.887 2.02269 -5.51689 0
M  V30 1701 H 157.411 2.94032 -5.35143 0
M  V30 1702 H 158.825 0.694375 -5.69079 0
M  V30 1703 H 157.222 -0.0335027 -6.00091 0
M  V30 1704 H 158.292 -0.760961 -4.78892 0
M  V30 1705 N 159.635 1.57281 -0.100228 0
M  V30 1706 C 160.565 2.17328 0.853857 0
M  V30 1707 C 161.546 1.10804 1.2906 0
M  V30 1708 O 162.731 1.38963 1.35657 0
M  V30 1709 C 159.861 2.75772 2.11109 0
M  V30 1710 C 158.815 3.87713 1.81279 0
M  V30 1711 C 158.141 4.32882 3.13874 0
M  V30 1712 C 159.441 5.10677 1.09574 0
M  V30 1713 H 161.135 2.97305 0.353545 0
M  V30 1714 H 158.681 1.43009 0.168612 0
M  V30 1715 H 160.634 3.16433 2.78296 0
M  V30 1716 H 159.358 1.93057 2.63432 0
M  V30 1717 H 158.017 3.476 1.16489 0
M  V30 1718 H 157.665 3.47051 3.64095 0
M  V30 1719 H 157.365 5.08358 2.94696 0
M  V30 1720 H 158.889 4.7618 3.82211 0
M  V30 1721 H 160.303 5.48474 1.66879 0
M  V30 1722 H 158.7 5.91615 1.00557 0
M  V30 1723 H 159.77 4.84835 0.0793299 0
M  V30 1724 N 161.113 -0.173488 1.56642 0
M  V30 1725 C 162.36 -0.890465 1.81871 0
M  V30 1726 C 162.688 -1.82339 0.67696 0
M  V30 1727 O 161.943 -1.92795 -0.335926 0
M  V30 1728 C 162.242 -1.72069 3.13252 0
M  V30 1729 C 161.908 -0.936878 4.41059 0
M  V30 1730 C 160.57 -0.720545 4.75775 0
M  V30 1731 C 162.922 -0.386919 5.19762 0
M  V30 1732 C 160.25 0.0568829 5.86672 0
M  V30 1733 C 162.602 0.37741 6.31473 0
M  V30 1734 C 161.266 0.604563 6.64757 0
M  V30 1735 H 160.536 -0.325844 0.665512 0
M  V30 1736 H 163.183 -0.155527 1.90867 0
M  V30 1737 H 161.488 -2.52496 2.99588 0
M  V30 1738 H 163.185 -2.27844 3.29982 0
M  V30 1739 H 159.775 -1.11553 4.13828 0
M  V30 1740 H 163.959 -0.541398 4.93338 0
M  V30 1741 H 159.215 0.242635 6.10918 0
M  V30 1742 H 163.389 0.810825 6.91664 0
M  V30 1743 H 161.016 1.20885 7.50527 0
M  V30 1744 N 162.591 -1.51276 -0.441967 0
M  V30 1745 C 163.554 -1.7167 -1.51862 0
M  V30 1746 C 164.554 -0.586793 -1.49711 0
M  V30 1747 O 165.744 -0.854276 -1.51815 0
M  V30 1748 C 162.876 -1.76889 -2.91416 0
M  V30 1749 H 164.069 -2.67754 -1.35084 0
M  V30 1750 H 161.622 -1.41196 -0.670333 0
M  V30 1751 H 162.357 -0.826026 -3.13604 0
M  V30 1752 H 162.142 -2.59001 -2.94382 0
M  V30 1753 H 163.632 -1.94522 -3.69528 0
M  V30 1754 N 164.069 0.697108 -1.41344 0
M  V30 1755 C 164.999 1.82353 -1.45841 0
M  V30 1756 C 165.98 1.67115 -0.317247 0
M  V30 1757 O 167.165 1.86871 -0.528474 0
M  V30 1758 C 164.295 3.20476 -1.33838 0
M  V30 1759 C 163.249 3.50415 -2.4575 0
M  V30 1760 C 162.575 4.87878 -2.18813 0
M  V30 1761 C 163.875 3.49546 -3.88091 0
M  V30 1762 H 165.569 1.78846 -2.40113 0
M  V30 1763 H 163.115 0.859028 -1.15571 0
M  V30 1764 H 165.068 3.98988 -1.35596 0
M  V30 1765 H 163.792 3.24604 -0.360498 0
M  V30 1766 H 162.451 2.74253 -2.43271 0
M  V30 1767 H 162.099 4.8863 -1.19371 0
M  V30 1768 H 161.799 5.08875 -2.93803 0
M  V30 1769 H 163.323 5.68702 -2.22284 0
M  V30 1770 H 164.737 4.18066 -3.92293 0
M  V30 1771 H 163.134 3.82075 -4.62751 0
M  V30 1772 H 164.204 2.48552 -4.16353 0
M  V30 1773 N 165.547 1.27147 0.931209 0
M  V30 1774 C 166.775 1.16082 1.71267 0
M  V30 1775 C 167.19 -0.282772 1.8667 0
M  V30 1776 O 166.547 -1.19283 1.38122 0
M  V30 1777 C 166.598 1.8358 3.11417 0
M  V30 1778 O 166.319 3.22299 2.96741 0
M  V30 1779 C 167.82 1.78597 4.05732 0
M  V30 1780 H 165.04 0.403758 0.535929 0
M  V30 1781 H 167.584 1.67953 1.16671 0
M  V30 1782 H 165.739 1.35623 3.62885 0
M  V30 1783 H 166.153 3.55851 3.85319 0
M  V30 1784 H 167.627 2.30444 5.01597 0
M  V30 1785 H 168.104 0.754564 4.3267 0
M  V30 1786 H 168.71 2.26152 3.60188 0
M  V30 1787 N 167.025 -1.13721 1.09112 0
M  V30 1788 C 167.988 -2.17222 0.731241 0
M  V30 1789 C 168.988 -1.59035 -0.237566 0
M  V30 1790 O 170.178 -1.74192 -0.0161704 0
M  V30 1791 C 167.31 -3.40804 0.0808443 0
M  V30 1792 H 168.503 -2.50573 1.64783 0
M  V30 1793 H 166.056 -1.28493 0.889897 0
M  V30 1794 H 166.791 -3.1304 -0.847127 0
M  V30 1795 H 166.576 -3.84306 0.777896 0
M  V30 1796 H 168.066 -4.1731 -0.155657 0
M  V30 1797 N 168.503 -0.877838 -1.30888 0
M  V30 1798 C 169.466 -0.344265 -2.266 0
M  V30 1799 C 170.466 0.50922 -1.52524 0
M  V30 1800 O 171.656 0.317398 -1.71284 0
M  V30 1801 C 168.788 0.510198 -3.37061 0
M  V30 1802 H 169.981 -1.1893 -2.7531 0
M  V30 1803 H 167.534 -0.654088 -1.41956 0
M  V30 1804 H 168.269 1.37612 -2.93655 0
M  V30 1805 H 168.054 -0.101047 -3.9197 0
M  V30 1806 H 169.544 0.875537 -4.08319 0
M  V30 1807 N 169.982 1.44106 -0.638065 0
M  V30 1808 C 170.912 2.33448 0.0494287 0
M  V30 1809 C 171.893 1.48606 0.827672 0
M  V30 1810 O 173.078 1.77308 0.792173 0
M  V30 1811 C 170.208 3.31771 1.02691 0
M  V30 1812 C 169.162 4.26485 0.359823 0
M  V30 1813 C 168.488 5.14729 1.44769 0
M  V30 1814 C 169.788 5.17056 -0.738296 0
M  V30 1815 H 171.482 2.91183 -0.696636 0
M  V30 1816 H 169.028 1.40014 -0.336456 0
M  V30 1817 H 170.981 3.93161 1.51666 0
M  V30 1818 H 169.705 2.7226 1.80395 0
M  V30 1819 H 168.364 3.66437 -0.10934 0
M  V30 1820 H 168.012 4.51566 2.21578 0
M  V30 1821 H 167.712 5.78913 1.00668 0
M  V30 1822 H 169.236 5.78991 1.93911 0
M  V30 1823 H 170.65 5.72342 -0.331354 0
M  V30 1824 H 169.047 5.89879 -1.10286 0
M  V30 1825 H 170.117 4.57652 -1.60258 0
M  V30 1826 N 171.46 0.379036 1.52974 0
M  V30 1827 C 172.706 -0.206727 2.01744 0
M  V30 1828 C 173.039 -1.47314 1.26539 0
M  V30 1829 O 172.314 -1.91084 0.362903 0
M  V30 1830 C 172.597 -0.485066 3.56818 0
M  V30 1831 C 172.45 0.795919 4.42702 0
M  V30 1832 C 173.769 -1.28003 4.21074 0
M  V30 1833 H 170.888 -0.0736607 0.73331 0
M  V30 1834 H 173.53 0.506581 1.83122 0
M  V30 1835 H 171.68 -1.09272 3.72816 0
M  V30 1836 H 173.352 1.43307 4.38476 0
M  V30 1837 H 171.595 1.41344 4.10127 0
M  V30 1838 H 172.266 0.555947 5.49193 0
M  V30 1839 H 174.742 -0.765867 4.08991 0
M  V30 1840 H 173.618 -1.44352 5.29579 0
M  V30 1841 H 173.879 -2.29236 3.78026 0
M  V30 1842 N 172.938 -1.57226 0.108567 0
M  V30 1843 C 173.885 -2.14756 -0.845481 0
M  V30 1844 C 174.855 -1.06971 -1.27068 0
M  V30 1845 O 176.04 -1.34827 -1.35005 0
M  V30 1846 C 173.18 -2.74298 -2.09415 0
M  V30 1847 C 172.293 -3.96358 -1.71826 0
M  V30 1848 C 171.428 -4.44021 -2.9158 0
M  V30 1849 C 170.467 -5.58637 -2.50181 0
M  V30 1850 N 169.604 -6.01091 -3.62814 0
M  V30 1851 H 174.444 -2.95961 -0.348035 0
M  V30 1852 H 171.981 -1.46226 -0.160106 0
M  V30 1853 H 173.939 -3.06945 -2.82561 0
M  V30 1854 H 172.569 -1.95801 -2.56636 0
M  V30 1855 H 171.621 -3.69939 -0.885947 0
M  V30 1856 H 172.933 -4.79504 -1.37394 0
M  V30 1857 H 172.087 -4.78522 -3.72963 0
M  V30 1858 H 170.826 -3.59803 -3.29231 0
M  V30 1859 H 169.831 -5.23751 -1.67228 0
M  V30 1860 H 171.056 -6.44613 -2.13659 0
M  V30 1861 H 169.002 -5.19817 -4.00158 0
M  V30 1862 H 168.919 -6.79066 -3.32273 0
M  V30 1863 H 170.187 -6.40227 -4.44668 0
M  V30 1864 N 174.416 0.165178 -1.56732 0
M  V30 1865 C 175.662 0.882112 -1.82611 0
M  V30 1866 C 175.995 1.81628 -0.687378 0
M  V30 1867 O 175.27 1.92009 0.310267 0
M  V30 1868 C 175.553 1.67245 -3.18906 0
M  V30 1869 C 175.406 0.760987 -4.43316 0
M  V30 1870 C 176.725 2.63884 -3.52212 0
M  V30 1871 H 173.844 0.319242 -0.664269 0
M  V30 1872 H 176.486 0.148052 -1.89422 0
M  V30 1873 H 174.636 2.29824 -3.1323 0
M  V30 1874 H 176.308 0.147596 -4.61064 0
M  V30 1875 H 174.551 0.0694102 -4.33744 0
M  V30 1876 H 175.222 1.34962 -5.35247 0
M  V30 1877 H 177.698 2.11429 -3.58381 0
M  V30 1878 H 176.574 3.16245 -4.48643 0
M  V30 1879 H 176.835 3.44377 -2.77231 0
M  V30 1880 N 175.894 1.51508 0.433938 0
M  V30 1881 C 177.171 1.54888 1.19453 0
M  V30 1882 C 177.551 0.315154 2.08734 0
M  V30 1883 O 176.899 -0.699558 2.17528 0
M  V30 1884 C 177.109 2.86467 1.99342 0
M  V30 1885 C 178.457 3.38545 2.56267 0
M  V30 1886 O 179.481 2.88041 2.0955 0
M  V30 1887 O 178.34 4.26675 3.41483 0
M  V30 1888 H 175.434 0.622863 0.544032 0
M  V30 1889 H 177.98 1.63823 0.442732 0
M  V30 1890 H 176.752 3.67718 1.33788 0
M  V30 1891 H 176.375 2.8071 2.8158 0
M  V30 1892 N 177.372 -0.689602 1.41712 0
M  V30 1893 C 178.305 -1.81403 1.3845 0
M  V30 1894 C 179.283 -1.60653 0.250874 0
M  V30 1895 O 180.467 -1.83323 0.43874 0
M  V30 1896 C 177.594 -3.18176 1.1611 0
M  V30 1897 C 176.64 -3.57705 2.3227 0
M  V30 1898 S 177.473 -3.61827 3.94767 0
M  V30 1899 C 178.629 -5.01318 3.74742 0
M  V30 1900 H 178.862 -1.83893 2.33603 0
M  V30 1901 H 176.395 -0.858878 1.28307 0
M  V30 1902 H 178.353 -3.97132 1.03907 0
M  V30 1903 H 177.014 -3.13288 0.225668 0
M  V30 1904 H 176.207 -4.57082 2.12349 0
M  V30 1905 H 175.809 -2.86073 2.40911 0
M  V30 1906 H 178.101 -5.88986 3.34817 0
M  V30 1907 H 179.044 -5.26283 4.73743 0
M  V30 1908 H 179.452 -4.73138 3.07898 0
M  V30 1909 N 178.85 -1.27639 -0.924453 0
M  V30 1910 C 180.075 -1.17101 -1.71179 0
M  V30 1911 C 180.5 0.268134 -1.86179 0
M  V30 1912 O 179.858 1.19415 -1.36418 0
M  V30 1913 C 179.906 -1.86313 -3.08739 0
M  V30 1914 O 179.01 -1.16331 -3.95652 0
M  V30 1915 H 178.351 -0.407091 -0.524569 0
M  V30 1916 H 180.881 -1.68767 -1.15666 0
M  V30 1917 H 180.891 -1.938 -3.59034 0
M  V30 1918 H 179.566 -2.91001 -2.97138 0
M  V30 1919 H 178.143 -1.16935 -3.54091 0
M  V30 1920 N 180.328 1.1314 -1.09713 0
M  V30 1921 C 181.739 1.66029 -0.853885 0
M  V30 1922 C 182.09 1.86241 0.617142 0
M  V30 1923 O 181.215 1.5834 1.47503 0
M  V30 1924 C 181.81 3.01599 -1.5435 0
M  V30 1925 C 180.369 3.51467 -1.34714 0
M  V30 1926 C 179.516 2.26648 -1.59769 0
M  V30 1927 H 182.467 0.970226 -1.25588 0
M  V30 1928 H 182.488 3.67709 -0.978267 0
M  V30 1929 H 182 2.86856 -2.6141 0
M  V30 1930 H 180.101 3.71408 -0.297838 0
M  V30 1931 H 180.214 4.314 -2.08401 0
M  V30 1932 H 178.578 2.33385 -1.01998 0
M  V30 1933 H 179.361 2.14467 -2.68065 0
M  V30 1934 N 181.806 0.884767 1.30421 0
M  V30 1935 C 183.054 0.502112 1.95763 0
M  V30 1936 C 183.375 -0.951815 1.70192 0
M  V30 1937 O 182.645 -1.6692 1.0254 0
M  V30 1938 H 181.225 0.182694 0.724315 0
M  V30 1939 H 183.887 1.1278 1.58955 0
M  V30 1940 H 182.983 0.672188 3.04775 0
M  V30 1941 N 183.284 -1.43765 0.645699 0
M  V30 1942 C 184.695 -1.85193 0.236719 0
M  V30 1943 C 185.046 -1.54045 -1.21509 0
M  V30 1944 O 184.171 -0.985694 -1.92647 0
M  V30 1945 C 184.766 -3.36151 0.422845 0
M  V30 1946 C 183.325 -3.76338 0.0682492 0
M  V30 1947 C 182.472 -2.67538 0.729306 0
M  V30 1948 H 185.423 -1.34025 0.849883 0
M  V30 1949 H 185.444 -3.79032 -0.333904 0
M  V30 1950 H 184.956 -3.5879 1.47958 0
M  V30 1951 H 183.057 -3.59312 -0.986179 0
M  V30 1952 H 183.17 -4.76603 0.488469 0
M  V30 1953 H 181.534 -2.54176 0.163235 0
M  V30 1954 H 182.317 -2.93006 1.78892 0
M  V30 1955 N 184.763 -0.387143 -1.52771 0
M  V30 1956 C 186.01 0.195735 -2.01552 0
M  V30 1957 C 186.338 1.46995 -1.27369 0
M  V30 1958 O 185.593 1.92325 -0.361879 0
M  V30 1959 C 185.892 0.512209 -3.53711 0
M  V30 1960 C 185.558 -0.670202 -4.45891 0
M  V30 1961 C 184.22 -0.994586 -4.70809 0
M  V30 1962 C 186.572 -1.46134 -5.00294 0
M  V30 1963 C 183.9 -2.11169 -5.4738 0
M  V30 1964 C 186.252 -2.56903 -5.78086 0
M  V30 1965 C 184.916 -2.89852 -6.01284 0
M  V30 1966 H 184.186 0.0716246 -0.73753 0
M  V30 1967 H 186.833 -0.524046 -1.8419 0
M  V30 1968 H 185.138 1.31329 -3.69134 0
M  V30 1969 H 186.835 0.975804 -3.88946 0
M  V30 1970 H 183.425 -0.407366 -4.2666 0
M  V30 1971 H 187.609 -1.22397 -4.80971 0
M  V30 1972 H 182.865 -2.3707 -5.63567 0
M  V30 1973 H 187.039 -3.18608 -6.19243 0
M  V30 1974 H 184.666 -3.76533 -6.60399 0
M  V30 1975 N 186.241 1.57166 -0.116904 0
M  V30 1976 C 187.488 1.95123 0.541603 0
M  V30 1977 C 187.816 1.00006 1.6682 0
M  V30 1978 O 187.071 0.0235658 1.95686 0
M  V30 1979 C 187.37 3.39508 1.11664 0
M  V30 1980 C 187.036 4.50762 0.111606 0
M  V30 1981 C 185.698 4.80918 -0.164758 0
M  V30 1982 C 188.05 5.18036 -0.573438 0
M  V30 1983 C 185.378 5.75666 -1.13249 0
M  V30 1984 C 187.73 6.13824 -1.52978 0
M  V30 1985 C 186.394 6.42374 -1.81415 0
M  V30 1986 H 185.664 0.714005 0.198187 0
M  V30 1987 H 188.311 1.9048 -0.197365 0
M  V30 1988 H 186.616 3.40835 1.93232 0
M  V30 1989 H 188.313 3.66189 1.63422 0
M  V30 1990 H 184.903 4.27272 0.337192 0
M  V30 1991 H 189.087 4.94896 -0.373092 0
M  V30 1992 H 184.343 5.96092 -1.35958 0
M  V30 1993 H 188.517 6.65039 -2.06629 0
M  V30 1994 H 186.144 7.15599 -2.56557 0
M  V30 1995 N 187.719 -0.156864 1.56817 0
M  V30 1996 C 188.944 -0.890331 1.87318 0
M  V30 1997 C 189.369 -1.74394 0.704855 0
M  V30 1998 O 188.727 -1.77972 -0.345786 0
M  V30 1999 C 188.775 -1.73102 3.16336 0
M  V30 2000 O 187.879 -2.83422 2.99576 0
M  V30 2001 H 187.22 -0.24857 0.615718 0
M  V30 2002 H 189.75 -0.150649 2.04045 0
M  V30 2003 H 189.76 -2.12803 3.48107 0
M  V30 2004 H 188.435 -1.10412 4.00976 0
M  V30 2005 H 187.012 -2.47199 2.7919 0
M  V30 2006 N 189.197 -1.51736 -0.425897 0
M  V30 2007 C 190.446 -1.64201 -1.17136 0
M  V30 2008 C 190.759 -0.369705 -1.92074 0
M  V30 2009 O 191.965 -0.373898 -2.68913 0
M  V30 2010 C 190.421 -2.90035 -2.13091 0
M  V30 2011 C 190.029 -4.24312 -1.43747 0
M  V30 2012 C 191.773 -3.1186 -2.87999 0
M  V30 2013 C 189.68 -5.41285 -2.38253 0
M  V30 2014 H 188.61 -0.611624 -0.440944 0
M  V30 2015 H 191.261 -1.78212 -0.437328 0
M  V30 2016 H 189.643 -2.69684 -2.89977 0
M  V30 2017 H 190.817 -4.55086 -0.723408 0
M  V30 2018 H 189.132 -4.08456 -0.809465 0
M  V30 2019 H 191.729 -3.96427 -3.58817 0
M  V30 2020 H 192.072 -2.25403 -3.49999 0
M  V30 2021 H 192.605 -3.32605 -2.18217 0
M  V30 2022 H 189.344 -6.30037 -1.80925 0
M  V30 2023 H 188.864 -5.14872 -3.0768 0
M  V30 2024 H 190.543 -5.73694 -2.99139 0
M  V30 2025 N 190.675 0.682077 -1.42076 0
M  V30 2026 C 191.903 1.47057 -1.4554 0
M  V30 2027 C 192.318 1.8869 -0.0645779 0
M  V30 2028 O 191.675 1.57666 0.919115 0
M  V30 2029 C 191.726 2.72442 -2.37609 0
M  V30 2030 O 191.447 2.32559 -3.71279 0
M  V30 2031 C 192.948 3.66069 -2.50017 0
M  V30 2032 H 190.168 0.452737 -0.495248 0
M  V30 2033 H 192.712 0.838695 -1.8651 0
M  V30 2034 H 190.867 3.31835 -1.9991 0
M  V30 2035 H 191.281 3.13475 -4.20516 0
M  V30 2036 H 192.755 4.50792 -3.18576 0
M  V30 2037 H 193.232 4.11476 -1.53572 0
M  V30 2038 H 193.838 3.12572 -2.88407 0
M  V30 2039 N 192.153 1.28127 0.917671 0
M  V30 2040 C 193.086 1.06039 2.02067 0
M  V30 2041 C 194.064 -0.0223285 1.62585 0
M  V30 2042 O 195.248 0.124823 1.88086 0
M  V30 2043 C 192.375 0.610596 3.33151 0
M  V30 2044 C 191.421 1.68937 3.91615 0
M  V30 2045 S 192.254 3.28437 4.22953 0
M  V30 2046 C 193.41 2.85283 5.57103 0
M  V30 2047 H 193.643 1.99425 2.20493 0
M  V30 2048 H 191.176 1.12071 1.06205 0
M  V30 2049 H 193.134 0.357778 4.08938 0
M  V30 2050 H 191.795 -0.303364 3.12632 0
M  V30 2051 H 190.988 1.32619 4.86239 0
M  V30 2052 H 190.59 1.89478 3.2245 0
M  V30 2053 H 192.882 2.3121 6.36827 0
M  V30 2054 H 193.825 3.7869 5.98331 0
M  V30 2055 H 194.233 2.24118 5.18104 0
M  V30 2056 N 193.631 -1.12557 1.10312 0
M  V30 2057 C 194.594 -2.16434 0.75424 0
M  V30 2058 C 195.594 -1.59278 -0.220685 0
M  V30 2059 O 196.784 -1.742 0.00230591 0
M  V30 2060 C 193.916 -3.40699 0.116987 0
M  V30 2061 H 195.109 -2.48811 1.67431 0
M  V30 2062 H 192.662 -1.27542 0.903475 0
M  V30 2063 H 193.397 -3.13921 -0.813877 0
M  V30 2064 H 193.182 -3.83459 0.818613 0
M  V30 2065 H 194.672 -4.17451 -0.111387 0
M  V30 2066 N 195.109 -0.891671 -1.2995 0
M  V30 2067 C 196.334 -0.527932 -2.00568 0
M  V30 2068 C 196.759 0.877969 -1.66353 0
M  V30 2069 O 196.117 1.58301 -0.883762 0
M  V30 2070 C 196.165 -0.717745 -3.53385 0
M  V30 2071 O 195.269 0.233376 -4.11739 0
M  V30 2072 H 194.61 -0.20722 -0.630837 0
M  V30 2073 H 197.14 -1.20105 -1.65638 0
M  V30 2074 H 197.15 -0.619307 -4.03272 0
M  V30 2075 H 195.825 -1.74276 -3.77625 0
M  V30 2076 H 194.402 0.0880706 -3.72796 0
M  V30 2077 N 196.587 1.43421 -0.653314 0
M  V30 2078 C 197.833 2.02111 -0.166992 0
M  V30 2079 C 198.166 1.51423 1.21592 0
M  V30 2080 O 197.441 0.707389 1.8118 0
M  V30 2081 C 197.724 3.5966 -0.177948 0
M  V30 2082 C 197.577 4.20579 -1.59478 0
M  V30 2083 C 198.896 4.37413 0.4856 0
M  V30 2084 H 196.015 0.734374 -0.0621557 0
M  V30 2085 H 198.657 1.70717 -0.834016 0
M  V30 2086 H 196.807 3.86537 0.390032 0
M  V30 2087 H 198.479 4.04732 -2.21336 0
M  V30 2088 H 196.722 3.77226 -2.14204 0
M  V30 2089 H 197.393 5.29665 -1.5543 0
M  V30 2090 H 199.869 4.161 0.00234528 0
M  V30 2091 H 198.745 5.47075 0.447207 0
M  V30 2092 H 199.006 4.13672 1.55974 0
M  V30 2093 N 198.065 0.39524 1.52563 0
M  V30 2094 C 199.305 -0.184744 2.03563 0
M  V30 2095 C 199.669 -1.43548 1.27507 0
M  V30 2096 O 200.87 -2.093 1.68662 0
M  V30 2097 C 199.141 -0.440294 3.54678 0
M  V30 2098 S 200.7 -0.989712 4.27493 0
M  V30 2099 H 197.518 -0.0515075 0.709132 0
M  V30 2100 H 200.12 0.544957 1.87751 0
M  V30 2101 H 198.824 0.477005 4.07618 0
M  V30 2102 H 198.355 -1.19825 3.74707 0
M  V30 2103 H 200.37 -2.27155 4.41152 0
M  V30 2104 N 199.544 -1.57102 0.125237 0
M  V30 2105 C 200.791 -1.95407 -0.531248 0
M  V30 2106 C 201.119 -1.0089 -1.66287 0
M  V30 2107 O 200.374 -0.0339431 -1.95671 0
M  V30 2108 C 200.673 -3.40096 -1.09862 0
M  V30 2109 C 200.339 -4.50815 -0.0876989 0
M  V30 2110 C 199.001 -4.80824 0.19026 0
M  V30 2111 C 201.353 -5.17724 0.600902 0
M  V30 2112 C 198.681 -5.75058 1.163 0
M  V30 2113 C 201.033 -6.13005 1.56231 0
M  V30 2114 C 199.697 -6.41403 1.8482 0
M  V30 2115 H 198.967 -0.715046 -0.194397 0
M  V30 2116 H 201.614 -1.90373 0.207463 0
M  V30 2117 H 199.919 -3.41855 -1.91422 0
M  V30 2118 H 201.616 -3.6705 -1.61478 0
M  V30 2119 H 198.206 -4.27444 -0.314528 0
M  V30 2120 H 202.39 -4.94691 0.399333 0
M  V30 2121 H 197.646 -5.95362 1.39117 0
M  V30 2122 H 201.82 -6.63934 2.10153 0
M  V30 2123 H 199.447 -7.14229 2.60349 0
M  V30 2124 N 201.022 0.148545 -1.56898 0
M  V30 2125 C 202.271 0.85984 -1.82454 0
M  V30 2126 C 202.584 1.82406 -0.706229 0
M  V30 2127 O 203.79 2.57938 -0.847349 0
M  V30 2128 C 202.246 1.57967 -3.2338 0
M  V30 2129 C 201.854 0.65794 -4.43142 0
M  V30 2130 C 203.598 2.27784 -3.58211 0
M  V30 2131 C 201.505 1.3793 -5.75091 0
M  V30 2132 H 200.435 0.324834 -0.68044 0
M  V30 2133 H 203.086 0.112588 -1.83154 0
M  V30 2134 H 201.468 2.37249 -3.17063 0
M  V30 2135 H 202.642 -0.0995497 -4.60692 0
M  V30 2136 H 200.957 0.0682643 -4.16344 0
M  V30 2137 H 203.554 2.8239 -4.54048 0
M  V30 2138 H 203.897 3.04204 -2.84193 0
M  V30 2139 H 204.43 1.55421 -3.66182 0
M  V30 2140 H 201.169 0.656982 -6.52199 0
M  V30 2141 H 200.689 2.10954 -5.61479 0
M  V30 2142 H 202.368 1.92063 -6.17835 0
M  V30 2143 N 202.5 1.5196 0.417844 0
M  V30 2144 C 203.448 1.75278 1.52907 0
M  V30 2145 C 204.442 0.619611 1.57662 0
M  V30 2146 O 205.648 0.801457 1.61173 0
M  V30 2147 H 202.023 0.554141 0.508362 0
M  V30 2148 H 203.994 2.68389 1.30422 0
M  V30 2149 C 202.743 1.91262 2.90369 0
M  V30 2150 H 202.066 2.77872 2.8745 0
M  V30 2151 H 203.506 2.11581 3.67436 0
M  V30 2152 C 201.965 0.677431 3.30019 0
M  V30 2153 O 202.495 -0.158799 4.01386 0
M  V30 2154 N 200.701 0.515851 2.85985 0
M  V30 2155 H 200.248 1.19744 2.28077 0
M  V30 2156 H 200.206 -0.309315 3.12875 0
M  V30 2157 N 203.978 -0.674533 1.42435 0
M  V30 2158 C 205.203 -1.46784 1.46524 0
M  V30 2159 C 205.628 -1.87938 0.078066 0
M  V30 2160 O 204.986 -1.56014 -0.92354 0
M  V30 2161 C 205.034 -2.69307 2.39805 0
M  V30 2162 O 204.138 -3.67587 1.86959 0
M  V30 2163 H 203.479 -0.440959 0.496439 0
M  V30 2164 H 206.009 -0.827326 1.87127 0
M  V30 2165 H 206.019 -3.17374 2.56393 0
M  V30 2166 H 204.694 -2.38692 3.40586 0
M  V30 2167 H 203.271 -3.2662 1.79927 0
M  V30 2168 N 205.456 -1.28612 -0.910864 0
M  V30 2169 C 206.703 -1.15934 -1.66029 0
M  V30 2170 C 207.031 0.291483 -1.92303 0
M  V30 2171 O 206.286 1.22816 -1.52364 0
M  V30 2172 C 206.585 -1.90624 -3.0232 0
M  V30 2173 C 206.251 -3.40405 -2.95695 0
M  V30 2174 C 204.913 -3.81255 -2.93595 0
M  V30 2175 C 207.265 -4.359 -2.85728 0
M  V30 2176 C 204.593 -5.15936 -2.79334 0
M  V30 2177 C 206.945 -5.70657 -2.73007 0
M  V30 2178 C 205.609 -6.10779 -2.69267 0
M  V30 2179 H 204.879 -0.424234 -0.607541 0
M  V30 2180 H 207.526 -1.5942 -1.06101 0
M  V30 2181 H 205.831 -1.39696 -3.6605 0
M  V30 2182 H 207.528 -1.78228 -3.59215 0
M  V30 2183 H 204.118 -3.07927 -2.98125 0
M  V30 2184 H 208.302 -4.053 -2.86436 0
M  V30 2185 H 203.558 -5.46146 -2.74835 0
M  V30 2186 H 207.732 -6.44311 -2.64264 0
M  V30 2187 H 205.359 -7.1509 -2.57974 0
M  V30 2188 N 206.934 1.1197 -1.10907 0
M  V30 2189 C 208.159 1.87942 -0.877064 0
M  V30 2190 C 208.584 1.79341 0.567314 0
M  V30 2191 O 207.942 1.15184 1.40009 0
M  V30 2192 C 207.99 3.34926 -1.33629 0
M  V30 2193 O 207.094 4.09303 -0.504447 0
M  V30 2194 H 206.435 0.583785 -0.316371 0
M  V30 2195 H 208.965 1.4157 -1.47712 0
M  V30 2196 H 208.975 3.8577 -1.32837 0
M  V30 2197 H 207.65 3.40504 -2.3881 0
M  V30 2198 H 206.227 3.68393 -0.577993 0
M  V30 2199 N 208.412 0.89855 1.29475 0
M  V30 2200 C 209.375 0.380272 2.26023 0
M  V30 2201 C 210.375 -0.484891 1.53315 0
M  V30 2202 O 211.565 -0.290108 1.71767 0
M  V30 2203 C 208.697 -0.45651 3.3783 0
M  V30 2204 H 209.89 1.23295 2.73383 0
M  V30 2205 H 207.443 0.676589 1.40897 0
M  V30 2206 H 208.178 -1.32922 2.95808 0
M  V30 2207 H 207.963 0.163393 3.91759 0
M  V30 2208 H 209.453 -0.810466 4.0966 0
M  V30 2209 N 209.89 -1.43072 0.660911 0
M  V30 2210 C 211.136 -2.0202 0.177708 0
M  V30 2211 C 211.469 -1.52066 -1.20787 0
M  V30 2212 O 210.744 -0.716987 -1.80802 0
M  V30 2213 C 211.027 -3.59561 0.197019 0
M  V30 2214 C 210.88 -4.19727 1.61706 0
M  V30 2215 C 212.199 -4.37664 -0.462396 0
M  V30 2216 H 209.318 -0.734034 0.0660494 0
M  V30 2217 H 211.96 -1.70272 0.843058 0
M  V30 2218 H 210.11 -3.86739 -0.369527 0
M  V30 2219 H 211.782 -4.03553 2.23479 0
M  V30 2220 H 210.025 -3.76084 2.16201 0
M  V30 2221 H 210.696 -5.28834 1.58237 0
M  V30 2222 H 213.172 -4.16095 0.0197215 0
M  V30 2223 H 212.048 -5.47305 -0.418188 0
M  V30 2224 H 212.309 -4.14493 -1.53778 0
M  V30 2225 N 211.368 -0.403325 -1.52352 0
M  V30 2226 C 212.298 0.416205 -2.29761 0
M  V30 2227 C 213.279 1.05123 -1.33728 0
M  V30 2228 O 214.464 1.06134 -1.62632 0
M  V30 2229 C 211.594 1.53624 -3.11475 0
M  V30 2230 C 210.548 1.02653 -4.15507 0
M  V30 2231 C 209.874 2.23971 -4.85532 0
M  V30 2232 C 211.174 0.08463 -5.22231 0
M  V30 2233 H 212.868 -0.229701 -2.98518 0
M  V30 2234 H 210.414 -0.111913 -1.43564 0
M  V30 2235 H 212.367 2.1165 -3.64393 0
M  V30 2236 H 211.091 2.20994 -2.40477 0
M  V30 2237 H 209.75 0.46871 -3.63591 0
M  V30 2238 H 209.398 2.89883 -4.11068 0
M  V30 2239 H 209.098 1.90521 -5.55856 0
M  V30 2240 H 210.622 2.82614 -5.41259 0
M  V30 2241 H 212.036 0.573509 -5.70424 0
M  V30 2242 H 210.433 -0.160783 -5.99885 0
M  V30 2243 H 211.503 -0.86237 -4.7717 0
M  V30 2244 N 212.846 1.57033 -0.133567 0
M  V30 2245 C 213.778 2.13176 0.841944 0
M  V30 2246 C 214.791 1.07794 1.22001 0
M  V30 2247 O 215.98 1.35117 1.16643 0
M  V30 2248 C 213.08 2.62847 2.13926 0
M  V30 2249 C 212.253 3.92486 1.93064 0
M  V30 2250 C 211.312 4.27605 3.0666 0
M  V30 2251 O 210.338 4.96168 2.78937 0
M  V30 2252 N 211.54 3.861 4.33483 0
M  V30 2253 H 214.305 2.97503 0.362192 0
M  V30 2254 H 211.866 1.61821 0.05042 0
M  V30 2255 H 213.858 2.83363 2.88942 0
M  V30 2256 H 212.428 1.83319 2.53205 0
M  V30 2257 H 211.648 3.80732 1.02159 0
M  V30 2258 H 212.936 4.77225 1.76447 0
M  V30 2259 H 212.334 3.30828 4.58878 0
M  V30 2260 H 210.891 4.11694 5.05323 0
M  V30 2261 N 214.325 -0.140222 1.56975 0
M  V30 2262 C 215.573 -0.850005 1.83356 0
M  V30 2263 C 215.894 -1.81399 0.71551 0
M  V30 2264 O 215.164 -1.94136 -0.262294 0
M  V30 2265 H 213.744 -0.316886 0.676456 0
M  V30 2266 H 216.406 -0.132608 1.94448 0
M  V30 2267 H 215.502 -1.40814 2.78528 0
M  V30 2268 N 215.803 -1.52179 -0.40978 0
M  V30 2269 C 217.028 -1.70347 -1.18308 0
M  V30 2270 C 217.453 -0.411887 -1.83535 0
M  V30 2271 O 216.811 0.630587 -1.6998 0
M  V30 2272 C 216.859 -2.83977 -2.22238 0
M  V30 2273 O 215.963 -2.495 -3.28365 0
M  V30 2274 H 215.304 -0.567103 -0.345384 0
M  V30 2275 H 217.834 -1.98879 -0.480445 0
M  V30 2276 H 217.844 -3.0887 -2.66577 0
M  V30 2277 H 216.519 -3.77685 -1.74146 0
M  V30 2278 H 215.096 -2.35277 -2.89308 0
M  V30 2279 N 217.281 0.66697 -1.42791 0
M  V30 2280 C 218.211 1.79218 -1.49677 0
M  V30 2281 C 219.192 1.66405 -0.352623 0
M  V30 2282 O 220.377 1.85708 -0.567993 0
M  V30 2283 C 217.507 3.17565 -1.40605 0
M  V30 2284 C 216.461 3.45124 -2.53127 0
M  V30 2285 C 215.787 4.83127 -2.29112 0
M  V30 2286 C 217.087 3.41236 -3.95418 0
M  V30 2287 H 218.781 1.73713 -2.43853 0
M  V30 2288 H 216.327 0.83432 -1.17367 0
M  V30 2289 H 218.28 3.96022 -1.44029 0
M  V30 2290 H 217.004 3.23767 -0.429271 0
M  V30 2291 H 215.663 2.69031 -2.49034 0
M  V30 2292 H 215.311 4.85988 -1.29709 0
M  V30 2293 H 215.011 5.02528 -3.04531 0
M  V30 2294 H 216.535 5.63859 -2.34297 0
M  V30 2295 H 217.949 4.09651 -4.01073 0
M  V30 2296 H 216.346 3.72173 -4.70752 0
M  V30 2297 H 217.416 2.39665 -4.21532 0
M  V30 2298 N 218.759 1.29093 0.90403 0
M  V30 2299 C 220.006 1.16813 1.65411 0
M  V30 2300 C 220.334 -0.28128 1.92455 0
M  V30 2301 O 219.589 -1.22006 1.53013 0
M  V30 2302 C 219.888 1.92224 3.01305 0
M  V30 2303 C 219.554 3.41968 2.93885 0
M  V30 2304 C 218.216 3.82807 2.91569 0
M  V30 2305 C 220.568 4.37409 2.83413 0
M  V30 2306 C 217.896 5.1741 2.76594 0
M  V30 2307 C 220.248 5.72097 2.69977 0
M  V30 2308 C 218.912 6.12199 2.66024 0
M  V30 2309 H 218.182 0.42745 0.605283 0
M  V30 2310 H 220.829 1.59981 1.05254 0
M  V30 2311 H 219.134 1.41635 3.65304 0
M  V30 2312 H 220.831 1.80131 3.58265 0
M  V30 2313 H 217.421 3.09504 2.96488 0
M  V30 2314 H 221.605 4.06813 2.84283 0
M  V30 2315 H 216.861 5.47596 2.71935 0
M  V30 2316 H 221.035 6.45704 2.60844 0
M  V30 2317 H 218.662 7.16448 2.54178 0
M  V30 2318 N 220.237 -1.11381 1.11499 0
M  V30 2319 C 221.485 -1.8277 0.862524 0
M  V30 2320 C 221.806 -1.85097 -0.613534 0
M  V30 2321 O 221.076 -1.32198 -1.4457 0
M  V30 2322 H 219.656 -0.676823 0.316101 0
M  V30 2323 H 222.318 -1.34816 1.4075 0
M  V30 2324 H 221.414 -2.86614 1.23527 0
M  V30 2325 N 221.715 -0.905404 -1.28997 0
M  V30 2326 C 222.647 -0.344748 -2.26592 0
M  V30 2327 C 223.66 0.512135 -1.54535 0
M  V30 2328 O 224.849 0.328368 -1.75454 0
M  V30 2329 C 221.949 0.526587 -3.34784 0
M  V30 2330 C 221.122 -0.305871 -4.36329 0
M  V30 2331 C 220.181 0.499209 -5.23827 0
M  V30 2332 O 219.207 -0.0853004 -5.69136 0
M  V30 2333 N 220.409 1.80408 -5.51755 0
M  V30 2334 H 223.174 -1.18359 -2.75338 0
M  V30 2335 H 220.735 -0.770481 -1.42391 0
M  V30 2336 H 222.727 1.07171 -3.90252 0
M  V30 2337 H 221.297 1.26613 -2.85811 0
M  V30 2338 H 220.517 -1.0324 -3.80441 0
M  V30 2339 H 221.805 -0.875773 -5.01206 0
M  V30 2340 H 221.203 2.3016 -5.16762 0
M  V30 2341 H 219.76 2.29621 -6.10014 0
M  V30 2342 N 223.193 1.4272 -0.668489 0
M  V30 2343 C 224.123 2.335 -0.000100175 0
M  V30 2344 C 225.104 1.50328 0.795964 0
M  V30 2345 O 226.289 1.78949 0.754385 0
M  V30 2346 C 223.419 3.33874 0.956302 0
M  V30 2347 C 222.373 4.27152 0.269278 0
M  V30 2348 C 221.699 5.17684 1.33818 0
M  V30 2349 C 222.999 5.15373 -0.847805 0
M  V30 2350 H 224.693 2.89639 -0.758244 0
M  V30 2351 H 222.239 1.39269 -0.366079 0
M  V30 2352 H 224.192 3.9629 1.43292 0
M  V30 2353 H 222.916 2.76025 1.74579 0
M  V30 2354 H 221.575 3.66123 -0.187042 0
M  V30 2355 H 221.223 4.56165 2.1195 0
M  V30 2356 H 220.923 5.80918 0.883659 0
M  V30 2357 H 222.447 5.82974 1.81586 0
M  V30 2358 H 223.861 5.7151 -0.452681 0
M  V30 2359 H 222.258 5.87407 -1.22773 0
M  V30 2360 H 223.328 4.5415 -1.69929 0
M  V30 2361 N 224.671 0.411399 1.52136 0
M  V30 2362 C 225.919 -0.163322 2.01439 0
M  V30 2363 C 226.24 -1.45453 1.29879 0
M  V30 2364 O 225.51 -1.91225 0.4254 0
M  V30 2365 H 224.09 -0.0633447 0.744309 0
M  V30 2366 H 226.752 0.548161 1.87033 0
M  V30 2367 H 225.848 -0.357817 3.10042 0
M  V30 2368 N 226.149 -1.5696 0.141893 0
M  V30 2369 C 227.377 -2.00322 -0.517579 0
M  V30 2370 C 227.792 -1.02193 -1.58752 0
M  V30 2371 O 227.149 -0.0181619 -1.82491 0
M  V30 2372 C 227.2 -3.43618 -1.12289 0
M  V30 2373 O 226.921 -4.37995 -0.0956929 0
M  V30 2374 C 228.422 -4.02231 -1.86347 0
M  V30 2375 H 225.642 -0.657243 -0.135177 0
M  V30 2376 H 228.186 -2.03146 0.234973 0
M  V30 2377 H 226.341 -3.41662 -1.82609 0
M  V30 2378 H 226.755 -5.21729 -0.538469 0
M  V30 2379 H 228.229 -5.04509 -2.23997 0
M  V30 2380 H 228.706 -3.42655 -2.74744 0
M  V30 2381 H 229.312 -4.07802 -1.20737 0
M  V30 2382 N 227.627 0.131896 -1.57047 0
M  V30 2383 C 228.56 1.19236 -1.94571 0
M  V30 2384 C 229.538 1.40782 -0.813576 0
M  V30 2385 O 230.722 1.55148 -1.07058 0
M  V30 2386 C 227.849 2.54858 -2.23081 0
M  V30 2387 C 226.895 2.49817 -3.45679 0
M  V30 2388 S 227.728 1.95036 -4.98719 0
M  V30 2389 C 228.884 3.32357 -5.30367 0
M  V30 2390 H 229.117 0.872297 -2.84215 0
M  V30 2391 H 226.65 0.338134 -1.50652 0
M  V30 2392 H 228.608 3.32898 -2.40185 0
M  V30 2393 H 227.269 2.84047 -1.34074 0
M  V30 2394 H 226.462 3.49688 -3.62952 0
M  V30 2395 H 226.064 1.79892 -3.27895 0
M  V30 2396 H 228.356 4.28525 -5.2476 0
M  V30 2397 H 229.299 3.19923 -6.31708 0
M  V30 2398 H 229.707 3.3019 -4.57859 0
M  V30 2399 N 229.106 1.52395 0.401703 0
M  V30 2400 C 230.517 1.58899 0.980202 0
M  V30 2401 C 230.868 0.434032 1.91339 0
M  V30 2402 O 229.993 -0.444619 2.11783 0
M  V30 2403 C 230.588 2.87994 1.78451 0
M  V30 2404 C 229.147 2.96953 2.31292 0
M  V30 2405 C 228.294 2.53903 1.11483 0
M  V30 2406 H 231.245 1.57657 0.18168 0
M  V30 2407 H 231.266 2.73765 2.64259 0
M  V30 2408 H 230.778 3.72035 1.10506 0
M  V30 2409 H 228.879 2.17422 3.02586 0
M  V30 2410 H 228.992 4.01344 2.61649 0
M  V30 2411 H 227.356 2.07925 1.47104 0
M  V30 2412 H 228.139 3.40326 0.450928 0
M  V30 2413 N 230.584 -0.659388 1.43143 0
M  V30 2414 C 231.809 -1.45221 1.48073 0
M  V30 2415 C 232.234 -1.87845 0.097995 0
M  V30 2416 O 231.592 -1.56985 -0.90694 0
M  V30 2417 C 231.64 -2.66748 2.42647 0
M  V30 2418 O 230.744 -3.65583 1.90848 0
M  V30 2419 H 230.085 -0.435669 0.501088 0
M  V30 2420 H 232.615 -0.807432 1.87994 0
M  V30 2421 H 232.625 -3.14637 2.59745 0
M  V30 2422 H 231.3 -2.35067 3.43098 0
M  V30 2423 H 229.877 -3.24693 1.83381 0
M  V30 2424 N 232.062 -1.29571 -0.897171 0
M  V30 2425 C 233.29 -1.20583 -1.68129 0
M  V30 2426 C 233.705 0.233181 -1.87354 0
M  V30 2427 O 233.062 1.15579 -1.41236 0
M  V30 2428 C 233.113 -1.91772 -3.06441 0
M  V30 2429 O 232.834 -3.30053 -2.88091 0
M  V30 2430 C 234.335 -1.89291 -4.00854 0
M  V30 2431 H 231.555 -0.417826 -0.525036 0
M  V30 2432 H 234.099 -1.70987 -1.12177 0
M  V30 2433 H 232.254 -1.45196 -3.59161 0
M  V30 2434 H 232.668 -3.65942 -3.75748 0
M  V30 2435 H 234.142 -2.43662 -4.95311 0
M  V30 2436 H 234.619 -0.869014 -4.30517 0
M  V30 2437 H 235.225 -2.35622 -3.54066 0
M  V30 2438 N 233.54 1.10788 -1.12088 0
M  V30 2439 C 234.77 1.86191 -0.895351 0
M  V30 2440 C 235.178 1.80763 0.558702 0
M  V30 2441 O 234.521 1.19188 1.39785 0
M  V30 2442 C 234.583 3.35659 -1.28737 0
M  V30 2443 C 234.247 3.64849 -2.75198 0
M  V30 2444 C 235.244 3.61757 -3.734 0
M  V30 2445 C 232.929 3.93641 -3.12013 0
M  V30 2446 C 234.923 3.87045 -5.06434 0
M  V30 2447 C 232.61 4.18585 -4.4523 0
M  V30 2448 C 233.608 4.15277 -5.42249 0
M  V30 2449 O 233.296 4.3959 -6.73065 0
M  V30 2450 H 233.028 0.595425 -0.32007 0
M  V30 2451 H 235.582 1.40992 -1.49367 0
M  V30 2452 H 233.812 3.81497 -0.63224 0
M  V30 2453 H 235.501 3.92441 -1.03656 0
M  V30 2454 H 236.267 3.39557 -3.46303 0
M  V30 2455 H 232.146 3.95348 -2.37109 0
M  V30 2456 H 235.69 3.84378 -5.82151 0
M  V30 2457 H 231.587 4.40264 -4.72057 0
M  V30 2458 H 232.355 4.57123 -6.78956 0
M  V30 2459 N 235.018 0.912232 1.28515 0
M  V30 2460 C 236.243 0.559774 1.99703 0
M  V30 2461 C 236.668 -0.851393 1.67729 0
M  V30 2462 O 236.026 -1.56875 0.908834 0
M  V30 2463 C 236.074 0.773874 3.52198 0
M  V30 2464 O 235.178 -0.167842 4.12058 0
M  V30 2465 H 234.519 0.21723 0.627461 0
M  V30 2466 H 237.049 1.22725 1.63706 0
M  V30 2467 H 237.059 0.683386 4.02236 0
M  V30 2468 H 235.734 1.80261 3.74805 0
M  V30 2469 H 234.311 -0.0287509 3.72889 0
M  V30 2470 N 236.496 -1.42363 0.676048 0
M  V30 2471 C 237.724 -2.05859 0.207268 0
M  V30 2472 C 238.139 -1.50796 -1.13605 0
M  V30 2473 O 237.496 -0.648265 -1.70598 0
M  V30 2474 C 237.547 -3.61248 0.134975 0
M  V30 2475 O 237.268 -4.1427 1.42521 0
M  V30 2476 C 238.769 -4.41859 -0.357151 0
M  V30 2477 H 235.989 -0.663431 0.100503 0
M  V30 2478 H 238.533 -1.82479 0.923136 0
M  V30 2479 H 236.688 -3.83735 -0.531588 0
M  V30 2480 H 237.102 -5.0815 1.29939 0
M  V30 2481 H 238.576 -5.50847 -0.356641 0
M  V30 2482 H 239.053 -4.16536 -1.39264 0
M  V30 2483 H 239.659 -4.24392 0.27772 0
M  V30 2484 N 237.974 -0.419461 -1.51915 0
M  V30 2485 C 238.904 0.391813 -2.30189 0
M  V30 2486 C 239.885 1.03699 -1.34836 0
M  V30 2487 O 241.07 1.04403 -1.63748 0
M  V30 2488 C 238.2 1.50312 -3.13087 0
M  V30 2489 C 237.154 0.9824 -4.16573 0
M  V30 2490 C 236.48 2.18809 -4.8788 0
M  V30 2491 C 237.78 0.0292356 -5.22292 0
M  V30 2492 H 239.474 -0.26135 -2.98257 0
M  V30 2493 H 237.02 -0.127134 -1.43438 0
M  V30 2494 H 238.973 2.07773 -3.66617 0
M  V30 2495 H 237.697 2.18431 -2.42807 0
M  V30 2496 H 236.356 0.430119 -3.64068 0
M  V30 2497 H 236.004 2.85507 -4.14119 0
M  V30 2498 H 235.704 1.84615 -5.57845 0
M  V30 2499 H 237.228 2.76858 -5.44226 0
M  V30 2500 H 238.642 0.512976 -5.71 0
M  V30 2501 H 237.039 -0.2244 -5.9968 0
M  V30 2502 H 238.109 -0.912931 -4.76228 0
M  V30 2503 N 239.452 1.56882 -0.150215 0
M  V30 2504 C 240.699 1.96228 0.500093 0
M  V30 2505 C 241.027 1.03522 1.64661 0
M  V30 2506 O 240.282 0.0650683 1.95592 0
M  V30 2507 C 240.581 3.41801 1.04437 0
M  V30 2508 C 240.247 4.50897 0.0159671 0
M  V30 2509 C 238.909 4.8046 -0.266731 0
M  V30 2510 C 241.261 5.16703 -0.683192 0
M  V30 2511 C 238.589 5.73135 -1.25434 0
M  V30 2512 C 240.941 6.10441 -1.65964 0
M  V30 2513 C 239.605 6.38382 -1.95 0
M  V30 2514 H 238.875 0.718048 0.182997 0
M  V30 2515 H 241.522 1.90019 -0.237724 0
M  V30 2516 H 239.827 3.44857 1.85959 0
M  V30 2517 H 241.524 3.69573 1.55618 0
M  V30 2518 H 238.114 4.27891 0.246485 0
M  V30 2519 H 242.298 4.93993 -0.477983 0
M  V30 2520 H 237.554 5.93074 -1.48571 0
M  V30 2521 H 241.728 6.60507 -2.20689 0
M  V30 2522 H 239.355 7.09996 -2.71679 0
M  V30 2523 N 240.93 -0.123565 1.57115 0
M  V30 2524 C 241.86 -1.15309 2.03042 0
M  V30 2525 C 242.841 -1.43454 0.914061 0
M  V30 2526 O 244.026 -1.53973 1.18347 0
M  V30 2527 C 241.156 -2.48043 2.43089 0
M  V30 2528 C 240.11 -2.3437 3.58127 0
M  V30 2529 C 239.436 -3.72026 3.84059 0
M  V30 2530 C 240.736 -1.80804 4.90007 0
M  V30 2531 H 242.43 -0.771102 2.893 0
M  V30 2532 H 239.976 -0.369479 1.39179 0
M  V30 2533 H 241.929 -3.20311 2.73823 0
M  V30 2534 H 240.653 -2.88122 1.53796 0
M  V30 2535 H 239.312 -1.64551 3.27595 0
M  V30 2536 H 238.96 -4.09582 2.91979 0
M  V30 2537 H 238.66 -3.63732 4.6149 0
M  V30 2538 H 240.184 -4.45806 4.1724 0
M  V30 2539 H 241.598 -2.42886 5.19307 0
M  V30 2540 H 239.995 -1.83343 5.71407 0
M  V30 2541 H 241.065 -0.76528 4.78823 0
M  V30 2542 N 242.408 -1.52605 -0.393616 0
M  V30 2543 C 243.633 -1.71592 -1.16495 0
M  V30 2544 C 244.058 -0.43133 -1.83088 0
M  V30 2545 O 243.416 0.612523 -1.7064 0
M  V30 2546 C 243.464 -2.86318 -2.19213 0
M  V30 2547 O 242.568 -2.52969 -3.257 0
M  V30 2548 H 241.909 -0.570734 -0.33935 0
M  V30 2549 H 244.439 -1.99377 -0.459324 0
M  V30 2550 H 244.449 -3.1168 -2.63286 0
M  V30 2551 H 243.124 -3.79511 -1.7013 0
M  V30 2552 H 241.701 -2.38332 -2.86797 0
M  V30 2553 N 243.887 0.651787 -1.4349 0
M  V30 2554 C 245.135 1.40888 -1.44897 0
M  V30 2555 C 245.456 1.94856 -0.0749086 0
M  V30 2556 O 244.726 1.74518 0.889956 0
M  V30 2557 H 243.306 0.522887 -0.533478 0
M  V30 2558 H 245.968 0.768609 -1.79104 0
M  V30 2559 H 245.064 2.25052 -2.16236 0
M  V30 2560 N 245.365 1.30045 0.890287 0
M  V30 2561 C 246.297 1.11786 2.00091 0
M  V30 2562 C 247.31 0.0626307 1.62679 0
M  V30 2563 O 248.499 0.308112 1.75821 0
M  V30 2564 C 245.599 0.681527 3.31977 0
M  V30 2565 C 244.772 1.81735 3.97858 0
M  V30 2566 C 243.831 1.37045 5.08041 0
M  V30 2567 O 242.857 2.07677 5.29961 0
M  V30 2568 N 244.059 0.246525 5.79976 0
M  V30 2569 H 246.824 2.07441 2.16306 0
M  V30 2570 H 244.385 1.2211 1.06305 0
M  V30 2571 H 246.377 0.365675 4.03045 0
M  V30 2572 H 244.947 -0.182828 3.12065 0
M  V30 2573 H 244.167 2.30159 3.20032 0
M  V30 2574 H 245.455 2.57865 4.38615 0
M  V30 2575 H 244.853 -0.34215 5.64664 0
M  V30 2576 H 243.41 -0.00990438 6.51799 0
M  V30 2577 N 246.843 -1.10192 1.12674 0
M  V30 2578 C 248.091 -1.81845 0.881861 0
M  V30 2579 C 248.412 -1.85737 -0.593867 0
M  V30 2580 O 247.682 -1.33724 -1.4316 0
M  V30 2581 H 246.262 -0.673432 0.323261 0
M  V30 2582 H 248.924 -1.33316 1.42172 0
M  V30 2583 H 248.02 -2.85288 1.2656 0
M  V30 2584 N 248.321 -0.919034 -1.28029 0
M  V30 2585 C 249.251 -0.428581 -2.29533 0
M  V30 2586 C 250.232 0.50659 -1.62381 0
M  V30 2587 O 251.417 0.413195 -1.89753 0
M  V30 2588 C 248.547 0.327388 -3.45753 0
M  V30 2589 C 247.501 -0.519137 -4.2484 0
M  V30 2590 C 246.827 0.365486 -5.33449 0
M  V30 2591 C 248.127 -1.77914 -4.91064 0
M  V30 2592 H 249.821 -1.27687 -2.70807 0
M  V30 2593 H 247.367 -0.615428 -1.30186 0
M  V30 2594 H 249.32 0.681378 -4.15855 0
M  V30 2595 H 248.044 1.20963 -3.03374 0
M  V30 2596 H 246.703 -0.855717 -3.56473 0
M  V30 2597 H 246.351 1.24642 -4.87312 0
M  V30 2598 H 246.051 -0.197356 -5.87268 0
M  V30 2599 H 247.575 0.715241 -6.06396 0
M  V30 2600 H 248.989 -1.49374 -5.53498 0
M  V30 2601 H 247.386 -2.2848 -5.54903 0
M  V30 2602 H 248.456 -2.50382 -4.15255 0
M  V30 2603 N 249.799 1.42003 -0.683588 0
M  V30 2604 C 250.762 2.29191 -0.0198243 0
M  V30 2605 C 251.762 1.43773 0.72013 0
M  V30 2606 O 252.952 1.65061 0.556815 0
M  V30 2607 C 250.084 3.26435 0.982487 0
M  V30 2608 H 251.277 2.8938 -0.787345 0
M  V30 2609 H 248.83 1.49789 -0.446418 0
M  V30 2610 H 249.565 2.71203 1.77819 0
M  V30 2611 H 249.35 3.89449 0.455182 0
M  V30 2612 H 250.84 3.918 1.44508 0
M  V30 2613 N 251.277 0.427512 1.51691 0
M  V30 2614 C 252.525 -0.141948 2.01601 0
M  V30 2615 C 252.846 -1.44067 1.31414 0
M  V30 2616 O 252.116 -1.90763 0.445658 0
M  V30 2617 H 250.696 -0.0554468 0.744939 0
M  V30 2618 H 253.358 0.567968 1.86441 0
M  V30 2619 H 252.454 -0.324913 3.10404 0
M  V30 2620 N 252.755 -1.56801 0.158532 0
M  V30 2621 C 254.004 -1.95665 -0.489702 0
M  V30 2622 C 254.317 -1.04654 -1.65248 0
M  V30 2623 O 255.523 -1.33146 -2.3661 0
M  V30 2624 C 253.979 -3.47874 -0.922582 0
M  V30 2625 C 253.587 -4.47489 0.213893 0
M  V30 2626 C 255.331 -3.95583 -1.53996 0
M  V30 2627 C 253.238 -5.90921 -0.237903 0
M  V30 2628 H 252.168 -0.730516 -0.186716 0
M  V30 2629 H 254.819 -1.81861 0.244722 0
M  V30 2630 H 253.201 -3.57051 -1.71261 0
M  V30 2631 H 254.375 -4.50017 0.991036 0
M  V30 2632 H 252.69 -4.09764 0.740407 0
M  V30 2633 H 255.287 -5.0019 -1.8898 0
M  V30 2634 H 255.63 -3.37789 -2.43319 0
M  V30 2635 H 256.163 -3.8937 -0.814611 0
M  V30 2636 H 252.902 -6.52559 0.620236 0
M  V30 2637 H 252.422 -5.91729 -0.980676 0
M  V30 2638 H 254.101 -6.43352 -0.686067 0
M  V30 2639 N 254.233 0.115231 -1.57178 0
M  V30 2640 C 255.48 0.822351 -1.8505 0
M  V30 2641 C 255.808 1.79701 -0.744168 0
M  V30 2642 O 255.063 1.93909 0.26414 0
M  V30 2643 C 255.362 1.60324 -3.19423 0
M  V30 2644 C 255.028 0.772536 -4.44233 0
M  V30 2645 C 253.69 0.543468 -4.78121 0
M  V30 2646 C 256.042 0.193746 -5.2084 0
M  V30 2647 C 253.37 -0.274583 -5.86057 0
M  V30 2648 C 255.722 -0.611517 -6.29637 0
M  V30 2649 C 254.386 -0.850867 -6.62055 0
M  V30 2650 H 253.656 0.30092 -0.677147 0
M  V30 2651 H 256.303 0.0845802 -1.91313 0
M  V30 2652 H 254.608 2.41203 -3.08753 0
M  V30 2653 H 256.305 2.1544 -3.38211 0
M  V30 2654 H 252.895 0.96117 -4.17683 0
M  V30 2655 H 257.079 0.357926 -4.95008 0
M  V30 2656 H 252.335 -0.469206 -6.09597 0
M  V30 2657 H 256.509 -1.06697 -6.88178 0
M  V30 2658 H 254.136 -1.48657 -7.45523 0
M  V30 2659 N 255.711 1.52812 0.385517 0
M  V30 2660 C 256.674 1.77188 1.45386 0
M  V30 2661 C 257.674 0.641953 1.4743 0
M  V30 2662 O 258.864 0.910033 1.4854 0
M  V30 2663 C 255.996 1.87582 2.8465 0
M  V30 2664 H 257.189 2.72583 1.25054 0
M  V30 2665 H 254.742 1.43586 0.617467 0
M  V30 2666 H 255.477 0.941849 3.10322 0
M  V30 2667 H 255.262 2.69748 2.84567 0
M  V30 2668 H 256.752 2.08102 3.62054 0
M  V30 2669 N 257.189 -0.644168 1.43834 0
M  V30 2670 C 258.152 -1.73857 1.49353 0
M  V30 2671 C 259.152 -1.56315 0.377112 0
M  V30 2672 O 260.342 -1.62048 0.639226 0
M  V30 2673 C 257.474 -3.12819 1.35488 0
M  V30 2674 H 258.667 -1.70342 2.46827 0
M  V30 2675 H 256.22 -0.856652 1.30733 0
M  V30 2676 H 256.955 -3.2194 0.390569 0
M  V30 2677 H 256.74 -3.26958 2.16428 0
M  V30 2678 H 258.23 -3.92606 1.42302 0
M  V30 2679 N 258.668 -1.30515 -0.883378 0
M  V30 2680 C 259.598 -1.19607 -2.00541 0
M  V30 2681 C 260.579 -0.086346 -1.69881 0
M  V30 2682 O 261.764 -0.268654 -1.92333 0
M  V30 2683 C 258.894 -0.888758 -3.35736 0
M  V30 2684 C 257.848 -1.95659 -3.8066 0
M  V30 2685 C 257.174 -1.50224 -5.13164 0
M  V30 2686 C 258.474 -3.36788 -3.99213 0
M  V30 2687 H 260.168 -2.13476 -2.09925 0
M  V30 2688 H 257.714 -1.02775 -1.00863 0
M  V30 2689 H 259.667 -0.799094 -4.13754 0
M  V30 2690 H 258.391 0.0856125 -3.26488 0
M  V30 2691 H 257.05 -2.03591 -3.04871 0
M  V30 2692 H 256.698 -0.516092 -5.00345 0
M  V30 2693 H 256.398 -2.2165 -5.44192 0
M  V30 2694 H 257.922 -1.42639 -5.93706 0
M  V30 2695 H 259.336 -3.31605 -4.67665 0
M  V30 2696 H 257.733 -4.06314 -4.41621 0
M  V30 2697 H 258.803 -3.78561 -3.03017 0
M  V30 2698 N 260.146 1.09593 -1.13257 0
M  V30 2699 C 261.109 2.14359 -0.811358 0
M  V30 2700 C 262.109 1.59808 0.178377 0
M  V30 2701 O 263.299 1.74132 -0.0484911 0
M  V30 2702 C 260.431 3.40269 -0.207276 0
M  V30 2703 H 261.624 2.44284 -1.73969 0
M  V30 2704 H 259.177 1.25102 -0.936973 0
M  V30 2705 H 259.912 3.15969 0.73036 0
M  V30 2706 H 259.697 3.81154 -0.919992 0
M  V30 2707 H 261.187 4.176 0.000667944 0
M  V30 2708 N 261.624 0.925811 1.2754 0
M  V30 2709 C 262.557 0.367836 2.25216 0
M  V30 2710 C 263.535 -0.534738 1.53556 0
M  V30 2711 O 264.719 -0.475672 1.824 0
M  V30 2712 C 261.846 -0.47298 3.35381 0
M  V30 2713 C 260.892 0.365898 4.24928 0
M  V30 2714 S 261.725 1.78025 5.05042 0
M  V30 2715 C 262.881 0.947068 6.18693 0
M  V30 2716 H 263.114 1.19568 2.72196 0
M  V30 2717 H 260.647 0.727867 1.36167 0
M  V30 2718 H 262.605 -0.952242 3.99303 0
M  V30 2719 H 261.266 -1.27533 2.87044 0
M  V30 2720 H 260.459 -0.277582 5.03235 0
M  V30 2721 H 260.061 0.779261 3.65792 0
M  V30 2722 H 262.353 0.182201 6.77255 0
M  V30 2723 H 263.296 1.70309 6.87314 0
M  V30 2724 H 263.704 0.489913 5.6237 0
M  V30 2725 N 263.102 -1.41638 0.69111 0
M  V30 2726 C 264.032 -2.3347 0.037248 0
M  V30 2727 C 265.013 -1.51575 -0.771947 0
M  V30 2728 O 266.198 -1.80126 -0.72582 0
M  V30 2729 C 263.328 -3.35354 -0.903064 0
M  V30 2730 C 262.282 -4.27526 -0.201288 0
M  V30 2731 C 261.608 -5.19747 -1.25565 0
M  V30 2732 C 262.908 -5.13959 0.929689 0
M  V30 2733 H 264.602 -2.88397 0.804227 0
M  V30 2734 H 262.148 -1.38669 0.388189 0
M  V30 2735 H 264.101 -3.98519 -1.36969 0
M  V30 2736 H 262.825 -2.78767 -1.70166 0
M  V30 2737 H 261.484 -3.65779 0.245265 0
M  V30 2738 H 261.132 -4.59479 -2.04666 0
M  V30 2739 H 260.832 -5.8225 -0.791128 0
M  V30 2740 H 262.356 -5.85789 -1.72288 0
M  V30 2741 H 263.77 -5.70718 0.543546 0
M  V30 2742 H 262.167 -5.85379 1.32103 0
M  V30 2743 H 263.237 -4.51389 1.77133 0
M  V30 2744 N 264.58 -0.43555 -1.51462 0
M  V30 2745 C 265.51 0.367376 -2.30592 0
M  V30 2746 C 266.491 1.02263 -1.35928 0
M  V30 2747 O 267.676 1.02661 -1.64847 0
M  V30 2748 C 264.806 1.46983 -3.14664 0
M  V30 2749 C 263.76 0.938161 -4.17591 0
M  V30 2750 C 263.086 2.13622 -4.90173 0
M  V30 2751 C 264.386 -0.0261621 -5.22293 0
M  V30 2752 H 266.08 -0.292969 -2.97963 0
M  V30 2753 H 263.626 -0.14234 -1.43295 0
M  V30 2754 H 265.579 2.03873 -3.688 0
M  V30 2755 H 264.303 2.15843 -2.4511 0
M  V30 2756 H 262.962 0.391481 -3.64504 0
M  V30 2757 H 262.61 2.81098 -4.17124 0
M  V30 2758 H 262.31 1.78688 -5.59772 0
M  V30 2759 H 263.834 2.7107 -5.47132 0
M  V30 2760 H 265.248 0.452384 -5.71512 0
M  V30 2761 H 263.645 -0.287992 -5.99409 0
M  V30 2762 H 264.715 -0.963391 -4.75233 0
M  V30 2763 N 266.058 1.56714 -0.166846 0
M  V30 2764 C 267.283 2.01557 0.488833 0
M  V30 2765 C 267.708 1.0463 1.56314 0
M  V30 2766 O 267.066 0.0251304 1.81283 0
M  V30 2767 C 267.114 3.4503 1.04818 0
M  V30 2768 O 266.218 3.51163 2.16236 0
M  V30 2769 H 265.559 0.653516 0.117526 0
M  V30 2770 H 268.089 2.02818 -0.269421 0
M  V30 2771 H 268.099 3.84243 1.37191 0
M  V30 2772 H 266.774 4.15077 0.261572 0
M  V30 2773 H 265.351 3.23807 1.84942 0
M  V30 2774 N 267.536 -0.106894 1.57237 0
M  V30 2775 C 268.469 -1.16125 1.96444 0
M  V30 2776 C 269.447 -1.3947 0.835871 0
M  V30 2777 O 270.631 -1.53425 1.09513 0
M  V30 2778 C 267.758 -2.51277 2.27107 0
M  V30 2779 C 266.804 -2.44285 3.4961 0
M  V30 2780 S 267.637 -1.87077 5.01759 0
M  V30 2781 C 268.793 -3.23877 5.35588 0
M  V30 2782 H 269.026 -0.826971 2.85567 0
M  V30 2783 H 266.559 -0.314124 1.51171 0
M  V30 2784 H 268.517 -3.29035 2.45451 0
M  V30 2785 H 267.178 -2.81879 1.38576 0
M  V30 2786 H 266.371 -3.4387 3.68469 0
M  V30 2787 H 265.973 -1.74652 3.30715 0
M  V30 2788 H 268.265 -4.20122 5.31511 0
M  V30 2789 H 269.208 -3.09833 6.36717 0
M  V30 2790 H 269.616 -3.22864 4.63054 0
M  V30 2791 N 269.014 -1.53014 -0.377408 0
M  V30 2792 C 269.977 -1.77957 -1.44444 0
M  V30 2793 C 270.977 -0.649763 -1.47087 0
M  V30 2794 O 272.167 -0.917897 -1.48055 0
M  V30 2795 C 269.299 -1.89089 -2.83651 0
M  V30 2796 H 270.492 -2.73243 -1.23606 0
M  V30 2797 H 268.045 -1.43912 -0.609844 0
M  V30 2798 H 268.78 -0.958293 -3.09818 0
M  V30 2799 H 268.565 -2.71254 -2.83132 0
M  V30 2800 H 270.055 -2.1002 -3.60945 0
M  V30 2801 N 270.492 0.636531 -1.44174 0
M  V30 2802 C 271.717 1.42847 -1.50364 0
M  V30 2803 C 272.142 1.87665 -0.127867 0
M  V30 2804 O 271.5 1.58408 0.88185 0
M  V30 2805 C 271.548 2.62854 -2.4686 0
M  V30 2806 O 270.652 3.62501 -1.9664 0
M  V30 2807 H 269.993 0.427642 -0.507955 0
M  V30 2808 H 272.523 0.777422 -1.89255 0
M  V30 2809 H 272.533 3.10465 -2.64718 0
M  V30 2810 H 271.208 2.29578 -3.46795 0
M  V30 2811 H 269.785 3.21735 -1.88523 0
M  V30 2812 N 271.97 1.30982 0.876444 0
M  V30 2813 C 273.218 1.20058 1.62575 0
M  V30 2814 C 273.539 -0.242947 1.93481 0
M  V30 2815 O 272.809 -1.1619 1.57724 0
M  V30 2816 H 271.389 0.44135 0.602677 0
M  V30 2817 H 274.051 1.64222 1.04962 0
M  V30 2818 H 273.147 1.76762 2.57219 0
M  V30 2819 N 273.449 -1.08991 1.13837 0
M  V30 2820 C 274.695 -1.81526 0.90422 0
M  V30 2821 C 275.028 -1.85706 -0.568066 0
M  V30 2822 O 274.303 -1.32855 -1.42056 0
M  V30 2823 C 274.586 -3.27447 1.49835 0
M  V30 2824 C 274.439 -3.31512 3.04006 0
M  V30 2825 C 275.758 -4.24256 1.17025 0
M  V30 2826 H 272.877 -0.659029 0.329923 0
M  V30 2827 H 275.519 -1.27644 1.40737 0
M  V30 2828 H 273.669 -3.73462 1.07044 0
M  V30 2829 H 275.341 -2.93867 3.55584 0
M  V30 2830 H 273.584 -2.70963 3.38765 0
M  V30 2831 H 274.255 -4.34329 3.40679 0
M  V30 2832 H 276.731 -3.86549 1.54009 0
M  V30 2833 H 275.607 -5.24684 1.61237 0
M  V30 2834 H 275.868 -4.42019 0.0846274 0
M  V30 2835 N 274.927 -0.932562 -1.27047 0
M  V30 2836 C 276.204 -0.49377 -1.89265 0
M  V30 2837 C 276.584 1.02833 -1.8436 0
M  V30 2838 O 275.932 1.88461 -1.29209 0
M  V30 2839 C 276.142 -1.04536 -3.32976 0
M  V30 2840 C 277.49 -1.10879 -4.09867 0
M  V30 2841 O 278.514 -0.995327 -3.42011 0
M  V30 2842 O 277.373 -1.28417 -5.31198 0
M  V30 2843 H 274.467 -0.159596 -0.811454 0
M  V30 2844 H 277.013 -1.02457 -1.3528 0
M  V30 2845 H 275.785 -2.08913 -3.30864 0
M  V30 2846 H 275.408 -0.496494 -3.94488 0
M  V30 2847 N 276.405 1.4127 -0.698611 0
M  V30 2848 C 277.368 2.29158 -0.044132 0
M  V30 2849 C 278.368 1.44529 0.704841 0
M  V30 2850 O 279.558 1.65643 0.539276 0
M  V30 2851 C 276.69 3.27459 0.947809 0
M  V30 2852 H 277.883 2.88529 -0.817994 0
M  V30 2853 H 275.436 1.49307 -0.46228 0
M  V30 2854 H 276.171 2.73073 1.74933 0
M  V30 2855 H 275.956 3.8991 0.41385 0
M  V30 2856 H 277.446 3.93311 1.40344 0
M  V30 2857 N 277.883 0.443576 1.51229 0
M  V30 2858 C 278.793 -0.370721 2.31652 0
M  V30 2859 C 279.809 -1.02186 1.40833 0
M  V30 2860 O 280.985 -1.01586 1.73903 0
M  V30 2861 C 278.05 -1.45376 3.14749 0
M  V30 2862 C 277.111 -0.822099 4.21355 0
M  V30 2863 C 276.344 -1.85353 5.0048 0
M  V30 2864 O 276.567 -3.07656 4.80316 0
M  V30 2865 O 275.501 -1.4406 5.84406 0
M  V30 2866 H 279.327 0.286002 3.0235 0
M  V30 2867 H 276.912 0.20598 1.47973 0
M  V30 2868 H 278.794 -2.08173 3.66391 0
M  V30 2869 H 277.469 -2.09445 2.46809 0
M  V30 2870 H 276.376 -0.155909 3.73775 0
M  V30 2871 H 277.709 -0.224797 4.91686 0
M  V30 2872 N 279.361 -1.56624 0.175154 0
M  V30 2873 C 280.589 -2.01374 -0.474971 0
M  V30 2874 C 281.004 -1.05537 -1.56548 0
M  V30 2875 O 280.361 -0.0568668 -1.82411 0
M  V30 2876 C 280.412 -3.45923 -1.04975 0
M  V30 2877 O 280.133 -4.381 -0.00276605 0
M  V30 2878 C 281.634 -4.06093 -1.77773 0
M  V30 2879 H 278.854 -0.659962 -0.121206 0
M  V30 2880 H 281.398 -2.02601 0.27801 0
M  V30 2881 H 279.553 -3.45458 -1.75321 0
M  V30 2882 H 279.967 -5.22753 -0.427681 0
M  V30 2883 H 281.441 -5.09147 -2.13245 0
M  V30 2884 H 281.918 -3.48405 -2.67414 0
M  V30 2885 H 282.524 -4.10272 -1.12059 0
M  V30 2886 N 280.839 0.0985539 -1.57292 0
M  V30 2887 C 282.064 0.820196 -1.90493 0
M  V30 2888 C 282.489 1.71658 -0.769094 0
M  V30 2889 O 281.847 1.79133 0.279495 0
M  V30 2890 C 281.895 1.61242 -3.22542 0
M  V30 2891 O 280.999 2.72108 -3.09888 0
M  V30 2892 H 280.34 0.225547 -0.62452 0
M  V30 2893 H 282.87 0.0748159 -2.04463 0
M  V30 2894 H 282.88 1.99737 -3.55766 0
M  V30 2895 H 281.555 0.954535 -4.04798 0
M  V30 2896 H 280.132 2.36667 -2.88172 0
M  V30 2897 N 282.317 1.53212 0.369288 0
M  V30 2898 C 283.28 1.7872 1.43498 0
M  V30 2899 C 284.28 0.657554 1.46741 0
M  V30 2900 O 285.47 0.925736 1.47566 0
M  V30 2901 C 282.602 1.90591 2.82645 0
M  V30 2902 H 283.795 2.73894 1.22156 0
M  V30 2903 H 281.348 1.44233 0.602203 0
M  V30 2904 H 282.083 0.974709 3.09306 0
M  V30 2905 H 281.868 2.72751 2.8169 0
M  V30 2906 H 283.358 2.11931 3.59826 0
M  V30 2907 N 283.795 -0.628877 1.44509 0
M  V30 2908 C 284.725 -1.75187 1.54376 0
M  V30 2909 C 285.706 -1.65411 0.396618 0
M  V30 2910 O 286.891 -1.84137 0.617031 0
M  V30 2911 C 284.021 -3.13725 1.48976 0
M  V30 2912 C 282.975 -3.38291 2.62189 0
M  V30 2913 C 282.301 -4.76883 2.41841 0
M  V30 2914 C 283.601 -3.30632 4.04326 0
M  V30 2915 H 285.295 -1.67187 2.48373 0
M  V30 2916 H 282.841 -0.802909 1.19538 0
M  V30 2917 H 284.794 -3.92064 1.54478 0
M  V30 2918 H 283.518 -3.22515 0.514961 0
M  V30 2919 H 282.177 -2.62334 2.56079 0
M  V30 2920 H 281.825 -4.82378 1.42548 0
M  V30 2921 H 281.525 -4.94278 3.17747 0
M  V30 2922 H 283.049 -5.57449 2.49165 0
M  V30 2923 H 284.463 -3.98873 4.11793 0
M  V30 2924 H 282.86 -3.59561 4.80454 0
M  V30 2925 H 283.93 -2.28404 4.27738 0
M  V30 2926 N 285.273 -1.31445 -0.869486 0
M  V30 2927 C 286.521 -1.20918 -1.61936 0
M  V30 2928 C 286.842 0.232683 -1.93607 0
M  V30 2929 O 286.112 1.15352 -1.58338 0
M  V30 2930 H 284.692 -0.44454 -0.600328 0
M  V30 2931 H 287.354 -1.64776 -1.0409 0
M  V30 2932 H 286.45 -1.78124 -2.56278 0
M  V30 2933 N 286.751 1.08385 -1.14413 0
M  V30 2934 C 287.981 1.8425 -0.934644 0
M  V30 2935 C 288.389 1.81907 0.520234 0
M  V30 2936 O 287.732 1.22126 1.37226 0
M  V30 2937 C 287.794 3.32853 -1.35828 0
M  V30 2938 C 287.458 3.5893 -2.82875 0
M  V30 2939 C 288.455 3.53756 -3.80989 0
M  V30 2940 C 286.14 3.86934 -3.20293 0
M  V30 2941 C 288.134 3.76216 -5.14529 0
M  V30 2942 C 285.821 4.09047 -4.54008 0
M  V30 2943 C 286.819 4.03682 -5.50936 0
M  V30 2944 O 286.507 4.25214 -6.82238 0
M  V30 2945 H 286.239 0.588502 -0.332628 0
M  V30 2946 H 288.793 1.37792 -1.52324 0
M  V30 2947 H 287.023 3.8007 -0.713019 0
M  V30 2948 H 288.712 3.90154 -1.11957 0
M  V30 2949 H 289.478 3.32135 -3.53428 0
M  V30 2950 H 285.357 3.9023 -2.45442 0
M  V30 2951 H 288.901 3.71943 -5.90173 0
M  V30 2952 H 284.798 4.30151 -4.8129 0
M  V30 2953 H 285.566 4.42619 -6.88499 0
M  V30 2954 N 288.23 0.939286 1.26551 0
M  V30 2955 C 289.477 0.585847 1.9384 0
M  V30 2956 C 289.805 -0.874784 1.73718 0
M  V30 2957 O 289.06 -1.64092 1.06642 0
M  V30 2958 C 289.359 0.872106 3.46596 0
M  V30 2959 C 289.025 2.31632 3.86856 0
M  V30 2960 C 287.687 2.71111 3.97558 0
M  V30 2961 C 290.039 3.25494 4.07066 0
M  V30 2962 C 287.367 4.03553 4.25866 0
M  V30 2963 C 289.719 4.57531 4.36862 0
M  V30 2964 C 288.383 4.96828 4.45778 0
M  V30 2965 H 287.653 0.214377 0.709312 0
M  V30 2966 H 290.3 1.18544 1.50398 0
M  V30 2967 H 288.605 0.18996 3.91339 0
M  V30 2968 H 290.302 0.577442 3.96821 0
M  V30 2969 H 286.892 2.00008 3.79071 0
M  V30 2970 H 291.076 2.9619 3.98227 0
M  V30 2971 H 286.332 4.33665 4.30981 0
M  V30 2972 H 290.506 5.30254 4.51446 0
M  V30 2973 H 288.133 5.99482 4.67468 0
M  V30 2974 N 289.708 -1.40897 0.706093 0
M  V30 2975 C 290.957 -2.00284 0.238574 0
M  V30 2976 C 291.27 -1.56604 -1.17194 0
M  V30 2977 O 292.476 -2.08624 -1.73748 0
M  V30 2978 C 290.932 -3.57934 0.375623 0
M  V30 2979 C 290.54 -4.10591 1.79217 0
M  V30 2980 C 292.284 -4.24488 -0.0315857 0
M  V30 2981 C 290.191 -5.60712 1.88032 0
M  V30 2982 H 289.121 -0.749144 0.0854398 0
M  V30 2983 H 291.772 -1.61251 0.875813 0
M  V30 2984 H 290.154 -3.94622 -0.330042 0
M  V30 2985 H 291.328 -3.85301 2.52745 0
M  V30 2986 H 289.643 -3.56601 2.15 0
M  V30 2987 H 292.24 -5.34698 0.0136842 0
M  V30 2988 H 292.583 -4.02261 -1.072 0
M  V30 2989 H 293.116 -3.92873 0.624181 0
M  V30 2990 H 289.855 -5.87781 2.90161 0
M  V30 2991 H 289.375 -5.87896 1.18903 0
M  V30 2992 H 291.054 -6.25658 1.64805 0
M  V30 2993 N 291.186 -0.45159 -1.50991 0
M  V30 2994 C 292.414 0.108334 -2.06616 0
M  V30 2995 C 292.829 1.35224 -1.31757 0
M  V30 2996 O 292.186 1.78475 -0.381174 0
M  V30 2997 C 292.237 0.41619 -3.59096 0
M  V30 2998 O 291.958 -0.778361 -4.3113 0
M  V30 2999 C 293.459 1.02523 -4.31282 0
M  V30 3000 H 290.679 0.00159995 -0.670998 0
M  V30 3001 H 293.223 -0.634771 -1.94399 0
M  V30 3002 H 291.378 1.10921 -3.71181 0
M  V30 3003 H 291.792 -0.511181 -5.22003 0
M  V30 3004 H 293.266 1.19053 -5.39009 0
M  V30 3005 H 293.743 2.01013 -3.905 0
M  V30 3006 H 294.349 0.371173 -4.23677 0
M  V30 3007 N 292.664 1.56529 -0.183458 0
M  V30 3008 C 294.075 1.83739 0.331177 0
M  V30 3009 C 294.426 1.10373 1.62211 0
M  V30 3010 O 293.551 0.36071 2.13373 0
M  V30 3011 C 294.146 3.33306 0.607646 0
M  V30 3012 C 292.705 3.60969 1.06668 0
M  V30 3013 C 291.852 2.77086 0.109029 0
M  V30 3014 H 294.803 1.53379 -0.407484 0
M  V30 3015 H 294.824 3.51444 1.45832 0
M  V30 3016 H 294.336 3.86677 -0.332086 0
M  V30 3017 H 292.437 3.13021 2.0211 0
M  V30 3018 H 292.55 4.69231 0.967447 0
M  V30 3019 H 290.914 2.47319 0.608714 0
M  V30 3020 H 291.697 3.33241 -0.82494 0
M  V30 3021 N 294.142 -0.090211 1.57342 0
M  V30 3022 C 295.382 -0.798365 1.88163 0
M  V30 3023 C 295.746 -1.75662 0.775046 0
M  V30 3024 O 296.947 -2.50849 0.965816 0
M  V30 3025 C 295.218 -1.50376 3.24225 0
M  V30 3026 S 296.777 -2.24952 3.76752 0
M  V30 3027 H 293.595 -0.265883 0.659414 0
M  V30 3028 H 296.197 -0.055264 1.95422 0
M  V30 3029 H 294.901 -0.792286 4.0268 0
M  V30 3030 H 294.432 -2.28666 3.20118 0
M  V30 3031 H 296.447 -3.51173 3.5056 0
M  V30 3032 N 295.62 -1.53406 -0.361157 0
M  V30 3033 C 296.866 -1.70054 -1.10496 0
M  V30 3034 C 297.199 -0.453278 -1.88836 0
M  V30 3035 O 296.474 0.5495 -1.86576 0
M  V30 3036 C 296.757 -2.95317 -2.06058 0
M  V30 3037 C 296.61 -4.3021 -1.31298 0
M  V30 3038 C 297.929 -3.16193 -3.06121 0
M  V30 3039 H 295.048 -0.618799 -0.400321 0
M  V30 3040 H 297.69 -1.86052 -0.385318 0
M  V30 3041 H 295.84 -2.81809 -2.67425 0
M  V30 3042 H 297.512 -4.55538 -0.726807 0
M  V30 3043 H 295.755 -4.29421 -0.614853 0
M  V30 3044 H 296.426 -5.14 -2.01265 0
M  V30 3045 H 298.902 -3.28916 -2.5486 0
M  V30 3046 H 297.778 -4.05266 -3.70204 0
M  V30 3047 H 298.039 -2.31676 -3.76535 0
M  V30 3048 N 297.098 0.621204 -1.44841 0
M  V30 3049 C 298.346 1.37783 -1.47852 0
M  V30 3050 C 298.667 1.94653 -0.116224 0
M  V30 3051 O 297.937 1.76367 0.852737 0
M  V30 3052 H 296.517 0.511453 -0.544449 0
M  V30 3053 H 299.179 0.730446 -1.80694 0
M  V30 3054 H 298.275 2.20414 -2.20961 0
M  V30 3055 N 298.576 1.31904 0.862503 0
M  V30 3056 C 299.825 1.21373 1.61094 0
M  V30 3057 C 300.138 -0.22504 1.94301 0
M  V30 3058 O 301.344 -0.452121 2.67709 0
M  V30 3059 C 299.8 2.12525 2.9045 0
M  V30 3060 C 299.408 3.61441 2.64697 0
M  V30 3061 C 301.152 2.10813 3.68454 0
M  V30 3062 C 299.059 4.44578 3.90006 0
M  V30 3063 H 297.989 0.450705 0.604468 0
M  V30 3064 H 300.64 1.56811 0.953027 0
M  V30 3065 H 299.022 1.69994 3.57656 0
M  V30 3066 H 300.196 4.12264 2.05851 0
M  V30 3067 H 298.511 3.65205 2.00036 0
M  V30 3068 H 301.108 2.70167 4.61426 0
M  V30 3069 H 301.451 1.09713 4.01583 0
M  V30 3070 H 301.984 2.51583 3.08141 0
M  V30 3071 H 298.723 5.46461 3.62023 0
M  V30 3072 H 298.243 3.98508 4.48276 0
M  V30 3073 H 299.922 4.57176 4.5782 0
M  V30 3074 N 300.054 -1.07777 1.14986 0
M  V30 3075 C 300.984 -2.16865 0.865557 0
M  V30 3076 C 301.965 -1.69123 -0.182083 0
M  V30 3077 O 303.15 -1.94164 -0.0373815 0
M  V30 3078 C 300.28 -3.45539 0.349313 0
M  V30 3079 C 299.234 -4.06708 1.33313 0
M  V30 3080 C 298.56 -5.30411 0.675918 0
M  V30 3081 C 299.86 -4.47241 2.69764 0
M  V30 3082 H 301.554 -2.40905 1.77778 0
M  V30 3083 H 299.1 -1.15781 0.856203 0
M  V30 3084 H 301.053 -4.21174 0.137983 0
M  V30 3085 H 299.777 -3.21072 -0.598362 0
M  V30 3086 H 298.436 -3.33112 1.53075 0
M  V30 3087 H 298.084 -5.02232 -0.277767 0
M  V30 3088 H 297.784 -5.72293 1.33244 0
M  V30 3089 H 299.308 -6.08755 0.474262 0
M  V30 3090 H 300.722 -5.14025 2.53873 0
M  V30 3091 H 299.119 -5.00062 3.3175 0
M  V30 3092 H 300.189 -3.58818 3.26156 0
M  V30 3093 N 301.532 -0.945985 -1.26051 0
M  V30 3094 C 302.465 -0.403619 -2.24602 0
M  V30 3095 C 303.443 0.510241 -1.54387 0
M  V30 3096 O 304.627 0.446593 -1.83133 0
M  V30 3097 C 301.754 0.419564 -3.36091 0
M  V30 3098 C 300.8 -0.433454 -4.24292 0
M  V30 3099 S 301.633 -1.86037 -5.02146 0
M  V30 3100 C 302.789 -1.04538 -6.17108 0
M  V30 3101 H 303.022 -1.23883 -2.7026 0
M  V30 3102 H 300.555 -0.749438 -1.34992 0
M  V30 3103 H 302.513 0.888595 -4.00767 0
M  V30 3104 H 301.174 1.22951 -2.89036 0
M  V30 3105 H 300.367 0.197486 -5.03613 0
M  V30 3106 H 299.969 -0.837357 -3.64506 0
M  V30 3107 H 302.261 -0.289923 -6.76879 0
M  V30 3108 H 303.204 -1.81222 -6.84518 0
M  V30 3109 H 303.612 -0.579319 -5.61519 0
M  V30 3110 N 303.011 1.40521 -0.713556 0
M  V30 3111 C 304.236 2.05759 -0.26035 0
M  V30 3112 C 304.661 1.53403 1.08854 0
M  V30 3113 O 304.019 0.668535 1.68524 0
M  V30 3114 C 304.067 3.59745 -0.248122 0
M  V30 3115 O 303.171 4.05123 0.77131 0
M  V30 3116 H 302.512 0.652564 -0.122703 0
M  V30 3117 H 305.042 1.79958 -0.973467 0
M  V30 3118 H 305.052 4.07911 -0.0851129 0
M  V30 3119 H 303.727 3.97218 -1.2325 0
M  V30 3120 H 302.304 3.68422 0.57619 0
M  V30 3121 N 304.489 0.459591 1.5075 0
M  V30 3122 C 305.738 -0.100971 2.01447 0
M  V30 3123 C 306.051 -1.41816 1.34713 0
M  V30 3124 O 307.257 -2.06299 1.76502 0
M  V30 3125 C 305.713 -0.23047 3.59161 0
M  V30 3126 C 305.321 1.0776 4.34847 0
M  V30 3127 C 307.065 -0.743608 4.17936 0
M  V30 3128 C 304.972 0.91253 5.84317 0
M  V30 3129 H 303.902 -0.0415102 0.752856 0
M  V30 3130 H 306.553 0.592742 1.73663 0
M  V30 3131 H 304.935 -0.987703 3.83485 0
M  V30 3132 H 306.109 1.8449 4.22256 0
M  V30 3133 H 304.424 1.52097 3.87628 0
M  V30 3134 H 307.021 -0.883959 5.27343 0
M  V30 3135 H 307.364 -1.73196 3.78562 0
M  V30 3136 H 307.897 -0.04408 3.97776 0
M  V30 3137 H 304.636 1.87391 6.28144 0
M  V30 3138 H 304.156 0.185422 5.99513 0
M  V30 3139 H 305.835 0.574547 6.44444 0
M  V30 3140 N 305.967 -1.56429 0.191757 0
M  V30 3141 C 307.213 -1.97777 -0.448554 0
M  V30 3142 C 307.546 -1.07847 -1.61501 0
M  V30 3143 O 306.821 -0.129774 -1.94067 0
M  V30 3144 C 307.104 -3.48362 -0.911906 0
M  V30 3145 C 306.957 -4.4907 0.256136 0
M  V30 3146 C 308.276 -4.02561 -1.77857 0
M  V30 3147 H 305.395 -0.719071 -0.161572 0
M  V30 3148 H 308.037 -1.87896 0.282007 0
M  V30 3149 H 306.187 -3.56914 -1.53442 0
M  V30 3150 H 307.859 -4.5256 0.893733 0
M  V30 3151 H 306.102 -4.24181 0.908436 0
M  V30 3152 H 306.773 -5.51889 -0.11053 0
M  V30 3153 H 309.249 -3.96767 -1.25359 0
M  V30 3154 H 308.125 -5.08301 -2.07174 0
M  V30 3155 H 308.386 -3.47616 -2.73158 0
M  V30 3156 N 307.445 0.0818655 -1.57387 0
M  V30 3157 C 308.685 0.788375 -1.88584 0
M  V30 3158 C 309.049 1.75248 -0.784351 0
M  V30 3159 O 310.25 2.50334 -0.979105 0
M  V30 3160 C 308.521 1.48654 -3.25018 0
M  V30 3161 S 310.08 2.22951 -3.7794 0
M  V30 3162 H 306.898 0.262383 -0.660815 0
M  V30 3163 H 309.5 0.0448995 -1.95448 0
M  V30 3164 H 308.204 0.770919 -4.03094 0
M  V30 3165 H 307.735 2.26965 -3.21326 0
M  V30 3166 H 309.75 3.49309 -3.52417 0
M  V30 3167 N 308.923 1.53595 0.353017 0
M  V30 3168 C 310.153 1.74058 1.11299 0
M  V30 3169 C 310.561 0.475205 1.83135 0
M  V30 3170 O 309.904 -0.562344 1.74881 0
M  V30 3171 C 309.966 2.85994 2.17825 0
M  V30 3172 C 309.63 4.25923 1.65647 0
M  V30 3173 C 310.627 5.07829 1.11383 0
M  V30 3174 C 308.312 4.72377 1.7078 0
M  V30 3175 C 310.306 6.34285 0.629439 0
M  V30 3176 C 307.993 5.98808 1.21953 0
M  V30 3177 C 308.991 6.79594 0.681265 0
M  V30 3178 O 308.679 8.03651 0.200248 0
M  V30 3179 H 308.411 0.585327 0.338183 0
M  V30 3180 H 310.965 2.01186 0.413927 0
M  V30 3181 H 309.195 2.54368 2.91262 0
M  V30 3182 H 310.884 2.94515 2.79313 0
M  V30 3183 H 311.65 4.73107 1.06746 0
M  V30 3184 H 307.529 4.0956 2.11617 0
M  V30 3185 H 311.073 6.97288 0.208636 0
M  V30 3186 H 306.97 6.33026 1.26287 0
M  V30 3187 H 307.738 8.1788 0.318416 0
M  V30 3188 N 310.401 -0.613514 1.45168 0
M  V30 3189 C 311.331 -1.7354 1.56225 0
M  V30 3190 C 312.312 -1.64981 0.41414 0
M  V30 3191 O 313.497 -1.83472 0.636526 0
M  V30 3192 C 310.627 -3.12128 1.52295 0
M  V30 3193 C 309.581 -3.35491 2.65762 0
M  V30 3194 C 308.907 -4.74291 2.46885 0
M  V30 3195 C 310.207 -3.26325 4.0781 0
M  V30 3196 H 311.901 -1.64543 2.50132 0
M  V30 3197 H 309.447 -0.790185 1.20383 0
M  V30 3198 H 311.4 -3.90404 1.58628 0
M  V30 3199 H 310.124 -3.2195 0.549139 0
M  V30 3200 H 308.783 -2.59603 2.58847 0
M  V30 3201 H 308.431 -4.80839 1.47657 0
M  V30 3202 H 308.131 -4.9088 3.22972 0
M  V30 3203 H 309.655 -5.54775 2.55063 0
M  V30 3204 H 311.069 -3.94483 4.16 0
M  V30 3205 H 309.466 -3.54445 4.8424 0
M  V30 3206 H 310.536 -2.23855 4.30136 0
M  V30 3207 N 311.879 -1.3236 -0.855495 0
M  V30 3208 C 313.104 -1.2601 -1.64731 0
M  V30 3209 C 313.529 0.169068 -1.87339 0
M  V30 3210 O 312.887 1.12016 -1.42556 0
M  V30 3211 C 312.935 -2.02417 -2.98429 0
M  V30 3212 O 312.039 -1.3714 -3.8893 0
M  V30 3213 H 311.38 -0.434325 -0.502253 0
M  V30 3214 H 313.91 -1.74661 -1.06558 0
M  V30 3215 H 313.92 -2.12559 -3.48257 0
M  V30 3216 H 312.595 -3.06343 -2.81295 0
M  V30 3217 H 311.172 -1.3554 -3.47395 0
M  V30 3218 N 313.357 1.07166 -1.15556 0
M  V30 3219 C 314.287 2.16403 -0.877046 0
M  V30 3220 C 315.268 1.69217 0.173111 0
M  V30 3221 O 316.453 1.94181 0.027084 0
M  V30 3222 C 313.583 3.45349 -0.367632 0
M  V30 3223 C 312.537 4.05995 -1.35468 0
M  V30 3224 C 311.863 5.30045 -0.704038 0
M  V30 3225 C 313.163 4.45804 -2.72132 0
M  V30 3226 H 314.857 2.39959 -1.79053 0
M  V30 3227 H 312.403 1.15325 -0.862331 0
M  V30 3228 H 314.356 4.21095 -0.160317 0
M  V30 3229 H 313.08 3.21385 0.581326 0
M  V30 3230 H 311.739 3.32296 -1.54839 0
M  V30 3231 H 311.387 5.02373 0.251128 0
M  V30 3232 H 311.087 5.71579 -1.36277 0
M  V30 3233 H 312.611 6.08495 -0.50654 0
M  V30 3234 H 314.025 5.12671 -2.56595 0
M  V30 3235 H 312.422 4.98296 -3.34397 0
M  V30 3236 H 313.492 3.57083 -3.28054 0
M  V30 3237 N 314.835 0.952656 1.25548 0
M  V30 3238 C 316.246 0.647392 1.75116 0
M  V30 3239 C 316.597 -0.837274 1.77438 0
M  V30 3240 O 315.722 -1.65525 1.39393 0
M  V30 3241 C 316.317 1.16845 3.18014 0
M  V30 3242 C 314.876 0.913382 3.6515 0
M  V30 3243 C 314.023 1.31265 2.44264 0
M  V30 3244 H 316.974 1.12968 1.11462 0
M  V30 3245 H 316.995 0.527606 3.76824 0
M  V30 3246 H 316.507 2.24902 3.16292 0
M  V30 3247 H 314.608 -0.152316 3.72289 0
M  V30 3248 H 314.721 1.54845 4.53387 0
M  V30 3249 H 313.085 0.731028 2.43984 0
M  V30 3250 H 313.868 2.40239 2.45234 0
M  V30 3251 N 316.313 -1.40141 0.720998 0
M  V30 3252 C 317.263 -2.27949 0.0482544 0
M  V30 3253 C 318.247 -1.43538 -0.727021 0
M  V30 3254 O 319.439 -1.6658 -0.598332 0
M  V30 3255 C 316.568 -3.32126 -0.868729 0
M  V30 3256 C 315.654 -4.24008 -0.0883515 0
M  V30 3257 N 316.045 -4.97154 0.931226 0
M  V30 3258 C 314.343 -4.4485 -0.320105 0
M  V30 3259 C 315.044 -5.64587 1.4006 0
M  V30 3260 N 314.02 -5.38787 0.721752 0
M  V30 3261 H 317.822 -2.81948 0.829609 0
M  V30 3262 H 315.336 -1.52656 0.554067 0
M  V30 3263 H 317.333 -3.93884 -1.36605 0
M  V30 3264 H 315.993 -2.79687 -1.6494 0
M  V30 3265 H 317.004 -5.01 1.31222 0
M  V30 3266 H 313.681 -4.03378 -1.07668 0
M  V30 3267 H 315.071 -6.33175 2.24808 0
M  V30 3268 N 317.792 -0.46758 -1.50504 0
M  V30 3269 C 318.722 0.318381 -2.31319 0
M  V30 3270 C 319.703 0.993564 -1.38066 0
M  V30 3271 O 320.888 0.991411 -1.66987 0
M  V30 3272 C 318.018 1.40275 -3.17711 0
M  V30 3273 C 316.972 0.849373 -4.19487 0
M  V30 3274 C 316.298 2.03177 -4.94594 0
M  V30 3275 C 317.598 -0.136942 -5.2212 0
M  V30 3276 H 319.292 -0.356106 -2.97275 0
M  V30 3277 H 316.838 -0.172703 -1.42961 0
M  V30 3278 H 318.791 1.96004 -3.73042 0
M  V30 3279 H 317.515 2.10596 -2.49634 0
M  V30 3280 H 316.174 0.314076 -3.65252 0
M  V30 3281 H 315.822 2.72187 -4.22993 0
M  V30 3282 H 315.522 1.66774 -5.63436 0
M  V30 3283 H 317.046 2.59403 -5.52759 0
M  V30 3284 H 318.46 0.331056 -5.72343 0
M  V30 3285 H 316.857 -0.41507 -5.98663 0
M  V30 3286 H 317.927 -1.06398 -4.73083 0
M  V30 3287 N 319.27 1.56325 -0.20005 0
M  V30 3288 C 320.217 2.1932 0.718833 0
M  V30 3289 C 321.187 1.14198 1.20615 0
M  V30 3290 O 322.372 1.42469 1.26914 0
M  V30 3291 C 319.512 2.86041 1.93066 0
M  V30 3292 C 318.625 4.05702 1.48425 0
M  V30 3293 C 317.76 4.60266 2.65196 0
M  V30 3294 C 316.799 5.72273 2.17185 0
M  V30 3295 N 315.936 6.21221 3.27152 0
M  V30 3296 H 320.776 2.97486 0.17489 0
M  V30 3297 H 318.313 1.46911 0.0745794 0
M  V30 3298 H 320.271 3.22897 2.64184 0
M  V30 3299 H 318.901 2.1043 2.44783 0
M  V30 3300 H 317.953 3.74475 0.668755 0
M  V30 3301 H 319.265 4.86699 1.09204 0
M  V30 3302 H 318.419 4.99453 3.4443 0
M  V30 3303 H 317.158 3.78386 3.07693 0
M  V30 3304 H 316.163 5.3261 1.36407 0
M  V30 3305 H 317.388 6.55974 1.75713 0
M  V30 3306 H 315.334 5.42263 3.69171 0
M  V30 3307 H 315.251 6.97284 2.92116 0
M  V30 3308 H 316.519 6.65063 4.06585 0
M  V30 3309 N 320.748 -0.0735177 1.57428 0
M  V30 3310 C 321.995 -0.772999 1.87166 0
M  V30 3311 C 322.323 -1.77665 0.791551 0
M  V30 3312 O 321.578 -1.94541 -0.212636 0
M  V30 3313 C 321.877 -1.51799 3.23561 0
M  V30 3314 C 321.543 -0.654484 4.46125 0
M  V30 3315 C 320.205 -0.416511 4.79394 0
M  V30 3316 C 322.557 -0.0555862 5.2117 0
M  V30 3317 C 319.885 0.429869 5.85123 0
M  V30 3318 C 322.237 0.778239 6.27795 0
M  V30 3319 C 320.901 1.0261 6.59566 0
M  V30 3320 H 320.171 -0.282861 0.684888 0
M  V30 3321 H 322.818 -0.0338272 1.9147 0
M  V30 3322 H 321.123 -2.32932 3.1504 0
M  V30 3323 H 322.82 -2.06397 3.43804 0
M  V30 3324 H 319.41 -0.850091 4.20085 0
M  V30 3325 H 323.594 -0.226558 4.95783 0
M  V30 3326 H 318.85 0.630665 6.08139 0
M  V30 3327 H 323.024 1.24906 6.85107 0
M  V30 3328 H 320.651 1.68371 7.4132 0
M  V30 3329 N 322.226 -1.5378 -0.344866 0
M  V30 3330 C 323.189 -1.80981 -1.40637 0
M  V30 3331 C 324.189 -0.680816 -1.45676 0
M  V30 3332 O 325.379 -0.949095 -1.46075 0
M  V30 3333 C 322.511 -1.95063 -2.79577 0
M  V30 3334 H 323.704 -2.75803 -1.17783 0
M  V30 3335 H 321.257 -1.45173 -0.579181 0
M  V30 3336 H 321.992 -1.02379 -3.07716 0
M  V30 3337 H 321.777 -2.77198 -2.77315 0
M  V30 3338 H 323.267 -2.17629 -3.56409 0
M  V30 3339 N 323.704 0.605807 -1.45491 0
M  V30 3340 C 325.12 0.926751 -1.29936 0
M  V30 3341 C 325.32 1.99896 -0.253706 0
M  V30 3342 O 324.376 2.50038 0.351737 0
M  V30 3343 C 325.689 1.36599 -2.67883 0
M  V30 3344 C 327.237 1.4801 -2.75793 0
M  V30 3345 C 327.712 1.95309 -4.14268 0
M  V30 3346 N 329.203 2.0254 -4.16571 0
M  V30 3347 C 329.938 2.40363 -5.20589 0
M  V30 3348 N 329.434 2.77143 -6.34952 0
M  V30 3349 N 331.227 2.40718 -5.07948 0
M  V30 3350 H 323.378 -0.102862 -2.12151 0
M  V30 3351 H 325.641 0.016639 -0.947854 0
M  V30 3352 H 325.347 0.652306 -3.45598 0
M  V30 3353 H 325.221 2.33215 -2.96463 0
M  V30 3354 H 327.608 2.1847 -1.98381 0
M  V30 3355 H 327.689 0.497041 -2.50925 0
M  V30 3356 H 327.333 1.25436 -4.92167 0
M  V30 3357 H 327.263 2.94532 -4.3653 0
M  V30 3358 H 329.754 1.76699 -3.34045 0
M  V30 3359 H 330.067 3.0489 -7.10114 0
M  V30 3360 H 328.412 2.74834 -6.3835 0
M  V30 3361 H 331.603 2.11392 -4.1765 0
M  V30 3362 H 331.776 2.69869 -5.89131 0
M  V30 3363 N 325.182 1.32811 0.848464 0
M  V30 3364 C 326.412 1.26556 1.63301 0
M  V30 3365 C 326.82 -0.1676 1.88456 0
M  V30 3366 O 326.163 -1.11713 1.45828 0
M  V30 3367 C 326.225 1.96202 3.01239 0
M  V30 3368 C 325.889 3.45528 2.99098 0
M  V30 3369 C 326.886 4.40903 2.75501 0
M  V30 3370 C 324.571 3.87558 3.19537 0
M  V30 3371 C 326.565 5.76282 2.72356 0
M  V30 3372 C 324.252 5.23044 3.16019 0
M  V30 3373 C 325.25 6.17217 2.92458 0
M  V30 3374 O 324.938 7.50223 2.88825 0
M  V30 3375 H 324.67 0.43771 0.515156 0
M  V30 3376 H 327.224 1.7559 1.0657 0
M  V30 3377 H 325.454 1.41746 3.59785 0
M  V30 3378 H 327.143 1.83573 3.62016 0
M  V30 3379 H 327.909 4.09756 2.5947 0
M  V30 3380 H 323.788 3.14674 3.369 0
M  V30 3381 H 327.332 6.4976 2.53886 0
M  V30 3382 H 323.229 5.53818 3.31596 0
M  V30 3383 H 323.997 7.59657 3.04735 0
M  V30 3384 N 326.66 -1.06551 1.16123 0
M  V30 3385 C 327.89 -1.8274 0.963838 0
M  V30 3386 C 328.298 -1.82712 -0.491228 0
M  V30 3387 O 327.641 -1.24294 -1.35265 0
M  V30 3388 C 327.703 -3.3065 1.41106 0
M  V30 3389 C 327.367 -3.54384 2.88549 0
M  V30 3390 C 328.364 -3.4765 3.86569 0
M  V30 3391 C 326.049 -3.81789 3.26408 0
M  V30 3392 C 328.043 -3.67982 5.2045 0
M  V30 3393 C 325.73 -4.01772 4.60459 0
M  V30 3394 C 326.728 -3.94866 5.57288 0
M  V30 3395 O 326.416 -4.14306 6.88916 0
M  V30 3396 H 326.148 -0.583136 0.341948 0
M  V30 3397 H 328.702 -1.35351 1.54497 0
M  V30 3398 H 326.932 -3.78887 0.773394 0
M  V30 3399 H 328.621 -3.88324 1.1815 0
M  V30 3400 H 329.387 -3.2647 3.58667 0
M  V30 3401 H 325.266 -3.86276 2.51619 0
M  V30 3402 H 328.81 -3.62507 5.96015 0
M  V30 3403 H 324.707 -4.2244 4.88072 0
M  V30 3404 H 325.475 -4.31609 6.95454 0
M  V30 3405 N 328.138 -0.959301 -1.25041 0
M  V30 3406 C 329.068 -0.501388 -2.28053 0
M  V30 3407 C 330.049 0.454673 -1.63911 0
M  V30 3408 O 331.234 0.352618 -1.90972 0
M  V30 3409 C 328.364 0.217224 -3.4662 0
M  V30 3410 C 327.318 -0.654034 -4.22973 0
M  V30 3411 C 326.644 0.195589 -5.34342 0
M  V30 3412 C 327.944 -1.93447 -4.85155 0
M  V30 3413 H 329.638 -1.36238 -2.66608 0
M  V30 3414 H 327.184 -0.656534 -1.28163 0
M  V30 3415 H 329.137 0.548732 -4.17812 0
M  V30 3416 H 327.861 1.1125 -3.07068 0
M  V30 3417 H 326.52 -0.968693 -3.5357 0
M  V30 3418 H 326.168 1.09076 -4.91031 0
M  V30 3419 H 325.868 -0.384091 -5.86343 0
M  V30 3420 H 327.392 0.521958 -6.08365 0
M  V30 3421 H 328.806 -1.66908 -5.48466 0
M  V30 3422 H 327.203 -2.46018 -5.47353 0
M  V30 3423 H 328.273 -2.63466 -4.07079 0
M  V30 3424 N 329.616 1.39756 -0.72842 0
M  V30 3425 C 330.579 2.29012 -0.0927297 0
M  V30 3426 C 331.579 1.45992 0.674025 0
M  V30 3427 O 332.769 1.66749 0.50402 0
M  V30 3428 C 329.901 3.29396 0.878137 0
M  V30 3429 H 331.094 2.86729 -0.879011 0
M  V30 3430 H 328.647 1.48293 -0.493847 0
M  V30 3431 H 329.382 2.76722 1.69101 0
M  V30 3432 H 329.167 3.907 0.331051 0
M  V30 3433 H 330.657 3.96199 1.3197 0
M  V30 3434 N 331.094 0.475555 1.50254 0
M  V30 3435 C 332.042 -0.330276 2.30243 0
M  V30 3436 C 333.036 -0.986306 1.37726 0
M  V30 3437 O 334.242 -0.9169 1.54897 0
M  V30 3438 H 330.617 -0.125353 0.741479 0
M  V30 3439 H 332.588 0.364702 2.96163 0
M  V30 3440 C 331.337 -1.39704 3.18399 0
M  V30 3441 H 330.66 -0.901621 3.89501 0
M  V30 3442 H 332.1 -1.93336 3.77355 0
M  V30 3443 C 330.559 -2.4014 2.36293 0
M  V30 3444 O 331.089 -3.45504 2.04914 0
M  V30 3445 N 329.295 -2.1197 1.98789 0
M  V30 3446 H 328.842 -1.2631 2.24507 0
M  V30 3447 H 328.8 -2.79403 1.44157 0
M  V30 3448 N 332.573 -1.56217 0.208337 0
M  V30 3449 C 333.52 -2.19699 -0.707192 0
M  V30 3450 C 334.49 -1.14836 -1.20008 0
M  V30 3451 O 335.675 -1.4314 -1.26157 0
M  V30 3452 C 332.815 -2.87061 -1.91546 0
M  V30 3453 C 331.928 -4.06483 -1.46271 0
M  V30 3454 C 331.063 -4.61665 -2.62752 0
M  V30 3455 C 330.102 -5.73417 -2.14147 0
M  V30 3456 N 329.239 -6.22948 -3.23853 0
M  V30 3457 H 334.079 -2.97575 -0.159111 0
M  V30 3458 H 331.616 -1.46948 -0.0667874 0
M  V30 3459 H 333.574 -3.24294 -2.62468 0
M  V30 3460 H 332.204 -2.11725 -2.43664 0
M  V30 3461 H 331.256 -3.74825 -0.648886 0
M  V30 3462 H 332.568 -4.87271 -1.06622 0
M  V30 3463 H 331.722 -5.01272 -3.41776 0
M  V30 3464 H 330.461 -3.80013 -3.05682 0
M  V30 3465 H 329.466 -5.33326 -1.33581 0
M  V30 3466 H 330.691 -6.56897 -1.72232 0
M  V30 3467 H 328.637 -5.44213 -3.6629 0
M  V30 3468 H 328.554 -6.98823 -2.88414 0
M  V30 3469 H 329.822 -6.6721 -4.03052 0
M  V30 3470 N 334.051 0.0651679 -1.57465 0
M  V30 3471 C 335.276 0.779605 -1.9219 0
M  V30 3472 C 335.701 1.69988 -0.805333 0
M  V30 3473 O 335.059 1.79685 0.241435 0
M  V30 3474 C 335.107 1.54364 -3.2589 0
M  V30 3475 O 334.211 2.65474 -3.1559 0
M  V30 3476 H 333.552 0.212249 -0.629163 0
M  V30 3477 H 336.082 0.0314294 -2.04576 0
M  V30 3478 H 336.092 1.92146 -3.59922 0
M  V30 3479 H 334.767 0.868457 -4.06732 0
M  V30 3480 H 333.344 2.30501 -2.93128 0
M  V30 3481 N 335.529 1.53961 0.336706 0
M  V30 3482 C 336.754 1.75797 1.10046 0
M  V30 3483 C 337.179 0.498985 1.81361 0
M  V30 3484 O 336.537 -0.548769 1.72795 0
M  V30 3485 C 336.585 2.94257 2.08436 0
M  V30 3486 O 335.689 2.64883 3.16087 0
M  V30 3487 H 335.03 0.582936 0.317934 0
M  V30 3488 H 337.56 2.00945 0.38501 0
M  V30 3489 H 337.57 3.21237 2.51537 0
M  V30 3490 H 336.245 3.85564 1.55927 0
M  V30 3491 H 334.822 2.48812 2.77753 0
M  V30 3492 N 337.007 -0.598083 1.45811 0
M  V30 3493 C 337.939 -1.72231 1.51225 0
M  V30 3494 C 338.952 -1.57757 0.402059 0
M  V30 3495 O 340.141 -1.65464 0.669624 0
M  V30 3496 C 337.241 -3.10331 1.3619 0
M  V30 3497 C 336.414 -3.50955 2.61054 0
M  V30 3498 C 335.473 -4.68055 2.40439 0
M  V30 3499 O 334.499 -4.74691 3.14097 0
M  V30 3500 N 335.701 -5.61941 1.45612 0
M  V30 3501 H 338.466 -1.68046 2.48154 0
M  V30 3502 H 336.027 -0.783637 1.41671 0
M  V30 3503 H 338.019 -3.86439 1.20195 0
M  V30 3504 H 336.589 -3.0897 0.475015 0
M  V30 3505 H 335.809 -2.64711 2.92099 0
M  V30 3506 H 337.097 -3.74858 3.44034 0
M  V30 3507 H 336.495 -5.59301 0.848431 0
M  V30 3508 H 335.052 -6.37542 1.35585 0
M  V30 3509 N 338.485 -1.33259 -0.841409 0
M  V30 3510 C 339.448 -1.23221 -1.9326 0
M  V30 3511 C 340.448 -0.151895 -1.60081 0
M  V30 3512 O 341.638 -0.403246 -1.69468 0
M  V30 3513 C 338.77 -0.898123 -3.28856 0
M  V30 3514 H 339.963 -2.2021 -2.03587 0
M  V30 3515 H 337.516 -1.17281 -1.03319 0
M  V30 3516 H 338.251 0.0693841 -3.24226 0
M  V30 3517 H 338.036 -1.67934 -3.54317 0
M  V30 3518 H 339.526 -0.852563 -4.08805 0
M  V30 3519 N 339.963 1.05934 -1.16686 0
M  V30 3520 C 340.895 2.13468 -0.834503 0
M  V30 3521 C 341.908 1.62013 0.15984 0
M  V30 3522 O 343.097 1.7838 -0.0654228 0
M  V30 3523 C 340.197 3.3817 -0.222361 0
M  V30 3524 C 339.37 4.18928 -1.25771 0
M  V30 3525 C 338.429 5.21985 -0.664703 0
M  V30 3526 O 337.455 5.53334 -1.33453 0
M  V30 3527 N 338.657 5.77919 0.546834 0
M  V30 3528 H 341.422 2.42578 -1.75999 0
M  V30 3529 H 338.983 1.21967 -1.06469 0
M  V30 3530 H 340.975 4.04266 0.187472 0
M  V30 3531 H 339.545 3.06655 0.606758 0
M  V30 3532 H 338.765 3.48433 -1.84358 0
M  V30 3533 H 340.053 4.69687 -1.95631 0
M  V30 3534 H 339.451 5.54721 1.10912 0
M  V30 3535 H 338.008 6.45573 0.898829 0
M  V30 3536 N 341.441 0.965919 1.2453 0
M  V30 3537 C 342.404 0.499547 2.2369 0
M  V30 3538 C 343.404 -0.40294 1.5567 0
M  V30 3539 O 344.594 -0.19865 1.73064 0
M  V30 3540 C 341.726 -0.276792 3.39774 0
M  V30 3541 H 342.919 1.37613 2.66463 0
M  V30 3542 H 340.472 0.750324 1.37112 0
M  V30 3543 H 341.207 -1.17055 3.02438 0
M  V30 3544 H 340.992 0.370826 3.90343 0
M  V30 3545 H 342.482 -0.592175 4.1338 0
M  V30 3546 N 342.919 -1.39368 0.735821 0
M  V30 3547 C 343.851 -2.2913 0.0567723 0
M  V30 3548 C 344.864 -1.46859 -0.702589 0
M  V30 3549 O 346.053 -1.69925 -0.546616 0
M  V30 3550 C 343.153 -3.25492 -0.943823 0
M  V30 3551 C 342.326 -4.36709 -0.24581 0
M  V30 3552 C 341.385 -5.13376 -1.15463 0
M  V30 3553 O 340.411 -5.65683 -0.631803 0
M  V30 3554 N 341.613 -5.24656 -2.48427 0
M  V30 3555 H 344.378 -2.88047 0.827582 0
M  V30 3556 H 341.939 -1.50957 0.585112 0
M  V30 3557 H 343.931 -3.73657 -1.55443 0
M  V30 3558 H 342.501 -2.676 -1.61583 0
M  V30 3559 H 341.721 -3.9041 0.545286 0
M  V30 3560 H 343.009 -5.08244 0.237891 0
M  V30 3561 H 342.407 -4.83679 -2.93379 0
M  V30 3562 H 340.964 -5.76258 -3.04582 0
M  V30 3563 N 344.397 -0.483516 -1.5 0
M  V30 3564 C 345.307 0.309172 -2.32554 0
M  V30 3565 C 346.323 0.984159 -1.43493 0
M  V30 3566 O 347.499 0.969399 -1.76535 0
M  V30 3567 C 344.564 1.36979 -3.18493 0
M  V30 3568 C 343.625 0.710095 -4.23387 0
M  V30 3569 C 342.858 1.72018 -5.05218 0
M  V30 3570 O 343.081 2.94813 -4.88305 0
M  V30 3571 O 342.015 1.28515 -5.8802 0
M  V30 3572 H 345.841 -0.366064 -3.01486 0
M  V30 3573 H 343.426 -0.24514 -1.47375 0
M  V30 3574 H 345.308 1.98385 -3.71781 0
M  V30 3575 H 343.983 2.02828 -2.52275 0
M  V30 3576 H 342.89 0.0567539 -3.74057 0
M  V30 3577 H 344.223 0.0943557 -4.9211 0
M  V30 3578 N 345.875 1.56104 -0.216619 0
M  V30 3579 C 346.805 2.23063 0.690296 0
M  V30 3580 C 347.786 1.20072 1.20485 0
M  V30 3581 O 348.971 1.48643 1.24976 0
M  V30 3582 C 346.101 2.90672 1.90072 0
M  V30 3583 C 345.055 4.00092 1.5202 0
M  V30 3584 C 344.381 4.54972 2.80899 0
M  V30 3585 C 345.681 5.17398 0.71391 0
M  V30 3586 H 347.375 2.99109 0.132038 0
M  V30 3587 H 344.921 1.43866 0.0620664 0
M  V30 3588 H 346.874 3.36204 2.54057 0
M  V30 3589 H 345.598 2.12066 2.48386 0
M  V30 3590 H 344.257 3.55283 0.903839 0
M  V30 3591 H 343.905 3.73102 3.37348 0
M  V30 3592 H 343.605 5.28817 2.56176 0
M  V30 3593 H 345.129 5.0322 3.45836 0
M  V30 3594 H 346.543 5.59342 1.25735 0
M  V30 3595 H 344.94 5.97444 0.563951 0
M  V30 3596 H 346.01 4.84088 -0.280527 0
M  V30 3597 N 347.353 -0.0568162 1.57498 0
M  V30 3598 C 348.263 -1.08346 2.08083 0
M  V30 3599 C 349.279 -1.41439 1.01346 0
M  V30 3600 O 350.455 -1.51316 1.32912 0
M  V30 3601 C 347.52 -2.37352 2.52715 0
M  V30 3602 C 346.581 -2.11093 3.73816 0
M  V30 3603 C 345.814 -3.33949 4.1631 0
M  V30 3604 O 346.037 -4.43622 3.58547 0
M  V30 3605 O 344.971 -3.21279 5.08983 0
M  V30 3606 H 348.797 -0.683667 2.95905 0
M  V30 3607 H 346.382 -0.271965 1.46904 0
M  V30 3608 H 348.264 -3.13246 2.81877 0
M  V30 3609 H 346.939 -2.76681 1.68016 0
M  V30 3610 H 345.846 -1.32856 3.49714 0
M  V30 3611 H 347.179 -1.76637 4.59413 0
M  V30 3612 N 348.832 -1.54138 -0.328536 0
M  V30 3613 C 350.06 -1.76062 -1.08673 0
M  V30 3614 C 350.475 -0.506852 -1.81869 0
M  V30 3615 O 349.832 0.522223 -1.74869 0
M  V30 3616 C 349.883 -2.95054 -2.08866 0
M  V30 3617 O 349.604 -4.15583 -1.38644 0
M  V30 3618 C 351.105 -3.2915 -2.96943 0
M  V30 3619 H 348.325 -0.587889 -0.323461 0
M  V30 3620 H 350.869 -2.0101 -0.376175 0
M  V30 3621 H 349.024 -2.72394 -2.75464 0
M  V30 3622 H 349.438 -4.82481 -2.05699 0
M  V30 3623 H 350.912 -4.15723 -3.63151 0
M  V30 3624 H 351.389 -2.461 -3.63774 0
M  V30 3625 H 351.995 -3.53871 -2.35914 0
M  V30 3626 N 350.31 0.590341 -1.46126 0
M  V30 3627 C 351.257 1.69994 -1.56111 0
M  V30 3628 C 352.227 1.61065 -0.405867 0
M  V30 3629 O 353.412 1.8039 -0.621613 0
M  V30 3630 C 350.552 3.08326 -1.55013 0
M  V30 3631 C 349.665 3.27936 -2.81215 0
M  V30 3632 C 348.8 4.56473 -2.71673 0
M  V30 3633 C 347.839 4.694 -3.92849 0
M  V30 3634 N 346.976 5.89254 -3.81738 0
M  V30 3635 H 351.816 1.60797 -2.50895 0
M  V30 3636 H 349.353 0.783799 -1.24479 0
M  V30 3637 H 351.311 3.88383 -1.52362 0
M  V30 3638 H 349.941 3.16439 -0.637667 0
M  V30 3639 H 348.993 2.41536 -2.93879 0
M  V30 3640 H 350.305 3.33357 -3.71045 0
M  V30 3641 H 349.459 5.44748 -2.67085 0
M  V30 3642 H 348.198 4.53477 -1.7947 0
M  V30 3643 H 347.203 3.79544 -3.97777 0
M  V30 3644 H 348.428 4.7418 -4.86138 0
M  V30 3645 H 346.374 5.87271 -2.92317 0
M  V30 3646 H 346.291 5.95911 -4.65217 0
M  V30 3647 H 347.559 6.79981 -3.81112 0
M  V30 3648 N 351.788 1.33704 0.83433 0
M  V30 3649 C 352.751 1.24244 1.92603 0
M  V30 3650 C 353.751 0.160383 1.59998 0
M  V30 3651 O 354.941 0.412228 1.69252 0
M  V30 3652 C 352.073 0.91555 3.28376 0
M  V30 3653 H 353.266 2.21287 2.02416 0
M  V30 3654 H 350.819 1.17827 1.02696 0
M  V30 3655 H 351.554 -0.0521886 3.24258 0
M  V30 3656 H 351.339 1.69811 3.53422 0
M  V30 3657 H 352.829 0.874231 4.08347 0
M  V30 3658 N 353.266 -1.05314 1.17247 0
M  V30 3659 C 354.176 -2.16538 0.90268 0
M  V30 3660 C 355.192 -1.73523 -0.128707 0
M  V30 3661 O 356.368 -2.01337 0.0502701 0
M  V30 3662 C 353.433 -3.44167 0.418356 0
M  V30 3663 C 352.494 -4.01635 1.51618 0
M  V30 3664 C 351.727 -5.23171 1.05487 0
M  V30 3665 O 351.95 -5.70327 -0.0914715 0
M  V30 3666 O 350.884 -5.72848 1.8474 0
M  V30 3667 H 354.71 -2.42145 1.83302 0
M  V30 3668 H 352.295 -1.15037 0.953246 0
M  V30 3669 H 354.177 -4.21112 0.155726 0
M  V30 3670 H 352.852 -3.20063 -0.48385 0
M  V30 3671 H 351.759 -3.26135 1.83268 0
M  V30 3672 H 353.092 -4.30053 2.39405 0
M  V30 3673 N 354.744 -0.972509 -1.24016 0
M  V30 3674 C 355.674 -0.525548 -2.27509 0
M  V30 3675 C 356.655 0.437262 -1.64384 0
M  V30 3676 O 357.84 0.332343 -1.91335 0
M  V30 3677 C 354.97 0.180448 -3.46831 0
M  V30 3678 C 353.924 -0.698859 -4.22256 0
M  V30 3679 C 353.25 0.138903 -5.3452 0
M  V30 3680 C 354.55 -1.98582 -4.83076 0
M  V30 3681 H 356.244 -1.39058 -2.65148 0
M  V30 3682 H 353.79 -0.67009 -1.27459 0
M  V30 3683 H 355.743 0.504387 -4.18371 0
M  V30 3684 H 354.467 1.07987 -3.08231 0
M  V30 3685 H 353.126 -1.00614 -3.52523 0
M  V30 3686 H 352.774 1.03862 -4.9216 0
M  V30 3687 H 352.474 -0.446259 -5.85903 0
M  V30 3688 H 353.998 0.457404 -6.08884 0
M  V30 3689 H 355.412 -1.72715 -5.46665 0
M  V30 3690 H 353.809 -2.5181 -5.44713 0
M  V30 3691 H 354.879 -2.67769 -4.04262 0
M  V30 3692 N 356.222 1.38976 -0.743202 0
M  V30 3693 C 357.152 2.33171 -0.123873 0
M  V30 3694 C 358.133 1.54336 0.71516 0
M  V30 3695 O 359.318 1.82696 0.658467 0
M  V30 3696 C 356.448 3.38474 0.777978 0
M  V30 3697 C 355.402 4.27979 0.0424758 0
M  V30 3698 C 354.728 5.2405 1.06189 0
M  V30 3699 C 356.028 5.10155 -1.1198 0
M  V30 3700 H 357.722 2.85213 -0.910709 0
M  V30 3701 H 355.268 1.37133 -0.439388 0
M  V30 3702 H 357.221 4.03328 1.22084 0
M  V30 3703 H 355.945 2.84891 1.59702 0
M  V30 3704 H 354.604 3.64616 -0.380853 0
M  V30 3705 H 354.252 4.66758 1.87472 0
M  V30 3706 H 353.952 5.84785 0.574485 0
M  V30 3707 H 355.476 5.9178 1.50428 0
M  V30 3708 H 356.89 5.68307 -0.75499 0
M  V30 3709 H 355.287 5.80073 -1.53738 0
M  V30 3710 H 356.357 4.44504 -1.93764 0
M  V30 3711 N 357.7 0.491464 1.49741 0
M  V30 3712 C 358.632 -0.328609 2.26832 0
M  V30 3713 C 359.645 -0.939113 1.32983 0
M  V30 3714 O 360.834 -0.824067 1.58339 0
M  V30 3715 C 357.934 -1.47675 3.05033 0
M  V30 3716 C 357.107 -0.975305 4.26388 0
M  V30 3717 C 356.166 -1.99991 4.86714 0
M  V30 3718 O 355.192 -1.57229 5.47054 0
M  V30 3719 N 356.394 -3.32962 4.75517 0
M  V30 3720 H 359.159 0.332377 2.97851 0
M  V30 3721 H 356.72 0.323441 1.58636 0
M  V30 3722 H 358.712 -2.15954 3.42266 0
M  V30 3723 H 357.282 -2.04206 2.36683 0
M  V30 3724 H 356.502 -0.117723 3.94024 0
M  V30 3725 H 357.79 -0.618531 5.05026 0
M  V30 3726 H 357.188 -3.70399 4.27576 0
M  V30 3727 H 355.745 -3.96982 5.16961 0
M  V30 3728 N 359.178 -1.55987 0.224894 0
M  V30 3729 C 360.403 -2.03232 -0.41369 0
M  V30 3730 C 360.828 -1.10359 -1.52323 0
M  V30 3731 O 360.186 -0.092395 -1.81064 0
M  V30 3732 C 360.234 -3.48682 -0.919405 0
M  V30 3733 O 359.338 -3.58947 -2.03054 0
M  V30 3734 H 358.679 -0.657428 -0.0931903 0
M  V30 3735 H 361.209 -2.01679 0.34451 0
M  V30 3736 H 361.219 -3.8907 -1.22835 0
M  V30 3737 H 359.894 -4.15761 -0.107339 0
M  V30 3738 H 358.471 -3.30448 -1.72796 0
M  V30 3739 N 360.656 0.0484629 -1.57525 0
M  V30 3740 C 361.933 0.777447 -1.79486 0
M  V30 3741 C 362.313 1.94597 -0.818251 0
M  V30 3742 O 361.661 2.28047 0.143767 0
M  V30 3743 C 361.871 1.22864 -3.26658 0
M  V30 3744 C 363.219 1.65251 -3.91123 0
M  V30 3745 O 364.243 1.32372 -3.3069 0
M  V30 3746 O 363.102 2.26207 -4.97486 0
M  V30 3747 H 360.196 0.374357 -0.737419 0
M  V30 3748 H 362.742 0.0267359 -1.69679 0
M  V30 3749 H 361.514 0.393589 -3.89316 0
M  V30 3750 H 361.137 2.03996 -3.41279 0
M  V30 3751 N 362.134 1.5431 0.320358 0
M  V30 3752 C 363.044 1.86946 1.41734 0
M  V30 3753 C 364.06 0.761689 1.56443 0
M  V30 3754 O 365.236 1.05629 1.71477 0
M  V30 3755 C 362.301 2.09293 2.76401 0
M  V30 3756 C 361.362 3.33082 2.70841 0
M  V30 3757 C 360.595 3.54353 3.99086 0
M  V30 3758 O 360.818 2.79002 4.97508 0
M  V30 3759 O 359.752 4.47838 4.0215 0
M  V30 3760 H 363.578 2.80232 1.17062 0
M  V30 3761 H 361.163 1.40255 0.514673 0
M  V30 3762 H 363.045 2.25303 3.56113 0
M  V30 3763 H 361.72 1.19194 3.00956 0
M  V30 3764 H 360.627 3.22454 1.89668 0
M  V30 3765 H 361.96 4.23249 2.5124 0
M  V30 3766 N 363.613 -0.582584 1.46437 0
M  V30 3767 C 364.561 -1.71272 1.5738 0
M  V30 3768 C 365.555 -1.63524 0.44229 0
M  V30 3769 O 366.761 -1.69016 0.619166 0
M  V30 3770 H 363.136 -0.566273 0.494813 0
M  V30 3771 H 365.107 -1.59174 2.52401 0
M  V30 3772 C 363.856 -3.09658 1.58136 0
M  V30 3773 H 363.179 -3.16291 2.44541 0
M  V30 3774 H 364.619 -3.88494 1.69847 0
M  V30 3775 C 363.078 -3.3547 0.310026 0
M  V30 3776 O 363.608 -3.97199 -0.599683 0
M  V30 3777 N 361.814 -2.89925 0.197901 0
M  V30 3778 H 361.361 -2.39873 0.93909 0
M  V30 3779 H 361.319 -3.07568 -0.65185 0
M  V30 3780 N 365.091 -1.34144 -0.827227 0
M  V30 3781 C 366.339 -1.26009 -1.58007 0
M  V30 3782 C 366.66 0.170971 -1.94249 0
M  V30 3783 O 365.93 1.10256 -1.61927 0
M  V30 3784 H 364.51 -0.463414 -0.585881 0
M  V30 3785 H 367.172 -1.68005 -0.987951 0
M  V30 3786 H 366.268 -1.86187 -2.50481 0
M  V30 3787 N 366.569 1.04691 -1.17803 0
M  V30 3788 C 367.818 1.77176 -0.963931 0
M  V30 3789 C 368.131 1.88888 0.508015 0
M  V30 3790 O 369.337 2.58164 0.840465 0
M  V30 3791 C 367.793 3.18518 -1.67555 0
M  V30 3792 C 367.401 3.14919 -3.18637 0
M  V30 3793 C 369.145 3.95424 -1.54402 0
M  V30 3794 C 367.052 4.51081 -3.82466 0
M  V30 3795 H 365.982 0.664116 -0.357023 0
M  V30 3796 H 368.633 1.17303 -1.4111 0
M  V30 3797 H 367.015 3.78748 -1.15613 0
M  V30 3798 H 368.189 2.64178 -3.77554 0
M  V30 3799 H 366.504 2.51512 -3.31859 0
M  V30 3800 H 369.101 4.96106 -1.99456 0
M  V30 3801 H 369.444 4.13343 -0.495329 0
M  V30 3802 H 369.977 3.41754 -2.0359 0
M  V30 3803 H 366.716 4.38368 -4.87354 0
M  V30 3804 H 366.236 5.01951 -3.28337 0
M  V30 3805 H 367.915 5.2001 -3.84965 0
M  V30 3806 N 368.047 0.979072 1.23499 0
M  V30 3807 C 369.458 0.684391 1.73704 0
M  V30 3808 C 369.809 -0.799448 1.79174 0
M  V30 3809 O 368.934 -1.62531 1.42873 0
M  V30 3810 C 369.529 1.23564 3.15464 0
M  V30 3811 C 368.088 0.99063 3.6313 0
M  V30 3812 C 367.235 1.36416 2.41425 0
M  V30 3813 H 370.186 1.15307 1.09041 0
M  V30 3814 H 370.207 0.607417 3.7562 0
M  V30 3815 H 369.719 2.31561 3.1145 0
M  V30 3816 H 367.82 -0.0733136 3.72528 0
M  V30 3817 H 367.933 1.64427 4.5 0
M  V30 3818 H 366.297 0.782616 2.42378 0
M  V30 3819 H 367.08 2.45387 2.40083 0
M  V30 3820 N 369.525 -1.3858 0.750561 0
M  V30 3821 C 370.75 -2.04997 0.314812 0
M  V30 3822 C 371.175 -1.56235 -1.04749 0
M  V30 3823 O 370.533 -0.712981 -1.66692 0
M  V30 3824 C 370.581 -3.58961 0.343415 0
M  V30 3825 O 369.685 -4.07025 -0.663628 0
M  V30 3826 H 369.026 -0.649081 0.139962 0
M  V30 3827 H 371.556 -1.77313 1.02084 0
M  V30 3828 H 371.566 -4.07542 0.193233 0
M  V30 3829 H 370.241 -3.93811 1.33738 0
M  V30 3830 H 368.818 -3.6982 -0.478307 0
M  V30 3831 N 371.003 -0.499398 -1.49478 0
M  V30 3832 C 372.228 0.044722 -2.07352 0
M  V30 3833 C 372.653 1.30207 -1.35749 0
M  V30 3834 O 372.011 1.76516 -0.413732 0
M  V30 3835 C 372.059 0.283013 -3.59488 0
M  V30 3836 O 371.163 1.35804 -3.89398 0
M  V30 3837 H 370.504 -0.0255147 -0.66351 0
M  V30 3838 H 373.034 -0.698561 -1.92305 0
M  V30 3839 H 373.044 0.515007 -4.04737 0
M  V30 3840 H 371.719 -0.635636 -4.11014 0
M  V30 3841 H 370.296 1.11113 -3.55961 0
M  V30 3842 N 372.481 1.55866 -0.233164 0
M  V30 3843 C 373.892 1.847 0.272554 0
M  V30 3844 C 374.243 1.15477 1.58617 0
M  V30 3845 O 373.368 0.42841 2.12117 0
M  V30 3846 C 373.963 3.35071 0.501299 0
M  V30 3847 C 372.522 3.6418 0.951304 0
M  V30 3848 C 371.669 2.77292 0.0208209 0
M  V30 3849 H 374.62 1.52005 -0.456074 0
M  V30 3850 H 374.641 3.55906 1.34577 0
M  V30 3851 H 374.153 3.85424 -0.454936 0
M  V30 3852 H 372.254 3.19293 1.92049 0
M  V30 3853 H 372.367 4.72071 0.817675 0
M  V30 3854 H 370.731 2.49131 0.529723 0
M  V30 3855 H 371.514 3.30448 -0.93054 0
M  V30 3856 N 373.959 -0.0401083 1.57549 0
M  V30 3857 C 374.891 -1.07149 2.02612 0
M  V30 3858 C 375.904 -1.33126 0.937085 0
M  V30 3859 O 377.093 -1.30808 1.21456 0
M  V30 3860 C 374.193 -2.41561 2.37701 0
M  V30 3861 C 373.366 -2.35096 3.68848 0
M  V30 3862 C 372.425 -3.51867 3.91249 0
M  V30 3863 O 371.451 -3.3186 4.62447 0
M  V30 3864 N 372.653 -4.73351 3.36035 0
M  V30 3865 H 375.418 -0.687485 2.91708 0
M  V30 3866 H 372.979 -0.228248 1.60283 0
M  V30 3867 H 374.971 -3.18379 2.49833 0
M  V30 3868 H 373.541 -2.71846 1.54332 0
M  V30 3869 H 372.761 -1.4345 3.67173 0
M  V30 3870 H 374.049 -2.27908 4.54901 0
M  V30 3871 H 373.447 -4.92507 2.78304 0
M  V30 3872 H 372.004 -5.47572 3.53565 0
M  V30 3873 N 375.437 -1.54477 -0.31217 0
M  V30 3874 C 376.384 -1.84655 -1.38461 0
M  V30 3875 C 377.354 -0.694536 -1.50882 0
M  V30 3876 O 378.539 -0.942081 -1.6592 0
M  V30 3877 C 375.679 -2.0896 -2.74645 0
M  V30 3878 C 374.792 -3.36618 -2.70763 0
M  V30 3879 C 373.927 -3.50824 -3.98868 0
M  V30 3880 C 372.966 -4.72315 -3.89339 0
M  V30 3881 N 372.103 -4.83387 -5.09197 0
M  V30 3882 H 376.943 -2.76142 -1.12026 0
M  V30 3883 H 374.48 -1.36748 -0.542065 0
M  V30 3884 H 376.438 -2.21045 -3.53829 0
M  V30 3885 H 375.068 -1.20752 -2.99364 0
M  V30 3886 H 374.12 -3.33211 -1.83506 0
M  V30 3887 H 375.432 -4.25917 -2.59608 0
M  V30 3888 H 374.586 -3.62513 -4.86486 0
M  V30 3889 H 373.325 -2.59638 -4.12843 0
M  V30 3890 H 372.33 -4.6067 -3.00105 0
M  V30 3891 H 373.555 -5.64897 -3.76919 0
M  V30 3892 H 371.501 -3.9512 -5.23657 0
M  V30 3893 H 371.418 -5.66669 -5.00422 0
M  V30 3894 H 372.686 -4.9942 -5.98498 0
M  V30 3895 N 376.915 0.57481 -1.46744 0
M  V30 3896 C 378.161 1.3347 -1.52688 0
M  V30 3897 C 378.494 1.93353 -0.181229 0
M  V30 3898 O 377.769 1.76912 0.808237 0
M  V30 3899 C 378.052 2.45811 -2.63152 0
M  V30 3900 C 377.905 1.90912 -4.07275 0
M  V30 3901 C 379.224 3.47822 -2.69644 0
M  V30 3902 H 376.343 0.483935 -0.555856 0
M  V30 3903 H 378.985 0.644968 -1.78718 0
M  V30 3904 H 377.135 3.04646 -2.41088 0
M  V30 3905 H 378.807 1.36473 -4.4065 0
M  V30 3906 H 377.05 1.21691 -4.16382 0
M  V30 3907 H 377.721 2.72042 -4.80309 0
M  V30 3908 H 380.197 2.9888 -2.895 0
M  V30 3909 H 379.073 4.23876 -3.48742 0
M  V30 3910 H 379.334 4.05555 -1.76005 0
M  V30 3911 N 378.394 1.34581 0.820102 0
M  V30 3912 C 379.357 1.2628 1.91275 0
M  V30 3913 C 380.357 0.177344 1.59819 0
M  V30 3914 O 381.547 0.430156 1.68806 0
M  V30 3915 C 378.679 0.950327 3.27386 0
M  V30 3916 H 379.872 2.23421 2.00057 0
M  V30 3917 H 377.425 1.1891 1.0144 0
M  V30 3918 H 378.16 -0.0177938 3.24295 0
M  V30 3919 H 377.945 1.73549 3.51601 0
M  V30 3920 H 379.435 0.917492 4.07396 0
M  V30 3921 N 379.872 -1.04064 1.18357 0
M  V30 3922 C 380.802 -2.14001 0.934113 0
M  V30 3923 C 381.783 -1.69616 -0.128186 0
M  V30 3924 O 382.968 -1.94185 0.0244093 0
M  V30 3925 C 380.098 -3.44253 0.459066 0
M  V30 3926 C 379.052 -4.02261 1.46185 0
M  V30 3927 C 378.378 -5.27992 0.844322 0
M  V30 3928 C 379.678 -4.38432 2.83856 0
M  V30 3929 H 381.372 -2.35127 1.85352 0
M  V30 3930 H 378.918 -1.12998 0.892604 0
M  V30 3931 H 380.871 -4.20522 0.271907 0
M  V30 3932 H 379.595 -3.22813 -0.495912 0
M  V30 3933 H 378.254 -3.28074 1.63595 0
M  V30 3934 H 377.902 -5.02862 -0.117845 0
M  V30 3935 H 377.602 -5.67765 1.51384 0
M  V30 3936 H 379.126 -6.06938 0.667693 0
M  V30 3937 H 380.54 -5.05688 2.70098 0
M  V30 3938 H 378.937 -4.89254 3.47491 0
M  V30 3939 H 380.007 -3.4826 3.37406 0
M  V30 3940 N 381.35 -0.985608 -1.22978 0
M  V30 3941 C 382.578 -0.675582 -1.95559 0
M  V30 3942 C 382.993 0.758413 -1.72897 0
M  V30 3943 O 382.35 1.51094 -1.02357 0
M  V30 3944 C 382.401 -0.96293 -3.48439 0
M  V30 3945 O 382.122 -2.34057 -3.70336 0
M  V30 3946 C 383.623 -0.669585 -4.38214 0
M  V30 3947 H 380.843 -0.250523 -0.622478 0
M  V30 3948 H 383.387 -1.3184 -1.56328 0
M  V30 3949 H 381.542 -0.366033 -3.85667 0
M  V30 3950 H 381.956 -2.43424 -4.64591 0
M  V30 3951 H 383.43 -0.920967 -5.44263 0
M  V30 3952 H 383.907 0.396383 -4.37408 0
M  V30 3953 H 384.513 -1.2472 -4.06602 0
M  V30 3954 N 382.828 1.3818 -0.7579 0
M  V30 3955 C 383.758 2.33027 -0.148597 0
M  V30 3956 C 384.739 1.55085 0.69875 0
M  V30 3957 O 385.924 1.83384 0.639053 0
M  V30 3958 C 383.054 3.3928 0.742034 0
M  V30 3959 C 382.008 4.28 -0.00291946 0
M  V30 3960 C 381.334 5.25146 1.00625 0
M  V30 3961 C 382.634 5.08938 -1.17385 0
M  V30 3962 H 384.328 2.84231 -0.940909 0
M  V30 3963 H 381.874 1.36659 -0.453908 0
M  V30 3964 H 383.827 4.046 1.17799 0
M  V30 3965 H 382.551 2.86569 1.56671 0
M  V30 3966 H 381.21 3.64192 -0.419504 0
M  V30 3967 H 380.858 4.68721 1.8251 0
M  V30 3968 H 380.558 5.85361 0.512428 0
M  V30 3969 H 382.082 5.93342 1.44143 0
M  V30 3970 H 383.496 5.67474 -0.815224 0
M  V30 3971 H 381.893 5.7841 -1.59882 0
M  V30 3972 H 382.963 4.42424 -1.98468 0
M  V30 3973 N 384.306 0.507319 1.49211 0
M  V30 3974 C 385.583 -0.0982702 1.95353 0
M  V30 3975 C 385.963 -1.53516 1.449 0
M  V30 3976 O 385.311 -2.18594 0.66551 0
M  V30 3977 C 385.521 -0.00440283 3.49 0
M  V30 3978 C 386.869 -0.175147 4.24239 0
M  V30 3979 O 387.893 -0.0792891 3.56112 0
M  V30 3980 O 386.752 -0.37276 5.45227 0
M  V30 3981 H 383.846 -0.0918236 0.821887 0
M  V30 3982 H 386.392 0.570307 1.5983 0
M  V30 3983 H 385.164 0.997402 3.78375 0
M  V30 3984 H 384.787 -0.712845 3.91158 0
M  V30 3985 N 385.784 -1.5574 0.241426 0
M  V30 3986 C 386.714 -2.24133 -0.654722 0
M  V30 3987 C 387.695 -1.21974 -1.1856 0
M  V30 3988 O 388.88 -1.50612 -1.22595 0
M  V30 3989 C 386.01 -2.93659 -1.85423 0
M  V30 3990 C 384.964 -4.0246 -1.45636 0
M  V30 3991 C 384.29 -4.59383 -2.73626 0
M  V30 3992 C 385.59 -5.18468 -0.631506 0
M  V30 3993 H 387.284 -2.99281 -0.0844353 0
M  V30 3994 H 384.83 -1.43947 -0.0391707 0
M  V30 3995 H 386.783 -3.40203 -2.48676 0
M  V30 3996 H 385.507 -2.15991 -2.44981 0
M  V30 3997 H 384.166 -3.56676 -0.847202 0
M  V30 3998 H 383.814 -3.78422 -3.3137 0
M  V30 3999 H 383.514 -5.32826 -2.4773 0
M  V30 4000 H 385.038 -5.08658 -3.37786 0
M  V30 4001 H 386.452 -5.61272 -1.1682 0
M  V30 4002 H 384.849 -5.98266 -0.468831 0
M  V30 4003 H 385.919 -4.8358 0.357506 0
M  V30 4004 N 387.262 0.0317525 -1.57568 0
M  V30 4005 C 388.539 0.758366 -1.803 0
M  V30 4006 C 388.919 1.93718 -0.838845 0
M  V30 4007 O 388.267 2.28187 0.119571 0
M  V30 4008 C 388.477 1.19392 -3.27943 0
M  V30 4009 C 389.825 1.61094 -3.92854 0
M  V30 4010 O 390.849 1.28857 -3.32076 0
M  V30 4011 O 389.708 2.20918 -4.99858 0
M  V30 4012 H 386.802 0.366514 -0.741348 0
M  V30 4013 H 389.348 0.00873765 -1.69698 0
M  V30 4014 H 388.12 0.352275 -3.89711 0
M  V30 4015 H 387.743 2.00365 -3.43424 0
M  V30 4016 N 388.74 1.54641 0.303973 0
M  V30 4017 C 389.67 1.88386 1.3796 0
M  V30 4018 C 390.651 0.742485 1.5304 0
M  V30 4019 O 391.836 0.997959 1.66597 0
M  V30 4020 C 388.966 2.12854 2.74427 0
M  V30 4021 C 387.92 3.28702 2.74115 0
M  V30 4022 C 387.246 3.38582 4.13844 0
M  V30 4023 C 388.546 4.65881 2.3612 0
M  V30 4024 H 390.24 2.78474 1.09966 0
M  V30 4025 H 387.786 1.33988 0.527556 0
M  V30 4026 H 389.739 2.35047 3.49758 0
M  V30 4027 H 388.463 1.19535 3.03939 0
M  V30 4028 H 387.122 3.06428 2.0124 0
M  V30 4029 H 386.77 2.42784 4.40528 0
M  V30 4030 H 386.47 4.16453 4.14537 0
M  V30 4031 H 387.994 3.63031 4.90959 0
M  V30 4032 H 389.408 4.87823 3.01167 0
M  V30 4033 H 387.805 5.46444 2.48031 0
M  V30 4034 H 388.875 4.66799 1.3125 0
M  V30 4035 N 390.218 -0.567019 1.47046 0
M  V30 4036 C 391.128 -1.70247 1.6141 0
M  V30 4037 C 392.144 -1.66746 0.497157 0
M  V30 4038 O 393.32 -1.86371 0.763389 0
M  V30 4039 C 390.385 -3.06756 1.61561 0
M  V30 4040 C 389.446 -3.21399 2.84607 0
M  V30 4041 C 388.679 -4.51396 2.84741 0
M  V30 4042 O 388.902 -5.36255 1.94388 0
M  V30 4043 O 387.836 -4.69621 3.76483 0
M  V30 4044 H 391.662 -1.61073 2.57467 0
M  V30 4045 H 389.247 -0.735894 1.30019 0
M  V30 4046 H 391.129 -3.8801 1.64396 0
M  V30 4047 H 389.804 -3.16333 0.686684 0
M  V30 4048 H 388.711 -2.39579 2.8732 0
M  V30 4049 H 390.044 -3.16721 3.76761 0
M  V30 4050 N 391.696 -1.35014 -0.812953 0
M  V30 4051 C 392.643 -1.27412 -1.92444 0
M  V30 4052 C 393.613 -0.14733 -1.65445 0
M  V30 4053 O 394.798 -0.329974 -1.87925 0
M  V30 4054 C 391.938 -1.04558 -3.28879 0
M  V30 4055 C 391.051 -2.26101 -3.68106 0
M  V30 4056 C 390.186 -1.96449 -4.9354 0
M  V30 4057 C 389.225 -3.14081 -5.25376 0
M  V30 4058 N 388.362 -2.84246 -6.41988 0
M  V30 4059 H 393.202 -2.22463 -1.98278 0
M  V30 4060 H 390.739 -1.10593 -0.969933 0
M  V30 4061 H 392.697 -0.893413 -4.07522 0
M  V30 4062 H 391.327 -0.131719 -3.22531 0
M  V30 4063 H 390.379 -2.52204 -2.84775 0
M  V30 4064 H 391.691 -3.13959 -3.87597 0
M  V30 4065 H 390.845 -1.78026 -5.79993 0
M  V30 4066 H 389.584 -1.05867 -4.76071 0
M  V30 4067 H 388.589 -3.33089 -4.37415 0
M  V30 4068 H 389.814 -4.05455 -5.44778 0
M  V30 4069 H 387.76 -1.96252 -6.25956 0
M  V30 4070 H 387.677 -3.65637 -6.61699 0
M  V30 4071 H 388.945 -2.6935 -7.31485 0
M  V30 4072 N 393.175 1.03435 -1.18907 0
M  V30 4073 C 394.085 2.15075 -0.937015 0
M  V30 4074 C 395.101 1.73706 0.101085 0
M  V30 4075 O 396.277 2.01232 -0.0822948 0
M  V30 4076 C 393.342 3.43458 -0.473057 0
M  V30 4077 C 392.403 3.99172 -1.57989 0
M  V30 4078 C 391.636 5.21427 -1.13797 0
M  V30 4079 O 391.859 5.704 0.000725941 0
M  V30 4080 O 390.793 5.69837 -1.9383 0
M  V30 4081 H 394.619 2.39198 -1.87131 0
M  V30 4082 H 392.204 1.13506 -0.971427 0
M  V30 4083 H 394.086 4.20811 -0.222702 0
M  V30 4084 H 392.761 3.20793 0.432869 0
M  V30 4085 H 391.668 3.23178 -1.88433 0
M  V30 4086 H 393.001 4.2619 -2.46217 0
M  V30 4087 N 394.653 0.992116 1.22453 0
M  V30 4088 C 396.064 0.702776 1.72968 0
M  V30 4089 C 396.415 -0.780399 1.80012 0
M  V30 4090 O 395.54 -1.61007 1.44589 0
M  V30 4091 C 396.135 1.26903 3.14135 0
M  V30 4092 C 394.694 1.02909 3.62059 0
M  V30 4093 C 393.841 1.38969 2.39964 0
M  V30 4094 H 396.792 1.16457 1.07812 0
M  V30 4095 H 396.813 0.647223 3.74955 0
M  V30 4096 H 396.325 2.34851 3.08977 0
M  V30 4097 H 394.426 -0.0337979 3.72585 0
M  V30 4098 H 394.539 1.69191 4.48231 0
M  V30 4099 H 392.903 0.808279 2.41535 0
M  V30 4100 H 393.686 2.4792 2.37467 0
M  V30 4101 N 396.131 -1.37776 0.765217 0
M  V30 4102 C 397.041 -2.34135 0.147666 0
M  V30 4103 C 398.057 -1.59854 -0.687215 0
M  V30 4104 O 399.233 -1.91983 -0.608659 0
M  V30 4105 C 396.298 -3.3901 -0.72617 0
M  V30 4106 C 395.359 -4.2912 0.124417 0
M  V30 4107 C 394.592 -5.28986 -0.707807 0
M  V30 4108 O 394.815 -5.36205 -1.94525 0
M  V30 4109 O 393.749 -6.01779 -0.12046 0
M  V30 4110 H 397.575 -2.88664 0.943758 0
M  V30 4111 H 395.16 -1.39824 0.526277 0
M  V30 4112 H 397.042 -4.03195 -1.22524 0
M  V30 4113 H 395.717 -2.86819 -1.50056 0
M  V30 4114 H 394.624 -3.68057 0.669696 0
M  V30 4115 H 395.957 -4.84598 0.861736 0
M  V30 4116 N 397.609 -0.515225 -1.4894 0
M  V30 4117 C 398.834 0.022727 -2.07388 0
M  V30 4118 C 399.259 1.2876 -1.37122 0
M  V30 4119 O 398.617 1.76067 -0.432431 0
M  V30 4120 C 398.665 0.244869 -3.59768 0
M  V30 4121 O 397.769 1.31667 -3.90817 0
M  V30 4122 H 397.11 -0.0325506 -0.663202 0
M  V30 4123 H 399.64 -0.718918 -1.91553 0
M  V30 4124 H 399.65 0.47205 -4.0526 0
M  V30 4125 H 398.325 -0.679194 -4.10317 0
M  V30 4126 H 396.902 1.07331 -3.5712 0
M  V30 4127 N 399.087 1.5561 -0.249682 0
M  V30 4128 C 399.997 2.25143 0.659375 0
M  V30 4129 C 401.013 1.2685 1.19101 0
M  V30 4130 O 402.189 1.59732 1.22669 0
M  V30 4131 C 399.254 2.93945 1.8384 0
M  V30 4132 C 398.315 4.07655 1.34596 0
M  V30 4133 C 397.548 4.73167 2.46878 0
M  V30 4134 O 397.771 4.37768 3.65671 0
M  V30 4135 O 396.705 5.61623 2.16478 0
M  V30 4136 H 400.531 3.03545 0.0968698 0
M  V30 4137 H 398.116 1.49389 -0.018074 0
M  V30 4138 H 399.998 3.37271 2.52638 0
M  V30 4139 H 398.673 2.18481 2.38847 0
M  V30 4140 H 397.58 3.68839 0.625174 0
M  V30 4141 H 398.913 4.84946 0.841941 0
M  V30 4142 N 400.565 -0.0233959 1.57583 0
M  V30 4143 C 401.976 -0.56927 1.77809 0
M  V30 4144 C 402.327 -1.75284 0.881472 0
M  V30 4145 O 401.452 -2.1626 0.0777805 0
M  V30 4146 C 402.047 -1.03949 3.22459 0
M  V30 4147 C 400.606 -1.53084 3.43864 0
M  V30 4148 C 399.753 -0.471454 2.73263 0
M  V30 4149 H 402.704 0.202825 1.57399 0
M  V30 4150 H 402.725 -1.90661 3.29285 0
M  V30 4151 H 402.237 -0.177865 3.87692 0
M  V30 4152 H 400.338 -2.41414 2.83814 0
M  V30 4153 H 400.451 -1.57443 4.52491 0
M  V30 4154 H 398.815 -0.927788 2.37201 0
M  V30 4155 H 399.598 0.380808 3.41181 0
M  V30 4156 N 402.043 -1.548 -0.295768 0
M  V30 4157 C 403.32 -1.65014 -1.05023 0
M  V30 4158 C 403.7 -0.501805 -2.05049 0
M  V30 4159 O 403.048 0.500869 -2.22943 0
M  V30 4160 C 403.258 -3.03252 -1.72741 0
M  V30 4161 C 404.606 -3.60242 -2.24746 0
M  V30 4162 O 405.63 -3.05737 -1.82765 0
M  V30 4163 O 404.489 -4.55687 -3.01681 0
M  V30 4164 H 401.583 -0.669314 -0.485744 0
M  V30 4165 H 404.129 -1.67144 -0.293438 0
M  V30 4166 H 402.901 -3.7827 -1.00138 0
M  V30 4167 H 402.524 -3.04922 -2.55163 0
M  V30 4168 N 403.521 0.559213 -1.47345 0
M  V30 4169 C 404.431 1.69388 -1.62311 0
M  V30 4170 C 405.447 1.6648 -0.505993 0
M  V30 4171 O 406.623 1.85964 -0.773262 0
M  V30 4172 C 403.688 3.05894 -1.63185 0
M  V30 4173 C 402.749 3.19885 -2.86307 0
M  V30 4174 C 401.982 4.49879 -2.87131 0
M  V30 4175 O 402.205 5.35217 -1.97229 0
M  V30 4176 O 401.139 4.67618 -3.78968 0
M  V30 4177 H 404.965 1.59706 -2.58317 0
M  V30 4178 H 402.55 0.728989 -1.30407 0
M  V30 4179 H 404.432 3.87133 -1.66451 0
M  V30 4180 H 403.107 3.15964 -0.70345 0
M  V30 4181 H 402.014 2.38052 -2.88587 0
M  V30 4182 H 403.347 3.14718 -3.78435 0
M  V30 4183 N 404.999 1.35443 0.805782 0
M  V30 4184 C 406.41 1.25768 1.37983 0
M  V30 4185 C 406.761 -0.10958 1.95894 0
M  V30 4186 O 405.886 -1.01056 1.91355 0
M  V30 4187 C 406.481 2.27727 2.5085 0
M  V30 4188 C 405.04 2.2179 3.04115 0
M  V30 4189 C 404.187 2.13393 1.77084 0
M  V30 4190 H 407.138 1.4656 0.608752 0
M  V30 4191 H 407.159 1.90422 3.29424 0
M  V30 4192 H 406.671 3.27227 2.08671 0
M  V30 4193 H 404.772 1.25703 3.50756 0
M  V30 4194 H 404.885 3.13788 3.62042 0
M  V30 4195 H 403.249 1.59384 1.98668 0
M  V30 4196 H 404.032 3.14755 1.37056 0
M  V30 4197 N 406.477 -1.02803 1.19454 0
M  V30 4198 C 407.409 -2.11181 0.890807 0
M  V30 4199 C 408.422 -1.6238 -0.116829 0
M  V30 4200 O 409.611 -1.78144 0.112694 0
M  V30 4201 C 406.711 -3.37461 0.311942 0
M  V30 4202 C 405.884 -4.15446 1.36834 0
M  V30 4203 C 404.943 -5.20039 0.802864 0
M  V30 4204 O 403.969 -5.49602 1.48077 0
M  V30 4205 N 405.171 -5.79165 -0.393417 0
M  V30 4206 H 407.936 -2.37827 1.82369 0
M  V30 4207 H 405.497 -1.19101 1.09666 0
M  V30 4208 H 407.489 -4.0462 -0.0802225 0
M  V30 4209 H 406.059 -3.08156 -0.52524 0
M  V30 4210 H 405.279 -3.43423 1.93531 0
M  V30 4211 H 406.567 -4.64335 2.08015 0
M  V30 4212 H 405.965 -5.57466 -0.961658 0
M  V30 4213 H 404.522 -6.47729 -0.727351 0
M  V30 4214 N 407.956 -0.998596 -1.21925 0
M  V30 4215 C 408.903 -0.553621 -2.24062 0
M  V30 4216 C 409.873 0.416999 -1.6078 0
M  V30 4217 O 411.058 0.320482 -1.88089 0
M  V30 4218 C 408.198 0.119959 -3.44891 0
M  V30 4219 C 407.311 -0.893077 -4.22668 0
M  V30 4220 C 406.446 -0.192424 -5.30851 0
M  V30 4221 C 405.485 -1.19344 -6.00353 0
M  V30 4222 N 404.622 -0.520707 -7.00166 0
M  V30 4223 H 409.462 -1.4293 -2.61486 0
M  V30 4224 H 406.999 -0.715838 -1.28507 0
M  V30 4225 H 408.957 0.527459 -4.13852 0
M  V30 4226 H 407.587 0.959389 -3.08214 0
M  V30 4227 H 406.639 -1.41886 -3.52948 0
M  V30 4228 H 407.951 -1.65512 -4.70539 0
M  V30 4229 H 407.105 0.271515 -6.06092 0
M  V30 4230 H 405.844 0.602075 -4.83969 0
M  V30 4231 H 404.849 -1.66795 -5.23889 0
M  V30 4232 H 406.074 -1.98891 -6.49322 0
M  V30 4233 H 404.02 0.254252 -6.55507 0
M  V30 4234 H 403.937 -1.2211 -7.46073 0
M  V30 4235 H 405.205 -0.0797596 -7.79459 0
M  V30 4236 N 409.434 1.37368 -0.772513 0
M  V30 4237 C 410.845 1.8231 -0.402493 0
M  V30 4238 C 411.196 1.6436 1.07146 0
M  V30 4239 O 410.321 1.15514 1.82991 0
M  V30 4240 C 410.916 3.30979 -0.723776 0
M  V30 4241 C 409.475 3.74195 -0.406802 0
M  V30 4242 C 408.622 2.59885 -0.967218 0
M  V30 4243 H 411.573 1.25829 -0.967099 0
M  V30 4244 H 411.594 3.80499 -0.00870832 0
M  V30 4245 H 411.106 3.44011 -1.7966 0
M  V30 4246 H 409.207 3.66732 0.658673 0
M  V30 4247 H 409.32 4.7027 -0.915588 0
M  V30 4248 H 407.684 2.51674 -0.391416 0
M  V30 4249 H 408.467 2.7571 -2.04546 0
M  V30 4250 N 410.912 0.523116 1.48665 0
M  V30 4251 C 412.16 -0.0134497 2.02096 0
M  V30 4252 C 412.481 -1.35418 1.40311 0
M  V30 4253 O 411.751 -1.87543 0.566074 0
M  V30 4254 H 410.331 -0.00795915 0.746958 0
M  V30 4255 H 412.993 0.685388 1.82451 0
M  V30 4256 H 412.089 -0.126849 3.11842 0
M  V30 4257 N 412.39 -1.55475 0.257931 0
M  V30 4258 C 413.337 -2.21837 -0.636939 0
M  V30 4259 C 414.307 -1.18596 -1.16294 0
M  V30 4260 O 415.492 -1.47081 -1.21539 0
M  V30 4261 C 412.632 -2.9301 -1.82317 0
M  V30 4262 C 411.745 -4.10931 -1.33265 0
M  V30 4263 C 410.88 -4.69791 -2.47931 0
M  V30 4264 C 409.919 -5.7994 -1.95796 0
M  V30 4265 N 409.056 -6.32935 -3.0387 0
M  V30 4266 H 413.896 -2.9793 -0.0643591 0
M  V30 4267 H 411.433 -1.47086 -0.0200031 0
M  V30 4268 H 413.391 -3.3248 -2.52018 0
M  V30 4269 H 412.021 -2.1937 -2.36805 0
M  V30 4270 H 411.073 -3.76699 -0.52931 0
M  V30 4271 H 412.385 -4.90417 -0.910654 0
M  V30 4272 H 411.539 -5.11892 -3.25656 0
M  V30 4273 H 410.278 -3.89545 -2.93438 0
M  V30 4274 H 409.283 -5.37305 -1.16546 0
M  V30 4275 H 410.508 -6.62043 -1.51246 0
M  V30 4276 H 408.454 -5.55591 -3.48791 0
M  V30 4277 H 408.371 -7.07645 -2.66035 0
M  V30 4278 H 409.639 -6.79695 -3.81621 0
M  V30 4279 N 413.868 0.0150385 -1.57593 0
M  V30 4280 C 415.279 0.559832 -1.78109 0
M  V30 4281 C 415.63 1.74814 -0.890756 0
M  V30 4282 O 414.755 2.16216 -0.0892482 0
M  V30 4283 C 415.35 1.02238 -3.23006 0
M  V30 4284 C 413.909 1.51258 -3.44671 0
M  V30 4285 C 413.056 0.456955 -2.73509 0
M  V30 4286 H 416.007 -0.211169 -1.57289 0
M  V30 4287 H 416.028 1.88912 -3.30292 0
M  V30 4288 H 415.54 0.157302 -3.87781 0
M  V30 4289 H 413.641 2.39905 -2.8509 0
M  V30 4290 H 413.754 1.55042 -4.5332 0
M  V30 4291 H 412.118 0.915196 -2.37689 0
M  V30 4292 H 412.901 -0.398896 -3.40975 0
M  V30 4293 N 415.346 1.54954 0.287554 0
M  V30 4294 C 416.571 1.79209 1.04397 0
M  V30 4295 C 416.996 0.556431 1.79682 0
M  V30 4296 O 416.354 -0.493518 1.74454 0
M  V30 4297 C 416.402 3.00739 1.98969 0
M  V30 4298 O 415.506 2.74805 3.075 0
M  V30 4299 H 414.847 0.592755 0.299227 0
M  V30 4300 H 417.377 2.02068 0.320886 0
M  V30 4301 H 417.387 3.29077 2.4119 0
M  V30 4302 H 416.062 3.90329 1.43582 0
M  V30 4303 H 414.639 2.57523 2.69697 0
M  V30 4304 N 416.824 -0.551391 1.4764 0
M  V30 4305 C 418.07 -1.31024 1.54792 0
M  V30 4306 C 418.403 -1.9304 0.211967 0
M  V30 4307 O 417.678 -1.78175 -0.77999 0
M  V30 4308 C 417.961 -2.41593 2.67029 0
M  V30 4309 C 417.814 -1.84408 4.10261 0
M  V30 4310 C 419.133 -3.43488 2.75143 0
M  V30 4311 H 416.252 -0.475031 0.563485 0
M  V30 4312 H 418.894 -0.616454 1.79722 0
M  V30 4313 H 417.044 -3.00772 2.45904 0
M  V30 4314 H 418.716 -1.29445 4.42766 0
M  V30 4315 H 416.959 -1.15051 4.18265 0
M  V30 4316 H 417.63 -2.64367 4.84576 0
M  V30 4317 H 420.106 -2.94236 2.94218 0
M  V30 4318 H 418.982 -4.18274 3.55441 0
M  V30 4319 H 419.243 -4.02703 1.82435 0
M  V30 4320 N 418.302 -1.35869 -0.798587 0
M  V30 4321 C 419.549 -1.29588 -1.55606 0
M  V30 4322 C 419.877 0.127456 -1.94082 0
M  V30 4323 O 419.132 1.09461 -1.62225 0
M  V30 4324 C 419.431 -2.1556 -2.85077 0
M  V30 4325 C 419.097 -3.6424 -2.65781 0
M  V30 4326 C 417.759 -4.04766 -2.60227 0
M  V30 4327 C 420.111 -4.58547 -2.47758 0
M  V30 4328 C 417.439 -5.37753 -2.34603 0
M  V30 4329 C 419.791 -5.91742 -2.23662 0
M  V30 4330 C 418.455 -6.31402 -2.16534 0
M  V30 4331 H 417.725 -0.474197 -0.569402 0
M  V30 4332 H 420.372 -1.67839 -0.922086 0
M  V30 4333 H 418.677 -1.70216 -3.52893 0
M  V30 4334 H 420.374 -2.08031 -3.42818 0
M  V30 4335 H 416.964 -3.32086 -2.70956 0
M  V30 4336 H 421.148 -4.28117 -2.51056 0
M  V30 4337 H 416.404 -5.67474 -2.2756 0
M  V30 4338 H 420.578 -6.6439 -2.08708 0
M  V30 4339 H 418.205 -7.34381 -1.96441 0
M  V30 4340 N 419.78 1.02168 -1.19998 0
M  V30 4341 C 421.008 1.79296 -1.03249 0
M  V30 4342 C 421.423 1.84103 0.418502 0
M  V30 4343 O 420.78 1.29031 1.29063 0
M  V30 4344 C 420.831 3.24007 -1.60319 0
M  V30 4345 O 420.552 3.19512 -2.99739 0
M  V30 4346 C 422.053 4.17704 -1.48453 0
M  V30 4347 H 419.273 0.564016 -0.363493 0
M  V30 4348 H 421.817 1.28639 -1.58973 0
M  V30 4349 H 419.972 3.7183 -1.08727 0
M  V30 4350 H 420.386 4.10306 -3.26725 0
M  V30 4351 H 421.86 5.17104 -1.93153 0
M  V30 4352 H 422.337 4.37029 -0.436193 0
M  V30 4353 H 422.943 3.7576 -1.99211 0
M  V30 4354 N 421.258 1.00505 1.21394 0
M  V30 4355 C 422.504 0.688793 1.90745 0
M  V30 4356 C 422.837 -0.778486 1.77914 0
M  V30 4357 O 422.112 -1.56433 1.15581 0
M  V30 4358 C 422.395 1.11063 3.42545 0
M  V30 4359 C 422.248 2.63737 3.64367 0
M  V30 4360 C 423.567 0.673059 4.34923 0
M  V30 4361 H 420.686 0.251702 0.692687 0
M  V30 4362 H 423.328 1.25074 1.43026 0
M  V30 4363 H 421.478 0.632508 3.83317 0
M  V30 4364 H 423.15 3.19313 3.32922 0
M  V30 4365 H 421.393 3.05248 3.08231 0
M  V30 4366 H 422.064 2.88305 4.70727 0
M  V30 4367 H 424.54 1.08392 4.01734 0
M  V30 4368 H 423.416 0.996383 5.39781 0
M  V30 4369 H 423.677 -0.425808 4.40045 0
M  V30 4370 N 422.737 -1.36956 0.779787 0
M  V30 4371 C 423.984 -1.99491 0.347766 0
M  V30 4372 C 424.312 -1.61898 -1.07793 0
M  V30 4373 O 423.567 -0.86071 -1.75756 0
M  V30 4374 C 423.866 -3.54585 0.447686 0
M  V30 4375 C 423.532 -4.1197 1.83279 0
M  V30 4376 C 422.194 -4.27356 2.2118 0
M  V30 4377 C 424.546 -4.43354 2.74019 0
M  V30 4378 C 421.874 -4.71432 3.4924 0
M  V30 4379 C 424.226 -4.88858 4.01497 0
M  V30 4380 C 422.89 -5.0245 4.39432 0
M  V30 4381 H 422.16 -0.729991 0.127257 0
M  V30 4382 H 424.807 -1.63599 0.995376 0
M  V30 4383 H 423.112 -3.90773 -0.283447 0
M  V30 4384 H 424.809 -4.00888 0.0945948 0
M  V30 4385 H 421.399 -4.00428 1.52825 0
M  V30 4386 H 425.583 -4.31045 2.45995 0
M  V30 4387 H 420.839 -4.80141 3.78516 0
M  V30 4388 H 425.013 -5.12108 4.71931 0
M  V30 4389 H 422.64 -5.36362 5.38721 0
M  V30 4390 N 424.215 -0.530993 -1.48385 0
M  V30 4391 C 425.147 0.268353 -2.27624 0
M  V30 4392 C 426.16 0.903525 -1.35426 0
M  V30 4393 O 427.349 0.781796 -1.60469 0
M  V30 4394 C 424.449 1.39535 -3.08842 0
M  V30 4395 C 423.622 0.861913 -4.28824 0
M  V30 4396 C 422.681 1.87016 -4.91845 0
M  V30 4397 O 421.707 1.4267 -5.5103 0
M  V30 4398 N 422.909 3.20238 -4.84178 0
M  V30 4399 H 425.674 -0.41123 -2.96865 0
M  V30 4400 H 423.235 -0.365387 -1.57723 0
M  V30 4401 H 425.227 2.06803 -3.47871 0
M  V30 4402 H 423.797 1.97859 -2.42014 0
M  V30 4403 H 423.017 0.0132126 -3.94198 0
M  V30 4404 H 424.305 0.484415 -5.06489 0
M  V30 4405 H 423.703 3.58932 -4.37246 0
M  V30 4406 H 422.26 3.83136 -5.27305 0
M  V30 4407 N 425.693 1.55336 -0.266172 0
M  V30 4408 C 426.64 2.22172 0.625165 0
M  V30 4409 C 427.61 1.19211 1.15663 0
M  V30 4410 O 428.795 1.47723 1.20758 0
M  V30 4411 C 425.935 2.93972 1.8076 0
M  V30 4412 C 425.048 4.11632 1.31084 0
M  V30 4413 C 424.183 4.71099 2.45436 0
M  V30 4414 C 423.222 5.8097 1.92718 0
M  V30 4415 N 422.359 6.34538 3.00509 0
M  V30 4416 H 427.199 2.9796 0.0485582 0
M  V30 4417 H 424.736 1.47095 0.0122024 0
M  V30 4418 H 426.694 3.33811 2.50251 0
M  V30 4419 H 425.324 2.20623 2.35638 0
M  V30 4420 H 424.376 3.76975 0.509326 0
M  V30 4421 H 425.688 4.90893 0.884633 0
M  V30 4422 H 424.842 5.13612 3.22936 0
M  V30 4423 H 423.581 3.91096 2.91368 0
M  V30 4424 H 422.586 5.37916 1.13695 0
M  V30 4425 H 423.811 6.62836 1.47733 0
M  V30 4426 H 421.757 5.57433 3.45839 0
M  V30 4427 H 421.674 7.09046 2.62279 0
M  V30 4428 H 422.942 6.81709 3.78011 0
M  V30 4429 N 427.171 -0.0066808 1.57599 0
M  V30 4430 C 428.42 -0.692078 1.89455 0
M  V30 4431 C 428.733 -1.75306 0.867586 0
M  V30 4432 O 429.939 -2.49262 1.07614 0
M  V30 4433 C 428.395 -1.2821 3.36289 0
M  V30 4434 C 428.003 -0.256291 4.47266 0
M  V30 4435 C 429.747 -1.94608 3.77264 0
M  V30 4436 C 427.654 -0.855927 5.85173 0
M  V30 4437 H 426.584 -0.262252 0.706923 0
M  V30 4438 H 429.235 0.052769 1.83424 0
M  V30 4439 H 427.617 -2.0774 3.37135 0
M  V30 4440 H 428.791 0.513923 4.57925 0
M  V30 4441 H 427.106 0.306862 4.15268 0
M  V30 4442 H 429.703 -2.40364 4.77629 0
M  V30 4443 H 430.046 -2.77382 3.10427 0
M  V30 4444 H 430.579 -1.21822 3.78688 0
M  V30 4445 H 427.318 -0.0671161 6.55466 0
M  V30 4446 H 426.838 -1.59546 5.78191 0
M  V30 4447 H 428.517 -1.35658 6.32618 0
M  V30 4448 N 428.649 -1.55105 -0.279332 0
M  V30 4449 C 429.895 -1.76597 -1.00921 0
M  V30 4450 C 430.25 -0.556831 -1.84166 0
M  V30 4451 O 429.543 0.450573 -1.86227 0
M  V30 4452 C 429.737 -3.0086 -1.92919 0
M  V30 4453 C 429.566 -4.33744 -1.18728 0
M  V30 4454 C 428.336 -4.9712 -0.905545 0
M  V30 4455 C 430.534 -5.11009 -0.580857 0
M  V30 4456 N 428.516 -6.13749 -0.136169 0
M  V30 4457 C 429.887 -6.19976 0.0546661 0
M  V30 4458 C 431.942 -4.95502 -0.488067 0
M  V30 4459 C 430.645 -7.15123 0.774028 0
M  V30 4460 C 432.671 -5.90999 0.217688 0
M  V30 4461 C 432.033 -6.9935 0.841975 0
M  V30 4462 H 428.132 -0.698553 -0.351493 0
M  V30 4463 H 430.716 -1.92595 -0.285531 0
M  V30 4464 H 428.887 -2.86249 -2.62519 0
M  V30 4465 H 430.619 -3.10784 -2.59221 0
M  V30 4466 H 427.374 -4.57903 -1.20921 0
M  V30 4467 H 427.798 -6.7659 0.235665 0
M  V30 4468 H 432.44 -4.11841 -0.956406 0
M  V30 4469 H 430.158 -7.9831 1.25407 0
M  V30 4470 H 433.744 -5.81078 0.289717 0
M  V30 4471 H 432.624 -7.71973 1.37939 0
M  V30 4472 N 430.127 0.543554 -1.4793 0
M  V30 4473 C 431.057 1.65888 -1.64327 0
M  V30 4474 C 432.038 1.62818 -0.492383 0
M  V30 4475 O 433.223 1.80226 -0.723338 0
M  V30 4476 C 430.353 3.04506 -1.67013 0
M  V30 4477 C 429.307 3.2243 -2.81466 0
M  V30 4478 C 428.633 4.61972 -2.69233 0
M  V30 4479 C 429.933 3.06496 -4.22915 0
M  V30 4480 H 431.627 1.52421 -2.57698 0
M  V30 4481 H 429.173 0.731849 -1.24016 0
M  V30 4482 H 431.126 3.82391 -1.77074 0
M  V30 4483 H 429.85 3.18964 -0.70212 0
M  V30 4484 H 428.509 2.46957 -2.70938 0
M  V30 4485 H 428.157 4.73247 -1.7043 0
M  V30 4486 H 427.857 4.74911 -3.46025 0
M  V30 4487 H 429.381 5.41974 -2.81242 0
M  V30 4488 H 430.795 3.74186 -4.34348 0
M  V30 4489 H 429.192 3.30938 -5.006 0
M  V30 4490 H 430.262 2.03077 -4.40327 0
M  V30 4491 N 431.605 1.3629 0.791371 0
M  V30 4492 C 432.833 1.33562 1.58016 0
M  V30 4493 C 433.248 -0.0835616 1.88615 0
M  V30 4494 O 432.605 -1.0399 1.49974 0
M  V30 4495 C 432.656 2.15517 2.90232 0
M  V30 4496 O 432.377 3.51902 2.60953 0
M  V30 4497 C 433.878 2.20546 3.84544 0
M  V30 4498 H 431.098 0.458226 0.490173 0
M  V30 4499 H 433.642 1.79361 0.982345 0
M  V30 4500 H 431.797 1.73278 3.46487 0
M  V30 4501 H 432.211 3.94644 3.4548 0
M  V30 4502 H 433.685 2.82252 4.74382 0
M  V30 4503 H 434.162 1.20838 4.2225 0
M  V30 4504 H 434.768 2.63013 3.34222 0
M  V30 4505 N 433.083 -1.0153 1.20538 0
M  V30 4506 C 434.046 -2.0826 0.957098 0
M  V30 4507 C 435.046 -1.60657 -0.0678655 0
M  V30 4508 O 436.236 -1.73385 0.168332 0
M  V30 4509 C 433.368 -3.38033 0.441188 0
M  V30 4510 H 434.561 -2.31719 1.90384 0
M  V30 4511 H 432.114 -1.1835 1.02093 0
M  V30 4512 H 432.849 -3.20249 -0.510961 0
M  V30 4513 H 432.634 -3.73911 1.18038 0
M  V30 4514 H 434.124 -4.16613 0.287009 0
M  V30 4515 N 434.561 -1.01147 -1.20859 0
M  V30 4516 C 435.491 -0.597663 -2.25722 0
M  V30 4517 C 436.472 0.384744 -1.65692 0
M  V30 4518 O 437.657 0.271303 -1.92296 0
M  V30 4519 C 434.787 0.0700149 -3.47229 0
M  V30 4520 C 433.741 -0.832843 -4.19819 0
M  V30 4521 C 433.067 -0.0312202 -5.34691 0
M  V30 4522 C 434.367 -2.1385 -4.76514 0
M  V30 4523 H 436.061 -1.47423 -2.60589 0
M  V30 4524 H 433.607 -0.710301 -1.25263 0
M  V30 4525 H 435.56 0.37103 -4.19763 0
M  V30 4526 H 434.284 0.981259 -3.11511 0
M  V30 4527 H 432.943 -1.11778 -3.49144 0
M  V30 4528 H 432.591 0.881515 -4.95215 0
M  V30 4529 H 432.291 -0.632434 -5.84187 0
M  V30 4530 H 433.815 0.26346 -6.10031 0
M  V30 4531 H 435.229 -1.9002 -5.40893 0
M  V30 4532 H 433.626 -2.69012 -5.36426 0
M  V30 4533 H 434.696 -2.80495 -3.95538 0
M  V30 4534 N 436.039 1.36541 -0.78704 0
M  V30 4535 C 437.279 2.01138 -0.363714 0
M  V30 4536 C 437.643 1.61114 1.04433 0
M  V30 4537 O 438.844 2.18285 1.56861 0
M  V30 4538 C 437.115 3.53603 -0.519582 0
M  V30 4539 S 438.674 4.38415 -0.183782 0
M  V30 4540 H 435.492 0.697263 -0.13909 0
M  V30 4541 H 438.094 1.66475 -1.02501 0
M  V30 4542 H 436.798 3.8022 -1.5447 0
M  V30 4543 H 436.329 3.93084 0.15773 0
M  V30 4544 H 438.344 4.85698 1.01547 0
M  V30 4545 N 437.518 0.538854 1.48102 0
M  V30 4546 C 438.448 -0.207654 2.32575 0
M  V30 4547 C 439.429 -0.926559 1.4265 0
M  V30 4548 O 440.614 -0.91061 1.71527 0
M  V30 4549 C 437.744 -1.24957 3.24042 0
M  V30 4550 C 436.698 -0.648263 4.23062 0
M  V30 4551 C 436.024 -1.79348 5.03725 0
M  V30 4552 C 437.324 0.385897 5.20872 0
M  V30 4553 H 439.018 0.497534 2.95237 0
M  V30 4554 H 436.564 0.240715 1.41974 0
M  V30 4555 H 438.517 -1.77983 3.81969 0
M  V30 4556 H 437.241 -1.98446 2.59397 0
M  V30 4557 H 435.9 -0.139452 3.66335 0
M  V30 4558 H 435.548 -2.51696 4.35498 0
M  V30 4559 H 435.248 -1.39702 5.70751 0
M  V30 4560 H 436.772 -2.32735 5.64506 0
M  V30 4561 H 438.186 -0.057607 5.73271 0
M  V30 4562 H 436.583 0.700227 5.96001 0
M  V30 4563 H 437.653 1.28848 4.67468 0
M  V30 4564 N 438.996 -1.55193 0.274407 0
M  V30 4565 C 440.242 -1.99877 -0.343086 0
M  V30 4566 C 440.575 -1.16256 -1.55558 0
M  V30 4567 O 439.85 -0.232462 -1.93106 0
M  V30 4568 C 440.133 -3.52706 -0.725965 0
M  V30 4569 C 439.986 -4.47081 0.493818 0
M  V30 4570 C 441.305 -4.11422 -1.56268 0
M  V30 4571 H 438.424 -0.726625 -0.123229 0
M  V30 4572 H 441.066 -1.86136 0.38121 0
M  V30 4573 H 439.216 -3.64546 -1.34307 0
M  V30 4574 H 440.888 -4.47186 1.13237 0
M  V30 4575 H 439.131 -4.1877 1.13201 0
M  V30 4576 H 439.802 -5.51699 0.18217 0
M  V30 4577 H 442.278 -4.02855 -1.04151 0
M  V30 4578 H 441.154 -5.18568 -1.79939 0
M  V30 4579 H 441.415 -3.61607 -2.54348 0
M  V30 4580 N 440.474 -0.00167713 -1.576 0
M  V30 4581 C 441.404 0.988091 -2.11563 0
M  V30 4582 C 442.385 1.35736 -1.02517 0
M  V30 4583 O 443.57 1.44082 -1.30208 0
M  V30 4584 C 440.7 2.27941 -2.62031 0
M  V30 4585 C 439.654 2.0517 -3.75619 0
M  V30 4586 C 438.98 3.4033 -4.12407 0
M  V30 4587 C 440.28 1.41294 -5.02825 0
M  V30 4588 H 441.974 0.538771 -2.94513 0
M  V30 4589 H 439.52 0.257712 -1.41675 0
M  V30 4590 H 441.473 2.97539 -2.9841 0
M  V30 4591 H 440.197 2.74989 -1.76205 0
M  V30 4592 H 438.856 1.37998 -3.39635 0
M  V30 4593 H 438.504 3.85085 -3.23603 0
M  V30 4594 H 438.204 3.25909 -4.88935 0
M  V30 4595 H 439.728 4.1124 -4.51347 0
M  V30 4596 H 441.142 2.00851 -5.36965 0
M  V30 4597 H 439.539 1.37356 -5.84169 0
M  V30 4598 H 440.609 0.382362 -4.8339 0
M  V30 4599 N 441.952 1.55251 0.271103 0
M  V30 4600 C 443.198 1.76207 1.00394 0
M  V30 4601 C 443.531 0.562604 1.85872 0
M  V30 4602 O 442.806 -0.439785 1.89463 0
M  V30 4603 C 443.089 3.06828 1.8849 0
M  V30 4604 C 442.942 4.37134 1.05992 0
M  V30 4605 C 444.261 3.33503 2.87165 0
M  V30 4606 H 441.38 0.641086 0.363562 0
M  V30 4607 H 444.022 1.87982 0.276189 0
M  V30 4608 H 442.172 2.96921 2.5054 0
M  V30 4609 H 443.844 4.59001 0.459978 0
M  V30 4610 H 442.087 4.32275 0.363443 0
M  V30 4611 H 442.758 5.2486 1.70955 0
M  V30 4612 H 445.234 3.43215 2.3525 0
M  V30 4613 H 444.11 4.2616 3.45946 0
M  V30 4614 H 444.371 2.53235 3.62387 0
M  V30 4615 N 443.43 -0.535701 1.48216 0
M  V30 4616 C 444.677 -1.29183 1.55942 0
M  V30 4617 C 445.005 -1.93125 0.230857 0
M  V30 4618 O 444.26 -1.79556 -0.778331 0
M  V30 4619 C 444.559 -2.4068 2.64212 0
M  V30 4620 C 444.225 -1.94428 4.06827 0
M  V30 4621 C 442.887 -1.81532 4.45645 0
M  V30 4622 C 445.239 -1.59405 4.96225 0
M  V30 4623 C 442.567 -1.31939 5.71672 0
M  V30 4624 C 444.919 -1.11276 6.22736 0
M  V30 4625 C 443.583 -0.969924 6.60416 0
M  V30 4626 H 442.853 -0.472715 0.570632 0
M  V30 4627 H 445.5 -0.598437 1.81909 0
M  V30 4628 H 443.805 -3.15666 2.32083 0
M  V30 4629 H 445.502 -2.98822 2.67407 0
M  V30 4630 H 442.092 -2.05415 3.76168 0
M  V30 4631 H 446.276 -1.68231 4.66917 0
M  V30 4632 H 441.532 -1.19562 5.99596 0
M  V30 4633 H 445.706 -0.832453 6.91407 0
M  V30 4634 H 443.333 -0.583436 7.57958 0
M  V30 4635 N 444.908 -1.36708 -0.784132 0
M  V30 4636 C 446.136 -1.34398 -1.57305 0
M  V30 4637 C 446.551 0.0735577 -1.88657 0
M  V30 4638 O 445.908 1.03193 -1.50524 0
M  V30 4639 C 445.959 -2.17053 -2.89085 0
M  V30 4640 O 445.68 -3.53281 -2.59083 0
M  V30 4641 C 447.181 -2.22583 -3.83369 0
M  V30 4642 H 444.401 -0.460819 -0.487736 0
M  V30 4643 H 446.945 -1.79879 -0.972819 0
M  V30 4644 H 445.1 -1.75113 -3.45564 0
M  V30 4645 H 445.514 -3.9647 -3.43383 0
M  V30 4646 H 446.988 -2.84763 -4.72878 0
M  V30 4647 H 447.465 -1.23075 -4.21603 0
M  V30 4648 H 448.071 -2.64781 -3.32823 0
M  V30 4649 N 446.386 1.0089 -1.21074 0
M  V30 4650 C 447.632 1.74866 -1.02712 0
M  V30 4651 C 447.965 1.89178 0.438787 0
M  V30 4652 O 447.24 1.42325 1.32567 0
M  V30 4653 C 447.523 3.16347 -1.72036 0
M  V30 4654 C 447.376 3.09782 -3.26121 0
M  V30 4655 C 448.695 4.15187 -1.45973 0
M  V30 4656 H 445.814 0.634736 -0.374539 0
M  V30 4657 H 448.456 1.17646 -1.49196 0
M  V30 4658 H 446.606 3.65201 -1.32517 0
M  V30 4659 H 448.278 2.68673 -3.74983 0
M  V30 4660 H 446.521 2.46982 -3.56626 0
M  V30 4661 H 447.192 4.09829 -3.6979 0
M  V30 4662 H 449.668 3.75022 -1.80272 0
M  V30 4663 H 448.544 5.12331 -1.96999 0
M  V30 4664 H 448.805 4.40386 -0.388924 0
M  V30 4665 N 447.864 1.01787 1.20321 0
M  V30 4666 C 449.092 0.727194 1.937 0
M  V30 4667 C 449.507 -0.712305 1.74848 0
M  V30 4668 O 448.864 -1.48327 1.06327 0
M  V30 4669 C 448.915 1.05497 3.45764 0
M  V30 4670 O 448.636 2.43794 3.64 0
M  V30 4671 C 450.137 0.785534 4.36285 0
M  V30 4672 H 447.357 0.266939 0.615617 0
M  V30 4673 H 449.901 1.35939 1.52777 0
M  V30 4674 H 448.056 0.468158 3.84561 0
M  V30 4675 H 448.47 2.55656 4.57974 0
M  V30 4676 H 449.944 1.06495 5.4163 0
M  V30 4677 H 450.421 -0.280273 4.38305 0
M  V30 4678 H 451.027 1.35456 4.03152 0
M  V30 4679 N 449.342 -1.36122 0.79427 0
M  V30 4680 C 450.272 -2.32551 0.210328 0
M  V30 4681 C 451.253 -1.56884 -0.657386 0
M  V30 4682 O 452.438 -1.85014 -0.590207 0
M  V30 4683 C 449.568 -3.41128 -0.651819 0
M  V30 4684 C 448.522 -4.27842 0.116395 0
M  V30 4685 C 447.848 -5.2763 -0.86666 0
M  V30 4686 C 449.148 -5.05647 1.30837 0
M  V30 4687 H 450.842 -2.81636 1.01594 0
M  V30 4688 H 448.388 -1.35407 0.489981 0
M  V30 4689 H 450.341 -4.07581 -1.07031 0
M  V30 4690 H 449.065 -2.90622 -1.49019 0
M  V30 4691 H 447.724 -3.62952 0.515915 0
M  V30 4692 H 447.372 -4.73395 -1.70019 0
M  V30 4693 H 447.072 -5.86514 -0.35705 0
M  V30 4694 H 448.596 -5.96955 -1.28361 0
M  V30 4695 H 450.01 -5.65113 0.965393 0
M  V30 4696 H 448.407 -5.73967 1.75161 0
M  V30 4697 H 449.477 -4.37006 2.10128 0
M  V30 4698 N 450.82 -0.546701 -1.47814 0
M  V30 4699 C 452.045 -0.021268 -2.07389 0
M  V30 4700 C 452.47 1.25822 -1.39822 0
M  V30 4701 O 451.828 1.75111 -0.46968 0
M  V30 4702 C 451.876 0.168502 -3.60206 0
M  V30 4703 O 450.98 1.23347 -3.93522 0
M  V30 4704 H 450.321 -0.0466108 -0.662362 0
M  V30 4705 H 452.851 -0.759387 -1.89985 0
M  V30 4706 H 452.861 0.385982 -4.0617 0
M  V30 4707 H 451.536 -0.766075 -4.08784 0
M  V30 4708 H 450.113 0.997319 -3.59316 0
M  V30 4709 N 452.299 1.55045 -0.282633 0
M  V30 4710 C 453.545 2.00056 0.332481 0
M  V30 4711 C 453.878 1.1708 1.54939 0
M  V30 4712 O 453.153 0.2427 1.9298 0
M  V30 4713 C 453.436 3.53086 0.70725 0
M  V30 4714 C 453.289 4.46813 -0.517521 0
M  V30 4715 C 454.608 4.12245 1.54084 0
M  V30 4716 H 451.727 0.727268 0.119373 0
M  V30 4717 H 454.369 1.85932 -0.391076 0
M  V30 4718 H 452.519 3.65253 1.32372 0
M  V30 4719 H 454.191 4.46579 -1.15607 0
M  V30 4720 H 452.434 4.18163 -1.1542 0
M  V30 4721 H 453.105 5.51595 -0.211426 0
M  V30 4722 H 455.581 4.03401 1.02013 0
M  V30 4723 H 454.457 5.19515 1.77186 0
M  V30 4724 H 454.718 3.62951 2.52427 0
M  V30 4725 N 453.777 0.010035 1.57597 0
M  V30 4726 C 455.024 -0.6727 1.91 0
M  V30 4727 C 455.352 -1.73219 0.884614 0
M  V30 4728 O 454.607 -1.95395 -0.109215 0
M  V30 4729 C 454.906 -1.34434 3.31153 0
M  V30 4730 C 454.572 -0.417083 4.48967 0
M  V30 4731 C 453.234 -0.161809 4.80928 0
M  V30 4732 C 455.586 0.220753 5.20732 0
M  V30 4733 C 452.914 0.739426 5.82022 0
M  V30 4734 C 455.266 1.10993 6.22787 0
M  V30 4735 C 453.93 1.37428 6.532 0
M  V30 4736 H 453.2 -0.246158 0.698918 0
M  V30 4737 H 455.847 0.0677145 1.9138 0
M  V30 4738 H 454.152 -2.15905 3.26944 0
M  V30 4739 H 455.849 -1.87883 3.54261 0
M  V30 4740 H 452.439 -0.626217 4.24001 0
M  V30 4741 H 456.623 0.0365643 4.96287 0
M  V30 4742 H 451.879 0.952139 6.03941 0
M  V30 4743 H 456.053 1.61046 6.77523 0
M  V30 4744 H 453.68 2.0743 7.31353 0
M  V30 4745 N 455.255 -1.55392 -0.262866 0
M  V30 4746 C 456.666 -1.67079 -0.833158 0
M  V30 4747 C 457.017 -0.604539 -1.86654 0
M  V30 4748 O 456.142 0.252138 -2.14926 0
M  V30 4749 C 456.737 -3.02891 -1.51797 0
M  V30 4750 C 455.296 -3.16571 -2.03617 0
M  V30 4751 C 454.443 -2.62909 -0.881701 0
M  V30 4752 H 457.394 -1.58652 -0.0389986 0
M  V30 4753 H 457.415 -2.96445 -2.38538 0
M  V30 4754 H 456.927 -3.80473 -0.765619 0
M  V30 4755 H 455.028 -2.43782 -2.81782 0
M  V30 4756 H 455.141 -4.23271 -2.24452 0
M  V30 4757 H 453.505 -2.20324 -1.27786 0
M  V30 4758 H 454.288 -3.43003 -0.14269 0
M  V30 4759 N 456.733 0.527833 -1.48498 0
M  V30 4760 C 457.696 1.61439 -1.62696 0
M  V30 4761 C 458.696 1.52824 -0.500136 0
M  V30 4762 O 459.886 1.56456 -0.765976 0
M  V30 4763 C 457.018 3.01063 -1.59918 0
M  V30 4764 H 458.211 1.50189 -2.59583 0
M  V30 4765 H 455.764 0.750055 -1.37127 0
M  V30 4766 H 456.499 3.17818 -0.645163 0
M  V30 4767 H 456.284 3.08725 -2.41726 0
M  V30 4768 H 457.774 3.80057 -1.73051 0
M  V30 4769 N 458.211 1.37122 0.776871 0
M  V30 4770 C 459.46 1.31373 1.53049 0
M  V30 4771 C 459.773 -0.101016 1.95339 0
M  V30 4772 O 460.979 -0.280953 2.70042 0
M  V30 4773 C 459.435 2.30567 2.76346 0
M  V30 4774 C 459.043 3.77543 2.41175 0
M  V30 4775 C 460.787 2.33818 3.54301 0
M  V30 4776 C 458.694 4.68481 3.60943 0
M  V30 4777 H 457.624 0.488234 0.574581 0
M  V30 4778 H 460.275 1.62554 0.851372 0
M  V30 4779 H 458.657 1.92396 3.46121 0
M  V30 4780 H 459.831 4.24521 1.79216 0
M  V30 4781 H 458.146 3.77187 1.76405 0
M  V30 4782 H 460.743 2.98965 4.4331 0
M  V30 4783 H 461.086 1.3503 3.93793 0
M  V30 4784 H 461.619 2.7067 2.91518 0
M  V30 4785 H 458.358 5.68378 3.26537 0
M  V30 4786 H 457.878 4.2621 4.22025 0
M  V30 4787 H 459.557 4.85366 4.27819 0
M  V30 4788 N 459.689 -1.00246 1.21608 0
M  V30 4789 C 460.917 -1.77631 1.06089 0
M  V30 4790 C 461.332 -1.84746 -0.38916 0
M  V30 4791 O 460.689 -1.31068 -1.26994 0
M  V30 4792 C 460.74 -3.21415 1.65453 0
M  V30 4793 O 460.461 -3.14703 3.04785 0
M  V30 4794 C 461.962 -4.15289 1.55079 0
M  V30 4795 H 459.182 -0.558162 0.37242 0
M  V30 4796 H 461.726 -1.26093 1.60999 0
M  V30 4797 H 459.881 -3.70053 1.14629 0
M  V30 4798 H 460.295 -4.05056 3.33212 0
M  V30 4799 H 461.769 -5.13965 2.01355 0
M  V30 4800 H 462.246 -4.36279 0.505665 0
M  V30 4801 H 462.852 -3.72543 2.05163 0
M  V30 4802 N 461.167 -1.02423 -1.1978 0
M  V30 4803 C 462.13 -0.605703 -2.21052 0
M  V30 4804 C 463.13 0.328209 -1.57415 0
M  V30 4805 O 464.32 0.115853 -1.73814 0
M  V30 4806 C 461.452 0.114366 -3.40708 0
M  V30 4807 H 462.645 -1.5017 -2.59594 0
M  V30 4808 H 460.198 -0.814888 -1.33376 0
M  V30 4809 H 460.933 1.02492 -3.07678 0
M  V30 4810 H 460.718 -0.556641 -3.88129 0
M  V30 4811 H 462.208 0.394272 -4.15735 0
M  V30 4812 N 462.645 1.35699 -0.801477 0
M  V30 4813 C 463.578 2.2768 -0.153922 0
M  V30 4814 C 464.556 1.47832 0.67709 0
M  V30 4815 O 465.74 1.77104 0.645474 0
M  V30 4816 C 462.867 3.2943 0.786986 0
M  V30 4817 C 461.913 4.26485 0.0362447 0
M  V30 4818 S 462.746 5.19573 -1.2963 0
M  V30 4819 C 463.902 6.24866 -0.359705 0
M  V30 4820 H 464.135 2.82254 -0.9338 0
M  V30 4821 H 461.668 1.42421 -0.596283 0
M  V30 4822 H 463.626 3.8855 1.32436 0
M  V30 4823 H 462.287 2.73745 1.54021 0
M  V30 4824 H 461.48 4.98378 0.750668 0
M  V30 4825 H 461.082 3.71508 -0.431017 0
M  V30 4826 H 463.374 6.75957 0.456954 0
M  V30 4827 H 464.317 7.00307 -1.04768 0
M  V30 4828 H 464.725 5.64484 0.0423274 0
M  V30 4829 N 464.123 0.554532 1.47522 0
M  V30 4830 C 465.369 0.0295227 2.02779 0
M  V30 4831 C 465.702 -1.31582 1.42828 0
M  V30 4832 O 464.977 -1.85561 0.582872 0
M  V30 4833 C 465.26 -0.0664057 3.60039 0
M  V30 4834 C 465.113 1.30585 4.30427 0
M  V30 4835 C 466.432 -0.781162 4.33112 0
M  V30 4836 H 463.551 0.0122027 0.736899 0
M  V30 4837 H 466.193 0.716305 1.7598 0
M  V30 4838 H 464.343 -0.651307 3.83002 0
M  V30 4839 H 466.015 1.93374 4.18813 0
M  V30 4840 H 464.258 1.88125 3.90886 0
M  V30 4841 H 464.929 1.19147 5.38988 0
M  V30 4842 H 467.405 -0.284565 4.15126 0
M  V30 4843 H 466.281 -0.817237 5.42782 0
M  V30 4844 H 466.542 -1.83672 4.0214 0
M  V30 4845 N 465.601 -1.54893 0.290851 0
M  V30 4846 C 466.829 -2.04343 -0.324288 0
M  V30 4847 C 467.244 -1.16859 -1.48289 0
M  V30 4848 O 466.601 -0.192018 -1.81487 0
M  V30 4849 C 466.652 -3.52756 -0.79026 0
M  V30 4850 O 466.373 -4.36913 0.322213 0
M  V30 4851 C 467.874 -4.18161 -1.4716 0
M  V30 4852 H 465.094 -0.667135 -0.0719173 0
M  V30 4853 H 467.638 -1.99981 0.427529 0
M  V30 4854 H 465.793 -3.57511 -1.49213 0
M  V30 4855 H 466.207 -5.24486 -0.0387372 0
M  V30 4856 H 467.681 -5.23562 -1.7489 0
M  V30 4857 H 468.158 -3.67282 -2.40834 0
M  V30 4858 H 468.764 -4.17454 -0.813178 0
M  V30 4859 N 467.08 -0.0183926 -1.57589 0
M  V30 4860 C 468.305 0.676634 -1.96052 0
M  V30 4861 C 468.73 1.6548 -0.894307 0
M  V30 4862 O 468.088 1.80712 0.145849 0
M  V30 4863 C 468.136 1.36872 -3.33614 0
M  V30 4864 O 467.24 2.48372 -3.29219 0
M  V30 4865 H 466.581 0.1786 -0.63953 0
M  V30 4866 H 469.111 -0.077056 -2.04455 0
M  V30 4867 H 469.121 1.72797 -3.69601 0
M  V30 4868 H 467.796 0.651636 -4.10763 0
M  V30 4869 H 466.373 2.14639 -3.04934 0
M  V30 4870 N 468.558 1.5553 0.254621 0
M  V30 4871 C 469.783 1.81383 1.00573 0
M  V30 4872 C 470.208 0.594419 1.78461 0
M  V30 4873 O 469.566 -0.456403 1.75461 0
M  V30 4874 C 469.614 3.04892 1.92545 0
M  V30 4875 O 468.718 2.81266 3.01601 0
M  V30 4876 H 468.059 0.598969 0.286587 0
M  V30 4877 H 470.589 2.02703 0.277952 0
M  V30 4878 H 470.599 3.34119 2.34155 0
M  V30 4879 H 469.274 3.93287 1.3527 0
M  V30 4880 H 467.851 2.63185 2.64174 0
M  V30 4881 N 470.036 -0.519951 1.48776 0
M  V30 4882 C 471.264 -1.29971 1.60982 0
M  V30 4883 C 471.679 -1.86803 0.273885 0
M  V30 4884 O 471.036 -1.66904 -0.738193 0
M  V30 4885 C 471.087 -2.44346 2.66415 0
M  V30 4886 O 470.808 -1.89855 3.94825 0
M  V30 4887 C 472.309 -3.36014 2.89153 0
M  V30 4888 H 469.529 -0.394891 0.542496 0
M  V30 4889 H 472.073 -0.626214 1.94676 0
M  V30 4890 H 470.228 -3.07562 2.35552 0
M  V30 4891 H 470.642 -2.64798 4.5275 0
M  V30 4892 H 472.116 -4.12593 3.66703 0
M  V30 4893 H 472.593 -3.91859 1.98351 0
M  V30 4894 H 473.199 -2.78582 3.21359 0
M  V30 4895 N 471.514 -1.37532 -0.769588 0
M  V30 4896 C 472.739 -1.36231 -1.56384 0
M  V30 4897 C 473.164 0.0495849 -1.88035 0
M  V30 4898 O 472.522 1.02723 -1.49391 0
M  V30 4899 C 472.57 -2.20986 -2.84952 0
M  V30 4900 O 471.674 -1.61597 -3.79421 0
M  V30 4901 H 471.015 -0.465387 -0.473615 0
M  V30 4902 H 473.545 -1.81085 -0.952342 0
M  V30 4903 H 473.555 -2.34277 -3.34034 0
M  V30 4904 H 472.23 -3.23612 -2.61243 0
M  V30 4905 H 470.807 -1.57359 -3.38072 0
M  V30 4906 N 472.992 0.995999 -1.22138 0
M  V30 4907 C 474.403 1.54961 -1.04135 0
M  V30 4908 C 474.754 1.92159 0.396147 0
M  V30 4909 O 473.879 1.74435 1.28069 0
M  V30 4910 C 474.474 2.81581 -1.88408 0
M  V30 4911 C 473.033 3.33396 -1.74712 0
M  V30 4912 C 472.18 2.06509 -1.85066 0
M  V30 4913 H 475.131 0.817436 -1.36028 0
M  V30 4914 H 475.152 3.53822 -1.39966 0
M  V30 4915 H 474.664 2.54476 -2.93025 0
M  V30 4916 H 472.765 3.65416 -0.728159 0
M  V30 4917 H 472.878 4.04208 -2.57202 0
M  V30 4918 H 471.242 2.19925 -1.28472 0
M  V30 4919 H 472.025 1.81804 -2.91208 0
M  V30 4920 N 474.47 1.03057 1.19235 0
M  V30 4921 C 475.718 0.726581 1.88587 0
M  V30 4922 C 476.039 -0.747227 1.80115 0
M  V30 4923 O 475.309 -1.53849 1.21274 0
M  V30 4924 H 473.889 0.265768 0.698124 0
M  V30 4925 H 476.551 1.30516 1.44746 0
M  V30 4926 H 475.647 1.0224 2.94879 0
M  V30 4927 N 475.948 -1.35272 0.808662 0
M  V30 4928 C 476.895 -2.29764 0.218482 0
M  V30 4929 C 477.865 -1.52911 -0.648652 0
M  V30 4930 O 479.05 -1.81341 -0.593297 0
M  V30 4931 C 476.19 -3.39388 -0.625282 0
M  V30 4932 C 475.303 -4.31202 0.262516 0
M  V30 4933 C 474.438 -5.27919 -0.589451 0
M  V30 4934 C 473.477 -6.11371 0.298617 0
M  V30 4935 N 472.614 -7.0022 -0.513443 0
M  V30 4936 H 477.454 -2.79645 1.02968 0
M  V30 4937 H 474.991 -1.37629 0.519303 0
M  V30 4938 H 476.949 -4.01615 -1.12966 0
M  V30 4939 H 475.579 -2.90777 -1.40173 0
M  V30 4940 H 474.631 -3.69962 0.885013 0
M  V30 4941 H 475.943 -4.89748 0.945971 0
M  V30 4942 H 475.097 -5.95529 -1.15888 0
M  V30 4943 H 473.836 -4.69875 -1.30647 0
M  V30 4944 H 472.841 -5.42707 0.880301 0
M  V30 4945 H 474.066 -6.71494 1.01352 0
M  V30 4946 H 472.012 -6.44662 -1.21439 0
M  V30 4947 H 471.929 -7.55917 0.111922 0
M  V30 4948 H 473.197 -7.72175 -1.06608 0
M  V30 4949 N 477.426 -0.562348 -1.47226 0
M  V30 4950 C 478.672 -0.0485293 -2.03342 0
M  V30 4951 C 479.027 1.28898 -1.42839 0
M  V30 4952 O 478.32 1.82719 -0.576563 0
M  V30 4953 C 478.514 0.0969817 -3.57268 0
M  V30 4954 C 478.343 -1.22487 -4.32697 0
M  V30 4955 C 477.113 -1.79357 -4.72397 0
M  V30 4956 C 479.311 -2.14332 -4.67511 0
M  V30 4957 N 477.293 -3.05493 -5.32491 0
M  V30 4958 C 478.664 -3.25049 -5.27961 0
M  V30 4959 C 480.719 -2.14263 -4.4944 0
M  V30 4960 C 479.422 -4.35804 -5.72248 0
M  V30 4961 C 481.448 -3.24033 -4.94729 0
M  V30 4962 C 480.81 -4.3347 -5.55233 0
M  V30 4963 H 476.909 -0.0600464 -0.779691 0
M  V30 4964 H 479.493 -0.750769 -1.79643 0
M  V30 4965 H 477.664 0.768353 -3.80724 0
M  V30 4966 H 479.396 0.613333 -4.00025 0
M  V30 4967 H 476.151 -1.33093 -4.54514 0
M  V30 4968 H 476.575 -3.698 -5.67077 0
M  V30 4969 H 481.217 -1.30935 -4.02015 0
M  V30 4970 H 478.935 -5.19888 -6.18661 0
M  V30 4971 H 482.521 -3.25073 -4.82513 0
M  V30 4972 H 481.401 -5.17008 -5.89638 0
M  V30 4973 N 478.904 1.54736 -0.299062 0
M  V30 4974 C 480.129 2.04975 0.316254 0
M  V30 4975 C 480.554 1.17501 1.46885 0
M  V30 4976 O 479.912 0.178678 1.80417 0
M  V30 4977 C 479.96 3.52672 0.751997 0
M  V30 4978 O 479.064 3.68226 1.85697 0
M  V30 4979 H 478.405 0.661126 0.0617175 0
M  V30 4980 H 480.935 1.99805 -0.440341 0
M  V30 4981 H 480.945 3.94488 1.04133 0
M  V30 4982 H 479.62 4.158 -0.0911482 0
M  V30 4983 H 478.197 3.38316 1.56834 0
M  V30 4984 N 480.382 0.0267497 1.57577 0
M  V30 4985 C 481.314 -0.984594 2.06974 0
M  V30 4986 C 482.327 -1.29032 0.992705 0
M  V30 4987 O 483.516 -1.25539 1.26895 0
M  V30 4988 C 480.616 -2.31262 2.47732 0
M  V30 4989 C 479.789 -2.1924 3.78487 0
M  V30 4990 C 478.848 -3.34956 4.05821 0
M  V30 4991 O 477.874 -3.11948 4.76106 0
M  V30 4992 N 479.076 -4.58672 3.55809 0
M  V30 4993 H 481.841 -0.563143 2.94362 0
M  V30 4994 H 479.402 -0.160061 1.61107 0
M  V30 4995 H 481.394 -3.07496 2.63112 0
M  V30 4996 H 479.964 -2.65056 1.65723 0
M  V30 4997 H 479.184 -1.27747 3.72927 0
M  V30 4998 H 480.472 -2.08409 4.64158 0
M  V30 4999 H 479.87 -4.8026 2.98942 0
M  V30 5000 H 478.427 -5.32083 3.76472 0
M  V30 5001 N 481.861 -1.55662 -0.24637 0
M  V30 5002 C 483.108 -1.77519 -0.974335 0
M  V30 5003 C 483.436 -0.591165 -1.85298 0
M  V30 5004 O 482.691 0.425497 -1.91018 0
M  V30 5005 C 482.99 -3.04885 -1.86494 0
M  V30 5006 C 482.656 -4.36209 -1.14161 0
M  V30 5007 C 481.318 -4.71896 -0.941701 0
M  V30 5008 C 483.67 -5.17391 -0.628957 0
M  V30 5009 C 480.998 -5.86299 -0.216852 0
M  V30 5010 C 483.35 -6.32546 0.0824273 0
M  V30 5011 C 482.014 -6.66853 0.293807 0
M  V30 5012 H 481.284 -0.649588 -0.356535 0
M  V30 5013 H 483.931 -1.89934 -0.244394 0
M  V30 5014 H 482.236 -2.87484 -2.66196 0
M  V30 5015 H 483.933 -3.18994 -2.42989 0
M  V30 5016 H 480.523 -4.08174 -1.30736 0
M  V30 5017 H 484.707 -4.90276 -0.770943 0
M  V30 5018 H 479.963 -6.11385 -0.0426124 0
M  V30 5019 H 484.137 -6.94693 0.487292 0
M  V30 5020 H 481.764 -7.55349 0.857428 0
M  V30 5021 N 483.339 0.512053 -1.4905 0
M  V30 5022 C 484.586 1.26686 -1.57978 0
M  V30 5023 C 484.914 1.92733 -0.261553 0
M  V30 5024 O 484.169 1.80772 0.749667 0
M  V30 5025 C 484.468 2.36446 -2.68008 0
M  V30 5026 C 484.134 1.87932 -4.09869 0
M  V30 5027 C 482.796 1.74419 -4.48477 0
M  V30 5028 C 485.148 1.5149 -4.98698 0
M  V30 5029 C 482.476 1.22827 -5.73699 0
M  V30 5030 C 484.828 1.01355 -6.24428 0
M  V30 5031 C 483.492 0.864735 -6.61875 0
M  V30 5032 H 482.762 0.463577 -0.578081 0
M  V30 5033 H 485.409 0.569421 -1.82838 0
M  V30 5034 H 483.714 3.11933 -2.37076 0
M  V30 5035 H 485.411 2.9453 -2.72127 0
M  V30 5036 H 482.001 1.99405 -3.79389 0
M  V30 5037 H 486.185 1.60782 -4.69535 0
M  V30 5038 H 481.441 1.10008 -6.01422 0
M  V30 5039 H 485.615 0.722351 -6.92644 0
M  V30 5040 H 483.242 0.462777 -7.5879 0
M  V30 5041 N 484.817 1.37938 0.762283 0
M  V30 5042 C 485.765 1.34569 1.89721 0
M  V30 5043 C 486.759 0.232929 1.67791 0
M  V30 5044 O 487.965 0.401485 1.75465 0
M  V30 5045 H 484.34 0.419594 0.624055 0
M  V30 5046 H 486.311 2.30357 1.8968 0
M  V30 5047 C 485.06 1.17898 3.27101 0
M  V30 5048 H 484.383 2.02781 3.44558 0
M  V30 5049 H 485.823 1.19593 4.06784 0
M  V30 5050 C 484.282 -0.114728 3.36705 0
M  V30 5051 O 484.812 -1.0949 3.8649 0
M  V30 5052 N 483.018 -0.16863 2.9011 0
M  V30 5053 H 482.565 0.62967 2.49786 0
M  V30 5054 H 482.523 -1.03383 2.96916 0
M  V30 5055 N 486.295 -0.989507 1.22664 0
M  V30 5056 C 487.706 -1.54406 1.04955 0
M  V30 5057 C 488.057 -1.92366 -0.385951 0
M  V30 5058 O 487.182 -1.75111 -1.27142 0
M  V30 5059 C 487.777 -2.80578 1.89899 0
M  V30 5060 C 486.336 -3.32464 1.76478 0
M  V30 5061 C 485.483 -2.05524 1.86159 0
M  V30 5062 H 488.434 -0.810211 1.3646 0
M  V30 5063 H 488.455 -3.53075 1.4184 0
M  V30 5064 H 487.967 -2.52918 2.94371 0
M  V30 5065 H 486.068 -3.65024 0.747528 0
M  V30 5066 H 486.181 -4.02838 2.59342 0
M  V30 5067 H 484.545 -2.19241 1.29636 0
M  V30 5068 H 485.328 -1.80258 2.92168 0
M  V30 5069 N 487.773 -1.03688 -1.18687 0
M  V30 5070 C 489.022 -0.733235 -1.879 0
M  V30 5071 C 489.335 0.741745 -1.8099 0
M  V30 5072 O 490.541 1.15875 -2.4553 0
M  V30 5073 C 488.997 -1.26127 -3.37076 0
M  V30 5074 C 488.605 -2.76461 -3.52524 0
M  V30 5075 C 490.349 -1.03398 -4.11715 0
M  V30 5076 C 488.256 -3.22642 -4.95637 0
M  V30 5077 H 487.186 -0.270584 -0.703776 0
M  V30 5078 H 489.837 -1.25222 -1.34133 0
M  V30 5079 H 488.219 -0.670165 -3.90288 0
M  V30 5080 H 489.393 -3.41296 -3.09602 0
M  V30 5081 H 487.708 -2.97559 -2.91286 0
M  V30 5082 H 490.305 -1.3542 -5.17267 0
M  V30 5083 H 490.648 0.0289246 -4.1629 0
M  V30 5084 H 491.181 -1.5895 -3.64664 0
M  V30 5085 H 487.92 -4.28296 -4.96228 0
M  V30 5086 H 487.44 -2.62539 -5.39289 0
M  V30 5087 H 489.119 -3.16444 -5.64333 0
M  V30 5088 N 489.251 1.34841 -0.815825 0
M  V30 5089 C 490.491 2.00321 -0.406297 0
M  V30 5090 C 490.855 1.63293 1.00992 0
M  V30 5091 O 492.056 2.21563 1.52195 0
M  V30 5092 C 490.327 3.52421 -0.594469 0
M  V30 5093 S 491.886 4.37926 -0.276735 0
M  V30 5094 H 488.704 0.694155 -0.153848 0
M  V30 5095 H 491.306 1.64263 -1.06009 0
M  V30 5096 H 490.01 3.76858 -1.625 0
M  V30 5097 H 489.541 3.9333 0.0743157 0
M  V30 5098 H 491.556 4.87743 0.912215 0
M  V30 5099 N 490.729 0.570148 1.46925 0
M  V30 5100 C 491.969 0.0534743 2.0433 0
M  V30 5101 C 492.333 -1.27729 1.4335 0
M  V30 5102 O 493.534 -1.88244 1.91879 0
M  V30 5103 C 491.805 -0.0244296 3.57392 0
M  V30 5104 S 493.364 -0.485351 4.36108 0
M  V30 5105 H 490.182 0.0313908 0.710307 0
M  V30 5106 H 492.784 0.759808 1.80131 0
M  V30 5107 H 491.488 0.948261 3.99295 0
M  V30 5108 H 491.019 -0.753922 3.86108 0
M  V30 5109 H 493.034 -1.74258 4.64595 0
M  V30 5110 N 492.207 -1.54576 0.307264 0
M  V30 5111 C 493.454 -2.00263 -0.300167 0
M  V30 5112 C 493.782 -1.19561 -1.53413 0
M  V30 5113 O 493.037 -0.261487 -1.93945 0
M  V30 5114 C 493.336 -3.50572 -0.695253 0
M  V30 5115 C 493.002 -4.48771 0.437679 0
M  V30 5116 C 491.664 -4.7534 0.748681 0
M  V30 5117 C 494.016 -5.0721 1.19949 0
M  V30 5118 C 491.344 -5.5761 1.8245 0
M  V30 5119 C 493.696 -5.90651 2.26527 0
M  V30 5120 C 492.36 -6.15528 2.58227 0
M  V30 5121 H 491.63 -0.732814 -0.109839 0
M  V30 5122 H 494.277 -1.86664 0.427661 0
M  V30 5123 H 492.582 -3.61814 -1.50326 0
M  V30 5124 H 494.279 -3.83352 -1.17653 0
M  V30 5125 H 490.869 -4.282 0.185187 0
M  V30 5126 H 495.053 -4.86679 0.972474 0
M  V30 5127 H 490.309 -5.75121 2.07476 0
M  V30 5128 H 494.483 -6.34957 2.86011 0
M  V30 5129 H 492.11 -6.79066 3.4172 0
M  V30 5130 N 493.685 -0.035106 -1.57561 0
M  V30 5131 C 494.615 0.942993 -2.13612 0
M  V30 5132 C 495.596 1.33531 -1.05373 0
M  V30 5133 O 496.781 1.41287 -1.33235 0
M  V30 5134 C 493.911 2.22332 -2.66807 0
M  V30 5135 C 492.865 1.97156 -3.79886 0
M  V30 5136 C 492.191 3.31506 -4.19533 0
M  V30 5137 C 493.491 1.30596 -5.05709 0
M  V30 5138 H 495.185 0.476179 -2.95589 0
M  V30 5139 H 492.731 0.227602 -1.4219 0
M  V30 5140 H 494.684 2.91142 -3.04654 0
M  V30 5141 H 493.408 2.7119 -1.81999 0
M  V30 5142 H 492.067 1.30763 -3.42486 0
M  V30 5143 H 491.715 3.78134 -3.31698 0
M  V30 5144 H 491.415 3.15465 -4.95738 0
M  V30 5145 H 492.939 4.01574 -4.59968 0
M  V30 5146 H 494.353 1.89416 -5.41105 0
M  V30 5147 H 492.75 1.24934 -5.86951 0
M  V30 5148 H 493.82 0.279742 -4.84092 0
M  V30 5149 N 495.163 1.55791 0.238111 0
M  V30 5150 C 496.093 1.94068 1.29846 0
M  V30 5151 C 497.074 0.806726 1.49753 0
M  V30 5152 O 498.259 1.06772 1.62214 0
M  V30 5153 C 495.389 2.24302 2.65153 0
M  V30 5154 C 494.343 3.40032 2.59927 0
M  V30 5155 C 493.669 3.55829 3.99111 0
M  V30 5156 C 494.969 4.75476 2.16148 0
M  V30 5157 H 496.663 2.82887 0.980563 0
M  V30 5158 H 494.209 1.36105 0.470253 0
M  V30 5159 H 496.162 2.4967 3.39475 0
M  V30 5160 H 494.886 1.32318 2.98596 0
M  V30 5161 H 493.545 3.14687 1.88063 0
M  V30 5162 H 493.193 2.6125 4.29834 0
M  V30 5163 H 492.893 4.3366 3.96501 0
M  V30 5164 H 494.417 3.83528 4.7512 0
M  V30 5165 H 495.831 5.00158 2.80205 0
M  V30 5166 H 494.228 5.56472 2.24631 0
M  V30 5167 H 495.298 4.71946 1.11333 0
M  V30 5168 N 496.642 -0.504142 1.49319 0
M  V30 5169 C 497.889 -1.25846 1.58647 0
M  V30 5170 C 498.217 -1.92592 0.27177 0
M  V30 5171 O 497.472 -1.81167 -0.74007 0
M  V30 5172 C 497.771 -2.35021 2.69258 0
M  V30 5173 C 497.437 -1.85755 4.1086 0
M  V30 5174 C 496.099 -1.72038 4.49395 0
M  V30 5175 C 498.451 -1.48844 4.99495 0
M  V30 5176 C 495.779 -1.19783 5.74342 0
M  V30 5177 C 498.131 -0.980422 6.24956 0
M  V30 5178 C 496.795 -0.829622 6.62324 0
M  V30 5179 H 496.065 -0.460505 0.580531 0
M  V30 5180 H 498.712 -0.559716 1.83138 0
M  V30 5181 H 497.017 -3.10672 2.38726 0
M  V30 5182 H 498.714 -2.93083 2.73685 0
M  V30 5183 H 495.304 -1.9739 3.80441 0
M  V30 5184 H 499.488 -1.5829 4.70381 0
M  V30 5185 H 494.744 -1.06817 6.01997 0
M  V30 5186 H 498.918 -0.685608 6.93017 0
M  V30 5187 H 496.545 -0.42253 7.59025 0
M  V30 5188 N 498.12 -1.38341 -0.754957 0
M  V30 5189 C 499.068 -1.35573 -1.89005 0
M  V30 5190 C 500.062 -0.241824 -1.67665 0
M  V30 5191 O 501.268 -0.410785 -1.7525 0
M  V30 5192 H 497.643 -0.422898 -0.621821 0
M  V30 5193 H 499.614 -2.31359 -1.88455 0
M  V30 5194 C 498.363 -1.19631 -3.26471 0
M  V30 5195 H 497.686 -2.04605 -3.43477 0
M  V30 5196 H 499.126 -1.21748 -4.06144 0
M  V30 5197 C 497.585 0.0968705 -3.36761 0
M  V30 5198 O 498.115 1.07439 -3.87066 0
M  V30 5199 N 496.321 0.153242 -2.90196 0
M  V30 5200 H 495.868 -0.642908 -2.49448 0
M  V30 5201 H 495.826 1.01807 -2.9746 0
M  V30 5202 N 499.598 0.982988 -1.23187 0
M  V30 5203 C 500.847 1.71817 -1.05649 0
M  V30 5204 C 501.16 1.91315 0.407176 0
M  V30 5205 O 502.366 2.62256 0.702436 0
M  V30 5206 C 500.822 3.09188 -1.84203 0
M  V30 5207 C 500.43 2.97586 -3.34882 0
M  V30 5208 C 502.174 3.86684 -1.75146 0
M  V30 5209 C 500.081 4.30173 -4.05839 0
M  V30 5210 H 499.011 0.644258 -0.391724 0
M  V30 5211 H 501.662 1.09659 -1.4713 0
M  V30 5212 H 500.044 3.72087 -1.35527 0
M  V30 5213 H 501.218 2.43793 -3.91026 0
M  V30 5214 H 499.533 2.33567 -3.44725 0
M  V30 5215 H 502.13 4.84836 -2.25473 0
M  V30 5216 H 502.473 4.10136 -0.713737 0
M  V30 5217 H 503.006 3.30482 -2.21419 0
M  V30 5218 H 499.745 4.11918 -5.09906 0
M  V30 5219 H 499.265 4.83841 -3.54482 0
M  V30 5220 H 500.944 4.98873 -4.11989 0
M  V30 5221 N 501.076 1.04316 1.18135 0
M  V30 5222 C 502.009 0.580823 2.20685 0
M  V30 5223 C 502.987 -0.385943 1.57953 0
M  V30 5224 O 504.171 -0.299654 1.86103 0
M  V30 5225 C 501.298 -0.151162 3.38363 0
M  V30 5226 C 500.344 0.769247 4.19505 0
M  V30 5227 S 501.177 2.25352 4.85774 0
M  V30 5228 C 502.333 1.53246 6.0685 0
M  V30 5229 H 502.566 1.44968 2.5956 0
M  V30 5230 H 500.099 0.85434 1.28609 0
M  V30 5231 H 502.057 -0.567315 4.06561 0
M  V30 5232 H 500.718 -0.995936 2.97892 0
M  V30 5233 H 499.911 0.203335 5.0359 0
M  V30 5234 H 499.513 1.12436 3.56699 0
M  V30 5235 H 501.805 0.82689 6.72435 0
M  V30 5236 H 502.748 2.35044 6.67952 0
M  V30 5237 H 503.156 1.0237 5.5514 0
M  V30 5238 N 502.554 -1.34406 0.822964 0
M  V30 5239 C 503.831 -1.92733 0.333641 0
M  V30 5240 C 504.211 -1.75107 -1.17901 0
M  V30 5241 O 503.559 -1.12983 -1.98613 0
M  V30 5242 C 503.769 -3.40557 0.763023 0
M  V30 5243 C 505.117 -4.17709 0.761879 0
M  V30 5244 O 506.141 -3.49141 0.705606 0
M  V30 5245 O 505 -5.40082 0.835109 0
M  V30 5246 H 502.094 -0.821964 0.0911249 0
M  V30 5247 H 504.64 -1.4338 0.907757 0
M  V30 5248 H 503.412 -3.47187 1.8049 0
M  V30 5249 H 503.035 -3.97259 0.164605 0
M  V30 5250 N 504.032 -0.577932 -1.46621 0
M  V30 5251 C 505.278 -0.0700937 -2.03279 0
M  V30 5252 C 505.633 1.27376 -1.44198 0
M  V30 5253 O 504.926 1.82097 -0.595911 0
M  V30 5254 C 505.12 0.0590832 -3.57351 0
M  V30 5255 C 504.949 -1.2707 -4.31374 0
M  V30 5256 C 503.719 -1.84357 -4.70469 0
M  V30 5257 C 505.917 -2.19278 -4.65211 0
M  V30 5258 N 503.899 -3.11124 -5.29221 0
M  V30 5259 C 505.27 -3.30631 -5.24484 0
M  V30 5260 C 507.325 -2.19018 -4.47142 0
M  V30 5261 C 506.028 -4.41849 -5.67593 0
M  V30 5262 C 508.054 -3.29262 -4.91264 0
M  V30 5263 C 507.416 -4.39335 -5.50604 0
M  V30 5264 H 503.515 -0.0683127 -0.779011 0
M  V30 5265 H 506.099 -0.76978 -1.78836 0
M  V30 5266 H 504.27 0.727929 -3.81518 0
M  V30 5267 H 506.002 0.57087 -4.00653 0
M  V30 5268 H 502.757 -1.37906 -4.53077 0
M  V30 5269 H 503.181 -3.75794 -5.63123 0
M  V30 5270 H 507.823 -1.35191 -4.00604 0
M  V30 5271 H 505.541 -5.26421 -6.13112 0
M  V30 5272 H 509.127 -3.30172 -4.79038 0
M  V30 5273 H 508.007 -5.23233 -5.84121 0
M  V30 5274 N 505.51 1.54411 -0.315457 0
M  V30 5275 C 506.44 2.27002 0.547039 0
M  V30 5276 C 507.421 1.27492 1.12605 0
M  V30 5277 O 508.606 1.5629 1.15269 0
M  V30 5278 C 505.736 3.02171 1.71201 0
M  V30 5279 C 504.69 4.0895 1.26268 0
M  V30 5280 C 504.016 4.71915 2.51396 0
M  V30 5281 C 505.316 5.20891 0.383419 0
M  V30 5282 H 507.01 2.99343 -0.0584517 0
M  V30 5283 H 504.556 1.4397 -0.0295527 0
M  V30 5284 H 506.509 3.51681 2.32161 0
M  V30 5285 H 505.233 2.27433 2.34397 0
M  V30 5286 H 503.892 3.60312 0.676062 0
M  V30 5287 H 503.54 3.93801 3.12937 0
M  V30 5288 H 503.24 5.44039 2.22026 0
M  V30 5289 H 504.764 5.24195 3.13133 0
M  V30 5290 H 506.178 5.66206 0.899082 0
M  V30 5291 H 504.575 5.99821 0.182857 0
M  V30 5292 H 505.645 4.81324 -0.587821 0
M  V30 5293 N 506.988 0.0434614 1.5754 0
M  V30 5294 C 508.236 -0.630786 1.92004 0
M  V30 5295 C 508.557 -1.71836 0.921807 0
M  V30 5296 O 507.827 -1.9587 -0.034522 0
M  V30 5297 H 506.407 -0.235988 0.708745 0
M  V30 5298 H 509.069 0.0946462 1.9467 0
M  V30 5299 H 508.165 -1.07434 2.93026 0
M  V30 5300 N 508.466 -1.55915 -0.229846 0
M  V30 5301 C 509.882 -1.48721 -0.579166 0
M  V30 5302 C 510.082 -0.736976 -1.87539 0
M  V30 5303 O 509.138 -0.273258 -2.51017 0
M  V30 5304 C 510.451 -2.9323 -0.666082 0
M  V30 5305 C 511.999 -3.03701 -0.757267 0
M  V30 5306 C 512.474 -4.49552 -0.8756 0
M  V30 5307 N 513.965 -4.53561 -0.940035 0
M  V30 5308 C 514.7 -5.63683 -1.05116 0
M  V30 5309 N 514.196 -6.83576 -1.12675 0
M  V30 5310 N 515.989 -5.51516 -1.08565 0
M  V30 5311 H 508.14 -2.03123 0.620857 0
M  V30 5312 H 510.403 -0.922898 0.21671 0
M  V30 5313 H 510.109 -3.51032 0.21664 0
M  V30 5314 H 509.983 -3.44668 -1.53243 0
M  V30 5315 H 512.37 -2.45969 -1.63043 0
M  V30 5316 H 512.451 -2.55446 0.134583 0
M  V30 5317 H 512.095 -5.079 -0.00692351 0
M  V30 5318 H 512.025 -4.95506 -1.78274 0
M  V30 5319 H 514.516 -3.67215 -0.892269 0
M  V30 5320 H 514.829 -7.63251 -1.21109 0
M  V30 5321 H 513.174 -6.86303 -1.09603 0
M  V30 5322 H 516.365 -4.5678 -1.02319 0
M  V30 5323 H 516.538 -6.37372 -1.1688 0
M  V30 5324 N 509.944 0.496216 -1.49584 0
M  V30 5325 C 511.169 1.27865 -1.63295 0
M  V30 5326 C 511.594 1.85592 -0.306156 0
M  V30 5327 O 510.952 1.66092 0.726851 0
M  V30 5328 C 511 2.38128 -2.7079 0
M  V30 5329 O 510.104 3.42108 -2.30296 0
M  V30 5330 H 509.445 0.377279 -0.546403 0
M  V30 5331 H 511.975 0.593497 -1.95803 0
M  V30 5332 H 511.985 2.8382 -2.93104 0
M  V30 5333 H 510.66 1.95479 -3.67098 0
M  V30 5334 H 509.237 3.02301 -2.18331 0
M  V30 5335 N 511.423 1.38739 0.74761 0
M  V30 5336 C 512.353 1.39173 1.87492 0
M  V30 5337 C 513.334 0.256794 1.6815 0
M  V30 5338 O 514.519 0.460762 1.88655 0
M  V30 5339 C 511.649 1.22197 3.25093 0
M  V30 5340 C 510.603 2.32957 3.59047 0
M  V30 5341 C 509.929 2.01082 4.95449 0
M  V30 5342 C 511.229 3.75237 3.6331 0
M  V30 5343 H 512.923 2.3351 1.87386 0
M  V30 5344 H 510.469 1.12399 0.900134 0
M  V30 5345 H 512.422 1.21124 4.03617 0
M  V30 5346 H 511.146 0.243241 3.25693 0
M  V30 5347 H 509.805 2.33226 2.82845 0
M  V30 5348 H 509.453 1.01678 4.92616 0
M  V30 5349 H 509.153 2.75267 5.19136 0
M  V30 5350 H 510.677 2.01638 5.76346 0
M  V30 5351 H 512.091 3.76966 4.31937 0
M  V30 5352 H 510.488 4.48677 3.98509 0
M  V30 5353 H 511.558 4.07122 2.634 0
M  V30 5354 N 512.901 -0.976442 1.23707 0
M  V30 5355 C 514.129 -1.75341 1.09833 0
M  V30 5356 C 514.544 -1.8553 -0.349885 0
M  V30 5357 O 513.901 -1.33732 -1.24185 0
M  V30 5358 C 513.952 -3.17833 1.72233 0
M  V30 5359 O 513.673 -3.08167 3.11391 0
M  V30 5360 C 515.174 -4.11906 1.63853 0
M  V30 5361 H 512.394 -0.550137 0.384175 0
M  V30 5362 H 514.938 -1.2265 1.63638 0
M  V30 5363 H 513.093 -3.67538 1.22452 0
M  V30 5364 H 513.507 -3.97897 3.41729 0
M  V30 5365 H 514.981 -5.09579 2.12211 0
M  V30 5366 H 515.458 -4.35109 0.598092 0
M  V30 5367 H 516.064 -3.68107 2.13019 0
M  V30 5368 N 514.379 -1.04941 -1.1758 0
M  V30 5369 C 515.604 -0.778253 -1.92245 0
M  V30 5370 C 516.029 0.659707 -1.76152 0
M  V30 5371 O 515.387 1.45803 -1.07755 0
M  V30 5372 C 515.435 -1.16051 -3.41416 0
M  V30 5373 O 514.539 -0.291153 -4.11371 0
M  V30 5374 H 513.88 -0.285619 -0.599431 0
M  V30 5375 H 516.41 -1.40159 -1.49052 0
M  V30 5376 H 516.42 -1.12619 -3.92149 0
M  V30 5377 H 515.095 -2.208 -3.52449 0
M  V30 5378 H 513.672 -0.385851 -3.70898 0
M  V30 5379 N 515.857 1.33968 -0.830081 0
M  V30 5380 C 517.087 2.01987 -0.434142 0
M  V30 5381 C 517.495 1.62639 0.96671 0
M  V30 5382 O 516.838 0.831151 1.63822 0
M  V30 5383 C 516.9 3.5648 -0.465018 0
M  V30 5384 C 516.564 4.19176 -1.82045 0
M  V30 5385 C 517.561 4.39181 -2.78237 0
M  V30 5386 C 515.246 4.55792 -2.11089 0
M  V30 5387 C 517.24 4.94937 -4.01642 0
M  V30 5388 C 514.927 5.11258 -3.34752 0
M  V30 5389 C 515.925 5.30775 -4.29845 0
M  V30 5390 O 515.613 5.85064 -5.51322 0
M  V30 5391 H 515.345 0.653847 -0.171639 0
M  V30 5392 H 517.899 1.72066 -1.12171 0
M  V30 5393 H 516.129 3.8569 0.279284 0
M  V30 5394 H 517.818 4.05804 -0.0881334 0
M  V30 5395 H 518.584 4.11249 -2.57097 0
M  V30 5396 H 514.463 4.39901 -1.3787 0
M  V30 5397 H 518.007 5.10086 -4.75876 0
M  V30 5398 H 513.904 5.38619 -3.55753 0
M  V30 5399 H 514.672 6.03489 -5.5294 0
M  V30 5400 N 517.335 0.585699 1.46312 0
M  V30 5401 C 518.582 0.0724211 2.0237 0
M  V30 5402 C 518.91 -1.28868 1.45683 0
M  V30 5403 O 518.165 -1.85853 0.612945 0
M  V30 5404 C 518.464 -0.0401312 3.57377 0
M  V30 5405 C 518.13 1.25376 4.33119 0
M  V30 5406 C 516.792 1.60824 4.5353 0
M  V30 5407 C 519.144 2.10987 4.76586 0
M  V30 5408 C 516.472 2.81676 5.14661 0
M  V30 5409 C 518.824 3.31068 5.39052 0
M  V30 5410 C 517.488 3.66794 5.5769 0
M  V30 5411 H 516.758 0.0265007 0.740526 0
M  V30 5412 H 519.405 0.762935 1.75646 0
M  V30 5413 H 517.71 -0.813791 3.83255 0
M  V30 5414 H 519.407 -0.453078 3.98432 0
M  V30 5415 H 515.997 0.967808 4.1753 0
M  V30 5416 H 520.181 1.84904 4.60569 0
M  V30 5417 H 515.437 3.0949 5.27282 0
M  V30 5418 H 519.611 3.97672 5.71691 0
M  V30 5419 H 517.238 4.60529 6.04828 0
M  V30 5420 N 518.813 -1.54241 0.323641 0
M  V30 5421 C 519.743 -2.27289 -0.534993 0
M  V30 5422 C 520.724 -1.28087 -1.11927 0
M  V30 5423 O 521.909 -1.56899 -1.14439 0
M  V30 5424 C 519.039 -3.03075 -1.69596 0
M  V30 5425 C 517.993 -4.09614 -1.24098 0
M  V30 5426 C 517.319 -4.73242 -2.4889 0
M  V30 5427 C 518.619 -5.21087 -0.355789 0
M  V30 5428 H 520.313 -2.99308 0.0743257 0
M  V30 5429 H 517.859 -1.43952 0.0371874 0
M  V30 5430 H 519.812 -3.52907 -2.30293 0
M  V30 5431 H 518.536 -2.28673 -2.33187 0
M  V30 5432 H 517.195 -3.60666 -0.656945 0
M  V30 5433 H 516.843 -3.95455 -3.10845 0
M  V30 5434 H 516.543 -5.45209 -2.19138 0
M  V30 5435 H 518.067 -5.25848 -3.10348 0
M  V30 5436 H 519.481 -5.66675 -0.869042 0
M  V30 5437 H 517.878 -5.9991 -0.151045 0
M  V30 5438 H 518.948 -4.81005 0.613339 0
M  V30 5439 N 520.291 -0.0518155 -1.57515 0
M  V30 5440 C 521.537 0.616839 -1.93821 0
M  V30 5441 C 521.892 1.68413 -0.930307 0
M  V30 5442 O 521.185 1.91534 0.0504231 0
M  V30 5443 C 521.379 1.25607 -3.34601 0
M  V30 5444 C 521.208 0.252222 -4.48992 0
M  V30 5445 C 519.978 -0.156031 -5.05059 0
M  V30 5446 C 522.176 -0.502613 -5.11838 0
M  V30 5447 N 520.158 -1.15267 -6.02981 0
M  V30 5448 C 521.529 -1.35232 -6.05072 0
M  V30 5449 C 523.584 -0.560855 -4.94731 0
M  V30 5450 C 522.287 -2.25505 -6.83037 0
M  V30 5451 C 524.313 -1.45102 -5.73323 0
M  V30 5452 C 523.675 -2.28845 -6.6619 0
M  V30 5453 H 519.774 0.197344 -0.75669 0
M  V30 5454 H 522.358 -0.124297 -1.94303 0
M  V30 5455 H 520.529 1.96723 -3.34895 0
M  V30 5456 H 522.261 1.88358 -3.58195 0
M  V30 5457 H 519.016 0.22306 -4.73074 0
M  V30 5458 H 519.44 -1.64791 -6.56638 0
M  V30 5459 H 524.082 0.0723639 -4.22738 0
M  V30 5460 H 521.8 -2.89872 -7.54321 0
M  V30 5461 H 525.386 -1.50066 -5.62113 0
M  V30 5462 H 524.266 -2.96608 -7.25943 0
M  V30 5463 N 521.769 1.56035 0.221574 0
M  V30 5464 C 523.18 1.69229 0.788567 0
M  V30 5465 C 523.531 0.653814 1.84986 0
M  V30 5466 O 522.656 -0.195065 2.15519 0
M  V30 5467 C 523.251 3.06809 1.43713 0
M  V30 5468 C 521.81 3.21858 1.95152 0
M  V30 5469 C 520.957 2.65155 0.811685 0
M  V30 5470 H 523.908 1.587 -0.00307894 0
M  V30 5471 H 523.929 3.02666 2.30594 0
M  V30 5472 H 523.441 3.82369 0.664475 0
M  V30 5473 H 521.542 2.51167 2.7522 0
M  V30 5474 H 521.655 4.29073 2.1315 0
M  V30 5475 H 520.019 2.23635 1.21899 0
M  V30 5476 H 520.802 3.43261 0.0516987 0
M  V30 5477 N 523.247 -0.488276 1.49845 0
M  V30 5478 C 524.524 -1.24959 1.50481 0
M  V30 5479 C 524.904 -2.09735 0.239698 0
M  V30 5480 O 524.252 -2.14865 -0.777524 0
M  V30 5481 C 524.462 -2.0954 2.79095 0
M  V30 5482 C 525.81 -2.68305 3.29086 0
M  V30 5483 O 526.834 -2.19797 2.80299 0
M  V30 5484 O 525.693 -3.56643 4.14087 0
M  V30 5485 H 522.787 -0.566133 0.602845 0
M  V30 5486 H 525.333 -0.501504 1.6212 0
M  V30 5487 H 524.105 -1.46958 3.62656 0
M  V30 5488 H 523.728 -2.91517 2.70377 0
M  V30 5489 N 524.725 -1.39134 -0.740242 0
M  V30 5490 C 525.635 -1.39697 -1.88473 0
M  V30 5491 C 526.651 -0.292403 -1.71526 0
M  V30 5492 O 527.827 -0.533021 -1.94219 0
M  V30 5493 C 524.892 -1.23382 -3.24003 0
M  V30 5494 C 523.953 -2.43763 -3.53381 0
M  V30 5495 C 523.186 -2.28216 -4.82445 0
M  V30 5496 O 523.409 -1.28288 -5.55786 0
M  V30 5497 O 522.343 -3.1709 -5.11603 0
M  V30 5498 H 526.169 -2.36159 -1.90952 0
M  V30 5499 H 523.754 -1.20194 -0.887346 0
M  V30 5500 H 525.636 -1.16395 -4.05006 0
M  V30 5501 H 524.311 -0.300121 -3.22306 0
M  V30 5502 H 523.218 -2.56325 -2.72485 0
M  V30 5503 H 524.551 -3.35808 -3.59852 0
M  V30 5504 N 526.204 0.969867 -1.24223 0
M  V30 5505 C 527.481 1.68774 -0.988664 0
M  V30 5506 C 527.861 2.05342 0.489673 0
M  V30 5507 O 527.209 1.75486 1.46345 0
M  V30 5508 C 527.419 2.92135 -1.90941 0
M  V30 5509 C 528.767 3.64422 -2.17903 0
M  V30 5510 O 529.791 3.02188 -1.88576 0
M  V30 5511 O 528.65 4.76446 -2.67697 0
M  V30 5512 H 525.744 0.737736 -0.37373 0
M  V30 5513 H 528.29 1.02415 -1.35312 0
M  V30 5514 H 527.062 2.61788 -2.90831 0
M  V30 5515 H 526.685 3.66228 -1.54798 0
M  V30 5516 N 527.682 1.05563 1.17022 0
M  V30 5517 C 528.907 0.788437 1.91829 0
M  V30 5518 C 529.332 -0.650356 1.76499 0
M  V30 5519 O 528.69 -1.45229 1.08527 0
M  V30 5520 C 528.738 1.1786 3.40795 0
M  V30 5521 O 527.842 0.312965 4.11211 0
M  V30 5522 H 527.183 0.288794 0.597908 0
M  V30 5523 H 529.713 1.40948 1.48307 0
M  V30 5524 H 529.723 1.14697 3.91546 0
M  V30 5525 H 528.398 2.22666 3.51273 0
M  V30 5526 H 526.975 0.405515 3.70689 0
M  V30 5527 N 529.16 -1.33526 0.837174 0
M  V30 5528 C 530.576 -1.50727 0.524743 0
M  V30 5529 C 530.776 -1.77792 -0.948279 0
M  V30 5530 O 529.832 -1.83719 -1.73216 0
M  V30 5531 C 531.145 -2.66299 1.39661 0
M  V30 5532 C 532.693 -2.80183 1.39521 0
M  V30 5533 C 533.168 -3.98815 2.25189 0
M  V30 5534 N 534.659 -4.06047 2.2289 0
M  V30 5535 C 535.394 -4.97032 2.85915 0
M  V30 5536 N 534.89 -5.93143 3.57985 0
M  V30 5537 N 536.683 -4.90015 2.75394 0
M  V30 5538 H 528.834 -1.1422 1.79074 0
M  V30 5539 H 531.097 -0.561399 0.763894 0
M  V30 5540 H 530.803 -2.52974 2.4433 0
M  V30 5541 H 530.677 -3.61663 1.07145 0
M  V30 5542 H 533.064 -2.92942 0.356253 0
M  V30 5543 H 533.145 -1.85586 1.76044 0
M  V30 5544 H 532.789 -3.86817 3.29143 0
M  V30 5545 H 532.719 -4.92654 1.86009 0
M  V30 5546 H 535.21 -3.37262 1.70478 0
M  V30 5547 H 535.523 -6.59227 4.03286 0
M  V30 5548 H 533.868 -5.93223 3.62093 0
M  V30 5549 H 537.059 -4.13894 2.18654 0
M  V30 5550 H 537.232 -5.60724 3.24796 0
M  V30 5551 N 530.638 -0.59345 -1.46 0
M  V30 5552 C 531.568 0.121192 -2.33185 0
M  V30 5553 C 532.549 0.872977 -1.4599 0
M  V30 5554 O 533.734 0.846321 -1.74789 0
M  V30 5555 C 530.864 1.12844 -3.28456 0
M  V30 5556 C 529.818 0.4908 -4.25177 0
M  V30 5557 C 529.144 1.60529 -5.10034 0
M  V30 5558 C 530.444 -0.578949 -5.19081 0
M  V30 5559 H 532.138 -0.606767 -2.93187 0
M  V30 5560 H 529.684 -0.293242 -1.40983 0
M  V30 5561 H 531.637 1.63684 -3.88311 0
M  V30 5562 H 530.361 1.88681 -2.66584 0
M  V30 5563 H 529.02 0.00339328 -3.666 0
M  V30 5564 H 528.668 2.35359 -4.44539 0
M  V30 5565 H 528.368 1.18422 -5.75543 0
M  V30 5566 H 529.892 2.11623 -5.72755 0
M  V30 5567 H 531.306 -0.155199 -5.7309 0
M  V30 5568 H 529.703 -0.920947 -5.92991 0
M  V30 5569 H 530.773 -1.46109 -4.62364 0
M  V30 5570 N 532.116 1.54067 -0.331816 0
M  V30 5571 C 533.046 2.27569 0.522932 0
M  V30 5572 C 534.027 1.28679 1.11247 0
M  V30 5573 O 535.212 1.57504 1.13605 0
M  V30 5574 C 532.342 3.0397 1.67987 0
M  V30 5575 C 531.296 4.10267 1.21924 0
M  V30 5576 C 530.622 4.74555 2.46377 0
M  V30 5577 C 531.922 5.21268 0.32815 0
M  V30 5578 H 533.616 2.99264 -0.0901977 0
M  V30 5579 H 531.162 1.4393 -0.044821 0
M  V30 5580 H 533.115 3.54123 2.28418 0
M  V30 5581 H 531.839 2.29906 2.31971 0
M  V30 5582 H 530.498 3.61009 0.637809 0
M  V30 5583 H 530.146 3.97098 3.08743 0
M  V30 5584 H 529.846 5.46363 2.16243 0
M  V30 5585 H 531.37 5.27487 3.07555 0
M  V30 5586 H 532.784 5.67128 0.838978 0
M  V30 5587 H 531.181 5.99982 0.119228 0
M  V30 5588 H 532.251 4.80673 -0.638839 0
M  V30 5589 N 533.594 0.0601682 1.57485 0
M  V30 5590 C 535.005 -0.474217 1.80577 0
M  V30 5591 C 535.356 -1.70365 0.973147 0
M  V30 5592 O 534.481 -2.15544 0.192306 0
M  V30 5593 C 535.076 -0.867102 3.27516 0
M  V30 5594 C 533.635 -1.34642 3.51495 0
M  V30 5595 C 532.782 -0.32594 2.75378 0
M  V30 5596 H 535.733 0.285973 1.56102 0
M  V30 5597 H 535.754 -1.72938 3.38929 0
M  V30 5598 H 535.266 0.0278927 3.8809 0
M  V30 5599 H 533.367 -2.2603 2.96212 0
M  V30 5600 H 533.48 -1.33237 4.60201 0
M  V30 5601 H 531.844 -0.800749 2.41785 0
M  V30 5602 H 532.627 0.561125 3.38683 0
M  V30 5603 N 535.072 -1.5615 -0.213296 0
M  V30 5604 C 536.002 -1.96109 -1.26742 0
M  V30 5605 C 536.983 -0.830448 -1.48451 0
M  V30 5606 O 538.168 -1.09339 -1.60495 0
M  V30 5607 C 535.298 -2.28492 -2.61551 0
M  V30 5608 C 534.252 -3.44124 -2.54485 0
M  V30 5609 C 533.578 -3.62134 -3.93399 0
M  V30 5610 C 534.878 -4.78855 -2.08556 0
M  V30 5611 H 536.572 -2.84412 -0.935434 0
M  V30 5612 H 534.118 -1.36836 -0.44854 0
M  V30 5613 H 536.071 -2.55039 -3.3546 0
M  V30 5614 H 534.795 -1.37052 -2.96453 0
M  V30 5615 H 533.454 -3.17639 -1.83033 0
M  V30 5616 H 533.102 -2.68055 -4.25623 0
M  V30 5617 H 532.802 -4.39913 -3.89551 0
M  V30 5618 H 534.326 -3.91038 -4.68958 0
M  V30 5619 H 535.74 -5.04552 -2.72213 0
M  V30 5620 H 534.137 -5.59975 -2.1575 0
M  V30 5621 H 535.207 -4.73657 -1.03811 0
M  V30 5622 N 536.55 0.480323 -1.50102 0
M  V30 5623 C 537.48 1.58769 -1.71215 0
M  V30 5624 C 538.461 1.60583 -0.560997 0
M  V30 5625 O 539.646 1.76996 -0.799127 0
M  V30 5626 C 536.776 2.97148 -1.79778 0
M  V30 5627 C 535.73 3.10201 -2.94888 0
M  V30 5628 C 535.056 4.50137 -2.88584 0
M  V30 5629 C 536.356 2.88283 -4.35534 0
M  V30 5630 H 538.05 1.41354 -2.6393 0
M  V30 5631 H 535.596 0.678591 -1.27008 0
M  V30 5632 H 537.549 3.74536 -1.93133 0
M  V30 5633 H 536.273 3.15699 -0.836772 0
M  V30 5634 H 534.932 2.35244 -2.81169 0
M  V30 5635 H 534.58 4.65593 -1.90349 0
M  V30 5636 H 534.28 4.59808 -3.65856 0
M  V30 5637 H 535.804 5.29558 -3.03976 0
M  V30 5638 H 537.218 3.55427 -4.49827 0
M  V30 5639 H 535.615 3.09408 -5.14186 0
M  V30 5640 H 536.685 1.84219 -4.48544 0
M  V30 5641 N 538.028 1.39524 0.732853 0
M  V30 5642 C 539.274 1.37068 1.49467 0
M  V30 5643 C 539.607 -0.0327166 1.94172 0
M  V30 5644 O 538.882 -0.998071 1.66939 0
M  V30 5645 C 539.165 2.34494 2.73285 0
M  V30 5646 C 539.018 3.83784 2.34585 0
M  V30 5647 C 540.337 2.29717 3.75391 0
M  V30 5648 H 537.456 0.499206 0.542183 0
M  V30 5649 H 540.098 1.70532 0.837783 0
M  V30 5650 H 538.248 2.06087 3.29333 0
M  V30 5651 H 539.92 4.22949 1.84151 0
M  V30 5652 H 538.163 4.00455 1.66787 0
M  V30 5653 H 538.834 4.47444 3.23262 0
M  V30 5654 H 541.31 2.54839 3.28932 0
M  V30 5655 H 540.186 2.99962 4.59689 0
M  V30 5656 H 540.447 1.30291 4.22465 0
M  V30 5657 N 539.506 -0.963266 1.24736 0
M  V30 5658 C 540.746 -1.72172 1.10165 0
M  V30 5659 C 541.11 -1.88731 -0.352784 0
M  V30 5660 O 542.311 -2.61549 -0.620107 0
M  V30 5661 C 540.582 -3.0724 1.82589 0
M  V30 5662 S 542.141 -3.98449 1.83803 0
M  V30 5663 H 538.959 -0.591901 0.393922 0
M  V30 5664 H 541.561 -1.14955 1.58132 0
M  V30 5665 H 540.265 -2.92851 2.87518 0
M  V30 5666 H 539.796 -3.69521 1.34973 0
M  V30 5667 H 541.811 -4.87805 0.908883 0
M  V30 5668 N 540.985 -1.06182 -1.16461 0
M  V30 5669 C 541.915 -0.692861 -2.22984 0
M  V30 5670 C 542.896 0.314122 -1.67174 0
M  V30 5671 O 544.081 0.189499 -1.93273 0
M  V30 5672 C 541.211 -0.07732 -3.47214 0
M  V30 5673 C 540.165 -1.01015 -4.15909 0
M  V30 5674 C 539.491 -0.257973 -5.34077 0
M  V30 5675 C 540.791 -2.33868 -4.67015 0
M  V30 5676 H 542.485 -1.58343 -2.54102 0
M  V30 5677 H 540.031 -0.76279 -1.22137 0
M  V30 5678 H 541.984 0.19266 -4.20959 0
M  V30 5679 H 540.708 0.848254 -3.15392 0
M  V30 5680 H 539.367 -1.26486 -3.44088 0
M  V30 5681 H 539.015 0.670684 -4.98509 0
M  V30 5682 H 538.715 -0.879638 -5.80979 0
M  V30 5683 H 540.239 0.00448788 -6.106 0
M  V30 5684 H 541.653 -2.1279 -5.32347 0
M  V30 5685 H 540.05 -2.91522 -5.24533 0
M  V30 5686 H 541.12 -2.97019 -3.83286 0
M  V30 5687 N 542.463 1.3308 -0.844243 0
M  V30 5688 C 543.879 1.50447 -0.532729 0
M  V30 5689 C 544.079 1.78292 0.938837 0
M  V30 5690 O 543.135 1.84635 1.72239 0
M  V30 5691 C 544.448 2.65555 -1.41072 0
M  V30 5692 C 545.996 2.7944 -1.41005 0
M  V30 5693 C 546.471 3.97616 -2.27301 0
M  V30 5694 N 547.962 4.0486 -2.2504 0
M  V30 5695 C 548.697 4.95508 -2.88547 0
M  V30 5696 N 548.193 5.91236 -3.61126 0
M  V30 5697 N 549.986 4.88548 -2.77989 0
M  V30 5698 H 542.137 1.13269 -1.79677 0
M  V30 5699 H 544.4 0.55734 -0.766861 0
M  V30 5700 H 544.106 2.51675 -2.45668 0
M  V30 5701 H 543.98 3.61089 -1.09061 0
M  V30 5702 H 546.367 2.92749 -0.371784 0
M  V30 5703 H 546.448 1.8465 -1.77026 0
M  V30 5704 H 546.092 3.85066 -3.3119 0
M  V30 5705 H 546.022 4.91661 -1.88619 0
M  V30 5706 H 548.513 3.36353 -1.72264 0
M  V30 5707 H 548.826 6.57079 -4.06776 0
M  V30 5708 H 547.171 5.91295 -3.65234 0
M  V30 5709 H 550.362 4.12729 -2.20846 0
M  V30 5710 H 550.535 5.58994 -3.27765 0
M  V30 5711 N 543.941 0.601185 1.45683 0
M  V30 5712 C 545.188 0.0938811 2.02282 0
M  V30 5713 C 545.516 -1.27315 1.47041 0
M  V30 5714 O 544.771 -1.85193 0.632623 0
M  V30 5715 C 545.07 -0.00222425 3.574 0
M  V30 5716 C 544.736 1.29963 4.31764 0
M  V30 5717 C 543.398 1.65625 4.51798 0
M  V30 5718 C 545.75 2.1603 4.74321 0
M  V30 5719 C 543.078 2.87119 5.11644 0
M  V30 5720 C 545.43 3.36766 5.3551 0
M  V30 5721 C 544.094 3.72689 5.53768 0
M  V30 5722 H 543.364 0.0343535 0.740203 0
M  V30 5723 H 546.011 0.781522 1.74827 0
M  V30 5724 H 544.316 -0.773096 3.84097 0
M  V30 5725 H 546.013 -0.410794 3.9889 0
M  V30 5726 H 542.603 1.01204 4.1648 0
M  V30 5727 H 546.787 1.89778 4.58582 0
M  V30 5728 H 542.043 3.15065 5.2397 0
M  V30 5729 H 546.217 4.03713 5.67441 0
M  V30 5730 H 543.844 4.66918 5.99909 0
M  V30 5731 N 545.419 -1.53889 0.339982 0
M  V30 5732 C 546.349 -2.27843 -0.510856 0
M  V30 5733 C 547.33 -1.29267 -1.10563 0
M  V30 5734 O 548.515 -1.58104 -1.12768 0
M  V30 5735 C 545.645 -3.04857 -1.66372 0
M  V30 5736 C 544.599 -4.10907 -1.19746 0
M  V30 5737 C 543.925 -4.75855 -2.43857 0
M  V30 5738 C 545.225 -5.21435 -0.300501 0
M  V30 5739 H 546.919 -2.99212 0.106067 0
M  V30 5740 H 544.465 -1.43904 0.0524533 0
M  V30 5741 H 546.418 -3.5533 -2.26537 0
M  V30 5742 H 545.142 -2.31133 -2.30749 0
M  V30 5743 H 543.801 -3.61342 -0.618654 0
M  V30 5744 H 543.449 -3.9873 -3.06633 0
M  V30 5745 H 543.149 -5.47502 -2.13343 0
M  V30 5746 H 544.673 -5.2911 -3.04754 0
M  V30 5747 H 546.087 -5.67565 -0.80889 0
M  V30 5748 H 544.484 -6.00036 -0.0874076 0
M  V30 5749 H 545.554 -4.80328 0.664321 0
M  V30 5750 N 546.897 -0.0685191 -1.57451 0
M  V30 5751 C 548.144 0.601348 -1.93365 0
M  V30 5752 C 548.472 1.69816 -0.948294 0
M  V30 5753 O 547.727 1.95666 0.0366199 0
M  V30 5754 C 548.026 1.22051 -3.35914 0
M  V30 5755 C 547.692 0.250165 -4.50205 0
M  V30 5756 C 546.354 -0.0167954 -4.81197 0
M  V30 5757 C 548.706 -0.413867 -5.19554 0
M  V30 5758 C 546.034 -0.95493 -5.78876 0
M  V30 5759 C 548.386 -1.3403 -6.18238 0
M  V30 5760 C 547.05 -1.61576 -6.47649 0
M  V30 5761 H 546.32 0.220049 -0.707573 0
M  V30 5762 H 548.967 -0.138697 -1.90997 0
M  V30 5763 H 547.272 2.03622 -3.34732 0
M  V30 5764 H 548.969 1.74605 -3.6099 0
M  V30 5765 H 545.559 0.468421 -4.26033 0
M  V30 5766 H 549.743 -0.220733 -4.95809 0
M  V30 5767 H 544.999 -1.17563 -5.99991 0
M  V30 5768 H 549.173 -1.86081 -6.71079 0
M  V30 5769 H 546.8 -2.34431 -7.2315 0
M  V30 5770 N 548.375 1.56261 0.205012 0
M  V30 5771 C 549.621 1.80306 0.9283 0
M  V30 5772 C 549.954 0.640932 1.83319 0
M  V30 5773 O 549.229 -0.359032 1.91158 0
M  V30 5774 C 549.512 3.14547 1.75306 0
M  V30 5775 C 549.365 4.41236 0.873562 0
M  V30 5776 C 550.684 3.45382 2.72762 0
M  V30 5777 H 547.803 0.655929 0.336044 0
M  V30 5778 H 550.445 1.88984 0.196211 0
M  V30 5779 H 548.595 3.0728 2.37721 0
M  V30 5780 H 550.267 4.60539 0.264887 0
M  V30 5781 H 548.51 4.33427 0.179773 0
M  V30 5782 H 549.181 5.31639 1.48541 0
M  V30 5783 H 551.657 3.52884 2.20481 0
M  V30 5784 H 550.533 4.40449 3.2756 0
M  V30 5785 H 550.794 2.68377 3.51321 0
M  V30 5786 N 549.853 -0.472356 1.50355 0
M  V30 5787 C 551.264 -1.05326 1.54154 0
M  V30 5788 C 551.615 -1.93155 0.344303 0
M  V30 5789 O 550.74 -2.09479 -0.542928 0
M  V30 5790 C 551.335 -1.91691 2.79356 0
M  V30 5791 C 549.894 -2.44892 2.8584 0
M  V30 5792 C 549.041 -1.23205 2.48426 0
M  V30 5793 H 551.992 -0.255027 1.56637 0
M  V30 5794 H 552.013 -2.76742 2.6114 0
M  V30 5795 H 551.525 -1.27741 3.66475 0
M  V30 5796 H 549.626 -3.12399 2.0307 0
M  V30 5797 H 549.739 -2.80086 3.88701 0
M  V30 5798 H 548.103 -1.56643 2.00836 0
M  V30 5799 H 548.886 -0.609194 3.37852 0
M  V30 5800 N 551.331 -1.39911 -0.725443 0
M  V30 5801 C 552.261 -1.42138 -1.85254 0
M  V30 5802 C 553.242 -0.283513 -1.67721 0
M  V30 5803 O 554.427 -0.490717 -1.87898 0
M  V30 5804 C 551.557 -1.27354 -3.23107 0
M  V30 5805 C 550.511 -2.3864 -3.55296 0
M  V30 5806 C 549.837 -2.08939 -4.92188 0
M  V30 5807 C 551.137 -3.8097 -3.57295 0
M  V30 5808 H 552.831 -2.36461 -1.83648 0
M  V30 5809 H 550.377 -1.13817 -0.882138 0
M  V30 5810 H 552.33 -1.2753 -4.01639 0
M  V30 5811 H 551.054 -0.295025 -3.25265 0
M  V30 5812 H 549.713 -2.37696 -2.79099 0
M  V30 5813 H 549.361 -1.09502 -4.90936 0
M  V30 5814 H 549.061 -2.83491 -5.14691 0
M  V30 5815 H 550.585 -2.10781 -5.73065 0
M  V30 5816 H 551.999 -3.8379 -4.25885 0
M  V30 5817 H 550.396 -4.5496 -3.9132 0
M  V30 5818 H 551.466 -4.11261 -2.5689 0
M  V30 5819 N 552.809 0.956637 -1.25245 0
M  V30 5820 C 554.056 1.701 -1.09874 0
M  V30 5821 C 554.384 1.91128 0.36062 0
M  V30 5822 O 553.639 1.47837 1.28229 0
M  V30 5823 C 553.938 3.08996 -1.79601 0
M  V30 5824 C 553.604 3.07774 -3.29523 0
M  V30 5825 C 552.266 3.07149 -3.70423 0
M  V30 5826 C 554.618 3.01257 -4.25316 0
M  V30 5827 C 551.946 2.97752 -5.0553 0
M  V30 5828 C 554.298 2.93403 -5.60444 0
M  V30 5829 C 552.962 2.91111 -6.00675 0
M  V30 5830 H 552.232 0.62244 -0.402056 0
M  V30 5831 H 554.879 1.1178 -1.55491 0
M  V30 5832 H 553.184 3.70848 -1.26408 0
M  V30 5833 H 554.881 3.65407 -1.65162 0
M  V30 5834 H 551.471 3.09032 -2.9698 0
M  V30 5835 H 555.655 3.00861 -3.9471 0
M  V30 5836 H 550.911 2.94346 -5.35883 0
M  V30 5837 H 555.085 2.87321 -6.34366 0
M  V30 5838 H 552.712 2.83586 -7.05325 0
M  V30 5839 N 554.287 1.06798 1.15896 0
M  V30 5840 C 555.22 0.627503 2.19403 0
M  V30 5841 C 556.198 -0.352352 1.58736 0
M  V30 5842 O 557.382 -0.260111 1.86697 0
M  V30 5843 C 554.509 -0.079356 3.38607 0
M  V30 5844 C 553.555 0.858057 4.17779 0
M  V30 5845 S 554.388 2.35605 4.80885 0
M  V30 5846 C 555.544 1.66083 6.03463 0
M  V30 5847 H 555.777 1.50441 2.56427 0
M  V30 5848 H 553.31 0.881427 1.26768 0
M  V30 5849 H 555.268 -0.48095 4.07673 0
M  V30 5850 H 553.929 -0.932524 2.99938 0
M  V30 5851 H 553.122 0.310108 5.03045 0
M  V30 5852 H 552.724 1.19977 3.54234 0
M  V30 5853 H 555.016 0.969337 6.7053 0
M  V30 5854 H 555.959 2.49159 6.62816 0
M  V30 5855 H 556.367 1.14122 5.52844 0
M  V30 5856 N 555.766 -1.3263 0.851289 0
M  V30 5857 C 556.696 -2.31449 0.308771 0
M  V30 5858 C 557.677 -1.59531 -0.590255 0
M  V30 5859 O 558.862 -1.87351 -0.511205 0
M  V30 5860 C 555.992 -3.43586 -0.506548 0
M  V30 5861 C 554.946 -4.26963 0.297753 0
M  V30 5862 C 554.272 -5.30831 -0.642094 0
M  V30 5863 C 555.572 -4.99643 1.52166 0
M  V30 5864 H 557.266 -2.77074 1.13447 0
M  V30 5865 H 554.812 -1.33207 0.546971 0
M  V30 5866 H 556.765 -4.11754 -0.896474 0
M  V30 5867 H 555.489 -2.96681 -1.36558 0
M  V30 5868 H 554.148 -3.60437 0.669391 0
M  V30 5869 H 553.796 -4.8018 -1.49788 0
M  V30 5870 H 553.496 -5.87501 -0.107968 0
M  V30 5871 H 555.02 -6.01862 -1.02927 0
M  V30 5872 H 556.434 -5.6051 1.20421 0
M  V30 5873 H 554.831 -5.66022 1.99347 0
M  V30 5874 H 555.901 -4.27701 2.28474 0
M  V30 5875 N 557.244 -0.608902 -1.45362 0
M  V30 5876 C 558.484 -0.10763 -2.04116 0
M  V30 5877 C 558.848 1.23883 -1.46686 0
M  V30 5878 O 560.049 1.83091 -1.96803 0
M  V30 5879 C 558.32 -0.0703351 -3.57331 0
M  V30 5880 S 559.879 0.369554 -4.37241 0
M  V30 5881 H 556.697 -0.0502123 -0.709225 0
M  V30 5882 H 559.299 -0.8073 -1.78053 0
M  V30 5883 H 558.003 -1.05379 -3.9664 0
M  V30 5884 H 557.534 0.651287 -3.87971 0
M  V30 5885 H 559.549 1.61878 -4.69052 0
M  V30 5886 N 558.722 1.53707 -0.348139 0
M  V30 5887 C 559.672 2.2193 0.522592 0
M  V30 5888 C 560.656 1.20831 1.06248 0
M  V30 5889 O 561.848 1.46357 0.995415 0
M  V30 5890 C 558.977 2.99904 1.6707 0
M  V30 5891 C 558.063 4.08364 1.14454 0
M  V30 5892 N 558.454 5.04656 0.339958 0
M  V30 5893 C 556.752 4.22757 1.421 0
M  V30 5894 C 557.453 5.81675 0.0538806 0
M  V30 5895 N 556.429 5.39739 0.646776 0
M  V30 5896 H 560.231 2.93733 -0.099135 0
M  V30 5897 H 557.745 1.61656 -0.15524 0
M  V30 5898 H 559.742 3.47284 2.30651 0
M  V30 5899 H 558.402 2.29629 2.29566 0
M  V30 5900 H 559.413 5.17896 -0.0193552 0
M  V30 5901 H 556.09 3.63704 2.05002 0
M  V30 5902 H 557.48 6.69256 -0.595443 0
M  V30 5903 N 560.2 0.0768682 1.57412 0
M  V30 5904 C 561.446 -0.591961 1.93968 0
M  V30 5905 C 561.779 -1.68954 0.9575 0
M  V30 5906 O 561.054 -1.94496 -0.0124675 0
M  V30 5907 C 561.337 -1.16418 3.40762 0
M  V30 5908 C 561.19 -0.0728933 4.49741 0
M  V30 5909 C 562.509 -2.06814 3.88479 0
M  V30 5910 H 559.628 -0.213716 0.705333 0
M  V30 5911 H 562.27 0.14387 1.89455 0
M  V30 5912 H 560.42 -1.79128 3.4474 0
M  V30 5913 H 562.092 0.560446 4.57883 0
M  V30 5914 H 560.335 0.595859 4.29688 0
M  V30 5915 H 561.006 -0.513755 5.49604 0
M  V30 5916 H 563.482 -1.54033 3.8654 0
M  V30 5917 H 562.358 -2.43785 4.91793 0
M  V30 5918 H 562.619 -2.97844 3.26713 0
M  V30 5919 N 561.678 -1.56367 -0.196722 0
M  V30 5920 C 563.089 -1.70462 -0.761545 0
M  V30 5921 C 563.44 -0.683161 -1.83922 0
M  V30 5922 O 562.565 0.160753 -2.15802 0
M  V30 5923 C 563.16 -3.09057 -1.38814 0
M  V30 5924 C 561.719 -3.24922 -1.90007 0
M  V30 5925 C 560.866 -2.66412 -0.769399 0
M  V30 5926 H 563.817 -1.58675 0.0283263 0
M  V30 5927 H 563.838 -3.06296 -2.2575 0
M  V30 5928 H 563.35 -3.83378 -0.603559 0
M  V30 5929 H 561.451 -2.55514 -2.71189 0
M  V30 5930 H 561.564 -4.3241 -2.06297 0
M  V30 5931 H 559.928 -2.25546 -1.18326 0
M  V30 5932 H 560.711 -3.433 0.00291773 0
M  V30 5933 N 563.156 0.464375 -1.50603 0
M  V30 5934 C 564.088 1.57916 -1.66118 0
M  V30 5935 C 565.101 1.53497 -0.54246 0
M  V30 5936 O 566.29 1.58763 -0.815877 0
M  V30 5937 C 563.39 2.96809 -1.63577 0
M  V30 5938 C 562.563 3.26026 -2.91592 0
M  V30 5939 C 561.622 4.44506 -2.81604 0
M  V30 5940 O 560.648 4.44484 -3.55559 0
M  V30 5941 N 561.85 5.46549 -1.95614 0
M  V30 5942 H 564.615 1.45022 -2.62276 0
M  V30 5943 H 562.176 0.652903 -1.48151 0
M  V30 5944 H 564.168 3.74048 -1.54499 0
M  V30 5945 H 562.738 3.03438 -0.751262 0
M  V30 5946 H 561.958 2.37337 -3.14746 0
M  V30 5947 H 563.246 3.42361 -3.76386 0
M  V30 5948 H 562.644 5.49391 -1.34854 0
M  V30 5949 H 561.201 6.22746 -1.92435 0
M  V30 5950 N 564.634 1.40294 0.718013 0
M  V30 5951 C 566.05 1.2227 1.02577 0
M  V30 5952 C 566.25 0.0961976 2.0127 0
M  V30 5953 O 565.306 -0.546695 2.46511 0
M  V30 5954 C 566.619 2.56348 1.57182 0
M  V30 5955 C 568.167 2.6334 1.69178 0
M  V30 5956 C 568.642 3.9768 2.27188 0
M  V30 5957 N 570.133 3.99409 2.34578 0
M  V30 5958 C 570.868 5.00141 2.8044 0
M  V30 5959 N 570.364 6.11268 3.26073 0
M  V30 5960 N 572.157 4.87511 2.79802 0
M  V30 5961 H 564.308 2.12304 0.0637899 0
M  V30 5962 H 566.571 0.943632 0.0909036 0
M  V30 5963 H 566.277 3.3942 0.921262 0
M  V30 5964 H 566.151 2.77266 2.55741 0
M  V30 5965 H 568.538 1.80641 2.33351 0
M  V30 5966 H 568.619 2.46255 0.692247 0
M  V30 5967 H 568.263 4.80817 1.63638 0
M  V30 5968 H 568.193 4.12093 3.27852 0
M  V30 5969 H 570.684 3.19162 2.02346 0
M  V30 5970 H 570.997 6.84023 3.59628 0
M  V30 5971 H 569.342 6.14837 3.24038 0
M  V30 5972 H 572.533 3.9979 2.43487 0
M  V30 5973 H 572.706 5.66158 3.15228 0
M  V30 5974 N 566.112 -0.949982 1.2575 0
M  V30 5975 C 567.337 -1.73503 1.13628 0
M  V30 5976 C 567.762 -1.85601 -0.30559 0
M  V30 5977 O 567.12 -1.33984 -1.22139 0
M  V30 5978 C 567.168 -3.1243 1.80055 0
M  V30 5979 O 566.272 -3.97916 1.08336 0
M  V30 5980 H 565.613 -0.532665 0.396439 0
M  V30 5981 H 568.143 -1.19043 1.66403 0
M  V30 5982 H 568.153 -3.62866 1.86527 0
M  V30 5983 H 566.828 -3.02941 2.84956 0
M  V30 5984 H 565.405 -3.56375 1.09777 0
M  V30 5985 N 567.59 -1.07411 -1.15328 0
M  V30 5986 C 569.006 -0.799759 -1.38116 0
M  V30 5987 C 569.206 0.59572 -1.92493 0
M  V30 5988 O 568.262 1.35433 -2.13106 0
M  V30 5989 C 569.575 -1.87407 -2.35158 0
M  V30 5990 C 571.123 -1.89889 -2.48819 0
M  V30 5991 C 571.598 -2.96406 -3.49153 0
M  V30 5992 N 573.089 -2.95512 -3.56689 0
M  V30 5993 C 573.824 -3.74575 -4.34144 0
M  V30 5994 N 573.32 -4.63488 -5.14928 0
M  V30 5995 N 575.113 -3.62919 -4.29239 0
M  V30 5996 H 567.264 -1.97411 -0.78374 0
M  V30 5997 H 569.527 -0.856113 -0.407154 0
M  V30 5998 H 569.233 -2.8768 -2.0232 0
M  V30 5999 H 569.107 -1.73471 -3.34944 0
M  V30 6000 H 571.494 -0.902677 -2.80955 0
M  V30 6001 H 571.575 -2.07904 -1.49029 0
M  V30 6002 H 571.219 -3.96227 -3.17752 0
M  V30 6003 H 571.149 -2.75638 -4.48699 0
M  V30 6004 H 573.64 -2.31061 -2.99031 0
M  V30 6005 H 573.953 -5.20445 -5.71276 0
M  V30 6006 H 572.298 -4.67537 -5.14232 0
M  V30 6007 H 575.489 -2.92833 -3.65194 0
M  V30 6008 H 575.662 -4.24777 -4.89355 0
M  V30 6009 N 569.068 1.32177 -0.85831 0
M  V30 6010 C 569.998 2.31282 -0.321041 0
M  V30 6011 C 570.979 1.59841 0.581786 0
M  V30 6012 O 572.164 1.87619 0.501262 0
M  V30 6013 C 569.294 3.4385 0.48832 0
M  V30 6014 C 568.248 4.26799 -0.320391 0
M  V30 6015 C 567.574 5.31164 0.613934 0
M  V30 6016 C 568.874 4.98829 -1.54813 0
M  V30 6017 H 570.568 2.76469 -1.14915 0
M  V30 6018 H 568.114 1.32916 -0.554028 0
M  V30 6019 H 570.067 4.12224 0.874626 0
M  V30 6020 H 568.791 2.97401 1.34983 0
M  V30 6021 H 567.45 3.60077 -0.688497 0
M  V30 6022 H 567.098 4.80967 1.47239 0
M  V30 6023 H 566.798 5.8755 0.0768097 0
M  V30 6024 H 568.322 6.024 0.997336 0
M  V30 6025 H 569.736 5.59864 -1.23392 0
M  V30 6026 H 568.133 5.64957 -2.02346 0
M  V30 6027 H 569.203 4.26483 -2.30739 0
M  V30 6028 N 570.547 0.616602 1.45037 0
M  V30 6029 C 571.958 0.199359 1.85633 0
M  V30 6030 C 572.309 -1.24588 1.51566 0
M  V30 6031 O 571.434 -1.94594 0.94668 0
M  V30 6032 C 572.029 0.355033 3.36935 0
M  V30 6033 C 570.588 -0.00758748 3.76399 0
M  V30 6034 C 569.735 0.675256 2.68953 0
M  V30 6035 H 572.686 0.822708 1.3571 0
M  V30 6036 H 572.707 -0.410201 3.78282 0
M  V30 6037 H 572.219 1.40699 3.61698 0
M  V30 6038 H 570.32 -1.05837 3.57252 0
M  V30 6039 H 570.433 0.392346 4.77491 0
M  V30 6040 H 568.797 0.111992 2.54454 0
M  V30 6041 H 569.58 1.72952 2.96551 0
M  V30 6042 N 572.025 -1.5352 0.356285 0
M  V30 6043 C 573.274 -2.00298 -0.237373 0
M  V30 6044 C 573.587 -1.24784 -1.50627 0
M  V30 6045 O 574.793 -1.62103 -2.17795 0
M  V30 6046 C 573.249 -3.56771 -0.473545 0
M  V30 6047 C 572.857 -4.41154 0.780183 0
M  V30 6048 C 574.601 -4.1193 -1.02537 0
M  V30 6049 C 572.508 -5.89161 0.514108 0
M  V30 6050 H 571.438 -0.748307 -0.092478 0
M  V30 6051 H 574.089 -1.77283 0.473588 0
M  V30 6052 H 572.471 -3.75902 -1.24553 0
M  V30 6053 H 573.645 -4.33797 1.55425 0
M  V30 6054 H 571.96 -3.97052 1.25455 0
M  V30 6055 H 574.557 -5.20133 -1.2396 0
M  V30 6056 H 574.9 -3.65943 -1.98473 0
M  V30 6057 H 575.433 -3.96561 -0.313775 0
M  V30 6058 H 572.172 -6.39408 1.44355 0
M  V30 6059 H 571.692 -5.9939 -0.221632 0
M  V30 6060 H 573.371 -6.46857 0.136122 0
M  V30 6061 N 573.503 -0.0852151 -1.57369 0
M  V30 6062 C 574.433 0.874556 -2.16503 0
M  V30 6063 C 575.414 1.30111 -1.09568 0
M  V30 6064 O 576.599 1.36977 -1.37662 0
M  V30 6065 C 573.729 2.13731 -2.73745 0
M  V30 6066 C 572.683 1.84971 -3.85966 0
M  V30 6067 C 572.009 3.17991 -4.29867 0
M  V30 6068 C 573.309 1.14442 -5.09608 0
M  V30 6069 H 575.003 0.381899 -2.96954 0
M  V30 6070 H 572.549 0.18225 -1.42842 0
M  V30 6071 H 574.502 2.81302 -3.13763 0
M  V30 6072 H 573.226 2.65263 -1.90534 0
M  V30 6073 H 571.885 1.19801 -3.46473 0
M  V30 6074 H 571.533 3.6739 -3.4356 0
M  V30 6075 H 571.233 2.99534 -5.05523 0
M  V30 6076 H 572.757 3.86737 -4.72511 0
M  V30 6077 H 574.171 1.72105 -5.46857 0
M  V30 6078 H 572.568 1.06197 -5.90629 0
M  V30 6079 H 573.638 0.12559 -4.84737 0
M  V30 6080 N 574.981 1.5647 0.188427 0
M  V30 6081 C 576.228 1.81013 0.907779 0
M  V30 6082 C 576.556 0.65953 1.82977 0
M  V30 6083 O 575.811 -0.354308 1.92466 0
M  V30 6084 C 576.11 3.11596 1.7505 0
M  V30 6085 C 575.776 4.40145 0.978922 0
M  V30 6086 C 574.438 4.75066 0.765912 0
M  V30 6087 C 576.79 5.19369 0.436498 0
M  V30 6088 C 574.118 5.867 -0.00089868 0
M  V30 6089 C 576.47 6.31805 -0.317136 0
M  V30 6090 C 575.134 6.65303 -0.541103 0
M  V30 6091 H 574.404 0.662373 0.33218 0
M  V30 6092 H 577.051 1.9071 0.173732 0
M  V30 6093 H 575.356 2.97165 2.55343 0
M  V30 6094 H 577.053 3.27793 2.30983 0
M  V30 6095 H 573.643 4.12745 1.15497 0
M  V30 6096 H 577.827 4.92799 0.588449 0
M  V30 6097 H 573.083 6.11122 -0.184329 0
M  V30 6098 H 577.257 6.92406 -0.744788 0
M  V30 6099 H 574.884 7.51646 -1.13718 0
M  V30 6100 N 576.459 -0.456382 1.50847 0
M  V30 6101 C 577.87 -1.03685 1.55262 0
M  V30 6102 C 578.221 -1.92779 0.364771 0
M  V30 6103 O 577.346 -2.10043 -0.52068 0
M  V30 6104 C 577.941 -1.88718 2.81374 0
M  V30 6105 C 576.5 -2.41847 2.88422 0
M  V30 6106 C 575.647 -1.20564 2.49719 0
M  V30 6107 H 578.598 -0.238399 1.56899 0
M  V30 6108 H 578.619 -2.73957 2.6406 0
M  V30 6109 H 578.131 -1.23847 3.67809 0
M  V30 6110 H 576.232 -3.10228 2.06372 0
M  V30 6111 H 576.345 -2.75947 3.9165 0
M  V30 6112 H 574.709 -1.54504 2.02486 0
M  V30 6113 H 575.492 -0.573326 3.38479 0
M  V30 6114 N 577.937 -1.40673 -0.710563 0
M  V30 6115 C 578.869 -1.37256 -1.83558 0
M  V30 6116 C 579.882 -0.277133 -1.60424 0
M  V30 6117 O 581.071 -0.537831 -1.70205 0
M  V30 6118 C 578.171 -1.1144 -3.20054 0
M  V30 6119 C 577.344 -2.32734 -3.70342 0
M  V30 6120 C 576.403 -2.03002 -4.85465 0
M  V30 6121 O 575.429 -2.75912 -4.97857 0
M  V30 6122 N 576.631 -1.01105 -5.71627 0
M  V30 6123 H 579.396 -2.34215 -1.86985 0
M  V30 6124 H 576.957 -1.35091 -0.892301 0
M  V30 6125 H 578.949 -0.895265 -3.94673 0
M  V30 6126 H 577.519 -0.231307 -3.11743 0
M  V30 6127 H 576.739 -2.70446 -2.86798 0
M  V30 6128 H 578.027 -3.13584 -4.00678 0
M  V30 6129 H 577.425 -0.407303 -5.64232 0
M  V30 6130 H 575.982 -0.85182 -6.4621 0
M  V30 6131 N 579.415 0.9433 -1.26252 0
M  V30 6132 C 580.692 1.66639 -1.02424 0
M  V30 6133 C 581.072 2.06335 0.446006 0
M  V30 6134 O 580.42 1.78551 1.42589 0
M  V30 6135 C 580.63 2.88019 -1.97094 0
M  V30 6136 C 581.978 3.59718 -2.25584 0
M  V30 6137 O 583.002 2.9812 -1.94943 0
M  V30 6138 O 581.861 4.7066 -2.77743 0
M  V30 6139 H 578.955 0.729643 -0.389294 0
M  V30 6140 H 581.501 0.995218 -1.37454 0
M  V30 6141 H 580.273 2.5556 -2.96319 0
M  V30 6142 H 579.896 3.62863 -1.62532 0
M  V30 6143 N 580.893 1.08022 1.14757 0
M  V30 6144 C 581.856 0.71048 2.1791 0
M  V30 6145 C 582.856 -0.252731 1.58801 0
M  V30 6146 O 584.046 -0.0327915 1.74169 0
M  V30 6147 C 581.178 0.0483203 3.40866 0
M  V30 6148 H 582.371 1.62384 2.52134 0
M  V30 6149 H 579.924 0.877595 1.29337 0
M  V30 6150 H 580.659 -0.876959 3.12218 0
M  V30 6151 H 580.444 0.741189 3.85031 0
M  V30 6152 H 581.934 -0.195471 4.17142 0
M  V30 6153 N 582.371 -1.3172 0.865308 0
M  V30 6154 C 583.601 -2.00765 0.487543 0
M  V30 6155 C 584.009 -1.65145 -0.92325 0
M  V30 6156 O 583.352 -0.874294 -1.61561 0
M  V30 6157 C 583.414 -3.55122 0.559369 0
M  V30 6158 C 583.078 -4.14202 1.93095 0
M  V30 6159 C 584.075 -4.3165 2.89784 0
M  V30 6160 C 581.76 -4.50036 2.23099 0
M  V30 6161 C 583.754 -4.84114 4.14623 0
M  V30 6162 C 581.441 -5.02203 3.48189 0
M  V30 6163 C 582.439 -5.19192 4.43767 0
M  V30 6164 O 582.127 -5.70241 5.6664 0
M  V30 6165 H 581.859 -0.649066 0.188915 0
M  V30 6166 H 584.413 -1.69032 1.16694 0
M  V30 6167 H 582.643 -3.86295 -0.176926 0
M  V30 6168 H 584.332 -4.05428 0.195694 0
M  V30 6169 H 585.098 -4.04288 2.6791 0
M  V30 6170 H 580.977 -4.36091 1.49485 0
M  V30 6171 H 584.521 -4.9729 4.89233 0
M  V30 6172 H 580.418 -5.28997 3.69908 0
M  V30 6173 H 581.186 -5.88617 5.68746 0
M  V30 6174 N 583.85 -0.624285 -1.44708 0
M  V30 6175 C 585.096 -0.126051 -2.02107 0
M  V30 6176 C 585.425 1.2496 -1.49048 0
M  V30 6177 O 584.68 1.84163 -0.662005 0
M  V30 6178 C 584.979 -0.0546353 -3.57358 0
M  V30 6179 C 584.644 -1.36815 -4.29642 0
M  V30 6180 C 583.307 -1.72792 -4.49106 0
M  V30 6181 C 585.659 -2.23549 -4.70824 0
M  V30 6182 C 582.986 -2.95222 -5.07012 0
M  V30 6183 C 585.339 -3.45243 -5.30085 0
M  V30 6184 C 584.003 -3.81452 -5.47769 0
M  V30 6185 H 583.273 -0.0461252 -0.739563 0
M  V30 6186 H 585.92 -0.809236 -1.73562 0
M  V30 6187 H 584.225 0.711891 -3.85278 0
M  V30 6188 H 585.922 0.347282 -3.99493 0
M  V30 6189 H 582.512 -1.07817 -4.14817 0
M  V30 6190 H 586.696 -1.9705 -4.55505 0
M  V30 6191 H 581.952 -3.23361 -5.18891 0
M  V30 6192 H 586.125 -4.12689 -5.60946 0
M  V30 6193 H 583.753 -4.76403 -5.92405 0
M  V30 6194 N 585.328 1.53329 -0.364422 0
M  V30 6195 C 586.577 2.00421 0.226747 0
M  V30 6196 C 586.89 1.25581 1.49963 0
M  V30 6197 O 588.096 1.63256 2.16933 0
M  V30 6198 C 586.552 3.57017 0.454618 0
M  V30 6199 C 586.16 4.40734 -0.803568 0
M  V30 6200 C 587.904 4.12468 1.00351 0
M  V30 6201 C 585.811 5.8888 -0.545345 0
M  V30 6202 H 584.741 0.748787 0.0885082 0
M  V30 6203 H 587.392 1.7703 -0.482983 0
M  V30 6204 H 585.774 3.76558 1.22558 0
M  V30 6205 H 586.948 4.32967 -1.57723 0
M  V30 6206 H 585.263 3.96381 -1.27559 0
M  V30 6207 H 587.86 5.20783 1.212 0
M  V30 6208 H 588.203 3.6699 1.9653 0
M  V30 6209 H 588.736 3.96721 0.29274 0
M  V30 6210 H 585.475 6.38633 -1.47743 0
M  V30 6211 H 584.995 5.99499 0.189842 0
M  V30 6212 H 586.674 6.46776 -0.170425 0
M  V30 6213 N 586.806 0.0935595 1.57322 0
M  V30 6214 C 588.034 -0.578934 1.98635 0
M  V30 6215 C 588.449 -1.61819 0.972626 0
M  V30 6216 O 587.806 -1.82461 -0.0379638 0
M  V30 6217 C 587.857 -1.22802 3.40003 0
M  V30 6218 O 587.578 -0.230334 4.37494 0
M  V30 6219 C 589.079 -1.98627 3.96311 0
M  V30 6220 H 586.299 -0.155324 0.652775 0
M  V30 6221 H 588.843 0.172393 2.03772 0
M  V30 6222 H 586.998 -1.93029 3.35885 0
M  V30 6223 H 587.412 -0.698649 5.19826 0
M  V30 6224 H 588.886 -2.39405 4.97382 0
M  V30 6225 H 589.363 -2.85151 3.34044 0
M  V30 6226 H 589.969 -1.3322 4.03897 0
M  V30 6227 N 588.284 -1.56567 -0.180126 0
M  V30 6228 C 589.531 -1.81492 -0.898167 0
M  V30 6229 C 589.859 -0.669225 -1.82624 0
M  V30 6230 O 589.114 0.344096 -1.92651 0
M  V30 6231 C 589.413 -3.1252 -1.73395 0
M  V30 6232 C 589.079 -4.40658 -0.955567 0
M  V30 6233 C 587.741 -4.75465 -0.740707 0
M  V30 6234 C 590.093 -5.19593 -0.408948 0
M  V30 6235 C 587.421 -5.86691 0.0320128 0
M  V30 6236 C 589.773 -6.31627 0.350638 0
M  V30 6237 C 588.437 -6.65007 0.576378 0
M  V30 6238 H 587.707 -0.664125 -0.328662 0
M  V30 6239 H 590.354 -1.908 -0.163616 0
M  V30 6240 H 588.659 -2.98515 -2.53763 0
M  V30 6241 H 590.356 -3.29013 -2.29241 0
M  V30 6242 H 586.946 -4.13352 -1.13306 0
M  V30 6243 H 591.13 -4.93104 -0.562307 0
M  V30 6244 H 586.386 -6.11016 0.216735 0
M  V30 6245 H 590.56 -6.92001 0.781497 0
M  V30 6246 H 588.187 -7.51033 1.17703 0
M  V30 6247 N 589.762 0.448376 -1.51087 0
M  V30 6248 C 590.695 1.56298 -1.66272 0
M  V30 6249 C 591.673 1.54381 -0.510419 0
M  V30 6250 O 592.857 1.73671 -0.732854 0
M  V30 6251 C 589.984 2.94883 -1.66618 0
M  V30 6252 C 589.03 3.14868 -2.87681 0
M  V30 6253 S 589.863 2.9234 -4.48662 0
M  V30 6254 C 591.019 4.33227 -4.51735 0
M  V30 6255 H 591.252 1.43182 -2.6055 0
M  V30 6256 H 588.785 0.637309 -1.40633 0
M  V30 6257 H 590.743 3.74771 -1.67502 0
M  V30 6258 H 589.404 3.05371 -0.735358 0
M  V30 6259 H 588.597 4.16166 -2.84292 0
M  V30 6260 H 588.199 2.42788 -2.84482 0
M  V30 6261 H 590.491 5.26247 -4.26697 0
M  V30 6262 H 591.434 4.41653 -5.53487 0
M  V30 6263 H 591.842 4.16367 -3.81181 0
M  V30 6264 N 591.24 1.41047 0.703093 0
M  V30 6265 C 592.17 1.45067 1.82969 0
M  V30 6266 C 593.151 0.31016 1.67248 0
M  V30 6267 O 594.336 0.520548 1.87093 0
M  V30 6268 C 591.466 1.32478 3.2104 0
M  V30 6269 C 590.42 2.44262 3.51454 0
M  V30 6270 C 589.746 2.16742 4.88801 0
M  V30 6271 C 591.046 3.86606 3.51189 0
M  V30 6272 H 592.74 2.39353 1.79863 0
M  V30 6273 H 590.286 1.15206 0.863919 0
M  V30 6274 H 592.239 1.33904 3.99559 0
M  V30 6275 H 590.963 0.346735 3.24754 0
M  V30 6276 H 589.622 2.42107 2.75282 0
M  V30 6277 H 589.27 1.17299 4.89132 0
M  V30 6278 H 588.97 2.91643 5.10116 0
M  V30 6279 H 590.494 2.19872 5.69639 0
M  V30 6280 H 591.908 3.90517 4.19725 0
M  V30 6281 H 590.305 4.61128 3.84033 0
M  V30 6282 H 591.375 4.15296 2.50315 0
M  V30 6283 N 592.718 -0.936591 1.26751 0
M  V30 6284 C 593.648 -2.05315 1.11212 0
M  V30 6285 C 594.629 -1.70092 0.0160262 0
M  V30 6286 O 595.814 -1.93279 0.188894 0
M  V30 6287 C 592.944 -3.39123 0.749171 0
M  V30 6288 C 591.898 -3.88425 1.79751 0
M  V30 6289 C 591.224 -5.18936 1.28876 0
M  V30 6290 C 592.524 -4.12798 3.19992 0
M  V30 6291 H 594.218 -2.18573 2.04613 0
M  V30 6292 H 591.764 -1.05027 0.985159 0
M  V30 6293 H 593.717 -4.16704 0.627323 0
M  V30 6294 H 592.441 -3.25855 -0.220543 0
M  V30 6295 H 591.1 -3.13028 1.90811 0
M  V30 6296 H 590.748 -5.02051 0.308757 0
M  V30 6297 H 590.448 -5.52892 1.98958 0
M  V30 6298 H 591.972 -5.99096 1.17967 0
M  V30 6299 H 593.386 -4.80977 3.11983 0
M  V30 6300 H 591.783 -4.58044 3.87705 0
M  V30 6301 H 592.853 -3.18412 3.65707 0
M  V30 6302 N 594.196 -1.08629 -1.14182 0
M  V30 6303 C 595.443 -0.817345 -1.85272 0
M  V30 6304 C 595.771 0.656917 -1.83071 0
M  V30 6305 O 595.026 1.49897 -1.25815 0
M  V30 6306 C 595.325 -1.28734 -3.3341 0
M  V30 6307 C 594.991 -2.76981 -3.55798 0
M  V30 6308 C 593.653 -3.17469 -3.61617 0
M  V30 6309 C 596.005 -3.72605 -3.64438 0
M  V30 6310 C 593.333 -4.52371 -3.736 0
M  V30 6311 C 595.685 -5.07286 -3.77947 0
M  V30 6312 C 594.349 -5.47376 -3.82016 0
M  V30 6313 H 593.619 -0.299088 -0.677958 0
M  V30 6314 H 596.266 -1.35962 -1.34857 0
M  V30 6315 H 594.571 -0.664702 -3.8612 0
M  V30 6316 H 596.268 -1.05598 -3.86846 0
M  V30 6317 H 592.858 -2.44644 -3.51919 0
M  V30 6318 H 597.042 -3.42443 -3.5923 0
M  V30 6319 H 592.298 -4.82882 -3.75013 0
M  V30 6320 H 596.472 -5.81243 -3.83575 0
M  V30 6321 H 594.099 -6.51906 -3.91054 0
M  V30 6322 N 595.674 1.31259 -0.872281 0
M  V30 6323 C 596.637 2.26744 -0.334656 0
M  V30 6324 C 597.637 1.52307 0.515681 0
M  V30 6325 O 598.827 1.71148 0.324656 0
M  V30 6326 C 595.959 3.36841 0.524482 0
M  V30 6327 H 597.152 2.75812 -1.17762 0
M  V30 6328 H 594.705 1.42232 -0.648064 0
M  V30 6329 H 595.44 2.93069 1.38855 0
M  V30 6330 H 595.225 3.92009 -0.0844299 0
M  V30 6331 H 596.715 4.07944 0.892838 0
M  V30 6332 N 597.152 0.631951 1.44375 0
M  V30 6333 C 598.398 0.13697 2.02337 0
M  V30 6334 C 598.731 -1.23826 1.49602 0
M  V30 6335 O 598.006 -1.8221 0.680415 0
M  V30 6336 C 598.289 0.124536 3.59885 0
M  V30 6337 C 598.142 1.53217 4.229 0
M  V30 6338 C 599.461 -0.550481 4.36644 0
M  V30 6339 H 596.58 0.051247 0.735216 0
M  V30 6340 H 599.222 0.808581 1.71936 0
M  V30 6341 H 597.372 -0.44737 3.85916 0
M  V30 6342 H 599.044 2.15303 4.07973 0
M  V30 6343 H 597.287 2.0858 3.80364 0
M  V30 6344 H 597.958 1.4755 5.31914 0
M  V30 6345 H 600.434 -0.0641154 4.16051 0
M  V30 6346 H 599.31 -0.528371 5.46351 0
M  V30 6347 H 599.571 -1.62097 4.11311 0
M  V30 6348 N 598.631 -1.53133 0.372548 0
M  V30 6349 C 599.856 -2.0625 -0.218098 0
M  V30 6350 C 600.281 -1.24375 -1.41111 0
M  V30 6351 O 599.639 -0.264554 -1.79359 0
M  V30 6352 C 599.687 -3.55858 -0.582876 0
M  V30 6353 O 598.791 -3.76667 -1.67917 0
M  V30 6354 H 598.132 -0.663317 -0.030104 0
M  V30 6355 H 600.662 -1.97477 0.535169 0
M  V30 6356 H 600.672 -3.99007 -0.851925 0
M  V30 6357 H 599.347 -4.14892 0.289428 0
M  V30 6358 H 597.924 -3.45413 -1.40513 0
M  V30 6359 N 600.109 -0.101901 -1.5727 0
M  V30 6360 C 601.057 0.872034 -2.15635 0
M  V30 6361 C 602.051 1.28742 -1.10099 0
M  V30 6362 O 603.257 1.26116 -1.28432 0
M  V30 6363 H 599.632 0.299269 -0.689886 0
M  V30 6364 H 601.603 0.355137 -2.96279 0
M  V30 6365 C 600.352 2.11886 -2.7568 0
M  V30 6366 H 599.675 1.80813 -3.56576 0
M  V30 6367 H 601.115 2.78077 -3.20077 0
M  V30 6368 C 599.574 2.89739 -1.7191 0
M  V30 6369 O 600.104 3.84522 -1.16213 0
M  V30 6370 N 598.31 2.53407 -1.42245 0
M  V30 6371 H 597.857 1.76398 -1.87727 0
M  V30 6372 H 597.815 3.05795 -0.730529 0
M  V30 6373 N 601.587 1.56661 0.17182 0
M  V30 6374 C 602.835 1.81606 0.886774 0
M  V30 6375 C 603.156 0.678818 1.82803 0
M  V30 6376 O 602.426 -0.301354 1.93568 0
M  V30 6377 H 601.006 0.669934 0.330451 0
M  V30 6378 H 603.668 1.94142 0.171757 0
M  V30 6379 H 602.764 2.75634 1.46398 0
M  V30 6380 N 603.065 -0.440357 1.51323 0
M  V30 6381 C 604.295 -1.21079 1.67402 0
M  V30 6382 C 604.703 -1.85555 0.369599 0
M  V30 6383 O 604.046 -1.71375 -0.661525 0
M  V30 6384 C 604.108 -2.33839 2.73056 0
M  V30 6385 C 603.772 -1.89755 4.15743 0
M  V30 6386 C 604.769 -1.40268 5.0062 0
M  V30 6387 C 602.454 -1.97539 4.61826 0
M  V30 6388 C 604.448 -0.991474 6.29642 0
M  V30 6389 C 602.135 -1.56029 5.90845 0
M  V30 6390 C 603.133 -1.06915 6.7458 0
M  V30 6391 O 602.821 -0.659933 8.01187 0
M  V30 6392 H 602.553 -0.371133 0.56501 0
M  V30 6393 H 605.107 -0.528409 1.98487 0
M  V30 6394 H 603.337 -3.05345 2.37279 0
M  V30 6395 H 605.026 -2.95713 2.78044 0
M  V30 6396 H 605.792 -1.33652 4.66221 0
M  V30 6397 H 601.671 -2.34713 3.96776 0
M  V30 6398 H 605.215 -0.607425 6.9495 0
M  V30 6399 H 601.112 -1.62315 6.24759 0
M  V30 6400 H 601.88 -0.786052 8.14717 0
M  V30 6401 N 604.543 -1.41418 -0.695603 0
M  V30 6402 C 605.473 -1.46035 -1.82197 0
M  V30 6403 C 606.454 -0.319025 -1.67082 0
M  V30 6404 O 607.639 -0.530462 -1.86815 0
M  V30 6405 C 604.769 -1.34179 -3.20333 0
M  V30 6406 C 603.723 -2.46123 -3.50154 0
M  V30 6407 C 603.049 -2.19332 -4.87645 0
M  V30 6408 C 604.349 -3.88463 -3.49133 0
M  V30 6409 H 606.043 -2.40303 -1.78591 0
M  V30 6410 H 603.589 -1.15663 -0.857797 0
M  V30 6411 H 605.542 -1.36021 -3.98844 0
M  V30 6412 H 604.266 -0.363952 -3.24566 0
M  V30 6413 H 602.925 -2.43563 -2.73994 0
M  V30 6414 H 602.573 -1.19891 -4.88503 0
M  V30 6415 H 602.273 -2.94344 -5.08562 0
M  V30 6416 H 603.797 -2.22889 -5.68465 0
M  V30 6417 H 605.211 -3.92738 -4.17648 0
M  V30 6418 H 603.608 -4.63158 -3.81582 0
M  V30 6419 H 604.678 -4.16617 -2.48109 0
M  V30 6420 N 606.021 0.929856 -1.27246 0
M  V30 6421 C 607.267 1.6798 -1.13625 0
M  V30 6422 C 607.6 1.91586 0.317589 0
M  V30 6423 O 606.875 1.50467 1.23247 0
M  V30 6424 C 607.158 3.04766 -1.91806 0
M  V30 6425 C 607.011 2.88415 -3.45162 0
M  V30 6426 C 608.33 4.05063 -1.72082 0
M  V30 6427 H 605.449 0.609632 -0.414147 0
M  V30 6428 H 608.091 1.0792 -1.56376 0
M  V30 6429 H 606.241 3.56034 -1.55474 0
M  V30 6430 H 607.913 2.44282 -3.91311 0
M  V30 6431 H 606.156 2.23802 -3.71611 0
M  V30 6432 H 606.827 3.85482 -3.95105 0
M  V30 6433 H 609.303 3.62798 -2.03757 0
M  V30 6434 H 608.179 4.98765 -2.29182 0
M  V30 6435 H 608.44 4.37021 -0.668206 0
M  V30 6436 N 607.499 1.09233 1.13605 0
M  V30 6437 C 608.724 0.849067 1.89224 0
M  V30 6438 C 609.149 -0.593875 1.78479 0
M  V30 6439 O 608.507 -1.41703 1.13092 0
M  V30 6440 C 608.555 1.28642 3.36873 0
M  V30 6441 O 607.659 0.44363 4.10007 0
M  V30 6442 H 607 0.30767 0.588417 0
M  V30 6443 H 609.53 1.45595 1.43748 0
M  V30 6444 H 609.54 1.27096 3.87699 0
M  V30 6445 H 608.215 2.33729 3.44011 0
M  V30 6446 H 606.792 0.523241 3.69211 0
M  V30 6447 N 608.977 -1.30795 0.87923 0
M  V30 6448 C 609.907 -2.30742 0.357796 0
M  V30 6449 C 610.888 -1.60747 -0.556283 0
M  V30 6450 O 612.073 -1.88393 -0.47135 0
M  V30 6451 C 609.203 -3.44583 -0.433555 0
M  V30 6452 C 608.157 -4.26235 0.388251 0
M  V30 6453 C 607.483 -5.32073 -0.529352 0
M  V30 6454 C 608.783 -4.96303 1.62729 0
M  V30 6455 H 610.477 -2.74605 1.19299 0
M  V30 6456 H 608.023 -1.32017 0.575104 0
M  V30 6457 H 609.976 -4.13563 -0.808934 0
M  V30 6458 H 608.7 -2.99511 -1.30234 0
M  V30 6459 H 607.359 -3.58936 0.745695 0
M  V30 6460 H 607.007 -4.83249 -1.39569 0
M  V30 6461 H 606.707 -5.87598 0.0166741 0
M  V30 6462 H 608.231 -6.0391 -0.901373 0
M  V30 6463 H 609.645 -5.5783 1.32283 0
M  V30 6464 H 608.042 -5.61666 2.11309 0
M  V30 6465 H 609.112 -4.22758 2.37494 0
M  V30 6466 N 610.455 -0.639598 -1.44038 0
M  V30 6467 C 611.683 -0.154811 -2.0632 0
M  V30 6468 C 612.098 1.17406 -1.47856 0
M  V30 6469 O 611.455 1.72193 -0.604638 0
M  V30 6470 C 611.506 -0.0429958 -3.61474 0
M  V30 6471 O 611.227 -1.31932 -4.17763 0
M  V30 6472 C 612.728 0.469486 -4.40807 0
M  V30 6473 H 609.948 -0.0835862 -0.665773 0
M  V30 6474 H 612.492 -0.876397 -1.84769 0
M  V30 6475 H 610.647 0.629075 -3.82258 0
M  V30 6476 H 611.061 -1.16965 -5.11292 0
M  V30 6477 H 612.535 0.496712 -5.49761 0
M  V30 6478 H 613.012 1.49819 -4.12857 0
M  V30 6479 H 613.618 -0.169624 -4.24962 0
M  V30 6480 N 611.933 1.52934 -0.380664 0
M  V30 6481 C 612.866 2.22597 0.502564 0
M  V30 6482 C 613.844 1.22345 1.071 0
M  V30 6483 O 615.028 1.51302 1.12428 0
M  V30 6484 C 612.155 2.93246 1.69482 0
M  V30 6485 C 611.201 4.07696 1.25244 0
M  V30 6486 S 612.034 5.34957 0.241159 0
M  V30 6487 C 613.19 6.09124 1.4394 0
M  V30 6488 H 613.423 2.97167 -0.089029 0
M  V30 6489 H 610.956 1.53518 -0.164817 0
M  V30 6490 H 612.914 3.34562 2.37863 0
M  V30 6491 H 611.575 2.18373 2.2577 0
M  V30 6492 H 610.768 4.56199 2.1424 0
M  V30 6493 H 610.37 3.68349 0.647664 0
M  V30 6494 H 612.662 6.34771 2.36794 0
M  V30 6495 H 613.605 7.01068 0.995464 0
M  V30 6496 H 614.013 5.39777 1.65229 0
M  V30 6497 N 613.412 0.11024 1.57214 0
M  V30 6498 C 614.652 -0.553061 1.96775 0
M  V30 6499 C 615.016 -1.64403 0.991753 0
M  V30 6500 O 616.217 -2.36561 1.27642 0
M  V30 6501 C 614.488 -1.08004 3.4069 0
M  V30 6502 S 616.047 -1.75309 4.02259 0
M  V30 6503 H 612.865 -0.18003 0.68783 0
M  V30 6504 H 615.467 0.193242 1.94543 0
M  V30 6505 H 614.171 -0.274735 4.09479 0
M  V30 6506 H 613.702 -1.86182 3.46554 0
M  V30 6507 H 615.717 -3.03834 3.923 0
M  V30 6508 N 614.89 -1.56749 -0.16351 0
M  V30 6509 C 615.82 -2.00042 -1.20438 0
M  V30 6510 C 616.801 -0.877256 -1.45733 0
M  V30 6511 O 617.986 -1.1439 -1.56935 0
M  V30 6512 C 615.116 -2.36697 -2.54149 0
M  V30 6513 C 614.07 -3.52046 -2.43408 0
M  V30 6514 C 613.396 -3.74466 -3.81679 0
M  V30 6515 C 614.696 -4.85247 -1.93216 0
M  V30 6516 H 616.39 -2.87244 -0.844477 0
M  V30 6517 H 613.936 -1.38194 -0.40478 0
M  V30 6518 H 615.889 -2.65582 -3.27176 0
M  V30 6519 H 614.613 -1.46414 -2.91943 0
M  V30 6520 H 613.272 -3.23301 -1.72834 0
M  V30 6521 H 612.92 -2.81461 -4.1688 0
M  V30 6522 H 612.62 -4.52084 -3.75359 0
M  V30 6523 H 614.144 -4.0576 -4.5628 0
M  V30 6524 H 615.558 -5.12957 -2.56023 0
M  V30 6525 H 613.955 -5.66556 -1.97825 0
M  V30 6526 H 615.025 -4.7672 -0.88689 0
M  V30 6527 N 616.368 0.432326 -1.51554 0
M  V30 6528 C 617.331 1.50765 -1.72634 0
M  V30 6529 C 618.331 1.49334 -0.596314 0
M  V30 6530 O 619.521 1.51268 -0.863925 0
M  V30 6531 C 616.653 2.90284 -1.7874 0
M  V30 6532 H 617.846 1.33377 -2.68609 0
M  V30 6533 H 615.399 0.661329 -1.4162 0
M  V30 6534 H 616.134 3.13071 -0.845977 0
M  V30 6535 H 615.919 2.92727 -2.6087 0
M  V30 6536 H 617.409 3.68282 -1.96871 0
M  V30 6537 N 617.846 1.41785 0.688094 0
M  V30 6538 C 619.257 1.3701 1.26828 0
M  V30 6539 C 619.608 0.056835 1.96118 0
M  V30 6540 O 618.733 -0.84475 1.99231 0
M  V30 6541 C 619.328 2.48168 2.30648 0
M  V30 6542 C 617.887 2.46766 2.84224 0
M  V30 6543 C 617.034 2.27633 1.58361 0
M  V30 6544 H 619.985 1.51192 0.482351 0
M  V30 6545 H 620.006 2.17655 3.121 0
M  V30 6546 H 619.518 3.43735 1.80188 0
M  V30 6547 H 617.619 1.54978 3.3884 0
M  V30 6548 H 617.732 3.43342 3.34145 0
M  V30 6549 H 616.096 1.75648 1.84445 0
M  V30 6550 H 616.879 3.25238 1.09887 0
M  V30 6551 N 619.324 -0.923095 1.27737 0
M  V30 6552 C 620.74 -1.19985 1.05241 0
M  V30 6553 C 620.94 -2.00391 -0.21113 0
M  V30 6554 O 619.996 -2.35324 -0.915366 0
M  V30 6555 C 621.309 -1.94352 2.29451 0
M  V30 6556 C 622.857 -2.07273 2.34536 0
M  V30 6557 C 623.332 -2.85046 3.58487 0
M  V30 6558 N 624.823 -2.92612 3.59072 0
M  V30 6559 C 625.558 -3.53266 4.51654 0
M  V30 6560 N 625.054 -4.15274 5.54545 0
M  V30 6561 N 626.847 -3.50714 4.39268 0
M  V30 6562 H 618.998 -0.386042 2.08862 0
M  V30 6563 H 621.261 -0.233407 0.918817 0
M  V30 6564 H 620.967 -1.42692 3.21453 0
M  V30 6565 H 620.841 -2.94947 2.3513 0
M  V30 6566 H 623.228 -2.58117 1.43037 0
M  V30 6567 H 623.309 -1.05884 2.32857 0
M  V30 6568 H 622.953 -2.34884 4.50324 0
M  V30 6569 H 622.883 -3.8673 3.57418 0
M  V30 6570 H 625.374 -2.48547 2.84663 0
M  V30 6571 H 625.687 -4.59507 6.21348 0
M  V30 6572 H 624.032 -4.13806 5.58382 0
M  V30 6573 H 627.223 -3.01475 3.58093 0
M  V30 6574 H 627.396 -3.97693 5.1161 0
M  V30 6575 N 620.802 -1.09834 -1.13024 0
M  V30 6576 C 621.734 -0.699379 -2.18269 0
M  V30 6577 C 622.747 0.260841 -1.60697 0
M  V30 6578 O 623.936 0.0462538 -1.7844 0
M  V30 6579 C 621.036 -0.0104537 -3.38898 0
M  V30 6580 C 620.209 -0.993275 -4.25973 0
M  V30 6581 C 619.268 -0.336982 -5.2512 0
M  V30 6582 O 618.294 -0.985892 -5.60597 0
M  V30 6583 N 619.496 0.90716 -5.73368 0
M  V30 6584 H 622.261 -1.60486 -2.5311 0
M  V30 6585 H 619.822 -0.986337 -1.28386 0
M  V30 6586 H 621.814 0.43991 -4.02302 0
M  V30 6587 H 620.384 0.797335 -3.0226 0
M  V30 6588 H 619.604 -1.62208 -3.5928 0
M  V30 6589 H 620.892 -1.65876 -4.81002 0
M  V30 6590 H 620.29 1.45384 -5.46699 0
M  V30 6591 H 618.847 1.30077 -6.38689 0
M  V30 6592 N 622.28 1.30327 -0.886154 0
M  V30 6593 C 623.526 1.96388 -0.505941 0
M  V30 6594 C 623.859 1.69784 0.942712 0
M  V30 6595 O 623.134 1.00322 1.6663 0
M  V30 6596 C 623.417 3.51488 -0.782826 0
M  V30 6597 C 623.27 3.87603 -2.28219 0
M  V30 6598 C 624.589 4.39331 -0.260128 0
M  V30 6599 H 621.708 0.713327 -0.185292 0
M  V30 6600 H 624.35 1.54178 -1.11036 0
M  V30 6601 H 622.5 3.87572 -0.268399 0
M  V30 6602 H 624.172 3.61537 -2.86512 0
M  V30 6603 H 622.415 3.3563 -2.74837 0
M  V30 6604 H 623.086 4.95806 -2.42653 0
M  V30 6605 H 625.562 4.10162 -0.700444 0
M  V30 6606 H 624.438 5.46769 -0.483179 0
M  V30 6607 H 624.699 4.34072 0.838674 0
M  V30 6608 N 623.758 0.647228 1.43697 0
M  V30 6609 C 624.688 -0.0345631 2.33474 0
M  V30 6610 C 625.669 -0.818193 1.4913 0
M  V30 6611 O 626.854 -0.780867 1.77809 0
M  V30 6612 C 623.984 -1.00576 3.32418 0
M  V30 6613 C 622.938 -0.33266 4.26705 0
M  V30 6614 C 622.264 -1.41489 5.1564 0
M  V30 6615 C 623.564 0.771204 5.16575 0
M  V30 6616 H 625.258 0.715163 2.90733 0
M  V30 6617 H 622.804 0.345364 1.39797 0
M  V30 6618 H 624.757 -1.49159 3.94119 0
M  V30 6619 H 623.481 -1.78657 2.73403 0
M  V30 6620 H 622.14 0.13267 3.6636 0
M  V30 6621 H 621.788 -2.18698 4.52968 0
M  V30 6622 H 621.488 -0.969799 5.79542 0
M  V30 6623 H 623.012 -1.9022 5.80214 0
M  V30 6624 H 624.426 0.36779 5.72119 0
M  V30 6625 H 622.823 1.1404 5.89165 0
M  V30 6626 H 623.893 1.63169 4.56622 0
M  V30 6627 N 625.236 -1.5273 0.388769 0
M  V30 6628 C 626.647 -1.86505 -0.0853788 0
M  V30 6629 C 626.998 -1.30847 -1.46197 0
M  V30 6630 O 626.123 -0.639609 -2.06732 0
M  V30 6631 C 626.718 -3.38414 -0.161703 0
M  V30 6632 C 625.277 -3.71902 -0.580144 0
M  V30 6633 C 624.424 -2.76095 0.258218 0
M  V30 6634 H 627.375 -1.46647 0.606665 0
M  V30 6635 H 627.396 -3.67638 -0.980936 0
M  V30 6636 H 626.908 -3.78893 0.840333 0
M  V30 6637 H 625.009 -3.36992 -1.58957 0
M  V30 6638 H 625.122 -4.77902 -0.338663 0
M  V30 6639 H 623.486 -2.53195 -0.276432 0
M  V30 6640 H 624.269 -3.19411 1.25822 0
M  V30 6641 N 626.714 -0.118576 -1.57153 0
M  V30 6642 C 627.664 0.842924 -2.11846 0
M  V30 6643 C 628.648 1.22845 -1.03914 0
M  V30 6644 O 629.84 1.19961 -1.30148 0
M  V30 6645 C 626.969 2.09312 -2.72109 0
M  V30 6646 C 626.055 1.73198 -3.87122 0
M  V30 6647 N 626.446 1.07758 -4.94188 0
M  V30 6648 C 624.744 2.02659 -3.97298 0
M  V30 6649 C 625.445 0.907741 -5.74574 0
M  V30 6650 N 624.421 1.4326 -5.24383 0
M  V30 6651 H 628.223 0.333416 -2.92003 0
M  V30 6652 H 625.737 0.0839073 -1.62183 0
M  V30 6653 H 627.734 2.79162 -3.09635 0
M  V30 6654 H 626.394 2.60807 -1.93416 0
M  V30 6655 H 627.405 0.741613 -5.12563 0
M  V30 6656 H 624.082 2.56204 -3.29645 0
M  V30 6657 H 625.472 0.394112 -6.70743 0
M  V30 6658 N 628.193 1.56834 0.155195 0
M  V30 6659 C 629.103 2.009 1.21146 0
M  V30 6660 C 630.119 0.923029 1.475 0
M  V30 6661 O 631.295 1.23189 1.59331 0
M  V30 6662 C 628.36 2.37378 2.52691 0
M  V30 6663 C 627.421 3.59883 2.34057 0
M  V30 6664 C 626.654 3.94612 3.59329 0
M  V30 6665 O 626.877 3.30104 4.65175 0
M  V30 6666 O 625.811 4.87895 3.52479 0
M  V30 6667 H 629.637 2.9105 0.867371 0
M  V30 6668 H 627.222 1.44916 0.363298 0
M  V30 6669 H 629.104 2.61737 3.3026 0
M  V30 6670 H 627.779 1.50385 2.86646 0
M  V30 6671 H 626.686 3.40722 1.54465 0
M  V30 6672 H 628.019 4.47468 2.0502 0
M  V30 6673 N 629.671 -0.424282 1.51781 0
M  V30 6674 C 631.087 -0.761768 1.40247 0
M  V30 6675 C 631.287 -1.95324 0.495041 0
M  V30 6676 O 630.343 -2.5246 -0.0448949 0
M  V30 6677 C 631.656 -1.0299 2.82513 0
M  V30 6678 C 633.204 -1.13354 2.91753 0
M  V30 6679 C 633.679 -1.43453 4.34954 0
M  V30 6680 N 635.17 -1.5035 4.3812 0
M  V30 6681 C 635.905 -1.75236 5.45967 0
M  V30 6682 N 635.401 -1.97827 6.63955 0
M  V30 6683 N 637.194 -1.77126 5.33463 0
M  V30 6684 H 629.345 0.360228 2.09323 0
M  V30 6685 H 631.608 0.0988128 0.942836 0
M  V30 6686 H 631.314 -0.226961 3.50967 0
M  V30 6687 H 631.188 -1.95411 3.22637 0
M  V30 6688 H 633.575 -1.92709 2.23489 0
M  V30 6689 H 633.656 -0.188041 2.55108 0
M  V30 6690 H 633.3 -0.646209 5.03772 0
M  V30 6691 H 633.23 -2.3923 4.69123 0
M  V30 6692 H 635.721 -1.34742 3.53062 0
M  V30 6693 H 636.034 -2.16223 7.41935 0
M  V30 6694 H 634.379 -1.95123 6.67047 0
M  V30 6695 H 637.57 -1.59005 4.40267 0
M  V30 6696 H 637.743 -1.96182 6.17589 0
M  V30 6697 N 631.149 -1.42148 -0.680565 0
M  V30 6698 C 632.059 -1.47565 -1.82378 0
M  V30 6699 C 633.075 -0.36489 -1.70131 0
M  V30 6700 O 634.251 -0.614916 -1.91783 0
M  V30 6701 C 631.316 -1.37013 -3.18478 0
M  V30 6702 C 630.377 -2.58532 -3.42724 0
M  V30 6703 C 629.61 -2.48473 -4.72331 0
M  V30 6704 O 629.833 -1.51745 -5.49845 0
M  V30 6705 O 628.767 -3.38503 -4.97694 0
M  V30 6706 H 632.593 -2.44045 -1.80764 0
M  V30 6707 H 630.178 -1.23849 -0.835569 0
M  V30 6708 H 632.06 -1.33468 -3.99705 0
M  V30 6709 H 630.735 -0.436552 -3.20743 0
M  V30 6710 H 629.642 -2.67652 -2.61368 0
M  V30 6711 H 630.975 -3.50769 -3.45286 0
M  V30 6712 N 632.627 0.916307 -1.28225 0
M  V30 6713 C 633.873 1.66765 -1.154 0
M  V30 6714 C 634.206 1.91912 0.297251 0
M  V30 6715 O 633.481 1.51766 1.21644 0
M  V30 6716 C 633.764 3.02715 -1.95028 0
M  V30 6717 C 633.617 2.84738 -3.48201 0
M  V30 6718 C 634.936 4.03215 -1.76369 0
M  V30 6719 H 632.055 0.605205 -0.42059 0
M  V30 6720 H 634.697 1.06255 -1.57512 0
M  V30 6721 H 632.847 3.54365 -1.59242 0
M  V30 6722 H 634.519 2.40118 -3.9388 0
M  V30 6723 H 632.762 2.19848 -3.73964 0
M  V30 6724 H 633.433 3.8127 -3.99171 0
M  V30 6725 H 635.909 3.60617 -2.07593 0
M  V30 6726 H 634.785 4.96306 -2.34459 0
M  V30 6727 H 635.046 4.36288 -0.71452 0
M  V30 6728 N 634.105 1.10431 1.1244 0
M  V30 6729 C 635.068 0.756542 2.16354 0
M  V30 6730 C 636.068 -0.21899 1.59302 0
M  V30 6731 O 637.258 0.00415969 1.742 0
M  V30 6732 C 634.39 0.120612 3.40687 0
M  V30 6733 H 635.583 1.67696 2.48632 0
M  V30 6734 H 633.136 0.904832 1.27446 0
M  V30 6735 H 633.871 -0.810536 3.14008 0
M  V30 6736 H 633.656 0.822693 3.83372 0
M  V30 6737 H 635.146 -0.106945 4.17463 0
M  V30 6738 N 635.583 -1.29855 0.893053 0
M  V30 6739 C 636.831 -1.9544 0.514566 0
M  V30 6740 C 637.152 -1.70795 -0.940959 0
M  V30 6741 O 636.422 -1.03601 -1.66264 0
M  V30 6742 H 635.002 -0.723137 0.187302 0
M  V30 6743 H 637.664 -1.58234 1.13789 0
M  V30 6744 H 636.76 -3.04341 0.691581 0
M  V30 6745 N 637.061 -0.65484 -1.43351 0
M  V30 6746 C 638.024 0.0263562 -2.29185 0
M  V30 6747 C 639.024 0.748951 -1.42293 0
M  V30 6748 O 640.214 0.589957 -1.63906 0
M  V30 6749 C 637.346 1.04806 -3.2439 0
M  V30 6750 H 638.539 -0.728883 -2.90908 0
M  V30 6751 H 636.092 -0.416149 -1.50658 0
M  V30 6752 H 636.827 1.83247 -2.67565 0
M  V30 6753 H 636.612 0.533554 -3.88453 0
M  V30 6754 H 638.102 1.52372 -3.88809 0
M  V30 6755 N 638.539 1.52521 -0.396863 0
M  V30 6756 C 639.469 2.29582 0.425941 0
M  V30 6757 C 640.45 1.33281 1.05689 0
M  V30 6758 O 641.635 1.62181 1.06823 0
M  V30 6759 C 638.765 3.10821 1.54943 0
M  V30 6760 C 637.719 4.15069 1.04413 0
M  V30 6761 C 637.045 4.84578 2.26028 0
M  V30 6762 C 638.345 5.22191 0.106767 0
M  V30 6763 H 640.039 2.98612 -0.217045 0
M  V30 6764 H 637.585 1.43611 -0.105826 0
M  V30 6765 H 639.538 3.63492 2.13193 0
M  V30 6766 H 638.262 2.39538 2.22011 0
M  V30 6767 H 636.921 3.63389 0.484118 0
M  V30 6768 H 636.569 4.09835 2.91623 0
M  V30 6769 H 636.269 5.55043 1.92876 0
M  V30 6770 H 637.793 5.40056 2.84906 0
M  V30 6771 H 639.207 5.70176 0.597685 0
M  V30 6772 H 637.604 5.99947 -0.135352 0
M  V30 6773 H 638.674 4.77531 -0.842134 0
M  V30 6774 N 640.017 0.126909 1.57088 0
M  V30 6775 C 640.95 -0.857844 2.11462 0
M  V30 6776 C 641.928 -1.25569 1.03301 0
M  V30 6777 O 643.112 -1.35535 1.31006 0
M  V30 6778 C 640.239 -2.14912 2.61784 0
M  V30 6779 C 639.285 -1.89874 3.81903 0
M  V30 6780 S 640.118 -1.10785 5.23915 0
M  V30 6781 C 641.274 -2.41075 5.7761 0
M  V30 6782 H 641.507 -0.395384 2.94659 0
M  V30 6783 H 639.04 -0.0870151 1.54155 0
M  V30 6784 H 640.998 -2.89101 2.91429 0
M  V30 6785 H 639.659 -2.58275 1.78754 0
M  V30 6786 H 638.852 -2.85572 4.15289 0
M  V30 6787 H 638.454 -1.23802 3.52915 0
M  V30 6788 H 640.746 -3.36864 5.87817 0
M  V30 6789 H 641.689 -2.12223 6.75549 0
M  V30 6790 H 642.097 -2.50804 5.05725 0
M  V30 6791 N 641.495 -1.56914 -0.146875 0
M  V30 6792 C 642.723 -1.87515 -0.874394 0
M  V30 6793 C 643.138 -0.715116 -1.74733 0
M  V30 6794 O 642.495 0.315113 -1.79759 0
M  V30 6795 C 642.546 -3.17362 -1.731 0
M  V30 6796 O 642.267 -4.28897 -0.893245 0
M  V30 6797 C 643.768 -3.61479 -2.56609 0
M  V30 6798 H 640.988 -0.621546 -0.252827 0
M  V30 6799 H 643.532 -2.04023 -0.139627 0
M  V30 6800 H 641.687 -3.02608 -2.41883 0
M  V30 6801 H 642.101 -5.03146 -1.48137 0
M  V30 6802 H 643.575 -4.5517 -3.12289 0
M  V30 6803 H 644.052 -2.86773 -3.32653 0
M  V30 6804 H 644.658 -3.78927 -1.93117 0
M  V30 6805 N 642.974 0.416227 -1.52004 0
M  V30 6806 C 644.221 1.16383 -1.65714 0
M  V30 6807 C 644.549 1.9068 -0.383594 0
M  V30 6808 O 643.804 1.85174 0.633185 0
M  V30 6809 C 644.103 2.18923 -2.82502 0
M  V30 6810 C 643.769 1.61485 -4.20991 0
M  V30 6811 C 642.431 1.45545 -4.58661 0
M  V30 6812 C 644.783 1.19468 -5.07323 0
M  V30 6813 C 642.111 0.860937 -5.80349 0
M  V30 6814 C 644.463 0.614386 -6.29609 0
M  V30 6815 C 643.127 0.442056 -6.66035 0
M  V30 6816 H 642.397 0.425875 -0.606392 0
M  V30 6817 H 645.044 0.45199 -1.8609 0
M  V30 6818 H 643.349 2.96225 -2.56433 0
M  V30 6819 H 645.046 2.76628 -2.90307 0
M  V30 6820 H 641.636 1.74873 -3.91302 0
M  V30 6821 H 645.82 1.30596 -4.78809 0
M  V30 6822 H 641.076 0.715372 -6.072 0
M  V30 6823 H 645.25 0.280393 -6.95835 0
M  V30 6824 H 642.877 -0.0207218 -7.60197 0
M  V30 6825 N 644.452 1.42507 0.673017 0
M  V30 6826 C 645.699 1.43072 1.43306 0
M  V30 6827 C 646.027 0.0478004 1.94441 0
M  V30 6828 O 645.282 -0.944106 1.71421 0
M  V30 6829 C 645.581 2.40351 2.64511 0
M  V30 6830 C 645.247 3.8669 2.31908 0
M  V30 6831 C 643.909 4.26551 2.22728 0
M  V30 6832 C 646.261 4.78991 2.05467 0
M  V30 6833 C 643.589 5.56691 1.85234 0
M  V30 6834 C 645.941 6.09476 1.69477 0
M  V30 6835 C 644.605 6.48334 1.58808 0
M  V30 6836 H 643.875 0.523536 0.524395 0
M  V30 6837 H 646.522 1.75459 0.76723 0
M  V30 6838 H 644.827 2.01297 3.36135 0
M  V30 6839 H 646.524 2.38051 3.22696 0
M  V30 6840 H 643.114 3.55132 2.39956 0
M  V30 6841 H 647.298 4.48982 2.11492 0
M  V30 6842 H 642.554 5.85657 1.75545 0
M  V30 6843 H 646.728 6.80482 1.48043 0
M  V30 6844 H 644.355 7.49084 1.29525 0
M  V30 6845 N 645.93 -0.909495 1.28709 0
M  V30 6846 C 646.86 -2.0291 1.15542 0
M  V30 6847 C 647.841 -1.7002 0.0521017 0
M  V30 6848 O 649.026 -1.92835 0.229849 0
M  V30 6849 C 646.156 -3.37458 0.820935 0
M  V30 6850 C 645.11 -3.84524 1.87949 0
M  V30 6851 C 644.436 -5.16086 1.39854 0
M  V30 6852 C 645.736 -4.05918 3.28676 0
M  V30 6853 H 647.43 -2.14183 2.09203 0
M  V30 6854 H 644.976 -1.02913 1.00722 0
M  V30 6855 H 646.929 -4.1528 0.715571 0
M  V30 6856 H 645.653 -3.26249 -0.151374 0
M  V30 6857 H 644.312 -3.08911 1.97408 0
M  V30 6858 H 643.96 -5.01284 0.41518 0
M  V30 6859 H 643.66 -5.48547 2.1064 0
M  V30 6860 H 645.184 -5.96459 1.30649 0
M  V30 6861 H 646.598 -4.74252 3.22115 0
M  V30 6862 H 644.995 -4.49717 3.97334 0
M  V30 6863 H 646.065 -3.10583 3.72379 0
M  V30 6864 N 647.408 -1.11026 -1.11852 0
M  V30 6865 C 648.371 -0.768006 -2.1595 0
M  V30 6866 C 649.371 0.210538 -1.59416 0
M  V30 6867 O 650.561 -0.0133978 -1.74195 0
M  V30 6868 C 647.693 -0.138678 -3.40618 0
M  V30 6869 H 648.886 -1.69012 -2.4774 0
M  V30 6870 H 646.439 -0.911578 -1.26964 0
M  V30 6871 H 647.174 0.793872 -3.14433 0
M  V30 6872 H 646.959 -0.843012 -3.8293 0
M  V30 6873 H 648.449 0.0848039 -4.17514 0
M  V30 6874 N 648.886 1.2938 -0.899927 0
M  V30 6875 C 649.816 2.30144 -0.39446 0
M  V30 6876 C 650.797 1.61611 0.530639 0
M  V30 6877 O 651.982 1.89119 0.441319 0
M  V30 6878 C 649.112 3.45229 0.37868 0
M  V30 6879 C 648.066 4.25564 -0.456012 0
M  V30 6880 C 647.392 5.32848 0.444637 0
M  V30 6881 C 648.692 4.93651 -1.70605 0
M  V30 6882 H 650.386 2.72673 -1.23653 0
M  V30 6883 H 647.932 1.31086 -0.596034 0
M  V30 6884 H 649.885 4.14797 0.743037 0
M  V30 6885 H 648.609 3.01545 1.25453 0
M  V30 6886 H 647.268 3.57704 -0.802704 0
M  V30 6887 H 646.916 4.85408 1.31863 0
M  V30 6888 H 646.616 5.87497 -0.110154 0
M  V30 6889 H 648.14 6.05268 0.805182 0
M  V30 6890 H 649.554 5.55655 -1.41141 0
M  V30 6891 H 647.951 5.58233 -2.20217 0
M  V30 6892 H 649.021 4.18926 -2.4419 0
M  V30 6893 N 650.364 0.662433 1.43002 0
M  V30 6894 C 651.612 0.179237 2.01304 0
M  V30 6895 C 651.933 -1.21428 1.52579 0
M  V30 6896 O 651.203 -1.81294 0.742252 0
M  V30 6897 H 649.783 0.0632725 0.744316 0
M  V30 6898 H 652.445 0.856169 1.75088 0
M  V30 6899 H 651.541 0.170957 3.11631 0
M  V30 6900 N 651.842 -1.52309 0.404946 0
M  V30 6901 C 652.772 -2.29805 -0.41376 0
M  V30 6902 C 653.753 -1.3384 -1.0498 0
M  V30 6903 O 654.938 -1.62745 -1.05961 0
M  V30 6904 C 652.068 -3.11639 -1.53292 0
M  V30 6905 C 651.022 -4.15616 -1.02211 0
M  V30 6906 C 650.348 -4.8577 -2.23455 0
M  V30 6907 C 651.648 -5.2224 -0.0790725 0
M  V30 6908 H 653.342 -2.98493 0.232878 0
M  V30 6909 H 650.888 -1.43552 0.113441 0
M  V30 6910 H 652.841 -3.64618 -2.11262 0
M  V30 6911 H 651.565 -2.40712 -2.20738 0
M  V30 6912 H 650.224 -3.63641 -0.46484 0
M  V30 6913 H 649.872 -4.11376 -2.89445 0
M  V30 6914 H 649.572 -5.56058 -1.89929 0
M  V30 6915 H 651.096 -5.4156 -2.82038 0
M  V30 6916 H 652.51 -5.70485 -0.567438 0
M  V30 6917 H 650.907 -5.99867 0.167167 0
M  V30 6918 H 651.977 -4.77078 0.867447 0
M  V30 6919 N 653.32 -0.135238 -1.57019 0
M  V30 6920 C 654.545 0.529343 -2.00531 0
M  V30 6921 C 654.97 1.58391 -1.01459 0
M  V30 6922 O 654.328 1.81296 0.0113986 0
M  V30 6923 C 654.376 1.11748 -3.42848 0
M  V30 6924 O 653.48 2.23267 -3.46736 0
M  V30 6925 H 652.821 0.130669 -0.651016 0
M  V30 6926 H 655.351 -0.228503 -2.0332 0
M  V30 6927 H 655.361 1.44905 -3.81401 0
M  V30 6928 H 654.036 0.345147 -4.14465 0
M  V30 6929 H 652.613 1.91428 -3.20015 0
M  V30 6930 N 654.798 1.5699 0.138552 0
M  V30 6931 C 656.038 1.85619 0.855849 0
M  V30 6932 C 656.402 0.720663 1.77962 0
M  V30 6933 O 657.603 0.888221 2.53701 0
M  V30 6934 C 655.874 3.19447 1.60275 0
M  V30 6935 S 657.433 3.69656 2.36431 0
M  V30 6936 H 654.251 0.650926 0.286035 0
M  V30 6937 H 656.853 1.9516 0.115331 0
M  V30 6938 H 655.557 4.00053 0.915737 0
M  V30 6939 H 655.088 3.12935 2.38402 0
M  V30 6940 H 657.103 3.39595 3.61787 0
M  V30 6941 N 656.276 -0.40816 1.52223 0
M  V30 6942 C 657.524 -1.15274 1.66001 0
M  V30 6943 C 657.845 -1.91003 0.392803 0
M  V30 6944 O 657.115 -1.8673 -0.592336 0
M  V30 6945 H 655.695 -0.428526 0.611861 0
M  V30 6946 H 658.357 -0.46512 1.89269 0
M  V30 6947 H 657.453 -1.86628 2.50153 0
M  V30 6948 N 657.755 -1.42862 -0.66545 0
M  V30 6949 C 658.718 -1.46756 -1.76055 0
M  V30 6950 C 659.718 -0.353866 -1.56858 0
M  V30 6951 O 660.908 -0.615099 -1.62979 0
M  V30 6952 C 658.04 -1.30829 -3.14796 0
M  V30 6953 H 659.233 -2.44271 -1.73987 0
M  V30 6954 H 656.786 -1.29447 -0.875965 0
M  V30 6955 H 657.521 -0.342733 -3.22484 0
M  V30 6956 H 657.306 -2.11551 -3.30134 0
M  V30 6957 H 658.796 -1.36458 -3.94676 0
M  V30 6958 N 659.233 0.902656 -1.29189 0
M  V30 6959 C 660.458 1.69167 -1.19989 0
M  V30 6960 C 660.883 1.86607 0.236495 0
M  V30 6961 O 660.241 1.38425 1.17082 0
M  V30 6962 C 660.289 3.05532 -1.91527 0
M  V30 6963 O 659.393 3.93621 -1.2303 0
M  V30 6964 H 658.734 0.517584 -0.415936 0
M  V30 6965 H 661.264 1.12785 -1.70706 0
M  V30 6966 H 661.274 3.55693 -1.99866 0
M  V30 6967 H 659.949 2.92156 -2.96003 0
M  V30 6968 H 658.526 3.52055 -1.22928 0
M  V30 6969 N 660.711 1.11618 1.11262 0
M  V30 6970 C 661.641 0.79846 2.19424 0
M  V30 6971 C 662.622 -0.234003 1.68483 0
M  V30 6972 O 663.807 -0.0970704 1.93957 0
M  V30 6973 C 660.937 0.242892 3.4645 0
M  V30 6974 C 659.891 1.20744 4.10615 0
M  V30 6975 C 659.217 0.512494 5.32238 0
M  V30 6976 C 660.517 2.55884 4.55325 0
M  V30 6977 H 662.211 1.70286 2.46258 0
M  V30 6978 H 659.757 0.820195 1.18359 0
M  V30 6979 H 661.71 0.00840447 4.21399 0
M  V30 6980 H 660.434 -0.696811 3.1908 0
M  V30 6981 H 659.093 1.42759 3.37662 0
M  V30 6982 H 658.741 -0.432075 5.01141 0
M  V30 6983 H 658.441 1.15583 5.7612 0
M  V30 6984 H 659.965 0.286842 6.09926 0
M  V30 6985 H 661.379 2.37946 5.21588 0
M  V30 6986 H 659.776 3.16216 5.10027 0
M  V30 6987 H 660.846 3.14968 3.68678 0
M  V30 6988 N 662.189 -1.289 0.906776 0
M  V30 6989 C 663.414 -1.99939 0.551303 0
M  V30 6990 C 663.839 -1.67366 -0.858496 0
M  V30 6991 O 663.197 -0.902176 -1.57259 0
M  V30 6992 C 663.245 -3.52523 0.758937 0
M  V30 6993 O 662.349 -4.11983 -0.185308 0
M  V30 6994 H 661.69 -0.628376 0.214568 0
M  V30 6995 H 664.22 -1.64225 1.2203 0
M  V30 6996 H 664.23 -4.02522 0.666329 0
M  V30 6997 H 662.905 -3.75566 1.78671 0
M  V30 6998 H 661.482 -3.72873 -0.0445577 0
M  V30 6999 N 663.667 -0.670007 -1.42649 0
M  V30 7000 C 664.914 -0.190286 -2.01604 0
M  V30 7001 C 665.242 1.20155 -1.52948 0
M  V30 7002 O 664.497 1.81964 -0.72026 0
M  V30 7003 C 664.796 -0.168298 -3.57004 0
M  V30 7004 C 664.462 -1.50415 -4.25072 0
M  V30 7005 C 663.124 -1.86992 -4.43382 0
M  V30 7006 C 665.476 -2.38414 -4.63474 0
M  V30 7007 C 662.804 -3.11203 -4.97363 0
M  V30 7008 C 665.156 -3.61933 -5.18833 0
M  V30 7009 C 663.82 -3.98685 -5.35356 0
M  V30 7010 H 663.09 -0.0696305 -0.737721 0
M  V30 7011 H 665.737 -0.864044 -1.70899 0
M  V30 7012 H 664.042 0.588958 -3.87348 0
M  V30 7013 H 665.739 0.22001 -4.00396 0
M  V30 7014 H 662.329 -1.20959 -4.11177 0
M  V30 7015 H 666.513 -2.11442 -4.49006 0
M  V30 7016 H 661.769 -3.39705 -5.08341 0
M  V30 7017 H 665.943 -4.30326 -5.47533 0
M  V30 7018 H 663.57 -4.95009 -5.76949 0
M  V30 7019 N 665.145 1.52092 -0.413018 0
M  V30 7020 C 666.075 2.30021 0.401567 0
M  V30 7021 C 667.056 1.34395 1.04269 0
M  V30 7022 O 668.241 1.63304 1.05097 0
M  V30 7023 C 665.371 3.12447 1.51638 0
M  V30 7024 C 664.325 4.16153 1.00005 0
M  V30 7025 C 663.651 4.86948 2.20875 0
M  V30 7026 C 664.951 5.22275 0.0513757 0
M  V30 7027 H 666.645 2.98365 -0.248704 0
M  V30 7028 H 664.191 1.4349 -0.121052 0
M  V30 7029 H 666.144 3.65733 2.09326 0
M  V30 7030 H 664.868 2.41879 2.19458 0
M  V30 7031 H 663.527 3.63882 0.445549 0
M  V30 7032 H 663.175 4.12905 2.8726 0
M  V30 7033 H 662.875 5.57057 1.86978 0
M  V30 7034 H 664.399 5.43048 2.79162 0
M  V30 7035 H 665.813 5.70778 0.537176 0
M  V30 7036 H 664.21 5.9977 -0.198977 0
M  V30 7037 H 665.28 4.76611 -0.892736 0
M  V30 7038 N 666.623 0.143563 1.56945 0
M  V30 7039 C 667.87 -0.508407 1.96014 0
M  V30 7040 C 668.198 -1.65099 1.02824 0
M  V30 7041 O 667.453 -1.95618 0.0567764 0
M  V30 7042 C 667.752 -1.05885 3.41355 0
M  V30 7043 C 667.418 -0.0350809 4.50886 0
M  V30 7044 C 666.08 0.246362 4.80569 0
M  V30 7045 C 668.432 0.661282 5.16988 0
M  V30 7046 C 665.76 1.23003 5.73661 0
M  V30 7047 C 668.112 1.63375 6.11139 0
M  V30 7048 C 666.776 1.92292 6.39203 0
M  V30 7049 H 666.046 -0.186039 0.717266 0
M  V30 7050 H 668.693 0.229667 1.90118 0
M  V30 7051 H 666.998 -1.87419 3.44066 0
M  V30 7052 H 668.695 -1.57183 3.6891 0
M  V30 7053 H 665.285 -0.264622 4.27782 0
M  V30 7054 H 669.469 0.457038 4.94191 0
M  V30 7055 H 664.725 1.46056 5.93698 0
M  V30 7056 H 668.899 2.17887 6.61436 0
M  V30 7057 H 666.526 2.68666 7.11142 0
M  V30 7058 N 668.101 -1.57061 -0.130224 0
M  V30 7059 C 669.048 -1.99517 -1.16024 0
M  V30 7060 C 670.018 -0.865452 -1.41771 0
M  V30 7061 O 671.203 -1.12882 -1.53826 0
M  V30 7062 C 668.343 -2.3951 -2.48453 0
M  V30 7063 C 667.456 -3.65848 -2.29737 0
M  V30 7064 C 666.591 -3.9487 -3.55318 0
M  V30 7065 C 665.63 -5.14426 -3.31711 0
M  V30 7066 N 664.767 -5.39375 -4.49466 0
M  V30 7067 H 669.607 -2.87305 -0.791194 0
M  V30 7068 H 667.144 -1.42129 -0.379195 0
M  V30 7069 H 669.102 -2.60731 -3.25692 0
M  V30 7070 H 667.732 -1.54779 -2.83272 0
M  V30 7071 H 666.784 -3.52307 -1.4347 0
M  V30 7072 H 668.096 -4.53241 -2.08263 0
M  V30 7073 H 667.25 -4.16679 -4.4098 0
M  V30 7074 H 665.989 -3.05931 -3.79813 0
M  V30 7075 H 664.994 -4.92473 -2.44439 0
M  V30 7076 H 666.219 -6.04933 -3.08598 0
M  V30 7077 H 664.165 -4.53391 -4.74102 0
M  V30 7078 H 664.082 -6.21069 -4.31055 0
M  V30 7079 H 665.35 -5.65694 -5.36293 0
M  V30 7080 N 669.579 0.400081 -1.52437 0
M  V30 7081 C 670.542 1.4707 -1.75793 0
M  V30 7082 C 671.542 1.48036 -0.627856 0
M  V30 7083 O 672.732 1.49401 -0.895817 0
M  V30 7084 C 669.864 2.86427 -1.84858 0
M  V30 7085 H 671.057 1.27649 -2.71377 0
M  V30 7086 H 668.61 0.631141 -1.42991 0
M  V30 7087 H 669.345 3.11207 -0.912194 0
M  V30 7088 H 669.13 2.87128 -2.6702 0
M  V30 7089 H 670.62 3.64023 -2.04638 0
M  V30 7090 N 671.057 1.43213 0.657864 0
M  V30 7091 C 671.987 1.50815 1.78262 0
M  V30 7092 C 672.968 0.363211 1.66177 0
M  V30 7093 O 674.153 0.579806 1.85343 0
M  V30 7094 C 671.283 1.42625 3.16663 0
M  V30 7095 C 670.237 2.5532 3.43505 0
M  V30 7096 C 669.563 2.32184 4.81658 0
M  V30 7097 C 670.863 3.97583 3.38711 0
M  V30 7098 H 672.557 2.44954 1.72157 0
M  V30 7099 H 670.103 1.17896 0.82683 0
M  V30 7100 H 672.056 1.46548 3.95097 0
M  V30 7101 H 670.78 0.449877 3.23487 0
M  V30 7102 H 669.439 2.50742 2.6744 0
M  V30 7103 H 669.087 1.32801 4.85153 0
M  V30 7104 H 668.787 3.07724 5.00579 0
M  V30 7105 H 670.311 2.37883 5.62356 0
M  V30 7106 H 671.725 4.03673 4.07089 0
M  V30 7107 H 670.122 4.73112 3.69168 0
M  V30 7108 H 671.192 4.23049 2.36976 0
M  V30 7109 N 672.536 -0.895792 1.29666 0
M  V30 7110 C 673.466 -2.01673 1.17688 0
M  V30 7111 C 674.447 -1.69955 0.0701317 0
M  V30 7112 O 675.632 -1.9258 0.250289 0
M  V30 7113 C 672.762 -3.36568 0.856681 0
M  V30 7114 C 671.716 -3.82509 1.92017 0
M  V30 7115 C 671.042 -5.14574 1.4532 0
M  V30 7116 C 672.342 -4.02409 3.32963 0
M  V30 7117 H 674.036 -2.11953 2.11463 0
M  V30 7118 H 671.582 -1.01839 1.01807 0
M  V30 7119 H 673.535 -4.14498 0.759577 0
M  V30 7120 H 672.259 -3.26391 -0.116763 0
M  V30 7121 H 670.918 -3.068 2.00673 0
M  V30 7122 H 670.566 -5.00815 0.468325 0
M  V30 7123 H 670.266 -5.46283 2.16447 0
M  V30 7124 H 671.79 -5.9504 1.36968 0
M  V30 7125 H 673.204 -4.70808 3.27127 0
M  V30 7126 H 671.601 -4.45478 4.02082 0
M  V30 7127 H 672.671 -3.06616 3.75652 0
M  V30 7128 O 674.053 -1.24272 -1.03144 0
M  V30 7129 H 674.744 -1.0191 -1.64724 0
M  V30 END ATOM
M  V30 BEGIN BOND
M  V30 END BOND
M  V30 END CTAB
M  END
$$$$
