drugbank_target|Q14541 Hepatocyte nuclear factor 4-gamma (DB03796)
 OpenBabel12092120283D

  0  0  0     0  0            999 V3000
M  V30 BEGIN CTAB
M  V30 COUNTS 6438 6494 0 0 0
M  V30 BEGIN ATOM
M  V30 1 H -0.908 1.98254 -0.117106 0
M  V30 2 N 0 1.576 0 0
M  V30 3 C 0.933 2.03868 1.02534 0
M  V30 4 C 1.911 0.928543 1.3348 0
M  V30 5 O 3.095 1.19667 1.45644 0
M  V30 6 C 0.222 2.43627 2.35294 0
M  V30 7 C -0.732 3.65373 2.2001 0
M  V30 8 S 0.101 5.13292 1.52614 0
M  V30 9 C 1.257 5.56322 2.86805 0
M  V30 10 H 1.49 2.90518 0.631377 0
M  V30 11 H -0.977 1.52953 0.210867 0
M  V30 12 H 0.981 2.67203 3.11629 0
M  V30 13 H -0.358 1.57376 2.7183 0
M  V30 14 H -1.165 3.90944 3.18086 0
M  V30 15 H -1.563 3.418 1.51819 0
M  V30 16 H 0.729 5.58782 3.83104 0
M  V30 17 H 1.672 6.56266 2.65933 0
M  V30 18 H 2.08 4.83886 2.90714 0
M  V30 19 N 1.4781 -0.272755 1.55222 0
M  V30 20 C 2.4261 -1.35705 1.88909 0
M  V30 21 C 3.4201 -1.5112 0.765456 0
M  V30 22 O 4.6261 -1.52901 0.949802 0
M  V30 23 H 1.0011 -0.453868 0.59959 0
M  V30 24 H 2.9721 -1.04544 2.79487 0
M  V30 25 C 1.7211 -2.71049 2.17779 0
M  V30 26 H 1.0441 -2.59979 3.03728 0
M  V30 27 H 2.4841 -3.45858 2.45272 0
M  V30 28 C 0.9431 -3.22165 0.985473 0
M  V30 29 O 1.4731 -4.01096 0.220233 0
M  V30 30 N -0.3209 -2.7985 0.783108 0
M  V30 31 H -0.7739 -2.15775 1.40708 0
M  V30 32 H -0.8159 -3.14397 -0.0130392 0
M  V30 33 N 2.9562 -1.48159 -0.537278 0
M  V30 34 C 4.1842 -1.59454 -1.31841 0
M  V30 35 C 4.5992 -0.252065 -1.8711 0
M  V30 36 O 3.9562 0.757621 -1.66031 0
M  V30 37 C 4.0072 -2.63546 -2.47439 0
M  V30 38 O 3.7282 -3.92583 -1.94449 0
M  V30 39 C 5.2292 -2.85212 -3.39366 0
M  V30 40 H 2.4492 -0.53785 -0.401196 0
M  V30 41 H 4.9932 -1.93932 -0.648891 0
M  V30 42 H 3.1482 -2.31946 -3.1029 0
M  V30 43 H 3.5622 -4.49629 -2.70063 0
M  V30 44 H 5.0362 -3.61863 -4.16844 0
M  V30 45 H 5.5132 -1.93765 -3.94147 0
M  V30 46 H 6.1192 -3.18086 -2.82314 0
M  V30 47 N 4.4343 0.785586 -1.36625 0
M  V30 48 C 5.6623 1.57448 -1.3423 0
M  V30 49 C 6.0773 1.88649 0.0755653 0
M  V30 50 O 5.4343 1.50414 1.03354 0
M  V30 51 C 5.4853 2.89316 -2.16745 0
M  V30 52 O 5.2063 2.59459 -3.53005 0
M  V30 53 C 6.7073 3.83606 -2.22174 0
M  V30 54 H 3.9273 0.488226 -0.4603 0
M  V30 55 H 6.4713 0.974733 -1.79775 0
M  V30 56 H 4.6263 3.4575 -1.74745 0
M  V30 57 H 5.0403 3.43804 -3.96105 0
M  V30 58 H 6.5143 4.73181 -2.8426 0
M  V30 59 H 6.9913 4.21734 -1.22627 0
M  V30 60 H 7.5973 3.33104 -2.64427 0
M  V30 61 N 5.9124 1.20967 1.01018 0
M  V30 62 C 7.1894 0.93264 1.71934 0
M  V30 63 C 7.5694 -0.55692 2.03621 0
M  V30 64 O 6.9174 -1.52035 1.7058 0
M  V30 65 C 7.1274 1.81233 2.98254 0
M  V30 66 C 8.4754 2.05804 3.71389 0
M  V30 67 O 9.4994 1.78539 3.08225 0
M  V30 68 O 8.3584 2.51888 4.84989 0
M  V30 69 H 5.4524 0.349272 0.749625 0
M  V30 70 H 7.9984 1.31871 1.06808 0
M  V30 71 H 6.7704 2.82067 2.71208 0
M  V30 72 H 6.3934 1.42674 3.7112 0
M  V30 73 N 7.3905 -1.2043 1.01659 0
M  V30 74 C 8.3385 -2.25249 0.580143 0
M  V30 75 C 9.3325 -1.65057 -0.381115 0
M  V30 76 O 10.5385 -1.78241 -0.251039 0
M  V30 77 H 6.9135 -0.732695 0.169299 0
M  V30 78 H 8.8845 -2.59389 1.47512 0
M  V30 79 C 7.6335 -3.47638 -0.065788 0
M  V30 80 H 6.9565 -3.94233 0.664874 0
M  V30 81 H 8.3965 -4.2268 -0.334282 0
M  V30 82 C 6.8555 -3.10447 -1.3086 0
M  V30 83 O 7.3855 -3.21981 -2.4019 0
M  V30 84 N 5.5915 -2.64996 -1.1927 0
M  V30 85 H 5.1385 -2.55811 -0.303064 0
M  V30 86 H 5.0965 -2.40482 -2.02523 0
M  V30 87 N 8.8686 -0.792821 -1.36206 0
M  V30 88 C 10.1166 -0.366062 -1.98757 0
M  V30 89 C 10.4376 1.0668 -1.63231 0
M  V30 90 O 9.7076 1.73587 -0.907978 0
M  V30 91 H 8.2876 -0.132364 -0.735179 0
M  V30 92 H 10.9496 -1.01562 -1.66347 0
M  V30 93 H 10.0456 -0.460638 -3.08682 0
M  V30 94 N 10.3467 1.47872 -0.545128 0
M  V30 95 C 11.5927 2.02793 -0.0166104 0
M  V30 96 C 11.9257 1.41987 1.32489 0
M  V30 97 O 11.2007 0.571045 1.85928 0
M  V30 98 C 11.4837 3.59989 0.0893294 0
M  V30 99 C 11.3367 4.3125 -1.27841 0
M  V30 100 C 12.6557 4.32606 0.808724 0
M  V30 101 H 9.7747 0.736962 -0.00751035 0
M  V30 102 H 12.4167 1.76433 -0.705085 0
M  V30 103 H 10.5667 3.82579 0.675681 0
M  V30 104 H 12.2387 4.20035 -1.90704 0
M  V30 105 H 10.4817 3.92076 -1.85632 0
M  V30 106 H 11.1527 5.39736 -1.15713 0
M  V30 107 H 13.6287 4.14936 0.310992 0
M  V30 108 H 12.5047 5.42251 0.851782 0
M  V30 109 H 12.7657 4.00963 1.86229 0
M  V30 110 N 11.8248 0.280983 1.55075 0
M  V30 111 C 12.7728 -0.619864 2.24188 0
M  V30 112 C 13.7668 -1.15315 1.24092 0
M  V30 113 O 14.9728 -1.1061 1.42005 0
M  V30 114 H 11.3478 -0.218459 0.719569 0
M  V30 115 H 13.3188 -0.0141831 2.98397 0
M  V30 116 C 12.0678 -1.7899 2.98091 0
M  V30 117 H 11.3908 -1.38874 3.74905 0
M  V30 118 H 12.8308 -2.39672 3.49762 0
M  V30 119 C 11.2898 -2.68192 2.03899 0
M  V30 120 O 11.8198 -3.6872 1.594 0
M  V30 121 N 10.0258 -2.35488 1.70275 0
M  V30 122 H 9.5728 -1.53787 2.06658 0
M  V30 123 H 9.5308 -2.95442 1.07524 0
M  V30 124 N 13.3029 -1.57598 0.00835791 0
M  V30 125 C 14.5429 -1.92788 -0.679136 0
M  V30 126 C 14.9069 -0.883378 -1.70471 0
M  V30 127 O 16.1079 -1.12079 -2.44319 0
M  V30 128 C 14.3789 -3.32994 -1.29807 0
M  V30 129 S 15.9379 -3.90082 -2.00952 0
M  V30 130 H 12.7559 -0.67475 -0.224127 0
M  V30 131 H 15.3579 -1.95385 0.0670497 0
M  V30 132 H 14.0619 -4.06846 -0.538922 0
M  V30 133 H 13.5929 -3.33791 -2.082 0
M  V30 134 H 15.6079 -3.71834 -3.28563 0
M  V30 135 N 14.781 0.264519 -1.55364 0
M  V30 136 C 15.711 1.33121 -1.91836 0
M  V30 137 C 16.692 1.51101 -0.781192 0
M  V30 138 O 17.877 1.64003 -1.04003 0
M  V30 139 C 15.007 2.68921 -2.19769 0
M  V30 140 C 13.961 2.65661 -3.35571 0
M  V30 141 C 13.287 4.05093 -3.49004 0
M  V30 142 C 14.587 2.24187 -4.71739 0
M  V30 143 H 16.281 1.02844 -2.81182 0
M  V30 144 H 13.827 0.493286 -1.35287 0
M  V30 145 H 15.78 3.43663 -2.43872 0
M  V30 146 H 14.504 3.00799 -1.27231 0
M  V30 147 H 13.163 1.93377 -3.1145 0
M  V30 148 H 12.811 4.34206 -2.53917 0
M  V30 149 H 12.511 4.03804 -4.26868 0
M  V30 150 H 14.035 4.81561 -3.75408 0
M  V30 151 H 15.449 2.88654 -4.9533 0
M  V30 152 H 13.846 2.34044 -5.52579 0
M  V30 153 H 14.916 1.19327 -4.69988 0
M  V30 154 N 16.2591 1.48442 0.529413 0
M  V30 155 C 17.4991 1.58086 1.29569 0
M  V30 156 C 17.8631 0.249302 1.90375 0
M  V30 157 O 19.0641 0.220738 2.67892 0
M  V30 158 C 17.3351 2.68793 2.35552 0
M  V30 159 S 18.8941 2.98207 3.21898 0
M  V30 160 H 15.7121 0.557922 0.440732 0
M  V30 161 H 18.3141 1.85966 0.603059 0
M  V30 162 H 17.0181 3.64102 1.89363 0
M  V30 163 H 16.5491 2.42817 3.09522 0
M  V30 164 H 18.5641 2.37548 4.35644 0
M  V30 165 N 17.7372 -0.778329 1.37039 0
M  V30 166 C 18.7002 -1.87301 1.32102 0
M  V30 167 C 19.7002 -1.59198 0.226405 0
M  V30 168 O 20.8902 -1.67403 0.481861 0
M  V30 169 C 18.0222 -3.24309 1.05055 0
M  V30 170 H 19.2152 -1.93093 2.29467 0
M  V30 171 H 16.7682 -0.977358 1.21973 0
M  V30 172 H 17.5032 -3.24196 0.0819373 0
M  V30 173 H 17.2882 -3.46098 1.84279 0
M  V30 174 H 18.7782 -4.04382 1.04234 0
M  V30 175 N 19.2153 -1.21501 -1.00376 0
M  V30 176 C 20.4643 -1.02718 -1.73586 0
M  V30 177 C 20.7773 0.439589 -1.90596 0
M  V30 178 O 21.9833 0.746848 -2.61026 0
M  V30 179 C 20.4393 -1.78929 -3.1227 0
M  V30 180 C 20.0473 -3.29783 -3.03228 0
M  V30 181 C 21.7913 -1.68557 -3.89601 0
M  V30 182 C 19.6983 -3.98479 -4.36999 0
M  V30 183 H 18.6283 -0.380733 -0.650814 0
M  V30 184 H 21.2793 -1.45248 -1.1214 0
M  V30 185 H 19.6613 -1.29192 -3.74333 0
M  V30 186 H 20.8353 -3.86832 -2.50395 0
M  V30 187 H 19.1503 -3.40711 -2.39385 0
M  V30 188 H 21.7473 -2.17211 -4.88593 0
M  V30 189 H 22.0903 -0.644021 -4.11288 0
M  V30 190 H 22.6233 -2.15778 -3.34193 0
M  V30 191 H 19.3623 -5.02841 -4.20513 0
M  V30 192 H 18.8823 -3.46219 -4.89788 0
M  V30 193 H 20.5613 -4.03462 -5.05794 0
M  V30 194 N 20.6934 1.19889 -1.02296 0
M  V30 195 C 21.9334 1.91125 -0.724602 0
M  V30 196 C 22.2974 1.77464 0.732835 0
M  V30 197 O 23.4984 2.43241 1.144 0
M  V30 198 C 21.7694 3.38187 -1.15604 0
M  V30 199 S 23.3284 4.27702 -0.980621 0
M  V30 200 H 20.1464 0.66018 -0.263976 0
M  V30 201 H 22.7484 1.44978 -1.31155 0
M  V30 202 H 21.4524 3.45653 -2.21251 0
M  V30 203 H 20.9834 3.89363 -0.562131 0
M  V30 204 H 22.9984 4.96073 0.112225 0
M  V30 205 N 22.1715 0.800033 1.35784 0
M  V30 206 C 23.4195 0.376597 1.9856 0
M  V30 207 C 23.7405 -1.05812 1.63795 0
M  V30 208 O 23.0105 -1.73103 0.917171 0
M  V30 209 H 21.5905 0.136261 0.734467 0
M  V30 210 H 24.2525 1.02442 1.65806 0
M  V30 211 H 23.3485 0.477002 3.08433 0
M  V30 212 N 23.6496 -1.47581 0.552962 0
M  V30 213 C 24.9266 -1.95563 -0.0381515 0
M  V30 214 C 25.3066 -1.49552 -1.48988 0
M  V30 215 O 24.6546 -0.732414 -2.16444 0
M  V30 216 C 24.8646 -3.48848 0.102919 0
M  V30 217 C 26.2126 -4.24577 -0.0446082 0
M  V30 218 O 27.2366 -3.56187 0.0302548 0
M  V30 219 O 26.0956 -5.46116 -0.204923 0
M  V30 220 H 23.1896 -0.824321 -0.0665067 0
M  V30 221 H 25.7356 -1.58001 0.619186 0
M  V30 222 H 24.5076 -3.75129 1.11328 0
M  V30 223 H 24.1306 -3.93165 -0.592224 0
M  V30 224 N 25.1277 -0.289203 -1.54924 0
M  V30 225 C 26.5437 0.0645403 -1.59469 0
M  V30 226 C 26.7437 1.53419 -1.30632 0
M  V30 227 O 25.7997 2.2852 -1.074 0
M  V30 228 C 27.1127 -0.32278 -2.98963 0
M  V30 229 C 28.6607 -0.270564 -3.11828 0
M  V30 230 C 29.1357 -0.632532 -4.53611 0
M  V30 231 N 30.6267 -0.584617 -4.59496 0
M  V30 232 C 31.3617 -0.837314 -5.67254 0
M  V30 233 N 30.8577 -1.15536 -6.83098 0
M  V30 234 N 32.6507 -0.765166 -5.56868 0
M  V30 235 H 24.8017 -1.24714 -1.71931 0
M  V30 236 H 27.0647 -0.504809 -0.802416 0
M  V30 237 H 26.7707 -1.34541 -3.24948 0
M  V30 238 H 26.6447 0.32944 -3.75759 0
M  V30 239 H 29.0317 0.742805 -2.85598 0
M  V30 240 H 29.1127 -0.957242 -2.37214 0
M  V30 241 H 28.7567 -1.64365 -4.80569 0
M  V30 242 H 28.6867 0.07609 -5.26545 0
M  V30 243 H 31.1777 -0.349248 -3.76283 0
M  V30 244 H 31.4907 -1.33447 -7.61191 0
M  V30 245 H 29.8357 -1.19328 -6.84679 0
M  V30 246 H 33.0267 -0.516432 -4.65243 0
M  V30 247 H 33.1997 -0.965477 -6.40767 0
M  V30 248 N 26.6058 1.57591 -0.0167156 0
M  V30 249 C 27.5688 2.08393 0.954204 0
M  V30 250 C 28.5688 0.996531 1.26198 0
M  V30 251 O 29.7588 1.25858 1.20438 0
M  V30 252 C 26.8908 2.5394 2.27436 0
M  V30 253 H 28.0838 2.95455 0.514451 0
M  V30 254 H 25.6368 1.54582 0.231089 0
M  V30 255 H 26.3718 1.70171 2.76066 0
M  V30 256 H 26.1568 3.33371 2.06412 0
M  V30 257 H 27.6468 2.93512 2.97053 0
M  V30 258 N 28.0839 -0.256276 1.55502 0
M  V30 259 C 29.3119 -1.00342 1.8094 0
M  V30 260 C 29.7269 -1.79307 0.59114 0
M  V30 261 O 29.0839 -1.77114 -0.440081 0
M  V30 262 C 29.1349 -1.94875 3.04476 0
M  V30 263 O 28.8559 -1.19107 4.21598 0
M  V30 264 C 30.3569 -2.81266 3.42644 0
M  V30 265 H 27.5769 -0.295685 0.602338 0
M  V30 266 H 30.1209 -0.281998 2.02546 0
M  V30 267 H 28.2759 -2.62457 2.84947 0
M  V30 268 H 28.6899 -1.82969 4.91551 0
M  V30 269 H 30.1639 -3.43362 4.32211 0
M  V30 270 H 30.6409 -3.51897 2.62802 0
M  V30 271 H 31.2469 -2.1915 3.64491 0
M  V30 272 N 29.562 -1.4872 -0.521534 0
M  V30 273 C 30.81 -1.56857 -1.27437 0
M  V30 274 C 31.131 -0.247982 -1.93417 0
M  V30 275 O 30.401 0.731151 -1.81744 0
M  V30 276 H 28.981 -0.577885 -0.473347 0
M  V30 277 H 31.643 -1.85233 -0.606205 0
M  V30 278 H 30.739 -2.35402 -2.0492 0
M  V30 279 N 31.0401 0.771051 -1.3745 0
M  V30 280 C 31.9871 1.88435 -1.3327 0
M  V30 281 C 32.9571 1.64914 -0.198136 0
M  V30 282 O 34.1421 1.86821 -0.387606 0
M  V30 283 C 31.2821 3.25509 -1.14622 0
M  V30 284 C 30.3951 3.60979 -2.37314 0
M  V30 285 C 29.5301 4.87265 -2.11533 0
M  V30 286 C 28.5691 5.15469 -3.30088 0
M  V30 287 N 27.7061 6.32944 -3.03853 0
M  V30 288 H 32.5461 1.91344 -2.28455 0
M  V30 289 H 30.0831 0.935466 -1.13523 0
M  V30 290 H 32.0411 4.04582 -1.01831 0
M  V30 291 H 30.6711 3.21974 -0.230837 0
M  V30 292 H 29.7231 2.76885 -2.60842 0
M  V30 293 H 31.0351 3.77759 -3.25729 0
M  V30 294 H 30.1891 5.74244 -1.95777 0
M  V30 295 H 28.9281 4.7259 -1.20457 0
M  V30 296 H 27.9331 4.26966 -3.46382 0
M  V30 297 H 29.1581 5.32052 -4.22016 0
M  V30 298 H 27.1041 6.19625 -2.15407 0
M  V30 299 H 27.0211 6.50143 -3.85812 0
M  V30 300 H 28.2891 7.22857 -2.91716 0
M  V30 301 N 32.5182 1.22032 0.997298 0
M  V30 302 C 33.4682 0.953838 2.07089 0
M  V30 303 C 34.4522 -0.0938669 1.60626 0
M  V30 304 O 35.6442 0.116078 1.76619 0
M  V30 305 C 32.7732 0.528726 3.39204 0
M  V30 306 C 31.8592 1.61092 3.92314 0
M  V30 307 N 32.2502 2.83768 4.18699 0
M  V30 308 C 30.5482 1.48158 4.20672 0
M  V30 309 C 31.2492 3.53715 4.61802 0
M  V30 310 N 30.2252 2.81174 4.65233 0
M  V30 311 H 34.0272 1.88577 2.25424 0
M  V30 312 H 31.5412 1.11719 1.17867 0
M  V30 313 H 33.5382 0.31915 4.15677 0
M  V30 314 H 32.1982 -0.39635 3.22272 0
M  V30 315 H 33.2092 3.20238 4.07023 0
M  V30 316 H 29.8862 0.622369 4.12835 0
M  V30 317 H 31.2762 4.58793 4.90875 0
M  V30 318 N 33.9963 -1.19345 1.0293 0
M  V30 319 C 35.2263 -1.92717 0.744563 0
M  V30 320 C 35.6343 -1.75751 -0.700579 0
M  V30 321 O 34.9773 -1.07703 -1.48815 0
M  V30 322 C 35.0393 -3.44828 1.01657 0
M  V30 323 C 34.7033 -3.85564 2.45335 0
M  V30 324 C 35.7003 -3.90286 3.43472 0
M  V30 325 C 33.3853 -4.1719 2.79746 0
M  V30 326 C 35.3793 -4.26065 4.74075 0
M  V30 327 C 33.0663 -4.52642 4.10559 0
M  V30 328 C 34.0643 -4.57054 5.07534 0
M  V30 329 O 33.7523 -4.91685 6.36004 0
M  V30 330 H 33.4843 -0.618977 0.271742 0
M  V30 331 H 36.0383 -1.52415 1.37691 0
M  V30 332 H 34.2683 -3.85314 0.327084 0
M  V30 333 H 35.9573 -3.99437 0.721427 0
M  V30 334 H 36.7233 -3.66002 3.18225 0
M  V30 335 H 32.6023 -4.1294 2.04943 0
M  V30 336 H 36.1463 -4.29423 5.49765 0
M  V30 337 H 32.0433 -4.76383 4.35579 0
M  V30 338 H 32.8113 -5.09631 6.40483 0
M  V30 339 N 35.4744 -0.807222 -1.35358 0
M  V30 340 C 36.7224 -0.387122 -1.98358 0
M  V30 341 C 37.0434 1.04942 -1.64354 0
M  V30 342 O 36.3134 1.72615 -0.926339 0
M  V30 343 H 34.8934 -0.140154 -0.733734 0
M  V30 344 H 37.5554 -1.0332 -1.6526 0
M  V30 345 H 36.6514 -0.493352 -3.08176 0
M  V30 346 N 36.9525 1.47285 -0.560781 0
M  V30 347 C 37.9155 2.28535 0.174488 0
M  V30 348 C 38.9155 1.37153 0.839388 0
M  V30 349 O 40.1055 1.59748 0.694702 0
M  V30 350 C 37.2375 3.16934 1.25561 0
M  V30 351 H 38.4305 2.95012 -0.539262 0
M  V30 352 H 35.9835 1.53034 -0.317865 0
M  V30 353 H 36.7185 2.55157 2.00164 0
M  V30 354 H 36.5035 3.8419 0.783604 0
M  V30 355 H 37.9935 3.78143 1.77193 0
M  V30 356 N 38.4306 0.297415 1.54768 0
M  V30 357 C 39.6556 -0.318435 2.04941 0
M  V30 358 C 40.0806 -1.4701 1.17345 0
M  V30 359 O 39.4386 -1.80436 0.176758 0
M  V30 360 C 39.4866 -0.755749 3.52592 0
M  V30 361 O 38.5906 -1.86088 3.68028 0
M  V30 362 H 37.9316 -0.062421 0.661059 0
M  V30 363 H 40.4616 0.438215 1.99852 0
M  V30 364 H 40.4716 -1.04552 3.94376 0
M  V30 365 H 39.1466 0.0867233 4.1581 0
M  V30 366 H 37.7236 -1.57193 3.38149 0
M  V30 367 N 39.9087 -1.5758 0.0250728 0
M  V30 368 C 41.1337 -1.96337 -0.668317 0
M  V30 369 C 41.5587 -0.901314 -1.651 0
M  V30 370 O 40.9167 0.138187 -1.80773 0
M  V30 371 C 40.9647 -3.34191 -1.35457 0
M  V30 372 O 40.0687 -3.30269 -2.46974 0
M  V30 373 H 39.4097 -0.640281 -0.175887 0
M  V30 374 H 41.9397 -2.0442 0.0857224 0
M  V30 375 H 41.9497 -3.70331 -1.71228 0
M  V30 376 H 40.6247 -4.11036 -0.634218 0
M  V30 377 H 39.2017 -3.05841 -2.13344 0
M  V30 378 N 41.3868 0.248026 -1.55636 0
M  V30 379 C 42.6268 0.983592 -1.79178 0
M  V30 380 C 42.9908 1.82567 -0.594414 0
M  V30 381 O 44.1918 2.59292 -0.708583 0
M  V30 382 C 42.4628 1.82228 -3.07454 0
M  V30 383 S 44.0218 2.61709 -3.52213 0
M  V30 384 H 40.8398 0.330866 -0.629324 0
M  V30 385 H 43.4418 0.251562 -1.93875 0
M  V30 386 H 42.1458 1.19333 -3.92668 0
M  V30 387 H 41.6768 2.59708 -2.95492 0
M  V30 388 H 43.6918 3.84655 -3.13457 0
M  V30 389 N 42.8649 1.48995 0.513639 0
M  V30 390 C 44.1419 1.48338 1.27495 0
M  V30 391 C 44.5219 0.204065 2.10111 0
M  V30 392 O 43.8699 -0.813881 2.13514 0
M  V30 393 C 44.0799 2.75498 2.14247 0
M  V30 394 C 45.4279 3.24484 2.73852 0
M  V30 395 O 46.4519 2.76528 2.24523 0
M  V30 396 O 45.3109 4.07974 3.6362 0
M  V30 397 H 42.4049 0.593149 0.576284 0
M  V30 398 H 44.9509 1.61246 0.528948 0
M  V30 399 H 43.7229 3.60109 1.53092 0
M  V30 400 H 43.3459 2.6539 2.96064 0
M  V30 401 N 44.343 -0.763751 1.37857 0
M  V30 402 C 45.591 -1.51957 1.33243 0
M  V30 403 C 45.912 -1.94835 -0.0801709 0
M  V30 404 O 45.182 -1.66894 -1.02582 0
M  V30 405 H 43.762 -0.563626 0.49024 0
M  V30 406 H 46.424 -0.908504 1.7243 0
M  V30 407 H 45.52 -2.41523 1.97669 0
M  V30 408 N 45.8211 -1.22559 -0.990812 0
M  V30 409 C 47.0611 -1.06302 -1.74583 0
M  V30 410 C 47.4251 0.394737 -1.87898 0
M  V30 411 O 48.6261 0.678214 -2.60103 0
M  V30 412 C 46.8971 -1.75699 -3.11231 0
M  V30 413 S 48.4561 -1.74882 -4.02445 0
M  V30 414 H 45.2741 -0.380639 -0.600529 0
M  V30 415 H 47.8761 -1.55532 -1.18449 0
M  V30 416 H 46.5801 -2.80923 -2.99183 0
M  V30 417 H 46.1111 -1.26708 -3.72436 0
M  V30 418 H 48.1261 -0.799997 -4.89709 0
M  V30 419 N 47.2992 1.18797 -1.03562 0
M  V30 420 C 48.2462 2.22253 -0.622259 0
M  V30 421 C 49.2162 1.61987 0.36736 0
M  V30 422 O 50.4012 1.88986 0.262492 0
M  V30 423 C 47.5412 3.45097 0.0138462 0
M  V30 424 C 46.6542 4.19722 -1.02263 0
M  V30 425 C 45.7892 5.30009 -0.355573 0
M  V30 426 C 44.8282 5.96399 -1.37749 0
M  V30 427 N 43.9652 6.98234 -0.735766 0
M  V30 428 H 48.8052 2.56968 -1.50903 0
M  V30 429 H 46.3422 1.26245 -0.755017 0
M  V30 430 H 48.3002 4.15279 0.399948 0
M  V30 431 H 46.9302 3.11018 0.864158 0
M  V30 432 H 45.9822 3.48418 -1.52673 0
M  V30 433 H 47.2942 4.65227 -1.79903 0
M  V30 434 H 46.4482 6.0664 0.0850095 0
M  V30 435 H 45.1872 4.85592 0.452967 0
M  V30 436 H 44.1922 5.18512 -1.82826 0
M  V30 437 H 45.4172 6.42899 -2.18764 0
M  V30 438 H 43.3632 6.55979 0.0525597 0
M  V30 439 H 43.2802 7.41965 -1.44995 0
M  V30 440 H 44.5482 7.78845 -0.31941 0
M  V30 441 N 48.7773 0.814389 1.34928 0
M  V30 442 C 50.0253 0.397636 1.9815 0
M  V30 443 C 50.3463 -1.04069 1.64908 0
M  V30 444 O 49.6163 -1.72121 0.93548 0
M  V30 445 H 48.1963 0.144043 0.732981 0
M  V30 446 H 50.8583 1.04195 1.6471 0
M  V30 447 H 49.9543 0.509688 3.0791 0
M  V30 448 N 50.2554 -1.46986 0.568584 0
M  V30 449 C 51.5024 -2.02441 0.0487986 0
M  V30 450 C 51.8304 -1.44169 -1.30559 0
M  V30 451 O 51.0854 -0.591213 -1.86556 0
M  V30 452 C 51.3844 -3.57306 -0.081836 0
M  V30 453 C 51.0504 -4.34552 1.20313 0
M  V30 454 C 49.7124 -4.55376 1.5552 0
M  V30 455 C 52.0644 -4.79016 2.05411 0
M  V30 456 C 49.3924 -5.17913 2.7565 0
M  V30 457 C 51.7444 -5.42879 3.24754 0
M  V30 458 C 50.4084 -5.61933 3.60261 0
M  V30 459 H 49.6784 -0.740785 0.0178567 0
M  V30 460 H 52.3254 -1.76525 0.742384 0
M  V30 461 H 50.6304 -3.8228 -0.858463 0
M  V30 462 H 52.3274 -3.97876 -0.499546 0
M  V30 463 H 48.9174 -4.18631 0.919014 0
M  V30 464 H 53.1014 -4.62696 1.79516 0
M  V30 465 H 48.3574 -5.30858 3.03315 0
M  V30 466 H 52.5314 -5.76293 3.90973 0
M  V30 467 H 50.1584 -6.10161 4.53439 0
M  V30 468 N 51.7335 -0.305618 -1.54608 0
M  V30 469 C 52.9805 0.302298 -2.00231 0
M  V30 470 C 53.3085 1.5354 -1.19398 0
M  V30 471 O 52.5635 1.93973 -0.259423 0
M  V30 472 C 52.8625 0.698983 -3.50498 0
M  V30 473 C 52.5285 -0.432903 -4.48817 0
M  V30 474 C 51.1905 -0.743622 -4.75419 0
M  V30 475 C 53.5425 -1.19409 -5.07337 0
M  V30 476 C 50.8705 -1.81857 -5.57804 0
M  V30 477 C 53.2225 -2.25899 -5.90891 0
M  V30 478 C 51.8865 -2.57572 -6.15803 0
M  V30 479 H 51.1565 0.110619 -0.732697 0
M  V30 480 H 53.8035 -0.425674 -1.86709 0
M  V30 481 H 52.1085 1.50711 -3.61654 0
M  V30 482 H 53.8055 1.1806 -3.83227 0
M  V30 483 H 50.3955 -0.18063 -4.28219 0
M  V30 484 H 54.5795 -0.967295 -4.86782 0
M  V30 485 H 49.8355 -2.06864 -5.75341 0
M  V30 486 H 54.0095 -2.85335 -6.35261 0
M  V30 487 H 51.6365 -3.40998 -6.7943 0
M  V30 488 N 53.2116 1.57565 -0.0334293 0
M  V30 489 C 54.6276 1.56297 0.322997 0
M  V30 490 C 54.8276 1.03945 1.7262 0
M  V30 491 O 53.8836 0.688109 2.42943 0
M  V30 492 C 55.1966 3.00232 0.167664 0
M  V30 493 C 56.7446 3.12078 0.240107 0
M  V30 494 C 57.2196 4.57859 0.113513 0
M  V30 495 N 58.7106 4.62887 0.170359 0
M  V30 496 C 59.4456 5.73319 0.0962517 0
M  V30 497 N 58.9416 6.92794 -0.0291881 0
M  V30 498 N 60.7346 5.61898 0.150551 0
M  V30 499 H 52.8856 1.89923 -0.950956 0
M  V30 500 H 55.1486 0.873824 -0.367608 0
M  V30 501 H 54.8546 3.42501 -0.799102 0
M  V30 502 H 54.7286 3.654 0.936083 0
M  V30 503 H 57.1156 2.69718 1.19733 0
M  V30 504 H 57.1966 2.49623 -0.558763 0
M  V30 505 H 56.8406 5.009 -0.840314 0
M  V30 506 H 56.7706 5.18299 0.931302 0
M  V30 507 H 59.2616 3.76954 0.26728 0
M  V30 508 H 59.5746 7.7276 -0.0789252 0
M  V30 509 H 57.9196 6.94971 -0.0640299 0
M  V30 510 H 61.1106 4.67448 0.246981 0
M  V30 511 H 61.2836 6.47938 0.0893365 0
M  V30 512 N 54.6897 -0.239769 1.55765 0
M  V30 513 C 56.1057 -0.588624 1.48349 0
M  V30 514 C 56.3057 -1.88005 0.72502 0
M  V30 515 O 55.3617 -2.51186 0.257269 0
M  V30 516 C 56.6747 -0.68474 2.928 0
M  V30 517 C 58.2227 -0.77659 3.03213 0
M  V30 518 C 58.6977 -0.904207 4.48986 0
M  V30 519 N 60.1887 -0.968896 4.52953 0
M  V30 520 C 60.9237 -1.08703 5.63002 0
M  V30 521 N 60.4197 -1.17026 6.82845 0
M  V30 522 N 62.2127 -1.12074 5.50814 0
M  V30 523 H 54.3637 0.607911 2.03515 0
M  V30 524 H 56.6267 0.21083 0.924259 0
M  V30 525 H 56.3327 0.194284 3.51163 0
M  V30 526 H 56.2067 -1.55435 3.43686 0
M  V30 527 H 58.5937 -1.64606 2.44926 0
M  V30 528 H 58.6747 0.118315 2.55526 0
M  V30 529 H 58.3187 -0.0392633 5.07885 0
M  V30 530 H 58.2487 -1.81426 4.9436 0
M  V30 531 H 60.7397 -0.915633 3.6664 0
M  V30 532 H 61.0527 -1.25966 7.62465 0
M  V30 533 H 59.3977 -1.13971 6.85591 0
M  V30 534 H 62.5887 -1.05226 4.5612 0
M  V30 535 H 62.7617 -1.20936 6.36615 0
M  V30 536 N 56.1678 -1.49265 -0.50573 0
M  V30 537 C 57.3928 -1.62478 -1.28902 0
M  V30 538 C 57.8178 -0.294332 -1.85783 0
M  V30 539 O 57.1758 0.737412 -1.65626 0
M  V30 540 C 57.2238 -2.69268 -2.39848 0
M  V30 541 O 56.3278 -2.28113 -3.43567 0
M  V30 542 H 55.6688 -0.54399 -0.380751 0
M  V30 543 H 58.1988 -1.95421 -0.605952 0
M  V30 544 H 58.2088 -2.91291 -2.85681 0
M  V30 545 H 56.8838 -3.65846 -1.97812 0
M  V30 546 H 55.4608 -2.16401 -3.03685 0
M  V30 547 N 57.6459 0.756429 -1.3826 0
M  V30 548 C 58.8949 1.51082 -1.3363 0
M  V30 549 C 59.2079 1.95467 0.0720068 0
M  V30 550 O 60.4139 2.7043 0.240834 0
M  V30 551 C 58.8699 2.72893 -2.34644 0
M  V30 552 C 58.4779 2.35544 -3.81081 0
M  V30 553 C 60.2219 3.50791 -2.39052 0
M  V30 554 C 58.1289 3.53948 -4.73787 0
M  V30 555 H 57.0589 0.56727 -0.49671 0
M  V30 556 H 59.7099 0.827147 -1.638 0
M  V30 557 H 58.0919 3.43227 -1.97513 0
M  V30 558 H 59.2659 1.72894 -4.27135 0
M  V30 559 H 57.5809 1.70786 -3.79764 0
M  V30 560 H 60.1779 4.38823 -3.05513 0
M  V30 561 H 60.5209 3.91745 -1.40861 0
M  V30 562 H 61.0539 2.87467 -2.74968 0
M  V30 563 H 57.7929 3.18064 -5.73163 0
M  V30 564 H 57.3129 4.15651 -4.32428 0
M  V30 565 H 58.9919 4.20566 -4.91663 0
M  V30 566 N 59.124 1.23083 0.984299 0
M  V30 567 C 60.54 0.992637 1.24975 0
M  V30 568 C 60.74 -0.308618 1.99123 0
M  V30 569 O 59.796 -1.02905 2.30579 0
M  V30 570 C 61.109 2.19698 2.05312 0
M  V30 571 C 62.657 2.24147 2.18465 0
M  V30 572 C 63.132 3.44157 3.02192 0
M  V30 573 N 64.623 3.44372 3.09777 0
M  V30 574 C 65.358 4.33886 3.74874 0
M  V30 575 N 64.854 5.3363 4.41827 0
M  V30 576 N 66.647 4.21639 3.71721 0
M  V30 577 H 58.798 2.06731 0.487453 0
M  V30 578 H 61.061 0.906339 0.277944 0
M  V30 579 H 60.767 3.1411 1.58201 0
M  V30 580 H 60.641 2.20465 3.06064 0
M  V30 581 H 63.028 1.30277 2.64786 0
M  V30 582 H 63.109 2.27415 1.17115 0
M  V30 583 H 62.753 4.38332 2.56568 0
M  V30 584 H 62.683 3.3813 4.03702 0
M  V30 585 H 65.174 2.72201 2.62135 0
M  V30 586 H 65.487 5.98196 4.89266 0
M  V30 587 H 63.832 5.37534 4.40548 0
M  V30 588 H 67.023 3.42962 3.18582 0
M  V30 589 H 67.196 4.91604 4.22173 0
M  V30 590 N 60.6021 -1.18246 1.0419 0
M  V30 591 C 61.5491 -2.2192 0.634037 0
M  V30 592 C 62.5191 -1.62179 -0.358765 0
M  V30 593 O 63.7041 -1.89122 -0.252466 0
M  V30 594 C 60.8441 -3.451 0.00445535 0
M  V30 595 C 59.9571 -4.19174 1.04487 0
M  V30 596 C 59.0921 -5.29813 0.383676 0
M  V30 597 C 58.1311 -5.9566 1.4091 0
M  V30 598 N 57.2681 -6.97834 0.772784 0
M  V30 599 H 62.1081 -2.56164 1.52263 0
M  V30 600 H 59.6451 -1.25843 0.761701 0
M  V30 601 H 61.6031 -4.15485 -0.377919 0
M  V30 602 H 60.2331 -3.11472 -0.847652 0
M  V30 603 H 59.2851 -3.47604 1.54518 0
M  V30 604 H 60.5971 -4.64267 1.82368 0
M  V30 605 H 59.7511 -6.06677 -0.0528366 0
M  V30 606 H 58.4901 -4.85825 -0.427208 0
M  V30 607 H 57.4951 -5.17535 1.85574 0
M  V30 608 H 58.7201 -6.4173 2.22171 0
M  V30 609 H 56.6661 -6.55998 -0.0177708 0
M  V30 610 H 56.5831 -7.41186 1.48928 0
M  V30 611 H 57.8511 -7.78665 0.36071 0
M  V30 612 N 62.0802 -0.821533 -1.34494 0
M  V30 613 C 63.3052 -0.420873 -2.03085 0
M  V30 614 C 63.7302 0.964915 -1.61465 0
M  V30 615 O 63.0882 1.62763 -0.798607 0
M  V30 616 C 63.1362 -0.529414 -3.56693 0
M  V30 617 O 62.2402 0.451302 -4.09923 0
M  V30 618 H 61.5812 -0.173489 -0.640935 0
M  V30 619 H 64.1112 -1.11157 -1.71771 0
M  V30 620 H 64.1212 -0.404671 -4.05988 0
M  V30 621 H 62.7962 -1.54014 -3.86332 0
M  V30 622 H 61.3732 0.285558 -3.71805 0
M  V30 623 N 63.5583 1.46682 -0.576371 0
M  V30 624 C 64.5083 2.27278 0.181288 0
M  V30 625 C 65.4923 1.35497 0.867721 0
M  V30 626 O 66.6843 1.59717 0.762863 0
M  V30 627 C 63.8133 3.21703 1.19841 0
M  V30 628 C 62.8993 4.20969 0.51442 0
M  V30 629 N 63.2903 5.03999 -0.426407 0
M  V30 630 C 61.5883 4.39373 0.765963 0
M  V30 631 C 62.2893 5.75812 -0.825565 0
M  V30 632 N 61.2653 5.43315 -0.176116 0
M  V30 633 H 65.0673 2.88863 -0.541785 0
M  V30 634 H 62.5813 1.57455 -0.397697 0
M  V30 635 H 64.5783 3.78145 1.75533 0
M  V30 636 H 63.2383 2.61677 1.92238 0
M  V30 637 H 64.2493 5.11659 -0.8016 0
M  V30 638 H 60.9263 3.90502 1.47698 0
M  V30 639 H 62.3163 6.52577 -1.59976 0
M  V30 640 N 65.0364 0.313813 1.54444 0
M  V30 641 C 66.2824 -0.292108 2.00685 0
M  V30 642 C 66.6154 -1.52548 1.20177 0
M  V30 643 O 65.8904 -1.92452 0.281531 0
M  V30 644 C 66.1734 -0.635968 3.5444 0
M  V30 645 C 66.0264 0.607437 4.4568 0
M  V30 646 C 67.3454 -1.45747 4.15266 0
M  V30 647 H 64.4644 -0.104697 0.729526 0
M  V30 648 H 67.1064 0.428457 1.85106 0
M  V30 649 H 65.2564 -1.24986 3.67846 0
M  V30 650 H 66.9284 1.24581 4.44159 0
M  V30 651 H 65.1714 1.23822 4.15753 0
M  V30 652 H 65.8424 0.322515 5.51057 0
M  V30 653 H 68.3184 -0.938645 4.05375 0
M  V30 654 H 67.1944 -1.66683 5.2298 0
M  V30 655 H 67.4554 -2.45063 3.67963 0
M  V30 656 N 66.5145 -1.57545 0.0417849 0
M  V30 657 C 67.7445 -1.96339 -0.642995 0
M  V30 658 C 68.1525 -0.917536 -1.65463 0
M  V30 659 O 67.4955 0.107747 -1.83384 0
M  V30 660 C 67.5575 -3.31333 -1.39494 0
M  V30 661 C 67.2215 -4.53796 -0.540204 0
M  V30 662 C 68.2185 -5.19553 0.189806 0
M  V30 663 C 65.9035 -5.0006 -0.473886 0
M  V30 664 C 67.8975 -6.29904 0.974674 0
M  V30 665 C 65.5845 -6.10289 0.314677 0
M  V30 666 C 66.5825 -6.75072 1.03765 0
M  V30 667 O 66.2705 -7.83183 1.81327 0
M  V30 668 H 66.0025 -0.651241 -0.181277 0
M  V30 669 H 68.5565 -2.05148 0.101665 0
M  V30 670 H 66.7865 -3.19052 -2.18502 0
M  V30 671 H 68.4755 -3.54942 -1.96904 0
M  V30 672 H 69.2415 -4.84774 0.147981 0
M  V30 673 H 65.1205 -4.49433 -1.0262 0
M  V30 674 H 68.6645 -6.80401 1.5395 0
M  V30 675 H 64.5615 -6.44506 0.358174 0
M  V30 676 H 65.3295 -7.99913 1.73438 0
M  V30 677 N 67.9926 0.231505 -1.5589 0
M  V30 678 C 69.2176 0.978689 -1.82856 0
M  V30 679 C 69.6426 1.77559 -0.620846 0
M  V30 680 O 69.0006 1.76119 0.430305 0
M  V30 681 C 69.0486 1.87997 -3.07716 0
M  V30 682 O 68.1526 2.97393 -2.85712 0
M  V30 683 H 67.4936 0.277663 -0.603158 0
M  V30 684 H 70.0236 0.24783 -2.03093 0
M  V30 685 H 70.0336 2.2917 -3.37558 0
M  V30 686 H 68.7086 1.29417 -3.95252 0
M  V30 687 H 67.2856 2.60238 -2.67078 0
M  V30 688 N 69.4707 1.49531 0.497807 0
M  V30 689 C 70.7107 1.60799 1.26187 0
M  V30 690 C 71.0747 0.289627 1.89803 0
M  V30 691 O 72.2757 0.277512 2.67364 0
M  V30 692 C 70.5467 2.73729 2.29798 0
M  V30 693 S 72.1057 3.04968 3.155 0
M  V30 694 H 68.9237 0.567145 0.428798 0
M  V30 695 H 71.5257 1.87204 0.563477 0
M  V30 696 H 70.2297 3.68036 1.81597 0
M  V30 697 H 69.7607 2.49328 3.04301 0
M  V30 698 H 71.7757 2.46735 4.30507 0
M  V30 699 N 70.9488 -0.749086 1.3866 0
M  V30 700 C 72.3648 -1.05276 1.19955 0
M  V30 701 C 72.5648 -2.01435 0.05134 0
M  V30 702 O 71.6208 -2.45232 -0.60147 0
M  V30 703 C 72.9338 -1.62853 2.52783 0
M  V30 704 C 74.4818 -1.75002 2.59506 0
M  V30 705 C 74.9568 -2.35991 3.92521 0
M  V30 706 N 76.4478 -2.43416 3.94085 0
M  V30 707 C 77.1828 -2.91511 4.9377 0
M  V30 708 N 76.6788 -3.39608 6.03853 0
M  V30 709 N 78.4718 -2.90592 4.81157 0
M  V30 710 H 70.6228 -0.111066 2.12109 0
M  V30 711 H 72.8858 -0.111901 0.941373 0
M  V30 712 H 72.5918 -0.99664 3.37283 0
M  V30 713 H 72.4658 -2.61854 2.715 0
M  V30 714 H 74.8528 -2.37317 1.75398 0
M  V30 715 H 74.9338 -0.74693 2.44652 0
M  V30 716 H 74.5778 -1.74308 4.77053 0
M  V30 717 H 74.5078 -3.3695 4.04688 0
M  V30 718 H 76.9988 -2.09405 3.14576 0
M  V30 719 H 77.3118 -3.74775 6.75843 0
M  V30 720 H 75.6568 -3.37653 6.07466 0
M  V30 721 H 78.8478 -2.52332 3.94267 0
M  V30 722 H 79.0208 -3.27762 5.58996 0
M  V30 723 N 72.4269 -1.23603 -0.977757 0
M  V30 724 C 73.6739 -1.06971 -1.71941 0
M  V30 725 C 74.0019 0.393009 -1.90488 0
M  V30 726 O 73.2569 1.30719 -1.4564 0
M  V30 727 C 73.5559 -1.7433 -3.11999 0
M  V30 728 C 73.2219 -3.24252 -3.13323 0
M  V30 729 C 71.8839 -3.65156 -3.13392 0
M  V30 730 C 74.2359 -4.20141 -3.08433 0
M  V30 731 C 71.5639 -5.00403 -3.0629 0
M  V30 732 C 73.9159 -5.55384 -3.02873 0
M  V30 733 C 72.5799 -5.95647 -3.01265 0
M  V30 734 H 71.8499 -0.391433 -0.629175 0
M  V30 735 H 74.4969 -1.53572 -1.14403 0
M  V30 736 H 72.8019 -1.20096 -3.7294 0
M  V30 737 H 74.4989 -1.58936 -3.68158 0
M  V30 738 H 71.0889 -2.91692 -3.14029 0
M  V30 739 H 75.2729 -3.89547 -3.07517 0
M  V30 740 H 70.5289 -5.3081 -3.03399 0
M  V30 741 H 74.7029 -6.29398 -2.98046 0
M  V30 742 H 72.3299 -7.0041 -2.95516 0
M  V30 743 N 73.905 1.17692 -1.04816 0
M  V30 744 C 75.13 1.92327 -0.776207 0
M  V30 745 C 75.555 1.76082 0.661581 0
M  V30 746 O 74.913 1.076 1.45917 0
M  V30 747 C 74.961 3.41539 -1.15687 0
M  V30 748 O 74.065 4.11402 -0.286775 0
M  V30 749 H 73.406 0.599735 -0.284981 0
M  V30 750 H 75.936 1.49201 -1.4 0
M  V30 751 H 75.946 3.92269 -1.12202 0
M  V30 752 H 74.621 3.52684 -2.20425 0
M  V30 753 H 73.198 3.70939 -0.381903 0
M  V30 754 N 75.3831 0.828654 1.34056 0
M  V30 755 C 76.7991 0.515135 1.51058 0
M  V30 756 C 76.9991 -0.959581 1.77184 0
M  V30 757 O 76.0551 -1.74382 1.82612 0
M  V30 758 C 77.3681 1.37963 2.67183 0
M  V30 759 C 78.9161 1.37735 2.81066 0
M  V30 760 C 79.3911 2.22645 4.00241 0
M  V30 761 N 80.8821 2.203 4.07458 0
M  V30 762 C 81.6171 2.82744 4.98842 0
M  V30 763 N 81.1131 3.54201 5.9541 0
M  V30 764 N 82.9061 2.72268 4.91759 0
M  V30 765 H 75.0571 1.78343 1.15358 0
M  V30 766 H 77.3201 0.760304 0.566252 0
M  V30 767 H 77.0261 2.42714 2.54525 0
M  V30 768 H 76.9001 1.0484 3.62338 0
M  V30 769 H 79.2871 0.337593 2.93163 0
M  V30 770 H 79.3681 1.74859 1.86703 0
M  V30 771 H 79.0121 3.26674 3.88905 0
M  V30 772 H 78.9421 1.82869 4.93829 0
M  V30 773 H 81.4331 1.68327 3.38341 0
M  V30 774 H 81.7461 3.9908 6.61782 0
M  V30 775 H 80.0911 3.58308 5.95517 0
M  V30 776 H 83.2821 2.16014 4.15278 0
M  V30 777 H 83.4551 3.21219 5.62781 0
M  V30 778 N 76.8612 -1.46375 0.584142 0
M  V30 779 C 77.7932 -2.28443 -0.186119 0
M  V30 780 C 78.8062 -1.38596 -0.854115 0
M  V30 781 O 79.9952 -1.63183 -0.723438 0
M  V30 782 C 77.0952 -3.13671 -1.28311 0
M  V30 783 C 76.2682 -4.31652 -0.706758 0
M  V30 784 C 75.3272 -4.98267 -1.69163 0
M  V30 785 O 74.3532 -5.55815 -1.22712 0
M  V30 786 N 75.5552 -4.95408 -3.02575 0
M  V30 787 H 78.3202 -2.9519 0.517986 0
M  V30 788 H 75.8812 -1.56303 0.42201 0
M  V30 789 H 77.8732 -3.55101 -1.94128 0
M  V30 790 H 76.4432 -2.48989 -1.89005 0
M  V30 791 H 75.6632 -3.93989 0.128908 0
M  V30 792 H 76.9512 -5.07906 -0.301506 0
M  V30 793 H 76.3492 -4.49902 -3.42936 0
M  V30 794 H 74.9062 -5.40774 -3.63877 0
M  V30 795 N 78.3393 -0.321999 -1.54275 0
M  V30 796 C 79.5793 0.281657 -2.0245 0
M  V30 797 C 79.9433 1.49468 -1.20513 0
M  V30 798 O 81.1443 2.17109 -1.58484 0
M  V30 799 C 79.4153 0.609014 -3.52173 0
M  V30 800 S 80.9743 1.19255 -4.22284 0
M  V30 801 H 77.7923 0.0852825 -0.705867 0
M  V30 802 H 80.3943 -0.454758 -1.90137 0
M  V30 803 H 79.0983 -0.281982 -4.0943 0
M  V30 804 H 78.6293 1.37567 -3.68563 0
M  V30 805 H 80.6443 2.47944 -4.29812 0
M  V30 806 N 79.8174 1.5752 -0.0501392 0
M  V30 807 C 81.0634 1.92936 0.624798 0
M  V30 808 C 81.3964 0.928685 1.70555 0
M  V30 809 O 80.6714 -0.0454779 1.94447 0
M  V30 810 C 80.9544 3.38737 1.22185 0
M  V30 811 C 80.8074 4.49552 0.149218 0
M  V30 812 C 82.1264 3.84913 2.13378 0
M  V30 813 H 79.2454 0.701604 0.225657 0
M  V30 814 H 81.8874 1.89671 -0.111693 0
M  V30 815 H 80.0374 3.4165 1.84953 0
M  V30 816 H 81.7094 4.58768 -0.482648 0
M  V30 817 H 79.9524 4.30638 -0.522841 0
M  V30 818 H 80.6234 5.48653 0.606966 0
M  V30 819 H 83.0994 3.8387 1.60572 0
M  V30 820 H 81.9754 4.87584 2.52097 0
M  V30 821 H 82.2364 3.21611 3.03346 0
M  V30 822 N 81.2955 -0.223234 1.56011 0
M  V30 823 C 82.5415 -0.949279 1.79211 0
M  V30 824 C 82.8745 -1.84054 0.619494 0
M  V30 825 O 82.1495 -1.90726 -0.381317 0
M  V30 826 C 82.4325 -1.78965 3.12479 0
M  V30 827 C 82.2855 -0.924997 4.40186 0
M  V30 828 C 83.6045 -2.76774 3.42175 0
M  V30 829 H 80.7235 -0.343676 0.651963 0
M  V30 830 H 83.3655 -0.218253 1.88742 0
M  V30 831 H 81.5155 -2.41291 3.04485 0
M  V30 832 H 83.1875 -0.318615 4.60198 0
M  V30 833 H 81.4305 -0.230344 4.33188 0
M  V30 834 H 82.1015 -1.54735 5.29869 0
M  V30 835 H 84.5775 -2.24584 3.50287 0
M  V30 836 H 83.4535 -3.32678 4.36597 0
M  V30 837 H 83.7145 -3.54429 2.64258 0
M  V30 838 N 82.7736 -1.49793 -0.48987 0
M  V30 839 C 84.0506 -1.50348 -1.25119 0
M  V30 840 C 84.4306 -0.237466 -2.0976 0
M  V30 841 O 83.7786 0.77981 -2.14782 0
M  V30 842 C 83.9886 -2.78872 -2.09837 0
M  V30 843 C 85.3366 -3.288 -2.68655 0
M  V30 844 O 86.3606 -2.80065 -2.20096 0
M  V30 845 O 85.2196 -4.13707 -3.57083 0
M  V30 846 H 82.3136 -0.602242 -0.566775 0
M  V30 847 H 84.8596 -1.62067 -0.503229 0
M  V30 848 H 83.6316 -3.62499 -1.47343 0
M  V30 849 H 83.2546 -2.70066 -2.91805 0
M  V30 850 N 84.2517 0.741722 -1.39055 0
M  V30 851 C 85.1987 1.85566 -1.37237 0
M  V30 852 C 86.1687 1.64457 -0.233072 0
M  V30 853 O 87.3537 1.85957 -0.427147 0
M  V30 854 C 84.4937 3.23004 -1.215 0
M  V30 855 C 83.6067 3.55864 -2.44918 0
M  V30 856 C 82.7417 4.82669 -2.21821 0
M  V30 857 C 81.7807 5.08351 -3.40948 0
M  V30 858 N 80.9177 6.26356 -3.17211 0
M  V30 859 H 85.7577 1.86455 -2.32462 0
M  V30 860 H 83.2947 0.911176 -1.15482 0
M  V30 861 H 85.2527 4.02331 -1.10389 0
M  V30 862 H 83.8827 3.21411 -0.29908 0
M  V30 863 H 82.9347 2.7129 -2.66657 0
M  V30 864 H 84.2467 3.70765 -3.33668 0
M  V30 865 H 83.4007 5.69962 -2.07914 0
M  V30 866 H 82.1397 4.69929 -1.30454 0
M  V30 867 H 81.1447 4.19522 -3.55361 0
M  V30 868 H 82.3697 5.22981 -4.33207 0
M  V30 869 H 80.3157 6.14917 -2.28502 0
M  V30 870 H 80.2327 6.41813 -3.99515 0
M  V30 871 H 81.5007 7.16506 -3.06984 0
M  V30 872 N 85.7298 1.2412 0.971189 0
M  V30 873 C 87.0068 0.986867 1.6888 0
M  V30 874 C 87.3868 -0.491857 2.0529 0
M  V30 875 O 86.7348 -1.46531 1.75331 0
M  V30 876 C 86.9448 1.9063 2.92338 0
M  V30 877 C 88.2928 2.17515 3.64654 0
M  V30 878 O 89.3168 1.88254 3.02388 0
M  V30 879 O 88.1758 2.6719 4.7673 0
M  V30 880 H 85.2698 0.372944 0.738134 0
M  V30 881 H 87.8158 1.35203 1.02559 0
M  V30 882 H 86.5878 2.90552 2.62097 0
M  V30 883 H 86.2108 1.54408 3.66393 0
M  V30 884 N 87.2079 -1.17134 1.05439 0
M  V30 885 C 88.1549 -2.21235 0.657539 0
M  V30 886 C 89.1249 -1.62551 -0.341543 0
M  V30 887 O 90.3099 -1.89379 -0.232393 0
M  V30 888 C 87.4499 -3.45076 0.0410575 0
M  V30 889 C 86.5629 -4.18042 1.08927 0
M  V30 890 C 85.6979 -5.29376 0.439848 0
M  V30 891 C 84.7369 -5.94132 1.4722 0
M  V30 892 N 83.8739 -6.96975 0.846756 0
M  V30 893 H 88.7139 -2.54534 1.54972 0
M  V30 894 H 86.2509 -1.25028 0.775006 0
M  V30 895 H 88.2089 -4.15862 -0.33383 0
M  V30 896 H 86.8389 -3.12353 -0.814568 0
M  V30 897 H 85.8909 -3.45945 1.58196 0
M  V30 898 H 87.2029 -4.62306 1.87282 0
M  V30 899 H 86.3569 -6.06699 0.0115125 0
M  V30 900 H 85.0959 -4.86251 -0.375656 0
M  V30 901 H 84.1009 -5.15538 1.91052 0
M  V30 902 H 85.3259 -6.39337 2.28965 0
M  V30 903 H 83.2719 -6.5598 0.0518075 0
M  V30 904 H 83.1889 -7.39565 1.5678 0
M  V30 905 H 84.4569 -7.78239 0.443277 0
M  V30 906 N 88.686 -0.835752 -1.33615 0
M  V30 907 C 90.102 -0.523139 -1.50783 0
M  V30 908 C 90.302 0.950171 -1.77691 0
M  V30 909 O 89.358 1.73411 -1.83534 0
M  V30 910 C 90.671 -1.39378 -2.66448 0
M  V30 911 C 92.219 -1.39223 -2.80332 0
M  V30 912 C 92.694 -2.24765 -3.99055 0
M  V30 913 N 94.185 -2.22458 -4.06284 0
M  V30 914 C 94.92 -2.85386 -4.97336 0
M  V30 915 N 94.416 -3.57354 -5.93523 0
M  V30 916 N 96.209 -2.74872 -4.90308 0
M  V30 917 H 88.36 -1.78952 -1.14411 0
M  V30 918 H 90.623 -0.763297 -0.562212 0
M  V30 919 H 90.329 -2.44061 -2.53234 0
M  V30 920 H 90.203 -1.0676 -3.61776 0
M  V30 921 H 92.59 -0.353136 -2.92979 0
M  V30 922 H 92.671 -1.75846 -1.85773 0
M  V30 923 H 92.315 -3.28732 -3.87167 0
M  V30 924 H 92.245 -1.85485 -4.92852 0
M  V30 925 H 94.736 -1.70119 -3.37443 0
M  V30 926 H 95.049 -4.02584 -6.59656 0
M  V30 927 H 93.394 -3.61461 -5.93608 0
M  V30 928 H 96.585 -2.18213 -4.14126 0
M  V30 929 H 96.758 -3.24199 -5.61069 0
M  V30 930 N 90.1641 1.46063 -0.591896 0
M  V30 931 C 91.1121 2.32124 0.148739 0
M  V30 932 C 92.1061 1.45035 0.875286 0
M  V30 933 O 93.3121 1.61609 0.792632 0
M  V30 934 H 89.6871 0.749024 0.066832 0
M  V30 935 H 91.6581 2.92392 -0.595783 0
M  V30 936 C 90.4071 3.28373 1.1431 0
M  V30 937 H 89.7301 3.95371 0.59346 0
M  V30 938 H 91.1701 3.91352 1.63155 0
M  V30 939 C 89.6291 2.54393 2.20875 0
M  V30 940 O 90.1591 2.31373 3.28374 0
M  V30 941 N 88.3651 2.14797 1.95731 0
M  V30 942 H 87.9121 2.33719 1.08319 0
M  V30 943 H 87.8701 1.65619 2.67241 0
M  V30 944 N 91.6422 0.330177 1.54103 0
M  V30 945 C 92.5742 -0.566902 2.22079 0
M  V30 946 C 93.5872 -1.07462 1.22294 0
M  V30 947 O 94.7762 -0.987065 1.48726 0
M  V30 948 C 91.8762 -1.79138 2.87685 0
M  V30 949 C 91.0492 -1.42123 4.13666 0
M  V30 950 C 90.1082 -2.50394 4.62806 0
M  V30 951 O 89.1342 -2.14261 5.27334 0
M  V30 952 N 90.3362 -3.81433 4.37595 0
M  V30 953 H 93.1012 0.0151844 2.99696 0
M  V30 954 H 90.6622 0.153681 1.61169 0
M  V30 955 H 92.6542 -2.50975 3.1748 0
M  V30 956 H 91.2242 -2.28115 2.13734 0
M  V30 957 H 90.4442 -0.534201 3.90564 0
M  V30 958 H 91.7322 -1.14971 4.9564 0
M  V30 959 H 91.1302 -4.13584 3.8596 0
M  V30 960 H 89.6872 -4.4948 4.72029 0
M  V30 961 N 93.1203 -1.57491 0.0584922 0
M  V30 962 C 94.3603 -1.94851 -0.617458 0
M  V30 963 C 94.7243 -0.937165 -1.67575 0
M  V30 964 O 95.9253 -1.19795 -2.40629 0
M  V30 965 C 94.1963 -3.36955 -1.19147 0
M  V30 966 S 95.7553 -3.96277 -1.8844 0
M  V30 967 H 92.5733 -0.681539 -0.202547 0
M  V30 968 H 95.1753 -1.95073 0.129176 0
M  V30 969 H 93.8793 -4.08355 -0.409215 0
M  V30 970 H 93.4103 -3.40245 -1.97476 0
M  V30 971 H 95.4253 -3.82099 -3.16568 0
M  V30 972 N 94.5984 0.214957 -1.56127 0
M  V30 973 C 96.0144 0.564948 -1.49267 0
M  V30 974 C 96.2144 1.86827 -0.754838 0
M  V30 975 O 95.2704 2.50745 -0.297198 0
M  V30 976 C 96.5834 0.638071 -2.93852 0
M  V30 977 C 98.1314 0.728253 -3.0441 0
M  V30 978 C 98.6064 0.832663 -4.50367 0
M  V30 979 N 100.097 0.896712 -4.54437 0
M  V30 980 C 100.832 0.997324 -5.6466 0
M  V30 981 N 100.328 1.06147 -6.8462 0
M  V30 982 N 102.121 1.03297 -5.52527 0
M  V30 983 H 94.2724 -0.640211 -2.02522 0
M  V30 984 H 96.5354 -0.225507 -0.920788 0
M  V30 985 H 96.2414 -0.250126 -3.50809 0
M  V30 986 H 96.1154 1.49947 -3.46115 0
M  V30 987 H 98.5024 1.60689 -2.47514 0
M  V30 988 H 98.5834 -0.158952 -2.55306 0
M  V30 989 H 98.2274 -0.0415417 -5.07883 0
M  V30 990 H 98.1574 1.73538 -4.97184 0
M  V30 991 H 100.648 0.857188 -3.6805 0
M  V30 992 H 100.961 1.1382 -7.64372 0
M  V30 993 H 99.3064 1.03049 -6.87318 0
M  V30 994 H 102.497 0.979558 -4.57736 0
M  V30 995 H 102.67 1.10793 -6.38458 0
M  V30 996 N 96.0765 1.50051 0.48192 0
M  V30 997 C 97.3065 1.63999 1.2565 0
M  V30 998 C 97.7145 0.318288 1.86504 0
M  V30 999 O 97.0575 -0.708534 1.69486 0
M  V30 1000 C 97.1195 2.66504 2.4128 0
M  V30 1001 C 96.7835 4.10352 2.01148 0
M  V30 1002 C 97.7805 4.96562 1.54021 0
M  V30 1003 C 95.4655 4.56203 2.10199 0
M  V30 1004 C 97.4595 6.26668 1.16473 0
M  V30 1005 C 95.1465 5.86318 1.72264 0
M  V30 1006 C 96.1445 6.71375 1.25477 0
M  V30 1007 O 95.8325 7.99062 0.880626 0
M  V30 1008 H 95.5645 0.55456 0.386574 0
M  V30 1009 H 98.1185 1.96954 0.582944 0
M  V30 1010 H 96.3485 2.28769 3.11772 0
M  V30 1011 H 98.0375 2.69783 3.03268 0
M  V30 1012 H 98.8035 4.62358 1.46458 0
M  V30 1013 H 94.6825 3.90152 2.45566 0
M  V30 1014 H 98.2265 6.93011 0.798841 0
M  V30 1015 H 94.1235 6.20046 1.79482 0
M  V30 1016 H 94.8915 8.12239 1.01043 0
M  V30 1017 N 97.5546 -0.734337 1.39446 0
M  V30 1018 C 98.7946 -1.50655 1.38139 0
M  V30 1019 C 99.1586 -1.91986 -0.0228701 0
M  V30 1020 O 100.36 -2.68318 -0.160947 0
M  V30 1021 C 98.6306 -2.71251 2.32718 0
M  V30 1022 S 100.19 -3.60892 2.49605 0
M  V30 1023 H 97.0076 -0.515315 0.489869 0
M  V30 1024 H 99.6096 -0.860392 1.75549 0
M  V30 1025 H 98.3136 -2.39027 3.33608 0
M  V30 1026 H 97.8446 -3.40795 1.96526 0
M  V30 1027 H 99.8596 -4.64899 1.73446 0
M  V30 1028 N 99.0327 -1.24633 -0.964593 0
M  V30 1029 C 100.449 -1.01239 -1.2338 0
M  V30 1030 C 100.649 0.2769 -1.99588 0
M  V30 1031 O 99.7047 0.992241 -2.32187 0
M  V30 1032 C 101.018 -2.22937 -2.01791 0
M  V30 1033 C 102.566 -2.27594 -2.14872 0
M  V30 1034 C 103.041 -3.48921 -2.96678 0
M  V30 1035 N 104.532 -3.49257 -3.04259 0
M  V30 1036 C 105.267 -4.39795 -3.67924 0
M  V30 1037 N 104.763 -5.40591 -4.33281 0
M  V30 1038 N 106.556 -4.275 -3.64966 0
M  V30 1039 H 98.7067 -2.0748 -0.454502 0
M  V30 1040 H 100.97 -0.910647 -0.26349 0
M  V30 1041 H 100.676 -3.16587 -1.53184 0
M  V30 1042 H 100.55 -2.25306 -3.02518 0
M  V30 1043 H 102.937 -1.34473 -2.6268 0
M  V30 1044 H 103.018 -2.2925 -1.13482 0
M  V30 1045 H 102.662 -4.42359 -2.49562 0
M  V30 1046 H 102.592 -3.4451 -3.98272 0
M  V30 1047 H 105.083 -2.76337 -2.57771 0
M  V30 1048 H 105.396 -6.05904 -4.79687 0
M  V30 1049 H 103.741 -5.44475 -4.3194 0
M  V30 1050 H 106.932 -3.47987 -3.13086 0
M  V30 1051 H 107.105 -4.98258 -4.14298 0
M  V30 1052 N 100.511 1.16574 -1.06058 0
M  V30 1053 C 101.441 2.23057 -0.690488 0
M  V30 1054 C 102.422 1.67141 0.315901 0
M  V30 1055 O 103.607 1.93253 0.191556 0
M  V30 1056 C 100.737 3.47222 -0.073625 0
M  V30 1057 C 99.6908 4.16016 -1.00573 0
M  V30 1058 C 99.0168 5.34104 -0.252289 0
M  V30 1059 C 100.317 4.67264 -2.33371 0
M  V30 1060 H 102.011 2.54271 -1.58072 0
M  V30 1061 H 99.5568 1.22218 -0.76149 0
M  V30 1062 H 101.51 4.20939 0.19714 0
M  V30 1063 H 100.234 3.15302 0.85161 0
M  V30 1064 H 98.8928 3.44223 -1.2612 0
M  V30 1065 H 98.5408 4.98437 0.675988 0
M  V30 1066 H 98.2408 5.81072 -0.873455 0
M  V30 1067 H 99.7648 6.10599 0.0109857 0
M  V30 1068 H 101.179 5.32573 -2.12223 0
M  V30 1069 H 99.5758 5.24843 -2.90963 0
M  V30 1070 H 100.646 3.83602 -2.96611 0
M  V30 1071 N 101.989 0.842826 1.3317 0
M  V30 1072 C 103.405 0.531128 1.50503 0
M  V30 1073 C 103.605 -0.940734 1.78192 0
M  V30 1074 O 102.661 -1.72436 1.84451 0
M  V30 1075 C 103.974 1.40789 2.65705 0
M  V30 1076 C 105.522 1.40708 2.79589 0
M  V30 1077 C 105.997 2.26878 3.97857 0
M  V30 1078 N 107.488 2.24609 4.05099 0
M  V30 1079 C 108.223 2.88019 4.95815 0
M  V30 1080 N 107.719 3.60496 5.9162 0
M  V30 1081 N 109.512 2.77469 4.88843 0
M  V30 1082 H 101.663 1.79557 1.1346 0
M  V30 1083 H 103.926 0.766267 0.558156 0
M  V30 1084 H 103.632 2.454 2.51936 0
M  V30 1085 H 103.506 1.08677 3.61205 0
M  V30 1086 H 105.893 0.368668 2.92788 0
M  V30 1087 H 105.974 1.76829 1.84838 0
M  V30 1088 H 105.618 3.3078 3.85418 0
M  V30 1089 H 105.548 1.88096 4.91861 0
M  V30 1090 H 108.039 1.71906 3.36536 0
M  V30 1091 H 108.352 4.06076 6.57512 0
M  V30 1092 H 106.697 3.64604 5.91683 0
M  V30 1093 H 109.888 2.20406 4.12963 0
M  V30 1094 H 110.061 3.2717 5.59342 0
M  V30 1095 N 103.467 -1.45747 0.599634 0
M  V30 1096 C 104.414 -2.30467 -0.123849 0
M  V30 1097 C 105.384 -1.41632 -0.86774 0
M  V30 1098 O 106.569 -1.70568 -0.855056 0
M  V30 1099 C 103.709 -3.26402 -1.12051 0
M  V30 1100 C 102.822 -4.3034 -0.37832 0
M  V30 1101 C 101.957 -5.13389 -1.364 0
M  V30 1102 C 100.996 -6.09061 -0.609171 0
M  V30 1103 N 100.133 -6.84918 -1.54374 0
M  V30 1104 H 104.973 -2.91802 0.604627 0
M  V30 1105 H 102.51 -1.43797 0.309972 0
M  V30 1106 H 104.468 -3.80482 -1.7114 0
M  V30 1107 H 103.098 -2.66839 -1.8165 0
M  V30 1108 H 102.15 -3.78984 0.327929 0
M  V30 1109 H 103.462 -4.98354 0.210997 0
M  V30 1110 H 102.616 -5.7183 -2.02719 0
M  V30 1111 H 101.355 -4.45376 -1.98725 0
M  V30 1112 H 100.36 -5.49758 0.0676979 0
M  V30 1113 H 101.585 -6.79099 0.00891991 0
M  V30 1114 H 99.531 -6.19601 -2.15478 0
M  V30 1115 H 99.448 -7.49254 -1.00766 0
M  V30 1116 H 100.716 -7.47906 -2.19676 0
M  V30 1117 N 104.945 -0.338344 -1.53925 0
M  V30 1118 C 106.185 0.260168 -2.02737 0
M  V30 1119 C 106.549 1.48181 -1.22092 0
M  V30 1120 O 107.75 2.15416 -1.60777 0
M  V30 1121 C 106.021 0.571627 -3.52799 0
M  V30 1122 S 107.58 1.14769 -4.23525 0
M  V30 1123 H 104.398 0.077791 -0.706732 0
M  V30 1124 H 107 -0.474899 -1.89644 0
M  V30 1125 H 105.704 -0.325392 -4.09108 0
M  V30 1126 H 105.235 1.3365 -3.70002 0
M  V30 1127 H 107.25 2.43372 -4.32417 0
M  V30 1128 N 106.423 1.57458 -0.0668435 0
M  V30 1129 C 107.67 1.93301 0.603406 0
M  V30 1130 C 107.998 0.946486 1.69917 0
M  V30 1131 O 107.253 -0.0387021 1.95662 0
M  V30 1132 C 107.552 3.35784 1.22409 0
M  V30 1133 C 107.218 4.50179 0.254955 0
M  V30 1134 C 105.88 4.81199 -0.0116746 0
M  V30 1135 C 108.232 5.19598 -0.408338 0
M  V30 1136 C 105.56 5.78978 -0.94877 0
M  V30 1137 C 107.912 6.18381 -1.33372 0
M  V30 1138 C 106.576 6.47821 -1.60887 0
M  V30 1139 H 105.846 0.707338 0.220802 0
M  V30 1140 H 108.493 1.91012 -0.136665 0
M  V30 1141 H 106.798 3.34515 2.03978 0
M  V30 1142 H 108.495 3.60804 1.74989 0
M  V30 1143 H 105.085 4.25983 0.472954 0
M  V30 1144 H 109.269 4.95832 -0.215456 0
M  V30 1145 H 104.525 6.00115 -1.16925 0
M  V30 1146 H 108.699 6.71277 -1.85367 0
M  V30 1147 H 106.326 7.23399 -2.33661 0
M  V30 1148 N 107.901 -0.206675 1.56239 0
M  V30 1149 C 109.317 -0.557025 1.49564 0
M  V30 1150 C 109.517 -1.86424 0.764735 0
M  V30 1151 O 108.573 -2.50584 0.310491 0
M  V30 1152 C 109.886 -0.622478 2.94186 0
M  V30 1153 C 111.434 -0.712099 3.04792 0
M  V30 1154 C 111.909 -0.808767 4.50803 0
M  V30 1155 N 113.4 -0.8726 4.54907 0
M  V30 1156 C 114.135 -0.967365 5.65181 0
M  V30 1157 N 113.631 -1.02515 6.85173 0
M  V30 1158 N 115.424 -1.00366 5.53067 0
M  V30 1159 H 107.575 0.650943 2.02179 0
M  V30 1160 H 109.838 0.230387 0.919579 0
M  V30 1161 H 109.544 0.268727 3.50672 0
M  V30 1162 H 109.418 -1.4811 3.46905 0
M  V30 1163 H 111.805 -1.59374 2.48363 0
M  V30 1164 H 111.886 0.172489 2.55218 0
M  V30 1165 H 111.53 0.0684754 5.07854 0
M  V30 1166 H 111.46 -1.70899 4.98098 0
M  V30 1167 H 113.951 -0.837657 3.68499 0
M  V30 1168 H 114.264 -1.09765 7.64965 0
M  V30 1169 H 112.609 -0.994026 6.87855 0
M  V30 1170 H 115.8 -0.95527 4.58249 0
M  V30 1171 H 115.973 -1.07405 6.39037 0
M  V30 1172 N 109.379 -1.50304 -0.473955 0
M  V30 1173 C 110.342 -1.6841 -1.55469 0
M  V30 1174 C 111.342 -0.554905 -1.50922 0
M  V30 1175 O 112.532 -0.821882 -1.53593 0
M  V30 1176 C 109.664 -1.70667 -2.95102 0
M  V30 1177 H 110.857 -2.64828 -1.40733 0
M  V30 1178 H 108.41 -1.39742 -0.700132 0
M  V30 1179 H 109.145 -0.75932 -3.15285 0
M  V30 1180 H 108.93 -2.52698 -2.9981 0
M  V30 1181 H 110.42 -1.8664 -3.73571 0
M  V30 1182 N 110.857 0.726932 -1.39834 0
M  V30 1183 C 112.105 1.4837 -1.37225 0
M  V30 1184 C 112.426 1.94979 0.0284857 0
M  V30 1185 O 111.696 1.69555 0.981213 0
M  V30 1186 H 110.276 0.55043 -0.505011 0
M  V30 1187 H 112.938 0.862468 -1.74778 0
M  V30 1188 H 112.034 2.36198 -2.04003 0
M  V30 1189 N 112.336 1.25143 0.95797 0
M  V30 1190 C 113.269 0.995565 2.05338 0
M  V30 1191 C 114.247 -0.0740423 1.62431 0
M  V30 1192 O 115.431 0.0649212 1.88388 0
M  V30 1193 C 112.558 0.504298 3.34925 0
M  V30 1194 C 111.604 1.56393 3.96792 0
M  V30 1195 S 112.437 3.14815 4.33188 0
M  V30 1196 C 113.593 2.67415 5.65898 0
M  V30 1197 H 113.826 1.92309 2.26726 0
M  V30 1198 H 111.359 1.08635 1.09716 0
M  V30 1199 H 113.317 0.227497 4.09869 0
M  V30 1200 H 111.978 -0.402671 3.11508 0
M  V30 1201 H 111.171 1.17082 4.90212 0
M  V30 1202 H 110.773 1.79124 3.28315 0
M  V30 1203 H 113.065 2.10833 6.4386 0
M  V30 1204 H 114.008 3.59463 6.10076 0
M  V30 1205 H 114.416 2.07521 5.24972 0
M  V30 1206 N 113.814 -1.1601 1.06675 0
M  V30 1207 C 114.761 -2.20525 0.680967 0
M  V30 1208 C 115.731 -1.62904 -0.324283 0
M  V30 1209 O 116.916 -1.89615 -0.212294 0
M  V30 1210 C 114.056 -3.45013 0.0776551 0
M  V30 1211 C 113.169 -4.16863 1.13355 0
M  V30 1212 C 112.304 -5.2888 0.49597 0
M  V30 1213 C 111.343 -5.92537 1.53513 0
M  V30 1214 N 110.48 -6.96038 0.920631 0
M  V30 1215 H 115.32 -2.52876 1.57663 0
M  V30 1216 H 112.857 -1.24199 0.788223 0
M  V30 1217 H 114.815 -4.16193 -0.289704 0
M  V30 1218 H 113.445 -3.132 -0.781393 0
M  V30 1219 H 112.497 -3.44248 1.61857 0
M  V30 1220 H 113.809 -4.60294 1.92174 0
M  V30 1221 H 112.963 -6.06653 0.0758604 0
M  V30 1222 H 111.702 -4.86622 -0.324062 0
M  V30 1223 H 110.707 -5.13482 1.9651 0
M  V30 1224 H 111.932 -6.36873 2.35733 0
M  V30 1225 H 109.878 -6.55888 0.12138 0
M  V30 1226 H 109.795 -7.3786 1.64616 0
M  V30 1227 H 111.063 -7.77725 0.525795 0
M  V30 1228 N 115.292 -0.849877 -1.32721 0
M  V30 1229 C 116.239 -0.289033 -2.28983 0
M  V30 1230 C 117.209 0.601324 -1.54833 0
M  V30 1231 O 118.394 0.537253 -1.8308 0
M  V30 1232 C 115.534 0.520623 -3.4115 0
M  V30 1233 C 114.647 -0.394989 -4.3019 0
M  V30 1234 C 113.782 0.426834 -5.29482 0
M  V30 1235 C 112.821 -0.486476 -6.10164 0
M  V30 1236 N 111.958 0.297879 -7.01468 0
M  V30 1237 H 116.798 -1.11519 -2.76347 0
M  V30 1238 H 114.335 -0.56138 -1.35967 0
M  V30 1239 H 116.293 1.00563 -4.04899 0
M  V30 1240 H 114.923 1.31165 -2.9495 0
M  V30 1241 H 113.975 -0.99836 -3.67065 0
M  V30 1242 H 115.287 -1.09612 -4.86607 0
M  V30 1243 H 114.441 0.975205 -5.98811 0
M  V30 1244 H 113.18 1.16136 -4.73671 0
M  V30 1245 H 112.185 -1.04677 -5.39743 0
M  V30 1246 H 113.41 -1.21953 -6.6806 0
M  V30 1247 H 111.356 1.01558 -6.48091 0
M  V30 1248 H 111.273 -0.344318 -7.55216 0
M  V30 1249 H 112.541 0.828131 -7.75089 0
M  V30 1250 N 116.77 1.45427 -0.607355 0
M  V30 1251 C 117.68 2.34325 0.113463 0
M  V30 1252 C 118.696 1.51226 0.860617 0
M  V30 1253 O 119.872 1.84029 0.818255 0
M  V30 1254 C 116.937 3.28839 1.09844 0
M  V30 1255 C 115.998 4.27844 0.353271 0
M  V30 1256 C 115.231 5.17842 1.29133 0
M  V30 1257 O 115.454 5.11264 2.52913 0
M  V30 1258 O 114.388 5.96713 0.788523 0
M  V30 1259 H 118.214 2.97364 -0.617094 0
M  V30 1260 H 115.799 1.44807 -0.367619 0
M  V30 1261 H 117.681 3.8708 1.66575 0
M  V30 1262 H 116.356 2.68365 1.81003 0
M  V30 1263 H 115.263 3.7322 -0.256494 0
M  V30 1264 H 116.596 4.91173 -0.317822 0
M  V30 1265 N 118.248 0.346503 1.53744 0
M  V30 1266 C 119.211 -0.496439 2.23759 0
M  V30 1267 C 120.211 -1.0252 1.2388 0
M  V30 1268 O 121.401 -0.913974 1.48297 0
M  V30 1269 C 118.533 -1.69187 2.95954 0
M  V30 1270 H 119.726 0.115952 2.99676 0
M  V30 1271 H 117.279 0.0978939 1.55993 0
M  V30 1272 H 118.014 -2.34288 2.24231 0
M  V30 1273 H 117.799 -1.31989 3.69217 0
M  V30 1274 H 119.289 -2.28969 3.49232 0
M  V30 1275 N 119.726 -1.57421 0.075193 0
M  V30 1276 C 120.972 -1.93905 -0.594025 0
M  V30 1277 C 121.305 -0.955701 -1.69056 0
M  V30 1278 O 120.58 0.0145373 -1.94495 0
M  V30 1279 C 120.863 -3.40638 -1.1678 0
M  V30 1280 C 120.716 -4.49733 -0.0776792 0
M  V30 1281 C 122.035 -3.88259 -2.07228 0
M  V30 1282 H 119.154 -0.705105 -0.214466 0
M  V30 1283 H 121.796 -1.8947 0.141854 0
M  V30 1284 H 119.946 -3.44549 -1.79494 0
M  V30 1285 H 121.618 -4.57942 0.555573 0
M  V30 1286 H 119.861 -4.29751 0.591286 0
M  V30 1287 H 120.532 -5.49549 -0.519603 0
M  V30 1288 H 123.008 -3.86376 -1.54445 0
M  V30 1289 H 121.884 -4.91533 -2.44308 0
M  V30 1290 H 122.145 -3.26396 -2.98191 0
M  V30 1291 N 121.204 0.198386 -1.56346 0
M  V30 1292 C 122.136 1.26987 -1.90806 0
M  V30 1293 C 123.149 1.41877 -0.798419 0
M  V30 1294 O 124.338 1.42362 -1.07682 0
M  V30 1295 C 121.438 2.64246 -2.12196 0
M  V30 1296 C 120.611 2.71007 -3.43328 0
M  V30 1297 C 119.67 3.89439 -3.5387 0
M  V30 1298 O 118.696 3.76695 -4.26719 0
M  V30 1299 N 119.898 5.04752 -2.86715 0
M  V30 1300 H 122.663 0.977433 -2.83313 0
M  V30 1301 H 120.224 0.388322 -1.57174 0
M  V30 1302 H 122.216 3.41896 -2.1654 0
M  V30 1303 H 120.786 2.85992 -1.26204 0
M  V30 1304 H 120.006 1.79657 -3.50881 0
M  V30 1305 H 121.294 2.72512 -4.29668 0
M  V30 1306 H 120.692 5.18004 -2.2735 0
M  V30 1307 H 119.249 5.8036 -2.96691 0
M  V30 1308 N 122.682 1.50554 0.465978 0
M  V30 1309 C 123.63 1.70324 1.58406 0
M  V30 1310 C 124.624 0.569139 1.59553 0
M  V30 1311 O 125.83 0.749776 1.63641 0
M  V30 1312 H 122.205 0.537688 0.525734 0
M  V30 1313 H 124.176 2.64104 1.38894 0
M  V30 1314 C 122.925 1.81928 2.96307 0
M  V30 1315 H 122.248 2.68586 2.96144 0
M  V30 1316 H 123.688 1.99784 3.73982 0
M  V30 1317 C 122.147 0.572095 3.32007 0
M  V30 1318 O 122.677 -0.286416 4.00678 0
M  V30 1319 N 120.883 0.424606 2.87481 0
M  V30 1320 H 120.43 1.12427 2.31771 0
M  V30 1321 H 120.388 -0.408697 3.11732 0
M  V30 1322 N 124.16 -0.719506 1.40217 0
M  V30 1323 C 125.07 -1.86378 1.42479 0
M  V30 1324 C 126.086 -1.71073 0.317834 0
M  V30 1325 O 127.262 -1.93406 0.561794 0
M  V30 1326 C 124.327 -3.22136 1.28178 0
M  V30 1327 C 123.388 -3.49723 2.48982 0
M  V30 1328 C 122.621 -4.79004 2.35353 0
M  V30 1329 O 122.844 -5.53821 1.36524 0
M  V30 1330 O 121.778 -5.06839 3.2465 0
M  V30 1331 H 125.604 -1.87425 2.38968 0
M  V30 1332 H 123.189 -0.869405 1.21498 0
M  V30 1333 H 125.071 -4.03234 1.22395 0
M  V30 1334 H 123.746 -3.21825 0.347934 0
M  V30 1335 H 122.653 -2.6865 2.60342 0
M  V30 1336 H 123.986 -3.54828 3.41113 0
M  V30 1337 N 125.638 -1.25649 -0.95132 0
M  V30 1338 C 127.054 -1.02542 -1.223 0
M  V30 1339 C 127.254 0.255715 -1.99871 0
M  V30 1340 O 126.31 0.967558 -2.33226 0
M  V30 1341 C 127.623 -2.25065 -1.99415 0
M  V30 1342 C 129.171 -2.29861 -2.12446 0
M  V30 1343 C 129.646 -3.52048 -2.92961 0
M  V30 1344 N 131.137 -3.52465 -3.00538 0
M  V30 1345 C 131.872 -4.43672 -3.63239 0
M  V30 1346 N 131.368 -5.45157 -4.27523 0
M  V30 1347 N 133.161 -4.31346 -3.60412 0
M  V30 1348 H 125.312 -2.07951 -0.432471 0
M  V30 1349 H 127.575 -0.91339 -0.253816 0
M  V30 1350 H 127.281 -3.18194 -1.49817 0
M  V30 1351 H 127.155 -2.28502 -3.00111 0
M  V30 1352 H 129.542 -1.37252 -2.61239 0
M  V30 1353 H 129.623 -2.3044 -1.11044 0
M  V30 1354 H 129.267 -4.44981 -2.44856 0
M  V30 1355 H 129.197 -3.48715 -3.94596 0
M  V30 1356 H 131.688 -2.79056 -2.54826 0
M  V30 1357 H 132.001 -6.10958 -4.73234 0
M  V30 1358 H 130.346 -5.49025 -4.26141 0
M  V30 1359 H 133.537 -3.51288 -3.09377 0
M  V30 1360 H 133.71 -5.02624 -4.0899 0
M  V30 1361 N 127.117 1.15442 -1.07289 0
M  V30 1362 C 128.394 1.82306 -0.708792 0
M  V30 1363 C 128.774 1.94991 0.808807 0
M  V30 1364 O 128.122 1.50085 1.72298 0
M  V30 1365 C 128.332 3.18695 -1.42247 0
M  V30 1366 C 129.68 3.94341 -1.57417 0
M  V30 1367 O 130.704 3.28247 -1.38319 0
M  V30 1368 O 129.563 5.12839 -1.88834 0
M  V30 1369 H 126.657 0.787628 -0.252132 0
M  V30 1370 H 129.203 1.22559 -1.17377 0
M  V30 1371 H 127.975 3.04557 -2.45684 0
M  V30 1372 H 127.598 3.86128 -0.948223 0
M  V30 1373 N 128.595 0.856903 1.32268 0
M  V30 1374 C 130.011 0.547061 1.49931 0
M  V30 1375 C 130.211 -0.921781 1.7918 0
M  V30 1376 O 129.267 -1.70469 1.8627 0
M  V30 1377 C 130.58 1.43599 2.64196 0
M  V30 1378 C 132.128 1.43665 2.78081 0
M  V30 1379 C 132.603 2.31085 3.95428 0
M  V30 1380 N 134.094 2.28893 4.02694 0
M  V30 1381 C 134.829 2.93262 4.92732 0
M  V30 1382 N 134.325 3.66751 5.87763 0
M  V30 1383 N 136.118 2.82638 4.85873 0
M  V30 1384 H 128.269 1.8075 1.11549 0
M  V30 1385 H 130.532 0.772144 0.549997 0
M  V30 1386 H 130.238 2.48058 2.49319 0
M  V30 1387 H 130.112 1.12502 3.60032 0
M  V30 1388 H 132.499 0.399701 2.92381 0
M  V30 1389 H 132.58 1.7878 1.82952 0
M  V30 1390 H 132.224 3.34849 3.81888 0
M  V30 1391 H 132.154 1.93302 4.89839 0
M  V30 1392 H 134.645 1.75466 3.34694 0
M  V30 1393 H 134.958 4.13027 6.53168 0
M  V30 1394 H 133.303 3.70859 5.87783 0
M  V30 1395 H 136.494 2.24774 4.10602 0
M  V30 1396 H 136.667 3.33084 5.55841 0
M  V30 1397 N 130.073 -1.45103 0.615059 0
M  V30 1398 C 131.322 -2.01396 0.110718 0
M  V30 1399 C 131.635 -1.48834 -1.26916 0
M  V30 1400 O 132.841 -1.97152 -1.86664 0
M  V30 1401 C 131.297 -3.59599 0.14723 0
M  V30 1402 C 130.905 -4.21158 1.52743 0
M  V30 1403 C 132.649 -4.23428 -0.30148 0
M  V30 1404 C 130.556 -5.71535 1.51992 0
M  V30 1405 H 129.486 -0.753061 0.0376241 0
M  V30 1406 H 132.137 -1.66494 0.77149 0
M  V30 1407 H 130.519 -3.91724 -0.580339 0
M  V30 1408 H 131.693 -4.00594 2.2773 0
M  V30 1409 H 130.008 -3.69552 1.91886 0
M  V30 1410 H 132.605 -5.33703 -0.326392 0
M  V30 1411 H 132.948 -3.94629 -1.32565 0
M  V30 1412 H 133.481 -3.96047 0.373065 0
M  V30 1413 H 130.22 -6.05044 2.52193 0
M  V30 1414 H 129.74 -5.94268 0.81274 0
M  V30 1415 H 131.419 -6.34873 1.24681 0
M  V30 1416 N 131.551 -0.354651 -1.53558 0
M  V30 1417 C 132.776 0.242153 -2.05981 0
M  V30 1418 C 133.201 1.42553 -1.2272 0
M  V30 1419 O 132.559 1.79656 -0.243604 0
M  V30 1420 C 132.607 0.624367 -3.55154 0
M  V30 1421 O 131.711 1.72301 -3.74681 0
M  V30 1422 H 131.052 0.0378432 -0.662921 0
M  V30 1423 H 133.582 -0.512087 -1.98088 0
M  V30 1424 H 133.592 0.898433 -3.97985 0
M  V30 1425 H 132.267 -0.240989 -4.15201 0
M  V30 1426 H 130.844 1.44535 -3.4375 0
M  V30 1427 N 133.029 1.57378 -0.0835403 0
M  V30 1428 C 134.257 1.98263 0.59157 0
M  V30 1429 C 134.672 0.962302 1.62435 0
M  V30 1430 O 134.029 -0.049581 1.82433 0
M  V30 1431 C 134.08 3.39214 1.24965 0
M  V30 1432 O 133.801 4.37339 0.258186 0
M  V30 1433 C 135.302 3.95038 2.01147 0
M  V30 1434 H 132.522 0.651773 0.159477 0
M  V30 1435 H 135.066 2.03878 -0.159415 0
M  V30 1436 H 133.221 3.34649 1.95164 0
M  V30 1437 H 133.635 5.19371 0.731734 0
M  V30 1438 H 135.109 4.95848 2.42567 0
M  V30 1439 H 135.586 3.32222 2.87272 0
M  V30 1440 H 136.192 4.0304 1.35789 0
M  V30 1441 N 134.507 -0.190092 1.56449 0
M  V30 1442 C 135.923 -0.54113 1.50146 0
M  V30 1443 C 136.123 -1.85603 0.784465 0
M  V30 1444 O 135.179 -2.5024 0.337051 0
M  V30 1445 C 136.492 -0.591241 2.9483 0
M  V30 1446 C 138.04 -0.679732 3.0553 0
M  V30 1447 C 138.515 -0.760908 4.51635 0
M  V30 1448 N 140.006 -0.824302 4.55806 0
M  V30 1449 C 140.741 -0.907365 5.66175 0
M  V30 1450 N 140.237 -0.952422 6.86222 0
M  V30 1451 N 142.03 -0.94494 5.541 0
M  V30 1452 H 134.181 0.67235 2.01478 0
M  V30 1453 H 136.444 0.240127 0.917084 0
M  V30 1454 H 136.15 0.305905 3.50367 0
M  V30 1455 H 136.024 -1.44422 3.48457 0
M  V30 1456 H 138.411 -1.56731 2.50039 0
M  V30 1457 H 138.492 0.199549 2.5502 0
M  V30 1458 H 138.136 0.122336 5.07753 0
M  V30 1459 H 138.066 -1.65606 4.99882 0
M  V30 1460 H 140.557 -0.798526 3.69367 0
M  V30 1461 H 140.87 -1.01645 7.66086 0
M  V30 1462 H 139.215 -0.921014 6.8887 0
M  V30 1463 H 142.406 -0.906612 4.59236 0
M  V30 1464 H 142.579 -1.00622 6.4014 0
M  V30 1465 N 135.985 -1.50799 -0.457987 0
M  V30 1466 C 137.401 -1.38515 -0.792819 0
M  V30 1467 C 137.601 -0.451409 -1.96379 0
M  V30 1468 O 136.657 0.10112 -2.52297 0
M  V30 1469 C 137.97 -2.80149 -1.09258 0
M  V30 1470 C 139.518 -2.89156 -1.19825 0
M  V30 1471 C 139.993 -4.31651 -1.53106 0
M  V30 1472 N 141.484 -4.34662 -1.60072 0
M  V30 1473 C 142.219 -5.41928 -1.87354 0
M  V30 1474 N 141.715 -6.59384 -2.12568 0
M  V30 1475 N 143.508 -5.29385 -1.88965 0
M  V30 1476 H 135.659 -2.10073 0.313511 0
M  V30 1477 H 137.922 -0.944803 0.0777862 0
M  V30 1478 H 137.628 -3.50374 -0.305084 0
M  V30 1479 H 137.502 -3.18204 -2.02549 0
M  V30 1480 H 139.889 -2.19141 -1.97639 0
M  V30 1481 H 139.97 -2.54626 -0.244821 0
M  V30 1482 H 139.614 -5.02208 -0.758266 0
M  V30 1483 H 139.544 -4.63678 -2.49621 0
M  V30 1484 H 142.035 -3.49973 -1.42573 0
M  V30 1485 H 142.348 -7.36934 -2.32696 0
M  V30 1486 H 140.693 -6.62535 -2.09933 0
M  V30 1487 H 143.884 -4.36616 -1.68772 0
M  V30 1488 H 144.057 -6.13066 -2.09891 0
M  V30 1489 N 137.463 0.71206 -1.40597 0
M  V30 1490 C 138.688 1.50617 -1.42581 0
M  V30 1491 C 139.113 1.88079 -0.0282102 0
M  V30 1492 O 138.471 1.53511 0.964579 0
M  V30 1493 C 138.519 2.7557 -2.3258 0
M  V30 1494 O 137.623 3.72414 -1.77148 0
M  V30 1495 H 136.964 0.453966 -0.484573 0
M  V30 1496 H 139.494 0.876649 -1.84868 0
M  V30 1497 H 139.504 3.2406 -2.47889 0
M  V30 1498 H 138.179 2.47639 -3.34138 0
M  V30 1499 H 136.756 3.31276 -1.71204 0
M  V30 1500 N 138.941 1.26152 0.944643 0
M  V30 1501 C 140.169 1.14259 1.72489 0
M  V30 1502 C 140.584 -0.302555 1.8636 0
M  V30 1503 O 139.941 -1.20741 1.36849 0
M  V30 1504 C 139.992 1.80266 3.13347 0
M  V30 1505 O 139.713 3.19133 3.00143 0
M  V30 1506 C 141.214 1.74283 4.07603 0
M  V30 1507 H 138.434 0.398051 0.540181 0
M  V30 1508 H 140.978 1.66706 1.18446 0
M  V30 1509 H 139.133 1.31766 3.64303 0
M  V30 1510 H 139.547 3.51744 3.89071 0
M  V30 1511 H 141.021 2.25111 5.04013 0
M  V30 1512 H 141.498 0.708631 4.33446 0
M  V30 1513 H 142.104 2.22319 3.62567 0
M  V30 1514 N 140.419 -1.14872 1.07899 0
M  V30 1515 C 141.666 -1.85789 0.805532 0
M  V30 1516 C 141.994 -1.82649 -0.668561 0
M  V30 1517 O 141.249 -1.24858 -1.50695 0
M  V30 1518 C 141.548 -3.34223 1.26609 0
M  V30 1519 C 141.214 -3.57555 2.74709 0
M  V30 1520 C 139.876 -3.63631 3.1516 0
M  V30 1521 C 142.228 -3.66803 3.70277 0
M  V30 1522 C 139.556 -3.76473 4.49983 0
M  V30 1523 C 141.908 -3.8117 5.04869 0
M  V30 1524 C 140.572 -3.85494 5.44932 0
M  V30 1525 H 139.842 -0.679849 0.294765 0
M  V30 1526 H 142.489 -1.3572 1.35101 0
M  V30 1527 H 140.794 -3.86536 0.640103 0
M  V30 1528 H 142.491 -3.87511 1.03132 0
M  V30 1529 H 139.081 -3.5347 2.42398 0
M  V30 1530 H 143.265 -3.61404 3.40149 0
M  V30 1531 H 138.521 -3.7808 4.80484 0
M  V30 1532 H 142.695 -3.87268 5.78789 0
M  V30 1533 H 140.322 -3.95197 6.49403 0
M  V30 1534 N 141.898 -0.863906 -1.31812 0
M  V30 1535 C 143.175 -0.39275 -1.91616 0
M  V30 1536 C 143.555 1.12461 -1.7865 0
M  V30 1537 O 142.903 1.95045 -1.19037 0
M  V30 1538 C 143.113 -0.867385 -3.38049 0
M  V30 1539 C 144.461 -0.889966 -4.15168 0
M  V30 1540 O 145.485 -0.812635 -3.46806 0
M  V30 1541 O 144.344 -1.00079 -5.37258 0
M  V30 1542 H 141.438 -0.116358 -0.818773 0
M  V30 1543 H 143.984 -0.951418 -1.40521 0
M  V30 1544 H 142.756 -1.91081 -3.41473 0
M  V30 1545 H 142.379 -0.286687 -3.96565 0
M  V30 1546 N 143.376 1.44774 -0.622745 0
M  V30 1547 C 144.624 2.01721 -0.123655 0
M  V30 1548 C 144.945 1.49172 1.25589 0
M  V30 1549 O 144.215 0.691974 1.83272 0
M  V30 1550 H 142.795 0.745777 -0.0427225 0
M  V30 1551 H 145.457 1.77382 -0.807559 0
M  V30 1552 H 144.553 3.11984 -0.0849534 0
M  V30 1553 N 144.854 0.36279 1.53368 0
M  V30 1554 C 146.079 -0.231226 2.06107 0
M  V30 1555 C 146.504 -1.419 1.23474 0
M  V30 1556 O 145.862 -1.79524 0.253128 0
M  V30 1557 C 145.91 -0.605523 3.5548 0
M  V30 1558 O 145.014 -1.70312 3.7559 0
M  V30 1559 H 144.355 -0.034327 0.663112 0
M  V30 1560 H 146.885 0.522584 1.97814 0
M  V30 1561 H 146.895 -0.877314 3.98456 0
M  V30 1562 H 145.57 0.263004 4.15068 0
M  V30 1563 H 144.147 -1.4271 3.44512 0
M  V30 1564 N 146.332 -1.57332 0.0918853 0
M  V30 1565 C 147.28 -2.15075 -0.885747 0
M  V30 1566 C 148.274 -1.09277 -1.29441 0
M  V30 1567 O 149.48 -1.27627 -1.26931 0
M  V30 1568 H 145.855 -0.687966 -0.303656 0
M  V30 1569 H 147.826 -2.96047 -0.373995 0
M  V30 1570 C 146.575 -2.74325 -2.13638 0
M  V30 1571 H 145.898 -3.55418 -1.8308 0
M  V30 1572 H 147.338 -3.183 -2.80109 0
M  V30 1573 C 145.797 -1.70062 -2.90827 0
M  V30 1574 O 146.327 -1.13763 -3.85254 0
M  V30 1575 N 144.533 -1.40628 -2.54307 0
M  V30 1576 H 144.08 -1.866 -1.7759 0
M  V30 1577 H 144.038 -0.711043 -3.06254 0
M  V30 1578 N 147.81 0.181792 -1.56548 0
M  V30 1579 C 149.059 0.898348 -1.8059 0
M  V30 1580 C 149.372 1.83862 -0.667379 0
M  V30 1581 O 150.578 2.59678 -0.792446 0
M  V30 1582 C 149.034 1.64791 -3.19956 0
M  V30 1583 C 148.642 0.751789 -4.41647 0
M  V30 1584 C 150.386 2.35331 -3.53298 0
M  V30 1585 C 148.293 1.50098 -5.72035 0
M  V30 1586 H 147.223 0.339194 -0.673397 0
M  V30 1587 H 149.874 0.151413 -1.82874 0
M  V30 1588 H 148.256 2.43921 -3.11959 0
M  V30 1589 H 149.43 -0.0018076 -4.608 0
M  V30 1590 H 147.745 0.156562 -4.16106 0
M  V30 1591 H 150.342 2.91958 -4.47956 0
M  V30 1592 H 150.685 3.10164 -2.77676 0
M  V30 1593 H 151.218 1.63154 -3.62803 0
M  V30 1594 H 147.957 0.795175 -6.50659 0
M  V30 1595 H 147.477 2.22817 -5.56878 0
M  V30 1596 H 149.156 2.05125 -6.13622 0
M  V30 1597 N 149.288 1.51039 0.449983 0
M  V30 1598 C 150.699 1.557 1.03026 0
M  V30 1599 C 151.05 0.372939 1.92623 0
M  V30 1600 O 150.175 -0.511771 2.10261 0
M  V30 1601 C 150.77 2.82171 1.87523 0
M  V30 1602 C 149.329 2.89444 2.40622 0
M  V30 1603 C 148.476 2.50228 1.19504 0
M  V30 1604 H 151.427 1.56999 0.231745 0
M  V30 1605 H 151.448 2.65219 2.72835 0
M  V30 1606 H 150.96 3.68331 1.22286 0
M  V30 1607 H 149.061 2.07685 3.0935 0
M  V30 1608 H 149.174 3.92816 2.74285 0
M  V30 1609 H 147.538 2.03139 1.53644 0
M  V30 1610 H 148.321 3.38719 0.558972 0
M  V30 1611 N 150.766 -0.704594 1.40972 0
M  V30 1612 C 151.991 -1.49858 1.43378 0
M  V30 1613 C 152.416 -1.88061 0.038184 0
M  V30 1614 O 151.774 -1.5402 -0.956425 0
M  V30 1615 C 151.822 -2.74333 2.34038 0
M  V30 1616 O 150.926 -3.7147 1.7912 0
M  V30 1617 H 150.267 -0.45139 0.486974 0
M  V30 1618 H 152.797 -0.866832 1.8533 0
M  V30 1619 H 152.807 -3.22741 2.49604 0
M  V30 1620 H 151.482 -2.45863 3.35446 0
M  V30 1621 H 150.059 -3.30363 1.72958 0
M  V30 1622 N 152.244 -1.26651 -0.937939 0
M  V30 1623 C 153.493 -1.11775 -1.67897 0
M  V30 1624 C 153.806 0.33794 -1.92659 0
M  V30 1625 O 155.012 0.607434 -2.64618 0
M  V30 1626 C 153.468 -1.9523 -3.02346 0
M  V30 1627 C 153.076 -3.45393 -2.8532 0
M  V30 1628 C 154.82 -1.88972 -3.80118 0
M  V30 1629 C 152.727 -4.21083 -4.15263 0
M  V30 1630 H 151.657 -0.414696 -0.629717 0
M  V30 1631 H 154.308 -1.50988 -1.04283 0
M  V30 1632 H 152.69 -1.48853 -3.66959 0
M  V30 1633 H 153.864 -3.99561 -2.29537 0
M  V30 1634 H 152.179 -3.52921 -2.20988 0
M  V30 1635 H 154.776 -2.42805 -4.76392 0
M  V30 1636 H 155.119 -0.86113 -4.07296 0
M  V30 1637 H 155.652 -2.33189 -3.22285 0
M  V30 1638 H 152.391 -5.24425 -3.93267 0
M  V30 1639 H 151.911 -3.71695 -4.70747 0
M  V30 1640 H 153.59 -4.29706 -4.83696 0
M  V30 1641 N 153.722 1.14298 -1.08507 0
M  V30 1642 C 154.67 2.21483 -0.710483 0
M  V30 1643 C 155.664 1.66998 0.284234 0
M  V30 1644 O 156.87 1.79401 0.146692 0
M  V30 1645 H 153.245 0.721578 -0.211729 0
M  V30 1646 H 155.216 2.50348 -1.62384 0
M  V30 1647 C 153.965 3.4743 -0.137007 0
M  V30 1648 H 153.288 3.89686 -0.893592 0
M  V30 1649 H 154.728 4.2391 0.0872789 0
M  V30 1650 C 153.187 3.17548 1.12538 0
M  V30 1651 O 153.717 3.35437 2.21009 0
M  V30 1652 N 151.923 2.71499 1.03617 0
M  V30 1653 H 151.47 2.57143 0.153403 0
M  V30 1654 H 151.428 2.51881 1.88158 0
M  V30 1655 N 155.201 0.870884 1.31352 0
M  V30 1656 C 156.429 0.49677 2.00848 0
M  V30 1657 C 156.844 -0.910998 1.65367 0
M  V30 1658 O 156.201 -1.59696 0.883374 0
M  V30 1659 C 156.252 0.645308 3.55694 0
M  V30 1660 O 155.973 1.99764 3.89905 0
M  V30 1661 C 157.474 0.272326 4.42463 0
M  V30 1662 H 154.694 0.193462 0.642506 0
M  V30 1663 H 157.238 1.1723 1.67563 0
M  V30 1664 H 155.393 0.0173176 3.87396 0
M  V30 1665 H 155.807 2.00607 4.84621 0
M  V30 1666 H 157.281 0.427208 5.50344 0
M  V30 1667 H 157.758 -0.788587 4.32062 0
M  V30 1668 H 158.364 0.876054 4.1618 0
M  V30 1669 N 156.679 -1.44442 0.630414 0
M  V30 1670 C 157.609 -2.33418 -0.0618083 0
M  V30 1671 C 158.59 -1.48165 -0.835541 0
M  V30 1672 O 159.775 -1.76886 -0.801564 0
M  V30 1673 C 156.905 -3.31222 -1.04449 0
M  V30 1674 C 155.859 -4.26288 -0.382436 0
M  V30 1675 C 155.185 -5.13954 -1.47497 0
M  V30 1676 C 156.485 -5.1744 0.710865 0
M  V30 1677 H 158.179 -2.91548 0.681184 0
M  V30 1678 H 155.725 -1.40191 0.329026 0
M  V30 1679 H 157.678 -3.92351 -1.53748 0
M  V30 1680 H 156.402 -2.71299 -1.81836 0
M  V30 1681 H 155.061 -3.6649 0.0899054 0
M  V30 1682 H 154.709 -4.50385 -2.2397 0
M  V30 1683 H 154.409 -5.7837 -1.03737 0
M  V30 1684 H 155.933 -5.77955 -1.96979 0
M  V30 1685 H 157.347 -5.72509 0.300996 0
M  V30 1686 H 155.744 -5.90455 1.07156 0
M  V30 1687 H 156.814 -4.58496 1.57829 0
M  V30 1688 N 158.157 -0.370918 -1.53173 0
M  V30 1689 C 159.12 0.460778 -2.24521 0
M  V30 1690 C 160.12 1.00536 -1.25496 0
M  V30 1691 O 161.31 0.890266 -1.49733 0
M  V30 1692 C 158.442 1.64457 -2.98608 0
M  V30 1693 H 159.635 -0.163613 -2.99453 0
M  V30 1694 H 157.188 -0.122699 -1.55818 0
M  V30 1695 H 157.923 2.30691 -2.2793 0
M  V30 1696 H 157.708 1.26099 -3.7127 0
M  V30 1697 H 159.198 2.23384 -3.5283 0
M  V30 1698 N 159.635 1.57281 -0.100228 0
M  V30 1699 C 160.567 2.11342 0.886972 0
M  V30 1700 C 161.58 1.05182 1.24261 0
M  V30 1701 O 162.769 1.32613 1.19483 0
M  V30 1702 C 159.869 2.5825 2.19454 0
M  V30 1703 C 159.042 3.88302 2.01346 0
M  V30 1704 C 158.101 4.21004 3.15661 0
M  V30 1705 O 157.127 4.9014 2.89398 0
M  V30 1706 N 158.329 3.76818 4.41575 0
M  V30 1707 H 161.094 2.96668 0.425216 0
M  V30 1708 H 158.655 1.61678 0.0847334 0
M  V30 1709 H 160.647 2.7717 2.94888 0
M  V30 1710 H 159.217 1.77907 2.57037 0
M  V30 1711 H 158.437 3.7848 1.10212 0
M  V30 1712 H 159.725 4.73375 1.8653 0
M  V30 1713 H 159.123 3.2102 4.65792 0
M  V30 1714 H 157.68 4.00882 5.13942 0
M  V30 1715 N 161.113 -0.173488 1.56642 0
M  V30 1716 C 162.076 -1.19859 1.95362 0
M  V30 1717 C 163.076 -1.37296 0.83704 0
M  V30 1718 O 164.266 -1.34739 1.10413 0
M  V30 1719 C 161.398 -2.56405 2.24654 0
M  V30 1720 H 162.591 -0.867062 2.87092 0
M  V30 1721 H 160.144 -0.415853 1.50666 0
M  V30 1722 H 160.879 -2.94576 1.35631 0
M  V30 1723 H 160.664 -2.45115 3.06041 0
M  V30 1724 H 162.154 -3.30287 2.5554 0
M  V30 1725 N 162.591 -1.51276 -0.441967 0
M  V30 1726 C 163.501 -1.75092 -1.56141 0
M  V30 1727 C 164.517 -0.634963 -1.62001 0
M  V30 1728 O 165.693 -0.916686 -1.79329 0
M  V30 1729 C 162.758 -1.86666 -2.92158 0
M  V30 1730 C 161.819 -3.10506 -2.96453 0
M  V30 1731 C 161.052 -3.21519 -4.25982 0
M  V30 1732 O 161.275 -2.38586 -5.18105 0
M  V30 1733 O 160.209 -4.14465 -4.36466 0
M  V30 1734 H 164.035 -2.70044 -1.38961 0
M  V30 1735 H 161.62 -1.35722 -0.624499 0
M  V30 1736 H 163.502 -1.96292 -3.72891 0
M  V30 1737 H 162.177 -0.949014 -3.09476 0
M  V30 1738 H 161.084 -3.06363 -2.14692 0
M  V30 1739 H 162.417 -4.01945 -2.84079 0
M  V30 1740 N 164.069 0.697108 -1.41344 0
M  V30 1741 C 165.315 1.4593 -1.40827 0
M  V30 1742 C 165.648 1.94193 -0.0167098 0
M  V30 1743 O 164.923 1.69425 0.955263 0
M  V30 1744 C 165.206 2.67229 -2.41373 0
M  V30 1745 C 165.059 2.24741 -3.8963 0
M  V30 1746 C 166.378 3.69423 -2.39196 0
M  V30 1747 H 163.497 0.529303 -0.512842 0
M  V30 1748 H 166.139 0.794112 -1.72609 0
M  V30 1749 H 164.289 3.23982 -2.14401 0
M  V30 1750 H 165.961 1.73327 -4.27499 0
M  V30 1751 H 164.204 1.56542 -4.0457 0
M  V30 1752 H 164.875 3.1177 -4.55525 0
M  V30 1753 H 167.351 3.2234 -2.63128 0
M  V30 1754 H 166.227 4.51907 -3.11563 0
M  V30 1755 H 166.488 4.19012 -1.41001 0
M  V30 1756 N 165.547 1.27147 0.931209 0
M  V30 1757 C 166.963 1.04475 1.20653 0
M  V30 1758 C 167.163 -0.223885 2.00252 0
M  V30 1759 O 166.219 -0.930332 2.34736 0
M  V30 1760 C 167.532 2.28209 1.95809 0
M  V30 1761 C 169.08 2.33211 2.08762 0
M  V30 1762 C 169.555 3.56665 2.87323 0
M  V30 1763 N 171.046 3.57201 2.94892 0
M  V30 1764 C 171.781 4.49395 3.56134 0
M  V30 1765 N 171.277 5.51889 4.18796 0
M  V30 1766 N 173.07 4.37026 3.53504 0
M  V30 1767 H 165.221 2.08612 0.399333 0
M  V30 1768 H 167.484 0.917312 0.239253 0
M  V30 1769 H 167.19 3.20538 1.44736 0
M  V30 1770 H 167.064 2.33247 2.96438 0
M  V30 1771 H 169.451 1.41391 2.59023 0
M  V30 1772 H 169.532 2.32178 1.07364 0
M  V30 1773 H 169.176 4.4882 2.37746 0
M  V30 1774 H 169.106 3.54948 3.88998 0
M  V30 1775 H 171.597 2.83074 2.50354 0
M  V30 1776 H 171.91 6.18409 4.63454 0
M  V30 1777 H 170.255 5.55735 4.17353 0
M  V30 1778 H 173.446 3.56166 3.03749 0
M  V30 1779 H 173.619 5.09067 4.00942 0
M  V30 1780 N 167.025 -1.13721 1.09112 0
M  V30 1781 C 168.25 -1.89314 0.847053 0
M  V30 1782 C 168.675 -1.78416 -0.595774 0
M  V30 1783 O 168.033 -1.12942 -1.41823 0
M  V30 1784 C 168.081 -3.3701 1.28284 0
M  V30 1785 O 167.185 -4.10054 0.439267 0
M  V30 1786 H 166.526 -0.588745 0.307044 0
M  V30 1787 H 169.056 -1.43902 1.45442 0
M  V30 1788 H 169.066 -3.87834 1.26683 0
M  V30 1789 H 167.741 -3.4426 2.33363 0
M  V30 1790 H 166.318 -3.69266 0.519312 0
M  V30 1791 N 168.503 -0.877838 -1.30888 0
M  V30 1792 C 169.919 -0.570844 -1.49042 0
M  V30 1793 C 170.119 0.893159 -1.80624 0
M  V30 1794 O 169.175 1.67485 -1.88958 0
M  V30 1795 C 170.488 -1.47784 -2.61878 0
M  V30 1796 C 172.036 -1.48071 -2.75761 0
M  V30 1797 C 172.511 -2.37347 -3.91702 0
M  V30 1798 N 174.002 -2.35271 -3.99001 0
M  V30 1799 C 174.737 -3.01063 -4.88004 0
M  V30 1800 N 174.233 -3.76055 -5.81854 0
M  V30 1801 N 176.026 -2.90332 -4.81315 0
M  V30 1802 H 168.177 -1.82502 -1.0866 0
M  V30 1803 H 170.44 -0.780797 -0.537644 0
M  V30 1804 H 170.146 -2.51993 -2.45341 0
M  V30 1805 H 170.02 -1.18215 -3.58197 0
M  V30 1806 H 172.407 -0.446166 -2.91708 0
M  V30 1807 H 172.488 -1.81668 -1.80085 0
M  V30 1808 H 172.132 -3.40883 -3.76512 0
M  V30 1809 H 172.062 -2.01071 -4.86701 0
M  V30 1810 H 174.553 -1.80768 -3.3186 0
M  V30 1811 H 174.866 -4.23366 -6.46514 0
M  V30 1812 H 173.211 -3.80163 -5.81808 0
M  V30 1813 H 176.402 -2.31278 -4.06974 0
M  V30 1814 H 176.575 -3.41885 -5.50471 0
M  V30 1815 N 169.982 1.44106 -0.638065 0
M  V30 1816 C 170.914 2.28976 0.101205 0
M  V30 1817 C 171.927 1.4167 0.802088 0
M  V30 1818 O 173.116 1.65755 0.662375 0
M  V30 1819 C 170.216 3.18217 1.16581 0
M  V30 1820 C 169.389 4.33978 0.546066 0
M  V30 1821 C 168.448 5.04202 1.50554 0
M  V30 1822 O 167.474 5.59986 1.01999 0
M  V30 1823 N 168.676 5.06296 2.8398 0
M  V30 1824 H 171.441 2.93064 -0.627186 0
M  V30 1825 H 169.002 1.54629 -0.479731 0
M  V30 1826 H 170.994 3.62061 1.80815 0
M  V30 1827 H 169.564 2.55833 1.79634 0
M  V30 1828 H 168.784 3.93239 -0.275046 0
M  V30 1829 H 170.072 5.08675 0.112793 0
M  V30 1830 H 169.47 4.62319 3.26002 0
M  V30 1831 H 168.027 5.53907 3.43556 0
M  V30 1832 N 171.46 0.379036 1.52974 0
M  V30 1833 C 172.709 -0.207612 2.00629 0
M  V30 1834 C 173.022 -1.48758 1.27006 0
M  V30 1835 O 174.228 -2.15365 1.65318 0
M  V30 1836 C 172.684 -0.42053 3.57435 0
M  V30 1837 C 172.292 0.845587 4.39948 0
M  V30 1838 C 174.036 -0.964102 4.13407 0
M  V30 1839 C 171.943 0.601513 5.88333 0
M  V30 1840 H 170.873 -0.0813591 0.749598 0
M  V30 1841 H 173.524 0.499853 1.76561 0
M  V30 1842 H 171.906 -1.18959 3.7771 0
M  V30 1843 H 173.08 1.61848 4.31442 0
M  V30 1844 H 171.395 1.31336 3.95145 0
M  V30 1845 H 173.992 -1.16225 5.21916 0
M  V30 1846 H 174.335 -1.93019 3.68849 0
M  V30 1847 H 174.868 -0.25487 3.96983 0
M  V30 1848 H 171.607 1.53831 6.37194 0
M  V30 1849 H 171.127 -0.132628 5.99653 0
M  V30 1850 H 172.806 0.232134 6.46583 0
M  V30 1851 N 172.938 -1.57226 0.108567 0
M  V30 1852 C 174.163 -1.99604 -0.563303 0
M  V30 1853 C 174.588 -0.987563 -1.6009 0
M  V30 1854 O 173.946 0.0421687 -1.81251 0
M  V30 1855 C 173.994 -3.40902 -1.17552 0
M  V30 1856 O 173.098 -3.42896 -2.2912 0
M  V30 1857 H 172.439 -0.648704 -0.1417 0
M  V30 1858 H 174.969 -2.03679 0.193961 0
M  V30 1859 H 174.979 -3.78886 -1.51357 0
M  V30 1860 H 173.654 -4.1382 -0.415445 0
M  V30 1861 H 172.231 -3.1672 -1.96832 0
M  V30 1862 N 174.416 0.165178 -1.56732 0
M  V30 1863 C 175.662 0.882112 -1.82611 0
M  V30 1864 C 175.995 1.81628 -0.687378 0
M  V30 1865 O 175.27 1.92009 0.310267 0
M  V30 1866 C 175.553 1.67245 -3.18906 0
M  V30 1867 C 175.406 0.760987 -4.43316 0
M  V30 1868 C 176.725 2.63884 -3.52212 0
M  V30 1869 H 173.844 0.319242 -0.664269 0
M  V30 1870 H 176.486 0.148052 -1.89422 0
M  V30 1871 H 174.636 2.29824 -3.1323 0
M  V30 1872 H 176.308 0.147596 -4.61064 0
M  V30 1873 H 174.551 0.0694102 -4.33744 0
M  V30 1874 H 175.222 1.34962 -5.35247 0
M  V30 1875 H 177.698 2.11429 -3.58381 0
M  V30 1876 H 176.574 3.16245 -4.48643 0
M  V30 1877 H 176.835 3.44377 -2.77231 0
M  V30 1878 N 175.894 1.51508 0.433938 0
M  V30 1879 C 177.119 1.68443 1.21003 0
M  V30 1880 C 177.544 0.382636 1.84167 0
M  V30 1881 O 176.902 -0.65755 1.68956 0
M  V30 1882 C 176.95 2.80405 2.26727 0
M  V30 1883 O 176.054 2.44245 3.32292 0
M  V30 1884 H 175.395 0.561536 0.354363 0
M  V30 1885 H 177.925 1.9809 0.512024 0
M  V30 1886 H 177.935 3.0459 2.71457 0
M  V30 1887 H 176.61 3.74867 1.80132 0
M  V30 1888 H 175.187 2.30644 2.93015 0
M  V30 1889 N 177.372 -0.689602 1.41712 0
M  V30 1890 C 178.597 -1.48329 1.44959 0
M  V30 1891 C 179.022 -1.8801 0.0581283 0
M  V30 1892 O 178.38 -1.55026 -0.940035 0
M  V30 1893 C 178.428 -2.71835 2.36935 0
M  V30 1894 O 177.532 -3.69549 1.8305 0
M  V30 1895 H 176.873 -0.446199 0.491734 0
M  V30 1896 H 179.403 -0.847127 1.86239 0
M  V30 1897 H 179.413 -3.20076 2.53013 0
M  V30 1898 H 178.088 -2.42291 3.38035 0
M  V30 1899 H 176.665 -3.2851 1.76452 0
M  V30 1900 N 178.85 -1.27639 -0.924453 0
M  V30 1901 C 180.261 -1.12834 -1.48746 0
M  V30 1902 C 180.612 0.285505 -1.94112 0
M  V30 1903 O 179.737 1.17874 -1.81479 0
M  V30 1904 C 180.332 -2.04217 -2.70334 0
M  V30 1905 C 178.891 -1.93509 -3.22848 0
M  V30 1906 C 178.038 -1.96583 -1.95577 0
M  V30 1907 H 180.989 -1.40484 -0.738233 0
M  V30 1908 H 181.01 -1.59989 -3.4523 0
M  V30 1909 H 180.522 -3.07111 -2.37285 0
M  V30 1910 H 178.623 -0.936131 -3.60649 0
M  V30 1911 H 178.736 -2.79917 -3.88823 0
M  V30 1912 H 177.1 -1.4085 -2.12211 0
M  V30 1913 H 177.883 -3.01137 -1.64837 0
M  V30 1914 N 180.328 1.1314 -1.09713 0
M  V30 1915 C 181.576 1.84119 -0.833338 0
M  V30 1916 C 181.897 1.84097 0.642904 0
M  V30 1917 O 181.167 1.29881 1.46655 0
M  V30 1918 H 179.747 0.681766 -0.305293 0
M  V30 1919 H 182.409 1.37038 -1.38588 0
M  V30 1920 H 181.505 2.88543 -1.18951 0
M  V30 1921 N 181.806 0.884767 1.30421 0
M  V30 1922 C 183.031 0.517288 2.00845 0
M  V30 1923 C 183.456 -0.886779 1.65885 0
M  V30 1924 O 182.814 -1.58768 0.875354 0
M  V30 1925 C 182.862 0.698994 3.5376 0
M  V30 1926 O 181.966 -0.255208 4.1161 0
M  V30 1927 H 181.307 0.203872 0.631927 0
M  V30 1928 H 183.837 1.19225 1.66272 0
M  V30 1929 H 183.847 0.597912 4.03595 0
M  V30 1930 H 182.522 1.72271 3.78544 0
M  V30 1931 H 181.099 -0.10784 3.72744 0
M  V30 1932 N 183.284 -1.43765 0.645699 0
M  V30 1933 C 184.509 -2.06767 0.161883 0
M  V30 1934 C 184.934 -1.48034 -1.16049 0
M  V30 1935 O 184.292 -0.587369 -1.71522 0
M  V30 1936 C 184.34 -3.60519 0.0762003 0
M  V30 1937 O 183.444 -4.00982 -0.963721 0
M  V30 1938 H 182.785 -0.657675 0.091429 0
M  V30 1939 H 185.315 -1.84397 0.886499 0
M  V30 1940 H 185.325 -4.07853 -0.109604 0
M  V30 1941 H 184 -4.02646 1.04157 0
M  V30 1942 H 182.577 -3.65253 -0.751312 0
M  V30 1943 N 184.763 -0.387143 -1.52771 0
M  V30 1944 C 185.991 0.195869 -2.05971 0
M  V30 1945 C 186.406 1.40691 -1.25903 0
M  V30 1946 O 185.763 1.79931 -0.305134 0
M  V30 1947 C 185.814 0.56812 -3.57008 0
M  V30 1948 O 185.535 -0.594803 -4.34043 0
M  V30 1949 C 187.036 1.20723 -4.26545 0
M  V30 1950 H 184.256 0.0300578 -0.670326 0
M  V30 1951 H 186.8 -0.551749 -1.96916 0
M  V30 1952 H 184.955 1.26564 -3.66143 0
M  V30 1953 H 185.369 -0.289322 -5.23701 0
M  V30 1954 H 186.843 1.41807 -5.33474 0
M  V30 1955 H 187.32 2.17395 -3.81623 0
M  V30 1956 H 187.926 0.550535 -4.21722 0
M  V30 1957 N 186.241 1.57166 -0.116904 0
M  V30 1958 C 187.518 1.86645 0.585049 0
M  V30 1959 C 187.898 1.0177 1.84949 0
M  V30 1960 O 187.246 0.0960379 2.28298 0
M  V30 1961 C 187.456 3.37736 0.879507 0
M  V30 1962 C 188.804 4.06289 1.23348 0
M  V30 1963 O 189.828 3.42743 0.969836 0
M  V30 1964 O 188.687 5.18455 1.7282 0
M  V30 1965 H 185.781 0.772593 0.295007 0
M  V30 1966 H 188.327 1.69025 -0.151249 0
M  V30 1967 H 187.099 3.91296 -0.0166136 0
M  V30 1968 H 186.722 3.6078 1.67103 0
M  V30 1969 N 187.719 -0.156864 1.56817 0
M  V30 1970 C 188.968 -0.869504 1.81996 0
M  V30 1971 C 189.281 -1.82777 0.696545 0
M  V30 1972 O 190.487 -2.58384 0.833658 0
M  V30 1973 C 188.943 -1.59679 3.22538 0
M  V30 1974 C 188.551 -0.681431 4.42787 0
M  V30 1975 C 190.295 -2.2968 3.56997 0
M  V30 1976 C 188.202 -1.40978 5.74351 0
M  V30 1977 H 187.132 -0.328438 0.678708 0
M  V30 1978 H 189.783 -0.1223 1.83092 0
M  V30 1979 H 188.165 -2.38927 3.158 0
M  V30 1980 H 189.339 0.0751166 4.60739 0
M  V30 1981 H 187.654 -0.0903431 4.16302 0
M  V30 1982 H 190.251 -2.84794 4.52544 0
M  V30 1983 H 190.594 -3.05707 2.82576 0
M  V30 1984 H 191.127 -1.57361 3.65352 0
M  V30 1985 H 187.866 -0.691561 6.51842 0
M  V30 1986 H 187.386 -2.13929 5.60352 0
M  V30 1987 H 189.065 -1.95337 6.16808 0
M  V30 1988 N 189.197 -1.51736 -0.425897 0
M  V30 1989 C 190.145 -1.74464 -1.53834 0
M  V30 1990 C 191.139 -0.611241 -1.57988 0
M  V30 1991 O 192.345 -0.792899 -1.61596 0
M  V30 1992 H 188.72 -0.551437 -0.511293 0
M  V30 1993 H 190.691 -2.67694 -1.31843 0
M  V30 1994 C 189.44 -1.8972 -2.91379 0
M  V30 1995 H 188.763 -2.76344 -2.88919 0
M  V30 1996 H 190.203 -2.09629 -3.68553 0
M  V30 1997 C 188.662 -0.65992 -3.30374 0
M  V30 1998 O 189.192 0.180083 -4.01296 0
M  V30 1999 N 187.398 -0.500677 -2.86254 0
M  V30 2000 H 186.945 -1.18532 -2.28709 0
M  V30 2001 H 186.903 0.325903 -3.12706 0
M  V30 2002 N 190.675 0.682077 -1.42076 0
M  V30 2003 C 191.921 1.44428 -1.42367 0
M  V30 2004 C 192.254 1.94164 -0.0373056 0
M  V30 2005 O 191.529 1.70429 0.937239 0
M  V30 2006 C 191.812 2.64654 -2.44194 0
M  V30 2007 C 191.665 2.20596 -3.91991 0
M  V30 2008 C 192.984 3.66865 -2.431 0
M  V30 2009 H 190.103 0.523834 -0.518428 0
M  V30 2010 H 192.745 0.77576 -1.73442 0
M  V30 2011 H 190.895 3.2169 -2.17826 0
M  V30 2012 H 192.567 1.68783 -4.29313 0
M  V30 2013 H 190.81 1.52242 -4.06208 0
M  V30 2014 H 191.481 3.06921 -4.58807 0
M  V30 2015 H 193.957 3.19531 -2.66532 0
M  V30 2016 H 192.833 4.48577 -3.16339 0
M  V30 2017 H 193.094 4.17493 -1.45437 0
M  V30 2018 N 192.153 1.28127 0.917671 0
M  V30 2019 C 193.1 1.11717 2.0196 0
M  V30 2020 C 194.07 0.0153929 1.66093 0
M  V30 2021 O 195.255 0.179596 1.89953 0
M  V30 2022 C 192.395 0.780927 3.36148 0
M  V30 2023 C 191.508 1.96135 3.84909 0
M  V30 2024 C 190.643 1.56609 5.0759 0
M  V30 2025 C 189.682 2.71339 5.48673 0
M  V30 2026 N 188.819 2.32332 6.62545 0
M  V30 2027 H 193.659 2.06003 2.15329 0
M  V30 2028 H 191.196 1.02535 1.05475 0
M  V30 2029 H 193.154 0.56675 4.13333 0
M  V30 2030 H 191.784 -0.124998 3.22558 0
M  V30 2031 H 190.836 2.28777 3.03916 0
M  V30 2032 H 192.148 2.82165 4.1132 0
M  V30 2033 H 191.302 1.31374 5.92305 0
M  V30 2034 H 190.041 0.677014 4.82978 0
M  V30 2035 H 189.046 2.97276 4.62501 0
M  V30 2036 H 190.271 3.60882 5.75274 0
M  V30 2037 H 188.217 1.45889 6.39572 0
M  V30 2038 H 188.134 3.11899 6.88662 0
M  V30 2039 H 189.402 2.10371 7.50576 0
M  V30 2040 N 193.631 -1.12557 1.10312 0
M  V30 2041 C 194.578 -2.18247 0.750781 0
M  V30 2042 C 195.548 -1.63853 -0.272293 0
M  V30 2043 O 196.733 -1.90195 -0.151862 0
M  V30 2044 C 193.873 -3.44591 0.187379 0
M  V30 2045 C 192.986 -4.13046 1.2656 0
M  V30 2046 C 192.121 -5.27034 0.663978 0
M  V30 2047 C 191.16 -5.87353 1.72287 0
M  V30 2048 N 190.297 -6.92757 1.1416 0
M  V30 2049 H 195.137 -2.47732 1.65628 0
M  V30 2050 H 192.674 -1.21629 0.827337 0
M  V30 2051 H 194.632 -4.16904 -0.157148 0
M  V30 2052 H 193.262 -3.15527 -0.681355 0
M  V30 2053 H 192.314 -3.38924 1.72727 0
M  V30 2054 H 193.626 -4.53947 2.06721 0
M  V30 2055 H 192.78 -6.06104 0.268824 0
M  V30 2056 H 191.519 -4.87407 -0.169082 0
M  V30 2057 H 190.524 -5.06971 2.12746 0
M  V30 2058 H 191.749 -6.29051 2.55875 0
M  V30 2059 H 189.695 -6.5517 0.329984 0
M  V30 2060 H 189.612 -7.3225 1.88007 0
M  V30 2061 H 190.88 -7.75658 0.772956 0
M  V30 2062 N 195.109 -0.891671 -1.2995 0
M  V30 2063 C 196.358 -0.509521 -1.95158 0
M  V30 2064 C 196.671 0.947388 -1.71125 0
M  V30 2065 O 197.877 1.43669 -2.30372 0
M  V30 2066 C 196.333 -0.860315 -3.49466 0
M  V30 2067 C 195.941 -2.33545 -3.8231 0
M  V30 2068 C 197.685 -0.547687 -4.20952 0
M  V30 2069 C 195.592 -2.62752 -5.29826 0
M  V30 2070 H 194.522 -0.18682 -0.730489 0
M  V30 2071 H 197.173 -1.08756 -1.47798 0
M  V30 2072 H 195.555 -0.211285 -3.95436 0
M  V30 2073 H 196.729 -3.02936 -3.47227 0
M  V30 2074 H 195.044 -2.61629 -3.23944 0
M  V30 2075 H 197.641 -0.742854 -5.29515 0
M  V30 2076 H 197.984 0.51332 -4.13123 0
M  V30 2077 H 198.517 -1.1542 -3.80688 0
M  V30 2078 H 195.256 -3.6762 -5.42712 0
M  V30 2079 H 194.776 -1.97977 -5.66185 0
M  V30 2080 H 196.455 -2.48601 -5.97333 0
M  V30 2081 N 196.587 1.43421 -0.653314 0
M  V30 2082 C 197.55 2.29182 0.0287951 0
M  V30 2083 C 198.55 1.42213 0.750465 0
M  V30 2084 O 199.74 1.63843 0.591701 0
M  V30 2085 C 196.872 3.24278 1.05151 0
M  V30 2086 H 198.065 2.90985 -0.725786 0
M  V30 2087 H 195.618 1.50702 -0.414545 0
M  V30 2088 H 196.353 2.6737 1.83532 0
M  V30 2089 H 196.138 3.88396 0.537687 0
M  V30 2090 H 197.628 3.88647 1.52786 0
M  V30 2091 N 198.065 0.39524 1.52563 0
M  V30 2092 C 199.29 -0.187456 2.06551 0
M  V30 2093 C 199.715 -1.39249 1.26457 0
M  V30 2094 O 199.073 -1.78947 0.291151 0
M  V30 2095 C 199.121 -0.529985 3.56684 0
M  V30 2096 O 198.225 -1.62307 3.79118 0
M  V30 2097 H 197.566 -0.0202537 0.663691 0
M  V30 2098 H 200.096 0.564426 1.96661 0
M  V30 2099 H 200.106 -0.792598 4.00227 0
M  V30 2100 H 198.781 0.350987 4.14416 0
M  V30 2101 H 197.358 -1.3537 3.47461 0
M  V30 2102 N 199.544 -1.57102 0.125237 0
M  V30 2103 C 200.793 -1.94582 -0.531095 0
M  V30 2104 C 201.106 -1.01126 -1.6743 0
M  V30 2105 O 202.312 -1.28097 -2.39381 0
M  V30 2106 C 200.768 -3.45839 -0.996164 0
M  V30 2107 C 200.376 -4.47842 0.118926 0
M  V30 2108 C 202.12 -3.92227 -1.62352 0
M  V30 2109 C 200.027 -5.90284 -0.363192 0
M  V30 2110 H 198.957 -0.726391 -0.20217 0
M  V30 2111 H 201.608 -1.82339 0.206092 0
M  V30 2112 H 199.99 -3.53338 -1.78796 0
M  V30 2113 H 201.164 -4.52018 0.895358 0
M  V30 2114 H 199.479 -4.11243 0.653324 0
M  V30 2115 H 202.076 -4.96069 -1.99548 0
M  V30 2116 H 202.419 -3.32552 -2.50429 0
M  V30 2117 H 202.952 -3.87554 -0.897019 0
M  V30 2118 H 199.691 -6.53728 0.481679 0
M  V30 2119 H 199.211 -5.89515 -1.10597 0
M  V30 2120 H 200.89 -6.41752 -0.822377 0
M  V30 2121 N 201.022 0.148545 -1.56898 0
M  V30 2122 C 202.27 0.859717 -1.82902 0
M  V30 2123 C 202.591 1.81775 -0.70588 0
M  V30 2124 O 201.861 1.93994 0.272586 0
M  V30 2125 H 200.441 0.320469 -0.674766 0
M  V30 2126 H 203.103 0.142918 -1.94375 0
M  V30 2127 H 202.199 1.4229 -2.77777 0
M  V30 2128 N 202.5 1.5196 0.417844 0
M  V30 2129 C 203.777 1.56146 1.17803 0
M  V30 2130 C 204.157 0.337275 2.08388 0
M  V30 2131 O 203.505 -0.676447 2.18258 0
M  V30 2132 C 203.715 2.88566 1.96293 0
M  V30 2133 C 205.063 3.41244 2.52662 0
M  V30 2134 O 206.087 2.90247 2.06483 0
M  V30 2135 O 204.946 4.30273 3.36938 0
M  V30 2136 H 202.04 0.628598 0.537395 0
M  V30 2137 H 204.586 1.64283 0.425331 0
M  V30 2138 H 203.358 3.69116 1.2988 0
M  V30 2139 H 202.981 2.83681 2.78587 0
M  V30 2140 N 203.978 -0.674533 1.42435 0
M  V30 2141 C 205.224 -1.43671 1.43131 0
M  V30 2142 C 205.557 -1.94142 0.0476021 0
M  V30 2143 O 204.832 -1.70924 -0.928188 0
M  V30 2144 C 205.115 -2.63355 2.45594 0
M  V30 2145 C 204.968 -2.18514 3.93156 0
M  V30 2146 C 206.287 -3.65571 2.45043 0
M  V30 2147 H 203.406 -0.521077 0.521198 0
M  V30 2148 H 206.048 -0.766551 1.7385 0
M  V30 2149 H 204.198 -3.2053 2.19528 0
M  V30 2150 H 205.87 -1.66504 4.30202 0
M  V30 2151 H 204.113 -1.50086 4.07009 0
M  V30 2152 H 204.784 -3.04484 4.60428 0
M  V30 2153 H 207.26 -3.18113 2.68223 0
M  V30 2154 H 206.136 -4.46893 3.18713 0
M  V30 2155 H 206.397 -4.16716 1.47649 0
M  V30 2156 N 205.456 -1.28612 -0.910864 0
M  V30 2157 C 206.696 -1.1719 -1.67469 0
M  V30 2158 C 207.06 0.274441 -1.90028 0
M  V30 2159 O 208.261 0.511425 -2.6389 0
M  V30 2160 C 206.532 -1.95137 -2.99427 0
M  V30 2161 S 208.091 -2.00122 -3.90508 0
M  V30 2162 H 204.909 -0.41806 -0.575106 0
M  V30 2163 H 207.511 -1.6275 -1.08317 0
M  V30 2164 H 206.215 -2.99381 -2.80712 0
M  V30 2165 H 205.746 -1.50137 -3.63624 0
M  V30 2166 H 207.761 -1.10981 -4.8363 0
M  V30 2167 N 206.934 1.1197 -1.10907 0
M  V30 2168 C 207.844 2.21433 -0.774896 0
M  V30 2169 C 208.86 1.72478 0.229657 0
M  V30 2170 O 210.036 2.01288 0.0672008 0
M  V30 2171 C 207.101 3.4602 -0.216986 0
M  V30 2172 C 206.162 4.09791 -1.27944 0
M  V30 2173 C 205.395 5.28431 -0.748055 0
M  V30 2174 O 205.618 5.68823 0.423833 0
M  V30 2175 O 204.552 5.82644 -1.51027 0
M  V30 2176 H 208.378 2.5242 -1.68873 0
M  V30 2177 H 205.963 1.20399 -0.884555 0
M  V30 2178 H 207.845 4.21304 0.090059 0
M  V30 2179 H 206.52 3.16698 0.669633 0
M  V30 2180 H 205.427 3.36265 -1.63941 0
M  V30 2181 H 206.76 4.4328 -2.13925 0
M  V30 2182 N 208.412 0.89855 1.29475 0
M  V30 2183 C 209.637 0.538561 2.00285 0
M  V30 2184 C 210.062 -0.869135 1.66816 0
M  V30 2185 O 209.42 -1.57831 0.892145 0
M  V30 2186 C 209.468 0.736475 3.52999 0
M  V30 2187 O 208.572 -0.211537 4.11857 0
M  V30 2188 H 207.913 0.210563 0.62973 0
M  V30 2189 H 210.443 1.20982 1.64998 0
M  V30 2190 H 210.453 0.640685 4.02938 0
M  V30 2191 H 209.128 1.76276 3.76696 0
M  V30 2192 H 207.705 -0.0682991 3.72837 0
M  V30 2193 N 209.89 -1.43072 0.660911 0
M  V30 2194 C 210.823 -2.28074 -0.0758862 0
M  V30 2195 C 211.801 -1.40271 -0.822362 0
M  V30 2196 O 212.985 -1.69713 -0.820352 0
M  V30 2197 C 210.112 -3.19843 -1.11437 0
M  V30 2198 C 209.158 -4.23957 -0.465069 0
M  V30 2199 S 209.991 -5.29978 0.767078 0
M  V30 2200 C 211.147 -6.25314 -0.270682 0
M  V30 2201 H 211.38 -2.90216 0.645139 0
M  V30 2202 H 208.913 -1.47697 0.449995 0
M  V30 2203 H 210.871 -3.73257 -1.70849 0
M  V30 2204 H 209.532 -2.56863 -1.80776 0
M  V30 2205 H 208.725 -4.88299 -1.24819 0
M  V30 2206 H 208.327 -3.73959 0.0551242 0
M  V30 2207 H 210.619 -6.67932 -1.13459 0
M  V30 2208 H 211.562 -7.07293 0.337916 0
M  V30 2209 H 211.97 -5.61195 -0.609937 0
M  V30 2210 N 211.368 -0.403325 -1.52352 0
M  V30 2211 C 212.315 0.425011 -2.26853 0
M  V30 2212 C 213.285 1.04598 -1.29029 0
M  V30 2213 O 214.47 1.07135 -1.57882 0
M  V30 2214 C 211.61 1.53888 -3.08889 0
M  V30 2215 C 210.723 0.939396 -4.21663 0
M  V30 2216 C 209.858 2.02547 -4.91068 0
M  V30 2217 C 208.897 1.40263 -5.95813 0
M  V30 2218 N 208.034 2.4286 -6.58759 0
M  V30 2219 H 212.874 -0.21674 -2.97211 0
M  V30 2220 H 210.411 -0.118722 -1.4662 0
M  V30 2221 H 212.369 2.19558 -3.54753 0
M  V30 2222 H 210.999 2.15074 -2.40714 0
M  V30 2223 H 210.051 0.171898 -3.80011 0
M  V30 2224 H 211.363 0.44436 -4.96817 0
M  V30 2225 H 210.517 2.75958 -5.40308 0
M  V30 2226 H 209.256 2.55415 -4.15469 0
M  V30 2227 H 208.261 0.653833 -5.45898 0
M  V30 2228 H 209.486 0.881719 -6.73352 0
M  V30 2229 H 207.432 2.94871 -5.85992 0
M  V30 2230 H 207.349 1.98152 -7.2957 0
M  V30 2231 H 208.617 3.15858 -7.12639 0
M  V30 2232 N 212.846 1.57033 -0.133567 0
M  V30 2233 C 213.778 2.13176 0.841944 0
M  V30 2234 C 214.791 1.07794 1.22001 0
M  V30 2235 O 215.98 1.35117 1.16643 0
M  V30 2236 C 213.08 2.62847 2.13926 0
M  V30 2237 C 212.253 3.92486 1.93064 0
M  V30 2238 C 211.312 4.27605 3.0666 0
M  V30 2239 O 210.338 4.96168 2.78937 0
M  V30 2240 N 211.54 3.861 4.33483 0
M  V30 2241 H 214.305 2.97503 0.362192 0
M  V30 2242 H 211.866 1.61821 0.05042 0
M  V30 2243 H 213.858 2.83363 2.88942 0
M  V30 2244 H 212.428 1.83319 2.53205 0
M  V30 2245 H 211.648 3.80732 1.02159 0
M  V30 2246 H 212.936 4.77225 1.76447 0
M  V30 2247 H 212.334 3.30828 4.58878 0
M  V30 2248 H 210.891 4.11694 5.05323 0
M  V30 2249 N 214.325 -0.140222 1.56975 0
M  V30 2250 C 215.257 -1.19818 1.95388 0
M  V30 2251 C 216.27 -1.38816 0.850525 0
M  V30 2252 O 217.459 -1.38267 1.12891 0
M  V30 2253 C 214.559 -2.56189 2.21857 0
M  V30 2254 C 213.732 -2.58077 3.5315 0
M  V30 2255 C 212.791 -3.76037 3.6808 0
M  V30 2256 O 211.817 -3.60598 4.40406 0
M  V30 2257 N 213.019 -4.93763 3.05251 0
M  V30 2258 H 215.784 -0.871609 2.86746 0
M  V30 2259 H 213.345 -0.32972 1.58507 0
M  V30 2260 H 215.337 -3.33623 2.2908 0
M  V30 2261 H 213.907 -2.81111 1.36731 0
M  V30 2262 H 213.127 -1.6651 3.57307 0
M  V30 2263 H 214.415 -2.56377 4.39486 0
M  V30 2264 H 213.813 -5.09209 2.46419 0
M  V30 2265 H 212.37 -5.68949 3.18026 0
M  V30 2266 N 215.803 -1.52179 -0.40978 0
M  V30 2267 C 216.733 -1.78435 -1.5061 0
M  V30 2268 C 217.714 -0.635295 -1.57791 0
M  V30 2269 O 218.899 -0.880823 -1.73076 0
M  V30 2270 C 216.029 -1.93444 -2.88439 0
M  V30 2271 C 214.983 -3.09038 -2.96108 0
M  V30 2272 C 214.309 -3.09268 -4.36185 0
M  V30 2273 C 215.609 -4.48508 -2.67652 0
M  V30 2274 H 217.303 -2.70237 -1.28889 0
M  V30 2275 H 214.849 -1.30036 -0.618605 0
M  V30 2276 H 216.802 -2.10394 -3.65119 0
M  V30 2277 H 215.526 -0.983129 -3.11452 0
M  V30 2278 H 214.185 -2.91837 -2.21872 0
M  V30 2279 H 213.833 -2.11861 -4.56206 0
M  V30 2280 H 213.533 -3.86907 -4.42241 0
M  V30 2281 H 215.057 -3.28348 -5.14801 0
M  V30 2282 H 216.471 -4.65918 -3.34056 0
M  V30 2283 H 214.868 -5.28059 -2.85085 0
M  V30 2284 H 215.938 -4.56649 -1.63095 0
M  V30 2285 N 217.281 0.66697 -1.42791 0
M  V30 2286 C 218.211 1.79218 -1.49677 0
M  V30 2287 C 219.192 1.66405 -0.352623 0
M  V30 2288 O 220.377 1.85708 -0.567993 0
M  V30 2289 C 217.507 3.17565 -1.40605 0
M  V30 2290 C 216.461 3.45124 -2.53127 0
M  V30 2291 C 215.787 4.83127 -2.29112 0
M  V30 2292 C 217.087 3.41236 -3.95418 0
M  V30 2293 H 218.781 1.73713 -2.43853 0
M  V30 2294 H 216.327 0.83432 -1.17367 0
M  V30 2295 H 218.28 3.96022 -1.44029 0
M  V30 2296 H 217.004 3.23767 -0.429271 0
M  V30 2297 H 215.663 2.69031 -2.49034 0
M  V30 2298 H 215.311 4.85988 -1.29709 0
M  V30 2299 H 215.011 5.02528 -3.04531 0
M  V30 2300 H 216.535 5.63859 -2.34297 0
M  V30 2301 H 217.949 4.09651 -4.01073 0
M  V30 2302 H 216.346 3.72173 -4.70752 0
M  V30 2303 H 217.416 2.39665 -4.21532 0
M  V30 2304 N 218.759 1.29093 0.90403 0
M  V30 2305 C 220.005 1.16986 1.65656 0
M  V30 2306 C 220.338 -0.278925 1.92186 0
M  V30 2307 O 219.613 -1.2019 1.5292 0
M  V30 2308 C 219.896 1.97908 3.0084 0
M  V30 2309 C 219.749 3.50903 2.81403 0
M  V30 2310 C 221.068 1.80208 4.01513 0
M  V30 2311 H 218.187 0.426346 0.601164 0
M  V30 2312 H 220.829 1.58518 1.04747 0
M  V30 2313 H 218.979 1.62616 3.52829 0
M  V30 2314 H 220.651 3.96153 2.36348 0
M  V30 2315 H 218.894 3.76045 2.1627 0
M  V30 2316 H 219.565 4.02791 3.77443 0
M  V30 2317 H 222.041 2.11025 3.58619 0
M  V30 2318 H 220.917 2.39184 4.94047 0
M  V30 2319 H 221.178 0.756119 4.35586 0
M  V30 2320 N 220.237 -1.11381 1.11499 0
M  V30 2321 C 221.167 -2.19509 0.796125 0
M  V30 2322 C 222.148 -1.68458 -0.235796 0
M  V30 2323 O 223.333 -1.93947 -0.0991344 0
M  V30 2324 C 220.463 -3.46475 0.239205 0
M  V30 2325 C 219.417 -4.10744 1.20307 0
M  V30 2326 C 218.743 -5.32293 0.50683 0
M  V30 2327 C 220.043 -4.55597 2.55399 0
M  V30 2328 H 221.737 -2.46439 1.70024 0
M  V30 2329 H 219.283 -1.18446 0.818935 0
M  V30 2330 H 221.236 -4.214 0.00392006 0
M  V30 2331 H 219.96 -3.19006 -0.700206 0
M  V30 2332 H 218.619 -3.37813 1.42399 0
M  V30 2333 H 218.267 -5.01095 -0.437408 0
M  V30 2334 H 217.967 -5.76243 1.1497 0
M  V30 2335 H 219.491 -6.09956 0.280351 0
M  V30 2336 H 220.905 -5.21841 2.37391 0
M  V30 2337 H 219.302 -5.10363 3.15673 0
M  V30 2338 H 220.372 -3.69013 3.14575 0
M  V30 2339 N 221.715 -0.905404 -1.28997 0
M  V30 2340 C 222.961 -0.535039 -1.95615 0
M  V30 2341 C 223.294 0.917404 -1.71165 0
M  V30 2342 O 222.569 1.65123 -1.02785 0
M  V30 2343 C 222.852 -0.834918 -3.50287 0
M  V30 2344 C 222.705 -2.33948 -3.84172 0
M  V30 2345 C 224.024 -0.325318 -4.38896 0
M  V30 2346 H 221.143 -0.195861 -0.710498 0
M  V30 2347 H 223.785 -1.13313 -1.52513 0
M  V30 2348 H 221.935 -0.325904 -3.87131 0
M  V30 2349 H 223.607 -2.91847 -3.57243 0
M  V30 2350 H 221.85 -2.79789 -3.31513 0
M  V30 2351 H 222.521 -2.49987 -4.92149 0
M  V30 2352 H 224.997 -0.761256 -4.09077 0
M  V30 2353 H 223.873 -0.564295 -5.45992 0
M  V30 2354 H 224.134 0.774144 -4.35269 0
M  V30 2355 N 223.193 1.4272 -0.668489 0
M  V30 2356 C 224.103 2.34596 0.0139753 0
M  V30 2357 C 225.119 1.5474 0.795703 0
M  V30 2358 O 226.295 1.87334 0.739466 0
M  V30 2359 C 223.36 3.33202 0.957982 0
M  V30 2360 C 222.421 4.28957 0.17149 0
M  V30 2361 C 221.654 5.22853 1.07053 0
M  V30 2362 O 221.877 5.21531 2.31001 0
M  V30 2363 O 220.811 5.9952 0.534727 0
M  V30 2364 H 224.637 2.9448 -0.742661 0
M  V30 2365 H 222.222 1.43117 -0.428705 0
M  V30 2366 H 224.104 3.93796 1.50008 0
M  V30 2367 H 222.779 2.758 1.69458 0
M  V30 2368 H 221.686 3.71796 -0.414558 0
M  V30 2369 H 223.019 4.89383 -0.52586 0
M  V30 2370 N 224.671 0.411399 1.52136 0
M  V30 2371 C 225.917 -0.156262 2.02799 0
M  V30 2372 C 226.272 -1.42613 1.29149 0
M  V30 2373 O 225.565 -1.87592 0.389839 0
M  V30 2374 C 225.759 -0.455872 3.54481 0
M  V30 2375 C 225.588 0.783404 4.42824 0
M  V30 2376 C 224.358 1.30928 4.88043 0
M  V30 2377 C 226.556 1.66217 4.86699 0
M  V30 2378 N 224.538 2.5038 5.6052 0
M  V30 2379 C 225.909 2.70292 5.5798 0
M  V30 2380 C 227.964 1.67966 4.68713 0
M  V30 2381 C 226.667 3.7603 6.13184 0
M  V30 2382 C 228.693 2.72624 5.24815 0
M  V30 2383 C 228.055 3.7542 5.9602 0
M  V30 2384 H 224.154 -0.0186886 0.781777 0
M  V30 2385 H 226.738 0.566255 1.86284 0
M  V30 2386 H 224.909 -1.14743 3.71064 0
M  V30 2387 H 226.641 -1.01261 3.91827 0
M  V30 2388 H 223.396 0.866977 4.65597 0
M  V30 2389 H 223.82 3.10881 6.014 0
M  V30 2390 H 228.462 0.898312 4.13147 0
M  V30 2391 H 226.18 4.55019 6.6782 0
M  V30 2392 H 229.766 2.74887 5.12765 0
M  V30 2393 H 228.646 4.55073 6.38654 0
M  V30 2394 N 226.149 -1.5696 0.141893 0
M  V30 2395 C 227.112 -2.15316 -0.785587 0
M  V30 2396 C 228.112 -1.09366 -1.1788 0
M  V30 2397 O 229.302 -1.35031 -1.10056 0
M  V30 2398 C 226.434 -2.71211 -2.06537 0
M  V30 2399 H 227.627 -2.98608 -0.278041 0
M  V30 2400 H 225.18 -1.5593 -0.107519 0
M  V30 2401 H 225.915 -1.91571 -2.6167 0
M  V30 2402 H 225.7 -3.4872 -1.79268 0
M  V30 2403 H 227.19 -3.16189 -2.72789 0
M  V30 2404 N 227.627 0.131896 -1.57047 0
M  V30 2405 C 228.574 1.16236 -1.99393 0
M  V30 2406 C 229.544 1.41863 -0.863943 0
M  V30 2407 O 230.729 1.53946 -1.12718 0
M  V30 2408 C 227.869 2.48708 -2.39245 0
M  V30 2409 C 226.982 2.30127 -3.65603 0
M  V30 2410 C 226.117 3.55738 -3.94492 0
M  V30 2411 C 225.156 3.32259 -5.14073 0
M  V30 2412 N 224.293 4.50039 -5.38896 0
M  V30 2413 H 229.133 0.794251 -2.87221 0
M  V30 2414 H 226.67 0.380707 -1.42088 0
M  V30 2415 H 228.628 3.25969 -2.60384 0
M  V30 2416 H 227.258 2.83437 -1.54478 0
M  V30 2417 H 226.31 1.43845 -3.52154 0
M  V30 2418 H 227.622 2.08746 -4.5302 0
M  V30 2419 H 226.776 4.41423 -4.1621 0
M  V30 2420 H 225.515 3.80138 -3.05526 0
M  V30 2421 H 224.52 2.44963 -4.92212 0
M  V30 2422 H 225.745 3.09242 -6.04604 0
M  V30 2423 H 223.691 4.74584 -4.52886 0
M  V30 2424 H 223.608 4.31716 -6.2061 0
M  V30 2425 H 224.876 5.36895 -5.65123 0
M  V30 2426 N 229.106 1.52395 0.401703 0
M  V30 2427 C 230.336 1.70429 1.1678 0
M  V30 2428 C 230.744 0.416702 1.84554 0
M  V30 2429 O 230.087 -0.617697 1.73003 0
M  V30 2430 C 230.149 2.78919 2.26814 0
M  V30 2431 C 229.813 4.20437 1.79113 0
M  V30 2432 C 230.81 5.04028 1.27482 0
M  V30 2433 C 228.495 4.66704 1.85722 0
M  V30 2434 C 230.489 6.31961 0.830913 0
M  V30 2435 C 228.176 5.94625 1.40942 0
M  V30 2436 C 229.174 6.77082 0.897128 0
M  V30 2437 O 228.862 8.02607 0.455822 0
M  V30 2438 H 228.594 0.574272 0.356634 0
M  V30 2439 H 231.148 1.99767 0.477724 0
M  V30 2440 H 229.378 2.44973 2.99207 0
M  V30 2441 H 231.067 2.8548 2.88541 0
M  V30 2442 H 231.833 4.69471 1.21744 0
M  V30 2443 H 227.712 4.0262 2.24539 0
M  V30 2444 H 231.256 6.96271 0.430368 0
M  V30 2445 H 227.153 6.28688 1.46362 0
M  V30 2446 H 227.921 8.16453 0.578457 0
M  V30 2447 N 230.584 -0.659388 1.43143 0
M  V30 2448 C 231.833 -1.41518 1.43721 0
M  V30 2449 C 232.146 -1.95499 0.0628176 0
M  V30 2450 O 233.352 -2.71446 -0.0539683 0
M  V30 2451 C 231.808 -2.5608 2.52885 0
M  V30 2452 C 231.416 -2.08733 3.96402 0
M  V30 2453 C 233.16 -3.3349 2.62649 0
M  V30 2454 C 231.067 -3.20469 4.97045 0
M  V30 2455 H 229.997 -0.531705 0.534608 0
M  V30 2456 H 232.648 -0.712343 1.69109 0
M  V30 2457 H 231.03 -3.28805 2.20688 0
M  V30 2458 H 232.204 -1.43059 4.3803 0
M  V30 2459 H 230.519 -1.44219 3.90627 0
M  V30 2460 H 233.116 -4.16734 3.35017 0
M  V30 2461 H 233.459 -3.8111 1.67513 0
M  V30 2462 H 233.992 -2.67842 2.94118 0
M  V30 2463 H 230.731 -2.77824 5.93712 0
M  V30 2464 H 230.251 -3.84874 4.60034 0
M  V30 2465 H 231.93 -3.85698 5.19467 0
M  V30 2466 N 232.062 -1.29571 -0.897171 0
M  V30 2467 C 233.473 -1.15964 -1.46319 0
M  V30 2468 C 233.824 0.244267 -1.94674 0
M  V30 2469 O 232.949 1.13998 -1.83939 0
M  V30 2470 C 233.544 -2.09906 -2.65942 0
M  V30 2471 C 232.103 -2.00314 -3.18671 0
M  V30 2472 C 231.25 -2.00687 -1.91363 0
M  V30 2473 H 234.201 -1.42019 -0.708268 0
M  V30 2474 H 234.222 -1.67276 -3.41759 0
M  V30 2475 H 233.734 -3.12075 -2.30718 0
M  V30 2476 H 231.835 -1.01242 -3.58582 0
M  V30 2477 H 231.948 -2.88102 -3.82798 0
M  V30 2478 H 230.312 -1.45319 -2.09175 0
M  V30 2479 H 231.095 -3.04566 -1.58413 0
M  V30 2480 N 233.54 1.10788 -1.12088 0
M  V30 2481 C 234.503 2.15207 -0.788577 0
M  V30 2482 C 235.503 1.59609 0.195317 0
M  V30 2483 O 236.693 1.74174 -0.0300193 0
M  V30 2484 C 233.825 3.4047 -0.171174 0
M  V30 2485 H 235.018 2.46116 -1.71368 0
M  V30 2486 H 232.571 1.26089 -0.923652 0
M  V30 2487 H 233.306 3.15176 0.763832 0
M  V30 2488 H 233.091 3.82109 -0.879514 0
M  V30 2489 H 234.581 4.17576 0.04496 0
M  V30 2490 N 235.018 0.912232 1.28515 0
M  V30 2491 C 236.265 0.544599 1.95039 0
M  V30 2492 C 236.593 -0.911435 1.71823 0
M  V30 2493 O 235.848 -1.66317 1.03137 0
M  V30 2494 C 236.147 0.798392 3.48368 0
M  V30 2495 C 235.813 2.23374 3.91682 0
M  V30 2496 C 234.475 2.62617 4.03219 0
M  V30 2497 C 236.827 3.16786 4.13879 0
M  V30 2498 C 234.155 3.94429 4.3433 0
M  V30 2499 C 236.507 4.48161 4.46469 0
M  V30 2500 C 235.171 4.8726 4.56217 0
M  V30 2501 H 234.441 0.199283 0.7137 0
M  V30 2502 H 237.088 1.15327 1.52879 0
M  V30 2503 H 235.393 0.106908 3.91654 0
M  V30 2504 H 237.09 0.493141 3.97956 0
M  V30 2505 H 233.68 1.91922 3.83228 0
M  V30 2506 H 237.864 2.87677 4.0442 0
M  V30 2507 H 233.12 4.24426 4.40082 0
M  V30 2508 H 237.294 5.20559 4.62592 0
M  V30 2509 H 234.921 5.89431 4.80078 0
M  V30 2510 N 236.496 -1.42363 0.676048 0
M  V30 2511 C 237.736 -2.03392 0.20273 0
M  V30 2512 C 238.1 -1.52306 -1.16906 0
M  V30 2513 O 239.301 -2.05129 -1.73711 0
M  V30 2514 C 237.572 -3.56614 0.236947 0
M  V30 2515 S 239.131 -4.38489 -0.165186 0
M  V30 2516 H 235.949 -0.70611 0.0832418 0
M  V30 2517 H 238.551 -1.74093 0.88948 0
M  V30 2518 H 237.255 -3.91293 1.23767 0
M  V30 2519 H 236.786 -3.90587 -0.469596 0
M  V30 2520 H 238.801 -4.76093 -1.39822 0
M  V30 2521 N 237.974 -0.419461 -1.51915 0
M  V30 2522 C 238.884 0.407528 -2.31033 0
M  V30 2523 C 239.9 1.04413 -1.3919 0
M  V30 2524 O 241.076 1.0434 -1.72265 0
M  V30 2525 C 238.141 1.50365 -3.12396 0
M  V30 2526 C 237.202 0.889029 -4.19994 0
M  V30 2527 C 236.435 1.93291 -4.97468 0
M  V30 2528 O 236.658 3.15259 -4.75361 0
M  V30 2529 O 235.592 1.53339 -5.8204 0
M  V30 2530 H 239.418 -0.237865 -3.02767 0
M  V30 2531 H 237.003 -0.182413 -1.48282 0
M  V30 2532 H 238.885 2.13975 -3.63032 0
M  V30 2533 H 237.56 2.13345 -2.43445 0
M  V30 2534 H 236.467 0.215353 -3.7348 0
M  V30 2535 H 237.8 0.302991 -4.91267 0
M  V30 2536 N 239.452 1.56882 -0.150215 0
M  V30 2537 C 240.382 2.19935 0.784284 0
M  V30 2538 C 241.363 1.14854 1.25469 0
M  V30 2539 O 242.548 1.43209 1.31168 0
M  V30 2540 C 239.678 2.82349 2.02229 0
M  V30 2541 C 238.632 3.93285 1.68853 0
M  V30 2542 C 237.958 4.42649 2.99944 0
M  V30 2543 C 239.258 5.13904 0.932714 0
M  V30 2544 H 240.952 2.9828 0.258781 0
M  V30 2545 H 238.498 1.43473 0.123029 0
M  V30 2546 H 240.451 3.25126 2.68088 0
M  V30 2547 H 239.175 2.0134 2.57157 0
M  V30 2548 H 237.834 3.5113 1.05371 0
M  V30 2549 H 237.482 3.58458 3.52869 0
M  V30 2550 H 237.182 5.17476 2.78374 0
M  V30 2551 H 238.706 4.88099 3.66868 0
M  V30 2552 H 240.12 5.53506 1.49345 0
M  V30 2553 H 238.517 5.94515 0.81684 0
M  V30 2554 H 239.587 4.84842 -0.0749568 0
M  V30 2555 N 240.93 -0.123565 1.57115 0
M  V30 2556 C 242.341 -0.681198 1.73829 0
M  V30 2557 C 242.692 -1.80535 0.768214 0
M  V30 2558 O 241.817 -2.16317 -0.0599103 0
M  V30 2559 C 242.412 -1.24246 3.15196 0
M  V30 2560 C 240.971 -1.74643 3.33432 0
M  V30 2561 C 240.118 -0.644284 2.69711 0
M  V30 2562 H 243.069 0.102315 1.5837 0
M  V30 2563 H 243.09 -2.11216 3.16493 0
M  V30 2564 H 242.602 -0.424062 3.85776 0
M  V30 2565 H 240.703 -2.58974 2.67886 0
M  V30 2566 H 240.816 -1.85902 4.41562 0
M  V30 2567 H 239.18 -1.07676 2.3082 0
M  V30 2568 H 239.963 0.163058 3.42913 0
M  V30 2569 N 242.408 -1.52605 -0.393616 0
M  V30 2570 C 243.338 -1.80022 -1.48709 0
M  V30 2571 C 244.319 -0.651995 -1.57108 0
M  V30 2572 O 245.504 -0.89913 -1.72132 0
M  V30 2573 C 242.634 -1.96492 -2.86371 0
M  V30 2574 C 241.588 -3.12161 -2.92813 0
M  V30 2575 C 240.914 -3.13877 -4.3288 0
M  V30 2576 C 242.214 -4.51322 -2.6288 0
M  V30 2577 H 243.908 -2.71589 -1.26015 0
M  V30 2578 H 241.454 -1.30684 -0.604778 0
M  V30 2579 H 243.407 -2.14255 -3.62867 0
M  V30 2580 H 242.131 -1.01611 -3.10391 0
M  V30 2581 H 240.79 -2.94173 -2.18764 0
M  V30 2582 H 240.438 -2.16687 -4.53933 0
M  V30 2583 H 240.138 -3.91576 -4.38112 0
M  V30 2584 H 241.662 -3.33789 -5.1129 0
M  V30 2585 H 243.076 -4.69435 -3.29096 0
M  V30 2586 H 241.473 -5.31053 -2.79468 0
M  V30 2587 H 242.543 -4.58353 -1.58242 0
M  V30 2588 N 243.887 0.651787 -1.4349 0
M  V30 2589 C 245.164 1.40909 -1.35661 0
M  V30 2590 C 245.544 2.11099 -0.00511733 0
M  V30 2591 O 244.892 2.04892 1.0115 0
M  V30 2592 C 245.102 2.3926 -2.54078 0
M  V30 2593 C 246.45 3.03217 -2.97228 0
M  V30 2594 O 247.474 2.49588 -2.54135 0
M  V30 2595 O 246.333 4.00455 -3.71885 0
M  V30 2596 H 243.427 0.629625 -0.536191 0
M  V30 2597 H 245.973 0.678575 -1.55542 0
M  V30 2598 H 244.745 1.86352 -3.44076 0
M  V30 2599 H 244.368 3.1976 -2.36303 0
M  V30 2600 N 245.365 1.30045 0.890287 0
M  V30 2601 C 246.642 1.09227 1.62262 0
M  V30 2602 C 247.022 -0.360305 2.08002 0
M  V30 2603 O 246.37 -1.35084 1.84295 0
M  V30 2604 C 246.58 2.08835 2.79623 0
M  V30 2605 C 247.928 2.40266 3.50082 0
M  V30 2606 O 248.952 2.07104 2.89804 0
M  V30 2607 O 247.811 2.96967 4.58773 0
M  V30 2608 H 244.905 0.419132 0.712922 0
M  V30 2609 H 247.451 1.41451 0.937529 0
M  V30 2610 H 246.223 3.06633 2.43089 0
M  V30 2611 H 245.846 1.77397 3.55832 0
M  V30 2612 N 246.843 -1.10192 1.12674 0
M  V30 2613 C 247.775 -2.16418 0.754701 0
M  V30 2614 C 248.788 -1.61309 -0.21986 0
M  V30 2615 O 249.977 -1.785 -0.000826841 0
M  V30 2616 C 247.077 -3.38762 0.096698 0
M  V30 2617 C 246.25 -4.23307 1.10136 0
M  V30 2618 C 245.309 -5.24092 0.470513 0
M  V30 2619 O 244.335 -5.57906 1.12824 0
M  V30 2620 N 245.537 -5.75491 -0.760948 0
M  V30 2621 H 248.302 -2.48943 1.66875 0
M  V30 2622 H 245.863 -1.25834 1.01869 0
M  V30 2623 H 247.855 -4.03291 -0.337384 0
M  V30 2624 H 246.425 -3.04192 -0.720153 0
M  V30 2625 H 245.645 -3.55036 1.71299 0
M  V30 2626 H 246.933 -4.76624 1.78064 0
M  V30 2627 H 246.331 -5.50222 -1.31424 0
M  V30 2628 H 244.888 -6.41792 -1.13781 0
M  V30 2629 N 248.321 -0.919034 -1.28029 0
M  V30 2630 C 249.567 -0.555757 -1.95036 0
M  V30 2631 C 249.9 0.899198 -1.72128 0
M  V30 2632 O 249.175 1.64023 -1.04531 0
M  V30 2633 C 249.458 -0.872024 -3.49382 0
M  V30 2634 C 249.311 -2.3801 -3.81669 0
M  V30 2635 C 250.63 -0.37185 -4.38526 0
M  V30 2636 H 247.749 -0.203386 -0.708381 0
M  V30 2637 H 250.391 -1.14924 -1.51303 0
M  V30 2638 H 248.541 -0.366946 -3.86763 0
M  V30 2639 H 250.213 -2.9562 -3.54128 0
M  V30 2640 H 248.456 -2.83289 -3.28526 0
M  V30 2641 H 249.127 -2.55192 -4.8947 0
M  V30 2642 H 251.603 -0.804602 -4.08247 0
M  V30 2643 H 250.479 -0.622173 -5.45362 0
M  V30 2644 H 250.74 0.727934 -4.36066 0
M  V30 2645 N 249.799 1.42003 -0.683588 0
M  V30 2646 C 250.762 2.29191 -0.0198243 0
M  V30 2647 C 251.762 1.43773 0.72013 0
M  V30 2648 O 252.952 1.65061 0.556815 0
M  V30 2649 C 250.084 3.26435 0.982487 0
M  V30 2650 H 251.277 2.8938 -0.787345 0
M  V30 2651 H 248.83 1.49789 -0.446418 0
M  V30 2652 H 249.565 2.71203 1.77819 0
M  V30 2653 H 249.35 3.89449 0.455182 0
M  V30 2654 H 250.84 3.918 1.44508 0
M  V30 2655 N 251.277 0.427512 1.51691 0
M  V30 2656 C 252.207 -0.3796 2.30394 0
M  V30 2657 C 253.188 -1.02982 1.35384 0
M  V30 2658 O 254.373 -1.03534 1.643 0
M  V30 2659 C 251.503 -1.48649 3.1388 0
M  V30 2660 C 250.457 -0.960294 4.17088 0
M  V30 2661 C 249.783 -2.16219 4.89033 0
M  V30 2662 C 251.083 -0.00153679 5.223 0
M  V30 2663 H 252.777 0.277164 2.98114 0
M  V30 2664 H 250.323 0.134739 1.43368 0
M  V30 2665 H 252.276 -2.05826 3.67714 0
M  V30 2666 H 251 -2.1714 2.43962 0
M  V30 2667 H 249.659 -0.410806 3.64291 0
M  V30 2668 H 249.307 -2.83307 4.15628 0
M  V30 2669 H 249.007 -1.81654 5.58816 0
M  V30 2670 H 250.531 -2.73968 5.45687 0
M  V30 2671 H 251.945 -0.482687 5.71264 0
M  V30 2672 H 250.342 0.256199 5.99553 0
M  V30 2673 H 251.412 0.938174 4.75738 0
M  V30 2674 N 252.755 -1.56801 0.158532 0
M  V30 2675 C 253.685 -2.20347 -0.772609 0
M  V30 2676 C 254.666 -1.15518 -1.24859 0
M  V30 2677 O 255.851 -1.43902 -1.30406 0
M  V30 2678 C 252.981 -2.83417 -2.00729 0
M  V30 2679 C 251.935 -3.94174 -1.66765 0
M  V30 2680 C 251.261 -4.44233 -2.97592 0
M  V30 2681 C 252.561 -5.14392 -0.905447 0
M  V30 2682 H 254.255 -2.98413 -0.242959 0
M  V30 2683 H 251.801 -1.43537 -0.115419 0
M  V30 2684 H 253.754 -3.26543 -2.6636 0
M  V30 2685 H 252.478 -2.02701 -2.56086 0
M  V30 2686 H 251.137 -3.51684 -1.03508 0
M  V30 2687 H 250.785 -3.60325 -3.50963 0
M  V30 2688 H 250.485 -5.18945 -2.75626 0
M  V30 2689 H 252.009 -4.90037 -3.64274 0
M  V30 2690 H 253.423 -5.5429 -1.46408 0
M  V30 2691 H 251.82 -5.9494 -0.7853 0
M  V30 2692 H 252.89 -4.84795 0.100668 0
M  V30 2693 N 254.233 0.115231 -1.57178 0
M  V30 2694 C 255.649 0.468877 -1.52557 0
M  V30 2695 C 255.849 1.81649 -0.872125 0
M  V30 2696 O 254.905 2.48347 -0.45606 0
M  V30 2697 C 256.218 0.4499 -2.97315 0
M  V30 2698 C 257.766 0.533185 -3.08425 0
M  V30 2699 C 258.241 0.54456 -4.54751 0
M  V30 2700 N 259.732 0.605892 -4.5922 0
M  V30 2701 C 260.467 0.636203 -5.6986 0
M  V30 2702 N 259.963 0.623931 -6.89985 0
M  V30 2703 N 261.756 0.679496 -5.57978 0
M  V30 2704 H 253.907 -0.767712 -1.9804 0
M  V30 2705 H 256.17 -0.283609 -0.904583 0
M  V30 2706 H 255.876 -0.472721 -3.48509 0
M  V30 2707 H 255.75 1.27632 -3.5495 0
M  V30 2708 H 258.137 1.44623 -2.57232 0
M  V30 2709 H 258.218 -0.320995 -2.53778 0
M  V30 2710 H 257.862 -0.364452 -5.06591 0
M  V30 2711 H 257.792 1.41568 -5.07214 0
M  V30 2712 H 260.283 0.621386 -3.72756 0
M  V30 2713 H 260.596 0.649787 -7.70063 0
M  V30 2714 H 258.941 0.591296 -6.9248 0
M  V30 2715 H 262.132 0.686472 -4.63039 0
M  V30 2716 H 262.305 0.69965 -6.44212 0
M  V30 2717 N 255.711 1.52812 0.385517 0
M  V30 2718 C 256.674 1.77188 1.45386 0
M  V30 2719 C 257.674 0.641953 1.4743 0
M  V30 2720 O 258.864 0.910033 1.4854 0
M  V30 2721 C 255.996 1.87582 2.8465 0
M  V30 2722 H 257.189 2.72583 1.25054 0
M  V30 2723 H 254.742 1.43586 0.617467 0
M  V30 2724 H 255.477 0.941849 3.10322 0
M  V30 2725 H 255.262 2.69748 2.84567 0
M  V30 2726 H 256.752 2.08102 3.62054 0
M  V30 2727 N 257.189 -0.644168 1.43834 0
M  V30 2728 C 258.139 -1.7501 1.46135 0
M  V30 2729 C 259.123 -1.57507 0.328685 0
M  V30 2730 O 260.315 -1.67465 0.5731 0
M  V30 2731 C 257.444 -3.13641 1.39585 0
M  V30 2732 C 256.53 -3.3666 2.57916 0
M  V30 2733 N 256.921 -3.30107 3.83227 0
M  V30 2734 C 255.219 -3.67411 2.52834 0
M  V30 2735 C 255.92 -3.53456 4.61999 0
M  V30 2736 N 254.896 -3.75705 3.9287 0
M  V30 2737 H 258.698 -1.68382 2.40883 0
M  V30 2738 H 256.212 -0.846169 1.38614 0
M  V30 2739 H 258.209 -3.92933 1.39317 0
M  V30 2740 H 256.869 -3.21444 0.45865 0
M  V30 2741 H 257.88 -3.09316 4.15384 0
M  V30 2742 H 254.557 -3.82275 1.67845 0
M  V30 2743 H 255.947 -3.54093 5.71024 0
M  V30 2744 N 258.668 -1.30515 -0.883378 0
M  V30 2745 C 259.631 -1.1701 -1.97082 0
M  V30 2746 C 260.631 -0.10089 -1.60483 0
M  V30 2747 O 261.821 -0.349127 -1.70666 0
M  V30 2748 C 258.953 -0.793045 -3.31547 0
M  V30 2749 H 260.146 -2.13622 -2.10489 0
M  V30 2750 H 257.699 -1.13935 -1.06998 0
M  V30 2751 H 258.434 0.172499 -3.23841 0
M  V30 2752 H 258.219 -1.56576 -3.5948 0
M  V30 2753 H 259.709 -0.722073 -4.1131 0
M  V30 2754 N 260.146 1.09593 -1.13257 0
M  V30 2755 C 261.394 1.81375 -0.891492 0
M  V30 2756 C 261.715 1.86049 0.584009 0
M  V30 2757 O 260.985 1.34481 1.42449 0
M  V30 2758 H 259.565 0.671708 -0.326828 0
M  V30 2759 H 262.227 1.3256 -1.42877 0
M  V30 2760 H 261.323 2.84612 -1.28071 0
M  V30 2761 N 261.624 0.925811 1.2754 0
M  V30 2762 C 262.534 0.428993 2.30644 0
M  V30 2763 C 263.55 -0.489387 1.66976 0
M  V30 2764 O 264.726 -0.372653 1.97922 0
M  V30 2765 C 261.791 -0.311967 3.45294 0
M  V30 2766 C 260.852 0.641098 4.24486 0
M  V30 2767 C 260.085 -0.0645955 5.33661 0
M  V30 2768 O 260.308 -1.28429 5.55754 0
M  V30 2769 O 259.242 0.606265 5.98839 0
M  V30 2770 H 263.068 1.28504 2.75173 0
M  V30 2771 H 260.653 0.691086 1.32455 0
M  V30 2772 H 262.535 -0.729972 4.15029 0
M  V30 2773 H 261.21 -1.14365 3.02824 0
M  V30 2774 H 260.117 1.10874 3.57292 0
M  V30 2775 H 261.45 1.43995 4.70666 0
M  V30 2776 N 263.102 -1.41638 0.69111 0
M  V30 2777 C 264.052 -2.28 -0.000107832 0
M  V30 2778 C 265.036 -1.41964 -0.757304 0
M  V30 2779 O 266.228 -1.65274 -0.633532 0
M  V30 2780 C 263.357 -3.30209 -0.938983 0
M  V30 2781 C 262.443 -4.23725 -0.17827 0
M  V30 2782 N 262.834 -4.99017 0.825563 0
M  V30 2783 C 261.132 -4.44071 -0.414392 0
M  V30 2784 C 261.833 -5.67431 1.28052 0
M  V30 2785 N 260.809 -5.40197 0.607304 0
M  V30 2786 H 264.611 -2.83644 0.769617 0
M  V30 2787 H 262.125 -1.53797 0.521562 0
M  V30 2788 H 264.122 -3.90898 -1.44929 0
M  V30 2789 H 262.782 -2.76126 -1.70836 0
M  V30 2790 H 263.793 -5.03671 1.20566 0
M  V30 2791 H 260.47 -4.01004 -1.162 0
M  V30 2792 H 261.86 -6.37801 2.11327 0
M  V30 2793 N 264.58 -0.43555 -1.51462 0
M  V30 2794 C 265.51 0.367376 -2.30592 0
M  V30 2795 C 266.491 1.02263 -1.35928 0
M  V30 2796 O 267.676 1.02661 -1.64847 0
M  V30 2797 C 264.806 1.46983 -3.14664 0
M  V30 2798 C 263.76 0.938161 -4.17591 0
M  V30 2799 C 263.086 2.13622 -4.90173 0
M  V30 2800 C 264.386 -0.0261621 -5.22293 0
M  V30 2801 H 266.08 -0.292969 -2.97963 0
M  V30 2802 H 263.626 -0.14234 -1.43295 0
M  V30 2803 H 265.579 2.03873 -3.688 0
M  V30 2804 H 264.303 2.15843 -2.4511 0
M  V30 2805 H 262.962 0.391481 -3.64504 0
M  V30 2806 H 262.61 2.81098 -4.17124 0
M  V30 2807 H 262.31 1.78688 -5.59772 0
M  V30 2808 H 263.834 2.7107 -5.47132 0
M  V30 2809 H 265.248 0.452384 -5.71512 0
M  V30 2810 H 263.645 -0.287992 -5.99409 0
M  V30 2811 H 264.715 -0.963391 -4.75233 0
M  V30 2812 N 266.058 1.56714 -0.166846 0
M  V30 2813 C 266.988 2.20754 0.760913 0
M  V30 2814 C 267.969 1.16178 1.24244 0
M  V30 2815 O 269.154 1.44592 1.29641 0
M  V30 2816 C 266.284 2.84478 1.99223 0
M  V30 2817 C 265.238 3.95053 1.64672 0
M  V30 2818 C 264.564 4.45805 2.95232 0
M  V30 2819 C 265.864 5.14865 0.878155 0
M  V30 2820 H 267.558 2.98537 0.22713 0
M  V30 2821 H 265.104 1.43596 0.107805 0
M  V30 2822 H 267.057 3.27951 2.64624 0
M  V30 2823 H 265.781 2.04056 2.55007 0
M  V30 2824 H 264.44 3.52228 1.01641 0
M  V30 2825 H 264.088 3.62181 3.49047 0
M  V30 2826 H 263.788 5.204 2.7287 0
M  V30 2827 H 265.312 4.91962 3.6167 0
M  V30 2828 H 266.726 5.55059 1.43466 0
M  V30 2829 H 265.123 5.95348 0.753738 0
M  V30 2830 H 266.193 4.84735 -0.126377 0
M  V30 2831 N 267.536 -0.106894 1.57237 0
M  V30 2832 C 268.466 -1.13148 2.04254 0
M  V30 2833 C 269.447 -1.42476 0.929224 0
M  V30 2834 O 270.632 -1.52709 1.19973 0
M  V30 2835 C 267.762 -2.4545 2.45706 0
M  V30 2836 C 266.716 -2.30558 3.60592 0
M  V30 2837 C 266.042 -3.67931 3.87983 0
M  V30 2838 C 267.342 -1.75597 4.91897 0
M  V30 2839 H 269.036 -0.740374 2.90101 0
M  V30 2840 H 266.582 -0.354696 1.39563 0
M  V30 2841 H 268.535 -3.17389 2.77205 0
M  V30 2842 H 267.259 -2.86475 1.56843 0
M  V30 2843 H 265.918 -1.61067 3.29322 0
M  V30 2844 H 265.566 -4.06462 2.96306 0
M  V30 2845 H 265.266 -3.58817 4.65322 0
M  V30 2846 H 266.79 -4.41356 4.21945 0
M  V30 2847 H 268.204 -2.37364 5.21854 0
M  V30 2848 H 266.601 -1.77272 5.73319 0
M  V30 2849 H 267.671 -0.714451 4.79608 0
M  V30 2850 N 269.014 -1.53014 -0.377408 0
M  V30 2851 C 270.262 -1.6829 -1.11906 0
M  V30 2852 C 270.583 -0.431206 -1.90173 0
M  V30 2853 O 269.853 0.554595 -1.87886 0
M  V30 2854 H 268.433 -0.620371 -0.416112 0
M  V30 2855 H 271.095 -1.90167 -0.426893 0
M  V30 2856 H 270.191 -2.53862 -1.8155 0
M  V30 2857 N 270.492 0.636531 -1.44174 0
M  V30 2858 C 271.455 1.73063 -1.50273 0
M  V30 2859 C 272.455 1.56113 -0.385397 0
M  V30 2860 O 273.645 1.61707 -0.64781 0
M  V30 2861 C 270.777 3.12096 -1.37145 0
M  V30 2862 H 271.97 1.69031 -2.47727 0
M  V30 2863 H 269.523 0.849706 -1.31186 0
M  V30 2864 H 270.258 3.21728 -0.407636 0
M  V30 2865 H 270.043 3.25805 -2.18159 0
M  V30 2866 H 271.533 3.91846 -1.44382 0
M  V30 2867 N 271.97 1.30982 0.876444 0
M  V30 2868 C 273.198 1.23242 1.6619 0
M  V30 2869 C 273.613 -0.203345 1.87702 0
M  V30 2870 O 272.97 -1.13317 1.43057 0
M  V30 2871 C 273.021 1.96623 3.03351 0
M  V30 2872 O 272.742 3.34594 2.82804 0
M  V30 2873 C 274.243 1.95644 3.97792 0
M  V30 2874 H 271.463 0.426126 0.518322 0
M  V30 2875 H 274.007 1.7275 1.09442 0
M  V30 2876 H 272.162 1.50892 3.56806 0
M  V30 2877 H 272.576 3.71873 3.69879 0
M  V30 2878 H 274.05 2.51511 4.91372 0
M  V30 2879 H 274.527 0.937395 4.2908 0
M  V30 2880 H 275.133 2.41225 3.50272 0
M  V30 2881 N 273.449 -1.08991 1.13837 0
M  V30 2882 C 274.396 -2.15748 0.819835 0
M  V30 2883 C 275.366 -1.64636 -0.220026 0
M  V30 2884 O 276.551 -1.90582 -0.0912757 0
M  V30 2885 C 273.691 -3.4382 0.296913 0
M  V30 2886 C 272.804 -4.0881 1.39636 0
M  V30 2887 C 271.939 -5.24655 0.831314 0
M  V30 2888 C 270.978 -5.81575 1.90886 0
M  V30 2889 N 270.115 -6.88774 1.36142 0
M  V30 2890 H 274.955 -2.42338 1.73426 0
M  V30 2891 H 272.492 -1.18935 0.865613 0
M  V30 2892 H 274.45 -4.17193 -0.0244339 0
M  V30 2893 H 273.08 -3.17535 -0.580628 0
M  V30 2894 H 272.132 -3.33258 1.83422 0
M  V30 2895 H 273.444 -4.47141 2.21058 0
M  V30 2896 H 272.598 -6.04942 0.461515 0
M  V30 2897 H 271.337 -4.87698 -0.013932 0
M  V30 2898 H 270.342 -4.99946 2.28767 0
M  V30 2899 H 271.567 -6.20592 2.75758 0
M  V30 2900 H 269.513 -6.53788 0.538254 0
M  V30 2901 H 269.43 -7.25898 2.11208 0
M  V30 2902 H 270.698 -7.72806 1.01933 0
M  V30 2903 N 274.927 -0.932562 -1.27047 0
M  V30 2904 C 276.343 -0.633544 -1.46487 0
M  V30 2905 C 276.543 0.815746 -1.84249 0
M  V30 2906 O 275.599 1.59319 -1.95892 0
M  V30 2907 C 276.912 -1.58758 -2.55375 0
M  V30 2908 C 278.46 -1.59634 -2.69232 0
M  V30 2909 C 278.935 -2.53747 -3.81283 0
M  V30 2910 N 280.426 -2.51982 -3.88664 0
M  V30 2911 C 281.161 -3.21491 -4.74796 0
M  V30 2912 N 280.657 -4.00395 -5.65381 0
M  V30 2913 N 282.45 -3.10485 -4.68568 0
M  V30 2914 H 274.601 -1.86946 -1.00821 0
M  V30 2915 H 276.864 -0.802897 -0.504044 0
M  V30 2916 H 276.57 -2.62172 -2.34432 0
M  V30 2917 H 276.444 -1.33301 -3.52861 0
M  V30 2918 H 278.831 -0.569488 -2.89553 0
M  V30 2919 H 278.912 -1.89142 -1.72218 0
M  V30 2920 H 278.556 -3.56545 -3.61715 0
M  V30 2921 H 278.486 -2.21532 -4.77735 0
M  V30 2922 H 280.977 -1.94681 -3.23895 0
M  V30 2923 H 281.29 -4.50406 -6.27976 0
M  V30 2924 H 279.635 -4.04498 -5.65161 0
M  V30 2925 H 282.826 -2.48331 -3.96799 0
M  V30 2926 H 282.999 -3.64925 -5.35475 0
M  V30 2927 N 276.405 1.4127 -0.698611 0
M  V30 2928 C 277.63 2.06024 -0.238512 0
M  V30 2929 C 278.055 1.5224 1.10475 0
M  V30 2930 O 277.413 0.650623 1.69223 0
M  V30 2931 C 277.461 3.59988 -0.209952 0
M  V30 2932 O 276.565 4.04282 0.814235 0
M  V30 2933 H 275.906 0.653829 -0.115775 0
M  V30 2934 H 278.436 1.8098 -0.954326 0
M  V30 2935 H 278.446 4.07979 -0.0418436 0
M  V30 2936 H 277.121 3.98503 -1.1903 0
M  V30 2937 H 275.698 3.6779 0.615234 0
M  V30 2938 N 277.883 0.443576 1.51229 0
M  V30 2939 C 278.816 -0.410089 2.24485 0
M  V30 2940 C 279.794 -1.01949 1.26669 0
M  V30 2941 O 280.978 -1.06075 1.55821 0
M  V30 2942 C 278.105 -1.57211 3.00004 0
M  V30 2943 C 277.151 -1.08279 4.12526 0
M  V30 2944 S 277.984 -0.0197476 5.35496 0
M  V30 2945 C 279.14 -1.18629 6.14555 0
M  V30 2946 H 279.373 0.211832 2.96544 0
M  V30 2947 H 276.906 0.228156 1.52705 0
M  V30 2948 H 278.864 -2.23825 3.44111 0
M  V30 2949 H 277.525 -2.16547 2.27522 0
M  V30 2950 H 276.718 -1.95193 4.64667 0
M  V30 2951 H 276.32 -0.494797 3.70713 0
M  V30 2952 H 278.612 -2.10344 6.4402 0
M  V30 2953 H 279.555 -0.70472 7.04584 0
M  V30 2954 H 279.963 -1.42768 5.46148 0
M  V30 2955 N 279.361 -1.56624 0.175154 0
M  V30 2956 C 280.294 -2.14 -0.792412 0
M  V30 2957 C 281.272 -1.07114 -1.22333 0
M  V30 2958 O 282.456 -1.35112 -1.31442 0
M  V30 2959 C 279.583 -2.68268 -2.0676 0
M  V30 2960 C 278.629 -3.87562 -1.7804 0
M  V30 2961 S 279.462 -5.27074 -0.946222 0
M  V30 2962 C 280.618 -5.8475 -2.23199 0
M  V30 2963 H 280.851 -2.95736 -0.304588 0
M  V30 2964 H 278.384 -1.54349 -0.0395705 0
M  V30 2965 H 280.342 -3.00182 -2.80002 0
M  V30 2966 H 279.003 -1.86612 -2.52656 0
M  V30 2967 H 278.196 -4.23874 -2.72666 0
M  V30 2968 H 277.798 -3.56555 -1.12891 0
M  V30 2969 H 280.09 -5.97898 -3.18629 0
M  V30 2970 H 281.033 -6.81756 -1.91349 0
M  V30 2971 H 281.441 -5.13198 -2.35134 0
M  V30 2972 N 280.839 0.0985539 -1.57292 0
M  V30 2973 C 282.069 0.815135 -1.8984 0
M  V30 2974 C 282.477 1.7297 -0.766679 0
M  V30 2975 O 281.82 1.81698 0.270483 0
M  V30 2976 C 281.882 1.6842 -3.17608 0
M  V30 2977 C 281.546 0.94182 -4.4719 0
M  V30 2978 C 282.543 0.273212 -5.19182 0
M  V30 2979 C 280.228 0.916927 -4.9386 0
M  V30 2980 C 282.222 -0.410361 -6.36078 0
M  V30 2981 C 279.909 0.229567 -6.10669 0
M  V30 2982 C 280.907 -0.432902 -6.81627 0
M  V30 2983 O 280.595 -1.10925 -7.9621 0
M  V30 2984 H 280.327 0.238501 -0.632529 0
M  V30 2985 H 282.881 0.0812659 -2.05239 0
M  V30 2986 H 281.111 2.46022 -2.98345 0
M  V30 2987 H 282.8 2.27704 -3.36015 0
M  V30 2988 H 283.566 0.283927 -4.84168 0
M  V30 2989 H 279.445 1.42201 -4.3852 0
M  V30 2990 H 282.989 -0.928013 -6.914 0
M  V30 2991 H 278.886 0.216686 -6.45136 0
M  V30 2992 H 279.654 -1.01579 -8.12172 0
M  V30 2993 N 282.317 1.53212 0.369288 0
M  V30 2994 C 283.264 1.79388 1.45219 0
M  V30 2995 C 284.234 0.638059 1.53356 0
M  V30 2996 O 285.419 0.879852 1.69302 0
M  V30 2997 C 282.559 1.98623 2.82211 0
M  V30 2998 C 281.672 3.26337 2.8307 0
M  V30 2999 C 280.807 3.35779 4.11614 0
M  V30 3000 C 279.846 4.5754 4.06601 0
M  V30 3001 N 278.983 4.64155 5.26787 0
M  V30 3002 H 283.823 2.71794 1.22198 0
M  V30 3003 H 281.36 1.34642 0.592444 0
M  V30 3004 H 283.318 2.07761 3.61789 0
M  V30 3005 H 281.948 1.09558 3.03639 0
M  V30 3006 H 281 3.26171 1.95747 0
M  V30 3007 H 282.312 4.15988 2.75237 0
M  V30 3008 H 281.466 3.44208 4.99606 0
M  V30 3009 H 280.205 2.44137 4.22195 0
M  V30 3010 H 279.21 4.49215 3.16996 0
M  V30 3011 H 280.435 5.50519 3.97625 0
M  V30 3012 H 278.381 3.75413 5.3796 0
M  V30 3013 H 278.298 5.47706 5.21109 0
M  V30 3014 H 279.566 4.76863 6.16621 0
M  V30 3015 N 283.795 -0.628877 1.44509 0
M  V30 3016 C 285.072 -1.38733 1.37886 0
M  V30 3017 C 285.452 -2.11065 0.0387008 0
M  V30 3018 O 284.8 -2.06476 -0.97878 0
M  V30 3019 C 285.01 -2.35188 2.57852 0
M  V30 3020 C 286.358 -2.9845 3.02014 0
M  V30 3021 O 287.382 -2.45513 2.58073 0
M  V30 3022 O 286.241 -3.94487 3.78209 0
M  V30 3023 H 283.335 -0.621015 0.54614 0
M  V30 3024 H 285.881 -0.653744 1.56602 0
M  V30 3025 H 284.653 -1.80855 3.46998 0
M  V30 3026 H 284.276 -3.1596 2.4136 0
M  V30 3027 N 285.273 -1.31445 -0.869486 0
M  V30 3028 C 286.522 -1.20517 -1.61736 0
M  V30 3029 C 286.835 0.235341 -1.94179 0
M  V30 3030 O 288.041 0.466312 -2.67465 0
M  V30 3031 C 286.497 -2.10982 -2.91573 0
M  V30 3032 C 286.105 -3.60032 -2.66611 0
M  V30 3033 C 287.849 -2.08856 -3.69567 0
M  V30 3034 C 285.756 -4.42503 -3.92358 0
M  V30 3035 H 284.686 -0.447493 -0.606849 0
M  V30 3036 H 287.337 -1.56303 -0.96133 0
M  V30 3037 H 285.719 -1.68095 -3.58553 0
M  V30 3038 H 286.893 -4.11167 -2.08035 0
M  V30 3039 H 285.208 -3.64139 -2.0197 0
M  V30 3040 H 287.805 -2.67716 -4.62852 0
M  V30 3041 H 288.148 -1.07582 -4.02159 0
M  V30 3042 H 288.681 -2.49945 -3.09471 0
M  V30 3043 H 285.42 -5.44533 -3.64916 0
M  V30 3044 H 284.94 -3.96125 -4.50383 0
M  V30 3045 H 286.619 -4.54741 -4.60238 0
M  V30 3046 N 286.751 1.08385 -1.14413 0
M  V30 3047 C 287.681 2.17321 -0.854044 0
M  V30 3048 C 288.662 1.69024 0.191049 0
M  V30 3049 O 289.847 1.94141 0.0476779 0
M  V30 3050 C 286.977 3.45719 -0.330983 0
M  V30 3051 C 285.931 4.07409 -1.31155 0
M  V30 3052 C 285.257 5.30762 -0.64778 0
M  V30 3053 C 286.557 4.48665 -2.67388 0
M  V30 3054 H 288.251 2.41845 -1.76498 0
M  V30 3055 H 285.797 1.16233 -0.850051 0
M  V30 3056 H 287.75 4.21241 -0.115645 0
M  V30 3057 H 286.474 3.2075 0.615381 0
M  V30 3058 H 285.133 3.33919 -1.51306 0
M  V30 3059 H 284.781 5.02078 0.304398 0
M  V30 3060 H 284.481 5.72992 -1.30207 0
M  V30 3061 H 286.005 6.08998 -0.441972 0
M  V30 3062 H 287.419 5.15364 -2.51143 0
M  V30 3063 H 285.816 5.01814 -3.29093 0
M  V30 3064 H 286.886 3.60543 -3.24248 0
M  V30 3065 N 288.23 0.939286 1.26551 0
M  V30 3066 C 289.16 0.465044 2.28822 0
M  V30 3067 C 290.141 -0.480692 1.63167 0
M  V30 3068 O 291.326 -0.382955 1.90387 0
M  V30 3069 C 288.456 -0.27234 3.46231 0
M  V30 3070 C 287.41 0.58666 4.2396 0
M  V30 3071 C 286.736 -0.280573 5.33963 0
M  V30 3072 C 288.036 1.85704 4.88171 0
M  V30 3073 H 289.73 1.31979 2.68741 0
M  V30 3074 H 287.276 0.636061 1.29191 0
M  V30 3075 H 289.229 -0.615133 4.16886 0
M  V30 3076 H 287.953 -1.16121 3.0526 0
M  V30 3077 H 286.612 0.91232 3.55067 0
M  V30 3078 H 286.26 -1.16874 4.89234 0
M  V30 3079 H 285.96 0.29076 5.8688 0
M  V30 3080 H 287.484 -0.618678 6.07458 0
M  V30 3081 H 288.898 1.58161 5.51052 0
M  V30 3082 H 287.295 2.37279 5.51197 0
M  V30 3083 H 288.365 2.56957 4.11219 0
M  V30 3084 N 289.708 -1.40897 0.706093 0
M  V30 3085 C 290.638 -2.33418 0.0620085 0
M  V30 3086 C 291.619 -1.52385 -0.755827 0
M  V30 3087 O 292.804 -1.80886 -0.706674 0
M  V30 3088 C 289.934 -3.36293 -0.867445 0
M  V30 3089 C 288.888 -4.27716 -0.155932 0
M  V30 3090 C 288.214 -5.2105 -1.20046 0
M  V30 3091 C 289.514 -5.12944 0.984149 0
M  V30 3092 H 291.208 -2.87527 0.83477 0
M  V30 3093 H 288.754 -1.38249 0.402875 0
M  V30 3094 H 290.707 -3.99949 -1.32735 0
M  V30 3095 H 289.431 -2.80556 -1.67199 0
M  V30 3096 H 288.09 -3.65498 0.284047 0
M  V30 3097 H 287.738 -4.61624 -1.99781 0
M  V30 3098 H 287.438 -5.83056 -0.729328 0
M  V30 3099 H 288.962 -5.87584 -1.66066 0
M  V30 3100 H 290.376 -5.70109 0.604048 0
M  V30 3101 H 288.773 -5.83945 1.38304 0
M  V30 3102 H 289.843 -4.49485 1.81911 0
M  V30 3103 N 291.186 -0.45159 -1.50991 0
M  V30 3104 C 292.434 0.109857 -2.01801 0
M  V30 3105 C 292.755 1.41958 -1.3369 0
M  V30 3106 O 292.025 1.9003 -0.475951 0
M  V30 3107 H 290.605 0.0435884 -0.745727 0
M  V30 3108 H 293.267 -0.597557 -1.85514 0
M  V30 3109 H 292.363 0.275489 -3.10882 0
M  V30 3110 N 292.664 1.56529 -0.183458 0
M  V30 3111 C 293.612 2.19873 0.758845 0
M  V30 3112 C 294.606 1.16638 1.22849 0
M  V30 3113 O 295.812 1.3481 1.19274 0
M  V30 3114 H 292.187 0.7045 0.263029 0
M  V30 3115 H 294.158 2.97724 0.200755 0
M  V30 3116 C 292.907 2.86314 1.9728 0
M  V30 3117 H 292.23 3.65487 1.62047 0
M  V30 3118 H 293.67 3.3409 2.61075 0
M  V30 3119 C 292.129 1.86729 2.80418 0
M  V30 3120 O 292.659 1.36031 3.77966 0
M  V30 3121 N 290.865 1.55216 2.45675 0
M  V30 3122 H 290.412 1.96636 1.66409 0
M  V30 3123 H 290.37 0.888388 3.01588 0
M  V30 3124 N 294.142 -0.090211 1.57342 0
M  V30 3125 C 295.09 -1.12792 2.03422 0
M  V30 3126 C 296.084 -1.41182 0.936166 0
M  V30 3127 O 297.29 -1.40805 1.12133 0
M  V30 3128 H 293.665 -0.380986 0.648347 0
M  V30 3129 H 295.636 -0.71299 2.89757 0
M  V30 3130 C 294.385 -2.43855 2.47851 0
M  V30 3131 H 293.708 -2.22855 3.31927 0
M  V30 3132 H 295.148 -3.14955 2.83865 0
M  V30 3133 C 293.607 -3.08503 1.3538 0
M  V30 3134 O 294.137 -3.95805 0.685641 0
M  V30 3135 N 292.343 -2.68831 1.10355 0
M  V30 3136 H 291.89 -1.97929 1.64869 0
M  V30 3137 H 291.848 -3.12412 0.353031 0
M  V30 3138 N 295.62 -1.53406 -0.361157 0
M  V30 3139 C 296.85 -1.73465 -1.1222 0
M  V30 3140 C 297.258 -0.465486 -1.83384 0
M  V30 3141 O 296.601 0.571611 -1.7458 0
M  V30 3142 C 296.663 -2.84834 -2.19339 0
M  V30 3143 C 296.327 -4.25038 -1.67903 0
M  V30 3144 C 297.324 -5.07231 -1.14074 0
M  V30 3145 C 295.009 -4.71464 -1.73282 0
M  V30 3146 C 297.003 -6.33942 -0.663068 0
M  V30 3147 C 294.69 -5.98153 -1.25127 0
M  V30 3148 C 295.688 -6.79223 -0.717296 0
M  V30 3149 O 295.376 -8.03533 -0.242865 0
M  V30 3150 H 295.108 -0.583526 -0.341283 0
M  V30 3151 H 297.662 -2.00964 -0.424591 0
M  V30 3152 H 295.892 -2.5282 -2.92607 0
M  V30 3153 H 297.581 -2.9303 -2.80871 0
M  V30 3154 H 298.347 -4.72534 -1.09254 0
M  V30 3155 H 294.226 -4.08432 -2.13786 0
M  V30 3156 H 297.77 -6.97167 -0.245612 0
M  V30 3157 H 293.667 -6.32347 -1.29642 0
M  V30 3158 H 294.435 -8.177 -0.361786 0
M  V30 3159 N 297.098 0.621204 -1.44841 0
M  V30 3160 C 298.344 1.3826 -1.48365 0
M  V30 3161 C 298.677 1.93831 -0.119624 0
M  V30 3162 O 297.952 1.74251 0.864111 0
M  V30 3163 C 298.235 2.54058 -2.55199 0
M  V30 3164 C 298.088 2.03772 -4.00995 0
M  V30 3165 C 299.407 3.56225 -2.58442 0
M  V30 3166 H 296.526 0.501374 -0.540179 0
M  V30 3167 H 299.168 0.7015 -1.76576 0
M  V30 3168 H 297.318 3.12162 -2.31274 0
M  V30 3169 H 298.99 1.50423 -4.36086 0
M  V30 3170 H 297.233 1.34876 -4.12299 0
M  V30 3171 H 297.904 2.87185 -4.71411 0
M  V30 3172 H 300.38 3.07939 -2.79844 0
M  V30 3173 H 299.256 4.34756 -3.3508 0
M  V30 3174 H 299.517 4.10949 -1.63013 0
M  V30 3175 N 298.576 1.31904 0.862503 0
M  V30 3176 C 299.825 1.21373 1.61094 0
M  V30 3177 C 300.138 -0.22504 1.94301 0
M  V30 3178 O 301.344 -0.452121 2.67709 0
M  V30 3179 C 299.8 2.12525 2.9045 0
M  V30 3180 C 299.408 3.61441 2.64697 0
M  V30 3181 C 301.152 2.10813 3.68454 0
M  V30 3182 C 299.059 4.44578 3.90006 0
M  V30 3183 H 297.989 0.450705 0.604468 0
M  V30 3184 H 300.64 1.56811 0.953027 0
M  V30 3185 H 299.022 1.69994 3.57656 0
M  V30 3186 H 300.196 4.12264 2.05851 0
M  V30 3187 H 298.511 3.65205 2.00036 0
M  V30 3188 H 301.108 2.70167 4.61426 0
M  V30 3189 H 301.451 1.09713 4.01583 0
M  V30 3190 H 301.984 2.51583 3.08141 0
M  V30 3191 H 298.723 5.46461 3.62023 0
M  V30 3192 H 298.243 3.98508 4.48276 0
M  V30 3193 H 299.922 4.57176 4.5782 0
M  V30 3194 N 300.054 -1.07777 1.14986 0
M  V30 3195 C 301.004 -2.13082 0.811181 0
M  V30 3196 C 301.988 -1.59619 -0.202597 0
M  V30 3197 O 303.18 -1.77 -0.00398275 0
M  V30 3198 C 300.309 -3.42009 0.297439 0
M  V30 3199 C 299.395 -4.02337 1.34112 0
M  V30 3200 N 299.786 -4.36982 2.54716 0
M  V30 3201 C 298.084 -4.29752 1.19285 0
M  V30 3202 C 298.785 -4.84729 3.21578 0
M  V30 3203 N 297.761 -4.83233 2.48972 0
M  V30 3204 H 301.563 -2.37696 1.72853 0
M  V30 3205 H 299.077 -1.25173 1.03468 0
M  V30 3206 H 301.074 -4.16884 0.0364777 0
M  V30 3207 H 299.734 -3.18841 -0.614022 0
M  V30 3208 H 300.745 -4.27807 2.91894 0
M  V30 3209 H 297.422 -4.16106 0.340926 0
M  V30 3210 H 298.812 -5.20863 4.24442 0
M  V30 3211 N 301.532 -0.945985 -1.26051 0
M  V30 3212 C 302.948 -0.649045 -1.45807 0
M  V30 3213 C 303.148 0.796158 -1.85104 0
M  V30 3214 O 302.204 1.57233 -1.97571 0
M  V30 3215 C 303.517 -1.61458 -2.53677 0
M  V30 3216 C 305.065 -1.62481 -2.67524 0
M  V30 3217 C 305.54 -2.57776 -3.7857 0
M  V30 3218 N 307.031 -2.5609 -3.85969 0
M  V30 3219 C 307.766 -3.26508 -4.7136 0
M  V30 3220 N 307.262 -4.0637 -5.61102 0
M  V30 3221 N 309.055 -3.15437 -4.65248 0
M  V30 3222 H 301.206 -1.88005 -0.988328 0
M  V30 3223 H 303.469 -0.808198 -0.4955 0
M  V30 3224 H 303.175 -2.64644 -2.31638 0
M  V30 3225 H 303.049 -1.37036 -3.51427 0
M  V30 3226 H 305.436 -0.600167 -2.88933 0
M  V30 3227 H 305.517 -1.90958 -1.70202 0
M  V30 3228 H 305.161 -3.60361 -3.57913 0
M  V30 3229 H 305.091 -2.26587 -4.75359 0
M  V30 3230 H 307.582 -1.98105 -3.21812 0
M  V30 3231 H 307.895 -4.57042 -6.23164 0
M  V30 3232 H 306.24 -4.10469 -5.60839 0
M  V30 3233 H 309.431 -2.52525 -3.94143 0
M  V30 3234 H 309.604 -3.70584 -5.31575 0
M  V30 3235 N 303.011 1.40521 -0.713556 0
M  V30 3236 C 303.959 2.32549 -0.0485227 0
M  V30 3237 C 304.953 1.51931 0.74922 0
M  V30 3238 O 306.159 1.67745 0.652816 0
M  V30 3239 H 302.534 0.751994 0.00311138 0
M  V30 3240 H 304.505 2.86291 -0.841443 0
M  V30 3241 C 303.254 3.36879 0.860687 0
M  V30 3242 H 302.577 3.98978 0.256246 0
M  V30 3243 H 304.017 4.03772 1.294 0
M  V30 3244 C 302.476 2.72197 1.9852 0
M  V30 3245 O 303.006 2.5837 3.07584 0
M  V30 3246 N 301.212 2.30612 1.76823 0
M  V30 3247 H 300.759 2.42059 0.881217 0
M  V30 3248 H 300.717 1.87672 2.52243 0
M  V30 3249 N 304.489 0.459591 1.5075 0
M  V30 3250 C 305.714 -0.0996819 2.0716 0
M  V30 3251 C 306.139 -1.33761 1.32249 0
M  V30 3252 O 305.497 -1.77551 0.366786 0
M  V30 3253 C 305.545 -0.378226 3.58611 0
M  V30 3254 O 304.649 -1.46081 3.85661 0
M  V30 3255 H 303.99 0.00791392 0.663953 0
M  V30 3256 H 306.52 0.647329 1.9409 0
M  V30 3257 H 306.53 -0.622135 4.03229 0
M  V30 3258 H 305.205 0.526439 4.12555 0
M  V30 3259 H 303.782 -1.20511 3.5289 0
M  V30 3260 N 305.967 -1.56429 0.191757 0
M  V30 3261 C 307.207 -1.99383 -0.450099 0
M  V30 3262 C 307.571 -1.07581 -1.59029 0
M  V30 3263 O 308.772 -1.39758 -2.29611 0
M  V30 3264 C 307.043 -3.45841 -0.901611 0
M  V30 3265 S 308.602 -4.10822 -1.54177 0
M  V30 3266 H 305.42 -0.696253 -0.144057 0
M  V30 3267 H 308.022 -1.93276 0.294036 0
M  V30 3268 H 306.726 -4.10354 -0.0616596 0
M  V30 3269 H 306.257 -3.55757 -1.67929 0
M  V30 3270 H 308.272 -4.07553 -2.83046 0
M  V30 3271 N 307.445 0.0818655 -1.57387 0
M  V30 3272 C 308.355 1.11642 -2.06333 0
M  V30 3273 C 309.371 1.43033 -0.99083 0
M  V30 3274 O 310.547 1.53411 -1.30488 0
M  V30 3275 C 307.612 2.41342 -2.48907 0
M  V30 3276 C 306.673 2.17014 -3.7041 0
M  V30 3277 C 305.906 3.4053 -4.10944 0
M  V30 3278 O 306.129 4.4927 -3.51444 0
M  V30 3279 O 305.063 3.29336 -5.03807 0
M  V30 3280 H 308.889 0.730657 -2.9478 0
M  V30 3281 H 306.474 0.295301 -1.46452 0
M  V30 3282 H 308.356 3.17691 -2.76858 0
M  V30 3283 H 307.031 2.79319 -1.63593 0
M  V30 3284 H 305.938 1.38403 -3.47556 0
M  V30 3285 H 307.271 1.83923 -4.56545 0
M  V30 3286 N 308.923 1.53595 0.353017 0
M  V30 3287 C 310.169 1.70638 1.09593 0
M  V30 3288 C 310.502 0.463286 1.88593 0
M  V30 3289 O 309.777 -0.539597 1.86865 0
M  V30 3290 C 310.06 2.96406 2.04489 0
M  V30 3291 C 309.913 4.30901 1.29014 0
M  V30 3292 C 311.232 3.17812 3.0444 0
M  V30 3293 H 308.351 0.620913 0.397034 0
M  V30 3294 H 310.993 1.86254 0.375446 0
M  V30 3295 H 309.143 2.83223 2.65927 0
M  V30 3296 H 310.815 4.55917 0.702638 0
M  V30 3297 H 309.058 4.29741 0.592071 0
M  V30 3298 H 309.729 5.1506 1.98537 0
M  V30 3299 H 312.205 3.30263 2.53112 0
M  V30 3300 H 311.081 4.07223 3.6805 0
M  V30 3301 H 311.342 2.33669 3.75301 0
M  V30 3302 N 310.401 -0.613514 1.45168 0
M  V30 3303 C 311.311 -1.75296 1.55912 0
M  V30 3304 C 312.327 -1.68244 0.443856 0
M  V30 3305 O 313.503 -1.88706 0.70371 0
M  V30 3306 C 310.568 -3.1174 1.5172 0
M  V30 3307 C 309.629 -3.30291 2.74238 0
M  V30 3308 C 308.862 -4.60226 2.70236 0
M  V30 3309 O 309.085 -5.42168 1.77229 0
M  V30 3310 O 308.019 -4.81361 3.61352 0
M  V30 3311 H 311.845 -1.69183 2.52212 0
M  V30 3312 H 309.43 -0.776886 1.27612 0
M  V30 3313 H 311.312 -3.93044 1.51968 0
M  V30 3314 H 309.987 -3.18357 0.585697 0
M  V30 3315 H 308.894 -2.48598 2.79553 0
M  V30 3316 H 310.227 -3.28547 3.66494 0
M  V30 3317 N 311.879 -1.3236 -0.855495 0
M  V30 3318 C 313.128 -1.22226 -1.60448 0
M  V30 3319 C 313.441 0.214733 -1.94418 0
M  V30 3320 O 314.647 0.437917 -2.67945 0
M  V30 3321 C 313.103 -2.14063 -2.89318 0
M  V30 3322 C 312.711 -3.62839 -2.62777 0
M  V30 3323 C 314.455 -2.12764 -3.67331 0
M  V30 3324 C 312.362 -4.4664 -3.87643 0
M  V30 3325 H 311.292 -0.453904 -0.602069 0
M  V30 3326 H 313.943 -1.57314 -0.944698 0
M  V30 3327 H 312.325 -1.71889 -3.5675 0
M  V30 3328 H 313.499 -4.1335 -2.03662 0
M  V30 3329 H 311.814 -3.66261 -1.98096 0
M  V30 3330 H 314.411 -2.72611 -4.59987 0
M  V30 3331 H 314.754 -1.11841 -4.00995 0
M  V30 3332 H 315.287 -2.53214 -3.06802 0
M  V30 3333 H 312.026 -5.48373 -3.5912 0
M  V30 3334 H 311.546 -4.0088 -4.46156 0
M  V30 3335 H 313.225 -4.59597 -4.55389 0
M  V30 3336 N 313.357 1.07166 -1.15556 0
M  V30 3337 C 314.582 1.84053 -0.955988 0
M  V30 3338 C 315.007 1.81586 0.490739 0
M  V30 3339 O 314.365 1.21018 1.34997 0
M  V30 3340 C 314.413 3.28957 -1.47714 0
M  V30 3341 O 313.517 4.06795 -0.677593 0
M  V30 3342 H 312.858 0.569842 -0.340847 0
M  V30 3343 H 315.388 1.35178 -1.53584 0
M  V30 3344 H 315.398 3.79788 -1.4908 0
M  V30 3345 H 314.073 3.30068 -2.53037 0
M  V30 3346 H 312.65 3.6561 -0.733721 0
M  V30 3347 N 314.835 0.952656 1.25548 0
M  V30 3348 C 316.251 0.656769 1.4546 0
M  V30 3349 C 316.451 -0.78633 1.85524 0
M  V30 3350 O 315.507 -1.56183 1.98402 0
M  V30 3351 C 316.82 1.62801 2.52817 0
M  V30 3352 C 318.368 1.63897 2.66659 0
M  V30 3353 C 318.843 2.5978 3.77198 0
M  V30 3354 N 320.334 2.58133 3.84606 0
M  V30 3355 C 321.069 3.29003 4.69621 0
M  V30 3356 N 320.565 4.09339 5.58939 0
M  V30 3357 N 322.358 3.179 4.63569 0
M  V30 3358 H 314.509 1.88526 0.978344 0
M  V30 3359 H 316.772 0.810815 0.491206 0
M  V30 3360 H 316.478 2.65869 2.30232 0
M  V30 3361 H 316.352 1.38898 3.50695 0
M  V30 3362 H 318.739 0.615481 2.8861 0
M  V30 3363 H 318.82 1.91858 1.69187 0
M  V30 3364 H 318.464 3.62254 3.55997 0
M  V30 3365 H 318.394 2.29105 4.7415 0
M  V30 3366 H 320.885 1.99809 3.20757 0
M  V30 3367 H 321.198 4.6034 6.20731 0
M  V30 3368 H 319.543 4.13438 5.58654 0
M  V30 3369 H 322.734 2.54612 3.92798 0
M  V30 3370 H 322.907 3.73398 5.29602 0
M  V30 3371 N 316.313 -1.40141 0.720998 0
M  V30 3372 C 317.559 -2.01084 0.263231 0
M  V30 3373 C 317.892 -1.57052 -1.14229 0
M  V30 3374 O 317.167 -0.793027 -1.77599 0
M  V30 3375 C 317.45 -3.58401 0.349344 0
M  V30 3376 C 317.303 -4.12491 1.79363 0
M  V30 3377 C 318.622 -4.39231 -0.276351 0
M  V30 3378 H 315.741 -0.730572 0.0971228 0
M  V30 3379 H 318.383 -1.66543 0.914518 0
M  V30 3380 H 316.533 -3.87958 -0.205165 0
M  V30 3381 H 318.205 -3.93711 2.40394 0
M  V30 3382 H 316.448 -3.66576 2.31958 0
M  V30 3383 H 317.119 -5.21646 1.80524 0
M  V30 3384 H 319.595 -4.15637 0.196184 0
M  V30 3385 H 318.471 -5.48586 -0.185681 0
M  V30 3386 H 318.732 -4.20643 -1.36059 0
M  V30 3387 N 317.792 -0.46758 -1.50504 0
M  V30 3388 C 318.755 0.317059 -2.26996 0
M  V30 3389 C 319.755 0.923513 -1.31635 0
M  V30 3390 O 320.945 0.793239 -1.55091 0
M  V30 3391 C 318.077 1.45134 -3.08462 0
M  V30 3392 H 319.27 -0.353723 -2.97807 0
M  V30 3393 H 316.823 -0.221545 -1.54722 0
M  V30 3394 H 317.558 2.15728 -2.4214 0
M  V30 3395 H 317.343 1.02232 -3.78538 0
M  V30 3396 H 318.833 2.00493 -3.66323 0
M  V30 3397 N 319.27 1.56325 -0.20005 0
M  V30 3398 C 320.218 2.20666 0.735482 0
M  V30 3399 C 321.212 1.17934 1.21605 0
M  V30 3400 O 322.418 1.36068 1.17837 0
M  V30 3401 H 318.793 0.70725 0.255542 0
M  V30 3402 H 320.764 2.9792 0.169166 0
M  V30 3403 C 319.513 2.88391 1.94232 0
M  V30 3404 H 318.836 3.67185 1.58161 0
M  V30 3405 H 320.276 3.3684 2.57517 0
M  V30 3406 C 318.735 1.89692 2.78421 0
M  V30 3407 O 319.265 1.40032 3.76502 0
M  V30 3408 N 317.471 1.57813 2.44015 0
M  V30 3409 H 317.018 1.9839 1.64314 0
M  V30 3410 H 316.976 0.920325 3.00628 0
M  V30 3411 N 320.748 -0.0735177 1.57428 0
M  V30 3412 C 322.164 -0.428264 1.53747 0
M  V30 3413 C 322.364 -1.79272 0.91998 0
M  V30 3414 O 321.42 -2.47051 0.521745 0
M  V30 3415 C 322.733 -0.370914 2.98404 0
M  V30 3416 C 324.281 -0.451224 3.0973 0
M  V30 3417 C 324.756 -0.4238 4.56035 0
M  V30 3418 N 326.247 -0.483925 4.60665 0
M  V30 3419 C 326.982 -0.484891 5.71346 0
M  V30 3420 N 326.478 -0.440775 6.91396 0
M  V30 3421 N 328.271 -0.531319 5.59583 0
M  V30 3422 H 320.422 0.819949 1.95935 0
M  V30 3423 H 322.685 0.307493 0.896745 0
M  V30 3424 H 322.391 0.564956 3.47133 0
M  V30 3425 H 322.265 -1.18176 3.5821 0
M  V30 3426 H 324.652 -1.37752 2.60976 0
M  V30 3427 H 324.733 0.388167 2.52838 0
M  V30 3428 H 324.377 0.498638 5.05446 0
M  V30 3429 H 324.307 -1.2807 5.10789 0
M  V30 3430 H 326.798 -0.522338 3.74273 0
M  V30 3431 H 327.111 -0.44539 7.71515 0
M  V30 3432 H 325.456 -0.40749 6.93804 0
M  V30 3433 H 328.647 -0.563464 4.64696 0
M  V30 3434 H 328.82 -0.528603 6.4584 0
M  V30 3435 N 322.226 -1.5378 -0.344866 0
M  V30 3436 C 323.472 -1.71216 -1.08687 0
M  V30 3437 C 323.805 -0.473281 -1.88345 0
M  V30 3438 O 323.08 0.52968 -1.87149 0
M  V30 3439 C 323.363 -2.97486 -2.02914 0
M  V30 3440 C 323.216 -4.31579 -1.26727 0
M  V30 3441 C 324.535 -3.19422 -3.0275 0
M  V30 3442 H 321.654 -0.62301 -0.393735 0
M  V30 3443 H 324.296 -1.8645 -0.365563 0
M  V30 3444 H 322.446 -2.84629 -2.64421 0
M  V30 3445 H 324.118 -4.56284 -0.67845 0
M  V30 3446 H 322.361 -4.30049 -0.569273 0
M  V30 3447 H 323.032 -5.16106 -1.95803 0
M  V30 3448 H 325.508 -3.316 -2.51357 0
M  V30 3449 H 324.384 -4.09169 -3.65885 0
M  V30 3450 H 324.645 -2.35656 -3.74057 0
M  V30 3451 N 323.704 0.605807 -1.45491 0
M  V30 3452 C 324.634 1.72709 -1.57143 0
M  V30 3453 C 325.615 1.6476 -0.422884 0
M  V30 3454 O 326.8 1.83132 -0.646247 0
M  V30 3455 C 323.93 3.11316 -1.53948 0
M  V30 3456 C 322.884 3.34077 -2.67537 0
M  V30 3457 C 322.21 4.72975 -2.49397 0
M  V30 3458 C 323.51 3.24158 -4.09535 0
M  V30 3459 H 325.204 1.63214 -2.51001 0
M  V30 3460 H 322.75 0.78379 -1.208 0
M  V30 3461 H 324.703 3.89557 -1.60696 0
M  V30 3462 H 323.427 3.21655 -0.566205 0
M  V30 3463 H 322.086 2.58227 -2.6022 0
M  V30 3464 H 321.734 4.8005 -1.50205 0
M  V30 3465 H 321.434 4.8916 -3.25571 0
M  V30 3466 H 322.958 5.53414 -2.58002 0
M  V30 3467 H 324.372 3.92271 -4.18086 0
M  V30 3468 H 322.769 3.51872 -4.86113 0
M  V30 3469 H 323.839 2.2157 -4.31317 0
M  V30 3470 N 325.182 1.32811 0.848464 0
M  V30 3471 C 326.459 1.14334 1.58704 0
M  V30 3472 C 326.839 -0.293948 2.09043 0
M  V30 3473 O 326.187 -1.29153 1.88499 0
M  V30 3474 C 326.397 2.17626 2.72837 0
M  V30 3475 C 327.745 2.51282 3.42261 0
M  V30 3476 O 328.769 2.16219 2.83068 0
M  V30 3477 O 327.628 3.11413 4.49093 0
M  V30 3478 H 324.722 0.441601 0.699226 0
M  V30 3479 H 327.268 1.44362 0.892053 0
M  V30 3480 H 326.04 3.14211 2.3321 0
M  V30 3481 H 325.663 1.88628 3.50008 0
M  V30 3482 N 326.66 -1.06551 1.16123 0
M  V30 3483 C 327.57 -2.17484 0.879662 0
M  V30 3484 C 328.586 -1.73377 -0.147104 0
M  V30 3485 O 329.762 -2.01379 0.0289128 0
M  V30 3486 C 326.827 -3.44591 0.381829 0
M  V30 3487 C 325.888 -4.0322 1.4735 0
M  V30 3488 C 325.121 -5.24261 0.999324 0
M  V30 3489 O 325.344 -5.70198 -0.151957 0
M  V30 3490 O 324.278 -5.74775 1.78653 0
M  V30 3491 H 328.104 -2.44075 1.80724 0
M  V30 3492 H 325.689 -1.16042 0.940992 0
M  V30 3493 H 327.571 -4.21254 0.111053 0
M  V30 3494 H 326.246 -3.19532 -0.51777 0
M  V30 3495 H 325.153 -3.2806 1.79798 0
M  V30 3496 H 326.486 -4.32568 2.34831 0
M  V30 3497 N 328.138 -0.959301 -1.25041 0
M  V30 3498 C 329.068 -0.501388 -2.28053 0
M  V30 3499 C 330.049 0.454673 -1.63911 0
M  V30 3500 O 331.234 0.352618 -1.90972 0
M  V30 3501 C 328.364 0.217224 -3.4662 0
M  V30 3502 C 327.318 -0.654034 -4.22973 0
M  V30 3503 C 326.644 0.195589 -5.34342 0
M  V30 3504 C 327.944 -1.93447 -4.85155 0
M  V30 3505 H 329.638 -1.36238 -2.66608 0
M  V30 3506 H 327.184 -0.656534 -1.28163 0
M  V30 3507 H 329.137 0.548732 -4.17812 0
M  V30 3508 H 327.861 1.1125 -3.07068 0
M  V30 3509 H 326.52 -0.968693 -3.5357 0
M  V30 3510 H 326.168 1.09076 -4.91031 0
M  V30 3511 H 325.868 -0.384091 -5.86343 0
M  V30 3512 H 327.392 0.521958 -6.08365 0
M  V30 3513 H 328.806 -1.66908 -5.48466 0
M  V30 3514 H 327.203 -2.46018 -5.47353 0
M  V30 3515 H 328.273 -2.63466 -4.07079 0
M  V30 3516 N 329.616 1.39756 -0.72842 0
M  V30 3517 C 330.862 2.00942 -0.273892 0
M  V30 3518 C 331.195 1.57656 1.13394 0
M  V30 3519 O 330.47 0.802434 1.77176 0
M  V30 3520 C 330.753 3.58211 -0.368346 0
M  V30 3521 C 330.606 4.11534 -1.81548 0
M  V30 3522 C 331.925 4.39372 0.253054 0
M  V30 3523 H 329.044 0.730047 -0.100996 0
M  V30 3524 H 331.686 1.66056 -0.923337 0
M  V30 3525 H 329.836 3.88061 0.184588 0
M  V30 3526 H 331.508 3.92431 -2.42478 0
M  V30 3527 H 329.751 3.65341 -2.33898 0
M  V30 3528 H 330.422 5.20682 -1.83288 0
M  V30 3529 H 332.898 4.15527 -0.218224 0
M  V30 3530 H 331.774 5.48677 0.156585 0
M  V30 3531 H 332.035 4.21358 1.33826 0
M  V30 3532 N 331.094 0.475555 1.50254 0
M  V30 3533 C 332.51 0.12997 1.5907 0
M  V30 3534 C 332.71 -1.36385 1.48328 0
M  V30 3535 O 331.766 -2.13754 1.34407 0
M  V30 3536 C 333.079 0.684139 2.92814 0
M  V30 3537 C 334.627 0.647965 3.0622 0
M  V30 3538 C 335.102 1.17975 4.42545 0
M  V30 3539 N 336.593 1.13936 4.48969 0
M  V30 3540 C 337.328 1.52129 5.52851 0
M  V30 3541 N 336.824 1.97793 6.63965 0
M  V30 3542 N 338.617 1.43704 5.4342 0
M  V30 3543 H 330.768 1.44706 1.55479 0
M  V30 3544 H 333.031 0.598691 0.735033 0
M  V30 3545 H 332.737 1.73079 3.06164 0
M  V30 3546 H 332.611 0.130204 3.76975 0
M  V30 3547 H 334.998 -0.38979 2.92514 0
M  V30 3548 H 335.079 1.23876 2.23805 0
M  V30 3549 H 334.723 2.21616 4.57 0
M  V30 3550 H 334.653 0.565138 5.23559 0
M  V30 3551 H 337.144 0.804488 3.69238 0
M  V30 3552 H 337.457 2.25072 7.39299 0
M  V30 3553 H 335.802 2.01749 6.65073 0
M  V30 3554 H 338.993 1.07867 4.55502 0
M  V30 3555 H 339.166 1.73794 6.24259 0
M  V30 3556 N 332.573 -1.56217 0.208337 0
M  V30 3557 C 333.984 -1.84243 -0.301904 0
M  V30 3558 C 334.335 -1.12939 -1.60434 0
M  V30 3559 O 333.46 -0.39461 -2.12772 0
M  V30 3560 C 334.055 -3.34231 -0.554543 0
M  V30 3561 C 332.614 -3.62621 -1.00912 0
M  V30 3562 C 331.761 -2.77224 -0.064933 0
M  V30 3563 H 334.712 -1.52712 0.431833 0
M  V30 3564 H 334.733 -3.5372 -1.40223 0
M  V30 3565 H 334.245 -3.86099 0.393561 0
M  V30 3566 H 332.346 -3.16197 -1.97104 0
M  V30 3567 H 332.459 -4.7071 -0.892674 0
M  V30 3568 H 330.823 -2.48256 -0.56929 0
M  V30 3569 H 331.606 -3.31887 0.877851 0
M  V30 3570 N 334.051 0.0651679 -1.57465 0
M  V30 3571 C 335.298 0.763063 -1.87573 0
M  V30 3572 C 335.626 1.77242 -0.800961 0
M  V30 3573 O 334.881 1.94651 0.202316 0
M  V30 3574 C 335.18 1.50081 -3.24362 0
M  V30 3575 C 334.846 0.630816 -4.46466 0
M  V30 3576 C 333.508 0.391082 -4.79608 0
M  V30 3577 C 335.86 0.0279465 -5.21193 0
M  V30 3578 C 333.188 -0.460894 -5.84887 0
M  V30 3579 C 335.54 -0.811522 -6.27373 0
M  V30 3580 C 334.204 -1.06106 -6.59013 0
M  V30 3581 H 333.474 0.279224 -0.686378 0
M  V30 3582 H 336.121 0.0236726 -1.91485 0
M  V30 3583 H 334.426 2.31258 -3.16271 0
M  V30 3584 H 336.123 2.04571 -3.44894 0
M  V30 3585 H 332.713 0.8278 -4.2053 0
M  V30 3586 H 336.897 0.200262 -4.95896 0
M  V30 3587 H 332.153 -0.662907 -6.07796 0
M  V30 3588 H 336.327 -1.28537 -6.84435 0
M  V30 3589 H 333.954 -1.723 -7.40417 0
M  V30 3590 N 335.529 1.53961 0.336706 0
M  V30 3591 C 336.461 1.78751 1.4346 0
M  V30 3592 C 337.474 0.669019 1.48418 0
M  V30 3593 O 338.663 0.945884 1.51378 0
M  V30 3594 C 335.763 1.87844 2.82078 0
M  V30 3595 C 334.936 3.17854 3.00479 0
M  V30 3596 C 333.995 3.17816 4.19379 0
M  V30 3597 O 333.021 3.91511 4.13168 0
M  V30 3598 N 334.223 2.40669 5.2826 0
M  V30 3599 H 336.988 2.73493 1.22563 0
M  V30 3600 H 334.549 1.53096 0.526625 0
M  V30 3601 H 336.541 1.85261 3.59806 0
M  V30 3602 H 335.111 1.00257 2.96086 0
M  V30 3603 H 334.331 3.33504 2.10163 0
M  V30 3604 H 335.619 4.03718 3.0966 0
M  V30 3605 H 335.017 1.8036 5.36178 0
M  V30 3606 H 333.574 2.43877 6.04456 0
M  V30 3607 N 337.007 -0.598083 1.45811 0
M  V30 3608 C 337.917 -1.73632 1.57763 0
M  V30 3609 C 338.933 -1.67763 0.461676 0
M  V30 3610 O 340.109 -1.87949 0.723685 0
M  V30 3611 C 337.174 -3.10114 1.55018 0
M  V30 3612 C 336.235 -3.27364 2.77726 0
M  V30 3613 C 335.468 -4.57334 2.75102 0
M  V30 3614 O 335.691 -5.40258 1.8297 0
M  V30 3615 O 334.625 -4.77502 3.66437 0
M  V30 3616 H 338.451 -1.66498 2.53992 0
M  V30 3617 H 336.036 -0.763308 1.28429 0
M  V30 3618 H 337.918 -3.9141 1.56129 0
M  V30 3619 H 336.593 -3.17718 0.619431 0
M  V30 3620 H 335.5 -2.45619 2.82174 0
M  V30 3621 H 336.833 -3.24641 3.69958 0
M  V30 3622 N 338.485 -1.33259 -0.841409 0
M  V30 3623 C 339.734 -1.23921 -1.59143 0
M  V30 3624 C 340.047 0.1941 -1.94635 0
M  V30 3625 O 341.253 0.409474 -2.68394 0
M  V30 3626 C 339.709 -2.17119 -2.87032 0
M  V30 3627 C 339.317 -3.65606 -2.58914 0
M  V30 3628 C 341.061 -2.16648 -3.65053 0
M  V30 3629 C 338.968 -4.50726 -3.82884 0
M  V30 3630 H 337.898 -0.460264 -0.597221 0
M  V30 3631 H 340.549 -1.58307 -0.927959 0
M  V30 3632 H 338.931 -1.75663 -3.54906 0
M  V30 3633 H 340.105 -4.15487 -1.99267 0
M  V30 3634 H 338.42 -3.68341 -1.942 0
M  V30 3635 H 341.017 -2.77474 -4.57069 0
M  V30 3636 H 341.36 -1.16088 -3.99787 0
M  V30 3637 H 341.893 -2.56453 -3.041 0
M  V30 3638 H 338.632 -5.52151 -3.53283 0
M  V30 3639 H 338.152 -4.0559 -4.41879 0
M  V30 3640 H 339.831 -4.64401 -4.50489 0
M  V30 3641 N 339.963 1.05934 -1.16686 0
M  V30 3642 C 340.895 2.13468 -0.834503 0
M  V30 3643 C 341.908 1.62013 0.15984 0
M  V30 3644 O 343.097 1.7838 -0.0654228 0
M  V30 3645 C 340.197 3.3817 -0.222361 0
M  V30 3646 C 339.37 4.18928 -1.25771 0
M  V30 3647 C 338.429 5.21985 -0.664703 0
M  V30 3648 O 337.455 5.53334 -1.33453 0
M  V30 3649 N 338.657 5.77919 0.546834 0
M  V30 3650 H 341.422 2.42578 -1.75999 0
M  V30 3651 H 338.983 1.21967 -1.06469 0
M  V30 3652 H 340.975 4.04266 0.187472 0
M  V30 3653 H 339.545 3.06655 0.606758 0
M  V30 3654 H 338.765 3.48433 -1.84358 0
M  V30 3655 H 340.053 4.69687 -1.95631 0
M  V30 3656 H 339.451 5.54721 1.10912 0
M  V30 3657 H 338.008 6.45573 0.898829 0
M  V30 3658 N 341.441 0.965919 1.2453 0
M  V30 3659 C 342.69 0.622437 1.91856 0
M  V30 3660 C 343.003 -0.846006 1.76358 0
M  V30 3661 O 344.209 -1.29993 2.38357 0
M  V30 3662 C 342.665 1.0626 3.43856 0
M  V30 3663 C 342.273 2.55437 3.68043 0
M  V30 3664 C 344.017 0.792183 4.17043 0
M  V30 3665 C 341.924 2.93196 5.13605 0
M  V30 3666 H 340.854 0.229092 0.718354 0
M  V30 3667 H 343.505 1.17189 1.41206 0
M  V30 3668 H 341.887 0.441476 3.93531 0
M  V30 3669 H 343.061 3.22665 3.28974 0
M  V30 3670 H 341.376 2.8007 3.08139 0
M  V30 3671 H 343.973 1.05031 5.24283 0
M  V30 3672 H 344.316 -0.271584 4.15413 0
M  V30 3673 H 344.849 1.37419 3.73311 0
M  V30 3674 H 341.588 3.98636 5.20355 0
M  V30 3675 H 341.108 2.30651 5.53679 0
M  V30 3676 H 342.787 2.83004 5.81823 0
M  V30 3677 N 342.919 -1.39368 0.735821 0
M  V30 3678 C 344.196 -1.94465 0.210395 0
M  V30 3679 C 344.576 -1.67254 -1.28799 0
M  V30 3680 O 343.924 -1.00123 -2.05396 0
M  V30 3681 C 344.134 -3.4472 0.544897 0
M  V30 3682 C 345.482 -4.21708 0.494689 0
M  V30 3683 O 346.506 -3.52922 0.482136 0
M  V30 3684 O 345.365 -5.44299 0.489947 0
M  V30 3685 H 342.459 -0.826096 0.0386666 0
M  V30 3686 H 345.005 -1.48863 0.814735 0
M  V30 3687 H 343.777 -3.57963 1.58045 0
M  V30 3688 H 343.4 -3.97502 -0.08837 0
M  V30 3689 N 344.397 -0.483516 -1.5 0
M  V30 3690 C 345.674 0.129337 -1.95172 0
M  V30 3691 C 346.054 1.55802 -1.4244 0
M  V30 3692 O 345.402 2.19625 -0.630649 0
M  V30 3693 C 345.612 0.0599251 -3.48949 0
M  V30 3694 C 346.96 0.242617 -4.23906 0
M  V30 3695 O 347.984 0.135933 -3.55941 0
M  V30 3696 O 346.843 0.459454 -5.44565 0
M  V30 3697 H 343.937 0.104887 -0.820322 0
M  V30 3698 H 346.483 -0.544807 -1.60717 0
M  V30 3699 H 345.255 -0.937079 -3.79914 0
M  V30 3700 H 344.878 0.774984 -3.89974 0
M  V30 3701 N 345.875 1.56104 -0.216619 0
M  V30 3702 C 346.823 2.21434 0.712036 0
M  V30 3703 C 347.817 1.19218 1.20348 0
M  V30 3704 O 349.023 1.3731 1.16387 0
M  V30 3705 H 345.398 0.70992 0.248026 0
M  V30 3706 H 347.369 2.98083 0.137558 0
M  V30 3707 C 346.118 2.90434 1.91163 0
M  V30 3708 H 345.441 3.68842 1.54258 0
M  V30 3709 H 346.881 3.39552 2.5393 0
M  V30 3710 C 345.34 1.92635 2.76394 0
M  V30 3711 O 345.87 1.44017 3.74996 0
M  V30 3712 N 344.076 1.60392 2.42328 0
M  V30 3713 H 343.623 2.00122 1.622 0
M  V30 3714 H 343.581 0.952159 2.99635 0
M  V30 3715 N 347.353 -0.0568162 1.57498 0
M  V30 3716 C 348.263 -1.08346 2.08083 0
M  V30 3717 C 349.279 -1.41439 1.01346 0
M  V30 3718 O 350.455 -1.51316 1.32912 0
M  V30 3719 C 347.52 -2.37352 2.52715 0
M  V30 3720 C 346.581 -2.11093 3.73816 0
M  V30 3721 C 345.814 -3.33949 4.1631 0
M  V30 3722 O 346.037 -4.43622 3.58547 0
M  V30 3723 O 344.971 -3.21279 5.08983 0
M  V30 3724 H 348.797 -0.683667 2.95905 0
M  V30 3725 H 346.382 -0.271965 1.46904 0
M  V30 3726 H 348.264 -3.13246 2.81877 0
M  V30 3727 H 346.939 -2.76681 1.68016 0
M  V30 3728 H 345.846 -1.32856 3.49714 0
M  V30 3729 H 347.179 -1.76637 4.59413 0
M  V30 3730 N 348.832 -1.54138 -0.328536 0
M  V30 3731 C 350.062 -1.75807 -1.08516 0
M  V30 3732 C 350.47 -0.50428 -1.82356 0
M  V30 3733 O 349.813 0.534451 -1.75754 0
M  V30 3734 C 349.875 -2.89423 -2.13248 0
M  V30 3735 C 349.539 -4.28504 -1.5885 0
M  V30 3736 C 350.536 -5.09536 -1.03289 0
M  V30 3737 C 348.221 -4.75034 -1.63243 0
M  V30 3738 C 350.215 -6.35206 -0.52845 0
M  V30 3739 C 347.902 -6.00672 -1.12411 0
M  V30 3740 C 348.9 -6.80592 -0.573062 0
M  V30 3741 O 348.588 -8.03867 -0.0723692 0
M  V30 3742 H 348.32 -0.590633 -0.328829 0
M  V30 3743 H 350.874 -2.01819 -0.381868 0
M  V30 3744 H 349.104 -2.5897 -2.87178 0
M  V30 3745 H 350.793 -2.98921 -2.74592 0
M  V30 3746 H 351.559 -4.74745 -0.99206 0
M  V30 3747 H 347.438 -4.12875 -2.05074 0
M  V30 3748 H 350.982 -6.97532 -0.0976774 0
M  V30 3749 H 346.879 -6.34955 -1.162 0
M  V30 3750 H 347.647 -8.18283 -0.188258 0
M  V30 3751 N 350.31 0.590341 -1.46126 0
M  V30 3752 C 351.273 1.68194 -1.55703 0
M  V30 3753 C 352.273 1.54808 -0.434868 0
M  V30 3754 O 353.463 1.59564 -0.698928 0
M  V30 3755 C 350.595 3.07575 -1.47005 0
M  V30 3756 H 351.788 1.61064 -2.52979 0
M  V30 3757 H 349.341 0.807541 -1.33823 0
M  V30 3758 H 350.076 3.20268 -0.509785 0
M  V30 3759 H 349.861 3.187 -2.28414 0
M  V30 3760 H 351.351 3.87055 -1.56776 0
M  V30 3761 N 351.788 1.33704 0.83433 0
M  V30 3762 C 353.028 1.26754 1.60352 0
M  V30 3763 C 353.392 -0.163182 1.91305 0
M  V30 3764 O 354.593 -0.3567 2.66423 0
M  V30 3765 C 352.864 2.12262 2.8754 0
M  V30 3766 S 354.423 2.22549 3.78176 0
M  V30 3767 H 351.241 0.450879 0.549753 0
M  V30 3768 H 353.843 1.68788 0.986444 0
M  V30 3769 H 352.547 3.15238 2.62779 0
M  V30 3770 H 352.078 1.71082 3.54252 0
M  V30 3771 H 354.093 1.3899 4.76336 0
M  V30 3772 N 353.266 -1.05314 1.17247 0
M  V30 3773 C 354.196 -2.1498 0.911362 0
M  V30 3774 C 355.177 -1.69471 -0.146169 0
M  V30 3775 O 356.362 -1.942 0.003812 0
M  V30 3776 C 353.492 -3.4472 0.422528 0
M  V30 3777 C 352.446 -4.03789 1.4191 0
M  V30 3778 C 351.772 -5.28858 0.788274 0
M  V30 3779 C 353.072 -4.41418 2.7919 0
M  V30 3780 H 354.766 -2.3708 1.82848 0
M  V30 3781 H 352.312 -1.13938 0.880569 0
M  V30 3782 H 354.265 -4.20787 0.227289 0
M  V30 3783 H 352.989 -3.22269 -0.530123 0
M  V30 3784 H 351.648 -3.2979 1.60106 0
M  V30 3785 H 351.296 -5.02709 -0.171173 0
M  V30 3786 H 350.996 -5.69338 1.45353 0
M  V30 3787 H 352.52 -6.07612 0.603282 0
M  V30 3788 H 353.934 -5.08524 2.64719 0
M  V30 3789 H 352.331 -4.92913 3.42282 0
M  V30 3790 H 353.401 -3.51819 3.33693 0
M  V30 3791 N 354.744 -0.972509 -1.24016 0
M  V30 3792 C 355.691 -0.505969 -2.25186 0
M  V30 3793 C 356.661 0.451009 -1.5986 0
M  V30 3794 O 357.846 0.360307 -1.87367 0
M  V30 3795 C 354.986 0.193089 -3.44559 0
M  V30 3796 C 354.099 -0.803222 -4.24467 0
M  V30 3797 C 353.234 -0.0797793 -5.3114 0
M  V30 3798 C 352.273 -1.06583 -6.02749 0
M  V30 3799 N 351.41 -0.372074 -7.01113 0
M  V30 3800 H 356.25 -1.37351 -2.64459 0
M  V30 3801 H 353.787 -0.688419 -1.29997 0
M  V30 3802 H 355.745 0.615125 -4.1264 0
M  V30 3803 H 354.375 1.02455 -3.06109 0
M  V30 3804 H 353.427 -1.34368 -3.55878 0
M  V30 3805 H 354.739 -1.55494 -4.73944 0
M  V30 3806 H 353.893 0.400015 -6.0538 0
M  V30 3807 H 352.632 0.704597 -4.82583 0
M  V30 3808 H 351.637 -1.55645 -5.27309 0
M  V30 3809 H 352.862 -1.85074 -6.53395 0
M  V30 3810 H 350.808 0.393238 -6.5482 0
M  V30 3811 H 350.725 -1.06258 -7.48495 0
M  V30 3812 H 351.993 0.0855932 -7.79453 0
M  V30 3813 N 356.222 1.38976 -0.743202 0
M  V30 3814 C 357.185 2.28901 -0.117014 0
M  V30 3815 C 358.185 1.46698 0.658503 0
M  V30 3816 O 359.375 1.67274 0.486305 0
M  V30 3817 C 356.507 3.30309 0.84315 0
M  V30 3818 H 357.7 2.8578 -0.909373 0
M  V30 3819 H 355.253 1.47761 -0.509547 0
M  V30 3820 H 355.988 2.785 1.66157 0
M  V30 3821 H 355.773 3.91029 0.289594 0
M  V30 3822 H 357.263 3.97577 1.2776 0
M  V30 3823 N 357.7 0.491464 1.49741 0
M  V30 3824 C 358.949 -0.0582189 2.01616 0
M  V30 3825 C 359.262 -1.38927 1.3769 0
M  V30 3826 O 360.468 -2.02509 1.80838 0
M  V30 3827 C 358.924 -0.154235 3.59569 0
M  V30 3828 C 358.532 1.1696 4.32463 0
M  V30 3829 C 360.276 -0.65479 4.1942 0
M  V30 3830 C 358.183 1.03627 5.8225 0
M  V30 3831 H 357.113 -0.0255317 0.753568 0
M  V30 3832 H 359.764 0.629445 1.72367 0
M  V30 3833 H 358.146 -0.906138 3.85493 0
M  V30 3834 H 359.32 1.93405 4.18248 0
M  V30 3835 H 357.635 1.60285 3.84315 0
M  V30 3836 H 360.232 -0.771903 5.29099 0
M  V30 3837 H 360.575 -1.65127 3.8215 0
M  V30 3838 H 361.108 0.040304 3.9778 0
M  V30 3839 H 357.847 2.00672 6.24028 0
M  V30 3840 H 357.367 0.312546 5.98985 0
M  V30 3841 H 359.046 0.711114 6.4308 0
M  V30 3842 N 359.178 -1.55987 0.224894 0
M  V30 3843 C 360.424 -1.98684 -0.406502 0
M  V30 3844 C 360.757 -1.11248 -1.59177 0
M  V30 3845 O 360.032 -0.170909 -1.93748 0
M  V30 3846 C 360.315 -3.50218 -0.837808 0
M  V30 3847 C 360.168 -4.48426 0.351332 0
M  V30 3848 C 361.487 -4.06243 -1.69278 0
M  V30 3849 H 358.606 -0.722337 -0.146283 0
M  V30 3850 H 361.248 -1.87255 0.321799 0
M  V30 3851 H 359.398 -3.60089 -1.45837 0
M  V30 3852 H 361.07 -4.50562 0.989526 0
M  V30 3853 H 359.313 -4.22159 0.998207 0
M  V30 3854 H 359.984 -5.52 0.00655905 0
M  V30 3855 H 362.46 -3.99337 -1.16914 0
M  V30 3856 H 361.336 -5.12581 -1.96346 0
M  V30 3857 H 361.597 -3.53332 -2.65723 0
M  V30 3858 N 360.656 0.0484629 -1.57525 0
M  V30 3859 C 361.903 0.743125 -1.88372 0
M  V30 3860 C 362.231 1.76383 -0.819715 0
M  V30 3861 O 361.486 1.94855 0.181659 0
M  V30 3862 C 361.785 1.46632 -3.25935 0
M  V30 3863 C 361.451 0.583427 -4.4711 0
M  V30 3864 C 360.113 0.340191 -4.79996 0
M  V30 3865 C 362.465 -0.0273345 -5.21193 0
M  V30 3866 C 359.793 -0.522903 -5.84365 0
M  V30 3867 C 362.145 -0.878017 -6.26477 0
M  V30 3868 C 360.809 -1.1309 -6.5785 0
M  V30 3869 H 360.079 0.271929 -0.689301 0
M  V30 3870 H 362.726 0.00336166 -1.915 0
M  V30 3871 H 361.031 2.2789 -3.18706 0
M  V30 3872 H 362.728 2.00902 -3.47044 0
M  V30 3873 H 359.318 0.783151 -4.21384 0
M  V30 3874 H 363.502 0.147654 -4.9608 0
M  V30 3875 H 358.758 -0.727335 -6.07058 0
M  V30 3876 H 362.932 -1.35789 -6.83033 0
M  V30 3877 H 360.559 -1.80144 -7.38547 0
M  V30 3878 N 362.134 1.5431 0.320358 0
M  V30 3879 C 363.381 1.72668 1.05792 0
M  V30 3880 C 363.709 0.502084 1.87908 0
M  V30 3881 O 362.964 -0.516149 1.88771 0
M  V30 3882 C 363.263 2.95639 2.00828 0
M  V30 3883 C 362.929 4.30265 1.34843 0
M  V30 3884 C 361.591 4.66865 1.16578 0
M  V30 3885 C 363.943 5.13801 0.875095 0
M  V30 3886 C 361.271 5.84597 0.496336 0
M  V30 3887 C 363.623 6.32219 0.219463 0
M  V30 3888 C 362.287 6.67495 0.0246915 0
M  V30 3889 H 361.557 0.631837 0.387121 0
M  V30 3890 H 364.204 1.88552 0.334735 0
M  V30 3891 H 362.509 2.74456 2.79609 0
M  V30 3892 H 364.206 3.07038 2.57932 0
M  V30 3893 H 360.796 4.01472 1.50061 0
M  V30 3894 H 364.98 4.86039 1.00398 0
M  V30 3895 H 360.236 6.10486 0.334264 0
M  V30 3896 H 364.41 6.96227 -0.155291 0
M  V30 3897 H 362.037 7.5858 -0.496065 0
M  V30 3898 N 363.613 -0.582584 1.46437 0
M  V30 3899 C 364.89 -1.34276 1.4223 0
M  V30 3900 C 365.27 -2.10835 0.10583 0
M  V30 3901 O 364.618 -2.09485 -0.912596 0
M  V30 3902 C 364.828 -2.26865 2.65204 0
M  V30 3903 C 366.176 -2.88691 3.11356 0
M  V30 3904 O 367.2 -2.37178 2.65753 0
M  V30 3905 O 366.059 -3.82255 3.90568 0
M  V30 3906 H 363.153 -0.603326 0.565621 0
M  V30 3907 H 365.699 -0.603591 1.58603 0
M  V30 3908 H 364.471 -1.69724 3.52576 0
M  V30 3909 H 364.094 -3.08122 2.5129 0
M  V30 3910 N 365.091 -1.34144 -0.827227 0
M  V30 3911 C 366.502 -1.23557 -1.39966 0
M  V30 3912 C 366.853 0.140731 -1.95695 0
M  V30 3913 O 365.978 1.04087 -1.89723 0
M  V30 3914 C 366.573 -2.23708 -2.54441 0
M  V30 3915 C 365.132 -2.16924 -3.07605 0
M  V30 3916 C 364.279 -2.10549 -1.80456 0
M  V30 3917 H 367.23 -1.45573 -0.631991 0
M  V30 3918 H 367.251 -1.85157 -3.32411 0
M  V30 3919 H 366.763 -3.23866 -2.13851 0
M  V30 3920 H 364.864 -1.20107 -3.52711 0
M  V30 3921 H 364.977 -3.07988 -3.66988 0
M  V30 3922 H 363.341 -1.56203 -2.01178 0
M  V30 3923 H 364.124 -3.12535 -1.42046 0
M  V30 3924 N 366.569 1.04691 -1.17803 0
M  V30 3925 C 367.846 1.7472 -0.879328 0
M  V30 3926 C 368.226 2.01812 0.619271 0
M  V30 3927 O 367.574 1.65824 1.57209 0
M  V30 3928 C 367.784 3.03686 -1.71976 0
M  V30 3929 C 369.132 3.77542 -1.94286 0
M  V30 3930 O 370.156 3.13569 -1.68976 0
M  V30 3931 O 369.015 4.92506 -2.36855 0
M  V30 3932 H 366.109 0.760011 -0.326056 0
M  V30 3933 H 368.655 1.10813 -1.28525 0
M  V30 3934 H 367.427 2.79754 -2.73594 0
M  V30 3935 H 367.05 3.75332 -1.31194 0
M  V30 3936 N 368.047 0.979072 1.23499 0
M  V30 3937 C 369.01 0.523244 2.23147 0
M  V30 3938 C 370.01 -0.386406 1.56088 0
M  V30 3939 O 371.2 -0.180283 1.73265 0
M  V30 3940 C 368.332 -0.240739 3.40049 0
M  V30 3941 H 369.525 1.40432 2.64989 0
M  V30 3942 H 367.078 0.764824 1.36309 0
M  V30 3943 H 367.813 -1.13841 3.03662 0
M  V30 3944 H 367.598 0.412207 3.89927 0
M  V30 3945 H 369.088 -0.548297 4.13985 0
M  V30 3946 N 369.525 -1.3858 0.750561 0
M  V30 3947 C 370.472 -2.30483 0.120835 0
M  V30 3948 C 371.442 -1.50022 -0.712923 0
M  V30 3949 O 372.627 -1.78662 -0.669676 0
M  V30 3950 C 369.767 -3.36431 -0.768666 0
M  V30 3951 C 368.88 -4.31927 0.0793922 0
M  V30 3952 C 368.015 -5.24944 -0.81283 0
M  V30 3953 C 367.054 -6.12088 0.0390447 0
M  V30 3954 N 366.191 -6.97412 -0.809969 0
M  V30 3955 H 371.031 -2.83761 0.91015 0
M  V30 3956 H 368.568 -1.39707 0.460463 0
M  V30 3957 H 370.526 -3.96462 -1.29898 0
M  V30 3958 H 369.156 -2.8457 -1.5238 0
M  V30 3959 H 368.208 -3.73382 0.727303 0
M  V30 3960 H 369.52 -4.93319 0.737401 0
M  V30 3961 H 368.674 -5.90078 -1.41042 0
M  V30 3962 H 367.413 -4.63911 -1.50458 0
M  V30 3963 H 366.418 -5.45952 0.649328 0
M  V30 3964 H 367.643 -6.75189 0.727809 0
M  V30 3965 H 365.589 -6.38931 -1.48672 0
M  V30 3966 H 365.506 -7.55712 -0.208789 0
M  V30 3967 H 366.774 -7.66959 -1.39263 0
M  V30 3968 N 371.003 -0.499398 -1.49478 0
M  V30 3969 C 372.251 0.0455996 -2.02049 0
M  V30 3970 C 372.572 1.37633 -1.38138 0
M  V30 3971 O 371.842 1.8842 -0.536166 0
M  V30 3972 H 370.422 0.0198416 -0.746736 0
M  V30 3973 H 373.084 -0.656274 -1.83519 0
M  V30 3974 H 372.18 0.176445 -3.11601 0
M  V30 3975 N 372.481 1.55866 -0.233164 0
M  V30 3976 C 373.411 2.23783 0.666599 0
M  V30 3977 C 374.392 1.21343 1.19205 0
M  V30 3978 O 375.577 1.4996 1.23392 0
M  V30 3979 C 372.707 2.92671 1.86978 0
M  V30 3980 C 371.661 4.01682 1.47768 0
M  V30 3981 C 370.987 4.57926 2.76058 0
M  V30 3982 C 372.287 5.18126 0.658993 0
M  V30 3983 H 373.981 2.99232 0.100306 0
M  V30 3984 H 371.527 1.43924 0.046804 0
M  V30 3985 H 373.48 3.3888 2.50476 0
M  V30 3986 H 372.204 2.14688 2.46123 0
M  V30 3987 H 370.863 3.56222 0.866106 0
M  V30 3988 H 370.511 3.76659 3.33372 0
M  V30 3989 H 370.211 5.31505 2.50552 0
M  V30 3990 H 371.735 5.06859 3.40479 0
M  V30 3991 H 373.149 5.60644 1.19795 0
M  V30 3992 H 371.546 5.98009 0.500552 0
M  V30 3993 H 372.616 4.83763 -0.331856 0
M  V30 3994 N 373.959 -0.0401083 1.57549 0
M  V30 3995 C 375.184 -0.748931 1.93406 0
M  V30 3996 C 375.609 -1.68686 0.832274 0
M  V30 3997 O 374.967 -1.80047 -0.212818 0
M  V30 3998 C 375.015 -1.4916 3.28304 0
M  V30 3999 O 374.119 -2.6042 3.19774 0
M  V30 4000 H 373.46 -0.202212 0.63246 0
M  V30 4001 H 375.99 0.00112086 2.046 0
M  V30 4002 H 376 -1.86395 3.62934 0
M  V30 4003 H 374.675 -0.80364 4.08062 0
M  V30 4004 H 373.252 -2.25808 2.96758 0
M  V30 4005 N 375.437 -1.54477 -0.31217 0
M  V30 4006 C 376.714 -1.63891 -1.06767 0
M  V30 4007 C 377.094 -0.480028 -2.0557 0
M  V30 4008 O 376.442 0.524487 -2.22399 0
M  V30 4009 C 376.652 -3.01402 -1.75948 0
M  V30 4010 C 378 -3.57838 -2.28554 0
M  V30 4011 O 379.024 -3.03782 -1.85998 0
M  V30 4012 O 377.883 -4.52462 -3.06497 0
M  V30 4013 H 374.977 -0.664125 -0.492816 0
M  V30 4014 H 377.523 -1.66823 -0.311149 0
M  V30 4015 H 376.295 -3.77187 -1.04144 0
M  V30 4016 H 375.918 -3.02199 -2.58383 0
M  V30 4017 N 376.915 0.57481 -1.46744 0
M  V30 4018 C 378.326 1.15695 -1.46532 0
M  V30 4019 C 378.677 1.95068 -0.210425 0
M  V30 4020 O 377.802 2.05241 0.685944 0
M  V30 4021 C 378.397 2.1048 -2.65487 0
M  V30 4022 C 376.956 2.64002 -2.68291 0
M  V30 4023 C 376.103 1.40026 -2.39349 0
M  V30 4024 H 379.054 0.362325 -1.54509 0
M  V30 4025 H 379.075 2.94074 -2.41455 0
M  V30 4026 H 378.587 1.52683 -3.56805 0
M  V30 4027 H 376.688 3.25646 -1.81067 0
M  V30 4028 H 376.801 3.06197 -3.68483 0
M  V30 4029 H 375.165 1.70106 -1.89568 0
M  V30 4030 H 375.948 0.840485 -3.32852 0
M  V30 4031 N 378.394 1.34581 0.820102 0
M  V30 4032 C 379.64 1.27285 1.57881 0
M  V30 4033 C 379.973 -0.156137 1.93571 0
M  V30 4034 O 379.248 -1.10222 1.60254 0
M  V30 4035 C 379.531 2.16639 2.87645 0
M  V30 4036 C 379.384 3.68088 2.58517 0
M  V30 4037 C 380.703 2.05378 3.8924 0
M  V30 4038 H 377.822 0.463714 0.572833 0
M  V30 4039 H 380.464 1.64859 0.944539 0
M  V30 4040 H 378.614 1.84725 3.41773 0
M  V30 4041 H 380.286 4.10382 2.10676 0
M  V30 4042 H 378.529 3.89038 1.91917 0
M  V30 4043 H 379.2 4.2598 3.51063 0
M  V30 4044 H 381.676 2.33404 3.44473 0
M  V30 4045 H 380.552 2.7012 4.77835 0
M  V30 4046 H 380.813 1.0316 4.29896 0
M  V30 4047 N 379.872 -1.04064 1.18357 0
M  V30 4048 C 380.819 -2.12077 0.910603 0
M  V30 4049 C 381.789 -1.65421 -0.15 0
M  V30 4050 O 382.974 -1.90797 -0.0103614 0
M  V30 4051 C 380.114 -3.42252 0.442472 0
M  V30 4052 C 379.227 -4.0252 1.5685 0
M  V30 4053 C 378.362 -5.20657 1.05309 0
M  V30 4054 C 377.401 -5.72955 2.1538 0
M  V30 4055 N 376.538 -6.8238 1.65233 0
M  V30 4056 H 381.378 -2.34764 1.83548 0
M  V30 4057 H 378.915 -1.15157 0.915279 0
M  V30 4058 H 380.873 -4.16921 0.152534 0
M  V30 4059 H 379.503 -3.19712 -0.445428 0
M  V30 4060 H 378.555 -3.25178 1.97391 0
M  V30 4061 H 379.867 -4.37362 2.39824 0
M  V30 4062 H 379.021 -6.0244 0.717677 0
M  V30 4063 H 377.76 -4.87318 0.19293 0
M  V30 4064 H 376.765 -4.89793 2.49766 0
M  V30 4065 H 377.99 -6.08337 3.01832 0
M  V30 4066 H 375.936 -6.50917 0.815064 0
M  V30 4067 H 375.853 -7.16286 2.41805 0
M  V30 4068 H 377.121 -7.67788 1.34619 0
M  V30 4069 N 381.35 -0.985608 -1.22978 0
M  V30 4070 C 382.599 -0.652881 -1.90841 0
M  V30 4071 C 382.912 0.817842 -1.77681 0
M  V30 4072 O 384.118 1.26185 -2.40395 0
M  V30 4073 C 382.574 -1.11717 -3.42122 0
M  V30 4074 C 382.182 -2.6126 -3.63933 0
M  V30 4075 C 383.926 -0.85843 -4.1573 0
M  V30 4076 C 381.833 -3.0133 -5.08876 0
M  V30 4077 H 380.763 -0.240491 -0.714619 0
M  V30 4078 H 383.414 -1.1942 -1.39324 0
M  V30 4079 H 381.796 -0.504027 -3.92779 0
M  V30 4080 H 382.97 -3.27858 -3.23799 0
M  V30 4081 H 381.285 -2.84937 -3.03644 0
M  V30 4082 H 383.882 -1.13359 -5.22546 0
M  V30 4083 H 384.225 0.205461 -4.15793 0
M  V30 4084 H 384.758 -1.43341 -3.71077 0
M  V30 4085 H 381.497 -4.06864 -5.13947 0
M  V30 4086 H 381.017 -2.3943 -5.49939 0
M  V30 4087 H 382.696 -2.92224 -5.77247 0
M  V30 4088 N 382.828 1.3818 -0.7579 0
M  V30 4089 C 383.775 2.30416 -0.133057 0
M  V30 4090 C 384.745 1.50398 0.704957 0
M  V30 4091 O 385.93 1.79014 0.660192 0
M  V30 4092 C 383.07 3.36834 0.750813 0
M  V30 4093 C 382.183 4.31879 -0.102297 0
M  V30 4094 C 381.318 5.25368 0.784979 0
M  V30 4095 C 380.357 6.12058 -0.0715046 0
M  V30 4096 N 379.494 6.97832 0.772972 0
M  V30 4097 H 384.334 2.83274 -0.925186 0
M  V30 4098 H 381.871 1.39461 -0.467866 0
M  V30 4099 H 383.829 3.97145 1.27794 0
M  V30 4100 H 382.459 2.85374 1.50868 0
M  V30 4101 H 381.511 3.72991 -0.747095 0
M  V30 4102 H 382.823 4.92921 -0.763552 0
M  V30 4103 H 381.977 5.90818 1.37911 0
M  V30 4104 H 380.716 4.64703 1.47996 0
M  V30 4105 H 379.721 5.456 -0.678272 0
M  V30 4106 H 380.946 6.74793 -0.763606 0
M  V30 4107 H 378.892 6.3971 1.45282 0
M  V30 4108 H 378.809 7.55812 0.168709 0
M  V30 4109 H 380.077 7.67687 1.35194 0
M  V30 4110 N 384.306 0.507319 1.49211 0
M  V30 4111 C 385.254 -0.281364 2.30892 0
M  V30 4112 C 386.248 -0.95687 1.39787 0
M  V30 4113 O 387.454 -0.883838 1.56807 0
M  V30 4114 H 383.829 -0.109597 0.743971 0
M  V30 4115 H 385.8 0.42744 2.95323 0
M  V30 4116 C 384.549 -1.32918 3.21291 0
M  V30 4117 H 383.872 -0.818799 3.91326 0
M  V30 4118 H 385.312 -1.85288 3.81372 0
M  V30 4119 C 383.771 -2.35074 2.41333 0
M  V30 4120 O 384.301 -3.4108 2.12197 0
M  V30 4121 N 382.507 -2.07705 2.03241 0
M  V30 4122 H 382.054 -1.2152 2.27136 0
M  V30 4123 H 382.012 -2.76283 1.50051 0
M  V30 4124 N 385.784 -1.5574 0.241426 0
M  V30 4125 C 386.717 -2.17168 -0.700935 0
M  V30 4126 C 387.695 -1.12206 -1.1768 0
M  V30 4127 O 388.879 -1.40565 -1.25593 0
M  V30 4128 C 386.006 -2.76796 -1.95196 0
M  V30 4129 C 385.052 -3.94764 -1.61442 0
M  V30 4130 S 385.885 -5.30613 -0.72182 0
M  V30 4131 C 387.041 -5.93691 -1.98197 0
M  V30 4132 H 387.274 -2.96761 -0.178882 0
M  V30 4133 H 384.807 -1.54378 0.0259299 0
M  V30 4134 H 386.765 -3.11787 -2.67019 0
M  V30 4135 H 385.426 -1.9716 -2.44514 0
M  V30 4136 H 384.619 -4.35057 -2.54443 0
M  V30 4137 H 384.221 -3.61022 -0.976672 0
M  V30 4138 H 386.513 -6.10874 -2.92983 0
M  V30 4139 H 387.456 -6.89258 -1.62262 0
M  V30 4140 H 387.864 -5.22709 -2.13156 0
M  V30 4141 N 387.262 0.0317525 -1.57568 0
M  V30 4142 C 388.678 0.38735 -1.54828 0
M  V30 4143 C 388.878 1.7677 -0.967187 0
M  V30 4144 O 387.934 2.45581 -0.587063 0
M  V30 4145 C 389.247 0.291667 -2.99282 0
M  V30 4146 C 390.795 0.368946 -3.10818 0
M  V30 4147 C 391.27 0.302741 -4.56998 0
M  V30 4148 N 392.761 0.361617 -4.61786 0
M  V30 4149 C 393.496 0.333238 -5.72431 0
M  V30 4150 N 392.992 0.257308 -6.92322 0
M  V30 4151 N 394.785 0.382769 -5.60795 0
M  V30 4152 H 386.936 -0.871609 -1.93692 0
M  V30 4153 H 389.199 -0.331161 -0.888277 0
M  V30 4154 H 388.905 -0.656794 -3.45513 0
M  V30 4155 H 388.779 1.08638 -3.61217 0
M  V30 4156 H 391.166 1.30784 -2.64536 0
M  V30 4157 H 391.247 -0.455066 -2.5172 0
M  V30 4158 H 390.891 -0.632473 -5.03947 0
M  V30 4159 H 390.821 1.14482 -5.14005 0
M  V30 4160 H 393.312 0.422923 -3.75526 0
M  V30 4161 H 393.625 0.24068 -7.72425 0
M  V30 4162 H 391.97 0.223396 -6.94641 0
M  V30 4163 H 395.161 0.44006 -4.66027 0
M  V30 4164 H 395.334 0.357184 -6.47015 0
M  V30 4165 N 388.74 1.54641 0.303973 0
M  V30 4166 C 389.987 1.7378 1.03955 0
M  V30 4167 C 390.315 0.521986 1.87365 0
M  V30 4168 O 389.57 -0.496099 1.89308 0
M  V30 4169 C 389.869 2.97753 1.97681 0
M  V30 4170 C 389.535 4.31671 1.30271 0
M  V30 4171 C 388.197 4.68075 1.11619 0
M  V30 4172 C 390.549 5.147 0.82055 0
M  V30 4173 C 387.877 5.8509 0.434304 0
M  V30 4174 C 390.229 6.32416 0.152395 0
M  V30 4175 C 388.893 6.67484 -0.0461067 0
M  V30 4176 H 388.163 0.635908 0.380398 0
M  V30 4177 H 390.81 1.88896 0.314718 0
M  V30 4178 H 389.115 2.77406 2.76682 0
M  V30 4179 H 390.812 3.09756 2.54661 0
M  V30 4180 H 387.402 4.03041 1.45795 0
M  V30 4181 H 391.586 4.87077 0.952374 0
M  V30 4182 H 386.842 6.10806 0.269495 0
M  V30 4183 H 391.016 6.96023 -0.229126 0
M  V30 4184 H 388.643 7.58011 -0.576494 0
M  V30 4185 N 390.218 -0.567019 1.47046 0
M  V30 4186 C 391.15 -1.68985 1.54844 0
M  V30 4187 C 392.163 -1.56869 0.435431 0
M  V30 4188 O 393.352 -1.64006 0.70457 0
M  V30 4189 C 390.452 -3.07373 1.42742 0
M  V30 4190 C 389.625 -3.45339 2.6844 0
M  V30 4191 C 388.684 -4.62849 2.50314 0
M  V30 4192 O 387.71 -4.67922 3.24095 0
M  V30 4193 N 388.912 -5.58726 1.57499 0
M  V30 4194 H 391.677 -1.62745 2.51663 0
M  V30 4195 H 389.238 -0.753411 1.43302 0
M  V30 4196 H 391.23 -3.83803 1.28365 0
M  V30 4197 H 389.8 -3.07893 0.540445 0
M  V30 4198 H 389.02 -2.58455 2.97648 0
M  V30 4199 H 390.308 -3.67476 3.51907 0
M  V30 4200 H 389.706 -5.57376 0.966876 0
M  V30 4201 H 388.263 -6.34523 1.49078 0
M  V30 4202 N 391.696 -1.35014 -0.812953 0
M  V30 4203 C 392.942 -1.2812 -1.57204 0
M  V30 4204 C 393.275 0.145869 -1.93651 0
M  V30 4205 O 392.55 1.0937 -1.60836 0
M  V30 4206 C 392.833 -2.18162 -2.86492 0
M  V30 4207 C 392.686 -3.69454 -2.56561 0
M  V30 4208 C 394.005 -2.07439 -3.88145 0
M  V30 4209 H 391.124 -0.466746 -0.570366 0
M  V30 4210 H 393.766 -1.65357 -0.935783 0
M  V30 4211 H 391.916 -1.86535 -3.40789 0
M  V30 4212 H 393.588 -4.11493 -2.08497 0
M  V30 4213 H 391.831 -3.9005 -1.89851 0
M  V30 4214 H 392.502 -4.27835 -3.48799 0
M  V30 4215 H 394.978 -2.35228 -3.4323 0
M  V30 4216 H 393.854 -2.7265 -4.76396 0
M  V30 4217 H 394.115 -1.05439 -4.29343 0
M  V30 4218 N 393.175 1.03435 -1.18907 0
M  V30 4219 C 394.107 2.1165 -0.879595 0
M  V30 4220 C 395.12 1.62316 0.125439 0
M  V30 4221 O 396.309 1.78201 -0.103245 0
M  V30 4222 C 393.409 3.37622 -0.294042 0
M  V30 4223 C 392.582 4.16166 -1.34629 0
M  V30 4224 C 391.641 5.20457 -0.775274 0
M  V30 4225 O 390.667 5.50379 -1.4516 0
M  V30 4226 N 391.869 5.78949 0.424126 0
M  V30 4227 H 394.634 2.38791 -1.81105 0
M  V30 4228 H 392.195 1.19681 -1.09032 0
M  V30 4229 H 394.187 4.04572 0.101679 0
M  V30 4230 H 392.757 3.07873 0.541575 0
M  V30 4231 H 391.977 3.44444 -1.91707 0
M  V30 4232 H 393.265 4.65432 -2.05549 0
M  V30 4233 H 392.663 5.56948 0.991209 0
M  V30 4234 H 391.22 6.47334 0.761691 0
M  V30 4235 N 394.653 0.992116 1.22453 0
M  V30 4236 C 395.902 0.662992 1.90492 0
M  V30 4237 C 396.215 -0.808407 1.78113 0
M  V30 4238 O 397.421 -1.24908 2.41061 0
M  V30 4239 C 395.877 1.1353 3.41524 0
M  V30 4240 C 395.485 2.63187 3.62542 0
M  V30 4241 C 397.229 0.880465 4.15269 0
M  V30 4242 C 395.136 3.04024 5.0727 0
M  V30 4243 H 394.066 0.244278 0.713333 0
M  V30 4244 H 396.717 1.20157 1.38688 0
M  V30 4245 H 395.099 0.52485 3.92506 0
M  V30 4246 H 396.273 3.2957 3.22056 0
M  V30 4247 H 394.588 2.86543 3.02129 0
M  V30 4248 H 397.185 1.16128 5.21937 0
M  V30 4249 H 397.528 -0.183408 4.15896 0
M  V30 4250 H 398.061 1.45307 3.70312 0
M  V30 4251 H 394.8 4.09584 5.11782 0
M  V30 4252 H 394.32 2.42343 5.48662 0
M  V30 4253 H 395.999 2.95282 5.75689 0
M  V30 4254 N 396.131 -1.37776 0.765217 0
M  V30 4255 C 397.379 -1.99454 0.325943 0
M  V30 4256 C 397.7 -1.61049 -1.09947 0
M  V30 4257 O 396.97 -0.872821 -1.75381 0
M  V30 4258 H 395.55 -0.737697 0.117525 0
M  V30 4259 H 398.212 -1.68359 0.981895 0
M  V30 4260 H 397.308 -3.09547 0.398353 0
M  V30 4261 N 397.609 -0.515225 -1.4894 0
M  V30 4262 C 398.539 0.244628 -2.32215 0
M  V30 4263 C 399.52 0.949136 -1.41157 0
M  V30 4264 O 400.705 0.937783 -1.70057 0
M  V30 4265 C 397.835 1.30096 -3.22013 0
M  V30 4266 C 396.789 0.715486 -4.21977 0
M  V30 4267 C 396.115 1.87339 -5.00808 0
M  V30 4268 C 397.415 -0.302982 -5.2142 0
M  V30 4269 H 399.109 -0.450501 -2.95991 0
M  V30 4270 H 396.655 -0.218098 -1.42339 0
M  V30 4271 H 398.608 1.84037 -3.79089 0
M  V30 4272 H 397.332 2.02547 -2.56207 0
M  V30 4273 H 395.991 0.197715 -3.66066 0
M  V30 4274 H 395.639 2.58592 -4.31438 0
M  V30 4275 H 395.339 1.48764 -5.68457 0
M  V30 4276 H 396.863 2.41686 -5.60732 0
M  V30 4277 H 398.277 0.148802 -5.73107 0
M  V30 4278 H 396.674 -0.60532 -5.97039 0
M  V30 4279 H 397.744 -1.21395 -4.69459 0
M  V30 4280 N 399.087 1.5561 -0.249682 0
M  V30 4281 C 399.997 2.25143 0.659375 0
M  V30 4282 C 401.013 1.2685 1.19101 0
M  V30 4283 O 402.189 1.59732 1.22669 0
M  V30 4284 C 399.254 2.93945 1.8384 0
M  V30 4285 C 398.315 4.07655 1.34596 0
M  V30 4286 C 397.548 4.73167 2.46878 0
M  V30 4287 O 397.771 4.37768 3.65671 0
M  V30 4288 O 396.705 5.61623 2.16478 0
M  V30 4289 H 400.531 3.03545 0.0968698 0
M  V30 4290 H 398.116 1.49389 -0.018074 0
M  V30 4291 H 399.998 3.37271 2.52638 0
M  V30 4292 H 398.673 2.18481 2.38847 0
M  V30 4293 H 397.58 3.68839 0.625174 0
M  V30 4294 H 398.913 4.84946 0.841941 0
M  V30 4295 N 400.565 -0.0233959 1.57583 0
M  V30 4296 C 401.842 -0.748794 1.807 0
M  V30 4297 C 402.222 -1.9327 0.849106 0
M  V30 4298 O 401.57 -2.28247 -0.107468 0
M  V30 4299 C 401.78 -1.17651 3.28571 0
M  V30 4300 C 403.128 -1.59008 3.93702 0
M  V30 4301 O 404.152 -1.27094 3.32755 0
M  V30 4302 O 403.011 -2.18264 5.01022 0
M  V30 4303 H 400.105 -0.362578 0.743281 0
M  V30 4304 H 402.651 0.000261958 1.697 0
M  V30 4305 H 401.423 -0.331603 3.89892 0
M  V30 4306 H 401.046 -1.98541 3.44481 0
M  V30 4307 N 402.043 -1.548 -0.295768 0
M  V30 4308 C 403.273 -1.78069 -1.04762 0
M  V30 4309 C 403.681 -0.542847 -1.81245 0
M  V30 4310 O 403.024 0.497051 -1.76848 0
M  V30 4311 C 403.086 -2.93881 -2.07061 0
M  V30 4312 C 402.75 -4.31777 -1.49725 0
M  V30 4313 C 403.747 -5.11613 -0.924581 0
M  V30 4314 C 401.432 -4.78389 -1.5313 0
M  V30 4315 C 403.426 -6.36184 -0.393594 0
M  V30 4316 C 401.113 -6.02921 -0.996447 0
M  V30 4317 C 402.111 -6.81654 -0.428569 0
M  V30 4318 O 401.799 -8.0384 0.0981593 0
M  V30 4319 H 401.531 -0.597475 -0.316226 0
M  V30 4320 H 404.085 -2.02584 -0.338973 0
M  V30 4321 H 402.315 -2.65003 -2.81621 0
M  V30 4322 H 404.004 -3.04679 -2.6819 0
M  V30 4323 H 404.77 -4.76743 -0.891136 0
M  V30 4324 H 400.649 -4.17132 -1.9627 0
M  V30 4325 H 404.193 -6.97582 0.0503014 0
M  V30 4326 H 400.09 -6.37277 -1.02706 0
M  V30 4327 H 400.858 -8.18499 -0.0146455 0
M  V30 4328 N 403.521 0.559213 -1.47345 0
M  V30 4329 C 404.77 1.31281 -1.53128 0
M  V30 4330 C 405.083 1.94602 -0.197344 0
M  V30 4331 O 406.289 2.71173 -0.133154 0
M  V30 4332 C 404.745 2.38051 -2.69925 0
M  V30 4333 C 404.353 1.8093 -4.0984 0
M  V30 4334 C 406.097 3.14604 -2.84999 0
M  V30 4335 C 404.004 2.85468 -5.1794 0
M  V30 4336 H 402.934 0.493614 -0.569966 0
M  V30 4337 H 405.585 0.594155 -1.73615 0
M  V30 4338 H 403.967 3.12822 -2.42814 0
M  V30 4339 H 405.141 1.12544 -4.46845 0
M  V30 4340 H 403.456 1.16967 -3.99634 0
M  V30 4341 H 406.053 3.92666 -3.62929 0
M  V30 4342 H 406.396 3.68665 -1.93369 0
M  V30 4343 H 406.929 2.46945 -3.1187 0
M  V30 4344 H 403.668 2.36264 -6.1144 0
M  V30 4345 H 403.188 3.52269 -4.85455 0
M  V30 4346 H 404.867 3.48996 -5.44803 0
M  V30 4347 N 404.999 1.35443 0.805782 0
M  V30 4348 C 405.947 1.28465 1.93906 0
M  V30 4349 C 406.941 0.17943 1.68447 0
M  V30 4350 O 408.147 0.345459 1.76654 0
M  V30 4351 H 404.522 0.399528 0.637088 0
M  V30 4352 H 406.493 2.24206 1.96912 0
M  V30 4353 C 405.242 1.07432 3.30687 0
M  V30 4354 H 404.565 1.91716 3.50835 0
M  V30 4355 H 406.005 1.06591 4.10383 0
M  V30 4356 C 404.464 -0.22179 3.36169 0
M  V30 4357 O 404.994 -1.21731 3.82811 0
M  V30 4358 N 403.2 -0.260841 2.89427 0
M  V30 4359 H 402.747 0.549884 2.51663 0
M  V30 4360 H 402.705 -1.12777 2.93477 0
M  V30 4361 N 406.477 -1.02803 1.19454 0
M  V30 4362 C 407.754 -1.73299 0.907013 0
M  V30 4363 C 408.134 -2.02772 -0.587086 0
M  V30 4364 O 407.482 -1.68304 -1.54551 0
M  V30 4365 C 407.692 -3.00912 1.76785 0
M  V30 4366 C 409.04 -3.74403 2.00268 0
M  V30 4367 O 410.064 -3.10841 1.73943 0
M  V30 4368 O 408.923 -4.88675 2.4466 0
M  V30 4369 H 406.017 -0.754727 0.338106 0
M  V30 4370 H 408.563 -1.08754 1.30271 0
M  V30 4371 H 407.335 -2.75366 2.7801 0
M  V30 4372 H 406.958 -3.73197 1.37149 0
M  V30 4373 N 407.956 -0.998596 -1.21925 0
M  V30 4374 C 409.372 -0.710303 -1.42923 0
M  V30 4375 C 409.572 0.716933 -1.88314 0
M  V30 4376 O 408.628 1.48712 -2.04062 0
M  V30 4377 C 409.941 -1.72072 -2.466 0
M  V30 4378 C 411.489 -1.73681 -2.60392 0
M  V30 4379 C 411.964 -2.73601 -3.67296 0
M  V30 4380 N 413.455 -2.7223 -3.7476 0
M  V30 4381 C 414.19 -3.46206 -4.57087 0
M  V30 4382 N 413.686 -4.29802 -5.43362 0
M  V30 4383 N 415.479 -3.34886 -4.51451 0
M  V30 4384 H 407.63 -1.92028 -0.9077 0
M  V30 4385 H 409.893 -0.828487 -0.460775 0
M  V30 4386 H 409.599 -2.74231 -2.20206 0
M  V30 4387 H 409.473 -1.51818 -3.45299 0
M  V30 4388 H 411.86 -0.722173 -2.86127 0
M  V30 4389 H 411.941 -1.98005 -1.61949 0
M  V30 4390 H 411.585 -3.75217 -3.42307 0
M  V30 4391 H 411.515 -2.46545 -4.65321 0
M  V30 4392 H 414.006 -2.11576 -3.1312 0
M  V30 4393 H 414.319 -4.83061 -6.03218 0
M  V30 4394 H 412.664 -4.33887 -5.42925 0
M  V30 4395 H 415.855 -2.69015 -3.83078 0
M  V30 4396 H 416.028 -3.92796 -5.15379 0
M  V30 4397 N 409.434 1.37368 -0.772513 0
M  V30 4398 C 410.366 2.28899 -0.117502 0
M  V30 4399 C 411.379 1.4867 0.663405 0
M  V30 4400 O 412.568 1.71314 0.501372 0
M  V30 4401 C 409.668 3.2788 0.857192 0
M  V30 4402 C 408.841 4.37207 0.129938 0
M  V30 4403 C 407.9 5.16257 1.01811 0
M  V30 4404 O 406.926 5.67159 0.481601 0
M  V30 4405 N 408.128 5.31058 2.3443 0
M  V30 4406 H 410.893 2.85752 -0.903662 0
M  V30 4407 H 408.454 1.49353 -0.62493 0
M  V30 4408 H 410.446 3.77647 1.45482 0
M  V30 4409 H 409.016 2.7179 1.54432 0
M  V30 4410 H 408.236 3.88827 -0.648605 0
M  V30 4411 H 409.524 5.07434 -0.372559 0
M  V30 4412 H 408.922 4.91287 2.80452 0
M  V30 4413 H 407.479 5.84131 2.89197 0
M  V30 4414 N 410.912 0.523116 1.48665 0
M  V30 4415 C 412.142 -0.00961724 2.06598 0
M  V30 4416 C 412.55 -1.29333 1.38093 0
M  V30 4417 O 411.893 -1.77846 0.46007 0
M  V30 4418 C 411.955 -0.311135 3.58151 0
M  V30 4419 C 411.619 0.878092 4.48485 0
M  V30 4420 C 412.616 1.77464 4.88674 0
M  V30 4421 C 410.301 1.08315 4.90483 0
M  V30 4422 C 412.295 2.86021 5.69623 0
M  V30 4423 C 409.982 2.17187 5.71203 0
M  V30 4424 C 410.98 3.05873 6.10681 0
M  V30 4425 O 410.668 4.12862 6.89783 0
M  V30 4426 H 410.4 0.0272658 0.67545 0
M  V30 4427 H 412.954 0.726156 1.92136 0
M  V30 4428 H 411.184 -1.10079 3.70701 0
M  V30 4429 H 412.873 -0.785125 3.98234 0
M  V30 4430 H 413.639 1.62813 4.56855 0
M  V30 4431 H 409.518 0.402149 4.59243 0
M  V30 4432 H 413.062 3.55272 6.00356 0
M  V30 4433 H 408.959 2.31824 6.02435 0
M  V30 4434 H 409.727 4.10487 7.08126 0
M  V30 4435 N 412.39 -1.55475 0.257931 0
M  V30 4436 C 413.667 -1.91155 -0.414629 0
M  V30 4437 C 414.047 -1.18008 -1.75035 0
M  V30 4438 O 413.395 -0.301193 -2.26506 0
M  V30 4439 C 413.605 -3.44283 -0.571859 0
M  V30 4440 C 414.953 -4.15744 -0.862678 0
M  V30 4441 O 415.977 -3.50083 -0.657314 0
M  V30 4442 O 414.836 -5.31909 -1.2544 0
M  V30 4443 H 411.93 -0.796016 -0.22425 0
M  V30 4444 H 414.476 -1.66976 0.302814 0
M  V30 4445 H 413.248 -3.89558 0.368844 0
M  V30 4446 H 412.871 -3.7436 -1.33943 0
M  V30 4447 N 413.868 0.0150385 -1.57593 0
M  V30 4448 C 415.093 0.718067 -1.94573 0
M  V30 4449 C 415.518 1.6734 -0.859005 0
M  V30 4450 O 414.876 1.80362 0.184147 0
M  V30 4451 C 414.924 1.43918 -3.30636 0
M  V30 4452 O 414.028 2.55299 -3.23876 0
M  V30 4453 H 413.369 0.192125 -0.635597 0
M  V30 4454 H 415.899 -0.0336708 -2.04572 0
M  V30 4455 H 415.909 1.80598 -3.65853 0
M  V30 4456 H 414.584 0.738619 -4.09289 0
M  V30 4457 H 413.161 2.21058 -3.00312 0
M  V30 4458 N 415.346 1.54954 0.287554 0
M  V30 4459 C 416.762 1.46469 0.633964 0
M  V30 4460 C 416.962 0.666865 1.90145 0
M  V30 4461 O 416.018 0.179906 2.51858 0
M  V30 4462 C 417.331 2.90556 0.774454 0
M  V30 4463 C 418.879 3.00681 0.869462 0
M  V30 4464 C 419.354 4.45993 1.04184 0
M  V30 4465 N 420.845 4.4976 1.10772 0
M  V30 4466 C 421.58 5.59393 1.25964 0
M  V30 4467 N 421.076 6.78923 1.37968 0
M  V30 4468 N 422.869 5.47107 1.28959 0
M  V30 4469 H 415.02 2.05288 -0.545041 0
M  V30 4470 H 417.283 0.930305 -0.182308 0
M  V30 4471 H 416.989 3.51594 -0.086207 0
M  V30 4472 H 416.863 3.38743 1.6593 0
M  V30 4473 H 419.25 2.39749 1.7206 0
M  V30 4474 H 419.331 2.55769 -0.0396831 0
M  V30 4475 H 418.975 5.07524 0.195422 0
M  V30 4476 H 418.905 4.88548 1.96542 0
M  V30 4477 H 421.396 3.63651 1.02794 0
M  V30 4478 H 421.709 7.58231 1.49353 0
M  V30 4479 H 420.054 6.81763 1.34999 0
M  V30 4480 H 423.245 4.52668 1.19202 0
M  V30 4481 H 423.418 6.32595 1.40455 0
M  V30 4482 N 416.824 -0.551391 1.4764 0
M  V30 4483 C 418.072 -1.30572 1.54258 0
M  V30 4484 C 418.393 -1.93877 0.208963 0
M  V30 4485 O 417.663 -1.80234 -0.767619 0
M  V30 4486 H 416.243 -0.484894 0.568231 0
M  V30 4487 H 418.905 -0.643402 1.83974 0
M  V30 4488 H 418.001 -2.09621 2.31226 0
M  V30 4489 N 418.302 -1.35869 -0.798587 0
M  V30 4490 C 419.718 -1.16082 -1.09532 0
M  V30 4491 C 419.918 0.0213124 -2.01489 0
M  V30 4492 O 418.974 0.689488 -2.42904 0
M  V30 4493 C 420.287 -2.46748 -1.7186 0
M  V30 4494 C 421.835 -2.53028 -1.84244 0
M  V30 4495 C 422.31 -3.83758 -2.49988 0
M  V30 4496 N 423.801 -3.85053 -2.57465 0
M  V30 4497 C 424.536 -4.8294 -3.09122 0
M  V30 4498 N 424.032 -5.91217 -3.61157 0
M  V30 4499 N 425.825 -4.70369 -3.0775 0
M  V30 4500 H 417.976 -2.11571 -0.187461 0
M  V30 4501 H 420.239 -0.936726 -0.145765 0
M  V30 4502 H 419.945 -3.33471 -1.11759 0
M  V30 4503 H 419.819 -2.61883 -2.71472 0
M  V30 4504 H 422.206 -1.66729 -2.43486 0
M  V30 4505 H 422.287 -2.418 -0.834643 0
M  V30 4506 H 421.931 -4.70459 -1.91393 0
M  V30 4507 H 421.861 -3.92278 -3.5132 0
M  V30 4508 H 424.352 -3.06822 -2.20609 0
M  V30 4509 H 424.665 -6.61892 -3.98896 0
M  V30 4510 H 423.01 -5.94899 -3.59333 0
M  V30 4511 H 426.201 -3.84914 -2.66381 0
M  V30 4512 H 426.374 -5.46816 -3.47701 0
M  V30 4513 N 419.78 1.02168 -1.19998 0
M  V30 4514 C 421.027 1.75685 -1.00702 0
M  V30 4515 C 421.355 1.88947 0.461426 0
M  V30 4516 O 420.61 1.40832 1.35885 0
M  V30 4517 C 420.909 3.18081 -1.62969 0
M  V30 4518 C 420.575 3.24809 -3.12746 0
M  V30 4519 C 419.237 3.26352 -3.53621 0
M  V30 4520 C 421.589 3.23379 -4.08749 0
M  V30 4521 C 418.917 3.2413 -4.89036 0
M  V30 4522 C 421.269 3.22698 -5.44104 0
M  V30 4523 C 419.933 3.22542 -5.84399 0
M  V30 4524 H 419.203 0.642877 -0.368496 0
M  V30 4525 H 421.85 1.19865 -1.49348 0
M  V30 4526 H 420.155 3.77027 -1.06573 0
M  V30 4527 H 421.852 3.73648 -1.45561 0
M  V30 4528 H 418.442 3.2434 -2.80181 0
M  V30 4529 H 422.626 3.21361 -3.78207 0
M  V30 4530 H 417.882 3.22338 -5.19527 0
M  V30 4531 H 422.056 3.20543 -6.18244 0
M  V30 4532 H 419.683 3.20575 -6.89301 0
M  V30 4533 N 421.258 1.00505 1.21394 0
M  V30 4534 C 422.506 0.686415 1.90086 0
M  V30 4535 C 422.827 -0.785264 1.7849 0
M  V30 4536 O 422.097 -1.56387 1.17983 0
M  V30 4537 H 420.677 0.2509 0.703604 0
M  V30 4538 H 423.339 1.27417 1.47482 0
M  V30 4539 H 422.435 0.959621 2.96981 0
M  V30 4540 N 422.737 -1.36956 0.779787 0
M  V30 4541 C 423.647 -2.33965 0.172491 0
M  V30 4542 C 424.663 -1.60574 -0.670222 0
M  V30 4543 O 425.839 -1.92617 -0.588263 0
M  V30 4544 C 422.904 -3.39761 -0.690173 0
M  V30 4545 C 421.965 -4.28964 0.169924 0
M  V30 4546 C 421.198 -5.29707 -0.651662 0
M  V30 4547 O 421.421 -5.38238 -1.88827 0
M  V30 4548 O 420.355 -6.01873 -0.0566264 0
M  V30 4549 H 424.181 -2.87647 0.974321 0
M  V30 4550 H 421.766 -1.39258 0.541078 0
M  V30 4551 H 423.648 -4.04471 -1.1824 0
M  V30 4552 H 422.323 -2.88394 -1.47006 0
M  V30 4553 H 421.23 -3.67326 0.708696 0
M  V30 4554 H 422.563 -4.83656 0.913085 0
M  V30 4555 N 424.215 -0.530993 -1.48385 0
M  V30 4556 C 425.145 0.219985 -2.32461 0
M  V30 4557 C 426.126 0.934111 -1.42156 0
M  V30 4558 O 427.311 0.919694 -1.71042 0
M  V30 4559 C 424.441 1.26674 -3.23375 0
M  V30 4560 C 423.395 0.67069 -4.22712 0
M  V30 4561 C 422.721 1.82017 -5.02766 0
M  V30 4562 C 424.021 -0.358268 -5.2107 0
M  V30 4563 H 425.715 -0.48187 -2.95497 0
M  V30 4564 H 423.261 -0.233182 -1.42099 0
M  V30 4565 H 425.214 1.80006 -3.81019 0
M  V30 4566 H 423.938 1.99818 -2.58341 0
M  V30 4567 H 422.597 0.158878 -3.66256 0
M  V30 4568 H 422.245 2.54002 -4.34157 0
M  V30 4569 H 421.945 1.42727 -5.70003 0
M  V30 4570 H 423.469 2.35725 -5.63264 0
M  V30 4571 H 424.883 0.0880081 -5.73232 0
M  V30 4572 H 423.28 -0.66861 -5.96364 0
M  V30 4573 H 424.35 -1.26367 -4.68145 0
M  V30 4574 N 425.693 1.55336 -0.266172 0
M  V30 4575 C 426.623 2.25146 0.618981 0
M  V30 4576 C 427.604 1.23845 1.16604 0
M  V30 4577 O 428.789 1.52544 1.20183 0
M  V30 4578 C 425.919 2.96572 1.80728 0
M  V30 4579 C 424.873 4.04726 1.39215 0
M  V30 4580 C 424.199 4.63678 2.66283 0
M  V30 4581 C 425.499 5.19407 0.548942 0
M  V30 4582 H 427.193 2.99377 0.0368116 0
M  V30 4583 H 424.739 1.43991 0.0162651 0
M  V30 4584 H 426.692 3.44116 2.43232 0
M  V30 4585 H 425.416 2.19861 2.41514 0
M  V30 4586 H 424.075 3.57979 0.790351 0
M  V30 4587 H 423.723 3.83646 3.25308 0
M  V30 4588 H 423.423 5.367 2.39222 0
M  V30 4589 H 424.947 5.13967 3.29651 0
M  V30 4590 H 426.361 5.63059 1.07876 0
M  V30 4591 H 424.758 5.98936 0.373593 0
M  V30 4592 H 425.828 4.8295 -0.434394 0
M  V30 4593 N 427.171 -0.0066808 1.57599 0
M  V30 4594 C 428.101 -0.999296 2.11036 0
M  V30 4595 C 429.082 -1.36278 1.01795 0
M  V30 4596 O 430.267 -1.4477 1.29442 0
M  V30 4597 C 427.397 -2.29328 2.60818 0
M  V30 4598 C 426.351 -2.07159 3.74525 0
M  V30 4599 C 425.677 -3.42512 4.10596 0
M  V30 4600 C 426.977 -1.43959 5.02069 0
M  V30 4601 H 428.671 -0.554382 2.94223 0
M  V30 4602 H 426.217 -0.265221 1.41536 0
M  V30 4603 H 428.17 -2.99117 2.96828 0
M  V30 4604 H 426.894 -2.7592 1.74745 0
M  V30 4605 H 425.553 -1.39797 3.38899 0
M  V30 4606 H 425.201 -3.86795 3.21556 0
M  V30 4607 H 424.901 -3.28498 4.87199 0
M  V30 4608 H 426.425 -4.13628 4.4916 0
M  V30 4609 H 427.839 -2.03696 5.35893 0
M  V30 4610 H 426.236 -1.40452 5.83432 0
M  V30 4611 H 427.306 -0.407992 4.83181 0
M  V30 4612 N 428.649 -1.55105 -0.279332 0
M  V30 4613 C 429.579 -1.90557 -1.34945 0
M  V30 4614 C 430.56 -0.766738 -1.51839 0
M  V30 4615 O 431.745 -1.02434 -1.64988 0
M  V30 4616 C 428.875 -2.17193 -2.71006 0
M  V30 4617 C 427.829 -3.33021 -2.68851 0
M  V30 4618 C 427.155 -3.45123 -4.08405 0
M  V30 4619 C 428.455 -4.69578 -2.28678 0
M  V30 4620 H 430.149 -2.80188 -1.05522 0
M  V30 4621 H 427.695 -1.34811 -0.506173 0
M  V30 4622 H 429.648 -2.40581 -3.45975 0
M  V30 4623 H 428.372 -1.24355 -3.01999 0
M  V30 4624 H 427.031 -3.0959 -1.9634 0
M  V30 4625 H 426.679 -2.49762 -4.3661 0
M  V30 4626 H 426.379 -4.22995 -4.07859 0
M  V30 4627 H 427.903 -3.70796 -4.85121 0
M  V30 4628 H 429.317 -4.92553 -2.93368 0
M  V30 4629 H 427.714 -5.5032 -2.39306 0
M  V30 4630 H 428.784 -4.68828 -1.23807 0
M  V30 4631 N 430.127 0.543554 -1.4793 0
M  V30 4632 C 431.057 1.65888 -1.64327 0
M  V30 4633 C 432.038 1.62818 -0.492383 0
M  V30 4634 O 433.223 1.80226 -0.723338 0
M  V30 4635 C 430.353 3.04506 -1.67013 0
M  V30 4636 C 429.307 3.2243 -2.81466 0
M  V30 4637 C 428.633 4.61972 -2.69233 0
M  V30 4638 C 429.933 3.06496 -4.22915 0
M  V30 4639 H 431.627 1.52421 -2.57698 0
M  V30 4640 H 429.173 0.731849 -1.24016 0
M  V30 4641 H 431.126 3.82391 -1.77074 0
M  V30 4642 H 429.85 3.18964 -0.70212 0
M  V30 4643 H 428.509 2.46957 -2.70938 0
M  V30 4644 H 428.157 4.73247 -1.7043 0
M  V30 4645 H 427.857 4.74911 -3.46025 0
M  V30 4646 H 429.381 5.41974 -2.81242 0
M  V30 4647 H 430.795 3.74186 -4.34348 0
M  V30 4648 H 429.192 3.30938 -5.006 0
M  V30 4649 H 430.262 2.03077 -4.40327 0
M  V30 4650 N 431.605 1.3629 0.791371 0
M  V30 4651 C 433.016 1.27225 1.36641 0
M  V30 4652 C 433.367 -0.0887968 1.95999 0
M  V30 4653 O 432.492 -0.990207 1.92416 0
M  V30 4654 C 433.087 2.30375 2.48421 0
M  V30 4655 C 431.646 2.25004 3.01746 0
M  V30 4656 C 430.793 2.15259 1.7481 0
M  V30 4657 H 433.744 1.47198 0.593173 0
M  V30 4658 H 433.765 1.93905 3.27385 0
M  V30 4659 H 433.277 3.29422 2.05189 0
M  V30 4660 H 431.378 1.29417 3.49403 0
M  V30 4661 H 431.491 3.1761 3.58693 0
M  V30 4662 H 429.855 1.61482 1.96966 0
M  V30 4663 H 430.638 3.16191 1.33709 0
M  V30 4664 N 433.083 -1.0153 1.20538 0
M  V30 4665 C 434.311 -1.78746 1.04199 0
M  V30 4666 C 434.726 -1.84323 -0.408733 0
M  V30 4667 O 434.083 -1.29714 -1.28377 0
M  V30 4668 C 434.134 -3.23152 1.62035 0
M  V30 4669 O 433.855 -3.17918 3.0143 0
M  V30 4670 C 435.356 -4.16911 1.50666 0
M  V30 4671 H 432.576 -0.56208 0.366479 0
M  V30 4672 H 435.12 -1.27794 1.59653 0
M  V30 4673 H 433.275 -3.71248 1.10697 0
M  V30 4674 H 433.689 -4.08567 3.28897 0
M  V30 4675 H 435.163 -5.16072 1.95892 0
M  V30 4676 H 435.64 -4.36791 0.459363 0
M  V30 4677 H 436.246 -3.74698 2.01201 0
M  V30 4678 N 434.561 -1.01147 -1.20859 0
M  V30 4679 C 435.491 -0.597663 -2.25722 0
M  V30 4680 C 436.472 0.384744 -1.65692 0
M  V30 4681 O 437.657 0.271303 -1.92296 0
M  V30 4682 C 434.787 0.0700149 -3.47229 0
M  V30 4683 C 433.741 -0.832843 -4.19819 0
M  V30 4684 C 433.067 -0.0312202 -5.34691 0
M  V30 4685 C 434.367 -2.1385 -4.76514 0
M  V30 4686 H 436.061 -1.47423 -2.60589 0
M  V30 4687 H 433.607 -0.710301 -1.25263 0
M  V30 4688 H 435.56 0.37103 -4.19763 0
M  V30 4689 H 434.284 0.981259 -3.11511 0
M  V30 4690 H 432.943 -1.11778 -3.49144 0
M  V30 4691 H 432.591 0.881515 -4.95215 0
M  V30 4692 H 432.291 -0.632434 -5.84187 0
M  V30 4693 H 433.815 0.26346 -6.10031 0
M  V30 4694 H 435.229 -1.9002 -5.40893 0
M  V30 4695 H 433.626 -2.69012 -5.36426 0
M  V30 4696 H 434.696 -2.80495 -3.95538 0
M  V30 4697 N 436.039 1.36541 -0.78704 0
M  V30 4698 C 436.971 2.28761 -0.141773 0
M  V30 4699 C 437.984 1.49365 0.647599 0
M  V30 4700 O 439.173 1.71836 0.483173 0
M  V30 4701 C 436.273 3.28771 0.822368 0
M  V30 4702 C 435.446 4.3732 0.0835594 0
M  V30 4703 C 434.505 5.17307 0.963296 0
M  V30 4704 O 433.531 5.67638 0.421419 0
M  V30 4705 N 434.733 5.33515 2.28784 0
M  V30 4706 H 437.498 2.84777 -0.933919 0
M  V30 4707 H 435.059 1.48682 -0.640735 0
M  V30 4708 H 437.051 3.79169 1.41468 0
M  V30 4709 H 435.621 2.73412 1.5154 0
M  V30 4710 H 434.841 3.88118 -0.689809 0
M  V30 4711 H 436.129 5.0701 -0.426358 0
M  V30 4712 H 435.527 4.94234 2.75226 0
M  V30 4713 H 434.084 5.87165 2.82985 0
M  V30 4714 N 437.518 0.538854 1.48102 0
M  V30 4715 C 438.743 0.0102694 2.07397 0
M  V30 4716 C 439.168 -1.26562 1.39153 0
M  V30 4717 O 438.526 -1.75357 0.460387 0
M  V30 4718 C 438.574 -0.187602 3.60112 0
M  V30 4719 O 437.678 -1.25432 3.92862 0
M  V30 4720 H 437.019 0.0430975 0.6626 0
M  V30 4721 H 439.549 0.749301 1.90385 0
M  V30 4722 H 439.559 -0.407517 4.0596 0
M  V30 4723 H 438.234 0.744386 4.09184 0
M  V30 4724 H 436.811 -1.01636 3.58782 0
M  V30 4725 N 438.996 -1.55193 0.274407 0
M  V30 4726 C 440.245 -1.98758 -0.343213 0
M  V30 4727 C 440.558 -1.16624 -1.5703 0
M  V30 4728 O 441.764 -1.5033 -2.26082 0
M  V30 4729 C 440.22 -3.53759 -0.661996 0
M  V30 4730 C 439.828 -4.4467 0.54524 0
M  V30 4731 C 441.572 -4.05916 -1.24228 0
M  V30 4732 C 439.479 -5.91058 0.201084 0
M  V30 4733 H 438.409 -0.742353 -0.132014 0
M  V30 4734 H 441.06 -1.79545 0.378948 0
M  V30 4735 H 439.442 -3.68772 -1.44304 0
M  V30 4736 H 440.616 -4.41426 1.32212 0
M  V30 4737 H 438.931 -4.03143 1.04232 0
M  V30 4738 H 441.528 -5.12831 -1.51357 0
M  V30 4739 H 441.871 -3.54908 -2.17592 0
M  V30 4740 H 442.404 -3.9434 -0.523542 0
M  V30 4741 H 439.143 -6.46161 1.10258 0
M  V30 4742 H 438.663 -5.97373 -0.539045 0
M  V30 4743 H 440.342 -6.46669 -0.206954 0
M  V30 4744 N 440.474 -0.00167713 -1.576 0
M  V30 4745 C 441.702 0.693759 -1.94922 0
M  V30 4746 C 442.117 1.67215 -0.876626 0
M  V30 4747 O 441.474 1.81929 0.144279 0
M  V30 4748 C 441.525 1.42416 -3.32265 0
M  V30 4749 O 441.246 0.485014 -4.35407 0
M  V30 4750 C 442.747 2.21395 -3.84056 0
M  V30 4751 H 439.967 0.193118 -0.642609 0
M  V30 4752 H 442.511 -0.0532952 -2.04431 0
M  V30 4753 H 440.666 2.12284 -3.24059 0
M  V30 4754 H 441.08 1.00053 -5.14868 0
M  V30 4755 H 442.554 2.67996 -4.82578 0
M  V30 4756 H 443.031 3.04142 -3.16851 0
M  V30 4757 H 443.637 1.56542 -3.95443 0
M  V30 4758 N 441.952 1.55251 0.271103 0
M  V30 4759 C 443.198 1.7713 0.999832 0
M  V30 4760 C 443.553 0.56659 1.83868 0
M  V30 4761 O 442.846 -0.44069 1.86463 0
M  V30 4762 C 443.04 3.01879 1.91321 0
M  V30 4763 C 442.869 4.34368 1.16426 0
M  V30 4764 C 441.639 4.97593 0.879169 0
M  V30 4765 C 443.837 5.1131 0.553749 0
M  V30 4766 N 441.819 6.13813 0.103618 0
M  V30 4767 C 443.19 6.19938 -0.0875442 0
M  V30 4768 C 445.245 4.95754 0.461782 0
M  V30 4769 C 443.948 7.14703 -0.811942 0
M  V30 4770 C 445.974 5.90875 -0.249027 0
M  V30 4771 C 445.336 6.98893 -0.879051 0
M  V30 4772 H 441.435 0.700407 0.347784 0
M  V30 4773 H 444.019 1.92744 0.275314 0
M  V30 4774 H 442.19 2.87637 2.60997 0
M  V30 4775 H 443.922 3.12154 2.57569 0
M  V30 4776 H 440.677 4.58538 1.18491 0
M  V30 4777 H 441.101 6.76455 -0.271543 0
M  V30 4778 H 445.743 4.12342 0.934552 0
M  V30 4779 H 443.461 7.97634 -1.29639 0
M  V30 4780 H 447.047 5.80916 -0.320529 0
M  V30 4781 H 445.927 7.71231 -1.42031 0
M  V30 4782 N 443.43 -0.535701 1.48216 0
M  V30 4783 C 444.362 -1.65662 1.58394 0
M  V30 4784 C 445.375 -1.5591 0.468607 0
M  V30 4785 O 446.564 -1.62475 0.7392 0
M  V30 4786 C 443.664 -3.04276 1.4923 0
M  V30 4787 C 442.837 -3.39567 2.75705 0
M  V30 4788 C 441.896 -4.57436 2.60075 0
M  V30 4789 O 440.922 -4.60942 3.33948 0
M  V30 4790 N 442.124 -5.55259 1.69315 0
M  V30 4791 H 444.889 -1.5737 2.55058 0
M  V30 4792 H 442.45 -0.722845 1.44867 0
M  V30 4793 H 444.442 -3.80994 1.36477 0
M  V30 4794 H 443.012 -3.06677 0.605632 0
M  V30 4795 H 442.232 -2.52083 3.03064 0
M  V30 4796 H 443.52 -3.59929 3.59623 0
M  V30 4797 H 442.918 -5.552 1.08489 0
M  V30 4798 H 441.475 -6.31218 1.62504 0
M  V30 4799 N 444.908 -1.36708 -0.784132 0
M  V30 4800 C 445.841 -1.25827 -1.90375 0
M  V30 4801 C 446.819 -0.141331 -1.61985 0
M  V30 4802 O 448.003 -0.313389 -1.85877 0
M  V30 4803 C 445.13 -0.942621 -3.25319 0
M  V30 4804 C 444.176 -2.07474 -3.72635 0
M  V30 4805 S 445.009 -3.69317 -3.8777 0
M  V30 4806 C 446.165 -3.39876 -5.25581 0
M  V30 4807 H 446.398 -2.20593 -1.99314 0
M  V30 4808 H 443.931 -1.22186 -0.943926 0
M  V30 4809 H 445.889 -0.767321 -4.03265 0
M  V30 4810 H 444.55 -0.0126566 -3.14097 0
M  V30 4811 H 443.743 -1.80858 -4.70432 0
M  V30 4812 H 443.345 -2.20953 -3.01754 0
M  V30 4813 H 445.637 -2.94097 -6.10339 0
M  V30 4814 H 446.58 -4.36956 -5.57203 0
M  V30 4815 H 446.988 -2.75098 -4.92931 0
M  V30 4816 N 446.386 1.0089 -1.21074 0
M  V30 4817 C 447.635 1.74019 -1.01981 0
M  V30 4818 C 447.948 1.90408 0.447665 0
M  V30 4819 O 449.154 2.60707 0.757906 0
M  V30 4820 C 447.61 3.13026 -1.77603 0
M  V30 4821 C 447.218 3.04623 -3.28495 0
M  V30 4822 C 448.962 3.90312 -1.66904 0
M  V30 4823 C 446.869 4.38685 -3.96623 0
M  V30 4824 H 445.799 0.652422 -0.377971 0
M  V30 4825 H 448.45 1.12755 -1.44771 0
M  V30 4826 H 446.832 3.74878 -1.27604 0
M  V30 4827 H 448.006 2.52032 -3.85767 0
M  V30 4828 H 446.321 2.40827 -3.39693 0
M  V30 4829 H 448.918 4.8951 -2.15138 0
M  V30 4830 H 449.261 4.11558 -0.62658 0
M  V30 4831 H 449.794 3.35104 -2.14359 0
M  V30 4832 H 446.533 4.22641 -5.01054 0
M  V30 4833 H 446.053 4.91252 -3.4414 0
M  V30 4834 H 447.732 5.075 -4.01314 0
M  V30 4835 N 447.864 1.01787 1.20321 0
M  V30 4836 C 448.774 0.598898 2.26827 0
M  V30 4837 C 449.79 -0.36418 1.70146 0
M  V30 4838 O 450.966 -0.224812 2.00141 0
M  V30 4839 C 448.031 -0.0549769 3.46656 0
M  V30 4840 C 447.092 0.954205 4.18561 0
M  V30 4841 C 446.325 0.331439 5.3267 0
M  V30 4842 O 446.548 -0.86851 5.63749 0
M  V30 4843 O 445.482 1.0488 5.92692 0
M  V30 4844 H 449.308 1.48562 2.64883 0
M  V30 4845 H 446.893 0.787434 1.26964 0
M  V30 4846 H 448.775 -0.420102 4.19301 0
M  V30 4847 H 447.45 -0.915876 3.10473 0
M  V30 4848 H 446.357 1.37072 3.48083 0
M  V30 4849 H 447.69 1.78511 4.58688 0
M  V30 4850 N 449.342 -1.36122 0.79427 0
M  V30 4851 C 450.274 -2.28683 0.153903 0
M  V30 4852 C 451.287 -1.49707 -0.639669 0
M  V30 4853 O 452.476 -1.7209 -0.474054 0
M  V30 4854 C 449.576 -3.29202 -0.804921 0
M  V30 4855 C 448.749 -4.37358 -0.060366 0
M  V30 4856 C 447.808 -5.17811 -0.935849 0
M  V30 4857 O 446.834 -5.67853 -0.391309 0
M  V30 4858 N 448.036 -5.34721 -2.25951 0
M  V30 4859 H 450.801 -2.84278 0.949008 0
M  V30 4860 H 448.362 -1.4834 0.648611 0
M  V30 4861 H 450.354 -3.79914 -1.39455 0
M  V30 4862 H 448.924 -2.74212 -1.50088 0
M  V30 4863 H 448.144 -3.87746 0.710382 0
M  V30 4864 H 449.432 -5.06777 0.45324 0
M  V30 4865 H 448.83 -4.95687 -2.72601 0
M  V30 4866 H 447.387 -5.88657 -2.79867 0
M  V30 4867 N 450.82 -0.546701 -1.47814 0
M  V30 4868 C 452.069 -0.0166497 -2.01693 0
M  V30 4869 C 452.382 1.33721 -1.42752 0
M  V30 4870 O 453.588 1.95658 -1.8823 0
M  V30 4871 C 452.044 0.0206769 -3.59894 0
M  V30 4872 C 451.652 -1.3293 -4.27824 0
M  V30 4873 C 453.396 0.498674 -4.21561 0
M  V30 4874 C 451.303 -1.25165 -5.78003 0
M  V30 4875 H 450.233 -0.0024541 -0.753996 0
M  V30 4876 H 452.884 -0.692984 -1.69912 0
M  V30 4877 H 451.266 0.76244 -3.88591 0
M  V30 4878 H 452.44 -2.08795 -4.10781 0
M  V30 4879 H 450.755 -1.74438 -3.78101 0
M  V30 4880 H 453.352 0.575 -5.31599 0
M  V30 4881 H 453.695 1.5083 -3.88016 0
M  V30 4882 H 454.228 -0.18791 -3.97356 0
M  V30 4883 H 450.967 -2.23695 -6.1615 0
M  V30 4884 H 450.487 -0.53464 -5.97412 0
M  V30 4885 H 452.166 -0.949299 -6.39998 0
M  V30 4886 N 452.299 1.55045 -0.282633 0
M  V30 4887 C 453.231 2.2023 0.634924 0
M  V30 4888 C 454.244 1.18931 1.11172 0
M  V30 4889 O 455.433 1.4562 1.03233 0
M  V30 4890 C 452.533 2.82041 1.87899 0
M  V30 4891 C 451.706 4.091 1.54776 0
M  V30 4892 C 450.765 4.54887 2.64507 0
M  V30 4893 O 449.791 5.20496 2.30375 0
M  V30 4894 N 450.993 4.25659 3.94709 0
M  V30 4895 H 453.758 2.99601 0.0769811 0
M  V30 4896 H 451.319 1.61565 -0.104048 0
M  V30 4897 H 453.311 3.09613 2.60619 0
M  V30 4898 H 451.881 2.06618 2.3458 0
M  V30 4899 H 451.101 3.88736 0.654049 0
M  V30 4900 H 452.389 4.9187 1.30158 0
M  V30 4901 H 451.787 3.7306 4.25256 0
M  V30 4902 H 450.344 4.57984 4.63782 0
M  V30 4903 N 453.777 0.010035 1.57597 0
M  V30 4904 C 455.024 -0.6727 1.91 0
M  V30 4905 C 455.352 -1.73219 0.884614 0
M  V30 4906 O 454.607 -1.95395 -0.109215 0
M  V30 4907 C 454.906 -1.34434 3.31153 0
M  V30 4908 C 454.572 -0.417083 4.48967 0
M  V30 4909 C 453.234 -0.161809 4.80928 0
M  V30 4910 C 455.586 0.220753 5.20732 0
M  V30 4911 C 452.914 0.739426 5.82022 0
M  V30 4912 C 455.266 1.10993 6.22787 0
M  V30 4913 C 453.93 1.37428 6.532 0
M  V30 4914 H 453.2 -0.246158 0.698918 0
M  V30 4915 H 455.847 0.0677145 1.9138 0
M  V30 4916 H 454.152 -2.15905 3.26944 0
M  V30 4917 H 455.849 -1.87883 3.54261 0
M  V30 4918 H 452.439 -0.626217 4.24001 0
M  V30 4919 H 456.623 0.0365643 4.96287 0
M  V30 4920 H 451.879 0.952139 6.03941 0
M  V30 4921 H 456.053 1.61046 6.77523 0
M  V30 4922 H 453.68 2.0743 7.31353 0
M  V30 4923 N 455.255 -1.55392 -0.262866 0
M  V30 4924 C 456.501 -1.76737 -0.99458 0
M  V30 4925 C 456.834 -0.572453 -1.85571 0
M  V30 4926 O 456.109 0.429732 -1.89693 0
M  V30 4927 C 456.392 -3.07824 -1.8686 0
M  V30 4928 C 456.245 -4.3769 -1.03672 0
M  V30 4929 C 457.564 -3.35021 -2.85393 0
M  V30 4930 H 454.683 -0.643005 -0.360157 0
M  V30 4931 H 457.325 -1.88126 -0.266216 0
M  V30 4932 H 455.475 -2.98245 -2.48962 0
M  V30 4933 H 457.147 -4.59238 -0.43563 0
M  V30 4934 H 455.39 -4.32461 -0.340513 0
M  V30 4935 H 456.061 -5.25759 -1.6817 0
M  V30 4936 H 458.537 -3.44458 -2.33426 0
M  V30 4937 H 457.413 -4.27989 -3.43681 0
M  V30 4938 H 457.674 -2.55153 -3.61039 0
M  V30 4939 N 456.733 0.527833 -1.48498 0
M  V30 4940 C 457.68 1.6322 -1.6318 0
M  V30 4941 C 458.65 1.59199 -0.473815 0
M  V30 4942 O 459.835 1.77591 -0.697563 0
M  V30 4943 C 456.975 3.01474 -1.67951 0
M  V30 4944 C 456.088 3.15713 -2.94871 0
M  V30 4945 C 455.223 4.44539 -2.90789 0
M  V30 4946 C 454.262 4.52315 -4.12404 0
M  V30 4947 N 453.399 5.72533 -4.06387 0
M  V30 4948 H 458.239 1.50011 -2.57489 0
M  V30 4949 H 455.776 0.730298 -1.27691 0
M  V30 4950 H 457.734 3.81572 -1.68698 0
M  V30 4951 H 456.364 3.1345 -0.771306 0
M  V30 4952 H 455.416 2.28854 -3.03859 0
M  V30 4953 H 456.728 3.1732 -3.8485 0
M  V30 4954 H 455.882 5.3293 -2.89949 0
M  V30 4955 H 454.621 4.45457 -1.98542 0
M  V30 4956 H 453.626 3.62331 -4.13517 0
M  V30 4957 H 454.851 4.53134 -5.05812 0
M  V30 4958 H 452.797 5.74344 -3.16962 0
M  V30 4959 H 452.714 5.75643 -4.90073 0
M  V30 4960 H 453.982 6.63204 -4.0961 0
M  V30 4961 N 458.211 1.37122 0.776871 0
M  V30 4962 C 459.141 1.35164 1.90402 0
M  V30 4963 C 460.122 0.221069 1.68657 0
M  V30 4964 O 461.307 0.420642 1.8959 0
M  V30 4965 C 458.437 1.15274 3.27611 0
M  V30 4966 C 457.391 2.25289 3.63908 0
M  V30 4967 C 456.717 1.90527 4.99603 0
M  V30 4968 C 458.017 3.67446 3.71188 0
M  V30 4969 H 459.711 2.29482 1.92297 0
M  V30 4970 H 457.257 1.10465 0.923773 0
M  V30 4971 H 459.21 1.12536 4.06096 0
M  V30 4972 H 457.934 0.174102 3.26136 0
M  V30 4973 H 456.593 2.27174 2.87728 0
M  V30 4974 H 456.241 0.91206 4.94662 0
M  V30 4975 H 455.941 2.64193 5.24858 0
M  V30 4976 H 457.465 1.89367 5.80493 0
M  V30 4977 H 458.879 3.67719 4.39836 0
M  V30 4978 H 457.276 4.40123 4.07936 0
M  V30 4979 H 458.346 4.01443 2.71977 0
M  V30 4980 N 459.689 -1.00246 1.21608 0
M  V30 4981 C 460.936 -1.74061 1.03485 0
M  V30 4982 C 461.264 -1.89658 -0.431308 0
M  V30 4983 O 460.519 -1.42976 -1.33627 0
M  V30 4984 C 460.818 -3.15448 1.68009 0
M  V30 4985 C 460.484 -3.19792 3.17874 0
M  V30 4986 C 459.146 -3.20685 3.58768 0
M  V30 4987 C 461.498 -3.16835 4.13842 0
M  V30 4988 C 458.826 -3.16309 4.94131 0
M  V30 4989 C 461.178 -3.14001 5.49169 0
M  V30 4990 C 459.842 -3.13204 5.89457 0
M  V30 4991 H 459.112 -0.636934 0.378677 0
M  V30 4992 H 461.759 -1.17473 1.51236 0
M  V30 4993 H 460.064 -3.75284 1.12557 0
M  V30 4994 H 461.761 -3.71285 1.51487 0
M  V30 4995 H 458.351 -3.19842 2.85305 0
M  V30 4996 H 462.535 -3.15303 3.83272 0
M  V30 4997 H 457.791 -3.14032 5.24589 0
M  V30 4998 H 461.965 -3.10667 6.23265 0
M  V30 4999 H 459.592 -3.09568 6.94314 0
M  V30 5000 N 461.167 -1.02423 -1.1978 0
M  V30 5001 C 462.415 -0.716569 -1.8897 0
M  V30 5002 C 462.736 0.756769 -1.79716 0
M  V30 5003 O 462.006 1.5449 -1.20456 0
M  V30 5004 H 460.586 -0.262062 -0.699523 0
M  V30 5005 H 463.248 -1.29747 -1.45436 0
M  V30 5006 H 462.344 -1.00675 -2.95417 0
M  V30 5007 N 462.645 1.35699 -0.801477 0
M  V30 5008 C 463.578 2.2768 -0.153922 0
M  V30 5009 C 464.556 1.47832 0.67709 0
M  V30 5010 O 465.74 1.77104 0.645474 0
M  V30 5011 C 462.867 3.2943 0.786986 0
M  V30 5012 C 461.913 4.26485 0.0362447 0
M  V30 5013 S 462.746 5.19573 -1.2963 0
M  V30 5014 C 463.902 6.24866 -0.359705 0
M  V30 5015 H 464.135 2.82254 -0.9338 0
M  V30 5016 H 461.668 1.42421 -0.596283 0
M  V30 5017 H 463.626 3.8855 1.32436 0
M  V30 5018 H 462.287 2.73745 1.54021 0
M  V30 5019 H 461.48 4.98378 0.750668 0
M  V30 5020 H 461.082 3.71508 -0.431017 0
M  V30 5021 H 463.374 6.75957 0.456954 0
M  V30 5022 H 464.317 7.00307 -1.04768 0
M  V30 5023 H 464.725 5.64484 0.0423274 0
M  V30 5024 N 464.123 0.554532 1.47522 0
M  V30 5025 C 465.369 0.0295227 2.02779 0
M  V30 5026 C 465.702 -1.31582 1.42828 0
M  V30 5027 O 464.977 -1.85561 0.582872 0
M  V30 5028 C 465.26 -0.0664057 3.60039 0
M  V30 5029 C 465.113 1.30585 4.30427 0
M  V30 5030 C 466.432 -0.781162 4.33112 0
M  V30 5031 H 463.551 0.0122027 0.736899 0
M  V30 5032 H 466.193 0.716305 1.7598 0
M  V30 5033 H 464.343 -0.651307 3.83002 0
M  V30 5034 H 466.015 1.93374 4.18813 0
M  V30 5035 H 464.258 1.88125 3.90886 0
M  V30 5036 H 464.929 1.19147 5.38988 0
M  V30 5037 H 467.405 -0.284565 4.15126 0
M  V30 5038 H 466.281 -0.817237 5.42782 0
M  V30 5039 H 466.542 -1.83672 4.0214 0
M  V30 5040 N 465.601 -1.54893 0.290851 0
M  V30 5041 C 466.548 -2.23138 -0.58974 0
M  V30 5042 C 467.518 -1.21036 -1.13752 0
M  V30 5043 O 468.703 -1.49626 -1.18392 0
M  V30 5044 C 465.843 -2.96811 -1.76061 0
M  V30 5045 C 464.956 -4.13665 -1.24519 0
M  V30 5046 C 464.091 -4.74944 -2.3791 0
M  V30 5047 C 463.13 -5.83963 -1.83451 0
M  V30 5048 N 462.267 -6.39239 -2.90376 0
M  V30 5049 H 467.107 -2.98 -0.00114915 0
M  V30 5050 H 464.644 -1.47096 0.0112006 0
M  V30 5051 H 466.602 -3.37751 -2.44909 0
M  V30 5052 H 465.232 -2.24344 -2.32098 0
M  V30 5053 H 464.284 -3.77737 -0.449288 0
M  V30 5054 H 465.596 -4.92238 -0.806424 0
M  V30 5055 H 464.75 -5.18684 -3.14724 0
M  V30 5056 H 463.489 -3.95682 -2.85109 0
M  V30 5057 H 462.494 -5.39657 -1.05122 0
M  V30 5058 H 463.719 -6.65103 -1.37169 0
M  V30 5059 H 461.665 -5.62864 -3.36927 0
M  V30 5060 H 461.582 -7.13129 -2.50965 0
M  V30 5061 H 462.85 -6.87637 -3.67118 0
M  V30 5062 N 467.08 -0.0183926 -1.57589 0
M  V30 5063 C 468.329 0.66185 -1.90532 0
M  V30 5064 C 468.642 1.73904 -0.895366 0
M  V30 5065 O 469.848 2.47518 -1.11566 0
M  V30 5066 C 468.304 1.22844 -3.38286 0
M  V30 5067 C 467.912 0.185103 -4.47617 0
M  V30 5068 C 469.656 1.88581 -3.80312 0
M  V30 5069 C 467.563 0.762723 -5.86461 0
M  V30 5070 H 466.493 0.250972 -0.711006 0
M  V30 5071 H 469.144 -0.0819435 -1.83317 0
M  V30 5072 H 467.526 2.0235 -3.40398 0
M  V30 5073 H 468.7 -0.58671 -4.5705 0
M  V30 5074 H 467.015 -0.372889 -4.14727 0
M  V30 5075 H 469.612 2.32735 -4.81392 0
M  V30 5076 H 469.955 2.72408 -3.14801 0
M  V30 5077 H 470.488 1.15782 -3.80578 0
M  V30 5078 H 467.227 -0.0371713 -6.55489 0
M  V30 5079 H 466.747 1.50327 -5.80656 0
M  V30 5080 H 468.426 1.25576 -6.34697 0
M  V30 5081 N 468.558 1.5553 0.254621 0
M  V30 5082 C 469.835 1.6774 1.00611 0
M  V30 5083 C 470.215 0.555993 2.03647 0
M  V30 5084 O 469.563 -0.441583 2.24193 0
M  V30 5085 C 469.773 3.07725 1.6464 0
M  V30 5086 C 471.121 3.66074 2.15116 0
M  V30 5087 O 472.145 3.10476 1.74595 0
M  V30 5088 O 471.004 4.63526 2.89493 0
M  V30 5089 H 468.098 0.681958 0.467828 0
M  V30 5090 H 470.644 1.67863 0.24902 0
M  V30 5091 H 469.416 3.80792 0.900734 0
M  V30 5092 H 469.039 3.1158 2.46989 0
M  V30 5093 N 470.036 -0.519951 1.48776 0
M  V30 5094 C 470.984 -1.64443 1.64503 0
M  V30 5095 C 471.978 -1.61501 0.511248 0
M  V30 5096 O 473.184 -1.66238 0.690294 0
M  V30 5097 H 469.559 -0.544776 0.518385 0
M  V30 5098 H 471.53 -1.48325 2.58925 0
M  V30 5099 C 470.279 -3.02673 1.71127 0
M  V30 5100 H 469.602 -3.05635 2.57735 0
M  V30 5101 H 471.042 -3.80941 1.86172 0
M  V30 5102 C 469.501 -3.33854 0.452032 0
M  V30 5103 O 470.031 -3.99385 -0.430678 0
M  V30 5104 N 468.237 -2.88825 0.32069 0
M  V30 5105 H 467.784 -2.35674 1.03998 0
M  V30 5106 H 467.742 -3.10056 -0.520814 0
M  V30 5107 N 471.514 -1.37532 -0.769588 0
M  V30 5108 C 472.444 -1.36172 -1.89682 0
M  V30 5109 C 473.425 -0.23001 -1.68538 0
M  V30 5110 O 474.61 -0.43069 -1.89364 0
M  V30 5111 C 471.74 -1.1701 -3.26995 0
M  V30 5112 C 470.694 -2.27216 -3.62708 0
M  V30 5113 C 470.02 -1.93174 -4.98586 0
M  V30 5114 C 471.32 -3.6941 -3.69234 0
M  V30 5115 H 473.014 -2.30499 -1.91078 0
M  V30 5116 H 470.56 -1.10953 -0.917902 0
M  V30 5117 H 472.513 -1.14688 -4.05493 0
M  V30 5118 H 471.237 -0.191395 -3.26039 0
M  V30 5119 H 469.896 -2.28697 -2.86519 0
M  V30 5120 H 469.544 -0.938281 -4.94171 0
M  V30 5121 H 469.244 -2.66973 -5.23449 0
M  V30 5122 H 470.768 -1.92443 -5.79481 0
M  V30 5123 H 472.182 -3.70047 -4.37879 0
M  V30 5124 H 470.579 -4.4228 -4.05597 0
M  V30 5125 H 471.649 -4.0288 -2.69844 0
M  V30 5126 N 472.992 0.995999 -1.22138 0
M  V30 5127 C 473.922 2.10387 -1.01289 0
M  V30 5128 C 474.903 1.69975 0.0651454 0
M  V30 5129 O 476.088 1.9396 -0.0964628 0
M  V30 5130 C 473.218 3.42312 -0.586517 0
M  V30 5131 C 472.172 3.96558 -1.61014 0
M  V30 5132 C 471.498 5.24494 -1.0397 0
M  V30 5133 C 472.798 4.27595 -2.99933 0
M  V30 5134 H 474.492 2.28086 -1.93951 0
M  V30 5135 H 472.038 1.09607 -0.933928 0
M  V30 5136 H 473.991 4.19223 -0.427793 0
M  V30 5137 H 472.715 3.24431 0.375761 0
M  V30 5138 H 471.374 3.21776 -1.75658 0
M  V30 5139 H 471.022 5.02953 -0.0688703 0
M  V30 5140 H 470.722 5.61755 -1.72352 0
M  V30 5141 H 472.246 6.04042 -0.892494 0
M  V30 5142 H 473.66 4.95315 -2.8868 0
M  V30 5143 H 472.057 4.76021 -3.6541 0
M  V30 5144 H 473.127 3.35498 -3.50099 0
M  V30 5145 N 474.47 1.03057 1.19235 0
M  V30 5146 C 475.402 0.570932 2.21975 0
M  V30 5147 C 476.415 -0.354088 1.58903 0
M  V30 5148 O 477.604 -0.150211 1.77867 0
M  V30 5149 C 474.704 -0.187152 3.38383 0
M  V30 5150 C 473.877 0.743231 4.31039 0
M  V30 5151 C 472.936 0.0302493 5.26191 0
M  V30 5152 O 471.962 0.657371 5.65391 0
M  V30 5153 N 473.164 -1.23991 5.67104 0
M  V30 5154 H 475.929 1.45456 2.62036 0
M  V30 5155 H 473.49 0.909807 1.33918 0
M  V30 5156 H 475.482 -0.673715 3.99053 0
M  V30 5157 H 474.052 -0.972205 2.97098 0
M  V30 5158 H 473.272 1.40985 3.68126 0
M  V30 5159 H 474.56 1.3755 4.89854 0
M  V30 5160 H 473.958 -1.77011 5.37293 0
M  V30 5161 H 472.515 -1.67093 6.30018 0
M  V30 5162 N 475.948 -1.35272 0.808662 0
M  V30 5163 C 476.858 -2.33546 0.222079 0
M  V30 5164 C 477.874 -1.6196 -0.636011 0
M  V30 5165 O 479.05 -1.93822 -0.547274 0
M  V30 5166 C 476.115 -3.41148 -0.61795 0
M  V30 5167 C 475.176 -4.28507 0.260875 0
M  V30 5168 C 474.409 -5.3097 -0.539156 0
M  V30 5169 O 474.632 -5.42123 -1.77367 0
M  V30 5170 O 473.566 -6.01858 0.0710526 0
M  V30 5171 H 477.392 -2.85515 1.03512 0
M  V30 5172 H 474.977 -1.38079 0.570495 0
M  V30 5173 H 476.859 -4.06889 -1.09634 0
M  V30 5174 H 475.534 -2.91447 -1.40855 0
M  V30 5175 H 474.441 -3.6574 0.786451 0
M  V30 5176 H 475.774 -4.81611 1.01547 0
M  V30 5177 N 477.426 -0.562348 -1.47226 0
M  V30 5178 C 478.359 0.230405 -2.27034 0
M  V30 5179 C 479.337 0.915609 -1.3437 0
M  V30 5180 O 480.521 0.933573 -1.63758 0
M  V30 5181 C 477.648 1.32874 -3.11548 0
M  V30 5182 C 476.694 0.751552 -4.19826 0
M  V30 5183 S 477.527 -0.405848 -5.3396 0
M  V30 5184 C 478.683 0.694186 -6.22038 0
M  V30 5185 H 478.916 -0.446811 -2.93923 0
M  V30 5186 H 476.449 -0.348781 -1.50409 0
M  V30 5187 H 478.407 1.95773 -3.60809 0
M  V30 5188 H 477.068 1.97782 -2.44011 0
M  V30 5189 H 476.261 1.57651 -4.78709 0
M  V30 5190 H 475.863 0.198645 -3.73472 0
M  V30 5191 H 478.155 1.58501 -6.58698 0
M  V30 5192 H 479.098 0.142592 -7.07956 0
M  V30 5193 H 479.506 0.989169 -5.55766 0
M  V30 5194 N 478.904 1.54736 -0.299062 0
M  V30 5195 C 479.834 2.26409 0.571085 0
M  V30 5196 C 480.815 1.2629 1.13951 0
M  V30 5197 O 482 1.55059 1.16921 0
M  V30 5198 C 479.13 3.00338 1.74396 0
M  V30 5199 C 478.084 4.07588 1.30599 0
M  V30 5200 C 477.41 4.69222 2.56387 0
M  V30 5201 C 478.71 5.20455 0.438645 0
M  V30 5202 H 480.404 2.99388 -0.0266991 0
M  V30 5203 H 477.95 1.43993 -0.0142812 0
M  V30 5204 H 479.903 3.49198 2.35878 0
M  V30 5205 H 478.627 2.24934 2.36796 0
M  V30 5206 H 477.286 3.59575 0.71424 0
M  V30 5207 H 476.934 3.9046 3.17097 0
M  V30 5208 H 476.634 5.41653 2.27784 0
M  V30 5209 H 478.158 5.20844 3.18675 0
M  V30 5210 H 479.572 5.65221 0.959085 0
M  V30 5211 H 477.969 5.99594 0.246466 0
M  V30 5212 H 479.039 4.8192 -0.536738 0
M  V30 5213 N 480.382 0.0267497 1.57577 0
M  V30 5214 C 481.312 -0.954308 2.13108 0
M  V30 5215 C 482.293 -1.34088 1.04663 0
M  V30 5216 O 483.478 -1.41992 1.32484 0
M  V30 5217 C 480.608 -2.23744 2.65624 0
M  V30 5218 C 479.562 -1.99168 3.78835 0
M  V30 5219 C 478.888 -3.33726 4.17769 0
M  V30 5220 C 480.188 -1.33277 5.0501 0
M  V30 5221 H 481.882 -0.491848 2.95332 0
M  V30 5222 H 479.428 -0.23514 1.42067 0
M  V30 5223 H 481.381 -2.92754 3.03106 0
M  V30 5224 H 480.105 -2.72151 1.80558 0
M  V30 5225 H 478.764 -1.32577 3.41788 0
M  V30 5226 H 478.412 -3.79888 3.29688 0
M  V30 5227 H 478.112 -3.18089 4.94058 0
M  V30 5228 H 479.636 -4.04008 4.57832 0
M  V30 5229 H 481.05 -1.92283 5.40093 0
M  V30 5230 H 479.447 -1.28045 5.8628 0
M  V30 5231 H 480.517 -0.305411 4.83937 0
M  V30 5232 N 481.861 -1.55662 -0.24637 0
M  V30 5233 C 483.109 -1.77168 -0.972411 0
M  V30 5234 C 483.43 -0.590827 -1.85834 0
M  V30 5235 O 482.7 0.393365 -1.9191 0
M  V30 5236 H 481.28 -0.653405 -0.362038 0
M  V30 5237 H 483.942 -1.93101 -0.264189 0
M  V30 5238 H 483.038 -2.68335 -1.59382 0
M  V30 5239 N 483.339 0.512053 -1.4905 0
M  V30 5240 C 484.587 1.26436 -1.57665 0
M  V30 5241 C 484.908 1.93255 -0.260293 0
M  V30 5242 O 484.178 1.82206 0.719564 0
M  V30 5243 H 482.758 0.469658 -0.580888 0
M  V30 5244 H 485.42 0.594398 -1.85615 0
M  V30 5245 H 484.516 2.03417 -2.36702 0
M  V30 5246 N 484.817 1.37938 0.762283 0
M  V30 5247 C 485.78 1.34279 1.85747 0
M  V30 5248 C 486.78 0.244969 1.58923 0
M  V30 5249 O 487.97 0.501365 1.66829 0
M  V30 5250 C 485.102 1.08833 3.23061 0
M  V30 5251 H 486.295 2.31705 1.90401 0
M  V30 5252 H 483.848 1.23105 0.963057 0
M  V30 5253 H 484.583 0.119767 3.24079 0
M  V30 5254 H 484.368 1.88306 3.43923 0
M  V30 5255 H 485.858 1.08946 4.03138 0
M  V30 5256 N 486.295 -0.989507 1.22664 0
M  V30 5257 C 487.52 -1.77031 1.08051 0
M  V30 5258 C 487.945 -1.84535 -0.364483 0
M  V30 5259 O 487.303 -1.3003 -1.2634 0
M  V30 5260 C 487.351 -3.18 1.70024 0
M  V30 5261 O 486.455 -4.01161 0.956216 0
M  V30 5262 H 485.796 -0.545008 0.379292 0
M  V30 5263 H 488.326 -1.24277 1.62531 0
M  V30 5264 H 488.336 -3.68616 1.74888 0
M  V30 5265 H 487.011 -3.11853 2.75174 0
M  V30 5266 H 485.588 -3.59687 0.98384 0
M  V30 5267 N 487.773 -1.03688 -1.18687 0
M  V30 5268 C 488.721 -0.618292 -2.24232 0
M  V30 5269 C 489.715 0.353045 -1.6568 0
M  V30 5270 O 490.921 0.220749 -1.78641 0
M  V30 5271 H 487.296 -0.181711 -0.729716 0
M  V30 5272 H 489.267 -1.51893 -2.56848 0
M  V30 5273 C 488.016 0.00677342 -3.47699 0
M  V30 5274 H 487.339 -0.731692 -3.93047 0
M  V30 5275 H 488.779 0.262492 -4.23187 0
M  V30 5276 C 487.238 1.25572 -3.12623 0
M  V30 5277 O 487.768 2.34691 -3.26011 0
M  V30 5278 N 485.974 1.14755 -2.66982 0
M  V30 5279 H 485.521 0.259601 -2.56289 0
M  V30 5280 H 485.479 1.98412 -2.43885 0
M  V30 5281 N 489.251 1.34841 -0.815825 0
M  V30 5282 C 490.528 1.92908 -0.323416 0
M  V30 5283 C 490.908 1.74479 1.18828 0
M  V30 5284 O 490.256 1.11928 1.99209 0
M  V30 5285 C 490.466 3.40957 -0.744952 0
M  V30 5286 C 491.814 4.18107 -0.739716 0
M  V30 5287 O 492.838 3.49511 -0.68708 0
M  V30 5288 O 491.697 5.40517 -0.806456 0
M  V30 5289 H 488.791 0.822436 -0.0867646 0
M  V30 5290 H 491.337 1.4386 -0.90014 0
M  V30 5291 H 490.109 3.4814 -1.78646 0
M  V30 5292 H 489.732 3.97341 -0.143535 0
M  V30 5293 N 490.729 0.570148 1.46925 0
M  V30 5294 C 491.977 0.0508523 2.02036 0
M  V30 5295 C 492.298 -1.30885 1.44548 0
M  V30 5296 O 491.568 -1.85647 0.625453 0
M  V30 5297 H 490.148 0.0158088 0.746833 0
M  V30 5298 H 492.81 0.743086 1.80178 0
M  V30 5299 H 491.906 -0.027575 3.12088 0
M  V30 5300 N 492.207 -1.54576 0.307264 0
M  V30 5301 C 493.432 -2.05139 -0.305379 0
M  V30 5302 C 493.857 -1.18278 -1.46259 0
M  V30 5303 O 493.215 -0.188243 -1.8032 0
M  V30 5304 C 493.263 -3.53066 -0.733283 0
M  V30 5305 O 492.367 -3.69206 -1.83741 0
M  V30 5306 H 491.708 -0.661444 -0.0582105 0
M  V30 5307 H 494.238 -1.99569 0.450931 0
M  V30 5308 H 494.248 -3.95034 -1.02039 0
M  V30 5309 H 492.923 -4.15746 0.113198 0
M  V30 5310 H 491.5 -3.39143 -1.55037 0
M  V30 5311 N 493.685 -0.035106 -1.57561 0
M  V30 5312 C 494.635 0.954034 -2.0708 0
M  V30 5313 C 495.619 1.2818 -0.972558 0
M  V30 5314 O 496.811 1.26691 -1.23606 0
M  V30 5315 C 493.94 2.23442 -2.60631 0
M  V30 5316 C 493.026 1.93475 -3.77396 0
M  V30 5317 N 493.417 1.33802 -4.87781 0
M  V30 5318 C 491.715 2.23434 -3.85996 0
M  V30 5319 C 492.416 1.21103 -5.68954 0
M  V30 5320 N 491.392 1.70855 -5.16052 0
M  V30 5321 H 495.194 0.487731 -2.89825 0
M  V30 5322 H 492.708 0.169759 -1.6151 0
M  V30 5323 H 494.705 2.95183 -2.94402 0
M  V30 5324 H 493.365 2.70693 -1.79319 0
M  V30 5325 H 494.376 1.01227 -5.07911 0
M  V30 5326 H 491.053 2.73317 -3.15601 0
M  V30 5327 H 492.443 0.749105 -6.67711 0
M  V30 5328 N 495.163 1.55791 0.238111 0
M  V30 5329 C 496.093 1.94068 1.29846 0
M  V30 5330 C 497.074 0.806726 1.49753 0
M  V30 5331 O 498.259 1.06772 1.62214 0
M  V30 5332 C 495.389 2.24302 2.65153 0
M  V30 5333 C 494.343 3.40032 2.59927 0
M  V30 5334 C 493.669 3.55829 3.99111 0
M  V30 5335 C 494.969 4.75476 2.16148 0
M  V30 5336 H 496.663 2.82887 0.980563 0
M  V30 5337 H 494.209 1.36105 0.470253 0
M  V30 5338 H 496.162 2.4967 3.39475 0
M  V30 5339 H 494.886 1.32318 2.98596 0
M  V30 5340 H 493.545 3.14687 1.88063 0
M  V30 5341 H 493.193 2.6125 4.29834 0
M  V30 5342 H 492.893 4.3366 3.96501 0
M  V30 5343 H 494.417 3.83528 4.7512 0
M  V30 5344 H 495.831 5.00158 2.80205 0
M  V30 5345 H 494.228 5.56472 2.24631 0
M  V30 5346 H 495.298 4.71946 1.11333 0
M  V30 5347 N 496.642 -0.504142 1.49319 0
M  V30 5348 C 497.592 -1.60284 1.62151 0
M  V30 5349 C 498.576 -1.53657 0.477315 0
M  V30 5350 O 499.768 -1.6124 0.730108 0
M  V30 5351 C 496.897 -2.98909 1.68844 0
M  V30 5352 C 495.983 -3.10544 2.8883 0
M  V30 5353 N 496.374 -2.92078 4.12946 0
M  V30 5354 C 494.672 -3.4164 2.86702 0
M  V30 5355 C 495.373 -3.07812 4.93585 0
M  V30 5356 N 494.349 -3.36549 4.26891 0
M  V30 5357 H 498.151 -1.44656 2.55835 0
M  V30 5358 H 495.665 -0.710198 1.46048 0
M  V30 5359 H 497.662 -3.77865 1.76134 0
M  V30 5360 H 496.322 -3.15609 0.762943 0
M  V30 5361 H 497.333 -2.68316 4.42975 0
M  V30 5362 H 494.01 -3.64537 2.03517 0
M  V30 5363 H 495.4 -2.98054 6.02174 0
M  V30 5364 N 498.12 -1.38341 -0.754957 0
M  V30 5365 C 499.07 -1.31964 -1.85929 0
M  V30 5366 C 500.054 -0.204181 -1.59599 0
M  V30 5367 O 501.246 -0.440036 -1.71443 0
M  V30 5368 C 498.375 -1.14565 -3.2362 0
M  V30 5369 C 497.461 -2.30727 -3.55846 0
M  V30 5370 N 497.852 -3.56165 -3.59138 0
M  V30 5371 C 496.15 -2.23249 -3.86104 0
M  V30 5372 C 496.851 -4.32865 -3.88591 0
M  V30 5373 N 495.827 -3.62203 -4.05351 0
M  V30 5374 H 499.629 -2.2694 -1.8675 0
M  V30 5375 H 497.143 -1.31553 -0.952243 0
M  V30 5376 H 499.14 -1.0808 -4.02647 0
M  V30 5377 H 497.8 -0.205212 -3.24051 0
M  V30 5378 H 498.811 -3.89854 -3.40932 0
M  V30 5379 H 495.488 -1.37357 -3.94258 0
M  V30 5380 H 496.878 -5.41504 -3.97773 0
M  V30 5381 N 499.598 0.982988 -1.23187 0
M  V30 5382 C 501.009 1.53847 -1.05773 0
M  V30 5383 C 501.36 1.92568 0.375744 0
M  V30 5384 O 500.485 1.75783 1.26211 0
M  V30 5385 C 501.08 2.79567 -1.91384 0
M  V30 5386 C 499.639 3.31524 -1.78238 0
M  V30 5387 C 498.786 2.04534 -1.87246 0
M  V30 5388 H 501.737 0.802962 -1.36888 0
M  V30 5389 H 501.758 3.52317 -1.43711 0
M  V30 5390 H 501.27 2.51353 -2.95708 0
M  V30 5391 H 499.371 3.64623 -0.766875 0
M  V30 5392 H 499.484 4.01457 -2.61475 0
M  V30 5393 H 497.848 2.1855 -1.30797 0
M  V30 5394 H 498.631 1.78706 -2.9312 0
M  V30 5395 N 501.076 1.04316 1.18135 0
M  V30 5396 C 502.009 0.580823 2.20685 0
M  V30 5397 C 502.987 -0.385943 1.57953 0
M  V30 5398 O 504.171 -0.299654 1.86103 0
M  V30 5399 C 501.298 -0.151162 3.38363 0
M  V30 5400 C 500.344 0.769247 4.19505 0
M  V30 5401 S 501.177 2.25352 4.85774 0
M  V30 5402 C 502.333 1.53246 6.0685 0
M  V30 5403 H 502.566 1.44968 2.5956 0
M  V30 5404 H 500.099 0.85434 1.28609 0
M  V30 5405 H 502.057 -0.567315 4.06561 0
M  V30 5406 H 500.718 -0.995936 2.97892 0
M  V30 5407 H 499.911 0.203335 5.0359 0
M  V30 5408 H 499.513 1.12436 3.56699 0
M  V30 5409 H 501.805 0.82689 6.72435 0
M  V30 5410 H 502.748 2.35044 6.67952 0
M  V30 5411 H 503.156 1.0237 5.5514 0
M  V30 5412 N 502.554 -1.34406 0.822964 0
M  V30 5413 C 503.504 -2.26963 0.217208 0
M  V30 5414 C 504.488 -1.48536 -0.618545 0
M  V30 5415 O 505.68 -1.7056 -0.473118 0
M  V30 5416 C 502.809 -3.37655 -0.619973 0
M  V30 5417 C 501.895 -4.23495 0.226411 0
M  V30 5418 N 502.286 -4.88876 1.29744 0
M  V30 5419 C 500.584 -4.45999 0.0107554 0
M  V30 5420 C 501.285 -5.52642 1.81553 0
M  V30 5421 N 500.261 -5.31949 1.11942 0
M  V30 5422 H 504.063 -2.75017 1.03647 0
M  V30 5423 H 501.577 -1.48126 0.665777 0
M  V30 5424 H 503.574 -4.02932 -1.07011 0
M  V30 5425 H 502.234 -2.91151 -1.43739 0
M  V30 5426 H 503.245 -4.89886 1.68024 0
M  V30 5427 H 499.922 -4.10253 -0.774495 0
M  V30 5428 H 501.312 -6.14755 2.71156 0
M  V30 5429 N 504.032 -0.577932 -1.46621 0
M  V30 5430 C 505.443 -0.150071 -1.86096 0
M  V30 5431 C 505.794 1.28563 -1.48209 0
M  V30 5432 O 504.919 1.97036 -0.894754 0
M  V30 5433 C 505.514 -0.265576 -3.37758 0
M  V30 5434 C 504.073 0.10738 -3.76247 0
M  V30 5435 C 503.22 -0.603711 -2.70649 0
M  V30 5436 H 506.171 -0.786438 -1.37844 0
M  V30 5437 H 506.192 0.510352 -3.77062 0
M  V30 5438 H 505.704 -1.3106 -3.65301 0
M  V30 5439 H 503.805 1.15272 -3.54321 0
M  V30 5440 H 503.918 -0.26561 -4.78363 0
M  V30 5441 H 502.282 -0.0444884 -2.54661 0
M  V30 5442 H 503.065 -1.65029 -3.01032 0
M  V30 5443 N 505.51 1.54411 -0.315457 0
M  V30 5444 C 506.46 2.20772 0.569549 0
M  V30 5445 C 507.444 1.18551 1.08787 0
M  V30 5446 O 508.636 1.44213 1.02624 0
M  V30 5447 C 505.765 2.96293 1.73394 0
M  V30 5448 C 504.851 4.05844 1.2309 0
M  V30 5449 N 505.242 5.03822 0.446927 0
M  V30 5450 C 503.54 4.19648 1.51035 0
M  V30 5451 C 504.241 5.8143 0.17725 0
M  V30 5452 N 503.217 5.38245 0.761118 0
M  V30 5453 H 507.019 2.93877 -0.0368076 0
M  V30 5454 H 504.533 1.61949 -0.120915 0
M  V30 5455 H 506.53 3.42313 2.37965 0
M  V30 5456 H 505.19 2.24708 2.34386 0
M  V30 5457 H 506.201 5.17821 0.0905027 0
M  V30 5458 H 502.878 3.59274 2.1267 0
M  V30 5459 H 504.268 6.70369 -0.45335 0
M  V30 5460 N 506.988 0.0434614 1.5754 0
M  V30 5461 C 507.918 -0.931651 2.14109 0
M  V30 5462 C 508.899 -1.32971 1.06079 0
M  V30 5463 O 510.084 -1.40579 1.33982 0
M  V30 5464 C 507.214 -2.20914 2.67982 0
M  V30 5465 C 506.168 -1.95139 3.80926 0
M  V30 5466 C 505.494 -3.29276 4.21285 0
M  V30 5467 C 506.794 -1.27913 5.06395 0
M  V30 5468 H 508.488 -0.460497 2.95837 0
M  V30 5469 H 506.034 -0.220058 1.42309 0
M  V30 5470 H 507.987 -2.89522 3.06194 0
M  V30 5471 H 506.711 -2.70221 1.83434 0
M  V30 5472 H 505.37 -1.28945 3.43175 0
M  V30 5473 H 505.018 -3.76369 3.33699 0
M  V30 5474 H 504.718 -3.12831 4.97404 0
M  V30 5475 H 506.242 -3.99129 4.62091 0
M  V30 5476 H 507.656 -1.86544 5.42102 0
M  V30 5477 H 506.053 -1.2182 5.87605 0
M  V30 5478 H 507.123 -0.254066 4.84234 0
M  V30 5479 N 508.466 -1.55915 -0.229846 0
M  V30 5480 C 509.691 -1.8296 -0.976743 0
M  V30 5481 C 510.116 -0.622735 -1.77493 0
M  V30 5482 O 509.474 0.428431 -1.76165 0
M  V30 5483 C 509.522 -3.07916 -1.8767 0
M  V30 5484 O 508.626 -2.86028 -2.97088 0
M  V30 5485 H 507.967 -0.603453 -0.277021 0
M  V30 5486 H 510.497 -2.0312 -0.245669 0
M  V30 5487 H 510.507 -3.37802 -2.2881 0
M  V30 5488 H 509.182 -3.95389 -1.28996 0
M  V30 5489 H 507.759 -2.67355 -2.59954 0
M  V30 5490 N 509.944 0.496216 -1.49584 0
M  V30 5491 C 510.876 1.61404 -1.62731 0
M  V30 5492 C 511.889 1.54613 -0.50978 0
M  V30 5493 O 513.078 1.60458 -0.782017 0
M  V30 5494 C 510.178 3.00212 -1.57245 0
M  V30 5495 C 509.351 3.32138 -2.84611 0
M  V30 5496 C 508.41 4.5038 -2.72112 0
M  V30 5497 O 507.436 4.51926 -3.46051 0
M  V30 5498 N 508.638 5.50575 -1.83977 0
M  V30 5499 H 511.403 1.50552 -2.59141 0
M  V30 5500 H 508.964 0.684182 -1.46733 0
M  V30 5501 H 510.956 3.77241 -1.4653 0
M  V30 5502 H 509.526 3.04964 -0.686729 0
M  V30 5503 H 508.746 2.4396 -3.09641 0
M  V30 5504 H 510.034 3.50268 -3.69039 0
M  V30 5505 H 509.432 5.52128 -1.23171 0
M  V30 5506 H 507.989 6.26687 -1.79182 0
M  V30 5507 N 511.423 1.38739 0.74761 0
M  V30 5508 C 512.7 1.25791 1.49786 0
M  V30 5509 C 513.08 -0.138075 2.10648 0
M  V30 5510 O 512.428 -1.14815 1.9756 0
M  V30 5511 C 512.638 2.37265 2.55942 0
M  V30 5512 C 513.986 2.75978 3.22679 0
M  V30 5513 O 515.01 2.36621 2.6625 0
M  V30 5514 O 513.869 3.43867 4.24756 0
M  V30 5515 H 510.963 0.492251 0.664543 0
M  V30 5516 H 513.509 1.50582 0.782511 0
M  V30 5517 H 512.281 3.30644 2.0926 0
M  V30 5518 H 511.904 2.14071 3.35051 0
M  V30 5519 N 512.901 -0.976442 1.23707 0
M  V30 5520 C 514.312 -1.53284 1.06587 0
M  V30 5521 C 514.663 -1.92765 -0.365526 0
M  V30 5522 O 513.788 -1.7645 -1.25277 0
M  V30 5523 C 514.383 -2.78548 1.92864 0
M  V30 5524 C 512.942 -3.30574 1.79994 0
M  V30 5525 C 512.089 -2.03538 1.88328 0
M  V30 5526 H 515.04 -0.795692 1.37311 0
M  V30 5527 H 515.061 -3.5155 1.45577 0
M  V30 5528 H 514.573 -2.49782 2.97037 0
M  V30 5529 H 512.674 -3.64211 0.786202 0
M  V30 5530 H 512.787 -4.00065 2.636 0
M  V30 5531 H 511.151 -2.17853 1.31954 0
M  V30 5532 H 511.934 -1.77149 2.94063 0
M  V30 5533 N 514.379 -1.04941 -1.1758 0
M  V30 5534 C 515.309 -0.669172 -2.23706 0
M  V30 5535 C 516.29 0.331835 -1.66832 0
M  V30 5536 O 517.475 0.209988 -1.93061 0
M  V30 5537 C 514.605 -0.0404889 -3.47276 0
M  V30 5538 C 513.559 -0.965983 -4.16957 0
M  V30 5539 C 512.885 -0.201312 -5.34321 0
M  V30 5540 C 514.185 -2.28902 -4.69469 0
M  V30 5541 H 515.879 -1.55639 -2.55767 0
M  V30 5542 H 513.425 -0.749793 -1.22939 0
M  V30 5543 H 515.378 0.237298 -4.20731 0
M  V30 5544 H 514.102 0.881658 -3.14475 0
M  V30 5545 H 512.761 -1.22829 -3.45411 0
M  V30 5546 H 512.409 0.723519 -4.97769 0
M  V30 5547 H 512.109 -0.817968 -5.81879 0
M  V30 5548 H 513.633 0.0692499 -6.10561 0
M  V30 5549 H 515.047 -2.07132 -5.34574 0
M  V30 5550 H 513.444 -2.85942 -5.27596 0
M  V30 5551 H 514.514 -2.92937 -3.86414 0
M  V30 5552 N 515.857 1.33968 -0.830081 0
M  V30 5553 C 517.085 2.0228 -0.434773 0
M  V30 5554 C 517.5 1.62487 0.961419 0
M  V30 5555 O 516.857 0.833849 1.62337 0
M  V30 5556 C 516.908 3.5751 -0.535625 0
M  V30 5557 O 516.629 3.95864 -1.87679 0
M  V30 5558 C 518.13 4.43091 -0.136137 0
M  V30 5559 H 515.35 0.648151 -0.173613 0
M  V30 5560 H 517.894 1.71089 -1.12022 0
M  V30 5561 H 516.049 3.87266 0.101817 0
M  V30 5562 H 516.463 4.9056 -1.85609 0
M  V30 5563 H 517.937 5.51398 -0.257772 0
M  V30 5564 H 518.414 4.29433 0.921076 0
M  V30 5565 H 519.02 4.18677 -0.747662 0
M  V30 5566 N 517.335 0.585699 1.46312 0
M  V30 5567 C 518.583 0.072278 2.01971 0
M  V30 5568 C 518.904 -1.29345 1.45928 0
M  V30 5569 O 518.174 -1.84973 0.645109 0
M  V30 5570 H 516.754 0.023729 0.746623 0
M  V30 5571 H 519.416 0.762155 1.7938 0
M  V30 5572 H 518.512 0.00552767 3.121 0
M  V30 5573 N 518.813 -1.54241 0.323641 0
M  V30 5574 C 519.745 -2.21836 -0.576311 0
M  V30 5575 C 520.758 -1.21837 -1.07979 0
M  V30 5576 O 521.947 -1.48306 -0.99336 0
M  V30 5577 C 519.047 -2.86923 -1.80356 0
M  V30 5578 C 518.22 -4.1306 -1.43875 0
M  V30 5579 C 517.279 -4.6174 -2.52353 0
M  V30 5580 O 516.305 -5.26421 -2.16494 0
M  V30 5581 N 517.507 -4.35974 -3.83284 0
M  V30 5582 H 520.272 -2.997 0.00247987 0
M  V30 5583 H 517.833 -1.61233 0.146848 0
M  V30 5584 H 519.825 -3.16414 -2.52318 0
M  V30 5585 H 518.395 -2.12765 -2.29019 0
M  V30 5586 H 517.615 -3.90334 -0.550752 0
M  V30 5587 H 518.903 -4.95148 -1.17071 0
M  V30 5588 H 518.301 -3.84203 -4.15216 0
M  V30 5589 H 516.858 -4.70119 -4.51477 0
M  V30 5590 N 520.291 -0.0518155 -1.57515 0
M  V30 5591 C 521.519 0.631395 -1.9703 0
M  V30 5592 C 521.934 1.64341 -0.92938 0
M  V30 5593 O 521.291 1.82296 0.0863266 0
M  V30 5594 C 521.342 1.31774 -3.36627 0
M  V30 5595 O 521.063 0.346247 -4.3673 0
M  V30 5596 C 522.564 2.09065 -3.90905 0
M  V30 5597 H 519.784 0.172576 -0.648428 0
M  V30 5598 H 522.328 -0.118306 -2.04158 0
M  V30 5599 H 520.483 2.01867 -3.30649 0
M  V30 5600 H 520.897 0.836226 -5.17791 0
M  V30 5601 H 522.371 2.52508 -4.9086 0
M  V30 5602 H 522.848 2.93908 -3.26366 0
M  V30 5603 H 523.454 1.43882 -4.00223 0
M  V30 5604 N 521.769 1.56035 0.221574 0
M  V30 5605 C 523.018 1.78245 0.944016 0
M  V30 5606 C 523.331 0.620371 1.85501 0
M  V30 5607 O 524.537 0.726103 2.6161 0
M  V30 5608 C 522.993 3.15659 1.7288 0
M  V30 5609 C 522.601 4.39591 0.863942 0
M  V30 5610 C 524.345 3.47195 2.44246 0
M  V30 5611 C 522.252 5.6803 1.64607 0
M  V30 5612 H 521.182 0.664547 0.356222 0
M  V30 5613 H 523.833 1.8243 0.197904 0
M  V30 5614 H 522.215 3.0565 2.51781 0
M  V30 5615 H 523.389 4.60655 0.115464 0
M  V30 5616 H 521.704 4.15572 0.262407 0
M  V30 5617 H 524.301 4.40381 3.03263 0
M  V30 5618 H 524.644 2.69693 3.1713 0
M  V30 5619 H 525.177 3.58533 1.72334 0
M  V30 5620 H 521.916 6.48425 0.960507 0
M  V30 5621 H 521.436 5.51027 2.36917 0
M  V30 5622 H 523.115 6.08203 2.20675 0
M  V30 5623 N 523.247 -0.488276 1.49845 0
M  V30 5624 C 524.177 -1.59675 1.70371 0
M  V30 5625 C 525.158 -1.60878 0.552473 0
M  V30 5626 O 526.343 -1.77417 0.78973 0
M  V30 5627 C 523.473 -2.98098 1.782 0
M  V30 5628 C 522.427 -3.11761 2.93239 0
M  V30 5629 C 521.753 -4.51661 2.86193 0
M  V30 5630 C 523.053 -2.90589 4.33999 0
M  V30 5631 H 524.747 -1.42752 2.63177 0
M  V30 5632 H 522.293 -0.685317 1.26647 0
M  V30 5633 H 524.246 -3.75555 1.91144 0
M  V30 5634 H 522.97 -3.16138 0.820018 0
M  V30 5635 H 521.629 -2.36732 2.79917 0
M  V30 5636 H 521.277 -4.66595 1.87877 0
M  V30 5637 H 520.977 -4.61742 3.63412 0
M  V30 5638 H 522.501 -5.31162 3.01163 0
M  V30 5639 H 523.915 -3.57807 4.47936 0
M  V30 5640 H 522.312 -3.1213 5.12538 0
M  V30 5641 H 523.382 -1.86595 4.4756 0
M  V30 5642 N 524.725 -1.39134 -0.740242 0
M  V30 5643 C 525.655 -1.40165 -1.86751 0
M  V30 5644 C 526.636 -0.265708 -1.68012 0
M  V30 5645 O 527.821 -0.47076 -1.88408 0
M  V30 5646 C 524.951 -1.2392 -3.2444 0
M  V30 5647 C 523.905 -2.34858 -3.57807 0
M  V30 5648 C 523.231 -2.03707 -4.94376 0
M  V30 5649 C 524.531 -3.77159 -3.61315 0
M  V30 5650 H 526.225 -2.345 -1.86145 0
M  V30 5651 H 523.771 -1.12875 -0.89416 0
M  V30 5652 H 525.724 -1.23263 -4.02969 0
M  V30 5653 H 524.448 -0.26051 -3.25559 0
M  V30 5654 H 523.107 -2.34723 -2.81604 0
M  V30 5655 H 522.755 -1.04289 -4.9207 0
M  V30 5656 H 522.455 -2.78016 -5.17669 0
M  V30 5657 H 523.979 -2.04691 -5.75268 0
M  V30 5658 H 525.393 -3.79252 -4.29931 0
M  V30 5659 H 523.79 -4.50784 -3.96124 0
M  V30 5660 H 524.86 -4.08513 -2.61238 0
M  V30 5661 N 526.204 0.969867 -1.24223 0
M  V30 5662 C 527.452 1.70918 -1.0785 0
M  V30 5663 C 527.773 1.91186 0.383763 0
M  V30 5664 O 527.043 1.48806 1.27411 0
M  V30 5665 H 525.623 0.633334 -0.396103 0
M  V30 5666 H 528.285 1.16689 -1.56108 0
M  V30 5667 H 527.381 2.69455 -1.57482 0
M  V30 5668 N 527.682 1.05563 1.17022 0
M  V30 5669 C 529.093 0.793475 1.69 0
M  V30 5670 C 529.444 -0.683882 1.83895 0
M  V30 5671 O 528.569 -1.53116 1.5292 0
M  V30 5672 C 529.164 1.43376 3.06967 0
M  V30 5673 C 527.723 1.21956 3.56095 0
M  V30 5674 C 526.87 1.51494 2.3226 0
M  V30 5675 H 529.821 1.22008 1.01487 0
M  V30 5676 H 529.842 0.845068 3.70997 0
M  V30 5677 H 529.354 2.50899 2.96093 0
M  V30 5678 H 527.455 0.163749 3.7224 0
M  V30 5679 H 527.568 1.92713 4.38633 0
M  V30 5680 H 525.932 0.935175 2.3691 0
M  V30 5681 H 526.715 2.60159 2.23992 0
M  V30 5682 N 529.16 -1.33526 0.837174 0
M  V30 5683 C 530.093 -2.27192 0.214233 0
M  V30 5684 C 531.071 -1.49575 -0.637657 0
M  V30 5685 O 532.255 -1.78753 -0.598291 0
M  V30 5686 C 529.382 -3.31401 -0.699367 0
M  V30 5687 C 528.428 -4.26431 0.0768429 0
M  V30 5688 S 529.261 -5.15954 1.4336 0
M  V30 5689 C 530.417 -6.23692 0.525251 0
M  V30 5690 H 530.65 -2.79679 1.00831 0
M  V30 5691 H 528.183 -1.4079 0.633834 0
M  V30 5692 H 530.141 -3.91924 -1.22088 0
M  V30 5693 H 528.802 -2.77732 -1.46709 0
M  V30 5694 H 527.995 -5.00193 -0.618268 0
M  V30 5695 H 527.597 -3.70235 0.529364 0
M  V30 5696 H 529.889 -6.76931 -0.277575 0
M  V30 5697 H 530.832 -6.97283 1.23299 0
M  V30 5698 H 531.24 -5.64398 0.107351 0
M  V30 5699 N 530.638 -0.59345 -1.46 0
M  V30 5700 C 531.863 -0.0872365 -2.07216 0
M  V30 5701 C 532.288 1.2131 -1.43755 0
M  V30 5702 O 531.646 1.73528 -0.525152 0
M  V30 5703 C 531.694 0.0538197 -3.6056 0
M  V30 5704 O 530.798 1.10765 -3.97247 0
M  V30 5705 H 530.139 -0.0676598 -0.660544 0
M  V30 5706 H 532.669 -0.819445 -1.87473 0
M  V30 5707 H 532.679 0.256567 -4.07193 0
M  V30 5708 H 531.354 -0.895739 -4.0614 0
M  V30 5709 H 529.931 0.882501 -3.62307 0
M  V30 5710 N 532.116 1.54067 -0.331816 0
M  V30 5711 C 533.344 2.05131 0.269996 0
M  V30 5712 C 533.759 1.20749 1.45138 0
M  V30 5713 O 533.116 0.240069 1.80914 0
M  V30 5714 C 533.167 3.54728 0.696456 0
M  V30 5715 O 532.888 4.35906 -0.43794 0
M  V30 5716 C 534.389 4.21916 1.36021 0
M  V30 5717 H 531.609 0.668807 0.0542042 0
M  V30 5718 H 534.153 1.98777 -0.4804 0
M  V30 5719 H 532.308 3.61342 1.39681 0
M  V30 5720 H 532.722 5.24404 -0.100334 0
M  V30 5721 H 534.196 5.28015 1.60947 0
M  V30 5722 H 534.673 3.73538 2.31011 0
M  V30 5723 H 535.279 4.19463 0.702212 0
M  V30 5724 N 533.594 0.0601682 1.57485 0
M  V30 5725 C 534.524 -0.90889 2.15085 0
M  V30 5726 C 535.505 -1.31838 1.07484 0
M  V30 5727 O 536.69 -1.3915 1.35466 0
M  V30 5728 C 533.82 -2.18059 2.7031 0
M  V30 5729 C 532.774 -1.91088 3.82974 0
M  V30 5730 C 532.1 -3.24789 4.24754 0
M  V30 5731 C 533.4 -1.22535 5.07723 0
M  V30 5732 H 535.094 -0.429093 2.96309 0
M  V30 5733 H 532.64 -0.204952 1.42534 0
M  V30 5734 H 534.593 -2.86258 3.09248 0
M  V30 5735 H 533.317 -2.6826 1.8629 0
M  V30 5736 H 531.976 -1.25297 3.44523 0
M  V30 5737 H 531.624 -3.72809 3.37672 0
M  V30 5738 H 531.324 -3.07538 5.00694 0
M  V30 5739 H 532.848 -3.94205 4.66299 0
M  V30 5740 H 534.262 -1.80783 5.4405 0
M  V30 5741 H 532.659 -1.1558 5.88864 0
M  V30 5742 H 533.729 -0.202692 4.84476 0
M  V30 5743 N 535.072 -1.5615 -0.213296 0
M  V30 5744 C 536.318 -1.79812 -0.937849 0
M  V30 5745 C 536.651 -0.631201 -1.83656 0
M  V30 5746 O 535.926 0.369165 -1.90964 0
M  V30 5747 C 536.209 -3.13613 -1.76972 0
M  V30 5748 C 536.062 -4.40766 -0.89695 0
M  V30 5749 C 537.381 -3.43931 -2.7459 0
M  V30 5750 H 534.5 -0.654138 -0.339518 0
M  V30 5751 H 537.142 -1.88877 -0.20623 0
M  V30 5752 H 535.292 -3.06015 -2.39347 0
M  V30 5753 H 536.964 -4.60392 -0.289306 0
M  V30 5754 H 535.207 -4.33326 -0.202756 0
M  V30 5755 H 535.878 -5.30843 -1.51358 0
M  V30 5756 H 538.354 -3.5171 -2.22349 0
M  V30 5757 H 537.23 -4.38706 -3.29891 0
M  V30 5758 H 537.491 -2.6651 -3.52739 0
M  V30 5759 N 536.55 0.480323 -1.50102 0
M  V30 5760 C 537.5 1.57685 -1.6468 0
M  V30 5761 C 538.484 1.52878 -0.5017 0
M  V30 5762 O 539.676 1.60058 -0.755668 0
M  V30 5763 C 536.805 2.96185 -1.73578 0
M  V30 5764 C 535.891 3.0591 -2.93734 0
M  V30 5765 N 536.282 2.85471 -4.1754 0
M  V30 5766 C 534.58 3.37036 -2.92101 0
M  V30 5767 C 535.281 2.99921 -4.9842 0
M  V30 5768 N 534.257 3.29715 -4.32191 0
M  V30 5769 H 538.059 1.40568 -2.58104 0
M  V30 5770 H 535.573 0.686874 -1.47159 0
M  V30 5771 H 537.57 3.75015 -1.82124 0
M  V30 5772 H 536.23 3.14356 -0.813057 0
M  V30 5773 H 537.241 2.61235 -4.47188 0
M  V30 5774 H 533.918 3.61253 -2.09291 0
M  V30 5775 H 535.308 2.88436 -6.06839 0
M  V30 5776 N 538.028 1.39524 0.732853 0
M  V30 5777 C 538.991 1.38189 1.82857 0
M  V30 5778 C 539.991 0.278624 1.58368 0
M  V30 5779 O 541.181 0.536639 1.65728 0
M  V30 5780 C 538.313 1.15661 3.2068 0
M  V30 5781 H 539.506 2.35692 1.85444 0
M  V30 5782 H 537.059 1.2512 0.936728 0
M  V30 5783 H 537.794 0.188482 3.23752 0
M  V30 5784 H 537.579 1.95559 3.39852 0
M  V30 5785 H 539.069 1.17472 4.00737 0
M  V30 5786 N 539.506 -0.963266 1.24736 0
M  V30 5787 C 540.783 -1.68248 0.9976 0
M  V30 5788 C 541.163 -2.05599 -0.478776 0
M  V30 5789 O 540.511 -1.7626 -1.45412 0
M  V30 5790 C 540.721 -2.91118 1.92487 0
M  V30 5791 C 542.069 -3.63261 2.19833 0
M  V30 5792 O 543.093 -3.01184 1.90176 0
M  V30 5793 O 541.952 -4.75019 2.7022 0
M  V30 5794 H 539.046 -0.735744 0.377637 0
M  V30 5795 H 541.592 -1.01696 1.35853 0
M  V30 5796 H 540.364 -2.60242 2.92215 0
M  V30 5797 H 539.987 -3.65402 1.56738 0
M  V30 5798 N 540.985 -1.06182 -1.16461 0
M  V30 5799 C 541.917 -0.629584 -2.20383 0
M  V30 5800 C 542.93 0.311834 -1.59786 0
M  V30 5801 O 544.119 0.103 -1.78203 0
M  V30 5802 C 541.219 0.0973695 -3.3876 0
M  V30 5803 C 540.392 -0.857252 -4.28917 0
M  V30 5804 C 539.451 -0.169749 -5.25926 0
M  V30 5805 O 538.477 -0.807044 -5.6345 0
M  V30 5806 N 539.679 1.08911 -5.70192 0
M  V30 5807 H 542.444 -1.52352 -2.58087 0
M  V30 5808 H 540.005 -0.944993 -1.31459 0
M  V30 5809 H 541.997 0.567676 -4.00699 0
M  V30 5810 H 540.567 0.893093 -2.99571 0
M  V30 5811 H 539.787 -1.50696 -3.64259 0
M  V30 5812 H 541.075 -1.50489 -4.86035 0
M  V30 5813 H 540.473 1.62703 -5.41797 0
M  V30 5814 H 539.03 1.50331 -6.34227 0
M  V30 5815 N 542.463 1.3308 -0.844243 0
M  V30 5816 C 543.712 1.96868 -0.438833 0
M  V30 5817 C 544.025 1.67599 1.00846 0
M  V30 5818 O 545.231 2.25043 1.51881 0
M  V30 5819 C 543.687 3.5234 -0.73377 0
M  V30 5820 C 543.295 3.90481 -2.1961 0
M  V30 5821 C 545.039 4.22653 -0.395574 0
M  V30 5822 C 542.946 5.38954 -2.43481 0
M  V30 5823 H 541.876 0.736749 -0.160364 0
M  V30 5824 H 544.527 1.51623 -1.03358 0
M  V30 5825 H 542.909 3.95941 -0.068589 0
M  V30 5826 H 544.083 3.57922 -2.90221 0
M  V30 5827 H 542.398 3.33165 -2.4978 0
M  V30 5828 H 544.995 5.31848 -0.551477 0
M  V30 5829 H 545.338 4.11004 0.661921 0
M  V30 5830 H 545.871 3.84601 -1.01621 0
M  V30 5831 H 542.61 5.55612 -3.47816 0
M  V30 5832 H 542.13 5.72954 -1.77437 0
M  V30 5833 H 543.809 6.05907 -2.26905 0
M  V30 5834 N 543.941 0.601185 1.45683 0
M  V30 5835 C 545.166 0.0982245 2.07167 0
M  V30 5836 C 545.591 -1.20546 1.44396 0
M  V30 5837 O 544.949 -1.73247 0.534347 0
M  V30 5838 C 544.997 -0.0346976 3.60583 0
M  V30 5839 O 544.101 -1.08657 3.97828 0
M  V30 5840 H 543.442 0.0711618 0.660176 0
M  V30 5841 H 545.972 0.829376 1.87036 0
M  V30 5842 H 545.982 -0.234969 4.07323 0
M  V30 5843 H 544.657 0.917265 4.05659 0
M  V30 5844 H 543.234 -0.863275 3.6277 0
M  V30 5845 N 545.419 -1.53889 0.339982 0
M  V30 5846 C 546.647 -2.05271 -0.259114 0
M  V30 5847 C 547.062 -1.21517 -1.44496 0
M  V30 5848 O 546.419 -0.24966 -1.80784 0
M  V30 5849 C 546.47 -3.55092 -0.677634 0
M  V30 5850 O 546.191 -4.35667 0.461051 0
M  V30 5851 C 547.692 -4.22631 -1.33782 0
M  V30 5852 H 544.912 -0.669085 -0.0506566 0
M  V30 5853 H 547.456 -1.9852 0.490935 0
M  V30 5854 H 545.611 -3.62077 -1.37763 0
M  V30 5855 H 546.025 -5.24343 0.128144 0
M  V30 5856 H 547.499 -5.28861 -1.58145 0
M  V30 5857 H 547.976 -3.74758 -2.29027 0
M  V30 5858 H 548.582 -4.19829 -0.679957 0
M  V30 5859 N 546.897 -0.0685191 -1.57451 0
M  V30 5860 C 548.308 0.464634 -1.80826 0
M  V30 5861 C 548.659 1.69847 -0.982169 0
M  V30 5862 O 547.784 2.15439 -0.203734 0
M  V30 5863 C 548.379 0.849721 -3.27971 0
M  V30 5864 C 546.938 1.32776 -3.52204 0
M  V30 5865 C 546.085 0.311332 -2.75547 0
M  V30 5866 H 549.036 -0.294248 -1.55948 0
M  V30 5867 H 549.057 1.71138 -3.39841 0
M  V30 5868 H 548.569 -0.0484736 -3.8807 0
M  V30 5869 H 546.67 2.24456 -2.97406 0
M  V30 5870 H 546.783 1.30794 -4.60901 0
M  V30 5871 H 545.147 0.787915 -2.42206 0
M  V30 5872 H 545.93 -0.579078 -3.38381 0
M  V30 5873 N 548.375 1.56261 0.205012 0
M  V30 5874 C 549.285 1.96944 1.27476 0
M  V30 5875 C 550.301 0.875636 1.50362 0
M  V30 5876 O 551.477 1.18058 1.6317 0
M  V30 5877 C 548.542 2.29219 2.60115 0
M  V30 5878 C 547.603 3.52255 2.45387 0
M  V30 5879 C 546.836 3.8298 3.71701 0
M  V30 5880 O 547.059 3.15138 4.75441 0
M  V30 5881 O 545.993 4.76435 3.67823 0
M  V30 5882 H 549.819 2.88144 0.959527 0
M  V30 5883 H 547.404 1.43686 0.409217 0
M  V30 5884 H 549.286 2.51098 3.3842 0
M  V30 5885 H 547.961 1.4119 2.91285 0
M  V30 5886 H 546.868 3.35635 1.65227 0
M  V30 5887 H 548.201 4.40719 2.19152 0
M  V30 5888 N 549.853 -0.472356 1.50355 0
M  V30 5889 C 551.081 -1.24784 1.65035 0
M  V30 5890 C 551.496 -1.85837 0.333176 0
M  V30 5891 O 550.853 -1.69168 -0.68472 0
M  V30 5892 C 550.904 -2.35747 2.74054 0
M  V30 5893 O 550.625 -1.77197 4.00665 0
M  V30 5894 C 552.126 -3.26645 2.99696 0
M  V30 5895 H 549.346 -0.377432 0.554785 0
M  V30 5896 H 551.89 -0.563962 1.9657 0
M  V30 5897 H 550.045 -2.99912 2.45217 0
M  V30 5898 H 550.459 -2.5026 4.60945 0
M  V30 5899 H 551.933 -4.00718 3.79644 0
M  V30 5900 H 552.41 -3.8535 2.10718 0
M  V30 5901 H 553.016 -2.68218 3.3006 0
M  V30 5902 N 551.331 -1.39911 -0.725443 0
M  V30 5903 C 552.742 -1.33599 -1.30415 0
M  V30 5904 C 553.093 -0.00481792 -1.96199 0
M  V30 5905 O 552.218 0.897275 -1.96921 0
M  V30 5906 C 552.813 -2.41965 -2.37146 0
M  V30 5907 C 551.372 -2.39144 -2.90667 0
M  V30 5908 C 550.519 -2.23355 -1.64341 0
M  V30 5909 H 553.47 -1.4986 -0.522267 0
M  V30 5910 H 553.491 -2.09304 -3.17761 0
M  V30 5911 H 553.003 -3.38837 -1.89238 0
M  V30 5912 H 551.104 -1.4594 -3.4283 0
M  V30 5913 H 551.217 -3.34362 -3.43131 0
M  V30 5914 H 549.581 -1.70696 -1.89037 0
M  V30 5915 H 550.364 -3.2221 -1.18471 0
M  V30 5916 N 552.809 0.956637 -1.25245 0
M  V30 5917 C 553.739 2.07058 -1.07931 0
M  V30 5918 C 554.72 1.70096 0.0110361 0
M  V30 5919 O 555.905 1.93555 -0.158121 0
M  V30 5920 C 553.035 3.40272 -0.695124 0
M  V30 5921 C 551.989 3.91235 -1.73549 0
M  V30 5922 C 551.315 5.20921 -1.20604 0
M  V30 5923 C 552.615 4.17837 -3.13385 0
M  V30 5924 H 554.309 2.218 -2.01109 0
M  V30 5925 H 551.855 1.06581 -0.968326 0
M  V30 5926 H 553.808 4.1765 -0.560949 0
M  V30 5927 H 552.532 3.25462 0.272355 0
M  V30 5928 H 551.191 3.16025 -1.85807 0
M  V30 5929 H 550.839 5.02479 -0.228846 0
M  V30 5930 H 550.539 5.55987 -1.90136 0
M  V30 5931 H 552.063 6.00897 -1.08421 0
M  V30 5932 H 553.477 4.8588 -3.04292 0
M  V30 5933 H 551.874 4.64154 -3.80369 0
M  V30 5934 H 552.944 3.2419 -3.60595 0
M  V30 5935 N 554.287 1.06798 1.15896 0
M  V30 5936 C 555.698 0.811355 1.68149 0
M  V30 5937 C 556.049 -0.664339 1.8461 0
M  V30 5938 O 555.174 -1.51485 1.54535 0
M  V30 5939 C 555.769 1.46624 3.05429 0
M  V30 5940 C 554.328 1.25726 3.54781 0
M  V30 5941 C 553.475 1.53949 2.3064 0
M  V30 5942 H 556.426 1.23078 1.00187 0
M  V30 5943 H 556.447 0.88437 3.7008 0
M  V30 5944 H 555.959 2.54025 2.93416 0
M  V30 5945 H 554.06 0.20322 3.72045 0
M  V30 5946 H 554.173 1.97354 4.36564 0
M  V30 5947 H 552.537 0.96025 2.35905 0
M  V30 5948 H 553.32 2.6252 2.2122 0
M  V30 5949 N 555.766 -1.3263 0.851289 0
M  V30 5950 C 556.991 -2.02097 0.466006 0
M  V30 5951 C 557.416 -1.63574 -0.928709 0
M  V30 5952 O 556.774 -0.834665 -1.60944 0
M  V30 5953 C 556.822 -3.55425 0.608737 0
M  V30 5954 O 555.926 -4.10827 -0.359878 0
M  V30 5955 H 555.267 -0.636911 0.187724 0
M  V30 5956 H 557.797 -1.69253 1.14955 0
M  V30 5957 H 557.807 -4.04986 0.495006 0
M  V30 5958 H 556.482 -3.82806 1.62581 0
M  V30 5959 H 555.059 -3.72349 -0.202666 0
M  V30 5960 N 557.244 -0.608902 -1.45362 0
M  V30 5961 C 558.655 -0.189511 -1.85736 0
M  V30 5962 C 559.006 1.2539 -1.50903 0
M  V30 5963 O 558.131 1.95094 -0.936347 0
M  V30 5964 C 558.726 -0.33716 -3.37118 0
M  V30 5965 C 557.285 0.0275487 -3.7639 0
M  V30 5966 C 556.432 -0.660983 -2.69307 0
M  V30 5967 H 559.383 -0.815499 -1.36144 0
M  V30 5968 H 559.404 0.430257 -3.7806 0
M  V30 5969 H 558.916 -1.38779 -3.62439 0
M  V30 5970 H 557.017 1.0773 -3.56686 0
M  V30 5971 H 557.13 -0.367018 -4.77692 0
M  V30 5972 H 555.494 -0.0984958 -2.54509 0
M  V30 5973 H 556.277 -1.71377 -2.97464 0
M  V30 5974 N 558.722 1.53707 -0.348139 0
M  V30 5975 C 560.133 1.86213 0.134797 0
M  V30 5976 C 560.484 1.26925 1.49614 0
M  V30 5977 O 559.609 0.584573 2.08355 0
M  V30 5978 C 560.204 3.37866 0.251371 0
M  V30 5979 C 558.763 3.70233 0.678543 0
M  V30 5980 C 557.91 2.76683 -0.184925 0
M  V30 5981 H 560.861 1.48204 -0.567571 0
M  V30 5982 H 560.882 3.64908 1.07806 0
M  V30 5983 H 560.394 3.80988 -0.739581 0
M  V30 5984 H 558.495 3.32659 1.67835 0
M  V30 5985 H 558.608 4.76836 0.465251 0
M  V30 5986 H 556.972 2.52374 0.343465 0
M  V30 5987 H 557.755 3.22635 -1.1731 0
M  V30 5988 N 560.2 0.0768682 1.57412 0
M  V30 5989 C 561.132 -0.918248 2.10002 0
M  V30 5990 C 562.145 -1.25808 1.03325 0
M  V30 5991 O 563.334 -1.21438 1.30824 0
M  V30 5992 C 560.434 -2.23263 2.54964 0
M  V30 5993 C 559.607 -2.07088 3.8527 0
M  V30 5994 C 558.666 -3.21876 4.16272 0
M  V30 5995 O 557.692 -2.96643 4.8579 0
M  V30 5996 N 558.894 -4.4712 3.70221 0
M  V30 5997 H 561.659 -0.469209 2.96004 0
M  V30 5998 H 559.22 -0.108725 1.61535 0
M  V30 5999 H 561.212 -2.9897 2.72762 0
M  V30 6000 H 559.782 -2.59649 1.74072 0
M  V30 6001 H 559.002 -1.15818 3.76802 0
M  V30 6002 H 560.29 -1.93537 4.70554 0
M  V30 6003 H 559.688 -4.70506 3.1407 0
M  V30 6004 H 558.245 -5.19837 3.93209 0
M  V30 6005 N 561.678 -1.56367 -0.196722 0
M  V30 6006 C 562.926 -1.80172 -0.915554 0
M  V30 6007 C 563.247 -0.649649 -1.8386 0
M  V30 6008 O 562.517 0.332111 -1.93064 0
M  V30 6009 H 561.097 -0.664592 -0.341067 0
M  V30 6010 H 563.759 -1.93844 -0.202622 0
M  V30 6011 H 562.855 -2.7327 -1.50764 0
M  V30 6012 N 563.156 0.464375 -1.50603 0
M  V30 6013 C 564.381 1.24372 -1.65971 0
M  V30 6014 C 564.806 1.84901 -0.345453 0
M  V30 6015 O 564.164 1.67596 0.691457 0
M  V30 6016 C 564.212 2.32331 -2.7578 0
M  V30 6017 O 563.316 3.37146 -2.375 0
M  V30 6018 H 562.657 0.365604 -0.554283 0
M  V30 6019 H 565.187 0.55183 -1.97018 0
M  V30 6020 H 565.197 2.77539 -2.99059 0
M  V30 6021 H 563.872 1.87648 -3.71162 0
M  V30 6022 H 562.449 2.97602 -2.24694 0
M  V30 6023 N 564.634 1.40294 0.718013 0
M  V30 6024 C 565.882 1.38167 1.47494 0
M  V30 6025 C 566.203 -0.01607 1.94993 0
M  V30 6026 O 565.473 -0.970396 1.70177 0
M  V30 6027 H 564.053 0.508505 0.547203 0
M  V30 6028 H 566.715 1.75324 0.851322 0
M  V30 6029 H 565.811 2.05503 2.34894 0
M  V30 6030 N 566.112 -0.949982 1.2575 0
M  V30 6031 C 567.044 -2.05088 1.02331 0
M  V30 6032 C 568.057 -1.62795 -0.0133247 0
M  V30 6033 O 569.246 -1.77067 0.225759 0
M  V30 6034 C 566.346 -3.34794 0.525924 0
M  V30 6035 C 565.519 -4.05903 1.62978 0
M  V30 6036 C 564.578 -5.1388 1.13196 0
M  V30 6037 O 563.604 -5.39072 1.82729 0
M  V30 6038 N 564.806 -5.80495 -0.0242926 0
M  V30 6039 H 567.571 -2.25747 1.97125 0
M  V30 6040 H 565.132 -1.11886 1.17018 0
M  V30 6041 H 567.124 -4.04312 0.177263 0
M  V30 6042 H 565.694 -3.10872 -0.328202 0
M  V30 6043 H 564.914 -3.3042 2.1498 0
M  V30 6044 H 566.202 -4.50166 2.37124 0
M  V30 6045 H 565.6 -5.62454 -0.605184 0
M  V30 6046 H 564.157 -6.51043 -0.313947 0
M  V30 6047 N 567.59 -1.07411 -1.15328 0
M  V30 6048 C 568.5 -0.706438 -2.23711 0
M  V30 6049 C 569.516 0.282586 -1.7169 0
M  V30 6050 O 570.692 0.129066 -2.00986 0
M  V30 6051 C 567.757 -0.11048 -3.46524 0
M  V30 6052 C 566.818 -1.15282 -4.13532 0
M  V30 6053 C 566.051 -0.585205 -5.30482 0
M  V30 6054 O 566.274 0.598549 -5.67251 0
M  V30 6055 O 565.208 -1.33039 -5.87013 0
M  V30 6056 H 569.034 -1.61031 -2.57493 0
M  V30 6057 H 566.619 -0.847113 -1.23062 0
M  V30 6058 H 568.501 0.21957 -4.20828 0
M  V30 6059 H 567.176 0.766703 -3.14489 0
M  V30 6060 H 566.083 -1.53523 -3.41147 0
M  V30 6061 H 567.416 -2.00192 -4.49649 0
M  V30 6062 N 569.068 1.32177 -0.85831 0
M  V30 6063 C 570 2.27688 -0.262835 0
M  V30 6064 C 571.013 1.52588 0.567513 0
M  V30 6065 O 572.202 1.74156 0.391407 0
M  V30 6066 C 569.302 3.32668 0.646937 0
M  V30 6067 C 568.475 4.37148 -0.148372 0
M  V30 6068 C 567.534 5.21686 0.687728 0
M  V30 6069 O 566.56 5.69074 0.119934 0
M  V30 6070 N 567.762 5.44892 2.00182 0
M  V30 6071 H 570.527 2.79426 -1.08356 0
M  V30 6072 H 568.088 1.45076 -0.718647 0
M  V30 6073 H 570.08 3.86134 1.2117 0
M  V30 6074 H 568.65 2.81061 1.36834 0
M  V30 6075 H 567.87 3.83915 -0.894572 0
M  V30 6076 H 569.158 5.04038 -0.694514 0
M  V30 6077 H 568.556 5.08128 2.4864 0
M  V30 6078 H 567.113 6.0134 2.51463 0
M  V30 6079 N 570.547 0.616602 1.45037 0
M  V30 6080 C 571.777 0.121791 2.06241 0
M  V30 6081 C 572.185 -1.20289 1.46038 0
M  V30 6082 O 571.528 -1.7456 0.572242 0
M  V30 6083 C 571.59 -0.0827345 3.59405 0
M  V30 6084 C 571.254 1.16153 4.41993 0
M  V30 6085 C 572.251 2.08183 4.76399 0
M  V30 6086 C 569.936 1.39288 4.82601 0
M  V30 6087 C 571.93 3.21668 5.5028 0
M  V30 6088 C 569.617 2.53073 5.56235 0
M  V30 6089 C 570.615 3.44091 5.89992 0
M  V30 6090 O 570.303 4.55894 6.6213 0
M  V30 6091 H 570.035 0.0701667 0.672349 0
M  V30 6092 H 572.589 0.846877 1.87129 0
M  V30 6093 H 570.819 -0.862812 3.76952 0
M  V30 6094 H 572.508 -0.530273 4.02421 0
M  V30 6095 H 573.274 1.91538 4.45576 0
M  V30 6096 H 569.153 0.693396 4.55755 0
M  V30 6097 H 572.697 3.92733 5.76547 0
M  V30 6098 H 568.594 2.69667 5.86472 0
M  V30 6099 H 569.362 4.5469 6.80587 0
M  V30 6100 N 572.025 -1.5352 0.356285 0
M  V30 6101 C 572.972 -2.25439 -0.494569 0
M  V30 6102 C 573.942 -1.25752 -1.08516 0
M  V30 6103 O 575.127 -1.54513 -1.1194 0
M  V30 6104 C 572.267 -3.04011 -1.63313 0
M  V30 6105 C 571.38 -4.18574 -1.06862 0
M  V30 6106 C 570.515 -4.84607 -2.17552 0
M  V30 6107 C 569.554 -5.91218 -1.58518 0
M  V30 6108 N 568.691 -6.50979 -2.63003 0
M  V30 6109 H 573.531 -2.97737 0.125244 0
M  V30 6110 H 571.068 -1.46916 0.0735789 0
M  V30 6111 H 573.026 -3.47834 -2.30363 0
M  V30 6112 H 571.656 -2.33986 -2.22374 0
M  V30 6113 H 570.708 -3.79303 -0.288672 0
M  V30 6114 H 572.02 -4.95215 -0.596924 0
M  V30 6115 H 571.174 -5.31566 -2.92442 0
M  V30 6116 H 569.913 -4.07418 -2.6807 0
M  V30 6117 H 568.918 -5.4363 -0.821391 0
M  V30 6118 H 570.143 -6.70322 -1.08836 0
M  V30 6119 H 568.089 -5.76648 -3.12751 0
M  V30 6120 H 568.006 -7.23131 -2.20493 0
M  V30 6121 H 569.274 -7.02589 -3.37623 0
M  V30 6122 N 573.503 -0.0852151 -1.57369 0
M  V30 6123 C 574.752 0.580443 -1.93168 0
M  V30 6124 C 575.065 1.6995 -0.968319 0
M  V30 6125 O 576.271 2.42564 -1.21963 0
M  V30 6126 C 574.727 1.08386 -3.43192 0
M  V30 6127 C 574.335 -0.00491388 -4.48 0
M  V30 6128 C 576.079 1.72281 -3.87968 0
M  V30 6129 C 573.986 0.513299 -5.89168 0
M  V30 6130 H 572.916 0.22059 -0.72101 0
M  V30 6131 H 575.567 -0.159621 -1.82804 0
M  V30 6132 H 573.949 1.8773 -3.48674 0
M  V30 6133 H 575.123 -0.780032 -4.5415 0
M  V30 6134 H 573.438 -0.548453 -4.12772 0
M  V30 6135 H 576.035 2.12108 -4.9083 0
M  V30 6136 H 576.378 2.58811 -3.26071 0
M  V30 6137 H 576.911 0.995359 -3.85146 0
M  V30 6138 H 573.65 -0.315153 -6.54742 0
M  V30 6139 H 573.17 1.25564 -5.8651 0
M  V30 6140 H 574.849 0.985433 -6.39451 0
M  V30 6141 N 574.981 1.5647 0.188427 0
M  V30 6142 C 575.944 1.9421 1.21718 0
M  V30 6143 C 576.944 0.823901 1.38089 0
M  V30 6144 O 578.134 1.09122 1.35787 0
M  V30 6145 C 575.266 2.22197 2.58537 0
M  V30 6146 H 576.459 2.86252 0.894418 0
M  V30 6147 H 574.012 1.50263 0.430211 0
M  V30 6148 H 574.747 1.32814 2.95856 0
M  V30 6149 H 574.532 3.03688 2.48025 0
M  V30 6150 H 576.022 2.52376 3.3271 0
M  V30 6151 N 576.459 -0.456382 1.50847 0
M  V30 6152 C 577.422 -1.53493 1.70213 0
M  V30 6153 C 578.422 -1.50264 0.572481 0
M  V30 6154 O 579.612 -1.52623 0.839751 0
M  V30 6155 C 576.744 -2.93091 1.741 0
M  V30 6156 H 577.937 -1.37633 2.66453 0
M  V30 6157 H 575.49 -0.683776 1.4055 0
M  V30 6158 H 576.225 -3.14378 0.796063 0
M  V30 6159 H 576.01 -2.9684 2.5618 0
M  V30 6160 H 577.5 -3.71368 1.90987 0
M  V30 6161 N 577.937 -1.40673 -0.710563 0
M  V30 6162 C 578.885 -1.41517 -1.84596 0
M  V30 6163 C 579.879 -0.295043 -1.66811 0
M  V30 6164 O 581.085 -0.466331 -1.73854 0
M  V30 6165 H 577.46 -0.442467 -0.608052 0
M  V30 6166 H 579.431 -2.37238 -1.80999 0
M  V30 6167 C 578.18 -1.29957 -3.225 0
M  V30 6168 H 577.503 -2.15429 -3.36794 0
M  V30 6169 H 578.943 -1.34608 -4.02066 0
M  V30 6170 C 577.402 -0.0103164 -3.36898 0
M  V30 6171 O 577.932 0.950707 -3.90288 0
M  V30 6172 N 576.138 0.0608409 -2.90536 0
M  V30 6173 H 575.685 -0.721943 -2.47277 0
M  V30 6174 H 575.643 0.92292 -3.00549 0
M  V30 6175 N 579.415 0.9433 -1.26252 0
M  V30 6176 C 580.347 2.04542 -1.03417 0
M  V30 6177 C 581.36 1.62799 0.0046911 0
M  V30 6178 O 582.549 1.76944 -0.235146 0
M  V30 6179 C 579.649 3.34511 -0.543671 0
M  V30 6180 C 578.822 4.05033 -1.65128 0
M  V30 6181 C 577.881 5.13273 -1.1592 0
M  V30 6182 O 576.907 5.38095 -1.85586 0
M  V30 6183 N 578.109 5.805 -0.00649279 0
M  V30 6184 H 580.874 2.24699 -1.98319 0
M  V30 6185 H 578.435 1.11264 -1.1761 0
M  V30 6186 H 580.427 4.04212 -0.198703 0
M  V30 6187 H 578.997 3.11042 0.311711 0
M  V30 6188 H 578.217 3.29275 -2.16729 0
M  V30 6189 H 579.505 4.48903 -2.39508 0
M  V30 6190 H 578.903 5.62767 0.575347 0
M  V30 6191 H 577.46 6.51201 0.279416 0
M  V30 6192 N 580.893 1.08022 1.14757 0
M  V30 6193 C 581.856 0.71048 2.1791 0
M  V30 6194 C 582.856 -0.252731 1.58801 0
M  V30 6195 O 584.046 -0.0327915 1.74169 0
M  V30 6196 C 581.178 0.0483203 3.40866 0
M  V30 6197 H 582.371 1.62384 2.52134 0
M  V30 6198 H 579.924 0.877595 1.29337 0
M  V30 6199 H 580.659 -0.876959 3.12218 0
M  V30 6200 H 580.444 0.741189 3.85031 0
M  V30 6201 H 581.934 -0.195471 4.17142 0
M  V30 6202 N 582.371 -1.3172 0.865308 0
M  V30 6203 C 583.596 -2.01591 0.487415 0
M  V30 6204 C 584.021 -1.6455 -0.911307 0
M  V30 6205 O 583.379 -0.851689 -1.6005 0
M  V30 6206 C 583.427 -3.54759 0.646401 0
M  V30 6207 O 582.531 -4.11185 -0.316284 0
M  V30 6208 H 581.872 -0.634884 0.194468 0
M  V30 6209 H 584.402 -1.68024 1.16744 0
M  V30 6210 H 584.412 -4.04438 0.537932 0
M  V30 6211 H 583.087 -3.8106 1.66632 0
M  V30 6212 H 581.664 -3.72543 -0.163162 0
M  V30 6213 N 583.85 -0.624285 -1.44708 0
M  V30 6214 C 585.096 -0.126237 -2.02407 0
M  V30 6215 C 585.428 1.24618 -1.48943 0
M  V30 6216 O 584.704 1.82569 -0.670742 0
M  V30 6217 C 584.986 -0.105449 -3.59946 0
M  V30 6218 C 584.84 -1.50972 -4.23707 0
M  V30 6219 C 586.159 0.573629 -4.36346 0
M  V30 6220 H 583.278 -0.0473472 -0.735478 0
M  V30 6221 H 585.92 -0.799452 -1.72362 0
M  V30 6222 H 584.07 0.46783 -3.85673 0
M  V30 6223 H 585.742 -2.13136 -4.0911 0
M  V30 6224 H 583.985 -2.0656 -3.81465 0
M  V30 6225 H 584.656 -1.44727 -5.32689 0
M  V30 6226 H 587.132 0.0861787 -4.16011 0
M  V30 6227 H 586.008 0.557338 -5.46063 0
M  V30 6228 H 586.269 1.64276 -4.10446 0
M  V30 6229 N 585.328 1.53329 -0.364422 0
M  V30 6230 C 586.577 2.00421 0.226747 0
M  V30 6231 C 586.89 1.25581 1.49963 0
M  V30 6232 O 588.096 1.63256 2.16933 0
M  V30 6233 C 586.552 3.57017 0.454618 0
M  V30 6234 C 586.16 4.40734 -0.803568 0
M  V30 6235 C 587.904 4.12468 1.00351 0
M  V30 6236 C 585.811 5.8888 -0.545345 0
M  V30 6237 H 584.741 0.748787 0.0885082 0
M  V30 6238 H 587.392 1.7703 -0.482983 0
M  V30 6239 H 585.774 3.76558 1.22558 0
M  V30 6240 H 586.948 4.32967 -1.57723 0
M  V30 6241 H 585.263 3.96381 -1.27559 0
M  V30 6242 H 587.86 5.20783 1.212 0
M  V30 6243 H 588.203 3.6699 1.9653 0
M  V30 6244 H 588.736 3.96721 0.29274 0
M  V30 6245 H 585.475 6.38633 -1.47743 0
M  V30 6246 H 584.995 5.99499 0.189842 0
M  V30 6247 H 586.674 6.46776 -0.170425 0
M  V30 6248 N 586.806 0.0935595 1.57322 0
M  V30 6249 C 588.031 -0.582324 1.99057 0
M  V30 6250 C 588.456 -1.61025 0.972242 0
M  V30 6251 O 587.814 -1.81202 -0.0594622 0
M  V30 6252 C 587.862 -1.20799 3.39765 0
M  V30 6253 O 586.966 -2.32382 3.40694 0
M  V30 6254 H 586.307 -0.147884 0.647323 0
M  V30 6255 H 588.837 0.174516 2.03854 0
M  V30 6256 H 588.847 -1.54966 3.77425 0
M  V30 6257 H 587.522 -0.454914 4.13405 0
M  V30 6258 H 586.099 -1.99845 3.14827 0
M  V30 6259 N 588.284 -1.56567 -0.180126 0
M  V30 6260 C 589.234 -1.92132 -1.22756 0
M  V30 6261 C 590.218 -0.788639 -1.40247 0
M  V30 6262 O 591.41 -1.05171 -1.42366 0
M  V30 6263 C 588.539 -2.27719 -2.56902 0
M  V30 6264 C 587.625 -3.47481 -2.43142 0
M  V30 6265 N 588.016 -4.64973 -1.99082 0
M  V30 6266 C 586.314 -3.51914 -2.73994 0
M  V30 6267 C 587.015 -5.47119 -1.97574 0
M  V30 6268 N 585.991 -4.87925 -2.39645 0
M  V30 6269 H 589.793 -2.80464 -0.878478 0
M  V30 6270 H 587.307 -1.57686 -0.388463 0
M  V30 6271 H 589.304 -2.51389 -3.32579 0
M  V30 6272 H 587.964 -1.40722 -2.92621 0
M  V30 6273 H 588.975 -4.89358 -1.69557 0
M  V30 6274 H 585.652 -2.75372 -3.13809 0
M  V30 6275 H 587.042 -6.51254 -1.65282 0
M  V30 6276 N 589.762 0.448376 -1.51087 0
M  V30 6277 C 590.694 1.56146 -1.67783 0
M  V30 6278 C 591.707 1.52913 -0.55871 0
M  V30 6279 O 592.896 1.57889 -0.83267 0
M  V30 6280 C 589.996 2.95057 -1.66716 0
M  V30 6281 C 589.169 3.22915 -2.95033 0
M  V30 6282 C 588.228 4.41495 -2.86302 0
M  V30 6283 O 587.254 4.40688 -3.60254 0
M  V30 6284 N 588.456 5.44443 -2.014 0
M  V30 6285 H 591.221 1.42232 -2.638 0
M  V30 6286 H 588.782 0.637153 -1.48835 0
M  V30 6287 H 590.774 3.72388 -1.58458 0
M  V30 6288 H 589.344 3.02624 -0.783403 0
M  V30 6289 H 588.564 2.33985 -3.17245 0
M  V30 6290 H 589.852 3.38349 -3.79996 0
M  V30 6291 H 589.25 5.4793 -1.40674 0
M  V30 6292 H 587.807 6.2067 -1.99029 0
M  V30 6293 N 591.24 1.41047 0.703093 0
M  V30 6294 C 592.19 1.38774 1.80903 0
M  V30 6295 C 593.174 0.263275 1.58731 0
M  V30 6296 O 594.366 0.503362 1.69692 0
M  V30 6297 C 591.495 1.26497 3.19145 0
M  V30 6298 C 590.581 2.43775 3.47037 0
M  V30 6299 N 590.972 3.69249 3.45672 0
M  V30 6300 C 589.27 2.37425 3.77552 0
M  V30 6301 C 589.971 4.46989 3.72258 0
M  V30 6302 N 588.947 3.76998 3.91629 0
M  V30 6303 H 592.749 2.33714 1.78199 0
M  V30 6304 H 590.263 1.34996 0.902762 0
M  V30 6305 H 592.26 1.2295 3.98358 0
M  V30 6306 H 590.92 0.32534 3.23066 0
M  V30 6307 H 591.931 4.02239 3.26228 0
M  V30 6308 H 588.608 1.51895 3.88888 0
M  V30 6309 H 589.998 5.55894 3.77402 0
M  V30 6310 N 592.718 -0.936591 1.26751 0
M  V30 6311 C 593.648 -2.05315 1.11212 0
M  V30 6312 C 594.629 -1.70092 0.0160262 0
M  V30 6313 O 595.814 -1.93279 0.188894 0
M  V30 6314 C 592.944 -3.39123 0.749171 0
M  V30 6315 C 591.898 -3.88425 1.79751 0
M  V30 6316 C 591.224 -5.18936 1.28876 0
M  V30 6317 C 592.524 -4.12798 3.19992 0
M  V30 6318 H 594.218 -2.18573 2.04613 0
M  V30 6319 H 591.764 -1.05027 0.985159 0
M  V30 6320 H 593.717 -4.16704 0.627323 0
M  V30 6321 H 592.441 -3.25855 -0.220543 0
M  V30 6322 H 591.1 -3.13028 1.90811 0
M  V30 6323 H 590.748 -5.02051 0.308757 0
M  V30 6324 H 590.448 -5.52892 1.98958 0
M  V30 6325 H 591.972 -5.99096 1.17967 0
M  V30 6326 H 593.386 -4.80977 3.11983 0
M  V30 6327 H 591.783 -4.58044 3.87705 0
M  V30 6328 H 592.853 -3.18412 3.65707 0
M  V30 6329 N 594.196 -1.08629 -1.14182 0
M  V30 6330 C 595.421 -0.83902 -1.89671 0
M  V30 6331 C 595.846 0.603332 -1.78161 0
M  V30 6332 O 595.204 1.42301 -1.12339 0
M  V30 6333 C 595.252 -1.26854 -3.37551 0
M  V30 6334 O 594.356 -0.42188 -4.10236 0
M  V30 6335 H 593.697 -0.304545 -0.590041 0
M  V30 6336 H 596.227 -1.4483 -1.44518 0
M  V30 6337 H 596.237 -1.25038 -3.88368 0
M  V30 6338 H 594.912 -2.31901 -3.45246 0
M  V30 6339 H 593.489 -0.503654 -3.69483 0
M  V30 6340 N 595.674 1.31259 -0.872281 0
M  V30 6341 C 596.621 2.28459 -0.327857 0
M  V30 6342 C 597.591 1.55831 0.574957 0
M  V30 6343 O 598.776 1.83965 0.506101 0
M  V30 6344 C 595.916 3.41985 0.462644 0
M  V30 6345 C 595.029 4.29458 -0.467949 0
M  V30 6346 C 594.164 5.30131 0.336903 0
M  V30 6347 C 593.203 6.0925 -0.58997 0
M  V30 6348 N 592.34 7.01872 0.178775 0
M  V30 6349 H 597.18 2.74414 -1.16193 0
M  V30 6350 H 594.717 1.34994 -0.584376 0
M  V30 6351 H 596.675 4.06547 0.936759 0
M  V30 6352 H 595.305 2.97134 1.2614 0
M  V30 6353 H 594.357 3.65318 -1.06052 0
M  V30 6354 H 595.669 4.84677 -1.17856 0
M  V30 6355 H 594.823 6.0038 0.873427 0
M  V30 6356 H 593.562 4.75573 1.08079 0
M  V30 6357 H 592.567 5.37889 -1.13823 0
M  V30 6358 H 593.792 6.65894 -1.33275 0
M  V30 6359 H 591.738 6.49721 0.905435 0
M  V30 6360 H 591.655 7.54522 -0.472452 0
M  V30 6361 H 592.923 7.76382 0.696454 0
M  V30 6362 N 597.152 0.631951 1.44375 0
M  V30 6363 C 598.084 -0.110911 2.28931 0
M  V30 6364 C 599.097 -0.808086 1.41329 0
M  V30 6365 O 600.286 -0.669396 1.65473 0
M  V30 6366 C 597.386 -1.17928 3.1772 0
M  V30 6367 C 596.559 -0.564458 4.33743 0
M  V30 6368 C 595.618 -1.5269 5.0356 0
M  V30 6369 O 594.644 -1.04372 5.59549 0
M  V30 6370 N 595.846 -2.86123 5.05088 0
M  V30 6371 H 598.611 0.614758 2.93327 0
M  V30 6372 H 596.172 0.473171 1.54831 0
M  V30 6373 H 598.164 -1.82348 3.61291 0
M  V30 6374 H 596.734 -1.80717 2.55069 0
M  V30 6375 H 595.954 0.258373 3.93352 0
M  V30 6376 H 597.242 -0.134355 5.08623 0
M  V30 6377 H 596.64 -3.27959 4.60933 0
M  V30 6378 H 595.197 -3.45901 5.52445 0
M  V30 6379 N 598.631 -1.53133 0.372548 0
M  V30 6380 C 599.578 -2.25951 -0.470631 0
M  V30 6381 C 600.548 -1.26895 -1.07176 0
M  V30 6382 O 601.733 -1.55691 -1.10294 0
M  V30 6383 C 598.873 -3.05726 -1.6008 0
M  V30 6384 C 597.986 -4.19684 -1.02416 0
M  V30 6385 C 597.121 -4.86888 -2.124 0
M  V30 6386 C 596.16 -5.92866 -1.52238 0
M  V30 6387 N 595.297 -6.53732 -2.56084 0
M  V30 6388 H 600.137 -2.97587 0.156816 0
M  V30 6389 H 597.674 -1.4683 0.0891571 0
M  V30 6390 H 599.632 -3.50258 -2.26661 0
M  V30 6391 H 598.262 -2.36331 -2.1988 0
M  V30 6392 H 597.314 -3.79588 -0.248426 0
M  V30 6393 H 598.626 -4.95821 -0.544366 0
M  V30 6394 H 597.78 -5.34638 -2.86787 0
M  V30 6395 H 596.519 -4.10239 -2.63734 0
M  V30 6396 H 595.524 -5.4447 -0.763685 0
M  V30 6397 H 596.749 -6.71439 -1.0172 0
M  V30 6398 H 594.695 -5.79932 -3.06618 0
M  V30 6399 H 594.612 -7.25429 -2.12811 0
M  V30 6400 H 595.88 -7.0613 -3.30152 0
M  V30 6401 N 600.109 -0.101901 -1.5727 0
M  V30 6402 C 601.041 0.884723 -2.11436 0
M  V30 6403 C 602.054 1.24149 -1.05314 0
M  V30 6404 O 603.243 1.19341 -1.3274 0
M  V30 6405 C 600.343 2.19179 -2.58484 0
M  V30 6406 C 599.516 2.00933 -3.88516 0
M  V30 6407 C 598.575 3.15213 -4.2134 0
M  V30 6408 O 597.601 2.88877 -4.90448 0
M  V30 6409 N 598.803 4.41174 -3.77288 0
M  V30 6410 H 601.568 0.422058 -2.96713 0
M  V30 6411 H 599.129 0.0830128 -1.61687 0
M  V30 6412 H 601.121 2.94593 -2.77484 0
M  V30 6413 H 599.691 2.56847 -1.7818 0
M  V30 6414 H 598.911 1.09809 -3.78597 0
M  V30 6415 H 600.199 1.86026 -4.73573 0
M  V30 6416 H 599.597 4.6545 -3.21516 0
M  V30 6417 H 598.154 5.13515 -4.01429 0
M  V30 6418 N 601.587 1.56661 0.17182 0
M  V30 6419 C 602.517 1.99401 1.21498 0
M  V30 6420 C 603.498 0.869516 1.46197 0
M  V30 6421 O 604.683 1.13556 1.57539 0
M  V30 6422 C 601.813 2.35346 2.55401 0
M  V30 6423 C 600.767 3.5075 2.45272 0
M  V30 6424 C 600.093 3.72437 3.8366 0
M  V30 6425 C 601.393 4.84216 1.95787 0
M  V30 6426 H 603.087 2.86792 0.859699 0
M  V30 6427 H 600.633 1.37977 0.412103 0
M  V30 6428 H 602.586 2.63843 3.2858 0
M  V30 6429 H 601.31 1.44864 2.92715 0
M  V30 6430 H 599.969 3.2238 1.74547 0
M  V30 6431 H 599.617 2.79246 4.18367 0
M  V30 6432 H 599.317 4.50087 3.77751 0
M  V30 6433 H 600.841 4.03334 4.58426 0
M  V30 6434 H 602.255 5.11592 2.5874 0
M  V30 6435 H 600.652 5.65498 2.00827 0
M  V30 6436 H 601.722 4.76243 0.912159 0
M  V30 6437 O 603.104 -0.316804 1.58362 0
M  V30 6438 H 603.795 -0.964883 1.67957 0
M  V30 END ATOM
M  V30 BEGIN BOND
M  V30 END BOND
M  V30 END CTAB
M  END
$$$$
