drugbank_target|Q14534 Squalene monooxygenase (DB00735; DB00857; DB01091; DB08846)
 OpenBabel12092119353D

  0  0  0     0  0            999 V3000
M  V30 BEGIN CTAB
M  V30 COUNTS 9079 9185 0 0 0
M  V30 BEGIN ATOM
M  V30 1 H -0.908 1.98254 -0.117106 0
M  V30 2 N 0 1.576 0 0
M  V30 3 C 0.933 2.03868 1.02534 0
M  V30 4 C 1.911 0.928543 1.3348 0
M  V30 5 O 3.095 1.19667 1.45644 0
M  V30 6 C 0.222 2.43627 2.35294 0
M  V30 7 C -0.732 3.65373 2.2001 0
M  V30 8 S 0.101 5.13292 1.52614 0
M  V30 9 C 1.257 5.56322 2.86805 0
M  V30 10 H 1.49 2.90518 0.631377 0
M  V30 11 H -0.977 1.52953 0.210867 0
M  V30 12 H 0.981 2.67203 3.11629 0
M  V30 13 H -0.358 1.57376 2.7183 0
M  V30 14 H -1.165 3.90944 3.18086 0
M  V30 15 H -1.563 3.418 1.51819 0
M  V30 16 H 0.729 5.58782 3.83104 0
M  V30 17 H 1.672 6.56266 2.65933 0
M  V30 18 H 2.08 4.83886 2.90714 0
M  V30 19 N 1.4781 -0.272755 1.55222 0
M  V30 20 C 2.7241 -1.00172 1.77023 0
M  V30 21 C 3.0791 -1.83928 0.564633 0
M  V30 22 O 2.3721 -1.86416 -0.442674 0
M  V30 23 C 2.5661 -1.91642 3.01675 0
M  V30 24 C 2.3951 -1.16888 4.34243 0
M  V30 25 C 1.1651 -0.884464 4.97499 0
M  V30 26 C 3.3631 -0.55919 5.11251 0
M  V30 27 N 1.3451 -0.11015 6.13801 0
M  V30 28 C 2.7161 0.0809469 6.19947 0
M  V30 29 C 4.7711 -0.467058 4.95705 0
M  V30 30 C 3.4741 0.804335 7.14789 0
M  V30 31 C 5.5001 0.242739 5.90902 0
M  V30 32 C 4.8621 0.871613 6.98987 0
M  V30 33 H 0.9611 -0.348529 0.700037 0
M  V30 34 H 3.5451 -0.277365 1.92714 0
M  V30 35 H 1.7161 -2.61303 2.87359 0
M  V30 36 H 3.4481 -2.57901 3.1188 0
M  V30 37 H 0.2031 -1.18979 4.58411 0
M  V30 38 H 0.6271 0.264344 6.76484 0
M  V30 39 H 5.2691 -0.93894 4.12242 0
M  V30 40 H 2.9871 1.2879 7.97771 0
M  V30 41 H 6.5731 0.314347 5.8095 0
M  V30 42 H 5.4531 1.4121 7.71381 0
M  V30 43 N 2.9562 -1.48159 -0.537278 0
M  V30 44 C 4.1842 -1.59454 -1.31841 0
M  V30 45 C 4.5992 -0.252065 -1.8711 0
M  V30 46 O 3.9562 0.757621 -1.66031 0
M  V30 47 C 4.0072 -2.63546 -2.47439 0
M  V30 48 O 3.7282 -3.92583 -1.94449 0
M  V30 49 C 5.2292 -2.85212 -3.39366 0
M  V30 50 H 2.4492 -0.53785 -0.401196 0
M  V30 51 H 4.9932 -1.93932 -0.648891 0
M  V30 52 H 3.1482 -2.31946 -3.1029 0
M  V30 53 H 3.5622 -4.49629 -2.70063 0
M  V30 54 H 5.0362 -3.61863 -4.16844 0
M  V30 55 H 5.5132 -1.93765 -3.94147 0
M  V30 56 H 6.1192 -3.18086 -2.82314 0
M  V30 57 N 4.4343 0.785586 -1.36625 0
M  V30 58 C 5.6813 1.54362 -1.31067 0
M  V30 59 C 6.0093 1.94195 0.10893 0
M  V30 60 O 5.2643 1.63262 1.07908 0
M  V30 61 C 5.5633 2.83007 -2.1827 0
M  V30 62 C 5.2293 2.62294 -3.6676 0
M  V30 63 C 3.8913 2.56353 -4.0723 0
M  V30 64 C 6.2433 2.43371 -4.6089 0
M  V30 65 C 3.5713 2.29461 -5.39967 0
M  V30 66 C 5.9233 2.18005 -5.93849 0
M  V30 67 C 4.5873 2.105 -6.3344 0
M  V30 68 H 3.8573 0.564851 -0.479609 0
M  V30 69 H 6.5043 0.906028 -1.68711 0
M  V30 70 H 4.8093 3.51253 -1.73576 0
M  V30 71 H 6.5063 3.40817 -2.11292 0
M  V30 72 H 3.0963 2.67774 -3.34656 0
M  V30 73 H 7.2803 2.46959 -4.30494 0
M  V30 74 H 2.5363 2.22135 -5.69619 0
M  V30 75 H 6.7103 2.02359 -6.66351 0
M  V30 76 H 4.3373 1.89425 -7.36222 0
M  V30 77 N 5.9124 1.20967 1.01018 0
M  V30 78 C 6.8424 0.988272 2.11555 0
M  V30 79 C 7.8234 -0.0849778 1.69888 0
M  V30 80 O 9.0084 0.0738202 1.9406 0
M  V30 81 C 6.1384 0.546528 3.42973 0
M  V30 82 C 5.0924 1.56375 3.9841 0
M  V30 83 C 4.4184 0.97842 5.25672 0
M  V30 84 C 5.7184 2.94922 4.31066 0
M  V30 85 H 7.4124 1.91276 2.30334 0
M  V30 86 H 4.9584 0.921073 1.1069 0
M  V30 87 H 6.9114 0.378839 4.19694 0
M  V30 88 H 5.6354 -0.413598 3.23971 0
M  V30 89 H 4.2944 1.71891 3.23804 0
M  V30 90 H 3.9424 0.0101688 5.02999 0
M  V30 91 H 3.6424 1.65784 5.63728 0
M  V30 92 H 5.1664 0.821939 6.05043 0
M  V30 93 H 6.5804 2.8288 4.9865 0
M  V30 94 H 4.9774 3.5983 4.80253 0
M  V30 95 H 6.0474 3.4616 3.39561 0
M  V30 96 N 7.3905 -1.2043 1.01659 0
M  V30 97 C 8.6385 -1.89423 0.704522 0
M  V30 98 C 8.9595 -1.79231 -0.768197 0
M  V30 99 O 8.2295 -1.1947 -1.55254 0
M  V30 100 H 6.8095 -0.701178 0.257602 0
M  V30 101 H 9.4715 -1.4626 1.28818 0
M  V30 102 H 8.5675 -2.96052 0.987916 0
M  V30 103 N 8.8686 -0.792821 -1.36206 0
M  V30 104 C 10.1176 -0.363353 -1.984 0
M  V30 105 C 10.4306 1.07172 -1.63626 0
M  V30 106 O 11.6366 1.60362 -2.19081 0
M  V30 107 C 10.0926 -0.59872 -3.54885 0
M  V30 108 C 9.7006 -2.04543 -3.9858 0
M  V30 109 C 11.4446 -0.233926 -4.23855 0
M  V30 110 C 9.3516 -2.22727 -5.47856 0
M  V30 111 H 8.2816 -0.13212 -0.742334 0
M  V30 112 H 10.9326 -0.974935 -1.55458 0
M  V30 113 H 9.3146 0.0826222 -3.95914 0
M  V30 114 H 10.4886 -2.76345 -3.68741 0
M  V30 115 H 8.8036 -2.36879 -3.42458 0
M  V30 116 H 11.4006 -0.348027 -5.33566 0
M  V30 117 H 11.7436 0.818351 -4.08177 0
M  V30 118 H 12.2766 -0.868639 -3.882 0
M  V30 119 H 9.0156 -3.2635 -5.68486 0
M  V30 120 H 8.5356 -1.55434 -5.7931 0
M  V30 121 H 10.2146 -2.03607 -6.14128 0
M  V30 122 N 10.3467 1.47872 -0.545128 0
M  V30 123 C 11.3097 2.28337 0.198717 0
M  V30 124 C 12.3097 1.36255 0.853888 0
M  V30 125 O 13.4997 1.59003 0.711606 0
M  V30 126 C 10.6317 3.15585 1.28915 0
M  V30 127 H 11.8247 2.95567 -0.507941 0
M  V30 128 H 9.3777 1.53362 -0.301616 0
M  V30 129 H 10.1127 2.53019 2.02859 0
M  V30 130 H 9.8977 3.83337 0.824309 0
M  V30 131 H 11.3877 3.76243 1.81194 0
M  V30 132 N 11.8248 0.280983 1.55075 0
M  V30 133 C 13.0528 -0.337293 2.04132 0
M  V30 134 C 13.4678 -1.4903 1.15912 0
M  V30 135 O 12.8248 -1.81606 0.180459 0
M  V30 136 C 12.8758 -0.812706 3.52246 0
M  V30 137 O 12.5968 0.294387 4.3711 0
M  V30 138 C 14.0978 -1.4982 4.17216 0
M  V30 139 H 11.3178 -0.0761638 0.666663 0
M  V30 140 H 13.8618 0.414787 2.00249 0
M  V30 141 H 12.0168 -1.51486 3.56554 0
M  V30 142 H 12.4308 -0.0721325 5.2445 0
M  V30 143 H 13.9048 -1.7822 5.22438 0
M  V30 144 H 14.3818 -2.43168 3.65741 0
M  V30 145 H 14.9878 -0.839742 4.16927 0
M  V30 146 N 13.3029 -1.57598 0.00835791 0
M  V30 147 C 14.5499 -1.90928 -0.674732 0
M  V30 148 C 14.8779 -0.88277 -1.73313 0
M  V30 149 O 14.1329 0.111294 -1.95383 0
M  V30 150 C 14.4319 -3.3101 -1.34787 0
M  V30 151 C 14.0979 -4.48922 -0.421861 0
M  V30 152 C 12.7599 -4.8091 -0.166927 0
M  V30 153 C 15.1119 -5.20755 0.215211 0
M  V30 154 C 12.4399 -5.821 0.733232 0
M  V30 155 C 14.7919 -6.22905 1.1033 0
M  V30 156 C 13.4559 -6.53346 1.36733 0
M  V30 157 H 12.7259 -0.698656 -0.246902 0
M  V30 158 H 15.3729 -1.91387 0.0656779 0
M  V30 159 H 13.6779 -3.26714 -2.16253 0
M  V30 160 H 15.3749 -3.54061 -1.8826 0
M  V30 161 H 11.9649 -4.23934 -0.630729 0
M  V30 162 H 16.1489 -4.9629 0.0312829 0
M  V30 163 H 11.4049 -6.04042 0.945712 0
M  V30 164 H 15.5789 -6.77694 1.60325 0
M  V30 165 H 13.2059 -7.31573 2.06652 0
M  V30 166 N 14.781 0.264519 -1.55364 0
M  V30 167 C 16.009 1.013 -1.80405 0
M  V30 168 C 16.424 1.79618 -0.581622 0
M  V30 169 O 15.781 1.76879 0.449468 0
M  V30 170 C 15.832 1.96487 -3.03439 0
M  V30 171 O 15.553 1.21341 -4.20961 0
M  V30 172 C 17.054 2.83079 -3.41147 0
M  V30 173 H 14.274 0.298875 -0.600762 0
M  V30 174 H 16.818 0.292736 -2.02394 0
M  V30 175 H 14.973 2.63965 -2.83551 0
M  V30 176 H 15.387 1.85573 -4.90574 0
M  V30 177 H 16.861 3.4565 -4.30384 0
M  V30 178 H 17.338 3.53286 -2.60932 0
M  V30 179 H 17.944 2.2108 -3.63323 0
M  V30 180 N 16.2591 1.48442 0.529413 0
M  V30 181 C 17.4891 1.59919 1.30804 0
M  V30 182 C 17.8971 0.258792 1.87422 0
M  V30 183 O 17.2401 -0.762096 1.67146 0
M  V30 184 C 17.3021 2.58693 2.49636 0
M  V30 185 C 16.9661 4.03745 2.14101 0
M  V30 186 C 17.9631 4.9141 1.6974 0
M  V30 187 C 15.6481 4.49285 2.24607 0
M  V30 188 C 17.6421 6.22645 1.36351 0
M  V30 189 C 15.3291 5.8054 1.9083 0
M  V30 190 C 16.3271 6.67043 1.46773 0
M  V30 191 O 16.0151 7.95856 1.1344 0
M  V30 192 H 15.7471 0.541981 0.404021 0
M  V30 193 H 18.3011 1.95 0.645309 0
M  V30 194 H 16.5311 2.18734 3.18892 0
M  V30 195 H 18.2201 2.59999 3.11698 0
M  V30 196 H 18.9861 4.57465 1.61094 0
M  V30 197 H 14.8651 3.82142 2.57854 0
M  V30 198 H 18.4091 6.90119 1.01891 0
M  V30 199 H 14.3061 6.14022 1.99117 0
M  V30 200 H 15.0741 8.08613 1.26832 0
M  V30 201 N 17.7372 -0.778329 1.37039 0
M  V30 202 C 18.9842 -1.53665 1.31884 0
M  V30 203 C 19.3122 -1.9425 -0.0986303 0
M  V30 204 O 18.5672 -1.63832 -1.07041 0
M  V30 205 C 18.8662 -2.81845 2.19768 0
M  V30 206 C 18.5322 -2.60345 3.68146 0
M  V30 207 C 17.1942 -2.5419 4.08584 0
M  V30 208 C 19.5462 -2.40923 4.62175 0
M  V30 209 C 16.8742 -2.26594 5.41177 0
M  V30 210 C 19.2262 -2.14852 5.94997 0
M  V30 211 C 17.8902 -2.07137 6.34547 0
M  V30 212 H 17.1602 -0.562299 0.482598 0
M  V30 213 H 19.8072 -0.897069 1.69189 0
M  V30 214 H 18.1122 -3.50328 1.75436 0
M  V30 215 H 19.8092 -3.39692 2.13097 0
M  V30 216 H 16.3992 -2.65996 3.36072 0
M  V30 217 H 20.5832 -2.44673 4.31797 0
M  V30 218 H 15.8392 -2.19111 5.70789 0
M  V30 219 H 20.0132 -1.98822 6.67415 0
M  V30 220 H 17.6402 -1.85518 7.37216 0
M  V30 221 N 19.2153 -1.21501 -1.00376 0
M  V30 222 C 20.4453 -1.05746 -1.77486 0
M  V30 223 C 20.8533 0.395655 -1.85017 0
M  V30 224 O 20.1963 1.28626 -1.31152 0
M  V30 225 C 20.2583 -1.58092 -3.22873 0
M  V30 226 C 19.9223 -3.06568 -3.38917 0
M  V30 227 C 20.9193 -4.04106 -3.271 0
M  V30 228 C 18.6043 -3.45799 -3.64319 0
M  V30 229 C 20.5983 -5.38862 -3.40451 0
M  V30 230 C 18.2853 -4.80707 -3.77311 0
M  V30 231 C 19.2833 -5.77047 -3.65384 0
M  V30 232 O 18.9713 -7.09507 -3.77961 0
M  V30 233 H 18.7033 -0.371778 -0.564586 0
M  V30 234 H 21.2573 -1.61319 -1.27143 0
M  V30 235 H 19.4873 -0.969163 -3.74358 0
M  V30 236 H 21.1763 -1.38162 -3.81662 0
M  V30 237 H 21.9423 -3.75141 -3.07399 0
M  V30 238 H 17.8213 -2.71344 -3.72684 0
M  V30 239 H 21.3653 -6.14041 -3.31058 0
M  V30 240 H 17.2623 -5.09357 -3.96517 0
M  V30 241 H 18.0303 -7.16935 -3.94901 0
M  V30 242 N 20.6934 1.19889 -1.02296 0
M  V30 243 C 21.6404 2.22901 -0.598651 0
M  V30 244 C 22.6104 1.61588 0.384521 0
M  V30 245 O 23.7954 1.88697 0.282522 0
M  V30 246 C 20.9354 3.45063 0.0504476 0
M  V30 247 C 20.0484 4.20783 -0.978053 0
M  V30 248 C 19.1834 5.30356 -0.299338 0
M  V30 249 C 18.2224 5.97826 -1.31416 0
M  V30 250 N 17.3594 6.98975 -0.661667 0
M  V30 251 H 22.1994 2.58554 -1.48169 0
M  V30 252 H 19.7364 1.27039 -0.741584 0
M  V30 253 H 21.6944 4.14831 0.443971 0
M  V30 254 H 20.3244 3.10084 0.897097 0
M  V30 255 H 19.3764 3.50018 -1.48969 0
M  V30 256 H 20.6884 4.67109 -1.74958 0
M  V30 257 H 19.8424 6.06516 0.149347 0
M  V30 258 H 18.5814 4.85084 0.504445 0
M  V30 259 H 17.5864 5.20422 -1.77317 0
M  V30 260 H 18.8114 6.45183 -2.11933 0
M  V30 261 H 16.7574 6.55886 0.122132 0
M  V30 262 H 16.6744 7.43461 -1.37117 0
M  V30 263 H 17.9424 7.7914 -0.236785 0
M  V30 264 N 22.1715 0.800033 1.35784 0
M  V30 265 C 23.1185 0.203848 2.29898 0
M  V30 266 C 24.0885 -0.658375 1.52495 0
M  V30 267 O 25.2735 -0.604832 1.8096 0
M  V30 268 C 22.4135 -0.64688 3.38983 0
M  V30 269 C 21.5265 0.235054 4.3136 0
M  V30 270 C 20.6615 -0.623054 5.27533 0
M  V30 271 C 19.7005 0.259682 6.11549 0
M  V30 272 N 18.8375 -0.558019 6.99879 0
M  V30 273 H 23.6775 1.01186 2.80295 0
M  V30 274 H 21.2145 0.51053 1.37957 0
M  V30 275 H 23.1725 -1.15521 4.00887 0
M  V30 276 H 21.8025 -1.42021 2.89879 0
M  V30 277 H 20.8545 0.861438 3.70518 0
M  V30 278 H 22.1665 0.914768 4.9034 0
M  V30 279 H 21.3205 -1.19678 5.94779 0
M  V30 280 H 20.0595 -1.33636 4.69034 0
M  V30 281 H 19.0645 0.845726 5.43256 0
M  V30 282 H 20.2895 0.970748 6.72126 0
M  V30 283 H 18.2355 -1.25542 6.43875 0
M  V30 284 H 18.1525 0.0637872 7.55973 0
M  V30 285 H 19.4205 -1.11523 7.71481 0
M  V30 286 N 23.6496 -1.47581 0.552962 0
M  V30 287 C 24.8966 -2.02482 0.0273243 0
M  V30 288 C 25.2246 -1.42776 -1.32081 0
M  V30 289 O 24.4796 -0.571393 -1.87173 0
M  V30 290 C 24.7786 -3.57199 -0.119728 0
M  V30 291 C 24.4446 -4.35804 1.15697 0
M  V30 292 C 23.1066 -4.57 1.50681 0
M  V30 293 C 25.4586 -4.81167 2.00319 0
M  V30 294 C 22.7866 -5.20807 2.70142 0
M  V30 295 C 25.1386 -5.46293 3.18978 0
M  V30 296 C 23.8026 -5.65722 3.54281 0
M  V30 297 H 23.0726 -0.740933 0.00999866 0
M  V30 298 H 25.7196 -1.77302 0.72362 0
M  V30 299 H 24.0246 -3.81348 -0.89896 0
M  V30 300 H 25.7216 -3.97324 -0.541718 0
M  V30 301 H 22.3116 -4.19582 0.874561 0
M  V30 302 H 26.4956 -4.64574 1.74599 0
M  V30 303 H 21.7516 -5.34045 2.97668 0
M  V30 304 H 25.9256 -5.80407 3.84838 0
M  V30 305 H 23.5526 -6.14936 4.46942 0
M  V30 306 N 25.1277 -0.289203 -1.54924 0
M  V30 307 C 26.3757 0.322879 -1.99504 0
M  V30 308 C 26.6967 1.55313 -1.1791 0
M  V30 309 O 25.9667 1.94001 -0.272097 0
M  V30 310 H 24.5467 0.122291 -0.736922 0
M  V30 311 H 27.2087 -0.397802 -1.90797 0
M  V30 312 H 26.3047 0.603061 -3.06218 0
M  V30 313 N 26.6058 1.57591 -0.0167156 0
M  V30 314 C 27.8828 1.82547 0.702564 0
M  V30 315 C 28.2628 0.898018 1.91047 0
M  V30 316 O 27.6108 -0.0493456 2.28447 0
M  V30 317 C 27.8208 3.31459 1.09251 0
M  V30 318 C 29.1688 3.97622 1.48937 0
M  V30 319 O 30.1928 3.35881 1.18584 0
M  V30 320 O 29.0518 5.06415 2.05442 0
M  V30 321 H 26.1458 0.752268 0.343544 0
M  V30 322 H 28.6918 1.69644 -0.0434495 0
M  V30 323 H 27.4638 3.9061 0.23227 0
M  V30 324 H 27.0868 3.49422 1.89709 0
M  V30 325 N 28.0839 -0.256276 1.55502 0
M  V30 326 C 29.3309 -0.985619 1.76895 0
M  V30 327 C 29.6589 -1.85671 0.579355 0
M  V30 328 O 28.9139 -1.90744 -0.437651 0
M  V30 329 C 29.2129 -1.88432 3.03691 0
M  V30 330 C 28.8789 -1.16936 4.35473 0
M  V30 331 C 27.5409 -0.97173 4.71286 0
M  V30 332 C 29.8929 -0.661889 5.1698 0
M  V30 333 C 27.2209 -0.254179 5.86149 0
M  V30 334 C 29.5729 0.042149 6.32586 0
M  V30 335 C 28.2369 0.25134 6.67027 0
M  V30 336 H 27.5069 -0.360663 0.647304 0
M  V30 337 H 30.1539 -0.256483 1.89775 0
M  V30 338 H 28.4589 -2.68021 2.85783 0
M  V30 339 H 30.1559 -2.45015 3.1744 0
M  V30 340 H 26.7459 -1.33332 4.07333 0
M  V30 341 H 30.9299 -0.802145 4.89775 0
M  V30 342 H 26.1859 -0.0815408 6.11346 0
M  V30 343 H 30.3599 0.443049 6.94989 0
M  V30 344 H 27.9869 0.809314 7.5588 0
M  V30 345 N 29.562 -1.4872 -0.521534 0
M  V30 346 C 30.811 -1.56419 -1.27341 0
M  V30 347 C 31.124 -0.246805 -1.94037 0
M  V30 348 O 32.33 -0.202122 -2.70747 0
M  V30 349 C 30.786 -2.75896 -2.31105 0
M  V30 350 C 30.394 -4.14311 -1.70441 0
M  V30 351 C 32.138 -2.92913 -3.07249 0
M  V30 352 C 30.045 -5.25038 -2.72194 0
M  V30 353 H 28.975 -0.582344 -0.478949 0
M  V30 354 H 31.626 -1.75071 -0.549779 0
M  V30 355 H 30.008 -2.50697 -3.06541 0
M  V30 356 H 31.182 -4.49564 -1.01136 0
M  V30 357 H 29.497 -4.02482 -1.06759 0
M  V30 358 H 32.094 -3.72805 -3.83302 0
M  V30 359 H 32.437 -2.02689 -3.63625 0
M  V30 360 H 32.97 -3.18054 -2.38928 0
M  V30 361 H 29.709 -6.17255 -2.20627 0
M  V30 362 H 29.229 -4.94263 -3.39801 0
M  V30 363 H 30.908 -5.53508 -3.35019 0
M  V30 364 N 31.0401 0.771051 -1.3745 0
M  V30 365 C 32.2681 1.56015 -1.35893 0
M  V30 366 C 32.6831 1.88718 0.0555523 0
M  V30 367 O 32.0401 1.51502 1.01752 0
M  V30 368 C 32.0911 2.87001 -2.19801 0
M  V30 369 O 31.8121 2.557 -3.55738 0
M  V30 370 C 33.3131 3.81228 -2.26231 0
M  V30 371 H 30.5331 0.483317 -0.465453 0
M  V30 372 H 33.0771 0.955611 -1.80799 0
M  V30 373 H 31.2321 3.43877 -1.78402 0
M  V30 374 H 31.6461 3.39584 -3.99729 0
M  V30 375 H 33.1201 4.70139 -2.89263 0
M  V30 376 H 33.5971 4.20409 -1.27093 0
M  V30 377 H 34.2031 3.30281 -2.67945 0
M  V30 378 N 32.5182 1.22032 0.997298 0
M  V30 379 C 33.4482 1.01065 2.10495 0
M  V30 380 C 34.4292 -0.0669542 1.69968 0
M  V30 381 O 35.6142 0.0943987 1.9397 0
M  V30 382 C 32.7442 0.582874 3.42374 0
M  V30 383 C 31.6982 1.60592 3.96729 0
M  V30 384 C 31.0242 1.03412 5.24605 0
M  V30 385 C 32.3242 2.99478 4.27914 0
M  V30 386 H 34.0182 1.93708 2.28292 0
M  V30 387 H 31.5642 0.932761 1.09707 0
M  V30 388 H 33.5172 0.423332 4.19268 0
M  V30 389 H 32.2412 -0.379213 3.24391 0
M  V30 390 H 30.9002 1.75316 3.21963 0
M  V30 391 H 30.5482 0.063518 5.0296 0
M  V30 392 H 30.2482 1.71754 5.61938 0
M  V30 393 H 31.7722 0.886066 6.04137 0
M  V30 394 H 33.1862 2.88153 4.95622 0
M  V30 395 H 31.5832 3.64903 4.76409 0
M  V30 396 H 32.6532 3.49742 3.3587 0
M  V30 397 N 33.9963 -1.19345 1.0293 0
M  V30 398 C 34.9593 -2.20793 0.615069 0
M  V30 399 C 35.9593 -1.57553 -0.321533 0
M  V30 400 O 37.1493 -1.73862 -0.108483 0
M  V30 401 C 34.2813 -3.40754 -0.0999222 0
M  V30 402 H 35.4743 -2.58955 1.51269 0
M  V30 403 H 33.0273 -1.3303 0.820534 0
M  V30 404 H 33.7623 -3.0811 -1.01187 0
M  V30 405 H 33.5473 -3.87889 0.57309 0
M  V30 406 H 35.0373 -4.15898 -0.376645 0
M  V30 407 N 35.4744 -0.807222 -1.35358 0
M  V30 408 C 36.4224 -0.20614 -2.31685 0
M  V30 409 C 37.4164 0.644445 -1.56663 0
M  V30 410 O 38.6224 0.537538 -1.71786 0
M  V30 411 H 34.9974 -0.0479006 -0.750473 0
M  V30 412 H 36.9684 -1.03369 -2.79924 0
M  V30 413 C 35.7174 0.630212 -3.41941 0
M  V30 414 H 35.0404 -0.0149558 -3.99797 0
M  V30 415 H 36.4804 1.01716 -4.11619 0
M  V30 416 C 34.9394 1.79601 -2.85035 0
M  V30 417 O 35.4694 2.89351 -2.78637 0
M  V30 418 N 33.6754 1.60774 -2.42074 0
M  V30 419 H 33.2224 0.715009 -2.47478 0
M  V30 420 H 33.1804 2.38933 -2.04349 0
M  V30 421 N 36.9525 1.47285 -0.560781 0
M  V30 422 C 38.3685 1.58065 -0.22081 0
M  V30 423 C 38.5685 1.55892 1.27671 0
M  V30 424 O 37.6245 1.46422 2.0571 0
M  V30 425 C 38.9375 2.88418 -0.850625 0
M  V30 426 C 40.4855 3.02009 -0.822184 0
M  V30 427 C 40.9605 4.35066 -1.43113 0
M  V30 428 N 42.4515 4.41711 -1.39448 0
M  V30 429 C 43.1865 5.43237 -1.83525 0
M  V30 430 N 42.6825 6.51555 -2.35474 0
M  V30 431 N 44.4755 5.34304 -1.74574 0
M  V30 432 H 36.6265 1.46941 -1.53369 0
M  V30 433 H 38.8895 0.699558 -0.639783 0
M  V30 434 H 38.5955 2.95755 -1.9032 0
M  V30 435 H 38.4695 3.75612 -0.345773 0
M  V30 436 H 40.8565 2.94266 0.221714 0
M  V30 437 H 40.9375 2.16347 -1.36483 0
M  V30 438 H 40.5815 4.43565 -2.47412 0
M  V30 439 H 40.5115 5.19465 -0.863899 0
M  V30 440 H 43.0025 3.64027 -1.01452 0
M  V30 441 H 43.3155 7.25203 -2.67021 0
M  V30 442 H 41.6605 6.52435 -2.39487 0
M  V30 443 H 44.8515 4.48581 -1.33763 0
M  V30 444 H 45.0245 6.13288 -2.09242 0
M  V30 445 N 38.4306 0.297415 1.54768 0
M  V30 446 C 39.3406 -0.58983 2.27064 0
M  V30 447 C 40.3566 -1.15144 1.30453 0
M  V30 448 O 41.5326 -1.17699 1.63428 0
M  V30 449 C 38.5976 -1.74714 2.9946 0
M  V30 450 C 37.6586 -1.21997 4.11601 0
M  V30 451 C 36.8916 -2.32212 4.80535 0
M  V30 452 O 37.1146 -3.52036 4.48806 0
M  V30 453 O 36.0486 -1.99106 5.68014 0
M  V30 454 H 39.8746 -0.00348199 3.037 0
M  V30 455 H 37.4596 0.0640035 1.49263 0
M  V30 456 H 39.3416 -2.42147 3.44881 0
M  V30 457 H 38.0166 -2.32016 2.25722 0
M  V30 458 H 36.9236 -0.511458 3.70587 0
M  V30 459 H 38.2566 -0.692419 4.87305 0
M  V30 460 N 39.9087 -1.5758 0.0250728 0
M  V30 461 C 41.1547 -1.91917 -0.655413 0
M  V30 462 C 41.4877 -0.901433 -1.72011 0
M  V30 463 O 40.7627 0.0764069 -1.9435 0
M  V30 464 C 41.0457 -3.36751 -1.27558 0
M  V30 465 C 40.8987 -4.49258 -0.220719 0
M  V30 466 C 42.2177 -3.81469 -2.19475 0
M  V30 467 H 39.3367 -0.697925 -0.23679 0
M  V30 468 H 41.9787 -1.89825 0.0815036 0
M  V30 469 H 40.1287 -3.38664 -1.90365 0
M  V30 470 H 41.8007 -4.59478 0.409601 0
M  V30 471 H 40.0437 -4.31415 0.454264 0
M  V30 472 H 40.7147 -5.47618 -0.694175 0
M  V30 473 H 43.1907 -3.81266 -1.66659 0
M  V30 474 H 42.0667 -4.83512 -2.59822 0
M  V30 475 H 42.3277 -3.16744 -3.08424 0
M  V30 476 N 41.3868 0.248026 -1.55636 0
M  V30 477 C 42.3168 1.31079 -1.93237 0
M  V30 478 C 43.2978 1.50264 -0.797174 0
M  V30 479 O 44.4828 1.62891 -1.05737 0
M  V30 480 C 41.6128 2.66575 -2.22609 0
M  V30 481 C 40.5668 2.62087 -3.3837 0
M  V30 482 C 39.8928 4.01369 -3.53281 0
M  V30 483 C 41.1928 2.19171 -4.7409 0
M  V30 484 H 42.8868 0.998556 -2.82257 0
M  V30 485 H 40.4328 0.47891 -1.35803 0
M  V30 486 H 42.3858 3.41057 -2.47503 0
M  V30 487 H 41.1098 2.99432 -1.30414 0
M  V30 488 H 39.7688 1.90063 -3.13483 0
M  V30 489 H 39.4168 4.31489 -2.58508 0
M  V30 490 H 39.1168 3.99254 -4.31127 0
M  V30 491 H 40.6408 4.77552 -3.80495 0
M  V30 492 H 42.0548 2.83384 -4.98363 0
M  V30 493 H 40.4518 2.2817 -5.5503 0
M  V30 494 H 41.5218 1.14336 -4.71227 0
M  V30 495 N 42.8649 1.48995 0.513639 0
M  V30 496 C 43.7949 1.67636 1.62544 0
M  V30 497 C 44.7759 0.525087 1.61793 0
M  V30 498 O 45.9609 0.759502 1.78732 0
M  V30 499 C 43.0909 1.73114 3.01079 0
M  V30 500 C 42.0449 2.87905 3.16693 0
M  V30 501 C 41.3709 2.78486 4.56453 0
M  V30 502 C 42.6709 4.29005 2.97913 0
M  V30 503 H 44.3649 2.60716 1.47198 0
M  V30 504 H 41.9109 1.25465 0.706714 0
M  V30 505 H 43.8639 1.84742 3.78746 0
M  V30 506 H 42.5879 0.766241 3.17484 0
M  V30 507 H 41.2469 2.75859 2.41448 0
M  V30 508 H 40.8949 1.7993 4.69717 0
M  V30 509 H 40.5949 3.55523 4.67843 0
M  V30 510 H 42.1189 2.92104 5.36197 0
M  V30 511 H 43.5329 4.41798 3.65359 0
M  V30 512 H 41.9299 5.07166 3.20785 0
M  V30 513 H 42.9999 4.44329 1.94165 0
M  V30 514 N 44.343 -0.763751 1.37857 0
M  V30 515 C 45.583 -1.53551 1.34913 0
M  V30 516 C 45.947 -1.91895 -0.0635882 0
M  V30 517 O 47.148 -2.67916 -0.217825 0
M  V30 518 C 45.419 -2.76126 2.26912 0
M  V30 519 S 46.978 -3.66105 2.41893 0
M  V30 520 H 43.796 -0.52559 0.478828 0
M  V30 521 H 46.398 -0.897435 1.73685 0
M  V30 522 H 45.102 -2.4605 3.28463 0
M  V30 523 H 44.633 -3.44887 1.89253 0
M  V30 524 H 46.648 -4.68473 1.63545 0
M  V30 525 N 45.8211 -1.22559 -0.990812 0
M  V30 526 C 47.0671 -1.05297 -1.73322 0
M  V30 527 C 47.4001 0.410655 -1.89808 0
M  V30 528 O 46.6751 1.30439 -1.44277 0
M  V30 529 C 46.9581 -1.76713 -3.13759 0
M  V30 530 C 46.8111 -3.30684 -3.04907 0
M  V30 531 C 48.1301 -1.52121 -4.12974 0
M  V30 532 H 45.2491 -0.38392 -0.629106 0
M  V30 533 H 47.8911 -1.50926 -1.15418 0
M  V30 534 H 46.0411 -1.37924 -3.63193 0
M  V30 535 H 47.7131 -3.7893 -2.63077 0
M  V30 536 H 45.9561 -3.60253 -2.41661 0
M  V30 537 H 46.6271 -3.75833 -4.04294 0
M  V30 538 H 49.1031 -1.85819 -3.72304 0
M  V30 539 H 47.9791 -2.04582 -5.0935 0
M  V30 540 H 48.2401 -0.454257 -4.3976 0
M  V30 541 N 47.2992 1.18797 -1.03562 0
M  V30 542 C 48.2292 2.24472 -0.643019 0
M  V30 543 C 49.2102 1.66433 0.351283 0
M  V30 544 O 50.3952 1.92803 0.232505 0
M  V30 545 C 47.5252 3.473 4.24935e-05 0
M  V30 546 C 46.4792 4.18055 -0.917257 0
M  V30 547 C 45.8052 5.34519 -0.138941 0
M  V30 548 C 47.1052 4.72109 -2.23407 0
M  V30 549 H 48.7992 2.57566 -1.52643 0
M  V30 550 H 46.3452 1.23806 -0.735394 0
M  V30 551 H 48.2982 4.20426 0.286383 0
M  V30 552 H 47.0222 3.13424 0.918299 0
M  V30 553 H 45.6812 3.46821 -1.1879 0
M  V30 554 H 45.3292 4.96891 0.781562 0
M  V30 555 H 45.0292 5.82794 -0.750005 0
M  V30 556 H 46.5532 6.10438 0.1405 0
M  V30 557 H 47.9672 5.36955 -2.00879 0
M  V30 558 H 46.3642 5.30897 -2.79765 0
M  V30 559 H 47.4342 3.89807 -2.88407 0
M  V30 560 N 48.7773 0.814389 1.34928 0
M  V30 561 C 50.0233 0.399013 1.98836 0
M  V30 562 C 50.3563 -1.03314 1.64438 0
M  V30 563 O 49.6313 -1.71811 0.911659 0
M  V30 564 C 49.9143 0.591629 3.55207 0
M  V30 565 C 49.7673 2.06928 3.99376 0
M  V30 566 C 51.0863 0.022199 4.40094 0
M  V30 567 H 48.2053 0.146451 0.722303 0
M  V30 568 H 50.8473 1.02537 1.59957 0
M  V30 569 H 48.9973 0.0584441 3.88456 0
M  V30 570 H 50.6693 2.66544 3.76499 0
M  V30 571 H 48.9123 2.56287 3.49999 0
M  V30 572 H 49.5833 2.1549 5.08201 0
M  V30 573 H 52.0593 0.477643 4.13349 0
M  V30 574 H 50.9353 0.186832 5.48582 0
M  V30 575 H 51.1963 -1.07215 4.28902 0
M  V30 576 N 50.2554 -1.46986 0.568584 0
M  V30 577 C 51.5024 -2.02441 0.0487986 0
M  V30 578 C 51.8304 -1.44169 -1.30559 0
M  V30 579 O 51.0854 -0.591213 -1.86556 0
M  V30 580 C 51.3844 -3.57306 -0.081836 0
M  V30 581 C 51.0504 -4.34552 1.20313 0
M  V30 582 C 49.7124 -4.55376 1.5552 0
M  V30 583 C 52.0644 -4.79016 2.05411 0
M  V30 584 C 49.3924 -5.17913 2.7565 0
M  V30 585 C 51.7444 -5.42879 3.24754 0
M  V30 586 C 50.4084 -5.61933 3.60261 0
M  V30 587 H 49.6784 -0.740785 0.0178567 0
M  V30 588 H 52.3254 -1.76525 0.742384 0
M  V30 589 H 50.6304 -3.8228 -0.858463 0
M  V30 590 H 52.3274 -3.97876 -0.499546 0
M  V30 591 H 48.9174 -4.18631 0.919014 0
M  V30 592 H 53.1014 -4.62696 1.79516 0
M  V30 593 H 48.3574 -5.30858 3.03315 0
M  V30 594 H 52.5314 -5.76293 3.90973 0
M  V30 595 H 50.1584 -6.10161 4.53439 0
M  V30 596 N 51.7335 -0.305618 -1.54608 0
M  V30 597 C 52.6635 0.561482 -2.26649 0
M  V30 598 C 53.6445 1.13415 -1.26772 0
M  V30 599 O 54.8295 1.16262 -1.55553 0
M  V30 600 C 51.9595 1.73122 -3.01075 0
M  V30 601 C 50.9135 1.2887 -4.08138 0
M  V30 602 C 50.2395 2.54396 -4.70305 0
M  V30 603 C 51.5395 0.416578 -5.20636 0
M  V30 604 H 53.2335 -0.0393902 -2.99374 0
M  V30 605 H 50.7795 -0.020385 -1.43986 0
M  V30 606 H 52.7325 2.34396 -3.50195 0
M  V30 607 H 51.4565 2.3584 -2.25936 0
M  V30 608 H 50.1155 0.698991 -3.59875 0
M  V30 609 H 49.7635 3.15439 -3.918 0
M  V30 610 H 49.4635 2.25486 -5.42614 0
M  V30 611 H 50.9875 3.16464 -5.2219 0
M  V30 612 H 52.4015 0.935116 -5.65622 0
M  V30 613 H 50.7985 0.221046 -5.99693 0
M  V30 614 H 51.8685 -0.557162 -4.81688 0
M  V30 615 N 53.2116 1.57565 -0.0334293 0
M  V30 616 C 54.4366 1.96689 0.657895 0
M  V30 617 C 54.8616 0.910057 1.64619 0
M  V30 618 O 54.2196 -0.128598 1.80843 0
M  V30 619 C 54.2676 3.34905 1.33683 0
M  V30 620 O 53.3716 3.31574 2.45219 0
M  V30 621 H 52.7126 0.641205 0.172489 0
M  V30 622 H 55.2426 2.04372 -0.0965621 0
M  V30 623 H 55.2526 3.71234 1.69262 0
M  V30 624 H 53.9276 4.11366 0.612411 0
M  V30 625 H 52.5046 3.06968 2.11719 0
M  V30 626 N 54.6897 -0.239769 1.55765 0
M  V30 627 C 55.6197 -1.30052 1.9393 0
M  V30 628 C 56.6007 -1.49839 0.805132 0
M  V30 629 O 57.7857 -1.62328 1.06599 0
M  V30 630 C 54.9157 -2.65391 2.2402 0
M  V30 631 C 53.8697 -2.60289 3.39755 0
M  V30 632 C 53.1957 -3.99489 3.55405 0
M  V30 633 C 54.4957 -2.16654 4.75246 0
M  V30 634 H 56.1897 -0.983573 2.82783 0
M  V30 635 H 53.7357 -0.471701 1.36055 0
M  V30 636 H 55.6887 -3.3974 2.49308 0
M  V30 637 H 54.4127 -2.98736 1.32 0
M  V30 638 H 53.0717 -1.88398 3.14487 0
M  V30 639 H 52.7197 -4.30112 2.60793 0
M  V30 640 H 52.4197 -3.96962 4.33238 0
M  V30 641 H 53.9437 -4.75528 3.83022 0
M  V30 642 H 55.3577 -2.80737 4.99859 0
M  V30 643 H 53.7547 -2.25223 5.56232 0
M  V30 644 H 54.8247 -1.11835 4.71827 0
M  V30 645 N 56.1678 -1.49265 -0.50573 0
M  V30 646 C 57.4158 -1.582 -1.25766 0
M  V30 647 C 57.7368 -0.268482 -1.93143 0
M  V30 648 O 57.0068 0.711833 -1.8251 0
M  V30 649 H 55.5868 -0.582873 -0.467191 0
M  V30 650 H 58.2488 -1.85865 -0.586525 0
M  V30 651 H 57.3448 -2.37563 -2.02412 0
M  V30 652 N 57.6459 0.756429 -1.3826 0
M  V30 653 C 58.5759 1.88374 -1.37976 0
M  V30 654 C 59.5569 1.68311 -0.246082 0
M  V30 655 O 60.7419 1.88944 -0.44874 0
M  V30 656 C 57.8719 3.25864 -1.20125 0
M  V30 657 C 56.8259 3.60523 -2.30666 0
M  V30 658 C 56.1519 4.9672 -1.97923 0
M  V30 659 C 57.4519 3.65692 -3.72916 0
M  V30 660 H 59.1459 1.88869 -2.32312 0
M  V30 661 H 56.6919 0.907272 -1.11824 0
M  V30 662 H 58.6449 4.0438 -1.18552 0
M  V30 663 H 57.3689 3.25841 -0.222498 0
M  V30 664 H 56.0279 2.84324 -2.3142 0
M  V30 665 H 55.6759 4.93253 -0.985393 0
M  V30 666 H 55.3759 5.20878 -2.71955 0
M  V30 667 H 56.8999 5.77618 -1.97964 0
M  V30 668 H 58.3139 4.34328 -3.74208 0
M  V30 669 H 56.7109 4.01358 -4.4613 0
M  V30 670 H 57.7809 2.65987 -4.05436 0
M  V30 671 N 59.124 1.23083 0.984299 0
M  V30 672 C 60.37 1.06214 1.72761 0
M  V30 673 C 60.703 -0.400584 1.90024 0
M  V30 674 O 59.978 -1.29672 1.44967 0
M  V30 675 C 60.261 1.78375 3.12817 0
M  V30 676 C 60.114 3.32296 3.03149 0
M  V30 677 C 61.433 1.54309 4.12161 0
M  V30 678 H 58.552 0.387251 0.627061 0
M  V30 679 H 61.194 1.51536 1.14616 0
M  V30 680 H 59.344 1.39848 3.62457 0
M  V30 681 H 61.016 3.8032 2.61064 0
M  V30 682 H 59.259 3.6153 2.39747 0
M  V30 683 H 59.93 3.77972 4.02295 0
M  V30 684 H 62.406 1.87791 3.71314 0
M  V30 685 H 61.282 2.07281 5.08258 0
M  V30 686 H 61.543 0.477572 4.39513 0
M  V30 687 N 60.6021 -1.18246 1.0419 0
M  V30 688 C 61.5321 -2.24127 0.654914 0
M  V30 689 C 62.5131 -1.66617 -0.342451 0
M  V30 690 O 63.6981 -1.92924 -0.222277 0
M  V30 691 C 60.8281 -3.47295 0.0183757 0
M  V30 692 C 59.7821 -4.17563 0.939414 0
M  V30 693 C 59.1081 -5.34438 0.167286 0
M  V30 694 C 60.4081 -4.70917 2.25908 0
M  V30 695 H 62.1021 -2.56753 1.54007 0
M  V30 696 H 59.6481 -1.23414 0.74195 0
M  V30 697 H 61.6011 -4.20572 -0.264082 0
M  V30 698 H 60.3251 -3.13907 -0.901664 0
M  V30 699 H 58.9841 -3.46186 1.20628 0
M  V30 700 H 58.6321 -4.97298 -0.7552 0
M  V30 701 H 58.3321 -5.82388 0.780901 0
M  V30 702 H 59.8561 -6.10504 -0.108125 0
M  V30 703 H 61.2701 -5.35882 2.03724 0
M  V30 704 H 59.6671 -5.29406 2.82577 0
M  V30 705 H 60.7371 -3.88272 2.9047 0
M  V30 706 N 62.0802 -0.821533 -1.34494 0
M  V30 707 C 63.3052 -0.420873 -2.03085 0
M  V30 708 C 63.7302 0.964915 -1.61465 0
M  V30 709 O 63.0882 1.62763 -0.798607 0
M  V30 710 C 63.1362 -0.529414 -3.56693 0
M  V30 711 O 62.2402 0.451302 -4.09923 0
M  V30 712 H 61.5812 -0.173489 -0.640935 0
M  V30 713 H 64.1112 -1.11157 -1.71771 0
M  V30 714 H 64.1212 -0.404671 -4.05988 0
M  V30 715 H 62.7962 -1.54014 -3.86332 0
M  V30 716 H 61.3732 0.285558 -3.71805 0
M  V30 717 N 63.5583 1.46682 -0.576371 0
M  V30 718 C 64.7883 2.06498 -0.0648694 0
M  V30 719 C 65.1963 1.42665 1.24271 0
M  V30 720 O 64.5393 0.523886 1.76071 0
M  V30 721 C 64.6013 3.5904 0.181816 0
M  V30 722 C 64.2653 4.45028 -1.0392 0
M  V30 723 C 65.2623 4.81959 -1.94966 0
M  V30 724 C 62.9473 4.86259 -1.25927 0
M  V30 725 C 64.9413 5.58942 -3.06371 0
M  V30 726 C 62.6283 5.63002 -2.37638 0
M  V30 727 C 63.6263 5.99257 -3.2769 0
M  V30 728 O 63.3143 6.7445 -4.37461 0
M  V30 729 H 63.0463 0.674028 -0.0515987 0
M  V30 730 H 65.6003 1.89393 -0.794951 0
M  V30 731 H 63.8303 3.74429 0.966436 0
M  V30 732 H 65.5193 4.00806 0.641047 0
M  V30 733 H 66.2853 4.50689 -1.79177 0
M  V30 734 H 62.1643 4.57494 -0.567448 0
M  V30 735 H 65.7083 5.87158 -3.76684 0
M  V30 736 H 61.6053 5.93686 -2.53392 0
M  V30 737 H 62.3733 6.92867 -4.35749 0
M  V30 738 N 65.0364 0.313813 1.54444 0
M  V30 739 C 66.4524 -0.0391619 1.59552 0
M  V30 740 C 66.6524 -1.51322 1.33056 0
M  V30 741 O 65.7084 -2.26782 1.11022 0
M  V30 742 C 67.0214 0.370302 2.98411 0
M  V30 743 C 68.5694 0.320139 3.11358 0
M  V30 744 C 69.0444 0.704617 4.52547 0
M  V30 745 N 70.5354 0.657645 4.58508 0
M  V30 746 C 71.2704 0.927453 5.6585 0
M  V30 747 N 70.7664 1.26389 6.81174 0
M  V30 748 N 72.5594 0.853662 5.5558 0
M  V30 749 H 64.7104 1.27433 1.69925 0
M  V30 750 H 66.9734 0.517511 0.794284 0
M  V30 751 H 66.6794 1.39694 3.22767 0
M  V30 752 H 66.5534 -0.269619 3.76235 0
M  V30 753 H 68.9404 -0.697275 2.86744 0
M  V30 754 H 69.0214 0.99486 2.35661 0
M  V30 755 H 68.6654 1.7199 4.77893 0
M  V30 756 H 68.5954 0.00768843 5.26599 0
M  V30 757 H 71.0864 0.409067 3.75679 0
M  V30 758 H 71.3994 1.4554 7.58972 0
M  V30 759 H 69.7444 1.30206 6.82694 0
M  V30 760 H 72.9354 0.590383 4.64362 0
M  V30 761 H 73.1084 1.0673 6.3915 0
M  V30 762 N 66.5145 -1.57545 0.0417849 0
M  V30 763 C 67.7545 -1.94185 -0.63809 0
M  V30 764 C 68.1185 -0.919339 -1.68559 0
M  V30 765 O 69.3195 -1.17236 -2.41886 0
M  V30 766 C 67.5905 -3.35672 -1.22714 0
M  V30 767 S 69.1495 -3.94256 -1.92633 0
M  V30 768 H 65.9675 -0.679353 -0.209764 0
M  V30 769 H 68.5695 -1.95199 0.108479 0
M  V30 770 H 67.2735 -4.07898 -0.452503 0
M  V30 771 H 66.8045 -3.38132 -2.01073 0
M  V30 772 H 68.8195 -3.7872 -3.20602 0
M  V30 773 N 67.9926 0.231505 -1.5589 0
M  V30 774 C 69.4086 0.580748 -1.48659 0
M  V30 775 C 69.6086 1.87617 -0.73498 0
M  V30 776 O 68.6646 2.51046 -0.270586 0
M  V30 777 C 69.9776 0.669202 -2.93159 0
M  V30 778 C 71.5256 0.760499 -3.03621 0
M  V30 779 C 72.0006 0.880383 -4.49459 0
M  V30 780 N 73.4916 0.944861 -4.53461 0
M  V30 781 C 74.2266 1.05716 -5.63571 0
M  V30 782 N 73.7226 1.13403 -6.83456 0
M  V30 783 N 75.5156 1.09152 -5.514 0
M  V30 784 H 67.6666 -0.618695 -2.03189 0
M  V30 785 H 69.9296 -0.215728 -0.923128 0
M  V30 786 H 69.6356 -0.212904 -3.51055 0
M  V30 787 H 69.5096 1.5361 -3.44505 0
M  V30 788 H 71.8966 1.63305 -2.45796 0
M  V30 789 H 71.9776 -0.131864 -2.5546 0
M  V30 790 H 71.6216 0.0123284 -5.07899 0
M  V30 791 H 71.5516 1.78802 -4.95316 0
M  V30 792 H 74.0426 0.896176 -3.6712 0
M  V30 793 H 74.3556 1.21921 -7.63122 0
M  V30 794 H 72.7006 1.10333 -6.86186 0
M  V30 795 H 75.8916 1.02805 -4.56671 0
M  V30 796 H 76.0646 1.17558 -6.37247 0
M  V30 797 N 69.4707 1.49531 0.497807 0
M  V30 798 C 70.4207 1.62829 1.59596 0
M  V30 799 C 71.4047 0.483824 1.53453 0
M  V30 800 O 72.5967 0.736937 1.60929 0
M  V30 801 C 69.7257 1.7011 2.98191 0
M  V30 802 C 68.8117 2.90144 3.09317 0
M  V30 803 N 69.2027 4.1418 2.90324 0
M  V30 804 C 67.5007 2.88148 3.40422 0
M  V30 805 C 68.2017 4.94886 3.05717 0
M  V30 806 N 67.1777 4.28314 3.34736 0
M  V30 807 H 70.9797 2.56446 1.4357 0
M  V30 808 H 68.4937 1.46347 0.704001 0
M  V30 809 H 70.4907 1.77735 3.77115 0
M  V30 810 H 69.1507 0.776315 3.15283 0
M  V30 811 H 70.1617 4.44109 2.66436 0
M  V30 812 H 66.8387 2.05061 3.63671 0
M  V30 813 H 68.2287 6.03432 2.95499 0
M  V30 814 N 70.9488 -0.749086 1.3866 0
M  V30 815 C 72.3648 -1.05276 1.19955 0
M  V30 816 C 72.5648 -2.01435 0.05134 0
M  V30 817 O 71.6208 -2.45232 -0.60147 0
M  V30 818 C 72.9338 -1.62853 2.52783 0
M  V30 819 C 74.4818 -1.75002 2.59506 0
M  V30 820 C 74.9568 -2.35991 3.92521 0
M  V30 821 N 76.4478 -2.43416 3.94085 0
M  V30 822 C 77.1828 -2.91511 4.9377 0
M  V30 823 N 76.6788 -3.39608 6.03853 0
M  V30 824 N 78.4718 -2.90592 4.81157 0
M  V30 825 H 70.6228 -0.111066 2.12109 0
M  V30 826 H 72.8858 -0.111901 0.941373 0
M  V30 827 H 72.5918 -0.99664 3.37283 0
M  V30 828 H 72.4658 -2.61854 2.715 0
M  V30 829 H 74.8528 -2.37317 1.75398 0
M  V30 830 H 74.9338 -0.74693 2.44652 0
M  V30 831 H 74.5778 -1.74308 4.77053 0
M  V30 832 H 74.5078 -3.3695 4.04688 0
M  V30 833 H 76.9988 -2.09405 3.14576 0
M  V30 834 H 77.3118 -3.74775 6.75843 0
M  V30 835 H 75.6568 -3.37653 6.07466 0
M  V30 836 H 78.8478 -2.52332 3.94267 0
M  V30 837 H 79.0208 -3.27762 5.58996 0
M  V30 838 N 72.4269 -1.23603 -0.977757 0
M  V30 839 C 73.3749 -1.01704 -2.09187 0
M  V30 840 C 74.3689 0.0448214 -1.69341 0
M  V30 841 O 75.5749 -0.108902 -1.7967 0
M  V30 842 H 71.9499 -0.311803 -0.684312 0
M  V30 843 H 73.9209 -1.96207 -2.24823 0
M  V30 844 C 72.6699 -0.627746 -3.41986 0
M  V30 845 H 71.9929 -1.43656 -3.73099 0
M  V30 846 H 73.4329 -0.514053 -4.20872 0
M  V30 847 C 71.8919 0.664238 -3.30287 0
M  V30 848 O 72.4219 1.71268 -3.6336 0
M  V30 849 N 70.6279 0.641156 -2.83439 0
M  V30 850 H 70.1749 -0.212376 -2.56723 0
M  V30 851 H 70.1329 1.50583 -2.75993 0
M  V30 852 N 73.905 1.17692 -1.04816 0
M  V30 853 C 75.153 1.87488 -0.754497 0
M  V30 854 C 75.474 1.81205 0.720407 0
M  V30 855 O 74.744 1.23544 1.52032 0
M  V30 856 H 73.324 0.694101 -0.276102 0
M  V30 857 H 75.986 1.42793 -1.32651 0
M  V30 858 H 75.082 2.93328 -1.06606 0
M  V30 859 N 75.3831 0.828654 1.34056 0
M  V30 860 C 76.6311 0.41863 1.97717 0
M  V30 861 C 76.9521 -1.02314 1.66002 0
M  V30 862 O 76.2221 -1.71119 0.953683 0
M  V30 863 H 74.8021 0.151809 0.731412 0
M  V30 864 H 77.4641 1.05936 1.63596 0
M  V30 865 H 76.5601 0.542318 3.07352 0
M  V30 866 N 76.8612 -1.46375 0.584142 0
M  V30 867 C 77.7912 -2.33103 -0.136037 0
M  V30 868 C 78.7722 -1.45431 -0.882255 0
M  V30 869 O 79.9572 -1.74246 -0.857434 0
M  V30 870 C 77.0872 -3.27731 -1.14933 0
M  V30 871 C 76.0412 -4.24855 -0.517862 0
M  V30 872 C 75.3672 -5.09001 -1.63773 0
M  V30 873 C 76.6672 -5.19439 0.545886 0
M  V30 874 H 78.3612 -2.93568 0.588086 0
M  V30 875 H 75.9072 -1.41166 0.284259 0
M  V30 876 H 77.8602 -3.87261 -1.66153 0
M  V30 877 H 76.5842 -2.65377 -1.90375 0
M  V30 878 H 75.2432 -3.6659 -0.0267361 0
M  V30 879 H 74.8912 -4.43031 -2.38185 0
M  V30 880 H 74.5912 -5.74777 -1.22085 0
M  V30 881 H 76.1152 -5.71396 -2.15266 0
M  V30 882 H 77.5292 -5.73177 0.118704 0
M  V30 883 H 75.9262 -5.93566 0.88317 0
M  V30 884 H 76.9962 -4.63285 1.43162 0
M  V30 885 N 78.3393 -0.321999 -1.54275 0
M  V30 886 C 79.2693 0.537411 -2.27231 0
M  V30 887 C 80.2503 1.12064 -1.27968 0
M  V30 888 O 81.4353 1.14606 -1.56777 0
M  V30 889 C 78.5653 1.69919 -3.02894 0
M  V30 890 C 77.5193 1.24534 -4.09482 0
M  V30 891 C 76.8453 2.49394 -4.72977 0
M  V30 892 C 78.1453 0.361335 -5.21049 0
M  V30 893 H 79.8393 -0.0711406 -2.99315 0
M  V30 894 H 77.3853 -0.0356555 -1.43956 0
M  V30 895 H 79.3383 2.30668 -3.52662 0
M  V30 896 H 78.0623 2.33431 -2.28424 0
M  V30 897 H 76.7213 0.660782 -3.60596 0
M  V30 898 H 76.3693 3.11265 -3.95124 0
M  V30 899 H 76.0693 2.19718 -5.44975 0
M  V30 900 H 77.5933 3.10908 -5.25517 0
M  V30 901 H 79.0073 0.875072 -5.66582 0
M  V30 902 H 77.4043 0.157428 -5.99893 0
M  V30 903 H 78.4743 -0.60822 -4.8107 0
M  V30 904 N 79.8174 1.5752 -0.0501392 0
M  V30 905 C 81.0654 1.9227 0.622642 0
M  V30 906 C 81.3864 0.929083 1.71444 0
M  V30 907 O 80.6564 -0.0262186 1.95882 0
M  V30 908 H 79.2364 0.709739 0.232981 0
M  V30 909 H 81.8984 1.94628 -0.102898 0
M  V30 910 H 80.9944 2.93479 1.06191 0
M  V30 911 N 81.2955 -0.223234 1.56011 0
M  V30 912 C 82.7115 -0.572856 1.48965 0
M  V30 913 C 82.9115 -1.87225 0.74492 0
M  V30 914 O 81.9675 -2.50899 0.283896 0
M  V30 915 C 83.2805 -0.653646 2.9351 0
M  V30 916 C 84.8285 -0.744386 3.0402 0
M  V30 917 C 85.3035 -0.856535 4.49919 0
M  V30 918 N 86.7945 -0.9208 4.53955 0
M  V30 919 C 87.5295 -1.02726 5.64123 0
M  V30 920 N 87.0255 -1.09777 6.84047 0
M  V30 921 N 88.8185 -1.06226 5.51971 0
M  V30 922 H 80.9695 0.629462 2.02858 0
M  V30 923 H 83.2325 0.220621 0.921971 0
M  V30 924 H 82.9385 0.231518 3.50937 0
M  V30 925 H 82.8125 -1.51781 3.45315 0
M  V30 926 H 85.1995 -1.61999 2.46658 0
M  V30 927 H 85.2805 0.14541 2.55386 0
M  V30 928 H 84.9245 0.0146069 5.07898 0
M  V30 929 H 84.8545 -1.76172 4.96257 0
M  V30 930 H 87.3455 -0.876694 3.6759 0
M  V30 931 H 87.6585 -1.17872 7.63758 0
M  V30 932 H 86.0035 -1.06693 6.86762 0
M  V30 933 H 89.1945 -1.00382 4.5721 0
M  V30 934 H 89.3675 -1.14177 6.37862 0
M  V30 935 N 82.7736 -1.49793 -0.48987 0
M  V30 936 C 83.7056 -1.63413 -1.60713 0
M  V30 937 C 84.7186 -0.516329 -1.54395 0
M  V30 938 O 85.9076 -0.788812 -1.60125 0
M  V30 939 C 83.0076 -1.58516 -2.99543 0
M  V30 940 C 82.1806 -2.86016 -3.30928 0
M  V30 941 C 81.2396 -2.74018 -4.49222 0
M  V30 942 O 80.2656 -3.47964 -4.50455 0
M  V30 943 N 81.4676 -1.86309 -5.4979 0
M  V30 944 H 84.2326 -2.59777 -1.49452 0
M  V30 945 H 81.7936 -1.47022 -0.677955 0
M  V30 946 H 83.7856 -1.48128 -3.76617 0
M  V30 947 H 82.3556 -0.69965 -3.0467 0
M  V30 948 H 81.5756 -3.10672 -2.42645 0
M  V30 949 H 82.8636 -3.70521 -3.487 0
M  V30 950 H 82.2616 -1.2551 -5.51601 0
M  V30 951 H 80.8186 -1.81837 -6.25922 0
M  V30 952 N 84.2517 0.741722 -1.39055 0
M  V30 953 C 85.1837 1.8657 -1.33133 0
M  V30 954 C 86.1967 1.61001 -0.241329 0
M  V30 955 O 87.3857 1.7136 -0.499784 0
M  V30 956 C 84.4857 3.22457 -1.04283 0
M  V30 957 C 83.6587 3.75435 -2.24427 0
M  V30 958 C 82.7177 4.89867 -1.92138 0
M  V30 959 O 81.7437 5.03879 -2.64754 0
M  V30 960 N 82.9457 5.73738 -0.88347 0
M  V30 961 H 85.7107 1.92156 -2.29991 0
M  V30 962 H 83.2717 0.922172 -1.3307 0
M  V30 963 H 85.2637 3.9657 -0.807128 0
M  V30 964 H 83.8337 3.12181 -0.161807 0
M  V30 965 H 83.0537 2.92751 -2.6399 0
M  V30 966 H 84.3417 4.07563 -3.04581 0
M  V30 967 H 83.7397 5.64999 -0.281517 0
M  V30 968 H 82.2967 6.47947 -0.707662 0
M  V30 969 N 85.7298 1.2412 0.971189 0
M  V30 970 C 86.9548 1.10667 1.75407 0
M  V30 971 C 87.3798 -0.337048 1.85056 0
M  V30 972 O 86.7378 -1.24396 1.31892 0
M  V30 973 C 86.7858 1.74726 3.15441 0
M  V30 974 O 85.8898 1.01566 3.99697 0
M  V30 975 H 85.2308 0.387341 0.539317 0
M  V30 976 H 87.7608 1.64358 1.2185 0
M  V30 977 H 87.7708 1.80341 3.6598 0
M  V30 978 H 86.4458 2.79773 3.07734 0
M  V30 979 H 85.0228 1.03713 3.58187 0
M  V30 980 N 87.2079 -1.17134 1.05439 0
M  V30 981 C 88.4559 -1.87085 0.764429 0
M  V30 982 C 88.7769 -1.81584 -0.710787 0
M  V30 983 O 88.0469 -1.24349 -1.51374 0
M  V30 984 H 86.6269 -0.692627 0.279779 0
M  V30 985 H 89.2889 -1.42087 1.33406 0
M  V30 986 H 88.3849 -2.92759 1.0816 0
M  V30 987 N 88.686 -0.835752 -1.33615 0
M  V30 988 C 89.911 -0.442389 -2.02627 0
M  V30 989 C 90.336 0.947735 -1.62479 0
M  V30 990 O 89.694 1.61907 -0.815826 0
M  V30 991 C 89.742 -0.567216 -3.56111 0
M  V30 992 O 88.846 0.407799 -4.10379 0
M  V30 993 H 88.187 -0.180278 -0.639059 0
M  V30 994 H 90.717 -1.12972 -1.70583 0
M  V30 995 H 90.727 -0.447708 -4.05536 0
M  V30 996 H 89.402 -1.58103 -3.84677 0
M  V30 997 H 87.979 0.246107 -3.72087 0
M  V30 998 N 90.1641 1.46063 -0.591896 0
M  V30 999 C 91.0961 2.28539 0.174001 0
M  V30 1000 C 92.1091 1.39047 0.846753 0
M  V30 1001 O 93.2981 1.63564 0.714774 0
M  V30 1002 C 90.3981 3.14347 1.26645 0
M  V30 1003 C 89.5711 4.32021 0.683856 0
M  V30 1004 C 88.6301 4.99157 1.66518 0
M  V30 1005 O 87.6561 5.56458 1.19763 0
M  V30 1006 N 88.8581 4.97005 2.99943 0
M  V30 1007 H 91.6231 2.94911 -0.533633 0
M  V30 1008 H 89.1841 1.56077 -0.430294 0
M  V30 1009 H 91.1761 3.56125 1.92242 0
M  V30 1010 H 89.7461 2.49988 1.87682 0
M  V30 1011 H 88.9661 3.93915 -0.1498 0
M  V30 1012 H 90.2541 5.08059 0.274567 0
M  V30 1013 H 89.6521 4.51714 3.40545 0
M  V30 1014 H 88.2091 5.42696 3.61004 0
M  V30 1015 N 91.6422 0.330177 1.54103 0
M  V30 1016 C 92.8892 -0.270405 2.00686 0
M  V30 1017 C 93.2172 -1.51621 1.21825 0
M  V30 1018 O 92.4722 -1.93536 0.29025 0
M  V30 1019 C 92.7712 -0.643134 3.51566 0
M  V30 1020 C 92.4372 0.504251 4.48072 0
M  V30 1021 C 91.0992 0.819163 4.74176 0
M  V30 1022 C 93.4512 1.27465 5.05373 0
M  V30 1023 C 90.7792 1.90708 5.5484 0
M  V30 1024 C 93.1312 2.35271 5.87223 0
M  V30 1025 C 91.7952 2.67336 6.11627 0
M  V30 1026 H 91.0652 -0.0989482 0.734364 0
M  V30 1027 H 93.7122 0.455324 1.86008 0
M  V30 1028 H 92.0172 -1.44938 3.64006 0
M  V30 1029 H 93.7142 -1.11949 3.85056 0
M  V30 1030 H 90.3042 0.248733 4.27878 0
M  V30 1031 H 94.4882 1.04462 4.85182 0
M  V30 1032 H 89.7442 2.15991 5.71977 0
M  V30 1033 H 93.9182 2.95405 6.30641 0
M  V30 1034 H 91.5452 3.51763 6.73919 0
M  V30 1035 N 93.1203 -1.57491 0.0584922 0
M  V30 1036 C 94.0833 -2.1085 -0.898617 0
M  V30 1037 C 95.0833 -1.02964 -1.23511 0
M  V30 1038 O 96.2733 -1.29007 -1.17059 0
M  V30 1039 C 93.4053 -2.59881 -2.20623 0
M  V30 1040 H 94.5983 -2.96715 -0.435936 0
M  V30 1041 H 92.1513 -1.55141 -0.190023 0
M  V30 1042 H 92.8863 -1.77431 -2.71457 0
M  V30 1043 H 92.6713 -3.38727 -1.97501 0
M  V30 1044 H 94.1613 -3.01285 -2.89166 0
M  V30 1045 N 94.5984 0.214957 -1.56127 0
M  V30 1046 C 95.5284 1.2695 -1.95974 0
M  V30 1047 C 96.5094 1.48539 -0.828868 0
M  V30 1048 O 97.6944 1.60611 -1.09168 0
M  V30 1049 C 94.8244 2.61794 -2.28214 0
M  V30 1050 C 93.7784 2.54851 -3.43853 0
M  V30 1051 C 93.1044 3.93785 -3.61715 0
M  V30 1052 C 94.4044 2.09065 -4.78632 0
M  V30 1053 H 96.0984 0.93846 -2.84312 0
M  V30 1054 H 93.6444 0.449996 -1.36788 0
M  V30 1055 H 95.5974 3.35731 -2.54682 0
M  V30 1056 H 94.3214 2.96599 -1.36736 0
M  V30 1057 H 92.9804 1.8337 -3.17444 0
M  V30 1058 H 92.6284 4.25908 -2.67602 0
M  V30 1059 H 92.3284 3.90019 -4.39498 0
M  V30 1060 H 93.8524 4.69374 -3.90539 0
M  V30 1061 H 95.2664 2.7275 -5.04262 0
M  V30 1062 H 93.6634 2.16346 -5.59745 0
M  V30 1063 H 94.7334 1.04315 -4.73547 0
M  V30 1064 N 96.0765 1.50051 0.48192 0
M  V30 1065 C 97.3235 1.60498 1.23477 0
M  V30 1066 C 97.6515 0.300331 1.92167 0
M  V30 1067 O 96.9065 -0.713094 1.82246 0
M  V30 1068 C 97.2055 2.72717 2.30998 0
M  V30 1069 C 96.8715 4.13572 1.79636 0
M  V30 1070 C 95.5335 4.519 1.65348 0
M  V30 1071 C 97.8855 5.01649 1.41412 0
M  V30 1072 C 95.2135 5.76057 1.11244 0
M  V30 1073 C 97.5655 6.26343 0.887538 0
M  V30 1074 C 96.2295 6.63483 0.731207 0
M  V30 1075 H 95.4995 0.587303 0.451836 0
M  V30 1076 H 98.1465 1.83948 0.532468 0
M  V30 1077 H 96.4515 2.43312 3.07094 0
M  V30 1078 H 98.1485 2.78006 2.88988 0
M  V30 1079 H 94.7385 3.83329 1.91721 0
M  V30 1080 H 98.9225 4.72679 1.51289 0
M  V30 1081 H 94.1785 6.03516 0.978686 0
M  V30 1082 H 98.3525 6.93958 0.582654 0
M  V30 1083 H 95.9795 7.59568 0.309806 0
M  V30 1084 N 97.5546 -0.734337 1.39446 0
M  V30 1085 C 98.7796 -1.52866 1.40167 0
M  V30 1086 C 99.2046 -1.881 -0.00171513 0
M  V30 1087 O 98.5626 -1.51957 -0.988879 0
M  V30 1088 C 98.6106 -2.79235 2.28167 0
M  V30 1089 O 97.7146 -3.75185 1.71201 0
M  V30 1090 H 97.0556 -0.461618 0.477289 0
M  V30 1091 H 99.5856 -0.905949 1.8345 0
M  V30 1092 H 99.5956 -3.27963 2.42702 0
M  V30 1093 H 98.2706 -2.52923 3.30156 0
M  V30 1094 H 96.8476 -3.33958 1.65912 0
M  V30 1095 N 99.0327 -1.24633 -0.964593 0
M  V30 1096 C 100.31 -0.995809 -1.68354 0
M  V30 1097 C 100.69 0.480964 -2.05548 0
M  V30 1098 O 100.038 1.45599 -1.76105 0
M  V30 1099 C 100.248 -1.92177 -2.91323 0
M  V30 1100 C 101.596 -2.19446 -3.63495 0
M  V30 1101 O 102.62 -1.89855 -3.01386 0
M  V30 1102 O 101.479 -2.69714 -4.75307 0
M  V30 1103 H 98.5727 -0.376854 -0.736146 0
M  V30 1104 H 101.119 -1.35745 -1.0184 0
M  V30 1105 H 99.8907 -2.91938 -2.60553 0
M  V30 1106 H 99.5137 -1.56349 -3.65569 0
M  V30 1107 N 100.511 1.16574 -1.06058 0
M  V30 1108 C 101.76 1.86385 -0.770944 0
M  V30 1109 C 102.073 1.82448 0.705129 0
M  V30 1110 O 103.279 2.47815 1.10905 0
M  V30 1111 C 101.735 3.34466 -1.32893 0
M  V30 1112 C 101.343 3.46883 -2.83507 0
M  V30 1113 C 103.087 4.09548 -1.11672 0
M  V30 1114 C 100.994 4.89036 -3.32562 0
M  V30 1115 H 99.9238 0.698181 -0.284709 0
M  V30 1116 H 102.575 1.31583 -1.27899 0
M  V30 1117 H 100.957 3.88859 -0.748662 0
M  V30 1118 H 102.131 3.02663 -3.47465 0
M  V30 1119 H 100.446 2.85232 -3.03368 0
M  V30 1120 H 103.043 5.14434 -1.45814 0
M  V30 1121 H 103.386 4.16264 -0.0549535 0
M  V30 1122 H 103.919 3.61387 -1.66265 0
M  V30 1123 H 100.658 4.87499 -4.38207 0
M  V30 1124 H 100.178 5.3389 -2.73351 0
M  V30 1125 H 101.857 5.57843 -3.2775 0
M  V30 1126 N 101.989 0.842826 1.3317 0
M  V30 1127 C 102.919 0.294028 2.31641 0
M  V30 1128 C 103.9 -0.600401 1.59151 0
M  V30 1129 O 105.085 -0.523124 1.87022 0
M  V30 1130 C 102.215 -0.528416 3.43257 0
M  V30 1131 C 101.169 0.27056 4.27144 0
M  V30 1132 C 100.495 -0.675881 5.30411 0
M  V30 1133 C 101.795 1.48981 5.00602 0
M  V30 1134 H 103.489 1.11681 2.77791 0
M  V30 1135 H 101.035 0.538478 1.33553 0
M  V30 1136 H 102.988 -0.922674 4.11175 0
M  V30 1137 H 101.712 -1.38445 2.95805 0
M  V30 1138 H 100.371 0.646427 3.60856 0
M  V30 1139 H 100.019 -1.52842 4.79216 0
M  V30 1140 H 99.7189 -0.145374 5.8742 0
M  V30 1141 H 101.243 -1.06757 6.01195 0
M  V30 1142 H 102.657 1.16849 5.61266 0
M  V30 1143 H 101.054 1.95739 5.6728 0
M  V30 1144 H 102.124 2.25746 4.29147 0
M  V30 1145 N 103.467 -1.45747 0.599634 0
M  V30 1146 C 104.692 -2.07178 0.0960198 0
M  V30 1147 C 105.117 -1.44268 -1.207 0
M  V30 1148 O 104.475 -0.532503 -1.73303 0
M  V30 1149 C 104.523 -3.60579 -0.0385348 0
M  V30 1150 O 103.627 -3.97713 -1.0908 0
M  V30 1151 H 102.968 -0.660251 0.0704593 0
M  V30 1152 H 105.498 -1.87124 0.827385 0
M  V30 1153 H 105.508 -4.07298 -0.239304 0
M  V30 1154 H 104.183 -4.05756 0.912947 0
M  V30 1155 H 102.76 -3.62678 -0.867135 0
M  V30 1156 N 104.945 -0.338344 -1.53925 0
M  V30 1157 C 106.193 0.259245 -2.0043 0
M  V30 1158 C 106.514 1.51484 -1.22791 0
M  V30 1159 O 105.784 1.93037 -0.33368 0
M  V30 1160 H 104.364 0.0987845 -0.740439 0
M  V30 1161 H 107.026 -0.458302 -1.89435 0
M  V30 1162 H 106.122 0.505334 -3.07982 0
M  V30 1163 N 106.423 1.57458 -0.0668435 0
M  V30 1164 C 107.353 2.15468 0.899764 0
M  V30 1165 C 108.334 1.08042 1.31381 0
M  V30 1166 O 109.519 1.36054 1.38574 0
M  V30 1167 C 106.649 2.71232 2.16911 0
M  V30 1168 C 105.603 3.83781 1.89463 0
M  V30 1169 C 104.929 4.26127 3.22986 0
M  V30 1170 C 106.229 5.08238 1.20381 0
M  V30 1171 H 107.923 2.96488 0.416529 0
M  V30 1172 H 105.469 1.4262 0.198908 0
M  V30 1173 H 107.422 3.10458 2.84945 0
M  V30 1174 H 106.146 1.87426 2.67468 0
M  V30 1175 H 104.805 3.45051 1.23836 0
M  V30 1176 H 104.453 3.39249 3.71374 0
M  V30 1177 H 104.153 5.01993 3.05413 0
M  V30 1178 H 105.677 4.67966 3.92225 0
M  V30 1179 H 107.091 5.44811 1.78475 0
M  V30 1180 H 105.488 5.89349 1.13083 0
M  V30 1181 H 106.558 4.84558 0.182153 0
M  V30 1182 N 107.901 -0.206675 1.56239 0
M  V30 1183 C 109.312 -0.772383 1.69974 0
M  V30 1184 C 109.663 -1.84353 0.671436 0
M  V30 1185 O 108.788 -2.15695 -0.174491 0
M  V30 1186 C 109.383 -1.40779 3.08167 0
M  V30 1187 C 107.942 -1.92072 3.23706 0
M  V30 1188 C 107.089 -0.786347 2.65917 0
M  V30 1189 H 110.04 0.0182223 1.5869 0
M  V30 1190 H 110.061 -2.27696 3.04852 0
M  V30 1191 H 109.573 -0.627958 3.82986 0
M  V30 1192 H 107.674 -2.7281 2.53782 0
M  V30 1193 H 107.787 -2.09046 4.31087 0
M  V30 1194 H 106.151 -1.1976 2.24788 0
M  V30 1195 H 106.934 -0.0189416 3.43295 0
M  V30 1196 N 109.379 -1.50304 -0.473955 0
M  V30 1197 C 110.626 -1.6115 -1.22625 0
M  V30 1198 C 110.954 -0.310517 -1.92005 0
M  V30 1199 O 110.209 0.703419 -1.82621 0
M  V30 1200 C 110.508 -2.73938 -2.29549 0
M  V30 1201 C 110.174 -4.14519 -1.7744 0
M  V30 1202 C 108.836 -4.5277 -1.62949 0
M  V30 1203 C 111.188 -5.02392 -1.3875 0
M  V30 1204 C 108.516 -5.76639 -1.08187 0
M  V30 1205 C 110.868 -6.26805 -0.854309 0
M  V30 1206 C 109.532 -6.63861 -0.696011 0
M  V30 1207 H 108.802 -0.589691 -0.448715 0
M  V30 1208 H 111.449 -1.84228 -0.522705 0
M  V30 1209 H 109.754 -2.44937 -3.05799 0
M  V30 1210 H 111.451 -2.79534 -2.87509 0
M  V30 1211 H 108.041 -3.8434 -1.89685 0
M  V30 1212 H 112.225 -4.73474 -1.4878 0
M  V30 1213 H 107.481 -6.04027 -0.946666 0
M  V30 1214 H 111.655 -6.94258 -0.545843 0
M  V30 1215 H 109.282 -7.59722 -0.26952 0
M  V30 1216 N 110.857 0.726932 -1.39834 0
M  V30 1217 C 112.106 1.48214 -1.36805 0
M  V30 1218 C 112.419 1.95576 0.0305291 0
M  V30 1219 O 113.625 2.7088 0.183417 0
M  V30 1220 C 112.081 2.67854 -2.40379 0
M  V30 1221 C 111.689 2.27408 -3.85992 0
M  V30 1222 C 113.433 3.45641 -2.46439 0
M  V30 1223 C 111.34 3.43819 -4.81189 0
M  V30 1224 H 110.27 0.556606 -0.508631 0
M  V30 1225 H 112.921 0.792216 -1.65518 0
M  V30 1226 H 111.303 3.3896 -2.04749 0
M  V30 1227 H 112.477 1.63795 -4.30706 0
M  V30 1228 H 110.792 1.62692 -3.83302 0
M  V30 1229 H 113.389 4.32244 -3.14753 0
M  V30 1230 H 113.732 3.88669 -1.49139 0
M  V30 1231 H 114.265 2.8157 -2.81004 0
M  V30 1232 H 111.004 3.05834 -5.79781 0
M  V30 1233 H 110.524 4.06385 -4.41148 0
M  V30 1234 H 112.203 4.10043 -5.00474 0
M  V30 1235 N 112.336 1.25143 0.95797 0
M  V30 1236 C 113.584 1.09476 1.69881 0
M  V30 1237 C 113.905 -0.365502 1.91544 0
M  V30 1238 O 113.175 -1.25985 1.50015 0
M  V30 1239 H 111.755 0.402128 0.629525 0
M  V30 1240 H 114.417 1.57214 1.15194 0
M  V30 1241 H 113.513 1.60046 2.6794 0
M  V30 1242 N 113.814 -1.1601 1.06675 0
M  V30 1243 C 115.061 -1.86633 0.785781 0
M  V30 1244 C 115.389 -1.81929 -0.687896 0
M  V30 1245 O 114.644 -1.23253 -1.52011 0
M  V30 1246 C 114.943 -3.35547 1.23057 0
M  V30 1247 C 114.609 -3.60448 2.70902 0
M  V30 1248 C 113.271 -3.66954 3.11285 0
M  V30 1249 C 115.623 -3.7071 3.66365 0
M  V30 1250 C 112.951 -3.81225 4.45965 0
M  V30 1251 C 115.303 -3.86503 5.00797 0
M  V30 1252 C 113.967 -3.91252 5.40813 0
M  V30 1253 H 113.237 -0.682937 0.287538 0
M  V30 1254 H 115.884 -1.37146 1.33654 0
M  V30 1255 H 114.189 -3.87193 0.59907 0
M  V30 1256 H 115.886 -3.88583 0.990163 0
M  V30 1257 H 112.476 -3.56021 2.38636 0
M  V30 1258 H 116.66 -3.64991 3.36296 0
M  V30 1259 H 111.916 -3.83155 4.76447 0
M  V30 1260 H 116.09 -3.93385 5.74649 0
M  V30 1261 H 113.717 -4.02062 6.45174 0
M  V30 1262 N 115.292 -0.849877 -1.32721 0
M  V30 1263 C 116.539 -0.450923 -1.97416 0
M  V30 1264 C 116.867 0.992376 -1.67279 0
M  V30 1265 O 116.122 1.71048 -0.950845 0
M  V30 1266 C 116.421 -0.631272 -3.51781 0
M  V30 1267 C 116.087 -2.04432 -4.01894 0
M  V30 1268 C 114.749 -2.4308 -4.1529 0
M  V30 1269 C 117.101 -2.96679 -4.28522 0
M  V30 1270 C 114.429 -3.73257 -4.52654 0
M  V30 1271 C 116.781 -4.26349 -4.67343 0
M  V30 1272 C 115.445 -4.64939 -4.78945 0
M  V30 1273 H 114.715 -0.165004 -0.722395 0
M  V30 1274 H 117.362 -1.07901 -1.58207 0
M  V30 1275 H 115.667 0.0800767 -3.91718 0
M  V30 1276 H 117.364 -0.302709 -3.99856 0
M  V30 1277 H 113.954 -1.73419 -3.91949 0
M  V30 1278 H 118.138 -2.68054 -4.17685 0
M  V30 1279 H 113.394 -4.02946 -4.59831 0
M  V30 1280 H 117.568 -4.97895 -4.86902 0
M  V30 1281 H 115.195 -5.65855 -5.07654 0
M  V30 1282 N 116.77 1.45427 -0.607355 0
M  V30 1283 C 118.016 2.03097 -0.111035 0
M  V30 1284 C 118.371 1.46735 1.24445 0
M  V30 1285 O 117.664 0.632478 1.8086 0
M  V30 1286 C 117.858 3.57398 -0.0129263 0
M  V30 1287 C 117.687 4.28726 -1.35735 0
M  V30 1288 C 116.457 4.66659 -1.93798 0
M  V30 1289 C 118.655 4.60699 -2.28607 0
M  V30 1290 N 116.637 5.22845 -3.21723 0
M  V30 1291 C 118.008 5.17716 -3.41131 0
M  V30 1292 C 120.063 4.42638 -2.27982 0
M  V30 1293 C 118.766 5.58576 -4.53194 0
M  V30 1294 C 120.792 4.84531 -3.39093 0
M  V30 1295 C 120.154 5.4164 -4.50339 0
M  V30 1296 H 116.253 0.777476 -0.083994 0
M  V30 1297 H 118.837 1.77249 -0.805655 0
M  V30 1298 H 117.008 3.82907 0.650914 0
M  V30 1299 H 118.74 4.01722 0.490033 0
M  V30 1300 H 115.495 4.50207 -1.47007 0
M  V30 1301 H 115.919 5.55438 -3.87063 0
M  V30 1302 H 120.561 3.97798 -1.43235 0
M  V30 1303 H 118.279 6.02382 -5.38667 0
M  V30 1304 H 121.865 4.72289 -3.39757 0
M  V30 1305 H 120.745 5.73461 -5.34895 0
M  V30 1306 N 118.248 0.346503 1.53744 0
M  V30 1307 C 119.211 -0.496439 2.23759 0
M  V30 1308 C 120.211 -1.0252 1.2388 0
M  V30 1309 O 121.401 -0.913974 1.48297 0
M  V30 1310 C 118.533 -1.69187 2.95954 0
M  V30 1311 H 119.726 0.115952 2.99676 0
M  V30 1312 H 117.279 0.0978939 1.55993 0
M  V30 1313 H 118.014 -2.34288 2.24231 0
M  V30 1314 H 117.799 -1.31989 3.69217 0
M  V30 1315 H 119.289 -2.28969 3.49232 0
M  V30 1316 N 119.726 -1.57421 0.075193 0
M  V30 1317 C 120.673 -2.12915 -0.890843 0
M  V30 1318 C 121.643 -1.04252 -1.29309 0
M  V30 1319 O 122.828 -1.31933 -1.37834 0
M  V30 1320 C 119.968 -2.69795 -2.15186 0
M  V30 1321 C 119.081 -3.92624 -1.80194 0
M  V30 1322 C 118.216 -4.37736 -3.00933 0
M  V30 1323 C 117.255 -5.53205 -2.61974 0
M  V30 1324 N 116.392 -5.9326 -3.75483 0
M  V30 1325 H 121.232 -2.95156 -0.410735 0
M  V30 1326 H 118.769 -1.45854 -0.191086 0
M  V30 1327 H 120.727 -3.00883 -2.89008 0
M  V30 1328 H 119.357 -1.90313 -2.60731 0
M  V30 1329 H 118.409 -3.67977 -0.964218 0
M  V30 1330 H 119.721 -4.76482 -1.47534 0
M  V30 1331 H 118.875 -4.70503 -3.8303 0
M  V30 1332 H 117.614 -3.52739 -3.36789 0
M  V30 1333 H 116.619 -5.20086 -1.783 0
M  V30 1334 H 117.844 -6.39936 -2.27284 0
M  V30 1335 H 115.79 -5.11212 -4.11094 0
M  V30 1336 H 115.707 -6.71865 -3.46602 0
M  V30 1337 H 116.975 -6.30651 -4.58148 0
M  V30 1338 N 121.204 0.198386 -1.56346 0
M  V30 1339 C 122.429 0.939682 -1.84891 0
M  V30 1340 C 122.854 1.76202 -0.658369 0
M  V30 1341 O 122.212 1.76993 0.392851 0
M  V30 1342 C 122.26 1.81428 -3.11635 0
M  V30 1343 O 121.364 2.91265 -2.91956 0
M  V30 1344 H 120.705 0.264807 -0.608912 0
M  V30 1345 H 123.235 0.204695 -2.03573 0
M  V30 1346 H 123.245 2.21958 -3.42343 0
M  V30 1347 H 121.92 1.21004 -3.97908 0
M  V30 1348 H 120.497 2.54514 -2.72538 0
M  V30 1349 N 122.682 1.50554 0.465978 0
M  V30 1350 C 124.093 1.54599 1.04671 0
M  V30 1351 C 124.444 0.352488 1.93008 0
M  V30 1352 O 123.569 -0.534044 2.09707 0
M  V30 1353 C 124.164 2.80166 1.90505 0
M  V30 1354 C 122.723 2.86876 2.43678 0
M  V30 1355 C 121.87 2.48947 1.22151 0
M  V30 1356 H 124.821 1.56744 0.248384 0
M  V30 1357 H 124.842 2.62311 2.75633 0
M  V30 1358 H 124.354 3.67013 1.26186 0
M  V30 1359 H 122.455 2.04393 3.11536 0
M  V30 1360 H 122.568 3.89885 2.78436 0
M  V30 1361 H 120.932 2.01498 1.5579 0
M  V30 1362 H 121.715 3.38107 0.594866 0
M  V30 1363 N 124.16 -0.719506 1.40217 0
M  V30 1364 C 125.571 -1.29848 1.34151 0
M  V30 1365 C 125.922 -1.96196 0.0131349 0
M  V30 1366 O 125.047 -1.973 -0.88892 0
M  V30 1367 C 125.642 -2.36118 2.42968 0
M  V30 1368 C 124.201 -2.8965 2.40374 0
M  V30 1369 C 123.348 -1.63393 2.24049 0
M  V30 1370 H 126.299 -0.51591 1.5008 0
M  V30 1371 H 126.32 -3.16871 2.10649 0
M  V30 1372 H 125.832 -1.878 3.39636 0
M  V30 1373 H 123.933 -3.42208 1.47392 0
M  V30 1374 H 124.046 -3.4171 3.35814 0
M  V30 1375 H 122.41 -1.88312 1.71495 0
M  V30 1376 H 123.193 -1.17104 3.2271 0
M  V30 1377 N 125.638 -1.25649 -0.95132 0
M  V30 1378 C 126.548 -1.08073 -2.08224 0
M  V30 1379 C 127.564 -0.0169666 -1.73992 0
M  V30 1380 O 128.74 -0.218593 -2.0021 0
M  V30 1381 C 125.805 -0.704922 -3.39458 0
M  V30 1382 C 124.866 -1.84699 -3.87537 0
M  V30 1383 C 124.099 -1.48902 -5.12508 0
M  V30 1384 O 124.322 -0.386156 -5.69091 0
M  V30 1385 O 123.256 -2.32033 -5.55378 0
M  V30 1386 H 127.082 -2.02924 -2.25954 0
M  V30 1387 H 124.667 -1.04618 -1.06656 0
M  V30 1388 H 126.549 -0.507609 -4.18332 0
M  V30 1389 H 125.224 0.214291 -3.2299 0
M  V30 1390 H 124.131 -2.09919 -3.09653 0
M  V30 1391 H 125.464 -2.74557 -4.08509 0
M  V30 1392 N 127.117 1.15442 -1.07289 0
M  V30 1393 C 128.342 1.90638 -0.816828 0
M  V30 1394 C 128.767 1.77445 0.624083 0
M  V30 1395 O 128.125 1.10671 1.43602 0
M  V30 1396 C 128.173 3.39008 -1.22906 0
M  V30 1397 O 127.277 4.10701 -0.373975 0
M  V30 1398 H 126.618 0.593555 -0.297638 0
M  V30 1399 H 129.148 1.46198 -1.43134 0
M  V30 1400 H 129.158 3.89801 -1.20497 0
M  V30 1401 H 127.833 3.47929 -2.27856 0
M  V30 1402 H 126.41 3.70046 -0.460499 0
M  V30 1403 N 128.595 0.856903 1.32268 0
M  V30 1404 C 129.505 0.306131 2.32594 0
M  V30 1405 C 130.521 -0.577209 1.64147 0
M  V30 1406 O 131.697 -0.477043 1.95669 0
M  V30 1407 C 128.762 -0.494561 3.43154 0
M  V30 1408 C 127.823 0.415186 4.27288 0
M  V30 1409 C 127.056 -0.347387 5.32568 0
M  V30 1410 O 127.279 -1.57708 5.48165 0
M  V30 1411 O 126.213 0.287982 6.01211 0
M  V30 1412 H 130.039 1.13737 2.81598 0
M  V30 1413 H 127.624 0.619902 1.35932 0
M  V30 1414 H 129.506 -0.948944 4.10576 0
M  V30 1415 H 128.181 -1.30257 2.96336 0
M  V30 1416 H 127.088 0.917793 3.62667 0
M  V30 1417 H 128.421 1.18844 4.77637 0
M  V30 1418 N 130.073 -1.45103 0.615059 0
M  V30 1419 C 131.021 -2.32331 -0.111791 0
M  V30 1420 C 132.015 -1.46409 -0.852102 0
M  V30 1421 O 133.221 -1.62849 -0.766821 0
M  V30 1422 H 129.596 -0.749993 -0.0549072 0
M  V30 1423 H 131.567 -2.91407 0.642225 0
M  V30 1424 C 130.316 -3.3015 -1.09071 0
M  V30 1425 H 129.639 -3.96265 -0.530485 0
M  V30 1426 H 131.079 -3.93898 -1.56908 0
M  V30 1427 C 129.538 -2.57875 -2.168 0
M  V30 1428 O 130.068 -2.36567 -3.24652 0
M  V30 1429 N 128.274 -2.17884 -1.92289 0
M  V30 1430 H 127.821 -2.35413 -1.04587 0
M  V30 1431 H 127.779 -1.6985 -2.64572 0
M  V30 1432 N 131.551 -0.354651 -1.53558 0
M  V30 1433 C 132.498 0.496968 -2.25386 0
M  V30 1434 C 133.468 1.0865 -1.25636 0
M  V30 1435 O 134.653 1.12104 -1.54394 0
M  V30 1436 C 131.793 1.63637 -3.03837 0
M  V30 1437 C 130.906 1.07307 -4.18461 0
M  V30 1438 C 130.041 2.18068 -4.84376 0
M  V30 1439 C 129.08 1.59147 -5.91049 0
M  V30 1440 N 128.217 2.63695 -6.50699 0
M  V30 1441 H 133.057 -0.122075 -2.9775 0
M  V30 1442 H 130.594 -0.0720154 -1.46924 0
M  V30 1443 H 132.552 2.30734 -3.47589 0
M  V30 1444 H 131.182 2.22623 -2.33749 0
M  V30 1445 H 130.234 0.292708 -3.79272 0
M  V30 1446 H 131.546 0.602193 -4.95152 0
M  V30 1447 H 130.7 2.93007 -5.31255 0
M  V30 1448 H 129.439 2.68504 -4.07133 0
M  V30 1449 H 128.444 0.827175 -5.43542 0
M  V30 1450 H 129.669 1.09549 -6.70206 0
M  V30 1451 H 127.615 3.13365 -5.76315 0
M  V30 1452 H 127.532 2.21263 -7.22896 0
M  V30 1453 H 128.8 3.3837 -7.02229 0
M  V30 1454 N 133.029 1.57378 -0.0835403 0
M  V30 1455 C 133.939 2.16897 0.894021 0
M  V30 1456 C 134.955 1.13528 1.31861 0
M  V30 1457 O 136.131 1.45848 1.3889 0
M  V30 1458 C 133.196 2.72831 2.13925 0
M  V30 1459 C 132.257 3.91115 1.76997 0
M  V30 1460 C 131.49 4.44371 2.95584 0
M  V30 1461 O 131.713 3.96596 4.09961 0
M  V30 1462 O 130.647 5.35549 2.74719 0
M  V30 1463 H 134.473 3.00814 0.417679 0
M  V30 1464 H 132.058 1.48741 0.140181 0
M  V30 1465 H 133.94 3.0863 2.86924 0
M  V30 1466 H 132.615 1.91967 2.60635 0
M  V30 1467 H 131.522 3.60148 1.01214 0
M  V30 1468 H 132.855 4.73307 1.3506 0
M  V30 1469 N 134.507 -0.190092 1.56449 0
M  V30 1470 C 135.439 -1.25973 1.91477 0
M  V30 1471 C 136.452 -1.41452 0.805931 0
M  V30 1472 O 137.641 -1.41789 1.08435 0
M  V30 1473 C 134.741 -2.63117 2.13594 0
M  V30 1474 C 133.914 -2.69182 3.4476 0
M  V30 1475 C 132.973 -3.87557 3.5593 0
M  V30 1476 O 131.999 -3.74427 4.28711 0
M  V30 1477 N 133.201 -5.03224 2.89388 0
M  V30 1478 H 135.966 -0.962394 2.83828 0
M  V30 1479 H 133.527 -0.379981 1.57378 0
M  V30 1480 H 135.519 -3.40742 2.1835 0
M  V30 1481 H 134.089 -2.85319 1.27719 0
M  V30 1482 H 133.309 -1.77793 3.51828 0
M  V30 1483 H 134.597 -2.70229 4.31107 0
M  V30 1484 H 133.995 -5.16791 2.30094 0
M  V30 1485 H 132.552 -5.78778 2.99764 0
M  V30 1486 N 135.985 -1.50799 -0.457987 0
M  V30 1487 C 136.915 -1.73553 -1.5621 0
M  V30 1488 C 137.896 -0.584774 -1.59732 0
M  V30 1489 O 139.081 -0.825314 -1.7579 0
M  V30 1490 C 136.211 -1.84169 -2.94447 0
M  V30 1491 C 135.165 -2.99461 -3.0579 0
M  V30 1492 C 134.491 -2.95235 -4.45803 0
M  V30 1493 C 135.791 -4.39766 -2.81786 0
M  V30 1494 H 137.485 -2.66 -1.37421 0
M  V30 1495 H 135.031 -1.28002 -0.659662 0
M  V30 1496 H 136.984 -1.98672 -3.71628 0
M  V30 1497 H 135.708 -0.883545 -3.14422 0
M  V30 1498 H 134.367 -2.8463 -2.31044 0
M  V30 1499 H 134.015 -1.97239 -4.62715 0
M  V30 1500 H 133.715 -3.72642 -4.54326 0
M  V30 1501 H 135.239 -3.11803 -5.24987 0
M  V30 1502 H 136.653 -4.55054 -3.4871 0
M  V30 1503 H 135.05 -5.18722 -3.0174 0
M  V30 1504 H 136.12 -4.51229 -1.7754 0
M  V30 1505 N 137.463 0.71206 -1.40597 0
M  V30 1506 C 138.373 1.8562 -1.43466 0
M  V30 1507 C 139.389 1.70902 -0.326902 0
M  V30 1508 O 140.565 1.93105 -0.572043 0
M  V30 1509 C 137.63 3.21451 -1.29884 0
M  V30 1510 C 136.691 3.48398 -2.50833 0
M  V30 1511 C 135.924 4.77749 -2.3789 0
M  V30 1512 O 136.147 5.53089 -1.39459 0
M  V30 1513 O 135.081 5.05111 -3.27333 0
M  V30 1514 H 138.907 1.86155 -2.39958 0
M  V30 1515 H 136.492 0.86295 -1.21957 0
M  V30 1516 H 138.374 4.02579 -1.24531 0
M  V30 1517 H 137.049 3.21636 -0.364997 0
M  V30 1518 H 135.956 2.67265 -2.61763 0
M  V30 1519 H 137.289 3.53014 -3.4299 0
M  V30 1520 N 138.941 1.26152 0.944643 0
M  V30 1521 C 139.904 1.07474 2.0244 0
M  V30 1522 C 140.904 0.0242064 1.60782 0
M  V30 1523 O 142.094 0.267302 1.72137 0
M  V30 1524 C 139.226 0.633956 3.34953 0
M  V30 1525 H 140.419 2.03336 2.20442 0
M  V30 1526 H 137.972 1.087 1.12312 0
M  V30 1527 H 138.707 -0.326811 3.22649 0
M  V30 1528 H 138.492 1.39247 3.66542 0
M  V30 1529 H 139.982 0.52501 4.14287 0
M  V30 1530 N 140.419 -1.14872 1.07899 0
M  V30 1531 C 141.835 -1.37776 0.805606 0
M  V30 1532 C 142.035 -1.92743 -0.587555 0
M  V30 1533 O 141.091 -2.13678 -1.34528 0
M  V30 1534 C 142.404 -2.34361 1.88402 0
M  V30 1535 C 143.952 -2.48012 1.90942 0
M  V30 1536 C 144.427 -3.47893 2.97883 0
M  V30 1537 N 145.918 -3.55433 2.97021 0
M  V30 1538 C 146.653 -4.32553 3.76412 0
M  V30 1539 N 146.149 -5.12959 4.65666 0
M  V30 1540 N 147.942 -4.27697 3.64735 0
M  V30 1541 H 140.093 -0.775365 1.97742 0
M  V30 1542 H 142.356 -0.403521 0.857831 0
M  V30 1543 H 142.062 -2.01098 2.88535 0
M  V30 1544 H 141.936 -3.34206 1.74889 0
M  V30 1545 H 144.323 -2.8057 0.914579 0
M  V30 1546 H 144.404 -1.48147 2.08534 0
M  V30 1547 H 144.048 -3.16069 3.97571 0
M  V30 1548 H 143.978 -4.47527 2.77538 0
M  V30 1549 H 146.469 -2.98048 2.32326 0
M  V30 1550 H 146.782 -5.69065 5.22862 0
M  V30 1551 H 145.127 -5.12245 4.69712 0
M  V30 1552 H 148.318 -3.63949 2.94378 0
M  V30 1553 H 148.491 -4.8755 4.26848 0
M  V30 1554 N 141.898 -0.863906 -1.31812 0
M  V30 1555 C 143.314 -0.555004 -1.49639 0
M  V30 1556 C 143.514 0.912266 -1.79666 0
M  V30 1557 O 142.57 1.69479 -1.87171 0
M  V30 1558 C 143.883 -1.44998 -2.63431 0
M  V30 1559 C 145.431 -1.45138 -2.77316 0
M  V30 1560 C 145.906 -2.33179 -3.94197 0
M  V30 1561 N 147.397 -2.31025 -4.01474 0
M  V30 1562 C 148.132 -2.95871 -4.9117 0
M  V30 1563 N 147.628 -3.69863 -5.8581 0
M  V30 1564 N 149.421 -2.85211 -4.84367 0
M  V30 1565 H 141.572 -1.81339 -1.10589 0
M  V30 1566 H 143.835 -0.77505 -0.545895 0
M  V30 1567 H 143.541 -2.49377 -2.48 0
M  V30 1568 H 143.415 -1.14409 -3.59431 0
M  V30 1569 H 145.802 -0.415201 -2.92164 0
M  V30 1570 H 145.883 -1.79747 -1.82001 0
M  V30 1571 H 145.527 -3.3687 -3.80107 0
M  V30 1572 H 145.457 -1.95897 -4.88807 0
M  V30 1573 H 147.948 -1.77238 -3.33759 0
M  V30 1574 H 148.261 -4.16486 -6.50968 0
M  V30 1575 H 146.606 -3.73971 -5.85808 0
M  V30 1576 H 149.797 -2.26948 -4.09405 0
M  V30 1577 H 149.97 -3.36027 -5.54066 0
M  V30 1578 N 143.376 1.44774 -0.622745 0
M  V30 1579 C 144.792 1.56986 -0.287652 0
M  V30 1580 C 144.992 1.61167 1.20944 0
M  V30 1581 O 144.048 1.55015 1.99315 0
M  V30 1582 C 145.361 2.84551 -0.972188 0
M  V30 1583 C 146.909 2.9825 -0.949536 0
M  V30 1584 C 147.384 4.28605 -1.61437 0
M  V30 1585 N 148.875 4.35399 -1.58057 0
M  V30 1586 C 149.61 5.34964 -2.064 0
M  V30 1587 N 149.106 6.40981 -2.62897 0
M  V30 1588 N 150.899 5.26419 -1.97078 0
M  V30 1589 H 143.05 1.40304 -1.59463 0
M  V30 1590 H 145.313 0.671794 -0.668878 0
M  V30 1591 H 145.019 2.87417 -2.02693 0
M  V30 1592 H 144.893 3.73807 -0.504771 0
M  V30 1593 H 147.28 2.94941 0.0967067 0
M  V30 1594 H 147.361 2.10364 -1.45536 0
M  V30 1595 H 147.005 4.32672 -2.66002 0
M  V30 1596 H 146.935 5.15334 -1.08344 0
M  V30 1597 H 149.426 3.59397 -1.16801 0
M  V30 1598 H 149.739 7.13225 -2.97539 0
M  V30 1599 H 148.084 6.4169 -2.66943 0
M  V30 1600 H 151.275 4.42504 -1.52669 0
M  V30 1601 H 151.448 6.03861 -2.35066 0
M  V30 1602 N 144.854 0.36279 1.53368 0
M  V30 1603 C 146.27 0.0116182 1.59596 0
M  V30 1604 C 146.47 -1.47012 1.37803 0
M  V30 1605 O 145.526 -2.23136 1.18181 0
M  V30 1606 C 146.839 0.465052 2.97082 0
M  V30 1607 C 148.387 0.419033 3.10182 0
M  V30 1608 C 148.862 0.848235 4.50077 0
M  V30 1609 N 150.353 0.803183 4.56183 0
M  V30 1610 C 151.088 1.107 5.62613 0
M  V30 1611 N 150.584 1.47996 6.76808 0
M  V30 1612 N 152.377 1.02998 5.52583 0
M  V30 1613 H 144.528 1.32775 1.65785 0
M  V30 1614 H 146.791 0.542518 0.777417 0
M  V30 1615 H 146.497 1.49892 3.18159 0
M  V30 1616 H 146.371 -0.149786 3.76902 0
M  V30 1617 H 148.758 -0.605696 2.88817 0
M  V30 1618 H 148.839 1.06933 2.32377 0
M  V30 1619 H 148.483 1.87107 4.7218 0
M  V30 1620 H 148.413 0.175218 5.26308 0
M  V30 1621 H 150.904 0.52838 3.74188 0
M  V30 1622 H 151.217 1.69613 7.53957 0
M  V30 1623 H 149.562 1.51859 6.78206 0
M  V30 1624 H 152.753 0.737817 4.62249 0
M  V30 1625 H 152.926 1.2701 6.35431 0
M  V30 1626 N 146.332 -1.57332 0.0918853 0
M  V30 1627 C 147.279 -2.13847 -0.868211 0
M  V30 1628 C 148.249 -1.05618 -1.28196 0
M  V30 1629 O 149.434 -1.33387 -1.36427 0
M  V30 1630 C 146.574 -2.72062 -2.12312 0
M  V30 1631 C 145.687 -3.94514 -1.7602 0
M  V30 1632 C 144.822 -4.40903 -2.96273 0
M  V30 1633 C 143.861 -5.55953 -2.56092 0
M  V30 1634 N 142.998 -5.97209 -3.69169 0
M  V30 1635 H 147.838 -2.95575 -0.379406 0
M  V30 1636 H 145.375 -1.46048 -0.175606 0
M  V30 1637 H 147.333 -3.03931 -2.858 0
M  V30 1638 H 145.963 -1.93068 -2.58698 0
M  V30 1639 H 145.015 -3.68979 -0.925135 0
M  V30 1640 H 146.327 -4.7802 -1.42472 0
M  V30 1641 H 145.481 -4.74539 -3.78018 0
M  V30 1642 H 144.22 -3.56291 -3.33029 0
M  V30 1643 H 143.225 -5.21948 -1.72773 0
M  V30 1644 H 144.45 -6.42311 -2.20484 0
M  V30 1645 H 142.396 -5.15543 -4.05649 0
M  V30 1646 H 142.313 -6.75504 -3.39456 0
M  V30 1647 H 143.581 -6.35475 -4.51434 0
M  V30 1648 N 147.81 0.181792 -1.56548 0
M  V30 1649 C 149.058 0.89832 -1.81038 0
M  V30 1650 C 149.379 1.83232 -0.667164 0
M  V30 1651 O 148.649 1.93372 0.313673 0
M  V30 1652 H 147.229 0.33471 -0.667816 0
M  V30 1653 H 149.891 0.184116 -1.94028 0
M  V30 1654 H 148.987 1.4815 -2.74696 0
M  V30 1655 N 149.288 1.51039 0.449983 0
M  V30 1656 C 150.516 1.66869 1.2232 0
M  V30 1657 C 150.931 0.360727 1.85322 0
M  V30 1658 O 150.288 -0.659531 1.70166 0
M  V30 1659 C 150.339 2.77524 2.31652 0
M  V30 1660 O 150.06 4.03252 1.7123 0
M  V30 1661 C 151.561 3.04512 3.2216 0
M  V30 1662 H 148.781 0.560326 0.369155 0
M  V30 1663 H 151.325 1.97385 0.534719 0
M  V30 1664 H 149.48 2.49642 2.96239 0
M  V30 1665 H 149.894 4.64609 2.43389 0
M  V30 1666 H 151.368 3.85551 3.95038 0
M  V30 1667 H 151.845 2.16415 3.8218 0
M  V30 1668 H 152.451 3.34005 2.63288 0
M  V30 1669 N 150.766 -0.704594 1.40972 0
M  V30 1670 C 151.714 -1.83994 1.42299 0
M  V30 1671 C 152.708 -1.66684 0.302111 0
M  V30 1672 O 153.914 -1.73655 0.473697 0
M  V30 1673 H 150.289 -0.606171 0.44504 0
M  V30 1674 H 152.26 -1.79992 2.38003 0
M  V30 1675 C 151.009 -3.21946 1.31323 0
M  V30 1676 H 150.332 -3.35878 2.16855 0
M  V30 1677 H 151.772 -4.01491 1.36311 0
M  V30 1678 C 150.231 -3.36891 0.0245977 0
M  V30 1679 O 150.761 -3.90687 -0.934153 0
M  V30 1680 N 148.967 -2.90559 -0.0485243 0
M  V30 1681 H 148.514 -2.46968 0.732419 0
M  V30 1682 H 148.472 -3.00937 -0.910171 0
M  V30 1683 N 152.244 -1.26651 -0.937939 0
M  V30 1684 C 153.493 -1.11775 -1.67897 0
M  V30 1685 C 153.806 0.33794 -1.92659 0
M  V30 1686 O 155.012 0.607434 -2.64618 0
M  V30 1687 C 153.468 -1.9523 -3.02346 0
M  V30 1688 C 153.076 -3.45393 -2.8532 0
M  V30 1689 C 154.82 -1.88972 -3.80118 0
M  V30 1690 C 152.727 -4.21083 -4.15263 0
M  V30 1691 H 151.657 -0.414696 -0.629717 0
M  V30 1692 H 154.308 -1.50988 -1.04283 0
M  V30 1693 H 152.69 -1.48853 -3.66959 0
M  V30 1694 H 153.864 -3.99561 -2.29537 0
M  V30 1695 H 152.179 -3.52921 -2.20988 0
M  V30 1696 H 154.776 -2.42805 -4.76392 0
M  V30 1697 H 155.119 -0.86113 -4.07296 0
M  V30 1698 H 155.652 -2.33189 -3.22285 0
M  V30 1699 H 152.391 -5.24425 -3.93267 0
M  V30 1700 H 151.911 -3.71695 -4.70747 0
M  V30 1701 H 153.59 -4.29706 -4.83696 0
M  V30 1702 N 153.722 1.14298 -1.08507 0
M  V30 1703 C 154.947 1.8976 -0.837001 0
M  V30 1704 C 155.372 1.78097 0.605228 0
M  V30 1705 O 154.73 1.12188 1.4242 0
M  V30 1706 C 154.778 3.37685 -1.26495 0
M  V30 1707 O 153.882 4.10281 -0.417514 0
M  V30 1708 H 153.223 0.590365 -0.303917 0
M  V30 1709 H 155.753 1.44672 -1.44676 0
M  V30 1710 H 155.763 3.88501 -1.24625 0
M  V30 1711 H 154.438 3.45492 -2.31534 0
M  V30 1712 H 153.015 3.69536 -0.499722 0
M  V30 1713 N 155.201 0.870884 1.31352 0
M  V30 1714 C 156.111 0.330783 2.32256 0
M  V30 1715 C 157.127 -0.559767 1.6475 0
M  V30 1716 O 158.303 -0.456263 1.96164 0
M  V30 1717 C 155.368 -0.458137 3.4366 0
M  V30 1718 C 154.429 0.460482 4.26823 0
M  V30 1719 C 153.662 -0.290881 5.32907 0
M  V30 1720 O 153.885 -1.51885 5.49806 0
M  V30 1721 O 152.819 0.351732 6.00871 0
M  V30 1722 H 156.645 1.16718 2.80376 0
M  V30 1723 H 154.23 0.634285 1.35267 0
M  V30 1724 H 156.112 -0.905343 4.1156 0
M  V30 1725 H 154.787 -1.27106 2.97701 0
M  V30 1726 H 153.694 0.956207 3.61673 0
M  V30 1727 H 155.027 1.23903 4.7635 0
M  V30 1728 N 156.679 -1.44442 0.630414 0
M  V30 1729 C 157.907 -2.06414 0.141671 0
M  V30 1730 C 158.322 -1.47105 -1.18345 0
M  V30 1731 O 157.679 -0.593662 -1.72574 0
M  V30 1732 C 157.73 -3.61494 0.0199784 0
M  V30 1733 O 157.451 -4.18594 1.29269 0
M  V30 1734 C 158.952 -4.40499 -0.497544 0
M  V30 1735 H 156.172 -0.666292 0.0793452 0
M  V30 1736 H 158.716 -1.85323 0.864614 0
M  V30 1737 H 156.871 -3.8185 -0.653402 0
M  V30 1738 H 157.285 -5.12026 1.13707 0
M  V30 1739 H 158.759 -5.49433 -0.531708 0
M  V30 1740 H 159.236 -4.11895 -1.52445 0
M  V30 1741 H 159.842 -4.25061 0.142562 0
M  V30 1742 N 158.157 -0.370918 -1.53173 0
M  V30 1743 C 159.382 0.220293 -2.06227 0
M  V30 1744 C 159.807 1.41243 -1.24225 0
M  V30 1745 O 159.165 1.79387 -0.262645 0
M  V30 1746 C 159.213 0.586663 -3.55796 0
M  V30 1747 O 158.317 1.68317 -3.76488 0
M  V30 1748 H 157.658 0.0308099 -0.663285 0
M  V30 1749 H 160.188 -0.533068 -1.97534 0
M  V30 1750 H 160.198 0.85617 -3.98916 0
M  V30 1751 H 158.873 -0.285013 -4.14922 0
M  V30 1752 H 157.45 1.40881 -3.45264 0
M  V30 1753 N 159.635 1.57281 -0.100228 0
M  V30 1754 C 160.565 2.17328 0.853857 0
M  V30 1755 C 161.546 1.10804 1.2906 0
M  V30 1756 O 162.731 1.38963 1.35657 0
M  V30 1757 C 159.861 2.75772 2.11109 0
M  V30 1758 C 158.815 3.87713 1.81279 0
M  V30 1759 C 158.141 4.32882 3.13874 0
M  V30 1760 C 159.441 5.10677 1.09574 0
M  V30 1761 H 161.135 2.97305 0.353545 0
M  V30 1762 H 158.681 1.43009 0.168612 0
M  V30 1763 H 160.634 3.16433 2.78296 0
M  V30 1764 H 159.358 1.93057 2.63432 0
M  V30 1765 H 158.017 3.476 1.16489 0
M  V30 1766 H 157.665 3.47051 3.64095 0
M  V30 1767 H 157.365 5.08358 2.94696 0
M  V30 1768 H 158.889 4.7618 3.82211 0
M  V30 1769 H 160.303 5.48474 1.66879 0
M  V30 1770 H 158.7 5.91615 1.00557 0
M  V30 1771 H 159.77 4.84835 0.0793299 0
M  V30 1772 N 161.113 -0.173488 1.56642 0
M  V30 1773 C 162.362 -0.888758 1.81063 0
M  V30 1774 C 162.675 -1.83506 0.67712 0
M  V30 1775 O 163.881 -2.59254 0.806206 0
M  V30 1776 C 162.337 -1.63091 3.20826 0
M  V30 1777 C 161.945 -0.728357 4.4204 0
M  V30 1778 C 163.689 -2.33454 3.54541 0
M  V30 1779 C 161.596 -1.47062 5.72823 0
M  V30 1780 H 160.526 -0.335618 0.675186 0
M  V30 1781 H 163.177 -0.141712 1.82952 0
M  V30 1782 H 161.559 -2.42263 3.13248 0
M  V30 1783 H 162.733 0.0262449 4.60793 0
M  V30 1784 H 161.048 -0.134492 4.16183 0
M  V30 1785 H 163.645 -2.89578 4.49498 0
M  V30 1786 H 163.988 -3.08687 2.79317 0
M  V30 1787 H 164.521 -1.61227 3.63663 0
M  V30 1788 H 161.26 -0.760658 6.51072 0
M  V30 1789 H 160.78 -2.1986 5.58052 0
M  V30 1790 H 162.459 -2.01868 6.14702 0
M  V30 1791 N 162.591 -1.51276 -0.441967 0
M  V30 1792 C 163.839 -1.63392 -1.18943 0
M  V30 1793 C 164.16 -0.350159 -1.9183 0
M  V30 1794 O 163.43 0.633784 -1.85364 0
M  V30 1795 H 162.01 -0.602164 -0.442049 0
M  V30 1796 H 164.672 -1.88186 -0.507165 0
M  V30 1797 H 163.768 -2.45934 -1.92154 0
M  V30 1798 N 164.069 0.697108 -1.41344 0
M  V30 1799 C 165.297 1.48593 -1.43972 0
M  V30 1800 C 165.712 1.88747 -0.0445612 0
M  V30 1801 O 165.069 1.56682 0.935785 0
M  V30 1802 C 165.12 2.74946 -2.34706 0
M  V30 1803 O 164.841 2.36484 -3.68791 0
M  V30 1804 C 166.342 3.687 -2.46121 0
M  V30 1805 H 163.562 0.457964 -0.490418 0
M  V30 1806 H 166.106 0.858429 -1.8561 0
M  V30 1807 H 164.261 3.33937 -1.9638 0
M  V30 1808 H 164.675 3.17918 -4.17167 0
M  V30 1809 H 166.149 4.54145 -3.13777 0
M  V30 1810 H 166.626 4.13081 -1.49199 0
M  V30 1811 H 167.232 3.15613 -2.85076 0
M  V30 1812 N 165.547 1.27147 0.931209 0
M  V30 1813 C 166.51 1.09615 2.01289 0
M  V30 1814 C 167.51 0.0412581 1.60747 0
M  V30 1815 O 168.7 0.285545 1.71844 0
M  V30 1816 C 165.832 0.669447 3.34262 0
M  V30 1817 H 167.025 2.05662 2.18273 0
M  V30 1818 H 164.578 1.09885 1.11153 0
M  V30 1819 H 165.313 -0.292572 3.22978 0
M  V30 1820 H 165.098 1.43127 3.65044 0
M  V30 1821 H 166.588 0.568921 4.13706 0
M  V30 1822 N 167.025 -1.13721 1.09112 0
M  V30 1823 C 167.988 -2.17222 0.731241 0
M  V30 1824 C 168.988 -1.59035 -0.237566 0
M  V30 1825 O 170.178 -1.74192 -0.0161704 0
M  V30 1826 C 167.31 -3.40804 0.0808443 0
M  V30 1827 H 168.503 -2.50573 1.64783 0
M  V30 1828 H 166.056 -1.28493 0.889897 0
M  V30 1829 H 166.791 -3.1304 -0.847127 0
M  V30 1830 H 166.576 -3.84306 0.777896 0
M  V30 1831 H 168.066 -4.1731 -0.155657 0
M  V30 1832 N 168.503 -0.877838 -1.30888 0
M  V30 1833 C 169.743 -0.499301 -1.98208 0
M  V30 1834 C 170.107 0.932649 -1.67826 0
M  V30 1835 O 171.308 1.41694 -2.28421 0
M  V30 1836 C 169.579 -0.758221 -3.49265 0
M  V30 1837 S 171.138 -0.480719 -4.36159 0
M  V30 1838 H 167.956 -0.186062 -0.686223 0
M  V30 1839 H 170.558 -1.13556 -1.59139 0
M  V30 1840 H 169.262 -1.79903 -3.68867 0
M  V30 1841 H 168.793 -0.109247 -3.93248 0
M  V30 1842 H 170.808 0.683698 -4.91467 0
M  V30 1843 N 169.982 1.44106 -0.638065 0
M  V30 1844 C 171.21 2.06336 -0.152615 0
M  V30 1845 C 171.625 1.47731 1.17563 0
M  V30 1846 O 170.982 0.602806 1.72257 0
M  V30 1847 C 171.033 3.61479 -0.0391491 0
M  V30 1848 O 170.754 4.17903 -1.31487 0
M  V30 1849 C 172.255 4.40757 0.474176 0
M  V30 1850 H 169.475 0.665862 -0.0828776 0
M  V30 1851 H 172.019 1.84862 -0.87443 0
M  V30 1852 H 170.174 3.82191 0.633142 0
M  V30 1853 H 170.588 5.11416 -1.16421 0
M  V30 1854 H 172.062 5.49707 0.502562 0
M  V30 1855 H 172.539 4.12697 1.50258 0
M  V30 1856 H 173.145 4.24979 -0.165102 0
M  V30 1857 N 171.46 0.379036 1.52974 0
M  V30 1858 C 172.685 -0.209353 2.06341 0
M  V30 1859 C 173.11 -1.40583 1.24972 0
M  V30 1860 O 172.468 -1.79246 0.272155 0
M  V30 1861 C 172.516 -0.567786 3.56102 0
M  V30 1862 O 171.62 -1.66318 3.77375 0
M  V30 1863 H 170.961 -0.0272919 0.663439 0
M  V30 1864 H 173.491 0.543536 1.97248 0
M  V30 1865 H 173.501 -0.835003 3.99364 0
M  V30 1866 H 172.176 0.307013 4.14765 0
M  V30 1867 H 170.753 -1.39048 3.46006 0
M  V30 1868 N 172.938 -1.57226 0.108567 0
M  V30 1869 C 174.166 -1.99179 -0.559954 0
M  V30 1870 C 174.581 -0.988022 -1.60884 0
M  V30 1871 O 173.938 0.0205512 -1.82488 0
M  V30 1872 C 173.989 -3.41159 -1.19552 0
M  V30 1873 O 173.71 -4.37694 -0.188577 0
M  V30 1874 C 175.211 -3.98188 -1.94837 0
M  V30 1875 H 172.431 -0.654228 -0.149088 0
M  V30 1876 H 174.975 -2.03598 0.19183 0
M  V30 1877 H 173.13 -3.37711 -1.89815 0
M  V30 1878 H 173.544 -5.20469 -0.649014 0
M  V30 1879 H 175.018 -4.99644 -2.34648 0
M  V30 1880 H 175.495 -3.3675 -2.81951 0
M  V30 1881 H 176.101 -4.0515 -1.2936 0
M  V30 1882 N 174.416 0.165178 -1.56732 0
M  V30 1883 C 175.641 0.900253 -1.86843 0
M  V30 1884 C 176.066 1.74766 -0.695596 0
M  V30 1885 O 175.424 1.77786 0.35522 0
M  V30 1886 C 175.472 1.74777 -3.15413 0
M  V30 1887 O 174.576 2.85007 -2.98068 0
M  V30 1888 H 173.917 0.251832 -0.614391 0
M  V30 1889 H 176.447 0.161468 -2.03962 0
M  V30 1890 H 176.457 2.14646 -3.46974 0
M  V30 1891 H 175.132 1.12537 -4.00385 0
M  V30 1892 H 173.709 2.48676 -2.77875 0
M  V30 1893 N 175.894 1.51508 0.433938 0
M  V30 1894 C 177.119 1.68443 1.21003 0
M  V30 1895 C 177.544 0.382636 1.84167 0
M  V30 1896 O 176.902 -0.65755 1.68956 0
M  V30 1897 C 176.95 2.80405 2.26727 0
M  V30 1898 O 176.054 2.44245 3.32292 0
M  V30 1899 H 175.395 0.561536 0.354363 0
M  V30 1900 H 177.925 1.9809 0.512024 0
M  V30 1901 H 177.935 3.0459 2.71457 0
M  V30 1902 H 176.61 3.74867 1.80132 0
M  V30 1903 H 175.187 2.30644 2.93015 0
M  V30 1904 N 177.372 -0.689602 1.41712 0
M  V30 1905 C 178.304 -1.815 1.39966 0
M  V30 1906 C 179.317 -1.59995 0.300917 0
M  V30 1907 O 180.506 -1.69387 0.563039 0
M  V30 1908 C 177.606 -3.18364 1.16179 0
M  V30 1909 C 176.779 -3.66847 2.38206 0
M  V30 1910 C 175.838 -4.82398 2.10186 0
M  V30 1911 O 174.864 -4.93706 2.83272 0
M  V30 1912 N 176.066 -5.70064 1.0958 0
M  V30 1913 H 178.831 -1.83488 2.36965 0
M  V30 1914 H 176.392 -0.872149 1.36401 0
M  V30 1915 H 178.384 -3.93301 0.953756 0
M  V30 1916 H 176.954 -3.11365 0.27756 0
M  V30 1917 H 176.174 -2.82751 2.74673 0
M  V30 1918 H 177.462 -3.95978 3.19498 0
M  V30 1919 H 176.86 -5.63565 0.491019 0
M  V30 1920 H 175.417 -6.44874 0.947656 0
M  V30 1921 N 178.85 -1.27639 -0.924453 0
M  V30 1922 C 179.798 -1.10485 -2.04685 0
M  V30 1923 C 180.792 -0.0270421 -1.69378 0
M  V30 1924 O 181.998 -0.185008 -1.79047 0
M  V30 1925 H 178.373 -0.340546 -0.670472 0
M  V30 1926 H 180.344 -2.05566 -2.16298 0
M  V30 1927 C 179.093 -0.772229 -3.39016 0
M  V30 1928 H 178.416 -1.59351 -3.66671 0
M  V30 1929 H 179.856 -0.692097 -4.18313 0
M  V30 1930 C 178.315 0.523554 -3.32807 0
M  V30 1931 O 178.845 1.55702 -3.70297 0
M  V30 1932 N 177.051 0.520363 -2.85903 0
M  V30 1933 H 176.598 -0.32107 -2.55591 0
M  V30 1934 H 176.556 1.38742 -2.82131 0
M  V30 1935 N 180.328 1.1314 -1.09713 0
M  V30 1936 C 181.605 1.80762 -0.747302 0
M  V30 1937 C 181.985 1.96663 0.767265 0
M  V30 1938 O 181.333 1.53706 1.69076 0
M  V30 1939 C 181.543 3.15606 -1.48975 0
M  V30 1940 C 182.891 3.90914 -1.65746 0
M  V30 1941 O 183.915 3.25239 -1.45251 0
M  V30 1942 O 182.774 5.08718 -1.9967 0
M  V30 1943 H 179.868 0.782103 -0.268782 0
M  V30 1944 H 182.414 1.20041 -1.19951 0
M  V30 1945 H 181.186 2.99278 -2.52088 0
M  V30 1946 H 180.809 3.84029 -1.02991 0
M  V30 1947 N 181.806 0.884767 1.30421 0
M  V30 1948 C 183.217 0.553656 1.78302 0
M  V30 1949 C 183.568 -0.930153 1.7275 0
M  V30 1950 O 182.693 -1.72681 1.30423 0
M  V30 1951 C 183.288 0.998234 3.2376 0
M  V30 1952 C 181.847 0.71854 3.69478 0
M  V30 1953 C 180.994 1.18132 2.50879 0
M  V30 1954 H 183.945 1.06901 1.17294 0
M  V30 1955 H 183.966 0.327118 3.79091 0
M  V30 1956 H 183.478 2.0782 3.27769 0
M  V30 1957 H 181.579 -0.349444 3.70958 0
M  V30 1958 H 181.692 1.30595 4.60958 0
M  V30 1959 H 180.056 0.600669 2.47516 0
M  V30 1960 H 180.839 2.26902 2.57624 0
M  V30 1961 N 183.284 -1.43765 0.645699 0
M  V30 1962 C 184.194 -2.34544 -0.0512957 0
M  V30 1963 C 185.21 -1.53455 -0.82022 0
M  V30 1964 O 186.386 -1.86133 -0.769176 0
M  V30 1965 C 183.451 -3.31636 -1.01087 0
M  V30 1966 C 182.512 -4.2863 -0.239712 0
M  V30 1967 C 181.745 -5.21084 -1.15358 0
M  V30 1968 O 181.968 -5.1779 -2.39269 0
M  V30 1969 O 180.902 -5.98593 -0.630038 0
M  V30 1970 H 184.728 -2.95624 0.695718 0
M  V30 1971 H 182.313 -1.43781 0.405882 0
M  V30 1972 H 184.195 -3.9136 -1.56254 0
M  V30 1973 H 182.87 -2.73069 -1.73824 0
M  V30 1974 H 181.777 -3.72408 0.355356 0
M  V30 1975 H 183.11 -4.90157 0.447936 0
M  V30 1976 N 184.763 -0.387143 -1.52771 0
M  V30 1977 C 186.009 0.196025 -2.0185 0
M  V30 1978 C 186.342 1.46641 -1.27319 0
M  V30 1979 O 185.617 1.90889 -0.373032 0
M  V30 1980 C 185.9 0.466136 -3.5707 0
M  V30 1981 C 185.753 -0.819385 -4.42274 0
M  V30 1982 C 187.072 1.25768 -4.21747 0
M  V30 1983 H 184.191 0.0697708 -0.73369 0
M  V30 1984 H 186.833 -0.516286 -1.82851 0
M  V30 1985 H 184.983 1.07293 -3.7339 0
M  V30 1986 H 186.655 -1.4563 -4.37709 0
M  V30 1987 H 184.898 -1.43517 -4.09372 0
M  V30 1988 H 185.569 -0.585065 -5.48891 0
M  V30 1989 H 188.045 0.744167 -4.09391 0
M  V30 1990 H 186.921 1.41541 -5.30337 0
M  V30 1991 H 187.182 2.27228 -3.79236 0
M  V30 1992 N 186.241 1.57166 -0.116904 0
M  V30 1993 C 187.49 1.94298 0.541407 0
M  V30 1994 C 187.803 1.00236 1.67964 0
M  V30 1995 O 189.009 1.26826 2.40057 0
M  V30 1996 C 187.465 3.45306 1.01449 0
M  V30 1997 C 187.073 4.47899 -0.0951738 0
M  V30 1998 C 188.817 3.91361 1.6443 0
M  V30 1999 C 186.724 5.90083 0.394491 0
M  V30 2000 H 185.654 0.725308 0.206019 0
M  V30 2001 H 188.305 1.82446 -0.196419 0
M  V30 2002 H 186.687 3.52385 1.80667 0
M  V30 2003 H 187.861 4.52486 -0.871374 0
M  V30 2004 H 186.176 4.11583 -0.631505 0
M  V30 2005 H 188.773 4.95004 2.02176 0
M  V30 2006 H 189.116 3.3122 2.52189 0
M  V30 2007 H 189.649 3.87073 0.917559 0
M  V30 2008 H 186.388 6.53974 -0.447004 0
M  V30 2009 H 185.908 5.88921 1.13722 0
M  V30 2010 H 187.587 6.41307 0.856399 0
M  V30 2011 N 187.719 -0.156864 1.56817 0
M  V30 2012 C 188.968 -0.869504 1.81996 0
M  V30 2013 C 189.281 -1.82777 0.696545 0
M  V30 2014 O 190.487 -2.58384 0.833658 0
M  V30 2015 C 188.943 -1.59679 3.22538 0
M  V30 2016 C 188.551 -0.681431 4.42787 0
M  V30 2017 C 190.295 -2.2968 3.56997 0
M  V30 2018 C 188.202 -1.40978 5.74351 0
M  V30 2019 H 187.132 -0.328438 0.678708 0
M  V30 2020 H 189.783 -0.1223 1.83092 0
M  V30 2021 H 188.165 -2.38927 3.158 0
M  V30 2022 H 189.339 0.0751166 4.60739 0
M  V30 2023 H 187.654 -0.0903431 4.16302 0
M  V30 2024 H 190.251 -2.84794 4.52544 0
M  V30 2025 H 190.594 -3.05707 2.82576 0
M  V30 2026 H 191.127 -1.57361 3.65352 0
M  V30 2027 H 187.866 -0.691561 6.51842 0
M  V30 2028 H 187.386 -2.13929 5.60352 0
M  V30 2029 H 189.065 -1.95337 6.16808 0
M  V30 2030 N 189.197 -1.51736 -0.425897 0
M  V30 2031 C 190.443 -1.65214 -1.1761 0
M  V30 2032 C 190.776 -0.372778 -1.90589 0
M  V30 2033 O 190.051 0.628139 -1.84078 0
M  V30 2034 C 190.334 -2.86312 -2.18398 0
M  V30 2035 C 190.187 -4.24254 -1.49426 0
M  V30 2036 C 191.506 -3.02925 -3.19256 0
M  V30 2037 H 188.625 -0.601263 -0.426206 0
M  V30 2038 H 191.267 -1.8425 -0.463882 0
M  V30 2039 H 189.417 -2.70213 -2.79137 0
M  V30 2040 H 191.089 -4.52046 -0.919362 0
M  V30 2041 H 189.332 -4.26426 -0.796432 0
M  V30 2042 H 190.003 -5.05001 -2.22885 0
M  V30 2043 H 192.479 -3.1781 -2.68581 0
M  V30 2044 H 191.355 -3.89199 -3.8706 0
M  V30 2045 H 191.616 -2.15497 -3.86023 0
M  V30 2046 N 190.675 0.682077 -1.42076 0
M  V30 2047 C 191.923 1.4393 -1.41876 0
M  V30 2048 C 192.244 1.94971 -0.0335599 0
M  V30 2049 O 191.514 1.72591 0.926773 0
M  V30 2050 H 190.094 0.534085 -0.522267 0
M  V30 2051 H 192.756 0.806427 -1.77434 0
M  V30 2052 H 191.852 2.29588 -2.11414 0
M  V30 2053 N 192.153 1.28127 0.917671 0
M  V30 2054 C 193.116 1.11744 2.00115 0
M  V30 2055 C 194.116 0.0583052 1.60694 0
M  V30 2056 O 195.306 0.303755 1.71531 0
M  V30 2057 C 192.438 0.704862 3.33533 0
M  V30 2058 H 193.631 2.07966 2.16079 0
M  V30 2059 H 191.184 1.11058 1.09981 0
M  V30 2060 H 191.919 -0.258299 3.2327 0
M  V30 2061 H 191.704 1.4699 3.63505 0
M  V30 2062 H 193.194 0.612768 4.1308 0
M  V30 2063 N 193.631 -1.12557 1.10312 0
M  V30 2064 C 194.879 -1.83675 0.843091 0
M  V30 2065 C 195.2 -1.84435 -0.633131 0
M  V30 2066 O 194.47 -1.30657 -1.45964 0
M  V30 2067 H 193.05 -0.680138 0.308904 0
M  V30 2068 H 195.712 -1.36301 1.39313 0
M  V30 2069 H 194.808 -2.87908 1.2048 0
M  V30 2070 N 195.109 -0.891671 -1.2995 0
M  V30 2071 C 196.355 -0.514261 -1.96171 0
M  V30 2072 C 196.688 0.935506 -1.70182 0
M  V30 2073 O 195.963 1.66204 -1.01028 0
M  V30 2074 C 196.246 -0.797719 -3.51153 0
M  V30 2075 C 196.099 -2.2986 -3.86632 0
M  V30 2076 C 197.418 -0.278749 -4.39216 0
M  V30 2077 H 194.537 -0.188314 -0.712535 0
M  V30 2078 H 197.179 -1.11689 -1.53706 0
M  V30 2079 H 195.329 -0.284826 -3.87455 0
M  V30 2080 H 197.001 -2.88042 -3.60319 0
M  V30 2081 H 195.244 -2.76257 -3.34462 0
M  V30 2082 H 195.915 -2.44753 -4.94773 0
M  V30 2083 H 198.391 -0.717825 -4.09862 0
M  V30 2084 H 197.267 -0.506353 -5.46559 0
M  V30 2085 H 197.528 0.820266 -4.34424 0
M  V30 2086 N 196.587 1.43421 -0.653314 0
M  V30 2087 C 197.517 2.33487 0.0246656 0
M  V30 2088 C 198.498 1.49475 0.811863 0
M  V30 2089 O 199.683 1.78139 0.773322 0
M  V30 2090 C 196.813 3.32841 0.99166 0
M  V30 2091 C 195.767 4.26842 0.314568 0
M  V30 2092 C 195.093 5.16236 1.39302 0
M  V30 2093 C 196.393 5.16243 -0.793095 0
M  V30 2094 H 198.087 2.90427 -0.727481 0
M  V30 2095 H 195.633 1.39649 -0.351287 0
M  V30 2096 H 197.586 3.94747 1.47487 0
M  V30 2097 H 196.31 2.74158 1.77497 0
M  V30 2098 H 194.969 3.663 -0.148199 0
M  V30 2099 H 194.617 4.53891 2.16776 0
M  V30 2100 H 194.317 5.79948 0.945223 0
M  V30 2101 H 195.841 5.81015 1.87759 0
M  V30 2102 H 197.255 5.71958 -0.392039 0
M  V30 2103 H 195.652 5.88676 -1.16536 0
M  V30 2104 H 196.722 4.55927 -1.65103 0
M  V30 2105 N 198.065 0.39524 1.52563 0
M  V30 2106 C 199.313 -0.184678 2.01254 0
M  V30 2107 C 199.634 -1.46822 1.28329 0
M  V30 2108 O 198.904 -1.91666 0.405094 0
M  V30 2109 H 197.484 -0.0712355 0.743596 0
M  V30 2110 H 200.146 0.528293 1.87603 0
M  V30 2111 H 199.242 -0.390681 3.09645 0
M  V30 2112 N 199.544 -1.57102 0.125237 0
M  V30 2113 C 200.769 -2.0019 -0.542101 0
M  V30 2114 C 201.194 -1.00449 -1.59034 0
M  V30 2115 O 200.552 0.0229423 -1.81285 0
M  V30 2116 C 200.6 -3.42129 -1.13929 0
M  V30 2117 O 199.704 -3.45307 -2.2547 0
M  V30 2118 H 199.045 -0.650171 -0.134812 0
M  V30 2119 H 201.575 -2.03461 0.215553 0
M  V30 2120 H 201.585 -3.80471 -1.4733 0
M  V30 2121 H 200.26 -4.14237 -0.371531 0
M  V30 2122 H 198.837 -3.1879 -1.93462 0
M  V30 2123 N 201.022 0.148545 -1.56898 0
M  V30 2124 C 201.985 1.16736 -1.97244 0
M  V30 2125 C 202.985 1.35947 -0.858777 0
M  V30 2126 O 204.175 1.32966 -1.12542 0
M  V30 2127 C 201.307 2.52798 -2.28705 0
M  V30 2128 H 202.5 0.821279 -2.88435 0
M  V30 2129 H 200.053 0.391831 -1.51309 0
M  V30 2130 H 200.788 2.92381 -1.403 0
M  V30 2131 H 200.573 2.40216 -3.09901 0
M  V30 2132 H 202.063 3.26179 -2.60762 0
M  V30 2133 N 202.5 1.5196 0.417844 0
M  V30 2134 C 203.43 1.77634 1.51554 0
M  V30 2135 C 204.411 0.626918 1.58126 0
M  V30 2136 O 205.596 0.871632 1.7354 0
M  V30 2137 C 202.726 1.91911 2.8946 0
M  V30 2138 C 201.68 3.07463 2.97743 0
M  V30 2139 C 201.006 3.06951 4.37819 0
M  V30 2140 C 202.306 4.47082 2.70027 0
M  V30 2141 H 204 2.6955 1.3032 0
M  V30 2142 H 201.546 1.29706 0.625492 0
M  V30 2143 H 203.499 2.08455 3.6623 0
M  V30 2144 H 202.223 0.966598 3.11969 0
M  V30 2145 H 200.882 2.90656 2.23416 0
M  V30 2146 H 200.53 2.09438 4.57323 0
M  V30 2147 H 200.23 3.84556 4.44286 0
M  V30 2148 H 201.754 3.25613 5.16535 0
M  V30 2149 H 203.168 4.6414 3.36522 0
M  V30 2150 H 201.565 5.2654 2.87881 0
M  V30 2151 H 202.635 4.55777 1.65514 0
M  V30 2152 N 203.978 -0.674533 1.42435 0
M  V30 2153 C 204.941 -1.76986 1.45632 0
M  V30 2154 C 205.941 -1.5708 0.343871 0
M  V30 2155 O 207.131 -1.63367 0.604709 0
M  V30 2156 C 204.263 -3.15623 1.28822 0
M  V30 2157 H 205.456 -1.75539 2.43158 0
M  V30 2158 H 203.009 -0.884189 1.28887 0
M  V30 2159 H 203.744 -3.22696 0.322193 0
M  V30 2160 H 203.529 -3.31475 2.09444 0
M  V30 2161 H 205.019 -3.95537 1.33942 0
M  V30 2162 N 205.456 -1.28612 -0.910864 0
M  V30 2163 C 206.419 -1.12803 -1.9952 0
M  V30 2164 C 207.419 -0.0668264 -1.60661 0
M  V30 2165 O 208.609 -0.312847 -1.71368 0
M  V30 2166 C 205.741 -0.72254 -3.33155 0
M  V30 2167 H 206.934 -2.09109 -2.14973 0
M  V30 2168 H 204.487 -1.11639 -1.09391 0
M  V30 2169 H 205.222 0.241152 -3.23402 0
M  V30 2170 H 205.007 -1.48916 -3.62721 0
M  V30 2171 H 206.497 -0.634666 -4.12749 0
M  V30 2172 N 206.934 1.1197 -1.10907 0
M  V30 2173 C 208.18 1.8386 -0.855773 0
M  V30 2174 C 208.513 1.84134 0.617103 0
M  V30 2175 O 207.788 1.29041 1.45529 0
M  V30 2176 C 208.071 3.31305 -1.411 0
M  V30 2177 C 207.924 3.39456 -2.9511 0
M  V30 2178 C 209.243 4.2721 -1.05736 0
M  V30 2179 H 206.362 0.667545 -0.312334 0
M  V30 2180 H 209.004 1.31331 -1.37303 0
M  V30 2181 H 207.154 3.76169 -0.97105 0
M  V30 2182 H 208.826 3.03191 -3.47668 0
M  V30 2183 H 207.069 2.79849 -3.31462 0
M  V30 2184 H 207.74 4.43209 -3.29044 0
M  V30 2185 H 210.216 3.90497 -1.43706 0
M  V30 2186 H 209.092 5.28775 -1.47269 0
M  V30 2187 H 209.353 4.42088 0.0325958 0
M  V30 2188 N 208.412 0.89855 1.29475 0
M  V30 2189 C 209.342 0.39201 2.30186 0
M  V30 2190 C 210.323 -0.532359 1.61555 0
M  V30 2191 O 211.508 -0.443331 1.89072 0
M  V30 2192 C 208.638 -0.382353 3.45189 0
M  V30 2193 C 207.592 0.451483 4.25612 0
M  V30 2194 C 206.918 -0.450307 5.328 0
M  V30 2195 C 208.218 1.70079 4.93832 0
M  V30 2196 H 209.912 1.23362 2.72804 0
M  V30 2197 H 207.458 0.594638 1.31149 0
M  V30 2198 H 209.411 -0.747451 4.14718 0
M  V30 2199 H 208.135 -1.25774 3.01411 0
M  V30 2200 H 206.794 0.798897 3.57789 0
M  V30 2201 H 206.442 -1.32379 4.85268 0
M  V30 2202 H 206.142 0.103902 5.87508 0
M  V30 2203 H 207.666 -0.811623 6.05182 0
M  V30 2204 H 209.08 1.40549 5.55805 0
M  V30 2205 H 207.477 2.19623 5.58467 0
M  V30 2206 H 208.547 2.43744 4.19186 0
M  V30 2207 N 209.89 -1.43072 0.660911 0
M  V30 2208 C 211.115 -2.06584 0.183805 0
M  V30 2209 C 211.54 -1.49257 -1.14472 0
M  V30 2210 O 210.898 -0.605528 -1.70889 0
M  V30 2211 C 210.946 -3.60418 0.114434 0
M  V30 2212 O 210.05 -4.01981 -0.921137 0
M  V30 2213 H 209.391 -0.656669 0.0983994 0
M  V30 2214 H 211.921 -1.83447 0.906006 0
M  V30 2215 H 211.931 -4.07946 -0.0663394 0
M  V30 2216 H 210.606 -4.01519 1.08422 0
M  V30 2217 H 209.183 -3.66029 -0.71253 0
M  V30 2218 N 211.368 -0.403325 -1.52352 0
M  V30 2219 C 212.784 -0.0539281 -1.59509 0
M  V30 2220 C 212.984 1.43307 -1.41652 0
M  V30 2221 O 212.04 2.19924 -1.24056 0
M  V30 2222 C 213.353 -0.543654 -2.95745 0
M  V30 2223 C 214.901 -0.501125 -3.08962 0
M  V30 2224 C 215.376 -0.967267 -4.47669 0
M  V30 2225 N 216.867 -0.923849 -4.53893 0
M  V30 2226 C 217.602 -1.25578 -5.5948 0
M  V30 2227 N 217.098 -1.65889 -6.72646 0
M  V30 2228 N 218.891 -1.17613 -5.49658 0
M  V30 2229 H 211.042 -1.37123 -1.62206 0
M  V30 2230 H 213.305 -0.56294 -0.76276 0
M  V30 2231 H 213.011 -1.58275 -3.14073 0
M  V30 2232 H 212.885 0.0498042 -3.77167 0
M  V30 2233 H 215.272 0.528909 -2.90321 0
M  V30 2234 H 215.353 -1.13056 -2.2946 0
M  V30 2235 H 214.997 -1.9956 -4.67053 0
M  V30 2236 H 214.927 -0.314698 -5.25659 0
M  V30 2237 H 217.418 -0.627403 -3.72655 0
M  V30 2238 H 217.731 -1.89543 -7.49195 0
M  V30 2239 H 216.076 -1.69787 -6.73942 0
M  V30 2240 H 219.267 -0.860115 -4.6013 0
M  V30 2241 H 219.44 -1.43812 -6.3184 0
M  V30 2242 N 212.846 1.57033 -0.133567 0
M  V30 2243 C 214.123 1.87256 0.56522 0
M  V30 2244 C 214.503 1.03726 1.83859 0
M  V30 2245 O 213.851 0.120247 2.28183 0
M  V30 2246 C 214.061 3.3865 0.843636 0
M  V30 2247 C 215.409 4.07574 1.19032 0
M  V30 2248 O 216.433 3.43752 0.933429 0
M  V30 2249 O 215.292 5.20259 1.67312 0
M  V30 2250 H 212.386 0.775678 0.286796 0
M  V30 2251 H 214.932 1.68855 -0.169168 0
M  V30 2252 H 213.704 3.91257 -0.0581149 0
M  V30 2253 H 213.327 3.62532 1.63268 0
M  V30 2254 N 214.325 -0.140222 1.56975 0
M  V30 2255 C 215.573 -0.850005 1.83356 0
M  V30 2256 C 215.894 -1.81399 0.71551 0
M  V30 2257 O 215.164 -1.94136 -0.262294 0
M  V30 2258 H 213.744 -0.316886 0.676456 0
M  V30 2259 H 216.406 -0.132608 1.94448 0
M  V30 2260 H 215.502 -1.40814 2.78528 0
M  V30 2261 N 215.803 -1.52179 -0.40978 0
M  V30 2262 C 217.219 -1.40968 -0.74835 0
M  V30 2263 C 217.419 -0.513657 -1.94843 0
M  V30 2264 O 216.475 0.0208026 -2.52491 0
M  V30 2265 C 217.788 -2.83483 -1.0029 0
M  V30 2266 C 219.336 -2.92821 -1.10565 0
M  V30 2267 C 219.811 -4.36303 -1.39296 0
M  V30 2268 N 221.302 -4.39535 -1.46162 0
M  V30 2269 C 222.037 -5.47614 -1.70018 0
M  V30 2270 N 221.533 -6.65812 -1.91483 0
M  V30 2271 N 223.326 -5.35129 -1.72027 0
M  V30 2272 H 215.477 -2.0897 0.380186 0
M  V30 2273 H 217.74 -0.94185 0.107805 0
M  V30 2274 H 217.446 -3.51168 -0.193461 0
M  V30 2275 H 217.32 -3.24487 -1.92323 0
M  V30 2276 H 219.707 -2.25318 -1.90568 0
M  V30 2277 H 219.788 -2.55276 -0.16369 0
M  V30 2278 H 219.432 -5.04366 -0.598109 0
M  V30 2279 H 219.362 -4.71385 -2.34743 0
M  V30 2280 H 221.853 -3.54332 -1.31367 0
M  V30 2281 H 222.166 -7.43964 -2.09134 0
M  V30 2282 H 220.511 -6.68879 -1.88749 0
M  V30 2283 H 223.702 -4.41764 -1.54796 0
M  V30 2284 H 223.875 -6.19433 -1.9028 0
M  V30 2285 N 217.281 0.66697 -1.42791 0
M  V30 2286 C 218.228 1.7803 -1.4688 0
M  V30 2287 C 219.198 1.6299 -0.319919 0
M  V30 2288 O 220.383 1.83432 -0.525118 0
M  V30 2289 C 217.523 3.1611 -1.38451 0
M  V30 2290 C 216.636 3.42381 -2.63437 0
M  V30 2291 C 215.771 4.70232 -2.47094 0
M  V30 2292 C 214.81 4.89564 -3.67415 0
M  V30 2293 N 213.947 6.08661 -3.49966 0
M  V30 2294 H 218.787 1.7387 -2.42019 0
M  V30 2295 H 216.324 0.84868 -1.20149 0
M  V30 2296 H 218.282 3.95914 -1.31561 0
M  V30 2297 H 216.912 3.19374 -0.469033 0
M  V30 2298 H 215.964 2.56774 -2.80662 0
M  V30 2299 H 217.276 3.52557 -3.52853 0
M  V30 2300 H 216.43 5.5814 -2.37834 0
M  V30 2301 H 215.169 4.62353 -1.5518 0
M  V30 2302 H 214.174 4.00096 -3.77099 0
M  V30 2303 H 215.399 4.99282 -4.6032 0
M  V30 2304 H 213.345 6.0194 -2.60776 0
M  V30 2305 H 213.262 6.19733 -4.32975 0
M  V30 2306 H 214.53 6.99226 -3.44532 0
M  V30 2307 N 218.759 1.29093 0.90403 0
M  V30 2308 C 220.005 1.16986 1.65656 0
M  V30 2309 C 220.338 -0.278925 1.92186 0
M  V30 2310 O 219.613 -1.2019 1.5292 0
M  V30 2311 C 219.896 1.97908 3.0084 0
M  V30 2312 C 219.749 3.50903 2.81403 0
M  V30 2313 C 221.068 1.80208 4.01513 0
M  V30 2314 H 218.187 0.426346 0.601164 0
M  V30 2315 H 220.829 1.58518 1.04747 0
M  V30 2316 H 218.979 1.62616 3.52829 0
M  V30 2317 H 220.651 3.96153 2.36348 0
M  V30 2318 H 218.894 3.76045 2.1627 0
M  V30 2319 H 219.565 4.02791 3.77443 0
M  V30 2320 H 222.041 2.11025 3.58619 0
M  V30 2321 H 220.917 2.39184 4.94047 0
M  V30 2322 H 221.178 0.756119 4.35586 0
M  V30 2323 N 220.237 -1.11381 1.11499 0
M  V30 2324 C 221.465 -1.86934 0.88675 0
M  V30 2325 C 221.88 -1.80195 -0.563476 0
M  V30 2326 O 221.237 -1.18367 -1.38908 0
M  V30 2327 C 221.288 -3.35722 1.34064 0
M  V30 2328 O 221.009 -3.4232 2.73401 0
M  V30 2329 C 222.51 -4.2818 1.14791 0
M  V30 2330 H 219.73 -0.591117 0.317523 0
M  V30 2331 H 222.274 -1.40865 1.48248 0
M  V30 2332 H 220.429 -3.79294 0.788355 0
M  V30 2333 H 220.843 -4.34971 2.93087 0
M  V30 2334 H 222.317 -5.30817 1.5145 0
M  V30 2335 H 222.794 -4.39113 0.0875279 0
M  V30 2336 H 223.4 -3.90402 1.68721 0
M  V30 2337 N 221.715 -0.905404 -1.28997 0
M  V30 2338 C 222.961 -0.535039 -1.95615 0
M  V30 2339 C 223.294 0.917404 -1.71165 0
M  V30 2340 O 222.569 1.65123 -1.02785 0
M  V30 2341 C 222.852 -0.834918 -3.50287 0
M  V30 2342 C 222.705 -2.33948 -3.84172 0
M  V30 2343 C 224.024 -0.325318 -4.38896 0
M  V30 2344 H 221.143 -0.195861 -0.710498 0
M  V30 2345 H 223.785 -1.13313 -1.52513 0
M  V30 2346 H 221.935 -0.325904 -3.87131 0
M  V30 2347 H 223.607 -2.91847 -3.57243 0
M  V30 2348 H 221.85 -2.79789 -3.31513 0
M  V30 2349 H 222.521 -2.49987 -4.92149 0
M  V30 2350 H 224.997 -0.761256 -4.09077 0
M  V30 2351 H 223.873 -0.564295 -5.45992 0
M  V30 2352 H 224.134 0.774144 -4.35269 0
M  V30 2353 N 223.193 1.4272 -0.668489 0
M  V30 2354 C 224.442 2.00846 -0.185389 0
M  V30 2355 C 224.755 1.53442 1.21305 0
M  V30 2356 O 225.961 2.03944 1.79218 0
M  V30 2357 C 224.417 3.58805 -0.280591 0
M  V30 2358 C 224.025 4.15198 -1.68268 0
M  V30 2359 C 225.769 4.24255 0.14412 0
M  V30 2360 C 223.676 5.655 -1.73099 0
M  V30 2361 H 222.606 0.751145 -0.0655475 0
M  V30 2362 H 225.257 1.63516 -0.832752 0
M  V30 2363 H 223.639 3.93608 0.434553 0
M  V30 2364 H 224.813 3.91866 -2.42441 0
M  V30 2365 H 223.128 3.62176 -2.05469 0
M  V30 2366 H 225.725 5.34547 0.128086 0
M  V30 2367 H 226.068 3.99277 1.17827 0
M  V30 2368 H 226.601 3.94389 -0.519798 0
M  V30 2369 H 223.34 5.95268 -2.74475 0
M  V30 2370 H 222.86 5.90842 -1.03274 0
M  V30 2371 H 224.539 6.29808 -1.48158 0
M  V30 2372 N 224.671 0.411399 1.52136 0
M  V30 2373 C 225.581 -0.419774 2.30814 0
M  V30 2374 C 226.597 -1.0515 1.38634 0
M  V30 2375 O 227.773 -1.05252 1.71709 0
M  V30 2376 C 224.838 -1.52019 3.11594 0
M  V30 2377 C 223.899 -0.91129 4.19516 0
M  V30 2378 C 223.132 -1.95927 4.96436 0
M  V30 2379 O 223.355 -3.17775 4.73683 0
M  V30 2380 O 222.289 -1.56423 5.81219 0
M  V30 2381 H 226.115 0.221805 3.02889 0
M  V30 2382 H 223.7 0.174547 1.48377 0
M  V30 2383 H 225.582 -2.15898 3.61892 0
M  V30 2384 H 224.257 -2.14633 2.42311 0
M  V30 2385 H 223.164 -0.235157 3.7336 0
M  V30 2386 H 224.497 -0.32904 4.91099 0
M  V30 2387 N 226.149 -1.5696 0.141893 0
M  V30 2388 C 227.565 -1.58151 -0.21456 0
M  V30 2389 C 227.765 -1.1559 -1.65049 0
M  V30 2390 O 226.821 -0.853832 -2.37626 0
M  V30 2391 C 228.134 -3.00674 0.0395576 0
M  V30 2392 C 229.682 -3.1299 -0.0245529 0
M  V30 2393 C 230.157 -4.57554 0.202167 0
M  V30 2394 N 231.648 -4.62961 0.148919 0
M  V30 2395 C 232.383 -5.7262 0.298924 0
M  V30 2396 N 231.879 -6.90947 0.50637 0
M  V30 2397 N 233.672 -5.61601 0.236886 0
M  V30 2398 H 225.823 -1.8292 1.07953 0
M  V30 2399 H 228.086 -0.846425 0.42693 0
M  V30 2400 H 227.792 -3.36183 1.03315 0
M  V30 2401 H 227.666 -3.70981 -0.682143 0
M  V30 2402 H 230.053 -2.77326 -1.00869 0
M  V30 2403 H 230.134 -2.4518 0.729396 0
M  V30 2404 H 229.778 -4.93922 1.18338 0
M  V30 2405 H 229.708 -5.23484 -0.572044 0
M  V30 2406 H 232.199 -3.77899 -0.00697015 0
M  V30 2407 H 232.512 -7.7038 0.611076 0
M  V30 2408 H 230.857 -6.92878 0.542628 0
M  V30 2409 H 234.048 -4.68039 0.0756209 0
M  V30 2410 H 234.221 -6.47015 0.357227 0
M  V30 2411 N 227.627 0.131896 -1.57047 0
M  V30 2412 C 228.904 0.871495 -1.75112 0
M  V30 2413 C 229.284 1.9866 -0.713949 0
M  V30 2414 O 228.632 2.26965 0.264447 0
M  V30 2415 C 228.842 1.40007 -3.19686 0
M  V30 2416 C 230.19 1.85752 -3.81813 0
M  V30 2417 O 231.214 1.49715 -3.23209 0
M  V30 2418 O 230.073 2.5226 -4.84796 0
M  V30 2419 H 227.167 0.412919 -0.716538 0
M  V30 2420 H 229.713 0.116641 -1.69299 0
M  V30 2421 H 228.485 0.599404 -3.86682 0
M  V30 2422 H 228.108 2.218 -3.29986 0
M  V30 2423 N 229.106 1.52395 0.401703 0
M  V30 2424 C 230.036 1.79231 1.49661 0
M  V30 2425 C 231.017 0.643654 1.57452 0
M  V30 2426 O 232.202 0.889989 1.72606 0
M  V30 2427 C 229.332 1.94971 2.87409 0
M  V30 2428 C 228.286 3.10604 2.94465 0
M  V30 2429 C 227.612 3.11577 4.34538 0
M  V30 2430 C 228.912 4.49921 2.6527 0
M  V30 2431 H 230.606 2.70917 1.27454 0
M  V30 2432 H 228.152 1.30362 0.6117 0
M  V30 2433 H 230.105 2.12328 3.63999 0
M  V30 2434 H 228.829 0.999632 3.10926 0
M  V30 2435 H 227.488 2.93009 2.20321 0
M  V30 2436 H 227.136 2.14277 4.55076 0
M  V30 2437 H 226.836 3.89247 4.40183 0
M  V30 2438 H 228.36 3.31073 5.13053 0
M  V30 2439 H 229.774 4.67683 3.31581 0
M  V30 2440 H 228.171 5.29564 2.82281 0
M  V30 2441 H 229.241 4.57507 1.60671 0
M  V30 2442 N 230.584 -0.659388 1.43143 0
M  V30 2443 C 231.531 -1.77249 1.47822 0
M  V30 2444 C 232.501 -1.62818 0.328558 0
M  V30 2445 O 233.686 -1.83151 0.534838 0
M  V30 2446 C 230.826 -3.15371 1.40126 0
M  V30 2447 C 229.939 -3.4098 2.65249 0
M  V30 2448 C 229.074 -4.68915 2.49584 0
M  V30 2449 C 228.113 -4.87608 3.70006 0
M  V30 2450 N 227.25 -6.06796 3.53189 0
M  V30 2451 H 232.09 -1.72584 2.42938 0
M  V30 2452 H 229.627 -0.842297 1.20598 0
M  V30 2453 H 231.585 -3.9521 1.33659 0
M  V30 2454 H 230.215 -3.19121 0.485964 0
M  V30 2455 H 229.267 -2.55282 2.8202 0
M  V30 2456 H 230.579 -3.50681 3.54717 0
M  V30 2457 H 229.733 -5.56871 2.4079 0
M  V30 2458 H 228.472 -4.61524 1.5763 0
M  V30 2459 H 227.477 -3.9809 3.79215 0
M  V30 2460 H 228.702 -4.96834 4.62961 0
M  V30 2461 H 226.648 -6.00549 2.63965 0
M  V30 2462 H 226.565 -6.17428 4.36255 0
M  V30 2463 H 227.833 -6.9739 3.48236 0
M  V30 2464 N 232.062 -1.29571 -0.897171 0
M  V30 2465 C 232.972 -1.16808 -2.03453 0
M  V30 2466 C 233.988 -0.0907471 -1.73763 0
M  V30 2467 O 235.164 -0.303312 -1.99103 0
M  V30 2468 C 232.229 -0.848264 -3.36163 0
M  V30 2469 C 231.29 -2.0097 -3.79354 0
M  V30 2470 C 230.523 -1.70505 -5.05731 0
M  V30 2471 O 230.746 -0.62718 -5.66941 0
M  V30 2472 O 229.68 -2.5538 -5.45036 0
M  V30 2473 H 233.506 -2.12325 -2.17144 0
M  V30 2474 H 231.091 -1.09047 -1.02123 0
M  V30 2475 H 232.973 -0.684581 -4.15802 0
M  V30 2476 H 231.648 0.0771071 -3.23608 0
M  V30 2477 H 230.555 -2.22863 -3.00471 0
M  V30 2478 H 231.888 -2.91636 -3.96496 0
M  V30 2479 N 233.54 1.10788 -1.12088 0
M  V30 2480 C 234.951 1.64181 -0.88891 0
M  V30 2481 C 235.302 1.87508 0.577498 0
M  V30 2482 O 234.427 1.61434 1.44112 0
M  V30 2483 C 235.022 2.98257 -1.60712 0
M  V30 2484 C 233.581 3.4853 -1.42139 0
M  V30 2485 C 232.728 2.23208 -1.6454 0
M  V30 2486 H 235.679 0.943368 -1.27618 0
M  V30 2487 H 235.7 3.65552 -1.05604 0
M  V30 2488 H 235.212 2.81246 -2.67436 0
M  V30 2489 H 233.313 3.70692 -0.376552 0
M  V30 2490 H 233.426 4.26882 -2.17505 0
M  V30 2491 H 231.79 2.31169 -1.06925 0
M  V30 2492 H 232.573 2.08733 -2.72554 0
M  V30 2493 N 235.018 0.912232 1.28515 0
M  V30 2494 C 236.295 0.463597 1.90027 0
M  V30 2495 C 236.675 -1.05753 1.82701 0
M  V30 2496 O 236.023 -1.90492 1.26194 0
M  V30 2497 C 236.233 0.992253 3.34597 0
M  V30 2498 C 237.581 1.04344 4.11579 0
M  V30 2499 O 238.605 0.94079 3.43551 0
M  V30 2500 O 237.464 1.1995 5.33174 0
M  V30 2501 H 234.558 0.146666 0.813891 0
M  V30 2502 H 237.104 1.00292 1.36893 0
M  V30 2503 H 235.876 2.03623 3.34146 0
M  V30 2504 H 235.499 0.433672 3.95228 0
M  V30 2505 N 236.496 -1.42363 0.676048 0
M  V30 2506 C 237.912 -1.55811 0.345718 0
M  V30 2507 C 238.112 -1.65544 -1.14879 0
M  V30 2508 O 237.168 -1.62306 -1.93424 0
M  V30 2509 C 238.481 -2.80746 1.07713 0
M  V30 2510 C 240.029 -2.9452 1.05958 0
M  V30 2511 C 240.504 -4.22318 1.77233 0
M  V30 2512 N 241.995 -4.29233 1.74108 0
M  V30 2513 C 242.73 -5.26935 2.26113 0
M  V30 2514 N 242.226 -6.30783 2.86505 0
M  V30 2515 N 244.019 -5.18741 2.1648 0
M  V30 2516 H 236.17 -1.34289 1.6456 0
M  V30 2517 H 238.433 -0.646506 0.69335 0
M  V30 2518 H 238.139 -2.79696 2.13221 0
M  V30 2519 H 238.013 -3.71676 0.64316 0
M  V30 2520 H 240.4 -2.95097 0.0128255 0
M  V30 2521 H 240.481 -2.04817 1.53244 0
M  V30 2522 H 240.125 -4.22502 2.81877 0
M  V30 2523 H 240.055 -5.10958 1.27396 0
M  V30 2524 H 242.546 -3.54814 1.30059 0
M  V30 2525 H 242.859 -7.01691 3.23805 0
M  V30 2526 H 241.204 -6.31341 2.90575 0
M  V30 2527 H 244.395 -4.36533 1.68987 0
M  V30 2528 H 244.568 -5.94721 2.57316 0
M  V30 2529 N 237.974 -0.419461 -1.51915 0
M  V30 2530 C 239.223 0.154346 -2.01109 0
M  V30 2531 C 239.536 1.45338 -1.30905 0
M  V30 2532 O 240.742 2.10906 -1.7097 0
M  V30 2533 C 239.198 0.325615 -3.58424 0
M  V30 2534 C 238.806 -0.961934 -4.37551 0
M  V30 2535 C 240.55 0.854155 -4.15818 0
M  V30 2536 C 238.457 -0.757287 -5.86531 0
M  V30 2537 H 237.387 0.0614563 -0.751491 0
M  V30 2538 H 240.038 -0.54649 -1.75173 0
M  V30 2539 H 238.42 1.08903 -3.80731 0
M  V30 2540 H 239.594 -1.7323 -4.26999 0
M  V30 2541 H 237.909 -1.41766 -3.91524 0
M  V30 2542 H 240.506 1.02346 -5.24814 0
M  V30 2543 H 240.849 1.83172 -3.73837 0
M  V30 2544 H 241.382 0.149528 -3.97519 0
M  V30 2545 H 238.121 -1.70671 -6.32892 0
M  V30 2546 H 237.641 -0.0264061 -5.99794 0
M  V30 2547 H 239.32 -0.403482 -6.45741 0
M  V30 2548 N 239.452 1.56882 -0.150215 0
M  V30 2549 C 240.698 1.96518 0.500834 0
M  V30 2550 C 241.031 1.03527 1.64304 0
M  V30 2551 O 240.306 0.0782751 1.94342 0
M  V30 2552 C 240.589 3.45822 1.00395 0
M  V30 2553 C 240.442 4.49591 -0.136983 0
M  V30 2554 C 241.761 3.97704 1.88467 0
M  V30 2555 H 238.88 0.714535 0.18058 0
M  V30 2556 H 241.522 1.88577 -0.232091 0
M  V30 2557 H 239.672 3.5272 1.62851 0
M  V30 2558 H 241.344 4.5477 -0.77343 0
M  V30 2559 H 239.587 4.26441 -0.795652 0
M  V30 2560 H 240.258 5.51402 0.256815 0
M  V30 2561 H 242.734 3.93304 1.35834 0
M  V30 2562 H 241.61 5.0263 2.20578 0
M  V30 2563 H 241.871 3.40252 2.82279 0
M  V30 2564 N 240.93 -0.123565 1.57115 0
M  V30 2565 C 242.178 -0.83051 1.84247 0
M  V30 2566 C 242.499 -1.80629 0.73471 0
M  V30 2567 O 241.769 -1.94403 -0.241688 0
M  V30 2568 H 240.349 -0.309694 0.679778 0
M  V30 2569 H 243.011 -0.111976 1.94578 0
M  V30 2570 H 242.107 -1.37852 2.80006 0
M  V30 2571 N 242.408 -1.52605 -0.393616 0
M  V30 2572 C 243.318 -1.79971 -1.50492 0
M  V30 2573 C 244.334 -0.686181 -1.59899 0
M  V30 2574 O 245.51 -0.973274 -1.76322 0
M  V30 2575 C 242.575 -1.95867 -2.86072 0
M  V30 2576 C 241.636 -3.19781 -2.86424 0
M  V30 2577 C 240.869 -3.34909 -4.15538 0
M  V30 2578 O 241.092 -2.54948 -5.10253 0
M  V30 2579 O 240.026 -4.28141 -4.23059 0
M  V30 2580 H 243.852 -2.74328 -1.30299 0
M  V30 2581 H 241.437 -1.3764 -0.581005 0
M  V30 2582 H 243.319 -2.08056 -3.66457 0
M  V30 2583 H 241.994 -1.04699 -3.063 0
M  V30 2584 H 240.901 -3.13038 -2.04837 0
M  V30 2585 H 242.234 -4.1078 -2.71147 0
M  V30 2586 N 243.887 0.651787 -1.4349 0
M  V30 2587 C 245.134 1.41167 -1.45183 0
M  V30 2588 C 245.462 1.94349 -0.0766601 0
M  V30 2589 O 244.717 1.72804 0.918555 0
M  V30 2590 C 245.016 2.60914 -2.44251 0
M  V30 2591 C 244.682 2.26142 -3.9009 0
M  V30 2592 C 243.344 2.16371 -4.2981 0
M  V30 2593 C 245.696 1.98334 -4.81989 0
M  V30 2594 C 243.024 1.7695 -5.5938 0
M  V30 2595 C 245.376 1.6041 -6.11924 0
M  V30 2596 C 244.04 1.49166 -6.5062 0
M  V30 2597 H 243.31 0.516566 -0.531263 0
M  V30 2598 H 245.957 0.741099 -1.76579 0
M  V30 2599 H 244.262 3.3311 -2.06265 0
M  V30 2600 H 245.959 3.19127 -2.42815 0
M  V30 2601 H 242.549 2.34658 -3.58655 0
M  V30 2602 H 246.733 2.04803 -4.52072 0
M  V30 2603 H 241.989 1.66831 -5.88198 0
M  V30 2604 H 246.163 1.37925 -6.82605 0
M  V30 2605 H 243.79 1.1839 -7.50925 0
M  V30 2606 N 245.365 1.30045 0.890287 0
M  V30 2607 C 246.295 1.18541 2.01172 0
M  V30 2608 C 247.276 0.0773356 1.69924 0
M  V30 2609 O 248.461 0.25845 1.92473 0
M  V30 2610 C 245.591 0.870941 3.36202 0
M  V30 2611 C 244.545 1.93637 3.81692 0
M  V30 2612 C 243.871 1.475 5.13953 0
M  V30 2613 C 245.171 3.34666 4.00994 0
M  V30 2614 H 246.865 2.12359 2.11054 0
M  V30 2615 H 244.411 1.02238 1.01407 0
M  V30 2616 H 246.364 0.777141 4.14172 0
M  V30 2617 H 245.088 -0.102926 3.26438 0
M  V30 2618 H 243.747 2.01972 3.05946 0
M  V30 2619 H 243.395 0.489551 5.00612 0
M  V30 2620 H 243.095 2.1876 5.4536 0
M  V30 2621 H 244.619 1.39489 5.94454 0
M  V30 2622 H 246.033 3.2912 4.69417 0
M  V30 2623 H 244.43 4.03966 4.43769 0
M  V30 2624 H 245.5 3.76949 3.05021 0
M  V30 2625 N 246.843 -1.10192 1.12674 0
M  V30 2626 C 247.775 -2.16418 0.754701 0
M  V30 2627 C 248.788 -1.61309 -0.21986 0
M  V30 2628 O 249.977 -1.785 -0.000826841 0
M  V30 2629 C 247.077 -3.38762 0.096698 0
M  V30 2630 C 246.25 -4.23307 1.10136 0
M  V30 2631 C 245.309 -5.24092 0.470513 0
M  V30 2632 O 244.335 -5.57906 1.12824 0
M  V30 2633 N 245.537 -5.75491 -0.760948 0
M  V30 2634 H 248.302 -2.48943 1.66875 0
M  V30 2635 H 245.863 -1.25834 1.01869 0
M  V30 2636 H 247.855 -4.03291 -0.337384 0
M  V30 2637 H 246.425 -3.04192 -0.720153 0
M  V30 2638 H 245.645 -3.55036 1.71299 0
M  V30 2639 H 246.933 -4.76624 1.78064 0
M  V30 2640 H 246.331 -5.50222 -1.31424 0
M  V30 2641 H 244.888 -6.41792 -1.13781 0
M  V30 2642 N 248.321 -0.919034 -1.28029 0
M  V30 2643 C 249.732 -0.600735 -1.76771 0
M  V30 2644 C 250.083 0.884024 -1.75156 0
M  V30 2645 O 249.208 1.69163 -1.34956 0
M  V30 2646 C 249.803 -1.08372 -3.21 0
M  V30 2647 C 248.362 -0.816248 -3.67443 0
M  V30 2648 C 247.509 -1.24742 -2.47658 0
M  V30 2649 H 250.46 -1.09974 -1.14418 0
M  V30 2650 H 250.481 -0.427512 -3.78091 0
M  V30 2651 H 249.993 -2.16437 -3.22144 0
M  V30 2652 H 248.094 0.250968 -3.71754 0
M  V30 2653 H 248.207 -1.4277 -4.57333 0
M  V30 2654 H 246.571 -0.666083 -2.45836 0
M  V30 2655 H 247.354 -2.33653 -2.51518 0
M  V30 2656 N 249.799 1.42003 -0.683588 0
M  V30 2657 C 251.047 2.01015 -0.209101 0
M  V30 2658 C 251.368 1.54365 1.19149 0
M  V30 2659 O 250.638 0.769083 1.80172 0
M  V30 2660 H 249.218 0.743294 -0.074315 0
M  V30 2661 H 251.88 1.73798 -0.882066 0
M  V30 2662 H 250.976 3.11343 -0.2172 0
M  V30 2663 N 251.277 0.427512 1.51691 0
M  V30 2664 C 252.525 -0.141948 2.01601 0
M  V30 2665 C 252.846 -1.44067 1.31414 0
M  V30 2666 O 252.116 -1.90763 0.445658 0
M  V30 2667 H 250.696 -0.0554468 0.744939 0
M  V30 2668 H 253.358 0.567968 1.86441 0
M  V30 2669 H 252.454 -0.324913 3.10404 0
M  V30 2670 N 252.755 -1.56801 0.158532 0
M  V30 2671 C 253.985 -2.00568 -0.495583 0
M  V30 2672 C 254.393 -1.03774 -1.58201 0
M  V30 2673 O 253.736 -0.0285797 -1.83678 0
M  V30 2674 C 253.798 -3.40768 -1.14532 0
M  V30 2675 C 253.462 -4.56553 -0.202101 0
M  V30 2676 C 254.459 -5.16714 0.574675 0
M  V30 2677 C 252.144 -5.02197 -0.101648 0
M  V30 2678 C 254.138 -6.20939 1.43924 0
M  V30 2679 C 251.825 -6.06274 0.766508 0
M  V30 2680 C 252.823 -6.65515 1.53555 0
M  V30 2681 O 252.511 -7.67575 2.38922 0
M  V30 2682 H 252.243 -0.662893 -0.13247 0
M  V30 2683 H 254.797 -2.03829 0.253559 0
M  V30 2684 H 253.027 -3.34381 -1.94233 0
M  V30 2685 H 254.716 -3.6857 -1.70033 0
M  V30 2686 H 255.482 -4.82341 0.507167 0
M  V30 2687 H 251.361 -4.55807 -0.689994 0
M  V30 2688 H 254.905 -6.67107 2.03996 0
M  V30 2689 H 250.802 -6.40073 0.835266 0
M  V30 2690 H 251.57 -7.84844 2.32296 0
M  V30 2691 N 254.233 0.115231 -1.57178 0
M  V30 2692 C 255.183 1.14707 -1.97044 0
M  V30 2693 C 256.167 1.36866 -0.845957 0
M  V30 2694 O 257.359 1.37895 -1.10968 0
M  V30 2695 C 254.488 2.47266 -2.38148 0
M  V30 2696 C 253.574 2.28566 -3.57237 0
M  V30 2697 N 253.965 1.79685 -4.72807 0
M  V30 2698 C 252.263 2.59208 -3.62943 0
M  V30 2699 C 252.964 1.74781 -5.54821 0
M  V30 2700 N 251.94 2.19264 -4.97417 0
M  V30 2701 H 255.742 0.761754 -2.83857 0
M  V30 2702 H 253.256 0.322928 -1.59157 0
M  V30 2703 H 255.253 3.219 -2.64927 0
M  V30 2704 H 253.913 2.86552 -1.52702 0
M  V30 2705 H 254.924 1.49177 -4.9595 0
M  V30 2706 H 251.601 3.02154 -2.88113 0
M  V30 2707 H 252.991 1.38212 -6.57531 0
M  V30 2708 N 255.711 1.52812 0.385517 0
M  V30 2709 C 256.957 1.68275 1.13188 0
M  V30 2710 C 257.29 0.423179 1.89533 0
M  V30 2711 O 256.565 -0.579113 1.85679 0
M  V30 2712 C 256.848 2.92001 2.1073 0
M  V30 2713 C 256.701 4.28067 1.38125 0
M  V30 2714 C 258.02 3.11283 3.11113 0
M  V30 2715 H 255.139 0.612352 0.410115 0
M  V30 2716 H 257.781 1.85415 0.414869 0
M  V30 2717 H 255.931 2.77519 2.71874 0
M  V30 2718 H 257.603 4.54324 0.799187 0
M  V30 2719 H 255.846 4.28388 0.683092 0
M  V30 2720 H 256.517 5.10733 2.09417 0
M  V30 2721 H 258.993 3.2482 2.6006 0
M  V30 2722 H 257.869 3.99325 3.76605 0
M  V30 2723 H 258.13 2.25656 3.80173 0
M  V30 2724 N 257.189 -0.644168 1.43834 0
M  V30 2725 C 258.119 -1.76814 1.52509 0
M  V30 2726 C 259.1 -1.65823 0.379052 0
M  V30 2727 O 260.285 -1.84781 0.597466 0
M  V30 2728 C 257.415 -3.15288 1.4564 0
M  V30 2729 C 256.369 -3.41053 2.58586 0
M  V30 2730 C 255.695 -4.79421 2.36769 0
M  V30 2731 C 256.995 -3.34902 4.00797 0
M  V30 2732 H 258.689 -1.69812 2.46586 0
M  V30 2733 H 256.235 -0.815542 1.1868 0
M  V30 2734 H 258.188 -3.93681 1.50311 0
M  V30 2735 H 256.912 -3.23043 0.480725 0
M  V30 2736 H 255.571 -2.65035 2.53282 0
M  V30 2737 H 255.219 -4.83863 1.37424 0
M  V30 2738 H 254.919 -4.9762 3.12487 0
M  V30 2739 H 256.443 -5.6006 2.43238 0
M  V30 2740 H 257.857 -4.03218 4.07539 0
M  V30 2741 H 256.254 -3.64637 4.76613 0
M  V30 2742 H 257.324 -2.32928 4.25291 0
M  V30 2743 N 258.668 -1.30515 -0.883378 0
M  V30 2744 C 259.615 -1.17032 -1.98927 0
M  V30 2745 C 260.585 -0.0594241 -1.65994 0
M  V30 2746 O 261.77 -0.229895 -1.8941 0
M  V30 2747 C 258.91 -0.869777 -3.33959 0
M  V30 2748 C 258.023 -2.06271 -3.79574 0
M  V30 2749 C 257.158 -1.70011 -5.03259 0
M  V30 2750 C 256.197 -2.8579 -5.41286 0
M  V30 2751 N 255.334 -2.49816 -6.56153 0
M  V30 2752 H 260.174 -2.1164 -2.09792 0
M  V30 2753 H 257.711 -1.05296 -1.02719 0
M  V30 2754 H 259.669 -0.676138 -4.11685 0
M  V30 2755 H 258.299 0.0394332 -3.22776 0
M  V30 2756 H 257.351 -2.36755 -2.97744 0
M  V30 2757 H 258.663 -2.92971 -4.03694 0
M  V30 2758 H 257.817 -1.47032 -5.88614 0
M  V30 2759 H 256.556 -0.804829 -4.81013 0
M  V30 2760 H 255.561 -3.09434 -4.54456 0
M  V30 2761 H 256.786 -3.76008 -5.65504 0
M  V30 2762 H 254.732 -1.62795 -6.35479 0
M  V30 2763 H 254.649 -3.30048 -6.8015 0
M  V30 2764 H 255.917 -2.30197 -7.44735 0
M  V30 2765 N 260.146 1.09593 -1.13257 0
M  V30 2766 C 261.423 1.78293 -0.804432 0
M  V30 2767 C 261.803 1.99004 0.70431 0
M  V30 2768 O 261.151 1.59007 1.641 0
M  V30 2769 C 261.361 3.10707 -1.5894 0
M  V30 2770 C 262.709 3.85443 -1.78099 0
M  V30 2771 O 263.733 3.20454 -1.55525 0
M  V30 2772 O 262.592 5.02108 -2.15753 0
M  V30 2773 H 259.686 0.773156 -0.293528 0
M  V30 2774 H 262.232 1.16164 -1.23709 0
M  V30 2775 H 261.004 2.91106 -2.61482 0
M  V30 2776 H 260.627 3.80558 -1.15157 0
M  V30 2777 N 261.624 0.925811 1.2754 0
M  V30 2778 C 262.554 0.440748 2.29303 0
M  V30 2779 C 263.535 -0.497971 1.62648 0
M  V30 2780 O 264.72 -0.403126 1.8997 0
M  V30 2781 C 261.85 -0.309048 3.45922 0
M  V30 2782 C 260.804 0.54166 4.24559 0
M  V30 2783 C 260.13 -0.337191 5.33636 0
M  V30 2784 C 261.43 1.80516 4.90114 0
M  V30 2785 H 263.124 1.29121 2.70126 0
M  V30 2786 H 260.67 0.622323 1.29858 0
M  V30 2787 H 262.623 -0.659315 4.1621 0
M  V30 2788 H 261.347 -1.19352 3.04011 0
M  V30 2789 H 260.006 0.874609 3.56014 0
M  V30 2790 H 259.654 -1.22056 4.87966 0
M  V30 2791 H 259.354 0.228497 5.87156 0
M  V30 2792 H 260.878 -0.683072 6.06767 0
M  V30 2793 H 262.292 1.52307 5.52698 0
M  V30 2794 H 260.689 2.3142 5.53683 0
M  V30 2795 H 261.759 2.52581 4.13921 0
M  V30 2796 N 263.102 -1.41638 0.69111 0
M  V30 2797 C 264.35 -2.00902 0.219758 0
M  V30 2798 C 264.671 -1.54994 -1.18329 0
M  V30 2799 O 263.941 -0.778628 -1.79762 0
M  V30 2800 H 262.521 -0.74289 0.0782558 0
M  V30 2801 H 265.183 -1.73327 0.891271 0
M  V30 2802 H 264.279 -3.11224 0.233708 0
M  V30 2803 N 264.58 -0.43555 -1.51462 0
M  V30 2804 C 265.51 0.367376 -2.30592 0
M  V30 2805 C 266.491 1.02263 -1.35928 0
M  V30 2806 O 267.676 1.02661 -1.64847 0
M  V30 2807 C 264.806 1.46983 -3.14664 0
M  V30 2808 C 263.76 0.938161 -4.17591 0
M  V30 2809 C 263.086 2.13622 -4.90173 0
M  V30 2810 C 264.386 -0.0261621 -5.22293 0
M  V30 2811 H 266.08 -0.292969 -2.97963 0
M  V30 2812 H 263.626 -0.14234 -1.43295 0
M  V30 2813 H 265.579 2.03873 -3.688 0
M  V30 2814 H 264.303 2.15843 -2.4511 0
M  V30 2815 H 262.962 0.391481 -3.64504 0
M  V30 2816 H 262.61 2.81098 -4.17124 0
M  V30 2817 H 262.31 1.78688 -5.59772 0
M  V30 2818 H 263.834 2.7107 -5.47132 0
M  V30 2819 H 265.248 0.452384 -5.71512 0
M  V30 2820 H 263.645 -0.287992 -5.99409 0
M  V30 2821 H 264.715 -0.963391 -4.75233 0
M  V30 2822 N 266.058 1.56714 -0.166846 0
M  V30 2823 C 267.306 1.96358 0.478305 0
M  V30 2824 C 267.627 1.0537 1.6408 0
M  V30 2825 O 266.897 0.119154 1.95537 0
M  V30 2826 H 265.477 0.725065 0.179692 0
M  V30 2827 H 268.139 1.93329 -0.246985 0
M  V30 2828 H 267.235 3.00547 0.841292 0
M  V30 2829 N 267.536 -0.106894 1.57237 0
M  V30 2830 C 268.813 -0.843526 1.76477 0
M  V30 2831 C 269.193 -1.97499 0.745464 0
M  V30 2832 O 268.541 -2.27357 -0.228306 0
M  V30 2833 C 268.751 -1.34903 3.21873 0
M  V30 2834 C 270.099 -1.79654 3.8472 0
M  V30 2835 O 271.123 -1.44554 3.2555 0
M  V30 2836 O 269.982 -2.44515 4.88748 0
M  V30 2837 H 267.076 -0.401468 0.723016 0
M  V30 2838 H 269.622 -0.0896927 1.69463 0
M  V30 2839 H 268.394 -0.53781 3.87586 0
M  V30 2840 H 268.017 -2.16522 3.33473 0
M  V30 2841 N 269.014 -1.53014 -0.377408 0
M  V30 2842 C 270.242 -1.72515 -1.14219 0
M  V30 2843 C 270.657 -0.448735 -1.8339 0
M  V30 2844 O 270.014 0.577592 -1.73119 0
M  V30 2845 C 270.065 -2.8826 -2.18148 0
M  V30 2846 O 269.786 -4.10962 -1.51795 0
M  V30 2847 C 271.287 -3.19536 -3.07264 0
M  V30 2848 H 268.507 -0.577301 -0.342001 0
M  V30 2849 H 271.051 -1.99712 -0.439935 0
M  V30 2850 H 269.206 -2.63492 -2.83991 0
M  V30 2851 H 269.62 -4.75693 -2.20945 0
M  V30 2852 H 271.094 -4.03959 -3.76193 0
M  V30 2853 H 271.571 -2.34403 -3.71419 0
M  V30 2854 H 272.177 -3.46186 -2.47053 0
M  V30 2855 N 270.492 0.636531 -1.44174 0
M  V30 2856 C 271.738 1.39826 -1.4689 0
M  V30 2857 C 272.071 1.93947 -0.0990585 0
M  V30 2858 O 271.346 1.73325 0.882544 0
M  V30 2859 C 271.629 2.56751 -2.5249 0
M  V30 2860 C 271.482 2.08014 -3.98811 0
M  V30 2861 C 272.801 3.58946 -2.54649 0
M  V30 2862 H 269.92 0.507075 -0.53483 0
M  V30 2863 H 272.562 0.720188 -1.75822 0
M  V30 2864 H 270.712 3.14597 -2.2795 0
M  V30 2865 H 272.384 1.5504 -4.34466 0
M  V30 2866 H 270.627 1.39242 -4.10846 0
M  V30 2867 H 271.298 2.92169 -4.68339 0
M  V30 2868 H 273.774 3.1089 -2.76563 0
M  V30 2869 H 272.65 4.38286 -3.3045 0
M  V30 2870 H 272.911 4.12655 -1.58646 0
M  V30 2871 N 271.97 1.30982 0.876444 0
M  V30 2872 C 272.88 1.2003 2.01569 0
M  V30 2873 C 273.896 0.11838 1.73597 0
M  V30 2874 O 275.072 0.33495 1.98595 0
M  V30 2875 C 272.137 0.901637 3.34771 0
M  V30 2876 C 271.198 2.06979 3.76109 0
M  V30 2877 C 270.431 1.78529 5.02954 0
M  V30 2878 O 270.654 0.717296 5.65872 0
M  V30 2879 O 269.588 2.64019 5.40905 0
M  V30 2880 H 273.414 2.15753 2.13739 0
M  V30 2881 H 270.999 1.10658 1.00375 0
M  V30 2882 H 272.881 0.750645 4.1466 0
M  V30 2883 H 271.556 -0.0256141 3.2369 0
M  V30 2884 H 270.463 2.27616 2.96887 0
M  V30 2885 H 271.796 2.97907 3.91807 0
M  V30 2886 N 273.449 -1.08991 1.13837 0
M  V30 2887 C 274.697 -1.80899 0.901098 0
M  V30 2888 C 275.018 -1.86356 -0.574134 0
M  V30 2889 O 274.288 -1.35235 -1.41733 0
M  V30 2890 H 272.868 -0.669966 0.330386 0
M  V30 2891 H 275.53 -1.318 1.43578 0
M  V30 2892 H 274.626 -2.83929 1.29578 0
M  V30 2893 N 274.927 -0.932562 -1.27047 0
M  V30 2894 C 275.857 -0.452902 -2.29066 0
M  V30 2895 C 276.838 0.489338 -1.62909 0
M  V30 2896 O 278.023 0.393046 -1.90181 0
M  V30 2897 C 275.153 0.290698 -3.46081 0
M  V30 2898 C 274.107 -0.564168 -4.24265 0
M  V30 2899 C 273.433 0.308886 -5.33807 0
M  V30 2900 C 274.733 -1.83112 -4.89149 0
M  V30 2901 H 276.427 -1.30552 -2.69437 0
M  V30 2902 H 273.973 -0.629201 -1.29526 0
M  V30 2903 H 275.926 0.637233 -4.16554 0
M  V30 2904 H 274.65 1.17738 -3.0464 0
M  V30 2905 H 273.309 -0.893477 -3.55545 0
M  V30 2906 H 272.957 1.19467 -4.88607 0
M  V30 2907 H 272.657 -0.259633 -5.87026 0
M  V30 2908 H 274.181 0.650884 -6.07121 0
M  V30 2909 H 275.595 -1.55236 -5.51883 0
M  V30 2910 H 273.992 -2.34353 -5.52448 0
M  V30 2911 H 275.062 -2.54772 -4.12576 0
M  V30 2912 N 276.405 1.4127 -0.698611 0
M  V30 2913 C 277.682 1.94955 -0.158762 0
M  V30 2914 C 278.062 1.63781 1.33188 0
M  V30 2915 O 277.41 0.946423 2.07979 0
M  V30 2916 C 277.62 3.46044 -0.453309 0
M  V30 2917 C 278.968 4.22872 -0.382707 0
M  V30 2918 O 279.992 3.54076 -0.388396 0
M  V30 2919 O 278.851 5.45407 -0.345463 0
M  V30 2920 H 275.945 0.82683 -0.0167505 0
M  V30 2921 H 278.491 1.50971 -0.77498 0
M  V30 2922 H 277.263 3.62028 -1.48498 0
M  V30 2923 H 276.886 3.97128 0.19373 0
M  V30 2924 N 277.883 0.443576 1.51229 0
M  V30 2925 C 278.846 -0.353132 2.26463 0
M  V30 2926 C 279.846 -0.944338 1.3015 0
M  V30 2927 O 281.036 -0.817813 1.5381 0
M  V30 2928 C 278.168 -1.50023 3.06114 0
M  V30 2929 H 279.361 0.3063 2.98332 0
M  V30 2930 H 276.914 0.196902 1.55055 0
M  V30 2931 H 277.649 -2.19553 2.38677 0
M  V30 2932 H 277.434 -1.08241 3.76864 0
M  V30 2933 H 278.924 -2.06296 3.63087 0
M  V30 2934 N 279.361 -1.56624 0.175154 0
M  V30 2935 C 280.293 -2.15333 -0.785128 0
M  V30 2936 C 281.306 -1.1099 -1.19101 0
M  V30 2937 O 282.495 -1.38162 -1.13019 0
M  V30 2938 C 279.595 -2.68427 -2.06882 0
M  V30 2939 C 278.768 -3.97466 -1.8259 0
M  V30 2940 C 277.827 -4.35585 -2.95215 0
M  V30 2941 O 276.853 -5.03389 -2.65684 0
M  V30 2942 N 278.055 -3.97457 -4.23094 0
M  V30 2943 H 280.82 -2.98359 -0.283187 0
M  V30 2944 H 278.381 -1.61898 -0.00749817 0
M  V30 2945 H 280.373 -2.90924 -2.81328 0
M  V30 2946 H 278.943 -1.89968 -2.48256 0
M  V30 2947 H 278.163 -3.83307 -0.920287 0
M  V30 2948 H 279.451 -4.81736 -1.63733 0
M  V30 2949 H 278.849 -3.42878 -4.49945 0
M  V30 2950 H 277.406 -4.24947 -4.9423 0
M  V30 2951 N 280.839 0.0985539 -1.57292 0
M  V30 2952 C 282.085 0.803867 -1.86188 0
M  V30 2953 C 282.418 1.78549 -0.763794 0
M  V30 2954 O 281.693 1.93153 0.22855 0
M  V30 2955 C 281.976 1.53568 -3.25713 0
M  V30 2956 C 281.829 0.572277 -4.46145 0
M  V30 2957 C 283.148 2.48708 -3.63087 0
M  V30 2958 H 280.267 0.290781 -0.677211 0
M  V30 2959 H 282.909 0.0675783 -1.8988 0
M  V30 2960 H 281.059 2.16332 -3.22696 0
M  V30 2961 H 282.731 -0.0480894 -4.61275 0
M  V30 2962 H 280.974 -0.114618 -4.33649 0
M  V30 2963 H 281.645 1.12139 -5.40489 0
M  V30 2964 H 284.121 1.96039 -3.67026 0
M  V30 2965 H 282.997 2.96932 -4.61652 0
M  V30 2966 H 283.258 3.32309 -2.91588 0
M  V30 2967 N 282.317 1.53212 0.369288 0
M  V30 2968 C 283.563 1.69466 1.11397 0
M  V30 2969 C 283.896 0.443257 1.89074 0
M  V30 2970 O 283.171 -0.559386 1.86282 0
M  V30 2971 C 283.454 2.9422 2.07621 0
M  V30 2972 C 283.307 4.29508 1.33577 0
M  V30 2973 C 284.626 3.14565 3.07794 0
M  V30 2974 H 281.745 0.616667 0.403597 0
M  V30 2975 H 284.387 1.85845 0.395179 0
M  V30 2976 H 282.537 2.80387 2.68916 0
M  V30 2977 H 284.209 4.55147 0.750955 0
M  V30 2978 H 282.452 4.29088 0.637618 0
M  V30 2979 H 283.123 5.12926 2.03989 0
M  V30 2980 H 285.599 3.2756 2.56601 0
M  V30 2981 H 284.475 4.03297 3.72348 0
M  V30 2982 H 284.736 2.29675 3.77759 0
M  V30 2983 N 283.795 -0.628877 1.44509 0
M  V30 2984 C 284.743 -1.76193 1.51852 0
M  V30 2985 C 285.737 -1.64849 0.390042 0
M  V30 2986 O 286.943 -1.709 0.565082 0
M  V30 2987 H 283.318 -0.581728 0.476547 0
M  V30 2988 H 285.289 -1.67123 2.47209 0
M  V30 2989 C 284.038 -3.14533 1.48204 0
M  V30 2990 H 283.361 -3.23911 2.34354 0
M  V30 2991 H 284.801 -3.93701 1.57402 0
M  V30 2992 C 283.26 -3.36287 0.203142 0
M  V30 2993 O 283.79 -3.9509 -0.725745 0
M  V30 2994 N 281.996 -2.90408 0.105563 0
M  V30 2995 H 281.543 -2.42739 0.862301 0
M  V30 2996 H 281.501 -3.05339 -0.749371 0
M  V30 2997 N 285.273 -1.31445 -0.869486 0
M  V30 2998 C 286.521 -1.20918 -1.61936 0
M  V30 2999 C 286.842 0.232683 -1.93607 0
M  V30 3000 O 286.112 1.15352 -1.58338 0
M  V30 3001 H 284.692 -0.44454 -0.600328 0
M  V30 3002 H 287.354 -1.64776 -1.0409 0
M  V30 3003 H 286.45 -1.78124 -2.56278 0
M  V30 3004 N 286.751 1.08385 -1.14413 0
M  V30 3005 C 287.981 1.8425 -0.934644 0
M  V30 3006 C 288.389 1.81907 0.520234 0
M  V30 3007 O 287.732 1.22126 1.37226 0
M  V30 3008 C 287.794 3.32853 -1.35828 0
M  V30 3009 C 287.458 3.5893 -2.82875 0
M  V30 3010 C 288.455 3.53756 -3.80989 0
M  V30 3011 C 286.14 3.86934 -3.20293 0
M  V30 3012 C 288.134 3.76216 -5.14529 0
M  V30 3013 C 285.821 4.09047 -4.54008 0
M  V30 3014 C 286.819 4.03682 -5.50936 0
M  V30 3015 O 286.507 4.25214 -6.82238 0
M  V30 3016 H 286.239 0.588502 -0.332628 0
M  V30 3017 H 288.793 1.37792 -1.52324 0
M  V30 3018 H 287.023 3.8007 -0.713019 0
M  V30 3019 H 288.712 3.90154 -1.11957 0
M  V30 3020 H 289.478 3.32135 -3.53428 0
M  V30 3021 H 285.357 3.9023 -2.45442 0
M  V30 3022 H 288.901 3.71943 -5.90173 0
M  V30 3023 H 284.798 4.30151 -4.8129 0
M  V30 3024 H 285.566 4.42619 -6.88499 0
M  V30 3025 N 288.23 0.939286 1.26551 0
M  V30 3026 C 289.163 0.391702 2.24813 0
M  V30 3027 C 290.141 -0.518421 1.54114 0
M  V30 3028 O 291.325 -0.456299 1.82894 0
M  V30 3029 C 288.452 -0.437382 3.35864 0
M  V30 3030 C 287.498 0.410946 4.24516 0
M  V30 3031 S 288.331 1.83372 5.03125 0
M  V30 3032 C 289.487 1.01264 6.17654 0
M  V30 3033 H 289.72 1.22448 2.70913 0
M  V30 3034 H 287.253 0.742269 1.35387 0
M  V30 3035 H 289.211 -0.909837 4.0029 0
M  V30 3036 H 287.872 -1.24482 2.8838 0
M  V30 3037 H 287.065 -0.224191 5.03501 0
M  V30 3038 H 286.667 0.818014 3.64945 0
M  V30 3039 H 288.959 0.254023 6.77024 0
M  V30 3040 H 289.902 1.77589 6.85469 0
M  V30 3041 H 290.31 0.549532 5.61819 0
M  V30 3042 N 289.708 -1.40897 0.706093 0
M  V30 3043 C 290.957 -2.00284 0.238574 0
M  V30 3044 C 291.27 -1.56604 -1.17194 0
M  V30 3045 O 292.476 -2.08624 -1.73748 0
M  V30 3046 C 290.932 -3.57934 0.375623 0
M  V30 3047 C 290.54 -4.10591 1.79217 0
M  V30 3048 C 292.284 -4.24488 -0.0315857 0
M  V30 3049 C 290.191 -5.60712 1.88032 0
M  V30 3050 H 289.121 -0.749144 0.0854398 0
M  V30 3051 H 291.772 -1.61251 0.875813 0
M  V30 3052 H 290.154 -3.94622 -0.330042 0
M  V30 3053 H 291.328 -3.85301 2.52745 0
M  V30 3054 H 289.643 -3.56601 2.15 0
M  V30 3055 H 292.24 -5.34698 0.0136842 0
M  V30 3056 H 292.583 -4.02261 -1.072 0
M  V30 3057 H 293.116 -3.92873 0.624181 0
M  V30 3058 H 289.855 -5.87781 2.90161 0
M  V30 3059 H 289.375 -5.87896 1.18903 0
M  V30 3060 H 291.054 -6.25658 1.64805 0
M  V30 3061 N 291.186 -0.45159 -1.50991 0
M  V30 3062 C 292.136 0.370861 -2.24964 0
M  V30 3063 C 293.12 0.978074 -1.2776 0
M  V30 3064 O 294.312 0.893854 -1.52772 0
M  V30 3065 C 291.441 1.46344 -3.10545 0
M  V30 3066 C 290.527 0.864924 -4.15187 0
M  V30 3067 N 290.918 -0.00311354 -5.058 0
M  V30 3068 C 289.216 1.13099 -4.31422 0
M  V30 3069 C 289.917 -0.340772 -5.80701 0
M  V30 3070 N 288.893 0.279203 -5.42883 0
M  V30 3071 H 292.695 -0.298134 -2.92384 0
M  V30 3072 H 290.209 -0.264528 -1.60231 0
M  V30 3073 H 292.206 2.06565 -3.62128 0
M  V30 3074 H 290.866 2.13463 -2.4467 0
M  V30 3075 H 291.877 -0.37058 -5.16572 0
M  V30 3076 H 288.554 1.79861 -3.76771 0
M  V30 3077 H 289.944 -1.048 -6.63677 0
M  V30 3078 N 292.664 1.56529 -0.183458 0
M  V30 3079 C 293.941 1.88959 0.50536 0
M  V30 3080 C 294.321 1.09523 1.80466 0
M  V30 3081 O 293.669 0.19278 2.27685 0
M  V30 3082 C 293.879 3.41162 0.73547 0
M  V30 3083 C 295.227 4.11155 1.06005 0
M  V30 3084 O 296.251 3.46548 0.823594 0
M  V30 3085 O 295.11 5.25318 1.50675 0
M  V30 3086 H 292.204 0.78441 0.261973 0
M  V30 3087 H 294.75 1.68231 -0.222802 0
M  V30 3088 H 293.522 3.90874 -0.182561 0
M  V30 3089 H 293.145 3.67543 1.51651 0
M  V30 3090 N 294.142 -0.090211 1.57342 0
M  V30 3091 C 295.074 -1.13541 1.99101 0
M  V30 3092 C 296.087 -1.3604 0.894258 0
M  V30 3093 O 297.276 -1.34606 1.17233 0
M  V30 3094 C 294.376 -2.49001 2.29895 0
M  V30 3095 C 293.549 -2.46712 3.61182 0
M  V30 3096 C 292.608 -3.64136 3.79857 0
M  V30 3097 O 291.634 -3.46405 4.51655 0
M  V30 3098 N 292.836 -4.83802 3.20806 0
M  V30 3099 H 295.601 -0.779942 2.89373 0
M  V30 3100 H 293.162 -0.279125 1.59476 0
M  V30 3101 H 295.154 -3.26166 2.39578 0
M  V30 3102 H 293.724 -2.76619 1.45605 0
M  V30 3103 H 292.944 -1.55058 3.62423 0
M  V30 3104 H 294.232 -2.42265 4.4742 0
M  V30 3105 H 293.63 -5.01112 2.62494 0
M  V30 3106 H 292.187 -5.58543 3.35966 0
M  V30 3107 N 295.62 -1.53406 -0.361157 0
M  V30 3108 C 296.53 -1.83122 -1.4664 0
M  V30 3109 C 297.546 -0.719943 -1.58407 0
M  V30 3110 O 298.722 -1.01046 -1.74218 0
M  V30 3111 C 295.787 -2.01891 -2.81853 0
M  V30 3112 C 294.848 -3.25784 -2.79577 0
M  V30 3113 C 294.081 -3.43648 -4.0834 0
M  V30 3114 O 294.304 -2.65714 -5.0473 0
M  V30 3115 O 293.238 -4.37018 -4.13883 0
M  V30 3116 H 297.064 -2.7703 -1.24451 0
M  V30 3117 H 294.649 -1.38841 -0.551678 0
M  V30 3118 H 296.531 -2.15782 -3.61962 0
M  V30 3119 H 295.206 -1.11173 -3.0401 0
M  V30 3120 H 294.113 -3.17312 -1.98151 0
M  V30 3121 H 295.446 -4.16439 -2.62373 0
M  V30 3122 N 297.098 0.621204 -1.44841 0
M  V30 3123 C 298.323 1.41244 -1.51871 0
M  V30 3124 C 298.748 1.87519 -0.147764 0
M  V30 3125 O 298.106 1.59334 0.865 0
M  V30 3126 C 298.154 2.60221 -2.49634 0
M  V30 3127 O 297.258 3.60395 -2.00473 0
M  V30 3128 H 296.599 0.42223 -0.512463 0
M  V30 3129 H 299.129 0.757305 -1.90069 0
M  V30 3130 H 299.139 3.0764 -2.67996 0
M  V30 3131 H 297.814 2.25887 -3.4921 0
M  V30 3132 H 296.391 3.19717 -1.91925 0
M  V30 3133 N 298.576 1.31904 0.862503 0
M  V30 3134 C 299.523 1.20182 1.9704 0
M  V30 3135 C 300.493 0.0858247 1.65878 0
M  V30 3136 O 301.678 0.26 1.8902 0
M  V30 3137 C 298.818 0.922797 3.32533 0
M  V30 3138 C 297.931 2.12284 3.76244 0
M  V30 3139 C 297.066 1.77996 5.00491 0
M  V30 3140 C 296.105 2.94366 5.36671 0
M  V30 3141 N 295.242 2.60223 6.52095 0
M  V30 3142 H 300.082 2.14951 2.06398 0
M  V30 3143 H 297.619 1.06917 1.01031 0
M  V30 3144 H 299.577 0.741548 4.10557 0
M  V30 3145 H 298.207 0.0119227 3.22798 0
M  V30 3146 H 297.259 2.41461 2.9394 0
M  V30 3147 H 298.571 2.99357 3.98982 0
M  V30 3148 H 297.725 1.56377 5.862 0
M  V30 3149 H 296.464 0.881252 4.79672 0
M  V30 3150 H 295.469 3.16625 4.49476 0
M  V30 3151 H 296.694 3.84957 5.59451 0
M  V30 3152 H 294.64 1.72884 6.32809 0
M  V30 3153 H 294.557 3.40827 6.74814 0
M  V30 3154 H 295.825 2.42016 7.40978 0
M  V30 3155 N 300.054 -1.07777 1.14986 0
M  V30 3156 C 301.279 -1.84558 0.946213 0
M  V30 3157 C 301.704 -1.81323 -0.500362 0
M  V30 3158 O 301.062 -1.20301 -1.35637 0
M  V30 3159 C 301.11 -3.29736 1.45968 0
M  V30 3160 O 300.214 -4.07149 0.65601 0
M  V30 3161 H 299.555 -0.571641 0.33782 0
M  V30 3162 H 302.085 -1.35991 1.52865 0
M  V30 3163 H 302.095 -3.80574 1.47063 0
M  V30 3164 H 300.77 -3.31406 2.51283 0
M  V30 3165 H 299.347 -3.65994 0.714322 0
M  V30 3166 N 301.532 -0.945985 -1.26051 0
M  V30 3167 C 302.442 -0.465633 -2.29933 0
M  V30 3168 C 303.458 0.462761 -1.67733 0
M  V30 3169 O 304.634 0.341118 -1.9849 0
M  V30 3170 C 301.699 0.256994 -3.45746 0
M  V30 3171 C 300.76 -0.708549 -4.23412 0
M  V30 3172 C 299.993 -0.0203135 -5.33696 0
M  V30 3173 O 300.216 1.19571 -5.57726 0
M  V30 3174 O 299.15 -0.701459 -5.97799 0
M  V30 3175 H 302.976 -1.32866 -2.73094 0
M  V30 3176 H 300.561 -0.712071 -1.31339 0
M  V30 3177 H 302.443 0.663852 -4.16138 0
M  V30 3178 H 301.118 1.09533 -3.04605 0
M  V30 3179 H 300.025 -1.16545 -3.55483 0
M  V30 3180 H 301.358 -1.51465 -4.68315 0
M  V30 3181 N 303.011 1.40521 -0.713556 0
M  V30 3182 C 304.257 2.01221 -0.252564 0
M  V30 3183 C 304.59 1.56444 1.1506 0
M  V30 3184 O 303.865 0.783597 1.78017 0
M  V30 3185 C 304.148 3.58582 -0.330332 0
M  V30 3186 C 304.001 4.13437 -1.77173 0
M  V30 3187 C 305.32 4.39079 0.299641 0
M  V30 3188 H 302.439 0.731077 -0.0932471 0
M  V30 3189 H 305.081 1.67026 -0.905673 0
M  V30 3190 H 303.231 3.87844 0.225737 0
M  V30 3191 H 304.903 3.9498 -2.38303 0
M  V30 3192 H 303.146 3.67801 -2.3001 0
M  V30 3193 H 303.817 5.22597 -1.77755 0
M  V30 3194 H 306.293 4.15735 -0.174139 0
M  V30 3195 H 305.169 5.4848 0.214771 0
M  V30 3196 H 305.43 4.19915 1.38288 0
M  V30 3197 N 304.489 0.459591 1.5075 0
M  V30 3198 C 305.421 -0.37665 2.26084 0
M  V30 3199 C 306.434 -0.967109 1.30961 0
M  V30 3200 O 307.623 -0.857468 1.56556 0
M  V30 3201 C 304.723 -1.54112 3.01832 0
M  V30 3202 C 303.896 -1.06553 4.24223 0
M  V30 3203 C 302.955 -2.1027 4.82362 0
M  V30 3204 O 301.981 -1.68798 5.43595 0
M  V30 3205 N 303.183 -3.42974 4.68347 0
M  V30 3206 H 305.948 0.269124 2.98489 0
M  V30 3207 H 303.509 0.28972 1.59287 0
M  V30 3208 H 305.501 -2.23165 3.37608 0
M  V30 3209 H 304.071 -2.0918 2.32298 0
M  V30 3210 H 303.291 -0.201274 3.93686 0
M  V30 3211 H 304.579 -0.725516 5.03601 0
M  V30 3212 H 303.977 -3.79385 4.19623 0
M  V30 3213 H 302.534 -4.07858 5.08424 0
M  V30 3214 N 305.967 -1.56429 0.191757 0
M  V30 3215 C 307.216 -1.9666 -0.448088 0
M  V30 3216 C 307.529 -1.08136 -1.62991 0
M  V30 3217 O 308.735 -1.38135 -2.33733 0
M  V30 3218 C 307.191 -3.49753 -0.848585 0
M  V30 3219 C 306.799 -4.46935 0.308764 0
M  V30 3220 C 308.543 -3.9876 -1.4557 0
M  V30 3221 C 306.45 -5.91293 -0.112506 0
M  V30 3222 H 305.38 -0.734312 -0.171179 0
M  V30 3223 H 308.031 -1.81301 0.283242 0
M  V30 3224 H 306.413 -3.60604 -1.63649 0
M  V30 3225 H 307.587 -4.47813 1.08627 0
M  V30 3226 H 305.902 -4.08102 0.827158 0
M  V30 3227 H 308.499 -5.04086 -1.78328 0
M  V30 3228 H 308.842 -3.42875 -2.36099 0
M  V30 3229 H 309.375 -3.9101 -0.731836 0
M  V30 3230 H 306.114 -6.51097 0.758514 0
M  V30 3231 H 305.634 -5.93676 -0.854941 0
M  V30 3232 H 307.313 -6.44663 -0.549448 0
M  V30 3233 N 307.445 0.0818655 -1.57387 0
M  V30 3234 C 308.856 0.634871 -1.75574 0
M  V30 3235 C 309.207 1.78435 -0.815809 0
M  V30 3236 O 308.332 2.164 0.0025366 0
M  V30 3237 C 308.927 1.15845 -3.18379 0
M  V30 3238 C 307.486 1.65741 -3.37945 0
M  V30 3239 C 306.633 0.572549 -2.71325 0
M  V30 3240 H 309.584 -0.144268 -1.58043 0
M  V30 3241 H 309.605 2.02751 -3.21982 0
M  V30 3242 H 309.117 0.321631 -3.86765 0
M  V30 3243 H 307.218 2.51781 -2.74658 0
M  V30 3244 H 307.331 1.74129 -4.46336 0
M  V30 3245 H 305.695 1.01518 -2.33594 0
M  V30 3246 H 306.478 -0.253918 -3.4236 0
M  V30 3247 N 308.923 1.53595 0.353017 0
M  V30 3248 C 310.153 1.74058 1.11299 0
M  V30 3249 C 310.561 0.475205 1.83135 0
M  V30 3250 O 309.904 -0.562344 1.74881 0
M  V30 3251 C 309.966 2.85994 2.17825 0
M  V30 3252 C 309.63 4.25923 1.65647 0
M  V30 3253 C 310.627 5.07829 1.11383 0
M  V30 3254 C 308.312 4.72377 1.7078 0
M  V30 3255 C 310.306 6.34285 0.629439 0
M  V30 3256 C 307.993 5.98808 1.21953 0
M  V30 3257 C 308.991 6.79594 0.681265 0
M  V30 3258 O 308.679 8.03651 0.200248 0
M  V30 3259 H 308.411 0.585327 0.338183 0
M  V30 3260 H 310.965 2.01186 0.413927 0
M  V30 3261 H 309.195 2.54368 2.91262 0
M  V30 3262 H 310.884 2.94515 2.79313 0
M  V30 3263 H 311.65 4.73107 1.06746 0
M  V30 3264 H 307.529 4.0956 2.11617 0
M  V30 3265 H 311.073 6.97288 0.208636 0
M  V30 3266 H 306.97 6.33026 1.26287 0
M  V30 3267 H 307.738 8.1788 0.318416 0
M  V30 3268 N 310.401 -0.613514 1.45168 0
M  V30 3269 C 311.812 -1.19539 1.43413 0
M  V30 3270 C 312.163 -1.95558 0.158632 0
M  V30 3271 O 311.288 -2.0335 -0.740119 0
M  V30 3272 C 311.883 -2.17445 2.59813 0
M  V30 3273 C 310.442 -2.71022 2.61197 0
M  V30 3274 C 309.589 -1.46323 2.35552 0
M  V30 3275 H 312.54 -0.403163 1.53494 0
M  V30 3276 H 312.561 -3.00373 2.33574 0
M  V30 3277 H 312.073 -1.62089 3.52631 0
M  V30 3278 H 310.174 -3.30332 1.7237 0
M  V30 3279 H 310.287 -3.15859 3.60236 0
M  V30 3280 H 308.651 -1.75072 1.84992 0
M  V30 3281 H 309.434 -0.92844 3.30507 0
M  V30 3282 N 311.879 -1.3236 -0.855495 0
M  V30 3283 C 312.809 -1.23833 -1.97958 0
M  V30 3284 C 313.79 -0.122361 -1.69659 0
M  V30 3285 O 314.975 -0.30939 -1.9172 0
M  V30 3286 C 312.105 -0.959772 -3.33775 0
M  V30 3287 C 311.059 -2.03689 -3.76424 0
M  V30 3288 C 310.385 -1.61075 -5.09862 0
M  V30 3289 C 311.685 -3.4518 -3.9198 0
M  V30 3290 H 313.379 -2.1788 -2.0535 0
M  V30 3291 H 310.925 -1.04891 -0.986605 0
M  V30 3292 H 312.878 -0.886678 -4.11966 0
M  V30 3293 H 311.602 0.0163404 -3.26596 0
M  V30 3294 H 310.261 -2.10012 -3.00484 0
M  V30 3295 H 309.909 -0.622107 -4.99138 0
M  V30 3296 H 309.609 -2.33143 -5.39368 0
M  V30 3297 H 311.133 -1.55201 -5.90546 0
M  V30 3298 H 312.547 -3.4145 -4.60526 0
M  V30 3299 H 310.944 -4.1559 -4.32903 0
M  V30 3300 H 312.014 -3.84903 -2.94919 0
M  V30 3301 N 313.357 1.07166 -1.15556 0
M  V30 3302 C 314.582 1.84053 -0.955988 0
M  V30 3303 C 315.007 1.81586 0.490739 0
M  V30 3304 O 314.365 1.21018 1.34997 0
M  V30 3305 C 314.413 3.28957 -1.47714 0
M  V30 3306 O 313.517 4.06795 -0.677593 0
M  V30 3307 H 312.858 0.569842 -0.340847 0
M  V30 3308 H 315.388 1.35178 -1.53584 0
M  V30 3309 H 315.398 3.79788 -1.4908 0
M  V30 3310 H 314.073 3.30068 -2.53037 0
M  V30 3311 H 312.65 3.6561 -0.733721 0
M  V30 3312 N 314.835 0.952656 1.25548 0
M  V30 3313 C 315.745 0.47782 2.29682 0
M  V30 3314 C 316.761 -0.453859 1.67977 0
M  V30 3315 O 317.937 -0.330587 1.98668 0
M  V30 3316 C 315.002 -0.238655 3.45878 0
M  V30 3317 C 314.063 0.730994 4.23031 0
M  V30 3318 C 313.296 0.0486165 5.33678 0
M  V30 3319 O 313.519 -1.16612 5.58353 0
M  V30 3320 O 312.453 0.733152 5.97418 0
M  V30 3321 H 316.279 1.34312 2.72386 0
M  V30 3322 H 313.864 0.719026 1.30959 0
M  V30 3323 H 315.746 -0.641774 4.16484 0
M  V30 3324 H 314.421 -1.07916 3.05181 0
M  V30 3325 H 313.328 1.18428 3.5486 0
M  V30 3326 H 314.661 1.53946 4.67506 0
M  V30 3327 N 316.313 -1.40141 0.720998 0
M  V30 3328 C 317.261 -2.3252 0.0608547 0
M  V30 3329 C 318.255 -1.52326 -0.741152 0
M  V30 3330 O 319.461 -1.68089 -0.643911 0
M  V30 3331 H 315.836 -0.751999 0.000876664 0
M  V30 3332 H 317.807 -2.8584 0.856614 0
M  V30 3333 C 316.556 -3.37331 -0.842809 0
M  V30 3334 H 315.879 -3.99108 -0.235084 0
M  V30 3335 H 317.319 -4.04452 -1.27257 0
M  V30 3336 C 315.778 -2.73246 -1.97074 0
M  V30 3337 O 316.308 -2.59998 -3.06209 0
M  V30 3338 N 314.514 -2.31547 -1.75597 0
M  V30 3339 H 314.061 -2.42522 -0.868368 0
M  V30 3340 H 314.019 -1.89007 -2.51244 0
M  V30 3341 N 317.792 -0.46758 -1.50504 0
M  V30 3342 C 318.74 0.342482 -2.30065 0
M  V30 3343 C 319.734 0.993596 -1.37201 0
M  V30 3344 O 320.94 0.925102 -1.54408 0
M  V30 3345 H 317.315 0.129283 -0.740803 0
M  V30 3346 H 319.286 -0.34899 -2.96352 0
M  V30 3347 C 318.035 1.4139 -3.17654 0
M  V30 3348 H 317.358 0.922264 -3.89017 0
M  V30 3349 H 318.798 1.95335 -3.76325 0
M  V30 3350 C 317.257 2.4139 -2.35016 0
M  V30 3351 O 317.787 3.46586 -2.03079 0
M  V30 3352 N 315.993 2.13021 -1.97662 0
M  V30 3353 H 315.54 1.27499 -2.23834 0
M  V30 3354 H 315.498 2.80164 -1.42673 0
M  V30 3355 N 319.27 1.56325 -0.20005 0
M  V30 3356 C 320.202 2.16555 0.750771 0
M  V30 3357 C 321.215 1.12871 1.1732 0
M  V30 3358 O 322.404 1.39943 1.10807 0
M  V30 3359 C 319.504 2.71684 2.02586 0
M  V30 3360 C 318.677 4.00321 1.76244 0
M  V30 3361 C 317.736 4.40227 2.88248 0
M  V30 3362 O 316.762 5.07552 2.57642 0
M  V30 3363 N 317.964 4.04138 4.16717 0
M  V30 3364 H 320.729 2.98772 0.235685 0
M  V30 3365 H 318.29 1.6189 -0.0182594 0
M  V30 3366 H 320.282 2.95363 2.76664 0
M  V30 3367 H 318.852 1.93893 2.45202 0
M  V30 3368 H 318.072 3.84723 0.85919 0
M  V30 3369 H 319.36 4.84279 1.56048 0
M  V30 3370 H 318.758 3.49993 4.44434 0
M  V30 3371 H 317.315 4.32756 4.87407 0
M  V30 3372 N 320.748 -0.0735177 1.57428 0
M  V30 3373 C 321.994 -0.774145 1.87443 0
M  V30 3374 C 322.327 -1.77311 0.792103 0
M  V30 3375 O 321.602 -1.93492 -0.197793 0
M  V30 3376 C 321.885 -1.48367 3.28115 0
M  V30 3377 C 321.738 -0.501227 4.46999 0
M  V30 3378 C 323.057 -2.429 3.66998 0
M  V30 3379 H 320.176 -0.279971 0.681752 0
M  V30 3380 H 322.818 -0.0373616 1.89963 0
M  V30 3381 H 320.968 -2.11171 3.26097 0
M  V30 3382 H 322.64 0.121468 4.6114 0
M  V30 3383 H 320.883 0.183593 4.33411 0
M  V30 3384 H 321.554 -1.03526 5.42205 0
M  V30 3385 H 324.03 -1.90175 3.70098 0
M  V30 3386 H 322.906 -2.89549 4.66318 0
M  V30 3387 H 323.167 -3.27628 2.96837 0
M  V30 3388 N 322.226 -1.5378 -0.344866 0
M  V30 3389 C 323.158 -1.77988 -1.44406 0
M  V30 3390 C 324.171 -0.661138 -1.48771 0
M  V30 3391 O 325.36 -0.937842 -1.51877 0
M  V30 3392 C 322.46 -1.86345 -2.8307 0
M  V30 3393 C 321.633 -3.16256 -3.0216 0
M  V30 3394 C 320.692 -3.15588 -4.21059 0
M  V30 3395 O 319.718 -3.89314 -4.15239 0
M  V30 3396 N 320.92 -2.37864 -5.29529 0
M  V30 3397 H 323.685 -2.72839 -1.24012 0
M  V30 3398 H 321.246 -1.52814 -0.534737 0
M  V30 3399 H 323.238 -1.83351 -3.60783 0
M  V30 3400 H 321.808 -0.986858 -2.96614 0
M  V30 3401 H 321.028 -3.32385 -2.11929 0
M  V30 3402 H 322.316 -4.0207 -3.11797 0
M  V30 3403 H 321.714 -1.77514 -5.37127 0
M  V30 3404 H 320.271 -2.40668 -6.05741 0
M  V30 3405 N 323.704 0.605807 -1.45491 0
M  V30 3406 C 324.929 1.39625 -1.53361 0
M  V30 3407 C 325.354 1.87351 -0.167645 0
M  V30 3408 O 324.712 1.60243 0.848051 0
M  V30 3409 C 324.76 2.57559 -2.5238 0
M  V30 3410 O 323.864 3.58248 -2.04285 0
M  V30 3411 H 323.205 0.416771 -0.516912 0
M  V30 3412 H 325.735 0.737103 -1.90861 0
M  V30 3413 H 325.745 3.0478 -2.71244 0
M  V30 3414 H 324.42 2.22171 -3.51586 0
M  V30 3415 H 322.997 3.17664 -1.95305 0
M  V30 3416 N 325.182 1.32811 0.848464 0
M  V30 3417 C 326.43 1.23479 1.59991 0
M  V30 3418 C 326.751 -0.201853 1.93952 0
M  V30 3419 O 326.021 -1.12818 1.60153 0
M  V30 3420 H 324.601 0.454034 0.593179 0
M  V30 3421 H 327.263 1.66412 1.01455 0
M  V30 3422 H 326.359 1.82178 2.53412 0
M  V30 3423 N 326.66 -1.06551 1.16123 0
M  V30 3424 C 328.076 -1.3142 0.905585 0
M  V30 3425 C 328.276 -1.96571 -0.442964 0
M  V30 3426 O 327.332 -2.23068 -1.18308 0
M  V30 3427 C 328.645 -2.19741 2.05267 0
M  V30 3428 C 330.193 -2.33165 2.08813 0
M  V30 3429 C 330.668 -3.24838 3.22868 0
M  V30 3430 N 332.159 -3.32421 3.22568 0
M  V30 3431 C 332.894 -4.0344 4.0746 0
M  V30 3432 N 332.39 -4.77003 5.02434 0
M  V30 3433 N 334.183 -3.99464 3.95456 0
M  V30 3434 H 326.334 -0.626548 2.02949 0
M  V30 3435 H 328.597 -0.338777 0.8854 0
M  V30 3436 H 328.303 -1.79142 3.02657 0
M  V30 3437 H 328.177 -3.20313 1.99198 0
M  V30 3438 H 330.564 -2.73013 1.12018 0
M  V30 3439 H 330.645 -1.3227 2.18948 0
M  V30 3440 H 330.289 -2.85708 4.19921 0
M  V30 3441 H 330.219 -4.25707 3.0997 0
M  V30 3442 H 332.71 -2.79994 2.53795 0
M  V30 3443 H 333.023 -5.28712 5.63634 0
M  V30 3444 H 331.368 -4.75992 5.06415 0
M  V30 3445 H 334.559 -3.4111 3.20564 0
M  V30 3446 H 334.732 -4.54544 4.61837 0
M  V30 3447 N 328.138 -0.959301 -1.25041 0
M  V30 3448 C 329.101 -0.487677 -2.23952 0
M  V30 3449 C 330.101 0.41119 -1.55454 0
M  V30 3450 O 331.291 0.207825 -1.72956 0
M  V30 3451 C 328.423 0.294807 -3.39623 0
M  V30 3452 H 329.616 -1.36198 -2.67189 0
M  V30 3453 H 327.169 -0.743042 -1.37508 0
M  V30 3454 H 327.904 1.18658 -3.01813 0
M  V30 3455 H 327.689 -0.35012 -3.90534 0
M  V30 3456 H 329.179 0.614089 -4.1306 0
M  V30 3457 N 329.616 1.39756 -0.72842 0
M  V30 3458 C 330.863 2.00645 -0.273487 0
M  V30 3459 C 331.191 1.57786 1.13727 0
M  V30 3460 O 330.446 0.794886 1.7883 0
M  V30 3461 C 330.745 3.56002 -0.315776 0
M  V30 3462 C 330.411 4.18489 -1.67863 0
M  V30 3463 C 329.073 4.3527 -2.05166 0
M  V30 3464 C 331.425 4.53219 -2.57375 0
M  V30 3465 C 328.753 4.84069 -3.31503 0
M  V30 3466 C 331.105 5.03423 -3.83077 0
M  V30 3467 C 329.769 5.18413 -4.20481 0
M  V30 3468 H 329.039 0.734211 -0.100076 0
M  V30 3469 H 331.686 1.6718 -0.933972 0
M  V30 3470 H 329.991 3.89452 0.428285 0
M  V30 3471 H 331.688 4.00963 0.0542575 0
M  V30 3472 H 328.278 4.05824 -1.37858 0
M  V30 3473 H 332.462 4.39878 -2.29827 0
M  V30 3474 H 327.718 4.93859 -3.60435 0
M  V30 3475 H 331.892 5.2927 -4.52599 0
M  V30 3476 H 329.519 5.55987 -5.18443 0
M  V30 3477 N 331.094 0.475555 1.50254 0
M  V30 3478 C 332.044 -0.335025 2.25525 0
M  V30 3479 C 333.028 -0.957625 1.29299 0
M  V30 3480 O 334.22 -0.869436 1.54175 0
M  V30 3481 C 331.349 -1.41385 3.12834 0
M  V30 3482 C 330.435 -0.798762 4.1651 0
M  V30 3483 N 330.826 0.0835815 5.05731 0
M  V30 3484 C 329.124 -1.06221 4.33166 0
M  V30 3485 C 329.825 0.433113 5.80085 0
M  V30 3486 N 328.801 -0.1928 5.43258 0
M  V30 3487 H 332.603 0.344612 2.91873 0
M  V30 3488 H 330.117 0.289986 1.5979 0
M  V30 3489 H 332.114 -2.00777 3.65368 0
M  V30 3490 H 330.774 -2.09543 2.48036 0
M  V30 3491 H 331.785 0.452715 5.15918 0
M  V30 3492 H 328.462 -1.73844 3.79585 0
M  V30 3493 H 329.852 1.15346 6.61925 0
M  V30 3494 N 332.573 -1.56217 0.208337 0
M  V30 3495 C 333.523 -2.16324 -0.720281 0
M  V30 3496 C 334.507 -1.10775 -1.16695 0
M  V30 3497 O 335.699 -1.36801 -1.12314 0
M  V30 3498 C 332.828 -2.83644 -1.93393 0
M  V30 3499 C 331.914 -3.96401 -1.50755 0
M  V30 3500 N 332.305 -4.99546 -0.792937 0
M  V30 3501 C 330.603 -4.08246 -1.79585 0
M  V30 3502 C 331.304 -5.78828 -0.577364 0
M  V30 3503 N 330.28 -5.31723 -1.1301 0
M  V30 3504 H 334.082 -2.93432 -0.165725 0
M  V30 3505 H 331.596 -1.62397 0.00906463 0
M  V30 3506 H 333.593 -3.25107 -2.60981 0
M  V30 3507 H 332.253 -2.08027 -2.49308 0
M  V30 3508 H 333.264 -5.15967 -0.447004 0
M  V30 3509 H 329.941 -3.4377 -2.36915 0
M  V30 3510 H 331.331 -6.71899 -0.00952956 0
M  V30 3511 N 334.051 0.0651679 -1.57465 0
M  V30 3512 C 335.299 0.761555 -1.87202 0
M  V30 3513 C 335.62 1.77778 -0.801243 0
M  V30 3514 O 334.89 1.95166 0.16937 0
M  V30 3515 H 333.47 0.284251 -0.690804 0
M  V30 3516 H 336.132 0.0396827 -1.9486 0
M  V30 3517 H 335.228 1.27365 -2.84929 0
M  V30 3518 N 335.529 1.53961 0.336706 0
M  V30 3519 C 336.945 1.44378 0.680241 0
M  V30 3520 C 337.145 0.606034 1.9217 0
M  V30 3521 O 336.201 0.099688 2.52303 0
M  V30 3522 C 337.514 2.87945 0.8665 0
M  V30 3523 C 339.062 2.97763 0.964682 0
M  V30 3524 C 339.537 4.42453 1.18321 0
M  V30 3525 N 341.028 4.46008 1.25025 0
M  V30 3526 C 341.763 5.55102 1.43697 0
M  V30 3527 N 341.259 6.7419 1.59498 0
M  V30 3528 N 343.052 5.42727 1.463 0
M  V30 3529 H 335.203 2.06918 -0.479455 0
M  V30 3530 H 337.466 0.935634 -0.152619 0
M  V30 3531 H 337.172 3.51691 0.0256937 0
M  V30 3532 H 337.046 3.33293 1.76623 0
M  V30 3533 H 339.433 2.34153 1.796 0
M  V30 3534 H 339.514 2.55766 0.041708 0
M  V30 3535 H 339.158 5.06645 0.356788 0
M  V30 3536 H 339.088 4.82048 2.11985 0
M  V30 3537 H 341.579 3.60196 1.14312 0
M  V30 3538 H 341.892 7.53095 1.734 0
M  V30 3539 H 340.237 6.77123 1.56621 0
M  V30 3540 H 343.428 4.48647 1.33543 0
M  V30 3541 H 343.601 6.27806 1.6051 0
M  V30 3542 N 337.007 -0.598083 1.45811 0
M  V30 3543 C 338.254 -1.35681 1.50323 0
M  V30 3544 C 338.582 -1.9393 0.148739 0
M  V30 3545 O 337.837 -1.76094 -0.853787 0
M  V30 3546 C 338.136 -2.51669 2.53766 0
M  V30 3547 C 337.802 -2.11508 3.98215 0
M  V30 3548 C 336.464 -2.0027 4.37545 0
M  V30 3549 C 338.816 -1.80308 4.89018 0
M  V30 3550 C 336.144 -1.56067 5.65562 0
M  V30 3551 C 338.496 -1.37589 6.17456 0
M  V30 3552 C 337.16 -1.24916 6.55708 0
M  V30 3553 H 336.43 -0.496492 0.550069 0
M  V30 3554 H 339.077 -0.675052 1.79207 0
M  V30 3555 H 337.382 -3.25225 2.18486 0
M  V30 3556 H 339.079 -3.09895 2.54492 0
M  V30 3557 H 335.669 -2.21185 3.67117 0
M  V30 3558 H 339.853 -1.87884 4.59362 0
M  V30 3559 H 335.109 -1.44886 5.93985 0
M  V30 3560 H 339.283 -1.12495 6.87254 0
M  V30 3561 H 336.91 -0.904386 7.54801 0
M  V30 3562 N 338.485 -1.33259 -0.841409 0
M  V30 3563 C 339.734 -1.23921 -1.59143 0
M  V30 3564 C 340.047 0.1941 -1.94635 0
M  V30 3565 O 341.253 0.409474 -2.68394 0
M  V30 3566 C 339.709 -2.17119 -2.87032 0
M  V30 3567 C 339.317 -3.65606 -2.58914 0
M  V30 3568 C 341.061 -2.16648 -3.65053 0
M  V30 3569 C 338.968 -4.50726 -3.82884 0
M  V30 3570 H 337.898 -0.460264 -0.597221 0
M  V30 3571 H 340.549 -1.58307 -0.927959 0
M  V30 3572 H 338.931 -1.75663 -3.54906 0
M  V30 3573 H 340.105 -4.15487 -1.99267 0
M  V30 3574 H 338.42 -3.68341 -1.942 0
M  V30 3575 H 341.017 -2.77474 -4.57069 0
M  V30 3576 H 341.36 -1.16088 -3.99787 0
M  V30 3577 H 341.893 -2.56453 -3.041 0
M  V30 3578 H 338.632 -5.52151 -3.53283 0
M  V30 3579 H 338.152 -4.0559 -4.41879 0
M  V30 3580 H 339.831 -4.64401 -4.50489 0
M  V30 3581 N 339.963 1.05934 -1.16686 0
M  V30 3582 C 340.896 2.1295 -0.820225 0
M  V30 3583 C 341.874 1.61242 0.209722 0
M  V30 3584 O 343.058 1.88271 0.0929688 0
M  V30 3585 C 340.185 3.3797 -0.22223 0
M  V30 3586 C 339.231 4.08488 -1.22637 0
M  V30 3587 S 340.064 4.58015 -2.77457 0
M  V30 3588 C 341.22 5.86292 -2.19117 0
M  V30 3589 H 341.453 2.42025 -1.72659 0
M  V30 3590 H 338.986 1.18423 -0.990722 0
M  V30 3591 H 340.944 4.10335 0.116322 0
M  V30 3592 H 339.605 3.07045 0.66196 0
M  V30 3593 H 338.798 4.98291 -0.756455 0
M  V30 3594 H 338.4 3.42154 -1.51019 0
M  V30 3595 H 340.692 6.59246 -1.56209 0
M  V30 3596 H 341.635 6.38019 -3.07144 0
M  V30 3597 H 342.043 5.40497 -1.62858 0
M  V30 3598 N 341.441 0.965919 1.2453 0
M  V30 3599 C 342.666 0.643971 1.97149 0
M  V30 3600 C 343.091 -0.779487 1.71189 0
M  V30 3601 O 342.449 -1.5288 0.974553 0
M  V30 3602 C 342.497 0.922557 3.48599 0
M  V30 3603 O 341.601 0.00707672 4.12399 0
M  V30 3604 H 340.942 0.243647 0.617683 0
M  V30 3605 H 343.472 1.29558 1.58353 0
M  V30 3606 H 343.482 0.853373 3.98976 0
M  V30 3607 H 342.157 1.95996 3.66822 0
M  V30 3608 H 340.734 0.12943 3.72675 0
M  V30 3609 N 342.919 -1.39368 0.735821 0
M  V30 3610 C 343.849 -2.33234 0.111506 0
M  V30 3611 C 344.83 -1.53954 -0.723334 0
M  V30 3612 O 346.015 -1.82344 -0.668147 0
M  V30 3613 C 343.145 -3.38057 -0.795917 0
M  V30 3614 C 342.099 -4.2795 -0.065172 0
M  V30 3615 C 341.425 -5.23479 -1.08967 0
M  V30 3616 C 342.725 -5.10741 1.09273 0
M  V30 3617 H 344.419 -2.85692 0.895571 0
M  V30 3618 H 341.965 -1.37364 0.432109 0
M  V30 3619 H 343.918 -4.02675 -1.24221 0
M  V30 3620 H 342.642 -2.8404 -1.61211 0
M  V30 3621 H 341.301 -3.64813 0.361511 0
M  V30 3622 H 340.949 -4.65758 -1.89944 0
M  V30 3623 H 340.649 -5.84472 -0.605489 0
M  V30 3624 H 342.173 -5.90974 -1.53565 0
M  V30 3625 H 343.587 -5.68699 0.724841 0
M  V30 3626 H 341.984 -5.8088 1.50659 0
M  V30 3627 H 343.054 -4.45525 1.91404 0
M  V30 3628 N 344.397 -0.483516 -1.5 0
M  V30 3629 C 345.813 -0.138404 -1.58999 0
M  V30 3630 C 346.013 1.35597 -1.4905 0
M  V30 3631 O 345.069 2.13039 -1.35539 0
M  V30 3632 C 346.382 -0.699658 -2.92447 0
M  V30 3633 C 347.93 -0.664195 -3.05872 0
M  V30 3634 C 348.405 -1.20321 -4.41913 0
M  V30 3635 N 349.896 -1.16315 -4.48358 0
M  V30 3636 C 350.631 -1.55058 -5.52037 0
M  V30 3637 N 350.127 -2.01311 -6.62907 0
M  V30 3638 N 351.92 -1.46584 -5.42651 0
M  V30 3639 H 344.071 -1.45529 -1.5471 0
M  V30 3640 H 346.334 -0.60258 -0.731848 0
M  V30 3641 H 346.04 -1.747 -3.05242 0
M  V30 3642 H 345.914 -0.150194 -3.76901 0
M  V30 3643 H 348.301 0.374272 -2.92717 0
M  V30 3644 H 348.382 -1.25061 -2.23144 0
M  V30 3645 H 348.026 -2.24037 -4.55818 0
M  V30 3646 H 347.956 -0.592896 -5.23252 0
M  V30 3647 H 350.447 -0.824058 -3.68806 0
M  V30 3648 H 350.76 -2.2899 -7.38095 0
M  V30 3649 H 349.105 -2.05273 -6.63994 0
M  V30 3650 H 352.296 -1.10281 -4.54924 0
M  V30 3651 H 352.469 -1.77103 -6.23329 0
M  V30 3652 N 345.875 1.56104 -0.216619 0
M  V30 3653 C 346.822 2.2007 0.695531 0
M  V30 3654 C 347.792 1.15471 1.19397 0
M  V30 3655 O 348.977 1.43807 1.25396 0
M  V30 3656 C 346.117 2.88073 1.90021 0
M  V30 3657 C 345.23 4.07253 1.44113 0
M  V30 3658 C 344.365 4.63052 2.603 0
M  V30 3659 C 343.404 5.74545 2.11103 0
M  V30 3660 N 342.541 6.24656 3.20545 0
M  V30 3661 H 347.381 2.97655 0.143327 0
M  V30 3662 H 344.918 1.46982 0.0589934 0
M  V30 3663 H 346.876 3.25681 2.60745 0
M  V30 3664 H 345.506 2.13015 2.42538 0
M  V30 3665 H 344.558 3.75164 0.628999 0
M  V30 3666 H 345.87 4.8783 1.04036 0
M  V30 3667 H 345.024 5.03078 3.39113 0
M  V30 3668 H 343.763 3.81628 3.03663 0
M  V30 3669 H 342.768 5.34027 1.3075 0
M  V30 3670 H 343.993 6.57801 1.68746 0
M  V30 3671 H 341.939 5.46148 3.63399 0
M  V30 3672 H 341.856 7.00343 2.84704 0
M  V30 3673 H 343.124 6.69338 3.99508 0
M  V30 3674 N 347.353 -0.0568162 1.57498 0
M  V30 3675 C 348.316 -1.05038 2.03715 0
M  V30 3676 C 349.316 -1.30709 0.936577 0
M  V30 3677 O 350.506 -1.26178 1.20103 0
M  V30 3678 C 347.638 -2.39034 2.43055 0
M  V30 3679 H 348.831 -0.651715 2.92733 0
M  V30 3680 H 346.384 -0.302947 1.53336 0
M  V30 3681 H 347.119 -2.83703 1.57108 0
M  V30 3682 H 346.904 -2.21739 3.2338 0
M  V30 3683 H 348.394 -3.10421 2.79336 0
M  V30 3684 N 348.832 -1.54138 -0.328536 0
M  V30 3685 C 349.795 -1.82462 -1.38709 0
M  V30 3686 C 350.795 -0.696229 -1.44946 0
M  V30 3687 O 351.985 -0.964535 -1.4506 0
M  V30 3688 C 349.117 -1.98018 -2.77492 0
M  V30 3689 H 350.31 -2.77037 -1.14851 0
M  V30 3690 H 347.863 -1.45779 -0.563751 0
M  V30 3691 H 348.598 -1.05637 -3.06613 0
M  V30 3692 H 348.383 -2.80124 -2.74359 0
M  V30 3693 H 349.873 -2.21396 -3.54081 0
M  V30 3694 N 350.31 0.590341 -1.46126 0
M  V30 3695 C 351.243 1.71434 -1.50617 0
M  V30 3696 C 352.221 1.58543 -0.360948 0
M  V30 3697 O 353.405 1.79865 -0.563985 0
M  V30 3698 C 350.532 3.09422 -1.37753 0
M  V30 3699 C 349.578 3.40854 -2.5636 0
M  V30 3700 S 350.411 3.33773 -4.18755 0
M  V30 3701 C 351.567 4.74312 -4.08386 0
M  V30 3702 H 351.8 1.67364 -2.45717 0
M  V30 3703 H 349.333 0.76845 -1.33919 0
M  V30 3704 H 351.291 3.8903 -1.31018 0
M  V30 3705 H 349.952 3.10989 -0.440949 0
M  V30 3706 H 349.145 4.41368 -2.43332 0
M  V30 3707 H 348.747 2.68798 -2.60046 0
M  V30 3708 H 351.039 5.64522 -3.74595 0
M  V30 3709 H 351.982 4.92397 -5.08872 0
M  V30 3710 H 352.39 4.50803 -3.3976 0
M  V30 3711 N 351.788 1.33704 0.83433 0
M  V30 3712 C 352.751 1.24244 1.92603 0
M  V30 3713 C 353.751 0.160383 1.59998 0
M  V30 3714 O 354.941 0.412228 1.69252 0
M  V30 3715 C 352.073 0.91555 3.28376 0
M  V30 3716 H 353.266 2.21287 2.02416 0
M  V30 3717 H 350.819 1.17827 1.02696 0
M  V30 3718 H 351.554 -0.0521886 3.24258 0
M  V30 3719 H 351.339 1.69811 3.53422 0
M  V30 3720 H 352.829 0.874231 4.08347 0
M  V30 3721 N 353.266 -1.05314 1.17247 0
M  V30 3722 C 354.176 -2.16538 0.90268 0
M  V30 3723 C 355.192 -1.73523 -0.128707 0
M  V30 3724 O 356.368 -2.01337 0.0502701 0
M  V30 3725 C 353.433 -3.44167 0.418356 0
M  V30 3726 C 352.494 -4.01635 1.51618 0
M  V30 3727 C 351.727 -5.23171 1.05487 0
M  V30 3728 O 351.95 -5.70327 -0.0914715 0
M  V30 3729 O 350.884 -5.72848 1.8474 0
M  V30 3730 H 354.71 -2.42145 1.83302 0
M  V30 3731 H 352.295 -1.15037 0.953246 0
M  V30 3732 H 354.177 -4.21112 0.155726 0
M  V30 3733 H 352.852 -3.20063 -0.48385 0
M  V30 3734 H 351.759 -3.26135 1.83268 0
M  V30 3735 H 353.092 -4.30053 2.39405 0
M  V30 3736 N 354.744 -0.972509 -1.24016 0
M  V30 3737 C 356.155 -0.67517 -1.74064 0
M  V30 3738 C 356.506 0.808939 -1.78747 0
M  V30 3739 O 355.631 1.63286 -1.42009 0
M  V30 3740 C 356.226 -1.21889 -3.16115 0
M  V30 3741 C 354.785 -0.971358 -3.6365 0
M  V30 3742 C 353.932 -1.35134 -2.42145 0
M  V30 3743 H 356.883 -1.14727 -1.09651 0
M  V30 3744 H 356.904 -0.587489 -3.75937 0
M  V30 3745 H 356.416 -2.29906 -3.12674 0
M  V30 3746 H 354.517 0.0930686 -3.72484 0
M  V30 3747 H 354.63 -1.62039 -4.50866 0
M  V30 3748 H 352.994 -0.769751 -2.4279 0
M  V30 3749 H 353.777 -2.4411 -2.41381 0
M  V30 3750 N 356.222 1.38976 -0.743202 0
M  V30 3751 C 357.17 2.32394 -0.0978389 0
M  V30 3752 C 358.164 1.53486 0.716824 0
M  V30 3753 O 359.37 1.69092 0.617088 0
M  V30 3754 H 355.745 0.75189 -0.0128402 0
M  V30 3755 H 357.716 2.84441 -0.901981 0
M  V30 3756 C 356.465 3.38629 0.789036 0
M  V30 3757 H 355.788 3.99432 0.171559 0
M  V30 3758 H 357.228 4.06426 1.20807 0
M  V30 3759 C 355.687 2.76347 1.92702 0
M  V30 3760 O 356.217 2.64836 3.02034 0
M  V30 3761 N 354.423 2.34311 1.71891 0
M  V30 3762 H 353.97 2.43873 0.829675 0
M  V30 3763 H 353.928 1.9298 2.48205 0
M  V30 3764 N 357.7 0.491464 1.49741 0
M  V30 3765 C 358.663 -0.280906 2.27472 0
M  V30 3766 C 359.663 -0.902454 1.33088 0
M  V30 3767 O 360.853 -0.768465 1.56334 0
M  V30 3768 C 357.985 -1.40209 3.10732 0
M  V30 3769 H 359.178 0.401056 2.97206 0
M  V30 3770 H 356.731 0.246131 1.5435 0
M  V30 3771 H 357.466 -2.11849 2.45541 0
M  V30 3772 H 357.251 -0.961969 3.80117 0
M  V30 3773 H 358.741 -1.9464 3.69466 0
M  V30 3774 N 359.178 -1.55987 0.224894 0
M  V30 3775 C 360.125 -2.20436 -0.68385 0
M  V30 3776 C 361.095 -1.16102 -1.18783 0
M  V30 3777 O 362.28 -1.4447 -1.24632 0
M  V30 3778 C 359.42 -2.89076 -1.88491 0
M  V30 3779 C 358.533 -4.08012 -1.41951 0
M  V30 3780 C 357.668 -4.64426 -2.5784 0
M  V30 3781 C 356.707 -5.75656 -2.08053 0
M  V30 3782 N 355.844 -6.26347 -3.17227 0
M  V30 3783 H 360.684 -2.97727 -0.12754 0
M  V30 3784 H 358.221 -1.47011 -0.0511978 0
M  V30 3785 H 360.179 -3.27059 -2.59014 0
M  V30 3786 H 358.809 -2.14298 -2.41405 0
M  V30 3787 H 357.861 -3.75492 -0.609095 0
M  V30 3788 H 359.173 -4.88375 -1.01447 0
M  V30 3789 H 358.327 -5.04869 -3.3644 0
M  V30 3790 H 357.066 -3.83233 -3.01635 0
M  V30 3791 H 356.071 -5.34712 -1.27916 0
M  V30 3792 H 357.296 -6.58686 -1.65255 0
M  V30 3793 H 355.242 -5.48067 -3.60497 0
M  V30 3794 H 355.159 -7.01843 -2.80986 0
M  V30 3795 H 356.427 -6.71447 -3.95953 0
M  V30 3796 N 360.656 0.0484629 -1.57525 0
M  V30 3797 C 361.903 0.743125 -1.88372 0
M  V30 3798 C 362.231 1.76383 -0.819715 0
M  V30 3799 O 361.486 1.94855 0.181659 0
M  V30 3800 C 361.785 1.46632 -3.25935 0
M  V30 3801 C 361.451 0.583427 -4.4711 0
M  V30 3802 C 360.113 0.340191 -4.79996 0
M  V30 3803 C 362.465 -0.0273345 -5.21193 0
M  V30 3804 C 359.793 -0.522903 -5.84365 0
M  V30 3805 C 362.145 -0.878017 -6.26477 0
M  V30 3806 C 360.809 -1.1309 -6.5785 0
M  V30 3807 H 360.079 0.271929 -0.689301 0
M  V30 3808 H 362.726 0.00336166 -1.915 0
M  V30 3809 H 361.031 2.2789 -3.18706 0
M  V30 3810 H 362.728 2.00902 -3.47044 0
M  V30 3811 H 359.318 0.783151 -4.21384 0
M  V30 3812 H 363.502 0.147654 -4.9608 0
M  V30 3813 H 358.758 -0.727335 -6.07058 0
M  V30 3814 H 362.932 -1.35789 -6.83033 0
M  V30 3815 H 360.559 -1.80144 -7.38547 0
M  V30 3816 N 362.134 1.5431 0.320358 0
M  V30 3817 C 363.383 1.7188 1.05546 0
M  V30 3818 C 363.696 0.501143 1.89071 0
M  V30 3819 O 364.902 0.558258 2.65699 0
M  V30 3820 C 363.358 3.04025 1.92605 0
M  V30 3821 C 362.966 4.33207 1.14176 0
M  V30 3822 C 364.71 3.30959 2.65832 0
M  V30 3823 C 362.617 5.56412 2.00399 0
M  V30 3824 H 361.547 0.640547 0.397763 0
M  V30 3825 H 364.198 1.80802 0.313522 0
M  V30 3826 H 362.58 2.89019 2.7071 0
M  V30 3827 H 363.754 4.58989 0.40819 0
M  V30 3828 H 362.069 4.13062 0.526165 0
M  V30 3829 H 364.666 4.20203 3.30656 0
M  V30 3830 H 365.009 2.48979 3.33639 0
M  V30 3831 H 365.542 3.46847 1.94787 0
M  V30 3832 H 362.281 6.41004 1.37094 0
M  V30 3833 H 361.801 5.34844 2.7148 0
M  V30 3834 H 363.48 5.92938 2.58908 0
M  V30 3835 N 363.613 -0.582584 1.46437 0
M  V30 3836 C 364.523 -1.71949 1.59595 0
M  V30 3837 C 365.539 -1.67264 0.479443 0
M  V30 3838 O 366.715 -1.87171 0.743579 0
M  V30 3839 C 363.78 -3.08452 1.58298 0
M  V30 3840 C 362.841 -3.244 2.81182 0
M  V30 3841 C 362.074 -4.54391 2.79937 0
M  V30 3842 O 362.297 -5.38287 1.8869 0
M  V30 3843 O 361.231 -4.73588 3.71481 0
M  V30 3844 H 365.057 -1.63795 2.55744 0
M  V30 3845 H 362.642 -0.749643 1.29231 0
M  V30 3846 H 364.524 -3.89732 1.60271 0
M  V30 3847 H 363.199 -3.17043 0.653094 0
M  V30 3848 H 362.106 -2.42613 2.84763 0
M  V30 3849 H 363.439 -3.20699 3.7338 0
M  V30 3850 N 365.091 -1.34144 -0.827227 0
M  V30 3851 C 366.339 -1.26009 -1.58007 0
M  V30 3852 C 366.66 0.170971 -1.94249 0
M  V30 3853 O 365.93 1.10256 -1.61927 0
M  V30 3854 H 364.51 -0.463414 -0.585881 0
M  V30 3855 H 367.172 -1.68005 -0.987951 0
M  V30 3856 H 366.268 -1.86187 -2.50481 0
M  V30 3857 N 366.569 1.04691 -1.17803 0
M  V30 3858 C 367.815 1.78045 -0.970969 0
M  V30 3859 C 368.148 1.87686 0.498751 0
M  V30 3860 O 367.423 1.38035 1.37027 0
M  V30 3861 C 367.706 3.2166 -1.61884 0
M  V30 3862 C 367.559 3.20001 -3.161 0
M  V30 3863 C 368.878 4.1962 -1.3269 0
M  V30 3864 H 365.997 0.64633 -0.354155 0
M  V30 3865 H 368.639 1.22333 -1.45378 0
M  V30 3866 H 366.789 3.69232 -1.20831 0
M  V30 3867 H 368.461 2.80467 -3.66246 0
M  V30 3868 H 366.704 2.58203 -3.48588 0
M  V30 3869 H 367.375 4.21386 -3.56564 0
M  V30 3870 H 369.851 3.80567 -1.68249 0
M  V30 3871 H 368.727 5.18339 -1.80599 0
M  V30 3872 H 368.988 4.414 -0.248622 0
M  V30 3873 N 368.047 0.979072 1.23499 0
M  V30 3874 C 369.293 0.648178 1.92163 0
M  V30 3875 C 369.626 -0.816049 1.76222 0
M  V30 3876 O 368.901 -1.58849 1.12237 0
M  V30 3877 C 369.184 1.03773 3.44824 0
M  V30 3878 C 369.037 2.55948 3.69879 0
M  V30 3879 C 370.356 0.580653 4.36253 0
M  V30 3880 H 367.475 0.236952 0.69787 0
M  V30 3881 H 370.117 1.22012 1.45647 0
M  V30 3882 H 368.267 0.551058 3.84572 0
M  V30 3883 H 369.939 3.12179 3.3962 0
M  V30 3884 H 368.182 2.98641 3.14636 0
M  V30 3885 H 368.853 2.78255 4.76737 0
M  V30 3886 H 371.329 0.998465 4.03943 0
M  V30 3887 H 370.205 0.881663 5.41773 0
M  V30 3888 H 370.466 -0.519052 4.39042 0
M  V30 3889 N 369.525 -1.3858 0.750561 0
M  V30 3890 C 370.455 -2.33102 0.136237 0
M  V30 3891 C 371.436 -1.54713 -0.706965 0
M  V30 3892 O 372.621 -1.83043 -0.648769 0
M  V30 3893 C 369.751 -3.38882 -0.760017 0
M  V30 3894 C 368.705 -4.27995 -0.0197785 0
M  V30 3895 C 368.031 -5.24605 -1.03408 0
M  V30 3896 C 369.331 -5.09554 1.14684 0
M  V30 3897 H 371.025 -2.84726 0.925822 0
M  V30 3898 H 368.571 -1.36898 0.446654 0
M  V30 3899 H 370.524 -4.0397 -1.19943 0
M  V30 3900 H 369.248 -2.85734 -1.58189 0
M  V30 3901 H 367.907 -3.64409 0.400184 0
M  V30 3902 H 367.555 -4.67746 -1.84994 0
M  V30 3903 H 367.255 -5.85081 -0.543464 0
M  V30 3904 H 368.779 -5.9257 -1.47288 0
M  V30 3905 H 370.193 -5.67899 0.785118 0
M  V30 3906 H 368.59 -5.7925 1.56812 0
M  V30 3907 H 369.66 -4.4347 1.96118 0
M  V30 3908 N 371.003 -0.499398 -1.49478 0
M  V30 3909 C 371.935 0.316575 -2.27003 0
M  V30 3910 C 372.948 0.932047 -1.33479 0
M  V30 3911 O 374.137 0.815658 -1.58774 0
M  V30 3912 C 371.237 1.46055 -3.05812 0
M  V30 3913 C 370.41 0.952679 -4.26899 0
M  V30 3914 C 369.469 1.97407 -4.87767 0
M  V30 3915 O 368.495 1.54326 -5.4788 0
M  V30 3916 N 369.697 3.30436 -4.77276 0
M  V30 3917 H 372.462 -0.348168 -2.97671 0
M  V30 3918 H 370.023 -0.33185 -1.58463 0
M  V30 3919 H 372.015 2.14135 -3.43407 0
M  V30 3920 H 370.585 2.02948 -2.37762 0
M  V30 3921 H 369.805 0.0968248 -3.94081 0
M  V30 3922 H 371.093 0.59174 -5.05347 0
M  V30 3923 H 370.491 3.68126 -4.29534 0
M  V30 3924 H 369.048 3.94235 -5.19059 0
M  V30 3925 N 372.481 1.55866 -0.233164 0
M  V30 3926 C 373.411 2.23783 0.666599 0
M  V30 3927 C 374.392 1.21343 1.19205 0
M  V30 3928 O 375.577 1.4996 1.23392 0
M  V30 3929 C 372.707 2.92671 1.86978 0
M  V30 3930 C 371.661 4.01682 1.47768 0
M  V30 3931 C 370.987 4.57926 2.76058 0
M  V30 3932 C 372.287 5.18126 0.658993 0
M  V30 3933 H 373.981 2.99232 0.100306 0
M  V30 3934 H 371.527 1.43924 0.046804 0
M  V30 3935 H 373.48 3.3888 2.50476 0
M  V30 3936 H 372.204 2.14688 2.46123 0
M  V30 3937 H 370.863 3.56222 0.866106 0
M  V30 3938 H 370.511 3.76659 3.33372 0
M  V30 3939 H 370.211 5.31505 2.50552 0
M  V30 3940 H 371.735 5.06859 3.40479 0
M  V30 3941 H 373.149 5.60644 1.19795 0
M  V30 3942 H 371.546 5.98009 0.500552 0
M  V30 3943 H 372.616 4.83763 -0.331856 0
M  V30 3944 N 373.959 -0.0401083 1.57549 0
M  V30 3945 C 374.889 -1.04384 2.08869 0
M  V30 3946 C 375.87 -1.38407 0.988817 0
M  V30 3947 O 377.055 -1.47483 1.26342 0
M  V30 3948 C 374.185 -2.34808 2.55895 0
M  V30 3949 C 373.139 -2.15057 3.70047 0
M  V30 3950 C 372.465 -3.51145 4.03239 0
M  V30 3951 C 373.765 -1.54576 4.98902 0
M  V30 3952 H 375.459 -0.616666 2.92981 0
M  V30 3953 H 373.005 -0.295184 1.40942 0
M  V30 3954 H 374.958 -3.05346 2.90417 0
M  V30 3955 H 373.682 -2.79565 1.68853 0
M  V30 3956 H 372.341 -1.46954 3.35857 0
M  V30 3957 H 371.989 -3.93529 3.13279 0
M  V30 3958 H 371.689 -3.38758 4.80122 0
M  V30 3959 H 373.213 -4.23062 4.40285 0
M  V30 3960 H 374.627 -2.15017 5.31451 0
M  V30 3961 H 373.024 -1.52796 5.80322 0
M  V30 3962 H 374.094 -0.51039 4.82206 0
M  V30 3963 N 375.437 -1.54477 -0.31217 0
M  V30 3964 C 376.347 -1.87695 -1.4074 0
M  V30 3965 C 377.363 -0.769975 -1.56036 0
M  V30 3966 O 378.539 -1.06537 -1.70915 0
M  V30 3967 C 375.604 -2.10755 -2.75287 0
M  V30 3968 C 374.665 -3.34514 -2.69071 0
M  V30 3969 C 373.898 -3.56465 -3.97201 0
M  V30 3970 O 374.121 -2.81637 -4.96021 0
M  V30 3971 O 373.055 -4.49964 -3.9977 0
M  V30 3972 H 376.881 -2.80849 -1.15574 0
M  V30 3973 H 374.466 -1.40526 -0.507228 0
M  V30 3974 H 376.348 -2.27188 -3.54913 0
M  V30 3975 H 375.023 -1.20788 -3.0032 0
M  V30 3976 H 373.93 -3.23456 -1.87955 0
M  V30 3977 H 375.263 -4.24575 -2.48992 0
M  V30 3978 N 376.915 0.57481 -1.46744 0
M  V30 3979 C 377.825 1.711 -1.60505 0
M  V30 3980 C 378.841 1.67008 -0.488307 0
M  V30 3981 O 380.017 1.86774 -0.753495 0
M  V30 3982 C 377.082 3.07608 -1.59932 0
M  V30 3983 C 376.143 3.22904 -2.82898 0
M  V30 3984 C 375.376 4.529 -2.82343 0
M  V30 3985 O 375.599 5.37278 -1.91542 0
M  V30 3986 O 374.533 4.71611 -3.73987 0
M  V30 3987 H 378.359 1.62436 -2.56609 0
M  V30 3988 H 375.944 0.742779 -1.29627 0
M  V30 3989 H 377.826 3.88877 -1.62336 0
M  V30 3990 H 376.501 3.16692 -0.669898 0
M  V30 3991 H 375.408 2.41099 -2.86046 0
M  V30 3992 H 376.741 3.18715 -3.75076 0
M  V30 3993 N 378.394 1.34581 0.820102 0
M  V30 3994 C 379.671 1.17675 1.56244 0
M  V30 3995 C 380.051 -0.249541 2.0962 0
M  V30 3996 O 379.399 -1.25125 1.91196 0
M  V30 3997 C 379.609 2.23364 2.6816 0
M  V30 3998 C 380.957 2.58485 3.36854 0
M  V30 3999 O 381.981 2.22175 2.78418 0
M  V30 4000 O 380.84 3.20868 4.42386 0
M  V30 4001 H 377.934 0.456333 0.689702 0
M  V30 4002 H 380.48 1.46222 0.861231 0
M  V30 4003 H 379.252 3.19087 2.26493 0
M  V30 4004 H 378.875 1.96009 3.45928 0
M  V30 4005 N 379.872 -1.04064 1.18357 0
M  V30 4006 C 381.149 -1.74252 0.888581 0
M  V30 4007 C 381.529 -2.02138 -0.60856 0
M  V30 4008 O 380.877 -1.66656 -1.56327 0
M  V30 4009 C 381.087 -3.0277 1.73584 0
M  V30 4010 C 382.435 -3.76506 1.96286 0
M  V30 4011 O 383.459 -3.12668 1.70637 0
M  V30 4012 O 382.318 -4.91243 2.39464 0
M  V30 4013 H 379.412 -0.758271 0.330082 0
M  V30 4014 H 381.958 -1.1013 1.2911 0
M  V30 4015 H 380.73 -2.78299 2.75073 0
M  V30 4016 H 380.353 -3.74631 1.33183 0
M  V30 4017 N 381.35 -0.985608 -1.22978 0
M  V30 4018 C 382.596 -0.65836 -1.91816 0
M  V30 4019 C 382.929 0.806692 -1.76653 0
M  V30 4020 O 382.204 1.58252 -1.13078 0
M  V30 4021 C 382.487 -1.056 -3.44268 0
M  V30 4022 C 382.34 -2.57906 -3.68516 0
M  V30 4023 C 383.659 -0.603781 -4.35939 0
M  V30 4024 H 380.778 -0.24065 -0.696604 0
M  V30 4025 H 383.42 -1.22783 -1.44998 0
M  V30 4026 H 381.57 -0.571445 -3.84274 0
M  V30 4027 H 383.242 -3.13976 -3.3796 0
M  V30 4028 H 381.485 -3.00305 -3.13048 0
M  V30 4029 H 382.156 -2.80779 -4.75255 0
M  V30 4030 H 384.632 -1.01987 -4.03408 0
M  V30 4031 H 383.508 -0.910383 -5.41298 0
M  V30 4032 H 383.769 0.495761 -4.39312 0
M  V30 4033 N 382.828 1.3818 -0.7579 0
M  V30 4034 C 384.074 2.00316 -0.316453 0
M  V30 4035 C 384.407 1.60026 1.10025 0
M  V30 4036 O 383.682 0.839835 1.75434 0
M  V30 4037 C 383.965 3.57349 -0.444245 0
M  V30 4038 C 383.818 4.07591 -1.90236 0
M  V30 4039 C 385.137 4.3981 0.1598 0
M  V30 4040 H 382.256 0.727741 -0.116459 0
M  V30 4041 H 384.898 1.6406 -0.958352 0
M  V30 4042 H 383.048 3.88365 0.102233 0
M  V30 4043 H 384.72 3.87199 -2.50748 0
M  V30 4044 H 382.963 3.60297 -2.41595 0
M  V30 4045 H 383.634 5.16677 -1.94291 0
M  V30 4046 H 386.11 4.14971 -0.306314 0
M  V30 4047 H 384.986 5.48885 0.0401675 0
M  V30 4048 H 385.247 4.24102 1.24859 0
M  V30 4049 N 384.306 0.507319 1.49211 0
M  V30 4050 C 385.239 -0.314509 2.26022 0
M  V30 4051 C 386.217 -0.964849 1.30879 0
M  V30 4052 O 387.401 -0.993707 1.6018 0
M  V30 4053 C 384.528 -1.44346 3.06402 0
M  V30 4054 C 383.574 -0.90685 4.16748 0
M  V30 4055 S 384.407 0.207392 5.35098 0
M  V30 4056 C 385.563 -0.924573 6.19033 0
M  V30 4057 H 385.796 0.337416 2.95379 0
M  V30 4058 H 383.329 0.292718 1.516 0
M  V30 4059 H 385.287 -2.09029 3.53295 0
M  V30 4060 H 383.948 -2.06702 2.36502 0
M  V30 4061 H 383.141 -1.75309 4.72528 0
M  V30 4062 H 382.743 -0.33712 3.72478 0
M  V30 4063 H 385.035 -1.82839 6.52362 0
M  V30 4064 H 385.978 -0.405248 7.06939 0
M  V30 4065 H 386.386 -1.19476 5.51712 0
M  V30 4066 N 385.784 -1.5574 0.241426 0
M  V30 4067 C 387.032 -1.98417 -0.384075 0
M  V30 4068 C 387.353 -1.13078 -1.58866 0
M  V30 4069 O 386.623 -0.212312 -1.94746 0
M  V30 4070 H 385.203 -0.732813 -0.144894 0
M  V30 4071 H 387.865 -1.9193 0.338943 0
M  V30 4072 H 386.961 -3.04219 -0.696939 0
M  V30 4073 N 387.262 0.0317525 -1.57568 0
M  V30 4074 C 388.508 0.724175 -1.8943 0
M  V30 4075 C 388.841 1.75149 -0.838836 0
M  V30 4076 O 388.116 1.93948 0.146422 0
M  V30 4077 C 388.399 1.39615 -3.31933 0
M  V30 4078 C 388.252 0.382537 -4.4817 0
M  V30 4079 C 389.571 2.33084 -3.73309 0
M  V30 4080 H 386.69 0.261797 -0.688935 0
M  V30 4081 H 389.332 -0.013017 -1.89996 0
M  V30 4082 H 387.482 2.02451 -3.31581 0
M  V30 4083 H 389.154 -0.243689 -4.60656 0
M  V30 4084 H 387.397 -0.29844 -4.32772 0
M  V30 4085 H 388.068 0.891145 -5.44759 0
M  V30 4086 H 390.544 1.80295 -3.7501 0
M  V30 4087 H 389.42 2.77084 -4.73831 0
M  V30 4088 H 389.681 3.19643 -3.05419 0
M  V30 4089 N 388.74 1.54641 0.303973 0
M  V30 4090 C 389.672 1.81754 1.39636 0
M  V30 4091 C 390.685 0.70035 1.46966 0
M  V30 4092 O 391.874 0.97778 1.49338 0
M  V30 4093 C 388.974 1.93785 2.7803 0
M  V30 4094 C 388.147 3.24156 2.93669 0
M  V30 4095 C 387.206 3.26641 4.12544 0
M  V30 4096 O 386.232 4.00187 4.04771 0
M  V30 4097 N 387.434 2.5182 5.23036 0
M  V30 4098 H 390.199 2.76031 1.16734 0
M  V30 4099 H 387.76 1.54178 0.494033 0
M  V30 4100 H 389.752 1.92852 3.55795 0
M  V30 4101 H 388.322 1.06515 2.93893 0
M  V30 4102 H 387.542 3.37887 2.03042 0
M  V30 4103 H 388.83 4.10195 3.01027 0
M  V30 4104 H 388.228 1.91692 5.32232 0
M  V30 4105 H 386.785 2.56644 5.99147 0
M  V30 4106 N 390.218 -0.567019 1.47046 0
M  V30 4107 C 391.448 -1.34831 1.56538 0
M  V30 4108 C 391.856 -1.8802 0.21101 0
M  V30 4109 O 391.199 -1.65152 -0.804387 0
M  V30 4110 C 391.261 -2.56139 2.52256 0
M  V30 4111 C 390.925 -2.24307 3.98165 0
M  V30 4112 C 391.922 -1.82192 4.86931 0
M  V30 4113 C 389.607 -2.35968 4.43423 0
M  V30 4114 C 391.601 -1.52153 6.18973 0
M  V30 4115 C 389.288 -2.05542 5.75496 0
M  V30 4116 C 390.286 -1.63701 6.63092 0
M  V30 4117 O 389.974 -1.33657 7.92711 0
M  V30 4118 H 389.706 -0.417683 0.531523 0
M  V30 4119 H 392.26 -0.694726 1.93294 0
M  V30 4120 H 390.49 -3.24356 2.10548 0
M  V30 4121 H 392.179 -3.18214 2.51982 0
M  V30 4122 H 392.945 -1.72684 4.53217 0
M  V30 4123 H 388.824 -2.67495 3.75456 0
M  V30 4124 H 392.368 -1.19421 6.87302 0
M  V30 4125 H 388.265 -2.14679 6.08755 0
M  V30 4126 H 389.033 -1.4737 8.05124 0
M  V30 4127 N 391.696 -1.35014 -0.812953 0
M  V30 4128 C 392.643 -1.27412 -1.92444 0
M  V30 4129 C 393.613 -0.14733 -1.65445 0
M  V30 4130 O 394.798 -0.329974 -1.87925 0
M  V30 4131 C 391.938 -1.04558 -3.28879 0
M  V30 4132 C 391.051 -2.26101 -3.68106 0
M  V30 4133 C 390.186 -1.96449 -4.9354 0
M  V30 4134 C 389.225 -3.14081 -5.25376 0
M  V30 4135 N 388.362 -2.84246 -6.41988 0
M  V30 4136 H 393.202 -2.22463 -1.98278 0
M  V30 4137 H 390.739 -1.10593 -0.969933 0
M  V30 4138 H 392.697 -0.893413 -4.07522 0
M  V30 4139 H 391.327 -0.131719 -3.22531 0
M  V30 4140 H 390.379 -2.52204 -2.84775 0
M  V30 4141 H 391.691 -3.13959 -3.87597 0
M  V30 4142 H 390.845 -1.78026 -5.79993 0
M  V30 4143 H 389.584 -1.05867 -4.76071 0
M  V30 4144 H 388.589 -3.33089 -4.37415 0
M  V30 4145 H 389.814 -4.05455 -5.44778 0
M  V30 4146 H 387.76 -1.96252 -6.25956 0
M  V30 4147 H 387.677 -3.65637 -6.61699 0
M  V30 4148 H 388.945 -2.6935 -7.31485 0
M  V30 4149 N 393.175 1.03435 -1.18907 0
M  V30 4150 C 394.452 1.73778 -0.89781 0
M  V30 4151 C 394.832 2.02458 0.597832 0
M  V30 4152 O 394.18 1.67482 1.55441 0
M  V30 4153 C 394.39 3.01845 -1.75187 0
M  V30 4154 C 395.738 3.7546 -1.9828 0
M  V30 4155 O 396.762 3.11759 -1.72293 0
M  V30 4156 O 395.621 4.89966 -2.42065 0
M  V30 4157 H 392.715 0.75651 -0.334098 0
M  V30 4158 H 395.261 1.09444 -1.29693 0
M  V30 4159 H 394.033 2.76836 -2.76545 0
M  V30 4160 H 393.656 3.73919 -1.35167 0
M  V30 4161 N 394.653 0.992116 1.22453 0
M  V30 4162 C 395.6 0.541731 2.24352 0
M  V30 4163 C 396.57 -0.425519 1.60557 0
M  V30 4164 O 397.755 -0.330453 1.87917 0
M  V30 4165 C 394.895 -0.138248 3.44823 0
M  V30 4166 C 394.008 0.870649 4.23136 0
M  V30 4167 C 393.143 0.164269 5.30946 0
M  V30 4168 C 392.182 1.16159 6.00977 0
M  V30 4169 N 391.319 0.483568 7.00433 0
M  V30 4170 H 396.159 1.41541 2.62241 0
M  V30 4171 H 393.696 0.709013 1.28885 0
M  V30 4172 H 395.654 -0.5494 4.13567 0
M  V30 4173 H 394.284 -0.975721 3.077 0
M  V30 4174 H 393.336 1.40013 3.53696 0
M  V30 4175 H 394.648 1.63014 4.7141 0
M  V30 4176 H 393.802 -0.303653 6.0594 0
M  V30 4177 H 392.541 -0.627733 4.83643 0
M  V30 4178 H 391.546 1.64015 5.24766 0
M  V30 4179 H 392.771 1.95445 6.50368 0
M  V30 4180 H 390.717 -0.289012 6.55363 0
M  V30 4181 H 390.634 1.18152 7.4671 0
M  V30 4182 H 391.902 0.0384219 7.79491 0
M  V30 4183 N 396.131 -1.37776 0.765217 0
M  V30 4184 C 397.041 -2.34135 0.147666 0
M  V30 4185 C 398.057 -1.59854 -0.687215 0
M  V30 4186 O 399.233 -1.91983 -0.608659 0
M  V30 4187 C 396.298 -3.3901 -0.72617 0
M  V30 4188 C 395.359 -4.2912 0.124417 0
M  V30 4189 C 394.592 -5.28986 -0.707807 0
M  V30 4190 O 394.815 -5.36205 -1.94525 0
M  V30 4191 O 393.749 -6.01779 -0.12046 0
M  V30 4192 H 397.575 -2.88664 0.943758 0
M  V30 4193 H 395.16 -1.39824 0.526277 0
M  V30 4194 H 397.042 -4.03195 -1.22524 0
M  V30 4195 H 395.717 -2.86819 -1.50056 0
M  V30 4196 H 394.624 -3.68057 0.669696 0
M  V30 4197 H 395.957 -4.84598 0.861736 0
M  V30 4198 N 397.609 -0.515225 -1.4894 0
M  V30 4199 C 398.837 0.0206034 -2.0689 0
M  V30 4200 C 399.252 1.29514 -1.37374 0
M  V30 4201 O 398.609 1.76698 -0.456529 0
M  V30 4202 C 398.66 0.26351 -3.60538 0
M  V30 4203 O 398.381 -0.960517 -4.27441 0
M  V30 4204 C 399.882 0.841383 -4.35242 0
M  V30 4205 H 397.102 -0.0268608 -0.670462 0
M  V30 4206 H 399.646 -0.716651 -1.91532 0
M  V30 4207 H 397.801 0.950777 -3.75552 0
M  V30 4208 H 398.215 -0.73212 -5.19365 0
M  V30 4209 H 399.689 0.96085 -5.43573 0
M  V30 4210 H 400.166 1.8427 -3.98674 0
M  V30 4211 H 400.772 0.191143 -4.2487 0
M  V30 4212 N 399.087 1.5561 -0.249682 0
M  V30 4213 C 400.335 1.98618 0.373548 0
M  V30 4214 C 400.656 1.13919 1.58264 0
M  V30 4215 O 399.926 0.222637 1.94631 0
M  V30 4216 H 398.506 0.733571 0.141006 0
M  V30 4217 H 401.168 1.91748 -0.349117 0
M  V30 4218 H 400.264 3.04584 0.680796 0
M  V30 4219 N 400.565 -0.0233959 1.57583 0
M  V30 4220 C 401.842 -0.748794 1.807 0
M  V30 4221 C 402.222 -1.9327 0.849106 0
M  V30 4222 O 401.57 -2.28247 -0.107468 0
M  V30 4223 C 401.78 -1.17651 3.28571 0
M  V30 4224 C 403.128 -1.59008 3.93702 0
M  V30 4225 O 404.152 -1.27094 3.32755 0
M  V30 4226 O 403.011 -2.18264 5.01022 0
M  V30 4227 H 400.105 -0.362578 0.743281 0
M  V30 4228 H 402.651 0.000261958 1.697 0
M  V30 4229 H 401.423 -0.331603 3.89892 0
M  V30 4230 H 401.046 -1.98541 3.44481 0
M  V30 4231 N 402.043 -1.548 -0.295768 0
M  V30 4232 C 403.292 -1.73538 -1.02798 0
M  V30 4233 C 403.605 -0.531159 -1.8825 0
M  V30 4234 O 404.811 -0.600458 -2.64777 0
M  V30 4235 C 403.267 -3.07051 -1.87744 0
M  V30 4236 C 402.875 -4.34968 -1.07269 0
M  V30 4237 C 404.619 -3.35146 -2.60533 0
M  V30 4238 C 402.526 -5.5953 -1.91521 0
M  V30 4239 H 401.456 -0.646794 -0.387522 0
M  V30 4240 H 404.107 -1.81278 -0.284718 0
M  V30 4241 H 402.489 -2.93289 -2.66078 0
M  V30 4242 H 403.663 -4.5958 -0.335117 0
M  V30 4243 H 401.978 -4.13847 -0.460384 0
M  V30 4244 H 404.575 -4.2541 -3.23929 0
M  V30 4245 H 404.918 -2.54255 -3.29636 0
M  V30 4246 H 405.451 -3.49902 -1.89244 0
M  V30 4247 H 402.19 -6.43103 -1.26878 0
M  V30 4248 H 401.71 -5.39096 -2.62937 0
M  V30 4249 H 403.389 -5.96982 -2.49442 0
M  V30 4250 N 403.521 0.559213 -1.47345 0
M  V30 4251 C 404.468 1.66645 -1.59682 0
M  V30 4252 C 405.438 1.60168 -0.43994 0
M  V30 4253 O 406.623 1.79031 -0.659736 0
M  V30 4254 C 403.763 3.04969 -1.61518 0
M  V30 4255 C 402.876 3.21897 -2.88108 0
M  V30 4256 C 402.011 4.50608 -2.81294 0
M  V30 4257 C 401.05 4.60961 -4.02717 0
M  V30 4258 N 400.187 5.81024 -3.94151 0
M  V30 4259 H 405.027 1.55439 -2.54249 0
M  V30 4260 H 402.564 0.757219 -1.26113 0
M  V30 4261 H 404.522 3.85064 -1.60566 0
M  V30 4262 H 403.152 3.15015 -0.704645 0
M  V30 4263 H 402.204 2.35248 -2.98936 0
M  V30 4264 H 403.516 3.25412 -3.78032 0
M  V30 4265 H 402.67 5.3896 -2.7858 0
M  V30 4266 H 401.409 4.49568 -1.89049 0
M  V30 4267 H 400.414 3.71021 -4.05738 0
M  V30 4268 H 401.639 4.63761 -4.96087 0
M  V30 4269 H 399.585 5.80938 -3.04708 0
M  V30 4270 H 399.502 5.85909 -4.77752 0
M  V30 4271 H 400.77 6.71744 -3.9545 0
M  V30 4272 N 404.999 1.35443 0.805782 0
M  V30 4273 C 405.909 1.30546 1.94923 0
M  V30 4274 C 406.925 0.210233 1.72725 0
M  V30 4275 O 408.101 0.43975 1.9654 0
M  V30 4276 C 405.166 1.07782 3.29521 0
M  V30 4277 C 404.227 2.26625 3.64609 0
M  V30 4278 C 403.46 2.04938 4.92784 0
M  V30 4279 O 403.683 1.01624 5.61274 0
M  V30 4280 O 402.617 2.9232 5.26149 0
M  V30 4281 H 406.443 2.26779 2.02002 0
M  V30 4282 H 404.028 1.15823 0.943682 0
M  V30 4283 H 405.91 0.969392 4.10098 0
M  V30 4284 H 404.585 0.146003 3.23371 0
M  V30 4285 H 403.492 2.43033 2.84404 0
M  V30 4286 H 404.825 3.18257 3.75464 0
M  V30 4287 N 406.477 -1.02803 1.19454 0
M  V30 4288 C 407.407 -2.12999 0.956758 0
M  V30 4289 C 408.388 -1.69743 -0.110188 0
M  V30 4290 O 409.573 -1.94148 0.0450038 0
M  V30 4291 C 406.703 -3.43746 0.495553 0
M  V30 4292 C 405.657 -4.00688 1.50443 0
M  V30 4293 C 404.983 -5.27067 0.900275 0
M  V30 4294 C 406.283 -4.35397 2.8849 0
M  V30 4295 H 407.977 -2.33148 1.87836 0
M  V30 4296 H 405.523 -1.12045 0.904539 0
M  V30 4297 H 407.476 -4.2021 0.316493 0
M  V30 4298 H 406.2 -3.23321 -0.461646 0
M  V30 4299 H 404.859 -3.2632 1.67065 0
M  V30 4300 H 404.507 -5.02959 -0.064503 0
M  V30 4301 H 404.207 -5.66127 1.57397 0
M  V30 4302 H 405.731 -6.06196 0.73203 0
M  V30 4303 H 407.145 -5.02795 2.75446 0
M  V30 4304 H 405.542 -4.85541 3.52661 0
M  V30 4305 H 406.612 -3.44662 3.41081 0
M  V30 4306 N 407.956 -0.998596 -1.21925 0
M  V30 4307 C 408.906 -0.524743 -2.21879 0
M  V30 4308 C 409.89 0.41017 -1.55584 0
M  V30 4309 O 411.082 0.236063 -1.75419 0
M  V30 4310 C 408.211 0.153636 -3.42956 0
M  V30 4311 C 407.297 -0.801918 -4.16449 0
M  V30 4312 N 407.688 -1.95211 -4.66611 0
M  V30 4313 C 405.986 -0.618972 -4.41684 0
M  V30 4314 C 406.687 -2.55234 -5.22715 0
M  V30 4315 N 405.663 -1.83451 -5.1171 0
M  V30 4316 H 409.465 -1.40189 -2.58311 0
M  V30 4317 H 406.979 -0.86159 -1.3766 0
M  V30 4318 H 408.976 0.510534 -4.13762 0
M  V30 4319 H 407.636 1.02684 -3.08036 0
M  V30 4320 H 408.647 -2.33271 -4.62391 0
M  V30 4321 H 405.324 0.207694 -4.16983 0
M  V30 4322 H 406.714 -3.52471 -5.72026 0
M  V30 4323 N 409.434 1.37368 -0.772513 0
M  V30 4324 C 410.397 2.28601 -0.165541 0
M  V30 4325 C 411.397 1.48062 0.627238 0
M  V30 4326 O 412.587 1.68268 0.450715 0
M  V30 4327 C 409.719 3.32023 0.772897 0
M  V30 4328 H 410.912 2.83787 -0.969787 0
M  V30 4329 H 408.465 1.46647 -0.540775 0
M  V30 4330 H 409.2 2.81962 1.60212 0
M  V30 4331 H 408.985 3.91555 0.206585 0
M  V30 4332 H 410.475 4.00197 1.19298 0
M  V30 4333 N 410.912 0.523116 1.48665 0
M  V30 4334 C 412.323 0.0808997 1.86525 0
M  V30 4335 C 412.674 -1.33975 1.43336 0
M  V30 4336 O 411.799 -2.00221 0.821009 0
M  V30 4337 C 412.394 0.140037 3.3851 0
M  V30 4338 C 410.953 -0.246948 3.75589 0
M  V30 4339 C 410.1 0.502845 2.72703 0
M  V30 4340 H 413.051 0.734736 1.40667 0
M  V30 4341 H 413.072 -0.649945 3.74908 0
M  V30 4342 H 412.584 1.17412 3.69914 0
M  V30 4343 H 410.685 -1.28343 3.49798 0
M  V30 4344 H 410.798 0.0878859 4.79019 0
M  V30 4345 H 409.162 -0.0500581 2.54651 0
M  V30 4346 H 409.945 1.53743 3.0695 0
M  V30 4347 N 412.39 -1.55475 0.257931 0
M  V30 4348 C 413.32 -2.24815 -0.630912 0
M  V30 4349 C 414.301 -1.23224 -1.17259 0
M  V30 4350 O 415.486 -1.51904 -1.20991 0
M  V30 4351 C 412.616 -2.95609 -1.82298 0
M  V30 4352 C 411.57 -4.03982 -1.41359 0
M  V30 4353 C 410.896 -4.6226 -2.68738 0
M  V30 4354 C 412.196 -5.19109 -0.57648 0
M  V30 4355 H 413.89 -2.99354 -0.0526878 0
M  V30 4356 H 411.436 -1.4398 -0.023901 0
M  V30 4357 H 413.389 -3.42822 -2.45054 0
M  V30 4358 H 412.113 -2.18577 -2.42676 0
M  V30 4359 H 410.772 -3.57555 -0.809324 0
M  V30 4360 H 410.42 -3.81915 -3.27338 0
M  V30 4361 H 410.12 -5.35424 -2.42065 0
M  V30 4362 H 411.644 -5.12212 -3.32372 0
M  V30 4363 H 413.058 -5.62479 -1.10861 0
M  V30 4364 H 411.455 -5.98729 -0.405351 0
M  V30 4365 H 412.525 -4.83174 0.408776 0
M  V30 4366 N 413.868 0.0150385 -1.57593 0
M  V30 4367 C 415.096 0.714395 -1.94175 0
M  V30 4368 C 415.511 1.68135 -0.858841 0
M  V30 4369 O 414.868 1.81766 0.163567 0
M  V30 4370 C 414.919 1.45933 -3.30735 0
M  V30 4371 O 414.64 0.531167 -4.34868 0
M  V30 4372 C 416.141 2.25456 -3.81686 0
M  V30 4373 H 413.361 0.199923 -0.640525 0
M  V30 4374 H 415.905 -0.0316096 -2.04476 0
M  V30 4375 H 414.06 2.15709 -3.21789 0
M  V30 4376 H 414.474 1.05509 -5.13778 0
M  V30 4377 H 415.948 2.731 -4.79709 0
M  V30 4378 H 416.425 3.07485 -3.13607 0
M  V30 4379 H 417.031 1.60727 -3.9376 0
M  V30 4380 N 415.346 1.54954 0.287554 0
M  V30 4381 C 416.592 1.75132 1.02257 0
M  V30 4382 C 416.925 0.542858 1.86458 0
M  V30 4383 O 416.2 -0.459856 1.88986 0
M  V30 4384 C 416.483 3.04812 1.91733 0
M  V30 4385 C 416.336 4.35985 1.10622 0
M  V30 4386 C 417.655 3.30438 2.90687 0
M  V30 4387 H 414.774 0.637194 0.370341 0
M  V30 4388 H 417.416 1.87678 0.296111 0
M  V30 4389 H 415.566 2.94247 2.53675 0
M  V30 4390 H 417.238 4.58487 0.508636 0
M  V30 4391 H 415.481 4.31865 0.409271 0
M  V30 4392 H 416.152 5.23017 1.76513 0
M  V30 4393 H 418.628 3.40701 2.38877 0
M  V30 4394 H 417.504 4.22467 3.50447 0
M  V30 4395 H 417.765 2.49377 3.65053 0
M  V30 4396 N 416.824 -0.551391 1.4764 0
M  V30 4397 C 418.07 -1.31024 1.54792 0
M  V30 4398 C 418.403 -1.9304 0.211967 0
M  V30 4399 O 417.678 -1.78175 -0.77999 0
M  V30 4400 C 417.961 -2.41593 2.67029 0
M  V30 4401 C 417.814 -1.84408 4.10261 0
M  V30 4402 C 419.133 -3.43488 2.75143 0
M  V30 4403 H 416.252 -0.475031 0.563485 0
M  V30 4404 H 418.894 -0.616454 1.79722 0
M  V30 4405 H 417.044 -3.00772 2.45904 0
M  V30 4406 H 418.716 -1.29445 4.42766 0
M  V30 4407 H 416.959 -1.15051 4.18265 0
M  V30 4408 H 417.63 -2.64367 4.84576 0
M  V30 4409 H 420.106 -2.94236 2.94218 0
M  V30 4410 H 418.982 -4.18274 3.55441 0
M  V30 4411 H 419.243 -4.02703 1.82435 0
M  V30 4412 N 418.302 -1.35869 -0.798587 0
M  V30 4413 C 419.265 -1.29307 -1.89242 0
M  V30 4414 C 420.265 -0.202747 -1.59517 0
M  V30 4415 O 421.455 -0.456957 -1.681 0
M  V30 4416 C 418.587 -1.00229 -3.25833 0
M  V30 4417 H 419.78 -2.26576 -1.96478 0
M  V30 4418 H 417.333 -1.20509 -0.995358 0
M  V30 4419 H 418.068 -0.033801 -3.24282 0
M  V30 4420 H 417.853 -1.79121 -3.48795 0
M  V30 4421 H 419.343 -0.98219 -4.05885 0
M  V30 4422 N 419.78 1.02168 -1.19998 0
M  V30 4423 C 421.057 1.72816 -0.916191 0
M  V30 4424 C 421.437 2.03081 0.576325 0
M  V30 4425 O 420.785 1.69122 1.53656 0
M  V30 4426 C 420.995 2.9997 -1.78378 0
M  V30 4427 C 422.343 3.73336 -2.02251 0
M  V30 4428 O 423.367 3.09914 -1.75589 0
M  V30 4429 O 422.226 4.87371 -2.47249 0
M  V30 4430 H 419.32 0.752924 -0.342103 0
M  V30 4431 H 421.866 1.08062 -1.30846 0
M  V30 4432 H 420.638 2.73888 -2.79466 0
M  V30 4433 H 420.261 3.72464 -1.39126 0
M  V30 4434 N 421.258 1.00505 1.21394 0
M  V30 4435 C 422.506 0.686415 1.90086 0
M  V30 4436 C 422.827 -0.785264 1.7849 0
M  V30 4437 O 422.097 -1.56387 1.17983 0
M  V30 4438 H 420.677 0.2509 0.703604 0
M  V30 4439 H 423.339 1.27417 1.47482 0
M  V30 4440 H 422.435 0.959621 2.96981 0
M  V30 4441 N 422.737 -1.36956 0.779787 0
M  V30 4442 C 423.667 -2.32761 0.185651 0
M  V30 4443 C 424.648 -1.56177 -0.673989 0
M  V30 4444 O 425.833 -1.84378 -0.609797 0
M  V30 4445 C 422.963 -3.40418 -0.687964 0
M  V30 4446 C 421.917 -4.27941 0.0710102 0
M  V30 4447 C 421.243 -5.26681 -0.922573 0
M  V30 4448 C 422.543 -5.07006 1.25467 0
M  V30 4449 H 424.237 -2.82698 0.986008 0
M  V30 4450 H 421.783 -1.3592 0.475592 0
M  V30 4451 H 423.736 -4.06423 -1.11348 0
M  V30 4452 H 422.46 -2.89025 -1.52093 0
M  V30 4453 H 421.119 -3.63478 0.47739 0
M  V30 4454 H 420.767 -4.71565 -1.7503 0
M  V30 4455 H 420.467 -5.86103 -0.419237 0
M  V30 4456 H 421.991 -5.9556 -1.34686 0
M  V30 4457 H 423.405 -5.66105 0.905401 0
M  V30 4458 H 421.802 -5.75793 1.69063 0
M  V30 4459 H 422.872 -4.3921 2.05481 0
M  V30 4460 N 424.215 -0.530993 -1.48385 0
M  V30 4461 C 425.462 0.0027373 -2.025 0
M  V30 4462 C 425.79 1.34186 -1.40799 0
M  V30 4463 O 425.045 1.88 -0.543544 0
M  V30 4464 C 425.344 0.172742 -3.56982 0
M  V30 4465 C 425.01 -1.09215 -4.37473 0
M  V30 4466 C 423.672 -1.43881 -4.59186 0
M  V30 4467 C 426.024 -1.93153 -4.84088 0
M  V30 4468 C 423.352 -2.62381 -5.2476 0
M  V30 4469 C 425.704 -3.10833 -5.50968 0
M  V30 4470 C 424.368 -3.45843 -5.70919 0
M  V30 4471 H 423.638 0.00100165 -0.740999 0
M  V30 4472 H 426.285 -0.697219 -1.78357 0
M  V30 4473 H 424.59 0.955473 -3.79971 0
M  V30 4474 H 426.287 0.600642 -3.96476 0
M  V30 4475 H 422.877 -0.812177 -4.20834 0
M  V30 4476 H 427.061 -1.67683 -4.67115 0
M  V30 4477 H 422.317 -2.89707 -5.38405 0
M  V30 4478 H 426.491 -3.7618 -5.86056 0
M  V30 4479 H 424.118 -4.37764 -6.21503 0
M  V30 4480 N 425.693 1.55336 -0.266172 0
M  V30 4481 C 426.918 2.04258 0.359661 0
M  V30 4482 C 427.343 1.14359 1.49344 0
M  V30 4483 O 426.701 0.140369 1.80756 0
M  V30 4484 C 426.749 3.50997 0.826635 0
M  V30 4485 O 425.853 3.64204 1.93466 0
M  V30 4486 H 425.194 0.659668 0.075727 0
M  V30 4487 H 427.724 2.00694 -0.39786 0
M  V30 4488 H 427.734 3.9219 1.12477 0
M  V30 4489 H 426.409 4.159 -0.00293032 0
M  V30 4490 H 424.986 3.34913 1.63974 0
M  V30 4491 N 427.171 -0.0066808 1.57599 0
M  V30 4492 C 428.118 -1.00024 2.08 0
M  V30 4493 C 429.088 -1.34549 0.973943 0
M  V30 4494 O 430.273 -1.44502 1.24595 0
M  V30 4495 C 427.413 -2.2891 2.58252 0
M  V30 4496 C 426.526 -2.00346 3.82734 0
M  V30 4497 C 425.661 -3.23265 4.21513 0
M  V30 4498 C 424.7 -2.90357 5.3885 0
M  V30 4499 N 423.837 -4.05793 5.72954 0
M  V30 4500 H 428.677 -0.563499 2.92624 0
M  V30 4501 H 426.214 -0.266592 1.44664 0
M  V30 4502 H 428.172 -3.04247 2.85464 0
M  V30 4503 H 426.802 -2.70265 1.76512 0
M  V30 4504 H 425.854 -1.15406 3.62471 0
M  V30 4505 H 427.166 -1.72086 4.68175 0
M  V30 4506 H 426.32 -4.06953 4.49971 0
M  V30 4507 H 425.059 -3.54657 3.34768 0
M  V30 4508 H 424.064 -2.05075 5.10122 0
M  V30 4509 H 425.289 -2.60219 6.27266 0
M  V30 4510 H 423.235 -4.37094 4.89167 0
M  V30 4511 H 423.152 -3.81034 6.52954 0
M  V30 4512 H 424.42 -4.90289 6.06001 0
M  V30 4513 N 428.649 -1.55105 -0.279332 0
M  V30 4514 C 429.896 -1.75412 -1.01177 0
M  V30 4515 C 430.224 -0.551728 -1.86511 0
M  V30 4516 O 429.479 0.465919 -1.90073 0
M  V30 4517 C 429.778 -3.0086 -1.92919 0
M  V30 4518 C 429.444 -4.33689 -1.23387 0
M  V30 4519 C 428.106 -4.69792 -1.04159 0
M  V30 4520 C 430.458 -5.15941 -0.738562 0
M  V30 4521 C 427.786 -5.85707 -0.341166 0
M  V30 4522 C 430.138 -6.32579 -0.0517636 0
M  V30 4523 C 428.802 -6.67326 0.152292 0
M  V30 4524 H 428.072 -0.641879 -0.370233 0
M  V30 4525 H 430.719 -1.89373 -0.284627 0
M  V30 4526 H 429.024 -2.81773 -2.72234 0
M  V30 4527 H 430.721 -3.13768 -2.49701 0
M  V30 4528 H 427.311 -4.05309 -1.39364 0
M  V30 4529 H 431.495 -4.8853 -0.874764 0
M  V30 4530 H 426.751 -6.11157 -0.172287 0
M  V30 4531 H 430.925 -6.9557 0.339828 0
M  V30 4532 H 428.552 -7.56998 0.697014 0
M  V30 4533 N 430.127 0.543554 -1.4793 0
M  V30 4534 C 431.543 0.870806 -1.3375 0
M  V30 4535 C 431.743 1.9864 -0.338261 0
M  V30 4536 O 430.799 2.51305 0.245371 0
M  V30 4537 C 432.112 1.25114 -2.73435 0
M  V30 4538 C 433.66 1.3618 -2.81823 0
M  V30 4539 C 434.135 1.77563 -4.22179 0
M  V30 4540 N 435.626 1.8469 -4.24787 0
M  V30 4541 C 436.361 2.18067 -5.30315 0
M  V30 4542 N 435.857 2.49963 -6.46135 0
M  V30 4543 N 437.65 2.18958 -5.17701 0
M  V30 4544 H 429.801 -0.19275 -2.11524 0
M  V30 4545 H 432.064 -0.0235777 -0.947707 0
M  V30 4546 H 431.77 0.50514 -3.48053 0
M  V30 4547 H 431.644 2.20431 -3.06088 0
M  V30 4548 H 434.031 2.09859 -2.07468 0
M  V30 4549 H 434.112 0.390169 -2.52807 0
M  V30 4550 H 433.756 1.04449 -4.97044 0
M  V30 4551 H 433.686 2.75753 -4.48629 0
M  V30 4552 H 436.177 1.62372 -3.41239 0
M  V30 4553 H 436.49 2.74497 -7.22406 0
M  V30 4554 H 434.835 2.47513 -6.49432 0
M  V30 4555 H 438.026 1.93488 -4.2624 0
M  V30 4556 H 438.199 2.44639 -6.00047 0
M  V30 4557 N 431.605 1.3629 0.791371 0
M  V30 4558 C 432.552 1.30458 1.90393 0
M  V30 4559 C 433.522 0.173632 1.6519 0
M  V30 4560 O 434.707 0.35983 1.87376 0
M  V30 4561 C 431.847 1.09777 3.27174 0
M  V30 4562 C 430.96 2.31929 3.64462 0
M  V30 4563 C 430.095 2.04276 4.90352 0
M  V30 4564 C 429.134 3.224 5.20312 0
M  V30 4565 N 428.271 2.94424 6.37385 0
M  V30 4566 H 433.111 2.25589 1.94714 0
M  V30 4567 H 430.648 1.12122 0.952216 0
M  V30 4568 H 432.606 0.958133 4.06049 0
M  V30 4569 H 431.236 0.183014 3.22281 0
M  V30 4570 H 430.288 2.56703 2.80727 0
M  V30 4571 H 431.6 3.20085 3.82553 0
M  V30 4572 H 430.754 1.87231 5.77087 0
M  V30 4573 H 429.493 1.13428 4.74326 0
M  V30 4574 H 428.498 3.40005 4.32061 0
M  V30 4575 H 429.723 4.14071 5.38258 0
M  V30 4576 H 427.669 2.06185 6.22755 0
M  V30 4577 H 427.586 3.76118 6.55798 0
M  V30 4578 H 428.854 2.80953 7.27108 0
M  V30 4579 N 433.083 -1.0153 1.20538 0
M  V30 4580 C 434.308 -1.79283 1.04271 0
M  V30 4581 C 434.733 -1.8372 -0.403544 0
M  V30 4582 O 434.091 -1.27321 -1.2907 0
M  V30 4583 C 434.139 -3.21535 1.63241 0
M  V30 4584 O 433.243 -4.03099 0.870908 0
M  V30 4585 H 432.584 -0.55293 0.367647 0
M  V30 4586 H 435.114 -1.27696 1.59859 0
M  V30 4587 H 435.124 -3.72243 1.6703 0
M  V30 4588 H 433.799 -3.1762 2.68497 0
M  V30 4589 H 432.376 -3.61693 0.907323 0
M  V30 4590 N 434.561 -1.01147 -1.20859 0
M  V30 4591 C 435.491 -0.597663 -2.25722 0
M  V30 4592 C 436.472 0.384744 -1.65692 0
M  V30 4593 O 437.657 0.271303 -1.92296 0
M  V30 4594 C 434.787 0.0700149 -3.47229 0
M  V30 4595 C 433.741 -0.832843 -4.19819 0
M  V30 4596 C 433.067 -0.0312202 -5.34691 0
M  V30 4597 C 434.367 -2.1385 -4.76514 0
M  V30 4598 H 436.061 -1.47423 -2.60589 0
M  V30 4599 H 433.607 -0.710301 -1.25263 0
M  V30 4600 H 435.56 0.37103 -4.19763 0
M  V30 4601 H 434.284 0.981259 -3.11511 0
M  V30 4602 H 432.943 -1.11778 -3.49144 0
M  V30 4603 H 432.591 0.881515 -4.95215 0
M  V30 4604 H 432.291 -0.632434 -5.84187 0
M  V30 4605 H 433.815 0.26346 -6.10031 0
M  V30 4606 H 435.229 -1.9002 -5.40893 0
M  V30 4607 H 433.626 -2.69012 -5.36426 0
M  V30 4608 H 434.696 -2.80495 -3.95538 0
M  V30 4609 N 436.039 1.36541 -0.78704 0
M  V30 4610 C 437.285 1.99599 -0.358872 0
M  V30 4611 C 437.618 1.62323 1.06606 0
M  V30 4612 O 436.893 0.876858 1.73613 0
M  V30 4613 C 437.176 3.56327 -0.519944 0
M  V30 4614 C 437.029 4.03464 -1.98839 0
M  V30 4615 C 438.348 4.4005 0.0664737 0
M  V30 4616 H 435.467 0.725107 -0.131869 0
M  V30 4617 H 438.109 1.6199 -0.992936 0
M  V30 4618 H 436.259 3.88495 0.0198321 0
M  V30 4619 H 437.931 3.81793 -2.58905 0
M  V30 4620 H 436.174 3.55092 -2.49183 0
M  V30 4621 H 436.845 5.12439 -2.05207 0
M  V30 4622 H 439.321 4.14228 -0.394267 0
M  V30 4623 H 438.197 5.48847 -0.0762682 0
M  V30 4624 H 438.458 4.26655 1.15835 0
M  V30 4625 N 437.518 0.538854 1.48102 0
M  V30 4626 C 438.743 0.0102694 2.07397 0
M  V30 4627 C 439.168 -1.26562 1.39153 0
M  V30 4628 O 438.526 -1.75357 0.460387 0
M  V30 4629 C 438.574 -0.187602 3.60112 0
M  V30 4630 O 437.678 -1.25432 3.92862 0
M  V30 4631 H 437.019 0.0430975 0.6626 0
M  V30 4632 H 439.549 0.749301 1.90385 0
M  V30 4633 H 439.559 -0.407517 4.0596 0
M  V30 4634 H 438.234 0.744386 4.09184 0
M  V30 4635 H 436.811 -1.01636 3.58782 0
M  V30 4636 N 438.996 -1.55193 0.274407 0
M  V30 4637 C 439.944 -2.23924 -0.629362 0
M  V30 4638 C 440.938 -1.23602 -1.1584 0
M  V30 4639 O 442.144 -1.41535 -1.11211 0
M  V30 4640 H 438.519 -0.718637 -0.221507 0
M  V30 4641 H 440.49 -2.98388 -0.0268322 0
M  V30 4642 C 439.239 -2.97329 -1.80252 0
M  V30 4643 H 438.562 -3.74313 -1.40462 0
M  V30 4644 H 440.002 -3.48743 -2.41152 0
M  V30 4645 C 438.461 -2.0276 -2.69054 0
M  V30 4646 O 438.991 -1.57836 -3.69392 0
M  V30 4647 N 437.197 -1.69275 -2.36208 0
M  V30 4648 H 436.744 -2.06004 -1.54661 0
M  V30 4649 H 436.702 -1.06271 -2.95895 0
M  V30 4650 N 440.474 -0.00167713 -1.576 0
M  V30 4651 C 441.421 0.989195 -2.08527 0
M  V30 4652 C 442.391 1.34031 -0.981065 0
M  V30 4653 O 443.576 1.43839 -1.2536 0
M  V30 4654 C 440.716 2.27537 -2.59463 0
M  V30 4655 C 439.829 1.98314 -3.83791 0
M  V30 4656 C 438.964 3.21025 -4.23222 0
M  V30 4657 C 438.003 2.87495 -5.40382 0
M  V30 4658 N 437.14 4.02749 -5.75098 0
M  V30 4659 H 441.98 0.547973 -2.92919 0
M  V30 4660 H 439.517 0.258917 -1.44803 0
M  V30 4661 H 441.475 3.02729 -2.87073 0
M  V30 4662 H 440.105 2.69325 -1.77943 0
M  V30 4663 H 439.157 1.13482 -3.63078 0
M  V30 4664 H 440.469 1.69601 -4.69081 0
M  V30 4665 H 439.623 4.04561 -4.52123 0
M  V30 4666 H 438.362 3.52877 -3.36644 0
M  V30 4667 H 437.367 2.02367 -5.11202 0
M  V30 4668 H 438.592 2.56889 -6.28637 0
M  V30 4669 H 436.538 4.34494 -4.91478 0
M  V30 4670 H 436.455 3.77566 -6.54966 0
M  V30 4671 H 437.723 4.87068 -6.08592 0
M  V30 4672 N 441.952 1.55251 0.271103 0
M  V30 4673 C 443.198 1.76207 1.00394 0
M  V30 4674 C 443.531 0.562604 1.85872 0
M  V30 4675 O 442.806 -0.439785 1.89463 0
M  V30 4676 C 443.089 3.06828 1.8849 0
M  V30 4677 C 442.942 4.37134 1.05992 0
M  V30 4678 C 444.261 3.33503 2.87165 0
M  V30 4679 H 441.38 0.641086 0.363562 0
M  V30 4680 H 444.022 1.87982 0.276189 0
M  V30 4681 H 442.172 2.96921 2.5054 0
M  V30 4682 H 443.844 4.59001 0.459978 0
M  V30 4683 H 442.087 4.32275 0.363443 0
M  V30 4684 H 442.758 5.2486 1.70955 0
M  V30 4685 H 445.234 3.43215 2.3525 0
M  V30 4686 H 444.11 4.2616 3.45946 0
M  V30 4687 H 444.371 2.53235 3.62387 0
M  V30 4688 N 443.43 -0.535701 1.48216 0
M  V30 4689 C 444.655 -1.32149 1.59848 0
M  V30 4690 C 445.08 -1.86338 0.256842 0
M  V30 4691 O 444.438 -1.64107 -0.770632 0
M  V30 4692 C 444.486 -2.45224 2.64381 0
M  V30 4693 O 443.59 -3.48093 2.21144 0
M  V30 4694 H 442.931 -0.391634 0.536208 0
M  V30 4695 H 445.461 -0.645202 1.94161 0
M  V30 4696 H 445.471 -2.91491 2.85476 0
M  V30 4697 H 444.146 -2.05143 3.61786 0
M  V30 4698 H 442.723 -3.07984 2.10239 0
M  V30 4699 N 444.908 -1.36708 -0.784132 0
M  V30 4700 C 446.154 -1.31426 -1.54451 0
M  V30 4701 C 446.487 0.10476 -1.93917 0
M  V30 4702 O 445.762 1.05934 -1.6312 0
M  V30 4703 C 446.045 -2.24189 -2.818 0
M  V30 4704 C 445.898 -3.74813 -2.48667 0
M  V30 4705 C 447.217 -2.15626 -3.83658 0
M  V30 4706 H 444.336 -0.478739 -0.560337 0
M  V30 4707 H 446.978 -1.67305 -0.900498 0
M  V30 4708 H 445.128 -1.93722 -3.36755 0
M  V30 4709 H 446.8 -4.15823 -1.99722 0
M  V30 4710 H 445.043 -3.93989 -1.81535 0
M  V30 4711 H 445.714 -4.35138 -3.39646 0
M  V30 4712 H 448.19 -2.42456 -3.38163 0
M  V30 4713 H 447.066 -2.82694 -4.70506 0
M  V30 4714 H 447.327 -1.14522 -4.27009 0
M  V30 4715 N 446.386 1.0089 -1.21074 0
M  V30 4716 C 447.611 1.78727 -1.05221 0
M  V30 4717 C 448.036 1.83932 0.393795 0
M  V30 4718 O 447.394 1.28004 1.28393 0
M  V30 4719 C 447.442 3.20665 -1.64944 0
M  V30 4720 O 446.546 4.02632 -0.892273 0
M  V30 4721 H 445.887 0.550973 -0.370574 0
M  V30 4722 H 448.417 1.26847 -1.60534 0
M  V30 4723 H 448.427 3.71352 -1.69002 0
M  V30 4724 H 447.102 3.16191 -2.70177 0
M  V30 4725 H 445.679 3.61207 -0.926492 0
M  V30 4726 N 447.864 1.01787 1.20321 0
M  V30 4727 C 449.089 0.727009 1.9424 0
M  V30 4728 C 449.514 -0.706179 1.74341 0
M  V30 4729 O 448.872 -1.48609 1.03852 0
M  V30 4730 C 448.92 1.06958 3.44372 0
M  V30 4731 O 448.024 0.181983 4.11998 0
M  V30 4732 H 447.365 0.269626 0.606793 0
M  V30 4733 H 449.895 1.36158 1.52716 0
M  V30 4734 H 449.905 1.02182 3.94997 0
M  V30 4735 H 448.58 2.11378 3.58179 0
M  V30 4736 H 447.157 0.287378 3.71791 0
M  V30 4737 N 449.342 -1.36122 0.79427 0
M  V30 4738 C 450.292 -2.27373 0.169017 0
M  V30 4739 C 451.276 -1.4719 -0.649913 0
M  V30 4740 O 452.468 -1.69518 -0.50919 0
M  V30 4741 C 449.597 -3.36264 -0.691455 0
M  V30 4742 C 448.683 -4.2388 0.13653 0
M  V30 4743 N 449.074 -4.91519 1.19345 0
M  V30 4744 C 447.372 -4.45921 -0.0838499 0
M  V30 4745 C 448.073 -5.56369 1.6979 0
M  V30 4746 N 447.049 -5.34204 1.00634 0
M  V30 4747 H 450.851 -2.77154 0.977897 0
M  V30 4748 H 448.365 -1.49504 0.634208 0
M  V30 4749 H 450.362 -4.00572 -1.15534 0
M  V30 4750 H 449.022 -2.88037 -1.49883 0
M  V30 4751 H 450.033 -4.9334 1.57594 0
M  V30 4752 H 446.71 -4.08518 -0.861341 0
M  V30 4753 H 448.1 -6.20368 2.58055 0
M  V30 4754 N 450.82 -0.546701 -1.47814 0
M  V30 4755 C 452.067 -0.0187407 -2.02491 0
M  V30 4756 C 452.395 1.32685 -1.42215 0
M  V30 4757 O 451.65 1.87413 -0.563454 0
M  V30 4758 C 451.949 0.134869 -3.57145 0
M  V30 4759 C 451.615 -1.13849 -4.3629 0
M  V30 4760 C 450.277 -1.48743 -4.57634 0
M  V30 4761 C 452.629 -1.98277 -4.82012 0
M  V30 4762 C 449.957 -2.67932 -5.21948 0
M  V30 4763 C 452.309 -3.16659 -5.4764 0
M  V30 4764 C 450.973 -3.51879 -5.67219 0
M  V30 4765 H 450.243 -0.0068577 -0.740968 0
M  V30 4766 H 452.89 -0.716097 -1.77607 0
M  V30 4767 H 451.195 0.915118 -3.80963 0
M  V30 4768 H 452.892 0.558556 -3.97091 0
M  V30 4769 H 449.482 -0.856767 -4.19949 0
M  V30 4770 H 453.666 -1.72628 -4.6531 0
M  V30 4771 H 448.922 -2.95401 -5.35302 0
M  V30 4772 H 453.096 -3.82374 -5.82033 0
M  V30 4773 H 450.723 -4.44331 -6.16825 0
M  V30 4774 N 452.299 1.55045 -0.282633 0
M  V30 4775 C 453.545 2.00056 0.332481 0
M  V30 4776 C 453.878 1.1708 1.54939 0
M  V30 4777 O 453.153 0.2427 1.9298 0
M  V30 4778 C 453.436 3.53086 0.70725 0
M  V30 4779 C 453.289 4.46813 -0.517521 0
M  V30 4780 C 454.608 4.12245 1.54084 0
M  V30 4781 H 451.727 0.727268 0.119373 0
M  V30 4782 H 454.369 1.85932 -0.391076 0
M  V30 4783 H 452.519 3.65253 1.32372 0
M  V30 4784 H 454.191 4.46579 -1.15607 0
M  V30 4785 H 452.434 4.18163 -1.1542 0
M  V30 4786 H 453.105 5.51595 -0.211426 0
M  V30 4787 H 455.581 4.03401 1.02013 0
M  V30 4788 H 454.457 5.19515 1.77186 0
M  V30 4789 H 454.718 3.62951 2.52427 0
M  V30 4790 N 453.777 0.010035 1.57597 0
M  V30 4791 C 455.025 -0.671371 1.90623 0
M  V30 4792 C 455.346 -1.73753 0.885151 0
M  V30 4793 O 454.616 -1.95752 -0.0760611 0
M  V30 4794 H 453.196 -0.250968 0.703579 0
M  V30 4795 H 455.858 0.0533325 1.94827 0
M  V30 4796 H 454.954 -1.13626 2.90681 0
M  V30 4797 N 455.255 -1.55392 -0.262866 0
M  V30 4798 C 456.502 -1.76476 -0.993109 0
M  V30 4799 C 456.83 -0.571479 -1.85915 0
M  V30 4800 O 456.085 0.445733 -1.90556 0
M  V30 4801 C 456.384 -3.02889 -1.89718 0
M  V30 4802 C 456.05 -4.34974 -1.18781 0
M  V30 4803 C 454.712 -4.7087 -0.991699 0
M  V30 4804 C 457.064 -5.16695 -0.683798 0
M  V30 4805 C 454.392 -5.86036 -0.279024 0
M  V30 4806 C 456.744 -6.32598 0.0153327 0
M  V30 4807 C 455.408 -6.67127 0.223062 0
M  V30 4808 H 454.678 -0.64577 -0.363404 0
M  V30 4809 H 457.325 -1.89664 -0.264525 0
M  V30 4810 H 455.63 -2.84644 -2.6923 0
M  V30 4811 H 457.327 -3.16399 -2.46359 0
M  V30 4812 H 453.917 -4.06765 -1.35058 0
M  V30 4813 H 458.101 -4.8943 -0.8229 0
M  V30 4814 H 453.357 -6.11306 -0.107456 0
M  V30 4815 H 457.531 -6.95171 0.413584 0
M  V30 4816 H 455.158 -7.56216 0.777265 0
M  V30 4817 N 456.733 0.527833 -1.48498 0
M  V30 4818 C 457.663 1.64136 -1.66077 0
M  V30 4819 C 458.644 1.62286 -0.509625 0
M  V30 4820 O 459.829 1.79449 -0.742413 0
M  V30 4821 C 456.959 3.02717 -1.70234 0
M  V30 4822 C 455.913 3.19426 -2.8487 0
M  V30 4823 C 455.239 4.5909 -2.74118 0
M  V30 4824 C 456.539 3.01993 -4.26142 0
M  V30 4825 H 458.233 1.4968 -2.593 0
M  V30 4826 H 455.779 0.718654 -1.24785 0
M  V30 4827 H 457.732 3.80491 -1.8112 0
M  V30 4828 H 456.456 3.18201 -0.735911 0
M  V30 4829 H 455.115 2.4407 -2.73542 0
M  V30 4830 H 454.763 4.71413 -1.7544 0
M  V30 4831 H 454.463 4.71214 -3.51042 0
M  V30 4832 H 455.987 5.3896 -2.86974 0
M  V30 4833 H 457.401 3.69558 -4.38292 0
M  V30 4834 H 455.798 3.2561 -5.04082 0
M  V30 4835 H 456.868 1.98396 -4.42456 0
M  V30 4836 N 458.211 1.37122 0.776871 0
M  V30 4837 C 459.144 1.26835 1.89705 0
M  V30 4838 C 460.122 0.14992 1.61907 0
M  V30 4839 O 461.306 0.323242 1.85708 0
M  V30 4840 C 458.433 0.95986 3.24814 0
M  V30 4841 C 457.479 2.09447 3.7153 0
M  V30 4842 S 458.312 3.71368 3.85806 0
M  V30 4843 C 459.468 3.42659 5.23771 0
M  V30 4844 H 459.701 2.21647 1.98141 0
M  V30 4845 H 457.234 1.22685 0.937433 0
M  V30 4846 H 459.192 0.788696 4.02852 0
M  V30 4847 H 457.853 0.0293137 3.14086 0
M  V30 4848 H 457.046 1.8335 4.69467 0
M  V30 4849 H 456.648 2.2255 3.00578 0
M  V30 4850 H 458.94 2.9733 6.0877 0
M  V30 4851 H 459.883 4.39905 5.54878 0
M  V30 4852 H 460.291 2.77708 4.91466 0
M  V30 4853 N 459.689 -1.00246 1.21608 0
M  V30 4854 C 460.636 -2.09073 0.977613 0
M  V30 4855 C 461.606 -1.65815 -0.097297 0
M  V30 4856 O 462.791 -1.90734 0.0503445 0
M  V30 4857 C 459.931 -3.40671 0.551133 0
M  V30 4858 C 459.044 -3.97326 1.69576 0
M  V30 4859 C 458.179 -5.17043 1.2182 0
M  V30 4860 C 457.218 -5.65813 2.335 0
M  V30 4861 N 456.355 -6.76778 1.86859 0
M  V30 4862 H 461.195 -2.28806 1.90924 0
M  V30 4863 H 458.732 -1.12186 0.951452 0
M  V30 4864 H 460.69 -4.16225 0.285097 0
M  V30 4865 H 459.32 -3.20967 -0.343489 0
M  V30 4866 H 458.372 -3.18734 2.07637 0
M  V30 4867 H 459.684 -4.29511 2.53617 0
M  V30 4868 H 458.838 -5.99852 0.908975 0
M  V30 4869 H 457.577 -4.86458 0.347869 0
M  V30 4870 H 456.582 -4.81599 2.65222 0
M  V30 4871 H 457.807 -5.98427 3.21033 0
M  V30 4872 H 455.753 -6.47994 1.02174 0
M  V30 4873 H 455.67 -7.08231 2.64471 0
M  V30 4874 H 456.938 -7.63116 1.58978 0
M  V30 4875 N 461.167 -1.02423 -1.1978 0
M  V30 4876 C 462.115 -0.594474 -2.24875 0
M  V30 4877 C 463.109 0.370598 -1.65296 0
M  V30 4878 O 464.315 0.239684 -1.78397 0
M  V30 4879 H 460.69 -0.173961 -0.731602 0
M  V30 4880 H 462.661 -1.4916 -2.58445 0
M  V30 4881 C 461.41 0.0436512 -3.47673 0
M  V30 4882 H 460.733 -0.689963 -3.93801 0
M  V30 4883 H 462.173 0.307362 -4.22884 0
M  V30 4884 C 460.632 1.28881 -3.11274 0
M  V30 4885 O 461.162 2.38135 -3.23503 0
M  V30 4886 N 459.368 1.1758 -2.6575 0
M  V30 4887 H 458.915 0.286769 -2.55999 0
M  V30 4888 H 458.873 2.00988 -2.41767 0
M  V30 4889 N 462.645 1.35699 -0.801477 0
M  V30 4890 C 463.608 2.28199 -0.213994 0
M  V30 4891 C 464.608 1.49359 0.595691 0
M  V30 4892 O 465.798 1.69186 0.414921 0
M  V30 4893 C 462.93 3.33587 0.702297 0
M  V30 4894 H 464.123 2.81666 -1.02976 0
M  V30 4895 H 461.676 1.45467 -0.571759 0
M  V30 4896 H 462.411 2.85297 1.54195 0
M  V30 4897 H 462.196 3.91906 0.123484 0
M  V30 4898 H 463.686 4.02638 1.10783 0
M  V30 4899 N 464.123 0.554532 1.47522 0
M  V30 4900 C 465.534 0.120446 1.86311 0
M  V30 4901 C 465.885 -1.30904 1.46145 0
M  V30 4902 O 465.01 -1.98434 0.863294 0
M  V30 4903 C 465.605 0.211808 3.38137 0
M  V30 4904 C 464.164 -0.167224 3.76028 0
M  V30 4905 C 463.311 0.560576 2.71575 0
M  V30 4906 H 466.262 0.764408 1.39077 0
M  V30 4907 H 466.283 -0.570275 3.76202 0
M  V30 4908 H 465.795 1.25232 3.6734 0
M  V30 4909 H 463.896 -1.20894 3.52442 0
M  V30 4910 H 464.009 0.189473 4.78725 0
M  V30 4911 H 462.373 0.00396836 2.547 0
M  V30 4912 H 463.156 1.60219 3.0362 0
M  V30 4913 N 465.601 -1.54893 0.290851 0
M  V30 4914 C 466.533 -2.20564 -0.623236 0
M  V30 4915 C 467.546 -1.19519 -1.1054 0
M  V30 4916 O 468.735 -1.46165 -1.02459 0
M  V30 4917 C 465.835 -2.83033 -1.86401 0
M  V30 4918 C 465.008 -4.09916 -1.52604 0
M  V30 4919 C 464.067 -4.56284 -2.62091 0
M  V30 4920 O 463.093 -5.2171 -2.27612 0
M  V30 4921 N 464.295 -4.27746 -3.92446 0
M  V30 4922 H 467.06 -2.99638 -0.0610915 0
M  V30 4923 H 464.621 -1.61508 0.112615 0
M  V30 4924 H 466.613 -3.1099 -2.58973 0
M  V30 4925 H 465.183 -2.0786 -2.33481 0
M  V30 4926 H 464.403 -3.89078 -0.633424 0
M  V30 4927 H 465.691 -4.92554 -1.27547 0
M  V30 4928 H 465.089 -3.7531 -4.23272 0
M  V30 4929 H 463.646 -4.60437 -4.61347 0
M  V30 4930 N 467.08 -0.0183926 -1.57589 0
M  V30 4931 C 468.327 0.662562 -1.91354 0
M  V30 4932 C 468.655 1.72747 -0.893788 0
M  V30 4933 O 467.91 1.9545 0.0988509 0
M  V30 4934 C 468.209 1.32676 -3.31861 0
M  V30 4935 C 467.875 0.393267 -4.49182 0
M  V30 4936 C 466.537 0.136302 -4.81007 0
M  V30 4937 C 468.889 -0.248366 -5.20608 0
M  V30 4938 C 466.217 -0.770282 -5.81621 0
M  V30 4939 C 468.569 -1.14294 -6.22189 0
M  V30 4940 C 467.233 -1.4089 -6.52462 0
M  V30 4941 H 466.503 0.242448 -0.700214 0
M  V30 4942 H 469.15 -0.0778629 -1.91342 0
M  V30 4943 H 467.455 2.14168 -3.28084 0
M  V30 4944 H 469.152 1.86001 -3.55253 0
M  V30 4945 H 465.742 0.603723 -4.24327 0
M  V30 4946 H 469.926 -0.062883 -4.9626 0
M  V30 4947 H 465.182 -0.984154 -6.03427 0
M  V30 4948 H 469.356 -1.64637 -6.76659 0
M  V30 4949 H 466.983 -2.11306 -7.30242 0
M  V30 4950 N 468.558 1.5553 0.254621 0
M  V30 4951 C 469.505 1.89666 1.31512 0
M  V30 4952 C 470.475 0.750057 1.482 0
M  V30 4953 O 471.66 1.00301 1.62309 0
M  V30 4954 C 468.8 2.19009 2.667 0
M  V30 4955 C 467.913 3.46435 2.58083 0
M  V30 4956 C 467.048 3.65386 3.85573 0
M  V30 4957 C 466.087 4.8644 3.71541 0
M  V30 4958 N 465.224 5.01952 4.90906 0
M  V30 4959 H 470.064 2.80109 1.017 0
M  V30 4960 H 467.601 1.38666 0.490938 0
M  V30 4961 H 469.559 2.34025 3.45381 0
M  V30 4962 H 468.189 1.31779 2.94676 0
M  V30 4963 H 467.241 3.39792 1.71013 0
M  V30 4964 H 468.553 4.35258 2.43622 0
M  V30 4965 H 467.707 3.80319 4.72697 0
M  V30 4966 H 466.446 2.74781 4.02922 0
M  V30 4967 H 465.451 4.71491 2.82801 0
M  V30 4968 H 466.676 5.78497 3.55694 0
M  V30 4969 H 464.622 4.14283 5.08631 0
M  V30 4970 H 464.539 5.84851 4.79046 0
M  V30 4971 H 465.807 5.21289 5.7955 0
M  V30 4972 N 470.036 -0.519951 1.48776 0
M  V30 4973 C 470.999 -1.60574 1.6355 0
M  V30 4974 C 471.999 -1.52557 0.508234 0
M  V30 4975 O 473.189 -1.56047 0.774262 0
M  V30 4976 C 470.321 -3.00211 1.61512 0
M  V30 4977 H 471.514 -1.4881 2.60376 0
M  V30 4978 H 469.067 -0.742772 1.37523 0
M  V30 4979 H 469.802 -3.17471 0.662009 0
M  V30 4980 H 469.587 -3.07439 2.43359 0
M  V30 4981 H 471.077 -3.79134 1.75064 0
M  V30 4982 N 471.514 -1.37532 -0.769588 0
M  V30 4983 C 472.462 -1.33561 -1.90432 0
M  V30 4984 C 473.456 -0.224027 -1.67912 0
M  V30 4985 O 474.662 -0.392174 -1.75676 0
M  V30 4986 H 471.037 -0.416279 -0.626271 0
M  V30 4987 H 473.008 -2.29348 -1.90899 0
M  V30 4988 C 471.757 -1.16162 -3.27722 0
M  V30 4989 H 471.08 -2.00951 -3.45628 0
M  V30 4990 H 472.52 -1.17434 -4.07413 0
M  V30 4991 C 470.979 0.132583 -3.36639 0
M  V30 4992 O 471.509 1.11539 -3.85904 0
M  V30 4993 N 469.715 0.184013 -2.90017 0
M  V30 4994 H 469.262 -0.616415 -2.50116 0
M  V30 4995 H 469.22 1.04956 -2.96364 0
M  V30 4996 N 472.992 0.995999 -1.22138 0
M  V30 4997 C 473.942 2.06988 -0.956042 0
M  V30 4998 C 474.926 1.60636 0.0921576 0
M  V30 4999 O 476.118 1.76607 -0.117958 0
M  V30 5000 C 473.247 3.39148 -0.532335 0
M  V30 5001 C 472.333 3.92142 -1.61509 0
M  V30 5002 N 472.724 4.18397 -2.84214 0
M  V30 5003 C 471.022 4.20514 -1.48606 0
M  V30 5004 C 471.723 4.61425 -3.54206 0
M  V30 5005 N 470.699 4.64934 -2.81669 0
M  V30 5006 H 474.501 2.25223 -1.88816 0
M  V30 5007 H 472.015 1.17748 -1.11845 0
M  V30 5008 H 474.012 4.15642 -0.323574 0
M  V30 5009 H 472.672 3.22314 0.392921 0
M  V30 5010 H 473.683 4.06682 -3.20671 0
M  V30 5011 H 470.36 4.12769 -0.626762 0
M  V30 5012 H 471.75 4.90387 -4.59315 0
M  V30 5013 N 474.47 1.03057 1.19235 0
M  V30 5014 C 475.433 0.617418 2.20727 0
M  V30 5015 C 476.433 -0.319856 1.57587 0
M  V30 5016 O 477.623 -0.106633 1.73873 0
M  V30 5017 C 474.755 -0.096296 3.40764 0
M  V30 5018 H 475.948 1.51544 2.58794 0
M  V30 5019 H 473.501 0.821949 1.32942 0
M  V30 5020 H 474.236 -1.00859 3.08217 0
M  V30 5021 H 474.021 0.577217 3.87828 0
M  V30 5022 H 475.511 -0.372219 4.15938 0
M  V30 5023 N 475.948 -1.35272 0.808662 0
M  V30 5024 C 476.858 -2.33546 0.222079 0
M  V30 5025 C 477.874 -1.6196 -0.636011 0
M  V30 5026 O 479.05 -1.93822 -0.547274 0
M  V30 5027 C 476.115 -3.41148 -0.61795 0
M  V30 5028 C 475.176 -4.28507 0.260875 0
M  V30 5029 C 474.409 -5.3097 -0.539156 0
M  V30 5030 O 474.632 -5.42123 -1.77367 0
M  V30 5031 O 473.566 -6.01858 0.0710526 0
M  V30 5032 H 477.392 -2.85515 1.03512 0
M  V30 5033 H 474.977 -1.38079 0.570495 0
M  V30 5034 H 476.859 -4.06889 -1.09634 0
M  V30 5035 H 475.534 -2.91447 -1.40855 0
M  V30 5036 H 474.441 -3.6574 0.786451 0
M  V30 5037 H 475.774 -4.81611 1.01547 0
M  V30 5038 N 477.426 -0.562348 -1.47226 0
M  V30 5039 C 478.356 0.170627 -2.32876 0
M  V30 5040 C 479.337 0.903748 -1.44106 0
M  V30 5041 O 480.522 0.883206 -1.72954 0
M  V30 5042 C 477.652 1.19786 -3.25989 0
M  V30 5043 C 476.606 0.580875 -4.2404 0
M  V30 5044 C 475.932 1.71311 -5.06514 0
M  V30 5045 C 477.232 -0.468714 -5.20193 0
M  V30 5046 H 478.926 -0.544441 -2.94408 0
M  V30 5047 H 476.472 -0.263271 -1.41573 0
M  V30 5048 H 478.425 1.71884 -3.84752 0
M  V30 5049 H 477.149 1.94294 -2.62521 0
M  V30 5050 H 475.808 0.0811538 -3.6651 0
M  V30 5051 H 475.456 2.44736 -4.39447 0
M  V30 5052 H 475.156 1.30604 -5.72902 0
M  V30 5053 H 476.68 2.23725 -5.68137 0
M  V30 5054 H 478.094 -0.0336028 -5.7329 0
M  V30 5055 H 476.491 -0.794957 -5.94811 0
M  V30 5056 H 477.561 -1.36269 -4.65359 0
M  V30 5057 N 478.904 1.54736 -0.299062 0
M  V30 5058 C 480.153 1.99279 0.311549 0
M  V30 5059 C 480.466 1.19107 1.55154 0
M  V30 5060 O 481.672 1.53908 2.23662 0
M  V30 5061 C 480.128 3.54768 0.605632 0
M  V30 5062 C 479.736 4.43746 -0.615914 0
M  V30 5063 C 481.48 4.07841 1.17754 0
M  V30 5064 C 479.387 5.90663 -0.29509 0
M  V30 5065 H 478.317 0.744359 0.120187 0
M  V30 5066 H 480.968 1.78919 -0.407464 0
M  V30 5067 H 479.35 3.71021 1.38419 0
M  V30 5068 H 480.524 4.39267 -1.39218 0
M  V30 5069 H 478.839 4.01434 -1.10633 0
M  V30 5070 H 481.436 5.15174 1.43179 0
M  V30 5071 H 481.779 3.58324 2.11918 0
M  V30 5072 H 482.312 3.95123 0.460739 0
M  V30 5073 H 479.051 6.44325 -1.20524 0
M  V30 5074 H 478.571 5.98155 0.44394 0
M  V30 5075 H 480.25 6.46916 0.104048 0
M  V30 5076 N 480.382 0.0267497 1.57577 0
M  V30 5077 C 481.312 -0.954308 2.13108 0
M  V30 5078 C 482.293 -1.34088 1.04663 0
M  V30 5079 O 483.478 -1.41992 1.32484 0
M  V30 5080 C 480.608 -2.23744 2.65624 0
M  V30 5081 C 479.562 -1.99168 3.78835 0
M  V30 5082 C 478.888 -3.33726 4.17769 0
M  V30 5083 C 480.188 -1.33277 5.0501 0
M  V30 5084 H 481.882 -0.491848 2.95332 0
M  V30 5085 H 479.428 -0.23514 1.42067 0
M  V30 5086 H 481.381 -2.92754 3.03106 0
M  V30 5087 H 480.105 -2.72151 1.80558 0
M  V30 5088 H 478.764 -1.32577 3.41788 0
M  V30 5089 H 478.412 -3.79888 3.29688 0
M  V30 5090 H 478.112 -3.18089 4.94058 0
M  V30 5091 H 479.636 -4.04008 4.57832 0
M  V30 5092 H 481.05 -1.92283 5.40093 0
M  V30 5093 H 479.447 -1.28045 5.8628 0
M  V30 5094 H 480.517 -0.305411 4.83937 0
M  V30 5095 N 481.861 -1.55662 -0.24637 0
M  V30 5096 C 482.824 -1.89558 -1.28842 0
M  V30 5097 C 483.824 -0.772082 -1.41052 0
M  V30 5098 O 485.014 -1.04007 -1.39743 0
M  V30 5099 C 482.146 -2.12449 -2.66605 0
M  V30 5100 H 483.339 -2.82735 -1.00004 0
M  V30 5101 H 480.892 -1.48562 -0.485684 0
M  V30 5102 H 481.627 -1.21742 -3.00582 0
M  V30 5103 H 481.412 -2.94273 -2.59125 0
M  V30 5104 H 482.902 -2.39854 -3.41847 0
M  V30 5105 N 483.339 0.512053 -1.4905 0
M  V30 5106 C 484.287 1.63568 -1.65373 0
M  V30 5107 C 485.281 1.61228 -0.519806 0
M  V30 5108 O 486.487 1.65869 -0.699101 0
M  V30 5109 H 482.862 0.542019 -0.521267 0
M  V30 5110 H 484.833 1.4695 -2.59708 0
M  V30 5111 C 483.582 3.01761 -1.7273 0
M  V30 5112 H 482.905 3.04263 -2.59353 0
M  V30 5113 H 484.345 3.79948 -1.8819 0
M  V30 5114 C 482.804 3.33609 -0.46973 0
M  V30 5115 O 483.334 3.99607 0.409492 0
M  V30 5116 N 481.54 2.88651 -0.336003 0
M  V30 5117 H 481.087 2.35119 -1.05247 0
M  V30 5118 H 481.045 3.10328 0.504363 0
M  V30 5119 N 484.817 1.37938 0.762283 0
M  V30 5120 C 486.228 1.30094 1.33912 0
M  V30 5121 C 486.579 -0.0472026 1.96143 0
M  V30 5122 O 485.704 -0.94917 1.94473 0
M  V30 5123 C 486.299 2.35592 2.43478 0
M  V30 5124 C 484.858 2.31353 2.96905 0
M  V30 5125 C 484.005 2.18919 1.70205 0
M  V30 5126 H 486.956 1.48423 0.561816 0
M  V30 5127 H 486.977 2.00806 3.23199 0
M  V30 5128 H 486.489 3.33701 1.98155 0
M  V30 5129 H 484.59 1.36799 3.46579 0
M  V30 5130 H 484.703 3.25147 3.51875 0
M  V30 5131 H 483.067 1.65624 1.93496 0
M  V30 5132 H 483.85 3.18956 1.26973 0
M  V30 5133 N 486.295 -0.989507 1.22664 0
M  V30 5134 C 487.52 -1.77031 1.08051 0
M  V30 5135 C 487.945 -1.84535 -0.364483 0
M  V30 5136 O 487.303 -1.3003 -1.2634 0
M  V30 5137 C 487.351 -3.18 1.70024 0
M  V30 5138 O 486.455 -4.01161 0.956216 0
M  V30 5139 H 485.796 -0.545008 0.379292 0
M  V30 5140 H 488.326 -1.24277 1.62531 0
M  V30 5141 H 488.336 -3.68616 1.74888 0
M  V30 5142 H 487.011 -3.11853 2.75174 0
M  V30 5143 H 485.588 -3.59687 0.98384 0
M  V30 5144 N 487.773 -1.03688 -1.18687 0
M  V30 5145 C 489.184 -0.766488 -1.70241 0
M  V30 5146 C 489.535 0.713052 -1.82784 0
M  V30 5147 O 488.66 1.55529 -1.50465 0
M  V30 5148 C 489.255 -1.38475 -3.09209 0
M  V30 5149 C 487.814 -1.16276 -3.5799 0
M  V30 5150 C 486.961 -1.4778 -2.34641 0
M  V30 5151 H 489.912 -1.20378 -1.03415 0
M  V30 5152 H 489.933 -0.785939 -3.72295 0
M  V30 5153 H 489.445 -2.46157 -3.00048 0
M  V30 5154 H 487.546 -0.104508 -3.72453 0
M  V30 5155 H 487.659 -1.8571 -4.41643 0
M  V30 5156 H 486.023 -0.897366 -2.38368 0
M  V30 5157 H 486.806 -2.56562 -2.28102 0
M  V30 5158 N 489.251 1.34841 -0.815825 0
M  V30 5159 C 490.497 1.98793 -0.401129 0
M  V30 5160 C 490.83 1.64548 1.03139 0
M  V30 5161 O 490.105 0.913487 1.71714 0
M  V30 5162 C 490.388 3.55143 -0.595409 0
M  V30 5163 C 490.241 3.99155 -2.07352 0
M  V30 5164 C 491.56 4.40092 -0.0268823 0
M  V30 5165 H 488.679 0.722146 -0.14722 0
M  V30 5166 H 491.321 1.59847 -1.02707 0
M  V30 5167 H 489.471 3.8845 -0.0625779 0
M  V30 5168 H 491.143 3.76216 -2.66945 0
M  V30 5169 H 489.386 3.49726 -2.56659 0
M  V30 5170 H 490.057 5.07971 -2.1603 0
M  V30 5171 H 492.533 4.13298 -0.482042 0
M  V30 5172 H 491.409 5.48562 -0.19267 0
M  V30 5173 H 491.67 4.29016 1.06759 0
M  V30 5174 N 490.729 0.570148 1.46925 0
M  V30 5175 C 491.659 -0.158274 2.32963 0
M  V30 5176 C 492.64 -0.896093 1.44583 0
M  V30 5177 O 493.825 -0.874022 1.7342 0
M  V30 5178 C 490.955 -1.18055 3.26619 0
M  V30 5179 C 489.909 -0.558379 4.24342 0
M  V30 5180 C 489.235 -1.68623 5.07415 0
M  V30 5181 C 490.535 0.496295 5.19937 0
M  V30 5182 H 492.229 0.560046 2.94115 0
M  V30 5183 H 489.775 0.270775 1.41431 0
M  V30 5184 H 491.728 -1.69841 3.85658 0
M  V30 5185 H 490.452 -1.92899 2.63548 0
M  V30 5186 H 489.111 -0.0617157 3.66548 0
M  V30 5187 H 488.759 -2.42402 4.40738 0
M  V30 5188 H 488.459 -1.27564 5.73586 0
M  V30 5189 H 489.983 -2.20709 5.69315 0
M  V30 5190 H 491.397 0.0640052 5.73264 0
M  V30 5191 H 489.794 0.82649 5.94381 0
M  V30 5192 H 490.864 1.38735 4.6463 0
M  V30 5193 N 492.207 -1.54576 0.307264 0
M  V30 5194 C 493.456 -1.99442 -0.300976 0
M  V30 5195 C 493.769 -1.19928 -1.5452 0
M  V30 5196 O 494.975 -1.55092 -2.22842 0
M  V30 5197 C 493.431 -3.55084 -0.586809 0
M  V30 5198 C 493.039 -4.43413 0.639438 0
M  V30 5199 C 494.783 -4.0846 -1.1559 0
M  V30 5200 C 492.69 -5.90499 0.326411 0
M  V30 5201 H 491.62 -0.744986 -0.116238 0
M  V30 5202 H 494.271 -1.787 0.416947 0
M  V30 5203 H 492.653 -3.71749 -1.36449 0
M  V30 5204 H 493.827 -4.38522 1.41545 0
M  V30 5205 H 492.142 -4.00842 1.1276 0
M  V30 5206 H 494.739 -5.15926 -1.40445 0
M  V30 5207 H 495.082 -3.59443 -2.10015 0
M  V30 5208 H 495.615 -3.95362 -0.439778 0
M  V30 5209 H 492.354 -6.43676 1.23939 0
M  V30 5210 H 491.874 -5.98382 -0.412212 0
M  V30 5211 H 493.553 -6.46962 -0.0697393 0
M  V30 5212 N 493.685 -0.035106 -1.57561 0
M  V30 5213 C 494.915 0.651312 -1.96065 0
M  V30 5214 C 495.323 1.6585 -0.910514 0
M  V30 5215 O 494.666 1.83336 0.11552 0
M  V30 5216 C 494.728 1.40897 -3.30739 0
M  V30 5217 C 494.392 0.559436 -4.53563 0
M  V30 5218 C 495.389 -0.16778 -5.19629 0
M  V30 5219 C 493.074 0.495079 -4.99854 0
M  V30 5220 C 495.068 -0.947963 -6.30311 0
M  V30 5221 C 492.755 -0.288804 -6.10417 0
M  V30 5222 C 493.753 -1.00903 -6.75505 0
M  V30 5223 O 493.441 -1.78005 -7.83945 0
M  V30 5224 H 493.173 0.184036 -0.650467 0
M  V30 5225 H 495.727 -0.0929677 -2.05189 0
M  V30 5226 H 493.957 2.19852 -3.18123 0
M  V30 5227 H 495.646 1.98407 -3.54104 0
M  V30 5228 H 496.412 -0.12743 -4.84833 0
M  V30 5229 H 492.291 1.04524 -4.48994 0
M  V30 5230 H 495.835 -1.51064 -6.81047 0
M  V30 5231 H 491.732 -0.33085 -6.44652 0
M  V30 5232 H 492.5 -1.70046 -8.00641 0
M  V30 5233 N 495.163 1.55791 0.238111 0
M  V30 5234 C 496.095 1.87513 1.31802 0
M  V30 5235 C 497.108 0.762053 1.43863 0
M  V30 5236 O 498.297 1.04024 1.45056 0
M  V30 5237 C 495.397 2.05402 2.69561 0
M  V30 5238 C 494.57 3.3632 2.79656 0
M  V30 5239 C 493.629 3.43844 3.98319 0
M  V30 5240 O 492.655 4.16994 3.87433 0
M  V30 5241 N 493.857 2.73777 5.11885 0
M  V30 5242 H 496.622 2.80734 1.04922 0
M  V30 5243 H 494.183 1.56135 0.428196 0
M  V30 5244 H 496.175 2.07769 3.47296 0
M  V30 5245 H 494.745 1.18884 2.89111 0
M  V30 5246 H 493.965 3.46195 1.88528 0
M  V30 5247 H 495.253 4.22594 2.83358 0
M  V30 5248 H 494.651 2.14094 5.23622 0
M  V30 5249 H 493.208 2.81825 5.87723 0
M  V30 5250 N 496.642 -0.504142 1.49319 0
M  V30 5251 C 497.891 -1.25507 1.57895 0
M  V30 5252 C 498.204 -1.93735 0.269433 0
M  V30 5253 O 499.41 -2.70492 0.233706 0
M  V30 5254 C 497.866 -2.27869 2.78574 0
M  V30 5255 C 497.474 -1.65594 4.16272 0
M  V30 5256 C 499.218 -3.0381 2.96479 0
M  V30 5257 C 497.125 -2.66048 5.28178 0
M  V30 5258 H 496.055 -0.47212 0.587894 0
M  V30 5259 H 498.706 -0.52931 1.757 0
M  V30 5260 H 497.088 -3.03594 2.54257 0
M  V30 5261 H 498.262 -0.958826 4.50714 0
M  V30 5262 H 496.577 -1.02055 4.037 0
M  V30 5263 H 499.174 -3.78925 3.77253 0
M  V30 5264 H 499.517 -3.61235 2.06918 0
M  V30 5265 H 500.05 -2.352 3.20821 0
M  V30 5266 H 496.789 -2.13408 6.19788 0
M  V30 5267 H 496.309 -3.34009 4.98195 0
M  V30 5268 H 497.988 -3.28536 5.57381 0
M  V30 5269 N 498.12 -1.38341 -0.754957 0
M  V30 5270 C 499.345 -1.37882 -1.5493 0
M  V30 5271 C 499.77 0.0296385 -1.88077 0
M  V30 5272 O 499.128 1.01133 -1.50472 0
M  V30 5273 C 499.176 -2.23996 -2.82592 0
M  V30 5274 O 498.28 -1.65612 -3.77686 0
M  V30 5275 H 497.621 -0.470384 -0.468652 0
M  V30 5276 H 500.151 -1.82084 -0.933082 0
M  V30 5277 H 500.161 -2.37806 -3.3153 0
M  V30 5278 H 498.836 -3.26365 -2.57796 0
M  V30 5279 H 497.413 -1.60936 -3.36384 0
M  V30 5280 N 499.598 0.982988 -1.23187 0
M  V30 5281 C 500.823 1.76455 -1.08988 0
M  V30 5282 C 501.248 1.84726 0.354691 0
M  V30 5283 O 500.606 1.30699 1.25649 0
M  V30 5284 C 500.654 3.17094 -1.71708 0
M  V30 5285 O 499.758 4.00648 -0.977477 0
M  V30 5286 H 499.099 0.542988 -0.382177 0
M  V30 5287 H 501.629 1.23413 -1.63188 0
M  V30 5288 H 501.639 3.67684 -1.76841 0
M  V30 5289 H 500.314 3.10389 -2.76823 0
M  V30 5290 H 498.891 3.59161 -1.0029 0
M  V30 5291 N 501.076 1.04316 1.18135 0
M  V30 5292 C 502.301 0.768047 1.92655 0
M  V30 5293 C 502.726 -0.66904 1.758 0
M  V30 5294 O 502.084 -1.46372 1.06981 0
M  V30 5295 C 502.132 1.14239 3.42026 0
M  V30 5296 O 501.236 0.269333 4.1152 0
M  V30 5297 H 500.577 0.282436 0.600937 0
M  V30 5298 H 503.107 1.39367 1.49793 0
M  V30 5299 H 503.117 1.10538 3.92741 0
M  V30 5300 H 501.792 2.18928 3.53615 0
M  V30 5301 H 500.369 0.366175 3.71098 0
M  V30 5302 N 502.554 -1.34406 0.822964 0
M  V30 5303 C 503.464 -2.33298 0.246838 0
M  V30 5304 C 504.48 -1.62625 -0.618797 0
M  V30 5305 O 505.656 -1.94391 -0.526685 0
M  V30 5306 C 502.721 -3.41785 -0.581731 0
M  V30 5307 C 501.782 -4.28206 0.306309 0
M  V30 5308 C 501.015 -5.31512 -0.48281 0
M  V30 5309 O 501.238 -5.43973 -1.71607 0
M  V30 5310 O 500.172 -6.01749 0.134884 0
M  V30 5311 H 503.998 -2.84401 1.06534 0
M  V30 5312 H 501.583 -1.37466 0.585108 0
M  V30 5313 H 503.465 -4.08028 -1.05313 0
M  V30 5314 H 502.14 -2.92925 -1.37756 0
M  V30 5315 H 501.047 -3.64885 0.825199 0
M  V30 5316 H 502.38 -4.80507 1.06649 0
M  V30 5317 N 504.032 -0.577932 -1.46621 0
M  V30 5318 C 505.26 -0.0671642 -2.06791 0
M  V30 5319 C 505.675 1.23571 -1.42743 0
M  V30 5320 O 505.032 1.74602 -0.531062 0
M  V30 5321 C 505.083 0.110357 -3.61332 0
M  V30 5322 O 504.804 -1.14095 -4.22982 0
M  V30 5323 C 506.305 0.656025 -4.38419 0
M  V30 5324 H 503.525 -0.0552732 -0.66872 0
M  V30 5325 H 506.069 -0.797242 -1.8832 0
M  V30 5326 H 504.224 0.790637 -3.79246 0
M  V30 5327 H 504.638 -0.951742 -5.15793 0
M  V30 5328 H 506.112 0.729438 -5.47159 0
M  V30 5329 H 506.589 1.67195 -4.06131 0
M  V30 5330 H 507.195 0.0107692 -4.25299 0
M  V30 5331 N 505.51 1.54411 -0.315457 0
M  V30 5332 C 506.926 1.59556 0.037464 0
M  V30 5333 C 507.126 1.33217 1.5118 0
M  V30 5334 O 506.182 1.11264 2.26664 0
M  V30 5335 C 507.495 2.98372 -0.373477 0
M  V30 5336 C 509.043 3.11324 -0.323452 0
M  V30 5337 C 509.518 4.52472 -0.709433 0
M  V30 5338 N 511.009 4.58437 -0.662524 0
M  V30 5339 C 511.744 5.65751 -0.933474 0
M  V30 5340 N 511.24 6.81039 -1.27114 0
M  V30 5341 N 513.033 5.55489 -0.859573 0
M  V30 5342 H 505.184 1.6979 -1.27614 0
M  V30 5343 H 507.447 0.793732 -0.518356 0
M  V30 5344 H 507.153 3.22618 -1.40037 0
M  V30 5345 H 507.027 3.76264 0.265615 0
M  V30 5346 H 509.414 2.86818 0.694223 0
M  V30 5347 H 509.495 2.35555 -0.997367 0
M  V30 5348 H 509.139 4.7771 -1.72498 0
M  V30 5349 H 509.069 5.26598 -0.0132923 0
M  V30 5350 H 511.56 3.75636 -0.413065 0
M  V30 5351 H 511.873 7.58816 -1.46348 0
M  V30 5352 H 510.218 6.82555 -1.30932 0
M  V30 5353 H 513.409 4.64299 -0.595324 0
M  V30 5354 H 513.582 6.39036 -1.0741 0
M  V30 5355 N 506.988 0.0434614 1.5754 0
M  V30 5356 C 508.234 -0.632971 1.92669 0
M  V30 5357 C 508.567 -1.70947 0.921446 0
M  V30 5358 O 507.842 -1.94426 -0.0537202 0
M  V30 5359 C 508.125 -1.23619 3.38216 0
M  V30 5360 C 507.978 -0.168274 4.49485 0
M  V30 5361 C 509.297 -2.15008 3.84005 0
M  V30 5362 H 506.416 -0.228629 0.700641 0
M  V30 5363 H 509.058 0.103651 1.89717 0
M  V30 5364 H 507.208 -1.864 3.40863 0
M  V30 5365 H 508.88 0.463196 4.58969 0
M  V30 5366 H 507.123 0.504581 4.30855 0
M  V30 5367 H 507.794 -0.630218 5.48391 0
M  V30 5368 H 510.27 -1.62198 3.83185 0
M  V30 5369 H 509.146 -2.54161 4.86511 0
M  V30 5370 H 509.407 -3.04707 3.20322 0
M  V30 5371 N 508.466 -1.55915 -0.229846 0
M  V30 5372 C 509.396 -1.94754 -1.28815 0
M  V30 5373 C 510.377 -0.814657 -1.49323 0
M  V30 5374 O 511.562 -1.07631 -1.61645 0
M  V30 5375 C 508.692 -2.25705 -2.63959 0
M  V30 5376 C 507.646 -3.41406 -2.5812 0
M  V30 5377 C 506.972 -3.57941 -3.97218 0
M  V30 5378 C 508.272 -4.76616 -2.13623 0
M  V30 5379 H 509.966 -2.83404 -0.965547 0
M  V30 5380 H 507.512 -1.36353 -0.463028 0
M  V30 5381 H 509.465 -2.51467 -3.38146 0
M  V30 5382 H 508.189 -1.339 -2.9789 0
M  V30 5383 H 506.848 -3.1568 -1.86391 0
M  V30 5384 H 506.496 -2.63526 -4.28443 0
M  V30 5385 H 506.196 -4.35757 -3.94195 0
M  V30 5386 H 507.72 -3.86042 -4.73079 0
M  V30 5387 H 509.134 -5.01637 -2.77549 0
M  V30 5388 H 507.531 -5.57655 -2.21677 0
M  V30 5389 H 508.601 -4.7253 -1.08829 0
M  V30 5390 N 509.944 0.496216 -1.49584 0
M  V30 5391 C 511.19 1.25189 -1.59548 0
M  V30 5392 C 511.523 1.9212 -0.283466 0
M  V30 5393 O 510.798 1.80947 0.713324 0
M  V30 5394 C 511.081 2.31516 -2.75812 0
M  V30 5395 C 510.934 1.69054 -4.16822 0
M  V30 5396 C 512.253 3.3304 -2.87702 0
M  V30 5397 H 509.372 0.45379 -0.580727 0
M  V30 5398 H 512.014 0.549327 -1.81886 0
M  V30 5399 H 510.164 2.91438 -2.56897 0
M  V30 5400 H 511.836 1.12923 -4.47265 0
M  V30 5401 H 510.079 0.994485 -4.22247 0
M  V30 5402 H 510.75 2.462 -4.94054 0
M  V30 5403 H 513.226 2.83114 -3.04936 0
M  V30 5404 H 512.102 4.04794 -3.7072 0
M  V30 5405 H 512.363 3.95655 -1.97255 0
M  V30 5406 N 511.423 1.38739 0.74761 0
M  V30 5407 C 512.7 1.25791 1.49786 0
M  V30 5408 C 513.08 -0.138075 2.10648 0
M  V30 5409 O 512.428 -1.14815 1.9756 0
M  V30 5410 C 512.638 2.37265 2.55942 0
M  V30 5411 C 513.986 2.75978 3.22679 0
M  V30 5412 O 515.01 2.36621 2.6625 0
M  V30 5413 O 513.869 3.43867 4.24756 0
M  V30 5414 H 510.963 0.492251 0.664543 0
M  V30 5415 H 513.509 1.50582 0.782511 0
M  V30 5416 H 512.281 3.30644 2.0926 0
M  V30 5417 H 511.904 2.14071 3.35051 0
M  V30 5418 N 512.901 -0.976442 1.23707 0
M  V30 5419 C 514.15 -1.71254 1.06559 0
M  V30 5420 C 514.463 -1.91528 -0.397024 0
M  V30 5421 O 515.669 -2.62625 -0.688518 0
M  V30 5422 C 514.125 -3.08207 1.8584 0
M  V30 5423 C 513.733 -2.95806 3.36456 0
M  V30 5424 C 515.477 -3.85749 1.77194 0
M  V30 5425 C 513.384 -4.28015 4.08114 0
M  V30 5426 H 512.314 -0.642171 0.395136 0
M  V30 5427 H 514.965 -1.08877 1.4771 0
M  V30 5428 H 513.347 -3.71363 1.37498 0
M  V30 5429 H 514.521 -2.41716 3.92314 0
M  V30 5430 H 512.836 -2.31736 3.45959 0
M  V30 5431 H 515.433 -4.83633 2.28041 0
M  V30 5432 H 515.776 -4.09752 0.735477 0
M  V30 5433 H 516.309 -3.29303 2.23169 0
M  V30 5434 H 513.048 -4.09208 5.12083 0
M  V30 5435 H 512.568 -4.81955 3.57043 0
M  V30 5436 H 514.247 -4.96681 4.14629 0
M  V30 5437 N 514.379 -1.04941 -1.1758 0
M  V30 5438 C 515.795 -0.770282 -1.39781 0
M  V30 5439 C 515.995 0.636417 -1.91186 0
M  V30 5440 O 515.051 1.39923 -2.10185 0
M  V30 5441 C 516.364 -1.82376 -2.3908 0
M  V30 5442 C 517.912 -1.84569 -2.52791 0
M  V30 5443 C 518.387 -2.88933 -3.55361 0
M  V30 5444 N 519.878 -2.8788 -3.62877 0
M  V30 5445 C 520.613 -3.65282 -4.41992 0
M  V30 5446 N 520.109 -4.52461 -5.24643 0
M  V30 5447 N 521.902 -3.53732 -4.36841 0
M  V30 5448 H 514.053 -1.95705 -0.825438 0
M  V30 5449 H 516.316 -0.847284 -0.425222 0
M  V30 5450 H 516.022 -2.83323 -2.08376 0
M  V30 5451 H 515.896 -1.66327 -3.38549 0
M  V30 5452 H 518.283 -0.842879 -2.82807 0
M  V30 5453 H 518.364 -2.04696 -1.53406 0
M  V30 5454 H 518.008 -3.89398 -3.26085 0
M  V30 5455 H 517.938 -2.66059 -4.54445 0
M  V30 5456 H 520.429 -2.24666 -3.03864 0
M  V30 5457 H 520.742 -5.08211 -5.82187 0
M  V30 5458 H 519.087 -4.56524 -5.24033 0
M  V30 5459 H 522.278 -2.85021 -3.71323 0
M  V30 5460 H 522.451 -4.14302 -4.98255 0
M  V30 5461 N 515.857 1.33968 -0.830081 0
M  V30 5462 C 517.105 1.97672 -0.420734 0
M  V30 5463 C 517.426 1.66111 1.02138 0
M  V30 5464 O 516.696 0.955503 1.71017 0
M  V30 5465 H 515.276 0.73125 -0.152587 0
M  V30 5466 H 517.938 1.63483 -1.0611 0
M  V30 5467 H 517.034 3.07294 -0.545588 0
M  V30 5468 N 517.335 0.585699 1.46312 0
M  V30 5469 C 518.245 -0.148236 2.34131 0
M  V30 5470 C 519.261 -0.882972 1.49932 0
M  V30 5471 O 520.437 -0.845484 1.82794 0
M  V30 5472 C 517.502 -1.14714 3.27172 0
M  V30 5473 C 516.563 -0.416746 4.27272 0
M  V30 5474 C 515.796 -1.36806 5.15868 0
M  V30 5475 O 516.019 -2.60475 5.07454 0
M  V30 5476 O 514.953 -0.877018 5.95476 0
M  V30 5477 H 518.779 0.572882 2.98248 0
M  V30 5478 H 516.364 0.346082 1.45336 0
M  V30 5479 H 518.246 -1.72303 3.84564 0
M  V30 5480 H 516.921 -1.84967 2.65648 0
M  V30 5481 H 515.828 0.201061 3.73559 0
M  V30 5482 H 517.161 0.244872 4.9159 0
M  V30 5483 N 518.813 -1.54241 0.323641 0
M  V30 5484 C 519.746 -2.20579 -0.584833 0
M  V30 5485 C 520.724 -1.18286 -1.11567 0
M  V30 5486 O 521.908 -1.47025 -1.17966 0
M  V30 5487 C 519.035 -2.86754 -1.80249 0
M  V30 5488 C 518.081 -4.02767 -1.4029 0
M  V30 5489 S 518.914 -5.33693 -0.439539 0
M  V30 5490 C 520.07 -6.03362 -1.66448 0
M  V30 5491 H 520.303 -2.97292 -0.0213238 0
M  V30 5492 H 517.836 -1.54024 0.107726 0
M  V30 5493 H 519.794 -3.25503 -2.50116 0
M  V30 5494 H 518.455 -2.09844 -2.33719 0
M  V30 5495 H 517.648 -4.47933 -2.31024 0
M  V30 5496 H 517.25 -3.65692 -0.783928 0
M  V30 5497 H 519.542 -6.25546 -2.6019 0
M  V30 5498 H 520.485 -6.9689 -1.25498 0
M  V30 5499 H 520.893 -5.33273 -1.85149 0
M  V30 5500 N 520.291 -0.0518155 -1.57515 0
M  V30 5501 C 521.702 0.483787 -1.80323 0
M  V30 5502 C 522.053 1.70879 -0.964099 0
M  V30 5503 O 521.178 2.15643 -0.180872 0
M  V30 5504 C 521.773 0.884459 -3.27052 0
M  V30 5505 C 520.332 1.36504 -3.50776 0
M  V30 5506 C 519.479 0.340539 -2.75201 0
M  V30 5507 H 522.43 -0.277691 -1.56252 0
M  V30 5508 H 522.451 1.74733 -3.38007 0
M  V30 5509 H 521.963 -0.00731093 -3.88099 0
M  V30 5510 H 520.064 2.27598 -2.95009 0
M  V30 5511 H 520.177 1.35675 -4.59488 0
M  V30 5512 H 518.541 0.81356 -2.41357 0
M  V30 5513 H 519.324 -0.543156 -3.38976 0
M  V30 5514 N 521.769 1.56035 0.221574 0
M  V30 5515 C 523.185 1.49026 0.571271 0
M  V30 5516 C 523.385 0.746912 1.87146 0
M  V30 5517 O 522.441 0.286566 2.50869 0
M  V30 5518 C 523.754 2.93579 0.650522 0
M  V30 5519 C 525.302 3.04099 0.741151 0
M  V30 5520 C 525.777 4.5001 0.851747 0
M  V30 5521 N 527.268 4.54053 0.915968 0
M  V30 5522 C 528.003 5.64232 1.02125 0
M  V30 5523 N 527.499 6.84164 1.09049 0
M  V30 5524 N 529.292 5.52084 1.05639 0
M  V30 5525 H 521.443 2.02791 -0.63162 0
M  V30 5526 H 523.706 0.921736 -0.221602 0
M  V30 5527 H 523.412 3.50912 -0.235253 0
M  V30 5528 H 523.286 3.45476 1.51413 0
M  V30 5529 H 525.673 2.4683 1.61737 0
M  V30 5530 H 525.754 2.55371 -0.148128 0
M  V30 5531 H 525.398 5.07896 -0.0200117 0
M  V30 5532 H 525.328 4.96444 1.75644 0
M  V30 5533 H 527.819 3.67683 0.872782 0
M  V30 5534 H 528.132 7.63883 1.1706 0
M  V30 5535 H 526.477 6.86875 1.05962 0
M  V30 5536 H 529.668 4.57317 0.998953 0
M  V30 5537 H 529.841 6.37983 1.13498 0
M  V30 5538 N 523.247 -0.488276 1.49845 0
M  V30 5539 C 524.195 -1.60917 1.67954 0
M  V30 5540 C 525.189 -1.6038 0.54539 0
M  V30 5541 O 526.395 -1.64736 0.7254 0
M  V30 5542 H 522.77 -0.533658 0.529824 0
M  V30 5543 H 524.741 -1.428 2.62013 0
M  V30 5544 C 523.49 -2.98975 1.77509 0
M  V30 5545 H 522.813 -3.00099 2.6416 0
M  V30 5546 H 524.253 -3.76906 1.9421 0
M  V30 5547 C 522.712 -3.3282 0.522745 0
M  V30 5548 O 523.242 -4.00208 -0.345866 0
M  V30 5549 N 521.448 -2.8808 0.381882 0
M  V30 5550 H 520.995 -2.33415 1.08974 0
M  V30 5551 H 520.953 -3.11091 -0.454929 0
M  V30 5552 N 524.725 -1.39134 -0.740242 0
M  V30 5553 C 525.655 -1.40165 -1.86751 0
M  V30 5554 C 526.636 -0.265708 -1.68012 0
M  V30 5555 O 527.821 -0.47076 -1.88408 0
M  V30 5556 C 524.951 -1.2392 -3.2444 0
M  V30 5557 C 523.905 -2.34858 -3.57807 0
M  V30 5558 C 523.231 -2.03707 -4.94376 0
M  V30 5559 C 524.531 -3.77159 -3.61315 0
M  V30 5560 H 526.225 -2.345 -1.86145 0
M  V30 5561 H 523.771 -1.12875 -0.89416 0
M  V30 5562 H 525.724 -1.23263 -4.02969 0
M  V30 5563 H 524.448 -0.26051 -3.25559 0
M  V30 5564 H 523.107 -2.34723 -2.81604 0
M  V30 5565 H 522.755 -1.04289 -4.9207 0
M  V30 5566 H 522.455 -2.78016 -5.17669 0
M  V30 5567 H 523.979 -2.04691 -5.75268 0
M  V30 5568 H 525.393 -3.79252 -4.29931 0
M  V30 5569 H 523.79 -4.50784 -3.96124 0
M  V30 5570 H 524.86 -4.08513 -2.61238 0
M  V30 5571 N 526.204 0.969867 -1.24223 0
M  V30 5572 C 527.62 1.23809 -1.00716 0
M  V30 5573 C 527.82 1.99469 0.285358 0
M  V30 5574 O 526.876 2.31764 1.00207 0
M  V30 5575 C 528.189 2.02734 -2.2208 0
M  V30 5576 C 529.737 2.15834 -2.26681 0
M  V30 5577 C 530.212 2.98154 -3.47661 0
M  V30 5578 N 531.703 3.05737 -3.47964 0
M  V30 5579 C 532.438 3.69785 -4.38231 0
M  V30 5580 N 531.934 4.35569 -5.3875 0
M  V30 5581 N 533.727 3.66775 -4.25949 0
M  V30 5582 H 525.878 0.463294 -2.07286 0
M  V30 5583 H 528.141 0.267348 -0.909521 0
M  V30 5584 H 527.847 1.54524 -3.15935 0
M  V30 5585 H 527.721 3.0347 -2.24021 0
M  V30 5586 H 530.108 2.63248 -1.33359 0
M  V30 5587 H 530.189 1.14453 -2.28767 0
M  V30 5588 H 529.833 2.51435 -4.41297 0
M  V30 5589 H 529.763 3.99729 -3.42818 0
M  V30 5590 H 532.254 2.58941 -2.75242 0
M  V30 5591 H 532.567 4.82251 -6.03866 0
M  V30 5592 H 530.912 4.34244 -5.42639 0
M  V30 5593 H 534.103 3.14558 -3.46657 0
M  V30 5594 H 534.276 4.16407 -4.96497 0
M  V30 5595 N 527.682 1.05563 1.17022 0
M  V30 5596 C 528.592 0.670758 2.24807 0
M  V30 5597 C 529.608 -0.309865 1.71219 0
M  V30 5598 O 530.784 -0.161025 2.00755 0
M  V30 5599 C 527.849 0.055337 3.46656 0
M  V30 5600 C 526.91 1.08688 4.15314 0
M  V30 5601 C 526.143 0.500736 5.31346 0
M  V30 5602 O 526.366 -0.688718 5.66227 0
M  V30 5603 O 525.3 1.23683 5.89055 0
M  V30 5604 H 529.126 1.56914 2.60023 0
M  V30 5605 H 526.711 0.827428 1.24395 0
M  V30 5606 H 528.593 -0.286492 4.20425 0
M  V30 5607 H 527.268 -0.816638 3.13229 0
M  V30 5608 H 526.175 1.48077 3.43546 0
M  V30 5609 H 527.508 1.93014 4.52777 0
M  V30 5610 N 529.16 -1.33526 0.837174 0
M  V30 5611 C 530.39 -2.01754 0.444848 0
M  V30 5612 C 530.798 -1.63149 -0.958072 0
M  V30 5613 O 530.141 -0.839827 -1.63379 0
M  V30 5614 C 530.203 -3.56228 0.483917 0
M  V30 5615 C 529.867 -4.18205 1.84265 0
M  V30 5616 C 530.864 -4.37699 2.80563 0
M  V30 5617 C 528.549 -4.54667 2.13503 0
M  V30 5618 C 530.543 -4.928 4.04261 0
M  V30 5619 C 528.23 -5.09475 3.37458 0
M  V30 5620 C 529.228 -5.28488 4.32654 0
M  V30 5621 O 528.916 -5.82132 5.54417 0
M  V30 5622 H 528.648 -0.652928 0.175104 0
M  V30 5623 H 531.202 -1.71469 1.13082 0
M  V30 5624 H 529.432 -3.85833 -0.258826 0
M  V30 5625 H 531.121 -4.05752 0.109653 0
M  V30 5626 H 531.887 -4.0988 2.59274 0
M  V30 5627 H 527.766 -4.39164 1.40201 0
M  V30 5628 H 531.31 -5.07555 4.78574 0
M  V30 5629 H 527.207 -5.36725 3.58604 0
M  V30 5630 H 527.975 -6.00548 5.56133 0
M  V30 5631 N 530.638 -0.59345 -1.46 0
M  V30 5632 C 531.571 0.182196 -2.27472 0
M  V30 5633 C 532.549 0.886901 -1.36282 0
M  V30 5634 O 533.733 0.898627 -1.65701 0
M  V30 5635 C 530.86 1.26236 -3.14296 0
M  V30 5636 C 529.906 0.662331 -4.21326 0
M  V30 5637 S 530.739 -0.519017 -5.32979 0
M  V30 5638 C 531.895 0.562086 -6.23371 0
M  V30 5639 H 532.128 -0.509056 -2.92909 0
M  V30 5640 H 529.661 -0.380607 -1.49635 0
M  V30 5641 H 531.619 1.88075 -3.64881 0
M  V30 5642 H 530.28 1.92562 -2.48151 0
M  V30 5643 H 529.473 1.47461 -4.81945 0
M  V30 5644 H 529.075 0.119381 -3.73809 0
M  V30 5645 H 531.367 1.44494 -6.61912 0
M  V30 5646 H 532.31 -0.00760776 -7.081 0
M  V30 5647 H 532.718 0.871061 -5.57739 0
M  V30 5648 N 532.116 1.54067 -0.331816 0
M  V30 5649 C 533.362 2.01012 0.268667 0
M  V30 5650 C 533.695 1.2195 1.51136 0
M  V30 5651 O 532.97 0.303972 1.9211 0
M  V30 5652 C 533.253 3.55158 0.59456 0
M  V30 5653 C 533.106 4.4494 -0.659409 0
M  V30 5654 C 534.425 4.16939 1.4089 0
M  V30 5655 H 531.544 0.730698 0.0961756 0
M  V30 5656 H 534.186 1.84593 -0.450031 0
M  V30 5657 H 532.336 3.6928 1.20685 0
M  V30 5658 H 534.008 4.42675 -1.29756 0
M  V30 5659 H 532.251 4.1428 -1.28665 0
M  V30 5660 H 532.922 5.50643 -0.386804 0
M  V30 5661 H 535.398 4.06443 0.891272 0
M  V30 5662 H 534.274 5.24889 1.60569 0
M  V30 5663 H 534.535 3.70798 2.40752 0
M  V30 5664 N 533.594 0.0601682 1.57485 0
M  V30 5665 C 534.504 -0.926121 2.15546 0
M  V30 5666 C 535.52 -1.33532 1.11558 0
M  V30 5667 O 536.696 -1.4104 1.4377 0
M  V30 5668 C 533.761 -2.17952 2.69625 0
M  V30 5669 C 532.822 -1.82783 3.88444 0
M  V30 5670 C 532.055 -3.02148 4.39935 0
M  V30 5671 O 532.278 -4.15803 3.90466 0
M  V30 5672 O 531.212 -2.82639 5.31412 0
M  V30 5673 H 535.038 -0.462289 3.00161 0
M  V30 5674 H 532.623 -0.162246 1.48516 0
M  V30 5675 H 534.505 -2.91474 3.04337 0
M  V30 5676 H 533.18 -2.63456 1.88077 0
M  V30 5677 H 532.087 -1.06549 3.58606 0
M  V30 5678 H 533.42 -1.42072 4.7125 0
M  V30 5679 N 535.072 -1.5615 -0.213296 0
M  V30 5680 C 536.019 -1.93086 -1.26437 0
M  V30 5681 C 536.989 -0.789086 -1.4616 0
M  V30 5682 O 538.174 -1.04569 -1.59593 0
M  V30 5683 C 535.314 -2.26003 -2.608 0
M  V30 5684 C 534.427 -3.53156 -2.48807 0
M  V30 5685 C 533.562 -3.7548 -3.7575 0
M  V30 5686 C 532.601 -4.96119 -3.58514 0
M  V30 5687 N 531.738 -5.14791 -4.77425 0
M  V30 5688 H 536.578 -2.82707 -0.942376 0
M  V30 5689 H 534.115 -1.39919 -0.454001 0
M  V30 5690 H 536.073 -2.431 -3.39055 0
M  V30 5691 H 534.703 -1.39546 -2.91079 0
M  V30 5692 H 533.755 -3.44207 -1.61944 0
M  V30 5693 H 535.067 -4.41565 -2.31996 0
M  V30 5694 H 534.221 -3.92718 -4.62447 0
M  V30 5695 H 532.96 -2.85368 -3.95495 0
M  V30 5696 H 531.965 -4.78823 -2.70201 0
M  V30 5697 H 533.19 -5.87724 -3.40231 0
M  V30 5698 H 531.136 -4.27623 -4.97468 0
M  V30 5699 H 531.053 -5.97347 -4.63371 0
M  V30 5700 H 532.321 -5.36471 -5.65525 0
M  V30 5701 N 536.55 0.480323 -1.50102 0
M  V30 5702 C 537.799 1.22979 -1.59872 0
M  V30 5703 C 538.112 1.93282 -0.30022 0
M  V30 5704 O 539.318 2.70086 -0.276709 0
M  V30 5705 C 537.774 2.23408 -2.82164 0
M  V30 5706 C 537.382 1.5895 -4.18854 0
M  V30 5707 C 539.126 2.99055 -3.01275 0
M  V30 5708 C 537.033 2.57611 -5.32344 0
M  V30 5709 H 535.963 0.462707 -0.59533 0
M  V30 5710 H 538.614 0.501291 -1.7652 0
M  V30 5711 H 536.996 2.99511 -2.59055 0
M  V30 5712 H 538.17 0.887 -4.52182 0
M  V30 5713 H 536.485 0.956191 -4.05273 0
M  V30 5714 H 539.082 3.72876 -3.83233 0
M  V30 5715 H 539.425 3.57897 -2.12639 0
M  V30 5716 H 539.958 2.30066 -3.24522 0
M  V30 5717 H 536.697 2.03521 -6.23105 0
M  V30 5718 H 536.217 3.26041 -5.03445 0
M  V30 5719 H 537.896 3.19627 -5.62537 0
M  V30 5720 N 538.028 1.39524 0.732853 0
M  V30 5721 C 539.258 1.3994 1.51988 0
M  V30 5722 C 539.666 -0.00727973 1.89199 0
M  V30 5723 O 539.009 -0.989521 1.54771 0
M  V30 5724 C 539.071 2.21026 2.83527 0
M  V30 5725 C 538.735 3.69633 2.68738 0
M  V30 5726 C 539.732 4.62665 2.37143 0
M  V30 5727 C 537.417 4.13244 2.85542 0
M  V30 5728 C 539.411 5.97291 2.22536 0
M  V30 5729 C 537.098 5.47945 2.70554 0
M  V30 5730 C 538.096 6.39783 2.39097 0
M  V30 5731 O 537.784 7.72002 2.24204 0
M  V30 5732 H 537.516 0.479795 0.476206 0
M  V30 5733 H 540.07 1.8399 0.913054 0
M  V30 5734 H 538.3 1.71728 3.46477 0
M  V30 5735 H 539.989 2.13594 3.45156 0
M  V30 5736 H 540.755 4.30272 2.2381 0
M  V30 5737 H 536.634 3.42094 3.09019 0
M  V30 5738 H 540.178 6.68939 1.97905 0
M  V30 5739 H 536.075 5.79928 2.83466 0
M  V30 5740 H 536.843 7.8275 2.39258 0
M  V30 5741 N 539.506 -0.963266 1.24736 0
M  V30 5742 C 540.917 -1.52145 1.08207 0
M  V30 5743 C 541.268 -1.93142 -0.345061 0
M  V30 5744 O 540.393 -1.77769 -1.23399 0
M  V30 5745 C 540.988 -2.76486 1.95808 0
M  V30 5746 C 539.547 -3.28646 1.8349 0
M  V30 5747 C 538.694 -2.01529 1.90476 0
M  V30 5748 H 541.645 -0.781083 1.38148 0
M  V30 5749 H 541.666 -3.49986 1.49297 0
M  V30 5750 H 541.178 -2.46617 2.99669 0
M  V30 5751 H 539.279 -3.63357 0.824787 0
M  V30 5752 H 539.392 -3.97246 2.67829 0
M  V30 5753 H 537.756 -2.16442 1.34258 0
M  V30 5754 H 538.539 -1.7402 2.95926 0
M  V30 5755 N 540.985 -1.06182 -1.16461 0
M  V30 5756 C 541.917 -0.629584 -2.20383 0
M  V30 5757 C 542.93 0.311834 -1.59786 0
M  V30 5758 O 544.119 0.103 -1.78203 0
M  V30 5759 C 541.219 0.0973695 -3.3876 0
M  V30 5760 C 540.392 -0.857252 -4.28917 0
M  V30 5761 C 539.451 -0.169749 -5.25926 0
M  V30 5762 O 538.477 -0.807044 -5.6345 0
M  V30 5763 N 539.679 1.08911 -5.70192 0
M  V30 5764 H 542.444 -1.52352 -2.58087 0
M  V30 5765 H 540.005 -0.944993 -1.31459 0
M  V30 5766 H 541.997 0.567676 -4.00699 0
M  V30 5767 H 540.567 0.893093 -2.99571 0
M  V30 5768 H 539.787 -1.50696 -3.64259 0
M  V30 5769 H 541.075 -1.50489 -4.86035 0
M  V30 5770 H 540.473 1.62703 -5.41797 0
M  V30 5771 H 539.03 1.50331 -6.34227 0
M  V30 5772 N 542.463 1.3308 -0.844243 0
M  V30 5773 C 543.712 1.96868 -0.438833 0
M  V30 5774 C 544.025 1.67599 1.00846 0
M  V30 5775 O 545.231 2.25043 1.51881 0
M  V30 5776 C 543.687 3.5234 -0.73377 0
M  V30 5777 C 543.295 3.90481 -2.1961 0
M  V30 5778 C 545.039 4.22653 -0.395574 0
M  V30 5779 C 542.946 5.38954 -2.43481 0
M  V30 5780 H 541.876 0.736749 -0.160364 0
M  V30 5781 H 544.527 1.51623 -1.03358 0
M  V30 5782 H 542.909 3.95941 -0.068589 0
M  V30 5783 H 544.083 3.57922 -2.90221 0
M  V30 5784 H 542.398 3.33165 -2.4978 0
M  V30 5785 H 544.995 5.31848 -0.551477 0
M  V30 5786 H 545.338 4.11004 0.661921 0
M  V30 5787 H 545.871 3.84601 -1.01621 0
M  V30 5788 H 542.61 5.55612 -3.47816 0
M  V30 5789 H 542.13 5.72954 -1.77437 0
M  V30 5790 H 543.809 6.05907 -2.26905 0
M  V30 5791 N 543.941 0.601185 1.45683 0
M  V30 5792 C 545.352 0.179659 1.85834 0
M  V30 5793 C 545.703 -1.26189 1.50236 0
M  V30 5794 O 544.828 -1.95587 0.925987 0
M  V30 5795 C 545.423 0.319277 3.37292 0
M  V30 5796 C 543.982 -0.0475092 3.7637 0
M  V30 5797 C 543.129 0.646692 2.69654 0
M  V30 5798 H 546.08 0.808268 1.36575 0
M  V30 5799 H 546.101 -0.4503 3.77826 0
M  V30 5800 H 545.613 1.36855 3.6317 0
M  V30 5801 H 543.714 -1.0962 3.5611 0
M  V30 5802 H 543.827 0.34168 4.7788 0
M  V30 5803 H 542.191 0.0849971 2.54558 0
M  V30 5804 H 542.974 1.69797 2.98369 0
M  V30 5805 N 545.419 -1.53889 0.339982 0
M  V30 5806 C 546.696 -1.93084 -0.312719 0
M  V30 5807 C 547.076 -1.2712 -1.68534 0
M  V30 5808 O 546.424 -0.420835 -2.24591 0
M  V30 5809 C 546.634 -3.4683 -0.388558 0
M  V30 5810 C 547.982 -4.19732 -0.641088 0
M  V30 5811 O 549.006 -3.53075 -0.470818 0
M  V30 5812 O 547.865 -5.3781 -0.970685 0
M  V30 5813 H 544.959 -0.806784 -0.18174 0
M  V30 5814 H 547.505 -1.65137 0.390898 0
M  V30 5815 H 546.277 -3.87055 0.574821 0
M  V30 5816 H 545.9 -3.80933 -1.1391 0
M  V30 5817 N 546.897 -0.0685191 -1.57451 0
M  V30 5818 C 547.847 0.909895 -2.09057 0
M  V30 5819 C 548.831 1.26088 -0.999528 0
M  V30 5820 O 550.023 1.24041 -1.26265 0
M  V30 5821 C 547.152 2.17863 -2.65312 0
M  V30 5822 C 546.238 1.85427 -3.81415 0
M  V30 5823 N 546.629 1.23426 -4.9051 0
M  V30 5824 C 544.927 2.15196 -3.90649 0
M  V30 5825 C 545.628 1.09008 -5.71395 0
M  V30 5826 N 544.604 1.59871 -5.1956 0
M  V30 5827 H 548.406 0.426145 -2.90794 0
M  V30 5828 H 545.92 0.135462 -1.61834 0
M  V30 5829 H 547.917 2.88872 -3.00597 0
M  V30 5830 H 546.577 2.66829 -1.85021 0
M  V30 5831 H 547.588 0.904305 -5.09944 0
M  V30 5832 H 544.265 2.66562 -3.21327 0
M  V30 5833 H 545.655 0.607305 -6.6915 0
M  V30 5834 N 548.375 1.56261 0.205012 0
M  V30 5835 C 549.305 1.96779 1.257 0
M  V30 5836 C 550.286 0.838309 1.48008 0
M  V30 5837 O 551.471 1.10189 1.59913 0
M  V30 5838 C 548.601 2.29876 2.60335 0
M  V30 5839 C 547.555 3.45469 2.52656 0
M  V30 5840 C 546.881 3.64215 3.91473 0
M  V30 5841 C 548.181 4.79954 2.06014 0
M  V30 5842 H 549.875 2.84904 0.920338 0
M  V30 5843 H 547.421 1.37072 0.441277 0
M  V30 5844 H 549.374 2.56814 3.34102 0
M  V30 5845 H 548.098 1.38622 2.95722 0
M  V30 5846 H 546.757 3.18605 1.81345 0
M  V30 5847 H 546.405 2.70309 4.24196 0
M  V30 5848 H 546.105 4.41973 3.87213 0
M  V30 5849 H 547.629 3.93519 4.66878 0
M  V30 5850 H 549.043 5.05989 2.69533 0
M  V30 5851 H 547.44 5.61111 2.12777 0
M  V30 5852 H 548.51 4.74201 1.01297 0
M  V30 5853 N 549.853 -0.472356 1.50355 0
M  V30 5854 C 550.8 -1.57051 1.69126 0
M  V30 5855 C 551.77 -1.5733 0.532574 0
M  V30 5856 O 552.955 -1.7488 0.762994 0
M  V30 5857 C 550.095 -2.95033 1.79024 0
M  V30 5858 C 549.208 -3.04552 3.06386 0
M  V30 5859 C 548.343 -4.33441 3.07087 0
M  V30 5860 C 547.382 -4.36697 4.28908 0
M  V30 5861 N 546.519 -5.57056 4.27356 0
M  V30 5862 H 551.359 -1.40351 2.62879 0
M  V30 5863 H 548.896 -0.682403 1.30314 0
M  V30 5864 H 550.854 -3.75048 1.82744 0
M  V30 5865 H 549.484 -3.10371 0.887109 0
M  V30 5866 H 548.536 -2.17419 3.12143 0
M  V30 5867 H 549.848 -3.02818 3.96362 0
M  V30 5868 H 549.002 -5.21801 3.09529 0
M  V30 5869 H 547.741 -4.37782 2.14939 0
M  V30 5870 H 546.746 -3.46734 4.2668 0
M  V30 5871 H 547.971 -4.34049 5.22282 0
M  V30 5872 H 545.917 -5.62184 3.3806 0
M  V30 5873 H 545.834 -5.57058 5.111 0
M  V30 5874 H 547.102 -6.47545 4.33942 0
M  V30 5875 N 551.331 -1.39911 -0.725443 0
M  V30 5876 C 552.241 -1.41688 -1.8698 0
M  V30 5877 C 553.257 -0.310579 -1.71206 0
M  V30 5878 O 554.433 -0.55359 -1.93642 0
M  V30 5879 C 551.498 -1.26811 -3.22676 0
M  V30 5880 C 550.559 -2.47497 -3.50776 0
M  V30 5881 C 549.792 -2.3332 -4.79997 0
M  V30 5882 O 550.015 -1.34175 -5.54394 0
M  V30 5883 O 548.949 -3.22498 -5.08211 0
M  V30 5884 H 552.775 -2.38171 -1.88436 0
M  V30 5885 H 550.36 -1.21128 -0.874548 0
M  V30 5886 H 552.242 -1.20684 -4.03749 0
M  V30 5887 H 550.917 -0.334289 -3.21969 0
M  V30 5888 H 549.824 -2.59201 -2.69751 0
M  V30 5889 H 551.157 -3.39606 -3.5627 0
M  V30 5890 N 552.809 0.956637 -1.25245 0
M  V30 5891 C 554.22 1.51569 -1.09012 0
M  V30 5892 C 554.571 1.93322 0.334813 0
M  V30 5893 O 553.696 1.78421 1.22454 0
M  V30 5894 C 554.291 2.75444 -1.97271 0
M  V30 5895 C 552.85 3.27669 -1.8523 0
M  V30 5896 C 551.997 2.00517 -1.91542 0
M  V30 5897 H 554.948 0.773746 -1.3856 0
M  V30 5898 H 554.969 3.4919 -1.51151 0
M  V30 5899 H 554.481 2.45024 -3.00973 0
M  V30 5900 H 552.582 3.62914 -0.844045 0
M  V30 5901 H 552.695 3.9582 -2.69932 0
M  V30 5902 H 551.059 2.15727 -1.35404 0
M  V30 5903 H 551.842 1.72448 -2.96844 0
M  V30 5904 N 554.287 1.06798 1.15896 0
M  V30 5905 C 555.534 0.787767 1.86549 0
M  V30 5906 C 555.862 -0.685959 1.82002 0
M  V30 5907 O 555.117 -1.5188 1.23414 0
M  V30 5908 C 555.416 1.23414 3.35416 0
M  V30 5909 C 555.082 2.71285 3.6016 0
M  V30 5910 C 553.744 3.11676 3.66622 0
M  V30 5911 C 556.096 3.6676 3.7032 0
M  V30 5912 C 553.424 4.4637 3.8075 0
M  V30 5913 C 555.776 5.01209 3.8597 0
M  V30 5914 C 554.44 5.41229 3.90676 0
M  V30 5915 H 553.71 0.288264 0.682631 0
M  V30 5916 H 556.357 1.338 1.37003 0
M  V30 5917 H 554.662 0.60319 3.87129 0
M  V30 5918 H 556.359 0.994298 3.88477 0
M  V30 5919 H 552.949 2.39015 3.55767 0
M  V30 5920 H 557.133 3.36685 3.64633 0
M  V30 5921 H 552.389 4.76855 3.82648 0
M  V30 5922 H 556.563 5.75067 3.92773 0
M  V30 5923 H 554.19 6.45602 4.01375 0
M  V30 5924 N 555.766 -1.3263 0.851289 0
M  V30 5925 C 556.696 -2.31449 0.308771 0
M  V30 5926 C 557.677 -1.59531 -0.590255 0
M  V30 5927 O 558.862 -1.87351 -0.511205 0
M  V30 5928 C 555.992 -3.43586 -0.506548 0
M  V30 5929 C 554.946 -4.26963 0.297753 0
M  V30 5930 C 554.272 -5.30831 -0.642094 0
M  V30 5931 C 555.572 -4.99643 1.52166 0
M  V30 5932 H 557.266 -2.77074 1.13447 0
M  V30 5933 H 554.812 -1.33207 0.546971 0
M  V30 5934 H 556.765 -4.11754 -0.896474 0
M  V30 5935 H 555.489 -2.96681 -1.36558 0
M  V30 5936 H 554.148 -3.60437 0.669391 0
M  V30 5937 H 553.796 -4.8018 -1.49788 0
M  V30 5938 H 553.496 -5.87501 -0.107968 0
M  V30 5939 H 555.02 -6.01862 -1.02927 0
M  V30 5940 H 556.434 -5.6051 1.20421 0
M  V30 5941 H 554.831 -5.66022 1.99347 0
M  V30 5942 H 555.901 -4.27701 2.28474 0
M  V30 5943 N 557.244 -0.608902 -1.45362 0
M  V30 5944 C 558.154 0.110969 -2.34337 0
M  V30 5945 C 559.17 0.859007 -1.51318 0
M  V30 5946 O 560.346 0.816296 -1.84116 0
M  V30 5947 C 557.411 1.09494 -3.28956 0
M  V30 5948 C 556.472 0.348718 -4.27881 0
M  V30 5949 C 555.705 1.28582 -5.17979 0
M  V30 5950 O 555.928 2.52369 -5.11533 0
M  V30 5951 O 554.862 0.782172 -5.96796 0
M  V30 5952 H 558.688 -0.620258 -2.97299 0
M  V30 5953 H 556.273 -0.36916 -1.44767 0
M  V30 5954 H 558.155 1.66163 -3.87257 0
M  V30 5955 H 556.83 1.80717 -2.68557 0
M  V30 5956 H 555.737 -0.260465 -3.73192 0
M  V30 5957 H 557.07 -0.323049 -4.91139 0
M  V30 5958 N 558.722 1.53707 -0.348139 0
M  V30 5959 C 559.685 2.23812 0.494058 0
M  V30 5960 C 560.685 1.23989 1.02388 0
M  V30 5961 O 561.875 1.48395 0.912396 0
M  V30 5962 C 559.007 2.96133 1.68872 0
M  V30 5963 H 560.2 2.99663 -0.119141 0
M  V30 5964 H 557.753 1.55983 -0.0995539 0
M  V30 5965 H 558.488 2.24481 2.34049 0
M  V30 5966 H 558.273 3.69357 1.31596 0
M  V30 5967 H 559.763 3.49475 2.28597 0
M  V30 5968 N 560.2 0.0768682 1.57412 0
M  V30 5969 C 561.428 -0.59997 1.9801 0
M  V30 5970 C 561.843 -1.62842 0.955408 0
M  V30 5971 O 561.2 -1.8241 -0.057314 0
M  V30 5972 C 561.251 -1.26401 3.38681 0
M  V30 5973 O 560.972 -0.276723 4.37225 0
M  V30 5974 C 562.473 -2.0282 3.94182 0
M  V30 5975 H 559.693 -0.162239 0.651091 0
M  V30 5976 H 562.237 0.150771 2.03943 0
M  V30 5977 H 560.392 -1.96581 3.33819 0
M  V30 5978 H 560.806 -0.753744 5.19056 0
M  V30 5979 H 562.28 -2.44667 4.94815 0
M  V30 5980 H 562.757 -2.88678 3.31001 0
M  V30 5981 H 563.363 -1.37496 4.02461 0
M  V30 5982 N 561.678 -1.56367 -0.196722 0
M  V30 5983 C 562.955 -1.71359 -0.943159 0
M  V30 5984 C 563.335 -0.631192 -2.01443 0
M  V30 5985 O 562.683 0.358071 -2.25677 0
M  V30 5986 C 562.893 -3.13623 -1.53106 0
M  V30 5987 C 564.241 -3.73806 -2.01381 0
M  V30 5988 O 565.265 -3.16742 -1.62951 0
M  V30 5989 O 564.124 -4.73951 -2.7209 0
M  V30 5990 H 561.218 -0.698851 -0.442195 0
M  V30 5991 H 563.764 -1.68672 -0.186547 0
M  V30 5992 H 562.536 -3.83873 -0.758785 0
M  V30 5993 H 562.159 -3.20532 -2.35255 0
M  V30 5994 N 563.156 0.464375 -1.50603 0
M  V30 5995 C 564.104 1.58224 -1.70493 0
M  V30 5996 C 565.098 1.59492 -0.570836 0
M  V30 5997 O 566.304 1.63561 -0.751517 0
M  V30 5998 H 562.679 0.525161 -0.538247 0
M  V30 5999 H 564.65 1.38613 -2.64252 0
M  V30 6000 C 563.399 2.96113 -1.82243 0
M  V30 6001 H 562.722 2.95858 -2.68901 0
M  V30 6002 H 564.162 3.73769 -2.00182 0
M  V30 6003 C 562.621 3.31946 -0.575628 0
M  V30 6004 O 563.151 4.00708 0.282152 0
M  V30 6005 N 561.357 2.87436 -0.427665 0
M  V30 6006 H 560.904 2.31652 -1.12674 0
M  V30 6007 H 560.862 3.11776 0.405379 0
M  V30 6008 N 564.634 1.40294 0.718013 0
M  V30 6009 C 565.859 1.41941 1.5122 0
M  V30 6010 C 566.284 0.0202371 1.88089 0
M  V30 6011 O 565.642 -0.971078 1.53101 0
M  V30 6012 C 565.69 2.3141 2.76554 0
M  V30 6013 O 564.794 1.75567 3.73162 0
M  V30 6014 H 564.135 0.482644 0.456016 0
M  V30 6015 H 566.665 1.84494 0.884478 0
M  V30 6016 H 566.675 2.46513 3.25108 0
M  V30 6017 H 565.35 3.33085 2.49053 0
M  V30 6018 H 563.927 1.69798 3.31999 0
M  V30 6019 N 566.112 -0.949982 1.2575 0
M  V30 6020 C 567.062 -2.03297 1.03221 0
M  V30 6021 C 568.046 -1.60867 -0.0324751 0
M  V30 6022 O 569.238 -1.76047 0.183423 0
M  V30 6023 C 566.367 -3.36938 0.657841 0
M  V30 6024 C 565.453 -3.85878 1.75952 0
M  V30 6025 N 565.844 -4.0756 2.99547 0
M  V30 6026 C 564.142 -4.14709 1.64111 0
M  V30 6027 C 564.843 -4.47961 3.71087 0
M  V30 6028 N 563.819 -4.5416 2.98731 0
M  V30 6029 H 567.621 -2.1806 1.97045 0
M  V30 6030 H 565.135 -1.13516 1.16138 0
M  V30 6031 H 567.132 -4.14155 0.477614 0
M  V30 6032 H 565.792 -3.2355 -0.273025 0
M  V30 6033 H 566.803 -3.94501 3.35544 0
M  V30 6034 H 563.48 -4.10158 0.779527 0
M  V30 6035 H 564.87 -4.73002 4.77199 0
M  V30 6036 N 567.59 -1.07411 -1.15328 0
M  V30 6037 C 568.52 -0.716472 -2.22236 0
M  V30 6038 C 569.501 0.296373 -1.67498 0
M  V30 6039 O 570.686 0.168989 -1.93463 0
M  V30 6040 C 567.816 -0.114142 -3.47112 0
M  V30 6041 C 566.77 -1.05421 -4.14814 0
M  V30 6042 C 566.096 -0.314604 -5.33774 0
M  V30 6043 C 567.396 -2.38808 -4.64508 0
M  V30 6044 H 569.09 -1.61029 -2.52408 0
M  V30 6045 H 566.636 -0.775702 -1.21321 0
M  V30 6046 H 568.589 0.148001 -4.2114 0
M  V30 6047 H 567.313 0.814755 -3.16274 0
M  V30 6048 H 565.972 -1.30128 -3.42728 0
M  V30 6049 H 565.62 0.617772 -4.99192 0
M  V30 6050 H 565.32 -0.941209 -5.80013 0
M  V30 6051 H 566.844 -0.0602747 -6.1057 0
M  V30 6052 H 568.258 -2.18424 -5.3006 0
M  V30 6053 H 566.655 -2.97069 -5.21412 0
M  V30 6054 H 567.725 -3.01067 -3.80114 0
M  V30 6055 N 569.068 1.32177 -0.85831 0
M  V30 6056 C 570.484 1.49873 -0.548656 0
M  V30 6057 C 570.684 1.79278 0.919874 0
M  V30 6058 O 569.74 1.86451 1.70271 0
M  V30 6059 C 571.053 2.64043 -1.4388 0
M  V30 6060 C 572.601 2.77928 -1.43961 0
M  V30 6061 C 573.076 3.95182 -2.31506 0
M  V30 6062 N 574.567 4.0245 -2.29321 0
M  V30 6063 C 575.302 4.9242 -2.93786 0
M  V30 6064 N 574.798 5.87373 -3.67376 0
M  V30 6065 N 576.591 4.85572 -2.83155 0
M  V30 6066 H 568.742 1.11357 -1.80868 0
M  V30 6067 H 571.005 0.549175 -0.772729 0
M  V30 6068 H 570.711 2.49055 -2.48324 0
M  V30 6069 H 570.585 3.59912 -1.12885 0
M  V30 6070 H 572.972 2.92338 -0.402813 0
M  V30 6071 H 573.053 1.82762 -1.78974 0
M  V30 6072 H 572.697 3.81531 -3.35256 0
M  V30 6073 H 572.627 4.89633 -1.93823 0
M  V30 6074 H 575.118 3.34507 -1.75822 0
M  V30 6075 H 575.431 6.52728 -4.13722 0
M  V30 6076 H 573.776 5.87388 -3.71484 0
M  V30 6077 H 576.967 4.10363 -2.25211 0
M  V30 6078 H 577.14 5.55486 -3.33676 0
M  V30 6079 N 570.547 0.616602 1.45037 0
M  V30 6080 C 571.772 0.120192 2.07051 0
M  V30 6081 C 572.197 -1.19008 1.45666 0
M  V30 6082 O 571.555 -1.7267 0.552692 0
M  V30 6083 C 571.603 0.00354901 3.606 0
M  V30 6084 O 570.707 -1.04431 3.98958 0
M  V30 6085 H 570.048 0.0781599 0.659384 0
M  V30 6086 H 572.578 0.849167 1.86146 0
M  V30 6087 H 572.588 -0.191754 4.07549 0
M  V30 6088 H 571.263 0.960239 4.04663 0
M  V30 6089 H 569.84 -0.824749 3.63665 0
M  V30 6090 N 572.025 -1.5352 0.356285 0
M  V30 6091 C 572.958 -2.2177 -0.537913 0
M  V30 6092 C 573.936 -1.20626 -1.09033 0
M  V30 6093 O 575.12 -1.49494 -1.1482 0
M  V30 6094 C 572.247 -2.90513 -1.74126 0
M  V30 6095 C 571.293 -4.05652 -1.31715 0
M  V30 6096 S 572.126 -5.34505 -0.326236 0
M  V30 6097 C 573.282 -6.06757 -1.53612 0
M  V30 6098 H 573.515 -2.97271 0.0417411 0
M  V30 6099 H 571.048 -1.53761 0.140372 0
M  V30 6100 H 573.006 -3.30735 -2.43155 0
M  V30 6101 H 571.667 -2.14754 -2.29215 0
M  V30 6102 H 570.86 -4.52733 -2.21471 0
M  V30 6103 H 570.462 -3.67272 -0.706183 0
M  V30 6104 H 572.754 -6.30924 -2.46863 0
M  V30 6105 H 573.697 -6.99395 -1.10687 0
M  V30 6106 H 574.105 -5.3708 -1.73796 0
M  V30 6107 N 573.503 -0.0852151 -1.57369 0
M  V30 6108 C 574.914 0.445428 -1.81309 0
M  V30 6109 C 575.265 1.68795 -1.00013 0
M  V30 6110 O 574.39 2.15211 -0.226573 0
M  V30 6111 C 574.985 0.814887 -3.28854 0
M  V30 6112 C 573.544 1.29032 -3.53592 0
M  V30 6113 C 572.691 0.282089 -2.75861 0
M  V30 6114 H 575.642 -0.310771 -1.55627 0
M  V30 6115 H 575.663 1.67524 -3.41637 0
M  V30 6116 H 575.175 -0.0896309 -3.87996 0
M  V30 6117 H 573.276 2.21289 -2.9977 0
M  V30 6118 H 573.389 1.25898 -4.62262 0
M  V30 6119 H 571.753 0.762182 -2.43029 0
M  V30 6120 H 572.536 -0.614936 -3.37748 0
M  V30 6121 N 574.981 1.5647 0.188427 0
M  V30 6122 C 575.944 1.9421 1.21718 0
M  V30 6123 C 576.944 0.823901 1.38089 0
M  V30 6124 O 578.134 1.09122 1.35787 0
M  V30 6125 C 575.266 2.22197 2.58537 0
M  V30 6126 H 576.459 2.86252 0.894418 0
M  V30 6127 H 574.012 1.50263 0.430211 0
M  V30 6128 H 574.747 1.32814 2.95856 0
M  V30 6129 H 574.532 3.03688 2.48025 0
M  V30 6130 H 576.022 2.52376 3.3271 0
M  V30 6131 N 576.459 -0.456382 1.50847 0
M  V30 6132 C 577.684 -1.2349 1.66628 0
M  V30 6133 C 578.109 -1.84715 0.355254 0
M  V30 6134 O 577.467 -1.67961 -0.682559 0
M  V30 6135 C 577.515 -2.30865 2.77009 0
M  V30 6136 O 576.619 -3.35882 2.39285 0
M  V30 6137 H 575.96 -0.36266 0.556214 0
M  V30 6138 H 578.49 -0.541374 1.97308 0
M  V30 6139 H 578.5 -2.75949 3.00526 0
M  V30 6140 H 577.175 -1.85677 3.72152 0
M  V30 6141 H 575.752 -2.96406 2.26269 0
M  V30 6142 N 577.937 -1.40673 -0.710563 0
M  V30 6143 C 579.184 -1.39222 -1.47049 0
M  V30 6144 C 579.512 0.0037691 -1.945 0
M  V30 6145 O 578.767 0.989224 -1.68857 0
M  V30 6146 C 579.066 -2.33253 -2.70791 0
M  V30 6147 C 578.732 -3.80406 -2.42079 0
M  V30 6148 C 577.394 -4.20496 -2.33959 0
M  V30 6149 C 579.746 -4.73375 -2.18094 0
M  V30 6150 C 577.074 -5.51584 -1.99929 0
M  V30 6151 C 579.426 -6.04768 -1.85576 0
M  V30 6152 C 578.09 -6.43895 -1.75941 0
M  V30 6153 H 577.36 -0.509449 -0.538092 0
M  V30 6154 H 580.007 -1.73363 -0.81348 0
M  V30 6155 H 578.312 -1.92314 -3.41354 0
M  V30 6156 H 580.009 -2.29412 -3.28894 0
M  V30 6157 H 576.599 -3.48645 -2.49288 0
M  V30 6158 H 580.783 -4.43217 -2.23321 0
M  V30 6159 H 576.039 -5.80797 -1.91011 0
M  V30 6160 H 580.213 -6.76318 -1.66033 0
M  V30 6161 H 577.84 -7.45387 -1.4934 0
M  V30 6162 N 579.415 0.9433 -1.26252 0
M  V30 6163 C 580.345 2.05902 -1.10122 0
M  V30 6164 C 581.326 1.70099 -0.00700552 0
M  V30 6165 O 582.511 1.93377 -0.178641 0
M  V30 6166 C 579.641 3.39516 -0.731175 0
M  V30 6167 C 578.595 3.89372 -1.77688 0
M  V30 6168 C 577.921 5.19613 -1.26122 0
M  V30 6169 C 579.221 4.14489 -3.17799 0
M  V30 6170 H 580.915 2.19655 -2.03451 0
M  V30 6171 H 578.461 1.05548 -0.979576 0
M  V30 6172 H 580.414 4.17031 -0.605215 0
M  V30 6173 H 579.138 3.25733 0.23782 0
M  V30 6174 H 577.797 3.14036 -1.89148 0
M  V30 6175 H 577.445 5.02208 -0.282128 0
M  V30 6176 H 577.145 5.53939 -1.96023 0
M  V30 6177 H 578.669 5.99713 -1.14789 0
M  V30 6178 H 580.083 4.82625 -3.09428 0
M  V30 6179 H 578.48 4.60094 -3.85271 0
M  V30 6180 H 579.55 3.20347 -3.64014 0
M  V30 6181 N 580.893 1.08022 1.14757 0
M  V30 6182 C 582.304 0.829144 1.67279 0
M  V30 6183 C 582.655 -0.644721 1.85305 0
M  V30 6184 O 581.78 -1.49838 1.56133 0
M  V30 6185 C 582.375 1.49855 3.03857 0
M  V30 6186 C 580.934 1.29482 3.53428 0
M  V30 6187 C 580.081 1.56386 2.28995 0
M  V30 6188 H 583.032 1.24134 0.988762 0
M  V30 6189 H 583.053 0.923572 3.69121 0
M  V30 6190 H 582.565 2.57123 2.90705 0
M  V30 6191 H 580.666 0.242669 3.71809 0
M  V30 6192 H 580.779 2.01974 4.34446 0
M  V30 6193 H 579.143 0.985217 2.34874 0
M  V30 6194 H 579.926 2.64851 2.18423 0
M  V30 6195 N 582.371 -1.3172 0.865308 0
M  V30 6196 C 583.782 -1.79104 0.527126 0
M  V30 6197 C 584.133 -1.7135 -0.955695 0
M  V30 6198 O 583.258 -1.27845 -1.74598 0
M  V30 6199 C 583.853 -3.25207 0.950061 0
M  V30 6200 C 582.412 -3.70504 0.663611 0
M  V30 6201 C 581.559 -2.52605 1.14395 0
M  V30 6202 H 584.51 -1.18868 1.05148 0
M  V30 6203 H 584.531 -3.79535 0.270805 0
M  V30 6204 H 584.043 -3.30818 2.02931 0
M  V30 6205 H 582.144 -3.70398 -0.404474 0
M  V30 6206 H 582.257 -4.62845 1.23737 0
M  V30 6207 H 580.621 -2.4838 0.563859 0
M  V30 6208 H 581.404 -2.60964 2.23053 0
M  V30 6209 N 583.85 -0.624285 -1.44708 0
M  V30 6210 C 585.075 -0.131171 -2.06985 0
M  V30 6211 C 585.5 1.18234 -1.46295 0
M  V30 6212 O 584.858 1.72375 -0.561842 0
M  V30 6213 C 584.906 -0.0226724 -3.60593 0
M  V30 6214 O 584.01 1.02314 -3.99507 0
M  V30 6215 H 583.351 -0.0816556 -0.65896 0
M  V30 6216 H 585.88 -0.859027 -1.85693 0
M  V30 6217 H 585.891 0.170138 -4.07645 0
M  V30 6218 H 584.566 -0.981685 -4.04148 0
M  V30 6219 H 583.143 0.805452 -3.64097 0
M  V30 6220 N 585.328 1.53329 -0.364422 0
M  V30 6221 C 586.553 2.06132 0.229033 0
M  V30 6222 C 586.978 1.23625 1.41769 0
M  V30 6223 O 586.336 0.255038 1.79497 0
M  V30 6224 C 586.384 3.55544 0.60174 0
M  V30 6225 O 585.488 3.75771 1.69912 0
M  V30 6226 H 584.829 0.663148 0.0336213 0
M  V30 6227 H 587.359 1.97758 -0.524689 0
M  V30 6228 H 587.369 3.98549 0.873073 0
M  V30 6229 H 586.044 4.15039 -0.267421 0
M  V30 6230 H 584.621 3.44663 1.42343 0
M  V30 6231 N 586.806 0.0935595 1.57322 0
M  V30 6232 C 588.052 -0.571355 1.94585 0
M  V30 6233 C 588.385 -1.67929 0.975366 0
M  V30 6234 O 587.66 -1.94498 0.00816206 0
M  V30 6235 C 587.943 -1.12797 3.41978 0
M  V30 6236 C 587.796 -0.0251881 4.49793 0
M  V30 6237 C 589.115 -2.02682 3.90651 0
M  V30 6238 H 586.234 -0.206223 0.70756 0
M  V30 6239 H 588.876 0.163956 1.89291 0
M  V30 6240 H 587.026 -1.75461 3.4662 0
M  V30 6241 H 588.698 0.608979 4.57263 0
M  V30 6242 H 586.941 0.641399 4.29032 0
M  V30 6243 H 587.612 -0.455433 5.50118 0
M  V30 6244 H 590.088 -1.49925 3.88152 0
M  V30 6245 H 588.964 -2.38555 4.94351 0
M  V30 6246 H 589.225 -2.94362 3.29854 0
M  V30 6247 N 588.284 -1.56567 -0.180126 0
M  V30 6248 C 589.231 -1.95725 -1.22313 0
M  V30 6249 C 590.201 -0.819911 -1.44453 0
M  V30 6250 O 591.386 -1.07931 -1.57339 0
M  V30 6251 C 588.526 -2.31484 -2.55947 0
M  V30 6252 C 587.639 -3.58354 -2.4126 0
M  V30 6253 C 586.774 -3.83366 -3.67701 0
M  V30 6254 C 585.813 -5.03612 -3.47909 0
M  V30 6255 N 584.95 -5.24802 -4.66398 0
M  V30 6256 H 589.79 -2.84642 -0.882198 0
M  V30 6257 H 587.327 -1.4085 -0.42422 0
M  V30 6258 H 589.285 -2.50237 -3.33822 0
M  V30 6259 H 587.915 -1.45689 -2.88053 0
M  V30 6260 H 586.967 -3.47565 -1.54606 0
M  V30 6261 H 588.279 -4.46386 -2.22577 0
M  V30 6262 H 587.433 -4.02439 -4.54013 0
M  V30 6263 H 586.172 -2.93692 -3.89353 0
M  V30 6264 H 585.177 -4.84447 -2.59983 0
M  V30 6265 H 586.402 -5.94809 -3.27688 0
M  V30 6266 H 584.348 -4.38079 -4.88286 0
M  V30 6267 H 584.265 -6.07041 -4.50596 0
M  V30 6268 H 585.533 -5.48346 -5.54019 0
M  V30 6269 N 589.762 0.448376 -1.51087 0
M  V30 6270 C 590.709 1.54341 -1.71603 0
M  V30 6271 C 591.679 1.56463 -0.557536 0
M  V30 6272 O 592.864 1.73644 -0.79072 0
M  V30 6273 C 590.004 2.92148 -1.83695 0
M  V30 6274 C 589.117 2.99639 -3.11192 0
M  V30 6275 C 588.252 4.285 -3.13944 0
M  V30 6276 C 587.291 4.29819 -4.35801 0
M  V30 6277 N 586.428 5.50186 -4.36164 0
M  V30 6278 H 591.268 1.36151 -2.65079 0
M  V30 6279 H 588.805 0.661585 -1.31383 0
M  V30 6280 H 590.763 3.72093 -1.88687 0
M  V30 6281 H 589.393 3.0892 -0.936374 0
M  V30 6282 H 588.445 2.12425 -3.15562 0
M  V30 6283 H 589.757 2.96474 -4.01129 0
M  V30 6284 H 588.911 5.16811 -3.17791 0
M  V30 6285 H 587.65 4.34307 -2.21876 0
M  V30 6286 H 586.655 3.39902 -4.32142 0
M  V30 6287 H 587.88 4.25685 -5.29121 0
M  V30 6288 H 585.826 5.56735 -3.46961 0
M  V30 6289 H 585.743 5.48856 -5.19897 0
M  V30 6290 H 587.011 6.40559 -4.44189 0
M  V30 6291 N 591.24 1.41047 0.703093 0
M  V30 6292 C 592.656 1.23351 1.01275 0
M  V30 6293 C 592.856 0.11754 2.01157 0
M  V30 6294 O 591.912 -0.520518 2.47077 0
M  V30 6295 C 593.225 2.58001 1.54454 0
M  V30 6296 C 594.773 2.65119 1.66376 0
M  V30 6297 C 595.248 4.00067 2.22958 0
M  V30 6298 N 596.739 4.01875 2.30328 0
M  V30 6299 C 597.474 5.03087 2.75119 0
M  V30 6300 N 596.97 6.14692 3.19571 0
M  V30 6301 N 598.763 4.90451 2.74616 0
M  V30 6302 H 590.914 2.1236 0.0412686 0
M  V30 6303 H 593.177 0.944543 0.08089 0
M  V30 6304 H 592.883 3.40378 0.88521 0
M  V30 6305 H 592.757 2.79962 2.52786 0
M  V30 6306 H 595.144 1.83106 2.31422 0
M  V30 6307 H 595.225 2.46975 0.666089 0
M  V30 6308 H 594.869 4.82526 1.58529 0
M  V30 6309 H 594.799 4.15547 3.23462 0
M  V30 6310 H 597.29 3.21291 1.98949 0
M  V30 6311 H 597.603 6.87799 3.52352 0
M  V30 6312 H 595.948 6.18239 3.17498 0
M  V30 6313 H 599.139 4.0235 2.39233 0
M  V30 6314 H 599.312 5.6947 3.09206 0
M  V30 6315 N 592.718 -0.936591 1.26751 0
M  V30 6316 C 593.966 -1.67998 1.12343 0
M  V30 6317 C 594.287 -1.92137 -0.332938 0
M  V30 6318 O 593.557 -1.52132 -1.23421 0
M  V30 6319 H 592.137 -0.622609 0.412756 0
M  V30 6320 H 594.799 -1.12509 1.59147 0
M  V30 6321 H 593.895 -2.65185 1.64571 0
M  V30 6322 N 594.196 -1.08629 -1.14182 0
M  V30 6323 C 595.442 -0.818556 -1.85546 0
M  V30 6324 C 595.775 0.654076 -1.82854 0
M  V30 6325 O 595.05 1.48099 -1.26083 0
M  V30 6326 C 595.333 -1.34397 -3.3408 0
M  V30 6327 C 595.186 -2.8821 -3.45333 0
M  V30 6328 C 596.505 -0.971069 -4.29253 0
M  V30 6329 H 593.624 -0.298821 -0.673702 0
M  V30 6330 H 596.266 -1.34629 -1.34071 0
M  V30 6331 H 594.416 -0.895064 -3.78049 0
M  V30 6332 H 596.088 -3.41488 -3.10134 0
M  V30 6333 H 594.331 -3.25756 -2.86471 0
M  V30 6334 H 595.002 -3.20047 -4.49749 0
M  V30 6335 H 597.478 -1.35809 -3.93313 0
M  V30 6336 H 596.354 -1.36586 -5.31635 0
M  V30 6337 H 596.615 0.121659 -4.41933 0
M  V30 6338 N 595.674 1.31259 -0.872281 0
M  V30 6339 C 596.604 2.30929 -0.345554 0
M  V30 6340 C 597.585 1.60449 0.5648 0
M  V30 6341 O 598.77 1.8814 0.481335 0
M  V30 6342 C 595.9 3.44348 0.451823 0
M  V30 6343 C 594.854 4.26435 -0.365641 0
M  V30 6344 C 594.18 5.31785 0.557562 0
M  V30 6345 C 595.48 4.97159 -1.60095 0
M  V30 6346 H 597.174 2.75234 -1.17841 0
M  V30 6347 H 594.72 1.3232 -0.568094 0
M  V30 6348 H 596.673 4.13128 0.830854 0
M  V30 6349 H 595.397 2.98816 1.31821 0
M  V30 6350 H 594.056 3.59326 -0.726649 0
M  V30 6351 H 593.704 4.82502 1.4213 0
M  V30 6352 H 593.404 5.87598 0.0144878 0
M  V30 6353 H 594.928 6.03424 0.933387 0
M  V30 6354 H 596.342 5.58523 -1.29323 0
M  V30 6355 H 594.739 5.62779 -2.08327 0
M  V30 6356 H 595.809 4.24012 -2.35249 0
M  V30 6357 N 597.152 0.631951 1.44375 0
M  V30 6358 C 598.082 -0.0593243 2.33425 0
M  V30 6359 C 599.063 -0.833964 1.48253 0
M  V30 6360 O 600.248 -0.799682 1.76971 0
M  V30 6361 C 597.378 -1.04096 3.31333 0
M  V30 6362 C 596.332 -0.377899 4.26328 0
M  V30 6363 C 595.658 -1.4695 5.14111 0
M  V30 6364 C 596.958 0.716371 5.17364 0
M  V30 6365 H 598.652 0.684287 2.91475 0
M  V30 6366 H 596.198 0.330518 1.40156 0
M  V30 6367 H 598.151 -1.53331 3.92514 0
M  V30 6368 H 596.875 -1.81547 2.71493 0
M  V30 6369 H 595.534 0.0938054 3.6648 0
M  V30 6370 H 595.182 -2.2349 4.50623 0
M  V30 6371 H 594.882 -1.03121 5.78481 0
M  V30 6372 H 596.406 -1.96363 5.78164 0
M  V30 6373 H 597.82 0.307089 5.72477 0
M  V30 6374 H 596.217 1.07784 5.90341 0
M  V30 6375 H 597.287 1.58316 4.58327 0
M  V30 6376 N 598.631 -1.53133 0.372548 0
M  V30 6377 C 599.561 -2.28876 -0.462412 0
M  V30 6378 C 600.542 -1.31583 -1.07796 0
M  V30 6379 O 601.727 -1.60461 -1.09389 0
M  V30 6380 C 598.857 -3.08317 -1.59868 0
M  V30 6381 C 597.811 -4.13355 -1.11003 0
M  V30 6382 C 597.137 -4.8092 -2.33708 0
M  V30 6383 C 598.437 -5.21955 -0.18983 0
M  V30 6384 H 600.131 -2.9892 0.169511 0
M  V30 6385 H 597.677 -1.43761 0.0829658 0
M  V30 6386 H 599.63 -3.60055 -2.18949 0
M  V30 6387 H 598.354 -2.35976 -2.25794 0
M  V30 6388 H 597.013 -3.62573 -0.541869 0
M  V30 6389 H 596.661 -4.05144 -2.98106 0
M  V30 6390 H 596.361 -5.51904 -2.01682 0
M  V30 6391 H 597.885 -5.35455 -2.93462 0
M  V30 6392 H 599.299 -5.69153 -0.688319 0
M  V30 6393 H 597.696 -6.00087 0.0398887 0
M  V30 6394 H 598.766 -4.78811 0.766057 0
M  V30 6395 N 600.109 -0.101901 -1.5727 0
M  V30 6396 C 601.357 0.559091 -1.94213 0
M  V30 6397 C 601.678 1.68297 -0.984948 0
M  V30 6398 O 600.948 1.95863 -0.0381975 0
M  V30 6399 H 599.528 0.20952 -0.717015 0
M  V30 6400 H 602.19 -0.166831 -1.94185 0
M  V30 6401 H 601.286 0.96485 -2.96811 0
M  V30 6402 N 601.587 1.56661 0.17182 0
M  V30 6403 C 602.864 1.72838 0.915778 0
M  V30 6404 C 603.244 0.66316 2.00413 0
M  V30 6405 O 602.592 -0.322123 2.26218 0
M  V30 6406 C 602.802 3.16019 1.48097 0
M  V30 6407 C 604.15 3.76962 1.95408 0
M  V30 6408 O 605.174 3.19294 1.57892 0
M  V30 6409 O 604.033 4.78219 2.64516 0
M  V30 6410 H 601.127 0.705797 0.431021 0
M  V30 6411 H 603.673 1.68947 0.159689 0
M  V30 6412 H 602.445 3.85031 0.697618 0
M  V30 6413 H 602.068 3.24234 2.30126 0
M  V30 6414 N 603.065 -0.440357 1.51323 0
M  V30 6415 C 604.028 -1.51679 1.71832 0
M  V30 6416 C 605.028 -1.49648 0.588386 0
M  V30 6417 O 606.218 -1.51724 0.855891 0
M  V30 6418 C 603.35 -2.91228 1.77199 0
M  V30 6419 H 604.543 -1.34799 2.67898 0
M  V30 6420 H 602.096 -0.66883 1.41267 0
M  V30 6421 H 602.831 -3.13516 0.829363 0
M  V30 6422 H 602.616 -2.94107 2.59314 0
M  V30 6423 H 604.106 -3.69321 1.94915 0
M  V30 6424 N 604.543 -1.41418 -0.695603 0
M  V30 6425 C 605.773 -1.43921 -1.48224 0
M  V30 6426 C 606.181 -0.0428855 -1.89151 0
M  V30 6427 O 605.524 0.948138 -1.5734 0
M  V30 6428 C 605.586 -2.28466 -2.77567 0
M  V30 6429 C 605.25 -3.76629 -2.58844 0
M  V30 6430 C 606.247 -4.6879 -2.24793 0
M  V30 6431 C 603.932 -4.2067 -2.74485 0
M  V30 6432 C 605.926 -6.02981 -2.06622 0
M  V30 6433 C 603.613 -5.54926 -2.55931 0
M  V30 6434 C 604.611 -6.45897 -2.2205 0
M  V30 6435 O 604.299 -7.77675 -2.03657 0
M  V30 6436 H 604.031 -0.492252 -0.463318 0
M  V30 6437 H 606.585 -1.86347 -0.863952 0
M  V30 6438 H 604.815 -1.80853 -3.41802 0
M  V30 6439 H 606.504 -2.2267 -3.39371 0
M  V30 6440 H 607.27 -4.36055 -2.12323 0
M  V30 6441 H 603.149 -3.50167 -2.9984 0
M  V30 6442 H 606.693 -6.73951 -1.80099 0
M  V30 6443 H 602.59 -5.8724 -2.67991 0
M  V30 6444 H 603.358 -7.88819 -2.1842 0
M  V30 6445 N 606.021 0.929856 -1.27246 0
M  V30 6446 C 606.969 2.05151 -1.09616 0
M  V30 6447 C 607.963 1.69388 -0.0198617 0
M  V30 6448 O 609.169 1.79124 -0.177417 0
M  V30 6449 H 605.544 0.671909 -0.337701 0
M  V30 6450 H 607.515 2.17168 -2.04648 0
M  V30 6451 C 606.264 3.3934 -0.757851 0
M  V30 6452 H 605.587 3.67343 -1.57795 0
M  V30 6453 H 607.027 4.18603 -0.674358 0
M  V30 6454 C 605.486 3.32582 0.537658 0
M  V30 6455 O 606.016 3.69633 1.57271 0
M  V30 6456 N 604.222 2.8568 0.532478 0
M  V30 6457 H 603.769 2.55725 -0.310233 0
M  V30 6458 H 603.727 2.81541 1.39936 0
M  V30 6459 N 607.499 1.09233 1.13605 0
M  V30 6460 C 608.432 0.6739 2.18023 0
M  V30 6461 C 609.41 -0.318603 1.59448 0
M  V30 6462 O 610.594 -0.220452 1.87206 0
M  V30 6463 C 607.721 -0.00751458 3.38699 0
M  V30 6464 C 606.767 0.946481 4.15865 0
M  V30 6465 S 607.6 2.45753 4.75779 0
M  V30 6466 C 608.756 1.78846 5.99804 0
M  V30 6467 H 608.989 1.55846 2.53178 0
M  V30 6468 H 606.522 0.908118 1.2487 0
M  V30 6469 H 608.48 -0.394368 4.08601 0
M  V30 6470 H 607.141 -0.868693 3.01849 0
M  V30 6471 H 606.334 0.416742 5.02274 0
M  V30 6472 H 605.936 1.27464 3.51609 0
M  V30 6473 H 608.228 1.11135 6.68323 0
M  V30 6474 H 609.171 2.63163 6.57382 0
M  V30 6475 H 609.579 1.25823 5.50299 0
M  V30 6476 N 608.977 -1.30795 0.87923 0
M  V30 6477 C 610.393 -1.48981 0.57243 0
M  V30 6478 C 610.593 -1.80719 -0.891236 0
M  V30 6479 O 609.649 -1.89136 -1.67283 0
M  V30 6480 C 610.962 -2.61721 1.48063 0
M  V30 6481 C 612.51 -2.75603 1.48365 0
M  V30 6482 C 612.985 -3.91449 2.37763 0
M  V30 6483 N 614.476 -3.98751 2.35695 0
M  V30 6484 C 615.211 -4.87684 3.01583 0
M  V30 6485 N 614.707 -5.81454 3.76674 0
M  V30 6486 N 616.5 -4.81005 2.90844 0
M  V30 6487 H 608.651 -1.08465 1.82617 0
M  V30 6488 H 610.914 -0.536813 0.781368 0
M  V30 6489 H 610.62 -2.45073 2.52254 0
M  V30 6490 H 610.494 -3.58071 1.18596 0
M  V30 6491 H 612.881 -2.9166 0.44927 0
M  V30 6492 H 612.962 -1.79891 1.81859 0
M  V30 6493 H 612.606 -3.76149 3.41283 0
M  V30 6494 H 612.536 -4.86487 2.01589 0
M  V30 6495 H 615.027 -3.31668 1.81121 0
M  V30 6496 H 615.34 -6.46063 4.24054 0
M  V30 6497 H 613.685 -5.81403 3.80782 0
M  V30 6498 H 616.876 -4.06728 2.31711 0
M  V30 6499 H 617.049 -5.50107 3.42471 0
M  V30 6500 N 610.455 -0.639598 -1.44038 0
M  V30 6501 C 611.405 0.0823038 -2.27851 0
M  V30 6502 C 612.389 0.807991 -1.39141 0
M  V30 6503 O 613.581 0.692702 -1.62882 0
M  V30 6504 C 610.71 1.05742 -3.26609 0
M  V30 6505 C 609.796 0.330911 -4.22807 0
M  V30 6506 N 610.187 -0.645126 -5.01669 0
M  V30 6507 C 608.485 0.574214 -4.42288 0
M  V30 6508 C 609.186 -1.07513 -5.71678 0
M  V30 6509 N 608.162 -0.412164 -5.42035 0
M  V30 6510 H 611.964 -0.666861 -2.86234 0
M  V30 6511 H 609.478 -0.465777 -1.55577 0
M  V30 6512 H 611.475 1.58927 -3.85419 0
M  V30 6513 H 610.135 1.80679 -2.69787 0
M  V30 6514 H 611.146 -1.02329 -5.0769 0
M  V30 6515 H 607.823 1.30581 -3.96554 0
M  V30 6516 H 609.213 -1.88196 -6.45005 0
M  V30 6517 N 611.933 1.52934 -0.380664 0
M  V30 6518 C 613.344 1.86457 0.0952684 0
M  V30 6519 C 613.695 1.3007 1.46889 0
M  V30 6520 O 612.82 0.628636 2.07068 0
M  V30 6521 C 613.415 3.38323 0.179648 0
M  V30 6522 C 611.974 3.71589 0.599858 0
M  V30 6523 C 611.121 2.76228 -0.243572 0
M  V30 6524 H 614.072 1.46966 -0.59888 0
M  V30 6525 H 614.093 3.67113 1.00042 0
M  V30 6526 H 613.605 3.79333 -0.820228 0
M  V30 6527 H 611.706 3.36144 1.60742 0
M  V30 6528 H 611.819 4.77715 0.364003 0
M  V30 6529 H 610.183 2.53045 0.289855 0
M  V30 6530 H 610.966 3.20074 -1.24127 0
M  V30 6531 N 613.412 0.11024 1.57214 0
M  V30 6532 C 614.342 -0.840002 2.17867 0
M  V30 6533 C 615.323 -1.28352 1.11624 0
M  V30 6534 O 616.508 -1.3477 1.39824 0
M  V30 6535 C 613.638 -2.09349 2.77111 0
M  V30 6536 C 612.592 -1.78807 3.8886 0
M  V30 6537 C 611.918 -3.11112 4.34872 0
M  V30 6538 C 613.218 -1.0632 5.11364 0
M  V30 6539 H 614.912 -0.334608 2.97524 0
M  V30 6540 H 612.458 -0.159502 1.43114 0
M  V30 6541 H 614.411 -2.76275 3.18198 0
M  V30 6542 H 613.135 -2.62198 1.9473 0
M  V30 6543 H 611.794 -1.14273 3.48335 0
M  V30 6544 H 611.442 -3.61877 3.49362 0
M  V30 6545 H 611.142 -2.91453 5.10224 0
M  V30 6546 H 612.666 -3.79171 4.78604 0
M  V30 6547 H 614.08 -1.63383 5.49526 0
M  V30 6548 H 612.477 -0.967876 5.92243 0
M  V30 6549 H 613.547 -0.0484569 4.84876 0
M  V30 6550 N 614.89 -1.56749 -0.16351 0
M  V30 6551 C 616.118 -1.86577 -0.894233 0
M  V30 6552 C 616.533 -0.696543 -1.75481 0
M  V30 6553 O 615.89 0.334161 -1.79415 0
M  V30 6554 C 615.941 -3.15508 -1.76456 0
M  V30 6555 O 615.662 -4.27926 -0.938685 0
M  V30 6556 C 617.163 -3.58737 -2.60428 0
M  V30 6557 H 614.383 -0.618829 -0.259405 0
M  V30 6558 H 616.927 -2.03863 -0.161259 0
M  V30 6559 H 615.082 -3.00025 -2.45079 0
M  V30 6560 H 615.496 -5.01546 -1.53465 0
M  V30 6561 H 616.97 -4.51832 -3.17099 0
M  V30 6562 H 617.447 -2.83229 -3.35675 0
M  V30 6563 H 618.053 -3.76858 -1.97125 0
M  V30 6564 N 616.368 0.432326 -1.51554 0
M  V30 6565 C 617.616 1.17901 -1.64146 0
M  V30 6566 C 617.937 1.91604 -0.362367 0
M  V30 6567 O 617.207 1.85764 0.621968 0
M  V30 6568 H 615.787 0.438206 -0.604966 0
M  V30 6569 H 618.449 0.495172 -1.88505 0
M  V30 6570 H 617.545 1.90584 -2.47152 0
M  V30 6571 N 617.846 1.41785 0.688094 0
M  V30 6572 C 619.094 1.41264 1.4453 0
M  V30 6573 C 619.415 0.0252946 1.94984 0
M  V30 6574 O 618.685 -0.934081 1.72197 0
M  V30 6575 H 617.265 0.519998 0.536294 0
M  V30 6576 H 619.927 1.7709 0.813941 0
M  V30 6577 H 619.023 2.10439 2.30482 0
M  V30 6578 N 619.324 -0.923095 1.27737 0
M  V30 6579 C 620.572 -1.66797 1.14119 0
M  V30 6580 C 620.893 -1.92479 -0.312541 0
M  V30 6581 O 620.163 -1.53432 -1.218 0
M  V30 6582 H 618.743 -0.618196 0.419336 0
M  V30 6583 H 621.405 -1.10815 1.60331 0
M  V30 6584 H 620.501 -2.63424 1.67374 0
M  V30 6585 N 620.802 -1.09834 -1.13024 0
M  V30 6586 C 621.735 -0.685453 -2.17662 0
M  V30 6587 C 622.713 0.310142 -1.59615 0
M  V30 6588 O 623.897 0.21052 -1.87321 0
M  V30 6589 C 621.024 -0.0104476 -3.38698 0
M  V30 6590 C 620.07 -0.968522 -4.15358 0
M  V30 6591 S 620.903 -2.48272 -4.74469 0
M  V30 6592 C 622.059 -1.82025 -5.98847 0
M  V30 6593 H 622.292 -1.57187 -2.52348 0
M  V30 6594 H 619.825 -0.914728 -1.24387 0
M  V30 6595 H 621.783 0.372694 -4.08805 0
M  V30 6596 H 620.444 0.852673 -3.02305 0
M  V30 6597 H 619.637 -0.443373 -5.02046 0
M  V30 6598 H 619.239 -1.29327 -3.50928 0
M  V30 6599 H 621.531 -1.14678 -6.67724 0
M  V30 6600 H 622.474 -2.66645 -6.55977 0
M  V30 6601 H 622.882 -1.2874 -5.49624 0
M  V30 6602 N 622.28 1.30327 -0.886154 0
M  V30 6603 C 623.508 2.00254 -0.520176 0
M  V30 6604 C 623.923 1.66419 0.891637 0
M  V30 6605 O 623.28 0.901951 1.58654 0
M  V30 6606 C 623.331 3.54916 -0.686775 0
M  V30 6607 O 623.052 3.87547 -2.04301 0
M  V30 6608 C 624.553 4.42115 -0.323945 0
M  V30 6609 H 621.773 0.640204 -0.200947 0
M  V30 6610 H 624.317 1.66183 -1.19178 0
M  V30 6611 H 622.472 3.8735 -0.0625273 0
M  V30 6612 H 622.886 4.82247 -2.06249 0
M  V30 6613 H 624.36 5.49808 -0.491407 0
M  V30 6614 H 624.837 4.32953 0.73811 0
M  V30 6615 H 625.443 4.15129 -0.924565 0
M  V30 6616 N 623.758 0.647228 1.43697 0
M  V30 6617 C 625.004 0.158422 2.0218 0
M  V30 6618 C 625.337 -1.22233 1.50907 0
M  V30 6619 O 624.612 -1.81478 0.699702 0
M  V30 6620 C 624.895 0.1627 3.59732 0
M  V30 6621 C 624.748 1.57694 4.21251 0
M  V30 6622 C 626.067 -0.504138 4.37203 0
M  V30 6623 H 623.186 0.059042 0.734631 0
M  V30 6624 H 625.828 0.826772 1.71069 0
M  V30 6625 H 623.978 -0.406414 3.86368 0
M  V30 6626 H 625.65 2.19618 4.05667 0
M  V30 6627 H 623.893 2.12603 3.7813 0
M  V30 6628 H 624.564 1.53183 5.3032 0
M  V30 6629 H 627.04 -0.0199841 4.16095 0
M  V30 6630 H 625.916 -0.470394 5.46881 0
M  V30 6631 H 626.177 -1.57726 4.13007 0
M  V30 6632 N 625.236 -1.5273 0.388769 0
M  V30 6633 C 626.199 -2.25043 -0.434544 0
M  V30 6634 C 627.199 -1.26661 -0.990644 0
M  V30 6635 O 628.389 -1.50762 -0.872731 0
M  V30 6636 C 625.521 -3.00507 -1.60961 0
M  V30 6637 H 626.714 -2.99242 0.198549 0
M  V30 6638 H 624.267 -1.55664 0.140875 0
M  V30 6639 H 625.002 -2.30607 -2.28015 0
M  V30 6640 H 624.787 -3.72716 -1.21757 0
M  V30 6641 H 626.277 -3.55413 -2.19251 0
M  V30 6642 N 626.714 -0.118576 -1.57153 0
M  V30 6643 C 627.961 0.539526 -1.9518 0
M  V30 6644 C 628.289 1.66714 -1.00184 0
M  V30 6645 O 627.544 1.95683 -0.0256482 0
M  V30 6646 C 627.843 1.11303 -3.39627 0
M  V30 6647 C 627.509 0.106809 -4.50773 0
M  V30 6648 C 626.171 -0.169876 -4.809 0
M  V30 6649 C 628.523 -0.57895 -5.17975 0
M  V30 6650 C 625.851 -1.13861 -5.75545 0
M  V30 6651 C 628.203 -1.53631 -6.13661 0
M  V30 6652 C 626.867 -1.82099 -6.42181 0
M  V30 6653 H 626.137 0.197427 -0.714215 0
M  V30 6654 H 628.784 -0.199391 -1.90459 0
M  V30 6655 H 627.089 1.92869 -3.4104 0
M  V30 6656 H 628.786 1.63032 -3.66363 0
M  V30 6657 H 625.376 0.332645 -4.27307 0
M  V30 6658 H 629.56 -0.378359 -4.94856 0
M  V30 6659 H 624.816 -1.36592 -5.95947 0
M  V30 6660 H 628.99 -2.07337 -6.64819 0
M  V30 6661 H 626.617 -2.57319 -7.15326 0
M  V30 6662 N 628.193 1.56834 0.155195 0
M  V30 6663 C 629.14 1.97646 1.19184 0
M  V30 6664 C 630.11 0.842788 1.4313 0
M  V30 6665 O 631.295 1.1042 1.55602 0
M  V30 6666 C 628.435 2.35527 2.52232 0
M  V30 6667 C 627.548 3.62147 2.35529 0
M  V30 6668 C 626.683 3.89167 3.61555 0
M  V30 6669 C 625.722 5.09084 3.39853 0
M  V30 6670 N 624.859 5.32156 4.5799 0
M  V30 6671 H 629.699 2.8601 0.836802 0
M  V30 6672 H 627.236 1.41507 0.401758 0
M  V30 6673 H 629.194 2.55516 3.29799 0
M  V30 6674 H 627.824 1.50253 2.85699 0
M  V30 6675 H 626.876 3.4998 1.49057 0
M  V30 6676 H 628.188 4.49871 2.15448 0
M  V30 6677 H 627.342 4.09611 4.47553 0
M  V30 6678 H 626.081 2.9985 3.84632 0
M  V30 6679 H 625.086 4.88522 2.52243 0
M  V30 6680 H 626.311 5.99947 3.18183 0
M  V30 6681 H 624.257 4.45791 4.81255 0
M  V30 6682 H 624.174 6.14133 4.40882 0
M  V30 6683 H 625.442 5.57091 5.45225 0
M  V30 6684 N 629.671 -0.424282 1.51781 0
M  V30 6685 C 630.948 -1.18464 1.55646 0
M  V30 6686 C 631.328 -2.08529 0.328438 0
M  V30 6687 O 630.676 -2.17969 -0.685693 0
M  V30 6688 C 630.886 -1.97514 2.87731 0
M  V30 6689 C 632.234 -2.54106 3.40169 0
M  V30 6690 O 633.258 -2.07711 2.89369 0
M  V30 6691 O 632.117 -3.38759 4.28841 0
M  V30 6692 H 629.211 -0.540055 0.626314 0
M  V30 6693 H 631.757 -0.432291 1.64102 0
M  V30 6694 H 630.529 -1.31444 3.68562 0
M  V30 6695 H 630.152 -2.79787 2.82498 0
M  V30 6696 N 631.149 -1.42148 -0.680565 0
M  V30 6697 C 632.398 -1.41604 -1.43636 0
M  V30 6698 C 632.711 -0.0337887 -1.95571 0
M  V30 6699 O 633.917 0.0942588 -2.71336 0
M  V30 6700 C 632.373 -2.49056 -2.59806 0
M  V30 6701 C 631.981 -3.9326 -2.14594 0
M  V30 6702 C 633.725 -2.5767 -3.37352 0
M  V30 6703 C 631.632 -4.92232 -3.27813 0
M  V30 6704 H 630.562 -0.526656 -0.539583 0
M  V30 6705 H 633.213 -1.68033 -0.737369 0
M  V30 6706 H 631.595 -2.15782 -3.32045 0
M  V30 6707 H 632.769 -4.35858 -1.49546 0
M  V30 6708 H 631.084 -3.88443 -1.50002 0
M  V30 6709 H 633.681 -3.28794 -4.21662 0
M  V30 6710 H 634.024 -1.61837 -3.83555 0
M  V30 6711 H 634.557 -2.90109 -2.72179 0
M  V30 6712 H 631.296 -5.89522 -2.86607 0
M  V30 6713 H 630.816 -4.5427 -3.91661 0
M  V30 6714 H 632.495 -5.13684 -3.93367 0
M  V30 6715 N 632.627 0.916307 -1.28225 0
M  V30 6716 C 633.574 2.01841 -1.11932 0
M  V30 6717 C 634.544 1.66091 -0.0171604 0
M  V30 6718 O 635.729 1.89934 -0.181617 0
M  V30 6719 C 632.869 3.36065 -0.784504 0
M  V30 6720 C 631.982 3.847 -1.96544 0
M  V30 6721 C 631.117 5.07423 -1.57149 0
M  V30 6722 C 630.156 5.48384 -2.71922 0
M  V30 6723 N 629.293 6.62298 -2.33037 0
M  V30 6724 H 634.133 2.1511 -2.06232 0
M  V30 6725 H 631.67 1.05366 -1.02647 0
M  V30 6726 H 633.628 4.13272 -0.571148 0
M  V30 6727 H 632.258 3.22571 0.121565 0
M  V30 6728 H 631.31 3.03673 -2.291 0
M  V30 6729 H 632.622 4.1102 -2.82603 0
M  V30 6730 H 631.776 5.92165 -1.32004 0
M  V30 6731 H 630.515 4.82906 -0.682153 0
M  V30 6732 H 629.52 4.62184 -2.97768 0
M  V30 6733 H 630.745 5.7489 -3.61494 0
M  V30 6734 H 628.691 6.39416 -1.4657 0
M  V30 6735 H 628.608 6.8833 -3.12631 0
M  V30 6736 H 629.876 7.50352 -2.11169 0
M  V30 6737 N 634.105 1.10431 1.1244 0
M  V30 6738 C 635.035 0.775143 2.20258 0
M  V30 6739 C 636.016 -0.25186 1.68225 0
M  V30 6740 O 637.201 -0.117637 1.93843 0
M  V30 6741 C 634.331 0.206133 3.46688 0
M  V30 6742 C 633.285 1.16382 4.11873 0
M  V30 6743 C 632.611 0.456014 5.32752 0
M  V30 6744 C 633.911 2.5104 4.58013 0
M  V30 6745 H 635.605 1.67665 2.4805 0
M  V30 6746 H 633.151 0.807595 1.19222 0
M  V30 6747 H 635.104 -0.036291 4.21384 0
M  V30 6748 H 633.828 -0.730614 3.18323 0
M  V30 6749 H 632.487 1.39169 3.39157 0
M  V30 6750 H 632.135 -0.485203 5.00654 0
M  V30 6751 H 631.835 1.09466 5.77314 0
M  V30 6752 H 633.359 0.222135 6.10196 0
M  V30 6753 H 634.773 2.32401 5.24083 0
M  V30 6754 H 633.17 3.10789 5.13352 0
M  V30 6755 H 634.24 3.11039 3.71998 0
M  V30 6756 N 635.583 -1.29855 0.893053 0
M  V30 6757 C 636.829 -1.96488 0.52574 0
M  V30 6758 C 637.184 -1.69164 -0.916594 0
M  V30 6759 O 636.477 -0.990405 -1.64017 0
M  V30 6760 C 636.671 -3.49515 0.746588 0
M  V30 6761 C 636.5 -3.91715 2.20884 0
M  V30 6762 C 635.27 -4.16915 2.85499 0
M  V30 6763 C 637.468 -4.03934 3.18342 0
M  V30 6764 N 635.45 -4.45634 4.22236 0
M  V30 6765 C 636.821 -4.36629 4.40176 0
M  V30 6766 C 638.876 -3.86387 3.14021 0
M  V30 6767 C 637.579 -4.53605 5.58243 0
M  V30 6768 C 639.605 -4.04569 4.31367 0
M  V30 6769 C 638.967 -4.37617 5.5197 0
M  V30 6770 H 635.066 -0.743657 0.241863 0
M  V30 6771 H 637.65 -1.56927 1.15248 0
M  V30 6772 H 635.821 -3.88113 0.149281 0
M  V30 6773 H 637.553 -4.03224 0.345372 0
M  V30 6774 H 634.308 -4.10423 2.36326 0
M  V30 6775 H 634.732 -4.64114 4.92876 0
M  V30 6776 H 639.374 -3.59906 2.21873 0
M  V30 6777 H 637.092 -4.78925 6.50889 0
M  V30 6778 H 640.678 -3.92452 4.29503 0
M  V30 6779 H 639.558 -4.51395 6.41258 0
M  V30 6780 N 637.061 -0.65484 -1.43351 0
M  V30 6781 C 638.477 -0.32255 -1.56307 0
M  V30 6782 C 638.677 1.17324 -1.63821 0
M  V30 6783 O 637.733 1.95813 -1.59417 0
M  V30 6784 C 639.046 -1.03533 -2.82314 0
M  V30 6785 C 640.594 -1.01574 -2.9606 0
M  V30 6786 C 641.069 -1.70945 -4.24902 0
M  V30 6787 N 642.56 -1.67716 -4.3177 0
M  V30 6788 C 643.295 -2.18265 -5.30234 0
M  V30 6789 N 642.791 -2.7711 -6.34966 0
M  V30 6790 N 644.584 -2.08756 -5.21898 0
M  V30 6791 H 636.735 -1.62549 -1.36717 0
M  V30 6792 H 638.998 -0.683676 -0.656727 0
M  V30 6793 H 638.704 -2.09045 -2.8283 0
M  V30 6794 H 638.578 -0.587913 -3.7259 0
M  V30 6795 H 640.965 0.0309834 -2.95084 0
M  V30 6796 H 641.046 -1.50186 -2.07069 0
M  V30 6797 H 640.69 -2.75574 -4.26639 0
M  V30 6798 H 640.62 -1.19797 -5.12793 0
M  V30 6799 H 643.111 -1.24777 -3.56706 0
M  V30 6800 H 643.424 -3.13353 -7.06421 0
M  V30 6801 H 641.769 -2.81171 -6.35585 0
M  V30 6802 H 644.96 -1.62488 -4.38994 0
M  V30 6803 H 645.133 -2.48459 -5.98475 0
M  V30 6804 N 638.539 1.52521 -0.396863 0
M  V30 6805 C 639.486 2.26671 0.434624 0
M  V30 6806 C 640.456 1.28584 1.05144 0
M  V30 6807 O 641.641 1.57426 1.07804 0
M  V30 6808 C 638.781 3.08234 1.55196 0
M  V30 6809 C 637.894 4.21261 0.957262 0
M  V30 6810 C 637.029 4.90205 2.04627 0
M  V30 6811 C 636.068 5.95213 1.42787 0
M  V30 6812 N 635.205 6.57723 2.45651 0
M  V30 6813 H 640.045 2.973 -0.204139 0
M  V30 6814 H 637.582 1.46669 -0.112505 0
M  V30 6815 H 639.54 3.53819 2.2106 0
M  V30 6816 H 638.17 2.398 2.16092 0
M  V30 6817 H 637.222 3.79935 0.188005 0
M  V30 6818 H 638.534 4.96624 0.465416 0
M  V30 6819 H 637.688 5.39133 2.78246 0
M  V30 6820 H 636.427 4.14383 2.57174 0
M  V30 6821 H 635.432 5.45616 0.676968 0
M  V30 6822 H 636.657 6.72972 0.910255 0
M  V30 6823 H 634.603 5.84737 2.97353 0
M  V30 6824 H 634.52 7.28723 2.01243 0
M  V30 6825 H 635.788 7.11293 3.18876 0
M  V30 6826 N 640.017 0.126909 1.57088 0
M  V30 6827 C 640.947 -0.816847 2.18746 0
M  V30 6828 C 641.928 -1.27161 1.12979 0
M  V30 6829 O 643.113 -1.33279 1.41246 0
M  V30 6830 C 640.243 -2.06398 2.79315 0
M  V30 6831 C 639.197 -1.74673 3.90735 0
M  V30 6832 C 638.523 -3.06482 4.38147 0
M  V30 6833 C 639.823 -1.0089 5.12463 0
M  V30 6834 H 641.517 -0.303032 2.97863 0
M  V30 6835 H 639.063 -0.144314 1.43275 0
M  V30 6836 H 641.016 -2.72885 3.2111 0
M  V30 6837 H 639.74 -2.60118 1.975 0
M  V30 6838 H 638.399 -1.10572 3.49527 0
M  V30 6839 H 638.047 -3.58152 3.5318 0
M  V30 6840 H 637.747 -2.86025 5.13287 0
M  V30 6841 H 639.271 -3.74073 4.82599 0
M  V30 6842 H 640.685 -1.57546 5.51228 0
M  V30 6843 H 639.082 -0.905006 5.93237 0
M  V30 6844 H 640.152 0.00297335 4.849 0
M  V30 6845 N 641.495 -1.56914 -0.146875 0
M  V30 6846 C 642.425 -2.01308 -1.1831 0
M  V30 6847 C 643.406 -0.892664 -1.44795 0
M  V30 6848 O 644.591 -1.16048 -1.55713 0
M  V30 6849 C 641.721 -2.3938 -2.51624 0
M  V30 6850 C 640.675 -3.54608 -2.3966 0
M  V30 6851 C 640.001 -3.78493 -3.77686 0
M  V30 6852 C 641.301 -4.87269 -1.88058 0
M  V30 6853 H 642.995 -2.88123 -0.813964 0
M  V30 6854 H 640.541 -1.38615 -0.3901 0
M  V30 6855 H 642.494 -2.69037 -3.24341 0
M  V30 6856 H 641.218 -1.49502 -2.90373 0
M  V30 6857 H 639.877 -3.25116 -1.69396 0
M  V30 6858 H 639.525 -2.85866 -4.13871 0
M  V30 6859 H 639.225 -4.56039 -3.70543 0
M  V30 6860 H 640.749 -4.10576 -4.51951 0
M  V30 6861 H 642.163 -5.15644 -2.50568 0
M  V30 6862 H 640.56 -5.68622 -1.91805 0
M  V30 6863 H 641.63 -4.77634 -0.836277 0
M  V30 6864 N 642.974 0.416227 -1.52004 0
M  V30 6865 C 643.921 1.50666 -1.74838 0
M  V30 6866 C 644.891 1.55245 -0.590599 0
M  V30 6867 O 646.076 1.71928 -0.827374 0
M  V30 6868 C 643.216 2.88185 -1.89851 0
M  V30 6869 C 642.329 2.92971 -3.17478 0
M  V30 6870 C 641.464 4.21745 -3.22962 0
M  V30 6871 C 640.503 4.20478 -4.4482 0
M  V30 6872 N 639.64 5.40811 -4.47736 0
M  V30 6873 H 644.48 1.30498 -2.67907 0
M  V30 6874 H 642.017 0.633568 -1.32757 0
M  V30 6875 H 643.975 3.68007 -1.96537 0
M  V30 6876 H 642.605 3.06865 -1.00169 0
M  V30 6877 H 641.657 2.05684 -3.19997 0
M  V30 6878 H 642.969 2.87899 -4.07328 0
M  V30 6879 H 642.123 5.09954 -3.28682 0
M  V30 6880 H 640.862 4.29503 -2.31038 0
M  V30 6881 H 639.867 3.30659 -4.39254 0
M  V30 6882 H 641.092 4.14366 -5.38031 0
M  V30 6883 H 639.038 5.4925 -3.58692 0
M  V30 6884 H 638.955 5.37705 -5.31422 0
M  V30 6885 H 640.223 6.30993 -4.57676 0
M  V30 6886 N 644.452 1.42507 0.673017 0
M  V30 6887 C 645.7 1.42789 1.43023 0
M  V30 6888 C 646.021 0.0459738 1.94946 0
M  V30 6889 O 645.291 -0.915765 1.73178 0
M  V30 6890 H 643.871 0.525657 0.530748 0
M  V30 6891 H 646.533 1.77944 0.795113 0
M  V30 6892 H 645.629 2.12872 2.28237 0
M  V30 6893 N 645.93 -0.909495 1.28709 0
M  V30 6894 C 647.179 -1.65365 1.15487 0
M  V30 6895 C 647.492 -1.93364 -0.294941 0
M  V30 6896 O 648.698 -2.65905 -0.548338 0
M  V30 6897 C 647.154 -2.97923 2.01916 0
M  V30 6898 C 646.762 -2.77556 3.51663 0
M  V30 6899 C 648.506 -3.75814 1.97393 0
M  V30 6900 C 646.413 -4.0578 4.30229 0
M  V30 6901 H 645.343 -0.620323 0.42862 0
M  V30 6902 H 647.994 -1.00894 1.53273 0
M  V30 6903 H 646.376 -3.63552 1.5699 0
M  V30 6904 H 647.55 -2.2058 4.04575 0
M  V30 6905 H 645.865 -2.13072 3.57756 0
M  V30 6906 H 648.462 -4.70866 2.53357 0
M  V30 6907 H 648.805 -4.05277 0.951643 0
M  V30 6908 H 649.338 -3.1701 2.40311 0
M  V30 6909 H 646.077 -3.81488 5.33055 0
M  V30 6910 H 645.597 -4.62351 3.82089 0
M  V30 6911 H 647.276 -4.74004 4.40374 0
M  V30 6912 N 647.408 -1.11026 -1.11852 0
M  V30 6913 C 648.819 -0.873203 -1.65021 0
M  V30 6914 C 649.17 0.595364 -1.86949 0
M  V30 6915 O 648.295 1.45645 -1.60051 0
M  V30 6916 C 648.89 -1.57859 -2.99777 0
M  V30 6917 C 647.449 -1.38807 -3.49871 0
M  V30 6918 C 646.596 -1.62403 -2.24768 0
M  V30 6919 H 649.547 -1.26712 -0.955503 0
M  V30 6920 H 649.568 -1.02111 -3.66543 0
M  V30 6921 H 649.08 -2.6474 -2.83786 0
M  V30 6922 H 647.181 -0.341163 -3.71035 0
M  V30 6923 H 647.294 -2.13421 -4.28938 0
M  V30 6924 H 645.658 -1.04714 -2.32179 0
M  V30 6925 H 646.441 -2.70549 -2.11324 0
M  V30 6926 N 648.886 1.2938 -0.899927 0
M  V30 6927 C 650.163 1.9046 -0.445443 0
M  V30 6928 C 650.543 1.81683 1.07492 0
M  V30 6929 O 649.891 1.24371 1.91688 0
M  V30 6930 C 650.101 3.35529 -0.960279 0
M  V30 6931 C 651.449 4.12556 -1.00412 0
M  V30 6932 O 652.473 3.44434 -0.907965 0
M  V30 6933 O 651.332 5.34294 -1.14857 0
M  V30 6934 H 648.426 0.815253 -0.138893 0
M  V30 6935 H 650.972 1.37844 -0.989808 0
M  V30 6936 H 649.744 3.36074 -2.00425 0
M  V30 6937 H 649.367 3.95624 -0.395939 0
M  V30 6938 N 650.364 0.662433 1.43002 0
M  V30 6939 C 651.294 -0.00979809 2.33498 0
M  V30 6940 C 652.275 -0.802329 1.49989 0
M  V30 6941 O 653.46 -0.761964 1.78627 0
M  V30 6942 C 650.59 -0.970446 3.33466 0
M  V30 6943 C 649.544 -0.287383 4.27034 0
M  V30 6944 C 648.87 -1.36012 5.17112 0
M  V30 6945 C 650.17 0.82595 5.15728 0
M  V30 6946 H 651.864 0.745959 2.89958 0
M  V30 6947 H 649.41 0.360172 1.39423 0
M  V30 6948 H 651.363 -1.44971 3.95679 0
M  V30 6949 H 650.087 -1.75748 2.75282 0
M  V30 6950 H 648.746 0.17152 3.66199 0
M  V30 6951 H 648.394 -2.13882 4.55262 0
M  V30 6952 H 648.094 -0.908276 5.80538 0
M  V30 6953 H 649.618 -1.84056 5.82199 0
M  V30 6954 H 651.032 0.42845 5.71697 0
M  V30 6955 H 649.429 1.20282 5.87922 0
M  V30 6956 H 650.499 1.68003 4.54866 0
M  V30 6957 N 651.842 -1.52309 0.404946 0
M  V30 6958 C 653.072 -2.05886 -0.171569 0
M  V30 6959 C 653.48 -1.27527 -1.39762 0
M  V30 6960 O 652.823 -0.319215 -1.80905 0
M  V30 6961 C 652.885 -3.54609 -0.590983 0
M  V30 6962 C 652.549 -4.53989 0.523757 0
M  V30 6963 C 653.546 -5.01084 1.38604 0
M  V30 6964 C 651.231 -4.97465 0.695255 0
M  V30 6965 C 653.225 -5.90295 2.4048 0
M  V30 6966 C 650.912 -5.86473 1.71733 0
M  V30 6967 C 651.91 -6.32782 2.57051 0
M  V30 6968 O 651.598 -7.20029 3.57509 0
M  V30 6969 H 651.33 -0.675508 -0.0257763 0
M  V30 6970 H 653.884 -1.97238 0.573278 0
M  V30 6971 H 652.114 -3.60929 -1.38805 0
M  V30 6972 H 653.803 -3.90853 -1.09494 0
M  V30 6973 H 654.569 -4.68214 1.26492 0
M  V30 6974 H 650.448 -4.60982 0.0408447 0
M  V30 6975 H 653.992 -6.26363 3.07108 0
M  V30 6976 H 649.889 -6.18756 1.83877 0
M  V30 6977 H 650.657 -7.3813 3.53703 0
M  V30 6978 N 653.32 -0.135238 -1.57019 0
M  V30 6979 C 654.597 0.563227 -1.87316 0
M  V30 6980 C 654.977 1.83749 -1.03921 0
M  V30 6981 O 654.325 2.2817 -0.122675 0
M  V30 6982 C 654.535 0.840031 -3.3874 0
M  V30 6983 C 655.883 1.18598 -4.077 0
M  V30 6984 O 656.907 0.92977 -3.43851 0
M  V30 6985 O 655.766 1.66758 -5.20436 0
M  V30 6986 H 652.86 0.285971 -0.775983 0
M  V30 6987 H 655.406 -0.170965 -1.68837 0
M  V30 6988 H 654.178 -0.0622785 -3.9125 0
M  V30 6989 H 653.801 1.62882 -3.62706 0
M  V30 6990 N 654.798 1.5699 0.138552 0
M  V30 6991 C 656.075 1.74741 0.87891 0
M  V30 6992 C 656.455 0.705522 1.98961 0
M  V30 6993 O 655.803 -0.274066 2.2685 0
M  V30 6994 C 656.013 3.1909 1.4136 0
M  V30 6995 C 657.361 3.81023 1.87368 0
M  V30 6996 O 658.385 3.22571 1.51084 0
M  V30 6997 O 657.244 4.83722 2.54312 0
M  V30 6998 H 654.338 0.714781 0.415953 0
M  V30 6999 H 656.884 1.69248 0.123817 0
M  V30 7000 H 655.656 3.86424 0.61579 0
M  V30 7001 H 655.279 3.29043 2.23196 0
M  V30 7002 N 656.276 -0.40816 1.52223 0
M  V30 7003 C 657.239 -1.48 1.7501 0
M  V30 7004 C 658.239 -1.48367 0.619996 0
M  V30 7005 O 659.429 -1.49874 0.887881 0
M  V30 7006 C 656.561 -2.87403 1.83336 0
M  V30 7007 H 657.754 -1.29086 2.70697 0
M  V30 7008 H 655.307 -0.638715 1.42654 0
M  V30 7009 H 656.042 -3.11686 0.895677 0
M  V30 7010 H 655.827 -2.8854 2.65494 0
M  V30 7011 H 657.317 -3.65103 2.02705 0
M  V30 7012 N 657.755 -1.42862 -0.66545 0
M  V30 7013 C 658.718 -1.46756 -1.76055 0
M  V30 7014 C 659.718 -0.353866 -1.56858 0
M  V30 7015 O 660.908 -0.615099 -1.62979 0
M  V30 7016 C 658.04 -1.30829 -3.14796 0
M  V30 7017 H 659.233 -2.44271 -1.73987 0
M  V30 7018 H 656.786 -1.29447 -0.875965 0
M  V30 7019 H 657.521 -0.342733 -3.22484 0
M  V30 7020 H 657.306 -2.11551 -3.30134 0
M  V30 7021 H 658.796 -1.36458 -3.94676 0
M  V30 7022 N 659.233 0.902656 -1.29189 0
M  V30 7023 C 660.482 1.6475 -1.16362 0
M  V30 7024 C 660.795 1.93517 0.284682 0
M  V30 7025 O 662.001 2.66192 0.534229 0
M  V30 7026 C 660.457 2.96848 -2.03493 0
M  V30 7027 C 660.065 2.75687 -3.5313 0
M  V30 7028 C 661.809 3.74762 -1.99383 0
M  V30 7029 C 659.716 4.03492 -4.32375 0
M  V30 7030 H 658.646 0.618041 -0.431904 0
M  V30 7031 H 661.297 1.0008 -1.53806 0
M  V30 7032 H 659.679 3.62715 -1.58916 0
M  V30 7033 H 660.853 2.18431 -4.05739 0
M  V30 7034 H 659.168 2.11171 -3.58881 0
M  V30 7035 H 661.765 4.69515 -2.5585 0
M  V30 7036 H 662.108 4.04767 -0.973123 0
M  V30 7037 H 662.641 3.15732 -2.41988 0
M  V30 7038 H 659.38 3.78656 -5.3507 0
M  V30 7039 H 658.9 4.60318 -3.84535 0
M  V30 7040 H 660.579 4.71662 -4.42881 0
M  V30 7041 N 660.711 1.11618 1.11262 0
M  V30 7042 C 661.958 0.86618 1.8304 0
M  V30 7043 C 662.286 -0.608149 1.84748 0
M  V30 7044 O 661.541 -1.46508 1.29745 0
M  V30 7045 C 661.84 1.37529 3.2988 0
M  V30 7046 C 661.506 2.86317 3.4833 0
M  V30 7047 C 660.168 3.26945 3.53073 0
M  V30 7048 C 662.52 3.82136 3.54431 0
M  V30 7049 C 659.848 4.62117 3.61475 0
M  V30 7050 C 662.2 5.17128 3.64365 0
M  V30 7051 C 660.864 5.57312 3.67369 0
M  V30 7052 H 660.134 0.316958 0.66979 0
M  V30 7053 H 662.781 1.3949 1.31205 0
M  V30 7054 H 661.086 0.766842 3.84222 0
M  V30 7055 H 662.783 1.15817 3.83911 0
M  V30 7056 H 659.373 2.53889 3.45309 0
M  V30 7057 H 663.557 3.51847 3.50025 0
M  V30 7058 H 658.813 4.92655 3.62079 0
M  V30 7059 H 662.987 5.91208 3.68029 0
M  V30 7060 H 660.614 6.62045 3.73632 0
M  V30 7061 N 662.189 -1.289 0.906776 0
M  V30 7062 C 663.099 -2.31256 0.394707 0
M  V30 7063 C 664.115 -1.66231 -0.514121 0
M  V30 7064 O 665.291 -1.97347 -0.401994 0
M  V30 7065 C 662.356 -3.44792 -0.363191 0
M  V30 7066 C 661.417 -4.25391 0.578012 0
M  V30 7067 C 660.65 -5.33506 -0.143811 0
M  V30 7068 O 660.873 -5.53786 -1.36665 0
M  V30 7069 O 659.807 -5.99673 0.5173 0
M  V30 7070 H 663.633 -2.77051 1.24405 0
M  V30 7071 H 661.218 -1.33466 0.671346 0
M  V30 7072 H 663.1 -4.139 -0.791503 0
M  V30 7073 H 661.775 -3.01093 -1.18848 0
M  V30 7074 H 660.682 -3.58899 1.05558 0
M  V30 7075 H 662.015 -4.72752 1.36992 0
M  V30 7076 N 663.667 -0.670007 -1.42649 0
M  V30 7077 C 664.63 0.00204659 -2.292 0
M  V30 7078 C 665.63 0.733817 -1.4308 0
M  V30 7079 O 666.82 0.57254 -1.64522 0
M  V30 7080 C 663.952 1.01359 -3.25483 0
M  V30 7081 H 665.145 -0.759696 -2.90118 0
M  V30 7082 H 662.698 -0.432105 -1.50208 0
M  V30 7083 H 663.433 1.80399 -2.69493 0
M  V30 7084 H 663.218 0.492323 -3.88997 0
M  V30 7085 H 664.708 1.4824 -3.90403 0
M  V30 7086 N 665.145 1.52092 -0.413018 0
M  V30 7087 C 666.092 2.27119 0.410558 0
M  V30 7088 C 667.062 1.29692 1.03774 0
M  V30 7089 O 668.247 1.58561 1.06128 0
M  V30 7090 C 665.387 3.09863 1.51918 0
M  V30 7091 C 664.5 4.22252 0.912528 0
M  V30 7092 C 663.635 4.92348 1.99417 0
M  V30 7093 C 662.674 5.96694 1.36466 0
M  V30 7094 N 661.811 6.60292 2.38661 0
M  V30 7095 H 666.651 2.97067 -0.235661 0
M  V30 7096 H 664.188 1.46542 -0.128055 0
M  V30 7097 H 666.146 3.56144 2.17295 0
M  V30 7098 H 664.776 2.42078 2.13537 0
M  V30 7099 H 663.828 3.80113 0.147697 0
M  V30 7100 H 665.14 4.9709 0.412717 0
M  V30 7101 H 664.294 5.42054 2.72512 0
M  V30 7102 H 663.033 4.17087 2.52764 0
M  V30 7103 H 662.038 5.46304 0.61906 0
M  V30 7104 H 663.263 6.73899 0.838827 0
M  V30 7105 H 661.209 5.87858 2.91134 0
M  V30 7106 H 661.126 7.30816 1.93503 0
M  V30 7107 H 662.394 7.14635 3.11314 0
M  V30 7108 N 666.623 0.143563 1.56945 0
M  V30 7109 C 667.57 -0.797433 2.16586 0
M  V30 7110 C 668.54 -1.24654 1.09775 0
M  V30 7111 O 669.725 -1.31968 1.37801 0
M  V30 7112 C 666.865 -2.03253 2.78895 0
M  V30 7113 C 665.978 -1.62954 4.00087 0
M  V30 7114 C 665.113 -2.81617 4.50406 0
M  V30 7115 C 664.152 -2.37675 5.64072 0
M  V30 7116 N 663.289 -3.49335 6.09023 0
M  V30 7117 H 668.129 -0.282023 2.96662 0
M  V30 7118 H 665.666 -0.127494 1.46546 0
M  V30 7119 H 667.624 -2.75653 3.13163 0
M  V30 7120 H 666.254 -2.52211 2.01469 0
M  V30 7121 H 665.306 -0.803322 3.71821 0
M  V30 7122 H 666.618 -1.26679 4.82446 0
M  V30 7123 H 665.772 -3.62212 4.86711 0
M  V30 7124 H 664.511 -3.21134 3.67048 0
M  V30 7125 H 663.516 -1.55519 5.27346 0
M  V30 7126 H 664.741 -1.99247 6.49213 0
M  V30 7127 H 662.687 -3.8848 5.28601 0
M  V30 7128 H 662.604 -3.17064 6.86299 0
M  V30 7129 H 663.872 -4.30297 6.49973 0
M  V30 7130 N 668.101 -1.57061 -0.130224 0
M  V30 7131 C 669.326 -1.88802 -0.858409 0
M  V30 7132 C 669.751 -0.734353 -1.73173 0
M  V30 7133 O 669.109 0.315529 -1.78533 0
M  V30 7134 C 669.157 -3.19228 -1.67708 0
M  V30 7135 O 668.261 -3.04343 -2.78297 0
M  V30 7136 H 667.602 -0.619849 -0.238083 0
M  V30 7137 H 670.132 -2.04271 -0.115995 0
M  V30 7138 H 670.142 -3.51669 -2.06864 0
M  V30 7139 H 668.817 -4.02793 -1.0359 0
M  V30 7140 H 667.394 -2.83346 -2.42425 0
M  V30 7141 N 669.579 0.400081 -1.52437 0
M  V30 7142 C 670.826 1.14619 -1.6694 0
M  V30 7143 C 671.154 1.90262 -0.403797 0
M  V30 7144 O 670.409 1.85835 0.61351 0
M  V30 7145 C 670.708 2.15914 -2.84808 0
M  V30 7146 C 670.374 1.57011 -4.2268 0
M  V30 7147 C 669.036 1.40672 -4.60179 0
M  V30 7148 C 671.388 1.14081 -5.08562 0
M  V30 7149 C 668.716 0.799335 -5.81229 0
M  V30 7150 C 671.068 0.547573 -6.30226 0
M  V30 7151 C 669.732 0.371389 -6.66466 0
M  V30 7152 H 669.002 0.419419 -0.610875 0
M  V30 7153 H 671.649 0.432227 -1.86558 0
M  V30 7154 H 669.954 2.93488 -2.59561 0
M  V30 7155 H 671.651 2.73533 -2.93225 0
M  V30 7156 H 668.241 1.70713 -3.93135 0
M  V30 7157 H 672.425 1.2551 -4.80168 0
M  V30 7158 H 667.681 0.65093 -6.07925 0
M  V30 7159 H 671.855 0.206575 -6.96094 0
M  V30 7160 H 669.482 -0.10135 -7.60132 0
M  V30 7161 N 671.057 1.43213 0.657864 0
M  V30 7162 C 672.287 1.478 1.44356 0
M  V30 7163 C 672.695 0.0930206 1.88971 0
M  V30 7164 O 672.038 -0.906089 1.59799 0
M  V30 7165 C 672.1 2.35745 2.71412 0
M  V30 7166 C 671.764 3.83359 2.48767 0
M  V30 7167 C 672.761 4.74585 2.12285 0
M  V30 7168 C 670.446 4.27799 2.63235 0
M  V30 7169 C 672.44 6.08247 1.90562 0
M  V30 7170 C 670.127 5.61516 2.41128 0
M  V30 7171 C 671.125 6.51557 2.04847 0
M  V30 7172 O 670.813 7.82802 1.82967 0
M  V30 7173 H 670.545 0.504363 0.450104 0
M  V30 7174 H 673.099 1.88572 0.814241 0
M  V30 7175 H 671.329 1.89852 3.36887 0
M  V30 7176 H 673.018 2.31589 3.33348 0
M  V30 7177 H 673.784 4.41531 2.00687 0
M  V30 7178 H 669.663 3.57993 2.90451 0
M  V30 7179 H 673.207 6.78489 1.62168 0
M  V30 7180 H 669.104 5.94139 2.52327 0
M  V30 7181 H 669.872 7.94332 1.97429 0
M  V30 7182 N 672.536 -0.895792 1.29666 0
M  V30 7183 C 673.782 -1.64921 1.19049 0
M  V30 7184 C 674.137 -1.90707 -0.254678 0
M  V30 7185 O 673.43 -1.5092 -1.18041 0
M  V30 7186 C 673.624 -3.00075 1.94139 0
M  V30 7187 C 673.453 -2.87482 3.4581 0
M  V30 7188 C 672.223 -2.88041 4.15163 0
M  V30 7189 C 674.421 -2.64224 4.41237 0
M  V30 7190 N 672.403 -2.66226 5.5317 0
M  V30 7191 C 673.774 -2.51427 5.66732 0
M  V30 7192 C 675.829 -2.49362 4.30956 0
M  V30 7193 C 674.532 -2.25281 6.83111 0
M  V30 7194 C 676.558 -2.246 5.47091 0
M  V30 7195 C 675.92 -2.12571 6.7156 0
M  V30 7196 H 672.019 -0.608926 0.490646 0
M  V30 7197 H 674.603 -1.05648 1.63544 0
M  V30 7198 H 672.774 -3.574 1.52052 0
M  V30 7199 H 674.506 -3.64544 1.75754 0
M  V30 7200 H 671.261 -2.99471 3.66898 0
M  V30 7201 H 671.685 -2.58361 6.25762 0
M  V30 7202 H 676.327 -2.57403 3.35415 0
M  V30 7203 H 674.045 -2.15978 7.78704 0
M  V30 7204 H 677.631 -2.13939 5.41037 0
M  V30 7205 H 676.511 -1.93676 7.59907 0
M  V30 7206 N 674.014 -1.12206 -1.10668 0
M  V30 7207 C 674.977 -0.790867 -2.15123 0
M  V30 7208 C 675.977 0.193618 -1.5963 0
M  V30 7209 O 677.167 -0.0318728 -1.74171 0
M  V30 7210 C 674.299 -0.174797 -3.40452 0
M  V30 7211 H 675.492 -1.7163 -2.45933 0
M  V30 7212 H 673.045 -0.924993 -1.2599 0
M  V30 7213 H 673.78 0.760478 -3.15257 0
M  V30 7214 H 673.565 -0.88358 -3.82015 0
M  V30 7215 H 675.055 0.0405162 -4.1758 0
M  V30 7216 N 675.492 1.28418 -0.913599 0
M  V30 7217 C 676.908 1.47411 -0.611728 0
M  V30 7218 C 677.108 1.83018 0.843008 0
M  V30 7219 O 676.164 1.93505 1.6221 0
M  V30 7220 C 677.477 2.57703 -1.5495 0
M  V30 7221 C 679.025 2.71572 -1.5562 0
M  V30 7222 C 679.5 3.85008 -2.48058 0
M  V30 7223 N 680.991 3.92361 -2.46184 0
M  V30 7224 C 681.726 4.79516 -3.14407 0
M  V30 7225 N 681.222 5.71262 -3.91958 0
M  V30 7226 N 683.015 4.73125 -3.03495 0
M  V30 7227 H 675.166 1.03585 -1.85429 0
M  V30 7228 H 677.429 0.515907 -0.795326 0
M  V30 7229 H 677.135 2.38298 -2.58663 0
M  V30 7230 H 677.009 3.54801 -1.28048 0
M  V30 7231 H 679.396 2.90366 -0.526441 0
M  V30 7232 H 679.477 1.75006 -1.86565 0
M  V30 7233 H 679.121 3.66969 -3.51136 0
M  V30 7234 H 679.051 4.80971 -2.14416 0
M  V30 7235 H 681.542 3.26749 -1.89851 0
M  V30 7236 H 681.855 6.34593 -4.41034 0
M  V30 7237 H 680.2 5.71103 -3.96063 0
M  V30 7238 H 683.391 4.00442 -2.42413 0
M  V30 7239 H 683.564 5.40834 -3.56935 0
M  V30 7240 N 676.97 0.677563 1.42291 0
M  V30 7241 C 677.917 0.000947061 2.308 0
M  V30 7242 C 678.887 -0.789889 1.46116 0
M  V30 7243 O 680.072 -0.761578 1.74942 0
M  V30 7244 C 677.212 -0.942387 3.31984 0
M  V30 7245 C 676.325 -0.14508 4.31756 0
M  V30 7246 C 675.46 -1.08442 5.20013 0
M  V30 7247 C 674.499 -0.278958 6.11464 0
M  V30 7248 N 673.636 -1.17115 6.92263 0
M  V30 7249 H 678.476 0.761521 2.88106 0
M  V30 7250 H 676.013 0.38727 1.41911 0
M  V30 7251 H 677.971 -1.50317 3.89179 0
M  V30 7252 H 676.601 -1.66956 2.76271 0
M  V30 7253 H 675.653 0.532368 3.76656 0
M  V30 7254 H 676.965 0.48015 4.96484 0
M  V30 7255 H 676.119 -1.71504 5.81955 0
M  V30 7256 H 674.858 -1.74353 4.55469 0
M  V30 7257 H 673.863 0.364856 5.48588 0
M  V30 7258 H 675.088 0.376099 6.78058 0
M  V30 7259 H 673.034 -1.81661 6.30345 0
M  V30 7260 H 672.951 -0.601063 7.53607 0
M  V30 7261 H 674.219 -1.78915 7.58689 0
M  V30 7262 N 678.448 -1.51871 0.421078 0
M  V30 7263 C 679.676 -2.06356 -0.14994 0
M  V30 7264 C 680.091 -1.29006 -1.37851 0
M  V30 7265 O 679.448 -0.345139 -1.79207 0
M  V30 7266 C 679.499 -3.58185 -0.488454 0
M  V30 7267 O 679.22 -4.32611 0.691341 0
M  V30 7268 C 680.721 -4.29129 -1.11191 0
M  V30 7269 H 677.941 -0.67083 -0.0151186 0
M  V30 7270 H 680.485 -1.95638 0.595476 0
M  V30 7271 H 678.64 -3.68871 -1.18376 0
M  V30 7272 H 679.054 -5.22927 0.405906 0
M  V30 7273 H 680.528 -5.36501 -1.29889 0
M  V30 7274 H 681.005 -3.86371 -2.0884 0
M  V30 7275 H 681.611 -4.22843 -0.456458 0
M  V30 7276 N 679.926 -0.151884 -1.56866 0
M  V30 7277 C 681.151 0.508044 -2.01081 0
M  V30 7278 C 681.576 1.57306 -1.03134 0
M  V30 7279 O 680.934 1.81298 -0.0078309 0
M  V30 7280 C 680.982 1.08106 -3.44014 0
M  V30 7281 O 680.086 2.19577 -3.49084 0
M  V30 7282 H 679.427 0.123757 -0.652365 0
M  V30 7283 H 681.957 -0.250055 -2.03066 0
M  V30 7284 H 681.967 1.40851 -3.82916 0
M  V30 7285 H 680.642 0.301168 -4.14808 0
M  V30 7286 H 679.219 1.88023 -3.22027 0
M  V30 7287 N 681.404 1.57128 0.121893 0
M  V30 7288 C 682.354 1.96556 1.15541 0
M  V30 7289 C 683.338 0.840147 1.37224 0
M  V30 7290 O 684.53 1.10382 1.38365 0
M  V30 7291 C 681.659 2.37097 2.48274 0
M  V30 7292 C 680.745 3.56265 2.30078 0
M  V30 7293 N 681.136 4.72041 1.81688 0
M  V30 7294 C 679.434 3.61841 2.60744 0
M  V30 7295 C 680.135 5.54075 1.77132 0
M  V30 7296 N 679.111 4.96483 2.21371 0
M  V30 7297 H 682.913 2.83531 0.77378 0
M  V30 7298 H 680.427 1.59019 0.329672 0
M  V30 7299 H 682.424 2.6356 3.2302 0
M  V30 7300 H 681.084 1.51486 2.87197 0
M  V30 7301 H 682.095 4.95313 1.51278 0
M  V30 7302 H 678.772 2.8683 3.03373 0
M  V30 7303 H 680.162 6.56939 1.40998 0
M  V30 7304 N 682.882 -0.391992 1.52647 0
M  V30 7305 C 684.107 -1.16312 1.71716 0
M  V30 7306 C 684.532 -1.83042 0.433279 0
M  V30 7307 O 683.89 -1.70705 -0.610707 0
M  V30 7308 C 683.938 -2.18908 2.86551 0
M  V30 7309 O 683.042 -3.2543 2.53316 0
M  V30 7310 H 682.383 -0.338743 0.571095 0
M  V30 7311 H 684.913 -0.457202 1.99426 0
M  V30 7312 H 684.923 -2.62954 3.1196 0
M  V30 7313 H 683.598 -1.69726 3.79692 0
M  V30 7314 H 682.175 -2.86543 2.38637 0
M  V30 7315 N 684.36 -1.4356 -0.65026 0
M  V30 7316 C 685.607 -1.45333 -1.41012 0
M  V30 7317 C 685.935 -0.0787282 -1.94341 0
M  V30 7318 O 685.19 0.916715 -1.72901 0
M  V30 7319 C 685.489 -2.44528 -2.60654 0
M  V30 7320 C 685.155 -3.90331 -2.25727 0
M  V30 7321 C 683.817 -4.3004 -2.15914 0
M  V30 7322 C 686.169 -4.822 -1.97821 0
M  V30 7323 C 683.497 -5.59568 -1.76354 0
M  V30 7324 C 685.849 -6.12095 -1.59759 0
M  V30 7325 C 684.513 -6.50778 -1.48473 0
M  V30 7326 H 683.783 -0.531813 -0.516 0
M  V30 7327 H 686.43 -1.76657 -0.739219 0
M  V30 7328 H 684.735 -2.06619 -3.3289 0
M  V30 7329 H 686.432 -2.43155 -3.18868 0
M  V30 7330 H 683.022 -3.58905 -2.34276 0
M  V30 7331 H 687.206 -4.5229 -2.04322 0
M  V30 7332 H 682.462 -5.88376 -1.66205 0
M  V30 7333 H 686.636 -6.82751 -1.37198 0
M  V30 7334 H 684.263 -7.5105 -1.17591 0
M  V30 7335 N 685.838 0.888903 -1.30139 0
M  V30 7336 C 687.084 1.6428 -1.18912 0
M  V30 7337 C 687.417 1.92499 0.256477 0
M  V30 7338 O 686.692 1.54312 1.18397 0
M  V30 7339 C 686.975 2.9851 -2.01405 0
M  V30 7340 C 686.828 2.77288 -3.54163 0
M  V30 7341 C 688.147 3.99383 -1.84882 0
M  V30 7342 H 685.266 0.596148 -0.433333 0
M  V30 7343 H 687.908 1.0289 -1.5973 0
M  V30 7344 H 686.058 3.50907 -1.66722 0
M  V30 7345 H 687.73 2.31709 -3.98884 0
M  V30 7346 H 685.973 2.11867 -3.78543 0
M  V30 7347 H 686.644 3.72717 -4.07168 0
M  V30 7348 H 689.12 3.56132 -2.15196 0
M  V30 7349 H 687.996 4.91222 -2.44934 0
M  V30 7350 H 688.257 4.34674 -0.806902 0
M  V30 7351 N 687.317 1.12792 1.10072 0
M  V30 7352 C 688.563 0.886857 1.82381 0
M  V30 7353 C 688.896 -0.58576 1.85155 0
M  V30 7354 O 688.171 -1.43317 1.31493 0
M  V30 7355 C 688.454 1.46703 3.28862 0
M  V30 7356 C 688.307 3.00829 3.34398 0
M  V30 7357 C 689.626 1.12971 4.25353 0
M  V30 7358 H 686.745 0.32362 0.662148 0
M  V30 7359 H 689.387 1.39513 1.28982 0
M  V30 7360 H 687.537 1.03476 3.74466 0
M  V30 7361 H 689.209 3.52764 2.97247 0
M  V30 7362 H 687.452 3.36164 2.74183 0
M  V30 7363 H 688.123 3.36519 4.3756 0
M  V30 7364 H 690.599 1.50313 3.88001 0
M  V30 7365 H 689.475 1.56223 5.26199 0
M  V30 7366 H 689.736 0.0424452 4.4208 0
M  V30 7367 N 688.795 -1.27931 0.920396 0
M  V30 7368 C 689.743 -2.29061 0.404191 0
M  V30 7369 C 690.737 -1.61615 -0.507634 0
M  V30 7370 O 691.943 -1.75765 -0.388144 0
M  V30 7371 H 688.318 -0.743594 0.112123 0
M  V30 7372 H 690.289 -2.70021 1.27008 0
M  V30 7373 C 689.038 -3.46088 -0.334466 0
M  V30 7374 H 688.361 -3.98194 0.35797 0
M  V30 7375 H 689.801 -4.18829 -0.660196 0
M  V30 7376 C 688.26 -2.99396 -1.54479 0
M  V30 7377 O 688.79 -3.02439 -2.64374 0
M  V30 7378 N 686.996 -2.54978 -1.39408 0
M  V30 7379 H 686.543 -2.52701 -0.500009 0
M  V30 7380 H 686.501 -2.24098 -2.20516 0
M  V30 7381 N 690.273 -0.685099 -1.4193 0
M  V30 7382 C 691.522 -0.208816 -2.00616 0
M  V30 7383 C 691.835 1.19506 -1.54847 0
M  V30 7384 O 693.041 1.76826 -2.06021 0
M  V30 7385 C 691.497 -0.322446 -3.58453 0
M  V30 7386 C 691.105 -1.73102 -4.13206 0
M  V30 7387 C 692.849 0.0945979 -4.24395 0
M  V30 7388 C 690.756 -1.79687 -5.63442 0
M  V30 7389 H 689.686 -0.0743092 -0.750329 0
M  V30 7390 H 692.337 -0.851778 -1.62533 0
M  V30 7391 H 690.719 0.388588 -3.94089 0
M  V30 7392 H 691.893 -2.46997 -3.8901 0
M  V30 7393 H 690.208 -2.09682 -3.59753 0
M  V30 7394 H 692.805 0.0656937 -5.3466 0
M  V30 7395 H 693.148 1.1316 -4.00625 0
M  V30 7396 H 693.681 -0.56579 -3.93756 0
M  V30 7397 H 690.42 -2.81404 -5.92024 0
M  V30 7398 H 689.94 -1.10162 -5.89597 0
M  V30 7399 H 691.619 -1.55498 -6.28036 0
M  V30 7400 N 691.751 1.51645 -0.429126 0
M  V30 7401 C 692.681 2.30434 0.377148 0
M  V30 7402 C 693.662 1.35493 1.02838 0
M  V30 7403 O 694.847 1.6441 1.03359 0
M  V30 7404 C 691.977 3.14038 1.48315 0
M  V30 7405 C 690.931 4.1719 0.955855 0
M  V30 7406 C 690.257 4.89263 2.15698 0
M  V30 7407 C 691.557 5.223 -0.00402136 0
M  V30 7408 H 693.251 2.98085 -0.280336 0
M  V30 7409 H 690.797 1.43354 -0.136265 0
M  V30 7410 H 692.75 3.67933 2.05435 0
M  V30 7411 H 691.474 2.44193 2.16881 0
M  V30 7412 H 690.133 3.64335 0.406929 0
M  V30 7413 H 689.781 4.15929 2.82864 0
M  V30 7414 H 689.481 5.59009 1.81059 0
M  V30 7415 H 691.005 5.45978 2.73387 0
M  V30 7416 H 692.419 5.71315 0.476607 0
M  V30 7417 H 690.816 5.99525 -0.26258 0
M  V30 7418 H 691.886 4.75638 -0.943236 0
M  V30 7419 N 693.229 0.160201 1.56784 0
M  V30 7420 C 694.192 -0.760405 2.16219 0
M  V30 7421 C 695.192 -1.16595 1.10735 0
M  V30 7422 O 696.382 -1.08472 1.36306 0
M  V30 7423 C 693.514 -2.03358 2.73603 0
M  V30 7424 H 694.707 -0.243173 2.98912 0
M  V30 7425 H 692.26 -0.0893139 1.56045 0
M  V30 7426 H 692.995 -2.59416 1.94612 0
M  V30 7427 H 692.78 -1.75186 3.50788 0
M  V30 7428 H 694.27 -2.69081 3.19351 0
M  V30 7429 N 694.707 -1.5719 -0.113559 0
M  V30 7430 C 695.639 -1.97393 -1.16484 0
M  V30 7431 C 696.652 -0.873964 -1.37352 0
M  V30 7432 O 697.841 -1.15222 -1.36331 0
M  V30 7433 C 694.941 -2.26174 -2.52386 0
M  V30 7434 C 694.114 -3.57479 -2.52046 0
M  V30 7435 C 693.173 -3.74409 -3.69735 0
M  V30 7436 O 692.199 -4.46463 -3.53071 0
M  V30 7437 N 693.401 -3.13588 -4.88511 0
M  V30 7438 H 696.166 -2.88184 -0.822814 0
M  V30 7439 H 693.727 -1.59044 -0.302769 0
M  V30 7440 H 695.719 -2.3471 -3.29687 0
M  V30 7441 H 694.289 -1.41483 -2.7875 0
M  V30 7442 H 693.509 -3.60081 -1.60421 0
M  V30 7443 H 694.797 -4.43775 -2.48881 0
M  V30 7444 H 694.195 -2.55026 -5.04953 0
M  V30 7445 H 692.752 -3.27637 -5.63469 0
M  V30 7446 N 696.185 0.383891 -1.52853 0
M  V30 7447 C 697.148 1.45197 -1.77343 0
M  V30 7448 C 698.148 1.47362 -0.643522 0
M  V30 7449 O 699.338 1.48443 -0.911613 0
M  V30 7450 C 696.47 2.8445 -1.87885 0
M  V30 7451 H 697.663 1.24764 -2.72716 0
M  V30 7452 H 695.216 0.615939 -1.43652 0
M  V30 7453 H 695.951 3.10222 -0.94515 0
M  V30 7454 H 695.736 2.8428 -2.70051 0
M  V30 7455 H 697.226 3.61832 -2.08488 0
M  V30 7456 N 697.663 1.43903 0.642637 0
M  V30 7457 C 698.593 1.52697 1.76652 0
M  V30 7458 C 699.574 0.380816 1.65782 0
M  V30 7459 O 700.759 0.599432 1.84717 0
M  V30 7460 C 697.889 1.45975 3.15133 0
M  V30 7461 C 696.843 2.58949 3.40778 0
M  V30 7462 C 696.169 2.37279 4.79169 0
M  V30 7463 C 697.469 4.01153 3.34475 0
M  V30 7464 H 699.163 2.46766 1.69549 0
M  V30 7465 H 696.709 1.18767 0.814279 0
M  V30 7466 H 698.662 1.5073 3.93521 0
M  V30 7467 H 697.386 0.484162 3.22991 0
M  V30 7468 H 696.045 2.53564 2.64765 0
M  V30 7469 H 695.693 1.37939 4.83717 0
M  V30 7470 H 695.393 3.13016 4.97287 0
M  V30 7471 H 696.917 2.43834 5.59801 0
M  V30 7472 H 698.331 4.07968 4.02784 0
M  V30 7473 H 696.728 4.77001 3.64129 0
M  V30 7474 H 697.798 4.25539 2.32475 0
M  V30 7475 N 699.141 -0.881989 1.30609 0
M  V30 7476 C 700.371 -1.66469 1.22359 0
M  V30 7477 C 700.779 -1.87969 -0.215507 0
M  V30 7478 O 700.122 -1.42938 -1.15388 0
M  V30 7479 C 700.184 -3.06135 1.88472 0
M  V30 7480 C 699.848 -3.07795 3.37804 0
M  V30 7481 C 700.845 -2.86633 4.33749 0
M  V30 7482 C 698.53 -3.29297 3.793 0
M  V30 7483 C 700.524 -2.86934 5.69164 0
M  V30 7484 C 698.211 -3.29228 5.14832 0
M  V30 7485 C 699.209 -3.08071 6.09574 0
M  V30 7486 O 698.897 -3.07824 7.4263 0
M  V30 7487 H 698.629 -0.526129 0.424458 0
M  V30 7488 H 701.183 -1.11004 1.72821 0
M  V30 7489 H 699.413 -3.63276 1.32543 0
M  V30 7490 H 701.102 -3.66571 1.74301 0
M  V30 7491 H 701.868 -2.69814 4.0302 0
M  V30 7492 H 697.747 -3.44799 3.05998 0
M  V30 7493 H 701.291 -2.70339 6.43088 0
M  V30 7494 H 697.188 -3.45583 5.452 0
M  V30 7495 H 697.956 -3.2397 7.51656 0
M  V30 7496 N 700.619 -1.13374 -1.09472 0
M  V30 7497 C 701.529 -0.824029 -2.19652 0
M  V30 7498 C 702.545 0.19118 -1.72947 0
M  V30 7499 O 703.721 0.0223464 -2.01388 0
M  V30 7500 C 700.786 -0.294009 -3.45451 0
M  V30 7501 C 699.847 -1.3704 -4.0684 0
M  V30 7502 C 699.08 -0.86558 -5.26634 0
M  V30 7503 O 699.303 0.29702 -5.69626 0
M  V30 7504 O 698.237 -1.63968 -5.79136 0
M  V30 7505 H 702.063 -1.74454 -2.48595 0
M  V30 7506 H 699.648 -0.911155 -1.18399 0
M  V30 7507 H 701.53 -0.00381039 -4.214 0
M  V30 7508 H 700.205 0.598921 -3.18111 0
M  V30 7509 H 699.112 -1.71391 -3.3253 0
M  V30 7510 H 700.445 -2.23746 -4.38405 0
M  V30 7511 N 702.098 1.27442 -0.927168 0
M  V30 7512 C 703.028 2.29256 -0.443188 0
M  V30 7513 C 704.009 1.62701 0.49624 0
M  V30 7514 O 705.194 1.90013 0.401105 0
M  V30 7515 C 702.324 3.45955 0.305366 0
M  V30 7516 C 701.278 4.24501 -0.546178 0
M  V30 7517 C 700.604 5.33671 0.331512 0
M  V30 7518 C 701.904 4.89921 -1.81037 0
M  V30 7519 H 703.598 2.69988 -1.29409 0
M  V30 7520 H 701.144 1.29792 -0.623705 0
M  V30 7521 H 703.097 4.1628 0.654885 0
M  V30 7522 H 701.821 3.04138 1.19029 0
M  V30 7523 H 700.48 3.55921 -0.878398 0
M  V30 7524 H 700.128 4.88096 1.21537 0
M  V30 7525 H 699.828 5.87131 -0.234746 0
M  V30 7526 H 701.352 6.0684 0.676614 0
M  V30 7527 H 702.766 5.52536 -1.52895 0
M  V30 7528 H 701.163 5.53436 -2.32009 0
M  V30 7529 H 702.233 4.13652 -2.53021 0
M  V30 7530 N 703.576 0.692616 1.41565 0
M  V30 7531 C 704.823 0.222335 2.01276 0
M  V30 7532 C 705.151 -1.17706 1.5484 0
M  V30 7533 O 704.406 -1.80795 0.749118 0
M  V30 7534 C 704.705 0.225073 3.56691 0
M  V30 7535 C 704.371 1.57158 4.22625 0
M  V30 7536 C 703.033 1.94022 4.40351 0
M  V30 7537 C 705.385 2.45758 4.59622 0
M  V30 7538 C 702.713 3.19076 4.92349 0
M  V30 7539 C 705.065 3.70141 5.13009 0
M  V30 7540 C 703.729 4.07152 5.28946 0
M  V30 7541 H 702.999 0.0813581 0.73652 0
M  V30 7542 H 705.646 0.891123 1.69503 0
M  V30 7543 H 703.951 -0.527259 3.88236 0
M  V30 7544 H 705.648 -0.156283 4.00695 0
M  V30 7545 H 702.238 1.27486 4.09201 0
M  V30 7546 H 706.422 2.18558 4.45585 0
M  V30 7547 H 701.678 3.4775 5.02872 0
M  V30 7548 H 705.852 4.38983 5.40617 0
M  V30 7549 H 703.479 5.04125 5.69001 0
M  V30 7550 N 705.054 -1.51416 0.437162 0
M  V30 7551 C 706.279 -2.0699 -0.130424 0
M  V30 7552 C 706.704 -1.30249 -1.35709 0
M  V30 7553 O 706.062 -0.340388 -1.78076 0
M  V30 7554 C 706.11 -3.5801 -0.43142 0
M  V30 7555 O 705.214 -3.8345 -1.5179 0
M  V30 7556 H 704.555 -0.663997 -0.00194339 0
M  V30 7557 H 707.085 -1.95029 0.618445 0
M  V30 7558 H 707.095 -4.02261 -0.681926 0
M  V30 7559 H 705.77 -4.13291 0.465137 0
M  V30 7560 H 704.347 -3.51062 -1.25737 0
M  V30 7561 N 706.532 -0.168513 -1.56696 0
M  V30 7562 C 707.495 0.748928 -2.16619 0
M  V30 7563 C 708.495 1.16007 -1.11351 0
M  V30 7564 O 709.685 1.07748 -1.3688 0
M  V30 7565 C 706.817 2.01904 -2.74677 0
M  V30 7566 H 708.01 0.227317 -2.99037 0
M  V30 7567 H 705.563 0.0810372 -1.5609 0
M  V30 7568 H 706.298 2.58381 -1.95985 0
M  V30 7569 H 706.083 1.73323 -3.51712 0
M  V30 7570 H 707.573 2.67383 -3.20774 0
M  V30 7571 N 708.01 1.57248 0.105221 0
M  V30 7572 C 709.238 1.89768 0.82437 0
M  V30 7573 C 709.653 0.761192 1.72775 0
M  V30 7574 O 709.01 -0.267342 1.80531 0
M  V30 7575 C 709.061 3.2184 1.64625 0
M  V30 7576 O 708.782 4.31115 0.779217 0
M  V30 7577 C 710.283 3.68155 2.46935 0
M  V30 7578 H 707.503 0.628031 0.236259 0
M  V30 7579 H 710.047 2.04321 0.085485 0
M  V30 7580 H 708.202 3.08915 2.33775 0
M  V30 7581 H 708.616 5.06897 1.34745 0
M  V30 7582 H 710.09 4.6329 3.00111 0
M  V30 7583 H 710.567 2.95492 3.24932 0
M  V30 7584 H 711.173 3.83914 1.83002 0
M  V30 7585 N 709.488 -0.375779 1.53054 0
M  V30 7586 C 710.765 -1.13453 1.59336 0
M  V30 7587 C 711.145 -2.07379 0.394614 0
M  V30 7588 O 710.493 -2.2004 -0.616 0
M  V30 7589 C 710.703 -1.8826 2.93869 0
M  V30 7590 C 712.051 -2.43155 3.48081 0
M  V30 7591 O 713.075 -1.984 2.95831 0
M  V30 7592 O 711.934 -3.24944 4.39401 0
M  V30 7593 H 709.028 -0.519856 0.643179 0
M  V30 7594 H 711.574 -0.379865 1.65394 0
M  V30 7595 H 710.346 -1.19652 3.72558 0
M  V30 7596 H 709.969 -2.70658 2.91256 0
M  V30 7597 N 710.966 -1.44241 -0.634997 0
M  V30 7598 C 712.243 -1.37296 -1.39317 0
M  V30 7599 C 712.623 -0.0297532 -2.11079 0
M  V30 7600 O 711.971 0.987524 -2.06059 0
M  V30 7601 C 712.181 -2.56853 -2.36279 0
M  V30 7602 C 713.529 -3.00747 -2.99728 0
M  V30 7603 O 714.553 -2.5703 -2.46605 0
M  V30 7604 O 713.412 -3.76533 -3.96087 0
M  V30 7605 H 710.506 -0.543503 -0.623325 0
M  V30 7606 H 713.052 -1.56324 -0.660376 0
M  V30 7607 H 711.824 -3.46228 -1.82324 0
M  V30 7608 H 711.447 -2.40019 -3.16981 0
M  V30 7609 N 712.444 0.87505 -1.31075 0
M  V30 7610 C 713.669 1.66583 -1.23551 0
M  V30 7611 C 714.094 1.87067 0.19686 0
M  V30 7612 O 713.452 1.40877 1.1412 0
M  V30 7613 C 713.5 3.01401 -1.97965 0
M  V30 7614 O 712.604 3.90923 -1.31351 0
M  V30 7615 H 711.945 0.508645 -0.426821 0
M  V30 7616 H 714.475 1.09139 -1.7306 0
M  V30 7617 H 714.485 3.51374 -2.07366 0
M  V30 7618 H 713.16 2.85812 -3.02133 0
M  V30 7619 H 711.737 3.49369 -1.30368 0
M  V30 7620 N 713.922 1.13953 1.08869 0
M  V30 7621 C 714.852 0.844824 2.17681 0
M  V30 7622 C 715.833 -0.198213 1.68941 0
M  V30 7623 O 717.018 -0.0559073 1.9412 0
M  V30 7624 C 714.148 0.316325 3.45856 0
M  V30 7625 C 713.102 1.29426 4.07962 0
M  V30 7626 C 712.428 0.625275 5.31031 0
M  V30 7627 C 713.728 2.65484 4.49795 0
M  V30 7628 H 715.422 1.75471 2.42591 0
M  V30 7629 H 712.968 0.845116 1.16592 0
M  V30 7630 H 714.921 0.0977876 4.21287 0
M  V30 7631 H 713.645 -0.628972 3.20486 0
M  V30 7632 H 712.304 1.49889 3.34558 0
M  V30 7633 H 711.952 -0.325678 5.01945 0
M  V30 7634 H 711.652 1.27777 5.73539 0
M  V30 7635 H 713.176 0.416152 6.0918 0
M  V30 7636 H 714.59 2.48957 5.16424 0
M  V30 7637 H 712.987 3.26963 5.03205 0
M  V30 7638 H 714.057 3.22717 3.61914 0
M  V30 7639 N 715.4 -1.26948 0.933913 0
M  V30 7640 C 716.35 -2.24306 0.408779 0
M  V30 7641 C 717.334 -1.53243 -0.490435 0
M  V30 7642 O 718.526 -1.73956 -0.326866 0
M  V30 7643 C 715.655 -3.41695 -0.331578 0
M  V30 7644 C 714.741 -4.20053 0.58451 0
M  V30 7645 N 715.132 -4.76122 1.70709 0
M  V30 7646 C 713.43 -4.44303 0.388703 0
M  V30 7647 C 714.131 -5.35267 2.27737 0
M  V30 7648 N 713.107 -5.20548 1.56622 0
M  V30 7649 H 716.909 -2.65244 1.26582 0
M  V30 7650 H 714.423 -1.4195 0.788919 0
M  V30 7651 H 716.42 -4.10552 -0.724774 0
M  V30 7652 H 715.08 -3.02286 -1.18547 0
M  V30 7653 H 716.091 -4.73884 2.08937 0
M  V30 7654 H 712.768 -4.15341 -0.424016 0
M  V30 7655 H 714.158 -5.89563 3.22282 0
M  V30 7656 N 716.879 -0.700114 -1.41195 0
M  V30 7657 C 717.811 0.00155823 -2.292 0
M  V30 7658 C 718.824 0.739736 -1.45023 0
M  V30 7659 O 720.013 0.589684 -1.68478 0
M  V30 7660 C 717.113 1.02635 -3.22985 0
M  V30 7661 C 716.286 0.356871 -4.35942 0
M  V30 7662 C 715.345 1.28491 -5.10271 0
M  V30 7663 O 714.371 0.775562 -5.63892 0
M  V30 7664 N 715.573 2.61699 -5.18164 0
M  V30 7665 H 718.338 -0.754008 -2.9006 0
M  V30 7666 H 715.899 -0.546504 -1.52397 0
M  V30 7667 H 717.891 1.64902 -3.6958 0
M  V30 7668 H 716.461 1.68341 -2.63401 0
M  V30 7669 H 715.681 -0.445753 -3.91672 0
M  V30 7670 H 716.969 -0.108469 -5.08684 0
M  V30 7671 H 716.367 3.05594 -4.76056 0
M  V30 7672 H 714.924 3.19149 -5.6832 0
M  V30 7673 N 718.357 1.51182 -0.445186 0
M  V30 7674 C 719.287 2.30821 0.352686 0
M  V30 7675 C 720.268 1.36576 1.01395 0
M  V30 7676 O 721.453 1.65497 1.01609 0
M  V30 7677 C 718.583 3.15593 1.44976 0
M  V30 7678 C 717.537 4.1818 0.911553 0
M  V30 7679 C 716.863 4.91523 2.10497 0
M  V30 7680 C 718.163 5.22266 -0.059418 0
M  V30 7681 H 719.857 2.97771 -0.311936 0
M  V30 7682 H 717.403 1.43201 -0.151461 0
M  V30 7683 H 719.356 3.70091 2.01521 0
M  V30 7684 H 718.08 2.4648 2.14278 0
M  V30 7685 H 716.739 3.64746 0.368264 0
M  V30 7686 H 716.387 4.18906 2.78437 0
M  V30 7687 H 716.087 5.60898 1.7512 0
M  V30 7688 H 717.611 5.48847 2.6758 0
M  V30 7689 H 719.025 5.71789 0.415985 0
M  V30 7690 H 717.422 5.99213 -0.326152 0
M  V30 7691 H 718.492 4.7461 -0.993631 0
M  V30 7692 N 719.835 0.176821 1.56605 0
M  V30 7693 C 721.251 -0.179278 1.5859 0
M  V30 7694 C 721.451 -1.62433 1.19238 0
M  V30 7695 O 720.507 -2.35665 0.906552 0
M  V30 7696 C 721.82 0.106524 3.00511 0
M  V30 7697 C 723.368 0.0451731 3.12967 0
M  V30 7698 C 723.843 0.304038 4.5699 0
M  V30 7699 N 725.334 0.252008 4.62514 0
M  V30 7700 C 726.069 0.426404 5.71812 0
M  V30 7701 N 725.565 0.660155 6.89648 0
M  V30 7702 N 727.358 0.361926 5.60934 0
M  V30 7703 H 719.509 1.12001 1.8047 0
M  V30 7704 H 721.772 0.445679 0.836704 0
M  V30 7705 H 721.478 1.10778 3.33798 0
M  V30 7706 H 721.352 -0.599337 3.72408 0
M  V30 7707 H 723.739 -0.946662 2.79504 0
M  V30 7708 H 723.82 0.78383 2.43495 0
M  V30 7709 H 723.464 1.29311 4.91163 0
M  V30 7710 H 723.394 -0.455294 5.24628 0
M  V30 7711 H 725.885 0.0772102 3.77821 0
M  V30 7712 H 726.198 0.782529 7.68828 0
M  V30 7713 H 724.543 0.696835 6.91498 0
M  V30 7714 H 727.734 0.17986 4.67754 0
M  V30 7715 H 727.907 0.501263 6.46058 0
M  V30 7716 N 721.313 -1.57302 -0.09688 0
M  V30 7717 C 722.26 -2.01933 -1.11766 0
M  V30 7718 C 723.23 -0.895329 -1.39904 0
M  V30 7719 O 724.415 -1.16119 -1.51397 0
M  V30 7720 C 721.555 -2.44726 -2.43317 0
M  V30 7721 C 720.668 -3.70639 -2.21925 0
M  V30 7722 C 719.803 -4.02318 -3.46862 0
M  V30 7723 C 718.842 -5.21346 -3.20725 0
M  V30 7724 N 717.979 -5.48787 -4.37924 0
M  V30 7725 H 722.819 -2.88919 -0.730075 0
M  V30 7726 H 720.356 -1.42901 -0.348962 0
M  V30 7727 H 722.314 -2.6758 -3.20088 0
M  V30 7728 H 720.944 -1.60753 -2.79926 0
M  V30 7729 H 719.996 -3.55271 -1.35965 0
M  V30 7730 H 721.308 -4.57557 -1.98603 0
M  V30 7731 H 720.462 -4.25939 -4.32042 0
M  V30 7732 H 719.201 -3.13918 -3.73238 0
M  V30 7733 H 718.206 -4.97547 -2.33938 0
M  V30 7734 H 719.431 -6.11343 -2.95697 0
M  V30 7735 H 717.377 -4.63346 -4.64378 0
M  V30 7736 H 717.294 -6.30073 -4.17785 0
M  V30 7737 H 718.562 -5.76943 -5.24173 0
M  V30 7738 N 722.791 0.367657 -1.53252 0
M  V30 7739 C 723.754 1.43308 -1.78873 0
M  V30 7740 C 724.754 1.46671 -0.659115 0
M  V30 7741 O 725.944 1.47468 -0.927306 0
M  V30 7742 C 723.076 2.82442 -1.90892 0
M  V30 7743 H 724.269 1.21864 -2.74024 0
M  V30 7744 H 721.822 0.600668 -1.44297 0
M  V30 7745 H 722.557 3.09202 -0.978 0
M  V30 7746 H 722.342 2.81399 -2.73051 0
M  V30 7747 H 723.832 3.59601 -2.12314 0
M  V30 7748 N 724.269 1.44576 0.627338 0
M  V30 7749 C 725.509 1.49083 1.39834 0
M  V30 7750 C 725.873 0.121643 1.91614 0
M  V30 7751 O 727.074 0.0413885 2.68768 0
M  V30 7752 C 725.345 2.52467 2.52973 0
M  V30 7753 S 726.904 2.7605 3.41089 0
M  V30 7754 H 723.722 0.527252 0.476997 0
M  V30 7755 H 726.324 1.81525 0.725872 0
M  V30 7756 H 725.028 3.50646 2.13249 0
M  V30 7757 H 724.559 2.2161 3.25042 0
M  V30 7758 H 726.574 2.07932 4.50531 0
M  V30 7759 N 725.747 -0.868086 1.31537 0
M  V30 7760 C 726.994 -1.62127 1.2133 0
M  V30 7761 C 727.322 -1.93158 -0.2281 0
M  V30 7762 O 726.577 -1.5632 -1.1774 0
M  V30 7763 C 726.876 -2.95889 2.0046 0
M  V30 7764 C 726.542 -2.84343 3.49943 0
M  V30 7765 C 725.204 -2.80901 3.90702 0
M  V30 7766 C 727.556 -2.71243 4.45058 0
M  V30 7767 C 724.884 -2.6222 5.24841 0
M  V30 7768 C 727.236 -2.54098 5.79325 0
M  V30 7769 C 725.9 -2.4904 6.19302 0
M  V30 7770 H 725.17 -0.593265 0.443979 0
M  V30 7771 H 727.817 -1.00803 1.62822 0
M  V30 7772 H 726.122 -3.61259 1.51655 0
M  V30 7773 H 727.819 -3.53161 1.89942 0
M  V30 7774 H 724.409 -2.8784 3.17563 0
M  V30 7775 H 728.593 -2.72956 4.14498 0
M  V30 7776 H 723.849 -2.56731 5.54887 0
M  V30 7777 H 728.023 -2.42938 6.52652 0
M  V30 7778 H 725.65 -2.34324 7.23185 0
M  V30 7779 N 727.225 -1.14528 -1.08264 0
M  V30 7780 C 728.155 -0.856356 -2.1723 0
M  V30 7781 C 729.136 0.189251 -1.69044 0
M  V30 7782 O 730.321 0.0456119 -1.94146 0
M  V30 7783 C 727.451 -0.334662 -3.45684 0
M  V30 7784 C 726.405 -1.31588 -4.0727 0
M  V30 7785 C 725.731 -0.653428 -5.30692 0
M  V30 7786 C 727.031 -2.67866 -4.48381 0
M  V30 7787 H 728.725 -1.76755 -2.41657 0
M  V30 7788 H 726.271 -0.851287 -1.16143 0
M  V30 7789 H 728.224 -0.120128 -4.21229 0
M  V30 7790 H 726.948 0.611967 -3.20815 0
M  V30 7791 H 725.607 -1.51661 -3.33758 0
M  V30 7792 H 725.255 0.299054 -5.0211 0
M  V30 7793 H 724.955 -1.30817 -5.72853 0
M  V30 7794 H 726.479 -0.448453 -6.08951 0
M  V30 7795 H 727.893 -2.51692 -5.15096 0
M  V30 7796 H 726.29 -3.29627 -5.01464 0
M  V30 7797 H 727.36 -3.24632 -3.60198 0
M  V30 7798 N 728.703 1.26451 -0.940633 0
M  V30 7799 C 729.933 1.97581 -0.603766 0
M  V30 7800 C 730.341 1.70246 0.825395 0
M  V30 7801 O 729.684 0.967001 1.56188 0
M  V30 7802 C 729.746 3.51256 -0.765463 0
M  V30 7803 C 729.41 4.0224 -2.16915 0
M  V30 7804 C 730.407 4.1402 -3.14457 0
M  V30 7805 C 728.092 4.36263 -2.48958 0
M  V30 7806 C 730.086 4.59117 -4.42143 0
M  V30 7807 C 727.773 4.81048 -3.76877 0
M  V30 7808 C 728.771 4.92436 -4.73282 0
M  V30 7809 O 728.459 5.36234 -5.98923 0
M  V30 7810 H 728.191 0.636948 -0.226436 0
M  V30 7811 H 730.745 1.61941 -1.2635 0
M  V30 7812 H 728.975 3.86669 -0.0485956 0
M  V30 7813 H 730.664 4.03597 -0.431738 0
M  V30 7814 H 731.43 3.87981 -2.91026 0
M  V30 7815 H 727.309 4.26634 -1.74656 0
M  V30 7816 H 730.853 4.6792 -5.17394 0
M  V30 7817 H 726.75 5.06531 -4.00121 0
M  V30 7818 H 727.518 5.54456 -6.02097 0
M  V30 7819 N 730.181 0.707592 1.40822 0
M  V30 7820 C 731.428 0.243671 2.01029 0
M  V30 7821 C 731.756 -1.16057 1.5608 0
M  V30 7822 O 731.011 -1.7999 0.768251 0
M  V30 7823 C 731.31 0.262892 3.56432 0
M  V30 7824 C 730.976 1.61632 4.20935 0
M  V30 7825 C 729.638 1.98682 4.38268 0
M  V30 7826 C 731.99 2.50619 4.5699 0
M  V30 7827 C 729.318 3.2428 4.88937 0
M  V30 7828 C 731.67 3.75562 5.09054 0
M  V30 7829 C 730.334 4.12739 5.24598 0
M  V30 7830 H 729.604 0.0891654 0.735616 0
M  V30 7831 H 732.251 0.909051 1.68548 0
M  V30 7832 H 730.556 -0.486052 3.88773 0
M  V30 7833 H 732.253 -0.113775 4.00839 0
M  V30 7834 H 728.843 1.31818 4.07826 0
M  V30 7835 H 733.027 2.23272 4.43242 0
M  V30 7836 H 728.283 3.53064 4.99155 0
M  V30 7837 H 732.457 4.44692 5.35931 0
M  V30 7838 H 730.084 5.10132 5.63622 0
M  V30 7839 N 731.66 -1.50943 0.453197 0
M  V30 7840 C 732.607 -2.28128 -0.350197 0
M  V30 7841 C 733.577 -1.32398 -1.00299 0
M  V30 7842 O 734.762 -1.61319 -1.01887 0
M  V30 7843 C 731.902 -3.13782 -1.43649 0
M  V30 7844 C 731.015 -4.24523 -0.800255 0
M  V30 7845 C 730.15 -4.97462 -1.86293 0
M  V30 7846 C 729.189 -6.00102 -1.20598 0
M  V30 7847 N 728.326 -6.66387 -2.21071 0
M  V30 7848 H 733.166 -2.96337 0.31434 0
M  V30 7849 H 730.703 -1.46151 0.166863 0
M  V30 7850 H 732.661 -3.6178 -2.07776 0
M  V30 7851 H 731.291 -2.47655 -2.07044 0
M  V30 7852 H 730.343 -3.80371 -0.0468651 0
M  V30 7853 H 731.655 -4.98009 -0.280777 0
M  V30 7854 H 730.809 -5.49088 -2.58044 0
M  V30 7855 H 729.548 -4.23642 -2.41617 0
M  V30 7856 H 728.553 -5.47753 -0.474 0
M  V30 7857 H 729.778 -6.75887 -0.659859 0
M  V30 7858 H 727.724 -5.9537 -2.75446 0
M  V30 7859 H 727.641 -7.3569 -1.74058 0
M  V30 7860 H 728.909 -7.22638 -2.92257 0
M  V30 7861 N 733.138 -0.185124 -1.56509 0
M  V30 7862 C 734.068 0.735098 -2.21627 0
M  V30 7863 C 735.049 1.2288 -1.1762 0
M  V30 7864 O 736.234 1.27945 -1.46095 0
M  V30 7865 C 733.364 1.95889 -2.86783 0
M  V30 7866 C 732.318 1.6005 -3.96948 0
M  V30 7867 C 731.644 2.90009 -4.4922 0
M  V30 7868 C 732.944 0.818008 -5.15855 0
M  V30 7869 H 734.638 0.192274 -2.98782 0
M  V30 7870 H 732.184 0.0910393 -1.43712 0
M  V30 7871 H 734.137 2.60779 -3.31017 0
M  V30 7872 H 732.861 2.52608 -2.07018 0
M  V30 7873 H 731.52 0.975237 -3.5339 0
M  V30 7874 H 731.168 3.44797 -3.6623 0
M  V30 7875 H 730.868 2.66778 -5.23549 0
M  V30 7876 H 732.392 3.55904 -4.9615 0
M  V30 7877 H 733.806 1.36979 -5.56695 0
M  V30 7878 H 732.203 0.684207 -5.96187 0
M  V30 7879 H 733.273 -0.182939 -4.84555 0
M  V30 7880 N 734.616 1.57351 0.0885366 0
M  V30 7881 C 735.864 1.86051 0.789262 0
M  V30 7882 C 736.185 0.774763 1.78948 0
M  V30 7883 O 735.455 -0.198324 1.94894 0
M  V30 7884 H 734.035 0.686508 0.294475 0
M  V30 7885 H 736.697 1.94779 0.0686055 0
M  V30 7886 H 735.793 2.83007 1.31581 0
M  V30 7887 N 736.094 -0.359525 1.53444 0
M  V30 7888 C 737.342 -1.09935 1.69584 0
M  V30 7889 C 737.663 -1.89656 0.453371 0
M  V30 7890 O 736.933 -1.8852 -0.53263 0
M  V30 7891 H 735.513 -0.408843 0.625185 0
M  V30 7892 H 738.175 -0.40467 1.90653 0
M  V30 7893 H 737.271 -1.78575 2.55964 0
M  V30 7894 N 737.572 -1.44907 -0.619662 0
M  V30 7895 C 738.482 -1.55168 -1.75955 0
M  V30 7896 C 739.498 -0.43672 -1.6843 0
M  V30 7897 O 740.674 -0.695704 -1.89002 0
M  V30 7898 C 737.739 -1.50397 -3.12381 0
M  V30 7899 C 736.8 -2.72835 -3.31451 0
M  V30 7900 C 736.033 -2.68283 -4.61368 0
M  V30 7901 O 736.256 -1.74929 -5.42914 0
M  V30 7902 O 735.19 -3.59308 -4.82889 0
M  V30 7903 H 739.016 -2.51493 -1.7025 0
M  V30 7904 H 736.601 -1.27282 -0.782289 0
M  V30 7905 H 738.483 -1.50301 -3.93685 0
M  V30 7906 H 737.158 -0.572197 -3.18603 0
M  V30 7907 H 736.065 -2.78496 -2.49781 0
M  V30 7908 H 737.398 -3.65098 -3.30098 0
M  V30 7909 N 739.05 0.861098 -1.31996 0
M  V30 7910 C 740.29 1.62873 -1.23498 0
M  V30 7911 C 740.654 1.90938 0.201692 0
M  V30 7912 O 741.855 2.6565 0.410305 0
M  V30 7913 C 740.126 2.91759 -2.06426 0
M  V30 7914 S 741.685 3.82583 -2.14885 0
M  V30 7915 H 738.503 0.558726 -0.439712 0
M  V30 7916 H 741.105 1.02025 -1.66767 0
M  V30 7917 H 739.809 2.69077 -3.0988 0
M  V30 7918 H 739.34 3.57627 -1.6391 0
M  V30 7919 H 741.355 4.7904 -1.29364 0
M  V30 7920 N 740.528 1.15101 1.07655 0
M  V30 7921 C 741.774 0.925343 1.80458 0
M  V30 7922 C 742.107 -0.546354 1.86356 0
M  V30 7923 O 741.382 -1.40496 1.34503 0
M  V30 7924 C 741.665 1.53646 3.25676 0
M  V30 7925 C 741.518 3.07854 3.27942 0
M  V30 7926 C 742.837 1.21968 4.22861 0
M  V30 7927 H 739.956 0.337592 0.655134 0
M  V30 7928 H 742.598 1.42217 1.25993 0
M  V30 7929 H 740.748 1.11395 3.72187 0
M  V30 7930 H 742.42 3.58989 2.89697 0
M  V30 7931 H 740.663 3.41904 2.66991 0
M  V30 7932 H 741.334 3.45725 4.30324 0
M  V30 7933 H 743.81 1.5851 3.84726 0
M  V30 7934 H 742.686 1.67349 5.22767 0
M  V30 7935 H 742.947 0.136207 4.4189 0
M  V30 7936 N 742.006 -1.2595 0.947325 0
M  V30 7937 C 742.969 -2.24407 0.466285 0
M  V30 7938 C 743.969 -1.55054 -0.426005 0
M  V30 7939 O 745.159 -1.7275 -0.224319 0
M  V30 7940 C 742.291 -3.39326 -0.327201 0
M  V30 7941 H 743.484 -2.68477 1.33642 0
M  V30 7942 H 741.037 -1.38211 0.729887 0
M  V30 7943 H 741.772 -3.00667 -1.21532 0
M  V30 7944 H 741.557 -3.9085 0.312839 0
M  V30 7945 H 743.047 -4.12455 -0.653477 0
M  V30 7946 N 743.484 -0.715051 -1.40445 0
M  V30 7947 C 744.732 -0.253826 -2.005 0
M  V30 7948 C 745.053 1.15681 -1.5698 0
M  V30 7949 O 744.323 1.78414 -0.809027 0
M  V30 7950 H 742.903 -0.0908537 -0.741454 0
M  V30 7951 H 745.565 -0.920561 -1.7179 0
M  V30 7952 H 744.661 -0.286499 -3.10782 0
M  V30 7953 N 744.962 1.50701 -0.461195 0
M  V30 7954 C 746.373 1.867 -0.00370227 0
M  V30 7955 C 746.724 1.37673 1.39787 0
M  V30 7956 O 745.849 0.737515 2.03445 0
M  V30 7957 C 746.444 3.388 5.75786e-05 0
M  V30 7958 C 745.003 3.74247 0.402044 0
M  V30 7959 C 744.15 2.74549 -0.389652 0
M  V30 7960 H 747.101 1.43585 -0.675942 0
M  V30 7961 H 747.122 3.719 0.804414 0
M  V30 7962 H 746.634 3.74452 -1.02015 0
M  V30 7963 H 744.735 3.44192 1.42697 0
M  V30 7964 H 744.848 4.78973 0.110265 0
M  V30 7965 H 743.212 2.54226 0.155314 0
M  V30 7966 H 743.995 3.13044 -1.40919 0
M  V30 7967 N 746.441 0.193421 1.56409 0
M  V30 7968 C 747.687 -0.446449 1.97825 0
M  V30 7969 C 748.02 -1.61386 1.08019 0
M  V30 7970 O 747.295 -1.94053 0.131839 0
M  V30 7971 C 747.578 -0.908199 3.48459 0
M  V30 7972 C 747.431 0.260914 4.49043 0
M  V30 7973 C 748.75 -1.77428 4.0275 0
M  V30 7974 H 745.869 -0.160807 0.719243 0
M  V30 7975 H 748.511 0.284006 1.87865 0
M  V30 7976 H 746.661 -1.53062 3.57077 0
M  V30 7977 H 748.333 0.898548 4.52464 0
M  V30 7978 H 746.576 0.912949 4.24085 0
M  V30 7979 H 747.247 -0.104657 5.51901 0
M  V30 7980 H 749.723 -1.24936 3.96901 0
M  V30 7981 H 748.599 -2.06633 5.08521 0
M  V30 7982 H 748.86 -2.72788 3.47907 0
M  V30 7983 N 747.919 -1.57396 -0.0801906 0
M  V30 7984 C 749.167 -1.86467 -0.779384 0
M  V30 7985 C 749.488 -0.784243 -1.78535 0
M  V30 7986 O 748.758 0.187986 -1.94996 0
M  V30 7987 H 747.338 -0.68806 -0.29083 0
M  V30 7988 H 750 -1.94813 -0.0582749 0
M  V30 7989 H 749.096 -2.83701 -1.30078 0
M  V30 7990 N 749.397 0.351382 -1.53633 0
M  V30 7991 C 750.327 1.43688 -1.84055 0
M  V30 7992 C 751.308 1.55251 -0.695073 0
M  V30 7993 O 752.493 1.69587 -0.946257 0
M  V30 7994 C 749.623 2.80843 -2.04315 0
M  V30 7995 C 748.577 2.84094 -3.20117 0
M  V30 7996 C 747.903 4.2406 -3.25696 0
M  V30 7997 C 749.203 2.50334 -4.58399 0
M  V30 7998 H 750.897 1.18478 -2.74961 0
M  V30 7999 H 748.443 0.568509 -1.32303 0
M  V30 8000 H 750.396 3.56821 -2.2418 0
M  V30 8001 H 749.12 3.07471 -1.10132 0
M  V30 8002 H 747.779 2.10568 -3.00094 0
M  V30 8003 H 747.427 4.47785 -2.29123 0
M  V30 8004 H 747.127 4.27147 -4.03509 0
M  V30 8005 H 748.651 5.0189 -3.47762 0
M  V30 8006 H 750.065 3.16025 -4.78332 0
M  V30 8007 H 748.462 2.64717 -5.38558 0
M  V30 8008 H 749.532 1.45542 -4.62543 0
M  V30 8009 N 750.875 1.45233 0.611969 0
M  V30 8010 C 751.805 1.5641 1.73373 0
M  V30 8011 C 752.786 0.415896 1.64937 0
M  V30 8012 O 753.971 0.638478 1.83404 0
M  V30 8013 C 751.101 1.52627 3.11965 0
M  V30 8014 C 750.055 2.66119 3.35208 0
M  V30 8015 C 749.381 2.4739 4.74028 0
M  V30 8016 C 750.681 4.08157 3.25891 0
M  V30 8017 H 752.375 2.50307 1.64277 0
M  V30 8018 H 749.921 1.20467 0.788904 0
M  V30 8019 H 751.874 1.59043 3.90235 0
M  V30 8020 H 750.598 0.552564 3.21892 0
M  V30 8021 H 749.257 2.59123 2.59327 0
M  V30 8022 H 748.905 1.48168 4.80682 0
M  V30 8023 H 748.605 3.23494 4.90536 0
M  V30 8024 H 750.129 2.55653 5.54503 0
M  V30 8025 H 751.543 4.1642 3.9404 0
M  V30 8026 H 749.94 4.84617 3.5393 0
M  V30 8027 H 751.01 4.30374 2.23397 0
M  V30 8028 N 752.353 -0.854086 1.3245 0
M  V30 8029 C 753.578 -1.64597 1.26185 0
M  V30 8030 C 754.003 -1.87357 -0.167074 0
M  V30 8031 O 753.361 -1.42675 -1.11864 0
M  V30 8032 C 753.409 -2.98213 2.02734 0
M  V30 8033 O 752.513 -3.88784 1.37554 0
M  V30 8034 H 751.854 -0.50179 0.434859 0
M  V30 8035 H 754.384 -1.06372 1.74775 0
M  V30 8036 H 754.394 -3.4803 2.1293 0
M  V30 8037 H 753.069 -2.80969 3.06642 0
M  V30 8038 H 751.646 -3.4725 1.3591 0
M  V30 8039 N 753.831 -1.1567 -1.07043 0
M  V30 8040 C 755.077 -0.9349 -1.79965 0
M  V30 8041 C 755.41 0.536464 -1.86643 0
M  V30 8042 O 754.685 1.39781 -1.35247 0
M  V30 8043 C 754.968 -1.55371 -3.24857 0
M  V30 8044 C 754.821 -3.09589 -3.26305 0
M  V30 8045 C 756.14 -1.24209 -4.22209 0
M  V30 8046 H 753.259 -0.341061 -0.653335 0
M  V30 8047 H 755.901 -1.42883 -1.25237 0
M  V30 8048 H 754.051 -1.13368 -3.71591 0
M  V30 8049 H 755.723 -3.60521 -2.87789 0
M  V30 8050 H 753.966 -3.43315 -2.65174 0
M  V30 8051 H 754.637 -3.48002 -4.28484 0
M  V30 8052 H 757.113 -1.60548 -3.8388 0
M  V30 8053 H 755.989 -1.70119 -5.21872 0
M  V30 8054 H 756.25 -0.15964 -4.41812 0
M  V30 8055 N 755.309 1.25446 -0.953992 0
M  V30 8056 C 756.239 2.28264 -0.491717 0
M  V30 8057 C 757.22 1.63717 0.461617 0
M  V30 8058 O 758.405 1.90821 0.36071 0
M  V30 8059 C 755.535 3.46525 0.231915 0
M  V30 8060 C 754.489 4.23247 -0.636098 0
M  V30 8061 C 753.815 5.34254 0.218238 0
M  V30 8062 C 755.115 4.85971 -1.91389 0
M  V30 8063 H 756.809 2.67183 -1.35106 0
M  V30 8064 H 754.355 1.2844 -0.651095 0
M  V30 8065 H 756.308 4.17576 0.566439 0
M  V30 8066 H 755.032 3.06594 1.12551 0
M  V30 8067 H 753.691 3.53978 -0.953696 0
M  V30 8068 H 753.339 4.90564 1.11156 0
M  V30 8069 H 753.039 5.86501 -0.359232 0
M  V30 8070 H 754.563 6.08138 0.547743 0
M  V30 8071 H 755.977 5.49168 -1.64581 0
M  V30 8072 H 754.374 5.48391 -2.43696 0
M  V30 8073 H 755.444 4.08192 -2.61738 0
M  V30 8074 N 756.787 0.722489 1.40064 0
M  V30 8075 C 758.012 0.273446 2.05589 0
M  V30 8076 C 758.437 -1.07875 1.54093 0
M  V30 8077 O 757.795 -1.68095 0.679252 0
M  V30 8078 C 757.843 0.271023 3.5958 0
M  V30 8079 O 756.947 -0.745499 4.05606 0
M  V30 8080 H 756.288 0.126856 0.65177 0
M  V30 8081 H 758.818 0.984906 1.79334 0
M  V30 8082 H 758.828 0.111084 4.07849 0
M  V30 8083 H 757.503 1.25776 3.96425 0
M  V30 8084 H 756.08 -0.552719 3.68781 0
M  V30 8085 N 758.265 -1.50454 0.469181 0
M  V30 8086 C 759.676 -1.86695 0.0136034 0
M  V30 8087 C 760.027 -1.38413 -1.39055 0
M  V30 8088 O 759.152 -0.748294 -2.03051 0
M  V30 8089 C 759.747 -3.38795 0.0179098 0
M  V30 8090 C 758.306 -3.74455 -0.382191 0
M  V30 8091 C 757.453 -2.74338 0.404207 0
M  V30 8092 H 760.404 -1.43225 0.683547 0
M  V30 8093 H 760.425 -3.72321 -0.78468 0
M  V30 8094 H 759.937 -3.73906 1.04 0
M  V30 8095 H 758.038 -3.44944 -1.4087 0
M  V30 8096 H 758.151 -4.79025 -0.084862 0
M  V30 8097 H 756.515 -2.54305 -0.141829 0
M  V30 8098 H 757.298 -3.12293 1.42577 0
M  V30 8099 N 759.743 -0.201713 -1.56304 0
M  V30 8100 C 760.691 0.733133 -2.20744 0
M  V30 8101 C 761.685 1.2148 -1.18064 0
M  V30 8102 O 762.891 1.17692 -1.36193 0
M  V30 8103 H 759.266 0.254789 -0.707521 0
M  V30 8104 H 761.237 0.165996 -2.97938 0
M  V30 8105 C 759.986 1.93925 -2.88597 0
M  V30 8106 H 759.309 1.5777 -3.67353 0
M  V30 8107 H 760.749 2.57158 -3.37114 0
M  V30 8108 C 759.208 2.78219 -1.89989 0
M  V30 8109 O 759.738 3.76353 -1.40432 0
M  V30 8110 N 757.944 2.43847 -1.58072 0
M  V30 8111 H 757.491 1.64103 -1.98565 0
M  V30 8112 H 757.449 3.0053 -0.923524 0
M  V30 8113 N 761.222 1.57436 0.0718424 0
M  V30 8114 C 762.633 1.75975 0.623678 0
M  V30 8115 C 762.984 0.827155 1.77912 0
M  V30 8116 O 762.109 0.0112425 2.16397 0
M  V30 8117 C 762.704 3.1911 1.13816 0
M  V30 8118 C 761.263 3.38994 1.63586 0
M  V30 8119 C 760.41 2.71684 0.555261 0
M  V30 8120 H 763.361 1.57948 -0.154328 0
M  V30 8121 H 763.382 3.23267 2.00696 0
M  V30 8122 H 762.894 3.86962 0.296998 0
M  V30 8123 H 760.995 2.76256 2.50027 0
M  V30 8124 H 761.108 4.47436 1.71283 0
M  V30 8125 H 759.472 2.34236 1.00029 0
M  V30 8126 H 760.255 3.42191 -0.275712 0
M  V30 8127 N 762.7 -0.34323 1.53817 0
M  V30 8128 C 763.63 -1.42709 1.84814 0
M  V30 8129 C 764.611 -1.5488 0.703297 0
M  V30 8130 O 765.796 -1.69082 0.955237 0
M  V30 8131 C 762.926 -2.79756 2.05801 0
M  V30 8132 C 761.88 -2.82392 3.21619 0
M  V30 8133 C 761.206 -4.22326 3.2794 0
M  V30 8134 C 762.506 -2.479 4.59721 0
M  V30 8135 H 764.2 -1.17018 2.75585 0
M  V30 8136 H 761.746 -0.561485 1.32602 0
M  V30 8137 H 763.699 -3.55627 2.26069 0
M  V30 8138 H 762.423 -3.06883 1.11761 0
M  V30 8139 H 761.082 -2.08974 3.01207 0
M  V30 8140 H 760.73 -4.46564 2.31494 0
M  V30 8141 H 760.43 -4.25001 4.05768 0
M  V30 8142 H 761.954 -5.00039 3.50419 0
M  V30 8143 H 763.368 -3.13484 4.80001 0
M  V30 8144 H 761.765 -2.61857 5.39954 0
M  V30 8145 H 762.835 -1.43087 4.63308 0
M  V30 8146 N 764.178 -1.45556 -0.604258 0
M  V30 8147 C 765.424 -1.49968 -1.36519 0
M  V30 8148 C 765.757 -0.142236 -1.93678 0
M  V30 8149 O 765.032 0.843717 -1.75247 0
M  V30 8150 C 765.315 -2.58146 -2.51063 0
M  V30 8151 C 765.168 -4.03346 -1.99078 0
M  V30 8152 C 766.487 -2.62581 -3.53184 0
M  V30 8153 H 763.606 -0.545993 -0.495036 0
M  V30 8154 H 766.248 -1.77382 -0.680845 0
M  V30 8155 H 764.398 -2.34901 -3.09441 0
M  V30 8156 H 766.07 -4.37811 -1.45323 0
M  V30 8157 H 764.313 -4.13845 -1.30055 0
M  V30 8158 H 764.984 -4.74731 -2.81664 0
M  V30 8159 H 767.46 -2.83419 -3.04652 0
M  V30 8160 H 766.336 -3.40131 -4.30816 0
M  V30 8161 H 766.597 -1.67798 -4.09019 0
M  V30 8162 N 765.656 0.84705 -1.32902 0
M  V30 8163 C 766.586 1.97166 -1.25091 0
M  V30 8164 C 767.567 1.69578 -0.133161 0
M  V30 8165 O 768.752 1.91519 -0.321591 0
M  V30 8166 C 765.882 3.33157 -0.981006 0
M  V30 8167 C 764.836 3.75119 -2.06082 0
M  V30 8168 C 764.162 5.08826 -1.64318 0
M  V30 8169 C 765.462 3.89774 -3.47669 0
M  V30 8170 H 767.156 2.03958 -2.19184 0
M  V30 8171 H 764.702 0.979907 -1.05517 0
M  V30 8172 H 766.655 4.11393 -0.912891 0
M  V30 8173 H 765.379 3.266 -0.00445559 0
M  V30 8174 H 764.038 2.9914 -2.11921 0
M  V30 8175 H 763.686 4.98732 -0.653876 0
M  V30 8176 H 763.386 5.37873 -2.36572 0
M  V30 8177 H 764.91 5.89546 -1.58958 0
M  V30 8178 H 766.324 4.58343 -3.44376 0
M  V30 8179 H 764.721 4.30248 -4.18338 0
M  V30 8180 H 765.791 2.92463 -3.86773 0
M  V30 8181 N 767.134 1.16236 1.06428 0
M  V30 8182 C 768.383 0.937523 1.78587 0
M  V30 8183 C 768.696 -0.536 1.88113 0
M  V30 8184 O 769.902 -0.878697 2.56887 0
M  V30 8185 C 768.358 1.62808 3.2097 0
M  V30 8186 C 767.966 3.13927 3.19615 0
M  V30 8187 C 769.71 1.48515 3.97673 0
M  V30 8188 C 767.617 3.75727 4.56709 0
M  V30 8189 H 766.547 0.347125 0.669343 0
M  V30 8190 H 769.198 1.39353 1.19385 0
M  V30 8191 H 767.58 1.09977 3.80422 0
M  V30 8192 H 768.754 3.7359 2.69753 0
M  V30 8193 H 767.069 3.28089 2.56411 0
M  V30 8194 H 769.666 1.92069 4.99013 0
M  V30 8195 H 770.009 0.433913 4.14032 0
M  V30 8196 H 770.542 1.98494 3.44739 0
M  V30 8197 H 767.281 4.80793 4.45554 0
M  V30 8198 H 766.801 3.20849 5.0677 0
M  V30 8199 H 768.48 3.77203 5.25668 0
M  V30 8200 N 768.612 -1.24939 0.960631 0
M  V30 8201 C 769.86 -1.92437 0.617441 0
M  V30 8202 C 770.181 -1.75543 -0.849101 0
M  V30 8203 O 769.451 -1.12269 -1.60538 0
M  V30 8204 H 768.031 -0.712192 0.225371 0
M  V30 8205 H 770.693 -1.5198 1.22017 0
M  V30 8206 H 769.789 -3.00247 0.851933 0
M  V30 8207 N 770.09 -0.729906 -1.39679 0
M  V30 8208 C 771.04 -0.0627678 -2.27914 0
M  V30 8209 C 772.024 0.717867 -1.43998 0
M  V30 8210 O 773.216 0.587713 -1.66958 0
M  V30 8211 C 770.345 0.847564 -3.32673 0
M  V30 8212 C 769.431 0.0613515 -4.24056 0
M  V30 8213 N 769.822 -0.962863 -4.96551 0
M  V30 8214 C 768.12 0.291773 -4.45045 0
M  V30 8215 C 768.821 -1.43652 -5.63683 0
M  V30 8216 N 767.797 -0.756044 -5.38317 0
M  V30 8217 H 771.599 -0.847545 -2.81414 0
M  V30 8218 H 769.113 -0.563776 -1.523 0
M  V30 8219 H 771.11 1.34094 -3.94746 0
M  V30 8220 H 769.77 1.63156 -2.80732 0
M  V30 8221 H 770.781 -1.34409 -5.00154 0
M  V30 8222 H 767.458 1.05097 -4.04056 0
M  V30 8223 H 768.848 -2.28835 -6.31731 0
M  V30 8224 N 771.568 1.50203 -0.477153 0
M  V30 8225 C 772.815 2.02358 0.0757385 0
M  V30 8226 C 773.143 1.3587 1.39174 0
M  V30 8227 O 772.398 0.475415 1.89838 0
M  V30 8228 C 772.697 3.56127 0.301325 0
M  V30 8229 C 772.363 4.41126 -0.933725 0
M  V30 8230 C 771.025 4.64075 -1.27233 0
M  V30 8231 C 773.377 4.90737 -1.75576 0
M  V30 8232 C 770.705 5.33878 -2.43292 0
M  V30 8233 C 773.057 5.61816 -2.90768 0
M  V30 8234 C 771.721 5.83016 -3.25036 0
M  V30 8235 H 770.991 0.740482 0.0277147 0
M  V30 8236 H 773.638 1.80754 -0.632467 0
M  V30 8237 H 771.943 3.76279 1.09183 0
M  V30 8238 H 773.64 3.94053 0.743184 0
M  V30 8239 H 770.23 4.23489 -0.659935 0
M  V30 8240 H 774.414 4.72856 -1.50734 0
M  V30 8241 H 769.67 5.48499 -2.70109 0
M  V30 8242 H 773.844 5.99237 -3.54807 0
M  V30 8243 H 771.471 6.36881 -4.15074 0
M  V30 8244 N 773.046 0.209999 1.56195 0
M  V30 8245 C 774.293 -0.424813 1.97994 0
M  V30 8246 C 774.621 -1.60589 1.09733 0
M  V30 8247 O 773.876 -1.95201 0.139693 0
M  V30 8248 C 774.175 -0.91312 3.45539 0
M  V30 8249 C 773.841 0.156187 4.50629 0
M  V30 8250 C 772.503 0.449966 4.79092 0
M  V30 8251 C 774.855 0.879959 5.13718 0
M  V30 8252 C 772.183 1.47223 5.67928 0
M  V30 8253 C 774.535 1.89148 6.0366 0
M  V30 8254 C 773.199 2.1923 6.30472 0
M  V30 8255 H 772.469 -0.15545 0.724511 0
M  V30 8256 H 775.116 0.310095 1.88973 0
M  V30 8257 H 773.421 -1.72658 3.51705 0
M  V30 8258 H 775.118 -1.41395 3.75245 0
M  V30 8259 H 771.708 -0.0829466 4.2852 0
M  V30 8260 H 775.892 0.66623 4.91808 0
M  V30 8261 H 771.148 1.71105 5.86969 0
M  V30 8262 H 775.322 2.45745 6.516 0
M  V30 8263 H 772.949 2.98587 6.99107 0
M  V30 8264 N 774.524 -1.57472 -0.0634922 0
M  V30 8265 C 775.487 -2.03268 -1.059 0
M  V30 8266 C 776.487 -0.931028 -1.31105 0
M  V30 8267 O 777.677 -1.19567 -1.26686 0
M  V30 8268 C 774.809 -2.42039 -2.40062 0
M  V30 8269 H 776.002 -2.92454 -0.664119 0
M  V30 8270 H 773.555 -1.53206 -0.309444 0
M  V30 8271 H 774.29 -1.55904 -2.84367 0
M  V30 8272 H 774.075 -3.22437 -2.23108 0
M  V30 8273 H 775.565 -2.78017 -3.11603 0
M  V30 8274 N 776.003 0.335068 -1.53997 0
M  V30 8275 C 777.249 1.07594 -1.71905 0
M  V30 8276 C 777.582 1.88039 -0.485264 0
M  V30 8277 O 776.857 1.87482 0.517752 0
M  V30 8278 C 777.14 2.01016 -2.98772 0
M  V30 8279 C 776.993 1.23977 -4.32377 0
M  V30 8280 C 778.312 3.0071 -3.21343 0
M  V30 8281 H 775.431 0.38976 -0.625505 0
M  V30 8282 H 778.073 0.353684 -1.86679 0
M  V30 8283 H 776.223 2.62603 -2.86307 0
M  V30 8284 H 777.895 0.649383 -4.56706 0
M  V30 8285 H 776.138 0.541878 -4.30402 0
M  V30 8286 H 776.809 1.92512 -5.17342 0
M  V30 8287 H 779.285 2.4924 -3.33194 0
M  V30 8288 H 778.161 3.63272 -4.11491 0
M  V30 8289 H 778.422 3.72549 -2.38033 0
M  V30 8290 N 777.481 1.45874 0.596531 0
M  V30 8291 C 778.444 1.54988 1.68853 0
M  V30 8292 C 779.444 0.428302 1.54991 0
M  V30 8293 O 780.634 0.692158 1.59859 0
M  V30 8294 C 777.766 1.457 3.08195 0
M  V30 8295 H 778.959 2.52294 1.62135 0
M  V30 8296 H 776.512 1.33479 0.813206 0
M  V30 8297 H 777.247 0.496204 3.20481 0
M  V30 8298 H 777.032 2.27061 3.19665 0
M  V30 8299 H 778.522 1.55133 3.87716 0
M  V30 8300 N 778.959 -0.83999 1.33349 0
M  V30 8301 C 780.208 -1.59011 1.2409 0
M  V30 8302 C 780.521 -1.94655 -0.192029 0
M  V30 8303 O 781.727 -2.68438 -0.406617 0
M  V30 8304 C 780.183 -2.86801 2.17425 0
M  V30 8305 C 779.791 -2.58525 3.65881 0
M  V30 8306 C 781.535 -3.64823 2.17036 0
M  V30 8307 C 779.442 -3.82404 4.51133 0
M  V30 8308 H 778.372 -0.596731 0.460899 0
M  V30 8309 H 781.023 -0.926274 1.58406 0
M  V30 8310 H 779.405 -3.54719 1.7604 0
M  V30 8311 H 780.579 -1.98824 4.15699 0
M  V30 8312 H 778.894 -1.93808 3.68548 0
M  V30 8313 H 781.491 -4.56774 2.7796 0
M  V30 8314 H 781.834 -3.99663 1.16513 0
M  V30 8315 H 782.367 -3.03826 2.56777 0
M  V30 8316 H 779.106 -3.52696 5.52527 0
M  V30 8317 H 778.626 -4.41447 4.0606 0
M  V30 8318 H 780.305 -4.49995 4.6488 0
M  V30 8319 N 780.437 -1.16799 -1.0581 0
M  V30 8320 C 781.667 -0.975454 -1.82122 0
M  V30 8321 C 782.075 0.479584 -1.83021 0
M  V30 8322 O 781.418 1.34471 -1.25153 0
M  V30 8323 C 781.48 -1.43209 -3.29744 0
M  V30 8324 C 781.144 -2.908 -3.5254 0
M  V30 8325 C 782.141 -3.88775 -3.45181 0
M  V30 8326 C 779.826 -3.28832 -3.79703 0
M  V30 8327 C 781.82 -5.22782 -3.64661 0
M  V30 8328 C 779.507 -4.63007 -3.98832 0
M  V30 8329 C 780.505 -5.59791 -3.91309 0
M  V30 8330 O 780.193 -6.9154 -4.09911 0
M  V30 8331 H 779.925 -0.345655 -0.580947 0
M  V30 8332 H 782.479 -1.55355 -1.34365 0
M  V30 8333 H 780.709 -0.797504 -3.78387 0
M  V30 8334 H 782.398 -1.2062 -3.87564 0
M  V30 8335 H 783.164 -3.60738 -3.2418 0
M  V30 8336 H 779.043 -2.54073 -3.84666 0
M  V30 8337 H 782.587 -5.98312 -3.58705 0
M  V30 8338 H 778.484 -4.90752 -4.19324 0
M  V30 8339 H 779.252 -6.98188 -4.27172 0
M  V30 8340 N 781.915 1.24427 -0.967243 0
M  V30 8341 C 782.878 2.23637 -0.501927 0
M  V30 8342 C 783.878 1.55712 0.401283 0
M  V30 8343 O 785.068 1.73085 0.196808 0
M  V30 8344 C 782.2 3.39804 0.273176 0
M  V30 8345 H 783.393 2.66317 -1.37897 0
M  V30 8346 H 780.946 1.37033 -0.751783 0
M  V30 8347 H 781.681 3.02562 1.16733 0
M  V30 8348 H 781.466 3.90303 -0.37498 0
M  V30 8349 H 782.956 4.13443 0.587776 0
M  V30 8350 N 783.393 0.737304 1.3929 0
M  V30 8351 C 784.639 0.286681 2.00763 0
M  V30 8352 C 784.972 -1.12388 1.58375 0
M  V30 8353 O 784.247 -1.76661 0.813699 0
M  V30 8354 C 784.53 0.391147 3.57969 0
M  V30 8355 C 784.383 1.84165 4.1037 0
M  V30 8356 C 785.702 -0.225072 4.39524 0
M  V30 8357 H 782.821 0.105642 0.729389 0
M  V30 8358 H 785.463 0.933892 1.65464 0
M  V30 8359 H 783.613 -0.159875 3.88171 0
M  V30 8360 H 785.285 2.44972 3.90879 0
M  V30 8361 H 783.528 2.3622 3.63844 0
M  V30 8362 H 784.199 1.866 5.19504 0
M  V30 8363 H 786.675 0.244677 4.1538 0
M  V30 8364 H 785.551 -0.121646 5.48765 0
M  V30 8365 H 785.812 -1.31141 4.22202 0
M  V30 8366 N 784.871 -1.49948 0.485112 0
M  V30 8367 C 786.101 -2.06506 -0.0621921 0
M  V30 8368 C 786.509 -1.34756 -1.32806 0
M  V30 8369 O 785.852 -0.41466 -1.78959 0
M  V30 8370 C 785.914 -3.57243 -0.402182 0
M  V30 8371 C 785.578 -4.50574 0.763671 0
M  V30 8372 C 786.575 -4.93032 1.6497 0
M  V30 8373 C 784.26 -4.9308 0.957973 0
M  V30 8374 C 786.254 -5.76718 2.71432 0
M  V30 8375 C 783.941 -5.76546 2.0258 0
M  V30 8376 C 784.939 -6.18267 2.90232 0
M  V30 8377 O 784.627 -7.00066 3.95174 0
M  V30 8378 H 784.359 -0.675925 0.0100672 0
M  V30 8379 H 786.913 -1.93922 0.677023 0
M  V30 8380 H 785.143 -3.6778 -1.19478 0
M  V30 8381 H 786.832 -3.96107 -0.886219 0
M  V30 8382 H 787.598 -4.60851 1.51134 0
M  V30 8383 H 783.477 -4.60117 0.285144 0
M  V30 8384 H 787.021 -6.09203 3.39878 0
M  V30 8385 H 782.918 -6.0814 2.16417 0
M  V30 8386 H 783.686 -7.18343 3.92333 0
M  V30 8387 N 786.349 -0.21828 -1.56081 0
M  V30 8388 C 787.596 0.414307 -1.98216 0
M  V30 8389 C 787.924 1.60005 -1.10584 0
M  V30 8390 O 787.179 1.95124 -0.150043 0
M  V30 8391 C 787.478 0.894782 -3.46018 0
M  V30 8392 C 787.144 -0.180083 -4.5054 0
M  V30 8393 C 785.806 -0.475367 -4.78846 0
M  V30 8394 C 788.158 -0.907191 -5.13244 0
M  V30 8395 C 785.486 -1.50233 -5.67139 0
M  V30 8396 C 787.838 -1.92347 -6.02649 0
M  V30 8397 C 786.502 -2.22571 -6.293 0
M  V30 8398 H 785.772 0.151606 -0.725325 0
M  V30 8399 H 788.419 -0.320113 -1.88806 0
M  V30 8400 H 786.724 1.7079 -3.52616 0
M  V30 8401 H 788.421 1.39403 -3.75989 0
M  V30 8402 H 785.011 0.06022 -4.28558 0
M  V30 8403 H 789.195 -0.692303 -4.91448 0
M  V30 8404 H 784.451 -1.74215 -5.86054 0
M  V30 8405 H 788.625 -2.49197 -6.50288 0
M  V30 8406 H 786.252 -3.0229 -6.97513 0
M  V30 8407 N 787.827 1.57504 0.0551401 0
M  V30 8408 C 789.067 1.89895 0.756252 0
M  V30 8409 C 789.431 0.813983 1.73892 0
M  V30 8410 O 790.632 1.02145 2.48636 0
M  V30 8411 C 788.903 3.27494 1.43116 0
M  V30 8412 S 790.462 3.81669 2.16504 0
M  V30 8413 H 787.28 0.665173 0.251129 0
M  V30 8414 H 789.882 1.95496 0.0117193 0
M  V30 8415 H 788.586 4.04345 0.702391 0
M  V30 8416 H 788.117 3.25132 2.21479 0
M  V30 8417 H 790.132 3.58295 3.43277 0
M  V30 8418 N 789.305 -0.326896 1.54172 0
M  V30 8419 C 790.552 -1.06523 1.72218 0
M  V30 8420 C 790.88 -1.88119 0.494114 0
M  V30 8421 O 790.135 -1.8855 -0.524147 0
M  V30 8422 C 790.434 -2.0208 2.94785 0
M  V30 8423 C 790.1 -1.36665 4.2969 0
M  V30 8424 C 788.762 -1.18556 4.66367 0
M  V30 8425 C 791.114 -0.896868 5.13425 0
M  V30 8426 C 788.442 -0.521113 5.84381 0
M  V30 8427 C 790.794 -0.246261 6.3212 0
M  V30 8428 C 789.458 -0.052987 6.67479 0
M  V30 8429 H 788.728 -0.389796 0.63019 0
M  V30 8430 H 791.375 -0.342725 1.88408 0
M  V30 8431 H 789.68 -2.8077 2.73268 0
M  V30 8432 H 791.377 -2.59231 3.05941 0
M  V30 8433 H 787.967 -1.51762 4.00832 0
M  V30 8434 H 792.151 -1.02458 4.85609 0
M  V30 8435 H 787.407 -0.36014 6.10338 0
M  V30 8436 H 791.581 0.125775 6.96286 0
M  V30 8437 H 789.208 0.463903 7.58783 0
M  V30 8438 N 790.784 -1.46188 -0.588786 0
M  V30 8439 C 791.731 -1.56292 -1.69828 0
M  V30 8440 C 792.701 -0.407581 -1.61022 0
M  V30 8441 O 793.886 -0.623532 -1.80324 0
M  V30 8442 C 791.026 -1.55341 -3.08161 0
M  V30 8443 C 790.139 -2.81564 -3.27636 0
M  V30 8444 C 789.274 -2.72158 -4.56183 0
M  V30 8445 C 788.313 -3.93348 -4.68981 0
M  V30 8446 N 787.45 -3.82365 -5.88848 0
M  V30 8447 H 792.29 -2.51066 -1.6053 0
M  V30 8448 H 789.827 -1.24562 -0.782474 0
M  V30 8449 H 791.785 -1.52776 -3.88221 0
M  V30 8450 H 790.415 -0.641034 -3.16371 0
M  V30 8451 H 789.467 -2.94136 -2.41223 0
M  V30 8452 H 790.779 -3.714 -3.32962 0
M  V30 8453 H 789.933 -2.67665 -5.44464 0
M  V30 8454 H 788.672 -1.79953 -4.53286 0
M  V30 8455 H 787.677 -3.98181 -3.7912 0
M  V30 8456 H 788.902 -4.86643 -4.73662 0
M  V30 8457 H 786.848 -2.92942 -5.86959 0
M  V30 8458 H 786.765 -4.65851 -5.95415 0
M  V30 8459 H 788.033 -3.81836 -6.79575 0
M  V30 8460 N 792.262 0.832906 -1.33792 0
M  V30 8461 C 793.487 1.62568 -1.28788 0
M  V30 8462 C 793.912 1.87599 0.137246 0
M  V30 8463 O 793.27 1.44436 1.0958 0
M  V30 8464 C 793.318 2.9495 -2.07453 0
M  V30 8465 O 792.422 3.86546 -1.43722 0
M  V30 8466 H 791.763 0.494809 -0.442787 0
M  V30 8467 H 794.293 1.03578 -1.76445 0
M  V30 8468 H 794.303 3.44599 -2.1844 0
M  V30 8469 H 792.978 2.76055 -3.11073 0
M  V30 8470 H 791.555 3.45044 -1.41417 0
M  V30 8471 N 793.74 1.17359 1.05189 0
M  V30 8472 C 794.65 0.904984 2.16442 0
M  V30 8473 C 795.666 -0.12686 1.73537 0
M  V30 8474 O 796.842 0.0524127 2.01332 0
M  V30 8475 C 793.907 0.422019 3.44122 0
M  V30 8476 C 792.968 1.52045 4.01473 0
M  V30 8477 C 792.201 1.06044 5.23059 0
M  V30 8478 O 792.424 -0.0854023 5.70336 0
M  V30 8479 O 791.358 1.85349 5.72651 0
M  V30 8480 H 795.184 1.8356 2.41949 0
M  V30 8481 H 792.769 0.95447 1.14936 0
M  V30 8482 H 794.651 0.160208 4.21095 0
M  V30 8483 H 793.326 -0.480444 3.20115 0
M  V30 8484 H 792.233 1.83615 3.25939 0
M  V30 8485 H 793.566 2.39863 4.29798 0
M  V30 8486 N 795.218 -1.23913 0.973828 0
M  V30 8487 C 796.629 -1.73992 0.677021 0
M  V30 8488 C 796.98 -1.78833 -0.807036 0
M  V30 8489 O 796.105 -1.42183 -1.63135 0
M  V30 8490 C 796.7 -3.15985 1.22226 0
M  V30 8491 C 795.259 -3.63547 0.975228 0
M  V30 8492 C 794.406 -2.42001 1.35392 0
M  V30 8493 H 797.357 -1.09529 1.14844 0
M  V30 8494 H 797.378 -3.75875 0.591489 0
M  V30 8495 H 796.89 -3.12429 2.30238 0
M  V30 8496 H 794.991 -3.72493 -0.0891047 0
M  V30 8497 H 795.104 -4.50693 1.62518 0
M  V30 8498 H 793.468 -2.42708 0.772334 0
M  V30 8499 H 794.251 -2.41122 2.44367 0
M  V30 8500 N 796.696 -0.74468 -1.38897 0
M  V30 8501 C 797.942 -0.306249 -2.01081 0
M  V30 8502 C 798.297 1.09724 -1.58046 0
M  V30 8503 O 797.59 1.73923 -0.803834 0
M  V30 8504 C 797.784 -0.357302 -3.55609 0
M  V30 8505 C 797.613 -1.76421 -4.13649 0
M  V30 8506 C 796.383 -2.3787 -4.4581 0
M  V30 8507 C 798.581 -2.71942 -4.36523 0
M  V30 8508 N 796.563 -3.70614 -4.89406 0
M  V30 8509 C 797.934 -3.89437 -4.8243 0
M  V30 8510 C 799.989 -2.69579 -4.18607 0
M  V30 8511 C 798.692 -5.04917 -5.123 0
M  V30 8512 C 800.718 -3.8421 -4.49596 0
M  V30 8513 C 800.08 -5.00442 -4.95719 0
M  V30 8514 H 796.179 -0.158531 -0.765762 0
M  V30 8515 H 798.763 -0.972726 -1.6866 0
M  V30 8516 H 796.934 0.278865 -3.87398 0
M  V30 8517 H 798.666 0.100599 -4.04575 0
M  V30 8518 H 795.421 -1.8971 -4.33943 0
M  V30 8519 H 795.845 -4.38791 -5.1555 0
M  V30 8520 H 800.487 -1.80905 -3.82143 0
M  V30 8521 H 798.205 -5.94213 -5.47665 0
M  V30 8522 H 801.791 -3.83691 -4.37347 0
M  V30 8523 H 800.671 -5.87671 -5.19242 0
M  V30 8524 N 798.174 1.49689 -0.493057 0
M  V30 8525 C 799.423 2.01622 0.0560733 0
M  V30 8526 C 799.736 1.37838 1.3878 0
M  V30 8527 O 800.942 1.81054 2.02316 0
M  V30 8528 C 799.398 3.59586 0.150409 0
M  V30 8529 C 799.006 4.32338 -1.1742 0
M  V30 8530 C 800.75 4.19489 0.650327 0
M  V30 8531 C 798.657 5.8214 -1.04246 0
M  V30 8532 H 797.587 0.753594 0.0247297 0
M  V30 8533 H 800.238 1.723 -0.631279 0
M  V30 8534 H 798.62 3.8559 0.902035 0
M  V30 8535 H 799.794 4.18042 -1.9385 0
M  V30 8536 H 798.109 3.84144 -1.60694 0
M  V30 8537 H 800.706 5.29181 0.766272 0
M  V30 8538 H 801.049 3.82326 1.6472 0
M  V30 8539 H 801.582 3.97775 -0.0445371 0
M  V30 8540 H 798.321 6.23814 -2.01336 0
M  V30 8541 H 797.841 5.98952 -0.31892 0
M  V30 8542 H 799.52 6.43004 -0.717957 0
M  V30 8543 N 799.652 0.226554 1.55963 0
M  V30 8544 C 800.88 -0.408507 2.02827 0
M  V30 8545 C 801.295 -1.52994 1.10627 0
M  V30 8546 O 800.652 -1.82126 0.116809 0
M  V30 8547 C 800.703 -0.93545 3.49187 0
M  V30 8548 O 800.424 0.141273 4.37872 0
M  V30 8549 C 801.925 -1.64325 4.11719 0
M  V30 8550 H 799.145 -0.099442 0.66359 0
M  V30 8551 H 801.689 0.344471 2.01578 0
M  V30 8552 H 799.844 -1.63868 3.51036 0
M  V30 8553 H 800.258 -0.25558 5.23877 0
M  V30 8554 H 801.732 -1.9639 5.15883 0
M  V30 8555 H 802.209 -2.55815 3.57009 0
M  V30 8556 H 802.815 -0.9851 4.13734 0
M  V30 8557 N 801.13 -1.57531 -0.0467866 0
M  V30 8558 C 802.077 -2.05387 -1.05285 0
M  V30 8559 C 803.047 -0.939385 -1.36985 0
M  V30 8560 O 804.232 -1.20877 -1.47626 0
M  V30 8561 C 801.372 -2.52343 -2.35408 0
M  V30 8562 C 800.485 -3.77512 -2.10022 0
M  V30 8563 C 799.62 -4.1315 -3.33887 0
M  V30 8564 C 798.659 -5.31286 -3.03976 0
M  V30 8565 N 797.796 -5.62441 -4.20243 0
M  V30 8566 H 802.636 -2.91095 -0.637788 0
M  V30 8567 H 800.173 -1.43939 -0.303322 0
M  V30 8568 H 802.131 -2.77628 -3.11413 0
M  V30 8569 H 800.761 -1.69577 -2.7467 0
M  V30 8570 H 799.813 -3.59417 -1.24594 0
M  V30 8571 H 801.125 -4.63644 -1.83945 0
M  V30 8572 H 800.279 -4.39469 -4.18273 0
M  V30 8573 H 799.018 -3.25634 -3.63062 0
M  V30 8574 H 798.023 -5.04738 -2.17991 0
M  V30 8575 H 799.248 -6.20441 -2.76098 0
M  V30 8576 H 797.194 -4.77885 -4.49402 0
M  V30 8577 H 797.111 -6.43046 -3.97528 0
M  V30 8578 H 798.379 -5.93327 -5.05553 0
M  V30 8579 N 802.608 0.318715 -1.54344 0
M  V30 8580 C 804.019 0.89285 -1.63967 0
M  V30 8581 C 804.37 1.88712 -0.536855 0
M  V30 8582 O 803.495 2.13877 0.329457 0
M  V30 8583 C 804.09 1.62618 -2.97222 0
M  V30 8584 C 802.649 2.14897 -3.09025 0
M  V30 8585 C 801.796 0.975909 -2.5956 0
M  V30 8586 H 804.747 0.0961687 -1.58408 0
M  V30 8587 H 804.768 2.4907 -2.87653 0
M  V30 8588 H 804.28 0.902286 -3.77466 0
M  V30 8589 H 802.381 2.90387 -2.33465 0
M  V30 8590 H 802.494 2.39565 -4.14904 0
M  V30 8591 H 800.858 1.35646 -2.15574 0
M  V30 8592 H 801.641 0.266253 -3.42266 0
M  V30 8593 N 804.086 1.46499 0.581025 0
M  V30 8594 C 805.502 1.31491 0.904563 0
M  V30 8595 C 805.702 0.287598 1.99437 0
M  V30 8596 O 804.758 -0.309247 2.50599 0
M  V30 8597 C 806.071 2.70163 1.32032 0
M  V30 8598 C 807.619 2.78266 1.43308 0
M  V30 8599 C 808.094 4.17524 1.8825 0
M  V30 8600 N 809.585 4.19949 1.9544 0
M  V30 8601 C 810.32 5.24594 2.31493 0
M  V30 8602 N 809.816 6.39564 2.66326 0
M  V30 8603 N 811.609 5.11961 2.32062 0
M  V30 8604 H 803.76 2.11946 -0.138856 0
M  V30 8605 H 806.023 0.948 0.000548528 0
M  V30 8606 H 805.729 3.46655 0.593554 0
M  V30 8607 H 805.603 3.00379 2.2815 0
M  V30 8608 H 807.99 2.02061 2.15071 0
M  V30 8609 H 808.071 2.51732 0.45438 0
M  V30 8610 H 807.715 4.94225 1.17065 0
M  V30 8611 H 807.645 4.41466 2.87081 0
M  V30 8612 H 810.136 3.36996 1.71004 0
M  V30 8613 H 810.449 7.15187 2.92793 0
M  V30 8614 H 808.794 6.42923 2.6396 0
M  V30 8615 H 811.985 4.21177 2.04272 0
M  V30 8616 H 812.158 5.93626 2.5983 0
M  V30 8617 N 805.565 -0.825799 1.34232 0
M  V30 8618 C 806.528 -1.91808 1.25468 0
M  V30 8619 C 807.528 -1.59893 0.170567 0
M  V30 8620 O 808.718 -1.68986 0.422996 0
M  V30 8621 C 805.85 -3.27786 0.93644 0
M  V30 8622 H 807.043 -2.01003 2.22571 0
M  V30 8623 H 804.596 -1.01944 1.18479 0
M  V30 8624 H 805.331 -3.24285 -0.0315408 0
M  V30 8625 H 805.116 -3.52333 1.72057 0
M  V30 8626 H 806.606 -4.07782 0.900214 0
M  V30 8627 N 807.043 -1.17915 -1.04565 0
M  V30 8628 C 807.973 -0.925033 -2.14395 0
M  V30 8629 C 808.954 0.135375 -1.6956 0
M  V30 8630 O 810.139 -0.0161774 -1.94193 0
M  V30 8631 C 807.269 -0.444469 -3.44444 0
M  V30 8632 C 806.223 -1.44478 -4.02877 0
M  V30 8633 C 805.549 -0.821933 -5.28345 0
M  V30 8634 C 806.849 -2.81995 -4.39632 0
M  V30 8635 H 808.543 -1.84354 -2.35911 0
M  V30 8636 H 806.089 -0.887806 -1.13375 0
M  V30 8637 H 808.042 -0.254078 -4.20633 0
M  V30 8638 H 806.766 0.509592 -3.226 0
M  V30 8639 H 805.425 -1.62203 -3.28764 0
M  V30 8640 H 805.073 0.139161 -5.02807 0
M  V30 8641 H 804.773 -1.48976 -5.68401 0
M  V30 8642 H 806.297 -0.641959 -6.07216 0
M  V30 8643 H 807.711 -2.67952 -5.06828 0
M  V30 8644 H 806.108 -3.45414 -4.90723 0
M  V30 8645 H 807.178 -3.35927 -3.49687 0
M  V30 8646 N 808.521 1.23394 -0.980386 0
M  V30 8647 C 809.451 2.2717 -0.540024 0
M  V30 8648 C 810.432 1.64659 0.426787 0
M  V30 8649 O 811.617 1.91543 0.320153 0
M  V30 8650 C 808.747 3.46939 0.15836 0
M  V30 8651 C 807.701 4.21802 -0.725732 0
M  V30 8652 C 807.027 5.34597 0.104866 0
M  V30 8653 C 808.327 4.81802 -2.01654 0
M  V30 8654 H 810.021 2.64257 -1.40743 0
M  V30 8655 H 807.567 1.2703 -0.678193 0
M  V30 8656 H 809.52 4.18683 0.477737 0
M  V30 8657 H 808.244 3.08912 1.06022 0
M  V30 8658 H 806.903 3.51875 -1.02857 0
M  V30 8659 H 806.551 4.92812 1.00726 0
M  V30 8660 H 806.251 5.85607 -0.483557 0
M  V30 8661 H 807.775 6.09163 0.418624 0
M  V30 8662 H 809.189 5.45554 -1.76193 0
M  V30 8663 H 807.586 5.43098 -2.55273 0
M  V30 8664 H 808.656 4.02549 -2.70338 0
M  V30 8665 N 809.999 0.752036 1.385 0
M  V30 8666 C 811.224 0.316993 2.04963 0
M  V30 8667 C 811.649 -1.04582 1.56346 0
M  V30 8668 O 811.007 -1.66616 0.714755 0
M  V30 8669 C 811.055 0.347235 3.58924 0
M  V30 8670 O 810.159 -0.659296 4.07096 0
M  V30 8671 H 809.5 0.140652 0.648932 0
M  V30 8672 H 812.03 1.02272 1.77205 0
M  V30 8673 H 812.04 0.19757 4.07521 0
M  V30 8674 H 810.715 1.34157 3.93668 0
M  V30 8675 H 809.292 -0.474371 3.6987 0
M  V30 8676 N 811.477 -1.49425 0.500989 0
M  V30 8677 C 812.702 -2.07356 -0.0425154 0
M  V30 8678 C 813.127 -1.35887 -1.30063 0
M  V30 8679 O 812.485 -0.41561 -1.76472 0
M  V30 8680 C 812.533 -3.59518 -0.279188 0
M  V30 8681 O 811.637 -3.89542 -1.3539 0
M  V30 8682 H 810.978 -0.663482 0.0262207 0
M  V30 8683 H 813.508 -1.92231 0.700607 0
M  V30 8684 H 813.518 -4.04791 -0.5107 0
M  V30 8685 H 812.193 -4.10946 0.640009 0
M  V30 8686 H 810.77 -3.56079 -1.10734 0
M  V30 8687 N 812.955 -0.234822 -1.55841 0
M  V30 8688 C 814.203 0.392483 -1.98252 0
M  V30 8689 C 814.524 1.59344 -1.12404 0
M  V30 8690 O 813.794 1.94834 -0.204055 0
M  V30 8691 H 812.374 0.147999 -0.732192 0
M  V30 8692 H 815.036 -0.330804 -1.92072 0
M  V30 8693 H 814.132 0.709829 -3.03921 0
M  V30 8694 N 814.433 1.57553 0.0384317 0
M  V30 8695 C 815.396 2.04927 1.02653 0
M  V30 8696 C 816.396 0.951768 1.29607 0
M  V30 8697 O 817.586 1.21568 1.24768 0
M  V30 8698 C 814.718 2.45828 2.36181 0
M  V30 8699 H 815.911 2.93474 0.617508 0
M  V30 8700 H 813.464 1.53679 0.285031 0
M  V30 8701 H 814.199 1.60408 2.8185 0
M  V30 8702 H 813.984 3.25945 2.1795 0
M  V30 8703 H 815.474 2.82939 3.0714 0
M  V30 8704 N 815.911 -0.310526 1.54511 0
M  V30 8705 C 817.157 -1.04846 1.73595 0
M  V30 8706 C 817.49 -1.87244 0.515118 0
M  V30 8707 O 816.765 -1.88282 -0.48786 0
M  V30 8708 C 817.048 -1.96237 3.01932 0
M  V30 8709 C 816.901 -1.17082 4.34295 0
M  V30 8710 C 818.22 -2.9556 3.26086 0
M  V30 8711 H 815.339 -0.37976 0.631626 0
M  V30 8712 H 817.981 -0.32394 1.87218 0
M  V30 8713 H 816.131 -2.58015 2.90449 0
M  V30 8714 H 817.803 -0.576643 4.57682 0
M  V30 8715 H 816.046 -0.473336 4.3121 0
M  V30 8716 H 816.717 -1.84257 5.20339 0
M  V30 8717 H 819.193 -2.43908 3.37117 0
M  V30 8718 H 818.069 -3.5668 4.17218 0
M  V30 8719 H 818.33 -3.68715 2.4393 0
M  V30 8720 N 817.389 -1.46805 -0.573248 0
M  V30 8721 C 818.319 -1.60951 -1.69165 0
M  V30 8722 C 819.3 -0.45948 -1.63777 0
M  V30 8723 O 820.485 -0.68688 -1.81647 0
M  V30 8724 C 817.615 -1.60844 -3.07809 0
M  V30 8725 C 816.569 -2.74913 -3.28035 0
M  V30 8726 C 815.895 -2.59871 -4.67302 0
M  V30 8727 C 817.195 -4.16654 -3.14955 0
M  V30 8728 H 818.889 -2.54574 -1.57582 0
M  V30 8729 H 816.435 -1.22516 -0.756686 0
M  V30 8730 H 818.388 -1.69334 -3.85881 0
M  V30 8731 H 817.112 -0.637714 -3.20314 0
M  V30 8732 H 815.771 -2.65908 -2.52366 0
M  V30 8733 H 815.419 -1.60861 -4.76585 0
M  V30 8734 H 815.119 -3.36386 -4.81786 0
M  V30 8735 H 816.643 -2.70265 -5.4753 0
M  V30 8736 H 818.057 -4.26721 -3.82861 0
M  V30 8737 H 816.454 -4.93831 -3.40956 0
M  V30 8738 H 817.524 -4.36146 -2.11908 0
M  V30 8739 N 818.867 0.818669 -1.34668 0
M  V30 8740 C 820.097 1.60441 -1.30162 0
M  V30 8741 C 820.505 1.88783 0.125579 0
M  V30 8742 O 819.848 1.48281 1.08437 0
M  V30 8743 C 819.91 2.96794 -2.02864 0
M  V30 8744 C 819.574 2.91327 -3.52105 0
M  V30 8745 C 820.571 2.65611 -4.4693 0
M  V30 8746 C 818.256 3.10825 -3.9458 0
M  V30 8747 C 820.25 2.59452 -5.82206 0
M  V30 8748 C 817.937 3.0429 -5.29954 0
M  V30 8749 C 818.935 2.78637 -6.23579 0
M  V30 8750 O 818.623 2.72042 -7.56471 0
M  V30 8751 H 818.355 0.505278 -0.449077 0
M  V30 8752 H 820.909 1.02632 -1.77921 0
M  V30 8753 H 819.139 3.56538 -1.49725 0
M  V30 8754 H 820.828 3.57837 -1.91592 0
M  V30 8755 H 821.594 2.50278 -4.15434 0
M  V30 8756 H 817.473 3.29807 -3.221 0
M  V30 8757 H 821.017 2.39349 -6.55254 0
M  V30 8758 H 816.914 3.19177 -5.61067 0
M  V30 8759 H 817.682 2.87738 -7.66257 0
M  V30 8760 N 820.346 1.18468 1.03938 0
M  V30 8761 C 821.293 0.912859 2.1198 0
M  V30 8762 C 822.263 -0.14824 1.65437 0
M  V30 8763 O 823.448 -0.008331 1.90798 0
M  V30 8764 C 820.588 0.446114 3.42204 0
M  V30 8765 C 819.701 1.57278 4.02353 0
M  V30 8766 C 818.836 1.05863 5.20544 0
M  V30 8767 C 817.875 2.1599 5.72726 0
M  V30 8768 N 817.012 1.65959 6.82204 0
M  V30 8769 H 821.852 1.83798 2.34569 0
M  V30 8770 H 819.389 0.916504 1.15059 0
M  V30 8771 H 821.347 0.15697 4.16905 0
M  V30 8772 H 819.977 -0.442025 3.19759 0
M  V30 8773 H 819.029 1.97737 3.24968 0
M  V30 8774 H 820.341 2.40289 4.37107 0
M  V30 8775 H 819.495 0.724087 6.02364 0
M  V30 8776 H 818.234 0.198116 4.87297 0
M  V30 8777 H 817.239 2.50287 4.89527 0
M  V30 8778 H 818.464 3.02479 6.08016 0
M  V30 8779 H 816.41 0.82199 6.5083 0
M  V30 8780 H 816.327 2.42567 7.16029 0
M  V30 8781 H 817.595 1.35436 7.67644 0
M  V30 8782 N 821.824 -1.22873 0.986916 0
M  V30 8783 C 822.787 -2.2281 0.537442 0
M  V30 8784 C 823.787 -1.56331 -0.37646 0
M  V30 8785 O 824.977 -1.73376 -0.169247 0
M  V30 8786 C 822.109 -3.40195 -0.219082 0
M  V30 8787 H 823.302 -2.64089 1.42116 0
M  V30 8788 H 820.855 -1.35819 0.773488 0
M  V30 8789 H 821.59 -3.04381 -1.11905 0
M  V30 8790 H 821.375 -3.89657 0.437026 0
M  V30 8791 H 822.865 -4.14326 -0.521926 0
M  V30 8792 N 823.302 -0.75937 -1.38099 0
M  V30 8793 C 824.542 -0.323116 -2.0183 0
M  V30 8794 C 824.906 1.07658 -1.58977 0
M  V30 8795 O 826.107 1.61227 -2.1508 0
M  V30 8796 C 824.378 -0.448234 -3.54578 0
M  V30 8797 S 825.937 -0.0954152 -4.38696 0
M  V30 8798 H 822.755 -0.125013 -0.699923 0
M  V30 8799 H 825.357 -0.991262 -1.68506 0
M  V30 8800 H 824.061 -1.46778 -3.83255 0
M  V30 8801 H 823.592 0.236895 -3.92686 0
M  V30 8802 H 825.607 1.11312 -4.83554 0
M  V30 8803 N 824.78 1.49157 -0.508906 0
M  V30 8804 C 826.005 2.07376 0.0315182 0
M  V30 8805 C 826.43 1.36575 1.2934 0
M  V30 8806 O 825.788 0.424963 1.76249 0
M  V30 8807 C 825.836 3.59661 0.260118 0
M  V30 8808 O 824.94 3.90255 1.33322 0
M  V30 8809 H 824.281 0.663334 -0.029739 0
M  V30 8810 H 826.811 1.91857 -0.710791 0
M  V30 8811 H 826.821 4.05056 0.489225 0
M  V30 8812 H 825.496 4.10601 -0.661794 0
M  V30 8813 H 824.073 3.56661 1.08844 0
M  V30 8814 N 826.258 0.243083 1.55714 0
M  V30 8815 C 827.504 -0.383287 1.99145 0
M  V30 8816 C 827.837 -1.57868 1.13098 0
M  V30 8817 O 827.112 -1.93535 0.193509 0
M  V30 8818 C 827.395 -0.796879 3.51172 0
M  V30 8819 C 827.248 0.403642 4.47985 0
M  V30 8820 C 828.567 -1.64525 4.08191 0
M  V30 8821 H 825.686 -0.137843 0.723995 0
M  V30 8822 H 828.328 0.343631 1.86867 0
M  V30 8823 H 826.478 -1.41625 3.61766 0
M  V30 8824 H 828.15 1.04204 4.49376 0
M  V30 8825 H 826.393 1.04741 4.20965 0
M  V30 8826 H 827.064 0.0709794 5.51954 0
M  V30 8827 H 829.54 -1.12246 4.00674 0
M  V30 8828 H 828.416 -1.9035 5.14838 0
M  V30 8829 H 828.677 -2.61582 3.56409 0
M  V30 8830 N 827.736 -1.57571 -0.0300757 0
M  V30 8831 C 828.985 -1.88407 -0.720126 0
M  V30 8832 C 829.298 -0.841466 -1.76575 0
M  V30 8833 O 830.504 -1.03902 -2.50832 0
M  V30 8834 C 828.96 -3.34348 -1.33188 0
M  V30 8835 C 828.568 -4.46837 -0.32266 0
M  V30 8836 C 830.312 -3.74333 -2.00187 0
M  V30 8837 C 828.219 -5.83838 -0.942703 0
M  V30 8838 H 827.149 -0.702952 -0.272718 0
M  V30 8839 H 829.8 -1.83482 0.0255337 0
M  V30 8840 H 828.182 -3.34014 -2.12721 0
M  V30 8841 H 829.356 -4.58638 0.445887 0
M  V30 8842 H 827.671 -4.15678 0.245181 0
M  V30 8843 H 830.268 -4.74008 -2.47428 0
M  V30 8844 H 830.611 -3.06275 -2.81959 0
M  V30 8845 H 831.144 -3.76837 -1.2743 0
M  V30 8846 H 827.883 -6.55294 -0.164413 0
M  V30 8847 H 827.403 -5.75759 -1.68111 0
M  V30 8848 H 829.082 -6.30535 -1.45034 0
M  V30 8849 N 829.214 0.302327 -1.54673 0
M  V30 8850 C 830.461 1.0377 -1.73891 0
M  V30 8851 C 830.789 1.87309 -0.523979 0
M  V30 8852 O 830.044 1.8936 0.494084 0
M  V30 8853 C 830.343 1.97365 -2.97963 0
M  V30 8854 C 830.009 1.29812 -4.3181 0
M  V30 8855 C 828.671 1.11121 -4.68194 0
M  V30 8856 C 831.023 0.815073 -5.14787 0
M  V30 8857 C 828.351 0.428077 -5.85136 0
M  V30 8858 C 830.703 0.145665 -6.32432 0
M  V30 8859 C 829.367 -0.0532098 -6.67479 0
M  V30 8860 H 828.637 0.379721 -0.636312 0
M  V30 8861 H 831.284 0.312708 -1.8893 0
M  V30 8862 H 829.589 2.76387 -2.777 0
M  V30 8863 H 831.286 2.54331 -3.10027 0
M  V30 8864 H 827.876 1.45366 -4.03196 0
M  V30 8865 H 832.06 0.947191 -4.87178 0
M  V30 8866 H 827.316 0.262995 -6.10834 0
M  V30 8867 H 831.49 -0.236533 -6.95998 0
M  V30 8868 H 829.117 -0.58456 -7.57949 0
M  V30 8869 N 830.692 1.47107 0.565454 0
M  V30 8870 C 832.103 1.47266 1.1476 0
M  V30 8871 C 832.454 0.222841 1.9493 0
M  V30 8872 O 831.579 -0.672862 2.05673 0
M  V30 8873 C 832.174 2.66822 2.08785 0
M  V30 8874 C 830.733 2.69967 2.62288 0
M  V30 8875 C 829.88 2.40236 1.38499 0
M  V30 8876 H 832.831 1.54736 0.352479 0
M  V30 8877 H 832.852 2.43323 2.92531 0
M  V30 8878 H 832.364 3.5777 1.50408 0
M  V30 8879 H 830.465 1.83137 3.24487 0
M  V30 8880 H 830.578 3.70426 3.03845 0
M  V30 8881 H 828.942 1.90648 1.68895 0
M  V30 8882 H 829.725 3.33381 0.819274 0
M  V30 8883 N 832.17 -0.811516 1.35101 0
M  V30 8884 C 833.1 -1.9378 1.30275 0
M  V30 8885 C 834.081 -1.69165 0.178075 0
M  V30 8886 O 835.266 -1.90599 0.372256 0
M  V30 8887 C 832.396 -3.30439 1.06899 0
M  V30 8888 C 831.35 -3.69523 2.15955 0
M  V30 8889 C 830.676 -5.0429 1.77751 0
M  V30 8890 C 831.976 -3.80419 3.57881 0
M  V30 8891 H 833.67 -1.98075 2.24514 0
M  V30 8892 H 831.216 -0.951586 1.08078 0
M  V30 8893 H 833.169 -4.08828 1.02164 0
M  V30 8894 H 831.893 -3.26473 0.0910462 0
M  V30 8895 H 830.552 -2.93416 2.19778 0
M  V30 8896 H 830.2 -4.96823 0.785876 0
M  V30 8897 H 829.9 -5.31411 2.5075 0
M  V30 8898 H 831.424 -5.85125 1.74533 0
M  V30 8899 H 832.838 -4.49051 3.56407 0
M  V30 8900 H 831.235 -4.19005 4.29598 0
M  V30 8901 H 832.305 -2.82105 3.94391 0
M  V30 8902 N 833.648 -1.19017 -1.03309 0
M  V30 8903 C 834.897 -0.984542 -1.76039 0
M  V30 8904 C 835.21 0.485937 -1.89468 0
M  V30 8905 O 836.416 0.810278 -2.59127 0
M  V30 8906 C 834.872 -1.71261 -3.1654 0
M  V30 8907 C 834.48 -3.22291 -3.11179 0
M  V30 8908 C 836.224 -1.59007 -3.93595 0
M  V30 8909 C 834.131 -3.87704 -4.46587 0
M  V30 8910 H 833.061 -0.364749 -0.659905 0
M  V30 8911 H 835.712 -1.4247 -1.15649 0
M  V30 8912 H 834.094 -1.20025 -3.77373 0
M  V30 8913 H 835.268 -3.80611 -2.59753 0
M  V30 8914 H 833.583 -3.34772 -2.47622 0
M  V30 8915 H 836.18 -2.05232 -4.93745 0
M  V30 8916 H 836.523 -0.543534 -4.12736 0
M  V30 8917 H 837.056 -2.07564 -3.39355 0
M  V30 8918 H 833.795 -4.92437 -4.3265 0
M  V30 8919 H 833.315 -3.34172 -4.98085 0
M  V30 8920 H 834.994 -3.91008 -5.15482 0
M  V30 8921 N 835.127 1.22348 -0.993418 0
M  V30 8922 C 836.357 1.94842 -0.687023 0
M  V30 8923 C 836.765 1.73594 0.752445 0
M  V30 8924 O 836.108 1.03238 1.51946 0
M  V30 8925 C 836.17 3.47694 -0.913754 0
M  V30 8926 C 835.834 3.92678 -2.33781 0
M  V30 8927 C 836.831 4.0031 -3.31734 0
M  V30 8928 C 834.516 4.25311 -2.67237 0
M  V30 8929 C 836.51 4.39951 -4.61218 0
M  V30 8930 C 834.197 4.64631 -3.9694 0
M  V30 8931 C 835.195 4.71919 -4.93742 0
M  V30 8932 O 834.883 5.10349 -6.21127 0
M  V30 8933 H 834.615 0.626771 -0.253247 0
M  V30 8934 H 837.169 1.56436 -1.33105 0
M  V30 8935 H 835.399 3.86115 -0.212552 0
M  V30 8936 H 837.088 4.01403 -0.602528 0
M  V30 8937 H 837.854 3.75288 -3.07219 0
M  V30 8938 H 833.733 4.18842 -1.92594 0
M  V30 8939 H 837.277 4.45555 -5.36774 0
M  V30 8940 H 833.174 4.89104 -4.21245 0
M  V30 8941 H 833.942 5.2842 -6.25072 0
M  V30 8942 N 836.605 0.766683 1.37694 0
M  V30 8943 C 837.83 0.338715 2.04615 0
M  V30 8944 C 838.255 -1.02918 1.57447 0
M  V30 8945 O 837.613 -1.65849 0.732386 0
M  V30 8946 C 837.661 0.385284 3.58536 0
M  V30 8947 O 836.765 -0.616081 4.07772 0
M  V30 8948 H 836.106 0.147527 0.647404 0
M  V30 8949 H 838.636 1.04146 1.7611 0
M  V30 8950 H 838.646 0.240782 4.07289 0
M  V30 8951 H 837.321 1.38325 3.92223 0
M  V30 8952 H 835.898 -0.435115 3.70353 0
M  V30 8953 N 838.083 -1.48885 0.516809 0
M  V30 8954 C 838.993 -2.33185 -0.257293 0
M  V30 8955 C 840.009 -1.4565 -0.951952 0
M  V30 8956 O 841.185 -1.78651 -0.929834 0
M  V30 8957 C 838.25 -3.21465 -1.29851 0
M  V30 8958 C 837.311 -4.24863 -0.615608 0
M  V30 8959 C 836.544 -5.08925 -1.60722 0
M  V30 8960 O 836.767 -4.9475 -2.83863 0
M  V30 8961 O 835.701 -5.90737 -1.15384 0
M  V30 8962 H 839.527 -3.00596 0.433131 0
M  V30 8963 H 837.112 -1.46792 0.277908 0
M  V30 8964 H 838.994 -3.76108 -1.90055 0
M  V30 8965 H 837.669 -2.5673 -1.97158 0
M  V30 8966 H 836.576 -3.74091 0.0265829 0
M  V30 8967 H 837.909 -4.92198 0.0152871 0
M  V30 8968 N 839.561 -0.251338 -1.55583 0
M  V30 8969 C 840.494 0.687092 -2.1761 0
M  V30 8970 C 841.472 1.16963 -1.12953 0
M  V30 8971 O 842.656 1.24696 -1.41362 0
M  V30 8972 C 839.783 1.93429 -2.78034 0
M  V30 8973 C 838.829 1.58925 -3.95784 0
M  V30 8974 S 839.662 0.688019 -5.31062 0
M  V30 8975 C 840.818 1.94413 -5.94941 0
M  V30 8976 H 841.051 0.159982 -2.96869 0
M  V30 8977 H 838.584 -0.0357593 -1.54359 0
M  V30 8978 H 840.542 2.65028 -3.13481 0
M  V30 8979 H 839.203 2.43253 -1.98713 0
M  V30 8980 H 838.396 2.51668 -4.36668 0
M  V30 8981 H 837.998 0.953664 -3.61637 0
M  V30 8982 H 840.29 2.89087 -6.12727 0
M  V30 8983 H 841.233 1.5787 -6.90277 0
M  V30 8984 H 841.641 2.09824 -5.24056 0
M  V30 8985 N 841.039 1.57585 0.0217189 0
M  V30 8986 C 841.986 2.07036 1.02004 0
M  V30 8987 C 842.956 0.96106 1.35473 0
M  V30 8988 O 844.141 1.23211 1.45684 0
M  V30 8989 C 841.281 2.56056 2.31364 0
M  V30 8990 C 840.394 3.80805 2.03989 0
M  V30 8991 C 839.529 4.18409 3.27272 0
M  V30 8992 C 838.568 5.36055 2.95486 0
M  V30 8993 N 837.705 5.69056 4.11242 0
M  V30 8994 H 842.545 2.92073 0.591396 0
M  V30 8995 H 840.082 1.44403 0.280384 0
M  V30 8996 H 842.04 2.82548 3.06957 0
M  V30 8997 H 840.67 1.73925 2.71937 0
M  V30 8998 H 839.722 3.61354 1.1886 0
M  V30 8999 H 841.034 4.66512 1.76546 0
M  V30 9000 H 840.188 4.46068 4.11228 0
M  V30 9001 H 838.927 3.31369 3.57835 0
M  V30 9002 H 837.932 5.08142 2.09933 0
M  V30 9003 H 839.157 6.24755 2.66193 0
M  V30 9004 H 837.103 4.84974 4.41742 0
M  V30 9005 H 837.02 6.49288 3.87247 0
M  V30 9006 H 838.288 6.01295 4.96049 0
M  V30 9007 N 842.517 -0.29412 1.54831 0
M  V30 9008 C 843.747 -1.04572 1.7818 0
M  V30 9009 C 844.155 -1.81187 0.544776 0
M  V30 9010 O 843.498 -1.769 -0.495169 0
M  V30 9011 C 843.56 -2.06748 2.94101 0
M  V30 9012 C 843.224 -1.49265 4.31936 0
M  V30 9013 C 844.221 -0.919136 5.11711 0
M  V30 9014 C 841.906 -1.52621 4.78552 0
M  V30 9015 C 843.9 -0.386824 6.36225 0
M  V30 9016 C 841.587 -0.990031 6.03027 0
M  V30 9017 C 842.585 -0.421315 6.81699 0
M  V30 9018 O 842.273 0.106713 8.03829 0
M  V30 9019 H 842.005 -0.31559 0.597812 0
M  V30 9020 H 844.559 -0.336817 2.0262 0
M  V30 9021 H 842.789 -2.81339 2.65303 0
M  V30 9022 H 844.478 -2.67865 3.04964 0
M  V30 9023 H 845.244 -0.886062 4.76837 0
M  V30 9024 H 841.123 -1.95826 4.17341 0
M  V30 9025 H 844.667 0.0577248 6.97576 0
M  V30 9026 H 840.564 -1.02027 6.37386 0
M  V30 9027 H 841.332 -0.00593526 8.185 0
M  V30 9028 N 843.995 -1.47404 -0.557645 0
M  V30 9029 C 844.928 -1.54399 -1.68036 0
M  V30 9030 C 845.906 -0.396175 -1.577 0
M  V30 9031 O 847.09 -0.603911 -1.78564 0
M  V30 9032 C 844.217 -1.44611 -3.06277 0
M  V30 9033 C 843.263 -2.63889 -3.35059 0
M  V30 9034 S 844.096 -4.26086 -3.24362 0
M  V30 9035 C 845.252 -4.1885 -4.65097 0
M  V30 9036 H 845.485 -2.49384 -1.61849 0
M  V30 9037 H 843.018 -1.35597 -0.738429 0
M  V30 9038 H 844.976 -1.39651 -3.86015 0
M  V30 9039 H 843.637 -0.510114 -3.0993 0
M  V30 9040 H 842.83 -2.53103 -4.35838 0
M  V30 9041 H 842.432 -2.65969 -2.62938 0
M  V30 9042 H 844.724 -3.87077 -5.56037 0
M  V30 9043 H 845.667 -5.19714 -4.8094 0
M  V30 9044 H 846.075 -3.49717 -4.43123 0
M  V30 9045 N 845.473 0.80434 -1.35529 0
M  V30 9046 C 846.719 1.56385 -1.29118 0
M  V30 9047 C 847.052 1.9374 0.133536 0
M  V30 9048 O 846.327 1.6153 1.08344 0
M  V30 9049 C 846.61 2.85097 -2.19981 0
M  V30 9050 C 846.463 2.54204 -3.7108 0
M  V30 9051 C 847.782 3.86817 -2.09907 0
M  V30 9052 H 844.901 0.567382 -0.470368 0
M  V30 9053 H 847.543 0.925235 -1.6595 0
M  V30 9054 H 845.693 3.39594 -1.88701 0
M  V30 9055 H 847.365 2.05872 -4.12813 0
M  V30 9056 H 845.608 1.87364 -3.91251 0
M  V30 9057 H 846.279 3.46068 -4.30048 0
M  V30 9058 H 848.755 3.41725 -2.37409 0
M  V30 9059 H 847.631 4.7465 -2.75678 0
M  V30 9060 H 847.892 4.28663 -1.08171 0
M  V30 9061 N 846.951 1.19563 1.02676 0
M  V30 9062 C 847.901 0.903055 2.09354 0
M  V30 9063 C 848.885 -0.133009 1.60349 0
M  V30 9064 O 850.077 0.0729744 1.7685 0
M  V30 9065 C 847.206 0.445852 3.40392 0
M  V30 9066 C 846.292 1.51477 3.96126 0
M  V30 9067 N 846.683 2.73474 4.25495 0
M  V30 9068 C 844.981 1.37856 4.2416 0
M  V30 9069 C 845.682 3.42348 4.7029 0
M  V30 9070 N 844.658 2.69746 4.71952 0
M  V30 9071 H 848.46 1.83023 2.29956 0
M  V30 9072 H 845.974 1.08812 1.20556 0
M  V30 9073 H 847.971 0.21769 4.16331 0
M  V30 9074 H 846.631 -0.47482 3.2121 0
M  V30 9075 H 847.642 3.10217 4.14711 0
M  V30 9076 H 844.319 0.521512 4.1423 0
M  V30 9077 H 845.709 4.46686 5.01917 0
M  V30 9078 O 848.468 -1.15601 1.12777 0
M  V30 9079 H 849.159 -1.74498 0.840847 0
M  V30 END ATOM
M  V30 BEGIN BOND
M  V30 END BOND
M  V30 END CTAB
M  END
$$$$
