drugbank_target|Q14643 Inositol 1,4,5-trisphosphate receptor type 1 (DB03401; DB09462)
 OpenBabel12092120543D

  0  0  0     0  0            999 V3000
M  V30 BEGIN CTAB
M  V30 COUNTS 44038 44444 0 0 0
M  V30 BEGIN ATOM
M  V30 1 H -0.908 1.98254 -0.117106 0
M  V30 2 N 0 1.576 0 0
M  V30 3 C 0.933 2.03868 1.02534 0
M  V30 4 C 1.911 0.928543 1.3348 0
M  V30 5 O 3.095 1.19667 1.45644 0
M  V30 6 C 0.222 2.43627 2.35294 0
M  V30 7 C -0.732 3.65373 2.2001 0
M  V30 8 S 0.101 5.13292 1.52614 0
M  V30 9 C 1.257 5.56322 2.86805 0
M  V30 10 H 1.49 2.90518 0.631377 0
M  V30 11 H -0.977 1.52953 0.210867 0
M  V30 12 H 0.981 2.67203 3.11629 0
M  V30 13 H -0.358 1.57376 2.7183 0
M  V30 14 H -1.165 3.90944 3.18086 0
M  V30 15 H -1.563 3.418 1.51819 0
M  V30 16 H 0.729 5.58782 3.83104 0
M  V30 17 H 1.672 6.56266 2.65933 0
M  V30 18 H 2.08 4.83886 2.90714 0
M  V30 19 N 1.4781 -0.272755 1.55222 0
M  V30 20 C 2.7031 -1.02683 1.80197 0
M  V30 21 C 3.1281 -1.79142 0.573551 0
M  V30 22 O 2.4861 -1.74917 -0.476849 0
M  V30 23 C 2.5341 -1.9609 3.02624 0
M  V30 24 O 1.6381 -3.04863 2.77727 0
M  V30 25 H 0.9791 -0.293557 0.595584 0
M  V30 26 H 3.5091 -0.30159 2.02365 0
M  V30 27 H 3.5191 -2.38039 3.31363 0
M  V30 28 H 2.1941 -1.39851 3.91682 0
M  V30 29 H 0.7711 -2.67228 2.60084 0
M  V30 30 N 2.9562 -1.48159 -0.537278 0
M  V30 31 C 4.2332 -1.46291 -1.29839 0
M  V30 32 C 4.6132 -0.170613 -2.10409 0
M  V30 33 O 3.9612 0.847746 -2.12192 0
M  V30 34 C 4.1712 -2.72055 -2.18603 0
M  V30 35 C 5.5192 -3.20087 -2.7898 0
M  V30 36 O 6.5432 -2.72921 -2.28894 0
M  V30 37 O 5.4022 -4.02138 -3.70064 0
M  V30 38 H 2.4962 -0.583906 -0.585647 0
M  V30 39 H 5.0422 -1.60384 -0.554534 0
M  V30 40 H 3.8142 -3.57628 -1.58801 0
M  V30 41 H 3.4372 -2.60646 -3.00249 0
M  V30 42 N 4.4343 0.785586 -1.36625 0
M  V30 43 C 5.3813 1.89838 -1.31264 0
M  V30 44 C 6.3513 1.65115 -0.180633 0
M  V30 45 O 7.5363 1.87222 -0.36777 0
M  V30 46 C 4.6763 3.26706 -1.11163 0
M  V30 47 C 3.7893 3.63476 -2.33472 0
M  V30 48 C 2.9243 4.89481 -2.06353 0
M  V30 49 C 1.9633 5.18941 -3.24602 0
M  V30 50 N 1.1003 6.36131 -2.97123 0
M  V30 51 H 5.9403 1.93756 -2.26413 0
M  V30 52 H 3.4773 0.947454 -1.12524 0
M  V30 53 H 5.4353 4.05639 -0.975337 0
M  V30 54 H 4.0653 3.222 -0.196674 0
M  V30 55 H 3.1173 2.79636 -2.57891 0
M  V30 56 H 4.4293 3.81193 -3.21704 0
M  V30 57 H 3.5833 5.76288 -1.89675 0
M  V30 58 H 2.3223 4.73841 -1.15437 0
M  V30 59 H 1.3273 4.30615 -3.41834 0
M  V30 60 H 2.5523 5.36498 -4.16349 0
M  V30 61 H 0.4983 6.21875 -2.08823 0
M  V30 62 H 0.4153 6.54198 -3.78894 0
M  V30 63 H 1.6833 7.2591 -2.84033 0
M  V30 64 N 5.9124 1.20967 1.01018 0
M  V30 65 C 6.8454 0.907578 2.09376 0
M  V30 66 C 7.8234 -0.142868 1.61971 0
M  V30 67 O 9.0074 -0.0150391 1.88494 0
M  V30 68 C 6.1344 0.361791 3.36762 0
M  V30 69 C 5.1804 1.39423 4.03068 0
M  V30 70 S 6.0134 2.96159 4.4615 0
M  V30 71 C 7.1694 2.43173 5.7673 0
M  V30 72 H 7.4024 1.82519 2.34678 0
M  V30 73 H 4.9354 1.03884 1.14225 0
M  V30 74 H 6.8934 0.0534523 4.10465 0
M  V30 75 H 5.5544 -0.53443 3.0952 0
M  V30 76 H 4.7474 0.961853 4.94737 0
M  V30 77 H 4.3494 1.65038 3.35617 0
M  V30 78 H 6.6414 1.83335 6.52223 0
M  V30 79 H 7.5844 3.33264 6.24773 0
M  V30 80 H 7.9924 1.85069 5.33301 0
M  V30 81 N 7.3905 -1.2043 1.01659 0
M  V30 82 C 8.6155 -1.94318 0.724942 0
M  V30 83 C 9.0405 -1.74266 -0.708034 0
M  V30 84 O 8.3985 -1.03694 -1.48719 0
M  V30 85 C 8.4465 -3.44486 1.06591 0
M  V30 86 O 7.5505 -4.12017 0.177599 0
M  V30 87 H 6.8915 -0.60708 0.26898 0
M  V30 88 H 9.4215 -1.52861 1.35995 0
M  V30 89 H 9.4315 -3.95106 1.01762 0
M  V30 90 H 8.1065 -3.58404 2.10997 0
M  V30 91 H 6.6835 -3.71821 0.283421 0
M  V30 92 N 8.8686 -0.792821 -1.36206 0
M  V30 93 C 10.0936 -0.377701 -2.03932 0
M  V30 94 C 10.5186 0.998947 -1.59382 0
M  V30 95 O 9.8766 1.64421 -0.763903 0
M  V30 96 C 9.9246 -0.453635 -3.57735 0
M  V30 97 O 9.0286 0.538151 -4.08874 0
M  V30 98 H 8.3696 -0.159855 -0.644471 0
M  V30 99 H 10.8996 -1.07488 -1.7409 0
M  V30 100 H 10.9096 -0.318464 -4.06755 0
M  V30 101 H 9.5846 -1.45784 -3.89512 0
M  V30 102 H 8.1616 0.364359 -3.71116 0
M  V30 103 N 10.3467 1.47872 -0.545128 0
M  V30 104 C 11.5937 2.02493 -0.0165858 0
M  V30 105 C 11.9217 1.42073 1.32836 0
M  V30 106 O 11.1767 0.561459 1.87473 0
M  V30 107 C 11.4757 3.57131 0.13867 0
M  V30 108 C 11.1417 4.36411 -1.13384 0
M  V30 109 C 9.8037 4.57792 -1.48256 0
M  V30 110 C 12.1557 4.82223 -1.97764 0
M  V30 111 C 9.4837 5.22233 -2.67376 0
M  V30 112 C 11.8357 5.47977 -3.16076 0
M  V30 113 C 10.4997 5.67593 -3.51275 0
M  V30 114 H 9.7697 0.740975 -0.00606918 0
M  V30 115 H 12.4167 1.77683 -0.714207 0
M  V30 116 H 10.7217 3.80865 0.919172 0
M  V30 117 H 12.4187 3.97031 0.562782 0
M  V30 118 H 9.0087 4.2004 -0.852297 0
M  V30 119 H 13.1927 4.65493 -1.72132 0
M  V30 120 H 8.4487 5.35616 -2.94831 0
M  V30 121 H 12.6227 5.8244 -3.81755 0
M  V30 122 H 10.2497 6.17298 -4.43675 0
M  V30 123 N 11.8248 0.280983 1.55075 0
M  V30 124 C 12.7548 -0.597469 2.25727 0
M  V30 125 C 13.7358 -1.15417 1.24952 0
M  V30 126 O 14.9208 -1.18722 1.53684 0
M  V30 127 C 12.0508 -1.7789 2.98283 0
M  V30 128 C 11.0048 -1.35347 4.06036 0
M  V30 129 C 10.3308 -2.61846 4.66198 0
M  V30 130 C 11.6308 -0.499354 5.19907 0
M  V30 131 H 13.3248 -0.00824265 2.99399 0
M  V30 132 H 10.8708 -0.0025244 1.44 0
M  V30 133 H 12.8238 -2.39937 3.46422 0
M  V30 134 H 11.5478 -2.39405 2.22155 0
M  V30 135 H 10.2068 -0.756156 3.58717 0
M  V30 136 H 9.8548 -3.21632 3.86732 0
M  V30 137 H 9.5548 -2.3409 5.38958 0
M  V30 138 H 11.0788 -3.24732 5.1709 0
M  V30 139 H 12.4928 -1.02498 5.64063 0
M  V30 140 H 10.8898 -0.316424 5.99265 0
M  V30 141 H 11.9598 0.480459 4.82514 0
M  V30 142 N 13.3029 -1.57598 0.00835791 0
M  V30 143 C 14.2529 -2.05431 -0.989045 0
M  V30 144 C 15.2369 -0.950662 -1.29812 0
M  V30 145 O 16.4289 -1.21438 -1.28771 0
M  V30 146 C 13.5579 -2.56801 -2.27833 0
M  V30 147 C 12.6439 -3.74058 -1.99853 0
M  V30 148 N 13.0349 -4.8544 -1.42062 0
M  V30 149 C 11.3329 -3.82148 -2.29953 0
M  V30 150 C 12.0339 -5.66817 -1.30743 0
M  V30 151 N 11.0099 -5.13077 -1.7959 0
M  V30 152 H 14.8119 -2.88955 -0.536853 0
M  V30 153 H 12.3259 -1.61199 -0.197148 0
M  V30 154 H 14.3229 -2.89349 -3.00137 0
M  V30 155 H 12.9829 -1.74699 -2.73698 0
M  V30 156 H 13.9939 -5.0612 -1.09833 0
M  V30 157 H 10.6709 -3.10916 -2.78635 0
M  V30 158 H 12.0609 -6.66343 -0.862328 0
M  V30 159 N 14.781 0.264519 -1.55364 0
M  V30 160 C 16.03 0.992812 -1.75574 0
M  V30 161 C 16.343 1.87142 -0.568979 0
M  V30 162 O 17.549 2.63513 -0.653682 0
M  V30 163 C 16.005 1.81519 -3.10771 0
M  V30 164 C 15.613 0.984839 -4.37041 0
M  V30 165 C 17.357 2.53727 -3.40327 0
M  V30 166 C 15.264 1.80209 -5.63275 0
M  V30 167 H 14.194 0.374412 -0.65447 0
M  V30 168 H 16.845 0.248138 -1.81815 0
M  V30 169 H 15.227 2.60115 -2.98591 0
M  V30 170 H 16.401 0.242455 -4.60162 0
M  V30 171 H 14.716 0.37691 -4.14691 0
M  V30 172 H 17.313 3.15292 -4.3185 0
M  V30 173 H 17.656 3.24447 -2.60845 0
M  V30 174 H 18.189 1.82156 -3.53644 0
M  V30 175 H 14.928 1.13896 -6.45529 0
M  V30 176 H 14.448 2.52022 -5.44284 0
M  V30 177 H 16.127 2.37364 -6.01887 0
M  V30 178 N 16.2591 1.48442 0.529413 0
M  V30 179 C 17.5071 1.56179 1.28267 0
M  V30 180 C 17.8281 0.237721 1.93546 0
M  V30 181 O 17.0981 -0.740779 1.81354 0
M  V30 182 H 15.6781 0.575367 0.476405 0
M  V30 183 H 18.3401 1.84909 0.61602 0
M  V30 184 H 17.4361 2.34312 2.06165 0
M  V30 185 N 17.7372 -0.778329 1.37039 0
M  V30 186 C 19.0142 -1.52551 1.22424 0
M  V30 187 C 19.3942 -2.10288 -0.184964 0
M  V30 188 O 18.7422 -1.94953 -1.19187 0
M  V30 189 C 18.9522 -2.61164 2.31504 0
M  V30 190 C 20.3002 -3.28746 2.68721 0
M  V30 191 O 21.3242 -2.71455 2.30631 0
M  V30 192 O 20.1832 -4.3231 3.3432 0
M  V30 193 H 17.2772 -0.675343 0.477326 0
M  V30 194 H 19.8232 -0.815859 1.48801 0
M  V30 195 H 18.5952 -2.16574 3.25901 0
M  V30 196 H 18.2182 -3.39737 2.06554 0
M  V30 197 N 19.2153 -1.21501 -1.00376 0
M  V30 198 C 20.4643 -1.02718 -1.73586 0
M  V30 199 C 20.7773 0.439589 -1.90596 0
M  V30 200 O 21.9833 0.746848 -2.61026 0
M  V30 201 C 20.4393 -1.78929 -3.1227 0
M  V30 202 C 20.0473 -3.29783 -3.03228 0
M  V30 203 C 21.7913 -1.68557 -3.89601 0
M  V30 204 C 19.6983 -3.98479 -4.36999 0
M  V30 205 H 18.6283 -0.380733 -0.650814 0
M  V30 206 H 21.2793 -1.45248 -1.1214 0
M  V30 207 H 19.6613 -1.29192 -3.74333 0
M  V30 208 H 20.8353 -3.86832 -2.50395 0
M  V30 209 H 19.1503 -3.40711 -2.39385 0
M  V30 210 H 21.7473 -2.17211 -4.88593 0
M  V30 211 H 22.0903 -0.644021 -4.11288 0
M  V30 212 H 22.6233 -2.15778 -3.34193 0
M  V30 213 H 19.3623 -5.02841 -4.20513 0
M  V30 214 H 18.8823 -3.46219 -4.89788 0
M  V30 215 H 20.5613 -4.03462 -5.05794 0
M  V30 216 N 20.6934 1.19889 -1.02296 0
M  V30 217 C 21.9334 1.91125 -0.724602 0
M  V30 218 C 22.2974 1.77464 0.732835 0
M  V30 219 O 23.4984 2.43241 1.144 0
M  V30 220 C 21.7694 3.38187 -1.15604 0
M  V30 221 S 23.3284 4.27702 -0.980621 0
M  V30 222 H 20.1464 0.66018 -0.263976 0
M  V30 223 H 22.7484 1.44978 -1.31155 0
M  V30 224 H 21.4524 3.45653 -2.21251 0
M  V30 225 H 20.9834 3.89363 -0.562131 0
M  V30 226 H 22.9984 4.96073 0.112225 0
M  V30 227 N 22.1715 0.800033 1.35784 0
M  V30 228 C 23.3965 0.388511 2.03729 0
M  V30 229 C 23.8215 -0.990481 1.5991 0
M  V30 230 O 23.1795 -1.64013 0.772612 0
M  V30 231 C 23.2275 0.4726 3.5749 0
M  V30 232 O 22.3315 -0.51646 4.09153 0
M  V30 233 H 21.6725 0.163271 0.643614 0
M  V30 234 H 24.2025 1.0841 1.73518 0
M  V30 235 H 24.2125 0.34003 4.06581 0
M  V30 236 H 22.8875 1.47848 3.88734 0
M  V30 237 H 21.4645 -0.344673 3.71304 0
M  V30 238 N 23.6496 -1.47581 0.552962 0
M  V30 239 C 24.5796 -2.32762 -0.185451 0
M  V30 240 C 25.5606 -1.43527 -0.912905 0
M  V30 241 O 26.7456 -1.72388 -0.894201 0
M  V30 242 C 23.8756 -3.25219 -1.21859 0
M  V30 243 C 22.8296 -4.23661 -0.607864 0
M  V30 244 C 22.1556 -5.05413 -1.74533 0
M  V30 245 C 23.4556 -5.20481 0.435582 0
M  V30 246 H 25.1496 -2.94749 0.525684 0
M  V30 247 H 22.6956 -1.41738 0.254251 0
M  V30 248 H 24.6486 -3.8365 -1.7433 0
M  V30 249 H 23.3726 -2.61279 -1.95961 0
M  V30 250 H 22.0316 -3.66451 -0.104489 0
M  V30 251 H 21.6796 -4.3788 -2.47529 0
M  V30 252 H 21.3796 -5.72059 -1.34249 0
M  V30 253 H 22.9036 -5.66701 -2.27338 0
M  V30 254 H 24.3176 -5.733 -0.00290157 0
M  V30 255 H 22.7146 -5.95305 0.757067 0
M  V30 256 H 23.7846 -4.66217 1.33303 0
M  V30 257 N 25.1277 -0.289203 -1.54924 0
M  V30 258 C 26.3577 0.325989 -2.04012 0
M  V30 259 C 26.7657 1.48961 -1.1665 0
M  V30 260 O 26.1087 1.82794 -0.1822 0
M  V30 261 C 26.1707 0.856112 -3.49158 0
M  V30 262 C 25.8347 -0.180697 -4.56643 0
M  V30 263 C 26.8317 -1.0051 -5.10092 0
M  V30 264 C 24.5167 -0.318998 -5.01286 0
M  V30 265 C 26.5107 -1.95385 -6.06715 0
M  V30 266 C 24.1977 -1.27121 -5.97732 0
M  V30 267 C 25.1957 -2.08713 -6.50329 0
M  V30 268 O 24.8837 -3.02322 -7.44887 0
M  V30 269 H 24.6157 0.0765276 -0.671654 0
M  V30 270 H 27.1697 -0.423254 -2.00992 0
M  V30 271 H 25.3997 1.65567 -3.49463 0
M  V30 272 H 27.0887 1.38591 -3.81507 0
M  V30 273 H 27.8547 -0.90906 -4.76404 0
M  V30 274 H 23.7337 0.306108 -4.59983 0
M  V30 275 H 27.2777 -2.59111 -6.47694 0
M  V30 276 H 23.1747 -1.36801 -6.30837 0
M  V30 277 H 23.9427 -2.97165 -7.6265 0
M  V30 278 N 26.6058 1.57591 -0.0167156 0
M  V30 279 C 27.5688 2.08393 0.954204 0
M  V30 280 C 28.5688 0.996531 1.26198 0
M  V30 281 O 29.7588 1.25858 1.20438 0
M  V30 282 C 26.8908 2.5394 2.27436 0
M  V30 283 H 28.0838 2.95455 0.514451 0
M  V30 284 H 25.6368 1.54582 0.231089 0
M  V30 285 H 26.3718 1.70171 2.76066 0
M  V30 286 H 26.1568 3.33371 2.06412 0
M  V30 287 H 27.6468 2.93512 2.97053 0
M  V30 288 N 28.0839 -0.256276 1.55502 0
M  V30 289 C 28.9939 -1.33882 1.92647 0
M  V30 290 C 30.0099 -1.53159 0.825727 0
M  V30 291 O 31.1859 -1.66963 1.12629 0
M  V30 292 C 28.2509 -2.6751 2.20543 0
M  V30 293 C 27.3119 -2.56836 3.43997 0
M  V30 294 C 26.5449 -3.84092 3.70553 0
M  V30 295 O 26.7679 -4.85545 2.99336 0
M  V30 296 O 25.7019 -3.83288 4.64084 0
M  V30 297 H 29.5279 -1.05374 2.84833 0
M  V30 298 H 27.1129 -0.456237 1.42263 0
M  V30 299 H 28.9949 -3.46492 2.39835 0
M  V30 300 H 27.6699 -2.9577 1.31536 0
M  V30 301 H 26.5769 -1.76172 3.30021 0
M  V30 302 H 27.9099 -2.33523 4.33275 0
M  V30 303 N 29.562 -1.4872 -0.521534 0
M  V30 304 C 30.81 -1.56857 -1.27437 0
M  V30 305 C 31.131 -0.247982 -1.93417 0
M  V30 306 O 30.401 0.731151 -1.81744 0
M  V30 307 H 28.981 -0.577885 -0.473347 0
M  V30 308 H 31.643 -1.85233 -0.606205 0
M  V30 309 H 30.739 -2.35402 -2.0492 0
M  V30 310 N 31.0401 0.771051 -1.3745 0
M  V30 311 C 32.2651 1.56529 -1.36065 0
M  V30 312 C 32.6901 1.88029 0.0515859 0
M  V30 313 O 32.0481 1.49282 1.02882 0
M  V30 314 C 32.0961 2.85187 -2.20683 0
M  V30 315 O 31.2001 3.79593 -1.61193 0
M  V30 316 H 30.5411 0.47411 -0.464883 0
M  V30 317 H 33.0711 0.954269 -1.80983 0
M  V30 318 H 33.0811 3.34283 -2.33921 0
M  V30 319 H 31.7561 2.61588 -3.23334 0
M  V30 320 H 30.3331 3.38239 -1.56999 0
M  V30 321 N 32.5182 1.22032 0.997298 0
M  V30 322 C 33.7462 1.06841 1.7718 0
M  V30 323 C 34.1612 -0.381325 1.84909 0
M  V30 324 O 33.5182 -1.26437 1.31605 0
M  V30 325 C 33.5692 1.66814 3.20711 0
M  V30 326 O 33.2902 3.06116 3.13408 0
M  V30 327 C 34.7912 1.56838 4.14628 0
M  V30 328 H 32.0112 0.374782 0.556578 0
M  V30 329 H 34.5552 1.61532 1.2541 0
M  V30 330 H 32.7102 1.16196 3.69564 0
M  V30 331 H 33.1242 3.34926 4.0364 0
M  V30 332 H 34.5982 2.03532 5.13107 0
M  V30 333 H 35.0752 0.524155 4.36061 0
M  V30 334 H 35.6812 2.06741 3.7167 0
M  V30 335 N 33.9963 -1.19345 1.0293 0
M  V30 336 C 34.9443 -2.24621 0.604001 0
M  V30 337 C 35.9383 -1.65452 -0.363587 0
M  V30 338 O 37.1443 -1.78497 -0.23212 0
M  V30 339 H 33.5193 -0.730858 0.177061 0
M  V30 340 H 35.4903 -2.5781 1.50255 0
M  V30 341 C 34.2393 -3.47688 -0.0289127 0
M  V30 342 H 33.5623 -3.93505 0.706651 0
M  V30 343 H 35.0023 -4.23011 -0.289432 0
M  V30 344 C 33.4613 -3.11817 -1.2756 0
M  V30 345 O 33.9913 -3.2451 -2.36762 0
M  V30 346 N 32.1973 -2.66246 -1.16453 0
M  V30 347 H 31.7443 -2.56118 -0.275914 0
M  V30 348 H 31.7023 -2.42617 -1.99961 0
M  V30 349 N 35.4744 -0.807222 -1.35358 0
M  V30 350 C 36.7224 -0.387122 -1.98358 0
M  V30 351 C 37.0434 1.04942 -1.64354 0
M  V30 352 O 36.3134 1.72615 -0.926339 0
M  V30 353 H 34.8934 -0.140154 -0.733734 0
M  V30 354 H 37.5554 -1.0332 -1.6526 0
M  V30 355 H 36.6514 -0.493352 -3.08176 0
M  V30 356 N 36.9525 1.47285 -0.560781 0
M  V30 357 C 38.1995 2.02464 -0.038062 0
M  V30 358 C 38.5275 1.43474 1.31322 0
M  V30 359 O 37.7825 0.581311 1.86867 0
M  V30 360 C 38.0815 3.57258 0.100784 0
M  V30 361 C 37.7475 4.35184 -1.18007 0
M  V30 362 C 36.4095 4.56194 -1.53103 0
M  V30 363 C 38.7615 4.80098 -2.02867 0
M  V30 364 C 36.0895 5.19367 -2.729 0
M  V30 365 C 38.4415 5.44593 -3.21871 0
M  V30 366 C 37.1055 5.63835 -3.57276 0
M  V30 367 H 36.3755 0.740869 -0.0139279 0
M  V30 368 H 39.0225 1.76916 -0.733012 0
M  V30 369 H 37.3275 3.81819 0.878724 0
M  V30 370 H 39.0245 3.97606 0.520639 0
M  V30 371 H 35.6145 4.19113 -0.8968 0
M  V30 372 H 39.7985 4.63642 -1.7706 0
M  V30 373 H 35.0545 5.32459 -3.00496 0
M  V30 374 H 39.2285 5.78358 -3.87911 0
M  V30 375 H 36.8555 6.12557 -4.50197 0
M  V30 376 N 38.4306 0.297415 1.54768 0
M  V30 377 C 39.6796 -0.313669 1.99246 0
M  V30 378 C 39.9926 -1.55281 1.18942 0
M  V30 379 O 41.1986 -2.23825 1.5367 0
M  V30 380 C 39.6546 -0.609407 3.54703 0
M  V30 381 C 39.2626 0.611192 4.43811 0
M  V30 382 C 41.0066 -1.18188 4.07715 0
M  V30 383 C 38.9136 0.288805 5.90694 0
M  V30 384 H 37.8436 -0.120979 0.744231 0
M  V30 385 H 40.4946 0.40556 1.78962 0
M  V30 386 H 38.8766 -1.38813 3.70873 0
M  V30 387 H 40.0506 1.3875 4.39414 0
M  V30 388 H 38.3656 1.10205 4.01552 0
M  V30 389 H 40.9626 -1.43727 5.15021 0
M  V30 390 H 41.3056 -2.12299 3.58099 0
M  V30 391 H 41.8386 -0.464944 3.95074 0
M  V30 392 H 38.5776 1.19838 6.44453 0
M  V30 393 H 38.0976 -0.450305 5.98107 0
M  V30 394 H 39.7766 -0.110933 6.46905 0
M  V30 395 N 39.9087 -1.5758 0.0250728 0
M  V30 396 C 41.1337 -1.96337 -0.668317 0
M  V30 397 C 41.5587 -0.901314 -1.651 0
M  V30 398 O 40.9167 0.138187 -1.80773 0
M  V30 399 C 40.9647 -3.34191 -1.35457 0
M  V30 400 O 40.0687 -3.30269 -2.46974 0
M  V30 401 H 39.4097 -0.640281 -0.175887 0
M  V30 402 H 41.9397 -2.0442 0.0857224 0
M  V30 403 H 41.9497 -3.70331 -1.71228 0
M  V30 404 H 40.6247 -4.11036 -0.634218 0
M  V30 405 H 39.2017 -3.05841 -2.13344 0
M  V30 406 N 41.3868 0.248026 -1.55636 0
M  V30 407 C 42.6148 0.993808 -1.81469 0
M  V30 408 C 43.0298 1.78991 -0.60064 0
M  V30 409 O 42.3868 1.77345 0.430682 0
M  V30 410 C 42.4378 1.93258 -3.05506 0
M  V30 411 O 42.1588 1.16869 -4.22224 0
M  V30 412 C 43.6598 2.79444 -3.4413 0
M  V30 413 H 40.8798 0.292486 -0.603898 0
M  V30 414 H 43.4238 0.271253 -2.02693 0
M  V30 415 H 41.5788 2.60943 -2.86335 0
M  V30 416 H 41.9928 1.80359 -4.92515 0
M  V30 417 H 43.4668 3.41066 -4.34026 0
M  V30 418 H 43.9438 3.50499 -2.64665 0
M  V30 419 H 44.5498 2.17214 -3.65648 0
M  V30 420 N 42.8649 1.48995 0.513639 0
M  V30 421 C 43.7949 1.67636 1.62544 0
M  V30 422 C 44.7759 0.525087 1.61793 0
M  V30 423 O 45.9609 0.759502 1.78732 0
M  V30 424 C 43.0909 1.73114 3.01079 0
M  V30 425 C 42.0449 2.87905 3.16693 0
M  V30 426 C 41.3709 2.78486 4.56453 0
M  V30 427 C 42.6709 4.29005 2.97913 0
M  V30 428 H 44.3649 2.60716 1.47198 0
M  V30 429 H 41.9109 1.25465 0.706714 0
M  V30 430 H 43.8639 1.84742 3.78746 0
M  V30 431 H 42.5879 0.766241 3.17484 0
M  V30 432 H 41.2469 2.75859 2.41448 0
M  V30 433 H 40.8949 1.7993 4.69717 0
M  V30 434 H 40.5949 3.55523 4.67843 0
M  V30 435 H 42.1189 2.92104 5.36197 0
M  V30 436 H 43.5329 4.41798 3.65359 0
M  V30 437 H 41.9299 5.07166 3.20785 0
M  V30 438 H 42.9999 4.44329 1.94165 0
M  V30 439 N 44.343 -0.763751 1.37857 0
M  V30 440 C 45.591 -1.51957 1.33243 0
M  V30 441 C 45.912 -1.94835 -0.0801709 0
M  V30 442 O 45.182 -1.66894 -1.02582 0
M  V30 443 H 43.762 -0.563626 0.49024 0
M  V30 444 H 46.424 -0.908504 1.7243 0
M  V30 445 H 45.52 -2.41523 1.97669 0
M  V30 446 N 45.8211 -1.22559 -0.990812 0
M  V30 447 C 46.7511 -1.0218 -2.09956 0
M  V30 448 C 47.7321 0.0579394 -1.70001 0
M  V30 449 O 48.9171 -0.104684 -1.93918 0
M  V30 450 C 46.0471 -0.601023 -3.4206 0
M  V30 451 C 45.0011 -1.62694 -3.95872 0
M  V30 452 C 44.3271 -1.06193 -5.24049 0
M  V30 453 C 45.6271 -3.01743 -4.2632 0
M  V30 454 H 47.3211 -1.94916 -2.27262 0
M  V30 455 H 44.8671 -0.938566 -1.09211 0
M  V30 456 H 46.8201 -0.445561 -4.19038 0
M  V30 457 H 45.5441 0.362005 -3.24588 0
M  V30 458 H 44.2031 -1.77021 -3.21028 0
M  V30 459 H 43.8511 -0.0901903 -5.02919 0
M  V30 460 H 43.5511 -1.74732 -5.61019 0
M  V30 461 H 45.0751 -0.918092 -6.03658 0
M  V30 462 H 46.4891 -2.90777 -4.94087 0
M  V30 463 H 44.8861 -3.67425 -4.74467 0
M  V30 464 H 45.9561 -3.51518 -3.34011 0
M  V30 465 N 47.2992 1.18797 -1.03562 0
M  V30 466 C 48.5452 1.8893 -0.737113 0
M  V30 467 C 48.8782 1.79837 0.732956 0
M  V30 468 O 48.1532 1.19525 1.5344 0
M  V30 469 C 48.4362 3.39607 -1.19745 0
M  V30 470 C 48.2892 3.57537 -2.72924 0
M  V30 471 C 49.6082 4.33069 -0.783526 0
M  V30 472 H 46.7272 0.686057 -0.269249 0
M  V30 473 H 49.3692 1.39797 -1.28673 0
M  V30 474 H 47.5192 3.81583 -0.729855 0
M  V30 475 H 49.1912 3.24688 -3.27682 0
M  V30 476 H 47.4342 3.00363 -3.12993 0
M  V30 477 H 48.1052 4.63238 -3.00191 0
M  V30 478 H 50.5812 3.98846 -1.18581 0
M  V30 479 H 49.4572 5.3707 -1.13343 0
M  V30 480 H 49.7182 4.40986 0.313681 0
M  V30 481 N 48.7773 0.814389 1.34928 0
M  V30 482 C 50.0543 0.321363 1.92942 0
M  V30 483 C 50.4343 -1.19014 1.74353 0
M  V30 484 O 49.7823 -1.99328 1.11716 0
M  V30 485 C 49.9923 0.741323 3.41036 0
M  V30 486 C 51.3403 0.735266 4.18185 0
M  V30 487 O 52.3643 0.68336 3.49584 0
M  V30 488 O 51.2233 0.800703 5.40602 0
M  V30 489 H 48.3173 0.0858893 0.822528 0
M  V30 490 H 50.8633 0.898609 1.43955 0
M  V30 491 H 49.6353 1.78276 3.4833 0
M  V30 492 H 49.2583 0.139307 3.97356 0
M  V30 493 N 50.2554 -1.46986 0.568584 0
M  V30 494 C 51.5324 -1.95592 -0.0174074 0
M  V30 495 C 51.9124 -1.51124 -1.47393 0
M  V30 496 O 51.2604 -0.755329 -2.15655 0
M  V30 497 C 51.4704 -3.48719 0.139913 0
M  V30 498 C 52.8184 -4.246 0.000426376 0
M  V30 499 O 53.8424 -3.56135 0.0680316 0
M  V30 500 O 52.7014 -5.46302 -0.146988 0
M  V30 501 H 49.7954 -0.82498 -0.0577599 0
M  V30 502 H 52.3414 -1.57335 0.635909 0
M  V30 503 H 51.1134 -3.73927 1.15301 0
M  V30 504 H 50.7364 -3.93771 -0.550491 0
M  V30 505 N 51.7335 -0.305618 -1.54608 0
M  V30 506 C 53.1495 0.0476228 -1.59529 0
M  V30 507 C 53.3495 1.52025 -1.32252 0
M  V30 508 O 52.4055 2.27368 -1.09818 0
M  V30 509 C 53.7185 -0.354471 -2.98603 0
M  V30 510 C 55.2665 -0.303622 -3.11524 0
M  V30 511 C 55.7415 -0.680608 -4.52915 0
M  V30 512 N 57.2325 -0.63332 -4.5885 0
M  V30 513 C 57.9675 -0.897432 -5.66334 0
M  V30 514 N 57.4635 -1.22775 -6.81834 0
M  V30 515 N 59.2565 -0.824186 -5.56025 0
M  V30 516 H 51.4075 -1.2653 -1.70599 0
M  V30 517 H 53.6705 -0.513291 -0.797017 0
M  V30 518 H 53.3765 -1.3798 -3.23503 0
M  V30 519 H 53.2505 0.289568 -3.76087 0
M  V30 520 H 55.6375 0.712472 -2.8637 0
M  V30 521 H 55.7185 -0.982348 -2.36185 0
M  V30 522 H 55.3625 -1.69453 -4.78799 0
M  V30 523 H 55.2925 0.0202385 -5.26596 0
M  V30 524 H 57.7835 -0.389138 -3.75891 0
M  V30 525 H 58.0965 -1.41513 -7.59733 0
M  V30 526 H 56.4415 -1.26583 -6.83375 0
M  V30 527 H 59.6325 -0.565748 -4.64669 0
M  V30 528 H 59.8055 -1.03338 -6.39707 0
M  V30 529 N 53.2116 1.57565 -0.0334293 0
M  V30 530 C 54.4516 1.93844 0.648379 0
M  V30 531 C 54.8156 0.910387 1.69044 0
M  V30 532 O 56.0166 1.15952 2.42505 0
M  V30 533 C 54.2876 3.35017 1.24492 0
M  V30 534 S 55.8466 3.93229 1.94721 0
M  V30 535 H 52.6646 0.678231 0.213364 0
M  V30 536 H 55.2666 1.95254 -0.0981253 0
M  V30 537 H 53.9706 4.07652 0.474128 0
M  V30 538 H 53.5016 3.37061 2.02864 0
M  V30 539 H 55.5166 3.77014 3.22606 0
M  V30 540 N 54.6897 -0.239769 1.55765 0
M  V30 541 C 55.9357 -0.968234 1.78194 0
M  V30 542 C 56.2687 -1.84701 0.599938 0
M  V30 543 O 55.5437 -1.9031 -0.401524 0
M  V30 544 C 55.8267 -1.8227 3.10564 0
M  V30 545 C 55.6797 -0.971633 4.3918 0
M  V30 546 C 56.9987 -2.80388 3.39221 0
M  V30 547 H 54.1177 -0.350572 0.648281 0
M  V30 548 H 56.7597 -0.238259 1.885 0
M  V30 549 H 54.9097 -2.44507 3.01908 0
M  V30 550 H 56.5817 -0.367408 4.59835 0
M  V30 551 H 54.8247 -0.276276 4.32919 0
M  V30 552 H 55.4957 -1.60346 5.28198 0
M  V30 553 H 57.9717 -2.28287 3.47885 0
M  V30 554 H 56.8477 -3.3729 4.33044 0
M  V30 555 H 57.1087 -3.57212 2.60484 0
M  V30 556 N 56.1678 -1.49265 -0.50573 0
M  V30 557 C 57.4138 -1.58748 -1.26202 0
M  V30 558 C 57.7468 -0.271227 -1.92297 0
M  V30 559 O 57.0218 0.724831 -1.80489 0
M  V30 560 C 57.3048 -2.74332 -2.33268 0
M  V30 561 C 57.1578 -4.15737 -1.71705 0
M  V30 562 C 58.4768 -2.85576 -3.34865 0
M  V30 563 H 55.5958 -0.577826 -0.457478 0
M  V30 564 H 58.2378 -1.81532 -0.560897 0
M  V30 565 H 56.3878 -2.55036 -2.93068 0
M  V30 566 H 58.0598 -4.46537 -1.15769 0
M  V30 567 H 56.3028 -4.21605 -1.02135 0
M  V30 568 H 56.9738 -4.92477 -2.49341 0
M  V30 569 H 59.4498 -3.03127 -2.8505 0
M  V30 570 H 58.3258 -3.68135 -4.07146 0
M  V30 571 H 58.5868 -1.94732 -3.96903 0
M  V30 572 N 57.6459 0.756429 -1.3826 0
M  V30 573 C 58.5779 1.87971 -1.31147 0
M  V30 574 C 59.5909 1.61248 -0.224239 0
M  V30 575 O 60.7799 1.71881 -0.481581 0
M  V30 576 C 57.8799 3.23545 -1.00857 0
M  V30 577 C 57.0529 3.77794 -2.20432 0
M  V30 578 C 56.1119 4.91877 -1.86931 0
M  V30 579 O 55.1379 5.06659 -2.59395 0
M  V30 580 N 56.3399 5.74643 -0.822568 0
M  V30 581 H 59.1049 1.94585 -2.2794 0
M  V30 582 H 56.6659 0.936234 -1.32084 0
M  V30 583 H 58.6579 3.97403 -0.765021 0
M  V30 584 H 57.2279 3.12335 -0.128687 0
M  V30 585 H 56.4479 2.95534 -2.6087 0
M  V30 586 H 57.7359 4.10771 -3.00241 0
M  V30 587 H 57.1339 5.65266 -0.221575 0
M  V30 588 H 55.6909 6.48661 -0.638899 0
M  V30 589 N 59.124 1.23083 0.984299 0
M  V30 590 C 60.535 1.05609 1.5396 0
M  V30 591 C 60.886 -0.377793 1.92528 0
M  V30 592 O 60.011 -1.26398 1.75649 0
M  V30 593 C 60.606 1.91087 2.7977 0
M  V30 594 C 59.165 1.77885 3.31713 0
M  V30 595 C 58.312 1.87028 2.04733 0
M  V30 596 H 61.263 1.36802 0.804419 0
M  V30 597 H 61.284 1.43336 3.5247 0
M  V30 598 H 60.796 2.9544 2.51668 0
M  V30 599 H 58.897 0.762995 3.64704 0
M  V30 600 H 59.01 2.61047 4.01735 0
M  V30 601 H 57.374 1.30565 2.18689 0
M  V30 602 H 58.157 2.92929 1.79017 0
M  V30 603 N 60.6021 -1.18246 1.0419 0
M  V30 604 C 61.5121 -2.25574 0.644476 0
M  V30 605 C 62.5281 -1.70845 -0.329826 0
M  V30 606 O 63.7041 -2.00554 -0.184443 0
M  V30 607 C 60.7691 -3.46697 0.014877 0
M  V30 608 C 59.8301 -4.16554 1.03834 0
M  V30 609 C 59.0631 -5.31894 0.438692 0
M  V30 610 O 59.2861 -5.65385 -0.754752 0
M  V30 611 O 58.2201 -5.90459 1.168 0
M  V30 612 H 62.0461 -2.61836 1.53869 0
M  V30 613 H 59.6311 -1.25352 0.812854 0
M  V30 614 H 61.5131 -4.20062 -0.335538 0
M  V30 615 H 60.1881 -3.12255 -0.853138 0
M  V30 616 H 59.0951 -3.45251 1.44057 0
M  V30 617 H 60.4281 -4.54998 1.87716 0
M  V30 618 N 62.0802 -0.821533 -1.34494 0
M  V30 619 C 63.3082 -0.421884 -2.02553 0
M  V30 620 C 63.7232 0.971745 -1.61872 0
M  V30 621 O 63.0802 1.62864 -0.823496 0
M  V30 622 C 63.1312 -0.51285 -3.57844 0
M  V30 623 O 62.8522 -1.85155 -3.97051 0
M  V30 624 C 64.3532 -0.107921 -4.43169 0
M  V30 625 H 61.5732 -0.169482 -0.649243 0
M  V30 626 H 64.1172 -1.1093 -1.71798 0
M  V30 627 H 62.2722 0.126474 -3.87193 0
M  V30 628 H 62.6862 -1.82482 -4.91732 0
M  V30 629 H 64.1602 -0.222657 -5.51551 0
M  V30 630 H 64.6372 0.948401 -4.28838 0
M  V30 631 H 65.2432 -0.720989 -4.19144 0
M  V30 632 N 63.5583 1.46682 -0.576371 0
M  V30 633 C 64.8063 2.02013 -0.0594163 0
M  V30 634 C 65.1273 1.45101 1.30271 0
M  V30 635 O 64.3973 0.633317 1.8538 0
M  V30 636 H 62.9773 0.746759 -0.0189745 0
M  V30 637 H 65.6393 1.79862 -0.750717 0
M  V30 638 H 64.7353 3.12097 0.014345 0
M  V30 639 N 65.0364 0.313813 1.54444 0
M  V30 640 C 66.3134 -0.345447 1.92525 0
M  V30 641 C 66.6934 -1.70667 1.24242 0
M  V30 642 O 66.0414 -2.25273 0.382654 0
M  V30 643 C 66.2514 -0.44737 3.46121 0
M  V30 644 C 67.5994 -0.712238 4.18584 0
M  V30 645 O 68.6234 -0.530678 3.52225 0
M  V30 646 O 67.4824 -1.06183 5.36085 0
M  V30 647 H 64.5764 -0.195407 0.803583 0
M  V30 648 H 67.1224 0.362813 1.65776 0
M  V30 649 H 65.8944 0.509043 3.87975 0
M  V30 650 H 65.5174 -1.20359 3.78945 0
M  V30 651 N 66.5145 -1.57545 0.0417849 0
M  V30 652 C 67.4445 -2.14009 -0.933929 0
M  V30 653 C 68.4255 -1.05938 -1.33083 0
M  V30 654 O 69.6105 -1.33833 -1.40721 0
M  V30 655 C 66.7405 -2.67747 -2.21199 0
M  V30 656 C 65.6945 -3.80718 -1.95544 0
M  V30 657 C 65.0205 -4.20935 -3.29724 0
M  V30 658 C 66.3205 -5.06258 -1.28452 0
M  V30 659 H 68.0145 -2.95788 -0.463645 0
M  V30 660 H 65.5605 -1.42285 -0.221573 0
M  V30 661 H 67.5135 -3.05886 -2.89848 0
M  V30 662 H 66.2375 -1.83147 -2.70416 0
M  V30 663 H 64.8965 -3.43037 -1.2931 0
M  V30 664 H 64.5445 -3.33298 -3.76724 0
M  V30 665 H 64.2445 -4.9707 -3.13361 0
M  V30 666 H 65.7685 -4.61666 -3.9962 0
M  V30 667 H 67.1825 -5.41903 -1.8712 0
M  V30 668 H 65.5795 -5.87475 -1.22445 0
M  V30 669 H 66.6495 -4.84207 -0.259219 0
M  V30 670 N 67.9926 0.231505 -1.5589 0
M  V30 671 C 68.9406 1.30649 -1.92441 0
M  V30 672 C 69.9346 1.49037 -0.805254 0
M  V30 673 O 71.1406 1.50329 -0.990007 0
M  V30 674 H 67.5156 0.437812 -0.611412 0
M  V30 675 H 69.4866 0.970973 -2.82161 0
M  V30 676 C 68.2356 2.65179 -2.24889 0
M  V30 677 H 67.5586 2.51835 -3.10514 0
M  V30 678 H 68.9986 3.39234 -2.54355 0
M  V30 679 C 67.4576 3.19439 -1.07054 0
M  V30 680 O 67.9876 4.00371 -0.326499 0
M  V30 681 N 66.1936 2.77675 -0.85703 0
M  V30 682 H 65.7406 2.11969 -1.46379 0
M  V30 683 H 65.6986 3.14321 -0.0703223 0
M  V30 684 N 69.4707 1.49531 0.497807 0
M  V30 685 C 70.4187 1.66926 1.61983 0
M  V30 686 C 71.4127 0.535167 1.60724 0
M  V30 687 O 72.6187 0.714896 1.65195 0
M  V30 688 H 68.9937 0.526415 0.537021 0
M  V30 689 H 70.9647 2.61098 1.44465 0
M  V30 690 C 69.7137 1.75602 3.00099 0
M  V30 691 H 69.0367 2.62244 3.01775 0
M  V30 692 H 70.4767 1.91807 3.78135 0
M  V30 693 C 68.9357 0.501543 3.33146 0
M  V30 694 O 69.4657 -0.371342 3.9998 0
M  V30 695 N 67.6717 0.363531 2.88317 0
M  V30 696 H 67.2187 1.07485 2.34104 0
M  V30 697 H 67.1767 -0.474728 3.10795 0
M  V30 698 N 70.9488 -0.749086 1.3866 0
M  V30 699 C 72.3598 -1.32664 1.31366 0
M  V30 700 C 72.7108 -1.96179 -0.028484 0
M  V30 701 O 71.8358 -1.9537 -0.93057 0
M  V30 702 C 72.4308 -2.41219 2.37905 0
M  V30 703 C 70.9898 -2.94684 2.34176 0
M  V30 704 C 70.1368 -1.68108 2.20533 0
M  V30 705 H 73.0878 -0.547628 1.48952 0
M  V30 706 H 73.1088 -3.21268 2.0388 0
M  V30 707 H 72.6208 -1.94962 3.35576 0
M  V30 708 H 70.7218 -3.45258 1.401 0
M  V30 709 H 70.8348 -3.48757 3.2849 0
M  V30 710 H 69.1988 -1.91907 1.67463 0
M  V30 711 H 69.9818 -1.23923 3.20153 0
M  V30 712 N 72.4269 -1.23603 -0.977757 0
M  V30 713 C 73.8379 -1.06424 -1.53398 0
M  V30 714 C 74.1889 0.367578 -1.92726 0
M  V30 715 O 73.3139 1.25465 -1.76316 0
M  V30 716 C 73.9089 -1.92568 -2.78753 0
M  V30 717 C 72.4679 -1.79642 -3.30765 0
M  V30 718 C 71.6149 -1.88111 -2.03739 0
M  V30 719 H 74.5659 -1.37227 -0.797152 0
M  V30 720 H 74.5869 -1.45203 -3.51705 0
M  V30 721 H 74.0989 -2.96771 -2.50098 0
M  V30 722 H 72.1999 -0.782325 -3.64294 0
M  V30 723 H 72.3129 -2.63174 -4.00345 0
M  V30 724 H 70.6769 -1.31723 -2.17994 0
M  V30 725 H 71.4599 -2.93875 -1.77461 0
M  V30 726 N 73.905 1.17692 -1.04816 0
M  V30 727 C 74.852 2.21581 -0.645797 0
M  V30 728 C 75.822 1.62367 0.350159 0
M  V30 729 O 77.007 1.89254 0.242433 0
M  V30 730 C 74.147 3.45092 -0.0227568 0
M  V30 731 C 73.26 4.18613 -1.06709 0
M  V30 732 C 72.395 5.29602 -0.411767 0
M  V30 733 C 71.434 5.94904 -1.44067 0
M  V30 734 N 70.571 6.97414 -0.809781 0
M  V30 735 H 75.411 2.55353 -1.5362 0
M  V30 736 H 72.948 1.25438 -0.768364 0
M  V30 737 H 74.906 4.15679 0.35588 0
M  V30 738 H 73.536 3.11917 0.831122 0
M  V30 739 H 72.588 3.46779 -1.5636 0
M  V30 740 H 73.9 4.63293 -1.84827 0
M  V30 741 H 73.054 6.06696 0.0206623 0
M  V30 742 H 71.793 4.86045 0.401438 0
M  V30 743 H 70.798 5.16544 -1.88316 0
M  V30 744 H 72.023 6.40542 -2.25571 0
M  V30 745 H 69.969 6.55998 -0.0170186 0
M  V30 746 H 69.886 7.40386 -1.52856 0
M  V30 747 H 71.154 7.78463 -0.401999 0
M  V30 748 N 75.3831 0.828654 1.34056 0
M  V30 749 C 76.3301 0.252567 2.29414 0
M  V30 750 C 77.3001 -0.62588 1.53857 0
M  V30 751 O 78.4851 -0.566312 1.82202 0
M  V30 752 C 75.6251 -0.574831 3.40279 0
M  V30 753 C 74.7381 0.326499 4.30764 0
M  V30 754 C 73.8731 -0.511016 5.28736 0
M  V30 755 C 72.9121 0.389342 6.1086 0
M  V30 756 N 72.0491 -0.409439 7.00905 0
M  V30 757 H 76.8891 1.07108 2.78086 0
M  V30 758 H 74.4261 0.539677 1.36843 0
M  V30 759 H 76.3841 -1.06992 4.03248 0
M  V30 760 H 75.0141 -1.35841 2.92826 0
M  V30 761 H 74.0661 0.939837 3.68607 0
M  V30 762 H 75.3781 1.01857 4.88289 0
M  V30 763 H 74.5321 -1.07035 5.97184 0
M  V30 764 H 73.2711 -1.23657 4.71763 0
M  V30 765 H 72.2761 0.960769 5.4134 0
M  V30 766 H 73.5011 1.1131 6.69916 0
M  V30 767 H 71.4471 -1.11856 6.46393 0
M  V30 768 H 71.3641 0.224126 7.55668 0
M  V30 769 H 72.6321 -0.951336 7.73673 0
M  V30 770 N 76.8612 -1.46375 0.584142 0
M  V30 771 C 78.1082 -2.02378 0.0702675 0
M  V30 772 C 78.4362 -1.45545 -1.29023 0
M  V30 773 O 77.6912 -0.610967 -1.85918 0
M  V30 774 C 77.9902 -3.57373 -0.0439342 0
M  V30 775 C 77.6562 -4.33252 1.24915 0
M  V30 776 C 76.3182 -4.53701 1.60341 0
M  V30 777 C 78.6702 -4.7681 2.1048 0
M  V30 778 C 75.9982 -5.1496 2.81128 0
M  V30 779 C 78.3502 -5.39404 3.30494 0
M  V30 780 C 77.0142 -5.5808 3.66201 0
M  V30 781 H 76.2842 -0.740554 0.0257127 0
M  V30 782 H 78.9312 -1.75727 0.761065 0
M  V30 783 H 77.2362 -3.83169 -0.817869 0
M  V30 784 H 78.9332 -3.98384 -0.457318 0
M  V30 785 H 75.5232 -4.17633 0.963364 0
M  V30 786 H 79.7072 -4.60766 1.84414 0
M  V30 787 H 74.9632 -5.27611 3.08928 0
M  V30 788 H 79.1372 -5.72114 3.97063 0
M  V30 789 H 76.7642 -6.05318 4.59885 0
M  V30 790 N 78.3393 -0.321999 -1.54275 0
M  V30 791 C 79.7553 0.0306999 -1.5957 0
M  V30 792 C 79.9553 1.50614 -1.33857 0
M  V30 793 O 79.0113 2.2619 -1.12223 0
M  V30 794 C 80.3243 -0.386122 -2.98211 0
M  V30 795 C 81.8723 -0.336647 -3.11184 0
M  V30 796 C 82.3473 -0.728607 -4.52167 0
M  V30 797 N 83.8383 -0.681952 -4.58152 0
M  V30 798 C 84.5733 -0.957449 -5.6535 0
M  V30 799 N 84.0693 -1.3 -6.80494 0
M  V30 800 N 85.8623 -0.883113 -5.55119 0
M  V30 801 H 78.0133 -1.28332 -1.69247 0
M  V30 802 H 80.2763 -0.521716 -0.791528 0
M  V30 803 H 79.9823 -1.41404 -3.22022 0
M  V30 804 H 79.8563 0.249662 -3.76373 0
M  V30 805 H 82.2433 0.682058 -2.8711 0
M  V30 806 H 82.3243 -1.00734 -2.3513 0
M  V30 807 H 81.9683 -1.74522 -4.76974 0
M  V30 808 H 81.8983 -0.0356152 -5.26588 0
M  V30 809 H 84.3893 -0.428985 -3.75457 0
M  V30 810 H 84.7023 -1.49563 -7.58189 0
M  V30 811 H 83.0473 -1.33824 -6.81994 0
M  V30 812 H 86.2383 -0.615001 -4.64042 0
M  V30 813 H 86.4113 -1.10118 -6.38575 0
M  V30 814 N 79.8174 1.5752 -0.0501392 0
M  V30 815 C 81.0944 1.83996 0.663685 0
M  V30 816 C 81.4744 0.938339 1.89099 0
M  V30 817 O 80.8224 -0.00087759 2.285 0
M  V30 818 C 81.0324 3.33702 1.02196 0
M  V30 819 C 82.3804 4.00691 1.40469 0
M  V30 820 O 83.4044 3.38321 1.11433 0
M  V30 821 O 82.2634 5.10658 1.94654 0
M  V30 822 H 79.3574 0.759385 0.32751 0
M  V30 823 H 81.9034 1.69514 -0.0794238 0
M  V30 824 H 80.6754 3.91015 0.149364 0
M  V30 825 H 80.2984 3.53368 1.82255 0
M  V30 826 N 81.2955 -0.223234 1.56011 0
M  V30 827 C 82.5355 -0.954962 1.8072 0
M  V30 828 C 82.8995 -1.81598 0.623384 0
M  V30 829 O 84.1005 -2.58132 0.749745 0
M  V30 830 C 82.3715 -1.77313 3.10314 0
M  V30 831 S 83.9305 -2.56073 3.56332 0
M  V30 832 H 80.7485 -0.320812 0.634508 0
M  V30 833 H 83.3505 -0.220686 1.9425 0
M  V30 834 H 82.0545 -1.13071 3.94516 0
M  V30 835 H 81.5855 -2.54974 2.99586 0
M  V30 836 H 83.6005 -3.79619 3.19536 0
M  V30 837 N 82.7736 -1.49793 -0.48987 0
M  V30 838 C 83.7036 -1.70201 -1.59856 0
M  V30 839 C 84.6846 -0.55076 -1.60937 0
M  V30 840 O 85.8696 -0.787841 -1.77501 0
M  V30 841 C 82.9996 -1.77882 -2.98287 0
M  V30 842 C 81.9536 -2.92907 -3.12073 0
M  V30 843 C 81.2796 -2.85712 -4.51965 0
M  V30 844 C 82.5796 -4.3369 -2.91051 0
M  V30 845 H 84.2736 -2.63025 -1.43032 0
M  V30 846 H 81.8196 -1.26574 -0.686664 0
M  V30 847 H 83.7726 -1.90744 -3.75759 0
M  V30 848 H 82.4966 -0.816653 -3.16225 0
M  V30 849 H 81.1556 -2.79665 -2.37029 0
M  V30 850 H 80.8036 -1.8738 -4.66795 0
M  V30 851 H 80.5036 -3.62921 -4.62128 0
M  V30 852 H 82.0276 -3.00598 -5.31482 0
M  V30 853 H 83.4416 -4.47555 -3.58284 0
M  V30 854 H 81.8386 -5.12205 -3.12675 0
M  V30 855 H 82.9086 -4.47362 -1.87071 0
M  V30 856 N 84.2517 0.741722 -1.39055 0
M  V30 857 C 85.4987 1.50114 -1.35912 0
M  V30 858 C 85.8267 1.94443 0.0470937 0
M  V30 859 O 85.0817 1.66612 1.02659 0
M  V30 860 C 85.3807 2.7592 -2.27163 0
M  V30 861 C 85.0467 2.50493 -3.74919 0
M  V30 862 C 83.7087 2.43267 -4.1518 0
M  V30 863 C 86.0607 2.28585 -4.684 0
M  V30 864 C 83.3887 2.12166 -5.46994 0
M  V30 865 C 85.7407 1.99002 -6.00484 0
M  V30 866 C 84.4047 1.90241 -6.39816 0
M  V30 867 H 83.6747 0.549306 -0.497336 0
M  V30 868 H 86.3217 0.851896 -1.71508 0
M  V30 869 H 84.6267 3.45553 -1.84663 0
M  V30 870 H 86.3237 3.33923 -2.22028 0
M  V30 871 H 82.9137 2.56992 -3.43006 0
M  V30 872 H 87.0977 2.33139 -4.38132 0
M  V30 873 H 82.3537 2.03901 -5.76398 0
M  V30 874 H 86.5277 1.81057 -6.72452 0
M  V30 875 H 84.1547 1.65907 -7.41875 0
M  V30 876 N 85.7298 1.2412 0.971189 0
M  V30 877 C 86.6768 1.0305 2.06517 0
M  V30 878 C 87.6468 -0.0550666 1.66009 0
M  V30 879 O 88.8318 0.0988688 1.90544 0
M  V30 880 C 85.9718 0.637653 3.39158 0
M  V30 881 C 85.0848 1.79633 3.92882 0
M  V30 882 C 84.2198 1.34939 5.13775 0
M  V30 883 C 83.2588 2.47823 5.59687 0
M  V30 884 N 82.3958 2.04022 6.71803 0
M  V30 885 H 87.2358 1.96685 2.23873 0
M  V30 886 H 84.7728 0.979694 1.09729 0
M  V30 887 H 86.7308 0.390931 4.15364 0
M  V30 888 H 85.3608 -0.261693 3.21737 0
M  V30 889 H 84.4128 2.15681 3.13346 0
M  V30 890 H 85.7248 2.64466 4.22918 0
M  V30 891 H 84.8788 1.06134 5.97345 0
M  V30 892 H 83.6178 0.471557 4.85415 0
M  V30 893 H 82.6228 2.77392 4.74693 0
M  V30 894 H 83.8478 3.36158 5.90063 0
M  V30 895 H 81.7938 1.18632 6.45184 0
M  V30 896 H 81.7108 2.82409 7.01271 0
M  V30 897 H 82.9788 1.78347 7.58823 0
M  V30 898 N 87.2079 -1.17134 1.05439 0
M  V30 899 C 88.1379 -2.2342 0.678649 0
M  V30 900 C 89.1189 -1.66971 -0.32476 0
M  V30 901 O 90.3039 -1.93149 -0.201802 0
M  V30 902 C 87.4339 -3.47256 0.0552099 0
M  V30 903 C 86.3879 -4.16543 0.98365 0
M  V30 904 C 85.7139 -5.34231 0.223961 0
M  V30 905 C 87.0139 -4.68495 2.3089 0
M  V30 906 H 88.7079 -2.55105 1.56722 0
M  V30 907 H 86.2539 -1.2262 0.754998 0
M  V30 908 H 88.2069 -4.20828 -0.21946 0
M  V30 909 H 86.9309 -3.14846 -0.868319 0
M  V30 910 H 85.5899 -3.44887 1.24293 0
M  V30 911 H 85.2379 -4.98071 -0.702412 0
M  V30 912 H 84.9379 -5.81527 0.842627 0
M  V30 913 H 86.4619 -6.10585 -0.0433671 0
M  V30 914 H 87.8759 -5.33691 2.09396 0
M  V30 915 H 86.2729 -5.26379 2.88176 0
M  V30 916 H 87.3429 -3.85169 2.94572 0
M  V30 917 N 88.686 -0.835752 -1.33615 0
M  V30 918 C 89.926 -0.43599 -1.99696 0
M  V30 919 C 90.29 0.98557 -1.64774 0
M  V30 920 O 91.491 1.48889 -2.23798 0
M  V30 921 C 89.762 -0.646721 -3.515 0
M  V30 922 S 91.321 -0.341715 -4.37467 0
M  V30 923 H 88.139 -0.164136 -0.691795 0
M  V30 924 H 90.741 -1.08436 -1.62671 0
M  V30 925 H 89.445 -1.68077 -3.74404 0
M  V30 926 H 88.976 0.0159173 -3.93397 0
M  V30 927 H 90.991 0.839708 -4.89043 0
M  V30 928 N 90.1641 1.46063 -0.591896 0
M  V30 929 C 91.5751 1.85944 -0.167822 0
M  V30 930 C 91.9261 1.49429 1.27143 0
M  V30 931 O 91.0511 0.913515 1.96173 0
M  V30 932 C 91.6461 3.37489 -0.297794 0
M  V30 933 C 90.2051 3.76332 0.0714732 0
M  V30 934 C 89.3521 2.7006 -0.629509 0
M  V30 935 H 92.3031 1.37087 -0.799555 0
M  V30 936 H 92.3241 3.77532 0.474349 0
M  V30 937 H 91.8361 3.64034 -1.3454 0
M  V30 938 H 89.9371 3.55405 1.11886 0
M  V30 939 H 90.0501 4.78088 -0.311245 0
M  V30 940 H 88.4141 2.54607 -0.0687867 0
M  V30 941 H 89.1971 2.99444 -1.67894 0
M  V30 942 N 91.6422 0.330177 1.54103 0
M  V30 943 C 92.5752 -0.575477 2.20825 0
M  V30 944 C 93.5532 -1.11064 1.18758 0
M  V30 945 O 94.7372 -1.17341 1.47524 0
M  V30 946 C 91.8642 -1.79032 2.87516 0
M  V30 947 C 90.9102 -1.38581 4.03358 0
M  V30 948 S 91.7432 -0.416911 5.33875 0
M  V30 949 C 92.8992 -1.63889 6.04062 0
M  V30 950 H 93.1322 -0.00872114 2.97299 0
M  V30 951 H 90.6652 0.114254 1.53977 0
M  V30 952 H 92.6232 -2.48734 3.2656 0
M  V30 953 H 91.2842 -2.32827 2.10832 0
M  V30 954 H 90.4772 -2.29123 4.48908 0
M  V30 955 H 90.0792 -0.768419 3.66021 0
M  V30 956 H 92.3712 -2.57536 6.26643 0
M  V30 957 H 93.3142 -1.22542 6.97416 0
M  V30 958 H 93.7222 -1.82887 5.34053 0
M  V30 959 N 93.1203 -1.57491 0.0584922 0
M  V30 960 C 94.0683 -2.13148 -0.931168 0
M  V30 961 C 95.0623 -1.06507 -1.31729 0
M  V30 962 O 96.2683 -1.24906 -1.29609 0
M  V30 963 H 92.6433 -0.68137 -0.31818 0
M  V30 964 H 94.6143 -2.95187 -0.436707 0
M  V30 965 C 93.3633 -2.69732 -2.19408 0
M  V30 966 H 92.6863 -3.51454 -1.90578 0
M  V30 967 H 94.1263 -3.12287 -2.86798 0
M  V30 968 C 92.5853 -1.63855 -2.94369 0
M  V30 969 O 93.1153 -1.05565 -3.87581 0
M  V30 970 N 91.3213 -1.35202 -2.57233 0
M  V30 971 H 90.8683 -1.82791 -1.81508 0
M  V30 972 H 90.8263 -0.645922 -3.07693 0
M  V30 973 N 94.5984 0.214957 -1.56127 0
M  V30 974 C 96.0144 0.564948 -1.49267 0
M  V30 975 C 96.2144 1.86827 -0.754838 0
M  V30 976 O 95.2704 2.50745 -0.297198 0
M  V30 977 C 96.5834 0.638071 -2.93852 0
M  V30 978 C 98.1314 0.728253 -3.0441 0
M  V30 979 C 98.6064 0.832663 -4.50367 0
M  V30 980 N 100.097 0.896712 -4.54437 0
M  V30 981 C 100.832 0.997324 -5.6466 0
M  V30 982 N 100.328 1.06147 -6.8462 0
M  V30 983 N 102.121 1.03297 -5.52527 0
M  V30 984 H 94.2724 -0.640211 -2.02522 0
M  V30 985 H 96.5354 -0.225507 -0.920788 0
M  V30 986 H 96.2414 -0.250126 -3.50809 0
M  V30 987 H 96.1154 1.49947 -3.46115 0
M  V30 988 H 98.5024 1.60689 -2.47514 0
M  V30 989 H 98.5834 -0.158952 -2.55306 0
M  V30 990 H 98.2274 -0.0415417 -5.07883 0
M  V30 991 H 98.1574 1.73538 -4.97184 0
M  V30 992 H 100.648 0.857188 -3.6805 0
M  V30 993 H 100.961 1.1382 -7.64372 0
M  V30 994 H 99.3064 1.03049 -6.87318 0
M  V30 995 H 102.497 0.979558 -4.57736 0
M  V30 996 H 102.67 1.10793 -6.38458 0
M  V30 997 N 96.0765 1.50051 0.48192 0
M  V30 998 C 97.3065 1.63999 1.2565 0
M  V30 999 C 97.7145 0.318288 1.86504 0
M  V30 1000 O 97.0575 -0.708534 1.69486 0
M  V30 1001 C 97.1195 2.66504 2.4128 0
M  V30 1002 C 96.7835 4.10352 2.01148 0
M  V30 1003 C 97.7805 4.96562 1.54021 0
M  V30 1004 C 95.4655 4.56203 2.10199 0
M  V30 1005 C 97.4595 6.26668 1.16473 0
M  V30 1006 C 95.1465 5.86318 1.72264 0
M  V30 1007 C 96.1445 6.71375 1.25477 0
M  V30 1008 O 95.8325 7.99062 0.880626 0
M  V30 1009 H 95.5645 0.55456 0.386574 0
M  V30 1010 H 98.1185 1.96954 0.582944 0
M  V30 1011 H 96.3485 2.28769 3.11772 0
M  V30 1012 H 98.0375 2.69783 3.03268 0
M  V30 1013 H 98.8035 4.62358 1.46458 0
M  V30 1014 H 94.6825 3.90152 2.45566 0
M  V30 1015 H 98.2265 6.93011 0.798841 0
M  V30 1016 H 94.1235 6.20046 1.79482 0
M  V30 1017 H 94.8915 8.12239 1.01043 0
M  V30 1018 N 97.5546 -0.734337 1.39446 0
M  V30 1019 C 98.7796 -1.52866 1.40167 0
M  V30 1020 C 99.2046 -1.881 -0.00171513 0
M  V30 1021 O 98.5626 -1.51957 -0.988879 0
M  V30 1022 C 98.6106 -2.79235 2.28167 0
M  V30 1023 O 97.7146 -3.75185 1.71201 0
M  V30 1024 H 97.0556 -0.461618 0.477289 0
M  V30 1025 H 99.5856 -0.905949 1.8345 0
M  V30 1026 H 99.5956 -3.27963 2.42702 0
M  V30 1027 H 98.2706 -2.52923 3.30156 0
M  V30 1028 H 96.8476 -3.33958 1.65912 0
M  V30 1029 N 99.0327 -1.24633 -0.964593 0
M  V30 1030 C 99.9957 -1.0424 -2.04124 0
M  V30 1031 C 100.996 0.00137563 -1.608 0
M  V30 1032 O 102.186 -0.239883 -1.7254 0
M  V30 1033 C 99.3177 -0.580588 -3.3592 0
M  V30 1034 H 100.511 -1.99803 -2.23649 0
M  V30 1035 H 98.0637 -1.06899 -1.14027 0
M  V30 1036 H 98.7987 0.3781 -3.22088 0
M  V30 1037 H 98.5837 -1.33398 -3.6871 0
M  V30 1038 H 100.074 -0.459034 -4.15069 0
M  V30 1039 N 100.511 1.16574 -1.06058 0
M  V30 1040 C 101.443 2.2045 -0.627239 0
M  V30 1041 C 102.456 1.59752 0.313534 0
M  V30 1042 O 103.645 1.78192 0.104896 0
M  V30 1043 C 100.745 3.3875 0.100974 0
M  V30 1044 C 99.9178 4.29008 -0.852687 0
M  V30 1045 C 98.9768 5.25944 -0.164152 0
M  V30 1046 O 98.0028 5.63535 -0.801047 0
M  V30 1047 N 99.2048 5.70075 1.09518 0
M  V30 1048 H 101.97 2.58249 -1.52077 0
M  V30 1049 H 99.5308 1.3156 -0.943594 0
M  V30 1050 H 101.523 4.00638 0.57194 0
M  V30 1051 H 100.093 2.99476 0.89628 0
M  V30 1052 H 99.3128 3.64419 -1.50308 0
M  V30 1053 H 100.601 4.86195 -1.49972 0
M  V30 1054 H 99.9988 5.41624 1.6328 0
M  V30 1055 H 98.5558 6.34067 1.51006 0
M  V30 1056 N 101.989 0.842826 1.3317 0
M  V30 1057 C 102.936 0.276885 2.29133 0
M  V30 1058 C 103.906 -0.609527 1.54512 0
M  V30 1059 O 105.091 -0.546955 1.82792 0
M  V30 1060 C 102.231 -0.538707 3.40869 0
M  V30 1061 C 101.344 0.372169 4.30394 0
M  V30 1062 C 100.479 -0.454908 5.29249 0
M  V30 1063 C 99.5179 0.45411 6.10413 0
M  V30 1064 N 98.6549 -0.335075 7.013 0
M  V30 1065 H 103.495 1.10052 2.76934 0
M  V30 1066 H 101.032 0.554161 1.36262 0
M  V30 1067 H 102.99 -1.02709 4.0436 0
M  V30 1068 H 101.62 -1.32727 2.9425 0
M  V30 1069 H 100.672 0.97888 3.6759 0
M  V30 1070 H 101.984 1.0703 4.87182 0
M  V30 1071 H 101.138 -1.00695 5.98285 0
M  V30 1072 H 99.8769 -1.18646 4.73048 0
M  V30 1073 H 98.8819 1.01813 5.40291 0
M  V30 1074 H 100.107 1.18409 6.68697 0
M  V30 1075 H 98.0529 -1.04994 6.47543 0
M  V30 1076 H 97.9699 0.304262 7.55387 0
M  V30 1077 H 99.2379 -0.869224 7.74638 0
M  V30 1078 N 103.467 -1.45747 0.599634 0
M  V30 1079 C 104.399 -2.28628 -0.161879 0
M  V30 1080 C 105.412 -1.39494 -0.839367 0
M  V30 1081 O 106.601 -1.63941 -0.706089 0
M  V30 1082 C 103.701 -3.15014 -1.24976 0
M  V30 1083 C 102.874 -4.32378 -0.660935 0
M  V30 1084 C 101.933 -5.00033 -1.63869 0
M  V30 1085 O 100.959 -5.57085 -1.1681 0
M  V30 1086 N 102.161 -4.98589 -2.97303 0
M  V30 1087 H 104.926 -2.94624 0.549265 0
M  V30 1088 H 102.487 -1.55847 0.438565 0
M  V30 1089 H 104.479 -3.5714 -1.9035 0
M  V30 1090 H 103.049 -2.5098 -1.86354 0
M  V30 1091 H 102.269 -3.9383 0.170688 0
M  V30 1092 H 103.557 -5.08197 -0.247619 0
M  V30 1093 H 102.955 -4.53514 -3.38145 0
M  V30 1094 H 101.512 -5.44603 -3.58121 0
M  V30 1095 N 104.945 -0.338344 -1.53925 0
M  V30 1096 C 106.192 0.259758 -2.00827 0
M  V30 1097 C 106.52 1.50973 -1.22628 0
M  V30 1098 O 105.775 1.93379 -0.300509 0
M  V30 1099 C 106.074 0.62448 -3.51902 0
M  V30 1100 C 105.74 -0.528006 -4.47798 0
M  V30 1101 C 104.402 -0.844298 -4.73735 0
M  V30 1102 C 106.754 -1.30143 -5.0469 0
M  V30 1103 C 104.082 -1.93648 -5.53821 0
M  V30 1104 C 106.434 -2.38382 -5.85967 0
M  V30 1105 C 105.098 -2.70576 -6.10201 0
M  V30 1106 H 104.368 0.0950523 -0.734878 0
M  V30 1107 H 107.015 -0.465182 -1.85764 0
M  V30 1108 H 105.32 1.43006 -3.64769 0
M  V30 1109 H 107.017 1.09905 -3.85645 0
M  V30 1110 H 103.607 -0.271421 -4.2774 0
M  V30 1111 H 107.791 -1.07033 -4.84621 0
M  V30 1112 H 103.047 -2.19021 -5.70824 0
M  V30 1113 H 107.221 -2.98746 -6.29066 0
M  V30 1114 H 104.848 -3.55333 -6.72044 0
M  V30 1115 N 106.423 1.57458 -0.0668435 0
M  V30 1116 C 107.669 1.94401 0.598316 0
M  V30 1117 C 108.024 0.946335 1.67518 0
M  V30 1118 O 107.317 -0.0321442 1.91573 0
M  V30 1119 C 107.511 3.35784 1.22409 0
M  V30 1120 C 107.34 4.49212 0.209367 0
M  V30 1121 C 106.11 5.04887 -0.204218 0
M  V30 1122 C 108.308 5.11335 -0.551431 0
M  V30 1123 N 106.29 6.01854 -1.21016 0
M  V30 1124 C 107.661 6.03754 -1.41 0
M  V30 1125 C 109.716 4.94173 -0.608038 0
M  V30 1126 C 108.419 6.80854 -2.32013 0
M  V30 1127 C 110.445 5.71912 -1.50566 0
M  V30 1128 C 109.807 6.63976 -2.35191 0
M  V30 1129 H 105.906 0.758538 0.190114 0
M  V30 1130 H 108.49 1.94175 -0.142832 0
M  V30 1131 H 106.661 3.36757 1.93518 0
M  V30 1132 H 108.393 3.59976 1.84931 0
M  V30 1133 H 105.148 4.73266 0.177908 0
M  V30 1134 H 105.572 6.55035 -1.71049 0
M  V30 1135 H 110.214 4.22788 0.032022 0
M  V30 1136 H 107.932 7.5152 -2.97057 0
M  V30 1137 H 111.518 5.60656 -1.55423 0
M  V30 1138 H 110.398 7.2308 -3.03522 0
M  V30 1139 N 107.901 -0.206675 1.56239 0
M  V30 1140 C 108.848 -1.25617 1.93621 0
M  V30 1141 C 109.818 -1.45824 0.795274 0
M  V30 1142 O 111.003 -1.59148 1.05245 0
M  V30 1143 C 108.143 -2.59839 2.27107 0
M  V30 1144 C 107.256 -2.47308 3.54207 0
M  V30 1145 C 106.391 -3.74155 3.7707 0
M  V30 1146 C 105.43 -3.56407 4.97635 0
M  V30 1147 N 104.567 -4.75238 5.1681 0
M  V30 1148 H 109.407 -0.930383 2.83104 0
M  V30 1149 H 106.944 -0.448065 1.4011 0
M  V30 1150 H 108.902 -3.38021 2.44535 0
M  V30 1151 H 107.532 -2.90485 1.40778 0
M  V30 1152 H 106.584 -1.60483 3.4489 0
M  V30 1153 H 107.896 -2.30122 4.42544 0
M  V30 1154 H 107.05 -4.60778 3.94675 0
M  V30 1155 H 105.789 -3.94282 2.87042 0
M  V30 1156 H 104.794 -2.68168 4.79964 0
M  V30 1157 H 106.019 -3.37736 5.89161 0
M  V30 1158 H 103.965 -4.95651 4.29728 0
M  V30 1159 H 103.882 -4.60835 5.99306 0
M  V30 1160 H 105.15 -5.63246 5.38864 0
M  V30 1161 N 109.379 -1.50304 -0.473955 0
M  V30 1162 C 110.342 -1.6841 -1.55469 0
M  V30 1163 C 111.342 -0.554905 -1.50922 0
M  V30 1164 O 112.532 -0.821882 -1.53593 0
M  V30 1165 C 109.664 -1.70667 -2.95102 0
M  V30 1166 H 110.857 -2.64828 -1.40733 0
M  V30 1167 H 108.41 -1.39742 -0.700132 0
M  V30 1168 H 109.145 -0.75932 -3.15285 0
M  V30 1169 H 108.93 -2.52698 -2.9981 0
M  V30 1170 H 110.42 -1.8664 -3.73571 0
M  V30 1171 N 110.857 0.726932 -1.39834 0
M  V30 1172 C 111.82 1.82269 -1.38962 0
M  V30 1173 C 112.82 1.58248 -0.285334 0
M  V30 1174 O 114.01 1.65499 -0.54366 0
M  V30 1175 C 111.142 3.20186 -1.17019 0
M  V30 1176 H 112.335 1.84443 -2.36476 0
M  V30 1177 H 109.888 0.931416 -1.25516 0
M  V30 1178 H 110.623 3.23669 -0.202204 0
M  V30 1179 H 110.408 3.3902 -1.96998 0
M  V30 1180 H 111.898 4.00235 -1.1917 0
M  V30 1181 N 112.336 1.25143 0.95797 0
M  V30 1182 C 113.283 1.05235 2.05412 0
M  V30 1183 C 114.253 -0.0374561 1.66058 0
M  V30 1184 O 115.438 0.119073 1.90428 0
M  V30 1185 C 112.578 0.673589 3.38462 0
M  V30 1186 C 111.691 1.8379 3.90954 0
M  V30 1187 C 110.826 1.40381 5.12315 0
M  V30 1188 C 109.865 2.53746 5.57027 0
M  V30 1189 N 109.002 2.11136 6.69601 0
M  V30 1190 H 113.842 1.99048 2.21774 0
M  V30 1191 H 111.379 0.991277 1.08683 0
M  V30 1192 H 113.337 0.434964 4.14926 0
M  V30 1193 H 111.967 -0.227554 3.21997 0
M  V30 1194 H 111.019 2.18992 3.11041 0
M  V30 1195 H 112.331 2.68937 4.20089 0
M  V30 1196 H 111.485 1.12464 5.96185 0
M  V30 1197 H 110.224 0.523015 4.84887 0
M  V30 1198 H 109.229 2.82412 4.71724 0
M  V30 1199 H 110.454 3.42398 5.86464 0
M  V30 1200 H 108.4 1.25468 6.4389 0
M  V30 1201 H 108.317 2.89832 6.98236 0
M  V30 1202 H 109.585 1.86385 7.56889 0
M  V30 1203 N 113.814 -1.1601 1.06675 0
M  V30 1204 C 115.225 -1.68235 0.809565 0
M  V30 1205 C 115.576 -1.8454 -0.666303 0
M  V30 1206 O 114.701 -1.54374 -1.5165 0
M  V30 1207 C 115.296 -3.05585 1.46299 0
M  V30 1208 C 113.855 -3.54915 1.25349 0
M  V30 1209 C 113.002 -2.30804 1.53703 0
M  V30 1210 H 115.953 -1.00318 1.22971 0
M  V30 1211 H 115.974 -3.70174 0.880431 0
M  V30 1212 H 115.486 -2.93686 2.53713 0
M  V30 1213 H 113.587 -3.72067 0.199261 0
M  V30 1214 H 113.7 -4.36774 1.9689 0
M  V30 1215 H 112.064 -2.36007 0.957739 0
M  V30 1216 H 112.847 -2.21499 2.62284 0
M  V30 1217 N 115.292 -0.849877 -1.32721 0
M  V30 1218 C 116.54 -0.450032 -1.97026 0
M  V30 1219 C 116.861 0.996604 -1.67609 0
M  V30 1220 O 116.131 1.6958 -0.980786 0
M  V30 1221 H 114.711 -0.163426 -0.728904 0
M  V30 1222 H 117.373 -1.08526 -1.6189 0
M  V30 1223 H 116.469 -0.591146 -3.0645 0
M  V30 1224 N 116.77 1.45427 -0.607355 0
M  V30 1225 C 117.733 2.28974 0.101693 0
M  V30 1226 C 118.733 1.39754 0.795329 0
M  V30 1227 O 119.923 1.61878 0.643527 0
M  V30 1228 C 117.055 3.20768 1.15414 0
M  V30 1229 H 118.248 2.93147 -0.632844 0
M  V30 1230 H 115.801 1.51945 -0.366391 0
M  V30 1231 H 116.536 2.61395 1.91945 0
M  V30 1232 H 116.321 3.86489 0.66098 0
M  V30 1233 H 117.811 3.83589 1.65073 0
M  V30 1234 N 118.248 0.346503 1.53744 0
M  V30 1235 C 119.196 -0.52422 2.26616 0
M  V30 1236 C 120.19 -1.09948 1.28871 0
M  V30 1237 O 121.396 -1.04488 1.46568 0
M  V30 1238 H 117.771 -0.187743 0.728187 0
M  V30 1239 H 119.742 0.11239 2.98188 0
M  V30 1240 C 118.491 -1.66186 3.05414 0
M  V30 1241 H 117.814 -1.22848 3.80458 0
M  V30 1242 H 119.254 -2.24622 3.59612 0
M  V30 1243 C 117.713 -2.59302 2.1509 0
M  V30 1244 O 118.243 -3.61628 1.74895 0
M  V30 1245 N 116.449 -2.28055 1.8011 0
M  V30 1246 H 115.996 -1.44883 2.12994 0
M  V30 1247 H 115.954 -2.90615 1.19958 0
M  V30 1248 N 119.726 -1.57421 0.075193 0
M  V30 1249 C 120.951 -1.98364 -0.605515 0
M  V30 1250 C 121.376 -0.953383 -1.62149 0
M  V30 1251 O 120.734 0.0806053 -1.81121 0
M  V30 1252 C 120.782 -3.38332 -1.24756 0
M  V30 1253 O 119.886 -3.37959 -2.36342 0
M  V30 1254 H 119.227 -0.645553 -0.155428 0
M  V30 1255 H 121.757 -2.04044 0.150714 0
M  V30 1256 H 121.767 -3.75591 -1.5936 0
M  V30 1257 H 120.442 -4.12846 -0.503129 0
M  V30 1258 H 119.019 -3.12474 -2.03506 0
M  V30 1259 N 121.204 0.198386 -1.56346 0
M  V30 1260 C 122.432 0.935572 -1.84539 0
M  V30 1261 C 122.847 1.76989 -0.657281 0
M  V30 1262 O 122.204 1.78626 0.374043 0
M  V30 1263 C 122.255 1.8344 -3.11499 0
M  V30 1264 O 121.976 1.03377 -4.25728 0
M  V30 1265 C 123.477 2.68355 -3.52846 0
M  V30 1266 H 120.697 0.273126 -0.612897 0
M  V30 1267 H 123.241 0.20663 -2.03453 0
M  V30 1268 H 121.396 2.51701 -2.94492 0
M  V30 1269 H 121.81 1.64599 -4.98003 0
M  V30 1270 H 123.284 3.27085 -4.44657 0
M  V30 1271 H 123.761 3.41901 -2.75681 0
M  V30 1272 H 124.367 2.05471 -3.72373 0
M  V30 1273 N 122.682 1.50554 0.465978 0
M  V30 1274 C 123.91 1.65563 1.24083 0
M  V30 1275 C 124.325 0.341051 1.85694 0
M  V30 1276 O 123.682 -0.677543 1.69457 0
M  V30 1277 C 123.733 2.75051 2.34583 0
M  V30 1278 O 123.454 4.01413 1.75497 0
M  V30 1279 C 124.955 3.01078 3.25372 0
M  V30 1280 H 122.175 0.55638 0.375077 0
M  V30 1281 H 124.719 1.96807 0.555624 0
M  V30 1282 H 122.874 2.46486 2.9887 0
M  V30 1283 H 123.288 4.62002 2.48303 0
M  V30 1284 H 124.762 3.81339 3.99105 0
M  V30 1285 H 125.239 2.12349 3.84453 0
M  V30 1286 H 125.845 3.31194 2.66816 0
M  V30 1287 N 124.16 -0.719506 1.40217 0
M  V30 1288 C 125.437 -1.47221 1.28784 0
M  V30 1289 C 125.817 -2.10883 -0.0956067 0
M  V30 1290 O 125.165 -1.99833 -1.10811 0
M  V30 1291 C 125.375 -2.5111 2.42373 0
M  V30 1292 C 126.723 -3.17053 2.82423 0
M  V30 1293 O 127.747 -2.61429 2.41937 0
M  V30 1294 O 126.606 -4.17742 3.52355 0
M  V30 1295 H 123.7 -0.654491 0.50554 0
M  V30 1296 H 126.246 -0.752014 1.52128 0
M  V30 1297 H 125.018 -2.02556 3.34793 0
M  V30 1298 H 124.641 -3.3067 2.20778 0
M  V30 1299 N 125.638 -1.25649 -0.95132 0
M  V30 1300 C 126.601 -1.06399 -2.03007 0
M  V30 1301 C 127.601 -0.0156794 -1.60792 0
M  V30 1302 O 128.791 -0.25817 -1.72276 0
M  V30 1303 C 125.923 -0.616184 -3.35285 0
M  V30 1304 H 127.116 -2.02164 -2.21517 0
M  V30 1305 H 124.669 -1.08103 -1.12887 0
M  V30 1306 H 125.404 0.343917 -3.22471 0
M  V30 1307 H 125.189 -1.37301 -3.67275 0
M  V30 1308 H 126.679 -0.503032 -4.14559 0
M  V30 1309 N 127.117 1.15442 -1.07289 0
M  V30 1310 C 128.363 1.86489 -0.796846 0
M  V30 1311 C 128.696 1.82078 0.675371 0
M  V30 1312 O 127.971 1.24346 1.4956 0
M  V30 1313 C 128.254 3.35626 -1.30489 0
M  V30 1314 C 128.107 3.48673 -2.84161 0
M  V30 1315 C 129.426 4.30357 -0.920907 0
M  V30 1316 H 126.545 0.677144 -0.290939 0
M  V30 1317 H 129.187 1.35633 -1.33056 0
M  V30 1318 H 127.337 3.79068 -0.850883 0
M  V30 1319 H 129.009 3.14099 -3.37846 0
M  V30 1320 H 127.252 2.90253 -3.22391 0
M  V30 1321 H 127.923 4.53453 -3.14777 0
M  V30 1322 H 130.399 3.94871 -1.3121 0
M  V30 1323 H 129.275 5.33193 -1.30372 0
M  V30 1324 H 129.536 4.4176 0.173226 0
M  V30 1325 N 128.595 0.856903 1.32268 0
M  V30 1326 C 129.525 0.31858 2.31316 0
M  V30 1327 C 130.506 -0.583487 1.59779 0
M  V30 1328 O 131.691 -0.503259 1.87566 0
M  V30 1329 C 128.821 -0.491979 3.43798 0
M  V30 1330 C 127.775 0.315849 4.26833 0
M  V30 1331 C 127.101 -0.619586 5.31098 0
M  V30 1332 C 128.401 1.54282 4.98993 0
M  V30 1333 H 130.095 1.14621 2.76591 0
M  V30 1334 H 127.641 0.552613 1.32974 0
M  V30 1335 H 129.594 -0.879012 4.1213 0
M  V30 1336 H 128.318 -1.35299 2.97257 0
M  V30 1337 H 126.977 0.684664 3.6015 0
M  V30 1338 H 126.625 -1.47751 4.8081 0
M  V30 1339 H 126.325 -0.0830621 5.87541 0
M  V30 1340 H 127.849 -1.00375 6.02293 0
M  V30 1341 H 129.263 1.22796 5.59995 0
M  V30 1342 H 127.66 2.01745 5.65172 0
M  V30 1343 H 128.73 2.30285 4.26728 0
M  V30 1344 N 130.073 -1.45103 0.615059 0
M  V30 1345 C 131.003 -2.33339 -0.0865619 0
M  V30 1346 C 131.984 -1.4727 -0.851209 0
M  V30 1347 O 133.169 -1.76026 -0.820281 0
M  V30 1348 C 130.299 -3.30095 -1.07956 0
M  V30 1349 C 129.253 -4.25858 -0.427628 0
M  V30 1350 C 128.579 -5.12361 -1.5294 0
M  V30 1351 C 129.879 -5.18165 0.655944 0
M  V30 1352 H 131.573 -2.92254 0.650224 0
M  V30 1353 H 129.119 -1.40532 0.314138 0
M  V30 1354 H 131.072 -3.90698 -1.57901 0
M  V30 1355 H 129.796 -2.69355 -1.84703 0
M  V30 1356 H 128.455 -3.66564 0.0510292 0
M  V30 1357 H 128.103 -4.47984 -2.28734 0
M  V30 1358 H 127.803 -5.77238 -1.09865 0
M  V30 1359 H 129.327 -5.75833 -2.03098 0
M  V30 1360 H 130.741 -5.72796 0.240257 0
M  V30 1361 H 129.138 -5.91559 1.00888 0
M  V30 1362 H 130.208 -4.60144 1.52957 0
M  V30 1363 N 131.551 -0.354651 -1.53558 0
M  V30 1364 C 132.499 0.512195 -2.26891 0
M  V30 1365 C 133.493 1.09263 -1.29452 0
M  V30 1366 O 134.699 1.03709 -1.47121 0
M  V30 1367 H 131.074 0.183878 -0.729173 0
M  V30 1368 H 133.045 -0.128202 -2.98124 0
M  V30 1369 C 131.794 1.64563 -3.06291 0
M  V30 1370 H 131.117 1.20829 -3.81104 0
M  V30 1371 H 132.557 2.22711 -3.60799 0
M  V30 1372 C 131.016 2.58158 -2.16462 0
M  V30 1373 O 131.546 3.60695 -1.76811 0
M  V30 1374 N 129.752 2.27096 -1.81317 0
M  V30 1375 H 129.299 1.43751 -2.1376 0
M  V30 1376 H 129.257 2.89975 -1.21498 0
M  V30 1377 N 133.029 1.57378 -0.0835403 0
M  V30 1378 C 133.976 2.13384 0.879539 0
M  V30 1379 C 134.946 1.04936 1.28754 0
M  V30 1380 O 136.131 1.32662 1.37133 0
M  V30 1381 C 133.271 2.70932 2.13752 0
M  V30 1382 C 132.384 3.93575 1.7811 0
M  V30 1383 C 131.519 4.39326 2.98607 0
M  V30 1384 C 130.558 5.54587 2.59037 0
M  V30 1385 N 129.695 5.95243 3.72331 0
M  V30 1386 H 134.535 2.9537 0.395076 0
M  V30 1387 H 132.072 1.45953 0.183349 0
M  V30 1388 H 134.03 3.02411 2.87408 0
M  V30 1389 H 132.66 1.91693 2.59718 0
M  V30 1390 H 131.712 3.68483 0.94469 0
M  V30 1391 H 133.024 4.77258 1.45005 0
M  V30 1392 H 132.178 4.72528 3.80529 0
M  V30 1393 H 130.917 3.5452 3.34913 0
M  V30 1394 H 129.922 5.21024 1.75539 0
M  V30 1395 H 131.147 6.41133 2.23887 0
M  V30 1396 H 129.093 5.13385 4.08378 0
M  V30 1397 H 129.01 6.73694 3.43034 0
M  V30 1398 H 130.278 6.33072 4.54797 0
M  V30 1399 N 134.507 -0.190092 1.56449 0
M  V30 1400 C 135.437 -1.23816 1.97969 0
M  V30 1401 C 136.418 -1.47201 0.852395 0
M  V30 1402 O 137.603 -1.58854 1.1171 0
M  V30 1403 C 134.733 -2.5813 2.3235 0
M  V30 1404 C 133.687 -2.49348 3.47864 0
M  V30 1405 C 133.013 -3.8798 3.67934 0
M  V30 1406 C 134.313 -2.01424 4.81898 0
M  V30 1407 H 136.007 -0.89311 2.85769 0
M  V30 1408 H 133.553 -0.428177 1.37487 0
M  V30 1409 H 135.506 -3.31637 2.59991 0
M  V30 1410 H 134.23 -2.94386 1.41438 0
M  V30 1411 H 132.889 -1.78297 3.20321 0
M  V30 1412 H 132.537 -4.21597 2.74344 0
M  V30 1413 H 132.237 -3.82978 4.45648 0
M  V30 1414 H 133.761 -4.63101 3.97957 0
M  V30 1415 H 135.175 -2.64693 5.08538 0
M  V30 1416 H 133.572 -2.07413 5.63116 0
M  V30 1417 H 134.642 -0.967677 4.75146 0
M  V30 1418 N 135.985 -1.50799 -0.457987 0
M  V30 1419 C 136.935 -1.67003 -1.55222 0
M  V30 1420 C 137.919 -0.52434 -1.52117 0
M  V30 1421 O 139.111 -0.779345 -1.58919 0
M  V30 1422 C 136.24 -1.77956 -2.93576 0
M  V30 1423 C 135.326 -2.98243 -3.01516 0
M  V30 1424 N 135.717 -4.21732 -2.79241 0
M  V30 1425 C 134.015 -2.97072 -3.32662 0
M  V30 1426 C 134.716 -5.02817 -2.92489 0
M  V30 1427 N 133.692 -4.37038 -3.23262 0
M  V30 1428 H 137.494 -2.60163 -1.36721 0
M  V30 1429 H 135.008 -1.48163 -0.664952 0
M  V30 1430 H 137.005 -1.87671 -3.72271 0
M  V30 1431 H 135.665 -0.859634 -3.13114 0
M  V30 1432 H 136.676 -4.51016 -2.54567 0
M  V30 1433 H 133.353 -2.14631 -3.58106 0
M  V30 1434 H 134.743 -6.11054 -2.79396 0
M  V30 1435 N 137.463 0.71206 -1.40597 0
M  V30 1436 C 138.413 1.81783 -1.37619 0
M  V30 1437 C 139.397 1.58896 -0.253162 0
M  V30 1438 O 140.589 1.70009 -0.492547 0
M  V30 1439 C 137.718 3.19944 -1.24462 0
M  V30 1440 C 136.804 3.48582 -2.4156 0
M  V30 1441 N 137.195 3.48016 -3.67041 0
M  V30 1442 C 135.493 3.79056 -2.35016 0
M  V30 1443 C 136.194 3.75096 -4.44609 0
M  V30 1444 N 135.17 3.94022 -3.74497 0
M  V30 1445 H 138.972 1.79683 -2.32575 0
M  V30 1446 H 136.486 0.91134 -1.34419 0
M  V30 1447 H 138.483 3.99133 -1.20411 0
M  V30 1448 H 137.143 3.23267 -0.304762 0
M  V30 1449 H 138.154 3.28782 -4.00153 0
M  V30 1450 H 134.831 3.89848 -1.49415 0
M  V30 1451 H 136.221 3.80934 -5.53479 0
M  V30 1452 N 138.941 1.26152 0.944643 0
M  V30 1453 C 139.904 1.07474 2.0244 0
M  V30 1454 C 140.904 0.0242064 1.60782 0
M  V30 1455 O 142.094 0.267302 1.72137 0
M  V30 1456 C 139.226 0.633956 3.34953 0
M  V30 1457 H 140.419 2.03336 2.20442 0
M  V30 1458 H 137.972 1.087 1.12312 0
M  V30 1459 H 138.707 -0.326811 3.22649 0
M  V30 1460 H 138.492 1.39247 3.66542 0
M  V30 1461 H 139.982 0.52501 4.14287 0
M  V30 1462 N 140.419 -1.14872 1.07899 0
M  V30 1463 C 141.382 -2.17986 0.708161 0
M  V30 1464 C 142.382 -1.58775 -0.25442 0
M  V30 1465 O 143.572 -1.74166 -0.034645 0
M  V30 1466 C 140.704 -3.40871 0.0446929 0
M  V30 1467 H 141.897 -2.52306 1.62116 0
M  V30 1468 H 139.45 -1.2943 0.876218 0
M  V30 1469 H 140.185 -3.12124 -0.880281 0
M  V30 1470 H 139.97 -3.8511 0.737091 0
M  V30 1471 H 141.46 -4.17121 -0.19991 0
M  V30 1472 N 141.898 -0.863906 -1.31812 0
M  V30 1473 C 143.175 -0.39275 -1.91616 0
M  V30 1474 C 143.555 1.12461 -1.7865 0
M  V30 1475 O 142.903 1.95045 -1.19037 0
M  V30 1476 C 143.113 -0.867385 -3.38049 0
M  V30 1477 C 144.461 -0.889966 -4.15168 0
M  V30 1478 O 145.485 -0.812635 -3.46806 0
M  V30 1479 O 144.344 -1.00079 -5.37258 0
M  V30 1480 H 141.438 -0.116358 -0.818773 0
M  V30 1481 H 143.984 -0.951418 -1.40521 0
M  V30 1482 H 142.756 -1.91081 -3.41473 0
M  V30 1483 H 142.379 -0.286687 -3.96565 0
M  V30 1484 N 143.376 1.44774 -0.622745 0
M  V30 1485 C 144.306 2.33382 0.0741861 0
M  V30 1486 C 145.287 1.47719 0.843387 0
M  V30 1487 O 146.472 1.76458 0.810934 0
M  V30 1488 C 143.602 3.30663 1.06204 0
M  V30 1489 C 142.556 4.26079 0.405037 0
M  V30 1490 C 141.882 5.13165 1.5022 0
M  V30 1491 C 143.182 5.1781 -0.683414 0
M  V30 1492 H 144.876 2.91905 -0.665713 0
M  V30 1493 H 142.422 1.40363 -0.321587 0
M  V30 1494 H 144.375 3.9153 1.55827 0
M  V30 1495 H 143.099 2.70331 1.83272 0
M  V30 1496 H 141.758 3.66532 -0.0704683 0
M  V30 1497 H 141.406 4.49191 2.26355 0
M  V30 1498 H 141.106 5.77812 1.06803 0
M  V30 1499 H 142.63 5.76902 2.00041 0
M  V30 1500 H 144.044 5.72661 -0.270631 0
M  V30 1501 H 142.441 5.91015 -1.04023 0
M  V30 1502 H 143.511 4.59326 -1.55395 0
M  V30 1503 N 144.854 0.36279 1.53368 0
M  V30 1504 C 145.764 -0.492994 2.29362 0
M  V30 1505 C 146.78 -1.09507 1.35219 0
M  V30 1506 O 147.956 -1.10662 1.68273 0
M  V30 1507 C 145.021 -1.61855 3.066 0
M  V30 1508 C 144.082 -1.04429 4.16405 0
M  V30 1509 C 143.315 -2.11621 4.89951 0
M  V30 1510 O 143.538 -3.32684 4.63333 0
M  V30 1511 O 142.472 -1.74835 5.75948 0
M  V30 1512 H 146.298 0.125331 3.03441 0
M  V30 1513 H 143.883 0.127253 1.48857 0
M  V30 1514 H 145.765 -2.27302 3.54841 0
M  V30 1515 H 144.44 -2.22233 2.3536 0
M  V30 1516 H 143.347 -0.353819 3.72423 0
M  V30 1517 H 144.68 -0.485113 4.89804 0
M  V30 1518 N 146.332 -1.57332 0.0918853 0
M  V30 1519 C 147.279 -2.13847 -0.868211 0
M  V30 1520 C 148.249 -1.05618 -1.28196 0
M  V30 1521 O 149.434 -1.33387 -1.36427 0
M  V30 1522 C 146.574 -2.72062 -2.12312 0
M  V30 1523 C 145.687 -3.94514 -1.7602 0
M  V30 1524 C 144.822 -4.40903 -2.96273 0
M  V30 1525 C 143.861 -5.55953 -2.56092 0
M  V30 1526 N 142.998 -5.97209 -3.69169 0
M  V30 1527 H 147.838 -2.95575 -0.379406 0
M  V30 1528 H 145.375 -1.46048 -0.175606 0
M  V30 1529 H 147.333 -3.03931 -2.858 0
M  V30 1530 H 145.963 -1.93068 -2.58698 0
M  V30 1531 H 145.015 -3.68979 -0.925135 0
M  V30 1532 H 146.327 -4.7802 -1.42472 0
M  V30 1533 H 145.481 -4.74539 -3.78018 0
M  V30 1534 H 144.22 -3.56291 -3.33029 0
M  V30 1535 H 143.225 -5.21948 -1.72773 0
M  V30 1536 H 144.45 -6.42311 -2.20484 0
M  V30 1537 H 142.396 -5.15543 -4.05649 0
M  V30 1538 H 142.313 -6.75504 -3.39456 0
M  V30 1539 H 143.581 -6.35475 -4.51434 0
M  V30 1540 N 147.81 0.181792 -1.56548 0
M  V30 1541 C 148.757 1.22521 -1.95595 0
M  V30 1542 C 149.727 1.4454 -0.818373 0
M  V30 1543 O 150.912 1.57454 -1.07763 0
M  V30 1544 C 148.052 2.56193 -2.31212 0
M  V30 1545 C 147.165 2.41641 -3.58097 0
M  V30 1546 C 146.3 3.68108 -3.82975 0
M  V30 1547 C 145.339 3.48445 -5.03242 0
M  V30 1548 N 144.476 4.66956 -5.24306 0
M  V30 1549 H 149.316 0.885226 -2.84548 0
M  V30 1550 H 146.853 0.425718 -1.40805 0
M  V30 1551 H 148.811 3.34088 -2.49882 0
M  V30 1552 H 147.441 2.88208 -1.45382 0
M  V30 1553 H 146.493 1.54976 -3.474 0
M  V30 1554 H 147.805 2.23052 -4.46149 0
M  V30 1555 H 146.959 4.54441 -4.01956 0
M  V30 1556 H 145.698 3.89666 -2.93278 0
M  V30 1557 H 144.703 2.60499 -4.8417 0
M  V30 1558 H 145.928 3.2832 -5.9446 0
M  V30 1559 H 143.874 4.88752 -4.37559 0
M  V30 1560 H 143.791 4.51242 -6.06561 0
M  V30 1561 H 145.059 5.54602 -5.47756 0
M  V30 1562 N 149.288 1.51039 0.449983 0
M  V30 1563 C 150.22 1.67617 1.56324 0
M  V30 1564 C 151.233 0.557083 1.52972 0
M  V30 1565 O 152.422 0.830989 1.57977 0
M  V30 1566 C 149.522 1.66402 2.95235 0
M  V30 1567 C 148.695 2.9469 3.23229 0
M  V30 1568 C 147.754 2.85832 4.41799 0
M  V30 1569 O 146.78 3.59785 4.41071 0
M  V30 1570 N 147.982 2.00821 5.44657 0
M  V30 1571 H 150.747 2.63648 1.42512 0
M  V30 1572 H 148.308 1.48767 0.638737 0
M  V30 1573 H 150.3 1.58062 3.72557 0
M  V30 1574 H 148.87 0.780182 3.02708 0
M  V30 1575 H 148.09 3.16996 2.34323 0
M  V30 1576 H 149.378 3.79636 3.38754 0
M  V30 1577 H 148.776 1.40091 5.48079 0
M  V30 1578 H 147.333 1.98368 6.20881 0
M  V30 1579 N 150.766 -0.704594 1.40972 0
M  V30 1580 C 151.714 -1.83994 1.42299 0
M  V30 1581 C 152.708 -1.66684 0.302111 0
M  V30 1582 O 153.914 -1.73655 0.473697 0
M  V30 1583 H 150.289 -0.606171 0.44504 0
M  V30 1584 H 152.26 -1.79992 2.38003 0
M  V30 1585 C 151.009 -3.21946 1.31323 0
M  V30 1586 H 150.332 -3.35878 2.16855 0
M  V30 1587 H 151.772 -4.01491 1.36311 0
M  V30 1588 C 150.231 -3.36891 0.0245977 0
M  V30 1589 O 150.761 -3.90687 -0.934153 0
M  V30 1590 N 148.967 -2.90559 -0.0485243 0
M  V30 1591 H 148.514 -2.46968 0.732419 0
M  V30 1592 H 148.472 -3.00937 -0.910171 0
M  V30 1593 N 152.244 -1.26651 -0.937939 0
M  V30 1594 C 153.154 -1.10276 -2.07066 0
M  V30 1595 C 154.17 -0.0354197 -1.73964 0
M  V30 1596 O 155.346 -0.239816 -1.99967 0
M  V30 1597 C 152.411 -0.740887 -3.38691 0
M  V30 1598 C 151.472 -1.88799 -3.85556 0
M  V30 1599 C 150.705 -1.54329 -5.10899 0
M  V30 1600 O 150.928 -0.446494 -5.6865 0
M  V30 1601 O 149.862 -2.37911 -5.52885 0
M  V30 1602 H 153.688 -2.05309 -2.23789 0
M  V30 1603 H 151.273 -1.05743 -1.0554 0
M  V30 1604 H 153.155 -0.55195 -4.1777 0
M  V30 1605 H 151.83 0.180022 -3.23199 0
M  V30 1606 H 150.737 -2.13191 -3.07409 0
M  V30 1607 H 152.07 -2.78874 -4.05574 0
M  V30 1608 N 153.722 1.14298 -1.08507 0
M  V30 1609 C 154.95 1.89219 -0.836876 0
M  V30 1610 C 155.365 1.78638 0.611054 0
M  V30 1611 O 154.722 1.14643 1.41998 0
M  V30 1612 C 154.773 3.39158 -1.25116 0
M  V30 1613 O 154.494 3.49449 -2.64229 0
M  V30 1614 C 155.995 4.31073 -1.03398 0
M  V30 1615 H 153.215 0.599328 -0.301739 0
M  V30 1616 H 155.759 1.44746 -1.44461 0
M  V30 1617 H 153.914 3.81251 -0.687514 0
M  V30 1618 H 154.328 4.42589 -2.81452 0
M  V30 1619 H 155.802 5.34646 -1.37323 0
M  V30 1620 H 156.279 4.3919 0.0289259 0
M  V30 1621 H 156.885 3.94738 -1.58311 0
M  V30 1622 N 155.201 0.870884 1.31352 0
M  V30 1623 C 156.111 0.330783 2.32256 0
M  V30 1624 C 157.127 -0.559767 1.6475 0
M  V30 1625 O 158.303 -0.456263 1.96164 0
M  V30 1626 C 155.368 -0.458137 3.4366 0
M  V30 1627 C 154.429 0.460482 4.26823 0
M  V30 1628 C 153.662 -0.290881 5.32907 0
M  V30 1629 O 153.885 -1.51885 5.49806 0
M  V30 1630 O 152.819 0.351732 6.00871 0
M  V30 1631 H 156.645 1.16718 2.80376 0
M  V30 1632 H 154.23 0.634285 1.35267 0
M  V30 1633 H 156.112 -0.905343 4.1156 0
M  V30 1634 H 154.787 -1.27106 2.97701 0
M  V30 1635 H 153.694 0.956207 3.61673 0
M  V30 1636 H 155.027 1.23903 4.7635 0
M  V30 1637 N 156.679 -1.44442 0.630414 0
M  V30 1638 C 157.627 -2.32437 -0.0871428 0
M  V30 1639 C 158.621 -1.47304 -0.836525 0
M  V30 1640 O 159.827 -1.63653 -0.749506 0
M  V30 1641 H 156.202 -0.750533 -0.0469495 0
M  V30 1642 H 158.173 -2.90709 0.673096 0
M  V30 1643 C 156.922 -3.31288 -1.05563 0
M  V30 1644 H 156.245 -3.96805 -0.488426 0
M  V30 1645 H 157.685 -3.9554 -1.52721 0
M  V30 1646 C 156.144 -2.6016 -2.14052 0
M  V30 1647 O 156.674 -2.39997 -3.22124 0
M  V30 1648 N 154.88 -2.19911 -1.89967 0
M  V30 1649 H 154.427 -2.36509 -1.02085 0
M  V30 1650 H 154.385 -1.72646 -2.62756 0
M  V30 1651 N 158.157 -0.370918 -1.53173 0
M  V30 1652 C 159.573 -0.0200818 -1.59587 0
M  V30 1653 C 159.773 1.46279 -1.38581 0
M  V30 1654 O 158.829 2.22506 -1.19363 0
M  V30 1655 C 160.142 -0.4808 -2.96831 0
M  V30 1656 C 161.69 -0.435477 -3.09956 0
M  V30 1657 C 162.165 -0.872092 -4.4962 0
M  V30 1658 N 163.656 -0.827364 -4.55751 0
M  V30 1659 C 164.391 -1.13683 -5.62018 0
M  V30 1660 N 163.887 -1.51584 -6.76014 0
M  V30 1661 N 165.68 -1.05927 -5.52029 0
M  V30 1662 H 157.831 -1.33652 -1.65079 0
M  V30 1663 H 160.094 -0.546634 -0.774529 0
M  V30 1664 H 159.8 -1.51577 -3.1736 0
M  V30 1665 H 159.674 0.129796 -3.76977 0
M  V30 1666 H 162.061 0.590371 -2.89134 0
M  V30 1667 H 162.142 -1.08164 -2.31806 0
M  V30 1668 H 161.786 -1.89608 -4.71181 0
M  V30 1669 H 161.716 -0.203127 -5.26208 0
M  V30 1670 H 164.207 -0.548216 -3.73902 0
M  V30 1671 H 164.52 -1.73609 -7.53047 0
M  V30 1672 H 162.865 -1.55454 -6.77391 0
M  V30 1673 H 166.056 -0.762321 -4.61851 0
M  V30 1674 H 166.229 -1.30378 -6.34749 0
M  V30 1675 N 159.635 1.57281 -0.100228 0
M  V30 1676 C 160.582 2.14305 0.856858 0
M  V30 1677 C 161.552 1.06296 1.27634 0
M  V30 1678 O 162.737 1.34109 1.35718 0
M  V30 1679 C 159.877 2.73184 2.10866 0
M  V30 1680 C 158.99 3.95442 1.73925 0
M  V30 1681 C 158.125 4.42468 2.93931 0
M  V30 1682 C 157.164 5.57303 2.5314 0
M  V30 1683 N 156.301 5.99158 3.65997 0
M  V30 1684 H 161.141 2.95772 0.363726 0
M  V30 1685 H 158.678 1.46139 0.167858 0
M  V30 1686 H 160.636 3.05442 2.84185 0
M  V30 1687 H 159.266 1.94437 2.57671 0
M  V30 1688 H 158.318 3.69464 0.905554 0
M  V30 1689 H 159.63 4.78769 1.39935 0
M  V30 1690 H 158.784 4.76537 3.75496 0
M  V30 1691 H 157.523 3.58052 3.31134 0
M  V30 1692 H 156.528 5.22857 1.70003 0
M  V30 1693 H 157.753 6.43471 2.17075 0
M  V30 1694 H 155.699 5.17687 4.02909 0
M  V30 1695 H 155.616 6.77295 3.35869 0
M  V30 1696 H 156.884 6.3786 4.48057 0
M  V30 1697 N 161.113 -0.173488 1.56642 0
M  V30 1698 C 162.043 -1.2171 1.99271 0
M  V30 1699 C 163.024 -1.46289 0.867959 0
M  V30 1700 O 164.209 -1.5766 1.13388 0
M  V30 1701 C 161.339 -2.55651 2.35074 0
M  V30 1702 C 160.293 -2.45645 3.50489 0
M  V30 1703 C 159.619 -3.84056 3.72028 0
M  V30 1704 C 160.919 -1.96302 4.84007 0
M  V30 1705 H 162.613 -0.86275 2.867 0
M  V30 1706 H 160.159 -0.413571 1.37933 0
M  V30 1707 H 162.112 -3.2886 2.63494 0
M  V30 1708 H 160.836 -2.92869 1.44552 0
M  V30 1709 H 159.495 -1.7489 3.22194 0
M  V30 1710 H 159.143 -4.18664 2.788 0
M  V30 1711 H 158.843 -3.7823 4.49684 0
M  V30 1712 H 160.367 -4.58854 4.02846 0
M  V30 1713 H 161.781 -2.59284 5.11317 0
M  V30 1714 H 160.178 -2.01429 5.65284 0
M  V30 1715 H 161.248 -0.917226 4.76146 0
M  V30 1716 N 162.591 -1.51276 -0.441967 0
M  V30 1717 C 163.521 -1.752 -1.54361 0
M  V30 1718 C 164.502 -0.601682 -1.59103 0
M  V30 1719 O 165.687 -0.843913 -1.74905 0
M  V30 1720 C 162.817 -1.87282 -2.92477 0
M  V30 1721 C 161.771 -3.02687 -3.02596 0
M  V30 1722 C 161.097 -2.99947 -4.42647 0
M  V30 1723 C 162.397 -4.4273 -2.77106 0
M  V30 1724 H 164.091 -2.67442 -1.34592 0
M  V30 1725 H 161.637 -1.28694 -0.646048 0
M  V30 1726 H 163.59 -2.02602 -3.695 0
M  V30 1727 H 162.314 -0.916844 -3.13467 0
M  V30 1728 H 160.973 -2.87065 -2.28012 0
M  V30 1729 H 160.621 -2.02136 -4.60597 0
M  V30 1730 H 160.321 -3.77439 -4.50348 0
M  V30 1731 H 161.845 -3.17354 -5.2165 0
M  V30 1732 H 163.259 -4.58727 -3.43864 0
M  V30 1733 H 161.656 -5.21893 -2.96222 0
M  V30 1734 H 162.726 -4.53087 -1.72744 0
M  V30 1735 N 164.069 0.697108 -1.41344 0
M  V30 1736 C 165.317 1.45426 -1.40341 0
M  V30 1737 C 165.638 1.94996 -0.0128787 0
M  V30 1738 O 164.908 1.71599 0.945027 0
M  V30 1739 H 163.488 0.539594 -0.516573 0
M  V30 1740 H 166.15 0.825201 -1.76569 0
M  V30 1741 H 165.246 2.31817 -2.08967 0
M  V30 1742 N 165.547 1.27147 0.931209 0
M  V30 1743 C 166.775 1.16082 1.71267 0
M  V30 1744 C 167.19 -0.282772 1.8667 0
M  V30 1745 O 166.547 -1.19283 1.38122 0
M  V30 1746 C 166.598 1.8358 3.11417 0
M  V30 1747 O 166.319 3.22299 2.96741 0
M  V30 1748 C 167.82 1.78597 4.05732 0
M  V30 1749 H 165.04 0.403758 0.535929 0
M  V30 1750 H 167.584 1.67953 1.16671 0
M  V30 1751 H 165.739 1.35623 3.62885 0
M  V30 1752 H 166.153 3.55851 3.85319 0
M  V30 1753 H 167.627 2.30444 5.01597 0
M  V30 1754 H 168.104 0.754564 4.3267 0
M  V30 1755 H 168.71 2.26152 3.60188 0
M  V30 1756 N 167.025 -1.13721 1.09112 0
M  V30 1757 C 168.271 -1.85198 0.826414 0
M  V30 1758 C 168.604 -1.83129 -0.646319 0
M  V30 1759 O 167.879 -1.2671 -1.47563 0
M  V30 1760 C 168.162 -3.33507 1.35812 0
M  V30 1761 C 168.015 -3.44108 2.89672 0
M  V30 1762 C 169.334 -4.28838 0.989256 0
M  V30 1763 H 166.453 -0.67243 0.301675 0
M  V30 1764 H 169.095 -1.33499 1.35197 0
M  V30 1765 H 167.245 -3.77666 0.911082 0
M  V30 1766 H 168.917 -3.08684 3.428 0
M  V30 1767 H 167.16 -2.85087 3.26967 0
M  V30 1768 H 167.831 -4.48388 3.21951 0
M  V30 1769 H 170.307 -3.92734 1.37475 0
M  V30 1770 H 169.183 -5.31051 1.38838 0
M  V30 1771 H 169.444 -4.4198 -0.102924 0
M  V30 1772 N 168.503 -0.877838 -1.30888 0
M  V30 1773 C 169.752 -0.488793 -1.95688 0
M  V30 1774 C 170.065 0.965485 -1.70111 0
M  V30 1775 O 171.271 1.46104 -2.28836 0
M  V30 1776 C 169.727 -0.823201 -3.50359 0
M  V30 1777 C 169.335 -2.29477 -3.84765 0
M  V30 1778 C 171.079 -0.503009 -4.21509 0
M  V30 1779 C 168.986 -2.57118 -5.32583 0
M  V30 1780 H 167.916 -0.179062 -0.732429 0
M  V30 1781 H 170.567 -1.07183 -1.48943 0
M  V30 1782 H 168.949 -0.169331 -3.95638 0
M  V30 1783 H 170.123 -2.99236 -3.5042 0
M  V30 1784 H 168.438 -2.58178 -3.267 0
M  V30 1785 H 171.035 -0.68665 -5.30273 0
M  V30 1786 H 171.378 0.557109 -4.12555 0
M  V30 1787 H 171.911 -1.11376 -3.8189 0
M  V30 1788 H 168.65 -3.61843 -5.4658 0
M  V30 1789 H 168.17 -1.91961 -5.68253 0
M  V30 1790 H 169.849 -2.42251 -5.99936 0
M  V30 1791 N 169.982 1.44106 -0.638065 0
M  V30 1792 C 170.914 2.28976 0.101205 0
M  V30 1793 C 171.927 1.4167 0.802088 0
M  V30 1794 O 173.116 1.65755 0.662375 0
M  V30 1795 C 170.216 3.18217 1.16581 0
M  V30 1796 C 169.389 4.33978 0.546066 0
M  V30 1797 C 168.448 5.04202 1.50554 0
M  V30 1798 O 167.474 5.59986 1.01999 0
M  V30 1799 N 168.676 5.06296 2.8398 0
M  V30 1800 H 171.441 2.93064 -0.627186 0
M  V30 1801 H 169.002 1.54629 -0.479731 0
M  V30 1802 H 170.994 3.62061 1.80815 0
M  V30 1803 H 169.564 2.55833 1.79634 0
M  V30 1804 H 168.784 3.93239 -0.275046 0
M  V30 1805 H 170.072 5.08675 0.112793 0
M  V30 1806 H 169.47 4.62319 3.26002 0
M  V30 1807 H 168.027 5.53907 3.43556 0
M  V30 1808 N 171.46 0.379036 1.52974 0
M  V30 1809 C 172.69 -0.20649 2.05566 0
M  V30 1810 C 173.098 -1.41906 1.25137 0
M  V30 1811 O 172.441 -1.81421 0.288464 0
M  V30 1812 C 172.503 -0.651086 3.53555 0
M  V30 1813 C 172.167 0.446626 4.54812 0
M  V30 1814 C 173.164 1.30079 5.03364 0
M  V30 1815 C 170.849 0.610719 4.98573 0
M  V30 1816 C 172.843 2.30426 5.94292 0
M  V30 1817 C 170.53 1.61754 5.89304 0
M  V30 1818 C 171.528 2.46274 6.37054 0
M  V30 1819 O 171.216 3.45237 7.25994 0
M  V30 1820 H 170.948 -0.0372381 0.674974 0
M  V30 1821 H 173.502 0.539718 1.98182 0
M  V30 1822 H 171.732 -1.44911 3.58522 0
M  V30 1823 H 173.421 -1.16112 3.88938 0
M  V30 1824 H 174.187 1.18527 4.70294 0
M  V30 1825 H 170.066 -0.0374044 4.60985 0
M  V30 1826 H 173.61 2.96432 6.31485 0
M  V30 1827 H 169.507 1.73348 6.21788 0
M  V30 1828 H 170.275 3.41124 7.44027 0
M  V30 1829 N 172.938 -1.57226 0.108567 0
M  V30 1830 C 174.186 -1.94448 -0.550853 0
M  V30 1831 C 174.507 -0.992074 -1.67878 0
M  V30 1832 O 173.777 -0.0465 -1.95845 0
M  V30 1833 H 172.357 -0.717897 -0.206479 0
M  V30 1834 H 175.019 -1.94112 0.175062 0
M  V30 1835 H 174.115 -2.97218 -0.952259 0
M  V30 1836 N 174.416 0.165178 -1.56732 0
M  V30 1837 C 175.364 1.22369 -1.97809 0
M  V30 1838 C 176.358 1.45488 -0.867741 0
M  V30 1839 O 177.564 1.45995 -1.05288 0
M  V30 1840 H 173.939 0.411486 -0.629431 0
M  V30 1841 H 175.91 0.850425 -2.86025 0
M  V30 1842 C 174.659 2.55403 -2.35934 0
M  V30 1843 H 173.982 2.38438 -3.20916 0
M  V30 1844 H 175.422 3.2814 -2.68514 0
M  V30 1845 C 173.881 3.14611 -1.20506 0
M  V30 1846 O 174.411 3.98626 -0.496016 0
M  V30 1847 N 172.617 2.7379 -0.97403 0
M  V30 1848 H 172.164 2.0557 -1.55238 0
M  V30 1849 H 172.122 3.1374 -0.203573 0
M  V30 1850 N 175.894 1.51508 0.433938 0
M  V30 1851 C 177.14 1.64588 1.18484 0
M  V30 1852 C 177.473 0.362666 1.90784 0
M  V30 1853 O 176.748 -0.637892 1.83742 0
M  V30 1854 C 177.031 2.85149 2.19913 0
M  V30 1855 C 176.884 4.23456 1.51674 0
M  V30 1856 C 178.203 3.01227 3.20858 0
M  V30 1857 H 175.322 0.598994 0.429389 0
M  V30 1858 H 177.964 1.84002 0.473647 0
M  V30 1859 H 176.114 2.68729 2.80566 0
M  V30 1860 H 177.786 4.51552 0.943322 0
M  V30 1861 H 176.029 4.25998 0.819035 0
M  V30 1862 H 176.7 5.03812 2.2556 0
M  V30 1863 H 179.176 3.16382 2.70263 0
M  V30 1864 H 178.052 3.87141 3.89118 0
M  V30 1865 H 178.313 2.13447 3.8716 0
M  V30 1866 N 177.372 -0.689602 1.41712 0
M  V30 1867 C 178.621 -1.44534 1.40686 0
M  V30 1868 C 178.934 -1.95588 0.0213352 0
M  V30 1869 O 180.14 -2.71271 -0.111534 0
M  V30 1870 C 178.596 -2.61387 2.47396 0
M  V30 1871 C 178.204 -2.17094 3.91885 0
M  V30 1872 C 179.948 -3.38986 2.55517 0
M  V30 1873 C 177.855 -3.3094 4.90135 0
M  V30 1874 H 176.785 -0.542925 0.52321 0
M  V30 1875 H 179.436 -0.748054 1.6756 0
M  V30 1876 H 177.818 -3.33412 2.13664 0
M  V30 1877 H 178.992 -1.52318 4.34897 0
M  V30 1878 H 177.307 -1.52473 3.8748 0
M  V30 1879 H 179.904 -4.23747 3.26102 0
M  V30 1880 H 180.247 -3.84578 1.59391 0
M  V30 1881 H 180.78 -2.74021 2.8837 0
M  V30 1882 H 177.519 -2.90355 5.87685 0
M  V30 1883 H 177.039 -3.94546 4.51767 0
M  V30 1884 H 178.718 -3.9663 5.11169 0
M  V30 1885 N 178.85 -1.27639 -0.924453 0
M  V30 1886 C 179.782 -1.06442 -2.02985 0
M  V30 1887 C 180.795 -0.0194771 -1.62788 0
M  V30 1888 O 181.984 -0.261388 -1.76576 0
M  V30 1889 C 179.084 -0.59327 -3.33667 0
M  V30 1890 C 178.257 -1.71123 -4.02537 0
M  V30 1891 C 177.316 -1.23527 -5.11495 0
M  V30 1892 O 176.342 -1.93553 -5.35281 0
M  V30 1893 N 177.544 -0.0926678 -5.80426 0
M  V30 1894 H 180.309 -2.01633 -2.2173 0
M  V30 1895 H 177.87 -1.19248 -1.09505 0
M  V30 1896 H 179.862 -0.258686 -4.03872 0
M  V30 1897 H 178.432 0.265502 -3.1147 0
M  V30 1898 H 177.652 -2.21593 -3.26022 0
M  V30 1899 H 178.94 -2.46145 -4.45298 0
M  V30 1900 H 178.338 0.491741 -5.63559 0
M  V30 1901 H 176.895 0.182714 -6.51544 0
M  V30 1902 N 180.328 1.1314 -1.09713 0
M  V30 1903 C 181.258 2.20748 -0.761102 0
M  V30 1904 C 182.239 1.68061 0.262566 0
M  V30 1905 O 183.424 1.93765 0.129977 0
M  V30 1906 C 180.554 3.46812 -0.184054 0
M  V30 1907 C 179.508 4.12606 -1.13757 0
M  V30 1908 C 178.834 5.33031 -0.422083 0
M  V30 1909 C 180.134 4.59603 -2.48118 0
M  V30 1910 H 181.828 2.49113 -1.66082 0
M  V30 1911 H 179.374 1.19734 -0.799987 0
M  V30 1912 H 181.327 4.21353 0.0631215 0
M  V30 1913 H 180.051 3.17851 0.750868 0
M  V30 1914 H 178.71 3.40036 -1.37007 0
M  V30 1915 H 178.358 5.00335 0.517072 0
M  V30 1916 H 178.058 5.77999 -1.05788 0
M  V30 1917 H 179.582 6.10325 -0.183277 0
M  V30 1918 H 180.996 5.25552 -2.29059 0
M  V30 1919 H 179.393 5.15321 -3.07514 0
M  V30 1920 H 180.463 3.73971 -3.08665 0
M  V30 1921 N 181.806 0.884767 1.30421 0
M  V30 1922 C 182.736 0.367574 2.30589 0
M  V30 1923 C 183.717 -0.549464 1.60981 0
M  V30 1924 O 184.902 -0.46336 1.88591 0
M  V30 1925 C 182.032 -0.418944 3.44764 0
M  V30 1926 C 180.986 0.406316 4.26067 0
M  V30 1927 C 180.312 -0.506793 5.32293 0
M  V30 1928 C 181.612 1.64832 4.95608 0
M  V30 1929 H 183.306 1.20462 2.74097 0
M  V30 1930 H 180.852 0.580695 1.31772 0
M  V30 1931 H 182.805 -0.791395 4.13902 0
M  V30 1932 H 181.529 -1.28964 3.0006 0
M  V30 1933 H 180.188 0.760903 3.58617 0
M  V30 1934 H 179.836 -1.37519 4.83836 0
M  V30 1935 H 179.536 0.0415828 5.87585 0
M  V30 1936 H 181.06 -0.875764 6.04287 0
M  V30 1937 H 182.474 1.34646 5.57264 0
M  V30 1938 H 180.871 2.13688 5.60765 0
M  V30 1939 H 181.941 2.39284 4.21748 0
M  V30 1940 N 183.284 -1.43765 0.645699 0
M  V30 1941 C 184.234 -2.27884 -0.0726442 0
M  V30 1942 C 185.218 -1.39483 -0.802086 0
M  V30 1943 O 186.41 -1.63174 -0.685791 0
M  V30 1944 C 183.539 -3.27055 -1.04356 0
M  V30 1945 C 182.625 -4.22944 -0.312985 0
M  V30 1946 N 183.016 -5.01391 0.666386 0
M  V30 1947 C 181.314 -4.42528 -0.55546 0
M  V30 1948 C 182.015 -5.71217 1.09935 0
M  V30 1949 N 180.991 -5.41856 0.435137 0
M  V30 1950 H 184.793 -2.85949 0.678988 0
M  V30 1951 H 182.307 -1.55378 0.472368 0
M  V30 1952 H 184.304 -3.86089 -1.57292 0
M  V30 1953 H 182.964 -2.70551 -1.79534 0
M  V30 1954 H 183.975 -5.07252 1.04481 0
M  V30 1955 H 180.652 -3.97104 -1.28899 0
M  V30 1956 H 182.042 -6.44202 1.90929 0
M  V30 1957 N 184.763 -0.387143 -1.52771 0
M  V30 1958 C 185.693 0.440551 -2.29306 0
M  V30 1959 C 186.674 1.06535 -1.32606 0
M  V30 1960 O 187.859 1.07853 -1.61497 0
M  V30 1961 C 184.989 1.56919 -3.09829 0
M  V30 1962 C 183.943 1.07054 -4.14395 0
M  V30 1963 C 183.269 2.29109 -4.83129 0
M  V30 1964 C 184.569 0.140015 -5.22112 0
M  V30 1965 H 186.263 -0.198026 -2.98744 0
M  V30 1966 H 183.809 -0.09668 -1.43675 0
M  V30 1967 H 185.762 2.15503 -3.62128 0
M  V30 1968 H 184.486 2.23532 -2.3812 0
M  V30 1969 H 183.145 0.507247 -3.63074 0
M  V30 1970 H 182.793 2.94227 -4.0797 0
M  V30 1971 H 182.493 1.96406 -5.53804 0
M  V30 1972 H 184.017 2.88339 -5.38231 0
M  V30 1973 H 185.431 0.633978 -5.69784 0
M  V30 1974 H 183.828 -0.0971485 -6.00021 0
M  V30 1975 H 184.898 -0.811711 -4.78058 0
M  V30 1976 N 186.241 1.57166 -0.116904 0
M  V30 1977 C 187.188 2.15202 0.83408 0
M  V30 1978 C 188.158 1.07644 1.26499 0
M  V30 1979 O 189.343 1.35541 1.34288 0
M  V30 1980 C 186.483 2.75405 2.07957 0
M  V30 1981 C 185.596 3.97264 1.69721 0
M  V30 1982 C 184.731 4.45561 2.89221 0
M  V30 1983 C 183.77 5.59956 2.47215 0
M  V30 1984 N 182.907 6.03006 3.59622 0
M  V30 1985 H 187.747 2.96141 0.332335 0
M  V30 1986 H 185.284 1.46309 0.152349 0
M  V30 1987 H 187.242 3.08439 2.80929 0
M  V30 1988 H 185.872 1.97159 2.55594 0
M  V30 1989 H 184.924 3.70404 0.866316 0
M  V30 1990 H 186.236 4.80226 1.34849 0
M  V30 1991 H 185.39 4.80493 3.7042 0
M  V30 1992 H 184.129 3.61544 3.27318 0
M  V30 1993 H 183.134 5.2463 1.64448 0
M  V30 1994 H 184.359 6.45738 2.10238 0
M  V30 1995 H 182.305 5.21931 3.97396 0
M  V30 1996 H 182.222 6.80819 3.28667 0
M  V30 1997 H 183.49 6.42576 4.41267 0
M  V30 1998 N 187.719 -0.156864 1.56817 0
M  V30 1999 C 188.944 -0.890331 1.87318 0
M  V30 2000 C 189.369 -1.74394 0.704855 0
M  V30 2001 O 188.727 -1.77972 -0.345786 0
M  V30 2002 C 188.775 -1.73102 3.16336 0
M  V30 2003 O 187.879 -2.83422 2.99576 0
M  V30 2004 H 187.22 -0.24857 0.615718 0
M  V30 2005 H 189.75 -0.150649 2.04045 0
M  V30 2006 H 189.76 -2.12803 3.48107 0
M  V30 2007 H 188.435 -1.10412 4.00976 0
M  V30 2008 H 187.012 -2.47199 2.7919 0
M  V30 2009 N 189.197 -1.51736 -0.425897 0
M  V30 2010 C 190.145 -1.74464 -1.53834 0
M  V30 2011 C 191.139 -0.611241 -1.57988 0
M  V30 2012 O 192.345 -0.792899 -1.61596 0
M  V30 2013 H 188.72 -0.551437 -0.511293 0
M  V30 2014 H 190.691 -2.67694 -1.31843 0
M  V30 2015 C 189.44 -1.8972 -2.91379 0
M  V30 2016 H 188.763 -2.76344 -2.88919 0
M  V30 2017 H 190.203 -2.09629 -3.68553 0
M  V30 2018 C 188.662 -0.65992 -3.30374 0
M  V30 2019 O 189.192 0.180083 -4.01296 0
M  V30 2020 N 187.398 -0.500677 -2.86254 0
M  V30 2021 H 186.945 -1.18532 -2.28709 0
M  V30 2022 H 186.903 0.325903 -3.12706 0
M  V30 2023 N 190.675 0.682077 -1.42076 0
M  V30 2024 C 191.622 1.79578 -1.44984 0
M  V30 2025 C 192.592 1.6332 -0.302614 0
M  V30 2026 O 193.777 1.83978 -0.505633 0
M  V30 2027 C 190.917 3.1756 -1.35091 0
M  V30 2028 C 190.03 3.45156 -2.59791 0
M  V30 2029 C 189.165 4.72826 -2.42093 0
M  V30 2030 C 188.204 4.93433 -3.62202 0
M  V30 2031 N 187.341 6.12338 -3.43491 0
M  V30 2032 H 192.181 1.76427 -2.40161 0
M  V30 2033 H 189.718 0.861376 -1.19242 0
M  V30 2034 H 191.676 3.97287 -1.27354 0
M  V30 2035 H 190.306 3.19854 -0.435133 0
M  V30 2036 H 189.358 2.59736 -2.77923 0
M  V30 2037 H 190.67 3.5628 -3.49094 0
M  V30 2038 H 189.824 5.60631 -2.319 0
M  V30 2039 H 188.563 4.63973 -1.50268 0
M  V30 2040 H 187.568 4.04073 -3.72834 0
M  V30 2041 H 188.793 5.04136 -4.54998 0
M  V30 2042 H 186.739 6.04672 -2.54377 0
M  V30 2043 H 186.656 6.2429 -4.26377 0
M  V30 2044 H 187.924 7.02841 -3.37097 0
M  V30 2045 N 192.153 1.28127 0.917671 0
M  V30 2046 C 193.383 1.17722 1.6978 0
M  V30 2047 C 193.791 -0.267261 1.87303 0
M  V30 2048 O 193.134 -1.19286 1.39702 0
M  V30 2049 C 193.196 1.79958 3.11216 0
M  V30 2050 C 192.86 3.29187 3.16993 0
M  V30 2051 C 193.857 4.25679 2.98485 0
M  V30 2052 C 191.542 3.70075 3.39632 0
M  V30 2053 C 193.536 5.61035 3.02521 0
M  V30 2054 C 191.223 5.05557 3.433 0
M  V30 2055 C 192.221 6.00847 3.24764 0
M  V30 2056 O 191.909 7.33859 3.28187 0
M  V30 2057 H 191.641 0.409788 0.537634 0
M  V30 2058 H 194.195 1.69694 1.15728 0
M  V30 2059 H 192.425 1.22475 3.66793 0
M  V30 2060 H 194.114 1.64125 3.71238 0
M  V30 2061 H 194.88 3.95426 2.80826 0
M  V30 2062 H 190.759 2.96373 3.53106 0
M  V30 2063 H 194.303 6.35388 2.87971 0
M  V30 2064 H 190.2 5.35462 3.60486 0
M  V30 2065 H 190.968 7.42436 3.44575 0
M  V30 2066 N 193.631 -1.12557 1.10312 0
M  V30 2067 C 194.561 -2.20341 0.772798 0
M  V30 2068 C 195.542 -1.68198 -0.25365 0
M  V30 2069 O 196.727 -1.93831 -0.119699 0
M  V30 2070 C 193.857 -3.46709 0.202443 0
M  V30 2071 C 192.811 -4.11996 1.15943 0
M  V30 2072 C 192.137 -5.328 0.450345 0
M  V30 2073 C 193.437 -4.5828 2.50552 0
M  V30 2074 H 195.131 -2.48229 1.674 0
M  V30 2075 H 192.677 -1.19308 0.806326 0
M  V30 2076 H 194.63 -4.2138 -0.0407752 0
M  V30 2077 H 193.354 -3.18245 -0.734001 0
M  V30 2078 H 192.013 -3.39305 1.38808 0
M  V30 2079 H 191.661 -5.00602 -0.490531 0
M  V30 2080 H 191.361 -5.7743 1.08851 0
M  V30 2081 H 192.885 -6.10219 0.215642 0
M  V30 2082 H 194.299 -5.2433 2.31843 0
M  V30 2083 H 192.696 -5.13683 3.10242 0
M  V30 2084 H 193.766 -3.72329 3.10643 0
M  V30 2085 N 195.109 -0.891671 -1.2995 0
M  V30 2086 C 196.337 -0.52866 -2.00032 0
M  V30 2087 C 196.752 0.884574 -1.66795 0
M  V30 2088 O 196.109 1.5827 -0.908669 0
M  V30 2089 C 196.16 -0.701814 -3.54622 0
M  V30 2090 O 195.881 -2.05942 -3.86678 0
M  V30 2091 C 197.382 -0.342683 -4.41973 0
M  V30 2092 H 194.602 -0.203659 -0.639347 0
M  V30 2093 H 197.146 -1.19881 -1.65677 0
M  V30 2094 H 195.301 -0.0789468 -3.8732 0
M  V30 2095 H 195.715 -2.08291 -4.81368 0
M  V30 2096 H 197.189 -0.514709 -5.49595 0
M  V30 2097 H 197.666 0.71975 -4.33262 0
M  V30 2098 H 198.272 -0.942154 -4.14733 0
M  V30 2099 N 196.587 1.43421 -0.653314 0
M  V30 2100 C 197.833 2.02111 -0.166992 0
M  V30 2101 C 198.166 1.51423 1.21592 0
M  V30 2102 O 197.441 0.707389 1.8118 0
M  V30 2103 C 197.724 3.5966 -0.177948 0
M  V30 2104 C 197.577 4.20579 -1.59478 0
M  V30 2105 C 198.896 4.37413 0.4856 0
M  V30 2106 H 196.015 0.734374 -0.0621557 0
M  V30 2107 H 198.657 1.70717 -0.834016 0
M  V30 2108 H 196.807 3.86537 0.390032 0
M  V30 2109 H 198.479 4.04732 -2.21336 0
M  V30 2110 H 196.722 3.77226 -2.14204 0
M  V30 2111 H 197.393 5.29665 -1.5543 0
M  V30 2112 H 199.869 4.161 0.00234528 0
M  V30 2113 H 198.745 5.47075 0.447207 0
M  V30 2114 H 199.006 4.13672 1.55974 0
M  V30 2115 N 198.065 0.39524 1.52563 0
M  V30 2116 C 199.013 -0.451859 2.28169 0
M  V30 2117 C 200.007 -1.05792 1.32304 0
M  V30 2118 O 201.213 -0.997718 1.49818 0
M  V30 2119 H 197.588 -0.164481 0.733792 0
M  V30 2120 H 199.559 0.207199 2.9768 0
M  V30 2121 C 198.308 -1.56385 3.10546 0
M  V30 2122 H 197.631 -1.10682 3.84174 0
M  V30 2123 H 199.071 -2.13067 3.66577 0
M  V30 2124 C 197.53 -2.52328 2.23231 0
M  V30 2125 O 198.06 -3.5588 1.86312 0
M  V30 2126 N 196.266 -2.22209 1.87274 0
M  V30 2127 H 195.813 -1.38033 2.17496 0
M  V30 2128 H 195.771 -2.86652 1.29143 0
M  V30 2129 N 199.544 -1.57102 0.125237 0
M  V30 2130 C 200.491 -2.15641 -0.822655 0
M  V30 2131 C 201.461 -1.08313 -1.25927 0
M  V30 2132 O 202.646 -1.36251 -1.33567 0
M  V30 2133 C 199.786 -2.76504 -2.06494 0
M  V30 2134 C 198.899 -3.98158 -1.67612 0
M  V30 2135 C 198.034 -4.47088 -2.86854 0
M  V30 2136 C 197.073 -5.6126 -2.44242 0
M  V30 2137 N 196.21 -6.04905 -3.56419 0
M  V30 2138 H 201.05 -2.96313 -0.316625 0
M  V30 2139 H 198.587 -1.46388 -0.144588 0
M  V30 2140 H 200.545 -3.09925 -2.79289 0
M  V30 2141 H 199.175 -1.98512 -2.54545 0
M  V30 2142 H 198.227 -3.70858 -0.846661 0
M  V30 2143 H 199.539 -4.80934 -1.32301 0
M  V30 2144 H 198.693 -4.82451 -3.67867 0
M  V30 2145 H 197.432 -3.63275 -3.25396 0
M  V30 2146 H 196.437 -5.25495 -1.61663 0
M  V30 2147 H 197.662 -6.46843 -2.0681 0
M  V30 2148 H 195.608 -5.24032 -3.94623 0
M  V30 2149 H 195.525 -6.82552 -3.25051 0
M  V30 2150 H 196.793 -6.44907 -4.37853 0
M  V30 2151 N 201.022 0.148545 -1.56898 0
M  V30 2152 C 202.438 0.501131 -1.51528 0
M  V30 2153 C 202.638 1.83458 -0.833399 0
M  V30 2154 O 201.694 2.49259 -0.40328 0
M  V30 2155 C 203.007 0.512864 -2.96294 0
M  V30 2156 C 204.555 0.598487 -3.07225 0
M  V30 2157 C 205.03 0.640897 -4.53494 0
M  V30 2158 N 206.521 0.703163 -4.57832 0
M  V30 2159 C 207.256 0.756935 -5.68382 0
M  V30 2160 N 206.752 0.770147 -6.88506 0
M  V30 2161 N 208.545 0.797698 -5.56411 0
M  V30 2162 H 200.696 -0.725532 -1.99624 0
M  V30 2163 H 202.959 -0.264358 -0.910395 0
M  V30 2164 H 202.665 -0.398691 -3.49433 0
M  V30 2165 H 202.539 1.35133 -3.52163 0
M  V30 2166 H 204.926 1.50046 -2.54106 0
M  V30 2167 H 205.007 -0.267093 -2.54402 0
M  V30 2168 H 204.651 -0.256915 -5.0725 0
M  V30 2169 H 204.581 1.52295 -5.04097 0
M  V30 2170 H 207.072 0.700314 -3.71354 0
M  V30 2171 H 207.385 0.812983 -7.68512 0
M  V30 2172 H 205.73 0.738049 -6.9107 0
M  V30 2173 H 208.921 0.784535 -4.61479 0
M  V30 2174 H 209.094 0.83614 -6.42583 0
M  V30 2175 N 202.5 1.5196 0.417844 0
M  V30 2176 C 203.43 1.77634 1.51554 0
M  V30 2177 C 204.411 0.626918 1.58126 0
M  V30 2178 O 205.596 0.871632 1.7354 0
M  V30 2179 C 202.726 1.91911 2.8946 0
M  V30 2180 C 201.68 3.07463 2.97743 0
M  V30 2181 C 201.006 3.06951 4.37819 0
M  V30 2182 C 202.306 4.47082 2.70027 0
M  V30 2183 H 204 2.6955 1.3032 0
M  V30 2184 H 201.546 1.29706 0.625492 0
M  V30 2185 H 203.499 2.08455 3.6623 0
M  V30 2186 H 202.223 0.966598 3.11969 0
M  V30 2187 H 200.882 2.90656 2.23416 0
M  V30 2188 H 200.53 2.09438 4.57323 0
M  V30 2189 H 200.23 3.84556 4.44286 0
M  V30 2190 H 201.754 3.25613 5.16535 0
M  V30 2191 H 203.168 4.6414 3.36522 0
M  V30 2192 H 201.565 5.2654 2.87881 0
M  V30 2193 H 202.635 4.55777 1.65514 0
M  V30 2194 N 203.978 -0.674533 1.42435 0
M  V30 2195 C 205.389 -1.25514 1.38214 0
M  V30 2196 C 205.74 -1.96055 0.0755464 0
M  V30 2197 O 204.865 -2.00028 -0.8257 0
M  V30 2198 C 205.46 -2.28269 2.50357 0
M  V30 2199 C 204.019 -2.81856 2.49467 0
M  V30 2200 C 203.166 -1.56182 2.29134 0
M  V30 2201 H 206.117 -0.467902 1.51646 0
M  V30 2202 H 206.138 -3.10009 2.20624 0
M  V30 2203 H 205.65 -1.769 3.45439 0
M  V30 2204 H 203.751 -3.37346 1.58204 0
M  V30 2205 H 203.864 -3.30854 3.46515 0
M  V30 2206 H 202.228 -1.82761 1.774 0
M  V30 2207 H 203.011 -1.06778 3.26272 0
M  V30 2208 N 205.456 -1.28612 -0.910864 0
M  V30 2209 C 206.419 -1.12803 -1.9952 0
M  V30 2210 C 207.419 -0.0668264 -1.60661 0
M  V30 2211 O 208.609 -0.312847 -1.71368 0
M  V30 2212 C 205.741 -0.72254 -3.33155 0
M  V30 2213 H 206.934 -2.09109 -2.14973 0
M  V30 2214 H 204.487 -1.11639 -1.09391 0
M  V30 2215 H 205.222 0.241152 -3.23402 0
M  V30 2216 H 205.007 -1.48916 -3.62721 0
M  V30 2217 H 206.497 -0.634666 -4.12749 0
M  V30 2218 N 206.934 1.1197 -1.10907 0
M  V30 2219 C 207.864 2.19928 -0.784473 0
M  V30 2220 C 208.845 1.6833 0.244726 0
M  V30 2221 O 210.03 1.93892 0.109418 0
M  V30 2222 C 207.16 3.46597 -0.220827 0
M  V30 2223 C 206.114 4.11376 -1.18127 0
M  V30 2224 C 205.44 5.32554 -0.478594 0
M  V30 2225 C 206.74 4.56945 -2.52979 0
M  V30 2226 H 208.434 2.47337 -1.68715 0
M  V30 2227 H 205.98 1.18879 -0.812642 0
M  V30 2228 H 207.933 4.21396 0.0184278 0
M  V30 2229 H 206.657 3.1863 0.717113 0
M  V30 2230 H 205.316 3.38564 -1.40606 0
M  V30 2231 H 204.964 5.00856 0.463976 0
M  V30 2232 H 204.664 5.76844 -1.11912 0
M  V30 2233 H 206.188 6.10096 -0.248 0
M  V30 2234 H 207.602 5.23093 -2.3462 0
M  V30 2235 H 205.999 5.1203 -3.12962 0
M  V30 2236 H 207.069 3.70676 -3.12614 0
M  V30 2237 N 208.412 0.89855 1.29475 0
M  V30 2238 C 209.342 0.39201 2.30186 0
M  V30 2239 C 210.323 -0.532359 1.61555 0
M  V30 2240 O 211.508 -0.443331 1.89072 0
M  V30 2241 C 208.638 -0.382353 3.45189 0
M  V30 2242 C 207.592 0.451483 4.25612 0
M  V30 2243 C 206.918 -0.450307 5.328 0
M  V30 2244 C 208.218 1.70079 4.93832 0
M  V30 2245 H 209.912 1.23362 2.72804 0
M  V30 2246 H 207.458 0.594638 1.31149 0
M  V30 2247 H 209.411 -0.747451 4.14718 0
M  V30 2248 H 208.135 -1.25774 3.01411 0
M  V30 2249 H 206.794 0.798897 3.57789 0
M  V30 2250 H 206.442 -1.32379 4.85268 0
M  V30 2251 H 206.142 0.103902 5.87508 0
M  V30 2252 H 207.666 -0.811623 6.05182 0
M  V30 2253 H 209.08 1.40549 5.55805 0
M  V30 2254 H 207.477 2.19623 5.58467 0
M  V30 2255 H 208.547 2.43744 4.19186 0
M  V30 2256 N 209.89 -1.43072 0.660911 0
M  V30 2257 C 210.8 -2.34585 -0.0264163 0
M  V30 2258 C 211.816 -1.54316 -0.803898 0
M  V30 2259 O 212.992 -1.86939 -0.749391 0
M  V30 2260 C 210.057 -3.32689 -0.975639 0
M  V30 2261 C 209.118 -4.2886 -0.194236 0
M  V30 2262 C 208.351 -5.22278 -1.09825 0
M  V30 2263 O 208.574 -5.20299 -2.33763 0
M  V30 2264 O 207.508 -5.99228 -0.566513 0
M  V30 2265 H 211.334 -2.94869 0.727034 0
M  V30 2266 H 208.919 -1.43342 0.42111 0
M  V30 2267 H 210.801 -3.92995 -1.52094 0
M  V30 2268 H 209.476 -2.74898 -1.70918 0
M  V30 2269 H 208.383 -3.72011 0.394835 0
M  V30 2270 H 209.716 -4.89655 0.499899 0
M  V30 2271 N 211.368 -0.403325 -1.52352 0
M  V30 2272 C 212.315 0.425011 -2.26853 0
M  V30 2273 C 213.285 1.04598 -1.29029 0
M  V30 2274 O 214.47 1.07135 -1.57882 0
M  V30 2275 C 211.61 1.53888 -3.08889 0
M  V30 2276 C 210.723 0.939396 -4.21663 0
M  V30 2277 C 209.858 2.02547 -4.91068 0
M  V30 2278 C 208.897 1.40263 -5.95813 0
M  V30 2279 N 208.034 2.4286 -6.58759 0
M  V30 2280 H 212.874 -0.21674 -2.97211 0
M  V30 2281 H 210.411 -0.118722 -1.4662 0
M  V30 2282 H 212.369 2.19558 -3.54753 0
M  V30 2283 H 210.999 2.15074 -2.40714 0
M  V30 2284 H 210.051 0.171898 -3.80011 0
M  V30 2285 H 211.363 0.44436 -4.96817 0
M  V30 2286 H 210.517 2.75958 -5.40308 0
M  V30 2287 H 209.256 2.55415 -4.15469 0
M  V30 2288 H 208.261 0.653833 -5.45898 0
M  V30 2289 H 209.486 0.881719 -6.73352 0
M  V30 2290 H 207.432 2.94871 -5.85992 0
M  V30 2291 H 207.349 1.98152 -7.2957 0
M  V30 2292 H 208.617 3.15858 -7.12639 0
M  V30 2293 N 212.846 1.57033 -0.133567 0
M  V30 2294 C 213.794 2.17348 0.828412 0
M  V30 2295 C 214.788 1.12671 1.26498 0
M  V30 2296 O 215.994 1.30947 1.23502 0
M  V30 2297 H 212.369 0.695775 0.285309 0
M  V30 2298 H 214.34 2.96935 0.295372 0
M  V30 2299 C 213.089 2.79893 2.06289 0
M  V30 2300 H 212.412 3.60147 1.73592 0
M  V30 2301 H 213.852 3.25615 2.71572 0
M  V30 2302 C 212.311 1.77713 2.86216 0
M  V30 2303 O 212.841 1.23937 3.82103 0
M  V30 2304 N 211.047 1.47321 2.50489 0
M  V30 2305 H 210.594 1.91243 1.7258 0
M  V30 2306 H 210.552 0.79199 3.04261 0
M  V30 2307 N 214.325 -0.140222 1.56975 0
M  V30 2308 C 215.288 -1.15689 1.97861 0
M  V30 2309 C 216.288 -1.3549 0.865974 0
M  V30 2310 O 217.478 -1.32367 1.13246 0
M  V30 2311 C 214.61 -2.51582 2.30042 0
M  V30 2312 H 215.803 -0.805971 2.88867 0
M  V30 2313 H 213.356 -0.383801 1.51515 0
M  V30 2314 H 214.091 -2.91632 1.41849 0
M  V30 2315 H 213.876 -2.38569 3.11171 0
M  V30 2316 H 215.366 -3.24792 2.62488 0
M  V30 2317 N 215.803 -1.52179 -0.40978 0
M  V30 2318 C 216.736 -1.70196 -1.52015 0
M  V30 2319 C 217.714 -0.549542 -1.53032 0
M  V30 2320 O 218.898 -0.776815 -1.71749 0
M  V30 2321 C 216.025 -1.74069 -2.90547 0
M  V30 2322 C 215.071 -2.95601 -3.07445 0
M  V30 2323 S 215.904 -4.55956 -2.80827 0
M  V30 2324 C 217.06 -4.62614 -4.21591 0
M  V30 2325 H 217.293 -2.64109 -1.36504 0
M  V30 2326 H 214.826 -1.4221 -0.601312 0
M  V30 2327 H 216.784 -1.76985 -3.70387 0
M  V30 2328 H 215.445 -0.812835 -3.034 0
M  V30 2329 H 214.638 -2.94791 -4.08796 0
M  V30 2330 H 214.24 -2.90569 -2.35469 0
M  V30 2331 H 216.532 -4.39951 -5.15218 0
M  V30 2332 H 217.475 -5.64548 -4.27424 0
M  V30 2333 H 217.883 -3.91654 -4.06531 0
M  V30 2334 N 217.281 0.66697 -1.42791 0
M  V30 2335 C 218.697 0.981027 -1.25889 0
M  V30 2336 C 218.897 2.00793 -0.168695 0
M  V30 2337 O 217.953 2.48321 0.45747 0
M  V30 2338 C 219.266 1.47838 -2.61848 0
M  V30 2339 C 220.814 1.59575 -2.69267 0
M  V30 2340 C 221.289 2.12704 -4.05612 0
M  V30 2341 N 222.78 2.20026 -4.07606 0
M  V30 2342 C 223.515 2.62227 -5.09926 0
M  V30 2343 N 223.011 3.03824 -6.22626 0
M  V30 2344 N 224.804 2.62045 -4.97281 0
M  V30 2345 H 216.955 -0.0127891 -2.12396 0
M  V30 2346 H 219.218 0.0568258 -0.946295 0
M  V30 2347 H 218.924 0.798299 -3.4252 0
M  V30 2348 H 218.798 2.45579 -2.86305 0
M  V30 2349 H 221.185 2.26687 -1.88936 0
M  V30 2350 H 221.266 0.60302 -2.48591 0
M  V30 2351 H 220.91 1.46198 -4.86404 0
M  V30 2352 H 220.84 3.12782 -4.23645 0
M  V30 2353 H 223.331 1.90708 -3.2625 0
M  V30 2354 H 223.644 3.34734 -6.96544 0
M  V30 2355 H 221.989 3.01662 -6.26119 0
M  V30 2356 H 225.18 2.28916 -4.08308 0
M  V30 2357 H 225.353 2.94613 -5.77154 0
M  V30 2358 N 218.759 1.29093 0.90403 0
M  V30 2359 C 220.005 1.16986 1.65656 0
M  V30 2360 C 220.338 -0.278925 1.92186 0
M  V30 2361 O 219.613 -1.2019 1.5292 0
M  V30 2362 C 219.896 1.97908 3.0084 0
M  V30 2363 C 219.749 3.50903 2.81403 0
M  V30 2364 C 221.068 1.80208 4.01513 0
M  V30 2365 H 218.187 0.426346 0.601164 0
M  V30 2366 H 220.829 1.58518 1.04747 0
M  V30 2367 H 218.979 1.62616 3.52829 0
M  V30 2368 H 220.651 3.96153 2.36348 0
M  V30 2369 H 218.894 3.76045 2.1627 0
M  V30 2370 H 219.565 4.02791 3.77443 0
M  V30 2371 H 222.041 2.11025 3.58619 0
M  V30 2372 H 220.917 2.39184 4.94047 0
M  V30 2373 H 221.178 0.756119 4.35586 0
M  V30 2374 N 220.237 -1.11381 1.11499 0
M  V30 2375 C 221.465 -1.86934 0.88675 0
M  V30 2376 C 221.88 -1.80195 -0.563476 0
M  V30 2377 O 221.237 -1.18367 -1.38908 0
M  V30 2378 C 221.288 -3.35722 1.34064 0
M  V30 2379 O 221.009 -3.4232 2.73401 0
M  V30 2380 C 222.51 -4.2818 1.14791 0
M  V30 2381 H 219.73 -0.591117 0.317523 0
M  V30 2382 H 222.274 -1.40865 1.48248 0
M  V30 2383 H 220.429 -3.79294 0.788355 0
M  V30 2384 H 220.843 -4.34971 2.93087 0
M  V30 2385 H 222.317 -5.30817 1.5145 0
M  V30 2386 H 222.794 -4.39113 0.0875279 0
M  V30 2387 H 223.4 -3.90402 1.68721 0
M  V30 2388 N 221.715 -0.905404 -1.28997 0
M  V30 2389 C 222.645 -0.404212 -2.29975 0
M  V30 2390 C 223.626 0.523784 -1.61835 0
M  V30 2391 O 224.811 0.433298 -1.89304 0
M  V30 2392 C 221.941 0.364042 -3.45387 0
M  V30 2393 C 220.895 -0.474048 -4.25367 0
M  V30 2394 C 220.221 0.422045 -5.33032 0
M  V30 2395 C 221.521 -1.72696 -4.92923 0
M  V30 2396 H 223.215 -1.24807 -2.72146 0
M  V30 2397 H 220.761 -0.601585 -1.30832 0
M  V30 2398 H 222.714 0.725447 -4.15109 0
M  V30 2399 H 221.438 1.24174 -3.02074 0
M  V30 2400 H 220.097 -0.81786 -3.57361 0
M  V30 2401 H 219.745 1.29804 -4.85963 0
M  V30 2402 H 219.445 -0.135057 -5.87445 0
M  V30 2403 H 220.969 0.779517 -6.05604 0
M  V30 2404 H 222.383 -1.43495 -5.55051 0
M  V30 2405 H 220.78 -2.22582 -5.57295 0
M  V30 2406 H 221.85 -2.45964 -4.17887 0
M  V30 2407 N 223.193 1.4272 -0.668489 0
M  V30 2408 C 224.47 1.95248 -0.117373 0
M  V30 2409 C 224.85 1.60919 1.36632 0
M  V30 2410 O 224.198 0.902095 2.09939 0
M  V30 2411 C 224.408 3.46927 -0.379806 0
M  V30 2412 C 225.756 4.23588 -0.292923 0
M  V30 2413 O 226.78 3.5482 -0.313204 0
M  V30 2414 O 225.639 5.46017 -0.229697 0
M  V30 2415 H 222.733 0.827 0.00079152 0
M  V30 2416 H 225.279 1.52581 -0.742783 0
M  V30 2417 H 224.051 3.65096 -1.40786 0
M  V30 2418 H 223.674 3.96627 0.277923 0
M  V30 2419 N 224.671 0.411399 1.52136 0
M  V30 2420 C 225.581 -0.419774 2.30814 0
M  V30 2421 C 226.597 -1.0515 1.38634 0
M  V30 2422 O 227.773 -1.05252 1.71709 0
M  V30 2423 C 224.838 -1.52019 3.11594 0
M  V30 2424 C 223.899 -0.91129 4.19516 0
M  V30 2425 C 223.132 -1.95927 4.96436 0
M  V30 2426 O 223.355 -3.17775 4.73683 0
M  V30 2427 O 222.289 -1.56423 5.81219 0
M  V30 2428 H 226.115 0.221805 3.02889 0
M  V30 2429 H 223.7 0.174547 1.48377 0
M  V30 2430 H 225.582 -2.15898 3.61892 0
M  V30 2431 H 224.257 -2.14633 2.42311 0
M  V30 2432 H 223.164 -0.235157 3.7336 0
M  V30 2433 H 224.497 -0.32904 4.91099 0
M  V30 2434 N 226.149 -1.5696 0.141893 0
M  V30 2435 C 227.112 -2.15316 -0.785587 0
M  V30 2436 C 228.112 -1.09366 -1.1788 0
M  V30 2437 O 229.302 -1.35031 -1.10056 0
M  V30 2438 C 226.434 -2.71211 -2.06537 0
M  V30 2439 H 227.627 -2.98608 -0.278041 0
M  V30 2440 H 225.18 -1.5593 -0.107519 0
M  V30 2441 H 225.915 -1.91571 -2.6167 0
M  V30 2442 H 225.7 -3.4872 -1.79268 0
M  V30 2443 H 227.19 -3.16189 -2.72789 0
M  V30 2444 N 227.627 0.131896 -1.57047 0
M  V30 2445 C 228.875 0.840269 -1.83804 0
M  V30 2446 C 229.196 1.81017 -0.72512 0
M  V30 2447 O 228.466 1.94272 0.251995 0
M  V30 2448 H 227.046 0.313294 -0.678127 0
M  V30 2449 H 229.708 0.122294 -1.94516 0
M  V30 2450 H 228.804 1.39335 -2.79271 0
M  V30 2451 N 229.106 1.52395 0.401703 0
M  V30 2452 C 230.054 1.7689 1.51039 0
M  V30 2453 C 231.048 0.636298 1.56996 0
M  V30 2454 O 232.254 0.818507 1.60314 0
M  V30 2455 H 228.629 0.559502 0.502456 0
M  V30 2456 H 230.6 2.69757 1.27568 0
M  V30 2457 C 229.349 1.94331 2.88324 0
M  V30 2458 H 228.672 2.80905 2.84486 0
M  V30 2459 H 230.112 2.15466 3.65172 0
M  V30 2460 C 228.571 0.712396 3.29282 0
M  V30 2461 O 229.101 -0.116218 4.01532 0
M  V30 2462 N 227.307 0.546154 2.85422 0
M  V30 2463 H 226.854 1.22156 2.26794 0
M  V30 2464 H 226.812 -0.276113 3.13185 0
M  V30 2465 N 230.584 -0.659388 1.43143 0
M  V30 2466 C 231.494 -1.80167 1.50256 0
M  V30 2467 C 232.51 -1.69571 0.390106 0
M  V30 2468 O 233.686 -1.90849 0.643319 0
M  V30 2469 C 230.751 -3.16409 1.41725 0
M  V30 2470 C 229.812 -3.38848 2.63591 0
M  V30 2471 C 229.045 -4.68591 2.55458 0
M  V30 2472 O 229.268 -5.47532 1.59891 0
M  V30 2473 O 228.202 -4.92614 3.45854 0
M  V30 2474 H 232.028 -1.77121 2.46702 0
M  V30 2475 H 229.613 -0.817092 1.25076 0
M  V30 2476 H 231.495 -3.9768 1.39387 0
M  V30 2477 H 230.17 -3.20059 0.484118 0
M  V30 2478 H 229.077 -2.57366 2.71502 0
M  V30 2479 H 230.41 -3.4004 3.55856 0
M  V30 2480 N 232.062 -1.29571 -0.897171 0
M  V30 2481 C 233.31 -1.17456 -1.64464 0
M  V30 2482 C 233.631 0.273698 -1.9307 0
M  V30 2483 O 232.901 1.18684 -1.55855 0
M  V30 2484 H 231.481 -0.431706 -0.609622 0
M  V30 2485 H 234.143 -1.62531 -1.07562 0
M  V30 2486 H 233.239 -1.72648 -2.59998 0
M  V30 2487 N 233.54 1.10788 -1.12088 0
M  V30 2488 C 234.765 1.87002 -0.896949 0
M  V30 2489 C 235.19 1.79933 0.548261 0
M  V30 2490 O 234.548 1.16662 1.38779 0
M  V30 2491 C 234.596 3.3349 -1.37174 0
M  V30 2492 O 233.7 4.08745 -0.547831 0
M  V30 2493 H 233.041 0.580397 -0.322545 0
M  V30 2494 H 235.571 1.39996 -1.49206 0
M  V30 2495 H 235.581 3.84339 -1.36922 0
M  V30 2496 H 234.256 3.37951 -2.42408 0
M  V30 2497 H 232.833 3.6776 -0.617034 0
M  V30 2498 N 235.018 0.912232 1.28515 0
M  V30 2499 C 236.264 0.554851 1.95686 0
M  V30 2500 C 236.619 -0.89138 1.70506 0
M  V30 2501 O 235.912 -1.62529 1.01464 0
M  V30 2502 C 236.106 0.798392 3.48368 0
M  V30 2503 C 235.935 2.26674 3.88393 0
M  V30 2504 C 234.705 2.91657 4.12631 0
M  V30 2505 C 236.903 3.24303 3.99164 0
M  V30 2506 N 234.885 4.28805 4.39317 0
M  V30 2507 C 236.256 4.4661 4.30046 0
M  V30 2508 C 238.311 3.19723 3.81683 0
M  V30 2509 C 237.014 5.64915 4.45268 0
M  V30 2510 C 239.04 4.37325 3.98121 0
M  V30 2511 C 238.402 5.58406 4.29375 0
M  V30 2512 H 234.501 0.252876 0.739985 0
M  V30 2513 H 237.085 1.17565 1.55199 0
M  V30 2514 H 235.256 0.20688 3.87849 0
M  V30 2515 H 236.988 0.405193 4.02666 0
M  V30 2516 H 233.743 2.42393 4.06869 0
M  V30 2517 H 234.167 4.99712 4.56746 0
M  V30 2518 H 238.809 2.27191 3.56573 0
M  V30 2519 H 236.527 6.57927 4.6921 0
M  V30 2520 H 240.113 4.35282 3.86033 0
M  V30 2521 H 238.993 6.47889 4.41825 0
M  V30 2522 N 236.496 -1.42363 0.676048 0
M  V30 2523 C 237.743 -2.01522 0.19883 0
M  V30 2524 C 238.071 -1.53456 -1.19505 0
M  V30 2525 O 237.326 -0.727967 -1.81657 0
M  V30 2526 C 237.625 -3.56929 0.183431 0
M  V30 2527 C 237.291 -4.24431 1.52215 0
M  V30 2528 C 235.953 -4.42585 1.8887 0
M  V30 2529 C 238.305 -4.62459 2.40377 0
M  V30 2530 C 235.633 -4.96039 3.13309 0
M  V30 2531 C 237.985 -5.17294 3.64129 0
M  V30 2532 C 236.649 -5.33661 4.00951 0
M  V30 2533 H 235.919 -0.737419 0.0727571 0
M  V30 2534 H 238.566 -1.70531 0.871281 0
M  V30 2535 H 236.871 -3.87594 -0.572532 0
M  V30 2536 H 238.568 -4.00486 -0.203035 0
M  V30 2537 H 235.158 -4.10661 1.22701 0
M  V30 2538 H 239.342 -4.48105 2.13343 0
M  V30 2539 H 234.598 -5.06896 3.41857 0
M  V30 2540 H 238.772 -5.45704 4.32644 0
M  V30 2541 H 236.399 -5.74845 4.9745 0
M  V30 2542 N 237.974 -0.419461 -1.51915 0
M  V30 2543 C 239.204 0.151915 -2.06041 0
M  V30 2544 C 239.612 1.38539 -1.28855 0
M  V30 2545 O 238.955 1.80592 -0.336463 0
M  V30 2546 C 239.017 0.557119 -3.55157 0
M  V30 2547 C 238.681 -0.567054 -4.53468 0
M  V30 2548 C 239.678 -1.43379 -4.99738 0
M  V30 2549 C 237.363 -0.742693 -4.96779 0
M  V30 2550 C 239.357 -2.46102 -5.87973 0
M  V30 2551 C 237.044 -1.77322 -5.84808 0
M  V30 2552 C 238.042 -2.63078 -6.30301 0
M  V30 2553 O 237.73 -3.64364 -7.16585 0
M  V30 2554 H 237.462 0.0193293 -0.675724 0
M  V30 2555 H 240.016 -0.592073 -1.96682 0
M  V30 2556 H 238.246 1.35355 -3.62238 0
M  V30 2557 H 239.935 1.05759 -3.9188 0
M  V30 2558 H 240.701 -1.30954 -4.66986 0
M  V30 2559 H 236.58 -0.0848307 -4.60922 0
M  V30 2560 H 240.124 -3.13071 -6.23404 0
M  V30 2561 H 236.021 -1.89773 -6.16974 0
M  V30 2562 H 236.789 -3.60731 -7.34721 0
M  V30 2563 N 239.452 1.56882 -0.150215 0
M  V30 2564 C 240.701 1.95403 0.500071 0
M  V30 2565 C 241.014 1.03777 1.658 0
M  V30 2566 O 242.22 1.31889 2.37313 0
M  V30 2567 C 240.676 3.4738 0.941018 0
M  V30 2568 C 240.284 4.47596 -0.190158 0
M  V30 2569 C 242.028 3.9476 1.56091 0
M  V30 2570 C 239.935 5.90787 0.269237 0
M  V30 2571 H 238.865 0.729515 0.190588 0
M  V30 2572 H 241.516 1.81988 -0.235074 0
M  V30 2573 H 239.898 3.56138 1.73152 0
M  V30 2574 H 241.072 4.50536 -0.967157 0
M  V30 2575 H 239.387 4.10151 -0.718666 0
M  V30 2576 H 241.984 4.99181 1.9163 0
M  V30 2577 H 242.327 3.36494 2.45107 0
M  V30 2578 H 242.86 3.88932 0.835249 0
M  V30 2579 H 239.599 6.52879 -0.585621 0
M  V30 2580 H 239.119 5.912 1.01204 0
M  V30 2581 H 240.798 6.42979 0.720176 0
M  V30 2582 N 240.93 -0.123565 1.57115 0
M  V30 2583 C 241.862 -1.17739 1.96648 0
M  V30 2584 C 242.875 -1.37906 0.865201 0
M  V30 2585 O 244.064 -1.37062 1.14351 0
M  V30 2586 C 241.164 -2.53821 2.24562 0
M  V30 2587 C 240.337 -2.54317 3.55867 0
M  V30 2588 C 239.396 -3.72112 3.72047 0
M  V30 2589 O 238.422 -3.55907 4.44206 0
M  V30 2590 N 239.624 -4.90498 3.10471 0
M  V30 2591 H 242.389 -0.841147 2.87654 0
M  V30 2592 H 239.95 -0.31289 1.58848 0
M  V30 2593 H 241.942 -3.31175 2.32606 0
M  V30 2594 H 240.512 -2.79645 1.39705 0
M  V30 2595 H 239.732 -1.62711 3.59053 0
M  V30 2596 H 241.02 -2.51701 4.42181 0
M  V30 2597 H 240.418 -5.06567 2.51806 0
M  V30 2598 H 238.975 -5.65544 3.24043 0
M  V30 2599 N 242.408 -1.52605 -0.393616 0
M  V30 2600 C 243.819 -1.59417 -0.971761 0
M  V30 2601 C 244.17 -0.444173 -1.91106 0
M  V30 2602 O 243.295 0.433382 -2.12016 0
M  V30 2603 C 243.89 -2.88936 -1.76921 0
M  V30 2604 C 242.449 -2.98175 -2.29714 0
M  V30 2605 C 241.596 -2.54491 -1.10135 0
M  V30 2606 H 244.547 -1.57751 -0.173317 0
M  V30 2607 H 244.568 -2.75163 -2.62804 0
M  V30 2608 H 244.08 -3.72616 -1.08532 0
M  V30 2609 H 242.181 -2.19024 -3.01429 0
M  V30 2610 H 242.294 -4.02726 -2.59517 0
M  V30 2611 H 240.658 -2.08702 -1.45999 0
M  V30 2612 H 241.441 -3.4056 -0.432874 0
M  V30 2613 N 243.887 0.651787 -1.4349 0
M  V30 2614 C 245.134 1.41167 -1.45183 0
M  V30 2615 C 245.462 1.94349 -0.0766601 0
M  V30 2616 O 244.717 1.72804 0.918555 0
M  V30 2617 C 245.016 2.60914 -2.44251 0
M  V30 2618 C 244.682 2.26142 -3.9009 0
M  V30 2619 C 243.344 2.16371 -4.2981 0
M  V30 2620 C 245.696 1.98334 -4.81989 0
M  V30 2621 C 243.024 1.7695 -5.5938 0
M  V30 2622 C 245.376 1.6041 -6.11924 0
M  V30 2623 C 244.04 1.49166 -6.5062 0
M  V30 2624 H 243.31 0.516566 -0.531263 0
M  V30 2625 H 245.957 0.741099 -1.76579 0
M  V30 2626 H 244.262 3.3311 -2.06265 0
M  V30 2627 H 245.959 3.19127 -2.42815 0
M  V30 2628 H 242.549 2.34658 -3.58655 0
M  V30 2629 H 246.733 2.04803 -4.52072 0
M  V30 2630 H 241.989 1.66831 -5.88198 0
M  V30 2631 H 246.163 1.37925 -6.82605 0
M  V30 2632 H 243.79 1.1839 -7.50925 0
M  V30 2633 N 245.365 1.30045 0.890287 0
M  V30 2634 C 246.595 1.21296 1.67245 0
M  V30 2635 C 247.003 -0.227471 1.87828 0
M  V30 2636 O 246.346 -1.16296 1.422 0
M  V30 2637 C 246.408 1.86519 3.07329 0
M  V30 2638 C 246.072 3.35837 3.09939 0
M  V30 2639 C 247.069 4.31915 2.89389 0
M  V30 2640 C 244.754 3.77196 3.31706 0
M  V30 2641 C 246.748 5.67325 2.90552 0
M  V30 2642 C 244.435 5.12725 3.32499 0
M  V30 2643 C 245.433 6.076 3.11947 0
M  V30 2644 O 245.121 7.40655 3.12547 0
M  V30 2645 H 244.853 0.4211 0.528821 0
M  V30 2646 H 247.407 1.72111 1.12103 0
M  V30 2647 H 245.637 1.30228 3.64112 0
M  V30 2648 H 247.326 1.71963 3.67673 0
M  V30 2649 H 248.092 4.01294 2.72375 0
M  V30 2650 H 243.971 3.03796 3.4674 0
M  V30 2651 H 247.515 6.41354 2.74429 0
M  V30 2652 H 243.412 5.42988 3.49047 0
M  V30 2653 H 244.18 7.49577 3.28749 0
M  V30 2654 N 246.843 -1.10192 1.12674 0
M  V30 2655 C 247.79 -2.16606 0.796906 0
M  V30 2656 C 248.76 -1.64394 -0.237476 0
M  V30 2657 O 249.945 -1.90474 -0.111484 0
M  V30 2658 C 247.085 -3.44116 0.26043 0
M  V30 2659 C 246.198 -4.10268 1.35293 0
M  V30 2660 C 245.333 -5.25507 0.775621 0
M  V30 2661 C 244.372 -5.83567 1.84706 0
M  V30 2662 N 243.509 -6.90179 1.28829 0
M  V30 2663 H 248.349 -2.44163 1.70846 0
M  V30 2664 H 245.886 -1.19846 0.85295 0
M  V30 2665 H 247.844 -4.17143 -0.0686814 0
M  V30 2666 H 246.474 -3.16901 -0.614274 0
M  V30 2667 H 245.526 -3.35184 1.79877 0
M  V30 2668 H 246.838 -4.4946 2.16303 0
M  V30 2669 H 245.992 -6.05398 0.397327 0
M  V30 2670 H 244.731 -4.87656 -0.0656581 0
M  V30 2671 H 243.736 -5.02344 2.23452 0
M  V30 2672 H 244.961 -6.23482 2.69161 0
M  V30 2673 H 242.907 -6.54322 0.468881 0
M  V30 2674 H 242.824 -7.28097 2.03497 0
M  V30 2675 H 244.092 -7.73844 0.937311 0
M  V30 2676 N 248.321 -0.919034 -1.28029 0
M  V30 2677 C 249.251 -0.428581 -2.29533 0
M  V30 2678 C 250.232 0.50659 -1.62381 0
M  V30 2679 O 251.417 0.413195 -1.89753 0
M  V30 2680 C 248.547 0.327388 -3.45753 0
M  V30 2681 C 247.501 -0.519137 -4.2484 0
M  V30 2682 C 246.827 0.365486 -5.33449 0
M  V30 2683 C 248.127 -1.77914 -4.91064 0
M  V30 2684 H 249.821 -1.27687 -2.70807 0
M  V30 2685 H 247.367 -0.615428 -1.30186 0
M  V30 2686 H 249.32 0.681378 -4.15855 0
M  V30 2687 H 248.044 1.20963 -3.03374 0
M  V30 2688 H 246.703 -0.855717 -3.56473 0
M  V30 2689 H 246.351 1.24642 -4.87312 0
M  V30 2690 H 246.051 -0.197356 -5.87268 0
M  V30 2691 H 247.575 0.715241 -6.06396 0
M  V30 2692 H 248.989 -1.49374 -5.53498 0
M  V30 2693 H 247.386 -2.2848 -5.54903 0
M  V30 2694 H 248.456 -2.50382 -4.15255 0
M  V30 2695 N 249.799 1.42003 -0.683588 0
M  V30 2696 C 251.215 1.55625 -0.353976 0
M  V30 2697 C 251.415 1.66151 1.14 0
M  V30 2698 O 250.471 1.63329 1.92561 0
M  V30 2699 C 251.784 2.80171 -1.092 0
M  V30 2700 C 253.332 2.93954 -1.07518 0
M  V30 2701 C 253.807 4.21372 -1.79471 0
M  V30 2702 N 255.298 4.28303 -1.76381 0
M  V30 2703 C 256.033 5.25729 -2.28904 0
M  V30 2704 N 255.529 6.29254 -2.89846 0
M  V30 2705 N 257.322 5.17586 -2.19228 0
M  V30 2706 H 249.473 1.33415 -1.6527 0
M  V30 2707 H 251.736 0.64282 -0.696769 0
M  V30 2708 H 251.442 2.78561 -2.14701 0
M  V30 2709 H 251.316 3.7133 -0.662862 0
M  V30 2710 H 253.703 2.95086 -0.028475 0
M  V30 2711 H 253.784 2.04002 -1.54328 0
M  V30 2712 H 253.428 4.21001 -2.84114 0
M  V30 2713 H 253.358 5.10275 -1.30104 0
M  V30 2714 H 255.849 3.54119 -1.31939 0
M  V30 2715 H 256.162 6.99964 -3.27522 0
M  V30 2716 H 254.507 6.29791 -2.93919 0
M  V30 2717 H 257.698 4.35631 -1.71299 0
M  V30 2718 H 257.871 5.93348 -2.60466 0
M  V30 2719 N 251.277 0.427512 1.51691 0
M  V30 2720 C 252.502 -0.143601 2.06902 0
M  V30 2721 C 252.927 -1.36536 1.29382 0
M  V30 2722 O 252.285 -1.78289 0.329043 0
M  V30 2723 C 252.333 -0.454207 3.57728 0
M  V30 2724 O 251.437 -1.54228 3.82475 0
M  V30 2725 H 250.778 -0.00617128 0.663971 0
M  V30 2726 H 253.308 0.606014 1.95419 0
M  V30 2727 H 253.318 -0.707525 4.01818 0
M  V30 2728 H 251.993 0.438812 4.13579 0
M  V30 2729 H 250.57 -1.2797 3.50254 0
M  V30 2730 N 252.755 -1.56801 0.158532 0
M  V30 2731 C 254.004 -1.95665 -0.489702 0
M  V30 2732 C 254.317 -1.04654 -1.65248 0
M  V30 2733 O 255.523 -1.33146 -2.3661 0
M  V30 2734 C 253.979 -3.47874 -0.922582 0
M  V30 2735 C 253.587 -4.47489 0.213893 0
M  V30 2736 C 255.331 -3.95583 -1.53996 0
M  V30 2737 C 253.238 -5.90921 -0.237903 0
M  V30 2738 H 252.168 -0.730516 -0.186716 0
M  V30 2739 H 254.819 -1.81861 0.244722 0
M  V30 2740 H 253.201 -3.57051 -1.71261 0
M  V30 2741 H 254.375 -4.50017 0.991036 0
M  V30 2742 H 252.69 -4.09764 0.740407 0
M  V30 2743 H 255.287 -5.0019 -1.8898 0
M  V30 2744 H 255.63 -3.37789 -2.43319 0
M  V30 2745 H 256.163 -3.8937 -0.814611 0
M  V30 2746 H 252.902 -6.52559 0.620236 0
M  V30 2747 H 252.422 -5.91729 -0.980676 0
M  V30 2748 H 254.101 -6.43352 -0.686067 0
M  V30 2749 N 254.233 0.115231 -1.57178 0
M  V30 2750 C 255.481 0.820727 -1.84685 0
M  V30 2751 C 255.802 1.80237 -0.744279 0
M  V30 2752 O 255.072 1.94529 0.231375 0
M  V30 2753 H 253.652 0.306084 -0.681411 0
M  V30 2754 H 256.314 0.101656 -1.94635 0
M  V30 2755 H 255.41 1.36366 -2.80733 0
M  V30 2756 N 255.711 1.52812 0.385517 0
M  V30 2757 C 256.988 1.5861 1.14465 0
M  V30 2758 C 257.368 0.381402 2.07626 0
M  V30 2759 O 256.716 -0.629999 2.19643 0
M  V30 2760 C 256.926 2.92664 1.90128 0
M  V30 2761 C 258.274 3.46526 2.45367 0
M  V30 2762 O 259.298 2.94562 2.0028 0
M  V30 2763 O 258.157 4.37323 3.27736 0
M  V30 2764 H 255.251 0.639855 0.523941 0
M  V30 2765 H 257.797 1.65149 0.390389 0
M  V30 2766 H 256.569 3.71788 1.22022 0
M  V30 2767 H 256.192 2.89527 2.72507 0
M  V30 2768 N 257.189 -0.644168 1.43834 0
M  V30 2769 C 258.414 -1.43642 1.49605 0
M  V30 2770 C 258.839 -1.8773 0.117913 0
M  V30 2771 O 258.197 -1.57938 -0.890239 0
M  V30 2772 C 258.245 -2.6416 2.45463 0
M  V30 2773 O 257.349 -3.63538 1.94714 0
M  V30 2774 H 256.69 -0.430329 0.50568 0
M  V30 2775 H 259.22 -0.787448 1.8884 0
M  V30 2776 H 259.23 -3.11864 2.63068 0
M  V30 2777 H 257.905 -2.31414 3.45572 0
M  V30 2778 H 256.482 -3.2273 1.86814 0
M  V30 2779 N 258.668 -1.30515 -0.883378 0
M  V30 2780 C 259.914 -1.19607 -1.63774 0
M  V30 2781 C 260.247 0.248314 -1.92606 0
M  V30 2782 O 259.522 1.17742 -1.54813 0
M  V30 2783 C 259.805 -2.02669 -2.97653 0
M  V30 2784 C 259.658 -3.55335 -2.75784 0
M  V30 2785 C 260.977 -1.86573 -3.98596 0
M  V30 2786 H 258.096 -0.435856 -0.594305 0
M  V30 2787 H 260.738 -1.60165 -1.02212 0
M  V30 2788 H 258.888 -1.68208 -3.50197 0
M  V30 2789 H 260.56 -3.99863 -2.30016 0
M  V30 2790 H 258.803 -3.79438 -2.1026 0
M  V30 2791 H 259.474 -4.08745 -3.70988 0
M  V30 2792 H 261.95 -2.16703 -3.55217 0
M  V30 2793 H 260.826 -2.47014 -4.90179 0
M  V30 2794 H 261.087 -0.825321 -4.34328 0
M  V30 2795 N 260.146 1.09593 -1.13257 0
M  V30 2796 C 261.392 1.82003 -0.89458 0
M  V30 2797 C 261.725 1.85402 0.577906 0
M  V30 2798 O 261 1.32099 1.42759 0
M  V30 2799 C 261.283 3.28237 -1.48096 0
M  V30 2800 C 261.136 3.3312 -3.02244 0
M  V30 2801 C 262.455 4.24871 -1.14774 0
M  V30 2802 H 259.574 0.66077 -0.326424 0
M  V30 2803 H 262.216 1.28389 -1.40058 0
M  V30 2804 H 260.366 3.74024 -1.05062 0
M  V30 2805 H 262.038 2.95748 -3.54021 0
M  V30 2806 H 260.281 2.72756 -3.37323 0
M  V30 2807 H 260.952 4.3613 -3.38371 0
M  V30 2808 H 263.428 3.87361 -1.51957 0
M  V30 2809 H 262.304 5.25532 -1.58452 0
M  V30 2810 H 262.565 4.42058 -0.0611849 0
M  V30 2811 N 261.624 0.925811 1.2754 0
M  V30 2812 C 262.873 0.561084 1.93739 0
M  V30 2813 C 263.186 -0.901685 1.73577 0
M  V30 2814 O 264.392 -1.37511 2.34101 0
M  V30 2815 C 262.848 0.952668 3.47062 0
M  V30 2816 C 262.456 2.43599 3.75983 0
M  V30 2817 C 264.2 0.659103 4.19352 0
M  V30 2818 C 262.107 2.76707 5.22673 0
M  V30 2819 H 261.037 0.206122 0.725279 0
M  V30 2820 H 263.688 1.12637 1.44863 0
M  V30 2821 H 262.07 0.316053 3.94737 0
M  V30 2822 H 263.244 3.12035 3.39073 0
M  V30 2823 H 261.559 2.70125 3.16893 0
M  V30 2824 H 264.156 0.882985 5.27359 0
M  V30 2825 H 264.499 -0.403607 4.14339 0
M  V30 2826 H 265.032 1.25473 3.77494 0
M  V30 2827 H 261.771 3.8188 5.32774 0
M  V30 2828 H 261.291 2.12919 5.60737 0
M  V30 2829 H 262.97 2.6435 5.90532 0
M  V30 2830 N 263.102 -1.41638 0.69111 0
M  V30 2831 C 264.35 -2.00902 0.219758 0
M  V30 2832 C 264.671 -1.54994 -1.18329 0
M  V30 2833 O 263.941 -0.778628 -1.79762 0
M  V30 2834 H 262.521 -0.74289 0.0782558 0
M  V30 2835 H 265.183 -1.73327 0.891271 0
M  V30 2836 H 264.279 -3.11224 0.233708 0
M  V30 2837 N 264.58 -0.43555 -1.51462 0
M  V30 2838 C 265.857 0.191364 -1.94662 0
M  V30 2839 C 266.237 1.60254 -1.37411 0
M  V30 2840 O 265.585 2.2152 -0.560458 0
M  V30 2841 C 265.795 0.17091 -3.48581 0
M  V30 2842 C 267.143 0.377357 -4.2292 0
M  V30 2843 O 268.167 0.249104 -3.55328 0
M  V30 2844 O 267.026 0.63247 -5.42828 0
M  V30 2845 H 264.12 0.130932 -0.816569 0
M  V30 2846 H 266.666 -0.4934 -1.62369 0
M  V30 2847 H 265.438 -0.815738 -3.82703 0
M  V30 2848 H 265.061 0.898659 -3.87311 0
M  V30 2849 N 266.058 1.56714 -0.166846 0
M  V30 2850 C 267.005 2.17746 0.765193 0
M  V30 2851 C 267.975 1.11614 1.23011 0
M  V30 2852 O 269.16 1.39745 1.29908 0
M  V30 2853 C 266.3 2.81882 1.9909 0
M  V30 2854 C 265.413 4.02462 1.56997 0
M  V30 2855 C 264.548 4.54537 2.749 0
M  V30 2856 C 263.587 5.67538 2.29275 0
M  V30 2857 N 262.724 6.14142 3.40255 0
M  V30 2858 H 267.564 2.97048 0.237952 0
M  V30 2859 H 265.101 1.4672 0.105725 0
M  V30 2860 H 267.059 3.17221 2.70974 0
M  V30 2861 H 265.689 2.05191 2.49192 0
M  V30 2862 H 264.741 3.72973 0.748037 0
M  V30 2863 H 266.053 4.84273 1.19503 0
M  V30 2864 H 265.207 4.92035 3.54946 0
M  V30 2865 H 263.946 3.71774 3.1565 0
M  V30 2866 H 262.951 5.29597 1.47674 0
M  V30 2867 H 264.176 6.52099 1.89588 0
M  V30 2868 H 262.122 5.3431 3.8059 0
M  V30 2869 H 262.039 6.9093 3.06841 0
M  V30 2870 H 263.307 6.56289 4.206 0
M  V30 2871 N 267.536 -0.106894 1.57237 0
M  V30 2872 C 268.782 -0.81373 1.85759 0
M  V30 2873 C 269.115 -1.78952 0.754315 0
M  V30 2874 O 268.39 -1.93029 -0.23879 0
M  V30 2875 C 268.673 -1.55293 3.24894 0
M  V30 2876 C 268.526 -0.595929 4.45835 0
M  V30 2877 C 269.845 -2.5063 3.61763 0
M  V30 2878 H 266.964 -0.294369 0.67566 0
M  V30 2879 H 269.606 -0.0776472 1.89841 0
M  V30 2880 H 267.756 -2.1804 3.21544 0
M  V30 2881 H 269.428 0.0236262 4.61294 0
M  V30 2882 H 267.671 0.0916191 4.33703 0
M  V30 2883 H 268.342 -1.15004 5.39887 0
M  V30 2884 H 270.818 -1.97982 3.65981 0
M  V30 2885 H 269.694 -2.99376 4.60071 0
M  V30 2886 H 269.955 -3.3385 2.89821 0
M  V30 2887 N 269.014 -1.53014 -0.377408 0
M  V30 2888 C 270.26 -1.68872 -1.12294 0
M  V30 2889 C 270.593 -0.433224 -1.89306 0
M  V30 2890 O 269.868 0.569258 -1.85983 0
M  V30 2891 C 270.151 -2.93115 -2.09179 0
M  V30 2892 C 270.004 -4.28794 -1.35853 0
M  V30 2893 C 271.323 -3.12928 -3.09458 0
M  V30 2894 H 268.442 -0.614518 -0.406862 0
M  V30 2895 H 271.084 -1.85633 -0.40503 0
M  V30 2896 H 269.234 -2.78956 -2.70399 0
M  V30 2897 H 270.906 -4.54742 -0.775082 0
M  V30 2898 H 269.149 -4.28744 -0.660364 0
M  V30 2899 H 269.82 -5.11837 -2.06706 0
M  V30 2900 H 272.296 -3.26194 -2.58334 0
M  V30 2901 H 271.172 -4.01316 -3.74482 0
M  V30 2902 H 271.433 -2.27669 -3.78971 0
M  V30 2903 N 270.492 0.636531 -1.44174 0
M  V30 2904 C 271.422 1.76003 -1.53444 0
M  V30 2905 C 272.403 1.65619 -0.387841 0
M  V30 2906 O 273.588 1.84461 -0.607257 0
M  V30 2907 C 270.718 3.14511 -1.4731 0
M  V30 2908 C 269.672 3.39677 -2.60391 0
M  V30 2909 C 268.998 4.78159 -2.39308 0
M  V30 2910 C 270.298 3.32772 -4.02567 0
M  V30 2911 H 271.992 1.68501 -2.47483 0
M  V30 2912 H 269.538 0.809237 -1.19111 0
M  V30 2913 H 271.491 3.92878 -1.52397 0
M  V30 2914 H 270.215 3.22783 -0.49785 0
M  V30 2915 H 268.874 2.63688 -2.54684 0
M  V30 2916 H 268.522 4.83128 -1.39988 0
M  V30 2917 H 268.222 4.95956 -3.15122 0
M  V30 2918 H 269.746 5.58762 -2.46205 0
M  V30 2919 H 271.16 4.01051 -4.09672 0
M  V30 2920 H 269.557 3.62104 -4.7854 0
M  V30 2921 H 270.627 2.30669 -4.2652 0
M  V30 2922 N 271.97 1.30982 0.876444 0
M  V30 2923 C 272.918 1.18006 2.00443 0
M  V30 2924 C 273.912 0.0898871 1.69161 0
M  V30 2925 O 275.118 0.251333 1.78237 0
M  V30 2926 H 271.493 0.365196 0.65737 0
M  V30 2927 H 273.464 2.13453 2.0852 0
M  V30 2928 C 272.213 0.897521 3.35916 0
M  V30 2929 H 271.536 1.7285 3.60504 0
M  V30 2930 H 272.976 0.846874 4.15456 0
M  V30 2931 C 271.435 -0.399674 3.34521 0
M  V30 2932 O 271.965 -1.41852 3.7582 0
M  V30 2933 N 270.171 -0.413893 2.87637 0
M  V30 2934 H 269.718 0.41571 2.54224 0
M  V30 2935 H 269.676 -1.28175 2.87086 0
M  V30 2936 N 273.449 -1.08991 1.13837 0
M  V30 2937 C 274.86 -1.62746 0.914917 0
M  V30 2938 C 275.211 -1.88403 -0.547594 0
M  V30 2939 O 274.336 -1.63706 -1.41525 0
M  V30 2940 C 274.931 -2.95662 1.65437 0
M  V30 2941 C 273.49 -3.46225 1.47666 0
M  V30 2942 C 272.637 -2.20562 1.6807 0
M  V30 2943 H 275.588 -0.922946 1.29102 0
M  V30 2944 H 275.609 -3.63825 1.11407 0
M  V30 2945 H 275.121 -2.76956 2.71877 0
M  V30 2946 H 273.222 -3.70046 0.435478 0
M  V30 2947 H 273.335 -4.23368 2.24268 0
M  V30 2948 H 271.699 -2.29439 1.10589 0
M  V30 2949 H 272.482 -2.0437 2.7584 0
M  V30 2950 N 274.927 -0.932562 -1.27047 0
M  V30 2951 C 276.173 -0.576412 -1.94436 0
M  V30 2952 C 276.506 0.880891 -1.73072 0
M  V30 2953 O 275.781 1.62905 -1.06264 0
M  V30 2954 C 276.064 -0.909031 -3.48437 0
M  V30 2955 C 275.917 -2.42044 -3.79123 0
M  V30 2956 C 277.236 -0.418341 -4.38107 0
M  V30 2957 H 274.355 -0.210888 -0.706184 0
M  V30 2958 H 276.997 -1.16522 -1.50075 0
M  V30 2959 H 275.147 -0.407947 -3.86352 0
M  V30 2960 H 276.819 -2.99359 -3.50973 0
M  V30 2961 H 275.062 -2.86758 -3.25503 0
M  V30 2962 H 275.733 -2.6037 -4.86736 0
M  V30 2963 H 278.209 -0.847856 -4.0737 0
M  V30 2964 H 277.085 -0.679981 -5.44672 0
M  V30 2965 H 277.346 0.681642 -4.36814 0
M  V30 2966 N 276.405 1.4127 -0.698611 0
M  V30 2967 C 277.353 2.32588 -0.023855 0
M  V30 2968 C 278.347 1.51128 0.765292 0
M  V30 2969 O 279.553 1.67043 0.670571 0
M  V30 2970 H 275.928 0.751918 0.0110871 0
M  V30 2971 H 277.899 2.87167 -0.811031 0
M  V30 2972 C 276.648 3.35947 0.896369 0
M  V30 2973 H 275.971 3.98684 0.298548 0
M  V30 2974 H 277.411 4.02376 1.33676 0
M  V30 2975 C 275.87 2.70076 2.01396 0
M  V30 2976 O 276.4 2.55093 3.10307 0
M  V30 2977 N 274.606 2.28724 1.79259 0
M  V30 2978 H 274.153 2.4111 0.906841 0
M  V30 2979 H 274.111 1.84986 2.54219 0
M  V30 2980 N 277.883 0.443576 1.51229 0
M  V30 2981 C 278.846 -0.353132 2.26463 0
M  V30 2982 C 279.846 -0.944338 1.3015 0
M  V30 2983 O 281.036 -0.817813 1.5381 0
M  V30 2984 C 278.168 -1.50023 3.06114 0
M  V30 2985 H 279.361 0.3063 2.98332 0
M  V30 2986 H 276.914 0.196902 1.55055 0
M  V30 2987 H 277.649 -2.19553 2.38677 0
M  V30 2988 H 277.434 -1.08241 3.76864 0
M  V30 2989 H 278.924 -2.06296 3.63087 0
M  V30 2990 N 279.361 -1.56624 0.175154 0
M  V30 2991 C 280.609 -1.96609 -0.467885 0
M  V30 2992 C 280.93 -1.06238 -1.63519 0
M  V30 2993 O 280.2 -0.129523 -1.95471 0
M  V30 2994 H 278.78 -0.726008 -0.175845 0
M  V30 2995 H 281.442 -1.93195 0.257234 0
M  V30 2996 H 280.538 -3.00989 -0.825342 0
M  V30 2997 N 280.839 0.0985539 -1.57292 0
M  V30 2998 C 281.771 1.14595 -1.98496 0
M  V30 2999 C 282.784 1.36512 -0.887031 0
M  V30 3000 O 283.973 1.35225 -1.16518 0
M  V30 3001 C 281.073 2.50216 -2.28572 0
M  V30 3002 C 280.246 2.48624 -3.59868 0
M  V30 3003 C 279.305 3.66146 -3.7792 0
M  V30 3004 O 278.331 3.48795 -4.49812 0
M  V30 3005 N 279.533 4.85496 -3.18235 0
M  V30 3006 H 282.298 0.795277 -2.88956 0
M  V30 3007 H 279.859 0.287579 -1.59325 0
M  V30 3008 H 281.851 3.27432 -2.37845 0
M  V30 3009 H 280.421 2.77387 -1.44136 0
M  V30 3010 H 279.641 1.56978 -3.61596 0
M  V30 3011 H 280.929 2.44635 -4.46129 0
M  V30 3012 H 280.327 5.02497 -2.59833 0
M  V30 3013 H 278.884 5.60317 -3.32999 0
M  V30 3014 N 282.317 1.53212 0.369288 0
M  V30 3015 C 283.728 1.60943 0.946276 0
M  V30 3016 C 284.079 0.47452 1.90375 0
M  V30 3017 O 283.204 -0.399597 2.12679 0
M  V30 3018 C 283.799 2.91715 1.72302 0
M  V30 3019 C 282.358 3.01792 2.24941 0
M  V30 3020 C 281.505 2.56211 1.06072 0
M  V30 3021 H 284.456 1.58007 0.148198 0
M  V30 3022 H 284.477 2.79309 2.58393 0
M  V30 3023 H 283.989 3.74295 1.0259 0
M  V30 3024 H 282.09 2.23791 2.97906 0
M  V30 3025 H 282.203 4.06803 2.53077 0
M  V30 3026 H 280.567 2.10998 1.4266 0
M  V30 3027 H 281.35 3.41206 0.378639 0
M  V30 3028 N 283.795 -0.628877 1.44509 0
M  V30 3029 C 284.725 -1.75187 1.54376 0
M  V30 3030 C 285.706 -1.65411 0.396618 0
M  V30 3031 O 286.891 -1.84137 0.617031 0
M  V30 3032 C 284.021 -3.13725 1.48976 0
M  V30 3033 C 282.975 -3.38291 2.62189 0
M  V30 3034 C 282.301 -4.76883 2.41841 0
M  V30 3035 C 283.601 -3.30632 4.04326 0
M  V30 3036 H 285.295 -1.67187 2.48373 0
M  V30 3037 H 282.841 -0.802909 1.19538 0
M  V30 3038 H 284.794 -3.92064 1.54478 0
M  V30 3039 H 283.518 -3.22515 0.514961 0
M  V30 3040 H 282.177 -2.62334 2.56079 0
M  V30 3041 H 281.825 -4.82378 1.42548 0
M  V30 3042 H 281.525 -4.94278 3.17747 0
M  V30 3043 H 283.049 -5.57449 2.49165 0
M  V30 3044 H 284.463 -3.98873 4.11793 0
M  V30 3045 H 282.86 -3.59561 4.80454 0
M  V30 3046 H 283.93 -2.28404 4.27738 0
M  V30 3047 N 285.273 -1.31445 -0.869486 0
M  V30 3048 C 286.223 -1.15731 -1.96444 0
M  V30 3049 C 287.207 -0.0681855 -1.60755 0
M  V30 3050 O 288.399 -0.293154 -1.74555 0
M  V30 3051 C 285.528 -0.867255 -3.32165 0
M  V30 3052 C 284.614 -1.99738 -3.74119 0
M  V30 3053 N 285.005 -3.24447 -3.88031 0
M  V30 3054 C 283.303 -1.89723 -4.03635 0
M  V30 3055 C 284.004 -3.98374 -4.23879 0
M  V30 3056 N 282.98 -3.26547 -4.3459 0
M  V30 3057 H 286.782 -2.10296 -2.05312 0
M  V30 3058 H 284.296 -1.23009 -1.06031 0
M  V30 3059 H 286.293 -0.735668 -4.10358 0
M  V30 3060 H 284.953 0.0701614 -3.24624 0
M  V30 3061 H 285.964 -3.59557 -3.72746 0
M  V30 3062 H 282.641 -1.03449 -4.04481 0
M  V30 3063 H 284.031 -5.05844 -4.42235 0
M  V30 3064 N 286.751 1.08385 -1.14413 0
M  V30 3065 C 287.714 2.13486 -0.834048 0
M  V30 3066 C 288.714 1.59988 0.161418 0
M  V30 3067 O 289.904 1.74071 -0.0669575 0
M  V30 3068 C 287.036 3.4003 -0.243354 0
M  V30 3069 H 288.229 2.42425 -1.7655 0
M  V30 3070 H 285.782 1.24101 -0.950189 0
M  V30 3071 H 286.517 3.16726 0.696807 0
M  V30 3072 H 286.302 3.80157 -0.960367 0
M  V30 3073 H 287.792 4.17577 -0.0436242 0
M  V30 3074 N 288.23 0.939286 1.26551 0
M  V30 3075 C 289.455 0.602008 1.98471 0
M  V30 3076 C 289.88 -0.815624 1.69497 0
M  V30 3077 O 289.238 -1.54912 0.941905 0
M  V30 3078 C 289.286 0.848407 3.50477 0
M  V30 3079 O 288.39 -0.0804009 4.12322 0
M  V30 3080 H 287.731 0.23049 0.622712 0
M  V30 3081 H 290.261 1.2617 1.61066 0
M  V30 3082 H 290.271 0.768553 4.00696 0
M  V30 3083 H 288.946 1.88171 3.70897 0
M  V30 3084 H 287.523 0.0503508 3.72866 0
M  V30 3085 N 289.708 -1.40897 0.706093 0
M  V30 3086 C 290.933 -2.05895 0.249435 0
M  V30 3087 C 291.358 -1.52823 -1.09666 0
M  V30 3088 O 290.716 -0.659589 -1.68876 0
M  V30 3089 C 290.764 -3.59872 0.22904 0
M  V30 3090 O 289.868 -4.04708 -0.792784 0
M  V30 3091 H 289.209 -0.653206 0.119241 0
M  V30 3092 H 291.739 -1.80471 0.96391 0
M  V30 3093 H 291.749 -4.07951 0.0634791 0
M  V30 3094 H 290.424 -3.97866 1.21141 0
M  V30 3095 H 289.001 -3.68111 -0.59572 0
M  V30 3096 N 291.186 -0.45159 -1.50991 0
M  V30 3097 C 292.136 0.370861 -2.24964 0
M  V30 3098 C 293.12 0.978074 -1.2776 0
M  V30 3099 O 294.312 0.893854 -1.52772 0
M  V30 3100 C 291.441 1.46344 -3.10545 0
M  V30 3101 C 290.527 0.864924 -4.15187 0
M  V30 3102 N 290.918 -0.00311354 -5.058 0
M  V30 3103 C 289.216 1.13099 -4.31422 0
M  V30 3104 C 289.917 -0.340772 -5.80701 0
M  V30 3105 N 288.893 0.279203 -5.42883 0
M  V30 3106 H 292.695 -0.298134 -2.92384 0
M  V30 3107 H 290.209 -0.264528 -1.60231 0
M  V30 3108 H 292.206 2.06565 -3.62128 0
M  V30 3109 H 290.866 2.13463 -2.4467 0
M  V30 3110 H 291.877 -0.37058 -5.16572 0
M  V30 3111 H 288.554 1.79861 -3.76771 0
M  V30 3112 H 289.944 -1.048 -6.63677 0
M  V30 3113 N 292.664 1.56529 -0.183458 0
M  V30 3114 C 293.596 2.15747 0.773697 0
M  V30 3115 C 294.609 1.1162 1.1851 0
M  V30 3116 O 295.798 1.3876 1.12285 0
M  V30 3117 C 292.898 2.6952 2.05456 0
M  V30 3118 C 292.071 3.98429 1.8048 0
M  V30 3119 C 291.13 4.37145 2.92901 0
M  V30 3120 O 290.156 5.04791 2.6301 0
M  V30 3121 N 291.358 3.99695 4.2098 0
M  V30 3122 H 294.123 2.98505 0.26736 0
M  V30 3123 H 291.684 1.619 -0.0010878 0
M  V30 3124 H 293.676 2.92412 2.79781 0
M  V30 3125 H 292.246 1.91282 2.47245 0
M  V30 3126 H 291.466 3.8379 0.899947 0
M  V30 3127 H 292.754 4.82597 1.61175 0
M  V30 3128 H 292.152 3.4526 4.48121 0
M  V30 3129 H 290.709 4.27562 4.9197 0
M  V30 3130 N 294.142 -0.090211 1.57342 0
M  V30 3131 C 295.072 -1.10976 2.05443 0
M  V30 3132 C 296.053 -1.41482 0.944284 0
M  V30 3133 O 297.238 -1.51428 1.21586 0
M  V30 3134 C 294.368 -2.42831 2.48295 0
M  V30 3135 C 293.322 -2.26721 3.63018 0
M  V30 3136 C 292.648 -3.63796 3.91863 0
M  V30 3137 C 293.948 -1.7037 4.93732 0
M  V30 3138 H 295.642 -0.709564 2.9087 0
M  V30 3139 H 293.188 -0.339874 1.39932 0
M  V30 3140 H 295.141 -3.14431 2.80555 0
M  V30 3141 H 293.865 -2.84795 1.59873 0
M  V30 3142 H 292.524 -1.57565 3.31012 0
M  V30 3143 H 292.172 -4.03297 3.00601 0
M  V30 3144 H 291.872 -3.53861 4.69101 0
M  V30 3145 H 293.396 -4.36855 4.26603 0
M  V30 3146 H 294.81 -2.31816 5.24342 0
M  V30 3147 H 293.207 -1.71181 5.75167 0
M  V30 3148 H 294.277 -0.663542 4.80339 0
M  V30 3149 N 295.62 -1.53406 -0.361157 0
M  V30 3150 C 296.866 -1.70054 -1.10496 0
M  V30 3151 C 297.199 -0.453278 -1.88836 0
M  V30 3152 O 296.474 0.5495 -1.86576 0
M  V30 3153 C 296.757 -2.95317 -2.06058 0
M  V30 3154 C 296.61 -4.3021 -1.31298 0
M  V30 3155 C 297.929 -3.16193 -3.06121 0
M  V30 3156 H 295.048 -0.618799 -0.400321 0
M  V30 3157 H 297.69 -1.86052 -0.385318 0
M  V30 3158 H 295.84 -2.81809 -2.67425 0
M  V30 3159 H 297.512 -4.55538 -0.726807 0
M  V30 3160 H 295.755 -4.29421 -0.614853 0
M  V30 3161 H 296.426 -5.14 -2.01265 0
M  V30 3162 H 298.902 -3.28916 -2.5486 0
M  V30 3163 H 297.778 -4.05266 -3.70204 0
M  V30 3164 H 298.039 -2.31676 -3.76535 0
M  V30 3165 N 297.098 0.621204 -1.44841 0
M  V30 3166 C 298.375 1.38 -1.38619 0
M  V30 3167 C 298.755 2.11041 -0.0498935 0
M  V30 3168 O 298.103 2.06992 0.967816 0
M  V30 3169 C 298.313 2.33817 -2.59096 0
M  V30 3170 C 299.661 2.96844 -3.03593 0
M  V30 3171 O 300.685 2.44141 -2.59371 0
M  V30 3172 O 299.544 3.92476 -3.80296 0
M  V30 3173 H 296.638 0.61811 -0.549426 0
M  V30 3174 H 299.184 0.645429 -1.56947 0
M  V30 3175 H 297.956 1.79012 -3.47952 0
M  V30 3176 H 297.579 3.14676 -2.43032 0
M  V30 3177 N 298.576 1.31904 0.862503 0
M  V30 3178 C 299.524 1.20125 1.9918 0
M  V30 3179 C 300.518 0.107824 1.69056 0
M  V30 3180 O 301.724 0.270223 1.7796 0
M  V30 3181 H 298.099 0.372148 0.65346 0
M  V30 3182 H 300.07 2.15652 2.06244 0
M  V30 3183 C 298.819 0.933099 3.34946 0
M  V30 3184 H 298.142 1.76664 3.5865 0
M  V30 3185 H 299.582 0.890892 4.14535 0
M  V30 3186 C 298.041 -0.364172 3.34926 0
M  V30 3187 O 298.571 -1.37858 3.77304 0
M  V30 3188 N 296.777 -0.383362 2.8806 0
M  V30 3189 H 296.324 0.442651 2.53768 0
M  V30 3190 H 296.282 -1.25123 2.8843 0
M  V30 3191 N 300.054 -1.07777 1.14986 0
M  V30 3192 C 301.465 -1.61766 0.932127 0
M  V30 3193 C 301.816 -1.88974 -0.527581 0
M  V30 3194 O 300.941 -1.65198 -1.39781 0
M  V30 3195 C 301.536 -2.93891 1.68563 0
M  V30 3196 C 300.095 -3.44639 1.5133 0
M  V30 3197 C 299.242 -2.18767 1.704 0
M  V30 3198 H 302.193 -0.909201 1.30074 0
M  V30 3199 H 302.214 -3.62623 1.15259 0
M  V30 3200 H 301.726 -2.74057 2.74799 0
M  V30 3201 H 299.827 -3.69564 0.474702 0
M  V30 3202 H 299.94 -4.20966 2.28746 0
M  V30 3203 H 298.304 -2.28253 1.13016 0
M  V30 3204 H 299.087 -2.01433 2.77992 0
M  V30 3205 N 301.532 -0.945985 -1.26051 0
M  V30 3206 C 302.78 -0.594941 -1.93145 0
M  V30 3207 C 303.101 0.86953 -1.7454 0
M  V30 3208 O 302.371 1.61838 -1.10387 0
M  V30 3209 H 300.951 -0.217044 -0.714773 0
M  V30 3210 H 303.613 -1.20235 -1.53393 0
M  V30 3211 H 302.709 -0.816835 -3.01221 0
M  V30 3212 N 303.011 1.40521 -0.713556 0
M  V30 3213 C 304.251 2.02783 -0.256584 0
M  V30 3214 C 304.615 1.55352 1.12827 0
M  V30 3215 O 305.816 2.09663 1.68211 0
M  V30 3216 C 304.087 3.5586 -0.331414 0
M  V30 3217 S 305.646 4.38773 0.0488703 0
M  V30 3218 H 302.464 0.703655 -0.101934 0
M  V30 3219 H 305.066 1.71674 -0.935325 0
M  V30 3220 H 303.77 3.87874 -1.34098 0
M  V30 3221 H 303.301 3.91695 0.365873 0
M  V30 3222 H 305.316 4.79633 1.2715 0
M  V30 3223 N 304.489 0.459591 1.5075 0
M  V30 3224 C 305.437 -0.354678 2.2988 0
M  V30 3225 C 306.431 -1.00086 1.36672 0
M  V30 3226 O 307.637 -0.933277 1.53915 0
M  V30 3227 H 304.012 -0.13321 0.740107 0
M  V30 3228 H 305.983 0.333269 2.96533 0
M  V30 3229 C 304.732 -1.43073 3.169 0
M  V30 3230 H 304.055 -0.942882 3.88523 0
M  V30 3231 H 305.495 -1.97328 3.75284 0
M  V30 3232 C 303.954 -2.42633 2.33732 0
M  V30 3233 O 304.484 -3.47658 2.01238 0
M  V30 3234 N 302.69 -2.14066 1.9653 0
M  V30 3235 H 302.237 -1.28685 2.23155 0
M  V30 3236 H 302.195 -2.80917 1.41185 0
M  V30 3237 N 305.967 -1.56429 0.191757 0
M  V30 3238 C 306.877 -2.22541 -0.742481 0
M  V30 3239 C 307.893 -1.22342 -1.23727 0
M  V30 3240 O 309.069 -1.55069 -1.28513 0
M  V30 3241 C 306.134 -2.8692 -1.94623 0
M  V30 3242 C 305.195 -4.02378 -1.49633 0
M  V30 3243 C 304.428 -4.63678 -2.6427 0
M  V30 3244 O 304.651 -4.23895 -3.81666 0
M  V30 3245 O 303.585 -5.53202 -2.37174 0
M  V30 3246 H 307.411 -3.02977 -0.209462 0
M  V30 3247 H 304.996 -1.49353 -0.0373832 0
M  V30 3248 H 306.878 -3.27663 -2.64982 0
M  V30 3249 H 305.553 -2.09466 -2.46791 0
M  V30 3250 H 304.46 -3.66265 -0.761636 0
M  V30 3251 H 305.793 -4.81487 -1.02134 0
M  V30 3252 N 307.445 0.0818655 -1.57387 0
M  V30 3253 C 308.691 0.784074 -1.8703 0
M  V30 3254 C 309.024 1.77729 -0.782689 0
M  V30 3255 O 308.299 1.93384 0.208051 0
M  V30 3256 C 308.582 1.50105 -3.27323 0
M  V30 3257 C 308.435 0.524925 -4.46727 0
M  V30 3258 C 309.754 2.44843 -3.65705 0
M  V30 3259 H 306.873 0.283582 -0.680257 0
M  V30 3260 H 309.515 0.0474352 -1.89941 0
M  V30 3261 H 307.665 2.12897 -3.24972 0
M  V30 3262 H 309.337 -0.0970111 -4.61198 0
M  V30 3263 H 307.58 -0.160606 -4.33503 0
M  V30 3264 H 308.251 1.064 -5.41648 0
M  V30 3265 H 310.727 1.92135 -3.69085 0
M  V30 3266 H 309.603 2.92018 -4.64776 0
M  V30 3267 H 309.864 3.29197 -2.95096 0
M  V30 3268 N 308.923 1.53595 0.353017 0
M  V30 3269 C 309.871 1.81605 1.45335 0
M  V30 3270 C 310.865 0.685923 1.54892 0
M  V30 3271 O 312.071 0.869095 1.57628 0
M  V30 3272 H 308.446 0.575204 0.484401 0
M  V30 3273 H 310.417 2.73679 1.18921 0
M  V30 3274 C 309.166 2.03406 2.81995 0
M  V30 3275 H 308.489 2.89814 2.75405 0
M  V30 3276 H 309.929 2.26975 3.58132 0
M  V30 3277 C 308.388 0.816794 3.26849 0
M  V30 3278 O 308.918 0.0115856 4.01698 0
M  V30 3279 N 307.124 0.636682 2.8354 0
M  V30 3280 H 306.671 1.2931 2.22793 0
M  V30 3281 H 306.629 -0.176336 3.13905 0
M  V30 3282 N 310.401 -0.613514 1.45168 0
M  V30 3283 C 311.626 -1.40437 1.52618 0
M  V30 3284 C 312.051 -1.87438 0.157707 0
M  V30 3285 O 311.409 -1.59791 -0.856537 0
M  V30 3286 C 311.457 -2.58894 2.51011 0
M  V30 3287 O 310.561 -3.59326 2.02382 0
M  V30 3288 H 309.902 -0.419506 0.514695 0
M  V30 3289 H 312.432 -0.747215 1.90467 0
M  V30 3290 H 312.442 -3.06214 2.69624 0
M  V30 3291 H 311.117 -2.24032 3.50403 0
M  V30 3292 H 309.694 -3.18695 1.93618 0
M  V30 3293 N 311.879 -1.3236 -0.855495 0
M  V30 3294 C 313.125 -1.23054 -1.612 0
M  V30 3295 C 313.458 0.207404 -1.93089 0
M  V30 3296 O 312.733 1.14432 -1.57275 0
M  V30 3297 C 313.016 -2.08937 -2.93287 0
M  V30 3298 C 312.869 -3.61105 -2.68185 0
M  V30 3299 C 314.188 -1.94986 -3.94549 0
M  V30 3300 H 311.307 -0.448364 -0.584926 0
M  V30 3301 H 313.949 -1.62297 -0.987917 0
M  V30 3302 H 312.099 -1.75599 -3.46551 0
M  V30 3303 H 313.771 -4.04652 -2.21483 0
M  V30 3304 H 312.014 -3.83813 -2.02164 0
M  V30 3305 H 312.685 -4.16522 -3.62234 0
M  V30 3306 H 315.161 -2.24189 -3.5054 0
M  V30 3307 H 314.037 -2.57356 -4.84829 0
M  V30 3308 H 314.298 -0.917263 -4.3248 0
M  V30 3309 N 313.357 1.07166 -1.15556 0
M  V30 3310 C 314.305 2.16517 -0.8499 0
M  V30 3311 C 315.299 1.68468 0.177454 0
M  V30 3312 O 316.505 1.79971 0.0323026 0
M  V30 3313 H 312.88 0.706652 -0.25719 0
M  V30 3314 H 314.851 2.39514 -1.77976 0
M  V30 3315 C 313.6 3.45855 -0.357682 0
M  V30 3316 H 312.923 3.83214 -1.13961 0
M  V30 3317 H 314.363 4.23607 -0.182489 0
M  V30 3318 C 312.822 3.24062 0.921152 0
M  V30 3319 O 313.352 3.48813 1.9923 0
M  V30 3320 N 311.558 2.77539 0.86141 0
M  V30 3321 H 311.105 2.57598 -0.0104408 0
M  V30 3322 H 311.063 2.63337 1.71758 0
M  V30 3323 N 314.835 0.952656 1.25548 0
M  V30 3324 C 316.075 0.614013 1.9496 0
M  V30 3325 C 316.439 -0.833215 1.72978 0
M  V30 3326 O 317.64 -1.28135 2.36294 0
M  V30 3327 C 315.911 0.960562 3.4425 0
M  V30 3328 S 317.47 0.734195 4.32614 0
M  V30 3329 H 314.288 0.225754 0.674208 0
M  V30 3330 H 316.89 1.22641 1.52248 0
M  V30 3331 H 315.594 2.01103 3.57751 0
M  V30 3332 H 315.125 0.338336 3.91942 0
M  V30 3333 H 317.14 -0.395995 4.94617 0
M  V30 3334 N 316.313 -1.40141 0.720998 0
M  V30 3335 C 317.261 -2.3252 0.0608547 0
M  V30 3336 C 318.255 -1.52326 -0.741152 0
M  V30 3337 O 319.461 -1.68089 -0.643911 0
M  V30 3338 H 315.836 -0.751999 0.000876664 0
M  V30 3339 H 317.807 -2.8584 0.856614 0
M  V30 3340 C 316.556 -3.37331 -0.842809 0
M  V30 3341 H 315.879 -3.99108 -0.235084 0
M  V30 3342 H 317.319 -4.04452 -1.27257 0
M  V30 3343 C 315.778 -2.73246 -1.97074 0
M  V30 3344 O 316.308 -2.59998 -3.06209 0
M  V30 3345 N 314.514 -2.31547 -1.75597 0
M  V30 3346 H 314.061 -2.42522 -0.868368 0
M  V30 3347 H 314.019 -1.89007 -2.51244 0
M  V30 3348 N 317.792 -0.46758 -1.50504 0
M  V30 3349 C 319.02 0.0864133 -2.06719 0
M  V30 3350 C 319.435 1.33819 -1.33184 0
M  V30 3351 O 318.792 1.78061 -0.400083 0
M  V30 3352 C 318.843 0.378079 -3.59517 0
M  V30 3353 O 318.564 -0.824044 -4.3028 0
M  V30 3354 C 320.065 0.979426 -4.32345 0
M  V30 3355 H 317.285 -0.00551697 -0.670977 0
M  V30 3356 H 319.829 -0.655354 -1.93715 0
M  V30 3357 H 317.984 1.06977 -3.72337 0
M  V30 3358 H 318.398 -0.566518 -5.21432 0
M  V30 3359 H 319.872 1.1333 -5.40241 0
M  V30 3360 H 320.349 1.9686 -3.9261 0
M  V30 3361 H 320.955 0.326216 -4.24047 0
M  V30 3362 N 319.27 1.56325 -0.20005 0
M  V30 3363 C 320.495 2.02548 0.44597 0
M  V30 3364 C 320.92 1.07922 1.5406 0
M  V30 3365 O 320.278 0.0635775 1.81188 0
M  V30 3366 C 320.326 3.47175 0.974761 0
M  V30 3367 O 319.43 3.55671 2.08739 0
M  V30 3368 H 318.771 0.655862 0.103638 0
M  V30 3369 H 321.301 2.02201 -0.312381 0
M  V30 3370 H 321.311 3.87067 1.2901 0
M  V30 3371 H 319.986 4.15538 0.17347 0
M  V30 3372 H 318.563 3.27657 1.78032 0
M  V30 3373 N 320.748 -0.0735177 1.57428 0
M  V30 3374 C 321.994 -0.768909 1.88307 0
M  V30 3375 C 322.349 -1.75273 0.793535 0
M  V30 3376 O 321.642 -1.90527 -0.202466 0
M  V30 3377 C 321.836 -1.51799 3.23561 0
M  V30 3378 C 321.665 -0.608217 4.45568 0
M  V30 3379 C 320.435 -0.245808 5.04702 0
M  V30 3380 C 322.633 0.0942904 5.14214 0
M  V30 3381 N 320.615 0.66987 6.10234 0
M  V30 3382 C 321.986 0.867222 6.13905 0
M  V30 3383 C 324.041 0.165943 4.97623 0
M  V30 3384 C 322.744 1.70515 6.98797 0
M  V30 3385 C 324.77 0.990837 5.83041 0
M  V30 3386 C 324.132 1.75182 6.82269 0
M  V30 3387 H 320.231 -0.25685 0.738615 0
M  V30 3388 H 322.815 -0.030499 1.94676 0
M  V30 3389 H 320.986 -2.22713 3.18203 0
M  V30 3390 H 322.718 -2.16226 3.42094 0
M  V30 3391 H 319.473 -0.598284 4.69806 0
M  V30 3392 H 319.897 1.1209 6.67656 0
M  V30 3393 H 324.539 -0.408064 4.20826 0
M  V30 3394 H 322.257 2.29013 7.7497 0
M  V30 3395 H 325.843 1.04923 5.72261 0
M  V30 3396 H 324.723 2.37983 7.47217 0
M  V30 3397 N 322.226 -1.5378 -0.344866 0
M  V30 3398 C 323.173 -1.81676 -1.42346 0
M  V30 3399 C 324.143 -0.662376 -1.52321 0
M  V30 3400 O 325.328 -0.906675 -1.67881 0
M  V30 3401 C 322.468 -2.03087 -2.79015 0
M  V30 3402 C 321.581 -3.30799 -2.77842 0
M  V30 3403 C 320.716 -3.42285 -4.0622 0
M  V30 3404 C 319.755 -4.6395 -3.9927 0
M  V30 3405 N 318.892 -4.72477 -5.19336 0
M  V30 3406 H 323.732 -2.73703 -1.17858 0
M  V30 3407 H 321.269 -1.35568 -0.570949 0
M  V30 3408 H 323.227 -2.1349 -3.58438 0
M  V30 3409 H 321.857 -1.14375 -3.01858 0
M  V30 3410 H 320.909 -3.29244 -1.90533 0
M  V30 3411 H 322.221 -4.20314 -2.68584 0
M  V30 3412 H 321.375 -3.52113 -4.94066 0
M  V30 3413 H 320.114 -2.50823 -4.18258 0
M  V30 3414 H 319.119 -4.54201 -3.09809 0
M  V30 3415 H 320.344 -5.56775 -3.88817 0
M  V30 3416 H 318.29 -3.83924 -5.3192 0
M  V30 3417 H 318.207 -5.55927 -5.12329 0
M  V30 3418 H 319.475 -4.86613 -6.08957 0
M  V30 3419 N 323.704 0.605807 -1.45491 0
M  V30 3420 C 324.953 1.36086 -1.48874 0
M  V30 3421 C 325.266 1.95131 -0.135333 0
M  V30 3422 O 326.472 2.7146 -0.0468144 0
M  V30 3423 C 324.928 2.46518 -2.62215 0
M  V30 3424 C 324.536 1.93877 -4.03876 0
M  V30 3425 C 326.28 3.23512 -2.74846 0
M  V30 3426 C 324.187 3.01801 -5.08596 0
M  V30 3427 H 323.117 0.511497 -0.553974 0
M  V30 3428 H 325.768 0.649089 -1.71636 0
M  V30 3429 H 324.15 3.20388 -2.32739 0
M  V30 3430 H 325.324 1.26704 -4.43038 0
M  V30 3431 H 323.639 1.29622 -3.95711 0
M  V30 3432 H 326.236 4.04013 -3.50253 0
M  V30 3433 H 326.579 3.74631 -1.81542 0
M  V30 3434 H 327.112 2.56742 -3.03856 0
M  V30 3435 H 323.851 2.55597 -6.03614 0
M  V30 3436 H 323.371 3.67535 -4.74002 0
M  V30 3437 H 325.05 3.66152 -5.33424 0
M  V30 3438 N 325.182 1.32811 0.848464 0
M  V30 3439 C 326.428 1.23907 1.60546 0
M  V30 3440 C 326.761 -0.197161 1.93197 0
M  V30 3441 O 326.036 -1.13596 1.5788 0
M  V30 3442 C 326.319 2.10489 2.92175 0
M  V30 3443 C 326.172 3.62522 2.66266 0
M  V30 3444 C 327.491 1.97075 3.93509 0
M  V30 3445 H 324.61 0.451459 0.58254 0
M  V30 3446 H 327.252 1.62818 0.979296 0
M  V30 3447 H 325.402 1.77434 3.45614 0
M  V30 3448 H 327.074 4.05821 2.19334 0
M  V30 3449 H 325.317 3.84879 2.00126 0
M  V30 3450 H 325.988 4.18437 3.6002 0
M  V30 3451 H 328.464 2.26045 3.49346 0
M  V30 3452 H 327.34 2.59923 4.83457 0
M  V30 3453 H 327.601 0.940186 4.31987 0
M  V30 3454 N 326.66 -1.06551 1.16123 0
M  V30 3455 C 327.59 -2.15935 0.88851 0
M  V30 3456 C 328.571 -1.69306 -0.164135 0
M  V30 3457 O 329.756 -1.94193 -0.0167857 0
M  V30 3458 C 326.886 -3.45149 0.385942 0
M  V30 3459 C 325.84 -4.05271 1.3762 0
M  V30 3460 C 325.166 -5.29664 0.732137 0
M  V30 3461 C 326.466 -4.44355 2.74493 0
M  V30 3462 H 328.16 -2.39006 1.80323 0
M  V30 3463 H 325.706 -1.14866 0.868435 0
M  V30 3464 H 327.659 -4.21004 0.182647 0
M  V30 3465 H 326.383 -3.21689 -0.564274 0
M  V30 3466 H 325.042 -3.3147 1.56599 0
M  V30 3467 H 324.69 -5.02499 -0.224483 0
M  V30 3468 H 324.39 -5.70848 1.39307 0
M  V30 3469 H 325.914 -6.08218 0.538802 0
M  V30 3470 H 327.328 -5.11303 2.59311 0
M  V30 3471 H 325.725 -4.96515 3.37035 0
M  V30 3472 H 326.795 -3.55339 3.29943 0
M  V30 3473 N 328.138 -0.959301 -1.25041 0
M  V30 3474 C 329.385 -0.616611 -1.92884 0
M  V30 3475 C 329.713 0.847036 -1.75087 0
M  V30 3476 O 328.968 1.62374 -1.09239 0
M  V30 3477 C 329.267 -0.927136 -3.45165 0
M  V30 3478 C 328.933 -2.37757 -3.83122 0
M  V30 3479 C 327.595 -2.77402 -3.93194 0
M  V30 3480 C 329.947 -3.31929 -4.01836 0
M  V30 3481 C 327.275 -4.10277 -4.19392 0
M  V30 3482 C 329.627 -4.64423 -4.29528 0
M  V30 3483 C 328.291 -5.03857 -4.37818 0
M  V30 3484 H 327.561 -0.225634 -0.705812 0
M  V30 3485 H 330.208 -1.20921 -1.48493 0
M  V30 3486 H 328.513 -0.252195 -3.90987 0
M  V30 3487 H 330.21 -0.6405 -3.95852 0
M  V30 3488 H 326.8 -2.06013 -3.75841 0
M  V30 3489 H 330.984 -3.02488 -3.93465 0
M  V30 3490 H 326.24 -4.40467 -4.24027 0
M  V30 3491 H 330.414 -5.37369 -4.42953 0
M  V30 3492 H 328.041 -6.06843 -4.57871 0
M  V30 3493 N 329.616 1.39756 -0.72842 0
M  V30 3494 C 330.549 2.28176 -0.0330172 0
M  V30 3495 C 331.527 1.44035 0.754501 0
M  V30 3496 O 332.711 1.73434 0.738445 0
M  V30 3497 C 329.838 3.24795 0.960504 0
M  V30 3498 C 328.884 4.25693 0.262264 0
M  V30 3499 S 329.717 5.25714 -1.01906 0
M  V30 3500 C 330.873 6.25894 -0.0279717 0
M  V30 3501 H 331.106 2.86807 -0.78287 0
M  V30 3502 H 328.639 1.45382 -0.519951 0
M  V30 3503 H 330.597 3.80983 1.52846 0
M  V30 3504 H 329.258 2.65196 1.68315 0
M  V30 3505 H 328.451 4.93699 1.01379 0
M  V30 3506 H 328.053 3.7327 -0.233482 0
M  V30 3507 H 330.345 6.72585 0.814621 0
M  V30 3508 H 331.288 7.04876 -0.67499 0
M  V30 3509 H 331.696 5.63466 0.341489 0
M  V30 3510 N 331.094 0.475555 1.50254 0
M  V30 3511 C 332.041 -0.316293 2.28622 0
M  V30 3512 C 333.011 -0.983227 1.33873 0
M  V30 3513 O 334.196 -0.994805 1.62814 0
M  V30 3514 C 331.336 -1.38975 3.1588 0
M  V30 3515 C 330.449 -0.737146 4.25664 0
M  V30 3516 C 329.584 -1.78887 5.00173 0
M  V30 3517 C 328.623 -1.11676 6.01826 0
M  V30 3518 N 327.76 -2.11154 6.69596 0
M  V30 3519 H 332.6 0.358297 2.95838 0
M  V30 3520 H 330.137 0.188541 1.45887 0
M  V30 3521 H 332.095 -2.02383 3.64825 0
M  V30 3522 H 330.725 -2.03344 2.50701 0
M  V30 3523 H 329.777 0.0096065 3.80399 0
M  V30 3524 H 331.089 -0.206816 4.98371 0
M  V30 3525 H 330.243 -2.49865 5.52859 0
M  V30 3526 H 328.982 -2.35302 4.27182 0
M  V30 3527 H 327.987 -0.392633 5.48396 0
M  V30 3528 H 329.212 -0.55945 6.76792 0
M  V30 3529 H 327.158 -2.66577 5.99394 0
M  V30 3530 H 327.075 -1.63118 7.38193 0
M  V30 3531 H 328.343 -2.81497 7.26897 0
M  V30 3532 N 332.573 -1.56217 0.208337 0
M  V30 3533 C 333.819 -1.98998 -0.42086 0
M  V30 3534 C 334.174 -1.09331 -1.58317 0
M  V30 3535 O 333.467 -0.140466 -1.91084 0
M  V30 3536 C 333.661 -3.45441 -0.916797 0
M  V30 3537 C 333.49 -4.49273 0.195925 0
M  V30 3538 C 332.26 -5.00998 0.657956 0
M  V30 3539 C 334.458 -5.04294 1.00956 0
M  V30 3540 N 332.44 -5.88514 1.74712 0
M  V30 3541 C 333.811 -5.88607 1.94785 0
M  V30 3542 C 335.866 -4.86692 1.05049 0
M  V30 3543 C 334.569 -6.572 2.9237 0
M  V30 3544 C 336.595 -5.56034 2.01446 0
M  V30 3545 C 335.957 -6.40105 2.94016 0
M  V30 3546 H 332.056 -0.772574 -0.121048 0
M  V30 3547 H 334.64 -1.92101 0.317075 0
M  V30 3548 H 332.811 -3.52812 -1.62413 0
M  V30 3549 H 334.543 -3.75164 -1.51771 0
M  V30 3550 H 331.298 -4.72945 0.248912 0
M  V30 3551 H 331.722 -6.36975 2.2933 0
M  V30 3552 H 336.364 -4.21359 0.348759 0
M  V30 3553 H 334.082 -7.21723 3.63512 0
M  V30 3554 H 337.668 -5.44385 2.0527 0
M  V30 3555 H 336.548 -6.92816 3.6739 0
M  V30 3556 N 334.051 0.0651679 -1.57465 0
M  V30 3557 C 335.276 0.779605 -1.9219 0
M  V30 3558 C 335.701 1.69988 -0.805333 0
M  V30 3559 O 335.059 1.79685 0.241435 0
M  V30 3560 C 335.107 1.54364 -3.2589 0
M  V30 3561 O 334.211 2.65474 -3.1559 0
M  V30 3562 H 333.552 0.212249 -0.629163 0
M  V30 3563 H 336.082 0.0314294 -2.04576 0
M  V30 3564 H 336.092 1.92146 -3.59922 0
M  V30 3565 H 334.767 0.868457 -4.06732 0
M  V30 3566 H 333.344 2.30501 -2.93128 0
M  V30 3567 N 335.529 1.53961 0.336706 0
M  V30 3568 C 336.806 1.62171 1.09361 0
M  V30 3569 C 337.186 0.447263 2.06307 0
M  V30 3570 O 336.534 -0.559802 2.21537 0
M  V30 3571 C 336.744 2.98565 1.80721 0
M  V30 3572 C 338.092 3.54157 2.34218 0
M  V30 3573 O 339.116 3.00784 1.90807 0
M  V30 3574 O 337.975 4.47528 3.13657 0
M  V30 3575 H 335.069 0.6562 0.503319 0
M  V30 3576 H 337.615 1.66307 0.33765 0
M  V30 3577 H 336.387 3.75482 1.10132 0
M  V30 3578 H 336.01 2.9805 2.63158 0
M  V30 3579 N 337.007 -0.598083 1.45811 0
M  V30 3580 C 337.955 -1.72932 1.55555 0
M  V30 3581 C 338.949 -1.63984 0.424921 0
M  V30 3582 O 340.155 -1.69663 0.601205 0
M  V30 3583 H 336.53 -0.571489 0.488779 0
M  V30 3584 H 338.501 -1.61842 2.50699 0
M  V30 3585 C 337.25 -3.11318 1.54843 0
M  V30 3586 H 336.573 -3.18867 2.41172 0
M  V30 3587 H 338.013 -3.90274 1.65717 0
M  V30 3588 C 336.472 -3.3578 0.274427 0
M  V30 3589 O 337.002 -3.9654 -0.641778 0
M  V30 3590 N 335.208 -2.90119 0.167139 0
M  V30 3591 H 334.755 -2.40855 0.913596 0
M  V30 3592 H 334.713 -3.0686 -0.684435 0
M  V30 3593 N 338.485 -1.33259 -0.841409 0
M  V30 3594 C 339.432 -1.23302 -1.95103 0
M  V30 3595 C 340.402 -0.112204 -1.65721 0
M  V30 3596 O 341.587 -0.290038 -1.88583 0
M  V30 3597 C 338.727 -0.975583 -3.31023 0
M  V30 3598 C 337.84 -2.18243 -3.72819 0
M  V30 3599 C 336.975 -1.85936 -4.97595 0
M  V30 3600 C 336.014 -3.02866 -5.3192 0
M  V30 3601 N 335.151 -2.70565 -6.47873 0
M  V30 3602 H 339.991 -2.18207 -2.02952 0
M  V30 3603 H 337.528 -1.0851 -0.993173 0
M  V30 3604 H 339.486 -0.80677 -4.09325 0
M  V30 3605 H 338.116 -0.0632755 -3.22738 0
M  V30 3606 H 337.168 -2.46107 -2.90061 0
M  V30 3607 H 338.48 -3.05666 -3.94169 0
M  V30 3608 H 337.634 -1.65684 -5.83638 0
M  V30 3609 H 336.373 -0.957452 -4.78209 0
M  V30 3610 H 335.378 -3.23736 -4.44382 0
M  V30 3611 H 336.603 -3.93809 -5.53255 0
M  V30 3612 H 334.549 -1.8293 -6.29978 0
M  V30 3613 H 334.466 -3.51519 -6.69306 0
M  V30 3614 H 335.734 -2.53774 -7.37034 0
M  V30 3615 N 339.963 1.05934 -1.16686 0
M  V30 3616 C 341.24 1.75643 -0.860747 0
M  V30 3617 C 341.62 2.01144 0.640641 0
M  V30 3618 O 340.968 1.64147 1.58959 0
M  V30 3619 C 341.178 3.05493 -1.68745 0
M  V30 3620 C 342.526 3.79581 -1.90271 0
M  V30 3621 O 343.55 3.15344 -1.65641 0
M  V30 3622 O 342.409 4.9499 -2.31618 0
M  V30 3623 H 339.503 0.763426 -0.317977 0
M  V30 3624 H 342.049 1.1217 -1.27342 0
M  V30 3625 H 340.821 2.8264 -2.70611 0
M  V30 3626 H 340.444 3.76702 -1.27206 0
M  V30 3627 N 341.441 0.965919 1.2453 0
M  V30 3628 C 342.718 0.543777 1.87889 0
M  V30 3629 C 343.098 -0.97909 1.87021 0
M  V30 3630 O 342.446 -1.84969 1.3416 0
M  V30 3631 C 342.656 1.13327 3.30088 0
M  V30 3632 C 344.004 1.21707 4.06783 0
M  V30 3633 O 345.028 1.08566 3.39252 0
M  V30 3634 O 343.887 1.42456 5.27606 0
M  V30 3635 H 340.981 0.181054 0.806938 0
M  V30 3636 H 343.527 1.06007 1.32516 0
M  V30 3637 H 342.299 2.17612 3.25209 0
M  V30 3638 H 341.922 0.600911 3.93033 0
M  V30 3639 N 342.919 -1.39368 0.735821 0
M  V30 3640 C 344.168 -1.99733 0.281004 0
M  V30 3641 C 344.481 -1.59055 -1.13846 0
M  V30 3642 O 345.687 -2.12262 -1.69284 0
M  V30 3643 C 344.143 -3.57057 0.451462 0
M  V30 3644 C 343.751 -4.06697 1.87886 0
M  V30 3645 C 345.495 -4.2446 0.0584616 0
M  V30 3646 C 343.402 -5.56598 1.99883 0
M  V30 3647 H 342.332 -0.747163 0.101311 0
M  V30 3648 H 344.983 -1.59357 0.909819 0
M  V30 3649 H 343.365 -3.95234 -0.246263 0
M  V30 3650 H 344.539 -3.79853 2.60861 0
M  V30 3651 H 342.854 -3.5196 2.22515 0
M  V30 3652 H 345.451 -5.34549 0.127099 0
M  V30 3653 H 345.794 -4.04444 -0.986433 0
M  V30 3654 H 346.327 -3.9146 0.707374 0
M  V30 3655 H 343.066 -5.81494 3.02564 0
M  V30 3656 H 342.586 -5.85242 1.31346 0
M  V30 3657 H 344.265 -6.22022 1.78039 0
M  V30 3658 N 344.397 -0.483516 -1.5 0
M  V30 3659 C 345.327 0.293829 -2.31644 0
M  V30 3660 C 346.308 0.978864 -1.39112 0
M  V30 3661 O 347.493 0.973644 -1.68029 0
M  V30 3662 C 344.623 1.36897 -3.19181 0
M  V30 3663 C 343.577 0.804833 -4.20365 0
M  V30 3664 C 342.903 1.9792 -4.96721 0
M  V30 3665 C 344.203 -0.192313 -5.21946 0
M  V30 3666 H 345.897 -0.387616 -2.9688 0
M  V30 3667 H 343.443 -0.187856 -1.42769 0
M  V30 3668 H 345.396 1.92037 -3.751 0
M  V30 3669 H 344.12 2.07936 -2.51853 0
M  V30 3670 H 342.779 0.275319 -3.65565 0
M  V30 3671 H 342.427 2.67686 -4.25856 0
M  V30 3672 H 342.127 1.60789 -5.65173 0
M  V30 3673 H 343.651 2.53526 -5.55479 0
M  V30 3674 H 345.065 0.270333 -5.72662 0
M  V30 3675 H 343.462 -0.478543 -5.98189 0
M  V30 3676 H 344.532 -1.11409 -4.71928 0
M  V30 3677 N 345.875 1.56104 -0.216619 0
M  V30 3678 C 346.822 2.2007 0.695531 0
M  V30 3679 C 347.792 1.15471 1.19397 0
M  V30 3680 O 348.977 1.43807 1.25396 0
M  V30 3681 C 346.117 2.88073 1.90021 0
M  V30 3682 C 345.23 4.07253 1.44113 0
M  V30 3683 C 344.365 4.63052 2.603 0
M  V30 3684 C 343.404 5.74545 2.11103 0
M  V30 3685 N 342.541 6.24656 3.20545 0
M  V30 3686 H 347.381 2.97655 0.143327 0
M  V30 3687 H 344.918 1.46982 0.0589934 0
M  V30 3688 H 346.876 3.25681 2.60745 0
M  V30 3689 H 345.506 2.13015 2.42538 0
M  V30 3690 H 344.558 3.75164 0.628999 0
M  V30 3691 H 345.87 4.8783 1.04036 0
M  V30 3692 H 345.024 5.03078 3.39113 0
M  V30 3693 H 343.763 3.81628 3.03663 0
M  V30 3694 H 342.768 5.34027 1.3075 0
M  V30 3695 H 343.993 6.57801 1.68746 0
M  V30 3696 H 341.939 5.46148 3.63399 0
M  V30 3697 H 341.856 7.00343 2.84704 0
M  V30 3698 H 343.124 6.69338 3.99508 0
M  V30 3699 N 347.353 -0.0568162 1.57498 0
M  V30 3700 C 348.601 -0.751617 1.87604 0
M  V30 3701 C 348.922 -1.77351 0.81066 0
M  V30 3702 O 348.192 -1.95254 -0.159018 0
M  V30 3703 H 346.772 -0.280583 0.692302 0
M  V30 3704 H 349.434 -0.0293483 1.94878 0
M  V30 3705 H 348.53 -1.25852 2.856 0
M  V30 3706 N 348.832 -1.54138 -0.328536 0
M  V30 3707 C 350.08 -1.71765 -1.06496 0
M  V30 3708 C 350.401 -0.49149 -1.88704 0
M  V30 3709 O 349.671 0.494539 -1.89555 0
M  V30 3710 H 348.251 -0.633295 -0.396164 0
M  V30 3711 H 350.913 -1.91429 -0.366176 0
M  V30 3712 H 350.009 -2.5951 -1.73381 0
M  V30 3713 N 350.31 0.590341 -1.46126 0
M  V30 3714 C 351.587 1.35029 -1.41515 0
M  V30 3715 C 351.967 2.10888 -0.0946472 0
M  V30 3716 O 351.315 2.08998 0.923693 0
M  V30 3717 C 351.525 2.28269 -2.63997 0
M  V30 3718 C 352.873 2.90338 -3.09821 0
M  V30 3719 O 353.897 2.38585 -2.64492 0
M  V30 3720 O 352.756 3.84321 -3.88535 0
M  V30 3721 H 349.85 0.606317 -0.562413 0
M  V30 3722 H 352.396 0.611994 -1.58281 0
M  V30 3723 H 351.168 1.71591 -3.51671 0
M  V30 3724 H 350.791 3.0945 -2.49652 0
M  V30 3725 N 351.788 1.33704 0.83433 0
M  V30 3726 C 353.034 1.25603 1.59222 0
M  V30 3727 C 353.367 -0.176659 1.93395 0
M  V30 3728 O 352.642 -1.11915 1.59076 0
M  V30 3729 C 352.925 2.13576 2.89926 0
M  V30 3730 C 352.778 3.65326 2.62406 0
M  V30 3731 C 354.097 2.01238 3.91397 0
M  V30 3732 H 351.216 0.457613 0.577719 0
M  V30 3733 H 353.858 1.63848 0.961972 0
M  V30 3734 H 352.008 1.8109 3.43713 0
M  V30 3735 H 353.68 4.08124 2.15017 0
M  V30 3736 H 351.923 3.8698 1.96033 0
M  V30 3737 H 352.594 4.22232 3.55562 0
M  V30 3738 H 355.07 2.29738 3.46929 0
M  V30 3739 H 353.946 2.65036 4.80673 0
M  V30 3740 H 354.207 0.985951 4.30966 0
M  V30 3741 N 353.266 -1.05314 1.17247 0
M  V30 3742 C 354.512 -1.78557 0.961513 0
M  V30 3743 C 354.845 -1.87419 -0.508697 0
M  V30 3744 O 354.12 -1.37307 -1.37757 0
M  V30 3745 C 354.403 -3.22514 1.60176 0
M  V30 3746 C 354.256 -3.21673 3.14399 0
M  V30 3747 C 355.575 -4.20318 1.30463 0
M  V30 3748 H 352.694 -0.6482 0.350723 0
M  V30 3749 H 355.336 -1.23102 1.44727 0
M  V30 3750 H 353.486 -3.69867 1.18871 0
M  V30 3751 H 355.158 -2.82405 3.64753 0
M  V30 3752 H 353.401 -2.60048 3.47214 0
M  V30 3753 H 354.072 -4.23271 3.54324 0
M  V30 3754 H 356.548 -3.81454 1.66229 0
M  V30 3755 H 355.424 -5.19289 1.77848 0
M  V30 3756 H 355.685 -4.41526 0.22521 0
M  V30 3757 N 354.744 -0.972509 -1.24016 0
M  V30 3758 C 356.16 -0.679827 -1.44397 0
M  V30 3759 C 356.36 0.756716 -1.86751 0
M  V30 3760 O 355.416 1.53007 -2.00861 0
M  V30 3761 C 356.729 -1.66803 -2.50195 0
M  V30 3762 C 358.277 -1.68119 -2.64017 0
M  V30 3763 C 358.752 -2.65748 -3.73017 0
M  V30 3764 N 360.243 -2.64219 -3.8045 0
M  V30 3765 C 360.978 -3.36433 -4.64328 0
M  V30 3766 N 360.474 -4.1818 -5.52356 0
M  V30 3767 N 362.267 -3.25235 -4.58453 0
M  V30 3768 H 354.418 -1.90059 -0.948228 0
M  V30 3769 H 356.681 -0.818527 -0.478245 0
M  V30 3770 H 356.387 -2.69498 -2.25973 0
M  V30 3771 H 356.261 -1.4446 -3.48441 0
M  V30 3772 H 358.648 -0.661319 -2.87594 0
M  V30 3773 H 358.729 -1.94525 -1.66113 0
M  V30 3774 H 358.373 -3.67872 -3.50189 0
M  V30 3775 H 358.303 -2.36619 -4.70446 0
M  V30 3776 H 360.794 -2.04887 -3.17537 0
M  V30 3777 H 361.107 -4.70157 -6.13329 0
M  V30 3778 H 359.452 -4.22273 -5.52006 0
M  V30 3779 H 362.643 -2.60829 -3.88698 0
M  V30 3780 H 362.816 -3.81776 -5.23594 0
M  V30 3781 N 356.222 1.38976 -0.743202 0
M  V30 3782 C 357.152 2.33171 -0.123873 0
M  V30 3783 C 358.133 1.54336 0.71516 0
M  V30 3784 O 359.318 1.82696 0.658467 0
M  V30 3785 C 356.448 3.38474 0.777978 0
M  V30 3786 C 355.402 4.27979 0.0424758 0
M  V30 3787 C 354.728 5.2405 1.06189 0
M  V30 3788 C 356.028 5.10155 -1.1198 0
M  V30 3789 H 357.722 2.85213 -0.910709 0
M  V30 3790 H 355.268 1.37133 -0.439388 0
M  V30 3791 H 357.221 4.03328 1.22084 0
M  V30 3792 H 355.945 2.84891 1.59702 0
M  V30 3793 H 354.604 3.64616 -0.380853 0
M  V30 3794 H 354.252 4.66758 1.87472 0
M  V30 3795 H 353.952 5.84785 0.574485 0
M  V30 3796 H 355.476 5.9178 1.50428 0
M  V30 3797 H 356.89 5.68307 -0.75499 0
M  V30 3798 H 355.287 5.80073 -1.53738 0
M  V30 3799 H 356.357 4.44504 -1.93764 0
M  V30 3800 N 357.7 0.491464 1.49741 0
M  V30 3801 C 358.947 -0.0564256 2.02421 0
M  V30 3802 C 359.275 -1.37872 1.37192 0
M  V30 3803 O 358.53 -1.89375 0.493508 0
M  V30 3804 C 358.829 -0.267329 3.56399 0
M  V30 3805 C 358.495 0.975775 4.40215 0
M  V30 3806 C 357.157 1.31655 4.62839 0
M  V30 3807 C 359.509 1.80251 4.89039 0
M  V30 3808 C 356.837 2.48375 5.31532 0
M  V30 3809 C 359.189 2.96116 5.59015 0
M  V30 3810 C 357.853 3.30585 5.79888 0
M  V30 3811 H 357.123 -0.0206476 0.740712 0
M  V30 3812 H 359.77 0.649686 1.80143 0
M  V30 3813 H 358.075 -1.05588 3.77304 0
M  V30 3814 H 359.772 -0.705549 3.94744 0
M  V30 3815 H 356.362 0.700315 4.2284 0
M  V30 3816 H 360.546 1.55239 4.71396 0
M  V30 3817 H 355.802 2.7533 5.45897 0
M  V30 3818 H 359.976 3.60509 5.95824 0
M  V30 3819 H 357.603 4.21132 6.32892 0
M  V30 3820 N 359.178 -1.55987 0.224894 0
M  V30 3821 C 360.128 -2.17076 -0.697296 0
M  V30 3822 C 361.112 -1.12006 -1.15514 0
M  V30 3823 O 362.304 -1.37985 -1.10857 0
M  V30 3824 C 359.433 -2.85679 -1.90374 0
M  V30 3825 C 358.519 -3.97977 -1.46543 0
M  V30 3826 N 358.91 -5.00359 -0.739909 0
M  V30 3827 C 357.208 -4.10128 -1.75245 0
M  V30 3828 C 357.909 -5.79407 -0.515939 0
M  V30 3829 N 356.885 -5.32892 -1.07364 0
M  V30 3830 H 360.687 -2.93592 -0.134594 0
M  V30 3831 H 358.201 -1.62379 0.0262885 0
M  V30 3832 H 360.198 -3.27857 -2.57518 0
M  V30 3833 H 358.858 -2.1066 -2.47088 0
M  V30 3834 H 359.869 -5.16412 -0.392253 0
M  V30 3835 H 356.546 -3.46263 -2.33255 0
M  V30 3836 H 357.936 -6.71872 0.0617349 0
M  V30 3837 N 360.656 0.0484629 -1.57525 0
M  V30 3838 C 361.619 1.03956 -2.04269 0
M  V30 3839 C 362.619 1.30211 -0.943496 0
M  V30 3840 O 363.809 1.25539 -1.20771 0
M  V30 3841 C 360.941 2.37742 -2.44319 0
M  V30 3842 H 362.134 0.636182 -2.93075 0
M  V30 3843 H 359.687 0.294811 -1.53494 0
M  V30 3844 H 360.422 2.82866 -1.5861 0
M  V30 3845 H 360.207 2.20021 -3.24551 0
M  V30 3846 H 361.697 3.08936 -2.80978 0
M  V30 3847 N 362.134 1.5431 0.320358 0
M  V30 3848 C 363.044 1.86946 1.41734 0
M  V30 3849 C 364.06 0.761689 1.56443 0
M  V30 3850 O 365.236 1.05629 1.71477 0
M  V30 3851 C 362.301 2.09293 2.76401 0
M  V30 3852 C 361.362 3.33082 2.70841 0
M  V30 3853 C 360.595 3.54353 3.99086 0
M  V30 3854 O 360.818 2.79002 4.97508 0
M  V30 3855 O 359.752 4.47838 4.0215 0
M  V30 3856 H 363.578 2.80232 1.17062 0
M  V30 3857 H 361.163 1.40255 0.514673 0
M  V30 3858 H 363.045 2.25303 3.56113 0
M  V30 3859 H 361.72 1.19194 3.00956 0
M  V30 3860 H 360.627 3.22454 1.89668 0
M  V30 3861 H 361.96 4.23249 2.5124 0
M  V30 3862 N 363.613 -0.582584 1.46437 0
M  V30 3863 C 364.545 -1.70618 1.53043 0
M  V30 3864 C 365.558 -1.57322 0.418769 0
M  V30 3865 O 366.747 -1.64744 0.687136 0
M  V30 3866 C 363.847 -3.08869 1.39474 0
M  V30 3867 C 363.02 -3.48166 2.64762 0
M  V30 3868 C 362.079 -4.65478 2.4539 0
M  V30 3869 O 361.105 -4.71333 3.19114 0
M  V30 3870 N 362.307 -5.60365 1.51564 0
M  V30 3871 H 365.072 -1.65405 2.49923 0
M  V30 3872 H 362.633 -0.768567 1.42494 0
M  V30 3873 H 364.625 -3.85143 1.24287 0
M  V30 3874 H 363.195 -3.08449 0.507758 0
M  V30 3875 H 362.415 -2.61598 2.9489 0
M  V30 3876 H 363.703 -3.71188 3.4799 0
M  V30 3877 H 363.101 -5.5837 0.907705 0
M  V30 3878 H 361.658 -6.36068 1.4234 0
M  V30 3879 N 365.091 -1.34144 -0.827227 0
M  V30 3880 C 366.001 -1.27428 -1.96975 0
M  V30 3881 C 367.017 -0.182728 -1.73038 0
M  V30 3882 O 368.193 -0.408426 -1.97215 0
M  V30 3883 C 365.258 -1.02526 -3.31194 0
M  V30 3884 C 364.319 -2.20796 -3.68168 0
M  V30 3885 C 363.552 -1.97073 -4.95982 0
M  V30 3886 O 363.775 -0.926822 -5.6282 0
M  V30 3887 O 362.709 -2.83912 -5.30733 0
M  V30 3888 H 366.535 -2.23537 -2.05584 0
M  V30 3889 H 364.12 -1.14307 -0.961989 0
M  V30 3890 H 366.002 -0.904026 -4.11589 0
M  V30 3891 H 364.677 -0.0945389 -3.23562 0
M  V30 3892 H 363.584 -2.38477 -2.88235 0
M  V30 3893 H 364.917 -3.12243 -3.8048 0
M  V30 3894 N 366.569 1.04691 -1.17803 0
M  V30 3895 C 367.516 2.12557 -0.899343 0
M  V30 3896 C 368.486 1.65339 0.158771 0
M  V30 3897 O 369.671 1.90789 0.0204797 0
M  V30 3898 C 366.811 3.42481 -0.424315 0
M  V30 3899 C 365.924 4.03346 -1.54713 0
M  V30 3900 C 365.059 5.21208 -1.02546 0
M  V30 3901 C 364.098 5.74089 -2.12339 0
M  V30 3902 N 363.235 6.83247 -1.61612 0
M  V30 3903 H 368.075 2.35734 -1.823 0
M  V30 3904 H 365.612 1.1564 -0.909159 0
M  V30 3905 H 367.57 4.16996 -0.130421 0
M  V30 3906 H 366.2 3.19471 0.462377 0
M  V30 3907 H 365.252 3.2622 -1.95664 0
M  V30 3908 H 366.564 4.38628 -2.37501 0
M  V30 3909 H 365.718 6.02812 -0.685718 0
M  V30 3910 H 364.457 4.87414 -0.167084 0
M  V30 3911 H 363.462 4.91111 -2.47165 0
M  V30 3912 H 364.687 6.0993 -2.98601 0
M  V30 3913 H 362.633 6.5134 -0.780533 0
M  V30 3914 H 362.55 7.17559 -2.38003 0
M  V30 3915 H 363.818 7.68491 -1.30545 0
M  V30 3916 N 368.047 0.979072 1.23499 0
M  V30 3917 C 369.294 0.647219 1.91878 0
M  V30 3918 C 369.622 -0.819074 1.76413 0
M  V30 3919 O 368.877 -1.60616 1.11808 0
M  V30 3920 C 369.176 0.981932 3.43646 0
M  V30 3921 C 368.842 2.43822 3.79291 0
M  V30 3922 C 367.504 2.83622 3.88731 0
M  V30 3923 C 369.856 3.3828 3.96505 0
M  V30 3924 C 367.184 4.16897 4.12812 0
M  V30 3925 C 369.536 4.71197 4.22085 0
M  V30 3926 C 368.2 5.10758 4.29747 0
M  V30 3927 H 367.47 0.236834 0.702133 0
M  V30 3928 H 370.117 1.23268 1.46551 0
M  V30 3929 H 368.422 0.314365 3.90537 0
M  V30 3930 H 370.119 0.703395 3.94783 0
M  V30 3931 H 366.709 2.11966 3.72516 0
M  V30 3932 H 370.893 3.0871 3.88603 0
M  V30 3933 H 366.149 4.47157 4.16966 0
M  V30 3934 H 370.323 5.44348 4.34348 0
M  V30 3935 H 367.95 6.1405 4.48159 0
M  V30 3936 N 369.525 -1.3858 0.750561 0
M  V30 3937 C 370.455 -2.33102 0.136237 0
M  V30 3938 C 371.436 -1.54713 -0.706965 0
M  V30 3939 O 372.621 -1.83043 -0.648769 0
M  V30 3940 C 369.751 -3.38882 -0.760017 0
M  V30 3941 C 368.705 -4.27995 -0.0197785 0
M  V30 3942 C 368.031 -5.24605 -1.03408 0
M  V30 3943 C 369.331 -5.09554 1.14684 0
M  V30 3944 H 371.025 -2.84726 0.925822 0
M  V30 3945 H 368.571 -1.36898 0.446654 0
M  V30 3946 H 370.524 -4.0397 -1.19943 0
M  V30 3947 H 369.248 -2.85734 -1.58189 0
M  V30 3948 H 367.907 -3.64409 0.400184 0
M  V30 3949 H 367.555 -4.67746 -1.84994 0
M  V30 3950 H 367.255 -5.85081 -0.543464 0
M  V30 3951 H 368.779 -5.9257 -1.47288 0
M  V30 3952 H 370.193 -5.67899 0.785118 0
M  V30 3953 H 368.59 -5.7925 1.56812 0
M  V30 3954 H 369.66 -4.4347 1.96118 0
M  V30 3955 N 371.003 -0.499398 -1.49478 0
M  V30 3956 C 372.231 0.0425456 -2.06856 0
M  V30 3957 C 372.646 1.30964 -1.35992 0
M  V30 3958 O 372.003 1.77172 -0.437762 0
M  V30 3959 C 372.054 0.301735 -3.60239 0
M  V30 3960 O 371.775 -0.915127 -4.28436 0
M  V30 3961 C 373.276 0.887499 -4.34325 0
M  V30 3962 H 370.496 -0.0197482 -0.670709 0
M  V30 3963 H 373.04 -0.696297 -1.92281 0
M  V30 3964 H 371.195 0.990556 -3.74522 0
M  V30 3965 H 371.609 -0.676993 -5.20113 0
M  V30 3966 H 373.083 1.01845 -5.42523 0
M  V30 3967 H 373.56 1.88488 -3.96698 0
M  V30 3968 H 374.166 0.236196 -4.24644 0
M  V30 3969 N 372.481 1.55866 -0.233164 0
M  V30 3970 C 373.721 2.00506 0.397078 0
M  V30 3971 C 374.085 1.1176 1.56121 0
M  V30 3972 O 375.286 1.45796 2.25825 0
M  V30 3973 C 373.557 3.4811 0.809601 0
M  V30 3974 S 375.116 4.14765 1.43231 0
M  V30 3975 H 371.934 0.699828 0.125547 0
M  V30 3976 H 374.536 1.92429 -0.345177 0
M  V30 3977 H 373.24 4.10373 -0.0471601 0
M  V30 3978 H 372.771 3.60085 1.58438 0
M  V30 3979 H 374.786 4.14914 2.7214 0
M  V30 3980 N 373.959 -0.0401083 1.57549 0
M  V30 3981 C 375.236 -0.767917 1.79896 0
M  V30 3982 C 375.616 -1.9416 0.82856 0
M  V30 3983 O 374.964 -2.2812 -0.131671 0
M  V30 3984 C 375.174 -1.2113 3.27305 0
M  V30 3985 C 376.522 -1.63175 3.91994 0
M  V30 3986 O 377.546 -1.30616 3.31388 0
M  V30 3987 O 376.405 -2.23565 4.98679 0
M  V30 3988 H 373.499 -0.370441 0.739393 0
M  V30 3989 H 376.045 -0.017737 1.69691 0
M  V30 3990 H 374.817 -0.372937 3.89519 0
M  V30 3991 H 374.44 -2.02183 3.42356 0
M  V30 3992 N 375.437 -1.54477 -0.31217 0
M  V30 3993 C 376.347 -1.87695 -1.4074 0
M  V30 3994 C 377.363 -0.769975 -1.56036 0
M  V30 3995 O 378.539 -1.06537 -1.70915 0
M  V30 3996 C 375.604 -2.10755 -2.75287 0
M  V30 3997 C 374.665 -3.34514 -2.69071 0
M  V30 3998 C 373.898 -3.56465 -3.97201 0
M  V30 3999 O 374.121 -2.81637 -4.96021 0
M  V30 4000 O 373.055 -4.49964 -3.9977 0
M  V30 4001 H 376.881 -2.80849 -1.15574 0
M  V30 4002 H 374.466 -1.40526 -0.507228 0
M  V30 4003 H 376.348 -2.27188 -3.54913 0
M  V30 4004 H 375.023 -1.20788 -3.0032 0
M  V30 4005 H 373.93 -3.23456 -1.87955 0
M  V30 4006 H 375.263 -4.24575 -2.48992 0
M  V30 4007 N 376.915 0.57481 -1.46744 0
M  V30 4008 C 377.865 1.67838 -1.54319 0
M  V30 4009 C 378.849 1.55759 -0.40346 0
M  V30 4010 O 380.041 1.6454 -0.652347 0
M  V30 4011 C 377.17 3.06624 -1.5439 0
M  V30 4012 C 376.256 3.23971 -2.73685 0
M  V30 4013 N 376.647 3.11447 -3.9854 0
M  V30 4014 C 374.945 3.5493 -2.70075 0
M  V30 4015 C 375.646 3.31011 -4.78337 0
M  V30 4016 N 374.622 3.56533 -4.10348 0
M  V30 4017 H 378.424 1.56698 -2.48642 0
M  V30 4018 H 375.938 0.779071 -1.42493 0
M  V30 4019 H 377.935 3.85839 -1.57905 0
M  V30 4020 H 376.595 3.1889 -0.611493 0
M  V30 4021 H 377.606 2.89145 -4.29669 0
M  V30 4022 H 374.283 3.73832 -1.85893 0
M  V30 4023 H 375.673 3.26445 -5.87268 0
M  V30 4024 N 378.394 1.34581 0.820102 0
M  V30 4025 C 379.81 1.14325 1.11364 0
M  V30 4026 C 380.01 -0.0533648 2.01429 0
M  V30 4027 O 379.066 -0.728044 2.41776 0
M  V30 4028 C 380.379 2.43983 1.75764 0
M  V30 4029 C 381.927 2.50065 1.88246 0
M  V30 4030 C 382.402 3.79732 2.56061 0
M  V30 4031 N 383.893 3.80908 2.63558 0
M  V30 4032 C 384.628 4.77961 3.16766 0
M  V30 4033 N 384.124 5.85397 3.70517 0
M  V30 4034 N 385.917 4.65413 3.15194 0
M  V30 4035 H 378.068 2.11246 0.221096 0
M  V30 4036 H 380.331 0.934289 0.160649 0
M  V30 4037 H 380.037 3.31651 1.1705 0
M  V30 4038 H 379.911 2.57531 2.75604 0
M  V30 4039 H 382.298 1.62834 2.46108 0
M  V30 4040 H 382.379 2.40442 0.873006 0
M  V30 4041 H 382.023 4.67354 1.98853 0
M  V30 4042 H 381.953 3.86639 3.57516 0
M  V30 4043 H 384.444 3.03274 2.25463 0
M  V30 4044 H 384.757 6.55463 4.09376 0
M  V30 4045 H 383.102 5.89107 3.68752 0
M  V30 4046 H 386.293 3.80627 2.72471 0
M  V30 4047 H 386.466 5.41216 3.56356 0
M  V30 4048 N 379.872 -1.04064 1.18357 0
M  V30 4049 C 380.819 -2.12077 0.910603 0
M  V30 4050 C 381.789 -1.65421 -0.15 0
M  V30 4051 O 382.974 -1.90797 -0.0103614 0
M  V30 4052 C 380.114 -3.42252 0.442472 0
M  V30 4053 C 379.227 -4.0252 1.5685 0
M  V30 4054 C 378.362 -5.20657 1.05309 0
M  V30 4055 C 377.401 -5.72955 2.1538 0
M  V30 4056 N 376.538 -6.8238 1.65233 0
M  V30 4057 H 381.378 -2.34764 1.83548 0
M  V30 4058 H 378.915 -1.15157 0.915279 0
M  V30 4059 H 380.873 -4.16921 0.152534 0
M  V30 4060 H 379.503 -3.19712 -0.445428 0
M  V30 4061 H 378.555 -3.25178 1.97391 0
M  V30 4062 H 379.867 -4.37362 2.39824 0
M  V30 4063 H 379.021 -6.0244 0.717677 0
M  V30 4064 H 377.76 -4.87318 0.19293 0
M  V30 4065 H 376.765 -4.89793 2.49766 0
M  V30 4066 H 377.99 -6.08337 3.01832 0
M  V30 4067 H 375.936 -6.50917 0.815064 0
M  V30 4068 H 375.853 -7.16286 2.41805 0
M  V30 4069 H 377.121 -7.67788 1.34619 0
M  V30 4070 N 381.35 -0.985608 -1.22978 0
M  V30 4071 C 382.297 -0.529825 -2.24636 0
M  V30 4072 C 383.267 0.434028 -1.60329 0
M  V30 4073 O 384.452 0.340414 -1.87739 0
M  V30 4074 C 381.592 0.156533 -3.44745 0
M  V30 4075 C 380.705 -0.848197 -4.23591 0
M  V30 4076 C 379.84 -0.136109 -5.31026 0
M  V30 4077 C 378.879 -1.1297 -6.01585 0
M  V30 4078 N 378.016 -0.446415 -7.00679 0
M  V30 4079 H 382.856 -1.40148 -2.62988 0
M  V30 4080 H 380.393 -0.702168 -1.29259 0
M  V30 4081 H 382.351 0.571324 -4.1327 0
M  V30 4082 H 380.981 0.992025 -3.07179 0
M  V30 4083 H 380.033 -1.38135 -3.54433 0
M  V30 4084 H 381.345 -1.60512 -4.72268 0
M  V30 4085 H 380.499 0.335784 -6.0577 0
M  V30 4086 H 379.238 0.653373 -4.83304 0
M  V30 4087 H 378.243 -1.6123 -5.25628 0
M  V30 4088 H 379.468 -1.91993 -6.51395 0
M  V30 4089 H 377.414 0.323763 -6.55201 0
M  V30 4090 H 377.331 -1.1419 -7.47326 0
M  V30 4091 H 378.599 0.00291697 -7.795 0
M  V30 4092 N 382.828 1.3818 -0.7579 0
M  V30 4093 C 383.76 2.2901 -0.0932177 0
M  V30 4094 C 384.773 1.47958 0.679136 0
M  V30 4095 O 385.962 1.70773 0.519514 0
M  V30 4096 C 383.062 3.26953 0.89192 0
M  V30 4097 C 382.235 4.37045 0.176303 0
M  V30 4098 C 381.294 5.15148 1.07281 0
M  V30 4099 O 380.32 5.66616 0.541728 0
M  V30 4100 N 381.522 5.28542 2.40049 0
M  V30 4101 H 384.287 2.86694 -0.873303 0
M  V30 4102 H 381.848 1.50007 -0.609054 0
M  V30 4103 H 383.84 3.76083 1.49479 0
M  V30 4104 H 382.41 2.70136 1.57306 0
M  V30 4105 H 381.63 3.89493 -0.607328 0
M  V30 4106 H 382.918 5.07801 -0.318718 0
M  V30 4107 H 382.316 4.88285 2.85647 0
M  V30 4108 H 380.873 5.8103 2.95376 0
M  V30 4109 N 384.306 0.507319 1.49211 0
M  V30 4110 C 385.256 -0.287112 2.26185 0
M  V30 4111 C 386.24 -0.929983 1.31302 0
M  V30 4112 O 387.432 -0.836538 1.55984 0
M  V30 4113 C 384.561 -1.34718 3.15763 0
M  V30 4114 C 383.647 -0.710235 4.18111 0
M  V30 4115 N 384.038 0.190836 5.0544 0
M  V30 4116 C 382.336 -0.97009 4.35322 0
M  V30 4117 C 383.037 0.55606 5.79036 0
M  V30 4118 N 382.013 -0.0775232 5.43545 0
M  V30 4119 H 385.815 0.406445 2.91076 0
M  V30 4120 H 383.329 0.323814 1.59139 0
M  V30 4121 H 385.326 -1.92982 3.69545 0
M  V30 4122 H 383.986 -2.04235 2.52424 0
M  V30 4123 H 384.997 0.562047 5.14841 0
M  V30 4124 H 381.674 -1.65753 3.83187 0
M  V30 4125 H 383.064 1.2936 6.5933 0
M  V30 4126 N 385.784 -1.5574 0.241426 0
M  V30 4127 C 387.03 -1.99104 -0.385406 0
M  V30 4128 C 387.363 -1.1293 -1.57988 0
M  V30 4129 O 386.638 -0.191449 -1.93555 0
M  V30 4130 C 386.921 -3.51087 -0.800616 0
M  V30 4131 C 386.774 -4.48028 0.398874 0
M  V30 4132 C 388.093 -4.08015 -1.64959 0
M  V30 4133 H 385.212 -0.723848 -0.138614 0
M  V30 4134 H 387.854 -1.86903 0.341642 0
M  V30 4135 H 386.004 -3.61615 -1.4201 0
M  V30 4136 H 387.676 -4.49487 1.03726 0
M  V30 4137 H 385.919 -4.21077 1.04293 0
M  V30 4138 H 386.59 -5.51962 0.0651056 0
M  V30 4139 H 389.066 -4.00555 -1.12672 0
M  V30 4140 H 387.942 -5.14635 -1.90898 0
M  V30 4141 H 388.203 -3.56131 -2.61961 0
M  V30 4142 N 387.262 0.0317525 -1.57568 0
M  V30 4143 C 388.509 0.723104 -1.89149 0
M  V30 4144 C 388.837 1.75504 -0.838377 0
M  V30 4145 O 388.092 1.95037 0.160982 0
M  V30 4146 C 388.391 1.43167 -3.27472 0
M  V30 4147 C 388.057 0.535972 -4.47703 0
M  V30 4148 C 386.719 0.289262 -4.8033 0
M  V30 4149 C 389.071 -0.0826125 -5.21135 0
M  V30 4150 C 386.399 -0.584853 -5.83778 0
M  V30 4151 C 388.751 -0.944414 -6.25511 0
M  V30 4152 C 387.415 -1.20061 -6.56614 0
M  V30 4153 H 386.685 0.264602 -0.692146 0
M  V30 4154 H 389.332 -0.0169496 -1.91492 0
M  V30 4155 H 387.637 2.24497 -3.21105 0
M  V30 4156 H 389.334 1.97209 -3.49155 0
M  V30 4157 H 385.924 0.738414 -4.22191 0
M  V30 4158 H 390.108 0.0950302 -4.96209 0
M  V30 4159 H 385.364 -0.79168 -6.06253 0
M  V30 4160 H 389.538 -1.43026 -6.81554 0
M  V30 4161 H 387.165 -1.87967 -7.36595 0
M  V30 4162 N 388.74 1.54641 0.303973 0
M  V30 4163 C 389.67 1.88386 1.3796 0
M  V30 4164 C 390.651 0.742485 1.5304 0
M  V30 4165 O 391.836 0.997959 1.66597 0
M  V30 4166 C 388.966 2.12854 2.74427 0
M  V30 4167 C 387.92 3.28702 2.74115 0
M  V30 4168 C 387.246 3.38582 4.13844 0
M  V30 4169 C 388.546 4.65881 2.3612 0
M  V30 4170 H 390.24 2.78474 1.09966 0
M  V30 4171 H 387.786 1.33988 0.527556 0
M  V30 4172 H 389.739 2.35047 3.49758 0
M  V30 4173 H 388.463 1.19535 3.03939 0
M  V30 4174 H 387.122 3.06428 2.0124 0
M  V30 4175 H 386.77 2.42784 4.40528 0
M  V30 4176 H 386.47 4.16453 4.14537 0
M  V30 4177 H 387.994 3.63031 4.90959 0
M  V30 4178 H 389.408 4.87823 3.01167 0
M  V30 4179 H 387.805 5.46444 2.48031 0
M  V30 4180 H 388.875 4.66799 1.3125 0
M  V30 4181 N 390.218 -0.567019 1.47046 0
M  V30 4182 C 391.634 -0.891975 1.32348 0
M  V30 4183 C 391.834 -1.99154 0.306616 0
M  V30 4184 O 390.89 -2.50883 -0.28532 0
M  V30 4185 C 392.203 -1.29449 2.7141 0
M  V30 4186 C 393.751 -1.40646 2.79621 0
M  V30 4187 C 394.226 -1.84257 4.19301 0
M  V30 4188 N 395.717 -1.91424 4.21795 0
M  V30 4189 C 396.452 -2.26476 5.26779 0
M  V30 4190 N 395.948 -2.60211 6.42077 0
M  V30 4191 N 397.741 -2.27166 5.14152 0
M  V30 4192 H 389.892 0.159074 2.11803 0
M  V30 4193 H 392.155 0.00849752 0.947962 0
M  V30 4194 H 391.861 -0.560448 3.47206 0
M  V30 4195 H 391.735 -2.25273 3.02542 0
M  V30 4196 H 394.122 -2.13133 2.04104 0
M  V30 4197 H 394.203 -0.430339 2.52154 0
M  V30 4198 H 393.847 -1.12343 4.95319 0
M  V30 4199 H 393.777 -2.82855 4.44185 0
M  V30 4200 H 396.268 -1.6778 3.38612 0
M  V30 4201 H 396.581 -2.85956 7.17948 0
M  V30 4202 H 394.926 -2.57813 6.45413 0
M  V30 4203 H 398.117 -2.00244 4.23107 0
M  V30 4204 H 398.29 -2.54154 5.96079 0
M  V30 4205 N 391.696 -1.35014 -0.812953 0
M  V30 4206 C 392.924 -1.31031 -1.6012 0
M  V30 4207 C 393.339 0.113558 -1.88458 0
M  V30 4208 O 392.696 1.06363 -1.48301 0
M  V30 4209 C 392.747 -2.10872 -2.93624 0
M  V30 4210 O 392.468 -3.47706 -2.66518 0
M  V30 4211 C 393.969 -2.14401 -3.88004 0
M  V30 4212 H 391.189 -0.45037 -0.497401 0
M  V30 4213 H 393.733 -1.77775 -1.01076 0
M  V30 4214 H 391.888 -1.67744 -3.492 0
M  V30 4215 H 392.302 -3.89097 -3.51715 0
M  V30 4216 H 393.776 -2.74669 -4.78812 0
M  V30 4217 H 394.253 -1.14105 -4.24119 0
M  V30 4218 H 394.859 -2.57662 -3.38364 0
M  V30 4219 N 393.175 1.03435 -1.18907 0
M  V30 4220 C 394.403 1.80381 -1.01342 0
M  V30 4221 C 394.818 1.83649 0.438005 0
M  V30 4222 O 394.175 1.27655 1.30424 0
M  V30 4223 C 394.226 3.25689 -1.56873 0
M  V30 4224 O 393.947 3.22673 -2.96334 0
M  V30 4225 C 395.448 4.19255 -1.44014 0
M  V30 4226 H 392.668 0.56784 -0.35749 0
M  V30 4227 H 395.212 1.30317 -1.576 0
M  V30 4228 H 393.367 3.72962 -1.04777 0
M  V30 4229 H 393.781 4.13748 -3.22355 0
M  V30 4230 H 395.255 5.19123 -1.87657 0
M  V30 4231 H 395.732 4.37467 -0.389815 0
M  V30 4232 H 396.338 3.77851 -1.95214 0
M  V30 4233 N 394.653 0.992116 1.22453 0
M  V30 4234 C 395.901 0.666215 1.90804 0
M  V30 4235 C 396.222 -0.804152 1.77647 0
M  V30 4236 O 395.492 -1.57629 1.16318 0
M  V30 4237 H 394.072 0.243423 0.706225 0
M  V30 4238 H 396.734 1.25845 1.48825 0
M  V30 4239 H 395.83 0.928069 2.97982 0
M  V30 4240 N 396.131 -1.37776 0.765217 0
M  V30 4241 C 397.547 -1.53297 0.444108 0
M  V30 4242 C 397.747 -1.72515 -1.04119 0
M  V30 4243 O 396.803 -1.74278 -1.82711 0
M  V30 4244 C 398.116 -2.73328 1.25349 0
M  V30 4245 C 399.664 -2.87185 1.24473 0
M  V30 4246 C 400.139 -4.10191 2.03733 0
M  V30 4247 N 401.63 -4.17291 2.01053 0
M  V30 4248 C 402.365 -5.11488 2.59166 0
M  V30 4249 N 401.861 -6.11285 3.26041 0
M  V30 4250 N 403.654 -5.03924 2.49032 0
M  V30 4251 H 395.805 -1.23552 1.72768 0
M  V30 4252 H 398.068 -0.601103 0.733062 0
M  V30 4253 H 397.774 -2.6557 2.30577 0
M  V30 4254 H 397.648 -3.66834 0.87823 0
M  V30 4255 H 400.035 -2.94418 0.20047 0
M  V30 4256 H 400.116 -1.94657 1.65959 0
M  V30 4257 H 399.76 -4.0372 3.08176 0
M  V30 4258 H 399.69 -5.01821 1.59633 0
M  V30 4259 H 402.181 -3.45825 1.5236 0
M  V30 4260 H 402.494 -6.79678 3.67774 0
M  V30 4261 H 400.839 -6.11583 3.30138 0
M  V30 4262 H 404.03 -4.24902 1.96407 0
M  V30 4263 H 404.203 -5.77152 2.94617 0
M  V30 4264 N 397.609 -0.515225 -1.4894 0
M  V30 4265 C 398.541 0.292481 -2.27326 0
M  V30 4266 C 399.554 0.917838 -1.3446 0
M  V30 4267 O 400.743 0.798772 -1.5963 0
M  V30 4268 C 397.843 1.42803 -3.07344 0
M  V30 4269 C 397.016 0.907347 -4.27885 0
M  V30 4270 C 396.075 1.92222 -4.89834 0
M  V30 4271 O 395.101 1.48506 -5.49486 0
M  V30 4272 N 396.303 3.25355 -4.80754 0
M  V30 4273 H 399.068 -0.379721 -2.97285 0
M  V30 4274 H 396.629 -0.348638 -1.58102 0
M  V30 4275 H 398.621 2.10481 -3.45658 0
M  V30 4276 H 397.191 2.00414 -2.39902 0
M  V30 4277 H 396.411 0.0550218 -3.94162 0
M  V30 4278 H 397.699 0.538108 -5.05946 0
M  V30 4279 H 397.097 3.6355 -4.33414 0
M  V30 4280 H 395.654 3.88707 -5.23211 0
M  V30 4281 N 399.087 1.5561 -0.249682 0
M  V30 4282 C 400.312 2.03865 0.381305 0
M  V30 4283 C 400.737 1.12769 1.50548 0
M  V30 4284 O 400.095 0.121189 1.80895 0
M  V30 4285 C 400.143 3.50101 0.863816 0
M  V30 4286 O 399.247 3.62132 1.97318 0
M  V30 4287 H 398.588 0.658827 0.0827194 0
M  V30 4288 H 401.118 2.01105 -0.376552 0
M  V30 4289 H 401.128 3.90975 1.1663 0
M  V30 4290 H 399.803 4.1588 0.0411816 0
M  V30 4291 H 398.38 3.33155 1.67517 0
M  V30 4292 N 400.565 -0.0233959 1.57583 0
M  V30 4293 C 401.528 -1.00693 2.05897 0
M  V30 4294 C 402.528 -1.28693 0.964092 0
M  V30 4295 O 403.718 -1.23602 1.22753 0
M  V30 4296 C 400.85 -2.33825 2.4807 0
M  V30 4297 H 402.043 -0.589476 2.9405 0
M  V30 4298 H 399.596 -0.270354 1.53944 0
M  V30 4299 H 400.331 -2.80307 1.6309 0
M  V30 4300 H 400.116 -2.1483 3.2801 0
M  V30 4301 H 401.606 -3.04426 2.85857 0
M  V30 4302 N 402.043 -1.548 -0.295768 0
M  V30 4303 C 403.271 -1.78327 -1.04914 0
M  V30 4304 C 403.686 -0.545316 -1.80753 0
M  V30 4305 O 403.043 0.485013 -1.75937 0
M  V30 4306 C 403.094 -2.99418 -2.02561 0
M  V30 4307 O 402.815 -4.18431 -1.29798 0
M  V30 4308 C 404.316 -3.35375 -2.89895 0
M  V30 4309 H 401.536 -0.594618 -0.310918 0
M  V30 4310 H 404.08 -2.01763 -0.333454 0
M  V30 4311 H 402.235 -2.78175 -2.69624 0
M  V30 4312 H 402.649 -4.86736 -1.95419 0
M  V30 4313 H 404.123 -4.23332 -3.54251 0
M  V30 4314 H 404.6 -2.53761 -3.58472 0
M  V30 4315 H 405.206 -3.58796 -2.28355 0
M  V30 4316 N 403.521 0.559213 -1.47345 0
M  V30 4317 C 404.746 1.34676 -1.57725 0
M  V30 4318 C 405.171 1.86723 -0.227164 0
M  V30 4319 O 404.529 1.6286 0.796642 0
M  V30 4320 C 404.577 2.49399 -2.60447 0
M  V30 4321 O 403.681 3.51567 -2.15578 0
M  V30 4322 H 403.022 0.400115 -0.52991 0
M  V30 4323 H 405.552 0.676009 -1.93109 0
M  V30 4324 H 405.562 2.95996 -2.80803 0
M  V30 4325 H 404.237 2.10873 -3.58477 0
M  V30 4326 H 402.814 3.11289 -2.05313 0
M  V30 4327 N 404.999 1.35443 0.805782 0
M  V30 4328 C 405.962 1.28301 1.89925 0
M  V30 4329 C 406.962 0.194285 1.59622 0
M  V30 4330 O 408.152 0.448036 1.6834 0
M  V30 4331 C 405.284 0.984997 3.2636 0
M  V30 4332 H 406.477 2.2553 1.97677 0
M  V30 4333 H 404.03 1.19979 1.00173 0
M  V30 4334 H 404.765 0.016603 3.24296 0
M  V30 4335 H 404.55 1.77269 3.4974 0
M  V30 4336 H 406.04 0.960651 4.064 0
M  V30 4337 N 406.477 -1.02803 1.19454 0
M  V30 4338 C 407.705 -1.79841 1.02297 0
M  V30 4339 C 408.12 -1.83879 -0.428259 0
M  V30 4340 O 407.477 -1.28345 -1.29745 0
M  V30 4341 C 407.528 -3.24852 1.58598 0
M  V30 4342 O 407.249 -3.21097 2.98041 0
M  V30 4343 C 408.75 -4.18485 1.46236 0
M  V30 4344 H 405.97 -0.565936 0.360496 0
M  V30 4345 H 408.514 -1.2948 1.58288 0
M  V30 4346 H 406.669 -3.72401 1.06753 0
M  V30 4347 H 407.083 -4.12033 3.24545 0
M  V30 4348 H 408.557 -5.18121 1.90407 0
M  V30 4349 H 409.034 -4.37254 0.41301 0
M  V30 4350 H 409.64 -3.76811 1.97215 0
M  V30 4351 N 407.956 -0.998596 -1.21925 0
M  V30 4352 C 409.181 -0.696015 -1.95372 0
M  V30 4353 C 409.606 0.733826 -1.73195 0
M  V30 4354 O 408.964 1.50242 -1.01474 0
M  V30 4355 C 409.012 -1.01466 -3.4603 0
M  V30 4356 O 408.116 -0.116415 -4.12236 0
M  V30 4357 H 407.457 -0.259938 -0.611006 0
M  V30 4358 H 409.987 -1.33711 -1.54863 0
M  V30 4359 H 409.997 -0.958855 -3.96573 0
M  V30 4360 H 408.672 -2.05653 -3.61497 0
M  V30 4361 H 407.249 -0.228193 -3.72201 0
M  V30 4362 N 409.434 1.37368 -0.772513 0
M  V30 4363 C 410.659 2.0447 -0.347386 0
M  V30 4364 C 411.084 1.57882 1.0225 0
M  V30 4365 O 410.442 0.73941 1.65537 0
M  V30 4366 C 410.49 3.58369 -0.400479 0
M  V30 4367 O 409.594 4.0803 0.598789 0
M  V30 4368 H 408.935 0.646773 -0.15027 0
M  V30 4369 H 411.465 1.75667 -1.04892 0
M  V30 4370 H 411.475 4.07183 -0.258045 0
M  V30 4371 H 410.15 3.91633 -1.39986 0
M  V30 4372 H 408.727 3.70534 0.419411 0
M  V30 4373 N 410.912 0.523116 1.48665 0
M  V30 4374 C 411.859 -0.243398 2.29513 0
M  V30 4375 C 412.829 -0.940139 1.36933 0
M  V30 4376 O 414.014 -0.942503 1.65896 0
M  V30 4377 C 411.154 -1.28855 3.20141 0
M  V30 4378 C 410.267 -0.60135 4.27794 0
M  V30 4379 C 409.402 -1.62884 5.05611 0
M  V30 4380 C 408.441 -0.924726 6.05075 0
M  V30 4381 N 407.578 -1.89744 6.75975 0
M  V30 4382 H 412.418 0.452234 2.94549 0
M  V30 4383 H 409.955 0.234858 1.45213 0
M  V30 4384 H 411.913 -1.90674 3.71079 0
M  V30 4385 H 410.543 -1.95266 2.57043 0
M  V30 4386 H 409.595 0.130623 3.80176 0
M  V30 4387 H 410.907 -0.0481585 4.98777 0
M  V30 4388 H 410.061 -2.32149 5.60528 0
M  V30 4389 H 408.8 -2.21592 4.34452 0
M  V30 4390 H 407.805 -0.217966 5.49368 0
M  V30 4391 H 409.03 -0.343851 6.78229 0
M  V30 4392 H 406.976 -2.47373 6.07571 0
M  V30 4393 H 406.893 -1.3955 7.43009 0
M  V30 4394 H 408.161 -2.58229 7.35485 0
M  V30 4395 N 412.39 -1.55475 0.257931 0
M  V30 4396 C 413.353 -2.20551 -0.623706 0
M  V30 4397 C 414.353 -1.17809 -1.09443 0
M  V30 4398 O 415.543 -1.42823 -0.997362 0
M  V30 4399 C 412.675 -2.85784 -1.8585 0
M  V30 4400 H 413.868 -2.99848 -0.0557743 0
M  V30 4401 H 411.421 -1.56298 0.0084422 0
M  V30 4402 H 412.156 -2.10453 -2.46739 0
M  V30 4403 H 411.941 -3.61057 -1.52907 0
M  V30 4404 H 413.431 -3.35553 -2.48584 0
M  V30 4405 N 413.868 0.0150385 -1.57593 0
M  V30 4406 C 414.798 1.01047 -2.10503 0
M  V30 4407 C 415.779 1.36816 -1.01071 0
M  V30 4408 O 416.964 1.45455 -1.28672 0
M  V30 4409 C 414.094 2.30708 -2.59598 0
M  V30 4410 C 413.048 2.09142 -3.73421 0
M  V30 4411 C 412.374 3.44685 -4.08774 0
M  V30 4412 C 413.674 1.46619 -5.01298 0
M  V30 4413 H 415.368 0.569978 -2.93925 0
M  V30 4414 H 412.914 0.272724 -1.41394 0
M  V30 4415 H 414.867 3.00687 -2.95238 0
M  V30 4416 H 413.591 2.76843 -1.73279 0
M  V30 4417 H 412.25 1.41592 -3.38153 0
M  V30 4418 H 411.898 3.88495 -3.195 0
M  V30 4419 H 411.598 3.31077 -4.8545 0
M  V30 4420 H 413.122 4.16004 -4.4696 0
M  V30 4421 H 414.536 2.06535 -5.34805 0
M  V30 4422 H 412.933 1.43544 -5.82679 0
M  V30 4423 H 414.003 0.433611 -4.82957 0
M  V30 4424 N 415.346 1.54954 0.287554 0
M  V30 4425 C 416.592 1.76059 1.01856 0
M  V30 4426 C 416.947 0.547056 1.84459 0
M  V30 4427 O 416.24 -0.460442 1.85985 0
M  V30 4428 C 416.434 2.99833 1.94512 0
M  V30 4429 C 416.263 4.33108 1.21026 0
M  V30 4430 C 415.033 4.96632 0.931896 0
M  V30 4431 C 417.231 5.10694 0.607949 0
M  V30 4432 N 415.213 6.13668 0.168716 0
M  V30 4433 C 416.584 6.19996 -0.0217865 0
M  V30 4434 C 418.639 4.95236 0.514338 0
M  V30 4435 C 417.342 7.15524 -0.736092 0
M  V30 4436 C 419.368 5.91106 -0.186343 0
M  V30 4437 C 418.73 6.99786 -0.804875 0
M  V30 4438 H 414.829 0.696679 0.355193 0
M  V30 4439 H 417.413 1.92441 0.295741 0
M  V30 4440 H 415.584 2.84853 2.64033 0
M  V30 4441 H 417.316 3.09405 2.60865 0
M  V30 4442 H 414.071 4.57255 1.23348 0
M  V30 4443 H 414.495 6.76705 -0.199781 0
M  V30 4444 H 419.137 4.11328 0.978234 0
M  V30 4445 H 416.855 7.98964 -1.21172 0
M  V30 4446 H 420.441 5.81224 -0.258897 0
M  V30 4447 H 419.321 7.72694 -1.33843 0
M  V30 4448 N 416.824 -0.551391 1.4764 0
M  V30 4449 C 417.734 -1.68525 1.63207 0
M  V30 4450 C 418.75 -1.6621 0.514815 0
M  V30 4451 O 419.926 -1.85551 0.783113 0
M  V30 4452 C 416.991 -3.05025 1.64805 0
M  V30 4453 C 416.052 -3.18362 2.88 0
M  V30 4454 C 415.285 -4.4835 2.89513 0
M  V30 4455 O 415.508 -5.34163 2.00065 0
M  V30 4456 O 414.442 -4.65602 3.81443 0
M  V30 4457 H 418.268 -1.58333 2.59161 0
M  V30 4458 H 415.853 -0.722063 1.30792 0
M  V30 4459 H 417.735 -3.86245 1.68502 0
M  V30 4460 H 416.41 -3.15587 0.720197 0
M  V30 4461 H 415.317 -2.36518 2.89845 0
M  V30 4462 H 416.65 -3.12707 3.80099 0
M  V30 4463 N 418.302 -1.35869 -0.798587 0
M  V30 4464 C 419.548 -1.2978 -1.55836 0
M  V30 4465 C 419.881 0.125322 -1.93795 0
M  V30 4466 O 419.156 1.07658 -1.61987 0
M  V30 4467 C 419.439 -2.21188 -2.84162 0
M  V30 4468 C 419.292 -3.72155 -2.52628 0
M  V30 4469 C 420.611 -2.11545 -3.85923 0
M  V30 4470 H 417.73 -0.472769 -0.565383 0
M  V30 4471 H 420.372 -1.66341 -0.918192 0
M  V30 4472 H 418.522 -1.90139 -3.38791 0
M  V30 4473 H 420.194 -4.13682 -2.04121 0
M  V30 4474 H 418.437 -3.92042 -1.85704 0
M  V30 4475 H 419.108 -4.31511 -3.44242 0
M  V30 4476 H 421.584 -2.38855 -3.40716 0
M  V30 4477 H 420.46 -2.77688 -4.73477 0
M  V30 4478 H 420.721 -1.09987 -4.282 0
M  V30 4479 N 419.78 1.02168 -1.19998 0
M  V30 4480 C 420.69 2.14069 -0.959774 0
M  V30 4481 C 421.706 1.73804 0.082655 0
M  V30 4482 O 422.882 2.01133 -0.103633 0
M  V30 4483 C 419.947 3.42936 -0.509459 0
M  V30 4484 C 419.008 3.97474 -1.62213 0
M  V30 4485 C 418.241 5.2019 -1.19321 0
M  V30 4486 O 418.464 5.70369 -0.0597726 0
M  V30 4487 O 417.398 5.67749 -1.99863 0
M  V30 4488 H 421.224 2.37199 -1.89658 0
M  V30 4489 H 418.809 1.12469 -0.983411 0
M  V30 4490 H 420.691 4.20551 -0.267322 0
M  V30 4491 H 419.366 3.21234 0.398821 0
M  V30 4492 H 418.273 3.21161 -1.9185 0
M  V30 4493 H 419.606 4.23555 -2.50723 0
M  V30 4494 N 421.258 1.00505 1.21394 0
M  V30 4495 C 422.504 0.688793 1.90745 0
M  V30 4496 C 422.837 -0.778486 1.77914 0
M  V30 4497 O 422.112 -1.56433 1.15581 0
M  V30 4498 C 422.395 1.11063 3.42545 0
M  V30 4499 C 422.248 2.63737 3.64367 0
M  V30 4500 C 423.567 0.673059 4.34923 0
M  V30 4501 H 420.686 0.251702 0.692687 0
M  V30 4502 H 423.328 1.25074 1.43026 0
M  V30 4503 H 421.478 0.632508 3.83317 0
M  V30 4504 H 423.15 3.19313 3.32922 0
M  V30 4505 H 421.393 3.05248 3.08231 0
M  V30 4506 H 422.064 2.88305 4.70727 0
M  V30 4507 H 424.54 1.08392 4.01734 0
M  V30 4508 H 423.416 0.996383 5.39781 0
M  V30 4509 H 423.677 -0.425808 4.40045 0
M  V30 4510 N 422.737 -1.36956 0.779787 0
M  V30 4511 C 423.983 -1.99787 0.348281 0
M  V30 4512 C 424.316 -1.61756 -1.07465 0
M  V30 4513 O 423.591 -0.867639 -1.74075 0
M  V30 4514 C 423.874 -3.56597 0.50104 0
M  V30 4515 C 423.727 -4.04513 1.96697 0
M  V30 4516 C 425.046 -4.40008 -0.0898097 0
M  V30 4517 H 422.165 -0.725796 0.128022 0
M  V30 4518 H 424.807 -1.62514 0.984331 0
M  V30 4519 H 422.957 -3.88479 -0.0404347 0
M  V30 4520 H 424.629 -3.83161 2.56876 0
M  V30 4521 H 422.872 -3.56408 2.47297 0
M  V30 4522 H 423.543 -5.1352 2.02486 0
M  V30 4523 H 426.019 -4.14431 0.372293 0
M  V30 4524 H 424.895 -5.4888 0.0471605 0
M  V30 4525 H 425.156 -4.26035 -1.18096 0
M  V30 4526 N 424.215 -0.530993 -1.48385 0
M  V30 4527 C 425.147 0.268353 -2.27624 0
M  V30 4528 C 426.16 0.903525 -1.35426 0
M  V30 4529 O 427.349 0.781796 -1.60469 0
M  V30 4530 C 424.449 1.39535 -3.08842 0
M  V30 4531 C 423.622 0.861913 -4.28824 0
M  V30 4532 C 422.681 1.87016 -4.91845 0
M  V30 4533 O 421.707 1.4267 -5.5103 0
M  V30 4534 N 422.909 3.20238 -4.84178 0
M  V30 4535 H 425.674 -0.41123 -2.96865 0
M  V30 4536 H 423.235 -0.365387 -1.57723 0
M  V30 4537 H 425.227 2.06803 -3.47871 0
M  V30 4538 H 423.797 1.97859 -2.42014 0
M  V30 4539 H 423.017 0.0132126 -3.94198 0
M  V30 4540 H 424.305 0.484415 -5.06489 0
M  V30 4541 H 423.703 3.58932 -4.37246 0
M  V30 4542 H 422.26 3.83136 -5.27305 0
M  V30 4543 N 425.693 1.55336 -0.266172 0
M  V30 4544 C 426.643 2.18848 0.639497 0
M  V30 4545 C 427.627 1.1503 1.12503 0
M  V30 4546 O 428.819 1.40875 1.0716 0
M  V30 4547 C 425.948 2.90626 1.82733 0
M  V30 4548 C 425.034 4.01723 1.35939 0
M  V30 4549 N 425.425 5.02145 0.606988 0
M  V30 4550 C 423.723 4.1463 1.6431 0
M  V30 4551 C 424.424 5.80572 0.362138 0
M  V30 4552 N 423.4 5.35551 0.931971 0
M  V30 4553 H 427.202 2.93845 0.0567057 0
M  V30 4554 H 424.716 1.62252 -0.0693312 0
M  V30 4555 H 426.713 3.34569 2.48735 0
M  V30 4556 H 425.373 2.17137 2.41416 0
M  V30 4557 H 426.384 5.17271 0.255198 0
M  V30 4558 H 423.061 3.52326 2.23993 0
M  V30 4559 H 424.451 6.71472 -0.239848 0
M  V30 4560 N 427.171 -0.0066808 1.57599 0
M  V30 4561 C 428.448 -0.729586 1.81484 0
M  V30 4562 C 428.828 -1.92359 0.869558 0
M  V30 4563 O 428.176 -2.28348 -0.0832533 0
M  V30 4564 C 428.386 -1.1416 3.29801 0
M  V30 4565 C 429.734 -1.54823 3.95367 0
M  V30 4566 O 430.758 -1.23558 3.34084 0
M  V30 4567 O 429.617 -2.12937 5.03309 0
M  V30 4568 H 426.711 -0.354674 0.747085 0
M  V30 4569 H 429.257 0.0182609 1.6969 0
M  V30 4570 H 428.029 -0.290231 3.90222 0
M  V30 4571 H 427.652 -1.94876 3.46568 0
M  V30 4572 N 428.649 -1.55105 -0.279332 0
M  V30 4573 C 430.06 -1.66186 -0.850832 0
M  V30 4574 C 430.411 -0.584707 -1.87285 0
M  V30 4575 O 429.536 0.274919 -2.14647 0
M  V30 4576 C 430.131 -3.01264 -1.55001 0
M  V30 4577 C 428.69 -3.14394 -2.06963 0
M  V30 4578 C 427.837 -2.61959 -0.909536 0
M  V30 4579 H 430.788 -1.58602 -0.0558235 0
M  V30 4580 H 430.809 -2.93899 -2.41669 0
M  V30 4581 H 430.321 -3.7964 -0.805931 0
M  V30 4582 H 428.422 -2.4078 -2.84352 0
M  V30 4583 H 428.535 -4.20867 -2.28928 0
M  V30 4584 H 426.899 -2.18957 -1.30116 0
M  V30 4585 H 427.682 -3.42833 -0.179062 0
M  V30 4586 N 430.127 0.543554 -1.4793 0
M  V30 4587 C 431.367 1.31072 -1.56843 0
M  V30 4588 C 431.731 1.90604 -0.231124 0
M  V30 4589 O 432.932 2.68091 -0.195165 0
M  V30 4590 C 431.203 2.38106 -2.66533 0
M  V30 4591 S 432.762 3.24729 -2.95122 0
M  V30 4592 H 429.58 0.446035 -0.553691 0
M  V30 4593 H 432.182 0.620777 -1.85382 0
M  V30 4594 H 430.886 1.92828 -3.62278 0
M  V30 4595 H 430.417 3.11824 -2.39852 0
M  V30 4596 H 432.432 4.37891 -2.3338 0
M  V30 4597 N 431.605 1.3629 0.791371 0
M  V30 4598 C 433.021 1.16661 1.08914 0
M  V30 4599 C 433.221 -0.0106266 2.01497 0
M  V30 4600 O 432.277 -0.676596 2.43266 0
M  V30 4601 C 433.59 2.47656 1.70549 0
M  V30 4602 C 435.138 2.54002 1.82899 0
M  V30 4603 C 435.613 3.85078 2.47949 0
M  V30 4604 N 437.104 3.86413 2.5542 0
M  V30 4605 C 437.839 4.84572 3.06557 0
M  V30 4606 N 437.335 5.93124 3.58016 0
M  V30 4607 N 439.128 4.71994 3.05251 0
M  V30 4608 H 431.279 2.11668 0.176238 0
M  V30 4609 H 433.542 0.937486 0.140796 0
M  V30 4610 H 433.248 3.34059 1.09989 0
M  V30 4611 H 433.122 2.63319 2.70079 0
M  V30 4612 H 435.509 1.68018 2.42598 0
M  V30 4613 H 435.59 2.42239 0.821808 0
M  V30 4614 H 435.234 4.71467 1.88895 0
M  V30 4615 H 435.164 3.94135 3.49235 0
M  V30 4616 H 437.655 3.07988 2.18979 0
M  V30 4617 H 437.968 6.63999 3.95381 0
M  V30 4618 H 436.313 5.96796 3.56173 0
M  V30 4619 H 439.504 3.86321 2.64336 0
M  V30 4620 H 439.677 5.48653 3.44796 0
M  V30 4621 N 433.083 -1.0153 1.20538 0
M  V30 4622 C 434.331 -1.74803 1.01432 0
M  V30 4623 C 434.652 -1.8963 -0.454456 0
M  V30 4624 O 433.922 -1.43975 -1.32846 0
M  V30 4625 H 432.502 -0.647598 0.372324 0
M  V30 4626 H 435.164 -1.22402 1.5167 0
M  V30 4627 H 434.26 -2.75114 1.47373 0
M  V30 4628 N 434.561 -1.01147 -1.20859 0
M  V30 4629 C 435.809 -0.696486 -1.89719 0
M  V30 4630 C 436.13 0.775788 -1.78904 0
M  V30 4631 O 435.4 1.55759 -1.18811 0
M  V30 4632 H 433.98 -0.254628 -0.702263 0
M  V30 4633 H 436.642 -1.28197 -1.46804 0
M  V30 4634 H 435.738 -0.975357 -2.96468 0
M  V30 4635 N 436.039 1.36541 -0.78704 0
M  V30 4636 C 437.002 2.28413 -0.189778 0
M  V30 4637 C 438.002 1.48719 0.611499 0
M  V30 4638 O 439.192 1.68737 0.432842 0
M  V30 4639 C 436.324 3.32824 0.737638 0
M  V30 4640 H 437.517 2.82743 -0.999831 0
M  V30 4641 H 435.07 1.46065 -0.556298 0
M  V30 4642 H 435.805 2.83646 1.57212 0
M  V30 4643 H 435.59 3.91752 0.165044 0
M  V30 4644 H 437.08 4.0144 1.15047 0
M  V30 4645 N 437.518 0.538854 1.48102 0
M  V30 4646 C 438.766 0.00798599 2.02098 0
M  V30 4647 C 439.087 -1.33922 1.41739 0
M  V30 4648 O 438.357 -1.86932 0.585934 0
M  V30 4649 H 436.937 -3.62179e-05 0.747 0
M  V30 4650 H 439.599 0.7047 1.81714 0
M  V30 4651 H 438.695 -0.0937672 3.11959 0
M  V30 4652 N 438.996 -1.55193 0.274407 0
M  V30 4653 C 440.226 -2.03692 -0.345442 0
M  V30 4654 C 440.634 -1.15224 -1.50067 0
M  V30 4655 O 439.977 -0.164749 -1.8296 0
M  V30 4656 C 440.039 -3.48325 -0.88939 0
M  V30 4657 C 439.703 -4.56794 0.137115 0
M  V30 4658 C 440.7 -5.11028 0.956378 0
M  V30 4659 C 438.385 -5.01568 0.27115 0
M  V30 4660 C 440.379 -6.08552 1.89587 0
M  V30 4661 C 438.066 -5.98918 1.21412 0
M  V30 4662 C 439.064 -6.52291 2.02498 0
M  V30 4663 O 438.752 -7.47738 2.952 0
M  V30 4664 H 438.484 -0.670893 -0.0829332 0
M  V30 4665 H 441.038 -2.01387 0.404056 0
M  V30 4666 H 439.268 -3.47867 -1.68895 0
M  V30 4667 H 440.957 -3.80167 -1.42225 0
M  V30 4668 H 441.723 -4.7725 0.863559 0
M  V30 4669 H 437.602 -4.5967 -0.349987 0
M  V30 4670 H 441.146 -6.50137 2.52918 0
M  V30 4671 H 437.043 -6.32114 1.30776 0
M  V30 4672 H 437.811 -7.65451 2.89874 0
M  V30 4673 N 440.474 -0.00167713 -1.576 0
M  V30 4674 C 441.72 0.67819 -1.91761 0
M  V30 4675 C 442.075 1.71288 -0.876256 0
M  V30 4676 O 441.368 1.91276 0.111333 0
M  V30 4677 C 441.562 1.36189 -3.30435 0
M  V30 4678 C 441.391 0.394938 -4.47962 0
M  V30 4679 C 440.161 0.00472875 -5.053 0
M  V30 4680 C 442.359 -0.339521 -5.13178 0
M  V30 4681 N 440.341 -0.960257 -6.06343 0
M  V30 4682 C 441.712 -1.15914 -6.09068 0
M  V30 4683 C 443.767 -0.403177 -4.96265 0
M  V30 4684 C 442.47 -2.03661 -6.89866 0
M  V30 4685 C 444.496 -1.26788 -5.77649 0
M  V30 4686 C 443.858 -2.07535 -6.73134 0
M  V30 4687 H 439.957 0.221317 -0.750028 0
M  V30 4688 H 442.541 -0.0624182 -1.946 0
M  V30 4689 H 440.712 2.07278 -3.28467 0
M  V30 4690 H 442.444 1.99658 -3.52021 0
M  V30 4691 H 439.199 0.373452 -4.72125 0
M  V30 4692 H 439.623 -1.43817 -6.61548 0
M  V30 4693 H 444.265 0.206818 -4.22294 0
M  V30 4694 H 441.983 -2.65727 -7.63161 0
M  V30 4695 H 445.569 -1.32107 -5.66603 0
M  V30 4696 H 444.449 -2.73363 -7.35012 0
M  V30 4697 N 441.952 1.55251 0.271103 0
M  V30 4698 C 442.9 1.89054 1.35504 0
M  V30 4699 C 443.894 0.767064 1.51038 0
M  V30 4700 O 445.1 0.951429 1.528 0
M  V30 4701 H 441.475 0.600072 0.45323 0
M  V30 4702 H 443.446 2.79598 1.04247 0
M  V30 4703 C 442.195 2.18068 2.70817 0
M  V30 4704 H 441.518 3.04005 2.59656 0
M  V30 4705 H 442.958 2.4564 3.45597 0
M  V30 4706 C 441.417 0.988901 3.2206 0
M  V30 4707 O 441.947 0.224501 4.01072 0
M  V30 4708 N 440.153 0.786085 2.79766 0
M  V30 4709 H 439.7 1.40937 2.15626 0
M  V30 4710 H 439.658 -0.00969349 3.14399 0
M  V30 4711 N 443.43 -0.535701 1.48216 0
M  V30 4712 C 444.655 -1.32149 1.59848 0
M  V30 4713 C 445.08 -1.86338 0.256842 0
M  V30 4714 O 444.438 -1.64107 -0.770632 0
M  V30 4715 C 444.486 -2.45224 2.64381 0
M  V30 4716 O 443.59 -3.48093 2.21144 0
M  V30 4717 H 442.931 -0.391634 0.536208 0
M  V30 4718 H 445.461 -0.645202 1.94161 0
M  V30 4719 H 445.471 -2.91491 2.85476 0
M  V30 4720 H 444.146 -2.05143 3.61786 0
M  V30 4721 H 442.723 -3.07984 2.10239 0
M  V30 4722 N 444.908 -1.36708 -0.784132 0
M  V30 4723 C 445.838 -1.34153 -1.91116 0
M  V30 4724 C 446.819 -0.212121 -1.68772 0
M  V30 4725 O 448.004 -0.410581 -1.8981 0
M  V30 4726 C 445.134 -1.13535 -3.28218 0
M  V30 4727 C 444.088 -2.23356 -3.65097 0
M  V30 4728 C 443.414 -1.87875 -5.00607 0
M  V30 4729 C 444.714 -3.65473 -3.73131 0
M  V30 4730 H 446.408 -2.28459 -1.93512 0
M  V30 4731 H 443.954 -1.09973 -0.929618 0
M  V30 4732 H 445.907 -1.10381 -4.06687 0
M  V30 4733 H 444.631 -0.156804 -3.26223 0
M  V30 4734 H 443.29 -2.25645 -2.88929 0
M  V30 4735 H 442.938 -0.885814 -4.95139 0
M  V30 4736 H 442.638 -2.61406 -5.26252 0
M  V30 4737 H 444.162 -1.86286 -5.81489 0
M  V30 4738 H 445.576 -3.65382 -4.41779 0
M  V30 4739 H 443.973 -4.37953 -4.10265 0
M  V30 4740 H 445.043 -3.99995 -2.74102 0
M  V30 4741 N 446.386 1.0089 -1.21074 0
M  V30 4742 C 447.633 1.74607 -1.0256 0
M  V30 4743 C 447.961 1.89426 0.44136 0
M  V30 4744 O 447.216 1.42266 1.34384 0
M  V30 4745 C 447.515 3.16335 -1.66334 0
M  V30 4746 C 447.181 3.21474 -3.16173 0
M  V30 4747 C 445.843 3.22583 -3.57062 0
M  V30 4748 C 448.195 3.19025 -4.12156 0
M  V30 4749 C 445.523 3.18925 -4.92446 0
M  V30 4750 C 447.875 3.16909 -5.47496 0
M  V30 4751 C 446.539 3.16326 -5.87787 0
M  V30 4752 H 445.809 0.638933 -0.375294 0
M  V30 4753 H 448.456 1.18274 -1.50611 0
M  V30 4754 H 446.761 3.75876 -1.10566 0
M  V30 4755 H 448.458 3.72083 -1.49516 0
M  V30 4756 H 445.048 3.2135 -2.83605 0
M  V30 4757 H 449.232 3.17332 -3.81595 0
M  V30 4758 H 444.488 3.16809 -5.22917 0
M  V30 4759 H 448.662 3.13968 -6.21609 0
M  V30 4760 H 446.289 3.13246 -6.92662 0
M  V30 4761 N 447.864 1.01787 1.20321 0
M  V30 4762 C 449.28 0.732951 1.41774 0
M  V30 4763 C 449.48 -0.686883 1.89431 0
M  V30 4764 O 448.536 -1.45446 2.06402 0
M  V30 4765 C 449.849 1.75973 2.43832 0
M  V30 4766 C 451.397 1.77802 2.57596 0
M  V30 4767 C 451.872 2.7941 3.62897 0
M  V30 4768 N 453.363 2.78157 3.70382 0
M  V30 4769 C 454.098 3.53434 4.51521 0
M  V30 4770 N 453.594 4.38392 5.36455 0
M  V30 4771 N 455.387 3.42026 4.46066 0
M  V30 4772 H 447.538 1.93447 0.877035 0
M  V30 4773 H 449.801 0.835712 0.447536 0
M  V30 4774 H 449.507 2.77699 2.15815 0
M  V30 4775 H 449.381 1.57292 3.4284 0
M  V30 4776 H 451.768 0.767602 2.84942 0
M  V30 4777 H 451.849 2.00557 1.58779 0
M  V30 4778 H 451.493 3.80616 3.36295 0
M  V30 4779 H 451.423 2.53916 4.61339 0
M  V30 4780 H 453.914 2.16531 3.09714 0
M  V30 4781 H 454.227 4.92596 5.95457 0
M  V30 4782 H 452.572 4.4247 5.35953 0
M  V30 4783 H 455.763 2.75075 3.78749 0
M  V30 4784 H 455.936 4.00946 5.09064 0
M  V30 4785 N 449.342 -1.36122 0.79427 0
M  V30 4786 C 450.589 -1.99111 0.368905 0
M  V30 4787 C 450.917 -1.63032 -1.0607 0
M  V30 4788 O 450.172 -0.879303 -1.74833 0
M  V30 4789 C 450.471 -3.5409 0.48527 0
M  V30 4790 C 450.137 -4.10003 1.87638 0
M  V30 4791 C 448.799 -4.24986 2.257 0
M  V30 4792 C 451.151 -4.40423 2.78706 0
M  V30 4793 C 448.479 -4.67701 3.54221 0
M  V30 4794 C 450.831 -4.84573 4.0666 0
M  V30 4795 C 449.495 -4.97761 4.44737 0
M  V30 4796 H 448.765 -0.7286 0.134992 0
M  V30 4797 H 451.412 -1.62534 1.01267 0
M  V30 4798 H 449.717 -3.91052 -0.241984 0
M  V30 4799 H 451.414 -4.00766 0.137109 0
M  V30 4800 H 448.004 -3.98784 1.57064 0
M  V30 4801 H 452.188 -4.28412 2.50553 0
M  V30 4802 H 447.444 -4.761 3.83587 0
M  V30 4803 H 451.618 -5.07074 4.77336 0
M  V30 4804 H 449.245 -5.30618 5.44379 0
M  V30 4805 N 450.82 -0.546701 -1.47814 0
M  V30 4806 C 451.767 0.206854 -2.29871 0
M  V30 4807 C 452.737 0.918235 -1.38411 0
M  V30 4808 O 453.922 0.915991 -1.67375 0
M  V30 4809 C 451.062 1.23746 -3.22151 0
M  V30 4810 C 450.175 0.533216 -4.28697 0
M  V30 4811 C 449.31 1.5482 -5.08138 0
M  V30 4812 C 448.349 0.828347 -6.06469 0
M  V30 4813 N 447.486 1.78966 -6.78908 0
M  V30 4814 H 452.326 -0.499037 -2.93792 0
M  V30 4815 H 449.863 -0.25793 -1.44821 0
M  V30 4816 H 451.821 1.84746 -3.74065 0
M  V30 4817 H 450.451 1.91151 -2.60117 0
M  V30 4818 H 449.503 -0.191089 -3.7992 0
M  V30 4819 H 450.815 -0.0311987 -4.9879 0
M  V30 4820 H 449.969 2.23202 -5.6415 0
M  V30 4821 H 448.708 2.14652 -4.37922 0
M  V30 4822 H 447.713 0.130539 -5.49645 0
M  V30 4823 H 448.938 0.235907 -6.7869 0
M  V30 4824 H 446.884 2.37675 -6.1143 0
M  V30 4825 H 446.801 1.27712 -7.45135 0
M  V30 4826 H 448.069 2.46496 -7.395 0
M  V30 4827 N 452.299 1.55045 -0.282633 0
M  V30 4828 C 453.249 2.19514 0.616249 0
M  V30 4829 C 454.233 1.16216 1.11277 0
M  V30 4830 O 455.425 1.42004 1.05659 0
M  V30 4831 C 452.554 2.92548 1.7964 0
M  V30 4832 C 451.64 4.03142 1.31671 0
M  V30 4833 N 452.031 5.0276 0.553695 0
M  V30 4834 C 450.329 4.1635 1.59903 0
M  V30 4835 C 451.03 5.80923 0.30054 0
M  V30 4836 N 450.006 5.3651 0.875116 0
M  V30 4837 H 453.808 2.93889 0.0255363 0
M  V30 4838 H 451.322 1.62169 -0.0865362 0
M  V30 4839 H 453.319 3.37188 2.45173 0
M  V30 4840 H 451.979 2.19685 2.39099 0
M  V30 4841 H 452.99 5.17512 0.20032 0
M  V30 4842 H 449.667 3.54682 2.20243 0
M  V30 4843 H 451.057 6.7118 -0.311053 0
M  V30 4844 N 453.777 0.010035 1.57597 0
M  V30 4845 C 454.707 -0.976857 2.12084 0
M  V30 4846 C 455.688 -1.35191 1.03235 0
M  V30 4847 O 456.873 -1.43389 1.3097 0
M  V30 4848 C 454.003 -2.26548 2.63236 0
M  V30 4849 C 452.957 -2.03175 3.76701 0
M  V30 4850 C 452.283 -3.38138 4.14206 0
M  V30 4851 C 453.583 -1.38625 5.03568 0
M  V30 4852 H 455.277 -0.523145 2.94794 0
M  V30 4853 H 452.823 -0.250195 1.4181 0
M  V30 4854 H 454.776 -2.95952 2.99984 0
M  V30 4855 H 453.5 -2.74051 1.77661 0
M  V30 4856 H 452.159 -1.36195 3.40362 0
M  V30 4857 H 451.807 -3.83363 3.25641 0
M  V30 4858 H 451.507 -3.23312 4.90656 0
M  V30 4859 H 453.031 -4.08841 4.53521 0
M  V30 4860 H 454.445 -1.98 5.38023 0
M  V30 4861 H 452.842 -1.34256 5.84889 0
M  V30 4862 H 453.912 -0.356722 4.83586 0
M  V30 4863 N 455.255 -1.55392 -0.262866 0
M  V30 4864 C 456.218 -1.88181 -1.30846 0
M  V30 4865 C 457.218 -0.757079 -1.41862 0
M  V30 4866 O 458.408 -1.02519 -1.40838 0
M  V30 4867 C 455.54 -2.09609 -2.68844 0
M  V30 4868 H 456.733 -2.81659 -1.02997 0
M  V30 4869 H 454.286 -1.48039 -0.501414 0
M  V30 4870 H 455.021 -1.18547 -3.01856 0
M  V30 4871 H 454.806 -2.91508 -2.62231 0
M  V30 4872 H 456.296 -2.36215 -3.44372 0
M  V30 4873 N 456.733 0.527833 -1.48498 0
M  V30 4874 C 457.961 1.30823 -1.6029 0
M  V30 4875 C 458.376 1.86945 -0.263974 0
M  V30 4876 O 457.733 1.6651 0.747034 0
M  V30 4877 C 457.784 2.45756 -2.65116 0
M  V30 4878 O 457.505 1.91946 -3.93813 0
M  V30 4879 C 459.006 3.37543 -2.87367 0
M  V30 4880 H 456.226 0.397763 -0.540394 0
M  V30 4881 H 458.77 0.636529 -1.94341 0
M  V30 4882 H 456.925 3.08806 -2.33917 0
M  V30 4883 H 457.339 2.67195 -4.51339 0
M  V30 4884 H 458.813 4.14532 -3.6451 0
M  V30 4885 H 459.29 3.92905 -1.9627 0
M  V30 4886 H 459.896 2.80283 -3.19878 0
M  V30 4887 N 458.211 1.37122 0.776871 0
M  V30 4888 C 459.459 1.31787 1.53221 0
M  V30 4889 C 459.78 -0.0987589 1.9475 0
M  V30 4890 O 459.05 -1.0417 1.65908 0
M  V30 4891 H 457.63 0.484839 0.568278 0
M  V30 4892 H 460.292 1.71556 0.924917 0
M  V30 4893 H 459.388 1.95355 2.43398 0
M  V30 4894 N 459.689 -1.00246 1.21608 0
M  V30 4895 C 460.639 -2.07492 0.945051 0
M  V30 4896 C 461.623 -1.60585 -0.100675 0
M  V30 4897 O 462.815 -1.76667 0.10859 0
M  V30 4898 C 459.944 -3.39425 0.514342 0
M  V30 4899 C 459.03 -3.92993 1.59428 0
M  V30 4900 N 459.421 -4.19898 2.81991 0
M  V30 4901 C 457.719 -4.21297 1.46374 0
M  V30 4902 C 458.42 -4.63297 3.51754 0
M  V30 4903 N 457.396 -4.66421 2.79199 0
M  V30 4904 H 461.198 -2.26222 1.87619 0
M  V30 4905 H 458.712 -1.18339 1.11219 0
M  V30 4906 H 460.709 -4.15808 0.301527 0
M  V30 4907 H 459.369 -3.22101 -0.410008 0
M  V30 4908 H 460.38 -4.08377 3.1851 0
M  V30 4909 H 457.057 -4.13095 0.604863 0
M  V30 4910 H 458.447 -4.92816 4.56708 0
M  V30 4911 N 461.167 -1.02423 -1.1978 0
M  V30 4912 C 462.397 -0.736387 -1.93031 0
M  V30 4913 C 462.805 0.708023 -1.75453 0
M  V30 4914 O 462.148 1.4927 -1.07071 0
M  V30 4915 C 462.21 -1.00194 -3.45255 0
M  V30 4916 C 461.874 -2.43698 -3.86601 0
M  V30 4917 C 462.871 -3.41814 -3.91738 0
M  V30 4918 C 460.556 -2.77975 -4.18372 0
M  V30 4919 C 462.55 -4.72265 -4.28071 0
M  V30 4920 C 460.237 -4.08636 -4.54378 0
M  V30 4921 C 461.235 -5.05592 -4.59201 0
M  V30 4922 O 460.923 -6.33914 -4.94376 0
M  V30 4923 H 460.655 -0.269116 -0.620123 0
M  V30 4924 H 463.209 -1.37043 -1.52998 0
M  V30 4925 H 461.439 -0.310747 -3.85449 0
M  V30 4926 H 463.128 -0.704488 -3.9974 0
M  V30 4927 H 463.894 -3.16671 -3.67348 0
M  V30 4928 H 459.773 -2.0319 -4.13805 0
M  V30 4929 H 463.317 -5.4794 -4.3175 0
M  V30 4930 H 459.214 -4.33556 -4.78226 0
M  V30 4931 H 459.982 -6.38317 -5.12341 0
M  V30 4932 N 462.645 1.35699 -0.801477 0
M  V30 4933 C 463.575 2.32436 -0.222658 0
M  V30 4934 C 464.556 1.5723 0.649057 0
M  V30 4935 O 465.741 1.85324 0.580387 0
M  V30 4936 C 462.871 3.41469 0.633719 0
M  V30 4937 C 461.825 4.27774 -0.139083 0
M  V30 4938 C 461.151 5.28082 0.838666 0
M  V30 4939 C 462.451 5.04946 -1.33517 0
M  V30 4940 H 464.145 2.81094 -1.03086 0
M  V30 4941 H 461.691 1.35146 -0.497155 0
M  V30 4942 H 463.644 4.08143 1.04868 0
M  V30 4943 H 462.368 2.91408 1.47475 0
M  V30 4944 H 461.027 3.62673 -0.535156 0
M  V30 4945 H 460.675 4.7429 1.67506 0
M  V30 4946 H 460.375 5.86695 0.32594 0
M  V30 4947 H 461.899 5.97628 1.25194 0
M  V30 4948 H 463.313 5.64593 -0.995349 0
M  V30 4949 H 461.71 5.7303 -1.78202 0
M  V30 4950 H 462.78 4.35886 -2.12442 0
M  V30 4951 N 464.123 0.554532 1.47522 0
M  V30 4952 C 465.086 -0.184174 2.28459 0
M  V30 4953 C 466.086 -0.845195 1.36796 0
M  V30 4954 O 467.276 -0.701467 1.59452 0
M  V30 4955 C 464.408 -1.26903 3.16399 0
M  V30 4956 H 465.601 0.526751 2.95238 0
M  V30 4957 H 463.154 0.311375 1.53167 0
M  V30 4958 H 463.889 -2.01244 2.54306 0
M  V30 4959 H 463.674 -0.799883 3.83854 0
M  V30 4960 H 465.164 -1.78794 3.77389 0
M  V30 4961 N 465.601 -1.54893 0.290851 0
M  V30 4962 C 466.564 -2.21824 -0.576784 0
M  V30 4963 C 467.564 -1.20104 -1.06919 0
M  V30 4964 O 468.754 -1.44906 -0.966843 0
M  V30 4965 C 465.886 -2.89662 -1.79747 0
M  V30 4966 H 467.079 -2.99899 0.00784051 0
M  V30 4967 H 464.632 -1.56245 0.0415934 0
M  V30 4968 H 465.367 -2.15639 -2.42219 0
M  V30 4969 H 465.152 -3.64219 -1.45214 0
M  V30 4970 H 466.642 -3.4075 -2.4141 0
M  V30 4971 N 467.08 -0.0183926 -1.57589 0
M  V30 4972 C 467.99 0.982943 -2.13015 0
M  V30 4973 C 469.006 1.36443 -1.07979 0
M  V30 4974 O 470.182 1.44802 -1.3998 0
M  V30 4975 C 467.247 2.25024 -2.63752 0
M  V30 4976 C 466.308 1.93018 -3.83461 0
M  V30 4977 C 465.541 3.13706 -4.31769 0
M  V30 4978 O 465.764 4.2601 -3.79305 0
M  V30 4979 O 464.698 2.96629 -5.23732 0
M  V30 4980 H 468.524 0.541709 -2.9883 0
M  V30 4981 H 466.109 0.201565 -1.48034 0
M  V30 4982 H 467.991 2.99441 -2.96502 0
M  V30 4983 H 466.666 2.68349 -1.81026 0
M  V30 4984 H 465.573 1.16019 -3.55655 0
M  V30 4985 H 466.906 1.54516 -4.67317 0
M  V30 4986 N 468.558 1.5553 0.254621 0
M  V30 4987 C 469.804 1.77262 0.985193 0
M  V30 4988 C 470.137 0.582286 1.85265 0
M  V30 4989 O 469.412 -0.419666 1.89919 0
M  V30 4990 C 469.695 3.0881 1.85225 0
M  V30 4991 C 469.548 4.38233 1.0135 0
M  V30 4992 C 470.867 3.3653 2.83612 0
M  V30 4993 H 467.986 0.644906 0.356742 0
M  V30 4994 H 470.628 1.88264 0.256236 0
M  V30 4995 H 468.778 2.99562 2.47376 0
M  V30 4996 H 470.45 4.59463 0.411269 0
M  V30 4997 H 468.693 4.32636 0.317574 0
M  V30 4998 H 469.364 5.26644 1.65379 0
M  V30 4999 H 471.84 3.45691 2.31596 0
M  V30 5000 H 470.716 4.29805 3.41407 0
M  V30 5001 H 470.977 2.57064 3.59681 0
M  V30 5002 N 470.036 -0.519951 1.48776 0
M  V30 5003 C 471.313 -1.28123 1.47797 0
M  V30 5004 C 471.693 -2.10196 0.195157 0
M  V30 5005 O 471.041 -2.13167 -0.822925 0
M  V30 5006 C 471.251 -2.15413 2.74587 0
M  V30 5007 C 472.599 -2.75225 3.23321 0
M  V30 5008 O 473.623 -2.25694 2.75574 0
M  V30 5009 O 472.482 -3.65346 4.06429 0
M  V30 5010 H 469.576 -0.578793 0.590701 0
M  V30 5011 H 472.122 -0.535779 1.6102 0
M  V30 5012 H 470.894 -1.54617 3.59457 0
M  V30 5013 H 470.517 -2.97186 2.64132 0
M  V30 5014 N 471.514 -1.37532 -0.769588 0
M  V30 5015 C 472.925 -1.29382 -1.346 0
M  V30 5016 C 473.276 0.0576039 -1.96115 0
M  V30 5017 O 472.401 0.95947 -1.93967 0
M  V30 5018 C 472.996 -2.34298 -2.44724 0
M  V30 5019 C 471.555 -2.29776 -2.98128 0
M  V30 5020 C 470.702 -2.18013 -1.71364 0
M  V30 5021 H 473.653 -1.48123 -0.56968 0
M  V30 5022 H 473.674 -1.99089 -3.24259 0
M  V30 5023 H 473.186 -3.32645 -1.99922 0
M  V30 5024 H 471.287 -1.34959 -3.47299 0
M  V30 5025 H 471.4 -3.23276 -3.53595 0
M  V30 5026 H 469.764 -1.64595 -1.94372 0
M  V30 5027 H 470.547 -3.18278 -1.28662 0
M  V30 5028 N 472.992 0.995999 -1.22138 0
M  V30 5029 C 474.269 1.70834 -0.952642 0
M  V30 5030 C 474.649 2.04257 0.533119 0
M  V30 5031 O 473.997 1.72343 1.50034 0
M  V30 5032 C 474.207 2.96119 -1.84701 0
M  V30 5033 C 475.555 3.68962 -2.10124 0
M  V30 5034 O 476.579 3.0612 -1.82124 0
M  V30 5035 O 475.438 4.82017 -2.57531 0
M  V30 5036 H 472.532 0.745498 -0.357997 0
M  V30 5037 H 475.078 1.05262 -1.33109 0
M  V30 5038 H 473.85 2.67898 -2.85213 0
M  V30 5039 H 473.473 3.6943 -1.46995 0
M  V30 5040 N 474.47 1.03057 1.19235 0
M  V30 5041 C 475.717 0.728019 1.88961 0
M  V30 5042 C 476.045 -0.743515 1.79728 0
M  V30 5043 O 475.3 -1.55729 1.1852 0
M  V30 5044 C 475.599 1.1268 3.39172 0
M  V30 5045 C 475.265 2.5969 3.68608 0
M  V30 5046 C 473.927 2.99854 3.76352 0
M  V30 5047 C 476.279 3.54793 3.81801 0
M  V30 5048 C 473.607 4.34031 3.94758 0
M  V30 5049 C 475.959 4.88675 4.0172 0
M  V30 5050 C 474.623 5.28526 4.07697 0
M  V30 5051 H 473.893 0.266401 0.691456 0
M  V30 5052 H 476.54 1.29373 1.41191 0
M  V30 5053 H 474.845 0.479722 3.88852 0
M  V30 5054 H 476.542 0.870203 3.91444 0
M  V30 5055 H 473.132 2.27575 3.63191 0
M  V30 5056 H 477.316 3.24914 3.7516 0
M  V30 5057 H 472.572 4.6444 3.97625 0
M  V30 5058 H 476.746 5.6228 4.1087 0
M  V30 5059 H 474.373 6.32506 4.21712 0
M  V30 5060 N 475.948 -1.35272 0.808662 0
M  V30 5061 C 476.858 -2.33546 0.222079 0
M  V30 5062 C 477.874 -1.6196 -0.636011 0
M  V30 5063 O 479.05 -1.93822 -0.547274 0
M  V30 5064 C 476.115 -3.41148 -0.61795 0
M  V30 5065 C 475.176 -4.28507 0.260875 0
M  V30 5066 C 474.409 -5.3097 -0.539156 0
M  V30 5067 O 474.632 -5.42123 -1.77367 0
M  V30 5068 O 473.566 -6.01858 0.0710526 0
M  V30 5069 H 477.392 -2.85515 1.03512 0
M  V30 5070 H 474.977 -1.38079 0.570495 0
M  V30 5071 H 476.859 -4.06889 -1.09634 0
M  V30 5072 H 475.534 -2.91447 -1.40855 0
M  V30 5073 H 474.441 -3.6574 0.786451 0
M  V30 5074 H 475.774 -4.81611 1.01547 0
M  V30 5075 N 477.426 -0.562348 -1.47226 0
M  V30 5076 C 478.336 0.185466 -2.33866 0
M  V30 5077 C 479.352 0.906713 -1.48508 0
M  V30 5078 O 480.528 0.874458 -1.81425 0
M  V30 5079 C 477.593 1.19904 -3.25306 0
M  V30 5080 C 476.654 0.484669 -4.26555 0
M  V30 5081 C 475.887 1.44996 -5.13626 0
M  V30 5082 O 476.11 2.68515 -5.03245 0
M  V30 5083 O 475.044 0.971642 -5.94006 0
M  V30 5084 H 478.87 -0.525361 -2.99121 0
M  V30 5085 H 476.455 -0.322916 -1.45868 0
M  V30 5086 H 478.337 1.78399 -3.81774 0
M  V30 5087 H 477.012 1.8917 -2.62672 0
M  V30 5088 H 475.919 -0.141605 -3.73832 0
M  V30 5089 H 477.252 -0.166634 -4.91918 0
M  V30 5090 N 478.904 1.54736 -0.299062 0
M  V30 5091 C 479.814 2.27127 0.587413 0
M  V30 5092 C 480.83 1.30575 1.15005 0
M  V30 5093 O 482.006 1.63554 1.17525 0
M  V30 5094 C 479.071 2.99645 1.74395 0
M  V30 5095 C 478.132 4.11731 1.21559 0
M  V30 5096 C 477.365 4.80781 2.317 0
M  V30 5097 O 477.588 4.4918 3.51558 0
M  V30 5098 O 476.522 5.68226 1.98501 0
M  V30 5099 H 480.348 3.037 0.000250109 0
M  V30 5100 H 477.933 1.49256 -0.0655919 0
M  V30 5101 H 479.815 3.45138 2.4178 0
M  V30 5102 H 478.49 2.25969 2.31775 0
M  V30 5103 H 477.397 3.70641 0.507514 0
M  V30 5104 H 478.73 4.87379 0.687233 0
M  V30 5105 N 480.382 0.0267497 1.57577 0
M  V30 5106 C 481.622 -0.65659 1.93567 0
M  V30 5107 C 481.986 -1.69429 0.903213 0
M  V30 5108 O 483.187 -2.42994 1.14923 0
M  V30 5109 C 481.458 -1.25912 3.34486 0
M  V30 5110 S 483.017 -1.96386 3.924 0
M  V30 5111 H 479.835 -0.216237 0.67732 0
M  V30 5112 H 482.437 0.0898475 1.95293 0
M  V30 5113 H 481.141 -0.491405 4.07447 0
M  V30 5114 H 480.672 -2.04291 3.36198 0
M  V30 5115 H 482.687 -3.24202 3.75643 0
M  V30 5116 N 481.861 -1.55662 -0.24637 0
M  V30 5117 C 482.791 -1.93377 -1.30873 0
M  V30 5118 C 483.772 -0.798773 -1.50179 0
M  V30 5119 O 484.957 -1.0591 -1.62778 0
M  V30 5120 C 482.087 -2.22893 -2.66338 0
M  V30 5121 C 481.041 -3.38649 -2.61727 0
M  V30 5122 C 480.367 -3.53708 -4.00992 0
M  V30 5123 C 481.667 -4.74323 -2.18666 0
M  V30 5124 H 483.361 -2.82363 -0.995552 0
M  V30 5125 H 480.907 -1.35854 -0.477464 0
M  V30 5126 H 482.86 -2.47866 -3.40794 0
M  V30 5127 H 481.584 -1.30733 -2.99293 0
M  V30 5128 H 480.243 -3.13685 -1.89729 0
M  V30 5129 H 479.891 -2.58967 -4.31214 0
M  V30 5130 H 479.591 -4.31551 -3.98795 0
M  V30 5131 H 481.115 -3.81003 -4.77147 0
M  V30 5132 H 482.529 -4.98665 -2.82854 0
M  V30 5133 H 480.926 -5.55273 -2.27579 0
M  V30 5134 H 481.996 -4.71349 -1.13834 0
M  V30 5135 N 483.339 0.512053 -1.4905 0
M  V30 5136 C 484.249 1.64139 -1.67617 0
M  V30 5137 C 485.265 1.64786 -0.558701 0
M  V30 5138 O 486.441 1.8341 -0.832034 0
M  V30 5139 C 483.506 3.00548 -1.72835 0
M  V30 5140 C 482.567 3.10615 -2.96339 0
M  V30 5141 C 481.8 4.40517 -3.01298 0
M  V30 5142 O 482.023 5.28671 -2.14157 0
M  V30 5143 O 480.957 4.55325 -3.93653 0
M  V30 5144 H 484.783 1.51407 -2.63267 0
M  V30 5145 H 482.368 0.687131 -1.32661 0
M  V30 5146 H 484.25 3.81641 -1.78683 0
M  V30 5147 H 482.925 3.13566 -0.803616 0
M  V30 5148 H 481.832 2.2875 -2.96014 0
M  V30 5149 H 483.165 3.0252 -3.88256 0
M  V30 5150 N 484.817 1.37938 0.762283 0
M  V30 5151 C 486.064 1.33668 1.52115 0
M  V30 5152 C 486.392 -0.0759538 1.94352 0
M  V30 5153 O 485.647 -1.05121 1.6507 0
M  V30 5154 C 485.946 2.23042 2.79261 0
M  V30 5155 C 485.612 3.71159 2.56031 0
M  V30 5156 C 484.274 4.11523 2.49404 0
M  V30 5157 C 486.626 4.64955 2.35513 0
M  V30 5158 C 483.954 5.43784 2.20263 0
M  V30 5159 C 486.306 5.97464 2.07894 0
M  V30 5160 C 484.97 6.36922 1.99718 0
M  V30 5161 H 484.24 0.489127 0.556629 0
M  V30 5162 H 486.887 1.70224 0.877262 0
M  V30 5163 H 485.192 1.79512 3.48256 0
M  V30 5164 H 486.889 2.17047 3.37182 0
M  V30 5165 H 483.479 3.39153 2.62056 0
M  V30 5166 H 487.663 4.34623 2.39617 0
M  V30 5167 H 482.919 5.73307 2.12435 0
M  V30 5168 H 487.093 6.6969 1.91019 0
M  V30 5169 H 484.72 7.39331 1.76902 0
M  V30 5170 N 486.295 -0.989507 1.22664 0
M  V30 5171 C 487.227 -2.0824 0.957542 0
M  V30 5172 C 488.24 -1.6267 -0.0651098 0
M  V30 5173 O 489.429 -1.77695 0.169312 0
M  V30 5174 C 486.529 -3.36298 0.419145 0
M  V30 5175 C 485.702 -4.10882 1.49982 0
M  V30 5176 C 484.761 -5.17221 0.967904 0
M  V30 5177 O 483.787 -5.44613 1.65487 0
M  V30 5178 N 484.989 -5.80124 -0.20896 0
M  V30 5179 H 487.754 -2.31904 1.89843 0
M  V30 5180 H 485.315 -1.15552 1.13399 0
M  V30 5181 H 487.307 -4.04671 0.0485451 0
M  V30 5182 H 485.877 -3.09671 -0.426937 0
M  V30 5183 H 485.097 -3.37092 2.04359 0
M  V30 5184 H 486.385 -4.57482 2.22682 0
M  V30 5185 H 485.783 -5.60244 -0.783818 0
M  V30 5186 H 484.34 -6.49715 -0.520913 0
M  V30 5187 N 487.773 -1.03688 -1.18687 0
M  V30 5188 C 489.184 -0.766488 -1.70241 0
M  V30 5189 C 489.535 0.713052 -1.82784 0
M  V30 5190 O 488.66 1.55529 -1.50465 0
M  V30 5191 C 489.255 -1.38475 -3.09209 0
M  V30 5192 C 487.814 -1.16276 -3.5799 0
M  V30 5193 C 486.961 -1.4778 -2.34641 0
M  V30 5194 H 489.912 -1.20378 -1.03415 0
M  V30 5195 H 489.933 -0.785939 -3.72295 0
M  V30 5196 H 489.445 -2.46157 -3.00048 0
M  V30 5197 H 487.546 -0.104508 -3.72453 0
M  V30 5198 H 487.659 -1.8571 -4.41643 0
M  V30 5199 H 486.023 -0.897366 -2.38368 0
M  V30 5200 H 486.806 -2.56562 -2.28102 0
M  V30 5201 N 489.251 1.34841 -0.815825 0
M  V30 5202 C 490.476 2.03261 -0.41226 0
M  V30 5203 C 490.901 1.61055 0.971751 0
M  V30 5204 O 490.259 0.7917 1.63101 0
M  V30 5205 C 490.307 3.56914 -0.514289 0
M  V30 5206 O 489.411 4.09728 0.468675 0
M  V30 5207 H 488.752 0.641664 -0.170771 0
M  V30 5208 H 491.282 1.72241 -1.10427 0
M  V30 5209 H 491.292 4.06156 -0.387457 0
M  V30 5210 H 489.967 3.86982 -1.52375 0
M  V30 5211 H 488.544 3.71681 0.301316 0
M  V30 5212 N 490.729 0.570148 1.46925 0
M  V30 5213 C 491.975 0.0510284 2.02736 0
M  V30 5214 C 492.308 -1.3006 1.44215 0
M  V30 5215 O 491.583 -1.84932 0.602521 0
M  V30 5216 C 491.866 -0.028215 3.60089 0
M  V30 5217 C 491.719 1.35142 4.29018 0
M  V30 5218 C 493.038 -0.735181 4.33916 0
M  V30 5219 H 490.157 0.0200178 0.736728 0
M  V30 5220 H 492.799 0.73493 1.75211 0
M  V30 5221 H 490.949 -0.610648 3.83671 0
M  V30 5222 H 492.621 1.97806 4.16738 0
M  V30 5223 H 490.864 1.9226 3.88868 0
M  V30 5224 H 491.535 1.24857 5.37694 0
M  V30 5225 H 494.011 -0.240519 4.15404 0
M  V30 5226 H 492.887 -0.759622 5.43618 0
M  V30 5227 H 493.148 -1.79397 4.04066 0
M  V30 5228 N 492.207 -1.54576 0.307264 0
M  V30 5229 C 493.484 -1.92377 -0.353605 0
M  V30 5230 C 493.864 -1.23517 -1.71192 0
M  V30 5231 O 493.212 -0.373101 -2.25433 0
M  V30 5232 C 493.422 -3.45928 -0.462039 0
M  V30 5233 C 494.77 -4.18278 -0.729975 0
M  V30 5234 O 495.794 -3.51997 -0.545605 0
M  V30 5235 O 494.653 -5.3563 -1.08454 0
M  V30 5236 H 491.747 -0.802747 -0.198812 0
M  V30 5237 H 494.293 -1.65929 0.355783 0
M  V30 5238 H 493.065 -3.88187 0.492592 0
M  V30 5239 H 492.688 -3.78431 -1.21965 0
M  V30 5240 N 493.685 -0.035106 -1.57561 0
M  V30 5241 C 495.096 0.502885 -1.798 0
M  V30 5242 C 495.447 1.71892 -0.945921 0
M  V30 5243 O 494.572 2.15822 -0.157991 0
M  V30 5244 C 495.167 0.919097 -3.26095 0
M  V30 5245 C 493.726 1.40216 -3.49308 0
M  V30 5246 C 492.873 0.369709 -2.74824 0
M  V30 5247 H 495.824 -0.261102 -1.56537 0
M  V30 5248 H 495.845 1.78308 -3.36135 0
M  V30 5249 H 495.357 0.0338526 -3.88085 0
M  V30 5250 H 493.458 2.30714 -2.92578 0
M  V30 5251 H 493.571 1.40541 -4.58023 0
M  V30 5252 H 491.935 0.839113 -2.40481 0
M  V30 5253 H 492.718 -0.507173 -3.39533 0
M  V30 5254 N 495.163 1.55791 0.238111 0
M  V30 5255 C 496.44 1.68798 0.98826 0
M  V30 5256 C 496.82 0.577562 2.03045 0
M  V30 5257 O 496.168 -0.41778 2.24648 0
M  V30 5258 C 496.378 3.09454 1.61367 0
M  V30 5259 C 497.726 3.68335 2.11221 0
M  V30 5260 O 498.75 3.1231 1.71292 0
M  V30 5261 O 497.609 4.6657 2.84561 0
M  V30 5262 H 494.703 0.686881 0.460568 0
M  V30 5263 H 497.249 1.68118 0.231202 0
M  V30 5264 H 496.021 3.81726 0.860295 0
M  V30 5265 H 495.644 3.14182 2.4367 0
M  V30 5266 N 496.642 -0.504142 1.49319 0
M  V30 5267 C 497.574 -1.62265 1.61872 0
M  V30 5268 C 498.587 -1.54881 0.501573 0
M  V30 5269 O 499.776 -1.6087 0.773497 0
M  V30 5270 C 496.876 -3.01042 1.55651 0
M  V30 5271 C 496.049 -3.33642 2.82845 0
M  V30 5272 C 495.108 -4.51816 2.69719 0
M  V30 5273 O 494.134 -4.53755 3.4365 0
M  V30 5274 N 495.336 -5.51543 1.81055 0
M  V30 5275 H 498.101 -1.51924 2.58339 0
M  V30 5276 H 495.662 -0.691954 1.46368 0
M  V30 5277 H 497.654 -3.78013 1.44528 0
M  V30 5278 H 496.224 -3.05323 0.670546 0
M  V30 5279 H 495.444 -2.45598 3.08343 0
M  V30 5280 H 496.732 -3.5222 3.67177 0
M  V30 5281 H 496.13 -5.52774 1.20241 0
M  V30 5282 H 494.687 -6.27629 1.75856 0
M  V30 5283 N 498.12 -1.38341 -0.754957 0
M  V30 5284 C 499.397 -1.24995 -1.50451 0
M  V30 5285 C 499.777 0.149244 -2.10572 0
M  V30 5286 O 499.125 1.15861 -1.96948 0
M  V30 5287 C 499.335 -2.35904 -2.57197 0
M  V30 5288 C 500.683 -2.74262 -3.24138 0
M  V30 5289 O 501.707 -2.35205 -2.67501 0
M  V30 5290 O 500.566 -3.4161 -4.26574 0
M  V30 5291 H 497.66 -0.48872 -0.667144 0
M  V30 5292 H 500.206 -1.50165 -0.790486 0
M  V30 5293 H 498.978 -3.2953 -2.11011 0
M  V30 5294 H 498.601 -2.12291 -3.36182 0
M  V30 5295 N 499.598 0.982988 -1.23187 0
M  V30 5296 C 500.561 2.05649 -1.01198 0
M  V30 5297 C 501.561 1.6078 0.0252464 0
M  V30 5298 O 502.751 1.72878 -0.214243 0
M  V30 5299 C 499.883 3.36744 -0.530656 0
M  V30 5300 H 501.076 2.2659 -1.96461 0
M  V30 5301 H 498.629 1.15602 -1.05195 0
M  V30 5302 H 499.364 3.21492 0.425873 0
M  V30 5303 H 499.149 3.7065 -1.2791 0
M  V30 5304 H 500.639 4.15705 -0.397366 0
M  V30 5305 N 501.076 1.04316 1.18135 0
M  V30 5306 C 502.301 0.768047 1.92655 0
M  V30 5307 C 502.726 -0.66904 1.758 0
M  V30 5308 O 502.084 -1.46372 1.06981 0
M  V30 5309 C 502.132 1.14239 3.42026 0
M  V30 5310 O 501.236 0.269333 4.1152 0
M  V30 5311 H 500.577 0.282436 0.600937 0
M  V30 5312 H 503.107 1.39367 1.49793 0
M  V30 5313 H 503.117 1.10538 3.92741 0
M  V30 5314 H 501.792 2.18928 3.53615 0
M  V30 5315 H 500.369 0.366175 3.71098 0
M  V30 5316 N 502.554 -1.34406 0.822964 0
M  V30 5317 C 503.97 -1.51275 0.508727 0
M  V30 5318 C 504.17 -1.76776 -0.967083 0
M  V30 5319 O 503.226 -1.81871 -1.75155 0
M  V30 5320 C 504.539 -2.67765 1.36829 0
M  V30 5321 C 506.087 -2.81647 1.36542 0
M  V30 5322 C 506.562 -4.01181 2.20947 0
M  V30 5323 N 508.053 -4.08388 2.18571 0
M  V30 5324 C 508.788 -5.00036 2.80627 0
M  V30 5325 N 508.284 -5.96906 3.51674 0
M  V30 5326 N 510.077 -4.92908 2.70181 0
M  V30 5327 H 502.228 -1.16113 1.77852 0
M  V30 5328 H 504.491 -0.56947 0.757897 0
M  V30 5329 H 504.197 -2.55551 2.41633 0
M  V30 5330 H 504.071 -3.62779 1.03303 0
M  V30 5331 H 506.458 -2.93303 0.325163 0
M  V30 5332 H 506.539 -1.87443 1.74066 0
M  V30 5333 H 506.183 -3.90286 3.25022 0
M  V30 5334 H 506.113 -4.94599 1.80774 0
M  V30 5335 H 508.604 -3.39051 1.66891 0
M  V30 5336 H 508.917 -6.63468 3.96271 0
M  V30 5337 H 507.262 -5.9703 3.5578 0
M  V30 5338 H 510.453 -4.1619 2.14251 0
M  V30 5339 H 510.626 -5.64137 3.18831 0
M  V30 5340 N 504.032 -0.577932 -1.46621 0
M  V30 5341 C 505.257 -0.0652536 -2.07297 0
M  V30 5342 C 505.682 1.22828 -1.4246 0
M  V30 5343 O 505.04 1.74075 -0.506718 0
M  V30 5344 C 505.088 0.0920589 -3.60482 0
M  V30 5345 O 504.192 1.14972 -3.96049 0
M  V30 5346 H 503.533 -0.06065 -0.661224 0
M  V30 5347 H 506.063 -0.799515 -1.88332 0
M  V30 5348 H 506.073 0.299741 -4.06897 0
M  V30 5349 H 504.748 -0.852612 -4.07067 0
M  V30 5350 H 503.325 0.920879 -3.61351 0
M  V30 5351 N 505.51 1.54411 -0.315457 0
M  V30 5352 C 506.926 1.59556 0.037464 0
M  V30 5353 C 507.126 1.33217 1.5118 0
M  V30 5354 O 506.182 1.11264 2.26664 0
M  V30 5355 C 507.495 2.98372 -0.373477 0
M  V30 5356 C 509.043 3.11324 -0.323452 0
M  V30 5357 C 509.518 4.52472 -0.709433 0
M  V30 5358 N 511.009 4.58437 -0.662524 0
M  V30 5359 C 511.744 5.65751 -0.933474 0
M  V30 5360 N 511.24 6.81039 -1.27114 0
M  V30 5361 N 513.033 5.55489 -0.859573 0
M  V30 5362 H 505.184 1.6979 -1.27614 0
M  V30 5363 H 507.447 0.793732 -0.518356 0
M  V30 5364 H 507.153 3.22618 -1.40037 0
M  V30 5365 H 507.027 3.76264 0.265615 0
M  V30 5366 H 509.414 2.86818 0.694223 0
M  V30 5367 H 509.495 2.35555 -0.997367 0
M  V30 5368 H 509.139 4.7771 -1.72498 0
M  V30 5369 H 509.069 5.26598 -0.0132923 0
M  V30 5370 H 511.56 3.75636 -0.413065 0
M  V30 5371 H 511.873 7.58816 -1.46348 0
M  V30 5372 H 510.218 6.82555 -1.30932 0
M  V30 5373 H 513.409 4.64299 -0.595324 0
M  V30 5374 H 513.582 6.39036 -1.0741 0
M  V30 5375 N 506.988 0.0434614 1.5754 0
M  V30 5376 C 507.918 -0.931651 2.14109 0
M  V30 5377 C 508.899 -1.32971 1.06079 0
M  V30 5378 O 510.084 -1.40579 1.33982 0
M  V30 5379 C 507.214 -2.20914 2.67982 0
M  V30 5380 C 506.168 -1.95139 3.80926 0
M  V30 5381 C 505.494 -3.29276 4.21285 0
M  V30 5382 C 506.794 -1.27913 5.06395 0
M  V30 5383 H 508.488 -0.460497 2.95837 0
M  V30 5384 H 506.034 -0.220058 1.42309 0
M  V30 5385 H 507.987 -2.89522 3.06194 0
M  V30 5386 H 506.711 -2.70221 1.83434 0
M  V30 5387 H 505.37 -1.28945 3.43175 0
M  V30 5388 H 505.018 -3.76369 3.33699 0
M  V30 5389 H 504.718 -3.12831 4.97404 0
M  V30 5390 H 506.242 -3.99129 4.62091 0
M  V30 5391 H 507.656 -1.86544 5.42102 0
M  V30 5392 H 506.053 -1.2182 5.87605 0
M  V30 5393 H 507.123 -0.254066 4.84234 0
M  V30 5394 N 508.466 -1.55915 -0.229846 0
M  V30 5395 C 509.882 -1.48721 -0.579166 0
M  V30 5396 C 510.082 -0.736976 -1.87539 0
M  V30 5397 O 509.138 -0.273258 -2.51017 0
M  V30 5398 C 510.451 -2.9323 -0.666082 0
M  V30 5399 C 511.999 -3.03701 -0.757267 0
M  V30 5400 C 512.474 -4.49552 -0.8756 0
M  V30 5401 N 513.965 -4.53561 -0.940035 0
M  V30 5402 C 514.7 -5.63683 -1.05116 0
M  V30 5403 N 514.196 -6.83576 -1.12675 0
M  V30 5404 N 515.989 -5.51516 -1.08565 0
M  V30 5405 H 508.14 -2.03123 0.620857 0
M  V30 5406 H 510.403 -0.922898 0.21671 0
M  V30 5407 H 510.109 -3.51032 0.21664 0
M  V30 5408 H 509.983 -3.44668 -1.53243 0
M  V30 5409 H 512.37 -2.45969 -1.63043 0
M  V30 5410 H 512.451 -2.55446 0.134583 0
M  V30 5411 H 512.095 -5.079 -0.00692351 0
M  V30 5412 H 512.025 -4.95506 -1.78274 0
M  V30 5413 H 514.516 -3.67215 -0.892269 0
M  V30 5414 H 514.829 -7.63251 -1.21109 0
M  V30 5415 H 513.174 -6.86303 -1.09603 0
M  V30 5416 H 516.365 -4.5678 -1.02319 0
M  V30 5417 H 516.538 -6.37372 -1.1688 0
M  V30 5418 N 509.944 0.496216 -1.49584 0
M  V30 5419 C 510.892 1.61805 -1.67098 0
M  V30 5420 C 511.886 1.60667 -0.536877 0
M  V30 5421 O 513.092 1.65118 -0.716654 0
M  V30 5422 H 509.467 0.53646 -0.526986 0
M  V30 5423 H 511.438 1.44187 -2.61252 0
M  V30 5424 C 510.187 2.99912 -1.75921 0
M  V30 5425 H 509.51 3.01496 -2.62565 0
M  V30 5426 H 510.95 3.77931 -1.92209 0
M  V30 5427 C 509.409 3.33092 -0.505088 0
M  V30 5428 O 509.939 4.00019 0.367085 0
M  V30 5429 N 508.145 2.88278 -0.366599 0
M  V30 5430 H 507.692 2.33989 -1.07735 0
M  V30 5431 H 507.65 3.10846 0.47142 0
M  V30 5432 N 511.423 1.38739 0.74761 0
M  V30 5433 C 512.386 1.36241 1.84312 0
M  V30 5434 C 513.386 0.261811 1.58654 0
M  V30 5435 O 514.576 0.519031 1.66288 0
M  V30 5436 C 511.708 1.12253 3.21888 0
M  V30 5437 H 512.901 2.33712 1.87933 0
M  V30 5438 H 510.454 1.2412 0.949946 0
M  V30 5439 H 511.189 0.154133 3.23934 0
M  V30 5440 H 510.974 1.91943 3.41907 0
M  V30 5441 H 512.464 1.13215 4.0196 0
M  V30 5442 N 512.901 -0.976442 1.23707 0
M  V30 5443 C 513.833 -2.07212 0.979574 0
M  V30 5444 C 514.846 -1.6273 -0.0478528 0
M  V30 5445 O 516.035 -1.77506 0.18815 0
M  V30 5446 C 513.135 -3.35835 0.45479 0
M  V30 5447 C 512.308 -4.09268 1.54331 0
M  V30 5448 C 511.367 -5.16166 1.02271 0
M  V30 5449 O 510.393 -5.42827 1.71254 0
M  V30 5450 N 511.595 -5.80313 -0.147419 0
M  V30 5451 H 514.36 -2.29878 1.92292 0
M  V30 5452 H 511.921 -1.14343 1.14618 0
M  V30 5453 H 513.913 -4.04597 0.0914631 0
M  V30 5454 H 512.483 -3.10106 -0.394068 0
M  V30 5455 H 511.703 -3.34906 2.07923 0
M  V30 5456 H 512.991 -4.55095 2.27522 0
M  V30 5457 H 512.389 -5.61043 -0.724353 0
M  V30 5458 H 510.946 -6.50231 -0.451972 0
M  V30 5459 N 514.379 -1.04941 -1.1758 0
M  V30 5460 C 515.289 -0.658826 -2.25159 0
M  V30 5461 C 516.305 0.318941 -1.71052 0
M  V30 5462 O 517.481 0.171669 -2.00667 0
M  V30 5463 C 514.546 -0.0369522 -3.4668 0
M  V30 5464 C 513.607 -1.06484 -4.15884 0
M  V30 5465 C 512.84 -0.472551 -5.31604 0
M  V30 5466 O 513.063 0.718736 -5.65854 0
M  V30 5467 O 511.997 -1.20557 -5.89703 0
M  V30 5468 H 515.823 -1.55533 -2.60851 0
M  V30 5469 H 513.408 -0.820819 -1.24832 0
M  V30 5470 H 515.29 0.308784 -4.20267 0
M  V30 5471 H 513.965 0.833238 -3.12792 0
M  V30 5472 H 512.872 -1.46253 -3.44327 0
M  V30 5473 H 514.205 -1.9061 -4.53794 0
M  V30 5474 N 515.857 1.33968 -0.830081 0
M  V30 5475 C 516.804 2.29387 -0.255008 0
M  V30 5476 C 517.774 1.53923 0.624243 0
M  V30 5477 O 518.959 1.82262 0.564372 0
M  V30 5478 C 516.099 3.4034 0.571209 0
M  V30 5479 C 515.212 4.30729 -0.331083 0
M  V30 5480 C 514.347 5.2879 0.505389 0
M  V30 5481 C 513.386 6.10819 -0.395843 0
M  V30 5482 N 512.523 7.00948 0.401979 0
M  V30 5483 H 517.363 2.77972 -1.07404 0
M  V30 5484 H 514.9 1.36785 -0.541133 0
M  V30 5485 H 516.858 4.03361 1.06562 0
M  V30 5486 H 515.488 2.9297 1.35529 0
M  V30 5487 H 514.54 3.68507 -0.943759 0
M  V30 5488 H 515.852 4.88181 -1.02377 0
M  V30 5489 H 515.006 5.97297 1.06399 0
M  V30 5490 H 513.745 4.71894 1.23155 0
M  V30 5491 H 512.75 5.41238 -0.966529 0
M  V30 5492 H 513.975 6.69797 -1.12023 0
M  V30 5493 H 511.921 6.46512 1.11168 0
M  V30 5494 H 511.838 7.55643 -0.232167 0
M  V30 5495 H 513.106 7.73774 0.943102 0
M  V30 5496 N 517.335 0.585699 1.46312 0
M  V30 5497 C 518.268 -0.194257 2.27372 0
M  V30 5498 C 519.246 -0.894116 1.3581 0
M  V30 5499 O 520.43 -0.907402 1.65222 0
M  V30 5500 C 517.557 -1.27901 3.13622 0
M  V30 5501 C 516.603 -0.684666 4.20969 0
M  V30 5502 S 517.436 0.490745 5.33247 0
M  V30 5503 C 518.592 -0.595137 6.23064 0
M  V30 5504 H 518.825 0.493515 2.93175 0
M  V30 5505 H 516.358 0.372666 1.49835 0
M  V30 5506 H 518.316 -1.90008 3.63878 0
M  V30 5507 H 516.977 -1.93875 2.47126 0
M  V30 5508 H 516.17 -1.50015 4.81156 0
M  V30 5509 H 515.772 -0.139204 3.73741 0
M  V30 5510 H 518.064 -1.48002 6.61137 0
M  V30 5511 H 519.007 -0.0299446 7.08094 0
M  V30 5512 H 519.415 -0.900627 5.57269 0
M  V30 5513 N 518.813 -1.54241 0.323641 0
M  V30 5514 C 520.059 -2.00867 -0.279323 0
M  V30 5515 C 520.392 -1.21146 -1.5178 0
M  V30 5516 O 519.667 -0.29378 -1.92269 0
M  V30 5517 C 519.95 -3.54837 -0.613387 0
M  V30 5518 C 519.803 -4.45284 0.635803 0
M  V30 5519 C 521.122 -4.16186 -1.43099 0
M  V30 5520 H 518.241 -0.730177 -0.100049 0
M  V30 5521 H 520.883 -1.84829 0.440235 0
M  V30 5522 H 519.033 -3.68634 -1.22641 0
M  V30 5523 H 520.705 -4.43357 1.27406 0
M  V30 5524 H 518.948 -4.14956 1.26466 0
M  V30 5525 H 519.619 -5.5084 0.357597 0
M  V30 5526 H 522.095 -4.05964 -0.912814 0
M  V30 5527 H 520.971 -5.24031 -1.6335 0
M  V30 5528 H 521.232 -3.69516 -2.42715 0
M  V30 5529 N 520.291 -0.0518155 -1.57515 0
M  V30 5530 C 521.521 0.63048 -1.96745 0
M  V30 5531 C 521.929 1.64875 -0.928054 0
M  V30 5532 O 521.272 1.83449 0.0960678 0
M  V30 5533 C 521.334 1.37381 -3.32215 0
M  V30 5534 C 520.998 0.511298 -4.54131 0
M  V30 5535 C 521.995 -0.222884 -5.19422 0
M  V30 5536 C 519.68 0.442035 -5.00351 0
M  V30 5537 C 521.674 -1.01476 -6.2927 0
M  V30 5538 C 519.361 -0.35353 -6.10077 0
M  V30 5539 C 520.359 -1.08062 -6.74397 0
M  V30 5540 O 520.047 -1.8631 -7.82013 0
M  V30 5541 H 519.779 0.177126 -0.652382 0
M  V30 5542 H 522.333 -0.114726 -2.05079 0
M  V30 5543 H 520.563 2.16466 -3.20436 0
M  V30 5544 H 522.252 1.9464 -3.56188 0
M  V30 5545 H 523.018 -0.178846 -4.8467 0
M  V30 5546 H 518.897 0.997562 -4.50077 0
M  V30 5547 H 522.441 -1.58279 -6.79407 0
M  V30 5548 H 518.338 -0.399205 -6.44264 0
M  V30 5549 H 519.106 -1.78528 -7.98793 0
M  V30 5550 N 521.769 1.56035 0.221574 0
M  V30 5551 C 522.994 1.83476 0.967026 0
M  V30 5552 C 523.419 0.632139 1.7716 0
M  V30 5553 O 522.777 -0.419082 1.7639 0
M  V30 5554 C 522.825 3.08907 1.86034 0
M  V30 5555 O 521.929 2.876 2.95567 0
M  V30 5556 H 521.27 0.604913 0.273817 0
M  V30 5557 H 523.8 2.03247 0.234893 0
M  V30 5558 H 523.81 3.3901 2.27016 0
M  V30 5559 H 522.485 3.96068 1.26898 0
M  V30 5560 H 521.062 2.6873 2.58532 0
M  V30 5561 N 523.247 -0.488276 1.49845 0
M  V30 5562 C 524.177 -1.59675 1.70371 0
M  V30 5563 C 525.158 -1.60878 0.552473 0
M  V30 5564 O 526.343 -1.77417 0.78973 0
M  V30 5565 C 523.473 -2.98098 1.782 0
M  V30 5566 C 522.427 -3.11761 2.93239 0
M  V30 5567 C 521.753 -4.51661 2.86193 0
M  V30 5568 C 523.053 -2.90589 4.33999 0
M  V30 5569 H 524.747 -1.42752 2.63177 0
M  V30 5570 H 522.293 -0.685317 1.26647 0
M  V30 5571 H 524.246 -3.75555 1.91144 0
M  V30 5572 H 522.97 -3.16138 0.820018 0
M  V30 5573 H 521.629 -2.36732 2.79917 0
M  V30 5574 H 521.277 -4.66595 1.87877 0
M  V30 5575 H 520.977 -4.61742 3.63412 0
M  V30 5576 H 522.501 -5.31162 3.01163 0
M  V30 5577 H 523.915 -3.57807 4.47936 0
M  V30 5578 H 522.312 -3.1213 5.12538 0
M  V30 5579 H 523.382 -1.86595 4.4756 0
M  V30 5580 N 524.725 -1.39134 -0.740242 0
M  V30 5581 C 525.971 -1.36273 -1.50192 0
M  V30 5582 C 526.304 0.0430136 -1.94152 0
M  V30 5583 O 525.579 1.00691 -1.66408 0
M  V30 5584 C 525.862 -2.33041 -2.74525 0
M  V30 5585 C 525.715 -3.82535 -2.36617 0
M  V30 5586 C 527.034 -2.27723 -3.76604 0
M  V30 5587 H 524.153 -0.496323 -0.544823 0
M  V30 5588 H 526.795 -1.70085 -0.846815 0
M  V30 5589 H 524.945 -2.04337 -3.30422 0
M  V30 5590 H 526.617 -4.21967 -1.86391 0
M  V30 5591 H 524.86 -3.99565 -1.68909 0
M  V30 5592 H 525.531 -4.45723 -3.2563 0
M  V30 5593 H 528.007 -2.53091 -3.30279 0
M  V30 5594 H 526.883 -2.97519 -4.61274 0
M  V30 5595 H 527.144 -1.28049 -4.2315 0
M  V30 5596 N 526.204 0.969867 -1.24223 0
M  V30 5597 C 527.429 1.75289 -1.10853 0
M  V30 5598 C 527.854 1.85091 0.335079 0
M  V30 5599 O 527.212 1.32024 1.24255 0
M  V30 5600 C 527.26 3.15255 -1.75062 0
M  V30 5601 O 526.364 3.99589 -1.01992 0
M  V30 5602 H 525.705 0.538904 -0.387915 0
M  V30 5603 H 528.235 1.21675 -1.64488 0
M  V30 5604 H 528.245 3.65787 -1.80731 0
M  V30 5605 H 526.92 3.07436 -2.801 0
M  V30 5606 H 525.497 3.58077 -1.04094 0
M  V30 5607 N 527.682 1.05563 1.17022 0
M  V30 5608 C 528.928 0.769074 1.87652 0
M  V30 5609 C 529.261 -0.702326 1.81055 0
M  V30 5610 O 528.536 -1.5139 1.22112 0
M  V30 5611 C 528.819 1.25492 3.37526 0
M  V30 5612 C 528.672 2.78953 3.52853 0
M  V30 5613 C 529.991 0.856919 4.31677 0
M  V30 5614 H 527.11 0.280854 0.681388 0
M  V30 5615 H 529.752 1.31027 1.37593 0
M  V30 5616 H 527.902 0.794516 3.80289 0
M  V30 5617 H 529.574 3.33146 3.19079 0
M  V30 5618 H 527.817 3.18046 2.95007 0
M  V30 5619 H 528.488 3.08011 4.58076 0
M  V30 5620 H 530.964 1.25334 3.96775 0
M  V30 5621 H 529.84 1.22443 5.35069 0
M  V30 5622 H 530.101 -0.238787 4.41455 0
M  V30 5623 N 529.16 -1.33526 0.837174 0
M  V30 5624 C 530.571 -1.80182 0.489017 0
M  V30 5625 C 530.922 -1.69285 -0.991826 0
M  V30 5626 O 530.047 -1.24113 -1.77271 0
M  V30 5627 C 530.642 -3.27149 0.880866 0
M  V30 5628 C 529.201 -3.71828 0.584872 0
M  V30 5629 C 528.348 -2.54974 1.09011 0
M  V30 5630 H 531.299 -1.21071 1.02603 0
M  V30 5631 H 531.32 -3.80024 0.190239 0
M  V30 5632 H 530.832 -3.35048 1.95869 0
M  V30 5633 H 528.933 -3.69457 -0.48295 0
M  V30 5634 H 529.046 -4.65366 1.13892 0
M  V30 5635 H 527.41 -2.4952 0.511047 0
M  V30 5636 H 528.193 -2.65637 2.17467 0
M  V30 5637 N 530.638 -0.59345 -1.46 0
M  V30 5638 C 531.548 0.135817 -2.34207 0
M  V30 5639 C 532.564 0.875008 -1.50398 0
M  V30 5640 O 533.74 0.835778 -1.83239 0
M  V30 5641 C 530.805 1.12977 -3.27776 0
M  V30 5642 C 529.866 0.394081 -4.27487 0
M  V30 5643 C 529.099 1.34068 -5.16586 0
M  V30 5644 O 529.322 2.5778 -5.08828 0
M  V30 5645 O 528.256 0.845426 -5.95933 0
M  V30 5646 H 532.082 -0.588691 -2.9794 0
M  V30 5647 H 529.667 -0.353784 -1.45151 0
M  V30 5648 H 531.549 1.70261 -3.85473 0
M  V30 5649 H 530.224 1.83556 -2.66625 0
M  V30 5650 H 529.131 -0.220869 -3.73447 0
M  V30 5651 H 530.464 -0.270939 -4.91454 0
M  V30 5652 N 532.116 1.54067 -0.331816 0
M  V30 5653 C 533.364 2.00319 0.267739 0
M  V30 5654 C 533.685 1.22148 1.52003 0
M  V30 5655 O 532.955 0.325494 1.93177 0
M  V30 5656 H 531.535 0.740014 0.101922 0
M  V30 5657 H 534.197 1.89628 -0.450267 0
M  V30 5658 H 533.293 3.07765 0.518385 0
M  V30 5659 N 533.594 0.0601682 1.57485 0
M  V30 5660 C 534.542 -0.928899 2.13247 0
M  V30 5661 C 535.536 -1.31616 1.06647 0
M  V30 5662 O 536.742 -1.29476 1.25043 0
M  V30 5663 H 533.117 -0.317455 0.681708 0
M  V30 5664 H 535.088 -0.433566 2.95233 0
M  V30 5665 C 533.837 -2.19121 2.69965 0
M  V30 5666 H 533.16 -1.90204 3.51657 0
M  V30 5667 H 534.6 -2.86465 3.12592 0
M  V30 5668 C 533.059 -2.94195 1.64168 0
M  V30 5669 O 533.589 -3.87468 1.05978 0
M  V30 5670 N 531.795 -2.57089 1.35476 0
M  V30 5671 H 531.342 -1.81314 1.82984 0
M  V30 5672 H 531.3 -3.07624 0.649196 0
M  V30 5673 N 535.072 -1.5615 -0.213296 0
M  V30 5674 C 536.349 -1.70349 -0.961281 0
M  V30 5675 C 536.729 -0.609791 -2.02101 0
M  V30 5676 O 536.077 0.381987 -2.25285 0
M  V30 5677 C 536.287 -3.11982 -1.56424 0
M  V30 5678 C 537.635 -3.71649 -2.05334 0
M  V30 5679 O 538.659 -3.14995 -1.66302 0
M  V30 5680 O 537.518 -4.71038 -2.77102 0
M  V30 5681 H 534.612 -0.694121 -0.449582 0
M  V30 5682 H 537.158 -1.68464 -0.204426 0
M  V30 5683 H 535.93 -3.83046 -0.799457 0
M  V30 5684 H 535.553 -3.18019 -2.38641 0
M  V30 5685 N 536.55 0.480323 -1.50102 0
M  V30 5686 C 537.799 1.22979 -1.59872 0
M  V30 5687 C 538.112 1.93282 -0.30022 0
M  V30 5688 O 539.318 2.70086 -0.276709 0
M  V30 5689 C 537.774 2.23408 -2.82164 0
M  V30 5690 C 537.382 1.5895 -4.18854 0
M  V30 5691 C 539.126 2.99055 -3.01275 0
M  V30 5692 C 537.033 2.57611 -5.32344 0
M  V30 5693 H 535.963 0.462707 -0.59533 0
M  V30 5694 H 538.614 0.501291 -1.7652 0
M  V30 5695 H 536.996 2.99511 -2.59055 0
M  V30 5696 H 538.17 0.887 -4.52182 0
M  V30 5697 H 536.485 0.956191 -4.05273 0
M  V30 5698 H 539.082 3.72876 -3.83233 0
M  V30 5699 H 539.425 3.57897 -2.12639 0
M  V30 5700 H 539.958 2.30066 -3.24522 0
M  V30 5701 H 536.697 2.03521 -6.23105 0
M  V30 5702 H 536.217 3.26041 -5.03445 0
M  V30 5703 H 537.896 3.19627 -5.62537 0
M  V30 5704 N 538.028 1.39524 0.732853 0
M  V30 5705 C 539.253 1.40329 1.52717 0
M  V30 5706 C 539.678 0.000286574 1.881 0
M  V30 5707 O 539.036 -0.987262 1.52062 0
M  V30 5708 C 539.084 2.28464 2.78992 0
M  V30 5709 O 538.188 1.716 3.75003 0
M  V30 5710 H 537.529 0.47778 0.461109 0
M  V30 5711 H 540.059 1.83546 0.903996 0
M  V30 5712 H 540.069 2.43051 3.27705 0
M  V30 5713 H 538.744 3.30425 2.52572 0
M  V30 5714 H 537.321 1.66267 3.33781 0
M  V30 5715 N 539.506 -0.963266 1.24736 0
M  V30 5716 C 540.731 -1.74699 1.11781 0
M  V30 5717 C 541.156 -1.85267 -0.325258 0
M  V30 5718 O 540.514 -1.32681 -1.23553 0
M  V30 5719 C 540.562 -3.14322 1.76731 0
M  V30 5720 O 539.666 -3.99043 1.04109 0
M  V30 5721 H 539.007 -0.53684 0.390767 0
M  V30 5722 H 541.537 -1.20801 1.65131 0
M  V30 5723 H 541.547 -3.64824 1.82668 0
M  V30 5724 H 540.222 -3.05946 2.81726 0
M  V30 5725 H 538.799 -3.5752 1.05991 0
M  V30 5726 N 540.985 -1.06182 -1.16461 0
M  V30 5727 C 542.234 -0.772927 -1.86303 0
M  V30 5728 C 542.547 0.703187 -1.82523 0
M  V30 5729 O 543.753 1.10641 -2.47933 0
M  V30 5730 C 542.209 -1.33249 -3.34324 0
M  V30 5731 C 541.817 -2.83876 -3.46581 0
M  V30 5732 C 543.561 -1.12108 -4.09429 0
M  V30 5733 C 541.468 -3.33082 -4.88682 0
M  V30 5734 H 540.398 -0.285452 -0.697878 0
M  V30 5735 H 543.049 -1.28039 -1.31447 0
M  V30 5736 H 541.431 -0.7528 -3.88779 0
M  V30 5737 H 542.605 -3.47786 -3.02293 0
M  V30 5738 H 540.92 -3.03671 -2.84909 0
M  V30 5739 H 543.517 -1.46361 -5.14279 0
M  V30 5740 H 543.86 -0.0593832 -4.16258 0
M  V30 5741 H 544.393 -1.6665 -3.6121 0
M  V30 5742 H 541.132 -4.38726 -4.87032 0
M  V30 5743 H 540.652 -2.73919 -5.33599 0
M  V30 5744 H 542.331 -3.28344 -5.57494 0
M  V30 5745 N 542.463 1.3308 -0.844243 0
M  V30 5746 C 543.71 1.97605 -0.44255 0
M  V30 5747 C 544.038 1.66856 0.999458 0
M  V30 5748 O 543.293 0.943586 1.7145 0
M  V30 5749 C 543.592 3.52045 -0.616354 0
M  V30 5750 C 543.258 4.02757 -2.02726 0
M  V30 5751 C 541.92 4.16316 -2.41317 0
M  V30 5752 C 544.272 4.29776 -2.9486 0
M  V30 5753 C 541.6 4.54232 -3.71335 0
M  V30 5754 C 543.952 4.69146 -4.24364 0
M  V30 5755 C 542.616 4.80911 -4.62904 0
M  V30 5756 H 541.886 0.723088 -0.161941 0
M  V30 5757 H 544.533 1.58663 -1.0723 0
M  V30 5758 H 542.838 3.91681 0.0966812 0
M  V30 5759 H 544.535 3.99981 -0.285756 0
M  V30 5760 H 541.125 3.9268 -1.71756 0
M  V30 5761 H 545.309 4.18818 -2.6628 0
M  V30 5762 H 540.565 4.61535 -4.00993 0
M  V30 5763 H 544.739 4.89008 -4.95827 0
M  V30 5764 H 542.366 5.10048 -5.63698 0
M  V30 5765 N 543.941 0.601185 1.45683 0
M  V30 5766 C 544.851 -0.123395 2.34275 0
M  V30 5767 C 545.867 -0.86702 1.5086 0
M  V30 5768 O 547.043 -0.826049 1.8368 0
M  V30 5769 C 544.108 -1.11237 3.2837 0
M  V30 5770 C 543.169 -0.371405 4.2769 0
M  V30 5771 C 542.402 -1.31327 5.1729 0
M  V30 5772 O 542.625 -2.55078 5.10188 0
M  V30 5773 O 541.559 -0.813811 5.96373 0
M  V30 5774 H 545.385 0.604483 2.97623 0
M  V30 5775 H 542.97 0.361477 1.44961 0
M  V30 5776 H 544.852 -1.68214 3.8637 0
M  V30 5777 H 543.527 -1.82139 2.67595 0
M  V30 5778 H 542.434 0.24067 3.73325 0
M  V30 5779 H 543.767 0.296998 4.91303 0
M  V30 5780 N 545.419 -1.53889 0.339982 0
M  V30 5781 C 546.349 -2.27843 -0.510856 0
M  V30 5782 C 547.33 -1.29267 -1.10563 0
M  V30 5783 O 548.515 -1.58104 -1.12768 0
M  V30 5784 C 545.645 -3.04857 -1.66372 0
M  V30 5785 C 544.599 -4.10907 -1.19746 0
M  V30 5786 C 543.925 -4.75855 -2.43857 0
M  V30 5787 C 545.225 -5.21435 -0.300501 0
M  V30 5788 H 546.919 -2.99212 0.106067 0
M  V30 5789 H 544.465 -1.43904 0.0524533 0
M  V30 5790 H 546.418 -3.5533 -2.26537 0
M  V30 5791 H 545.142 -2.31133 -2.30749 0
M  V30 5792 H 543.801 -3.61342 -0.618654 0
M  V30 5793 H 543.449 -3.9873 -3.06633 0
M  V30 5794 H 543.149 -5.47502 -2.13343 0
M  V30 5795 H 544.673 -5.2911 -3.04754 0
M  V30 5796 H 546.087 -5.67565 -0.80889 0
M  V30 5797 H 544.484 -6.00036 -0.0874076 0
M  V30 5798 H 545.554 -4.80328 0.664321 0
M  V30 5799 N 546.897 -0.0685191 -1.57451 0
M  V30 5800 C 548.174 0.642167 -1.84758 0
M  V30 5801 C 548.554 1.87991 -0.960344 0
M  V30 5802 O 547.902 2.28485 -0.0257894 0
M  V30 5803 C 548.112 0.982946 -3.34872 0
M  V30 5804 C 549.46 1.35784 -4.02303 0
M  V30 5805 O 550.484 1.07477 -3.39598 0
M  V30 5806 O 549.343 1.88681 -5.12895 0
M  V30 5807 H 546.437 0.318625 -0.763156 0
M  V30 5808 H 548.983 -0.0992015 -1.6941 0
M  V30 5809 H 547.755 0.10372 -3.91163 0
M  V30 5810 H 547.378 1.78119 -3.55471 0
M  V30 5811 N 548.375 1.56261 0.205012 0
M  V30 5812 C 549.786 1.70056 0.770574 0
M  V30 5813 C 550.137 0.673398 1.84282 0
M  V30 5814 O 549.262 -0.172196 2.15714 0
M  V30 5815 C 549.857 3.08316 1.40451 0
M  V30 5816 C 548.416 3.2391 1.91727 0
M  V30 5817 C 547.563 2.66001 0.783516 0
M  V30 5818 H 550.514 1.58688 -0.019911 0
M  V30 5819 H 550.535 3.05094 2.27371 0
M  V30 5820 H 550.047 3.83053 0.623882 0
M  V30 5821 H 548.148 2.54072 2.7254 0
M  V30 5822 H 548.261 4.3131 2.08588 0
M  V30 5823 H 546.625 2.24915 1.19521 0
M  V30 5824 H 547.408 3.43297 0.0152883 0
M  V30 5825 N 549.853 -0.472356 1.50355 0
M  V30 5826 C 551.081 -1.24784 1.65035 0
M  V30 5827 C 551.496 -1.85837 0.333176 0
M  V30 5828 O 550.853 -1.69168 -0.68472 0
M  V30 5829 C 550.904 -2.35747 2.74054 0
M  V30 5830 O 550.625 -1.77197 4.00665 0
M  V30 5831 C 552.126 -3.26645 2.99696 0
M  V30 5832 H 549.346 -0.377432 0.554785 0
M  V30 5833 H 551.89 -0.563962 1.9657 0
M  V30 5834 H 550.045 -2.99912 2.45217 0
M  V30 5835 H 550.459 -2.5026 4.60945 0
M  V30 5836 H 551.933 -4.00718 3.79644 0
M  V30 5837 H 552.41 -3.8535 2.10718 0
M  V30 5838 H 553.016 -2.68218 3.3006 0
M  V30 5839 N 551.331 -1.39911 -0.725443 0
M  V30 5840 C 552.559 -1.40949 -1.51463 0
M  V30 5841 C 552.974 -0.0065242 -1.88799 0
M  V30 5842 O 552.331 0.967163 -1.54765 0
M  V30 5843 C 552.382 -2.29119 -2.79619 0
M  V30 5844 O 552.103 -3.63952 -2.43866 0
M  V30 5845 C 553.604 -2.38642 -3.73584 0
M  V30 5846 H 550.824 -0.481091 -0.467752 0
M  V30 5847 H 553.368 -1.83843 -0.895651 0
M  V30 5848 H 551.523 -1.89612 -3.37826 0
M  V30 5849 H 551.937 -4.10677 -3.26258 0
M  V30 5850 H 553.411 -3.04563 -4.60375 0
M  V30 5851 H 553.888 -1.40846 -4.16004 0
M  V30 5852 H 554.494 -2.78659 -3.21293 0
M  V30 5853 N 552.809 0.956637 -1.25245 0
M  V30 5854 C 553.739 2.07058 -1.07931 0
M  V30 5855 C 554.72 1.70096 0.0110361 0
M  V30 5856 O 555.905 1.93555 -0.158121 0
M  V30 5857 C 553.035 3.40272 -0.695124 0
M  V30 5858 C 551.989 3.91235 -1.73549 0
M  V30 5859 C 551.315 5.20921 -1.20604 0
M  V30 5860 C 552.615 4.17837 -3.13385 0
M  V30 5861 H 554.309 2.218 -2.01109 0
M  V30 5862 H 551.855 1.06581 -0.968326 0
M  V30 5863 H 553.808 4.1765 -0.560949 0
M  V30 5864 H 552.532 3.25462 0.272355 0
M  V30 5865 H 551.191 3.16025 -1.85807 0
M  V30 5866 H 550.839 5.02479 -0.228846 0
M  V30 5867 H 550.539 5.55987 -1.90136 0
M  V30 5868 H 552.063 6.00897 -1.08421 0
M  V30 5869 H 553.477 4.8588 -3.04292 0
M  V30 5870 H 551.874 4.64154 -3.80369 0
M  V30 5871 H 552.944 3.2419 -3.60595 0
M  V30 5872 N 554.287 1.06798 1.15896 0
M  V30 5873 C 555.703 0.792423 1.38538 0
M  V30 5874 C 555.903 -0.60592 1.92174 0
M  V30 5875 O 554.959 -1.36561 2.12385 0
M  V30 5876 C 556.272 1.86157 2.36149 0
M  V30 5877 C 557.82 1.88567 2.49823 0
M  V30 5878 C 558.295 2.9455 3.5072 0
M  V30 5879 N 559.786 2.93616 3.58251 0
M  V30 5880 C 560.521 3.72267 4.36125 0
M  V30 5881 N 560.017 4.60751 5.17379 0
M  V30 5882 N 561.81 3.60637 4.31158 0
M  V30 5883 H 553.961 1.96993 0.794198 0
M  V30 5884 H 556.224 0.853942 0.411688 0
M  V30 5885 H 555.93 2.86603 2.03843 0
M  V30 5886 H 555.804 1.71692 3.3586 0
M  V30 5887 H 558.191 0.887765 2.8143 0
M  V30 5888 H 558.272 2.0711 1.5013 0
M  V30 5889 H 557.916 3.94537 3.19849 0
M  V30 5890 H 557.846 2.73255 4.50155 0
M  V30 5891 H 560.337 2.29472 3.00252 0
M  V30 5892 H 560.65 5.17408 5.74028 0
M  V30 5893 H 558.995 4.64803 5.16704 0
M  V30 5894 H 562.186 2.90892 3.66742 0
M  V30 5895 H 562.359 4.22176 4.91601 0
M  V30 5896 N 555.766 -1.3263 0.851289 0
M  V30 5897 C 557.014 -1.96978 0.452128 0
M  V30 5898 C 557.335 -1.67715 -0.99482 0
M  V30 5899 O 556.605 -0.98259 -1.69476 0
M  V30 5900 H 555.185 -0.72873 0.164202 0
M  V30 5901 H 557.847 -1.61774 1.08698 0
M  V30 5902 H 556.943 -3.06387 0.594407 0
M  V30 5903 N 557.244 -0.608902 -1.45362 0
M  V30 5904 C 558.492 -0.104401 -2.0183 0
M  V30 5905 C 558.813 1.27007 -1.47967 0
M  V30 5906 O 558.083 1.83924 -0.674455 0
M  V30 5907 H 556.663 -0.0356042 -0.746151 0
M  V30 5908 H 559.325 -0.790596 -1.78145 0
M  V30 5909 H 558.421 -0.0551793 -3.12051 0
M  V30 5910 N 558.722 1.53707 -0.348139 0
M  V30 5911 C 559.999 1.93247 0.302475 0
M  V30 5912 C 560.379 1.28012 1.67857 0
M  V30 5913 O 559.727 0.43274 2.24365 0
M  V30 5914 C 559.937 3.47031 0.370159 0
M  V30 5915 C 561.285 4.20066 0.61882 0
M  V30 5916 O 562.309 3.53319 0.452087 0
M  V30 5917 O 561.168 5.38318 0.94215 0
M  V30 5918 H 558.262 0.807736 0.177458 0
M  V30 5919 H 560.808 1.64927 -0.399651 0
M  V30 5920 H 559.58 3.86745 -0.59534 0
M  V30 5921 H 559.203 3.81532 1.11888 0
M  V30 5922 N 560.2 0.0768682 1.57412 0
M  V30 5923 C 561.425 -0.603404 1.98428 0
M  V30 5924 C 561.85 -1.62047 0.955108 0
M  V30 5925 O 561.208 -1.81129 -0.0786778 0
M  V30 5926 C 561.256 -1.24396 3.38464 0
M  V30 5927 O 560.36 -2.35982 3.3821 0
M  V30 5928 H 559.701 -0.154741 0.645718 0
M  V30 5929 H 562.231 0.152885 2.04028 0
M  V30 5930 H 562.241 -1.5896 3.7576 0
M  V30 5931 H 560.916 -0.498735 4.12899 0
M  V30 5932 H 559.493 -2.03173 3.1269 0
M  V30 5933 N 561.678 -1.56367 -0.196722 0
M  V30 5934 C 562.608 -1.97442 -1.24655 0
M  V30 5935 C 563.589 -0.846147 -1.47561 0
M  V30 5936 O 564.774 -1.11035 -1.59326 0
M  V30 5937 C 561.904 -2.31253 -2.59112 0
M  V30 5938 C 560.858 -3.46804 -2.50821 0
M  V30 5939 C 560.184 -3.66286 -3.89536 0
M  V30 5940 C 561.484 -4.8104 -2.03465 0
M  V30 5941 H 563.178 -2.85388 -0.905216 0
M  V30 5942 H 560.724 -1.37304 -0.434002 0
M  V30 5943 H 562.677 -2.58583 -3.32736 0
M  V30 5944 H 561.401 -1.40188 -2.94983 0
M  V30 5945 H 560.06 -3.19563 -1.79653 0
M  V30 5946 H 559.708 -2.72555 -4.22756 0
M  V30 5947 H 559.408 -4.4402 -3.84864 0
M  V30 5948 H 560.932 -3.9599 -4.64784 0
M  V30 5949 H 562.346 -5.07411 -2.66846 0
M  V30 5950 H 560.743 -5.62232 -2.09798 0
M  V30 5951 H 561.813 -4.74732 -0.98781 0
M  V30 5952 N 563.156 0.464375 -1.50603 0
M  V30 5953 C 564.402 1.21776 -1.62168 0
M  V30 5954 C 564.735 1.91476 -0.324154 0
M  V30 5955 O 564.01 1.8242 0.674782 0
M  V30 5956 C 564.293 2.25614 -2.80661 0
M  V30 5957 C 564.146 1.60175 -4.20314 0
M  V30 5958 C 565.465 3.26862 -2.94702 0
M  V30 5959 H 562.584 0.44137 -0.590222 0
M  V30 5960 H 565.226 0.510623 -1.8301 0
M  V30 5961 H 563.376 2.85923 -2.63021 0
M  V30 5962 H 565.048 1.03411 -4.4956 0
M  V30 5963 H 563.291 0.904697 -4.24261 0
M  V30 5964 H 563.962 2.35665 -4.99165 0
M  V30 5965 H 566.438 2.76582 -3.10872 0
M  V30 5966 H 565.314 3.96839 -3.79223 0
M  V30 5967 H 565.575 3.91382 -2.05603 0
M  V30 5968 N 564.634 1.40294 0.718013 0
M  V30 5969 C 566.045 1.34289 1.29705 0
M  V30 5970 C 566.396 0.0152228 1.96194 0
M  V30 5971 O 565.521 -0.88682 1.97394 0
M  V30 5972 C 566.116 2.43219 2.3586 0
M  V30 5973 C 564.675 2.40682 2.89394 0
M  V30 5974 C 563.822 2.24223 1.63154 0
M  V30 5975 H 566.773 1.50135 0.514312 0
M  V30 5976 H 566.794 2.10986 3.16647 0
M  V30 5977 H 566.306 3.39836 1.87439 0
M  V30 5978 H 564.407 1.47756 3.42051 0
M  V30 5979 H 564.52 3.36177 3.41353 0
M  V30 5980 H 562.884 1.71696 1.88129 0
M  V30 5981 H 563.667 3.22834 1.16761 0
M  V30 5982 N 566.112 -0.949982 1.2575 0
M  V30 5983 C 567.528 -1.22191 1.02672 0
M  V30 5984 C 567.728 -1.99898 -0.253588 0
M  V30 5985 O 566.784 -2.33329 -0.965076 0
M  V30 5986 C 568.097 -1.99175 2.25277 0
M  V30 5987 C 569.645 -2.12201 2.30087 0
M  V30 5988 C 570.12 -2.92586 3.5236 0
M  V30 5989 N 571.611 -3.00163 3.52784 0
M  V30 5990 C 572.346 -3.62766 4.44059 0
M  V30 5991 N 571.842 -4.26943 5.45611 0
M  V30 5992 N 573.635 -3.59953 4.3173 0
M  V30 5993 H 565.786 -0.430258 2.07996 0
M  V30 5994 H 568.049 -0.252844 0.91366 0
M  V30 5995 H 567.755 -1.49479 3.18354 0
M  V30 5996 H 567.629 -2.99868 2.28821 0
M  V30 5997 H 570.016 -2.61093 1.3753 0
M  V30 5998 H 570.097 -1.10799 2.30559 0
M  V30 5999 H 569.741 -2.44383 4.45241 0
M  V30 6000 H 569.671 -3.94224 3.49134 0
M  V30 6001 H 572.162 -2.54529 2.79327 0
M  V30 6002 H 572.475 -4.72583 6.11461 0
M  V30 6003 H 570.82 -4.25557 5.49478 0
M  V30 6004 H 574.011 -3.09003 3.51617 0
M  V30 6005 H 574.184 -4.08455 5.03059 0
M  V30 6006 N 567.59 -1.07411 -1.15328 0
M  V30 6007 C 568.538 -0.689316 -2.22151 0
M  V30 6008 C 569.532 0.300156 -1.6672 0
M  V30 6009 O 570.738 0.163804 -1.79253 0
M  V30 6010 H 567.113 -0.204834 -0.723566 0
M  V30 6011 H 569.084 -1.59988 -2.51886 0
M  V30 6012 C 567.833 -0.103848 -3.47545 0
M  V30 6013 H 567.156 -0.856367 -3.90521 0
M  V30 6014 H 568.596 0.127725 -4.23808 0
M  V30 6015 C 567.055 1.15563 -3.1646 0
M  V30 6016 O 567.585 2.242 -3.33312 0
M  V30 6017 N 565.791 1.06203 -2.70498 0
M  V30 6018 H 565.338 0.177933 -2.56985 0
M  V30 6019 H 565.296 1.90553 -2.50074 0
M  V30 6020 N 569.068 1.32177 -0.85831 0
M  V30 6021 C 570.293 2.01847 -0.476718 0
M  V30 6022 C 570.718 1.64065 0.920021 0
M  V30 6023 O 570.076 0.843189 1.60499 0
M  V30 6024 C 570.124 3.55097 -0.627578 0
M  V30 6025 O 569.228 4.11012 0.338086 0
M  V30 6026 H 568.569 0.635907 -0.191099 0
M  V30 6027 H 571.099 1.68641 -1.15851 0
M  V30 6028 H 571.109 4.04718 -0.516476 0
M  V30 6029 H 569.784 3.81938 -1.64609 0
M  V30 6030 H 568.361 3.72451 0.182917 0
M  V30 6031 N 570.547 0.616602 1.45037 0
M  V30 6032 C 571.777 0.121791 2.06241 0
M  V30 6033 C 572.185 -1.20289 1.46038 0
M  V30 6034 O 571.528 -1.7456 0.572242 0
M  V30 6035 C 571.59 -0.0827345 3.59405 0
M  V30 6036 C 571.254 1.16153 4.41993 0
M  V30 6037 C 572.251 2.08183 4.76399 0
M  V30 6038 C 569.936 1.39288 4.82601 0
M  V30 6039 C 571.93 3.21668 5.5028 0
M  V30 6040 C 569.617 2.53073 5.56235 0
M  V30 6041 C 570.615 3.44091 5.89992 0
M  V30 6042 O 570.303 4.55894 6.6213 0
M  V30 6043 H 570.035 0.0701667 0.672349 0
M  V30 6044 H 572.589 0.846877 1.87129 0
M  V30 6045 H 570.819 -0.862812 3.76952 0
M  V30 6046 H 572.508 -0.530273 4.02421 0
M  V30 6047 H 573.274 1.91538 4.45576 0
M  V30 6048 H 569.153 0.693396 4.55755 0
M  V30 6049 H 572.697 3.92733 5.76547 0
M  V30 6050 H 568.594 2.69667 5.86472 0
M  V30 6051 H 569.362 4.5469 6.80587 0
M  V30 6052 N 572.025 -1.5352 0.356285 0
M  V30 6053 C 573.271 -2.01414 -0.236653 0
M  V30 6054 C 573.604 -1.24339 -1.49176 0
M  V30 6055 O 572.879 -0.334496 -1.91602 0
M  V30 6056 C 573.162 -3.56059 -0.537982 0
M  V30 6057 C 573.015 -4.43835 0.730112 0
M  V30 6058 C 574.334 -4.19127 -1.34239 0
M  V30 6059 H 571.453 -0.732135 -0.0845386 0
M  V30 6060 H 574.095 -1.83854 0.479341 0
M  V30 6061 H 572.245 -3.71153 -1.14795 0
M  V30 6062 H 573.917 -4.40555 1.36782 0
M  V30 6063 H 572.16 -4.1218 1.3524 0
M  V30 6064 H 572.831 -5.49958 0.474358 0
M  V30 6065 H 575.307 -4.07809 -0.826498 0
M  V30 6066 H 574.183 -5.27378 -1.52198 0
M  V30 6067 H 574.444 -3.74581 -2.34822 0
M  V30 6068 N 573.503 -0.0852151 -1.57369 0
M  V30 6069 C 574.919 0.271436 -1.57275 0
M  V30 6070 C 575.119 1.69109 -1.09565 0
M  V30 6071 O 574.175 2.40549 -0.767611 0
M  V30 6072 C 575.488 0.0688638 -3.00621 0
M  V30 6073 C 577.036 0.137373 -3.12698 0
M  V30 6074 C 577.511 -0.0370832 -4.57985 0
M  V30 6075 N 579.002 0.0180794 -4.63196 0
M  V30 6076 C 579.737 -0.0922953 -5.73326 0
M  V30 6077 N 579.233 -0.256948 -6.92323 0
M  V30 6078 N 581.026 -0.0342702 -5.6209 0
M  V30 6079 H 573.177 -1.01288 -1.86693 0
M  V30 6080 H 575.44 -0.396138 -0.861266 0
M  V30 6081 H 575.146 -0.911277 -3.39689 0
M  V30 6082 H 575.02 0.815442 -3.6828 0
M  V30 6083 H 577.407 1.10801 -2.73509 0
M  V30 6084 H 577.488 -0.640532 -2.47651 0
M  V30 6085 H 577.132 -1.00455 -4.97867 0
M  V30 6086 H 577.062 0.760392 -5.21081 0
M  V30 6087 H 579.553 0.143202 -3.77629 0
M  V30 6088 H 579.866 -0.332949 -7.72082 0
M  V30 6089 H 578.211 -0.292487 -6.94384 0
M  V30 6090 H 581.402 0.0931605 -4.68007 0
M  V30 6091 H 581.575 -0.12374 -6.47882 0
M  V30 6092 N 574.981 1.5647 0.188427 0
M  V30 6093 C 575.911 1.98101 1.23606 0
M  V30 6094 C 576.892 0.853961 1.47111 0
M  V30 6095 O 578.077 1.11879 1.58735 0
M  V30 6096 C 575.207 2.32624 2.57882 0
M  V30 6097 C 574.161 3.48129 2.48978 0
M  V30 6098 C 573.487 3.68347 3.87588 0
M  V30 6099 C 574.787 4.82112 2.00911 0
M  V30 6100 H 576.481 2.85864 0.890068 0
M  V30 6101 H 574.027 1.37532 0.426714 0
M  V30 6102 H 575.98 2.60343 3.3136 0
M  V30 6103 H 574.704 1.41751 2.94235 0
M  V30 6104 H 573.363 3.20511 1.77956 0
M  V30 6105 H 573.011 2.74793 4.21305 0
M  V30 6106 H 572.711 4.46055 3.82503 0
M  V30 6107 H 574.235 3.98449 4.62678 0
M  V30 6108 H 575.649 5.08819 2.64151 0
M  V30 6109 H 574.046 5.63337 2.06814 0
M  V30 6110 H 575.116 4.75249 0.96262 0
M  V30 6111 N 576.459 -0.456382 1.50847 0
M  V30 6112 C 577.875 -0.791345 1.386 0
M  V30 6113 C 578.075 -1.9633 0.453498 0
M  V30 6114 O 577.131 -2.52308 -0.0984353 0
M  V30 6115 C 578.444 -1.08959 2.80265 0
M  V30 6116 C 579.992 -1.19517 2.89283 0
M  V30 6117 C 580.467 -1.52647 4.31814 0
M  V30 6118 N 581.958 -1.59609 4.34832 0
M  V30 6119 C 582.693 -1.86777 5.42127 0
M  V30 6120 N 582.189 -2.11866 6.59609 0
M  V30 6121 N 583.982 -1.88402 5.29586 0
M  V30 6122 H 576.133 0.315746 2.1004 0
M  V30 6123 H 578.396 0.0787916 0.94472 0
M  V30 6124 H 578.102 -0.301355 3.50407 0
M  V30 6125 H 577.976 -2.02211 3.18419 0
M  V30 6126 H 580.363 -1.97406 2.19351 0
M  V30 6127 H 580.444 -0.242111 2.54652 0
M  V30 6128 H 580.088 -0.752922 5.02288 0
M  V30 6129 H 580.018 -2.49127 4.63943 0
M  V30 6130 H 582.509 -1.42201 3.50125 0
M  V30 6131 H 582.822 -2.31912 7.37182 0
M  V30 6132 H 581.167 -2.09228 6.62758 0
M  V30 6133 H 584.358 -1.68307 4.36795 0
M  V30 6134 H 584.531 -2.09238 6.13289 0
M  V30 6135 N 577.937 -1.40673 -0.710563 0
M  V30 6136 C 578.887 -1.37812 -1.81636 0
M  V30 6137 C 579.871 -0.254853 -1.58869 0
M  V30 6138 O 581.063 -0.494356 -1.69956 0
M  V30 6139 C 578.192 -1.24802 -3.19811 0
M  V30 6140 C 577.278 -2.41931 -3.48325 0
M  V30 6141 N 577.669 -3.67411 -3.47625 0
M  V30 6142 C 575.967 -2.35419 -3.78806 0
M  V30 6143 C 576.668 -4.45008 -3.74623 0
M  V30 6144 N 575.644 -3.74916 -3.93623 0
M  V30 6145 H 579.446 -2.32766 -1.79436 0
M  V30 6146 H 576.96 -1.34516 -0.909909 0
M  V30 6147 H 578.957 -1.20835 -3.99004 0
M  V30 6148 H 577.617 -0.308202 -3.23234 0
M  V30 6149 H 578.628 -4.00503 -3.28356 0
M  V30 6150 H 575.305 -1.4983 -3.89689 0
M  V30 6151 H 576.695 -5.53884 -3.80344 0
M  V30 6152 N 579.415 0.9433 -1.26252 0
M  V30 6153 C 580.345 2.05902 -1.10122 0
M  V30 6154 C 581.326 1.70099 -0.00700552 0
M  V30 6155 O 582.511 1.93377 -0.178641 0
M  V30 6156 C 579.641 3.39516 -0.731175 0
M  V30 6157 C 578.595 3.89372 -1.77688 0
M  V30 6158 C 577.921 5.19613 -1.26122 0
M  V30 6159 C 579.221 4.14489 -3.17799 0
M  V30 6160 H 580.915 2.19655 -2.03451 0
M  V30 6161 H 578.461 1.05548 -0.979576 0
M  V30 6162 H 580.414 4.17031 -0.605215 0
M  V30 6163 H 579.138 3.25733 0.23782 0
M  V30 6164 H 577.797 3.14036 -1.89148 0
M  V30 6165 H 577.445 5.02208 -0.282128 0
M  V30 6166 H 577.145 5.53939 -1.96023 0
M  V30 6167 H 578.669 5.99713 -1.14789 0
M  V30 6168 H 580.083 4.82625 -3.09428 0
M  V30 6169 H 578.48 4.60094 -3.85271 0
M  V30 6170 H 579.55 3.20347 -3.64014 0
M  V30 6171 N 580.893 1.08022 1.14757 0
M  V30 6172 C 582.133 0.816959 1.87364 0
M  V30 6173 C 582.497 -0.645407 1.80827 0
M  V30 6174 O 583.698 -1.024 2.48531 0
M  V30 6175 C 581.969 1.31961 3.32146 0
M  V30 6176 S 583.528 1.18806 4.2241 0
M  V30 6177 H 580.346 0.295862 0.646519 0
M  V30 6178 H 582.948 1.3807 1.38408 0
M  V30 6179 H 581.652 2.37847 3.3445 0
M  V30 6180 H 581.183 0.751371 3.86158 0
M  V30 6181 H 583.198 0.129865 4.9603 0
M  V30 6182 N 582.371 -1.3172 0.865308 0
M  V30 6183 C 583.599 -2.01057 0.488251 0
M  V30 6184 C 584.014 -1.64979 -0.918 0
M  V30 6185 O 583.371 -0.876597 -1.60069 0
M  V30 6186 C 583.422 -3.55964 0.630224 0
M  V30 6187 O 583.143 -3.90749 1.98109 0
M  V30 6188 C 584.644 -4.42574 0.253567 0
M  V30 6189 H 581.864 -0.64332 0.190736 0
M  V30 6190 H 584.408 -1.68058 1.16519 0
M  V30 6191 H 582.563 -3.874 0.000895422 0
M  V30 6192 H 582.977 -4.85467 1.9855 0
M  V30 6193 H 584.451 -5.50521 0.403875 0
M  V30 6194 H 584.928 -4.31724 -0.806895 0
M  V30 6195 H 585.534 -4.16547 0.858404 0
M  V30 6196 N 583.85 -0.624285 -1.44708 0
M  V30 6197 C 584.798 0.0969952 -2.32398 0
M  V30 6198 C 585.792 0.842762 -1.46949 0
M  V30 6199 O 586.998 0.756436 -1.63334 0
M  V30 6200 H 583.373 0.0501306 -0.750327 0
M  V30 6201 H 585.344 -0.660767 -2.90992 0
M  V30 6202 C 584.093 1.06967 -3.30837 0
M  V30 6203 H 583.416 0.505242 -3.96595 0
M  V30 6204 H 584.856 1.54397 -3.94889 0
M  V30 6205 C 583.315 2.15153 -2.5925 0
M  V30 6206 O 583.845 3.23139 -2.3863 0
M  V30 6207 N 582.051 1.90898 -2.19103 0
M  V30 6208 H 581.598 1.03086 -2.36074 0
M  V30 6209 H 581.556 2.63485 -1.71531 0
M  V30 6210 N 585.328 1.53329 -0.364422 0
M  V30 6211 C 586.556 2.05657 0.226424 0
M  V30 6212 C 586.971 1.23801 1.42544 0
M  V30 6213 O 586.328 0.27839 1.80364 0
M  V30 6214 C 586.379 3.56125 0.621056 0
M  V30 6215 O 586.1 4.34879 -0.530304 0
M  V30 6216 C 587.601 4.24706 1.27041 0
M  V30 6217 H 584.821 0.669806 0.0400056 0
M  V30 6218 H 587.365 1.97714 -0.522456 0
M  V30 6219 H 585.52 3.64223 1.31985 0
M  V30 6220 H 585.934 5.24073 -0.211546 0
M  V30 6221 H 587.408 5.3131 1.49711 0
M  V30 6222 H 587.885 3.78354 2.23036 0
M  V30 6223 H 588.491 4.20858 0.613079 0
M  V30 6224 N 586.806 0.0935595 1.57322 0
M  V30 6225 C 588.052 -0.565234 1.95388 0
M  V30 6226 C 588.407 -1.65888 0.974632 0
M  V30 6227 O 587.7 -1.916 0.000376385 0
M  V30 6228 C 587.894 -1.16692 3.37813 0
M  V30 6229 C 587.723 -0.133091 4.49503 0
M  V30 6230 C 586.493 0.289884 5.04468 0
M  V30 6231 C 588.691 0.638141 5.10326 0
M  V30 6232 N 586.673 1.31214 5.99713 0
M  V30 6233 C 588.044 1.51227 6.01274 0
M  V30 6234 C 590.099 0.691827 4.9307 0
M  V30 6235 C 588.802 2.43536 6.76818 0
M  V30 6236 C 590.828 1.60251 5.69274 0
M  V30 6237 C 590.19 2.46427 6.59889 0
M  V30 6238 H 586.289 -0.177212 0.761656 0
M  V30 6239 H 588.873 0.175769 1.93905 0
M  V30 6240 H 587.044 -1.87775 3.39993 0
M  V30 6241 H 588.776 -1.78795 3.63063 0
M  V30 6242 H 585.531 -0.0975541 4.735 0
M  V30 6243 H 585.955 1.82143 6.52038 0
M  V30 6244 H 590.597 0.0397431 4.22781 0
M  V30 6245 H 588.315 3.0977 7.4637 0
M  V30 6246 H 591.901 1.64917 5.57937 0
M  V30 6247 H 590.781 3.15751 7.17824 0
M  V30 6248 N 588.284 -1.56567 -0.180126 0
M  V30 6249 C 589.53 -1.81761 -0.899497 0
M  V30 6250 C 589.863 -0.670015 -1.82276 0
M  V30 6251 O 589.138 0.328575 -1.91705 0
M  V30 6252 C 589.421 -3.17296 -1.7028 0
M  V30 6253 C 589.274 -4.4257 -0.803255 0
M  V30 6254 C 590.593 -3.49678 -2.67233 0
M  V30 6255 H 587.712 -0.661192 -0.325567 0
M  V30 6256 H 590.354 -1.89272 -0.16612 0
M  V30 6257 H 588.504 -3.11023 -2.32802 0
M  V30 6258 H 590.176 -4.60902 -0.191585 0
M  V30 6259 H 588.419 -4.33658 -0.110796 0
M  V30 6260 H 589.09 -5.33935 -1.40064 0
M  V30 6261 H 591.566 -3.56347 -2.14839 0
M  V30 6262 H 590.442 -4.45605 -3.20511 0
M  V30 6263 H 590.703 -2.73932 -3.47007 0
M  V30 6264 N 589.762 0.448376 -1.51087 0
M  V30 6265 C 590.712 1.54156 -1.67988 0
M  V30 6266 C 591.696 1.5178 -0.534015 0
M  V30 6267 O 592.888 1.58419 -0.789448 0
M  V30 6268 C 590.017 2.92437 -1.79822 0
M  V30 6269 C 589.103 2.99611 -3.00157 0
M  V30 6270 N 589.494 2.7655 -4.23502 0
M  V30 6271 C 587.792 3.30764 -2.99184 0
M  V30 6272 C 588.493 2.89281 -5.0467 0
M  V30 6273 N 587.469 3.20473 -4.39088 0
M  V30 6274 H 591.271 1.35061 -2.61028 0
M  V30 6275 H 588.785 0.655504 -1.48583 0
M  V30 6276 H 590.782 3.71068 -1.90037 0
M  V30 6277 H 589.442 3.1256 -0.879554 0
M  V30 6278 H 590.453 2.5169 -4.52628 0
M  V30 6279 H 587.13 3.56732 -2.16907 0
M  V30 6280 H 588.52 2.75499 -6.12821 0
M  V30 6281 N 591.24 1.41047 0.703093 0
M  V30 6282 C 592.465 1.43537 1.49706 0
M  V30 6283 C 592.89 0.0401853 1.88057 0
M  V30 6284 O 592.248 -0.954785 1.54122 0
M  V30 6285 C 592.296 2.3433 2.74084 0
M  V30 6286 O 591.4 1.79515 3.71279 0
M  V30 6287 H 590.741 0.487454 0.450871 0
M  V30 6288 H 593.271 1.85422 0.86486 0
M  V30 6289 H 593.281 2.49947 3.22476 0
M  V30 6290 H 591.956 3.35708 2.45506 0
M  V30 6291 H 590.533 1.7331 3.30179 0
M  V30 6292 N 592.718 -0.936591 1.26751 0
M  V30 6293 C 593.946 -1.71758 1.15355 0
M  V30 6294 C 594.361 -1.86549 -0.290683 0
M  V30 6295 O 593.718 -1.37616 -1.19868 0
M  V30 6296 C 593.769 -3.12193 1.82258 0
M  V30 6297 O 593.49 -2.98105 3.21038 0
M  V30 6298 C 594.991 -4.06485 1.76875 0
M  V30 6299 H 592.211 -0.537636 0.401483 0
M  V30 6300 H 594.755 -1.17382 1.67457 0
M  V30 6301 H 592.91 -3.63456 1.34083 0
M  V30 6302 H 593.324 -3.86824 3.54214 0
M  V30 6303 H 594.798 -5.02569 2.28316 0
M  V30 6304 H 595.275 -4.32986 0.736216 0
M  V30 6305 H 595.881 -3.61144 2.24623 0
M  V30 6306 N 594.196 -1.08629 -1.14182 0
M  V30 6307 C 595.144 -0.71284 -2.21408 0
M  V30 6308 C 596.138 0.282457 -1.67029 0
M  V30 6309 O 597.344 0.144783 -1.79417 0
M  V30 6310 H 593.719 -0.212497 -0.721352 0
M  V30 6311 H 595.69 -1.6265 -2.50175 0
M  V30 6312 C 594.439 -0.140704 -3.47415 0
M  V30 6313 H 593.762 -0.897739 -3.8959 0
M  V30 6314 H 595.202 0.0827677 -4.23919 0
M  V30 6315 C 593.661 1.122 -3.17668 0
M  V30 6316 O 594.191 2.20652 -3.35672 0
M  V30 6317 N 592.397 1.03328 -2.71609 0
M  V30 6318 H 591.944 0.150666 -2.57159 0
M  V30 6319 H 591.902 1.8789 -2.52081 0
M  V30 6320 N 595.674 1.31259 -0.872281 0
M  V30 6321 C 596.923 1.95893 -0.480493 0
M  V30 6322 C 597.236 1.697 0.972688 0
M  V30 6323 O 598.442 2.28214 1.47073 0
M  V30 6324 C 596.898 3.50705 -0.808342 0
M  V30 6325 C 596.506 3.85735 -2.27844 0
M  V30 6326 C 598.25 4.21719 -0.485136 0
M  V30 6327 C 596.157 5.33668 -2.54858 0
M  V30 6328 H 595.087 0.733182 -0.175955 0
M  V30 6329 H 597.738 1.49396 -1.0655 0
M  V30 6330 H 596.12 3.95706 -0.152558 0
M  V30 6331 H 597.294 3.51686 -2.97748 0
M  V30 6332 H 595.609 3.27792 -2.56791 0
M  V30 6333 H 598.206 5.30559 -0.664166 0
M  V30 6334 H 598.549 4.12316 0.574592 0
M  V30 6335 H 599.082 3.82359 -1.09756 0
M  V30 6336 H 595.821 5.48109 -3.59523 0
M  V30 6337 H 595.341 5.69061 -1.8955 0
M  V30 6338 H 597.02 6.00958 -2.39706 0
M  V30 6339 N 597.152 0.631951 1.44375 0
M  V30 6340 C 598.563 0.219036 1.85411 0
M  V30 6341 C 598.914 -1.22974 1.52879 0
M  V30 6342 O 598.039 -1.93579 0.967266 0
M  V30 6343 C 598.634 0.39075 3.36539 0
M  V30 6344 C 597.193 0.0323351 3.76386 0
M  V30 6345 C 596.34 0.703744 2.68221 0
M  V30 6346 H 599.291 0.837056 1.3483 0
M  V30 6347 H 599.312 -0.370056 3.78696 0
M  V30 6348 H 598.824 1.44527 3.60185 0
M  V30 6349 H 596.925 -1.02042 3.58355 0
M  V30 6350 H 597.038 0.442969 4.77048 0
M  V30 6351 H 595.402 0.138974 2.54321 0
M  V30 6352 H 596.185 1.76088 2.947 0
M  V30 6353 N 598.631 -1.53133 0.372548 0
M  V30 6354 C 599.88 -2.00539 -0.216115 0
M  V30 6355 C 600.193 -1.26374 -1.49295 0
M  V30 6356 O 601.399 -1.64404 -2.16064 0
M  V30 6357 C 599.855 -3.57253 -0.435678 0
M  V30 6358 C 599.463 -4.40302 0.82693 0
M  V30 6359 C 601.207 -4.12995 -0.981618 0
M  V30 6360 C 599.114 -5.88583 0.576567 0
M  V30 6361 H 598.044 -0.749246 -0.084536 0
M  V30 6362 H 600.695 -1.76771 0.492364 0
M  V30 6363 H 599.077 -3.77202 -1.20559 0
M  V30 6364 H 600.251 -4.32124 1.60017 0
M  V30 6365 H 598.566 -3.95699 1.29659 0
M  V30 6366 H 601.163 -5.21418 -1.18436 0
M  V30 6367 H 601.506 -3.68027 -1.94581 0
M  V30 6368 H 602.039 -3.96871 -0.271696 0
M  V30 6369 H 598.778 -6.37841 1.51128 0
M  V30 6370 H 598.298 -5.99592 -0.158047 0
M  V30 6371 H 599.977 -6.46676 0.204722 0
M  V30 6372 N 600.109 -0.101901 -1.5727 0
M  V30 6373 C 601.386 0.602832 -1.86079 0
M  V30 6374 C 601.766 1.85912 -1 0
M  V30 6375 O 601.114 2.28379 -0.0742488 0
M  V30 6376 C 601.324 0.911694 -3.36881 0
M  V30 6377 C 602.672 1.2722 -4.05093 0
M  V30 6378 O 603.696 1.0025 -3.41802 0
M  V30 6379 O 602.555 1.7776 -5.16782 0
M  V30 6380 H 599.649 0.302366 -0.769743 0
M  V30 6381 H 602.195 -0.135113 -1.69161 0
M  V30 6382 H 600.967 0.0207256 -3.91295 0
M  V30 6383 H 600.59 1.70538 -3.59169 0
M  V30 6384 N 601.587 1.56661 0.17182 0
M  V30 6385 C 602.534 1.96371 1.21273 0
M  V30 6386 C 603.504 0.82756 1.44016 0
M  V30 6387 O 604.689 1.08764 1.56764 0
M  V30 6388 C 601.829 2.32838 2.54716 0
M  V30 6389 C 600.942 3.59628 2.39356 0
M  V30 6390 C 600.077 3.85311 3.65662 0
M  V30 6391 C 599.116 5.0545 3.45234 0
M  V30 6392 N 598.253 5.27268 4.63608 0
M  V30 6393 H 603.093 2.85106 0.86709 0
M  V30 6394 H 600.63 1.41073 0.416744 0
M  V30 6395 H 602.588 2.52004 3.3249 0
M  V30 6396 H 601.218 1.47214 2.87277 0
M  V30 6397 H 600.27 3.4838 1.52761 0
M  V30 6398 H 601.582 4.4756 2.20207 0
M  V30 6399 H 600.736 4.04841 4.51872 0
M  V30 6400 H 599.475 2.95753 3.8779 0
M  V30 6401 H 598.48 4.85819 2.5741 0
M  V30 6402 H 599.705 5.96538 3.24529 0
M  V30 6403 H 597.651 4.40662 4.85956 0
M  V30 6404 H 597.568 6.09422 4.4737 0
M  V30 6405 H 598.836 5.51277 5.51103 0
M  V30 6406 N 603.065 -0.440357 1.51323 0
M  V30 6407 C 603.975 -1.55955 1.75258 0
M  V30 6408 C 604.991 -1.61933 0.636687 0
M  V30 6409 O 606.167 -1.79231 0.918593 0
M  V30 6410 C 603.232 -2.9196 1.86977 0
M  V30 6411 C 602.293 -2.96122 3.10822 0
M  V30 6412 C 601.526 -4.2564 3.21973 0
M  V30 6413 O 601.749 -5.17851 2.39137 0
M  V30 6414 O 600.683 -4.36025 4.14929 0
M  V30 6415 H 604.509 -1.38673 2.70191 0
M  V30 6416 H 602.094 -0.623055 1.35788 0
M  V30 6417 H 603.976 -3.72682 1.96688 0
M  V30 6418 H 602.651 -3.09375 0.952307 0
M  V30 6419 H 601.558 -2.14366 3.06591 0
M  V30 6420 H 602.891 -2.83651 4.02247 0
M  V30 6421 N 604.543 -1.41418 -0.695603 0
M  V30 6422 C 605.453 -1.45622 -1.83933 0
M  V30 6423 C 606.469 -0.346825 -1.70508 0
M  V30 6424 O 607.645 -0.59454 -1.92424 0
M  V30 6425 C 604.71 -1.33627 -3.19914 0
M  V30 6426 C 603.771 -2.54882 -3.45447 0
M  V30 6427 C 603.004 -2.43449 -4.7494 0
M  V30 6428 O 603.227 -1.45905 -5.51424 0
M  V30 6429 O 602.161 -3.33206 -5.01256 0
M  V30 6430 H 605.987 -2.42114 -1.83342 0
M  V30 6431 H 603.572 -1.22956 -0.848658 0
M  V30 6432 H 605.454 -1.29221 -4.01098 0
M  V30 6433 H 604.129 -0.402508 -3.21188 0
M  V30 6434 H 603.036 -2.64865 -2.64192 0
M  V30 6435 H 604.369 -3.47087 -3.48987 0
M  V30 6436 N 606.021 0.929856 -1.27246 0
M  V30 6437 C 606.931 2.0636 -1.11592 0
M  V30 6438 C 607.947 1.73938 -0.046496 0
M  V30 6439 O 609.123 1.9981 -0.252544 0
M  V30 6440 C 606.188 3.38213 -0.762437 0
M  V30 6441 C 605.249 3.84346 -1.9125 0
M  V30 6442 C 604.482 5.09906 -1.57579 0
M  V30 6443 O 604.705 5.68354 -0.482694 0
M  V30 6444 O 603.639 5.51359 -2.41426 0
M  V30 6445 H 607.465 2.22478 -2.0673 0
M  V30 6446 H 605.05 1.04865 -1.06413 0
M  V30 6447 H 606.932 4.1741 -0.57854 0
M  V30 6448 H 605.607 3.23307 0.159439 0
M  V30 6449 H 604.514 3.06045 -2.15144 0
M  V30 6450 H 605.847 4.0379 -2.81451 0
M  V30 6451 N 607.499 1.09233 1.13605 0
M  V30 6452 C 608.446 0.729921 2.18954 0
M  V30 6453 C 609.416 -0.287916 1.63586 0
M  V30 6454 O 610.601 -0.170003 1.90041 0
M  V30 6455 C 607.741 0.154489 3.44754 0
M  V30 6456 C 606.854 1.22613 4.14234 0
M  V30 6457 C 605.989 0.613657 5.27644 0
M  V30 6458 C 605.028 1.66674 5.8897 0
M  V30 6459 N 604.165 1.07545 6.93814 0
M  V30 6460 H 609.005 1.63257 2.49302 0
M  V30 6461 H 606.542 0.815693 1.22413 0
M  V30 6462 H 608.5 -0.196923 4.16735 0
M  V30 6463 H 607.13 -0.711433 3.14863 0
M  V30 6464 H 606.182 1.69485 3.40557 0
M  V30 6465 H 607.494 2.0238 4.55899 0
M  V30 6466 H 606.648 0.210976 6.06333 0
M  V30 6467 H 605.387 -0.215584 4.87223 0
M  V30 6468 H 604.392 2.07899 5.08978 0
M  V30 6469 H 605.617 2.49861 6.31464 0
M  V30 6470 H 603.563 0.267451 6.55455 0
M  V30 6471 H 603.48 1.81011 7.3401 0
M  V30 6472 H 604.748 0.698906 7.7636 0
M  V30 6473 N 608.977 -1.30795 0.87923 0
M  V30 6474 C 610.388 -1.78535 0.546093 0
M  V30 6475 C 610.739 -1.72354 -0.937467 0
M  V30 6476 O 609.864 -1.2969 -1.73233 0
M  V30 6477 C 610.459 -3.24181 0.9845 0
M  V30 6478 C 609.018 -3.69779 0.702871 0
M  V30 6479 C 608.165 -2.51377 1.17068 0
M  V30 6480 H 611.116 -1.17746 1.06403 0
M  V30 6481 H 611.137 -3.79227 0.311045 0
M  V30 6482 H 610.649 -3.28647 2.06429 0
M  V30 6483 H 608.75 -3.70806 -0.365166 0
M  V30 6484 H 608.863 -4.61507 1.28639 0
M  V30 6485 H 607.227 -2.47768 0.590172 0
M  V30 6486 H 608.01 -2.58584 2.25808 0
M  V30 6487 N 610.455 -0.639598 -1.44038 0
M  V30 6488 C 611.701 -0.147698 -2.02261 0
M  V30 6489 C 612.034 1.23031 -1.50256 0
M  V30 6490 O 611.309 1.81847 -0.690068 0
M  V30 6491 C 611.592 -0.14362 -3.59813 0
M  V30 6492 C 611.445 -1.55458 -4.22082 0
M  V30 6493 C 612.764 0.527317 -4.36929 0
M  V30 6494 H 609.883 -0.0551453 -0.734934 0
M  V30 6495 H 612.525 -0.817688 -1.71505 0
M  V30 6496 H 610.675 0.426898 -3.86147 0
M  V30 6497 H 612.347 -2.17464 -4.06826 0
M  V30 6498 H 610.59 -2.10594 -3.79253 0
M  V30 6499 H 611.261 -1.50369 -5.31124 0
M  V30 6500 H 613.737 0.0420504 -4.16079 0
M  V30 6501 H 612.613 0.499389 -5.46624 0
M  V30 6502 H 612.874 1.59914 -4.12165 0
M  V30 6503 N 611.933 1.52934 -0.380664 0
M  V30 6504 C 612.866 2.22597 0.502564 0
M  V30 6505 C 613.844 1.22345 1.071 0
M  V30 6506 O 615.028 1.51302 1.12428 0
M  V30 6507 C 612.155 2.93246 1.69482 0
M  V30 6508 C 611.201 4.07696 1.25244 0
M  V30 6509 S 612.034 5.34957 0.241159 0
M  V30 6510 C 613.19 6.09124 1.4394 0
M  V30 6511 H 613.423 2.97167 -0.089029 0
M  V30 6512 H 610.956 1.53518 -0.164817 0
M  V30 6513 H 612.914 3.34562 2.37863 0
M  V30 6514 H 611.575 2.18373 2.2577 0
M  V30 6515 H 610.768 4.56199 2.1424 0
M  V30 6516 H 610.37 3.68349 0.647664 0
M  V30 6517 H 612.662 6.34771 2.36794 0
M  V30 6518 H 613.605 7.01068 0.995464 0
M  V30 6519 H 614.013 5.39777 1.65229 0
M  V30 6520 N 613.412 0.11024 1.57214 0
M  V30 6521 C 614.342 -0.840002 2.17867 0
M  V30 6522 C 615.323 -1.28352 1.11624 0
M  V30 6523 O 616.508 -1.3477 1.39824 0
M  V30 6524 C 613.638 -2.09349 2.77111 0
M  V30 6525 C 612.592 -1.78807 3.8886 0
M  V30 6526 C 611.918 -3.11112 4.34872 0
M  V30 6527 C 613.218 -1.0632 5.11364 0
M  V30 6528 H 614.912 -0.334608 2.97524 0
M  V30 6529 H 612.458 -0.159502 1.43114 0
M  V30 6530 H 614.411 -2.76275 3.18198 0
M  V30 6531 H 613.135 -2.62198 1.9473 0
M  V30 6532 H 611.794 -1.14273 3.48335 0
M  V30 6533 H 611.442 -3.61877 3.49362 0
M  V30 6534 H 611.142 -2.91453 5.10224 0
M  V30 6535 H 612.666 -3.79171 4.78604 0
M  V30 6536 H 614.08 -1.63383 5.49526 0
M  V30 6537 H 612.477 -0.967876 5.92243 0
M  V30 6538 H 613.547 -0.0484569 4.84876 0
M  V30 6539 N 614.89 -1.56749 -0.16351 0
M  V30 6540 C 615.837 -1.97011 -1.2023 0
M  V30 6541 C 616.807 -0.835186 -1.43575 0
M  V30 6542 O 617.992 -1.09594 -1.56185 0
M  V30 6543 C 615.132 -2.34186 -2.53478 0
M  V30 6544 C 614.245 -3.60893 -2.37446 0
M  V30 6545 C 613.38 -3.87245 -3.63614 0
M  V30 6546 C 612.419 -5.07274 -3.42548 0
M  V30 6547 N 611.556 -5.29719 -4.60806 0
M  V30 6548 H 616.396 -2.85562 -0.851958 0
M  V30 6549 H 613.933 -1.41292 -0.409257 0
M  V30 6550 H 615.891 -2.53764 -3.31149 0
M  V30 6551 H 614.521 -1.48736 -2.86492 0
M  V30 6552 H 613.573 -3.49185 -1.50911 0
M  V30 6553 H 614.885 -4.48722 -2.1783 0
M  V30 6554 H 614.039 -4.07232 -4.49719 0
M  V30 6555 H 612.778 -2.97806 -3.86216 0
M  V30 6556 H 611.783 -4.87177 -2.5483 0
M  V30 6557 H 613.008 -5.98251 -3.2136 0
M  V30 6558 H 610.954 -4.43233 -4.83612 0
M  V30 6559 H 610.871 -6.11786 -4.44132 0
M  V30 6560 H 612.139 -5.54192 -5.48171 0
M  V30 6561 N 616.368 0.432326 -1.51554 0
M  V30 6562 C 617.617 1.17831 -1.63703 0
M  V30 6563 C 617.93 1.92229 -0.36156 0
M  V30 6564 O 619.136 2.69069 -0.362495 0
M  V30 6565 C 617.592 2.14318 -2.89129 0
M  V30 6566 C 617.2 1.45544 -4.23699 0
M  V30 6567 C 618.944 2.89319 -3.10636 0
M  V30 6568 C 616.851 2.40545 -5.4027 0
M  V30 6569 H 615.781 0.443533 -0.60975 0
M  V30 6570 H 618.432 0.444878 -1.78026 0
M  V30 6571 H 616.814 2.91117 -2.68452 0
M  V30 6572 H 617.988 0.742693 -4.54775 0
M  V30 6573 H 616.303 0.826772 -4.0811 0
M  V30 6574 H 618.9 3.60495 -3.94902 0
M  V30 6575 H 619.243 3.50951 -2.23918 0
M  V30 6576 H 619.776 2.19625 -3.31677 0
M  V30 6577 H 616.515 1.83594 -6.29264 0
M  V30 6578 H 616.035 3.09859 -5.13563 0
M  V30 6579 H 617.714 3.01569 -5.72421 0
M  V30 6580 N 617.846 1.41785 0.688094 0
M  V30 6581 C 619.094 1.41264 1.4453 0
M  V30 6582 C 619.415 0.0252946 1.94984 0
M  V30 6583 O 618.685 -0.934081 1.72197 0
M  V30 6584 H 617.265 0.519998 0.536294 0
M  V30 6585 H 619.927 1.7709 0.813941 0
M  V30 6586 H 619.023 2.10439 2.30482 0
M  V30 6587 N 619.324 -0.923095 1.27737 0
M  V30 6588 C 620.552 -1.70525 1.17171 0
M  V30 6589 C 620.967 -1.86847 -0.270881 0
M  V30 6590 O 620.324 -1.38879 -1.18401 0
M  V30 6591 C 620.375 -3.10242 1.85559 0
M  V30 6592 O 620.096 -2.94683 3.24182 0
M  V30 6593 C 621.597 -4.04586 1.81176 0
M  V30 6594 H 618.817 -0.533347 0.407163 0
M  V30 6595 H 621.361 -1.15599 1.68692 0
M  V30 6596 H 619.516 -3.62014 1.3793 0
M  V30 6597 H 619.93 -3.83045 3.58297 0
M  V30 6598 H 621.404 -5.00119 2.33633 0
M  V30 6599 H 621.881 -4.3218 0.782099 0
M  V30 6600 H 622.487 -3.58741 2.2844 0
M  V30 6601 N 620.802 -1.09834 -1.13024 0
M  V30 6602 C 622.027 -0.85909 -1.88771 0
M  V30 6603 C 622.452 0.584402 -1.78791 0
M  V30 6604 O 621.81 1.41101 -1.13842 0
M  V30 6605 C 621.858 -1.30427 -3.36186 0
M  V30 6606 O 620.962 -0.465368 -4.09766 0
M  V30 6607 H 620.303 -0.310786 -0.586778 0
M  V30 6608 H 622.833 -1.46355 -1.42973 0
M  V30 6609 H 622.843 -1.2915 -3.8702 0
M  V30 6610 H 621.518 -2.3555 -3.42767 0
M  V30 6611 H 620.095 -0.542814 -3.68928 0
M  V30 6612 N 622.28 1.30327 -0.886154 0
M  V30 6613 C 623.691 1.78243 -0.555554 0
M  V30 6614 C 624.042 1.72849 0.928314 0
M  V30 6615 O 623.167 1.30607 1.72542 0
M  V30 6616 C 623.762 3.23654 -1.00168 0
M  V30 6617 C 622.321 3.69401 -0.722471 0
M  V30 6618 C 621.468 2.50753 -1.18399 0
M  V30 6619 H 624.419 1.1718 -1.07026 0
M  V30 6620 H 624.44 3.79056 -0.331152 0
M  V30 6621 H 623.952 3.27548 -2.08169 0
M  V30 6622 H 622.053 3.70995 0.345496 0
M  V30 6623 H 622.166 4.60818 -1.31085 0
M  V30 6624 H 620.53 2.47452 -0.603303 0
M  V30 6625 H 621.313 2.57383 -2.27176 0
M  V30 6626 N 623.758 0.647228 1.43697 0
M  V30 6627 C 625.004 0.158422 2.0218 0
M  V30 6628 C 625.337 -1.22233 1.50907 0
M  V30 6629 O 624.612 -1.81478 0.699702 0
M  V30 6630 C 624.895 0.1627 3.59732 0
M  V30 6631 C 624.748 1.57694 4.21251 0
M  V30 6632 C 626.067 -0.504138 4.37203 0
M  V30 6633 H 623.186 0.059042 0.734631 0
M  V30 6634 H 625.828 0.826772 1.71069 0
M  V30 6635 H 623.978 -0.406414 3.86368 0
M  V30 6636 H 625.65 2.19618 4.05667 0
M  V30 6637 H 623.893 2.12603 3.7813 0
M  V30 6638 H 624.564 1.53183 5.3032 0
M  V30 6639 H 627.04 -0.0199841 4.16095 0
M  V30 6640 H 625.916 -0.470394 5.46881 0
M  V30 6641 H 626.177 -1.57726 4.13007 0
M  V30 6642 N 625.236 -1.5273 0.388769 0
M  V30 6643 C 626.183 -2.26437 -0.446639 0
M  V30 6644 C 627.153 -1.28025 -1.05824 0
M  V30 6645 O 628.338 -1.56852 -1.08637 0
M  V30 6646 C 625.478 -3.07407 -1.56828 0
M  V30 6647 C 624.591 -4.20747 -0.979589 0
M  V30 6648 C 623.726 -4.89113 -2.07224 0
M  V30 6649 C 622.765 -5.94447 -1.45942 0
M  V30 6650 N 621.902 -6.56411 -2.49135 0
M  V30 6651 H 626.742 -2.97404 0.18837 0
M  V30 6652 H 624.279 -1.46727 0.104725 0
M  V30 6653 H 626.237 -3.52642 -2.22934 0
M  V30 6654 H 624.867 -2.3865 -2.17361 0
M  V30 6655 H 623.919 -3.7983 -0.208151 0
M  V30 6656 H 625.231 -4.9637 -0.491747 0
M  V30 6657 H 624.385 -5.3765 -2.81101 0
M  V30 6658 H 623.124 -4.13013 -2.59368 0
M  V30 6659 H 622.129 -5.4525 -0.705894 0
M  V30 6660 H 623.354 -6.7248 -0.945932 0
M  V30 6661 H 621.3 -5.83152 -3.00449 0
M  V30 6662 H 621.217 -7.27645 -2.05105 0
M  V30 6663 H 622.485 -7.09592 -3.22644 0
M  V30 6664 N 626.714 -0.118576 -1.57153 0
M  V30 6665 C 627.624 0.845484 -2.18835 0
M  V30 6666 C 628.64 1.29299 -1.16438 0
M  V30 6667 O 629.816 1.35607 -1.48905 0
M  V30 6668 C 626.881 2.07795 -2.77529 0
M  V30 6669 C 625.942 1.6824 -3.9496 0
M  V30 6670 C 625.175 2.85612 -4.50845 0
M  V30 6671 O 625.398 4.01025 -4.05629 0
M  V30 6672 O 624.332 2.62721 -5.41536 0
M  V30 6673 H 628.158 0.350568 -3.0167 0
M  V30 6674 H 625.743 0.107013 -1.49016 0
M  V30 6675 H 627.625 2.79978 -3.14945 0
M  V30 6676 H 626.3 2.56294 -1.97725 0
M  V30 6677 H 625.207 0.931663 -3.62313 0
M  V30 6678 H 626.54 1.24484 -4.76198 0
M  V30 6679 N 628.193 1.56834 0.155195 0
M  V30 6680 C 629.47 1.73799 0.897395 0
M  V30 6681 C 629.85 0.684379 1.99698 0
M  V30 6682 O 629.198 -0.298111 2.26547 0
M  V30 6683 C 629.408 3.17572 1.44737 0
M  V30 6684 C 630.756 3.79014 1.91399 0
M  V30 6685 O 631.78 3.20951 1.54496 0
M  V30 6686 O 630.639 4.80998 2.59429 0
M  V30 6687 H 627.733 0.710329 0.423511 0
M  V30 6688 H 630.279 1.69107 0.141761 0
M  V30 6689 H 629.051 3.85749 0.656741 0
M  V30 6690 H 628.674 3.26657 2.26674 0
M  V30 6691 N 629.671 -0.424282 1.51781 0
M  V30 6692 C 630.618 -1.51591 1.74037 0
M  V30 6693 C 631.588 -1.55556 0.582358 0
M  V30 6694 O 632.773 -1.72364 0.818245 0
M  V30 6695 C 629.913 -2.89188 1.8832 0
M  V30 6696 C 629.026 -2.9465 3.1592 0
M  V30 6697 C 628.161 -4.23452 3.20721 0
M  V30 6698 C 627.2 -4.22831 4.42584 0
M  V30 6699 N 626.337 -5.43178 4.44862 0
M  V30 6700 H 631.177 -1.31917 2.67212 0
M  V30 6701 H 628.714 -0.640599 1.32419 0
M  V30 6702 H 630.672 -3.69044 1.94583 0
M  V30 6703 H 629.302 -3.07392 0.985402 0
M  V30 6704 H 628.354 -2.07378 3.18902 0
M  V30 6705 H 629.666 -2.90055 4.05795 0
M  V30 6706 H 628.82 -5.1169 3.25973 0
M  V30 6707 H 627.559 -4.30722 2.28757 0
M  V30 6708 H 626.564 -3.32984 4.37495 0
M  V30 6709 H 627.789 -4.17213 5.35826 0
M  V30 6710 H 625.735 -5.51145 3.55775 0
M  V30 6711 H 625.652 -5.40515 5.28563 0
M  V30 6712 H 626.92 -6.33412 4.54324 0
M  V30 6713 N 631.149 -1.42148 -0.680565 0
M  V30 6714 C 632.059 -1.47565 -1.82378 0
M  V30 6715 C 633.075 -0.36489 -1.70131 0
M  V30 6716 O 634.251 -0.614916 -1.91783 0
M  V30 6717 C 631.316 -1.37013 -3.18478 0
M  V30 6718 C 630.377 -2.58532 -3.42724 0
M  V30 6719 C 629.61 -2.48473 -4.72331 0
M  V30 6720 O 629.833 -1.51745 -5.49845 0
M  V30 6721 O 628.767 -3.38503 -4.97694 0
M  V30 6722 H 632.593 -2.44045 -1.80764 0
M  V30 6723 H 630.178 -1.23849 -0.835569 0
M  V30 6724 H 632.06 -1.33468 -3.99705 0
M  V30 6725 H 630.735 -0.436552 -3.20743 0
M  V30 6726 H 629.642 -2.67652 -2.61368 0
M  V30 6727 H 630.975 -3.50769 -3.45286 0
M  V30 6728 N 632.627 0.916307 -1.28225 0
M  V30 6729 C 633.59 1.99996 -1.11957 0
M  V30 6730 C 634.59 1.60688 -0.0600152 0
M  V30 6731 O 635.78 1.71499 -0.30558 0
M  V30 6732 C 632.912 3.33458 -0.708411 0
M  V30 6733 H 634.105 2.15858 -2.08196 0
M  V30 6734 H 631.658 1.09863 -1.11175 0
M  V30 6735 H 632.393 3.23297 0.254859 0
M  V30 6736 H 632.178 3.63349 -1.47377 0
M  V30 6737 H 633.668 4.13014 -0.617164 0
M  V30 6738 N 634.105 1.10431 1.1244 0
M  V30 6739 C 635.352 0.846717 1.83948 0
M  V30 6740 C 635.68 -0.627709 1.84093 0
M  V30 6741 O 634.935 -1.47876 1.28184 0
M  V30 6742 C 635.234 1.34022 3.3132 0
M  V30 6743 C 634.9 2.82606 3.51347 0
M  V30 6744 C 633.562 3.23182 3.56521 0
M  V30 6745 C 635.914 3.78356 3.58464 0
M  V30 6746 C 633.242 4.58258 3.66356 0
M  V30 6747 C 635.594 5.13234 3.69829 0
M  V30 6748 C 634.258 5.53384 3.73259 0
M  V30 6749 H 633.528 0.309836 0.673114 0
M  V30 6750 H 636.175 1.38091 1.32677 0
M  V30 6751 H 634.48 0.726047 3.85014 0
M  V30 6752 H 636.177 1.11739 3.85118 0
M  V30 6753 H 632.767 2.50212 3.47983 0
M  V30 6754 H 636.951 3.48115 3.53737 0
M  V30 6755 H 632.207 4.88787 3.67284 0
M  V30 6756 H 636.381 5.87272 3.74279 0
M  V30 6757 H 634.008 6.58045 3.80633 0
M  V30 6758 N 635.583 -1.29855 0.893053 0
M  V30 6759 C 636.546 -2.26183 0.370687 0
M  V30 6760 C 637.546 -1.53108 -0.491385 0
M  V30 6761 O 638.736 -1.71643 -0.297386 0
M  V30 6762 C 635.868 -3.37633 -0.470827 0
M  V30 6763 H 637.061 -2.73903 1.22135 0
M  V30 6764 H 634.614 -1.41183 0.67061 0
M  V30 6765 H 635.349 -2.95241 -1.34175 0
M  V30 6766 H 635.134 -3.91825 0.146784 0
M  V30 6767 H 636.624 -4.09313 -0.827825 0
M  V30 6768 N 637.061 -0.65484 -1.43351 0
M  V30 6769 C 638.31 -0.166215 -2.01014 0
M  V30 6770 C 638.623 1.22764 -1.52278 0
M  V30 6771 O 639.829 1.81156 -2.02224 0
M  V30 6772 C 638.285 -0.246341 -3.59056 0
M  V30 6773 C 637.893 -1.64299 -4.16785 0
M  V30 6774 C 639.637 0.184597 -4.24098 0
M  V30 6775 C 637.544 -1.67695 -5.67126 0
M  V30 6776 H 636.474 -0.0583769 -0.751737 0
M  V30 6777 H 639.125 -0.817111 -1.64303 0
M  V30 6778 H 637.507 0.472092 -3.93176 0
M  V30 6779 H 638.681 -2.3869 -3.94162 0
M  V30 6780 H 636.996 -2.02004 -3.6412 0
M  V30 6781 H 639.593 0.179088 -5.344 0
M  V30 6782 H 639.936 1.21632 -3.98135 0
M  V30 6783 H 640.469 -0.482141 -3.94867 0
M  V30 6784 H 637.208 -2.68783 -5.9786 0
M  V30 6785 H 636.728 -0.976313 -5.91801 0
M  V30 6786 H 638.407 -1.42142 -6.31193 0
M  V30 6787 N 638.539 1.52521 -0.396863 0
M  V30 6788 C 639.785 2.01971 0.183169 0
M  V30 6789 C 640.118 1.2825 1.45827 0
M  V30 6790 O 639.393 0.385179 1.90648 0
M  V30 6791 C 639.676 3.5736 0.443391 0
M  V30 6792 C 639.529 4.41743 -0.84753 0
M  V30 6793 C 640.848 4.22539 1.2308 0
M  V30 6794 H 637.967 0.734119 0.0650976 0
M  V30 6795 H 640.609 1.82519 -0.527918 0
M  V30 6796 H 638.759 3.74066 1.04914 0
M  V30 6797 H 640.431 4.36773 -1.48414 0
M  V30 6798 H 638.674 4.0845 -1.4612 0
M  V30 6799 H 639.345 5.48507 -0.620003 0
M  V30 6800 H 641.821 4.09857 0.718084 0
M  V30 6801 H 640.697 5.31227 1.38162 0
M  V30 6802 H 640.958 3.80675 2.24808 0
M  V30 6803 N 640.017 0.126909 1.57088 0
M  V30 6804 C 641.428 -0.397201 1.82426 0
M  V30 6805 C 641.779 -1.66084 1.04453 0
M  V30 6806 O 640.904 -2.14534 0.283552 0
M  V30 6807 C 641.499 -0.727411 3.30899 0
M  V30 6808 C 640.058 -1.19612 3.56889 0
M  V30 6809 C 639.205 -0.20885 2.76512 0
M  V30 6810 H 642.156 0.351924 1.54749 0
M  V30 6811 H 642.177 -1.58407 3.45959 0
M  V30 6812 H 641.689 0.19247 3.87622 0
M  V30 6813 H 639.79 -2.13263 3.05532 0
M  V30 6814 H 639.903 -1.13598 4.65438 0
M  V30 6815 H 638.267 -0.697479 2.44964 0
M  V30 6816 H 639.05 0.704267 3.35998 0
M  V30 6817 N 641.495 -1.56914 -0.146875 0
M  V30 6818 C 642.741 -1.83628 -0.860741 0
M  V30 6819 C 643.074 -0.708528 -1.80813 0
M  V30 6820 O 642.349 0.287838 -1.92358 0
M  V30 6821 C 642.632 -3.20836 -1.63511 0
M  V30 6822 C 642.485 -4.44174 -0.709199 0
M  V30 6823 C 643.804 -3.55268 -2.59756 0
M  V30 6824 H 640.923 -0.667949 -0.311468 0
M  V30 6825 H 643.565 -1.89582 -0.125936 0
M  V30 6826 H 641.715 -3.15891 -2.26153 0
M  V30 6827 H 643.387 -4.61205 -0.0937781 0
M  V30 6828 H 641.63 -4.33796 -0.0187856 0
M  V30 6829 H 642.301 -5.36785 -1.28707 0
M  V30 6830 H 644.777 -3.60824 -2.07232 0
M  V30 6831 H 643.653 -4.52303 -3.10987 0
M  V30 6832 H 643.914 -2.81231 -3.41118 0
M  V30 6833 N 642.974 0.416227 -1.52004 0
M  V30 6834 C 644.199 1.19029 -1.69843 0
M  V30 6835 C 644.624 1.83708 -0.404103 0
M  V30 6836 O 643.982 1.69711 0.637787 0
M  V30 6837 C 644.03 2.23439 -2.83032 0
M  V30 6838 O 643.134 3.29419 -2.48106 0
M  V30 6839 H 642.475 0.347785 -0.565634 0
M  V30 6840 H 645.005 0.488871 -1.98674 0
M  V30 6841 H 645.015 2.67884 -3.07737 0
M  V30 6842 H 643.69 1.75745 -3.76944 0
M  V30 6843 H 642.267 2.90303 -2.34048 0
M  V30 6844 N 644.452 1.42507 0.673017 0
M  V30 6845 C 645.863 1.38347 1.25367 0
M  V30 6846 C 646.214 0.0776327 1.96046 0
M  V30 6847 O 645.339 -0.823571 2.00116 0
M  V30 6848 C 645.934 2.506 2.28002 0
M  V30 6849 C 644.493 2.49767 2.81591 0
M  V30 6850 C 643.64 2.293 1.55938 0
M  V30 6851 H 646.591 1.51695 0.466288 0
M  V30 6852 H 646.612 2.20953 3.09774 0
M  V30 6853 H 646.124 3.45627 1.76532 0
M  V30 6854 H 644.225 1.58563 3.37177 0
M  V30 6855 H 644.338 3.46867 3.30485 0
M  V30 6856 H 642.702 1.77594 1.82572 0
M  V30 6857 H 643.485 3.26385 1.06431 0
M  V30 6858 N 645.93 -0.909495 1.28709 0
M  V30 6859 C 646.893 -1.99399 1.13016 0
M  V30 6860 C 647.893 -1.60654 0.068536 0
M  V30 6861 O 649.083 -1.71334 0.314671 0
M  V30 6862 C 646.215 -3.33078 0.726085 0
M  V30 6863 H 647.408 -2.14751 2.09338 0
M  V30 6864 H 644.961 -1.09272 1.11756 0
M  V30 6865 H 645.696 -3.23428 -0.23771 0
M  V30 6866 H 645.481 -3.62562 1.49302 0
M  V30 6867 H 646.971 -4.12681 0.639058 0
M  V30 6868 N 647.408 -1.11026 -1.11852 0
M  V30 6869 C 648.318 -0.777252 -2.2135 0
M  V30 6870 C 649.334 0.227821 -1.72502 0
M  V30 6871 O 650.51 0.0650587 -2.01295 0
M  V30 6872 C 647.575 -0.220668 -3.45997 0
M  V30 6873 C 646.636 -1.2838 -4.09655 0
M  V30 6874 C 645.869 -0.753678 -5.28352 0
M  V30 6875 O 646.092 0.417779 -5.68868 0
M  V30 6876 O 645.026 -1.51647 -5.82483 0
M  V30 6877 H 648.852 -1.69141 -2.5224 0
M  V30 6878 H 646.437 -0.885836 -1.20305 0
M  V30 6879 H 648.319 0.0855756 -4.21313 0
M  V30 6880 H 646.994 0.666262 -3.16769 0
M  V30 6881 H 645.901 -1.64299 -3.3609 0
M  V30 6882 H 647.234 -2.14396 -4.43052 0
M  V30 6883 N 648.886 1.2938 -0.899927 0
M  V30 6884 C 650.132 1.9584 -0.526742 0
M  V30 6885 C 650.465 1.70774 0.924651 0
M  V30 6886 O 649.74 1.02084 1.65557 0
M  V30 6887 C 650.023 3.50638 -0.820062 0
M  V30 6888 C 649.876 3.85161 -2.32317 0
M  V30 6889 C 651.195 4.3903 -0.30671 0
M  V30 6890 H 648.314 0.711322 -0.192848 0
M  V30 6891 H 650.956 1.52992 -1.12665 0
M  V30 6892 H 649.106 3.87265 -0.309491 0
M  V30 6893 H 650.778 3.58477 -2.9033 0
M  V30 6894 H 649.021 3.32696 -2.78381 0
M  V30 6895 H 649.692 4.93204 -2.47898 0
M  V30 6896 H 652.168 4.09396 -0.743908 0
M  V30 6897 H 651.044 5.46226 -0.541144 0
M  V30 6898 H 651.305 4.34937 0.792588 0
M  V30 6899 N 650.364 0.662433 1.43002 0
M  V30 6900 C 651.78 0.330835 1.56133 0
M  V30 6901 C 651.98 -1.16454 1.64441 0
M  V30 6902 O 651.036 -1.94964 1.60453 0
M  V30 6903 C 652.349 1.05029 2.81761 0
M  V30 6904 C 653.897 1.03142 2.95518 0
M  V30 6905 C 654.372 1.73196 4.2399 0
M  V30 6906 N 655.863 1.70004 4.30875 0
M  V30 6907 C 656.598 2.21074 5.29069 0
M  V30 6908 N 656.094 2.80473 6.33488 0
M  V30 6909 N 657.887 2.1152 5.20784 0
M  V30 6910 H 650.038 1.63272 1.35853 0
M  V30 6911 H 652.301 0.687149 0.653092 0
M  V30 6912 H 652.007 2.10542 2.81718 0
M  V30 6913 H 651.881 0.607664 3.72273 0
M  V30 6914 H 654.268 -0.0153339 2.95096 0
M  V30 6915 H 654.349 1.51282 2.0627 0
M  V30 6916 H 653.993 2.77833 4.25172 0
M  V30 6917 H 653.923 1.22515 5.1215 0
M  V30 6918 H 656.414 1.26667 3.56039 0
M  V30 6919 H 656.727 3.17094 7.04749 0
M  V30 6920 H 655.072 2.84538 6.34085 0
M  V30 6921 H 658.263 1.64814 4.38126 0
M  V30 6922 H 658.436 2.51629 5.97149 0
M  V30 6923 N 651.842 -1.52309 0.404946 0
M  V30 6924 C 653.119 -1.94237 -0.230544 0
M  V30 6925 C 653.499 -1.34154 -1.6299 0
M  V30 6926 O 652.847 -0.515713 -2.22604 0
M  V30 6927 C 653.057 -3.48166 -0.241106 0
M  V30 6928 C 654.405 -4.22074 -0.462488 0
M  V30 6929 O 655.429 -3.54754 -0.320644 0
M  V30 6930 O 654.288 -5.41443 -0.741708 0
M  V30 6931 H 651.382 -0.813766 -0.147358 0
M  V30 6932 H 653.928 -1.6333 0.460587 0
M  V30 6933 H 652.7 -3.84269 0.738467 0
M  V30 6934 H 652.323 -3.85422 -0.97651 0
M  V30 6935 N 653.32 -0.135238 -1.57019 0
M  V30 6936 C 654.25 0.805235 -2.19176 0
M  V30 6937 C 655.231 1.2656 -1.13651 0
M  V30 6938 O 656.416 1.32528 -1.4195 0
M  V30 6939 C 653.546 2.04914 -2.80406 0
M  V30 6940 C 652.5 1.72598 -3.91655 0
M  V30 6941 C 651.826 3.04154 -4.39766 0
M  V30 6942 C 653.126 0.981709 -5.12991 0
M  V30 6943 H 654.82 0.287232 -2.98019 0
M  V30 6944 H 652.366 0.136714 -1.4335 0
M  V30 6945 H 654.319 2.71178 -3.22553 0
M  V30 6946 H 653.043 2.59067 -1.98877 0
M  V30 6947 H 651.702 1.08717 -3.50109 0
M  V30 6948 H 651.35 3.56274 -3.55075 0
M  V30 6949 H 651.05 2.83299 -5.14796 0
M  V30 6950 H 652.574 3.71509 -4.84576 0
M  V30 6951 H 653.988 1.5462 -5.52056 0
M  V30 6952 H 652.385 0.873533 -5.93708 0
M  V30 6953 H 653.455 -0.0286887 -4.84892 0
M  V30 6954 N 654.798 1.5699 0.138552 0
M  V30 6955 C 656.075 1.74741 0.87891 0
M  V30 6956 C 656.455 0.705522 1.98961 0
M  V30 6957 O 655.803 -0.274066 2.2685 0
M  V30 6958 C 656.013 3.1909 1.4136 0
M  V30 6959 C 657.361 3.81023 1.87368 0
M  V30 6960 O 658.385 3.22571 1.51084 0
M  V30 6961 O 657.244 4.83722 2.54312 0
M  V30 6962 H 654.338 0.714781 0.415953 0
M  V30 6963 H 656.884 1.69248 0.123817 0
M  V30 6964 H 655.656 3.86424 0.61579 0
M  V30 6965 H 655.279 3.29043 2.23196 0
M  V30 6966 N 656.276 -0.40816 1.52223 0
M  V30 6967 C 657.523 -1.15502 1.66329 0
M  V30 6968 C 657.851 -1.90474 0.393701 0
M  V30 6969 O 657.106 -1.85507 -0.623356 0
M  V30 6970 C 657.405 -2.17422 2.83659 0
M  V30 6971 C 657.071 -1.5925 4.21841 0
M  V30 6972 C 655.733 -1.4311 4.59427 0
M  V30 6973 C 658.085 -1.16776 5.0795 0
M  V30 6974 C 655.413 -0.830148 5.80797 0
M  V30 6975 C 657.765 -0.580988 6.29926 0
M  V30 6976 C 656.429 -0.406729 6.6626 0
M  V30 6977 H 655.699 -0.422653 0.608642 0
M  V30 6978 H 658.346 -0.442114 1.86327 0
M  V30 6979 H 656.651 -2.94861 2.58001 0
M  V30 6980 H 658.348 -2.75084 2.9177 0
M  V30 6981 H 654.938 -1.72796 3.92224 0
M  V30 6982 H 659.122 -1.28055 4.79495 0
M  V30 6983 H 654.378 -0.68316 6.07571 0
M  V30 6984 H 658.552 -0.243488 6.95974 0
M  V30 6985 H 656.179 0.0610366 7.60175 0
M  V30 6986 N 657.755 -1.42862 -0.66545 0
M  V30 6987 C 658.718 -1.46756 -1.76055 0
M  V30 6988 C 659.718 -0.353866 -1.56858 0
M  V30 6989 O 660.908 -0.615099 -1.62979 0
M  V30 6990 C 658.04 -1.30829 -3.14796 0
M  V30 6991 H 659.233 -2.44271 -1.73987 0
M  V30 6992 H 656.786 -1.29447 -0.875965 0
M  V30 6993 H 657.521 -0.342733 -3.22484 0
M  V30 6994 H 657.306 -2.11551 -3.30134 0
M  V30 6995 H 658.796 -1.36458 -3.94676 0
M  V30 6996 N 659.233 0.902656 -1.29189 0
M  V30 6997 C 660.181 2.0278 -1.13943 0
M  V30 6998 C 661.175 1.69308 -0.055787 0
M  V30 6999 O 662.381 1.78707 -0.215371 0
M  V30 7000 H 658.756 0.664595 -0.351877 0
M  V30 7001 H 660.727 2.12778 -2.09208 0
M  V30 7002 C 659.476 3.37657 -0.82966 0
M  V30 7003 H 658.799 3.63913 -1.65551 0
M  V30 7004 H 660.239 4.17078 -0.762998 0
M  V30 7005 C 658.698 3.33648 0.466991 0
M  V30 7006 O 659.228 3.72886 1.49395 0
M  V30 7007 N 657.434 2.86745 0.471761 0
M  V30 7008 H 656.981 2.55009 -0.364406 0
M  V30 7009 H 656.939 2.84446 1.33933 0
M  V30 7010 N 660.711 1.11618 1.11262 0
M  V30 7011 C 661.988 0.777876 1.79467 0
M  V30 7012 C 662.368 -0.733774 1.97937 0
M  V30 7013 O 661.716 -1.66443 1.56554 0
M  V30 7014 C 661.926 1.5431 3.13032 0
M  V30 7015 C 663.274 1.72357 3.88044 0
M  V30 7016 O 664.298 1.5075 3.22727 0
M  V30 7017 O 663.157 2.08276 5.05256 0
M  V30 7018 H 660.251 0.282018 0.777428 0
M  V30 7019 H 662.797 1.21971 1.17988 0
M  V30 7020 H 661.569 2.57132 2.94956 0
M  V30 7021 H 661.192 1.09495 3.82226 0
M  V30 7022 N 662.189 -1.289 0.906776 0
M  V30 7023 C 663.152 -2.25777 0.394656 0
M  V30 7024 C 664.152 -1.53621 -0.475119 0
M  V30 7025 O 665.342 -1.71949 -0.279165 0
M  V30 7026 C 662.474 -3.38113 -0.43499 0
M  V30 7027 H 663.667 -2.72592 1.25033 0
M  V30 7028 H 661.22 -1.40463 0.685547 0
M  V30 7029 H 661.955 -2.96648 -1.31036 0
M  V30 7030 H 661.74 -3.91647 0.188334 0
M  V30 7031 H 663.23 -4.10168 -0.784365 0
M  V30 7032 N 663.667 -0.670007 -1.42649 0
M  V30 7033 C 664.892 -0.196955 -2.06463 0
M  V30 7034 C 665.317 1.1352 -1.49983 0
M  V30 7035 O 664.675 1.705 -0.616397 0
M  V30 7036 C 664.723 -0.137381 -3.60338 0
M  V30 7037 O 663.827 0.895523 -4.02559 0
M  V30 7038 H 663.168 -0.102579 -0.656029 0
M  V30 7039 H 665.698 -0.917669 -1.82866 0
M  V30 7040 H 665.708 0.0403625 -4.0798 0
M  V30 7041 H 664.383 -1.10977 -4.0082 0
M  V30 7042 H 662.96 0.689209 -3.66476 0
M  V30 7043 N 665.145 1.52092 -0.413018 0
M  V30 7044 C 666.092 2.27119 0.410558 0
M  V30 7045 C 667.062 1.29692 1.03774 0
M  V30 7046 O 668.247 1.58561 1.06128 0
M  V30 7047 C 665.387 3.09863 1.51918 0
M  V30 7048 C 664.5 4.22252 0.912528 0
M  V30 7049 C 663.635 4.92348 1.99417 0
M  V30 7050 C 662.674 5.96694 1.36466 0
M  V30 7051 N 661.811 6.60292 2.38661 0
M  V30 7052 H 666.651 2.97067 -0.235661 0
M  V30 7053 H 664.188 1.46542 -0.128055 0
M  V30 7054 H 666.146 3.56144 2.17295 0
M  V30 7055 H 664.776 2.42078 2.13537 0
M  V30 7056 H 663.828 3.80113 0.147697 0
M  V30 7057 H 665.14 4.9709 0.412717 0
M  V30 7058 H 664.294 5.42054 2.72512 0
M  V30 7059 H 663.033 4.17087 2.52764 0
M  V30 7060 H 662.038 5.46304 0.61906 0
M  V30 7061 H 663.263 6.73899 0.838827 0
M  V30 7062 H 661.209 5.87858 2.91134 0
M  V30 7063 H 661.126 7.30816 1.93503 0
M  V30 7064 H 662.394 7.14635 3.11314 0
M  V30 7065 N 666.623 0.143563 1.56945 0
M  V30 7066 C 667.869 -0.50916 1.96304 0
M  V30 7067 C 668.202 -1.64741 1.0283 0
M  V30 7068 O 667.477 -1.94374 0.0700361 0
M  V30 7069 C 667.76 -1.0186 3.45393 0
M  V30 7070 C 667.613 0.117923 4.49645 0
M  V30 7071 C 668.932 -1.90151 3.96901 0
M  V30 7072 H 666.051 -0.183608 0.713763 0
M  V30 7073 H 668.693 0.224095 1.88674 0
M  V30 7074 H 666.843 -1.64345 3.52027 0
M  V30 7075 H 668.515 0.754145 4.55094 0
M  V30 7076 H 666.758 0.777568 4.26774 0
M  V30 7077 H 667.429 -0.280187 5.51288 0
M  V30 7078 H 669.905 -1.375 3.92725 0
M  V30 7079 H 668.781 -2.22707 5.0169 0
M  V30 7080 H 669.042 -2.83718 3.39052 0
M  V30 7081 N 668.101 -1.57061 -0.130224 0
M  V30 7082 C 669.031 -2.02552 -1.16168 0
M  V30 7083 C 670.012 -0.907971 -1.4384 0
M  V30 7084 O 671.197 -1.17693 -1.54473 0
M  V30 7085 C 668.327 -2.42035 -2.49071 0
M  V30 7086 C 667.281 -3.5713 -2.35886 0
M  V30 7087 C 666.607 -3.82478 -3.7365 0
M  V30 7088 C 667.907 -4.89236 -1.8288 0
M  V30 7089 H 669.601 -2.8897 -0.783359 0
M  V30 7090 H 667.147 -1.39021 -0.375376 0
M  V30 7091 H 669.1 -2.72462 -3.21469 0
M  V30 7092 H 667.824 -1.52573 -2.88771 0
M  V30 7093 H 666.483 -3.26895 -1.65938 0
M  V30 7094 H 666.131 -2.9024 -4.10816 0
M  V30 7095 H 665.831 -4.59944 -3.65685 0
M  V30 7096 H 667.355 -4.15347 -4.47571 0
M  V30 7097 H 668.769 -5.18272 -2.45085 0
M  V30 7098 H 667.166 -5.70624 -1.85763 0
M  V30 7099 H 668.236 -4.78494 -0.785571 0
M  V30 7100 N 669.579 0.400081 -1.52437 0
M  V30 7101 C 670.827 1.14392 -1.6661 0
M  V30 7102 C 671.148 1.90792 -0.402927 0
M  V30 7103 O 670.418 1.87042 0.582425 0
M  V30 7104 H 668.998 0.425275 -0.614125 0
M  V30 7105 H 671.66 0.455076 -1.89513 0
M  V30 7106 H 670.756 1.85298 -2.51139 0
M  V30 7107 N 671.057 1.43213 0.657864 0
M  V30 7108 C 672.282 1.48227 1.45064 0
M  V30 7109 C 672.707 0.0999939 1.87834 0
M  V30 7110 O 672.065 -0.905269 1.57081 0
M  V30 7111 C 672.113 2.42931 2.6649 0
M  V30 7112 O 671.217 1.91237 3.6538 0
M  V30 7113 H 670.558 0.501551 0.435135 0
M  V30 7114 H 673.088 1.8808 0.805431 0
M  V30 7115 H 673.098 2.6008 3.1436 0
M  V30 7116 H 671.773 3.43348 2.34701 0
M  V30 7117 H 670.35 1.83726 3.24498 0
M  V30 7118 N 672.536 -0.895792 1.29666 0
M  V30 7119 C 673.785 -1.64131 1.17234 0
M  V30 7120 C 674.098 -1.93665 -0.274416 0
M  V30 7121 O 675.304 -2.66472 -0.520105 0
M  V30 7122 C 673.76 -2.95764 2.05065 0
M  V30 7123 C 673.368 -2.7381 3.54587 0
M  V30 7124 C 675.112 -3.737 2.01367 0
M  V30 7125 C 673.019 -4.01194 4.34508 0
M  V30 7126 H 671.949 -0.615742 0.435175 0
M  V30 7127 H 674.6 -0.992626 1.54335 0
M  V30 7128 H 672.982 -3.61867 1.60837 0
M  V30 7129 H 674.156 -2.16277 4.06892 0
M  V30 7130 H 672.471 -2.09265 3.59996 0
M  V30 7131 H 675.068 -4.68152 2.58337 0
M  V30 7132 H 675.411 -4.04245 0.994575 0
M  V30 7133 H 675.944 -3.14444 2.43659 0
M  V30 7134 H 672.683 -3.75813 5.37071 0
M  V30 7135 H 672.203 -4.58272 3.86971 0
M  V30 7136 H 673.882 -4.69307 4.45376 0
M  V30 7137 N 674.014 -1.12206 -1.10668 0
M  V30 7138 C 674.977 -0.790867 -2.15123 0
M  V30 7139 C 675.977 0.193618 -1.5963 0
M  V30 7140 O 677.167 -0.0318728 -1.74171 0
M  V30 7141 C 674.299 -0.174797 -3.40452 0
M  V30 7142 H 675.492 -1.7163 -2.45933 0
M  V30 7143 H 673.045 -0.924993 -1.2599 0
M  V30 7144 H 673.78 0.760478 -3.15257 0
M  V30 7145 H 673.565 -0.88358 -3.82015 0
M  V30 7146 H 675.055 0.0405162 -4.1758 0
M  V30 7147 N 675.492 1.28418 -0.913599 0
M  V30 7148 C 676.74 1.94596 -0.545594 0
M  V30 7149 C 677.061 1.7227 0.913668 0
M  V30 7150 O 676.331 1.06233 1.64595 0
M  V30 7151 H 674.911 0.720065 -0.198783 0
M  V30 7152 H 677.573 1.56404 -1.16292 0
M  V30 7153 H 676.669 3.03202 -0.739911 0
M  V30 7154 N 676.97 0.677563 1.42291 0
M  V30 7155 C 677.917 0.000947061 2.308 0
M  V30 7156 C 678.887 -0.789889 1.46116 0
M  V30 7157 O 680.072 -0.761578 1.74942 0
M  V30 7158 C 677.212 -0.942387 3.31984 0
M  V30 7159 C 676.325 -0.14508 4.31756 0
M  V30 7160 C 675.46 -1.08442 5.20013 0
M  V30 7161 C 674.499 -0.278958 6.11464 0
M  V30 7162 N 673.636 -1.17115 6.92263 0
M  V30 7163 H 678.476 0.761521 2.88106 0
M  V30 7164 H 676.013 0.38727 1.41911 0
M  V30 7165 H 677.971 -1.50317 3.89179 0
M  V30 7166 H 676.601 -1.66956 2.76271 0
M  V30 7167 H 675.653 0.532368 3.76656 0
M  V30 7168 H 676.965 0.48015 4.96484 0
M  V30 7169 H 676.119 -1.71504 5.81955 0
M  V30 7170 H 674.858 -1.74353 4.55469 0
M  V30 7171 H 673.863 0.364856 5.48588 0
M  V30 7172 H 675.088 0.376099 6.78058 0
M  V30 7173 H 673.034 -1.81661 6.30345 0
M  V30 7174 H 672.951 -0.601063 7.53607 0
M  V30 7175 H 674.219 -1.78915 7.58689 0
M  V30 7176 N 678.448 -1.51871 0.421078 0
M  V30 7177 C 679.378 -2.30231 -0.389363 0
M  V30 7178 C 680.359 -1.34946 -1.03555 0
M  V30 7179 O 681.544 -1.63859 -1.04229 0
M  V30 7180 C 678.674 -3.13247 -1.49979 0
M  V30 7181 C 677.628 -4.16677 -0.977966 0
M  V30 7182 C 676.954 -4.88112 -2.1829 0
M  V30 7183 C 678.254 -5.22295 -0.0236775 0
M  V30 7184 H 679.948 -2.98229 0.264524 0
M  V30 7185 H 677.494 -1.43424 0.12866 0
M  V30 7186 H 679.447 -3.66838 -2.07383 0
M  V30 7187 H 678.171 -2.4304 -2.18173 0
M  V30 7188 H 676.83 -3.64114 -0.426245 0
M  V30 7189 H 676.478 -4.14423 -2.85066 0
M  V30 7190 H 676.178 -5.58041 -1.84021 0
M  V30 7191 H 677.702 -5.44521 -2.76278 0
M  V30 7192 H 679.116 -5.71055 -0.506899 0
M  V30 7193 H 677.513 -5.99656 0.230782 0
M  V30 7194 H 678.583 -4.76131 0.917999 0
M  V30 7195 N 679.926 -0.151884 -1.56866 0
M  V30 7196 C 680.836 0.798876 -2.20579 0
M  V30 7197 C 681.852 1.268 -1.19154 0
M  V30 7198 O 683.028 1.32418 -1.51748 0
M  V30 7199 C 680.093 2.01861 -2.81874 0
M  V30 7200 C 679.154 1.59825 -3.9844 0
M  V30 7201 C 678.387 2.75984 -4.56802 0
M  V30 7202 O 678.61 3.92331 -4.14044 0
M  V30 7203 O 677.544 2.51175 -5.46987 0
M  V30 7204 H 681.37 0.2865 -3.02346 0
M  V30 7205 H 678.955 0.0753806 -1.4921 0
M  V30 7206 H 680.837 2.73235 -3.20813 0
M  V30 7207 H 679.512 2.52042 -2.03117 0
M  V30 7208 H 678.419 0.854601 -3.64208 0
M  V30 7209 H 679.752 1.14355 -4.78731 0
M  V30 7210 N 681.404 1.57128 0.121893 0
M  V30 7211 C 682.351 2.0013 1.14964 0
M  V30 7212 C 683.321 0.872959 1.4131 0
M  V30 7213 O 684.506 1.13696 1.53225 0
M  V30 7214 C 681.646 2.40824 2.4718 0
M  V30 7215 C 680.759 3.67061 2.27794 0
M  V30 7216 C 679.894 3.96749 3.53219 0
M  V30 7217 C 678.933 5.16178 3.28978 0
M  V30 7218 N 678.07 5.41751 4.46599 0
M  V30 7219 H 682.91 2.8772 0.775947 0
M  V30 7220 H 680.447 1.42328 0.371652 0
M  V30 7221 H 682.405 2.62454 3.24305 0
M  V30 7222 H 681.035 1.56279 2.82448 0
M  V30 7223 H 680.087 3.53063 1.416 0
M  V30 7224 H 681.399 4.5434 2.05857 0
M  V30 7225 H 680.553 4.19012 4.38764 0
M  V30 7226 H 679.292 3.07941 3.78185 0
M  V30 7227 H 678.297 4.93762 2.41824 0
M  V30 7228 H 679.522 6.06561 3.05386 0
M  V30 7229 H 677.468 4.55899 4.71691 0
M  V30 7230 H 677.385 6.23347 4.27756 0
M  V30 7231 H 678.653 5.68531 5.33285 0
M  V30 7232 N 682.882 -0.391992 1.52647 0
M  V30 7233 C 684.13 -1.13507 1.67214 0
M  V30 7234 C 684.451 -1.90575 0.41304 0
M  V30 7235 O 683.721 -1.87348 -0.572498 0
M  V30 7236 H 682.301 -0.422013 0.616372 0
M  V30 7237 H 684.963 -0.44502 1.89751 0
M  V30 7238 H 684.059 -1.83964 2.52118 0
M  V30 7239 N 684.36 -1.4356 -0.65026 0
M  V30 7240 C 685.588 -1.48779 -1.43779 0
M  V30 7241 C 686.003 -0.106593 -1.88499 0
M  V30 7242 O 685.36 0.883766 -1.59674 0
M  V30 7243 C 685.411 -2.43618 -2.67081 0
M  V30 7244 O 685.132 -3.76367 -2.24231 0
M  V30 7245 C 686.633 -2.5811 -3.60409 0
M  V30 7246 H 683.853 -0.50521 -0.441593 0
M  V30 7247 H 686.397 -1.88332 -0.796941 0
M  V30 7248 H 684.552 -2.07253 -3.273 0
M  V30 7249 H 684.966 -4.27394 -3.0403 0
M  V30 7250 H 686.44 -3.28539 -4.43583 0
M  V30 7251 H 686.917 -1.627 -4.07953 0
M  V30 7252 H 687.523 -2.95298 -3.0607 0
M  V30 7253 N 685.838 0.888903 -1.30139 0
M  V30 7254 C 687.087 1.63507 -1.18103 0
M  V30 7255 C 687.4 1.93808 0.264141 0
M  V30 7256 O 688.606 2.66744 0.505966 0
M  V30 7257 C 687.062 2.94673 -2.0663 0
M  V30 7258 C 686.67 2.71926 -3.56034 0
M  V30 7259 C 688.414 3.72626 -2.03346 0
M  V30 7260 C 686.321 3.98884 -4.3663 0
M  V30 7261 H 685.251 0.613426 -0.438435 0
M  V30 7262 H 687.902 0.984427 -1.54859 0
M  V30 7263 H 686.284 3.61009 -1.62754 0
M  V30 7264 H 687.458 2.14116 -4.08033 0
M  V30 7265 H 685.773 2.07353 -3.61101 0
M  V30 7266 H 688.37 4.66775 -2.60816 0
M  V30 7267 H 688.713 4.03712 -1.016 0
M  V30 7268 H 689.246 3.13147 -2.45324 0
M  V30 7269 H 685.985 3.72959 -5.39056 0
M  V30 7270 H 685.505 4.56214 -3.89396 0
M  V30 7271 H 687.184 4.66938 -4.47859 0
M  V30 7272 N 687.317 1.12792 1.10072 0
M  V30 7273 C 688.545 0.908506 1.85886 0
M  V30 7274 C 688.96 -0.542408 1.80841 0
M  V30 7275 O 688.317 -1.37517 1.1998 0
M  V30 7276 C 688.368 1.37973 3.34134 0
M  V30 7277 O 688.089 2.77378 3.39106 0
M  V30 7278 C 689.59 1.1978 4.26811 0
M  V30 7279 H 686.81 0.3244 0.587372 0
M  V30 7280 H 689.354 1.49882 1.39125 0
M  V30 7281 H 687.509 0.832566 3.78348 0
M  V30 7282 H 687.923 2.98144 4.31521 0
M  V30 7283 H 689.397 1.57635 5.29014 0
M  V30 7284 H 689.874 0.138768 4.38981 0
M  V30 7285 H 690.48 1.73266 3.88406 0
M  V30 7286 N 688.795 -1.27931 0.920396 0
M  V30 7287 C 689.727 -2.26175 0.371169 0
M  V30 7288 C 690.74 -1.55122 -0.494065 0
M  V30 7289 O 691.929 -1.75825 -0.30787 0
M  V30 7290 C 689.029 -3.35376 -0.487481 0
M  V30 7291 C 688.202 -4.35943 0.356772 0
M  V30 7292 C 687.261 -5.24374 -0.438042 0
M  V30 7293 O 686.287 -5.68998 0.151715 0
M  V30 7294 N 687.489 -5.53823 -1.73956 0
M  V30 7295 H 690.254 -2.73938 1.21564 0
M  V30 7296 H 687.815 -1.41482 0.787047 0
M  V30 7297 H 689.807 -3.91476 -1.02609 0
M  V30 7298 H 688.377 -2.87269 -1.23269 0
M  V30 7299 H 687.597 -3.7921 1.07672 0
M  V30 7300 H 688.885 -5.0015 0.934206 0
M  V30 7301 H 688.283 -5.19413 -2.24114 0
M  V30 7302 H 686.84 -6.12653 -2.22486 0
M  V30 7303 N 690.273 -0.685099 -1.4193 0
M  V30 7304 C 691.221 -0.00165985 -2.326 0
M  V30 7305 C 692.215 0.779678 -1.50391 0
M  V30 7306 O 693.421 0.68648 -1.66395 0
M  V30 7307 H 689.796 0.0182616 -0.751778 0
M  V30 7308 H 691.767 -0.783592 -2.87928 0
M  V30 7309 C 690.516 0.928385 -3.35077 0
M  V30 7310 H 689.839 0.336578 -3.98381 0
M  V30 7311 H 691.279 1.37509 -4.01083 0
M  V30 7312 C 689.738 2.03964 -2.68142 0
M  V30 7313 O 690.268 3.12727 -2.5212 0
M  V30 7314 N 688.474 1.81433 -2.27003 0
M  V30 7315 H 688.021 0.929807 -2.40234 0
M  V30 7316 H 687.979 2.55973 -1.82552 0
M  V30 7317 N 691.751 1.51645 -0.429126 0
M  V30 7318 C 692.661 2.31288 0.392809 0
M  V30 7319 C 693.677 1.39852 1.03525 0
M  V30 7320 O 694.853 1.72926 1.03241 0
M  V30 7321 C 691.918 3.13347 1.48372 0
M  V30 7322 C 690.979 4.20551 0.862268 0
M  V30 7323 C 690.212 4.98688 1.9012 0
M  V30 7324 O 690.435 4.77359 3.12225 0
M  V30 7325 O 689.369 5.83005 1.4963 0
M  V30 7326 H 693.195 3.02609 -0.257138 0
M  V30 7327 H 690.78 1.48163 -0.191851 0
M  V30 7328 H 692.662 3.64387 2.1166 0
M  V30 7329 H 691.337 2.44799 2.1179 0
M  V30 7330 H 690.244 3.73609 0.191568 0
M  V30 7331 H 691.577 4.91449 0.271704 0
M  V30 7332 N 693.229 0.160201 1.56784 0
M  V30 7333 C 694.645 -0.196089 1.58391 0
M  V30 7334 C 694.845 -1.63689 1.17508 0
M  V30 7335 O 693.901 -2.36613 0.881506 0
M  V30 7336 C 695.214 0.0746449 3.00607 0
M  V30 7337 C 696.762 0.0119762 3.12998 0
M  V30 7338 C 697.237 0.255551 4.57286 0
M  V30 7339 N 698.728 0.202938 4.62755 0
M  V30 7340 C 699.463 0.365731 5.72232 0
M  V30 7341 N 698.959 0.586972 6.90309 0
M  V30 7342 N 700.752 0.302411 5.61286 0
M  V30 7343 H 692.903 1.1008 1.81648 0
M  V30 7344 H 695.166 0.436779 0.841384 0
M  V30 7345 H 694.872 1.07231 3.34954 0
M  V30 7346 H 694.746 -0.638802 3.71751 0
M  V30 7347 H 697.133 -0.976254 2.78484 0
M  V30 7348 H 697.214 0.75796 2.44313 0
M  V30 7349 H 696.858 1.24094 4.92507 0
M  V30 7350 H 696.788 -0.510912 5.24116 0
M  V30 7351 H 699.279 0.0371328 3.77882 0
M  V30 7352 H 699.592 0.700941 7.69615 0
M  V30 7353 H 697.937 0.623453 6.92198 0
M  V30 7354 H 701.128 0.130238 4.67919 0
M  V30 7355 H 701.301 0.432712 6.46554 0
M  V30 7356 N 694.707 -1.5719 -0.113559 0
M  V30 7357 C 696.123 -1.52607 -0.467253 0
M  V30 7358 C 696.323 -0.874058 -1.81556 0
M  V30 7359 O 695.379 -0.458703 -2.48299 0
M  V30 7360 C 696.692 -2.97363 -0.446736 0
M  V30 7361 C 698.24 -3.08482 -0.529903 0
M  V30 7362 C 698.715 -4.54809 -0.539721 0
M  V30 7363 N 700.206 -4.59284 -0.601005 0
M  V30 7364 C 700.941 -5.69927 -0.630138 0
M  V30 7365 N 700.437 -6.90051 -0.616589 0
M  V30 7366 N 702.23 -5.5805 -0.673558 0
M  V30 7367 H 694.381 -1.97958 0.769819 0
M  V30 7368 H 696.644 -0.90428 0.284572 0
M  V30 7369 H 696.35 -3.48458 0.47643 0
M  V30 7370 H 696.224 -3.55086 -1.27254 0
M  V30 7371 H 698.611 -2.57386 -1.44349 0
M  V30 7372 H 698.692 -2.53744 0.323695 0
M  V30 7373 H 698.336 -5.06552 0.369843 0
M  V30 7374 H 698.266 -5.07364 -1.41028 0
M  V30 7375 H 700.757 -3.72822 -0.617419 0
M  V30 7376 H 701.07 -7.70132 -0.641592 0
M  V30 7377 H 699.415 -6.92543 -0.583927 0
M  V30 7378 H 702.606 -4.63112 -0.681544 0
M  V30 7379 H 702.779 -6.44286 -0.692794 0
M  V30 7380 N 696.185 0.383891 -1.52853 0
M  V30 7381 C 697.41 1.154 -1.7233 0
M  V30 7382 C 697.835 1.82809 -0.44298 0
M  V30 7383 O 697.193 1.71026 0.601645 0
M  V30 7384 C 697.241 2.17386 -2.87708 0
M  V30 7385 O 696.345 3.24082 -2.55038 0
M  V30 7386 H 695.686 0.335709 -0.572883 0
M  V30 7387 H 698.216 0.44662 -1.99666 0
M  V30 7388 H 698.226 2.61296 -3.1335 0
M  V30 7389 H 696.901 1.6771 -3.80587 0
M  V30 7390 H 695.478 2.85273 -2.40153 0
M  V30 7391 N 697.663 1.43903 0.642637 0
M  V30 7392 C 698.909 1.46296 1.40447 0
M  V30 7393 C 699.242 0.0908361 1.93987 0
M  V30 7394 O 698.517 -0.889884 1.72949 0
M  V30 7395 C 698.8 2.51399 2.57819 0
M  V30 7396 C 698.653 3.97926 2.09702 0
M  V30 7397 C 699.972 2.53125 3.60022 0
M  V30 7398 H 697.091 0.532676 0.509338 0
M  V30 7399 H 699.733 1.75515 0.727635 0
M  V30 7400 H 697.883 2.26614 3.1556 0
M  V30 7401 H 699.555 4.33804 1.5688 0
M  V30 7402 H 697.798 4.10252 1.40982 0
M  V30 7403 H 698.469 4.67096 2.94152 0
M  V30 7404 H 700.945 2.75242 3.12059 0
M  V30 7405 H 699.821 3.28589 4.39682 0
M  V30 7406 H 700.082 1.56895 4.13324 0
M  V30 7407 N 699.141 -0.881989 1.30609 0
M  V30 7408 C 700.369 -1.66711 1.22536 0
M  V30 7409 C 700.784 -1.87614 -0.2113 0
M  V30 7410 O 700.141 -1.42576 -1.13923 0
M  V30 7411 C 700.192 -3.04182 1.95335 0
M  V30 7412 O 699.913 -2.8422 3.33393 0
M  V30 7413 C 701.414 -3.98617 1.93956 0
M  V30 7414 H 698.634 -0.520124 0.423925 0
M  V30 7415 H 701.178 -1.10174 1.72285 0
M  V30 7416 H 699.333 -3.57442 1.49378 0
M  V30 7417 H 699.747 -3.71452 3.70302 0
M  V30 7418 H 701.221 -4.92433 2.49426 0
M  V30 7419 H 701.698 -4.29473 0.919198 0
M  V30 7420 H 702.304 -3.51292 2.39738 0
M  V30 7421 N 700.619 -1.13374 -1.09472 0
M  V30 7422 C 701.566 -0.810682 -2.16094 0
M  V30 7423 C 702.536 0.227003 -1.64541 0
M  V30 7424 O 703.721 0.0993538 -1.90541 0
M  V30 7425 C 700.861 -0.282336 -3.43943 0
M  V30 7426 C 699.974 -1.37902 -4.09398 0
M  V30 7427 C 699.109 -0.809066 -5.25002 0
M  V30 7428 C 698.148 -1.88419 -5.82379 0
M  V30 7429 N 697.285 -1.33221 -6.89345 0
M  V30 7430 H 702.125 -1.72397 -2.43071 0
M  V30 7431 H 699.662 -0.860564 -1.19301 0
M  V30 7432 H 701.62 0.0421189 -4.17179 0
M  V30 7433 H 700.25 0.594083 -3.17286 0
M  V30 7434 H 699.302 -1.82008 -3.34032 0
M  V30 7435 H 700.614 -2.19161 -4.48074 0
M  V30 7436 H 699.768 -0.435867 -6.05132 0
M  V30 7437 H 698.507 0.0346058 -4.87688 0
M  V30 7438 H 697.512 -2.26646 -5.00911 0
M  V30 7439 H 698.737 -2.73125 -6.21755 0
M  V30 7440 H 696.683 -0.510535 -6.5401 0
M  V30 7441 H 696.6 -2.08129 -7.26786 0
M  V30 7442 H 697.868 -0.986565 -7.73232 0
M  V30 7443 N 702.098 1.27442 -0.927168 0
M  V30 7444 C 703.028 2.29256 -0.443188 0
M  V30 7445 C 704.009 1.62701 0.49624 0
M  V30 7446 O 705.194 1.90013 0.401105 0
M  V30 7447 C 702.324 3.45955 0.305366 0
M  V30 7448 C 701.278 4.24501 -0.546178 0
M  V30 7449 C 700.604 5.33671 0.331512 0
M  V30 7450 C 701.904 4.89921 -1.81037 0
M  V30 7451 H 703.598 2.69988 -1.29409 0
M  V30 7452 H 701.144 1.29792 -0.623705 0
M  V30 7453 H 703.097 4.1628 0.654885 0
M  V30 7454 H 701.821 3.04138 1.19029 0
M  V30 7455 H 700.48 3.55921 -0.878398 0
M  V30 7456 H 700.128 4.88096 1.21537 0
M  V30 7457 H 699.828 5.87131 -0.234746 0
M  V30 7458 H 701.352 6.0684 0.676614 0
M  V30 7459 H 702.766 5.52536 -1.52895 0
M  V30 7460 H 701.163 5.53436 -2.32009 0
M  V30 7461 H 702.233 4.13652 -2.53021 0
M  V30 7462 N 703.576 0.692616 1.41565 0
M  V30 7463 C 704.506 0.0397325 2.33466 0
M  V30 7464 C 705.487 -0.770334 1.51657 0
M  V30 7465 O 706.672 -0.723903 1.80203 0
M  V30 7466 C 703.802 -0.899495 3.3545 0
M  V30 7467 C 702.756 -0.196738 4.27548 0
M  V30 7468 C 702.082 -1.25012 5.19881 0
M  V30 7469 C 703.382 0.935158 5.1386 0
M  V30 7470 H 705.076 0.807296 2.88311 0
M  V30 7471 H 702.622 0.389665 1.38628 0
M  V30 7472 H 704.575 -1.36545 3.98665 0
M  V30 7473 H 703.299 -1.69869 2.78948 0
M  V30 7474 H 701.958 0.249158 3.65752 0
M  V30 7475 H 701.606 -2.04177 4.59696 0
M  V30 7476 H 701.306 -0.784931 5.82334 0
M  V30 7477 H 702.83 -1.71665 5.85972 0
M  V30 7478 H 704.244 0.549619 5.70659 0
M  V30 7479 H 702.641 1.32726 5.85238 0
M  V30 7480 H 703.711 1.77613 4.512 0
M  V30 7481 N 705.054 -1.51416 0.437162 0
M  V30 7482 C 705.964 -2.31493 -0.380537 0
M  V30 7483 C 706.98 -1.40399 -1.02782 0
M  V30 7484 O 708.156 -1.73471 -1.02323 0
M  V30 7485 C 705.221 -3.1413 -1.46709 0
M  V30 7486 C 704.282 -4.21003 -0.839953 0
M  V30 7487 C 703.515 -4.9969 -1.87473 0
M  V30 7488 O 703.738 -4.79008 -3.09689 0
M  V30 7489 O 702.672 -5.8379 -1.46536 0
M  V30 7490 H 706.498 -3.02469 0.273183 0
M  V30 7491 H 704.083 -1.48059 0.199706 0
M  V30 7492 H 705.965 -3.65505 -2.09724 0
M  V30 7493 H 704.64 -2.45919 -2.10489 0
M  V30 7494 H 703.547 -3.73706 -0.171752 0
M  V30 7495 H 704.88 -4.91587 -0.245638 0
M  V30 7496 N 706.532 -0.168513 -1.56696 0
M  V30 7497 C 707.809 0.523367 -1.88468 0
M  V30 7498 C 708.189 1.81503 -1.07796 0
M  V30 7499 O 707.537 2.27859 -0.171045 0
M  V30 7500 C 707.747 0.767991 -3.40445 0
M  V30 7501 C 709.095 1.09924 -4.10124 0
M  V30 7502 O 710.119 0.856625 -3.45746 0
M  V30 7503 O 708.978 1.55681 -5.23856 0
M  V30 7504 H 706.072 0.269447 -0.781874 0
M  V30 7505 H 708.618 -0.206739 -1.68436 0
M  V30 7506 H 707.39 -0.145254 -3.9103 0
M  V30 7507 H 707.013 1.55151 -3.66079 0
M  V30 7508 N 708.01 1.57248 0.105221 0
M  V30 7509 C 708.94 2.04374 1.12931 0
M  V30 7510 C 709.921 0.93074 1.42377 0
M  V30 7511 O 711.106 1.20136 1.52581 0
M  V30 7512 C 708.236 2.45967 2.45189 0
M  V30 7513 C 707.19 3.60838 2.30174 0
M  V30 7514 C 706.516 3.88374 3.67518 0
M  V30 7515 C 707.816 4.92084 1.75073 0
M  V30 7516 H 709.51 2.9018 0.737287 0
M  V30 7517 H 707.056 1.39601 0.353211 0
M  V30 7518 H 709.009 2.77542 3.17094 0
M  V30 7519 H 707.733 1.57148 2.86308 0
M  V30 7520 H 706.392 3.29493 1.60716 0
M  V30 7521 H 706.04 2.96739 4.06147 0
M  V30 7522 H 705.74 4.65703 3.58321 0
M  V30 7523 H 707.264 4.22415 4.40906 0
M  V30 7524 H 708.678 5.22106 2.36809 0
M  V30 7525 H 707.075 5.73507 1.76662 0
M  V30 7526 H 708.145 4.79684 0.709347 0
M  V30 7527 N 709.488 -0.375779 1.53054 0
M  V30 7528 C 710.734 -1.12114 1.68992 0
M  V30 7529 C 711.067 -1.8926 0.435238 0
M  V30 7530 O 710.342 -1.86044 -0.567278 0
M  V30 7531 C 710.625 -2.08867 2.93337 0
M  V30 7532 C 710.478 -1.35397 4.28938 0
M  V30 7533 C 711.797 -3.09124 3.13257 0
M  V30 7534 H 708.916 -0.406207 0.614951 0
M  V30 7535 H 711.558 -0.403054 1.85676 0
M  V30 7536 H 709.708 -2.70102 2.79244 0
M  V30 7537 H 711.38 -0.770242 4.54824 0
M  V30 7538 H 709.623 -0.655801 4.28814 0
M  V30 7539 H 710.294 -2.06161 5.12056 0
M  V30 7540 H 712.77 -2.57987 3.26469 0
M  V30 7541 H 711.646 -3.74054 4.01715 0
M  V30 7542 H 711.907 -3.78729 2.28072 0
M  V30 7543 N 710.966 -1.44241 -0.634997 0
M  V30 7544 C 712.196 -1.50078 -1.41987 0
M  V30 7545 C 712.604 -0.123072 -1.88799 0
M  V30 7546 O 711.947 0.880552 -1.6122 0
M  V30 7547 C 712.009 -2.40033 -2.67628 0
M  V30 7548 C 711.673 -3.87268 -2.42637 0
M  V30 7549 C 712.67 -4.77902 -2.04708 0
M  V30 7550 C 710.355 -4.31933 -2.56396 0
M  V30 7551 C 712.349 -6.11202 -1.80862 0
M  V30 7552 C 710.036 -5.65281 -2.32164 0
M  V30 7553 C 711.034 -6.54734 -1.94455 0
M  V30 7554 O 710.722 -7.85613 -1.7049 0
M  V30 7555 H 710.454 -0.51146 -0.442023 0
M  V30 7556 H 713.008 -1.89843 -0.784138 0
M  V30 7557 H 711.238 -1.95188 -3.33824 0
M  V30 7558 H 712.927 -2.36863 -3.29622 0
M  V30 7559 H 713.693 -4.44668 -1.93638 0
M  V30 7560 H 709.572 -3.62569 -2.84719 0
M  V30 7561 H 713.116 -6.80983 -1.51353 0
M  V30 7562 H 709.013 -5.98078 -2.42843 0
M  V30 7563 H 709.781 -7.97373 -1.84767 0
M  V30 7564 N 712.444 0.87505 -1.31075 0
M  V30 7565 C 713.691 1.62768 -1.20469 0
M  V30 7566 C 714.019 1.93034 0.23834 0
M  V30 7567 O 713.274 1.55693 1.18567 0
M  V30 7568 C 713.573 2.96948 -1.98888 0
M  V30 7569 C 713.239 2.86195 -3.4843 0
M  V30 7570 C 711.901 2.82969 -3.89207 0
M  V30 7571 C 714.253 2.73599 -4.43614 0
M  V30 7572 C 711.581 2.64999 -5.23443 0
M  V30 7573 C 713.933 2.57166 -5.77969 0
M  V30 7574 C 712.597 2.52321 -6.17973 0
M  V30 7575 H 711.867 0.595611 -0.440827 0
M  V30 7576 H 714.514 1.01665 -1.62285 0
M  V30 7577 H 712.819 3.62058 -1.49737 0
M  V30 7578 H 714.516 3.54164 -1.88067 0
M  V30 7579 H 711.106 2.8952 -3.16032 0
M  V30 7580 H 715.29 2.7515 -4.13045 0
M  V30 7581 H 710.546 2.5967 -5.53517 0
M  V30 7582 H 714.72 2.46396 -6.51354 0
M  V30 7583 H 712.347 2.38156 -7.21932 0
M  V30 7584 N 713.922 1.13953 1.08869 0
M  V30 7585 C 715.168 0.906151 1.8143 0
M  V30 7586 C 715.501 -0.566089 1.85766 0
M  V30 7587 O 714.776 -1.41915 1.33006 0
M  V30 7588 C 715.059 1.50183 3.27287 0
M  V30 7589 C 714.912 3.04359 3.31189 0
M  V30 7590 C 716.231 1.17477 4.24131 0
M  V30 7591 H 713.35 0.330624 0.658678 0
M  V30 7592 H 715.992 1.40873 1.27495 0
M  V30 7593 H 714.142 1.07442 3.73348 0
M  V30 7594 H 715.814 3.55896 2.93488 0
M  V30 7595 H 714.057 3.39053 2.70602 0
M  V30 7596 H 714.728 3.41141 4.33966 0
M  V30 7597 H 717.204 1.5442 3.86385 0
M  V30 7598 H 716.08 1.61795 5.24513 0
M  V30 7599 H 716.341 0.0893312 4.4201 0
M  V30 7600 N 715.4 -1.26948 0.933913 0
M  V30 7601 C 716.628 -1.98186 0.59414 0
M  V30 7602 C 717.043 -1.69614 -0.829257 0
M  V30 7603 O 716.4 -0.960213 -1.55197 0
M  V30 7604 C 716.451 -3.52123 0.818026 0
M  V30 7605 O 716.172 -3.79698 2.18543 0
M  V30 7606 C 717.673 -4.40608 0.48781 0
M  V30 7607 H 714.893 -0.632305 0.224569 0
M  V30 7608 H 717.437 -1.61646 1.25263 0
M  V30 7609 H 715.592 -3.86851 0.206246 0
M  V30 7610 H 716.006 -4.7426 2.24005 0
M  V30 7611 H 717.48 -5.47606 0.695126 0
M  V30 7612 H 717.957 -4.35394 -0.576913 0
M  V30 7613 H 718.563 -4.11411 1.078 0
M  V30 7614 N 716.879 -0.700114 -1.41195 0
M  V30 7615 C 718.127 -0.232546 -2.00758 0
M  V30 7616 C 718.448 1.1734 -1.55745 0
M  V30 7617 O 717.718 1.79262 -0.790058 0
M  V30 7618 H 716.298 -0.0829845 -0.742376 0
M  V30 7619 H 718.96 -0.902289 -1.72756 0
M  V30 7620 H 718.056 -0.253521 -3.11069 0
M  V30 7621 N 718.357 1.51182 -0.445186 0
M  V30 7622 C 719.605 2.01753 0.11841 0
M  V30 7623 C 719.926 1.33087 1.42523 0
M  V30 7624 O 719.196 0.467891 1.9023 0
M  V30 7625 H 717.776 0.745536 0.0467492 0
M  V30 7626 H 720.438 1.85765 -0.589688 0
M  V30 7627 H 719.534 3.10762 0.288665 0
M  V30 7628 N 719.835 0.176821 1.56605 0
M  V30 7629 C 721.063 -0.472828 2.01425 0
M  V30 7630 C 721.478 -1.56436 1.05703 0
M  V30 7631 O 720.835 -1.82405 0.058808 0
M  V30 7632 C 720.886 -1.04607 3.46034 0
M  V30 7633 O 720.607 0.00189608 4.381 0
M  V30 7634 C 722.108 -1.7734 4.06282 0
M  V30 7635 H 719.328 -0.120503 0.660091 0
M  V30 7636 H 721.872 0.280166 2.02572 0
M  V30 7637 H 720.027 -1.74953 3.45645 0
M  V30 7638 H 720.441 -0.422118 5.22799 0
M  V30 7639 H 721.915 -2.12703 5.09374 0
M  V30 7640 H 722.392 -2.67043 3.4869 0
M  V30 7641 H 722.998 -1.11623 4.10391 0
M  V30 7642 N 721.313 -1.57302 -0.09688 0
M  V30 7643 C 722.261 -2.02942 -1.13654 0
M  V30 7644 C 723.255 -0.930173 -1.41577 0
M  V30 7645 O 724.461 -1.11535 -1.41279 0
M  V30 7646 H 720.836 -0.646726 -0.383731 0
M  V30 7647 H 722.807 -2.89452 -0.725267 0
M  V30 7648 C 721.556 -2.46815 -2.44903 0
M  V30 7649 H 720.879 -3.30979 -2.24261 0
M  V30 7650 H 722.319 -2.82527 -3.16156 0
M  V30 7651 C 720.778 -1.34071 -3.09074 0
M  V30 7652 O 721.308 -0.668856 -3.96092 0
M  V30 7653 N 719.514 -1.09214 -2.69296 0
M  V30 7654 H 719.061 -1.64029 -1.98626 0
M  V30 7655 H 719.019 -0.339785 -3.12559 0
M  V30 7656 N 722.791 0.367657 -1.53252 0
M  V30 7657 C 724.016 1.13566 -1.73544 0
M  V30 7658 C 724.441 1.82329 -0.462344 0
M  V30 7659 O 723.799 1.71655 0.583472 0
M  V30 7660 C 723.847 2.14322 -2.89997 0
M  V30 7661 O 722.951 3.21359 -2.58461 0
M  V30 7662 H 722.292 0.329614 -0.576412 0
M  V30 7663 H 724.822 0.425417 -2.00128 0
M  V30 7664 H 724.832 2.57958 -3.16104 0
M  V30 7665 H 723.507 1.63664 -3.82344 0
M  V30 7666 H 722.084 2.8271 -2.43165 0
M  V30 7667 N 724.269 1.44576 0.627338 0
M  V30 7668 C 725.517 1.47267 1.38408 0
M  V30 7669 C 725.838 0.107971 1.94701 0
M  V30 7670 O 725.108 -0.860206 1.76004 0
M  V30 7671 H 723.688 0.542276 0.513756 0
M  V30 7672 H 726.35 1.80383 0.738099 0
M  V30 7673 H 725.446 2.20025 2.21349 0
M  V30 7674 N 725.747 -0.868086 1.31537 0
M  V30 7675 C 726.679 -1.98165 1.15166 0
M  V30 7676 C 727.692 -1.6255 0.0902335 0
M  V30 7677 O 728.881 -1.75272 0.33791 0
M  V30 7678 C 725.981 -3.30772 0.737776 0
M  V30 7679 C 725.154 -3.94716 1.88462 0
M  V30 7680 C 724.213 -5.05641 1.45648 0
M  V30 7681 O 723.239 -5.2636 2.16642 0
M  V30 7682 N 724.441 -5.79474 0.34493 0
M  V30 7683 H 727.206 -2.12754 2.11083 0
M  V30 7684 H 724.767 -1.04217 1.23897 0
M  V30 7685 H 726.759 -4.02366 0.434032 0
M  V30 7686 H 725.329 -3.1233 -0.129834 0
M  V30 7687 H 724.549 -3.16079 2.35558 0
M  V30 7688 H 725.837 -4.34175 2.65273 0
M  V30 7689 H 725.235 -5.65164 -0.246259 0
M  V30 7690 H 723.792 -6.51722 0.100728 0
M  V30 7691 N 727.225 -1.14528 -1.08264 0
M  V30 7692 C 728.502 -0.825185 -1.77342 0
M  V30 7693 C 728.882 0.681037 -1.99813 0
M  V30 7694 O 728.23 1.62234 -1.60912 0
M  V30 7695 C 728.44 -1.62556 -3.08831 0
M  V30 7696 C 729.788 -1.82585 -3.83338 0
M  V30 7697 O 730.812 -1.59254 -3.18617 0
M  V30 7698 O 729.671 -2.21598 -4.99556 0
M  V30 7699 H 726.765 -0.302531 -0.769678 0
M  V30 7700 H 729.311 -1.25056 -1.14713 0
M  V30 7701 H 728.083 -2.64862 -2.88035 0
M  V30 7702 H 727.706 -1.1959 -3.79189 0
M  V30 7703 N 728.703 1.26451 -0.940633 0
M  V30 7704 C 729.949 1.94065 -0.58878 0
M  V30 7705 C 730.282 1.7363 0.869853 0
M  V30 7706 O 729.557 1.073 1.62225 0
M  V30 7707 C 729.84 3.47852 -0.931199 0
M  V30 7708 C 729.693 3.77575 -2.44453 0
M  V30 7709 C 731.012 4.37832 -0.446229 0
M  V30 7710 H 728.131 0.704827 -0.21538 0
M  V30 7711 H 730.773 1.4933 -1.17475 0
M  V30 7712 H 728.923 3.86085 -0.432539 0
M  V30 7713 H 730.595 3.49059 -3.01588 0
M  V30 7714 H 728.838 3.23671 -2.88825 0
M  V30 7715 H 729.509 4.85068 -2.63464 0
M  V30 7716 H 731.985 4.06822 -0.873778 0
M  V30 7717 H 730.861 5.44228 -0.714648 0
M  V30 7718 H 731.122 4.37239 0.653815 0
M  V30 7719 N 730.181 0.707592 1.40822 0
M  V30 7720 C 731.111 0.0644925 2.33411 0
M  V30 7721 C 732.092 -0.754205 1.52466 0
M  V30 7722 O 733.277 -0.704749 1.80961 0
M  V30 7723 C 730.407 -0.863865 3.36385 0
M  V30 7724 C 729.361 -0.15138 4.27732 0
M  V30 7725 C 728.687 -1.19491 5.21177 0
M  V30 7726 C 729.987 0.989607 5.12839 0
M  V30 7727 H 731.681 0.837829 2.87438 0
M  V30 7728 H 729.227 0.404346 1.38207 0
M  V30 7729 H 731.18 -1.32309 4.0009 0
M  V30 7730 H 729.904 -1.66901 2.80734 0
M  V30 7731 H 728.563 0.287937 3.65467 0
M  V30 7732 H 728.211 -1.9929 4.61836 0
M  V30 7733 H 727.911 -0.723123 5.83134 0
M  V30 7734 H 729.435 -1.6544 5.8776 0
M  V30 7735 H 730.849 0.610114 5.70044 0
M  V30 7736 H 729.246 1.38926 5.83798 0
M  V30 7737 H 730.316 1.82389 4.49291 0
M  V30 7738 N 731.66 -1.50943 0.453197 0
M  V30 7739 C 732.57 -2.31884 -0.355963 0
M  V30 7740 C 733.586 -1.41481 -1.01287 0
M  V30 7741 O 734.762 -1.74546 -1.00477 0
M  V30 7742 C 731.827 -3.15668 -1.43369 0
M  V30 7743 C 730.888 -4.2187 -0.795253 0
M  V30 7744 C 730.121 -5.0165 -1.82162 0
M  V30 7745 O 730.344 -4.82266 -3.04592 0
M  V30 7746 O 729.278 -5.85311 -1.40336 0
M  V30 7747 H 733.104 -3.02162 0.305248 0
M  V30 7748 H 730.689 -1.47839 0.215398 0
M  V30 7749 H 732.571 -3.67709 -2.05836 0
M  V30 7750 H 731.246 -2.48137 -2.07869 0
M  V30 7751 H 730.153 -3.73867 -0.132106 0
M  V30 7752 H 731.486 -4.9182 -0.193484 0
M  V30 7753 N 733.138 -0.185124 -1.56509 0
M  V30 7754 C 734.384 0.456934 -1.97585 0
M  V30 7755 C 734.717 1.61957 -1.07161 0
M  V30 7756 O 733.992 1.9412 -0.121546 0
M  V30 7757 C 734.275 0.926666 -3.47973 0
M  V30 7758 C 734.128 -0.237097 -4.49175 0
M  V30 7759 C 735.447 1.79561 -4.01803 0
M  V30 7760 H 732.566 0.164619 -0.71838 0
M  V30 7761 H 735.208 -0.274039 -1.88013 0
M  V30 7762 H 733.358 1.54954 -3.56261 0
M  V30 7763 H 735.03 -0.87454 -4.52934 0
M  V30 7764 H 733.273 -0.890446 -4.24563 0
M  V30 7765 H 733.944 0.133924 -5.51838 0
M  V30 7766 H 736.42 1.27039 -3.96232 0
M  V30 7767 H 735.296 2.09327 -5.07418 0
M  V30 7768 H 735.557 2.74629 -3.46455 0
M  V30 7769 N 734.616 1.57351 0.0885366 0
M  V30 7770 C 735.862 1.86696 0.791996 0
M  V30 7771 C 736.195 0.775148 1.78059 0
M  V30 7772 O 735.47 -0.216247 1.93294 0
M  V30 7773 C 735.753 3.26684 1.51491 0
M  V30 7774 C 735.606 4.465 0.543858 0
M  V30 7775 C 736.925 3.64664 2.46391 0
M  V30 7776 H 734.044 0.679049 0.286463 0
M  V30 7777 H 736.686 1.89919 0.0554866 0
M  V30 7778 H 734.836 3.24067 2.14273 0
M  V30 7779 H 736.508 4.61235 -0.0774597 0
M  V30 7780 H 734.751 4.33567 -0.142228 0
M  V30 7781 H 735.422 5.41192 1.08696 0
M  V30 7782 H 737.898 3.68267 1.93698 0
M  V30 7783 H 736.774 4.63534 2.93986 0
M  V30 7784 H 737.035 2.93698 3.30445 0
M  V30 7785 N 736.094 -0.359525 1.53444 0
M  V30 7786 C 737.341 -1.10152 1.6992 0
M  V30 7787 C 737.669 -1.89125 0.4541 0
M  V30 7788 O 736.924 -1.87396 -0.564023 0
M  V30 7789 C 737.223 -2.08287 2.90433 0
M  V30 7790 C 736.889 -1.45749 4.26694 0
M  V30 7791 C 735.551 -1.28421 4.63747 0
M  V30 7792 C 737.903 -1.00557 5.11408 0
M  V30 7793 C 735.231 -0.644951 5.83144 0
M  V30 7794 C 737.583 -0.380288 6.31456 0
M  V30 7795 C 736.247 -0.194557 6.67216 0
M  V30 7796 H 735.517 -0.403076 0.621781 0
M  V30 7797 H 738.164 -0.382612 1.87639 0
M  V30 7798 H 736.469 -2.86503 2.67251 0
M  V30 7799 H 738.166 -2.65662 3.00374 0
M  V30 7800 H 734.756 -1.6023 3.97523 0
M  V30 7801 H 738.94 -1.12735 4.83326 0
M  V30 7802 H 734.196 -0.48952 6.09437 0
M  V30 7803 H 738.37 -0.0219455 6.96397 0
M  V30 7804 H 735.997 0.30285 7.59597 0
M  V30 7805 N 737.572 -1.44907 -0.619662 0
M  V30 7806 C 738.797 -1.52021 -1.41083 0
M  V30 7807 C 739.222 -0.14976 -1.87503 0
M  V30 7808 O 738.58 0.863303 -1.59426 0
M  V30 7809 C 738.628 -2.49911 -2.59955 0
M  V30 7810 O 737.732 -2.00857 -3.60181 0
M  V30 7811 H 737.073 -0.512912 -0.421684 0
M  V30 7812 H 739.603 -1.90149 -0.755282 0
M  V30 7813 H 739.613 -2.68323 -3.07354 0
M  V30 7814 H 738.288 -3.4945 -2.25516 0
M  V30 7815 H 736.865 -1.92265 -3.19513 0
M  V30 7816 N 739.05 0.861098 -1.31996 0
M  V30 7817 C 739.997 1.96912 -1.20392 0
M  V30 7818 C 740.967 1.65869 -0.0875899 0
M  V30 7819 O 742.152 1.88992 -0.262011 0
M  V30 7820 C 739.292 3.32435 -0.926335 0
M  V30 7821 C 738.405 3.76018 -2.12684 0
M  V30 7822 C 737.54 5.00301 -1.78529 0
M  V30 7823 C 736.579 5.36357 -2.94937 0
M  V30 7824 N 735.716 6.51818 -2.60917 0
M  V30 7825 H 740.556 2.06169 -2.1517 0
M  V30 7826 H 738.093 1.00917 -1.07024 0
M  V30 7827 H 740.051 4.10478 -0.745917 0
M  V30 7828 H 738.681 3.22796 -0.0153578 0
M  V30 7829 H 737.733 2.93683 -2.41774 0
M  V30 7830 H 739.045 3.98664 -2.99781 0
M  V30 7831 H 738.199 5.86034 -1.57001 0
M  V30 7832 H 736.938 4.79578 -0.886356 0
M  V30 7833 H 735.943 4.49139 -3.17103 0
M  V30 7834 H 737.168 5.59041 -3.85552 0
M  V30 7835 H 735.114 6.32624 -1.73558 0
M  V30 7836 H 735.031 6.7445 -3.41544 0
M  V30 7837 H 736.299 7.4072 -2.42804 0
M  V30 7838 N 740.528 1.15101 1.07655 0
M  V30 7839 C 741.939 0.933848 1.61667 0
M  V30 7840 C 742.29 -0.525569 1.8903 0
M  V30 7841 O 741.415 -1.39605 1.65346 0
M  V30 7842 C 742.01 1.68876 2.93711 0
M  V30 7843 C 740.569 1.51697 3.44478 0
M  V30 7844 C 739.716 1.70633 2.18586 0
M  V30 7845 H 742.667 1.30171 0.907816 0
M  V30 7846 H 742.688 1.15645 3.625 0
M  V30 7847 H 742.2 2.7509 2.73764 0
M  V30 7848 H 740.301 0.478635 3.69513 0
M  V30 7849 H 740.414 2.29194 4.20722 0
M  V30 7850 H 738.778 1.13259 2.28132 0
M  V30 7851 H 739.561 2.78206 2.01137 0
M  V30 7852 N 742.006 -1.2595 0.947325 0
M  V30 7853 C 742.954 -2.28152 0.452687 0
M  V30 7854 C 743.948 -1.62655 -0.473239 0
M  V30 7855 O 745.154 -1.76549 -0.350774 0
M  V30 7856 H 741.529 -0.741049 0.12787 0
M  V30 7857 H 743.5 -2.67267 1.32707 0
M  V30 7858 C 742.249 -3.46719 -0.26098 0
M  V30 7859 H 741.572 -3.97345 0.442352 0
M  V30 7860 H 743.012 -4.20135 -0.571208 0
M  V30 7861 C 741.471 -3.02605 -1.48094 0
M  V30 7862 O 742.001 -3.07979 -2.57899 0
M  V30 7863 N 740.207 -2.57877 -1.33969 0
M  V30 7864 H 739.754 -2.53704 -0.446295 0
M  V30 7865 H 739.712 -2.28725 -2.15713 0
M  V30 7866 N 743.484 -0.715051 -1.40445 0
M  V30 7867 C 744.9 -0.388555 -1.54798 0
M  V30 7868 C 745.1 1.10271 -1.68649 0
M  V30 7869 O 744.156 1.88875 -1.67578 0
M  V30 7870 C 745.469 -1.15414 -2.77669 0
M  V30 7871 C 747.017 -1.14039 -2.91486 0
M  V30 7872 C 747.492 -1.88812 -4.1727 0
M  V30 7873 N 748.983 -1.85878 -4.24268 0
M  V30 7874 C 749.718 -2.40558 -5.20499 0
M  V30 7875 N 749.214 -3.03791 -6.22642 0
M  V30 7876 N 751.007 -2.30703 -5.12574 0
M  V30 7877 H 743.158 -1.68201 -1.297 0
M  V30 7878 H 745.421 -0.710915 -0.627139 0
M  V30 7879 H 745.127 -2.20853 -2.7371 0
M  V30 7880 H 745.001 -0.745412 -3.69761 0
M  V30 7881 H 747.388 -0.0941996 -2.9495 0
M  V30 7882 H 747.469 -1.58834 -2.00513 0
M  V30 7883 H 747.113 -2.93422 -4.14568 0
M  V30 7884 H 747.043 -1.41438 -5.0725 0
M  V30 7885 H 749.534 -1.39794 -3.51093 0
M  V30 7886 H 749.847 -3.43032 -6.92495 0
M  V30 7887 H 748.192 -3.07875 -6.23087 0
M  V30 7888 H 751.383 -1.80961 -4.31707 0
M  V30 7889 H 751.556 -2.73618 -5.87398 0
M  V30 7890 N 744.962 1.50701 -0.461195 0
M  V30 7891 C 745.872 2.32069 0.343661 0
M  V30 7892 C 746.888 1.42016 1.00535 0
M  V30 7893 O 748.064 1.75077 0.995498 0
M  V30 7894 C 745.129 3.16424 1.41692 0
M  V30 7895 C 744.19 4.22286 0.772869 0
M  V30 7896 C 743.423 5.02609 1.79499 0
M  V30 7897 O 743.646 4.83874 3.0203 0
M  V30 7898 O 742.58 5.86047 1.3723 0
M  V30 7899 H 746.406 3.01996 -0.321268 0
M  V30 7900 H 743.991 1.47723 -0.223235 0
M  V30 7901 H 745.873 3.68795 2.03883 0
M  V30 7902 H 744.548 2.49236 2.0655 0
M  V30 7903 H 743.455 3.73931 0.112277 0
M  V30 7904 H 744.788 4.91915 0.167399 0
M  V30 7905 N 746.441 0.193421 1.56409 0
M  V30 7906 C 747.857 -0.162447 1.58771 0
M  V30 7907 C 748.057 -1.6116 1.20954 0
M  V30 7908 O 747.113 -2.3469 0.931497 0
M  V30 7909 C 748.426 0.138391 3.00381 0
M  V30 7910 C 749.974 0.0783649 3.12902 0
M  V30 7911 C 750.449 0.352491 4.56642 0
M  V30 7912 N 751.94 0.30105 4.62221 0
M  V30 7913 C 752.675 0.487028 5.71328 0
M  V30 7914 N 752.171 0.733265 6.88909 0
M  V30 7915 N 753.964 0.4214 5.60518 0
M  V30 7916 H 746.115 1.13909 1.79272 0
M  V30 7917 H 748.378 0.454528 0.83193 0
M  V30 7918 H 748.084 1.14312 3.32604 0
M  V30 7919 H 747.958 -0.559804 3.73023 0
M  V30 7920 H 750.345 -0.916963 2.80492 0
M  V30 7921 H 750.426 0.809611 2.4265 0
M  V30 7922 H 750.07 1.34513 4.89764 0
M  V30 7923 H 750 -0.399624 5.25081 0
M  V30 7924 H 752.491 0.117279 3.77718 0
M  V30 7925 H 752.804 0.86403 7.67955 0
M  V30 7926 H 751.149 0.770138 6.9072 0
M  V30 7927 H 754.34 0.229461 4.67537 0
M  V30 7928 H 754.513 0.569758 6.4549 0
M  V30 7929 N 747.919 -1.57396 -0.0801906 0
M  V30 7930 C 748.851 -1.9982 -1.12271 0
M  V30 7931 C 749.864 -0.902902 -1.35468 0
M  V30 7932 O 751.053 -1.18088 -1.33856 0
M  V30 7933 C 748.153 -2.31476 -2.47532 0
M  V30 7934 C 747.326 -3.62745 -2.44407 0
M  V30 7935 C 746.385 -3.82168 -3.6171 0
M  V30 7936 O 745.411 -4.53852 -3.43522 0
M  V30 7937 N 746.613 -3.2388 -4.81749 0
M  V30 7938 H 749.378 -2.89864 -0.761501 0
M  V30 7939 H 746.939 -1.5965 -0.268965 0
M  V30 7940 H 748.931 -2.4165 -3.24634 0
M  V30 7941 H 747.501 -1.47364 -2.75686 0
M  V30 7942 H 746.721 -3.63403 -1.52747 0
M  V30 7943 H 748.009 -4.48954 -2.39412 0
M  V30 7944 H 747.407 -2.6568 -4.9943 0
M  V30 7945 H 745.964 -3.39515 -5.56392 0
M  V30 7946 N 749.397 0.351382 -1.53633 0
M  V30 7947 C 750.344 1.43115 -1.81071 0
M  V30 7948 C 751.314 1.52601 -0.655913 0
M  V30 7949 O 752.499 1.68264 -0.89955 0
M  V30 7950 C 749.639 2.79874 -2.01903 0
M  V30 7951 C 748.752 2.79242 -3.29618 0
M  V30 7952 C 747.887 4.07667 -3.40559 0
M  V30 7953 C 746.926 4.01233 -4.62254 0
M  V30 7954 N 746.063 5.21334 -4.70271 0
M  V30 7955 H 750.903 1.19017 -2.73201 0
M  V30 7956 H 748.44 0.576691 -1.35324 0
M  V30 7957 H 750.398 3.5934 -2.11969 0
M  V30 7958 H 749.028 3.0234 -1.13094 0
M  V30 7959 H 748.08 1.91927 -3.28433 0
M  V30 7960 H 749.392 2.70363 -4.19172 0
M  V30 7961 H 748.546 4.95555 -3.50015 0
M  V30 7962 H 747.285 4.19317 -2.49047 0
M  V30 7963 H 746.29 3.11732 -4.52884 0
M  V30 7964 H 747.515 3.91173 -5.55122 0
M  V30 7965 H 745.461 5.33543 -3.81665 0
M  V30 7966 H 745.378 5.14681 -5.5375 0
M  V30 7967 H 746.646 6.11014 -4.84027 0
M  V30 7968 N 750.875 1.45233 0.611969 0
M  V30 7969 C 751.805 1.5641 1.73373 0
M  V30 7970 C 752.786 0.415896 1.64937 0
M  V30 7971 O 753.971 0.638478 1.83404 0
M  V30 7972 C 751.101 1.52627 3.11965 0
M  V30 7973 C 750.055 2.66119 3.35208 0
M  V30 7974 C 749.381 2.4739 4.74028 0
M  V30 7975 C 750.681 4.08157 3.25891 0
M  V30 7976 H 752.375 2.50307 1.64277 0
M  V30 7977 H 749.921 1.20467 0.788904 0
M  V30 7978 H 751.874 1.59043 3.90235 0
M  V30 7979 H 750.598 0.552564 3.21892 0
M  V30 7980 H 749.257 2.59123 2.59327 0
M  V30 7981 H 748.905 1.48168 4.80682 0
M  V30 7982 H 748.605 3.23494 4.90536 0
M  V30 7983 H 750.129 2.55653 5.54503 0
M  V30 7984 H 751.543 4.1642 3.9404 0
M  V30 7985 H 749.94 4.84617 3.5393 0
M  V30 7986 H 751.01 4.30374 2.23397 0
M  V30 7987 N 752.353 -0.854086 1.3245 0
M  V30 7988 C 753.286 -1.96654 1.15768 0
M  V30 7989 C 754.264 -1.625 0.0569975 0
M  V30 7990 O 755.448 -1.87254 0.216412 0
M  V30 7991 C 752.575 -3.29776 0.772361 0
M  V30 7992 C 751.621 -3.82909 1.87837 0
M  V30 7993 S 752.454 -4.0643 3.48675 0
M  V30 7994 C 753.61 -5.42526 3.12116 0
M  V30 7995 H 753.843 -2.10504 2.09942 0
M  V30 7996 H 751.376 -1.00612 1.17118 0
M  V30 7997 H 753.334 -4.06706 0.556809 0
M  V30 7998 H 751.995 -3.13739 -0.150519 0
M  V30 7999 H 751.188 -4.79192 1.56177 0
M  V30 8000 H 750.79 -3.12825 2.0498 0
M  V30 8001 H 753.082 -6.24792 2.61996 0
M  V30 8002 H 754.025 -5.79148 4.07422 0
M  V30 8003 H 754.433 -5.06556 2.49121 0
M  V30 8004 N 753.831 -1.1567 -1.07043 0
M  V30 8005 C 755.247 -0.900006 -1.31803 0
M  V30 8006 C 755.447 0.451293 -1.96381 0
M  V30 8007 O 754.503 1.19252 -2.22565 0
M  V30 8008 C 755.816 -2.04334 -2.20609 0
M  V30 8009 C 757.364 -2.07823 -2.34048 0
M  V30 8010 C 757.839 -3.21488 -3.26204 0
M  V30 8011 N 759.33 -3.21156 -3.33786 0
M  V30 8012 C 760.065 -4.05746 -4.05163 0
M  V30 8013 N 759.561 -5.00407 -4.79129 0
M  V30 8014 N 761.354 -3.93759 -4.01136 0
M  V30 8015 H 753.505 -2.02681 -0.635146 0
M  V30 8016 H 755.768 -0.883956 -0.342528 0
M  V30 8017 H 755.474 -3.01895 -1.80423 0
M  V30 8018 H 755.348 -1.97838 -3.21154 0
M  V30 8019 H 757.735 -1.1086 -2.73485 0
M  V30 8020 H 757.816 -2.18386 -1.33197 0
M  V30 8021 H 757.46 -4.18706 -2.87485 0
M  V30 8022 H 757.39 -3.08162 -4.27017 0
M  V30 8023 H 759.881 -2.52606 -2.81067 0
M  V30 8024 H 760.194 -5.61387 -5.31097 0
M  V30 8025 H 758.539 -5.04393 -4.78135 0
M  V30 8026 H 761.73 -3.19115 -3.42466 0
M  V30 8027 H 761.903 -4.59906 -4.56498 0
M  V30 8028 N 755.309 1.25446 -0.953992 0
M  V30 8029 C 756.219 2.29632 -0.480264 0
M  V30 8030 C 757.235 1.68025 0.452071 0
M  V30 8031 O 758.411 1.98703 0.328472 0
M  V30 8032 C 755.476 3.45903 0.234974 0
M  V30 8033 C 754.537 4.22953 -0.735495 0
M  V30 8034 C 753.77 5.33672 -0.0542957 0
M  V30 8035 O 753.993 5.58477 1.16018 0
M  V30 8036 O 752.927 5.9734 -0.739509 0
M  V30 8037 H 756.753 2.72242 -1.34602 0
M  V30 8038 H 754.338 1.30883 -0.720419 0
M  V30 8039 H 756.22 4.16552 0.637341 0
M  V30 8040 H 754.895 3.05296 1.07592 0
M  V30 8041 H 753.802 3.54734 -1.18806 0
M  V30 8042 H 755.135 4.67341 -1.54444 0
M  V30 8043 N 756.787 0.722489 1.40064 0
M  V30 8044 C 757.719 0.0349057 2.29173 0
M  V30 8045 C 758.732 -0.716571 1.46182 0
M  V30 8046 O 759.921 -0.562806 1.69395 0
M  V30 8047 C 757.021 -0.974839 3.24577 0
M  V30 8048 C 756.194 -0.287471 4.36454 0
M  V30 8049 C 755.253 -1.20356 5.12251 0
M  V30 8050 O 754.279 -0.685753 5.65054 0
M  V30 8051 N 755.481 -2.53422 5.22262 0
M  V30 8052 H 758.246 0.800058 2.88824 0
M  V30 8053 H 755.807 0.57068 1.51509 0
M  V30 8054 H 757.799 -1.59002 3.72157 0
M  V30 8055 H 756.369 -1.6413 2.66046 0
M  V30 8056 H 755.589 0.508008 3.90913 0
M  V30 8057 H 756.877 0.189382 5.08447 0
M  V30 8058 H 756.275 -2.97981 4.80857 0
M  V30 8059 H 754.832 -3.10067 5.73325 0
M  V30 8060 N 758.265 -1.50454 0.469181 0
M  V30 8061 C 759.213 -2.30101 -0.340033 0
M  V30 8062 C 760.207 -1.37306 -0.992135 0
M  V30 8063 O 761.413 -1.54506 -0.923458 0
M  V30 8064 H 757.788 -0.740941 -0.128495 0
M  V30 8065 H 759.759 -2.96315 0.352144 0
M  V30 8066 C 758.508 -3.17804 -1.41052 0
M  V30 8067 H 757.831 -3.89115 -0.918124 0
M  V30 8068 H 759.271 -3.76533 -1.94934 0
M  V30 8069 C 757.73 -2.35272 -2.4114 0
M  V30 8070 O 758.26 -2.03448 -3.4637 0
M  V30 8071 N 756.466 -1.97889 -2.1281 0
M  V30 8072 H 756.013 -2.2397 -1.27261 0
M  V30 8073 H 755.971 -1.42971 -2.80012 0
M  V30 8074 N 759.743 -0.201713 -1.56304 0
M  V30 8075 C 760.992 0.435557 -1.96941 0
M  V30 8076 C 761.305 1.62299 -1.09172 0
M  V30 8077 O 762.511 2.32849 -1.3962 0
M  V30 8078 C 760.967 0.826298 -3.50286 0
M  V30 8079 C 760.575 -0.337216 -4.46729 0
M  V30 8080 C 762.319 1.43028 -3.99679 0
M  V30 8081 C 760.226 0.0748539 -5.91353 0
M  V30 8082 H 759.156 0.1665 -0.735387 0
M  V30 8083 H 761.807 -0.294781 -1.81117 0
M  V30 8084 H 760.189 1.61349 -3.61639 0
M  V30 8085 H 761.363 -1.11476 -4.47113 0
M  V30 8086 H 759.678 -0.853126 -4.07567 0
M  V30 8087 H 762.275 1.75115 -5.05212 0
M  V30 8088 H 762.618 2.33911 -3.44371 0
M  V30 8089 H 763.151 0.706924 -3.91468 0
M  V30 8090 H 759.89 -0.799957 -6.506 0
M  V30 8091 H 759.41 0.817122 -5.94208 0
M  V30 8092 H 761.089 0.508389 -6.45 0
M  V30 8093 N 761.222 1.57436 0.0718424 0
M  V30 8094 C 762.152 2.06724 1.08571 0
M  V30 8095 C 763.133 0.960731 1.40371 0
M  V30 8096 O 764.318 1.23345 1.49999 0
M  V30 8097 C 761.448 2.51112 2.39916 0
M  V30 8098 C 760.402 3.65639 2.22469 0
M  V30 8099 C 759.728 3.96082 3.59198 0
M  V30 8100 C 761.028 4.95687 1.64596 0
M  V30 8101 H 762.722 2.91679 0.675569 0
M  V30 8102 H 760.268 1.40319 0.32352 0
M  V30 8103 H 762.221 2.84206 3.11135 0
M  V30 8104 H 760.945 1.63186 2.8291 0
M  V30 8105 H 759.604 3.32828 1.53691 0
M  V30 8106 H 759.252 3.05287 3.99761 0
M  V30 8107 H 758.952 4.73199 3.48362 0
M  V30 8108 H 760.476 4.31672 4.31847 0
M  V30 8109 H 761.89 5.27011 2.25681 0
M  V30 8110 H 760.287 5.77126 1.64457 0
M  V30 8111 H 761.357 4.8108 0.60744 0
M  V30 8112 N 762.7 -0.34323 1.53817 0
M  V30 8113 C 763.647 -1.42153 1.81827 0
M  V30 8114 C 764.617 -1.52251 0.663996 0
M  V30 8115 O 765.802 -1.67784 0.908461 0
M  V30 8116 C 762.942 -2.78799 2.03384 0
M  V30 8117 C 762.055 -2.7749 3.31094 0
M  V30 8118 C 761.19 -4.05856 3.42717 0
M  V30 8119 C 760.229 -3.98776 4.64375 0
M  V30 8120 N 759.366 -5.18833 4.73029 0
M  V30 8121 H 764.206 -1.17567 2.73829 0
M  V30 8122 H 761.743 -0.569506 1.35628 0
M  V30 8123 H 763.701 -3.58211 2.13872 0
M  V30 8124 H 762.331 -3.01736 1.14696 0
M  V30 8125 H 761.383 -1.90182 3.29446 0
M  V30 8126 H 762.695 -2.68137 4.206 0
M  V30 8127 H 761.849 -4.93691 3.52638 0
M  V30 8128 H 760.588 -4.1799 2.51267 0
M  V30 8129 H 759.593 -3.09325 4.5453 0
M  V30 8130 H 760.818 -3.88224 5.57189 0
M  V30 8131 H 758.764 -5.31511 3.84489 0
M  V30 8132 H 758.681 -5.11737 5.56472 0
M  V30 8133 H 759.949 -6.08439 4.87261 0
M  V30 8134 N 764.178 -1.45556 -0.604258 0
M  V30 8135 C 765.11 -1.50494 -1.72871 0
M  V30 8136 C 766.123 -0.395368 -1.57926 0
M  V30 8137 O 767.312 -0.662603 -1.65746 0
M  V30 8138 C 764.412 -1.34874 -3.10906 0
M  V30 8139 C 763.585 -2.59564 -3.52058 0
M  V30 8140 C 762.644 -2.38453 -4.6907 0
M  V30 8141 O 761.67 -3.12082 -4.76018 0
M  V30 8142 N 762.872 -1.43229 -5.62553 0
M  V30 8143 H 765.637 -2.4744 -1.69097 0
M  V30 8144 H 763.198 -1.41338 -0.789636 0
M  V30 8145 H 765.19 -1.18556 -3.86945 0
M  V30 8146 H 763.76 -0.461913 -3.09168 0
M  V30 8147 H 762.98 -2.90974 -2.65946 0
M  V30 8148 H 764.268 -3.42441 -3.76313 0
M  V30 8149 H 763.666 -0.824714 -5.59656 0
M  V30 8150 H 762.223 -1.32882 -6.38111 0
M  V30 8151 N 765.656 0.84705 -1.32902 0
M  V30 8152 C 766.905 1.59667 -1.23245 0
M  V30 8153 C 767.218 1.94551 0.202349 0
M  V30 8154 O 768.424 2.68218 0.420847 0
M  V30 8155 C 766.88 2.8795 -2.15901 0
M  V30 8156 C 766.488 2.60461 -3.64505 0
M  V30 8157 C 768.232 3.65968 -2.15098 0
M  V30 8158 C 766.139 3.84791 -4.49099 0
M  V30 8159 H 765.069 0.599167 -0.457728 0
M  V30 8160 H 767.72 0.934662 -1.57912 0
M  V30 8161 H 766.102 3.55648 -1.74157 0
M  V30 8162 H 767.276 2.01026 -4.14639 0
M  V30 8163 H 765.591 1.9576 -3.67515 0
M  V30 8164 H 768.188 4.58241 -2.75534 0
M  V30 8165 H 768.531 4.00275 -1.14392 0
M  V30 8166 H 769.064 3.05184 -2.55162 0
M  V30 8167 H 765.803 3.55621 -5.50649 0
M  V30 8168 H 765.323 4.43594 -4.03713 0
M  V30 8169 H 767.002 4.52454 -4.62487 0
M  V30 8170 N 767.134 1.16236 1.06428 0
M  V30 8171 C 768.381 0.943034 1.79201 0
M  V30 8172 C 768.709 -0.529243 1.87161 0
M  V30 8173 O 767.964 -1.40874 1.35842 0
M  V30 8174 C 768.263 1.51396 3.2375 0
M  V30 8175 C 767.929 3.00833 3.35873 0
M  V30 8176 C 766.591 3.41626 3.38888 0
M  V30 8177 C 768.943 3.96825 3.37904 0
M  V30 8178 C 766.271 4.77033 3.4155 0
M  V30 8179 C 768.623 5.32116 3.42104 0
M  V30 8180 C 767.287 5.72392 3.43401 0
M  V30 8181 H 766.557 0.34508 0.655744 0
M  V30 8182 H 769.204 1.44929 1.25171 0
M  V30 8183 H 767.509 0.929114 3.80624 0
M  V30 8184 H 769.206 1.31996 3.78653 0
M  V30 8185 H 765.796 2.68306 3.3423 0
M  V30 8186 H 769.98 3.66376 3.34787 0
M  V30 8187 H 765.236 5.07569 3.40858 0
M  V30 8188 H 769.41 6.06286 3.42623 0
M  V30 8189 H 767.037 6.77296 3.45216 0
M  V30 8190 N 768.612 -1.24939 0.960631 0
M  V30 8191 C 769.559 -2.25658 0.484459 0
M  V30 8192 C 770.529 -1.59422 -0.466242 0
M  V30 8193 O 771.714 -1.87015 -0.378169 0
M  V30 8194 C 768.854 -3.44359 -0.225958 0
M  V30 8195 C 767.967 -4.25214 0.762682 0
M  V30 8196 C 767.102 -5.31192 0.0290931 0
M  V30 8197 C 766.141 -6.03739 1.00827 0
M  V30 8198 N 765.278 -7.01437 0.305155 0
M  V30 8199 H 770.118 -2.65758 1.34821 0
M  V30 8200 H 767.655 -1.30648 0.675983 0
M  V30 8201 H 769.613 -4.12035 -0.654472 0
M  V30 8202 H 768.243 -3.05118 -1.05371 0
M  V30 8203 H 767.295 -3.57144 1.30966 0
M  V30 8204 H 768.607 -4.75406 1.50964 0
M  V30 8205 H 767.761 -6.04971 -0.457763 0
M  V30 8206 H 766.5 -4.81889 -0.750614 0
M  V30 8207 H 765.505 -5.2877 1.50607 0
M  V30 8208 H 766.73 -6.55131 1.7883 0
M  V30 8209 H 764.676 -6.54415 -0.455704 0
M  V30 8210 H 764.593 -7.49475 0.991104 0
M  V30 8211 H 765.861 -7.79336 -0.159966 0
M  V30 8212 N 770.09 -0.729906 -1.39679 0
M  V30 8213 C 771.02 -0.101618 -2.33279 0
M  V30 8214 C 772.001 0.729854 -1.53646 0
M  V30 8215 O 773.186 0.67587 -1.82059 0
M  V30 8216 C 770.316 0.81024 -3.37716 0
M  V30 8217 C 769.27 0.0833126 -4.27919 0
M  V30 8218 C 768.596 1.11185 -5.23012 0
M  V30 8219 C 769.896 -1.07107 -5.112 0
M  V30 8220 H 771.59 -0.883452 -2.86069 0
M  V30 8221 H 769.136 -0.426283 -1.37546 0
M  V30 8222 H 771.089 1.25927 -4.02145 0
M  V30 8223 H 769.813 1.62413 -2.83354 0
M  V30 8224 H 768.472 -0.346043 -3.64963 0
M  V30 8225 H 768.12 1.91917 -4.64948 0
M  V30 8226 H 767.82 0.63026 -5.8421 0
M  V30 8227 H 769.344 1.56068 -5.90318 0
M  V30 8228 H 770.758 -0.700726 -5.69002 0
M  V30 8229 H 769.155 -1.48196 -5.81514 0
M  V30 8230 H 770.225 -1.89513 -4.46332 0
M  V30 8231 N 771.568 1.50203 -0.477153 0
M  V30 8232 C 772.498 2.31517 0.303646 0
M  V30 8233 C 773.479 1.38696 0.984753 0
M  V30 8234 O 774.664 1.67615 0.980758 0
M  V30 8235 C 771.794 3.18598 1.38249 0
M  V30 8236 C 770.748 4.2002 0.822645 0
M  V30 8237 C 770.074 4.95878 2.00024 0
M  V30 8238 C 771.374 5.22023 -0.170185 0
M  V30 8239 H 773.068 2.97042 -0.375027 0
M  V30 8240 H 770.614 1.42848 -0.181802 0
M  V30 8241 H 772.567 3.74282 1.93625 0
M  V30 8242 H 771.291 2.5097 2.09002 0
M  V30 8243 H 769.95 3.65445 0.290813 0
M  V30 8244 H 769.598 4.24717 2.69489 0
M  V30 8245 H 769.298 5.64487 1.63183 0
M  V30 8246 H 770.822 5.54399 2.55878 0
M  V30 8247 H 772.236 5.72543 0.294606 0
M  V30 8248 H 770.633 5.98386 -0.453181 0
M  V30 8249 H 771.703 4.72396 -1.09408 0
M  V30 8250 N 773.046 0.209999 1.56195 0
M  V30 8251 C 773.978 -0.736967 2.17029 0
M  V30 8252 C 774.991 -1.16599 1.13616 0
M  V30 8253 O 776.18 -1.09914 1.40646 0
M  V30 8254 C 773.28 -2.00852 2.72969 0
M  V30 8255 C 772.453 -1.73691 4.01435 0
M  V30 8256 C 771.512 -2.85439 4.42053 0
M  V30 8257 O 770.538 -2.54405 5.09183 0
M  V30 8258 N 771.74 -4.14135 4.06783 0
M  V30 8259 H 774.505 -0.216656 2.98916 0
M  V30 8260 H 772.066 0.0285672 1.61875 0
M  V30 8261 H 774.058 -2.74778 2.97118 0
M  V30 8262 H 772.628 -2.43963 1.95451 0
M  V30 8263 H 771.848 -0.834676 3.85262 0
M  V30 8264 H 773.136 -1.52961 4.85263 0
M  V30 8265 H 772.534 -4.42196 3.52816 0
M  V30 8266 H 771.091 -4.84642 4.35851 0
M  V30 8267 N 774.524 -1.57472 -0.0634922 0
M  V30 8268 C 775.487 -2.03268 -1.059 0
M  V30 8269 C 776.487 -0.931028 -1.31105 0
M  V30 8270 O 777.677 -1.19567 -1.26686 0
M  V30 8271 C 774.809 -2.42039 -2.40062 0
M  V30 8272 H 776.002 -2.92454 -0.664119 0
M  V30 8273 H 773.555 -1.53206 -0.309444 0
M  V30 8274 H 774.29 -1.55904 -2.84367 0
M  V30 8275 H 774.075 -3.22437 -2.23108 0
M  V30 8276 H 775.565 -2.78017 -3.11603 0
M  V30 8277 N 776.003 0.335068 -1.53997 0
M  V30 8278 C 777.414 0.910191 -1.6301 0
M  V30 8279 C 777.765 1.89271 -0.516809 0
M  V30 8280 O 776.89 2.13516 0.352123 0
M  V30 8281 C 777.485 1.65761 -2.9548 0
M  V30 8282 C 776.044 2.18163 -3.06728 0
M  V30 8283 C 775.191 1.00338 -2.5851 0
M  V30 8284 H 778.142 0.112965 -1.58297 0
M  V30 8285 H 778.163 2.52107 -2.84995 0
M  V30 8286 H 777.675 0.94227 -3.76488 0
M  V30 8287 H 775.776 2.92847 -2.30372 0
M  V30 8288 H 775.889 2.43952 -4.1234 0
M  V30 8289 H 774.253 1.37925 -2.14124 0
M  V30 8290 H 775.036 0.30254 -3.41964 0
M  V30 8291 N 777.481 1.45874 0.596531 0
M  V30 8292 C 778.728 1.50467 1.35521 0
M  V30 8293 C 779.056 0.150802 1.93915 0
M  V30 8294 O 778.311 -0.851913 1.76184 0
M  V30 8295 C 778.61 2.54034 2.51399 0
M  V30 8296 C 778.276 3.9844 2.11085 0
M  V30 8297 C 776.938 4.37758 1.99804 0
M  V30 8298 C 779.29 4.89209 1.79788 0
M  V30 8299 C 776.618 5.65727 1.55465 0
M  V30 8300 C 778.97 6.17602 1.36931 0
M  V30 8301 C 777.634 6.5584 1.24218 0
M  V30 8302 H 776.904 0.550597 0.495907 0
M  V30 8303 H 779.551 1.79279 0.673145 0
M  V30 8304 H 777.856 2.18832 3.24992 0
M  V30 8305 H 779.553 2.54822 3.09624 0
M  V30 8306 H 776.143 3.67353 2.20794 0
M  V30 8307 H 780.327 4.59562 1.87395 0
M  V30 8308 H 775.583 5.94139 1.44253 0
M  V30 8309 H 779.757 6.87373 1.11764 0
M  V30 8310 H 777.384 7.54897 0.896353 0
M  V30 8311 N 778.959 -0.83999 1.33349 0
M  V30 8312 C 780.187 -1.62728 1.27778 0
M  V30 8313 C 780.602 -1.88191 -0.151505 0
M  V30 8314 O 779.959 -1.46128 -1.09329 0
M  V30 8315 C 780.01 -2.97813 2.04913 0
M  V30 8316 O 779.731 -2.73469 3.42266 0
M  V30 8317 C 781.232 -3.92245 2.0654 0
M  V30 8318 H 778.452 -0.506374 0.440257 0
M  V30 8319 H 780.996 -1.04637 1.75703 0
M  V30 8320 H 779.151 -3.52509 1.60674 0
M  V30 8321 H 779.565 -3.59483 3.81932 0
M  V30 8322 H 781.039 -4.84249 2.64966 0
M  V30 8323 H 781.516 -4.26332 1.05537 0
M  V30 8324 H 782.122 -3.43487 2.50793 0
M  V30 8325 N 780.437 -1.16799 -1.0581 0
M  V30 8326 C 781.714 -0.862616 -1.75551 0
M  V30 8327 C 782.094 0.6385 -2.01212 0
M  V30 8328 O 781.442 1.58784 -1.64317 0
M  V30 8329 C 781.652 -1.6907 -3.05314 0
M  V30 8330 C 783 -1.90675 -3.79379 0
M  V30 8331 O 784.024 -1.65976 -3.15167 0
M  V30 8332 O 782.883 -2.32145 -4.94743 0
M  V30 8333 H 779.977 -0.318789 -0.763088 0
M  V30 8334 H 782.523 -1.27461 -1.12034 0
M  V30 8335 H 781.295 -2.70912 -2.82352 0
M  V30 8336 H 780.918 -1.27606 -3.76567 0
M  V30 8337 N 781.915 1.24427 -0.967243 0
M  V30 8338 C 783.155 1.9423 -0.636723 0
M  V30 8339 C 783.519 1.73939 0.812971 0
M  V30 8340 O 784.72 2.37773 1.25369 0
M  V30 8341 C 782.991 3.43105 -1.00067 0
M  V30 8342 S 784.55 4.31728 -0.784633 0
M  V30 8343 H 781.368 0.671527 -0.233607 0
M  V30 8344 H 783.97 1.50806 -1.2441 0
M  V30 8345 H 782.674 3.5538 -2.05264 0
M  V30 8346 H 782.205 3.91521 -0.384054 0
M  V30 8347 H 784.22 4.95046 0.338244 0
M  V30 8348 N 783.393 0.737304 1.3929 0
M  V30 8349 C 784.641 0.285691 2.00071 0
M  V30 8350 C 784.962 -1.13169 1.58801 0
M  V30 8351 O 784.232 -1.77104 0.837308 0
M  V30 8352 H 782.812 0.102638 0.739915 0
M  V30 8353 H 785.474 0.947775 1.70303 0
M  V30 8354 H 784.57 0.335906 3.10287 0
M  V30 8355 N 784.871 -1.49948 0.485112 0
M  V30 8356 C 786.148 -1.95186 -0.12726 0
M  V30 8357 C 786.528 -1.42605 -1.5565 0
M  V30 8358 O 785.876 -0.632986 -2.19558 0
M  V30 8359 C 786.086 -3.48955 -0.0562117 0
M  V30 8360 C 787.434 -4.23932 -0.238106 0
M  V30 8361 O 788.458 -3.55955 -0.132145 0
M  V30 8362 O 787.317 -5.44614 -0.453658 0
M  V30 8363 H 784.411 -0.820433 -0.104014 0
M  V30 8364 H 786.957 -1.60659 0.546517 0
M  V30 8365 H 785.729 -3.79814 0.941122 0
M  V30 8366 H 785.352 -3.90056 -0.770834 0
M  V30 8367 N 786.349 -0.21828 -1.56081 0
M  V30 8368 C 787.597 0.413488 -1.97825 0
M  V30 8369 C 787.918 1.60527 -1.10707 0
M  V30 8370 O 787.188 1.9504 -0.183378 0
M  V30 8371 H 785.768 0.155757 -0.730581 0
M  V30 8372 H 788.43 -0.310413 -1.92412 0
M  V30 8373 H 787.526 0.742024 -3.03151 0
M  V30 8374 N 787.827 1.57504 0.0551401 0
M  V30 8375 C 789.238 1.76626 0.604979 0
M  V30 8376 C 789.589 0.845978 1.77024 0
M  V30 8377 O 788.714 0.0341936 2.16373 0
M  V30 8378 C 789.309 3.203 1.10425 0
M  V30 8379 C 787.868 3.4071 1.59981 0
M  V30 8380 C 787.015 2.72258 0.526414 0
M  V30 8381 H 789.966 1.57775 -0.171072 0
M  V30 8382 H 789.987 3.25377 1.97256 0
M  V30 8383 H 789.499 3.87255 0.255939 0
M  V30 8384 H 787.6 2.78892 2.47083 0
M  V30 8385 H 787.713 4.49227 1.66528 0
M  V30 8386 H 786.077 2.35283 0.97539 0
M  V30 8387 H 786.86 3.41879 -0.311991 0
M  V30 8388 N 789.305 -0.326896 1.54172 0
M  V30 8389 C 790.238 -1.42591 1.78166 0
M  V30 8390 C 791.216 -1.49837 0.631484 0
M  V30 8391 O 792.4 -1.67298 0.868544 0
M  V30 8392 C 789.527 -2.8071 1.89524 0
M  V30 8393 C 788.573 -2.91012 3.11792 0
M  V30 8394 S 789.406 -2.55763 4.70474 0
M  V30 8395 C 790.562 -3.9596 4.84733 0
M  V30 8396 H 790.795 -1.22024 2.71104 0
M  V30 8397 H 788.328 -0.523539 1.45253 0
M  V30 8398 H 790.286 -3.60276 1.96753 0
M  V30 8399 H 788.947 -2.98562 0.975696 0
M  V30 8400 H 788.14 -3.92258 3.16464 0
M  V30 8401 H 787.742 -2.19414 3.02876 0
M  V30 8402 H 790.034 -4.90676 4.67166 0
M  V30 8403 H 790.977 -3.96273 5.86833 0
M  V30 8404 H 791.385 -3.8476 4.13062 0
M  V30 8405 N 790.784 -1.46188 -0.588786 0
M  V30 8406 C 791.714 -1.59148 -1.70863 0
M  V30 8407 C 792.695 -0.442083 -1.64255 0
M  V30 8408 O 793.88 -0.667575 -1.82365 0
M  V30 8409 C 791.01 -1.5757 -3.09498 0
M  V30 8410 C 789.964 -2.71418 -3.30932 0
M  V30 8411 C 789.29 -2.549 -4.70032 0
M  V30 8412 C 790.59 -4.1329 -3.19356 0
M  V30 8413 H 792.284 -2.52889 -1.60274 0
M  V30 8414 H 789.83 -1.21707 -0.769638 0
M  V30 8415 H 791.783 -1.65231 -3.87655 0
M  V30 8416 H 790.507 -0.603705 -3.20972 0
M  V30 8417 H 789.166 -2.63216 -2.55172 0
M  V30 8418 H 788.814 -1.55797 -4.78264 0
M  V30 8419 H 788.514 -3.31257 -4.85327 0
M  V30 8420 H 790.038 -2.64443 -5.50366 0
M  V30 8421 H 791.452 -4.22636 -3.87365 0
M  V30 8422 H 789.849 -4.90187 -3.46175 0
M  V30 8423 H 790.919 -4.33874 -2.16522 0
M  V30 8424 N 792.262 0.832906 -1.33792 0
M  V30 8425 C 793.678 1.1245 -1.13257 0
M  V30 8426 C 793.878 2.01369 0.0725832 0
M  V30 8427 O 792.934 2.41071 0.751082 0
M  V30 8428 C 794.247 1.78084 -2.42294 0
M  V30 8429 C 795.795 1.90624 -2.48257 0
M  V30 8430 C 796.27 2.59673 -3.77271 0
M  V30 8431 N 797.761 2.67181 -3.78376 0
M  V30 8432 C 798.496 3.21313 -4.74916 0
M  V30 8433 N 797.992 3.76086 -5.81835 0
M  V30 8434 N 799.785 3.19621 -4.62384 0
M  V30 8435 H 791.936 0.241244 -2.11026 0
M  V30 8436 H 794.199 0.169557 -0.932713 0
M  V30 8437 H 793.905 1.20209 -3.30519 0
M  V30 8438 H 793.779 2.78049 -2.5489 0
M  V30 8439 H 796.166 2.4765 -1.60478 0
M  V30 8440 H 796.247 0.89591 -2.39598 0
M  V30 8441 H 795.891 2.03304 -4.65435 0
M  V30 8442 H 795.821 3.61189 -3.8321 0
M  V30 8443 H 798.312 2.28346 -3.01108 0
M  V30 8444 H 798.625 4.15612 -6.51526 0
M  V30 8445 H 796.97 3.74357 -5.85561 0
M  V30 8446 H 800.161 2.76091 -3.7801 0
M  V30 8447 H 800.334 3.61504 -5.37791 0
M  V30 8448 N 793.74 1.17359 1.05189 0
M  V30 8449 C 794.67 0.91365 2.14883 0
M  V30 8450 C 795.651 -0.144365 1.69486 0
M  V30 8451 O 796.836 0.00587861 1.94199 0
M  V30 8452 C 793.966 0.426196 3.44675 0
M  V30 8453 C 792.92 1.4234 4.03638 0
M  V30 8454 C 792.246 0.793902 5.28773 0
M  V30 8455 C 793.546 2.7966 4.41121 0
M  V30 8456 H 795.24 1.831 2.36885 0
M  V30 8457 H 792.786 0.881781 1.13845 0
M  V30 8458 H 794.739 0.231767 4.20762 0
M  V30 8459 H 793.463 -0.526693 3.22325 0
M  V30 8460 H 792.122 1.60457 3.2962 0
M  V30 8461 H 791.77 -0.165824 5.02727 0
M  V30 8462 H 791.47 1.45959 5.69183 0
M  V30 8463 H 792.994 0.609747 6.07548 0
M  V30 8464 H 794.408 2.6526 5.08242 0
M  V30 8465 H 792.805 3.42807 4.92548 0
M  V30 8466 H 793.875 3.34068 3.51464 0
M  V30 8467 N 795.218 -1.23913 0.973828 0
M  V30 8468 C 796.128 -2.28838 0.516735 0
M  V30 8469 C 797.144 -1.68723 -0.425282 0
M  V30 8470 O 798.32 -1.99201 -0.296819 0
M  V30 8471 C 795.385 -3.46233 -0.179914 0
M  V30 8472 C 794.446 -4.21729 0.80269 0
M  V30 8473 C 793.679 -5.33518 0.139191 0
M  V30 8474 O 793.902 -5.60252 -1.07118 0
M  V30 8475 O 792.836 -5.96088 0.834447 0
M  V30 8476 H 796.662 -2.70067 1.38916 0
M  V30 8477 H 794.247 -1.2972 0.74115 0
M  V30 8478 H 796.129 -4.17514 -0.570991 0
M  V30 8479 H 794.804 -3.06969 -1.02721 0
M  V30 8480 H 793.711 -3.52799 1.24434 0
M  V30 8481 H 795.044 -4.64825 1.61859 0
M  V30 8482 N 796.696 -0.74468 -1.38897 0
M  V30 8483 C 797.606 -0.112892 -2.34328 0
M  V30 8484 C 798.622 0.71087 -1.58816 0
M  V30 8485 O 799.798 0.637092 -1.91058 0
M  V30 8486 C 796.863 0.776417 -3.37894 0
M  V30 8487 C 795.924 -0.0606999 -4.29257 0
M  V30 8488 C 795.157 0.786258 -5.27877 0
M  V30 8489 O 795.38 2.02463 -5.33259 0
M  V30 8490 O 794.314 0.209781 -6.01534 0
M  V30 8491 H 798.14 -0.900801 -2.90033 0
M  V30 8492 H 795.725 -0.505462 -1.4059 0
M  V30 8493 H 797.607 1.28496 -4.01331 0
M  V30 8494 H 796.282 1.54297 -2.84559 0
M  V30 8495 H 795.189 -0.614984 -3.69011 0
M  V30 8496 H 796.522 -0.789702 -4.85824 0
M  V30 8497 N 798.174 1.49689 -0.493057 0
M  V30 8498 C 799.104 2.31826 0.279073 0
M  V30 8499 C 800.085 1.39733 0.969987 0
M  V30 8500 O 801.27 1.68646 0.962925 0
M  V30 8501 C 798.4 3.20046 1.34862 0
M  V30 8502 C 797.354 4.20869 0.77805 0
M  V30 8503 C 796.68 4.97971 1.94753 0
M  V30 8504 C 797.98 5.21813 -0.225543 0
M  V30 8505 H 799.674 2.96627 -0.406512 0
M  V30 8506 H 797.22 1.42647 -0.196943 0
M  V30 8507 H 799.173 3.76315 1.89645 0
M  V30 8508 H 797.897 2.53172 2.06328 0
M  V30 8509 H 796.556 3.65733 0.252036 0
M  V30 8510 H 796.204 4.27552 2.64969 0
M  V30 8511 H 795.904 5.66186 1.57187 0
M  V30 8512 H 797.428 5.57082 2.49984 0
M  V30 8513 H 798.842 5.72823 0.233864 0
M  V30 8514 H 797.239 5.97872 -0.516622 0
M  V30 8515 H 798.309 4.71209 -1.14412 0
M  V30 8516 N 799.652 0.226554 1.55963 0
M  V30 8517 C 800.9 -0.402991 1.98041 0
M  V30 8518 C 801.221 -1.59938 1.11557 0
M  V30 8519 O 800.491 -1.9494 0.193719 0
M  V30 8520 H 799.071 -0.15188 0.731397 0
M  V30 8521 H 801.733 0.320613 1.92245 0
M  V30 8522 H 800.829 -0.725937 3.0354 0
M  V30 8523 N 801.13 -1.57531 -0.0467866 0
M  V30 8524 C 802.407 -1.79568 -0.775536 0
M  V30 8525 C 802.787 -0.820322 -1.94509 0
M  V30 8526 O 802.135 0.14134 -2.28062 0
M  V30 8527 C 802.345 -3.26789 -1.22516 0
M  V30 8528 C 803.693 -3.91299 -1.64835 0
M  V30 8529 O 804.717 -3.30831 -1.3202 0
M  V30 8530 O 803.576 -4.97727 -2.25677 0
M  V30 8531 H 800.67 -0.737817 -0.373572 0
M  V30 8532 H 803.216 -1.69682 -0.0249302 0
M  V30 8533 H 801.988 -3.89357 -0.389446 0
M  V30 8534 H 801.611 -3.41496 -2.03633 0
M  V30 8535 N 802.608 0.318715 -1.54344 0
M  V30 8536 C 803.54 1.41364 -1.80413 0
M  V30 8537 C 804.553 1.47627 -0.686294 0
M  V30 8538 O 805.742 1.50264 -0.963486 0
M  V30 8539 C 802.842 2.79867 -1.91123 0
M  V30 8540 C 802.015 2.96749 -3.21339 0
M  V30 8541 C 801.074 4.15642 -3.22689 0
M  V30 8542 O 800.1 4.08571 -3.96306 0
M  V30 8543 N 801.302 5.25416 -2.46817 0
M  V30 8544 H 804.067 1.19363 -2.74905 0
M  V30 8545 H 801.628 0.508722 -1.537 0
M  V30 8546 H 803.62 3.57619 -1.89448 0
M  V30 8547 H 802.19 2.94896 -1.03706 0
M  V30 8548 H 801.41 2.06257 -3.35934 0
M  V30 8549 H 802.698 3.04927 -4.07304 0
M  V30 8550 H 802.096 5.34037 -1.86605 0
M  V30 8551 H 800.653 6.01569 -2.50915 0
M  V30 8552 N 804.086 1.46499 0.581025 0
M  V30 8553 C 805.502 1.31491 0.904563 0
M  V30 8554 C 805.702 0.287598 1.99437 0
M  V30 8555 O 804.758 -0.309247 2.50599 0
M  V30 8556 C 806.071 2.70163 1.32032 0
M  V30 8557 C 807.619 2.78266 1.43308 0
M  V30 8558 C 808.094 4.17524 1.8825 0
M  V30 8559 N 809.585 4.19949 1.9544 0
M  V30 8560 C 810.32 5.24594 2.31493 0
M  V30 8561 N 809.816 6.39564 2.66326 0
M  V30 8562 N 811.609 5.11961 2.32062 0
M  V30 8563 H 803.76 2.11946 -0.138856 0
M  V30 8564 H 806.023 0.948 0.000548528 0
M  V30 8565 H 805.729 3.46655 0.593554 0
M  V30 8566 H 805.603 3.00379 2.2815 0
M  V30 8567 H 807.99 2.02061 2.15071 0
M  V30 8568 H 808.071 2.51732 0.45438 0
M  V30 8569 H 807.715 4.94225 1.17065 0
M  V30 8570 H 807.645 4.41466 2.87081 0
M  V30 8571 H 810.136 3.36996 1.71004 0
M  V30 8572 H 810.449 7.15187 2.92793 0
M  V30 8573 H 808.794 6.42923 2.6396 0
M  V30 8574 H 811.985 4.21177 2.04272 0
M  V30 8575 H 812.158 5.93626 2.5983 0
M  V30 8576 N 805.565 -0.825799 1.34232 0
M  V30 8577 C 806.515 -1.92533 1.22128 0
M  V30 8578 C 807.499 -1.60444 0.121002 0
M  V30 8579 O 808.691 -1.73497 0.350385 0
M  V30 8580 C 805.82 -3.29134 0.975995 0
M  V30 8581 C 804.906 -3.6735 2.11931 0
M  V30 8582 N 805.297 -3.77154 3.37029 0
M  V30 8583 C 803.595 -3.97179 2.02891 0
M  V30 8584 C 804.296 -4.10552 4.12095 0
M  V30 8585 N 803.272 -4.23619 3.40658 0
M  V30 8586 H 807.074 -1.98287 2.16932 0
M  V30 8587 H 804.588 -1.01929 1.26429 0
M  V30 8588 H 806.585 -4.07717 0.870187 0
M  V30 8589 H 805.245 -3.24679 0.036606 0
M  V30 8590 H 806.256 -3.60723 3.71618 0
M  V30 8591 H 802.933 -4.00861 1.16692 0
M  V30 8592 H 804.323 -4.25365 5.2011 0
M  V30 8593 N 807.043 -1.17915 -1.04565 0
M  V30 8594 C 808.006 -0.903787 -2.10628 0
M  V30 8595 C 809.006 0.10873 -1.60432 0
M  V30 8596 O 810.196 -0.124152 -1.73757 0
M  V30 8597 C 807.328 -0.355017 -3.39046 0
M  V30 8598 H 808.521 -1.84425 -2.3649 0
M  V30 8599 H 806.074 -0.990477 -1.2091 0
M  V30 8600 H 806.809 0.592297 -3.18845 0
M  V30 8601 H 806.594 -1.08484 -3.76794 0
M  V30 8602 H 808.084 -0.180891 -4.17208 0
M  V30 8603 N 808.521 1.23394 -0.980386 0
M  V30 8604 C 809.932 1.73631 -0.686239 0
M  V30 8605 C 810.283 1.79259 0.797541 0
M  V30 8606 O 809.408 1.43046 1.62379 0
M  V30 8607 C 810.003 3.15332 -1.239 0
M  V30 8608 C 808.562 3.63024 -0.994494 0
M  V30 8609 C 807.709 2.41279 -1.36673 0
M  V30 8610 H 810.66 1.08918 -1.15423 0
M  V30 8611 H 810.681 3.75556 -0.611414 0
M  V30 8612 H 810.193 3.11204 -2.31892 0
M  V30 8613 H 808.294 3.72535 0.0693492 0
M  V30 8614 H 808.407 4.49825 -1.64906 0
M  V30 8615 H 806.771 2.42295 -0.785195 0
M  V30 8616 H 807.554 2.39822 -2.45642 0
M  V30 8617 N 809.999 0.752036 1.385 0
M  V30 8618 C 811.246 0.307503 2.00152 0
M  V30 8619 C 811.574 -1.11033 1.59693 0
M  V30 8620 O 810.829 -1.77455 0.825125 0
M  V30 8621 C 811.128 0.376155 3.55415 0
M  V30 8622 C 810.794 1.74942 4.15579 0
M  V30 8623 C 809.456 2.12525 4.31725 0
M  V30 8624 C 811.808 2.65031 4.48785 0
M  V30 8625 C 809.136 3.39671 4.78373 0
M  V30 8626 C 811.488 3.91567 4.96848 0
M  V30 8627 C 810.152 4.2922 5.11201 0
M  V30 8628 H 809.422 0.112523 0.732407 0
M  V30 8629 H 812.069 0.962213 1.65571 0
M  V30 8630 H 810.374 -0.362121 3.90123 0
M  V30 8631 H 812.071 0.0138065 4.00998 0
M  V30 8632 H 808.661 1.44726 4.03426 0
M  V30 8633 H 812.845 2.3726 4.35914 0
M  V30 8634 H 808.101 3.68765 4.8767 0
M  V30 8635 H 812.275 4.61517 5.21512 0
M  V30 8636 H 809.902 5.27805 5.47107 0
M  V30 8637 N 811.477 -1.49425 0.500989 0
M  V30 8638 C 812.893 -1.58826 0.156951 0
M  V30 8639 C 813.093 -1.50622 -1.33848 0
M  V30 8640 O 812.149 -1.38016 -2.11442 0
M  V30 8641 C 813.462 -2.91611 0.73374 0
M  V30 8642 C 815.01 -3.05076 0.699846 0
M  V30 8643 C 815.485 -4.40479 1.2547 0
M  V30 8644 N 816.976 -4.4697 1.2154 0
M  V30 8645 C 817.711 -5.50189 1.6149 0
M  V30 8646 N 817.207 -6.60512 2.09034 0
M  V30 8647 N 819 -5.40903 1.52907 0
M  V30 8648 H 811.151 -1.53001 1.47324 0
M  V30 8649 H 813.414 -0.724765 0.61108 0
M  V30 8650 H 813.12 -3.03182 1.78251 0
M  V30 8651 H 812.994 -3.767 0.19417 0
M  V30 8652 H 815.381 -2.93134 -0.340085 0
M  V30 8653 H 815.462 -2.2167 1.27656 0
M  V30 8654 H 815.106 -4.53172 2.29341 0
M  V30 8655 H 815.036 -5.22524 0.653921 0
M  V30 8656 H 817.527 -3.67819 0.867043 0
M  V30 8657 H 817.84 -7.35372 2.37588 0
M  V30 8658 H 816.185 -6.61553 2.13008 0
M  V30 8659 H 819.376 -4.53606 1.15583 0
M  V30 8660 H 819.549 -6.21219 1.84365 0
M  V30 8661 N 812.955 -0.234822 -1.55841 0
M  V30 8662 C 813.905 0.68346 -2.17515 0
M  V30 8663 C 814.889 1.14798 -1.1274 0
M  V30 8664 O 816.081 1.09976 -1.38688 0
M  V30 8665 C 813.21 1.88551 -2.86886 0
M  V30 8666 C 812.296 1.44006 -3.98903 0
M  V30 8667 N 812.687 0.708034 -5.0082 0
M  V30 8668 C 810.985 1.7263 -4.11236 0
M  V30 8669 C 811.686 0.479036 -5.79724 0
M  V30 8670 N 810.662 1.03968 -5.33565 0
M  V30 8671 H 814.464 0.115897 -2.93671 0
M  V30 8672 H 811.978 -0.0366273 -1.62359 0
M  V30 8673 H 813.975 2.55425 -3.2949 0
M  V30 8674 H 812.635 2.45742 -2.12229 0
M  V30 8675 H 813.646 0.359363 -5.16652 0
M  V30 8676 H 810.323 2.31046 -3.47741 0
M  V30 8677 H 811.713 -0.104514 -6.71819 0
M  V30 8678 N 814.433 1.57553 0.0384317 0
M  V30 8679 C 815.682 1.88022 0.730108 0
M  V30 8680 C 815.995 0.83209 1.77019 0
M  V30 8681 O 817.201 1.0257 2.51379 0
M  V30 8682 C 815.657 3.33637 1.3496 0
M  V30 8683 C 815.265 4.46659 0.346352 0
M  V30 8684 C 817.009 3.73266 2.02169 0
M  V30 8685 C 814.916 5.8333 0.973652 0
M  V30 8686 H 813.846 0.701496 0.276442 0
M  V30 8687 H 816.497 1.83493 -0.0158028 0
M  V30 8688 H 814.879 3.32882 2.1449 0
M  V30 8689 H 816.053 4.58868 -0.421558 0
M  V30 8690 H 814.368 4.15802 -0.223133 0
M  V30 8691 H 816.965 4.72689 2.49938 0
M  V30 8692 H 817.308 3.04776 2.8358 0
M  V30 8693 H 817.841 3.76156 1.29427 0
M  V30 8694 H 814.58 6.55197 0.199163 0
M  V30 8695 H 814.1 5.7486 1.71162 0
M  V30 8696 H 815.779 6.29757 1.48376 0
M  V30 8697 N 815.911 -0.310526 1.54511 0
M  V30 8698 C 817.151 -1.05498 1.7507 0
M  V30 8699 C 817.515 -1.84814 0.520381 0
M  V30 8700 O 818.716 -2.61937 0.603547 0
M  V30 8701 C 816.987 -1.94466 2.99863 0
M  V30 8702 S 818.546 -2.75686 3.41383 0
M  V30 8703 H 815.364 -0.355951 0.615483 0
M  V30 8704 H 817.966 -0.329464 1.92704 0
M  V30 8705 H 816.67 -1.35055 3.87541 0
M  V30 8706 H 816.201 -2.71401 2.84789 0
M  V30 8707 H 818.216 -3.96971 2.97706 0
M  V30 8708 N 817.389 -1.46805 -0.573248 0
M  V30 8709 C 818.805 -1.31969 -0.897577 0
M  V30 8710 C 819.005 -0.298171 -1.99282 0
M  V30 8711 O 818.061 0.295953 -2.5076 0
M  V30 8712 C 819.374 -2.70859 -1.30598 0
M  V30 8713 C 820.922 -2.79022 -1.4183 0
M  V30 8714 C 821.397 -4.18516 -1.86033 0
M  V30 8715 N 822.888 -4.2098 -1.9321 0
M  V30 8716 C 823.623 -5.25814 -2.28707 0
M  V30 8717 N 823.119 -6.40968 -2.6293 0
M  V30 8718 N 824.912 -5.13184 -2.29343 0
M  V30 8719 H 817.063 -2.11869 0.150094 0
M  V30 8720 H 819.326 -0.947989 0.00447895 0
M  V30 8721 H 819.032 -3.46965 -0.575161 0
M  V30 8722 H 818.906 -3.01585 -2.26554 0
M  V30 8723 H 821.293 -2.03198 -2.13996 0
M  V30 8724 H 821.374 -2.51969 -0.441024 0
M  V30 8725 H 821.018 -4.94839 -1.14442 0
M  V30 8726 H 820.948 -4.42982 -2.84735 0
M  V30 8727 H 823.439 -3.37898 -1.69214 0
M  V30 8728 H 823.752 -7.16729 -2.88996 0
M  V30 8729 H 822.097 -6.44314 -2.60547 0
M  V30 8730 H 825.288 -4.22255 -2.02036 0
M  V30 8731 H 825.461 -5.94996 -2.56679 0
M  V30 8732 N 818.867 0.818669 -1.34668 0
M  V30 8733 C 819.797 1.94468 -1.29245 0
M  V30 8734 C 820.778 1.69257 -0.169101 0
M  V30 8735 O 821.963 1.90794 -0.362143 0
M  V30 8736 C 819.093 3.31001 -1.05145 0
M  V30 8737 C 818.047 3.70663 -2.13992 0
M  V30 8738 C 817.373 5.05226 -1.75074 0
M  V30 8739 C 818.673 3.82312 -3.55858 0
M  V30 8740 H 820.367 1.99263 -2.2346 0
M  V30 8741 H 817.913 0.957304 -1.07572 0
M  V30 8742 H 819.866 4.09364 -0.999949 0
M  V30 8743 H 818.59 3.26517 -0.0737312 0
M  V30 8744 H 817.249 2.94578 -2.18219 0
M  V30 8745 H 816.897 4.97233 -0.759518 0
M  V30 8746 H 816.597 5.32734 -2.47928 0
M  V30 8747 H 818.121 5.86042 -1.71427 0
M  V30 8748 H 819.535 4.50935 -3.5402 0
M  V30 8749 H 817.932 4.21278 -4.2737 0
M  V30 8750 H 819.002 2.84193 -3.9289 0
M  V30 8751 N 820.346 1.18468 1.03938 0
M  V30 8752 C 821.586 0.991823 1.78724 0
M  V30 8753 C 821.95 -0.470115 1.86156 0
M  V30 8754 O 823.151 -0.782451 2.5716 0
M  V30 8755 C 821.422 1.63018 3.18056 0
M  V30 8756 S 822.981 1.58527 4.09163 0
M  V30 8757 H 819.799 0.356137 0.615376 0
M  V30 8758 H 822.401 1.50634 1.24618 0
M  V30 8759 H 821.105 2.68642 3.10258 0
M  V30 8760 H 820.636 1.11601 3.77238 0
M  V30 8761 H 822.651 0.602059 4.92534 0
M  V30 8762 N 821.824 -1.22873 0.986916 0
M  V30 8763 C 823.054 -1.95204 0.67668 0
M  V30 8764 C 823.462 -1.73193 -0.761641 0
M  V30 8765 O 822.805 -1.0243 -1.52492 0
M  V30 8766 C 822.867 -3.48173 0.895302 0
M  V30 8767 C 822.531 -3.93912 2.31695 0
M  V30 8768 C 823.528 -4.02064 3.29607 0
M  V30 8769 C 821.213 -4.26722 2.64978 0
M  V30 8770 C 823.207 -4.42391 4.58878 0
M  V30 8771 C 820.894 -4.66729 3.94471 0
M  V30 8772 C 821.892 -4.74531 4.91232 0
M  V30 8773 O 821.58 -5.13636 6.18412 0
M  V30 8774 H 821.312 -0.628105 0.24992 0
M  V30 8775 H 823.866 -1.5714 1.32274 0
M  V30 8776 H 822.096 -3.86223 0.192072 0
M  V30 8777 H 823.785 -4.01717 0.581233 0
M  V30 8778 H 824.551 -3.76912 3.05225 0
M  V30 8779 H 820.43 -4.19858 1.9037 0
M  V30 8780 H 823.974 -4.48395 5.34404 0
M  V30 8781 H 819.871 -4.91332 4.18645 0
M  V30 8782 H 820.639 -5.31728 6.2226 0
M  V30 8783 N 823.302 -0.75937 -1.38099 0
M  V30 8784 C 824.718 -0.437606 -1.53483 0
M  V30 8785 C 824.918 1.04849 -1.72072 0
M  V30 8786 O 823.974 1.83448 -1.73502 0
M  V30 8787 C 825.287 -1.24189 -2.73857 0
M  V30 8788 C 826.835 -1.23255 -2.8771 0
M  V30 8789 C 827.31 -2.01992 -4.11051 0
M  V30 8790 N 828.801 -1.99282 -4.1814 0
M  V30 8791 C 829.536 -2.56996 -5.12583 0
M  V30 8792 N 829.032 -3.23446 -6.12662 0
M  V30 8793 N 830.825 -2.46894 -5.04975 0
M  V30 8794 H 822.976 -1.72242 -1.24283 0
M  V30 8795 H 825.239 -0.730507 -0.604205 0
M  V30 8796 H 824.945 -2.29449 -2.66545 0
M  V30 8797 H 824.819 -0.862672 -3.67203 0
M  V30 8798 H 827.206 -0.187988 -2.94501 0
M  V30 8799 H 827.287 -1.65132 -1.95359 0
M  V30 8800 H 826.931 -3.06462 -4.05023 0
M  V30 8801 H 826.861 -1.57505 -5.02494 0
M  V30 8802 H 829.352 -1.50893 -3.46467 0
M  V30 8803 H 829.665 -3.6489 -6.81231 0
M  V30 8804 H 828.01 -3.27543 -6.12977 0
M  V30 8805 H 831.201 -1.94604 -4.25731 0
M  V30 8806 H 831.374 -2.92168 -5.78396 0
M  V30 8807 N 824.78 1.49157 -0.508906 0
M  V30 8808 C 826.026 2.02773 0.0328469 0
M  V30 8809 C 826.359 1.38714 1.35912 0
M  V30 8810 O 825.634 0.525536 1.87266 0
M  V30 8811 C 825.917 3.59664 0.177088 0
M  V30 8812 C 825.77 4.34239 -1.17287 0
M  V30 8813 C 827.089 4.30505 0.913977 0
M  V30 8814 H 824.208 0.736926 0.0104631 0
M  V30 8815 H 826.85 1.781 -0.661851 0
M  V30 8816 H 825 3.80818 0.768774 0
M  V30 8817 H 826.672 4.24561 -1.80404 0
M  V30 8818 H 824.915 3.96486 -1.76016 0
M  V30 8819 H 825.586 5.42397 -1.02516 0
M  V30 8820 H 828.062 4.14054 0.412084 0
M  V30 8821 H 826.938 5.40012 0.983759 0
M  V30 8822 H 827.199 3.96302 1.95951 0
M  V30 8823 N 826.258 0.243083 1.55714 0
M  V30 8824 C 827.188 -0.652336 2.24203 0
M  V30 8825 C 828.169 -1.1843 1.221 0
M  V30 8826 O 829.354 -1.22435 1.50743 0
M  V30 8827 C 826.484 -1.85111 2.93856 0
M  V30 8828 C 825.438 -1.45208 4.02615 0
M  V30 8829 C 824.764 -2.73137 4.59674 0
M  V30 8830 C 826.064 -0.625988 5.18535 0
M  V30 8831 H 827.758 -0.0812504 2.9929 0
M  V30 8832 H 825.304 -0.0376388 1.43951 0
M  V30 8833 H 827.257 -2.48314 3.40468 0
M  V30 8834 H 825.981 -2.44751 2.16251 0
M  V30 8835 H 824.64 -0.843406 3.56766 0
M  V30 8836 H 824.288 -3.30967 3.78774 0
M  V30 8837 H 823.988 -2.47163 5.33089 0
M  V30 8838 H 825.512 -3.37245 5.09017 0
M  V30 8839 H 826.926 -1.16223 5.61396 0
M  V30 8840 H 825.323 -0.462465 5.98315 0
M  V30 8841 H 826.393 0.362652 4.83542 0
M  V30 8842 N 827.736 -1.57571 -0.0300757 0
M  V30 8843 C 829.152 -1.54869 -0.385703 0
M  V30 8844 C 829.352 -0.969068 -1.76667 0
M  V30 8845 O 828.408 -0.589676 -2.45518 0
M  V30 8846 C 829.721 -2.99313 -0.288482 0
M  V30 8847 C 831.269 -3.10857 -0.365638 0
M  V30 8848 C 831.744 -4.5703 -0.297878 0
M  V30 8849 N 833.235 -4.61825 -0.356703 0
M  V30 8850 C 833.97 -5.72466 -0.327146 0
M  V30 8851 N 833.466 -6.92349 -0.249941 0
M  V30 8852 N 835.259 -5.60836 -0.376801 0
M  V30 8853 H 827.41 -1.936 0.87367 0
M  V30 8854 H 829.673 -0.887924 0.332106 0
M  V30 8855 H 829.379 -3.45443 0.66047 0
M  V30 8856 H 829.253 -3.61332 -1.08253 0
M  V30 8857 H 831.64 -2.64676 -1.30502 0
M  V30 8858 H 831.721 -2.51671 0.457744 0
M  V30 8859 H 831.365 -5.03879 0.637835 0
M  V30 8860 H 831.295 -5.14127 -1.13935 0
M  V30 8861 H 833.786 -3.75571 -0.418926 0
M  V30 8862 H 834.099 -7.7245 -0.23246 0
M  V30 8863 H 832.444 -6.94664 -0.216004 0
M  V30 8864 H 835.635 -4.66073 -0.435101 0
M  V30 8865 H 835.808 -6.47052 -0.350298 0
M  V30 8866 N 829.214 0.302327 -1.54673 0
M  V30 8867 C 830.164 1.37443 -1.81916 0
M  V30 8868 C 831.148 1.45999 -0.676251 0
M  V30 8869 O 832.34 1.50174 -0.93685 0
M  V30 8870 C 829.469 2.73966 -2.06876 0
M  V30 8871 C 828.555 2.69637 -3.27348 0
M  V30 8872 N 828.946 2.34926 -4.47933 0
M  V30 8873 C 827.244 3.00742 -3.29348 0
M  V30 8874 C 827.945 2.39862 -5.29944 0
M  V30 8875 N 826.921 2.77163 -4.67634 0
M  V30 8876 H 830.723 1.09567 -2.72713 0
M  V30 8877 H 828.237 0.5109 -1.54154 0
M  V30 8878 H 830.234 3.51265 -2.2454 0
M  V30 8879 H 828.894 3.02754 -1.17346 0
M  V30 8880 H 829.905 2.07403 -4.74557 0
M  V30 8881 H 826.582 3.34434 -2.49921 0
M  V30 8882 H 827.972 2.15835 -6.3629 0
M  V30 8883 N 830.692 1.47107 0.565454 0
M  V30 8884 C 831.917 1.57153 1.35343 0
M  V30 8885 C 832.342 0.219247 1.86818 0
M  V30 8886 O 831.7 -0.803539 1.62521 0
M  V30 8887 C 831.748 2.59387 2.50501 0
M  V30 8888 O 830.852 2.14086 3.52478 0
M  V30 8889 H 830.193 0.528209 0.402357 0
M  V30 8890 H 832.723 1.92821 0.684189 0
M  V30 8891 H 832.733 2.79546 2.97184 0
M  V30 8892 H 831.408 3.57579 2.12391 0
M  V30 8893 H 829.985 2.03991 3.12157 0
M  V30 8894 N 832.17 -0.811516 1.35101 0
M  V30 8895 C 833.102 -1.93102 1.23468 0
M  V30 8896 C 834.115 -1.62021 0.159095 0
M  V30 8897 O 835.304 -1.73682 0.411945 0
M  V30 8898 C 832.404 -3.27345 0.877404 0
M  V30 8899 C 831.577 -3.86368 2.05033 0
M  V30 8900 C 830.636 -4.99009 1.66963 0
M  V30 8901 O 829.662 -5.16698 2.38772 0
M  V30 8902 N 830.864 -5.7749 0.590394 0
M  V30 8903 H 833.629 -2.0361 2.19916 0
M  V30 8904 H 831.19 -0.988687 1.28205 0
M  V30 8905 H 833.182 -4.00163 0.604298 0
M  V30 8906 H 831.752 -3.126 0.00275267 0
M  V30 8907 H 830.972 -3.05804 2.48752 0
M  V30 8908 H 832.26 -4.22533 2.83449 0
M  V30 8909 H 831.658 -5.657 -0.00633259 0
M  V30 8910 H 830.215 -6.50708 0.377055 0
M  V30 8911 N 833.648 -1.19017 -1.03309 0
M  V30 8912 C 834.58 -0.881847 -2.11556 0
M  V30 8913 C 835.593 0.123711 -1.62329 0
M  V30 8914 O 836.782 -0.105141 -1.7819 0
M  V30 8915 C 833.882 -0.297634 -3.37591 0
M  V30 8916 C 833.055 -1.35072 -4.16022 0
M  V30 8917 C 832.114 -0.780812 -5.20375 0
M  V30 8918 O 831.14 -1.45745 -5.50224 0
M  V30 8919 N 832.342 0.417964 -5.78993 0
M  V30 8920 H 835.107 -1.81359 -2.38598 0
M  V30 8921 H 832.668 -1.0916 -1.19565 0
M  V30 8922 H 834.66 0.097374 -4.04583 0
M  V30 8923 H 833.23 0.538299 -3.0793 0
M  V30 8924 H 832.45 -1.92074 -3.4424 0
M  V30 8925 H 833.738 -2.06044 -4.65213 0
M  V30 8926 H 833.136 0.985281 -5.57054 0
M  V30 8927 H 831.693 0.754802 -6.47415 0
M  V30 8928 N 835.127 1.22348 -0.993418 0
M  V30 8929 C 836.404 1.86632 -0.585495 0
M  V30 8930 C 836.784 1.89156 0.937187 0
M  V30 8931 O 836.132 1.38247 1.81934 0
M  V30 8932 C 836.342 3.27481 -1.20652 0
M  V30 8933 C 837.69 4.03971 -1.30738 0
M  V30 8934 O 838.714 3.3675 -1.16096 0
M  V30 8935 O 837.573 5.24302 -1.54173 0
M  V30 8936 H 834.667 0.802704 -0.198984 0
M  V30 8937 H 837.213 1.30122 -1.08933 0
M  V30 8938 H 835.985 3.20281 -2.24802 0
M  V30 8939 H 835.608 3.91597 -0.688312 0
M  V30 8940 N 836.605 0.766683 1.37694 0
M  V30 8941 C 837.835 0.339446 2.03792 0
M  V30 8942 C 838.243 -1.04153 1.57952 0
M  V30 8943 O 837.586 -1.67521 0.753826 0
M  V30 8944 C 837.648 0.29822 3.58261 0
M  V30 8945 C 837.312 1.62293 4.27212 0
M  V30 8946 C 838.309 2.57447 4.51682 0
M  V30 8947 C 835.994 1.89597 4.65143 0
M  V30 8948 C 837.988 3.78117 5.13134 0
M  V30 8949 C 835.675 3.10538 5.26317 0
M  V30 8950 C 836.673 4.04617 5.50249 0
M  V30 8951 O 836.361 5.23429 6.10145 0
M  V30 8952 H 836.093 0.140952 0.661142 0
M  V30 8953 H 838.647 1.04022 1.77111 0
M  V30 8954 H 836.877 -0.458897 3.83967 0
M  V30 8955 H 838.566 -0.101263 4.05774 0
M  V30 8956 H 839.332 2.37633 4.22795 0
M  V30 8957 H 835.211 1.17199 4.45854 0
M  V30 8958 H 838.755 4.51563 5.3173 0
M  V30 8959 H 834.652 3.3024 5.54628 0
M  V30 8960 H 835.42 5.24187 6.28626 0
M  V30 8961 N 838.083 -1.48885 0.516809 0
M  V30 8962 C 839.499 -1.58651 0.173788 0
M  V30 8963 C 839.699 -1.52033 -1.32243 0
M  V30 8964 O 838.755 -1.40251 -2.09967 0
M  V30 8965 C 840.068 -2.90816 0.764628 0
M  V30 8966 C 841.616 -3.04316 0.732164 0
M  V30 8967 C 842.091 -4.39123 1.30135 0
M  V30 8968 N 843.582 -4.45656 1.26273 0
M  V30 8969 C 844.317 -5.48446 1.67317 0
M  V30 8970 N 843.813 -6.58258 2.16028 0
M  V30 8971 N 845.606 -5.39251 1.58635 0
M  V30 8972 H 837.757 -1.5143 1.48939 0
M  V30 8973 H 840.02 -0.718243 0.618733 0
M  V30 8974 H 839.726 -3.01275 1.81456 0
M  V30 8975 H 839.6 -3.76473 0.234113 0
M  V30 8976 H 841.987 -2.93478 -0.308975 0
M  V30 8977 H 842.068 -2.20303 1.3 0
M  V30 8978 H 841.712 -4.50714 2.34135 0
M  V30 8979 H 841.642 -5.21801 0.709305 0
M  V30 8980 H 844.133 -3.66879 0.906006 0
M  V30 8981 H 844.446 -7.32811 2.45374 0
M  V30 8982 H 842.791 -6.59257 2.20013 0
M  V30 8983 H 845.982 -4.52354 1.20387 0
M  V30 8984 H 846.155 -6.19229 1.90944 0
M  V30 8985 N 839.561 -0.251338 -1.55583 0
M  V30 8986 C 840.508 0.646337 -2.21565 0
M  V30 8987 C 841.478 1.16796 -1.18102 0
M  V30 8988 O 842.663 1.22162 -1.46564 0
M  V30 8989 C 839.803 1.83557 -2.92234 0
M  V30 8990 C 838.916 1.35006 -4.10363 0
M  V30 8991 C 838.051 2.4992 -4.68736 0
M  V30 8992 C 837.09 1.98253 -5.79105 0
M  V30 8993 N 836.227 3.06551 -6.31642 0
M  V30 8994 H 841.067 0.0769881 -2.97901 0
M  V30 8995 H 838.604 0.026238 -1.47077 0
M  V30 8996 H 840.562 2.53425 -3.31408 0
M  V30 8997 H 839.192 2.37733 -2.18364 0
M  V30 8998 H 838.244 0.545274 -3.76472 0
M  V30 8999 H 839.556 0.931435 -4.90026 0
M  V30 9000 H 838.71 3.27823 -5.10507 0
M  V30 9001 H 837.449 2.95086 -3.88298 0
M  V30 9002 H 836.454 1.18822 -5.36807 0
M  V30 9003 H 837.679 1.54051 -6.61396 0
M  V30 9004 H 835.625 3.51143 -5.54107 0
M  V30 9005 H 835.542 2.69033 -7.06511 0
M  V30 9006 H 836.81 3.84499 -6.78071 0
M  V30 9007 N 841.039 1.57585 0.0217189 0
M  V30 9008 C 841.987 2.08134 1.03842 0
M  V30 9009 C 842.981 0.996662 1.36978 0
M  V30 9010 O 844.187 1.18149 1.35797 0
M  V30 9011 H 840.562 0.664298 0.352438 0
M  V30 9012 H 842.533 2.92583 0.58634 0
M  V30 9013 C 841.282 2.58218 2.32849 0
M  V30 9014 H 840.605 3.41302 2.08214 0
M  V30 9015 H 842.045 2.97289 3.02316 0
M  V30 9016 C 840.504 1.48664 3.02325 0
M  V30 9017 O 841.034 0.857075 3.9245 0
M  V30 9018 N 839.24 1.21938 2.63779 0
M  V30 9019 H 838.787 1.73319 1.90574 0
M  V30 9020 H 838.745 0.488523 3.10581 0
M  V30 9021 N 842.517 -0.29412 1.54831 0
M  V30 9022 C 843.449 -1.38476 1.82639 0
M  V30 9023 C 844.462 -1.46517 0.709694 0
M  V30 9024 O 845.651 -1.48712 0.987269 0
M  V30 9025 C 842.751 -2.76791 1.95551 0
M  V30 9026 C 841.924 -2.91599 3.26019 0
M  V30 9027 C 840.983 -4.10456 3.29261 0
M  V30 9028 O 840.009 -4.02214 4.02756 0
M  V30 9029 N 841.211 -5.21422 2.55145 0
M  V30 9030 H 843.976 -1.14974 2.76769 0
M  V30 9031 H 841.537 -0.484206 1.5449 0
M  V30 9032 H 843.529 -3.5456 1.95113 0
M  V30 9033 H 842.099 -2.93209 1.08384 0
M  V30 9034 H 841.319 -2.00886 3.39173 0
M  V30 9035 H 842.607 -2.98409 4.12104 0
M  V30 9036 H 842.005 -5.31 1.95078 0
M  V30 9037 H 840.562 -5.97501 2.60454 0
M  V30 9038 N 843.995 -1.47404 -0.557645 0
M  V30 9039 C 844.905 -1.62491 -1.69216 0
M  V30 9040 C 845.921 -0.507764 -1.66426 0
M  V30 9041 O 847.097 -0.775241 -1.85882 0
M  V30 9042 C 844.162 -1.63511 -3.05721 0
M  V30 9043 C 843.223 -2.86648 -3.1958 0
M  V30 9044 C 842.456 -2.87609 -4.49574 0
M  V30 9045 O 842.679 -1.97799 -5.35006 0
M  V30 9046 O 841.613 -3.79465 -4.67215 0
M  V30 9047 H 845.439 -2.58487 -1.59431 0
M  V30 9048 H 843.024 -1.30485 -0.7276 0
M  V30 9049 H 844.906 -1.66863 -3.86956 0
M  V30 9050 H 843.581 -0.706812 -3.15889 0
M  V30 9051 H 842.488 -2.8884 -2.37744 0
M  V30 9052 H 843.821 -3.7877 -3.14316 0
M  V30 9053 N 845.473 0.80434 -1.35529 0
M  V30 9054 C 846.703 1.59052 -1.31856 0
M  V30 9055 C 847.111 1.88905 0.105549 0
M  V30 9056 O 846.454 1.49422 1.06858 0
M  V30 9057 C 846.516 2.94626 -2.06 0
M  V30 9058 C 846.18 2.87576 -3.55175 0
M  V30 9059 C 847.177 2.60856 -4.49722 0
M  V30 9060 C 844.862 3.06623 -3.97854 0
M  V30 9061 C 846.856 2.53262 -5.84925 0
M  V30 9062 C 844.543 2.98652 -5.33151 0
M  V30 9063 C 845.541 2.72007 -6.26499 0
M  V30 9064 O 845.229 2.64003 -7.59314 0
M  V30 9065 H 844.961 0.500486 -0.454411 0
M  V30 9066 H 847.515 1.0074 -1.78999 0
M  V30 9067 H 845.745 3.5493 -1.53498 0
M  V30 9068 H 847.434 3.55785 -1.95376 0
M  V30 9069 H 848.2 2.45858 -4.18066 0
M  V30 9070 H 844.079 3.26372 -3.2558 0
M  V30 9071 H 847.623 2.32386 -6.57756 0
M  V30 9072 H 843.52 3.13208 -5.64421 0
M  V30 9073 H 844.288 2.79595 -7.69265 0
M  V30 9074 N 846.951 1.19563 1.02676 0
M  V30 9075 C 848.2 0.993864 1.75514 0
M  V30 9076 C 848.513 -0.475882 1.89723 0
M  V30 9077 O 849.719 -0.796525 2.59553 0
M  V30 9078 C 848.175 1.72937 3.15628 0
M  V30 9079 C 847.783 3.23937 3.09466 0
M  V30 9080 C 849.527 1.61092 3.92746 0
M  V30 9081 C 847.434 3.90067 4.44524 0
M  V30 9082 H 846.364 0.368244 0.657961 0
M  V30 9083 H 849.015 1.43081 1.14891 0
M  V30 9084 H 847.397 1.22025 3.76731 0
M  V30 9085 H 848.571 3.81983 2.57731 0
M  V30 9086 H 846.886 3.3608 2.45843 0
M  V30 9087 H 849.483 2.07848 4.92649 0
M  V30 9088 H 849.826 0.565415 4.12442 0
M  V30 9089 H 850.359 2.09361 3.3825 0
M  V30 9090 H 847.098 4.94725 4.30032 0
M  V30 9091 H 846.618 3.36809 4.96306 0
M  V30 9092 H 848.297 3.93736 5.13401 0
M  V30 9093 N 848.429 -1.21819 0.999893 0
M  V30 9094 C 849.392 -2.22227 0.561044 0
M  V30 9095 C 850.392 -1.56722 -0.359858 0
M  V30 9096 O 851.582 -1.73546 -0.150848 0
M  V30 9097 C 848.714 -3.40409 -0.182987 0
M  V30 9098 H 849.907 -2.62567 1.44909 0
M  V30 9099 H 847.46 -1.34991 0.78785 0
M  V30 9100 H 848.195 -3.05551 -1.08671 0
M  V30 9101 H 847.98 -3.89171 0.47833 0
M  V30 9102 H 849.47 -4.14856 -0.477952 0
M  V30 9103 N 849.908 -0.773975 -1.37286 0
M  V30 9104 C 850.855 -0.159938 -2.30245 0
M  V30 9105 C 851.825 0.687356 -1.51211 0
M  V30 9106 O 853.01 0.639255 -1.79773 0
M  V30 9107 C 850.15 0.711452 -3.37687 0
M  V30 9108 C 849.263 -0.152692 -4.3173 0
M  V30 9109 C 848.398 0.723613 -5.26248 0
M  V30 9110 C 847.437 -0.14293 -6.11933 0
M  V30 9111 N 846.574 0.691479 -6.98687 0
M  V30 9112 H 851.414 -0.958182 -2.82175 0
M  V30 9113 H 848.951 -0.48411 -1.38906 0
M  V30 9114 H 850.909 1.2315 -3.9861 0
M  V30 9115 H 849.539 1.47528 -2.87116 0
M  V30 9116 H 848.591 -0.790574 -3.72094 0
M  V30 9117 H 849.903 -0.821027 -4.91997 0
M  V30 9118 H 849.057 1.31006 -5.92387 0
M  V30 9119 H 847.796 1.42562 -4.66398 0
M  V30 9120 H 846.801 -0.7419 -5.44771 0
M  V30 9121 H 848.026 -0.842305 -6.73856 0
M  V30 9122 H 845.972 1.37806 -6.41362 0
M  V30 9123 H 845.889 0.0804911 -7.55957 0
M  V30 9124 H 847.157 1.26225 -7.69212 0
M  V30 9125 N 851.386 1.48609 -0.524698 0
M  V30 9126 C 852.318 2.27508 0.278 0
M  V30 9127 C 853.331 1.35042 0.909258 0
M  V30 9128 O 854.52 1.60136 0.788592 0
M  V30 9129 C 851.62 3.08247 1.40843 0
M  V30 9130 C 850.793 4.28455 0.880083 0
M  V30 9131 C 849.852 4.91048 1.891 0
M  V30 9132 O 848.878 5.5042 1.45005 0
M  V30 9133 N 850.08 4.82816 3.22288 0
M  V30 9134 H 852.845 2.97037 -0.398642 0
M  V30 9135 H 850.406 1.57876 -0.358698 0
M  V30 9136 H 852.398 3.46992 2.08276 0
M  V30 9137 H 850.968 2.41173 1.98883 0
M  V30 9138 H 850.188 3.94189 0.0299228 0
M  V30 9139 H 851.476 5.06279 0.505881 0
M  V30 9140 H 850.874 4.3572 3.60783 0
M  V30 9141 H 849.431 5.25676 3.85368 0
M  V30 9142 N 852.864 0.259585 1.55447 0
M  V30 9143 C 854.111 -0.361607 1.99245 0
M  V30 9144 C 854.439 -1.57017 1.14787 0
M  V30 9145 O 853.694 -1.94658 0.201724 0
M  V30 9146 C 853.993 -0.802727 3.48269 0
M  V30 9147 C 853.659 0.299472 4.49904 0
M  V30 9148 C 852.321 0.602157 4.77418 0
M  V30 9149 C 854.673 1.04295 5.10658 0
M  V30 9150 C 852.001 1.65217 5.62957 0
M  V30 9151 C 854.353 2.08257 5.97337 0
M  V30 9152 C 853.017 2.39177 6.23178 0
M  V30 9153 H 852.287 -0.132322 0.72909 0
M  V30 9154 H 854.934 0.370059 1.8789 0
M  V30 9155 H 853.239 -1.61381 3.5702 0
M  V30 9156 H 854.936 -1.29385 3.79553 0
M  V30 9157 H 851.526 0.0534256 4.28567 0
M  V30 9158 H 855.71 0.822358 4.89439 0
M  V30 9159 H 850.966 1.89692 5.81229 0
M  V30 9160 H 855.14 2.6635 6.43452 0
M  V30 9161 H 852.767 3.20677 6.89253 0
M  V30 9162 N 854.342 -1.57594 -0.0133615 0
M  V30 9163 C 855.59 -1.89605 -0.699596 0
M  V30 9164 C 855.911 -0.85926 -1.75048 0
M  V30 9165 O 855.181 0.105112 -1.95618 0
M  V30 9166 H 853.761 -0.699776 -0.261385 0
M  V30 9167 H 856.423 -1.94885 0.0244044 0
M  V30 9168 H 855.519 -2.88962 -1.17928 0
M  V30 9169 N 855.82 0.285905 -1.54985 0
M  V30 9170 C 857.067 1.0192 -1.74982 0
M  V30 9171 C 857.395 1.86743 -0.543816 0
M  V30 9172 O 856.65 1.89874 0.473972 0
M  V30 9173 C 856.949 1.94193 -3.0004 0
M  V30 9174 C 856.615 1.25225 -4.33162 0
M  V30 9175 C 855.277 1.06149 -4.69346 0
M  V30 9176 C 857.629 0.760427 -5.15623 0
M  V30 9177 C 854.957 0.365991 -5.85557 0
M  V30 9178 C 857.309 0.0785787 -6.32551 0
M  V30 9179 C 855.973 -0.124002 -6.67385 0
M  V30 9180 H 855.243 0.372951 -0.640304 0
M  V30 9181 H 857.89 0.292652 -1.89251 0
M  V30 9182 H 856.195 2.73426 -2.80616 0
M  V30 9183 H 857.892 2.51029 -3.12707 0
M  V30 9184 H 854.482 1.41081 -4.04715 0
M  V30 9185 H 858.666 0.895466 -4.88155 0
M  V30 9186 H 853.922 0.198193 -6.11079 0
M  V30 9187 H 858.096 -0.310339 -6.95708 0
M  V30 9188 H 855.723 -0.664918 -7.57287 0
M  V30 9189 N 857.298 1.47698 0.54982 0
M  V30 9190 C 858.231 1.55288 1.67215 0
M  V30 9191 C 859.209 0.404533 1.57487 0
M  V30 9192 O 860.393 0.613372 1.78241 0
M  V30 9193 C 857.52 1.46233 3.05505 0
M  V30 9194 C 856.566 2.65662 3.33655 0
M  V30 9195 S 857.399 4.278 3.22098 0
M  V30 9196 C 858.555 4.21311 4.62869 0
M  V30 9197 H 858.788 2.50238 1.60524 0
M  V30 9198 H 856.321 1.35987 0.731227 0
M  V30 9199 H 858.279 1.41696 3.85269 0
M  V30 9200 H 856.94 0.526543 3.09655 0
M  V30 9201 H 856.133 2.55411 4.3449 0
M  V30 9202 H 855.735 2.67359 2.61524 0
M  V30 9203 H 858.027 3.90021 5.53977 0
M  V30 9204 H 858.97 5.22257 4.78177 0
M  V30 9205 H 859.378 3.52063 4.41262 0
M  V30 9206 N 858.776 -0.797141 1.35954 0
M  V30 9207 C 859.708 -1.91782 1.25509 0
M  V30 9208 C 860.721 -1.61843 0.176271 0
M  V30 9209 O 861.91 -1.73235 0.430343 0
M  V30 9210 C 859.01 -3.26396 0.912073 0
M  V30 9211 C 858.183 -3.84171 2.0912 0
M  V30 9212 C 857.242 -4.9721 1.72246 0
M  V30 9213 O 856.268 -5.14136 2.44239 0
M  V30 9214 N 857.47 -5.76831 0.651611 0
M  V30 9215 H 860.235 -2.01266 2.22063 0
M  V30 9216 H 857.796 -0.975033 1.29247 0
M  V30 9217 H 859.788 -3.99499 0.646707 0
M  V30 9218 H 858.358 -3.12579 0.0359079 0
M  V30 9219 H 857.578 -3.03148 2.51982 0
M  V30 9220 H 858.866 -4.19503 2.87914 0
M  V30 9221 H 858.264 -5.65675 0.0536678 0
M  V30 9222 H 856.821 -6.50272 0.44605 0
M  V30 9223 N 860.254 -1.20106 -1.0204 0
M  V30 9224 C 861.201 -0.946468 -2.10501 0
M  V30 9225 C 862.171 0.121902 -1.65652 0
M  V30 9226 O 863.356 -0.0220244 -1.90787 0
M  V30 9227 C 860.496 -0.500499 -3.41451 0
M  V30 9228 C 859.609 -1.63659 -3.998 0
M  V30 9229 C 858.744 -1.14131 -5.18794 0
M  V30 9230 C 857.783 -2.25074 -5.69217 0
M  V30 9231 N 856.92 -1.76791 -6.79477 0
M  V30 9232 H 861.76 -1.87506 -2.31615 0
M  V30 9233 H 859.297 -0.934693 -1.13587 0
M  V30 9234 H 861.255 -0.223276 -4.16602 0
M  V30 9235 H 859.885 0.391099 -3.20422 0
M  V30 9236 H 858.937 -2.02882 -3.21781 0
M  V30 9237 H 860.249 -2.47213 -4.33229 0
M  V30 9238 H 859.403 -0.819826 -6.01135 0
M  V30 9239 H 858.142 -0.275615 -4.86921 0
M  V30 9240 H 857.147 -2.58043 -4.85483 0
M  V30 9241 H 858.372 -3.12114 -6.03127 0
M  V30 9242 H 856.318 -0.925428 -6.4944 0
M  V30 9243 H 856.235 -2.53928 -7.12079 0
M  V30 9244 H 857.503 -1.47631 -7.65392 0
M  V30 9245 N 861.732 1.21287 -1.00634 0
M  V30 9246 C 862.664 2.2308 -0.526094 0
M  V30 9247 C 863.677 1.58157 0.386031 0
M  V30 9248 O 864.866 1.77528 0.186016 0
M  V30 9249 C 861.966 3.37937 0.255289 0
M  V30 9250 C 861.139 4.32449 -0.656236 0
M  V30 9251 C 860.198 5.26145 0.0757714 0
M  V30 9252 O 859.224 5.66601 -0.543325 0
M  V30 9253 N 860.426 5.6449 1.35391 0
M  V30 9254 H 863.191 2.64913 -1.40147 0
M  V30 9255 H 860.752 1.35724 -0.882641 0
M  V30 9256 H 862.744 3.97614 0.753977 0
M  V30 9257 H 861.314 2.95078 1.03187 0
M  V30 9258 H 860.534 3.70892 -1.3354 0
M  V30 9259 H 861.822 4.92526 -1.27653 0
M  V30 9260 H 861.22 5.33617 1.878 0
M  V30 9261 H 859.777 6.26524 1.79753 0
M  V30 9262 N 863.21 0.781244 1.36873 0
M  V30 9263 C 864.459 0.34652 1.98701 0
M  V30 9264 C 864.772 -1.08555 1.62712 0
M  V30 9265 O 865.978 -1.62213 2.17713 0
M  V30 9266 C 864.434 0.568611 3.5538 0
M  V30 9267 C 864.042 2.01156 4.003 0
M  V30 9268 C 865.786 0.197983 4.24038 0
M  V30 9269 C 863.693 2.18074 5.49725 0
M  V30 9270 H 862.623 0.125821 0.743428 0
M  V30 9271 H 865.274 0.961721 1.56279 0
M  V30 9272 H 863.656 -0.116185 3.9583 0
M  V30 9273 H 864.83 2.73209 3.71071 0
M  V30 9274 H 863.145 2.33967 3.44454 0
M  V30 9275 H 865.742 0.302778 5.33842 0
M  V30 9276 H 866.085 -0.852927 4.07469 0
M  V30 9277 H 866.618 0.835696 3.88923 0
M  V30 9278 H 863.357 3.21519 5.71232 0
M  V30 9279 H 862.877 1.50517 5.80607 0
M  V30 9280 H 864.556 1.98393 6.15832 0
M  V30 9281 N 864.689 -1.48329 0.532571 0
M  V30 9282 C 865.937 -2.021 -0.000581206 0
M  V30 9283 C 866.258 -1.4117 -1.34522 0
M  V30 9284 O 865.528 -0.578005 -1.87179 0
M  V30 9285 H 864.108 -0.746993 -0.00320281 0
M  V30 9286 H 866.77 -1.82011 0.696991 0
M  V30 9287 H 865.866 -3.11917 -0.106991 0
M  V30 9288 N 866.167 -0.267825 -1.55308 0
M  V30 9289 C 867.397 0.354073 -2.03543 0
M  V30 9290 C 867.805 1.50554 -1.14586 0
M  V30 9291 O 867.148 1.83028 -0.156991 0
M  V30 9292 C 867.21 0.904148 -3.47945 0
M  V30 9293 C 866.874 -0.11775 -4.56848 0
M  V30 9294 C 867.871 -0.934707 -5.11429 0
M  V30 9295 C 865.556 -0.249885 -5.01678 0
M  V30 9296 C 867.55 -1.87005 -6.0935 0
M  V30 9297 C 865.237 -1.18872 -5.99427 0
M  V30 9298 C 866.235 -1.99731 -6.53144 0
M  V30 9299 O 865.923 -2.92028 -7.48983 0
M  V30 9300 H 865.655 0.0857765 -0.670536 0
M  V30 9301 H 868.209 -0.395515 -2.01556 0
M  V30 9302 H 866.439 1.70368 -3.47148 0
M  V30 9303 H 868.128 1.43835 -3.79561 0
M  V30 9304 H 868.894 -0.84332 -4.77612 0
M  V30 9305 H 864.773 0.369469 -4.59517 0
M  V30 9306 H 868.317 -2.5016 -6.51203 0
M  V30 9307 H 864.214 -1.28095 -6.32663 0
M  V30 9308 H 864.982 -2.86627 -7.66673 0
M  V30 9309 N 867.645 1.57599 0.00500368 0
M  V30 9310 C 868.922 1.81561 0.727654 0
M  V30 9311 C 869.302 0.871604 1.92266 0
M  V30 9312 O 868.65 -0.0808232 2.28357 0
M  V30 9313 C 868.86 3.29922 1.13809 0
M  V30 9314 C 870.208 3.95531 1.54403 0
M  V30 9315 O 871.232 3.34215 1.23202 0
M  V30 9316 O 870.091 5.03535 2.12402 0
M  V30 9317 H 867.185 0.747462 0.353878 0
M  V30 9318 H 869.731 1.69688 -0.0200667 0
M  V30 9319 H 868.503 3.90253 0.286078 0
M  V30 9320 H 868.126 3.46775 1.94507 0
M  V30 9321 N 869.123 -0.277682 1.55134 0
M  V30 9322 C 870.369 -1.0114 1.7578 0
M  V30 9323 C 870.702 -1.86109 0.554719 0
M  V30 9324 O 869.977 -1.89275 -0.447813 0
M  V30 9325 C 870.26 -1.89789 3.06027 0
M  V30 9326 C 870.113 -1.07844 4.3668 0
M  V30 9327 C 871.432 -2.88577 3.32282 0
M  V30 9328 H 868.551 -0.366277 0.639539 0
M  V30 9329 H 871.193 -0.284155 1.87863 0
M  V30 9330 H 869.343 -2.51796 2.95856 0
M  V30 9331 H 871.015 -0.479432 4.58802 0
M  V30 9332 H 869.258 -0.381764 4.32117 0
M  V30 9333 H 869.929 -1.73179 5.24131 0
M  V30 9334 H 872.405 -2.36702 3.42215 0
M  V30 9335 H 871.281 -3.47749 4.2469 0
M  V30 9336 H 871.542 -3.63458 2.51696 0
M  V30 9337 N 870.601 -1.47988 -0.541979 0
M  V30 9338 C 871.531 -1.64503 -1.65713 0
M  V30 9339 C 872.512 -0.494116 -1.62765 0
M  V30 9340 O 873.697 -0.725256 -1.80149 0
M  V30 9341 C 870.827 -1.67337 -3.04328 0
M  V30 9342 C 869.781 -2.81809 -3.2213 0
M  V30 9343 C 869.107 -2.69724 -4.61685 0
M  V30 9344 C 870.407 -4.23241 -3.06046 0
M  V30 9345 H 872.101 -2.5786 -1.52147 0
M  V30 9346 H 869.647 -1.24094 -0.730529 0
M  V30 9347 H 871.6 -1.77481 -3.82202 0
M  V30 9348 H 870.324 -0.705514 -3.18889 0
M  V30 9349 H 868.983 -2.71201 -2.46669 0
M  V30 9350 H 868.631 -1.70934 -4.73065 0
M  V30 9351 H 868.331 -3.4653 -4.74543 0
M  V30 9352 H 869.855 -2.81818 -5.41674 0
M  V30 9353 H 871.269 -4.34746 -3.73723 0
M  V30 9354 H 869.666 -5.00952 -3.30405 0
M  V30 9355 H 870.736 -4.40543 -2.02609 0
M  V30 9356 N 872.079 0.78992 -1.36375 0
M  V30 9357 C 873.042 1.88414 -1.30509 0
M  V30 9358 C 874.042 1.59384 -0.2129 0
M  V30 9359 O 875.232 1.67805 -0.467651 0
M  V30 9360 C 872.364 3.25188 -1.02302 0
M  V30 9361 H 873.557 1.95031 -2.27822 0
M  V30 9362 H 871.11 0.987664 -1.2114 0
M  V30 9363 H 871.845 3.24254 -0.0544486 0
M  V30 9364 H 871.63 3.47647 -1.81338 0
M  V30 9365 H 873.12 4.05252 -1.00801 0
M  V30 9366 N 873.557 1.20646 1.01402 0
M  V30 9367 C 874.467 0.973385 2.13453 0
M  V30 9368 C 875.483 -0.0715865 1.73853 0
M  V30 9369 O 876.659 0.116438 2.01063 0
M  V30 9370 C 873.724 0.531285 3.42605 0
M  V30 9371 C 872.785 1.64741 3.96433 0
M  V30 9372 C 872.018 1.22631 5.1942 0
M  V30 9373 O 872.241 0.0960891 5.70319 0
M  V30 9374 O 871.175 2.03474 5.66465 0
M  V30 9375 H 875.001 1.91164 2.35987 0
M  V30 9376 H 872.586 0.990553 1.11841 0
M  V30 9377 H 874.468 0.294095 4.20373 0
M  V30 9378 H 873.143 -0.378358 3.21481 0
M  V30 9379 H 872.05 1.93891 3.19933 0
M  V30 9380 H 873.383 2.53415 4.2195 0
M  V30 9381 N 875.035 -1.20752 1.01276 0
M  V30 9382 C 876.312 -1.85676 0.615112 0
M  V30 9383 C 876.692 -1.90623 -0.906976 0
M  V30 9384 O 876.04 -1.41124 -1.79712 0
M  V30 9385 C 876.25 -3.2552 1.25847 0
M  V30 9386 C 877.598 -4.0184 1.37148 0
M  V30 9387 O 878.622 -3.3486 1.21438 0
M  V30 9388 O 877.481 -5.21783 1.62495 0
M  V30 9389 H 874.575 -0.799437 0.211729 0
M  V30 9390 H 877.121 -1.28372 1.10989 0
M  V30 9391 H 875.893 -3.16664 2.29869 0
M  V30 9392 H 875.516 -3.90452 0.750524 0
M  V30 9393 N 876.513 -0.788492 -1.36457 0
M  V30 9394 C 877.741 -0.372365 -2.03522 0
M  V30 9395 C 878.156 1.01093 -1.59454 0
M  V30 9396 O 877.513 1.64824 -0.783535 0
M  V30 9397 C 877.564 -0.425435 -3.58988 0
M  V30 9398 O 877.285 -1.75418 -4.01448 0
M  V30 9399 C 878.786 0.000180167 -4.433 0
M  V30 9400 H 876.006 -0.1536 -0.653183 0
M  V30 9401 H 878.55 -1.06708 -1.74452 0
M  V30 9402 H 876.705 0.220856 -3.8677 0
M  V30 9403 H 877.119 -1.70437 -4.96036 0
M  V30 9404 H 878.593 -0.0880919 -5.5193 0
M  V30 9405 H 879.07 1.05269 -4.26398 0
M  V30 9406 H 879.676 -0.618563 -4.20778 0
M  V30 9407 N 877.991 1.48044 -0.54043 0
M  V30 9408 C 879.24 2.01698 -0.00809961 0
M  V30 9409 C 879.553 1.42184 1.34325 0
M  V30 9410 O 880.759 1.87398 1.96454 0
M  V30 9411 C 879.215 3.59882 0.035933 0
M  V30 9412 C 878.823 4.28384 -1.31115 0
M  V30 9413 C 880.567 4.21346 0.51654 0
M  V30 9414 C 878.474 5.78529 -1.22714 0
M  V30 9415 H 877.404 0.754 0.000742174 0
M  V30 9416 H 880.055 1.70204 -0.685775 0
M  V30 9417 H 878.437 3.88264 0.778906 0
M  V30 9418 H 879.611 4.11663 -2.07051 0
M  V30 9419 H 877.926 3.78837 -1.72834 0
M  V30 9420 H 880.523 5.31351 0.597529 0
M  V30 9421 H 880.866 3.87373 1.52473 0
M  V30 9422 H 881.399 3.97432 -0.171064 0
M  V30 9423 H 878.138 6.17093 -2.21081 0
M  V30 9424 H 877.658 5.97634 -0.50931 0
M  V30 9425 H 879.337 6.40395 -0.92216 0
M  V30 9426 N 879.47 0.276058 1.55163 0
M  V30 9427 C 880.698 -0.343772 2.04024 0
M  V30 9428 C 881.113 -1.49397 1.15438 0
M  V30 9429 O 880.47 -1.81662 0.174692 0
M  V30 9430 C 880.521 -0.823885 3.51986 0
M  V30 9431 O 880.242 0.280507 4.37201 0
M  V30 9432 C 881.743 -1.51143 4.16738 0
M  V30 9433 H 878.963 -0.07828 0.666418 0
M  V30 9434 H 881.507 0.408427 2.0038 0
M  V30 9435 H 879.662 -1.52617 3.56071 0
M  V30 9436 H 880.076 -0.0887831 5.24425 0
M  V30 9437 H 881.55 -1.79878 5.2187 0
M  V30 9438 H 882.027 -2.44327 3.64967 0
M  V30 9439 H 882.633 -0.852975 4.16659 0
M  V30 9440 N 880.948 -1.576 0.00335426 0
M  V30 9441 C 881.911 -2.07576 -0.971838 0
M  V30 9442 C 882.911 -0.985796 -1.27038 0
M  V30 9443 O 884.101 -1.24833 -1.21501 0
M  V30 9444 C 881.233 -2.52003 -2.29581 0
M  V30 9445 H 882.426 -2.95008 -0.539481 0
M  V30 9446 H 879.979 -1.54381 -0.244186 0
M  V30 9447 H 880.714 -1.67825 -2.77498 0
M  V30 9448 H 880.499 -3.31609 -2.09231 0
M  V30 9449 H 881.989 -2.90983 -2.99531 0
M  V30 9450 N 882.426 0.269451 -1.5528 0
M  V30 9451 C 883.356 1.33729 -1.91413 0
M  V30 9452 C 884.337 1.51348 -0.776391 0
M  V30 9453 O 885.522 1.64332 -1.03482 0
M  V30 9454 C 882.652 2.69618 -2.18914 0
M  V30 9455 C 881.606 2.66725 -3.34726 0
M  V30 9456 C 880.932 4.06199 -3.47716 0
M  V30 9457 C 882.232 2.25684 -4.71025 0
M  V30 9458 H 883.926 1.03736 -2.80854 0
M  V30 9459 H 881.472 0.497579 -1.3513 0
M  V30 9460 H 883.425 3.44436 -2.42779 0
M  V30 9461 H 882.149 3.01201 -1.26275 0
M  V30 9462 H 880.808 1.94365 -3.10834 0
M  V30 9463 H 880.456 4.3501 -2.52537 0
M  V30 9464 H 880.156 4.05157 -4.25583 0
M  V30 9465 H 881.68 4.8275 -3.73877 0
M  V30 9466 H 883.094 2.90225 -4.94411 0
M  V30 9467 H 881.491 2.35797 -5.51833 0
M  V30 9468 H 882.561 1.20819 -4.69607 0
M  V30 9469 N 883.904 1.48273 0.534124 0
M  V30 9470 C 884.834 1.6538 1.64839 0
M  V30 9471 C 885.815 0.502741 1.62501 0
M  V30 9472 O 887 0.734799 1.79762 0
M  V30 9473 C 884.13 1.68949 3.03436 0
M  V30 9474 C 883.084 2.83513 3.20631 0
M  V30 9475 C 882.41 2.72169 4.60248 0
M  V30 9476 C 883.71 4.24858 3.03797 0
M  V30 9477 H 885.404 2.58663 1.50777 0
M  V30 9478 H 882.95 1.24479 0.723937 0
M  V30 9479 H 884.903 1.79505 3.81256 0
M  V30 9480 H 883.627 0.722415 3.1851 0
M  V30 9481 H 882.286 2.72505 2.45227 0
M  V30 9482 H 881.934 1.7344 4.72152 0
M  V30 9483 H 881.634 3.49042 4.72698 0
M  V30 9484 H 883.158 2.84687 5.40172 0
M  V30 9485 H 884.572 4.36721 3.71413 0
M  V30 9486 H 882.969 5.02697 3.27743 0
M  V30 9487 H 884.039 4.41611 2.0027 0
M  V30 9488 N 885.382 -0.782676 1.36792 0
M  V30 9489 C 886.332 -1.8855 1.28191 0
M  V30 9490 C 887.316 -1.59978 0.171984 0
M  V30 9491 O 888.508 -1.72295 0.405405 0
M  V30 9492 C 885.637 -3.25862 1.08021 0
M  V30 9493 C 884.723 -3.60422 2.2351 0
M  V30 9494 N 885.114 -3.66241 3.48857 0
M  V30 9495 C 883.412 -3.90523 2.15424 0
M  V30 9496 C 884.113 -3.97233 4.24948 0
M  V30 9497 N 883.089 -4.12567 3.53963 0
M  V30 9498 H 886.891 -1.91285 2.23131 0
M  V30 9499 H 884.405 -0.978554 1.29607 0
M  V30 9500 H 886.402 -4.04742 0.999458 0
M  V30 9501 H 885.062 -3.24399 0.139882 0
M  V30 9502 H 886.073 -3.48717 3.82906 0
M  V30 9503 H 882.75 -3.96945 1.29386 0
M  V30 9504 H 884.14 -4.08602 5.33379 0
M  V30 9505 N 886.86 -1.21182 -1.00761 0
M  V30 9506 C 887.808 -0.965728 -2.11604 0
M  V30 9507 C 888.802 0.0861028 -1.69181 0
M  V30 9508 O 890.008 -0.0650558 -1.79882 0
M  V30 9509 H 886.383 -0.295023 -0.691712 0
M  V30 9510 H 888.354 -1.90667 -2.2954 0
M  V30 9511 C 887.103 -0.544164 -3.43415 0
M  V30 9512 H 886.426 -1.34515 -3.76491 0
M  V30 9513 H 887.866 -0.411268 -4.22001 0
M  V30 9514 C 886.325 0.744583 -3.28569 0
M  V30 9515 O 886.855 1.80078 -3.59075 0
M  V30 9516 N 885.061 0.710083 -2.81791 0
M  V30 9517 H 884.608 -0.14971 -2.57165 0
M  V30 9518 H 884.566 1.57268 -2.72239 0
M  V30 9519 N 888.338 1.20213 -1.01915 0
M  V30 9520 C 889.286 2.25125 -0.584936 0
M  V30 9521 C 890.28 1.65138 0.377602 0
M  V30 9522 O 891.486 1.78294 0.247245 0
M  V30 9523 H 887.861 0.732333 -0.170858 0
M  V30 9524 H 889.832 2.59075 -1.48063 0
M  V30 9525 C 888.581 3.47651 0.058389 0
M  V30 9526 H 887.904 3.9409 -0.673263 0
M  V30 9527 H 889.344 4.2275 0.325285 0
M  V30 9528 C 887.803 3.10725 1.30199 0
M  V30 9529 O 888.333 3.22491 2.39505 0
M  V30 9530 N 886.539 2.6525 1.18706 0
M  V30 9531 H 886.086 2.55875 0.297618 0
M  V30 9532 H 886.044 2.40913 2.02011 0
M  V30 9533 N 889.816 0.795718 1.36037 0
M  V30 9534 C 891.232 0.478145 1.52269 0
M  V30 9535 C 891.432 -1.0025 1.74792 0
M  V30 9536 O 890.488 -1.78783 1.78305 0
M  V30 9537 C 891.801 1.31406 2.70468 0
M  V30 9538 C 893.349 1.3084 2.84341 0
M  V30 9539 C 893.824 2.12819 4.05551 0
M  V30 9540 N 895.315 2.10298 4.12709 0
M  V30 9541 C 896.05 2.70495 5.05589 0
M  V30 9542 N 895.546 3.39576 6.03871 0
M  V30 9543 N 897.339 2.60195 4.98252 0
M  V30 9544 H 889.49 1.75477 1.19673 0
M  V30 9545 H 891.753 0.74627 0.584624 0
M  V30 9546 H 891.459 2.36435 2.60368 0
M  V30 9547 H 891.333 0.959726 3.64786 0
M  V30 9548 H 893.72 0.266003 2.93899 0
M  V30 9549 H 893.801 1.70254 1.90912 0
M  V30 9550 H 893.445 3.17093 3.96755 0
M  V30 9551 H 893.375 1.70772 4.98141 0
M  V30 9552 H 895.866 1.60026 3.42345 0
M  V30 9553 H 896.179 3.82823 6.71317 0
M  V30 9554 H 894.524 3.43679 6.04077 0
M  V30 9555 H 897.715 2.05823 4.20422 0
M  V30 9556 H 897.888 3.074 5.70447 0
M  V30 9557 N 891.294 -1.47756 0.548274 0
M  V30 9558 C 892.241 -2.29893 -0.204408 0
M  V30 9559 C 893.211 -1.38509 -0.916761 0
M  V30 9560 O 894.396 -1.67472 -0.91421 0
M  V30 9561 C 891.536 -3.22282 -1.23403 0
M  V30 9562 C 890.649 -4.28753 -0.528654 0
M  V30 9563 C 889.784 -5.08303 -1.54279 0
M  V30 9564 C 888.823 -6.06557 -0.821893 0
M  V30 9565 N 887.96 -6.79098 -1.78243 0
M  V30 9566 H 892.8 -2.93739 0.502163 0
M  V30 9567 H 890.337 -1.44793 0.259471 0
M  V30 9568 H 892.295 -3.74262 -1.84348 0
M  V30 9569 H 890.925 -2.6032 -1.90875 0
M  V30 9570 H 889.977 -3.79899 0.195132 0
M  V30 9571 H 891.289 -4.98787 0.0365066 0
M  V30 9572 H 890.443 -5.64388 -2.22602 0
M  V30 9573 H 889.182 -4.3815 -2.14186 0
M  V30 9574 H 888.187 -5.49659 -0.12469 0
M  V30 9575 H 889.412 -6.78715 -0.228685 0
M  V30 9576 H 887.358 -6.11682 -2.37025 0
M  V30 9577 H 887.275 -7.4527 -1.26919 0
M  V30 9578 H 888.543 -7.39762 -2.45709 0
M  V30 9579 N 892.772 -0.284283 -1.55015 0
M  V30 9580 C 893.702 0.592663 -2.25853 0
M  V30 9581 C 894.683 1.15151 -1.25197 0
M  V30 9582 O 895.868 1.18395 -1.53936 0
M  V30 9583 C 892.998 1.77254 -2.98661 0
M  V30 9584 C 891.952 1.34482 -4.06323 0
M  V30 9585 C 891.278 2.60853 -4.66754 0
M  V30 9586 C 892.578 0.488288 -5.20013 0
M  V30 9587 H 894.272 0.00187041 -2.994 0
M  V30 9588 H 891.818 -0.000540402 -1.44 0
M  V30 9589 H 893.771 2.39199 -3.46932 0
M  V30 9590 H 892.495 2.38931 -2.22664 0
M  V30 9591 H 891.154 0.748519 -3.58877 0
M  V30 9592 H 890.802 3.20808 -3.87416 0
M  V30 9593 H 890.502 2.32942 -5.39455 0
M  V30 9594 H 892.026 3.23631 -5.1778 0
M  V30 9595 H 893.44 1.01298 -5.6428 0
M  V30 9596 H 891.837 0.303669 -5.99331 0
M  V30 9597 H 892.907 -0.490727 -4.8241 0
M  V30 9598 N 894.251 1.57596 -0.0117121 0
M  V30 9599 C 895.181 2.12188 0.9746 0
M  V30 9600 C 896.162 1.03379 1.35081 0
M  V30 9601 O 897.347 1.31123 1.4325 0
M  V30 9602 C 894.477 2.63477 2.26268 0
M  V30 9603 C 893.431 3.76917 2.02774 0
M  V30 9604 C 892.757 4.14566 3.37697 0
M  V30 9605 C 894.057 5.03715 1.38089 0
M  V30 9606 H 895.751 2.9485 0.520007 0
M  V30 9607 H 893.297 1.41836 0.248685 0
M  V30 9608 H 895.25 3.00299 2.95633 0
M  V30 9609 H 893.974 1.77953 2.73862 0
M  V30 9610 H 892.633 3.40507 1.35832 0
M  V30 9611 H 892.281 3.26048 3.83016 0
M  V30 9612 H 891.981 4.91 3.22789 0
M  V30 9613 H 893.505 4.53956 4.08358 0
M  V30 9614 H 894.919 5.38233 1.97428 0
M  V30 9615 H 893.316 5.85032 1.33634 0
M  V30 9616 H 894.386 4.83624 0.351575 0
M  V30 9617 N 895.729 -0.261212 1.5542 0
M  V30 9618 C 896.639 -1.34493 1.92221 0
M  V30 9619 C 897.655 -1.53421 0.82086 0
M  V30 9620 O 898.831 -1.6732 1.12099 0
M  V30 9621 C 895.896 -2.68209 2.19692 0
M  V30 9622 C 894.957 -2.57927 3.43179 0
M  V30 9623 C 894.19 -3.85266 3.69331 0
M  V30 9624 O 894.413 -4.86493 2.97793 0
M  V30 9625 O 893.347 -3.8476 4.62865 0
M  V30 9626 H 897.173 -1.06278 2.84497 0
M  V30 9627 H 894.758 -0.460752 1.42118 0
M  V30 9628 H 896.64 -3.47252 2.38734 0
M  V30 9629 H 895.315 -2.96186 1.30597 0
M  V30 9630 H 894.222 -1.77219 3.2946 0
M  V30 9631 H 895.555 -2.34898 4.32532 0
M  V30 9632 N 897.207 -1.48554 -0.526253 0
M  V30 9633 C 898.154 -1.63354 -1.63046 0
M  V30 9634 C 899.124 -0.475509 -1.59148 0
M  V30 9635 O 900.309 -0.699453 -1.77517 0
M  V30 9636 C 897.449 -1.68271 -3.01295 0
M  V30 9637 C 896.562 -2.95207 -3.15399 0
M  V30 9638 C 895.697 -2.91262 -4.4423 0
M  V30 9639 C 894.736 -4.12886 -4.51876 0
M  V30 9640 N 893.873 -4.06996 -5.721 0
M  V30 9641 H 898.713 -2.57649 -1.49737 0
M  V30 9642 H 896.25 -1.27769 -0.728938 0
M  V30 9643 H 898.208 -1.69104 -3.81392 0
M  V30 9644 H 896.838 -0.774641 -3.13367 0
M  V30 9645 H 895.89 -3.04102 -2.2853 0
M  V30 9646 H 897.202 -3.85187 -3.1691 0
M  V30 9647 H 896.356 -2.90516 -5.32621 0
M  V30 9648 H 895.095 -1.99016 -4.45246 0
M  V30 9649 H 894.1 -4.13902 -3.61891 0
M  V30 9650 H 895.325 -5.06294 -4.52596 0
M  V30 9651 H 893.271 -3.17573 -5.74006 0
M  V30 9652 H 893.188 -4.90685 -5.75121 0
M  V30 9653 H 894.456 -4.10315 -6.62768 0
M  V30 9654 N 898.685 0.775411 -1.37205 0
M  V30 9655 C 899.635 1.87867 -1.29189 0
M  V30 9656 C 900.619 1.59885 -0.180466 0
M  V30 9657 O 901.811 1.72077 -0.414536 0
M  V30 9658 C 898.94 3.25285 -1.09748 0
M  V30 9659 C 898.026 3.59231 -2.25419 0
M  V30 9660 N 898.417 3.64386 -3.50795 0
M  V30 9661 C 896.715 3.89375 -2.17492 0
M  V30 9662 C 897.416 3.94974 -4.27048 0
M  V30 9663 N 896.392 4.10684 -3.56146 0
M  V30 9664 H 900.194 1.90099 -2.24142 0
M  V30 9665 H 897.708 0.971667 -1.30125 0
M  V30 9666 H 899.705 4.04207 -1.02091 0
M  V30 9667 H 898.365 3.2432 -0.157083 0
M  V30 9668 H 899.376 3.46682 -3.8475 0
M  V30 9669 H 896.053 3.96254 -1.31489 0
M  V30 9670 H 897.443 4.05768 -5.35539 0
M  V30 9671 N 900.163 1.21714 1.00117 0
M  V30 9672 C 901.412 1.03087 1.73367 0
M  V30 9673 C 901.725 -0.435532 1.90689 0
M  V30 9674 O 902.931 -0.741291 2.61184 0
M  V30 9675 C 901.387 1.79593 3.11888 0
M  V30 9676 C 900.995 3.30428 3.02525 0
M  V30 9677 C 902.739 1.69386 3.89241 0
M  V30 9678 C 900.646 3.99408 4.3615 0
M  V30 9679 H 899.576 0.382117 0.650002 0
M  V30 9680 H 902.227 1.45486 1.11831 0
M  V30 9681 H 900.609 1.29988 3.74058 0
M  V30 9682 H 901.783 3.87364 2.49571 0
M  V30 9683 H 900.098 3.4122 2.38659 0
M  V30 9684 H 902.695 2.18251 4.8813 0
M  V30 9685 H 903.038 0.652773 4.1115 0
M  V30 9686 H 903.571 2.16489 3.33733 0
M  V30 9687 H 900.31 5.03735 4.19442 0
M  V30 9688 H 899.83 3.47261 4.8905 0
M  V30 9689 H 901.509 4.04537 5.04934 0
M  V30 9690 N 901.641 -1.19671 1.02551 0
M  V30 9691 C 902.869 -1.93233 0.739513 0
M  V30 9692 C 903.284 -1.75298 -0.701158 0
M  V30 9693 O 902.641 -1.07269 -1.47647 0
M  V30 9694 C 902.692 -3.45085 1.07697 0
M  V30 9695 O 902.413 -3.62441 2.46106 0
M  V30 9696 C 903.914 -4.35776 0.813298 0
M  V30 9697 H 901.134 -0.613905 0.270853 0
M  V30 9698 H 903.678 -1.51909 1.36909 0
M  V30 9699 H 901.833 -3.84255 0.492635 0
M  V30 9700 H 902.247 -4.56337 2.58567 0
M  V30 9701 H 903.721 -5.40941 1.09941 0
M  V30 9702 H 904.198 -4.38474 -0.252359 0
M  V30 9703 H 904.804 -4.02282 1.38021 0
M  V30 9704 N 903.119 -0.802921 -1.35613 0
M  V30 9705 C 904.082 -0.216422 -2.28176 0
M  V30 9706 C 905.082 0.594101 -1.49422 0
M  V30 9707 O 906.272 0.41312 -1.6923 0
M  V30 9708 C 903.404 0.698746 -3.33662 0
M  V30 9709 H 904.597 -1.03276 -2.81557 0
M  V30 9710 H 902.15 -0.573307 -1.45406 0
M  V30 9711 H 902.885 1.53891 -2.85461 0
M  V30 9712 H 902.67 0.119314 -3.91918 0
M  V30 9713 H 904.16 1.10354 -4.02755 0
M  V30 9714 N 904.597 1.47463 -0.556102 0
M  V30 9715 C 905.56 2.28478 0.181743 0
M  V30 9716 C 906.56 1.36886 0.843738 0
M  V30 9717 O 907.75 1.59527 0.69977 0
M  V30 9718 C 904.882 3.16534 1.26566 0
M  V30 9719 H 906.075 2.95182 -0.529892 0
M  V30 9720 H 903.628 1.53134 -0.313005 0
M  V30 9721 H 904.363 2.5452 2.00973 0
M  V30 9722 H 904.148 3.83939 0.795798 0
M  V30 9723 H 905.638 3.77579 1.78393 0
M  V30 9724 N 906.075 0.2925 1.54862 0
M  V30 9725 C 906.985 -0.597036 2.26876 0
M  V30 9726 C 908.001 -1.15558 1.30086 0
M  V30 9727 O 909.177 -1.18217 1.63054 0
M  V30 9728 C 906.242 -1.75664 2.98903 0
M  V30 9729 C 905.303 -1.23303 4.11212 0
M  V30 9730 C 904.536 -2.33736 4.79795 0
M  V30 9731 O 904.759 -3.53459 4.47686 0
M  V30 9732 O 903.693 -2.00908 5.67379 0
M  V30 9733 H 907.519 -0.0131242 3.03697 0
M  V30 9734 H 905.104 0.0592642 1.49282 0
M  V30 9735 H 906.986 -2.43241 3.4411 0
M  V30 9736 H 905.661 -2.32731 2.24984 0
M  V30 9737 H 904.568 -0.523222 3.70423 0
M  V30 9738 H 905.901 -0.707887 4.87083 0
M  V30 9739 N 907.553 -1.57587 0.0200696 0
M  V30 9740 C 908.802 -1.90602 -0.659822 0
M  V30 9741 C 909.115 -0.897216 -1.73808 0
M  V30 9742 O 910.321 -1.11829 -2.47399 0
M  V30 9743 C 908.777 -3.38416 -1.22484 0
M  V30 9744 C 908.385 -4.47637 -0.180339 0
M  V30 9745 C 910.129 -3.80513 -1.88176 0
M  V30 9746 C 908.036 -5.86542 -0.756482 0
M  V30 9747 H 906.966 -0.711272 -0.250216 0
M  V30 9748 H 909.617 -1.83308 0.0838942 0
M  V30 9749 H 907.999 -3.40613 -2.01987 0
M  V30 9750 H 909.173 -4.56987 0.591573 0
M  V30 9751 H 907.488 -4.14687 0.377302 0
M  V30 9752 H 910.085 -4.8164 -2.32222 0
M  V30 9753 H 910.428 -3.15091 -2.72073 0
M  V30 9754 H 910.961 -3.80701 -1.15377 0
M  V30 9755 H 907.7 -6.55485 0.0441468 0
M  V30 9756 H 907.22 -5.80816 -1.49709 0
M  V30 9757 H 908.899 -6.3483 -1.249 0
M  V30 9758 N 909.032 0.252966 -1.55557 0
M  V30 9759 C 910.309 1.00432 -1.67847 0
M  V30 9760 C 910.689 2.03587 -0.55816 0
M  V30 9761 O 910.037 2.24239 0.439197 0
M  V30 9762 C 910.247 1.64313 -3.079 0
M  V30 9763 C 911.595 2.14726 -3.66303 0
M  V30 9764 O 912.619 1.74264 -3.10661 0
M  V30 9765 O 911.478 2.89 -4.63833 0
M  V30 9766 H 908.572 0.467102 -0.682455 0
M  V30 9767 H 911.118 0.247233 -1.67889 0
M  V30 9768 H 909.89 0.896681 -3.80888 0
M  V30 9769 H 909.513 2.46657 -3.11843 0
M  V30 9770 N 910.51 1.48831 0.518367 0
M  V30 9771 C 911.738 1.6112 1.298 0
M  V30 9772 C 912.153 0.275872 1.86774 0
M  V30 9773 O 911.51 -0.736416 1.66983 0
M  V30 9774 C 911.561 2.66675 2.44063 0
M  V30 9775 O 911.282 3.95027 1.89434 0
M  V30 9776 C 912.783 2.8951 3.35706 0
M  V30 9777 H 910.003 0.542916 0.394314 0
M  V30 9778 H 912.547 1.94743 0.624142 0
M  V30 9779 H 910.702 2.35879 3.07311 0
M  V30 9780 H 911.116 4.53031 2.64316 0
M  V30 9781 H 912.59 3.67142 4.12202 0
M  V30 9782 H 913.067 1.98768 3.91648 0
M  V30 9783 H 913.673 3.21656 2.7824 0
M  V30 9784 N 911.988 -0.768124 1.37614 0
M  V30 9785 C 913.235 -1.5268 1.33022 0
M  V30 9786 C 913.563 -1.94318 -0.0841918 0
M  V30 9787 O 912.818 -1.64623 -1.0582 0
M  V30 9788 C 913.117 -2.80204 2.21856 0
M  V30 9789 C 912.783 -2.57602 3.7007 0
M  V30 9790 C 911.445 -2.51146 4.10462 0
M  V30 9791 C 913.797 -2.37482 4.63952 0
M  V30 9792 C 911.125 -2.22566 5.42846 0
M  V30 9793 C 913.477 -2.10425 5.96577 0
M  V30 9794 C 912.141 -2.02416 6.36069 0
M  V30 9795 H 911.411 -0.558697 0.486763 0
M  V30 9796 H 914.058 -0.88447 1.69851 0
M  V30 9797 H 912.363 -3.49014 1.78034 0
M  V30 9798 H 914.06 -3.38099 2.15615 0
M  V30 9799 H 910.65 -2.63491 3.38039 0
M  V30 9800 H 914.834 -2.41457 4.33604 0
M  V30 9801 H 910.09 -2.14863 5.72402 0
M  V30 9802 H 914.264 -1.93857 6.68874 0
M  V30 9803 H 911.891 -1.80034 7.38574 0
M  V30 9804 N 913.466 -1.22244 -0.994698 0
M  V30 9805 C 914.712 -1.04746 -1.73655 0
M  V30 9806 C 915.045 0.41668 -1.89677 0
M  V30 9807 O 914.32 1.30897 -1.43862 0
M  V30 9808 C 914.603 -1.75716 -3.14318 0
M  V30 9809 C 914.456 -3.29714 -3.05955 0
M  V30 9810 C 915.775 -1.50809 -4.13455 0
M  V30 9811 H 912.894 -0.381921 -0.630322 0
M  V30 9812 H 915.536 -1.50559 -1.15897 0
M  V30 9813 H 913.686 -1.3677 -3.63629 0
M  V30 9814 H 915.358 -3.78093 -2.64279 0
M  V30 9815 H 913.601 -3.59484 -2.42804 0
M  V30 9816 H 914.272 -3.74547 -4.05485 0
M  V30 9817 H 916.748 -1.84636 -3.72892 0
M  V30 9818 H 915.624 -2.02964 -5.09997 0
M  V30 9819 H 915.885 -0.440292 -4.39902 0
M  V30 9820 N 914.944 1.19125 -1.03184 0
M  V30 9821 C 916.169 1.93379 -0.749628 0
M  V30 9822 C 916.594 1.75153 0.685785 0
M  V30 9823 O 915.952 1.05579 1.47386 0
M  V30 9824 C 916 3.43101 -1.1097 0
M  V30 9825 O 915.104 4.11758 -0.230053 0
M  V30 9826 H 914.445 0.603605 -0.276689 0
M  V30 9827 H 916.975 1.51116 -1.37931 0
M  V30 9828 H 916.985 3.93778 -1.06785 0
M  V30 9829 H 915.66 3.55688 -2.15544 0
M  V30 9830 H 914.237 3.7143 -0.330748 0
M  V30 9831 N 916.422 0.810101 1.35185 0
M  V30 9832 C 917.352 0.237453 2.32289 0
M  V30 9833 C 918.333 -0.639032 1.5764 0
M  V30 9834 O 919.518 -0.568575 1.8569 0
M  V30 9835 C 916.648 -0.611964 3.41866 0
M  V30 9836 C 915.602 0.166318 4.27677 0
M  V30 9837 C 914.928 -0.805024 5.28605 0
M  V30 9838 C 916.228 1.36729 5.04086 0
M  V30 9839 H 917.922 1.04874 2.80432 0
M  V30 9840 H 915.468 0.505751 1.34826 0
M  V30 9841 H 917.421 -1.02267 4.08802 0
M  V30 9842 H 916.145 -1.45617 2.92341 0
M  V30 9843 H 914.804 0.558238 3.62325 0
M  V30 9844 H 914.452 -1.64483 4.75347 0
M  V30 9845 H 914.152 -0.288577 5.86891 0
M  V30 9846 H 915.676 -1.21386 5.98413 0
M  V30 9847 H 917.09 1.03128 5.63948 0
M  V30 9848 H 915.487 1.81848 5.71884 0
M  V30 9849 H 916.557 2.15214 4.34524 0
M  V30 9850 N 917.9 -1.47166 0.563914 0
M  V30 9851 C 919.146 -2.02756 0.0424338 0
M  V30 9852 C 919.479 -1.43662 -1.3067 0
M  V30 9853 O 918.754 -0.594676 -1.85186 0
M  V30 9854 C 919.037 -3.60074 -0.0434793 0
M  V30 9855 C 918.89 -4.29587 1.33323 0
M  V30 9856 C 920.209 -4.336 -0.753568 0
M  V30 9857 H 917.328 -0.736806 0.0168946 0
M  V30 9858 H 919.97 -1.75521 0.727496 0
M  V30 9859 H 918.12 -3.83409 -0.626906 0
M  V30 9860 H 919.792 -4.17573 1.96037 0
M  V30 9861 H 918.035 -3.8968 1.9061 0
M  V30 9862 H 918.706 -5.38218 1.22576 0
M  V30 9863 H 921.182 -4.15299 -0.258126 0
M  V30 9864 H 920.058 -5.43291 -0.782659 0
M  V30 9865 H 920.319 -4.03302 -1.81108 0
M  V30 9866 N 919.378 -0.300708 -1.54705 0
M  V30 9867 C 920.794 0.0526874 -1.59513 0
M  V30 9868 C 920.994 1.52444 -1.31769 0
M  V30 9869 O 920.05 2.27716 -1.09096 0
M  V30 9870 C 921.363 -0.344989 -2.98714 0
M  V30 9871 C 922.911 -0.29373 -3.11619 0
M  V30 9872 C 923.386 -0.666225 -4.53129 0
M  V30 9873 N 924.877 -0.618749 -4.59049 0
M  V30 9874 C 925.612 -0.879447 -5.66616 0
M  V30 9875 N 925.108 -1.2061 -6.82221 0
M  V30 9876 N 926.901 -0.806528 -5.56284 0
M  V30 9877 H 919.052 -1.25988 -1.71 0
M  V30 9878 H 921.315 -0.510758 -0.798643 0
M  V30 9879 H 921.021 -1.36953 -3.2394 0
M  V30 9880 H 920.895 0.301507 -3.75993 0
M  V30 9881 H 923.282 0.72156 -2.86142 0
M  V30 9882 H 923.363 -0.974844 -2.36496 0
M  V30 9883 H 923.007 -1.67932 -4.79334 0
M  V30 9884 H 922.937 0.0369575 -5.26587 0
M  V30 9885 H 925.428 -0.377202 -3.76013 0
M  V30 9886 H 925.741 -1.391 -7.60178 0
M  V30 9887 H 924.086 -1.24413 -6.83774 0
M  V30 9888 H 927.277 -0.550993 -4.64846 0
M  V30 9889 H 927.45 -1.01307 -6.40032 0
M  V30 9890 N 920.856 1.57574 -0.0284266 0
M  V30 9891 C 921.803 2.10176 0.953658 0
M  V30 9892 C 922.773 1.00367 1.32347 0
M  V30 9893 O 923.958 1.27783 1.4169 0
M  V30 9894 C 921.098 2.63287 2.231 0
M  V30 9895 C 920.211 3.87102 1.91771 0
M  V30 9896 C 919.346 4.28609 3.13795 0
M  V30 9897 C 918.385 5.45184 2.78282 0
M  V30 9898 N 917.522 5.81851 3.92929 0
M  V30 9899 H 922.362 2.93806 0.498176 0
M  V30 9900 H 919.899 1.45222 0.234302 0
M  V30 9901 H 921.857 2.9217 2.97813 0
M  V30 9902 H 920.487 1.82489 2.66266 0
M  V30 9903 H 919.539 3.64952 1.07303 0
M  V30 9904 H 920.851 4.71892 1.61615 0
M  V30 9905 H 920.005 4.58925 3.96829 0
M  V30 9906 H 918.744 3.42585 3.47112 0
M  V30 9907 H 917.749 5.14563 1.93661 0
M  V30 9908 H 918.974 6.32907 2.46182 0
M  V30 9909 H 916.92 4.98782 4.2609 0
M  V30 9910 H 916.837 6.6128 3.66395 0
M  V30 9911 H 918.105 6.16772 4.76669 0
M  V30 9912 N 922.334 -0.244713 1.55689 0
M  V30 9913 C 923.282 -1.32276 1.91326 0
M  V30 9914 C 924.276 -1.49714 0.792589 0
M  V30 9915 O 925.482 -1.51163 0.977227 0
M  V30 9916 H 921.857 -0.442979 0.607679 0
M  V30 9917 H 923.828 -0.99486 2.81327 0
M  V30 9918 C 922.577 -2.67077 2.22633 0
M  V30 9919 H 921.9 -2.54458 3.08368 0
M  V30 9920 H 923.34 -3.41378 2.5147 0
M  V30 9921 C 921.799 -3.20335 1.04342 0
M  V30 9922 O 922.329 -4.00633 0.292543 0
M  V30 9923 N 920.535 -2.78392 0.833457 0
M  V30 9924 H 920.082 -2.13202 1.44577 0
M  V30 9925 H 920.04 -3.1437 0.0436713 0
M  V30 9926 N 923.813 -1.49104 -0.510467 0
M  V30 9927 C 925.229 -1.35657 -0.840797 0
M  V30 9928 C 925.429 -0.382425 -1.97838 0
M  V30 9929 O 924.485 0.189331 -2.51789 0
M  V30 9930 C 925.798 -2.76155 -1.18992 0
M  V30 9931 C 927.346 -2.84786 -1.29868 0
M  V30 9932 C 927.821 -4.2603 -1.68115 0
M  V30 9933 N 929.312 -4.28796 -1.75181 0
M  V30 9934 C 930.047 -5.35041 -2.062 0
M  V30 9935 N 929.543 -6.51543 -2.35508 0
M  V30 9936 N 931.336 -5.2245 -2.07371 0
M  V30 9937 H 923.487 -2.11042 0.23982 0
M  V30 9938 H 925.75 -0.946946 0.0446824 0
M  V30 9939 H 925.456 -3.49092 -0.427484 0
M  V30 9940 H 925.33 -3.10922 -2.13558 0
M  V30 9941 H 927.717 -2.12092 -2.05186 0
M  V30 9942 H 927.798 -2.53613 -0.333758 0
M  V30 9943 H 927.442 -4.99247 -0.933512 0
M  V30 9944 H 927.372 -4.5466 -2.65691 0
M  V30 9945 H 929.863 -3.44771 -1.5473 0
M  V30 9946 H 930.176 -7.28342 -2.58337 0
M  V30 9947 H 928.521 -6.54785 -2.32985 0
M  V30 9948 H 931.712 -4.30444 -1.83945 0
M  V30 9949 H 931.885 -6.05347 -2.31212 0
M  V30 9950 N 925.291 0.760815 -1.38019 0
M  V30 9951 C 926.201 1.90526 -1.36884 0
M  V30 9952 C 927.217 1.71941 -0.266908 0
M  V30 9953 O 928.393 1.94988 -0.50413 0
M  V30 9954 C 925.458 3.25799 -1.18558 0
M  V30 9955 C 924.519 3.56961 -2.3849 0
M  V30 9956 C 923.752 4.8578 -2.21029 0
M  V30 9957 O 923.975 5.57629 -1.20023 0
M  V30 9958 O 922.909 5.16254 -3.0946 0
M  V30 9959 H 926.735 1.94437 -2.33298 0
M  V30 9960 H 924.32 0.905091 -1.18863 0
M  V30 9961 H 926.202 4.0669 -1.1037 0
M  V30 9962 H 924.877 3.22716 -0.252241 0
M  V30 9963 H 923.784 2.7626 -2.52252 0
M  V30 9964 H 925.117 3.64798 -3.30429 0
M  V30 9965 N 926.769 1.22769 0.988202 0
M  V30 9966 C 928.18 1.0512 1.54294 0
M  V30 9967 C 928.531 -0.383904 1.92407 0
M  V30 9968 O 927.656 -1.26955 1.75246 0
M  V30 9969 C 928.251 1.90198 2.80375 0
M  V30 9970 C 926.81 1.76831 3.32276 0
M  V30 9971 C 925.957 1.86377 2.05326 0
M  V30 9972 H 928.908 1.36546 0.808758 0
M  V30 9973 H 928.929 1.42216 3.52923 0
M  V30 9974 H 928.441 2.9464 2.52605 0
M  V30 9975 H 926.542 0.751412 3.64945 0
M  V30 9976 H 926.655 2.59771 4.02562 0
M  V30 9977 H 925.019 1.2987 2.19103 0
M  V30 9978 H 925.802 2.9236 1.79946 0
M  V30 9979 N 928.247 -1.18576 1.03814 0
M  V30 9980 C 929.663 -1.4051 0.756909 0
M  V30 9981 C 929.863 -1.9057 -0.654631 0
M  V30 9982 O 928.919 -2.0884 -1.41922 0
M  V30 9983 C 930.232 -2.4081 1.80087 0
M  V30 9984 C 931.78 -2.54541 1.82148 0
M  V30 9985 C 932.255 -3.58102 2.85529 0
M  V30 9986 N 933.746 -3.65607 2.84404 0
M  V30 9987 C 934.481 -4.45458 3.61047 0
M  V30 9988 N 933.977 -5.28937 4.47434 0
M  V30 9989 N 935.77 -4.40196 3.49548 0
M  V30 9990 H 927.921 -0.844075 1.94908 0
M  V30 9991 H 930.184 -0.433287 0.843188 0
M  V30 9992 H 929.89 -2.1107 2.81322 0
M  V30 9993 H 929.764 -3.4012 1.63089 0
M  V30 9994 H 932.151 -2.83598 0.815855 0
M  V30 9995 H 932.232 -1.55352 2.03223 0
M  V30 9996 H 931.876 -3.29786 3.86269 0
M  V30 9997 H 931.806 -4.56963 2.6171 0
M  V30 9998 H 934.297 -3.05994 2.21756 0
M  V30 9999 H 934.61 -5.8701 5.02632 0
M  V30 10000 H 932.955 -5.28366 4.51503 0
M  V30 10001 H 936.146 -3.74026 2.81464 0
M  V30 10002 H 936.319 -5.02186 4.09528 0
M  V30 10003 N 929.725 -0.817259 -1.34754 0
M  V30 10004 C 930.972 -0.402648 -1.98457 0
M  V30 10005 C 931.3 1.03287 -1.64809 0
M  V30 10006 O 930.555 1.73316 -0.908851 0
M  V30 10007 C 930.854 -0.5453 -3.53216 0
M  V30 10008 C 930.52 -1.9457 -4.06759 0
M  V30 10009 C 929.182 -2.32881 -4.21094 0
M  V30 10010 C 931.534 -2.86141 -4.35629 0
M  V30 10011 C 928.862 -3.62108 -4.61622 0
M  V30 10012 C 931.214 -4.14826 -4.776 0
M  V30 10013 C 929.878 -4.53121 -4.9014 0
M  V30 10014 H 929.148 -0.147339 -0.726204 0
M  V30 10015 H 931.795 -1.04011 -1.60791 0
M  V30 10016 H 930.1 0.175576 -3.91406 0
M  V30 10017 H 931.797 -0.205112 -4.00475 0
M  V30 10018 H 928.387 -1.6381 -3.96061 0
M  V30 10019 H 932.571 -2.57788 -4.24098 0
M  V30 10020 H 927.827 -3.91613 -4.69521 0
M  V30 10021 H 932.001 -4.85874 -4.98899 0
M  V30 10022 H 929.628 -5.53307 -5.21302 0
M  V30 10023 N 931.203 1.46865 -0.571711 0
M  V30 10024 C 932.133 2.3298 0.155795 0
M  V30 10025 C 933.114 1.44678 0.894553 0
M  V30 10026 O 934.299 1.73513 0.872176 0
M  V30 10027 C 931.429 3.26745 1.17708 0
M  V30 10028 C 930.383 4.24401 0.553863 0
M  V30 10029 C 929.709 5.07595 1.68083 0
M  V30 10030 C 931.009 5.19884 -0.501827 0
M  V30 10031 H 932.703 2.94056 -0.563176 0
M  V30 10032 H 930.249 1.41402 -0.27228 0
M  V30 10033 H 932.202 3.85838 1.6943 0
M  V30 10034 H 930.926 2.63753 1.92618 0
M  V30 10035 H 929.585 3.66554 0.057815 0
M  V30 10036 H 929.233 4.40996 2.41933 0
M  V30 10037 H 928.933 5.73722 1.26953 0
M  V30 10038 H 930.457 5.6955 2.20103 0
M  V30 10039 H 931.871 5.73257 -0.0701057 0
M  V30 10040 H 930.268 5.94293 -0.832815 0
M  V30 10041 H 931.338 4.64482 -1.39229 0
M  V30 10042 N 932.681 0.308908 1.54543 0
M  V30 10043 C 933.958 -0.351558 1.92415 0
M  V30 10044 C 934.338 -1.71061 1.23699 0
M  V30 10045 O 933.686 -2.25394 0.3755 0
M  V30 10046 C 933.896 -0.458357 3.45977 0
M  V30 10047 C 935.244 -0.725524 4.18355 0
M  V30 10048 O 936.268 -0.541859 3.52054 0
M  V30 10049 O 935.127 -1.07884 5.35745 0
M  V30 10050 H 932.221 -0.197957 0.802958 0
M  V30 10051 H 934.767 0.357548 1.65891 0
M  V30 10052 H 933.539 0.496723 3.88134 0
M  V30 10053 H 933.162 -1.21562 3.78561 0
M  V30 10054 N 934.159 -1.57557 0.0367827 0
M  V30 10055 C 935.389 -1.96134 -0.649225 0
M  V30 10056 C 935.797 -0.912279 -1.65753 0
M  V30 10057 O 935.14 0.113569 -1.83349 0
M  V30 10058 C 935.202 -3.30889 -1.40545 0
M  V30 10059 C 934.866 -4.53622 -0.554609 0
M  V30 10060 C 935.863 -5.19611 0.17331 0
M  V30 10061 C 933.548 -4.99907 -0.48976 0
M  V30 10062 C 935.542 -6.3021 0.95467 0
M  V30 10063 C 933.229 -6.10386 0.295299 0
M  V30 10064 C 934.227 -6.75398 1.01621 0
M  V30 10065 O 933.915 -7.83755 1.78839 0
M  V30 10066 H 933.647 -0.650662 -0.183344 0
M  V30 10067 H 936.201 -2.05179 0.0951512 0
M  V30 10068 H 934.431 -3.18356 -2.19513 0
M  V30 10069 H 936.12 -3.54315 -1.9803 0
M  V30 10070 H 936.886 -4.84819 0.132589 0
M  V30 10071 H 932.765 -4.49105 -1.04046 0
M  V30 10072 H 936.309 -6.80886 1.51789 0
M  V30 10073 H 932.206 -6.44616 0.33771 0
M  V30 10074 H 932.974 -8.0046 1.70898 0
M  V30 10075 N 935.637 0.236453 -1.55816 0
M  V30 10076 C 936.567 1.29639 -1.94206 0
M  V30 10077 C 937.548 1.49667 -0.808319 0
M  V30 10078 O 938.733 1.621 -1.06945 0
M  V30 10079 C 935.863 2.64914 -2.24584 0
M  V30 10080 C 934.817 2.59565 -3.40308 0
M  V30 10081 C 934.143 3.98732 -3.56254 0
M  V30 10082 C 935.443 2.15642 -4.75706 0
M  V30 10083 H 937.137 0.977552 -2.82992 0
M  V30 10084 H 934.683 0.468804 -1.36155 0
M  V30 10085 H 936.636 3.39209 -2.50031 0
M  V30 10086 H 935.36 2.98455 -1.32636 0
M  V30 10087 H 934.019 1.87728 -3.14887 0
M  V30 10088 H 933.667 4.29556 -2.61707 0
M  V30 10089 H 933.367 3.96039 -4.34082 0
M  V30 10090 H 934.891 4.74711 -3.84033 0
M  V30 10091 H 936.305 2.79673 -5.00456 0
M  V30 10092 H 934.702 2.24039 -5.56711 0
M  V30 10093 H 935.772 1.10831 -4.72064 0
M  V30 10094 N 937.115 1.49373 0.502552 0
M  V30 10095 C 938.34 1.62752 1.28556 0
M  V30 10096 C 938.765 0.298285 1.8572 0
M  V30 10097 O 938.123 -0.733885 1.65782 0
M  V30 10098 C 938.171 2.69778 2.39274 0
M  V30 10099 O 937.275 2.28843 3.43081 0
M  V30 10100 H 936.616 0.544799 0.379592 0
M  V30 10101 H 939.146 1.9555 0.601792 0
M  V30 10102 H 939.156 2.91899 2.8506 0
M  V30 10103 H 937.831 3.66266 1.97033 0
M  V30 10104 H 936.408 2.17047 3.03224 0
M  V30 10105 N 938.594 -0.753485 1.38421 0
M  V30 10106 C 939.871 -1.50318 1.25155 0
M  V30 10107 C 940.251 -2.10588 -0.147003 0
M  V30 10108 O 939.599 -1.97071 -1.15651 0
M  V30 10109 C 939.809 -2.56946 2.36177 0
M  V30 10110 C 941.157 -3.23846 2.74607 0
M  V30 10111 O 942.181 -2.67251 2.3549 0
M  V30 10112 O 941.04 -4.2621 3.42064 0
M  V30 10113 H 938.134 -0.666624 0.48943 0
M  V30 10114 H 940.68 -0.788887 1.50249 0
M  V30 10115 H 939.452 -2.1066 3.29754 0
M  V30 10116 H 939.075 -3.35956 2.12648 0
M  V30 10117 N 940.072 -1.23292 -0.981677 0
M  V30 10118 C 941.002 -1.03738 -2.09191 0
M  V30 10119 C 941.983 0.0453041 -1.7004 0
M  V30 10120 O 943.168 -0.119092 -1.93834 0
M  V30 10121 C 940.298 -0.626426 -3.41604 0
M  V30 10122 C 939.252 -1.65631 -3.94652 0
M  V30 10123 C 938.578 -1.10084 -5.23245 0
M  V30 10124 C 939.878 -3.04903 -4.24066 0
M  V30 10125 H 941.572 -1.966 -2.25807 0
M  V30 10126 H 939.118 -0.946656 -1.0851 0
M  V30 10127 H 941.071 -0.476689 -4.18695 0
M  V30 10128 H 939.795 0.337873 -3.24848 0
M  V30 10129 H 938.454 -1.79402 -3.19704 0
M  V30 10130 H 938.102 -0.127562 -5.02838 0
M  V30 10131 H 937.802 -1.78896 -5.59705 0
M  V30 10132 H 939.326 -0.962928 -6.02959 0
M  V30 10133 H 940.74 -2.94441 -4.91912 0
M  V30 10134 H 939.137 -3.70941 -4.71724 0
M  V30 10135 H 940.207 -3.53991 -3.31389 0
M  V30 10136 N 941.55 1.18024 -1.04442 0
M  V30 10137 C 942.79 1.89787 -0.758957 0
M  V30 10138 C 943.154 1.78757 0.700707 0
M  V30 10139 O 944.355 2.45265 1.09994 0
M  V30 10140 C 942.626 3.36047 -1.21685 0
M  V30 10141 S 944.185 4.25864 -1.05761 0
M  V30 10142 H 941.003 0.655311 -0.275841 0
M  V30 10143 H 943.605 1.42589 -1.33749 0
M  V30 10144 H 942.309 3.41606 -2.2745 0
M  V30 10145 H 941.84 3.88286 -0.63227 0
M  V30 10146 H 943.855 4.96195 0.022729 0
M  V30 10147 N 943.028 0.824394 1.34319 0
M  V30 10148 C 944.274 0.413779 1.98534 0
M  V30 10149 C 944.607 -1.02089 1.65201 0
M  V30 10150 O 943.882 -1.71129 0.924402 0
M  V30 10151 C 944.165 0.61801 3.54757 0
M  V30 10152 C 944.018 2.0989 3.97827 0
M  V30 10153 C 945.337 0.0549041 4.40066 0
M  V30 10154 H 942.456 0.151815 0.721194 0
M  V30 10155 H 945.098 1.03723 1.5919 0
M  V30 10156 H 943.248 0.0873107 3.88402 0
M  V30 10157 H 944.92 2.69335 3.74508 0
M  V30 10158 H 943.163 2.58881 3.48085 0
M  V30 10159 H 943.834 2.1926 5.06586 0
M  V30 10160 H 946.31 0.508348 4.12983 0
M  V30 10161 H 945.186 0.227595 5.48428 0
M  V30 10162 H 945.447 -1.04025 4.29687 0
M  V30 10163 N 944.506 -1.46559 0.579492 0
M  V30 10164 C 945.731 -2.0729 0.0674595 0
M  V30 10165 C 946.156 -1.4259 -1.22677 0
M  V30 10166 O 945.514 -0.50857 -1.74021 0
M  V30 10167 C 945.562 -3.60492 -0.0882227 0
M  V30 10168 O 944.666 -3.96172 -1.14551 0
M  V30 10169 H 944.007 -0.661159 0.0613536 0
M  V30 10170 H 946.537 -1.88247 0.801519 0
M  V30 10171 H 946.547 -4.06929 -0.295411 0
M  V30 10172 H 945.222 -4.06976 0.856943 0
M  V30 10173 H 943.799 -3.61448 -0.917033 0
M  V30 10174 N 945.984 -0.3171 -1.54377 0
M  V30 10175 C 946.917 0.594178 -2.20329 0
M  V30 10176 C 947.895 1.12067 -1.17812 0
M  V30 10177 O 949.079 1.18588 -1.46524 0
M  V30 10178 C 946.206 1.81463 -2.85987 0
M  V30 10179 C 945.252 1.41996 -4.02168 0
M  V30 10180 S 946.085 0.462159 -5.33502 0
M  V30 10181 C 947.241 1.69004 -6.02651 0
M  V30 10182 H 947.474 0.0339261 -2.97281 0
M  V30 10183 H 945.007 -0.101196 -1.54068 0
M  V30 10184 H 946.965 2.51494 -3.2444 0
M  V30 10185 H 945.626 2.34606 -2.08851 0
M  V30 10186 H 944.819 2.32921 -4.4695 0
M  V30 10187 H 944.421 0.799423 -3.65356 0
M  V30 10188 H 946.713 2.62839 -6.24437 0
M  V30 10189 H 947.656 1.28451 -6.96352 0
M  V30 10190 H 948.064 1.87408 -5.32483 0
M  V30 10191 N 947.462 1.57535 -0.0451378 0
M  V30 10192 C 948.41 2.12351 0.949205 0
M  V30 10193 C 949.404 1.05386 1.32628 0
M  V30 10194 O 950.61 1.23802 1.30664 0
M  V30 10195 H 946.985 0.678648 0.323945 0
M  V30 10196 H 948.956 2.94806 0.461718 0
M  V30 10197 C 947.705 2.67862 2.21687 0
M  V30 10198 H 947.028 3.49826 1.93551 0
M  V30 10199 H 948.468 3.09844 2.89435 0
M  V30 10200 C 946.927 1.61353 2.95748 0
M  V30 10201 O 947.457 1.02276 3.88462 0
M  V30 10202 N 945.663 1.33017 2.5837 0
M  V30 10203 H 945.21 1.81246 1.83051 0
M  V30 10204 H 945.168 0.619812 3.0823 0
M  V30 10205 N 948.94 -0.228186 1.55939 0
M  V30 10206 C 949.887 -1.28274 1.91871 0
M  V30 10207 C 950.857 -1.46906 0.775103 0
M  V30 10208 O 952.042 -1.60583 1.03042 0
M  V30 10209 C 949.182 -2.62945 2.23504 0
M  V30 10210 C 948.295 -2.52166 3.50766 0
M  V30 10211 C 947.43 -3.79316 3.71878 0
M  V30 10212 C 946.469 -3.63231 4.92676 0
M  V30 10213 N 945.606 -4.82315 5.10212 0
M  V30 10214 H 950.446 -0.96931 2.81795 0
M  V30 10215 H 947.983 -0.467331 1.39479 0
M  V30 10216 H 949.941 -3.41359 2.39854 0
M  V30 10217 H 948.571 -2.92397 1.36762 0
M  V30 10218 H 947.623 -1.65221 3.42646 0
M  V30 10219 H 948.935 -2.36199 4.39331 0
M  V30 10220 H 948.089 -4.66173 3.88288 0
M  V30 10221 H 946.828 -3.982 2.81581 0
M  V30 10222 H 945.833 -2.74757 4.76223 0
M  V30 10223 H 947.058 -3.45823 5.84451 0
M  V30 10224 H 945.004 -5.01526 4.22856 0
M  V30 10225 H 944.921 -4.6905 5.92898 0
M  V30 10226 H 946.189 -5.70618 5.31051 0
M  V30 10227 N 950.418 -1.49637 -0.494624 0
M  V30 10228 C 951.643 -1.63431 -1.27691 0
M  V30 10229 C 952.068 -0.30813 -1.85559 0
M  V30 10230 O 951.426 0.725083 -1.66169 0
M  V30 10231 C 951.474 -2.71043 -2.3784 0
M  V30 10232 O 950.578 -2.3066 -3.41862 0
M  V30 10233 H 949.919 -0.546804 -0.376698 0
M  V30 10234 H 952.449 -1.95866 -0.591413 0
M  V30 10235 H 952.459 -2.93406 -2.83508 0
M  V30 10236 H 951.134 -3.67306 -1.95088 0
M  V30 10237 H 949.711 -2.18652 -3.02069 0
M  V30 10238 N 951.896 0.746133 -1.38819 0
M  V30 10239 C 953.145 1.50085 -1.34749 0
M  V30 10240 C 953.458 1.95516 0.0574786 0
M  V30 10241 O 954.664 2.70601 0.22073 0
M  V30 10242 C 953.12 2.71141 -2.36665 0
M  V30 10243 C 952.728 2.32706 -3.82821 0
M  V30 10244 C 954.472 3.49005 -2.41652 0
M  V30 10245 C 952.379 3.50418 -4.76405 0
M  V30 10246 H 951.309 0.563563 -0.500912 0
M  V30 10247 H 953.96 0.814951 -1.6441 0
M  V30 10248 H 952.342 3.4175 -2.00058 0
M  V30 10249 H 953.516 1.69715 -4.28408 0
M  V30 10250 H 951.831 1.67959 -3.81023 0
M  V30 10251 H 954.428 4.36541 -3.08766 0
M  V30 10252 H 954.771 3.90687 -1.43769 0
M  V30 10253 H 955.304 2.85416 -2.77097 0
M  V30 10254 H 952.043 3.13795 -5.75511 0
M  V30 10255 H 951.563 4.12426 -4.35505 0
M  V30 10256 H 953.242 4.16901 -4.94775 0
M  V30 10257 N 953.375 1.23811 0.975125 0
M  V30 10258 C 954.786 1.0675 1.53171 0
M  V30 10259 C 955.137 -0.363475 1.92804 0
M  V30 10260 O 954.262 -1.25089 1.76583 0
M  V30 10261 C 954.857 1.93161 2.78342 0
M  V30 10262 C 953.416 1.80346 3.30382 0
M  V30 10263 C 952.563 1.88544 2.03338 0
M  V30 10264 H 955.514 1.37396 0.79423 0
M  V30 10265 H 955.535 1.45951 3.51395 0
M  V30 10266 H 955.047 2.97302 2.49465 0
M  V30 10267 H 953.148 0.790077 3.64127 0
M  V30 10268 H 953.261 2.64026 3.99784 0
M  V30 10269 H 951.625 1.32186 2.17713 0
M  V30 10270 H 952.408 2.94252 1.76836 0
M  V30 10271 N 954.853 -1.17469 1.05066 0
M  V30 10272 C 956.099 -1.87976 0.761113 0
M  V30 10273 C 956.432 -1.80756 -0.709995 0
M  V30 10274 O 955.707 -1.21469 -1.51906 0
M  V30 10275 C 955.99 -3.38055 1.2406 0
M  V30 10276 C 955.843 -3.54032 2.77455 0
M  V30 10277 C 957.162 -4.32036 0.838612 0
M  V30 10278 H 954.281 -0.682573 0.277963 0
M  V30 10279 H 956.923 -1.38147 1.30443 0
M  V30 10280 H 955.073 -3.80622 0.778388 0
M  V30 10281 H 956.745 -3.20489 3.3179 0
M  V30 10282 H 954.988 -2.96352 3.16793 0
M  V30 10283 H 955.659 -4.59377 3.06066 0
M  V30 10284 H 958.135 -3.97303 1.23651 0
M  V30 10285 H 957.011 -5.35583 1.20173 0
M  V30 10286 H 957.272 -4.41349 -0.257498 0
M  V30 10287 N 956.331 -0.831506 -1.3388 0
M  V30 10288 C 957.559 -0.436925 -2.02234 0
M  V30 10289 C 957.974 0.959689 -1.6259 0
M  V30 10290 O 957.331 1.62248 -0.835576 0
M  V30 10291 C 957.382 -0.539429 -3.57453 0
M  V30 10292 O 957.103 -1.88101 -3.95664 0
M  V30 10293 C 958.604 -0.140852 -4.43076 0
M  V30 10294 H 955.824 -0.174302 -0.647966 0
M  V30 10295 H 958.368 -1.12204 -1.70969 0
M  V30 10296 H 956.523 0.0976959 -3.87277 0
M  V30 10297 H 956.937 -1.86131 -4.90363 0
M  V30 10298 H 958.411 -0.26364 -5.5137 0
M  V30 10299 H 958.888 0.916505 -4.29531 0
M  V30 10300 H 959.494 -0.752117 -4.18597 0
M  V30 10301 N 957.809 1.4625 -0.587256 0
M  V30 10302 C 958.741 2.28482 0.181256 0
M  V30 10303 C 959.754 1.38777 0.851163 0
M  V30 10304 O 960.943 1.63336 0.719963 0
M  V30 10305 C 958.043 3.13944 1.27643 0
M  V30 10306 C 957.216 4.31802 0.697569 0
M  V30 10307 C 956.275 4.98626 1.68102 0
M  V30 10308 O 955.301 5.56075 1.21529 0
M  V30 10309 N 956.503 4.96051 3.0152 0
M  V30 10310 H 959.268 2.95079 -0.524267 0
M  V30 10311 H 956.829 1.56213 -0.425336 0
M  V30 10312 H 958.821 3.55513 1.93371 0
M  V30 10313 H 957.391 2.49391 1.88475 0
M  V30 10314 H 956.611 3.93961 -0.137293 0
M  V30 10315 H 957.899 5.07969 0.290696 0
M  V30 10316 H 957.297 4.5063 3.41978 0
M  V30 10317 H 955.854 5.41547 3.62725 0
M  V30 10318 N 959.287 0.325282 1.54207 0
M  V30 10319 C 960.197 -0.548778 2.28091 0
M  V30 10320 C 961.213 -1.12772 1.32508 0
M  V30 10321 O 962.389 -1.14732 1.65525 0
M  V30 10322 C 959.454 -1.69284 3.02562 0
M  V30 10323 C 958.515 -1.14553 4.13734 0
M  V30 10324 C 957.748 -2.23506 4.84645 0
M  V30 10325 O 957.971 -3.43884 4.55082 0
M  V30 10326 O 956.905 -1.88828 5.71513 0
M  V30 10327 H 960.731 0.0512974 3.03657 0
M  V30 10328 H 958.316 0.0909159 1.49123 0
M  V30 10329 H 960.198 -2.35887 3.49192 0
M  V30 10330 H 958.873 -2.27906 2.2987 0
M  V30 10331 H 957.78 -0.444532 3.71449 0
M  V30 10332 H 959.113 -0.60441 4.88475 0
M  V30 10333 N 960.765 -1.57509 0.0534917 0
M  V30 10334 C 961.695 -2.14698 -0.917999 0
M  V30 10335 C 962.676 -1.06924 -1.32292 0
M  V30 10336 O 963.861 -1.34875 -1.39723 0
M  V30 10337 C 960.991 -2.69383 -2.19203 0
M  V30 10338 C 959.945 -3.82161 -1.9271 0
M  V30 10339 C 959.271 -4.23373 -3.26587 0
M  V30 10340 C 960.571 -5.07199 -1.24686 0
M  V30 10341 H 962.265 -2.96125 -0.44165 0
M  V30 10342 H 959.811 -1.42446 -0.210993 0
M  V30 10343 H 961.764 -3.08031 -2.87567 0
M  V30 10344 H 960.488 -1.85151 -2.69048 0
M  V30 10345 H 959.147 -3.43989 -1.26757 0
M  V30 10346 H 958.795 -3.36089 -3.74237 0
M  V30 10347 H 958.495 -4.99385 -3.09658 0
M  V30 10348 H 960.019 -4.64623 -3.96178 0
M  V30 10349 H 961.433 -5.43279 -1.83088 0
M  V30 10350 H 959.83 -5.88369 -1.18076 0
M  V30 10351 H 960.9 -4.84386 -0.223227 0
M  V30 10352 N 962.243 0.219913 -1.56058 0
M  V30 10353 C 963.492 0.942119 -1.78345 0
M  V30 10354 C 963.805 1.85435 -0.622344 0
M  V30 10355 O 965.011 2.61533 -0.728886 0
M  V30 10356 C 963.467 1.72544 -3.15843 0
M  V30 10357 C 963.075 0.859263 -4.39682 0
M  V30 10358 C 964.819 2.43876 -3.47455 0
M  V30 10359 C 962.726 1.64003 -5.68205 0
M  V30 10360 H 961.656 0.355514 -0.664925 0
M  V30 10361 H 964.307 0.195963 -1.82451 0
M  V30 10362 H 962.689 2.51456 -3.05918 0
M  V30 10363 H 963.863 0.110562 -4.60667 0
M  V30 10364 H 962.178 0.257985 -4.156 0
M  V30 10365 H 964.775 3.02794 -4.40704 0
M  V30 10366 H 965.118 3.16843 -2.7003 0
M  V30 10367 H 965.651 1.71952 -3.58716 0
M  V30 10368 H 962.39 0.953606 -6.48526 0
M  V30 10369 H 961.91 2.3633 -5.51279 0
M  V30 10370 H 963.589 2.20028 -6.08438 0
M  V30 10371 N 963.721 1.49897 0.486681 0
M  V30 10372 C 964.961 1.61732 1.24988 0
M  V30 10373 C 965.325 0.303724 1.89582 0
M  V30 10374 O 966.526 0.297373 2.6715 0
M  V30 10375 C 964.797 2.75429 2.27757 0
M  V30 10376 S 966.356 3.07304 3.13225 0
M  V30 10377 H 963.174 0.570316 0.424571 0
M  V30 10378 H 965.776 1.87617 0.549549 0
M  V30 10379 H 964.48 3.69376 1.78857 0
M  V30 10380 H 964.011 2.51582 3.0244 0
M  V30 10381 H 966.026 2.49928 4.28661 0
M  V30 10382 N 965.199 -0.738761 1.39212 0
M  V30 10383 C 966.146 -1.85273 1.37631 0
M  V30 10384 C 967.116 -1.64407 0.236572 0
M  V30 10385 O 968.301 -1.85866 0.431104 0
M  V30 10386 C 965.441 -3.22745 1.22188 0
M  V30 10387 C 964.554 -3.55342 2.45674 0
M  V30 10388 C 963.689 -4.82195 2.22847 0
M  V30 10389 C 962.728 -5.07625 3.42029 0
M  V30 10390 N 961.865 -6.25679 3.18543 0
M  V30 10391 H 966.705 -1.85959 2.32859 0
M  V30 10392 H 964.242 -0.908716 1.15675 0
M  V30 10393 H 966.2 -4.02095 1.11245 0
M  V30 10394 H 964.83 -3.21347 0.30592 0
M  V30 10395 H 963.882 -2.70722 2.67233 0
M  V30 10396 H 965.194 -3.70054 3.34457 0
M  V30 10397 H 964.348 -5.69518 2.09126 0
M  V30 10398 H 963.087 -4.6965 1.31454 0
M  V30 10399 H 962.092 -4.18765 3.56253 0
M  V30 10400 H 963.317 -5.22058 4.34319 0
M  V30 10401 H 961.263 -6.14429 2.2981 0
M  V30 10402 H 961.18 -6.40961 4.0088 0
M  V30 10403 H 962.448 -7.15851 3.08508 0
M  V30 10404 N 966.677 -1.24326 -0.968545 0
M  V30 10405 C 967.64 -1.03591 -2.04454 0
M  V30 10406 C 968.64 0.0064809 -1.60799 0
M  V30 10407 O 969.83 -0.234404 -1.72616 0
M  V30 10408 C 966.962 -0.56992 -3.36102 0
M  V30 10409 H 968.155 -1.99092 -2.24282 0
M  V30 10410 H 965.708 -1.06537 -1.14366 0
M  V30 10411 H 966.443 0.388325 -3.21967 0
M  V30 10412 H 966.228 -1.32227 -3.69132 0
M  V30 10413 H 967.718 -0.445854 -4.15213 0
M  V30 10414 N 968.156 1.1691 -1.05688 0
M  V30 10415 C 969.402 1.8757 -0.771071 0
M  V30 10416 C 969.735 1.8113 0.700399 0
M  V30 10417 O 969.01 1.22273 1.5126 0
M  V30 10418 C 969.293 3.37392 -1.25851 0
M  V30 10419 C 969.146 3.52556 -2.79329 0
M  V30 10420 C 970.465 4.31585 -0.861512 0
M  V30 10421 H 967.584 0.681089 -0.281579 0
M  V30 10422 H 970.226 1.37453 -1.31174 0
M  V30 10423 H 968.376 3.80204 -0.798563 0
M  V30 10424 H 970.048 3.18725 -3.33485 0
M  V30 10425 H 968.291 2.94668 -3.1836 0
M  V30 10426 H 968.962 4.57748 -3.08498 0
M  V30 10427 H 971.438 3.96642 -1.25756 0
M  V30 10428 H 970.314 5.34939 -1.23012 0
M  V30 10429 H 970.575 4.4148 0.234089 0
M  V30 10430 N 969.634 0.838594 1.33437 0
M  V30 10431 C 970.564 0.286672 2.31734 0
M  V30 10432 C 971.545 -0.605451 1.5896 0
M  V30 10433 O 972.73 -0.529059 1.86854 0
M  V30 10434 C 969.86 -0.539311 3.43087 0
M  V30 10435 C 968.814 0.256997 4.27228 0
M  V30 10436 C 968.14 -0.692718 5.30194 0
M  V30 10437 C 969.44 1.47391 5.01072 0
M  V30 10438 H 971.134 1.10798 2.78144 0
M  V30 10439 H 968.68 0.534235 1.33723 0
M  V30 10440 H 970.633 -0.935724 4.1088 0
M  V30 10441 H 969.357 -1.39383 2.95364 0
M  V30 10442 H 968.016 0.634967 3.61059 0
M  V30 10443 H 967.664 -1.54363 4.78729 0
M  V30 10444 H 967.364 -0.164023 5.87371 0
M  V30 10445 H 968.888 -1.08665 6.00853 0
M  V30 10446 H 970.302 1.15067 5.61634 0
M  V30 10447 H 968.699 1.93937 5.67898 0
M  V30 10448 H 969.769 2.24382 4.29861 0
M  V30 10449 N 971.112 -1.45937 0.595003 0
M  V30 10450 C 972.06 -2.32155 -0.143798 0
M  V30 10451 C 973.054 -1.45221 -0.872198 0
M  V30 10452 O 974.26 -1.61777 -0.789191 0
M  V30 10453 H 970.635 -0.749165 -0.0652377 0
M  V30 10454 H 972.606 -2.92264 0.602005 0
M  V30 10455 C 971.355 -3.28615 -1.13611 0
M  V30 10456 H 970.678 -3.95496 -0.585044 0
M  V30 10457 H 972.118 -3.91699 -1.62321 0
M  V30 10458 C 970.577 -2.54863 -2.20333 0
M  V30 10459 O 971.107 -2.32071 -3.27881 0
M  V30 10460 N 969.313 -2.15213 -1.95274 0
M  V30 10461 H 968.86 -2.33949 -1.07822 0
M  V30 10462 H 968.818 -1.66188 -2.66888 0
M  V30 10463 N 972.59 -0.333456 -1.54032 0
M  V30 10464 C 974.001 0.15256 -1.86076 0
M  V30 10465 C 974.352 1.50819 -1.25492 0
M  V30 10466 O 973.477 2.08903 -0.564665 0
M  V30 10467 C 974.072 0.283599 -3.37611 0
M  V30 10468 C 972.631 0.713841 -3.69569 0
M  V30 10469 C 971.778 -0.158515 -2.76847 0
M  V30 10470 H 974.729 -0.553404 -1.48738 0
M  V30 10471 H 974.75 1.11284 -3.63863 0
M  V30 10472 H 974.262 -0.703193 -3.81676 0
M  V30 10473 H 972.363 1.71002 -3.31042 0
M  V30 10474 H 972.476 0.510731 -4.7637 0
M  V30 10475 H 970.84 0.367531 -2.52034 0
M  V30 10476 H 971.623 -1.14226 -3.2374 0
M  V30 10477 N 974.068 1.57479 -0.061844 0
M  V30 10478 C 975.296 1.97429 0.618837 0
M  V30 10479 C 975.711 0.939826 1.63746 0
M  V30 10480 O 975.068 -0.0747173 1.82347 0
M  V30 10481 C 975.119 3.3746 1.29628 0
M  V30 10482 O 974.84 4.36941 0.318431 0
M  V30 10483 C 976.341 3.92228 2.06572 0
M  V30 10484 H 973.561 0.649513 0.168444 0
M  V30 10485 H 976.105 2.04078 -0.131303 0
M  V30 10486 H 974.26 3.31928 1.99757 0
M  V30 10487 H 974.674 5.18313 0.803239 0
M  V30 10488 H 976.148 4.92458 2.49377 0
M  V30 10489 H 976.625 3.28231 2.91824 0
M  V30 10490 H 977.231 4.01131 1.4133 0
M  V30 10491 N 975.546 -0.211634 1.56173 0
M  V30 10492 C 976.494 -1.28188 1.94089 0
M  V30 10493 C 977.488 -1.47999 0.824167 0
M  V30 10494 O 978.694 -1.49056 1.00907 0
M  V30 10495 H 975.069 -0.42999 0.616938 0
M  V30 10496 H 977.04 -0.934962 2.83374 0
M  V30 10497 C 975.789 -2.62294 2.28248 0
M  V30 10498 H 975.112 -2.4786 3.13696 0
M  V30 10499 H 976.552 -3.35967 2.58655 0
M  V30 10500 C 975.011 -3.18049 1.11113 0
M  V30 10501 O 975.541 -3.99923 0.377458 0
M  V30 10502 N 973.747 -2.76561 0.892321 0
M  V30 10503 H 973.294 -2.10088 1.49067 0
M  V30 10504 H 973.252 -3.14206 0.110344 0
M  V30 10505 N 977.024 -1.50153 -0.478725 0
M  V30 10506 C 977.987 -1.67916 -1.56003 0
M  V30 10507 C 978.987 -0.550111 -1.51097 0
M  V30 10508 O 980.177 -0.817001 -1.53853 0
M  V30 10509 C 977.309 -1.6973 -2.95643 0
M  V30 10510 H 978.502 -2.6438 -1.41573 0
M  V30 10511 H 976.055 -1.39519 -0.704565 0
M  V30 10512 H 976.79 -0.749306 -3.15525 0
M  V30 10513 H 976.575 -2.51745 -3.00611 0
M  V30 10514 H 978.065 -1.85453 -3.74162 0
M  V30 10515 N 978.502 0.731368 -1.39602 0
M  V30 10516 C 979.779 1.48308 -1.27531 0
M  V30 10517 C 980.159 2.10795 0.113482 0
M  V30 10518 O 979.507 1.98886 1.12501 0
M  V30 10519 C 979.717 2.53156 -2.40235 0
M  V30 10520 C 981.065 3.19436 -2.79725 0
M  V30 10521 O 982.089 2.6347 -2.39712 0
M  V30 10522 O 980.948 4.20714 -3.48801 0
M  V30 10523 H 978.042 0.658753 -0.499973 0
M  V30 10524 H 980.588 0.764884 -1.51485 0
M  V30 10525 H 979.36 2.05387 -3.33064 0
M  V30 10526 H 978.983 3.3253 -2.17966 0
M  V30 10527 N 979.98 1.24838 0.961938 0
M  V30 10528 C 981.229 1.0855 1.69999 0
M  V30 10529 C 981.542 -0.374645 1.91979 0
M  V30 10530 O 982.748 -0.657822 2.6341 0
M  V30 10531 C 981.204 1.89424 3.06017 0
M  V30 10532 C 980.812 3.39885 2.9186 0
M  V30 10533 C 982.556 1.81684 3.83655 0
M  V30 10534 C 980.463 4.13082 4.23223 0
M  V30 10535 H 979.393 0.402603 0.637516 0
M  V30 10536 H 982.044 1.4897 1.07146 0
M  V30 10537 H 980.426 1.41823 3.69733 0
M  V30 10538 H 981.6 3.95108 2.37121 0
M  V30 10539 H 979.915 3.4864 2.27683 0
M  V30 10540 H 982.512 2.3367 4.80939 0
M  V30 10541 H 982.855 0.783247 4.08865 0
M  V30 10542 H 983.388 2.26997 3.26676 0
M  V30 10543 H 980.127 5.16824 4.03204 0
M  V30 10544 H 979.647 3.62644 4.77755 0
M  V30 10545 H 981.326 4.20397 4.91808 0
M  V30 10546 N 981.458 -1.16348 1.06306 0
M  V30 10547 C 982.388 -2.2291 0.695234 0
M  V30 10548 C 983.369 -1.67208 -0.312343 0
M  V30 10549 O 984.554 -1.93293 -0.187442 0
M  V30 10550 C 981.684 -3.47205 0.0810149 0
M  V30 10551 C 980.638 -4.15801 1.01458 0
M  V30 10552 C 979.964 -5.3405 0.263656 0
M  V30 10553 C 981.264 -4.66766 2.34365 0
M  V30 10554 H 982.958 -2.53934 1.58613 0
M  V30 10555 H 980.504 -1.22056 0.76409 0
M  V30 10556 H 982.457 -4.2098 -0.18818 0
M  V30 10557 H 981.181 -3.15482 -0.844897 0
M  V30 10558 H 979.84 -3.43954 1.26852 0
M  V30 10559 H 979.488 -4.9858 -0.665378 0
M  V30 10560 H 979.188 -5.80885 0.88582 0
M  V30 10561 H 980.712 -6.106 0.00200994 0
M  V30 10562 H 982.126 -5.3212 2.13356 0
M  V30 10563 H 980.523 -5.24223 2.9208 0
M  V30 10564 H 981.593 -3.82969 2.97426 0
M  V30 10565 N 982.937 -0.845659 -1.3299 0
M  V30 10566 C 984.186 -0.440928 -1.96822 0
M  V30 10567 C 984.499 1.00668 -1.67706 0
M  V30 10568 O 985.705 1.51641 -2.25205 0
M  V30 10569 C 984.161 -0.73752 -3.52262 0
M  V30 10570 C 983.769 -2.20026 -3.90247 0
M  V30 10571 C 985.513 -0.400072 -4.22611 0
M  V30 10572 C 983.42 -2.44054 -5.38694 0
M  V30 10573 H 982.35 -0.161148 -0.736578 0
M  V30 10574 H 985.001 -1.03519 -1.51513 0
M  V30 10575 H 983.383 -0.0728025 -3.95933 0
M  V30 10576 H 984.557 -2.90602 -3.57613 0
M  V30 10577 H 982.872 -2.50135 -3.32899 0
M  V30 10578 H 985.469 -0.557136 -5.3179 0
M  V30 10579 H 985.812 0.657547 -4.11074 0
M  V30 10580 H 986.345 -1.0203 -3.84493 0
M  V30 10581 H 983.084 -3.48407 -5.55241 0
M  V30 10582 H 982.604 -1.78047 -5.72765 0
M  V30 10583 H 984.283 -2.27549 -6.05665 0
M  V30 10584 N 984.415 1.45619 -0.602734 0
M  V30 10585 C 985.325 2.34288 0.120902 0
M  V30 10586 C 986.341 1.50952 0.865414 0
M  V30 10587 O 987.517 1.83768 0.824094 0
M  V30 10588 C 984.582 3.28489 1.10888 0
M  V30 10589 C 983.643 4.2773 0.366853 0
M  V30 10590 C 982.876 5.17429 1.30776 0
M  V30 10591 O 983.099 5.10459 2.54535 0
M  V30 10592 O 982.033 5.96459 0.807464 0
M  V30 10593 H 985.859 2.97559 -0.60765 0
M  V30 10594 H 983.444 1.44922 -0.363019 0
M  V30 10595 H 985.326 3.86549 1.67803 0
M  V30 10596 H 984.001 2.67789 1.81854 0
M  V30 10597 H 982.908 3.73299 -0.244643 0
M  V30 10598 H 984.241 4.91271 -0.302226 0
M  V30 10599 N 985.893 0.34162 1.53853 0
M  V30 10600 C 987.121 -0.256929 2.05299 0
M  V30 10601 C 987.536 -1.44366 1.21671 0
M  V30 10602 O 986.893 -1.80758 0.251584 0
M  V30 10603 C 986.944 -0.673854 3.55164 0
M  V30 10604 O 986.665 0.465687 4.35618 0
M  V30 10605 C 988.166 -1.33332 4.22773 0
M  V30 10606 H 985.386 -0.0499445 0.669139 0
M  V30 10607 H 987.93 0.493048 1.98467 0
M  V30 10608 H 986.085 -1.37378 3.62224 0
M  V30 10609 H 986.499 0.133723 5.2433 0
M  V30 10610 H 987.973 -1.57582 5.29029 0
M  V30 10611 H 988.45 -2.28628 3.75001 0
M  V30 10612 H 989.056 -0.675489 4.19901 0
M  V30 10613 N 987.371 -1.57444 0.0701946 0
M  V30 10614 C 988.318 -2.12631 -0.897599 0
M  V30 10615 C 989.288 -1.03841 -1.29639 0
M  V30 10616 O 990.473 -1.31495 -1.38253 0
M  V30 10617 C 987.613 -2.6911 -2.16041 0
M  V30 10618 C 986.726 -3.9205 -1.8144 0
M  V30 10619 C 985.861 -4.36778 -3.02321 0
M  V30 10620 C 984.9 -5.52371 -2.63729 0
M  V30 10621 N 984.037 -5.92065 -3.77364 0
M  V30 10622 H 988.877 -2.95024 -0.420104 0
M  V30 10623 H 986.414 -1.45792 -0.195716 0
M  V30 10624 H 988.372 -2.99963 -2.89962 0
M  V30 10625 H 987.002 -1.89484 -2.61334 0
M  V30 10626 H 986.054 -3.67669 -0.975896 0
M  V30 10627 H 987.366 -4.76011 -1.49046 0
M  V30 10628 H 986.52 -4.69285 -3.84521 0
M  V30 10629 H 985.259 -3.51668 -3.37907 0
M  V30 10630 H 984.264 -5.19517 -1.7995 0
M  V30 10631 H 985.489 -6.39212 -2.29315 0
M  V30 10632 H 983.435 -5.09904 -4.12715 0
M  V30 10633 H 983.352 -6.70762 -3.48733 0
M  V30 10634 H 984.62 -6.29193 -4.60148 0
M  V30 10635 N 988.849 0.203349 -1.56283 0
M  V30 10636 C 989.779 1.2549 -1.96912 0
M  V30 10637 C 990.76 1.47919 -0.839884 0
M  V30 10638 O 991.945 1.59795 -1.10359 0
M  V30 10639 C 989.075 2.6009 -2.30153 0
M  V30 10640 C 988.029 2.52289 -3.45738 0
M  V30 10641 C 987.355 3.91086 -3.64632 0
M  V30 10642 C 988.655 2.05503 -4.80173 0
M  V30 10643 H 990.349 0.917306 -2.85002 0
M  V30 10644 H 987.895 0.439818 -1.37119 0
M  V30 10645 H 989.848 3.33829 -2.5717 0
M  V30 10646 H 988.572 2.95574 -1.38937 0
M  V30 10647 H 987.231 1.81006 -3.18798 0
M  V30 10648 H 986.879 4.23908 -2.7076 0
M  V30 10649 H 986.579 3.86742 -4.42385 0
M  V30 10650 H 988.103 4.66459 -3.94016 0
M  V30 10651 H 989.517 2.68995 -5.06275 0
M  V30 10652 H 987.914 2.1218 -5.61337 0
M  V30 10653 H 988.984 1.00793 -4.74309 0
M  V30 10654 N 990.327 1.50405 0.470755 0
M  V30 10655 C 991.573 1.6165 1.22462 0
M  V30 10656 C 991.906 0.316034 1.91611 0
M  V30 10657 O 991.181 -0.682509 1.82132 0
M  V30 10658 C 991.464 2.79702 2.26801 0
M  V30 10659 C 991.317 4.19631 1.61955 0
M  V30 10660 C 992.636 2.93313 3.28109 0
M  V30 10661 H 989.755 0.588345 0.443868 0
M  V30 10662 H 992.397 1.82792 0.518376 0
M  V30 10663 H 990.547 2.61807 2.87036 0
M  V30 10664 H 992.219 4.49117 1.05316 0
M  V30 10665 H 990.462 4.23874 0.922674 0
M  V30 10666 H 991.133 4.98162 2.37779 0
M  V30 10667 H 993.609 3.09697 2.77897 0
M  V30 10668 H 992.485 3.77537 3.98443 0
M  V30 10669 H 992.746 2.03942 3.9225 0
M  V30 10670 N 991.805 -0.723954 1.39988 0
M  V30 10671 C 992.735 -1.85103 1.42335 0
M  V30 10672 C 993.716 -1.6769 0.285297 0
M  V30 10673 O 994.901 -1.87846 0.492716 0
M  V30 10674 C 992.031 -3.22972 1.27697 0
M  V30 10675 C 990.985 -3.55041 2.39018 0
M  V30 10676 C 990.311 -4.91965 2.09462 0
M  V30 10677 C 991.611 -3.56889 3.8135 0
M  V30 10678 H 993.305 -1.83396 2.36656 0
M  V30 10679 H 990.851 -0.880926 1.13911 0
M  V30 10680 H 992.804 -4.01503 1.27958 0
M  V30 10681 H 991.528 -3.25233 0.298487 0
M  V30 10682 H 990.187 -2.78845 2.37993 0
M  V30 10683 H 989.835 -4.90819 1.10025 0
M  V30 10684 H 989.535 -5.14389 2.84038 0
M  V30 10685 H 991.059 -5.7284 2.11391 0
M  V30 10686 H 992.473 -4.25476 3.84243 0
M  V30 10687 H 990.87 -3.90836 4.55376 0
M  V30 10688 H 991.94 -2.56452 4.11534 0
M  V30 10689 N 993.283 -1.25346 -0.955304 0
M  V30 10690 C 994.508 -1.12892 -1.73983 0
M  V30 10691 C 994.933 0.313455 -1.8547 0
M  V30 10692 O 994.291 1.22706 -1.33465 0
M  V30 10693 C 994.339 -1.78729 -3.1319 0
M  V30 10694 O 993.443 -1.06648 -3.98372 0
M  V30 10695 H 992.784 -0.394178 -0.534341 0
M  V30 10696 H 995.314 -1.65897 -1.19747 0
M  V30 10697 H 995.324 -1.84987 -3.63653 0
M  V30 10698 H 993.999 -2.83669 -3.04146 0
M  V30 10699 H 992.576 -1.08266 -3.56837 0
M  V30 10700 N 994.761 1.15782 -1.06922 0
M  V30 10701 C 996.177 1.38454 -0.793896 0
M  V30 10702 C 996.377 1.92238 0.603875 0
M  V30 10703 O 995.433 2.1253 1.36335 0
M  V30 10704 C 996.746 2.3595 -1.86408 0
M  V30 10705 C 998.294 2.49622 -1.88833 0
M  V30 10706 C 998.769 3.50406 -2.94923 0
M  V30 10707 N 1000.26 3.57938 -2.93997 0
M  V30 10708 C 1001 4.35728 -3.72731 0
M  V30 10709 N 1000.49 5.16888 -4.61301 0
M  V30 10710 N 1002.28 4.30774 -3.61096 0
M  V30 10711 H 994.435 0.792101 -1.97077 0
M  V30 10712 H 996.698 0.410779 -0.85438 0
M  V30 10713 H 996.404 2.03537 -2.86819 0
M  V30 10714 H 996.278 3.35677 -1.72049 0
M  V30 10715 H 998.665 2.81335 -0.890759 0
M  V30 10716 H 998.746 1.49909 -2.0727 0
M  V30 10717 H 998.39 3.19429 -3.94877 0
M  V30 10718 H 998.32 4.49864 -2.73734 0
M  V30 10719 H 1000.81 3.00007 -2.29791 0
M  V30 10720 H 1001.12 5.73477 -5.18019 0
M  V30 10721 H 999.469 5.16209 -4.65353 0
M  V30 10722 H 1002.66 3.66432 -2.91282 0
M  V30 10723 H 1002.83 4.91151 -4.22699 0
M  V30 10724 N 996.239 0.8527 1.3254 0
M  V30 10725 C 997.486 0.455123 1.97319 0
M  V30 10726 C 997.814 -0.988814 1.67489 0
M  V30 10727 O 997.069 -1.70845 0.954483 0
M  V30 10728 C 997.368 0.638757 3.51646 0
M  V30 10729 C 997.034 2.05287 4.01458 0
M  V30 10730 C 995.696 2.43963 4.14771 0
M  V30 10731 C 998.048 2.9759 4.27889 0
M  V30 10732 C 995.376 3.7422 4.51859 0
M  V30 10733 C 997.728 4.27343 4.66434 0
M  V30 10734 C 996.392 4.65957 4.77954 0
M  V30 10735 H 995.662 0.166541 0.722042 0
M  V30 10736 H 998.309 1.08238 1.57977 0
M  V30 10737 H 996.614 -0.0717394 3.91734 0
M  V30 10738 H 998.311 0.311219 3.9979 0
M  V30 10739 H 994.901 1.74253 3.91579 0
M  V30 10740 H 999.085 2.68942 4.17114 0
M  V30 10741 H 994.341 4.03923 4.58973 0
M  V30 10742 H 998.515 4.9893 4.85841 0
M  V30 10743 H 996.142 5.66934 5.06449 0
M  V30 10744 N 997.718 -1.45297 0.610449 0
M  V30 10745 C 998.628 -2.34349 -0.108475 0
M  V30 10746 C 999.644 -1.51409 -0.857397 0
M  V30 10747 O 1000.82 -1.84202 -0.814337 0
M  V30 10748 C 997.885 -3.29072 -1.09144 0
M  V30 10749 C 996.946 -4.27918 -0.344165 0
M  V30 10750 C 996.179 -5.18116 -1.28031 0
M  V30 10751 O 996.402 -5.11802 -2.51824 0
M  V30 10752 O 995.336 -5.96879 -0.775821 0
M  V30 10753 H 999.162 -2.97232 0.623421 0
M  V30 10754 H 996.747 -1.44728 0.3707 0
M  V30 10755 H 998.629 -3.87433 -1.65751 0
M  V30 10756 H 997.304 -2.68749 -1.80431 0
M  V30 10757 H 996.211 -3.73164 0.264437 0
M  V30 10758 H 997.544 -4.91104 0.328275 0
M  V30 10759 N 999.196 -0.349774 -1.5367 0
M  V30 10760 C 1000.44 0.244827 -2.01015 0
M  V30 10761 C 1000.77 1.50057 -1.23746 0
M  V30 10762 O 1000.03 1.9315 -0.314872 0
M  V30 10763 C 1000.32 0.598311 -3.52356 0
M  V30 10764 C 999.991 -0.56127 -4.47393 0
M  V30 10765 C 998.653 -0.879481 -4.73095 0
M  V30 10766 C 1001 -1.3389 -5.03709 0
M  V30 10767 C 998.333 -1.97758 -5.52366 0
M  V30 10768 C 1000.68 -2.4273 -5.84179 0
M  V30 10769 C 999.349 -2.75103 -6.08173 0
M  V30 10770 H 998.619 0.0895884 -0.735564 0
M  V30 10771 H 1001.27 -0.478975 -1.85413 0
M  V30 10772 H 999.571 1.40291 -3.65822 0
M  V30 10773 H 1001.27 1.07036 -3.86451 0
M  V30 10774 H 997.858 -0.303201 -4.27526 0
M  V30 10775 H 1002.04 -1.10632 -4.83812 0
M  V30 10776 H 997.298 -2.23257 -5.6918 0
M  V30 10777 H 1001.47 -3.03412 -6.26828 0
M  V30 10778 H 999.099 -3.60317 -6.69385 0
M  V30 10779 N 1000.67 1.57404 -0.0785433 0
M  V30 10780 C 1001.58 2.16612 0.900902 0
M  V30 10781 C 1002.6 1.13109 1.32221 0
M  V30 10782 O 1003.78 1.45406 1.39352 0
M  V30 10783 C 1000.84 2.7215 2.14791 0
M  V30 10784 C 999.902 3.90551 1.78237 0
M  V30 10785 C 999.135 4.43431 2.96993 0
M  V30 10786 O 999.358 3.95292 4.11218 0
M  V30 10787 O 998.292 5.34674 2.76418 0
M  V30 10788 H 1002.12 3.0068 0.427227 0
M  V30 10789 H 999.703 1.48696 0.144902 0
M  V30 10790 H 1001.58 3.07718 2.87902 0
M  V30 10791 H 1000.26 1.91139 2.61243 0
M  V30 10792 H 999.167 3.59825 1.02357 0
M  V30 10793 H 1000.5 4.72876 1.36562 0
M  V30 10794 N 1002.15 -0.195058 1.56388 0
M  V30 10795 C 1003.4 -0.913636 1.8027 0
M  V30 10796 C 1003.72 -1.83791 0.651606 0
M  V30 10797 O 1002.99 -1.931 -0.330057 0
M  V30 10798 H 1001.57 -0.34036 0.664954 0
M  V30 10799 H 1004.23 -0.200559 1.93865 0
M  V30 10800 H 1003.33 -1.50473 2.7343 0
M  V30 10801 N 1003.63 -1.50653 -0.462772 0
M  V30 10802 C 1004.88 -1.62297 -1.21603 0
M  V30 10803 C 1005.21 -0.326191 -1.91441 0
M  V30 10804 O 1004.48 0.67284 -1.82491 0
M  V30 10805 C 1004.77 -2.80901 -2.25315 0
M  V30 10806 C 1004.62 -4.20484 -1.59728 0
M  V30 10807 C 1005.94 -2.95049 -3.26549 0
M  V30 10808 H 1003.06 -0.590691 -0.440741 0
M  V30 10809 H 1005.7 -1.83064 -0.508675 0
M  V30 10810 H 1003.85 -2.63325 -2.85643 0
M  V30 10811 H 1005.52 -4.49669 -1.02932 0
M  V30 10812 H 1003.76 -4.24357 -0.900181 0
M  V30 10813 H 1004.44 -4.99416 -2.35133 0
M  V30 10814 H 1006.91 -3.11166 -2.76251 0
M  V30 10815 H 1005.79 -3.79645 -3.96435 0
M  V30 10816 H 1006.05 -2.06019 -3.91163 0
M  V30 10817 N 1005.11 0.71652 -1.4037 0
M  V30 10818 C 1006.33 1.51069 -1.42102 0
M  V30 10819 C 1006.76 1.88087 -0.0222387 0
M  V30 10820 O 1006.12 1.53204 0.969448 0
M  V30 10821 C 1006.16 2.76307 -2.31704 0
M  V30 10822 O 1005.27 3.72975 -1.75964 0
M  V30 10823 H 1004.61 0.455502 -0.483129 0
M  V30 10824 H 1007.14 0.882514 -1.84588 0
M  V30 10825 H 1007.15 3.24846 -2.46859 0
M  V30 10826 H 1005.82 2.48698 -3.3335 0
M  V30 10827 H 1004.4 3.31818 -1.70151 0
M  V30 10828 N 1006.59 1.25851 0.948643 0
M  V30 10829 C 1007.81 1.13813 1.73382 0
M  V30 10830 C 1008.24 -0.303615 1.85633 0
M  V30 10831 O 1007.59 -1.21997 1.34114 0
M  V30 10832 C 1007.64 1.80388 3.12238 0
M  V30 10833 O 1006.75 1.08759 3.978 0
M  V30 10834 H 1006.09 0.397006 0.532243 0
M  V30 10835 H 1008.62 1.66529 1.18866 0
M  V30 10836 H 1008.63 1.86913 3.62667 0
M  V30 10837 H 1007.3 2.85278 3.02637 0
M  V30 10838 H 1005.88 1.10157 3.56258 0
M  V30 10839 N 1008.06 -1.15214 1.07534 0
M  V30 10840 C 1009.29 -1.89922 0.820804 0
M  V30 10841 C 1009.71 -1.78114 -0.626177 0
M  V30 10842 O 1009.06 -1.13435 -1.42964 0
M  V30 10843 C 1009.12 -3.40207 1.22236 0
M  V30 10844 O 1008.84 -3.51676 2.61257 0
M  V30 10845 C 1010.34 -4.31934 0.997393 0
M  V30 10846 H 1007.56 -0.601865 0.296647 0
M  V30 10847 H 1010.1 -1.45965 1.43229 0
M  V30 10848 H 1008.26 -3.8182 0.655167 0
M  V30 10849 H 1008.67 -4.44959 2.77689 0
M  V30 10850 H 1010.14 -5.35791 1.32785 0
M  V30 10851 H 1010.62 -4.3915 -0.0661599 0
M  V30 10852 H 1011.23 -3.96066 1.54958 0
M  V30 10853 N 1009.54 -0.859717 -1.32086 0
M  V30 10854 C 1010.79 -0.464662 -1.96686 0
M  V30 10855 C 1011.11 0.98412 -1.68345 0
M  V30 10856 O 1010.38 1.68847 -0.993361 0
M  V30 10857 H 1008.96 -0.168838 -0.727669 0
M  V30 10858 H 1011.62 -1.09726 -1.61079 0
M  V30 10859 H 1010.72 -0.613904 -3.06003 0
M  V30 10860 N 1011.02 1.44971 -0.618145 0
M  V30 10861 C 1011.93 2.34403 0.0960457 0
M  V30 10862 C 1012.95 1.51862 0.849355 0
M  V30 10863 O 1014.12 1.84632 0.804557 0
M  V30 10864 C 1011.19 3.29646 1.07397 0
M  V30 10865 C 1010.25 4.28095 0.321466 0
M  V30 10866 C 1009.48 5.18787 1.25281 0
M  V30 10867 O 1009.7 5.1313 2.49106 0
M  V30 10868 O 1008.64 5.97282 0.744156 0
M  V30 10869 H 1012.46 2.96898 -0.639176 0
M  V30 10870 H 1010.05 1.44529 -0.37837 0
M  V30 10871 H 1011.93 3.88307 1.63694 0
M  V30 10872 H 1010.61 2.69702 1.79004 0
M  V30 10873 H 1009.51 3.73019 -0.284223 0
M  V30 10874 H 1010.85 4.90923 -0.354315 0
M  V30 10875 N 1012.5 0.357919 1.53482 0
M  V30 10876 C 1013.45 -0.507364 2.26999 0
M  V30 10877 C 1014.44 -1.08987 1.29685 0
M  V30 10878 O 1015.65 -1.03396 1.47341 0
M  V30 10879 H 1012.02 -0.182326 0.729562 0
M  V30 10880 H 1013.99 0.134547 2.98097 0
M  V30 10881 C 1012.74 -1.63911 3.06641 0
M  V30 10882 H 1012.06 -1.20017 3.81361 0
M  V30 10883 H 1013.5 -2.21943 3.61272 0
M  V30 10884 C 1011.96 -2.57697 2.17011 0
M  V30 10885 O 1012.49 -3.60318 1.77578 0
M  V30 10886 N 1010.7 -2.2671 1.818 0
M  V30 10887 H 1010.25 -1.43296 2.14065 0
M  V30 10888 H 1010.2 -2.89716 1.22115 0
M  V30 10889 N 1013.98 -1.5736 0.0868897 0
M  V30 10890 C 1014.94 -2.12436 -0.860439 0
M  V30 10891 C 1015.94 -1.05175 -1.21634 0
M  V30 10892 O 1017.13 -1.31098 -1.14713 0
M  V30 10893 C 1014.26 -2.63818 -2.159 0
M  V30 10894 H 1015.45 -2.97453 -0.382346 0
M  V30 10895 H 1013.01 -1.55458 -0.162009 0
M  V30 10896 H 1013.74 -1.82298 -2.68212 0
M  V30 10897 H 1013.53 -3.42234 -1.91359 0
M  V30 10898 H 1015.02 -3.06452 -2.83685 0
M  V30 10899 N 1015.45 0.186762 -1.56489 0
M  V30 10900 C 1016.38 1.23395 -1.98232 0
M  V30 10901 C 1017.37 1.4702 -0.855526 0
M  V30 10902 O 1018.55 1.58616 -1.12048 0
M  V30 10903 C 1015.68 2.57635 -2.32898 0
M  V30 10904 C 1014.63 2.48607 -3.48394 0
M  V30 10905 C 1013.96 3.87196 -3.68759 0
M  V30 10906 C 1015.26 2.00398 -4.82325 0
M  V30 10907 H 1016.95 0.887026 -2.85958 0
M  V30 10908 H 1014.5 0.42525 -1.37578 0
M  V30 10909 H 1016.45 3.31082 -2.60696 0
M  V30 10910 H 1015.18 2.94084 -1.42064 0
M  V30 10911 H 1013.84 1.77615 -3.207 0
M  V30 10912 H 1013.48 4.21012 -2.75241 0
M  V30 10913 H 1013.18 3.82029 -4.46462 0
M  V30 10914 H 1014.71 4.62253 -3.98941 0
M  V30 10915 H 1016.12 2.6361 -5.091 0
M  V30 10916 H 1014.52 2.06214 -5.63556 0
M  V30 10917 H 1015.59 0.957562 -4.75351 0
M  V30 10918 N 1016.93 1.50896 0.454776 0
M  V30 10919 C 1017.84 1.73762 1.5762 0
M  V30 10920 C 1018.86 0.621206 1.62533 0
M  V30 10921 O 1020.03 0.901449 1.801 0
M  V30 10922 C 1017.1 1.84183 2.9373 0
M  V30 10923 C 1016.16 3.07982 2.99075 0
M  V30 10924 C 1015.39 3.17896 4.28693 0
M  V30 10925 O 1015.62 2.34184 5.20109 0
M  V30 10926 O 1014.55 4.10749 4.39964 0
M  V30 10927 H 1018.38 2.68856 1.41245 0
M  V30 10928 H 1015.96 1.35187 0.635984 0
M  V30 10929 H 1017.84 1.93123 3.74542 0
M  V30 10930 H 1016.52 0.922742 3.10269 0
M  V30 10931 H 1015.43 3.04531 2.17282 0
M  V30 10932 H 1016.76 3.99523 2.87476 0
M  V30 10933 N 1018.41 -0.709066 1.40748 0
M  V30 10934 C 1019.37 -1.80485 1.41272 0
M  V30 10935 C 1020.37 -1.57872 0.305463 0
M  V30 10936 O 1021.56 -1.64793 0.564691 0
M  V30 10937 C 1018.7 -3.1867 1.21087 0
M  V30 10938 H 1019.89 -1.81417 2.38805 0
M  V30 10939 H 1017.44 -0.915356 1.26692 0
M  V30 10940 H 1018.18 -3.23385 0.243406 0
M  V30 10941 H 1017.96 -3.36484 2.01299 0
M  V30 10942 H 1019.45 -3.98685 1.24257 0
M  V30 10943 N 1019.89 -1.26353 -0.941956 0
M  V30 10944 C 1021.14 -1.1163 -1.68473 0
M  V30 10945 C 1021.46 0.34108 -1.91994 0
M  V30 10946 O 1020.73 1.24065 -1.51607 0
M  V30 10947 H 1019.31 -0.410113 -0.624353 0
M  V30 10948 H 1021.97 -1.58669 -1.13182 0
M  V30 10949 H 1021.07 -1.63445 -2.6588 0
M  V30 10950 N 1021.37 1.14642 -1.08144 0
M  V30 10951 C 1022.28 2.23257 -0.720668 0
M  V30 10952 C 1023.29 1.71866 0.271648 0
M  V30 10953 O 1024.47 2.01064 0.116266 0
M  V30 10954 C 1021.53 3.46447 -0.132542 0
M  V30 10955 C 1020.6 4.12789 -1.17913 0
M  V30 10956 C 1019.83 5.30099 -0.618971 0
M  V30 10957 O 1020.05 5.6762 0.562418 0
M  V30 10958 O 1018.99 5.86154 -1.36774 0
M  V30 10959 H 1022.81 2.56463 -1.62667 0
M  V30 10960 H 1020.4 1.22521 -0.854932 0
M  V30 10961 H 1022.28 4.20959 0.19277 0
M  V30 10962 H 1020.95 3.14971 0.746662 0
M  V30 10963 H 1019.86 3.40163 -1.55693 0
M  V30 10964 H 1021.19 4.48365 -2.03051 0
M  V30 10965 N 1022.85 0.866709 1.31628 0
M  V30 10966 C 1024.12 0.396828 1.91532 0
M  V30 10967 C 1024.5 -1.12081 1.78889 0
M  V30 10968 O 1023.85 -1.94791 1.19452 0
M  V30 10969 C 1024.06 0.874578 3.37864 0
M  V30 10970 C 1025.41 0.8988 4.14978 0
M  V30 10971 O 1026.43 0.820014 3.46633 0
M  V30 10972 O 1025.29 1.01223 5.37044 0
M  V30 10973 H 1022.39 0.1181 0.818524 0
M  V30 10974 H 1024.93 0.954407 1.40318 0
M  V30 10975 H 1023.7 1.91807 3.41066 0
M  V30 10976 H 1023.33 0.295126 3.96503 0
M  V30 10977 N 1024.32 -1.44642 0.625825 0
M  V30 10978 C 1025.23 -2.34451 -0.0836134 0
M  V30 10979 C 1026.25 -1.5231 -0.841289 0
M  V30 10980 O 1027.43 -1.85056 -0.794754 0
M  V30 10981 C 1024.49 -3.30211 -1.05648 0
M  V30 10982 C 1023.55 -4.28259 -0.298759 0
M  V30 10983 C 1022.78 -5.19444 -1.22528 0
M  V30 10984 O 1023.01 -5.14444 -2.46382 0
M  V30 10985 O 1021.94 -5.97668 -0.71247 0
M  V30 10986 H 1025.77 -2.96555 0.654912 0
M  V30 10987 H 1023.35 -1.44327 0.386029 0
M  V30 10988 H 1025.23 -3.8917 -1.61632 0
M  V30 10989 H 1023.91 -2.70648 -1.77571 0
M  V30 10990 H 1022.82 -3.72863 0.304001 0
M  V30 10991 H 1024.15 -4.90728 0.380345 0
M  V30 10992 N 1025.8 -0.366053 -1.5329 0
M  V30 10993 C 1026.71 0.488111 -2.29466 0
M  V30 10994 C 1027.73 1.09219 -1.35452 0
M  V30 10995 O 1028.9 1.10303 -1.68509 0
M  V30 10996 C 1025.97 1.61202 -3.06944 0
M  V30 10997 C 1025.03 1.03543 -4.16626 0
M  V30 10998 C 1024.26 2.10578 -4.904 0
M  V30 10999 O 1024.49 3.31697 -4.6404 0
M  V30 11000 O 1023.42 1.73609 -5.76319 0
M  V30 11001 H 1027.25 -0.131789 -3.03414 0
M  V30 11002 H 1024.83 -0.130421 -1.4883 0
M  V30 11003 H 1026.71 2.26546 -3.55324 0
M  V30 11004 H 1025.39 2.21732 -2.35832 0
M  V30 11005 H 1024.29 0.345892 -3.72498 0
M  V30 11006 H 1025.63 0.474687 -4.89906 0
M  V30 11007 N 1027.28 1.57312 -0.0952337 0
M  V30 11008 C 1028.19 2.17556 0.877877 0
M  V30 11009 C 1029.21 1.14505 1.31014 0
M  V30 11010 O 1030.38 1.46876 1.37802 0
M  V30 11011 C 1027.45 2.74413 2.11892 0
M  V30 11012 C 1026.51 3.92419 1.74085 0
M  V30 11013 C 1025.74 4.46556 2.92273 0
M  V30 11014 O 1025.96 3.99631 4.07002 0
M  V30 11015 O 1024.9 5.37576 2.70732 0
M  V30 11016 H 1028.72 3.01116 0.395312 0
M  V30 11017 H 1026.31 1.48841 0.129123 0
M  V30 11018 H 1028.19 3.10754 2.84622 0
M  V30 11019 H 1026.87 1.93899 2.59201 0
M  V30 11020 H 1025.77 3.6089 0.985346 0
M  V30 11021 H 1027.11 4.74298 1.31539 0
M  V30 11022 N 1028.76 -0.17846 1.56586 0
M  V30 11023 C 1030 -0.897562 1.81856 0
M  V30 11024 C 1030.34 -1.82204 0.671955 0
M  V30 11025 O 1029.61 -1.91739 -0.326535 0
M  V30 11026 C 1029.89 -1.69942 3.17477 0
M  V30 11027 C 1029.75 -0.798545 4.42655 0
M  V30 11028 C 1031.07 -2.66861 3.49962 0
M  V30 11029 H 1028.19 -0.324863 0.661539 0
M  V30 11030 H 1030.83 -0.164106 1.8929 0
M  V30 11031 H 1028.98 -2.32471 3.11271 0
M  V30 11032 H 1030.65 -0.18668 4.60922 0
M  V30 11033 H 1028.89 -0.106181 4.3367 0
M  V30 11034 H 1029.56 -1.39496 5.34083 0
M  V30 11035 H 1032.04 -2.1446 3.56576 0
M  V30 11036 H 1030.92 -3.20037 4.45946 0
M  V30 11037 H 1031.18 -3.46715 2.74301 0
M  V30 11038 N 1030.24 -1.51135 -0.446768 0
M  V30 11039 C 1031.48 -1.64542 -1.19573 0
M  V30 11040 C 1031.84 -0.352728 -1.89139 0
M  V30 11041 O 1031.13 0.650917 -1.80204 0
M  V30 11042 C 1031.32 -2.78034 -2.2457 0
M  V30 11043 C 1031.15 -4.18214 -1.65308 0
M  V30 11044 C 1029.92 -4.84284 -1.44212 0
M  V30 11045 C 1032.12 -5.01631 -1.13451 0
M  V30 11046 N 1030.1 -6.08606 -0.804486 0
M  V30 11047 C 1031.47 -6.16876 -0.621577 0
M  V30 11048 C 1033.53 -4.87227 -1.02537 0
M  V30 11049 C 1032.23 -7.19299 -0.0102361 0
M  V30 11050 C 1034.26 -5.8985 -0.427936 0
M  V30 11051 C 1033.62 -7.04361 0.0745026 0
M  V30 11052 H 1029.72 -0.656068 -0.425556 0
M  V30 11053 H 1032.3 -1.88334 -0.493802 0
M  V30 11054 H 1030.47 -2.55922 -2.92162 0
M  V30 11055 H 1032.21 -2.8067 -2.91558 0
M  V30 11056 H 1028.96 -4.4199 -1.70123 0
M  V30 11057 H 1029.38 -6.75126 -0.503379 0
M  V30 11058 H 1034.03 -3.98959 -1.39971 0
M  V30 11059 H 1031.74 -8.07224 0.376252 0
M  V30 11060 H 1035.33 -5.80773 -0.34552 0
M  V30 11061 H 1034.21 -7.8241 0.529535 0
M  V30 11062 N 1031.71 0.701592 -1.41122 0
M  V30 11063 C 1032.64 1.82815 -1.45262 0
M  V30 11064 C 1033.62 1.67215 -0.311939 0
M  V30 11065 O 1034.81 1.87038 -0.522538 0
M  V30 11066 C 1031.94 3.20899 -1.32819 0
M  V30 11067 C 1030.89 3.51194 -2.44636 0
M  V30 11068 C 1030.22 4.8857 -2.17263 0
M  V30 11069 C 1031.52 3.50777 -3.86979 0
M  V30 11070 H 1033.21 1.79608 -2.39544 0
M  V30 11071 H 1030.76 0.862693 -1.15298 0
M  V30 11072 H 1032.71 3.99417 -1.34329 0
M  V30 11073 H 1031.44 3.24717 -0.350191 0
M  V30 11074 H 1030.1 2.75024 -2.42399 0
M  V30 11075 H 1029.74 4.89007 -1.17819 0
M  V30 11076 H 1029.44 5.09805 -2.92186 0
M  V30 11077 H 1030.97 5.69405 -2.20478 0
M  V30 11078 H 1032.38 4.19309 -3.90964 0
M  V30 11079 H 1030.78 3.83542 -4.61536 0
M  V30 11080 H 1031.85 2.49873 -4.15562 0
M  V30 11081 N 1033.19 1.2685 0.935242 0
M  V30 11082 C 1034.44 1.12745 1.68211 0
M  V30 11083 C 1034.77 -0.328128 1.91712 0
M  V30 11084 O 1034.02 -1.25701 1.49993 0
M  V30 11085 C 1034.32 1.8482 3.05903 0
M  V30 11086 C 1033.99 3.347 3.02137 0
M  V30 11087 C 1032.65 3.75583 3.00817 0
M  V30 11088 C 1035 4.30368 2.93995 0
M  V30 11089 C 1032.33 5.10511 2.89129 0
M  V30 11090 C 1034.68 5.65343 2.83848 0
M  V30 11091 C 1033.34 6.0553 2.80874 0
M  V30 11092 H 1032.61 0.412563 0.615527 0
M  V30 11093 H 1035.26 1.57366 1.09124 0
M  V30 11094 H 1033.57 1.32685 3.68649 0
M  V30 11095 H 1035.26 1.71341 3.62551 0
M  V30 11096 H 1031.85 3.02182 3.03947 0
M  V30 11097 H 1036.04 3.9976 2.94118 0
M  V30 11098 H 1031.29 5.40802 2.85208 0
M  V30 11099 H 1035.47 6.39151 2.76512 0
M  V30 11100 H 1033.09 7.10037 2.71573 0
M  V30 11101 N 1034.67 -1.14067 1.0875 0
M  V30 11102 C 1035.92 -1.85677 0.830392 0
M  V30 11103 C 1036.27 -1.81549 -0.637016 0
M  V30 11104 O 1035.56 -1.23774 -1.46255 0
M  V30 11105 C 1035.76 -3.33273 1.29089 0
M  V30 11106 C 1035.59 -3.51774 2.80153 0
M  V30 11107 C 1034.36 -3.66419 3.47944 0
M  V30 11108 C 1036.56 -3.48399 3.78316 0
M  V30 11109 N 1034.54 -3.73112 4.87504 0
M  V30 11110 C 1035.91 -3.61378 5.03791 0
M  V30 11111 C 1037.96 -3.31758 3.7127 0
M  V30 11112 C 1036.67 -3.59435 6.23056 0
M  V30 11113 C 1038.69 -3.31119 4.90014 0
M  V30 11114 C 1038.05 -3.44643 6.1433 0
M  V30 11115 H 1034.15 -0.695948 0.356625 0
M  V30 11116 H 1036.74 -1.36687 1.38654 0
M  V30 11117 H 1034.91 -3.80846 0.762274 0
M  V30 11118 H 1036.64 -3.92659 0.979828 0
M  V30 11119 H 1033.4 -3.67799 2.98364 0
M  V30 11120 H 1033.82 -3.80167 5.6018 0
M  V30 11121 H 1038.46 -3.2021 2.76089 0
M  V30 11122 H 1036.18 -3.69758 7.18544 0
M  V30 11123 H 1039.77 -3.1945 4.86254 0
M  V30 11124 H 1038.65 -3.44101 7.04673 0
M  V30 11125 N 1036.15 -0.873678 -1.31166 0
M  V30 11126 C 1037.56 -0.566109 -1.49223 0
M  V30 11127 C 1037.76 0.898889 -1.80339 0
M  V30 11128 O 1036.82 1.68084 -1.88425 0
M  V30 11129 C 1038.13 -1.46952 -2.62346 0
M  V30 11130 C 1039.68 -1.47195 -2.76229 0
M  V30 11131 C 1040.16 -2.36102 -3.92454 0
M  V30 11132 N 1041.65 -2.34003 -3.99746 0
M  V30 11133 C 1042.38 -2.99513 -4.88958 0
M  V30 11134 N 1041.88 -3.74206 -5.83045 0
M  V30 11135 N 1043.67 -2.88802 -4.82234 0
M  V30 11136 H 1035.82 -1.82156 -1.09239 0
M  V30 11137 H 1038.09 -0.779086 -0.54012 0
M  V30 11138 H 1037.79 -2.51213 -2.4614 0
M  V30 11139 H 1037.67 -1.17077 -3.5857 0
M  V30 11140 H 1040.05 -0.436902 -2.91848 0
M  V30 11141 H 1040.13 -1.81095 -1.80661 0
M  V30 11142 H 1039.78 -3.39685 -3.77593 0
M  V30 11143 H 1039.71 -1.99524 -4.87337 0
M  V30 11144 H 1042.2 -1.79713 -3.32433 0
M  V30 11145 H 1042.51 -4.21312 -6.47855 0
M  V30 11146 H 1040.86 -3.78314 -5.83012 0
M  V30 11147 H 1044.05 -2.29984 -4.07707 0
M  V30 11148 H 1044.22 -3.40136 -5.51554 0
M  V30 11149 N 1037.63 1.44308 -0.633487 0
M  V30 11150 C 1038.9 1.95476 -0.0697262 0
M  V30 11151 C 1039.28 1.57539 1.40516 0
M  V30 11152 O 1038.63 0.850632 2.12077 0
M  V30 11153 C 1038.84 3.4775 -0.295093 0
M  V30 11154 C 1040.19 4.24177 -0.189542 0
M  V30 11155 O 1041.21 3.55479 -0.226586 0
M  V30 11156 O 1040.07 5.46415 -0.096479 0
M  V30 11157 H 1037.17 0.826734 0.0209582 0
M  V30 11158 H 1039.71 1.54347 -0.705354 0
M  V30 11159 H 1038.48 3.6842 -1.31841 0
M  V30 11160 H 1038.11 3.95832 0.37456 0
M  V30 11161 N 1039.1 0.374177 1.53094 0
M  V30 11162 C 1040.33 -0.215903 2.06273 0
M  V30 11163 C 1040.75 -1.40979 1.24526 0
M  V30 11164 O 1040.11 -1.79331 0.266462 0
M  V30 11165 C 1040.16 -0.579089 3.5592 0
M  V30 11166 O 1039.26 -1.67516 3.76845 0
M  V30 11167 H 1038.61 -0.0293981 0.663349 0
M  V30 11168 H 1041.14 0.537271 1.9742 0
M  V30 11169 H 1041.15 -0.847678 3.99097 0
M  V30 11170 H 1039.82 0.293843 4.14861 0
M  V30 11171 H 1038.4 -1.40146 3.45563 0
M  V30 11172 N 1040.58 -1.57259 0.103575 0
M  V30 11173 C 1041.53 -2.15727 -0.869739 0
M  V30 11174 C 1042.52 -1.10236 -1.28625 0
M  V30 11175 O 1043.73 -1.28567 -1.25979 0
M  V30 11176 H 1040.11 -0.690204 -0.298535 0
M  V30 11177 H 1042.08 -2.96317 -0.351984 0
M  V30 11178 C 1040.83 -2.75905 -2.11593 0
M  V30 11179 H 1040.15 -3.56768 -1.80434 0
M  V30 11180 H 1041.59 -3.20373 -2.77736 0
M  V30 11181 C 1040.05 -1.72218 -2.89556 0
M  V30 11182 O 1040.58 -1.16623 -3.84398 0
M  V30 11183 N 1038.78 -1.42514 -2.53255 0
M  V30 11184 H 1038.33 -1.87914 -1.76198 0
M  V30 11185 H 1038.29 -0.733782 -3.05717 0
M  V30 11186 N 1042.06 0.170153 -1.56679 0
M  V30 11187 C 1043.01 1.21064 -1.965 0
M  V30 11188 C 1043.98 1.43928 -0.829092 0
M  V30 11189 O 1045.16 1.56649 -1.08931 0
M  V30 11190 C 1042.3 2.54468 -2.33109 0
M  V30 11191 C 1041.42 2.38974 -3.59883 0
M  V30 11192 C 1040.55 3.65252 -3.857 0
M  V30 11193 C 1039.59 3.44696 -5.05817 0
M  V30 11194 N 1038.73 4.63047 -5.27761 0
M  V30 11195 H 1043.57 0.864055 -2.85198 0
M  V30 11196 H 1041.1 0.415243 -1.41117 0
M  V30 11197 H 1043.06 3.32222 -2.52358 0
M  V30 11198 H 1041.69 2.8712 -1.4752 0
M  V30 11199 H 1040.74 1.5239 -3.48542 0
M  V30 11200 H 1042.06 2.19731 -4.47794 0
M  V30 11201 H 1041.21 4.51441 -4.05322 0
M  V30 11202 H 1039.95 3.87475 -2.96166 0
M  V30 11203 H 1038.95 2.56893 -4.86092 0
M  V30 11204 H 1040.18 3.23894 -5.96883 0
M  V30 11205 H 1038.12 4.85487 -4.41179 0
M  V30 11206 H 1038.04 4.46722 -6.09898 0
M  V30 11207 H 1039.31 5.50516 -5.51863 0
M  V30 11208 N 1043.54 1.5137 0.438746 0
M  V30 11209 C 1044.45 1.75424 1.55768 0
M  V30 11210 C 1045.46 0.638409 1.61865 0
M  V30 11211 O 1046.64 0.9205 1.79133 0
M  V30 11212 C 1043.71 1.87288 2.9176 0
M  V30 11213 C 1042.77 3.11137 2.95791 0
M  V30 11214 C 1042 3.22425 4.25297 0
M  V30 11215 O 1042.22 2.39688 5.17596 0
M  V30 11216 O 1041.16 4.15393 4.35583 0
M  V30 11217 H 1044.98 2.70339 1.38386 0
M  V30 11218 H 1042.57 1.35854 0.621609 0
M  V30 11219 H 1044.45 1.97085 3.72472 0
M  V30 11220 H 1043.12 0.955599 3.09273 0
M  V30 11221 H 1042.03 3.06819 2.1404 0
M  V30 11222 H 1043.36 4.02549 2.83223 0
M  V30 11223 N 1045.02 -0.694098 1.41492 0
M  V30 11224 C 1046.27 -1.4498 1.40227 0
M  V30 11225 C 1046.58 -1.95594 0.0151253 0
M  V30 11226 O 1047.78 -2.71234 -0.120146 0
M  V30 11227 C 1046.24 -2.62171 2.46565 0
M  V30 11228 C 1045.85 -2.18337 3.91194 0
M  V30 11229 C 1047.59 -3.39796 2.54439 0
M  V30 11230 C 1045.5 -3.32495 4.89082 0
M  V30 11231 H 1044.43 -0.544584 0.521483 0
M  V30 11232 H 1047.08 -0.75337 1.67322 0
M  V30 11233 H 1045.46 -3.34089 2.12604 0
M  V30 11234 H 1046.64 -1.53698 4.34412 0
M  V30 11235 H 1044.95 -1.53702 3.86994 0
M  V30 11236 H 1047.55 -4.2478 3.24755 0
M  V30 11237 H 1047.89 -3.85082 1.5817 0
M  V30 11238 H 1048.42 -2.74935 2.87499 0
M  V30 11239 H 1045.16 -2.92219 5.86761 0
M  V30 11240 H 1044.68 -3.95978 4.50512 0
M  V30 11241 H 1046.36 -3.98251 5.09907 0
M  V30 11242 N 1046.49 -1.27344 -0.928501 0
M  V30 11243 C 1047.91 -1.04732 -1.2043 0
M  V30 11244 C 1048.11 0.219623 -2.003 0
M  V30 11245 O 1047.17 0.925333 -2.34934 0
M  V30 11246 C 1048.48 -2.28625 -1.95323 0
M  V30 11247 C 1050.03 -2.33655 -2.08265 0
M  V30 11248 C 1050.5 -3.57275 -2.86563 0
M  V30 11249 N 1051.99 -3.57828 -2.94132 0
M  V30 11250 C 1052.73 -4.50152 -3.55177 0
M  V30 11251 N 1052.22 -5.52779 -4.17621 0
M  V30 11252 N 1054.02 -4.37777 -3.52573 0
M  V30 11253 H 1046.17 -2.08697 -0.394892 0
M  V30 11254 H 1048.43 -0.91782 -0.2373 0
M  V30 11255 H 1048.14 -3.20845 -1.44054 0
M  V30 11256 H 1048.01 -2.33878 -2.95941 0
M  V30 11257 H 1050.4 -1.41942 -2.58721 0
M  V30 11258 H 1050.48 -2.32406 -1.0687 0
M  V30 11259 H 1050.12 -4.49325 -2.3679 0
M  V30 11260 H 1050.05 -3.55775 -3.88242 0
M  V30 11261 H 1052.54 -2.83607 -2.49751 0
M  V30 11262 H 1052.86 -6.19394 -4.62137 0
M  V30 11263 H 1051.2 -5.56622 -4.16169 0
M  V30 11264 H 1054.39 -3.56811 -3.02991 0
M  V30 11265 H 1054.57 -5.09919 -3.99858 0
M  V30 11266 N 1047.97 1.13488 -1.09353 0
M  V30 11267 C 1049.2 1.89133 -0.85108 0
M  V30 11268 C 1049.62 1.78542 0.591976 0
M  V30 11269 O 1048.98 1.13243 1.41583 0
M  V30 11270 C 1049.03 3.36736 -1.29001 0
M  V30 11271 O 1048.13 4.09959 -0.447993 0
M  V30 11272 H 1047.47 0.58809 -0.308296 0
M  V30 11273 H 1050 1.43593 -1.45747 0
M  V30 11274 H 1050.01 3.87564 -1.27508 0
M  V30 11275 H 1048.69 3.43762 -2.34095 0
M  V30 11276 H 1047.27 3.69155 -0.52717 0
M  V30 11277 N 1049.45 0.880621 1.30701 0
M  V30 11278 C 1050.4 0.342397 2.28246 0
M  V30 11279 C 1051.37 -0.565023 1.56194 0
M  V30 11280 O 1052.55 -0.494377 1.84284 0
M  V30 11281 C 1049.69 -0.440859 3.42272 0
M  V30 11282 C 1048.81 0.495284 4.29151 0
M  V30 11283 C 1047.94 -0.303141 5.30334 0
M  V30 11284 C 1046.98 0.628751 6.08862 0
M  V30 11285 N 1046.12 -0.13408 7.01972 0
M  V30 11286 H 1050.96 1.17938 2.73669 0
M  V30 11287 H 1048.49 0.59296 1.34619 0
M  V30 11288 H 1050.45 -0.910854 4.07135 0
M  V30 11289 H 1049.08 -1.24245 2.97931 0
M  V30 11290 H 1048.13 1.08376 3.64635 0
M  V30 11291 H 1049.45 1.2094 4.83916 0
M  V30 11292 H 1048.6 -0.835181 6.00924 0
M  V30 11293 H 1047.34 -1.05049 4.76252 0
M  V30 11294 H 1046.34 1.17246 5.37153 0
M  V30 11295 H 1047.57 1.37512 6.65032 0
M  V30 11296 H 1045.52 -0.864046 6.50285 0
M  V30 11297 H 1045.43 0.520486 7.54206 0
M  V30 11298 H 1046.7 -0.647005 7.7681 0
M  V30 11299 N 1050.93 -1.4397 0.641131 0
M  V30 11300 C 1052.15 -2.06818 0.155318 0
M  V30 11301 C 1052.58 -1.47665 -1.16519 0
M  V30 11302 O 1051.94 -0.58192 -1.71707 0
M  V30 11303 C 1051.99 -3.60542 0.0647537 0
M  V30 11304 O 1051.09 -4.00674 -0.976447 0
M  V30 11305 H 1050.43 -0.657962 0.0893404 0
M  V30 11306 H 1052.96 -1.84678 0.88064 0
M  V30 11307 H 1052.97 -4.07816 -0.122552 0
M  V30 11308 H 1051.65 -4.02975 1.02878 0
M  V30 11309 H 1050.22 -3.65013 -0.762905 0
M  V30 11310 N 1052.41 -0.382291 -1.52893 0
M  V30 11311 C 1053.65 0.202433 -2.01787 0
M  V30 11312 C 1053.99 1.47044 -1.26853 0
M  V30 11313 O 1053.26 1.91007 -0.366969 0
M  V30 11314 C 1053.54 0.477471 -3.5692 0
M  V30 11315 C 1053.4 -0.805339 -4.42532 0
M  V30 11316 C 1054.72 1.27106 -4.21346 0
M  V30 11317 H 1051.84 0.0720998 -0.733465 0
M  V30 11318 H 1054.48 -0.510478 -1.83014 0
M  V30 11319 H 1052.63 1.08478 -3.73048 0
M  V30 11320 H 1054.3 -1.4424 -4.3817 0
M  V30 11321 H 1052.54 -1.42216 -4.09826 0
M  V30 11322 H 1053.21 -0.567635 -5.49074 0
M  V30 11323 H 1055.69 0.757161 -4.09153 0
M  V30 11324 H 1054.57 1.43225 -5.29885 0
M  V30 11325 H 1054.83 2.28431 -3.78513 0
M  V30 11326 N 1053.89 1.57202 -0.111913 0
M  V30 11327 C 1055.3 1.57713 0.244702 0
M  V30 11328 C 1055.5 1.12419 1.67225 0
M  V30 11329 O 1054.56 0.808329 2.39212 0
M  V30 11330 C 1055.87 3.00695 0.0178289 0
M  V30 11331 C 1057.42 3.12887 0.0842781 0
M  V30 11332 C 1057.89 4.57856 -0.114812 0
M  V30 11333 N 1059.38 4.6316 -0.0605423 0
M  V30 11334 C 1060.12 5.73086 -0.189594 0
M  V30 11335 N 1059.62 6.91787 -0.37442 0
M  V30 11336 N 1061.41 5.6195 -0.12967 0
M  V30 11337 H 1053.56 1.84947 -1.04443 0
M  V30 11338 H 1055.82 0.854418 -0.4107 0
M  V30 11339 H 1055.53 3.38093 -0.968802 0
M  V30 11340 H 1055.4 3.69611 0.752815 0
M  V30 11341 H 1057.79 2.7535 1.06143 0
M  V30 11342 H 1057.87 2.46528 -0.682474 0
M  V30 11343 H 1057.51 4.9609 -1.0889 0
M  V30 11344 H 1057.44 5.22297 0.671839 0
M  V30 11345 H 1059.94 3.77817 0.0790856 0
M  V30 11346 H 1060.25 7.71406 -0.463948 0
M  V30 11347 H 1058.59 6.93788 -0.410303 0
M  V30 11348 H 1061.78 4.68098 0.0137115 0
M  V30 11349 H 1061.96 6.47578 -0.233688 0
M  V30 11350 N 1055.36 -0.161842 1.56767 0
M  V30 11351 C 1056.27 -1.21996 2.00385 0
M  V30 11352 C 1057.29 -1.4789 0.916768 0
M  V30 11353 O 1058.47 -1.59852 1.22513 0
M  V30 11354 C 1055.53 -2.53695 2.36305 0
M  V30 11355 C 1054.59 -2.3558 3.58888 0
M  V30 11356 C 1053.82 -3.60998 3.93085 0
M  V30 11357 O 1054.05 -4.6657 3.28129 0
M  V30 11358 O 1052.98 -3.54544 4.86397 0
M  V30 11359 H 1056.81 -0.879701 2.9068 0
M  V30 11360 H 1054.39 -0.369437 1.4476 0
M  V30 11361 H 1056.27 -3.31366 2.60335 0
M  V30 11362 H 1054.95 -2.87281 1.49169 0
M  V30 11363 H 1053.86 -1.55908 3.40064 0
M  V30 11364 H 1055.19 -2.06915 4.46595 0
M  V30 11365 N 1056.84 -1.516 -0.430713 0
M  V30 11366 C 1057.77 -1.76342 -1.53054 0
M  V30 11367 C 1058.75 -0.61349 -1.58652 0
M  V30 11368 O 1059.94 -0.856888 -1.74273 0
M  V30 11369 C 1057.07 -1.8945 -2.91077 0
M  V30 11370 C 1056.02 -3.04928 -3.00339 0
M  V30 11371 C 1055.35 -3.03228 -4.40405 0
M  V30 11372 C 1056.65 -4.44777 -2.73808 0
M  V30 11373 H 1058.34 -2.68435 -1.326 0
M  V30 11374 H 1055.89 -1.29171 -0.636466 0
M  V30 11375 H 1057.84 -2.05343 -3.67984 0
M  V30 11376 H 1056.56 -0.940114 -3.12777 0
M  V30 11377 H 1055.22 -2.88751 -2.25872 0
M  V30 11378 H 1054.87 -2.05553 -4.59083 0
M  V30 11379 H 1054.57 -3.80776 -4.47531 0
M  V30 11380 H 1056.1 -3.21222 -5.19277 0
M  V30 11381 H 1057.51 -4.6127 -3.40445 0
M  V30 11382 H 1055.91 -5.2408 -2.92335 0
M  V30 11383 H 1056.98 -4.54358 -1.69372 0
M  V30 11384 N 1058.32 0.686584 -1.41858 0
M  V30 11385 C 1059.28 1.78214 -1.44126 0
M  V30 11386 C 1060.28 1.57366 -0.330541 0
M  V30 11387 O 1061.47 1.63874 -0.590837 0
M  V30 11388 C 1058.6 3.16704 -1.26142 0
M  V30 11389 H 1059.8 1.77594 -2.41661 0
M  V30 11390 H 1057.35 0.895085 -1.28132 0
M  V30 11391 H 1058.09 3.22957 -0.294823 0
M  V30 11392 H 1057.87 3.33238 -2.06627 0
M  V30 11393 H 1059.36 3.96658 -1.30584 0
M  V30 11394 N 1059.8 1.27835 0.921735 0
M  V30 11395 C 1060.73 1.06874 2.02758 0
M  V30 11396 C 1061.74 0.0229418 1.62784 0
M  V30 11397 O 1062.93 0.265145 1.7652 0
M  V30 11398 C 1060.03 0.60037 3.3354 0
M  V30 11399 C 1059.2 1.71979 4.02172 0
M  V30 11400 C 1058.26 1.24615 5.11231 0
M  V30 11401 O 1057.29 1.94692 5.34868 0
M  V30 11402 N 1058.49 0.105021 5.80405 0
M  V30 11403 H 1061.26 2.02105 2.213 0
M  V30 11404 H 1058.82 1.19481 1.09251 0
M  V30 11405 H 1060.81 0.267281 4.03816 0
M  V30 11406 H 1059.38 -0.258872 3.11526 0
M  V30 11407 H 1058.6 2.22287 3.25549 0
M  V30 11408 H 1059.89 2.47092 4.44773 0
M  V30 11409 H 1059.29 -0.479745 5.63662 0
M  V30 11410 H 1057.84 -0.168846 6.51581 0
M  V30 11411 N 1061.28 -1.12907 1.09954 0
M  V30 11412 C 1062.55 -1.80602 0.751148 0
M  V30 11413 C 1062.93 -1.96826 -0.763077 0
M  V30 11414 O 1062.28 -1.54066 -1.68749 0
M  V30 11415 C 1062.49 -3.15289 1.49646 0
M  V30 11416 C 1063.84 -3.9056 1.66578 0
M  V30 11417 O 1064.86 -3.24929 1.45943 0
M  V30 11418 O 1063.72 -5.08292 2.00752 0
M  V30 11419 H 1060.82 -0.781529 0.270446 0
M  V30 11420 H 1063.36 -1.19786 1.20206 0
M  V30 11421 H 1062.13 -2.9874 2.52725 0
M  V30 11422 H 1061.76 -3.83809 1.03808 0
M  V30 11423 N 1062.75 -0.88754 -1.30232 0
M  V30 11424 C 1063.72 -0.361095 -2.26338 0
M  V30 11425 C 1064.72 0.497871 -1.52898 0
M  V30 11426 O 1065.91 0.30466 -1.71515 0
M  V30 11427 C 1063.04 0.485135 -3.3743 0
M  V30 11428 H 1064.23 -1.20973 -2.74419 0
M  V30 11429 H 1061.78 -0.664619 -1.41466 0
M  V30 11430 H 1062.52 1.35425 -2.9467 0
M  V30 11431 H 1062.3 -0.130173 -3.91884 0
M  V30 11432 H 1063.79 0.845169 -4.08958 0
M  V30 11433 N 1064.23 1.43628 -0.648757 0
M  V30 11434 C 1065.18 2.30755 0.0455536 0
M  V30 11435 C 1066.15 1.44495 0.819168 0
M  V30 11436 O 1067.33 1.73372 0.79667 0
M  V30 11437 C 1064.47 3.30017 1.00908 0
M  V30 11438 C 1063.59 4.31376 0.232039 0
M  V30 11439 C 1062.72 5.17723 1.18897 0
M  V30 11440 C 1061.76 6.10778 0.402096 0
M  V30 11441 N 1060.9 6.89763 1.31038 0
M  V30 11442 H 1065.74 2.89581 -0.70332 0
M  V30 11443 H 1063.28 1.42662 -0.3586 0
M  V30 11444 H 1065.23 3.86072 1.58128 0
M  V30 11445 H 1063.86 2.72851 1.72488 0
M  V30 11446 H 1062.92 3.77652 -0.456373 0
M  V30 11447 H 1064.23 4.9735 -0.380023 0
M  V30 11448 H 1063.38 5.78381 1.83194 0
M  V30 11449 H 1062.12 4.51864 1.83494 0
M  V30 11450 H 1061.13 5.49212 -0.254255 0
M  V30 11451 H 1062.35 6.78678 -0.239411 0
M  V30 11452 H 1060.3 6.26557 1.94324 0
M  V30 11453 H 1060.21 7.52243 0.752774 0
M  V30 11454 H 1061.48 7.54931 1.94164 0
M  V30 11455 N 1065.71 0.390394 1.52688 0
M  V30 11456 C 1066.62 -0.451543 2.30213 0
M  V30 11457 C 1067.64 -1.07051 1.37172 0
M  V30 11458 O 1068.81 -1.07609 1.70242 0
M  V30 11459 C 1065.88 -1.56299 3.0947 0
M  V30 11460 C 1064.94 -0.969017 4.18221 0
M  V30 11461 C 1064.17 -2.0275 4.93688 0
M  V30 11462 O 1064.39 -3.24273 4.69258 0
M  V30 11463 O 1063.33 -1.64418 5.79008 0
M  V30 11464 H 1067.15 0.180042 3.03166 0
M  V30 11465 H 1064.74 0.154082 1.48603 0
M  V30 11466 H 1066.62 -2.20864 3.58883 0
M  V30 11467 H 1065.3 -2.17952 2.3933 0
M  V30 11468 H 1064.2 -0.286587 3.73001 0
M  V30 11469 H 1065.54 -0.396687 4.90599 0
M  V30 11470 N 1067.19 -1.57141 0.120249 0
M  V30 11471 C 1068.44 -1.94852 -0.536387 0
M  V30 11472 C 1068.76 -1.00452 -1.67136 0
M  V30 11473 O 1068.03 -0.061053 -1.95805 0
M  V30 11474 H 1066.61 -0.719411 -0.201138 0
M  V30 11475 H 1069.27 -1.93977 0.189482 0
M  V30 11476 H 1068.37 -2.97917 -0.930145 0
M  V30 11477 N 1068.67 0.153526 -1.5685 0
M  V30 11478 C 1069.6 1.2147 -1.94365 0
M  V30 11479 C 1070.61 1.39532 -0.838726 0
M  V30 11480 O 1071.8 1.39219 -1.11715 0
M  V30 11481 C 1068.9 2.5806 -2.19677 0
M  V30 11482 C 1068.07 2.61062 -3.50949 0
M  V30 11483 C 1067.13 3.79144 -3.64878 0
M  V30 11484 O 1066.16 3.64319 -4.37333 0
M  V30 11485 N 1067.36 4.96333 -3.01054 0
M  V30 11486 H 1070.13 0.895889 -2.85996 0
M  V30 11487 H 1067.69 0.343147 -1.58222 0
M  V30 11488 H 1069.68 3.35553 -2.26243 0
M  V30 11489 H 1068.25 2.8226 -1.34343 0
M  V30 11490 H 1067.47 1.69533 -3.55882 0
M  V30 11491 H 1068.76 2.60094 -4.37297 0
M  V30 11492 H 1068.15 5.1128 -2.42093 0
M  V30 11493 H 1066.71 5.71625 -3.13191 0
M  V30 11494 N 1070.14 1.51827 0.422667 0
M  V30 11495 C 1071.09 1.74198 1.51406 0
M  V30 11496 C 1072.06 0.584013 1.55494 0
M  V30 11497 O 1073.25 0.820079 1.72277 0
M  V30 11498 C 1070.39 1.88627 2.88988 0
M  V30 11499 C 1069.5 3.16233 2.94314 0
M  V30 11500 C 1068.63 3.21172 4.2311 0
M  V30 11501 C 1067.67 4.43033 4.2236 0
M  V30 11502 N 1066.81 4.4544 5.42704 0
M  V30 11503 H 1071.65 2.67352 1.31632 0
M  V30 11504 H 1069.19 1.32487 0.63919 0
M  V30 11505 H 1071.15 1.94976 3.68837 0
M  V30 11506 H 1069.78 0.988673 3.07287 0
M  V30 11507 H 1068.83 3.19123 2.07039 0
M  V30 11508 H 1070.14 4.06104 2.89623 0
M  V30 11509 H 1069.29 3.26517 5.11343 0
M  V30 11510 H 1068.03 2.29216 4.30478 0
M  V30 11511 H 1067.04 4.37849 3.32518 0
M  V30 11512 H 1068.26 5.3627 4.16643 0
M  V30 11513 H 1066.21 3.56361 5.50766 0
M  V30 11514 H 1066.13 5.29138 5.39953 0
M  V30 11515 H 1067.39 4.54997 6.32928 0
M  V30 11516 N 1071.62 -0.679052 1.4222 0
M  V30 11517 C 1072.53 -1.82221 1.47759 0
M  V30 11518 C 1073.55 -1.70092 0.3667 0
M  V30 11519 O 1074.72 -1.91718 0.616957 0
M  V30 11520 C 1071.79 -3.18332 1.37351 0
M  V30 11521 C 1070.85 -3.42449 2.58896 0
M  V30 11522 C 1070.08 -4.72067 2.48976 0
M  V30 11523 O 1070.31 -5.49683 1.5233 0
M  V30 11524 O 1069.24 -4.97333 3.39033 0
M  V30 11525 H 1073.07 -1.80504 2.44238 0
M  V30 11526 H 1070.65 -0.834251 1.23938 0
M  V30 11527 H 1072.53 -3.99563 1.33893 0
M  V30 11528 H 1071.21 -3.20696 0.439965 0
M  V30 11529 H 1070.12 -2.61083 2.6793 0
M  V30 11530 H 1071.45 -3.44912 3.51136 0
M  V30 11531 N 1073.1 -1.28322 -0.914942 0
M  V30 11532 C 1074.38 -1.06111 -1.64316 0
M  V30 11533 C 1074.76 0.399934 -2.07277 0
M  V30 11534 O 1074.11 1.38577 -1.81683 0
M  V30 11535 C 1074.32 -2.03461 -2.83557 0
M  V30 11536 C 1075.66 -2.33541 -3.54604 0
M  V30 11537 O 1076.69 -2.01536 -2.93704 0
M  V30 11538 O 1075.55 -2.88158 -4.64357 0
M  V30 11539 H 1072.64 -0.405451 -0.72079 0
M  V30 11540 H 1075.19 -1.39636 -0.964352 0
M  V30 11541 H 1073.96 -3.01938 -2.48896 0
M  V30 11542 H 1073.58 -1.70574 -3.59152 0
M  V30 11543 N 1074.58 1.12322 -1.10551 0
M  V30 11544 C 1075.99 1.35858 -0.837543 0
M  V30 11545 C 1076.19 1.94062 0.54241 0
M  V30 11546 O 1075.25 2.1676 1.29505 0
M  V30 11547 C 1076.56 2.299 -1.9382 0
M  V30 11548 C 1078.11 2.43488 -1.96679 0
M  V30 11549 C 1078.59 3.40846 -3.05922 0
M  V30 11550 N 1080.08 3.48404 -3.05236 0
M  V30 11551 C 1080.81 4.2365 -3.86405 0
M  V30 11552 N 1080.31 5.01951 -4.77512 0
M  V30 11553 N 1082.1 4.19068 -3.74618 0
M  V30 11554 H 1074.25 0.729002 -1.99498 0
M  V30 11555 H 1076.52 0.38339 -0.867016 0
M  V30 11556 H 1076.22 1.94309 -2.9315 0
M  V30 11557 H 1076.1 3.30033 -1.82641 0
M  V30 11558 H 1078.48 2.78359 -0.979813 0
M  V30 11559 H 1078.56 1.43239 -2.11934 0
M  V30 11560 H 1078.21 3.06704 -4.04839 0
M  V30 11561 H 1078.14 4.40927 -2.87907 0
M  V30 11562 H 1080.63 2.92545 -2.39219 0
M  V30 11563 H 1080.94 5.56707 -5.36002 0
M  V30 11564 H 1079.29 5.01143 -4.8154 0
M  V30 11565 H 1082.48 3.5698 -3.02792 0
M  V30 11566 H 1082.65 4.77455 -4.38111 0
M  V30 11567 N 1076.06 0.894434 1.2976 0
M  V30 11568 C 1077.33 0.437365 1.90648 0
M  V30 11569 C 1077.71 -1.08261 1.81226 0
M  V30 11570 O 1077.06 -1.92213 1.23557 0
M  V30 11571 C 1077.27 0.946047 3.35933 0
M  V30 11572 C 1078.62 0.986621 4.12978 0
M  V30 11573 O 1079.64 0.893356 3.44815 0
M  V30 11574 O 1078.5 1.12591 5.34776 0
M  V30 11575 H 1075.6 0.135436 0.815835 0
M  V30 11576 H 1078.14 0.983955 1.38262 0
M  V30 11577 H 1076.91 1.98998 3.3692 0
M  V30 11578 H 1076.54 0.379164 3.95788 0
M  V30 11579 N 1077.53 -1.43282 0.656365 0
M  V30 11580 C 1078.78 -2.02075 0.171293 0
M  V30 11581 C 1079.11 -1.51682 -1.21269 0
M  V30 11582 O 1078.39 -0.711243 -1.81029 0
M  V30 11583 C 1078.67 -3.59621 0.185602 0
M  V30 11584 C 1078.52 -4.20239 1.60373 0
M  V30 11585 C 1079.84 -4.37515 -0.476289 0
M  V30 11586 H 1076.96 -0.73424 0.0637185 0
M  V30 11587 H 1079.6 -1.70539 0.837648 0
M  V30 11588 H 1077.75 -3.86619 -0.381804 0
M  V30 11589 H 1079.43 -4.0426 2.22197 0
M  V30 11590 H 1077.67 -3.76769 2.15006 0
M  V30 11591 H 1078.34 -5.29333 1.56557 0
M  V30 11592 H 1080.82 -4.16099 0.00651073 0
M  V30 11593 H 1079.69 -5.47169 -0.435562 0
M  V30 11594 H 1079.95 -4.14003 -1.55093 0
M  V30 11595 N 1079.01 -0.398486 -1.52479 0
M  V30 11596 C 1079.94 0.423498 -2.29627 0
M  V30 11597 C 1080.92 1.05547 -1.33394 0
M  V30 11598 O 1082.11 1.0665 -1.62294 0
M  V30 11599 C 1079.24 1.54612 -3.10986 0
M  V30 11600 C 1078.19 1.03971 -4.15179 0
M  V30 11601 C 1077.52 2.25512 -4.84818 0
M  V30 11602 C 1078.82 0.10121 -5.22202 0
M  V30 11603 H 1080.51 -0.220222 -2.98589 0
M  V30 11604 H 1078.06 -0.107355 -1.43599 0
M  V30 11605 H 1080.01 2.12806 -3.63719 0
M  V30 11606 H 1078.74 2.21756 -2.39774 0
M  V30 11607 H 1077.4 0.480251 -3.63441 0
M  V30 11608 H 1077.04 2.91187 -4.10145 0
M  V30 11609 H 1076.74 1.92285 -5.55248 0
M  V30 11610 H 1078.27 2.84331 -5.40359 0
M  V30 11611 H 1079.68 0.591617 -5.70239 0
M  V30 11612 H 1078.08 -0.141737 -5.99933 0
M  V30 11613 H 1079.15 -0.847216 -4.77441 0
M  V30 11614 N 1080.49 1.57075 -0.12858 0
M  V30 11615 C 1081.72 2.00305 0.537839 0
M  V30 11616 C 1082.14 1.00787 1.58819 0
M  V30 11617 O 1081.5 -0.0190839 1.8129 0
M  V30 11618 C 1081.55 3.42371 1.13201 0
M  V30 11619 O 1080.65 3.45786 2.24735 0
M  V30 11620 H 1079.99 0.650456 0.133428 0
M  V30 11621 H 1082.52 2.03415 -0.219882 0
M  V30 11622 H 1082.53 3.80783 1.4652 0
M  V30 11623 H 1081.21 4.14315 0.362713 0
M  V30 11624 H 1079.78 3.19201 1.92783 0
M  V30 11625 N 1081.97 -0.145205 1.5693 0
M  V30 11626 C 1083.2 -0.871133 1.87336 0
M  V30 11627 C 1083.61 -1.7517 0.714992 0
M  V30 11628 O 1082.95 -1.80815 -0.324304 0
M  V30 11629 C 1083.01 -1.77775 3.12468 0
M  V30 11630 C 1082.68 -1.07416 4.44197 0
M  V30 11631 C 1083.67 -0.42722 5.18142 0
M  V30 11632 C 1081.36 -1.06313 4.9092 0
M  V30 11633 C 1083.35 0.221348 6.37016 0
M  V30 11634 C 1081.04 -0.410755 6.09718 0
M  V30 11635 C 1082.04 0.230357 6.82611 0
M  V30 11636 O 1081.73 0.872389 7.99152 0
M  V30 11637 H 1081.46 -0.257174 0.62517 0
M  V30 11638 H 1084.01 -0.142159 2.04907 0
M  V30 11639 H 1082.24 -2.54771 2.9091 0
M  V30 11640 H 1083.93 -2.37579 3.29107 0
M  V30 11641 H 1084.7 -0.427536 4.83112 0
M  V30 11642 H 1080.58 -1.55156 4.34105 0
M  V30 11643 H 1084.12 0.722349 6.9385 0
M  V30 11644 H 1080.02 -0.408112 6.44209 0
M  V30 11645 H 1080.78 0.774236 8.1483 0
M  V30 11646 N 1083.45 -1.52049 -0.414609 0
M  V30 11647 C 1084.68 -1.69433 -1.18221 0
M  V30 11648 C 1085.09 -0.40104 -1.84901 0
M  V30 11649 O 1084.43 0.632342 -1.72474 0
M  V30 11650 C 1084.49 -2.76986 -2.2917 0
M  V30 11651 C 1084.15 -4.18903 -1.82671 0
M  V30 11652 C 1085.15 -5.02929 -1.31751 0
M  V30 11653 C 1082.84 -4.65113 -1.89672 0
M  V30 11654 C 1084.83 -6.31234 -0.884461 0
M  V30 11655 C 1082.52 -5.93408 -1.45978 0
M  V30 11656 C 1083.52 -6.76297 -0.9545 0
M  V30 11657 O 1083.2 -8.02191 -0.523852 0
M  V30 11658 H 1082.94 -0.571228 -0.36149 0
M  V30 11659 H 1085.49 -1.99355 -0.494643 0
M  V30 11660 H 1083.72 -2.42428 -3.01273 0
M  V30 11661 H 1085.41 -2.83023 -2.90951 0
M  V30 11662 H 1086.17 -4.68422 -1.2572 0
M  V30 11663 H 1082.05 -4.00702 -2.27945 0
M  V30 11664 H 1085.6 -6.95881 -0.489383 0
M  V30 11665 H 1081.49 -6.27424 -1.51687 0
M  V30 11666 H 1082.26 -8.15934 -0.647656 0
M  V30 11667 N 1084.93 0.6715 -1.42579 0
M  V30 11668 C 1086.34 0.985019 -1.25577 0
M  V30 11669 C 1086.54 2.00845 -0.162319 0
M  V30 11670 O 1085.6 2.48175 0.465352 0
M  V30 11671 C 1086.91 1.48668 -2.61377 0
M  V30 11672 C 1088.46 1.60429 -2.68759 0
M  V30 11673 C 1088.93 2.13991 -4.04935 0
M  V30 11674 N 1090.42 2.21319 -4.06906 0
M  V30 11675 C 1091.16 2.63845 -5.09091 0
M  V30 11676 N 1090.66 3.05799 -6.21658 0
M  V30 11677 N 1092.45 2.63623 -4.96447 0
M  V30 11678 H 1084.6 -0.00604561 -2.12399 0
M  V30 11679 H 1086.86 0.0598299 -0.94611 0
M  V30 11680 H 1086.57 0.80917 -3.42265 0
M  V30 11681 H 1086.44 2.46487 -2.85524 0
M  V30 11682 H 1088.83 2.27286 -1.88216 0
M  V30 11683 H 1088.91 0.610909 -2.48398 0
M  V30 11684 H 1088.55 1.47741 -4.85937 0
M  V30 11685 H 1088.48 3.14126 -4.2265 0
M  V30 11686 H 1090.98 1.91743 -3.25643 0
M  V30 11687 H 1091.29 3.36944 -6.95477 0
M  V30 11688 H 1089.63 3.03648 -6.25158 0
M  V30 11689 H 1092.82 2.30211 -4.07579 0
M  V30 11690 H 1093 2.96444 -5.76216 0
M  V30 11691 N 1086.4 1.28806 0.908124 0
M  V30 11692 C 1087.63 1.1898 1.689 0
M  V30 11693 C 1088.04 -0.253334 1.87496 0
M  V30 11694 O 1087.38 -1.18245 1.40584 0
M  V30 11695 C 1087.45 1.82266 3.0987 0
M  V30 11696 C 1087.11 3.31534 3.14538 0
M  V30 11697 C 1088.11 4.27886 2.95313 0
M  V30 11698 C 1085.79 3.72589 3.36872 0
M  V30 11699 C 1087.79 5.63267 2.98343 0
M  V30 11700 C 1085.47 5.08095 3.39534 0
M  V30 11701 C 1086.47 6.03244 3.2029 0
M  V30 11702 O 1086.16 7.36277 3.22724 0
M  V30 11703 H 1085.89 0.413772 0.534574 0
M  V30 11704 H 1088.45 1.7055 1.14464 0
M  V30 11705 H 1086.68 1.25197 3.65872 0
M  V30 11706 H 1088.36 1.6688 3.70008 0
M  V30 11707 H 1089.13 3.97502 2.77879 0
M  V30 11708 H 1085.01 2.98989 3.50894 0
M  V30 11709 H 1088.55 6.37511 2.83241 0
M  V30 11710 H 1084.45 5.38126 3.56497 0
M  V30 11711 H 1085.22 7.44976 3.39048 0
M  V30 11712 N 1087.88 -1.11734 1.11145 0
M  V30 11713 C 1088.81 -2.17438 0.724804 0
M  V30 11714 C 1089.83 -1.6099 -0.242069 0
M  V30 11715 O 1091.02 -1.78482 -0.0254259 0
M  V30 11716 C 1088.12 -3.38863 0.050004 0
M  V30 11717 C 1087.29 -4.24785 1.04292 0
M  V30 11718 C 1086.35 -5.24691 0.398243 0
M  V30 11719 O 1085.37 -5.59408 1.05125 0
M  V30 11720 N 1086.58 -5.74388 -0.840184 0
M  V30 11721 H 1089.34 -2.51219 1.63429 0
M  V30 11722 H 1086.9 -1.27226 1.00125 0
M  V30 11723 H 1088.89 -4.02788 -0.392929 0
M  V30 11724 H 1087.46 -3.0317 -0.762005 0
M  V30 11725 H 1086.68 -3.57363 1.6639 0
M  V30 11726 H 1087.97 -4.79033 1.71478 0
M  V30 11727 H 1087.37 -5.48359 -1.38994 0
M  V30 11728 H 1085.93 -6.40163 -1.22615 0
M  V30 11729 N 1089.36 -0.901303 -1.29284 0
M  V30 11730 C 1090.29 -0.396909 -2.30102 0
M  V30 11731 C 1091.27 0.528919 -1.61668 0
M  V30 11732 O 1092.46 0.439306 -1.89166 0
M  V30 11733 C 1089.59 0.375006 -3.45269 0
M  V30 11734 C 1088.54 -0.46054 -4.25515 0
M  V30 11735 C 1087.87 0.438967 -5.32895 0
M  V30 11736 C 1089.17 -1.7113 -4.93469 0
M  V30 11737 H 1090.86 -1.23943 -2.72541 0
M  V30 11738 H 1088.41 -0.597428 -1.31022 0
M  V30 11739 H 1090.36 0.738622 -4.14876 0
M  V30 11740 H 1089.08 1.25132 -3.01678 0
M  V30 11741 H 1087.74 -0.80651 -3.57618 0
M  V30 11742 H 1087.39 1.31346 -4.85548 0
M  V30 11743 H 1087.09 -0.116406 -5.87485 0
M  V30 11744 H 1088.61 0.79874 -6.05353 0
M  V30 11745 H 1090.03 -1.41732 -5.55504 0
M  V30 11746 H 1088.42 -2.20811 -5.57999 0
M  V30 11747 H 1089.49 -2.44636 -4.18666 0
M  V30 11748 N 1090.84 1.42931 -0.663954 0
M  V30 11749 C 1091.79 2.32577 0.03287 0
M  V30 11750 C 1092.78 1.49217 0.801918 0
M  V30 11751 O 1093.99 1.65358 0.711106 0
M  V30 11752 H 1090.36 0.751424 0.0294198 0
M  V30 11753 H 1092.33 2.89059 -0.740763 0
M  V30 11754 C 1091.08 3.33661 0.978025 0
M  V30 11755 H 1090.4 3.97837 0.395681 0
M  V30 11756 H 1091.84 3.98997 1.43448 0
M  V30 11757 C 1090.3 2.65085 2.07922 0
M  V30 11758 O 1090.83 2.4745 3.16435 0
M  V30 11759 N 1089.04 2.24285 1.84783 0
M  V30 11760 H 1088.59 2.38827 0.965368 0
M  V30 11761 H 1088.54 1.78732 2.58655 0
M  V30 11762 N 1092.32 0.406567 1.52266 0
M  V30 11763 C 1093.25 -0.411314 2.29849 0
M  V30 11764 C 1094.23 -1.04838 1.33952 0
M  V30 11765 O 1095.41 -1.05788 1.62857 0
M  V30 11766 C 1092.54 -1.52961 3.11802 0
M  V30 11767 C 1091.5 -1.01768 4.15725 0
M  V30 11768 C 1090.82 -2.22938 4.86007 0
M  V30 11769 C 1092.12 -0.073515 5.22248 0
M  V30 11770 H 1093.82 0.236054 2.98468 0
M  V30 11771 H 1091.36 0.114968 1.4354 0
M  V30 11772 H 1093.31 -2.10874 3.64843 0
M  V30 11773 H 1092.04 -2.20482 2.40947 0
M  V30 11774 H 1090.7 -0.46097 3.6369 0
M  V30 11775 H 1090.35 -2.89007 4.11684 0
M  V30 11776 H 1090.05 -1.89338 5.5626 0
M  V30 11777 H 1091.57 -2.81462 5.41859 0
M  V30 11778 H 1092.98 -0.561367 5.70545 0
M  V30 11779 H 1091.38 0.173551 5.99849 0
M  V30 11780 H 1092.45 0.872524 4.76985 0
M  V30 11781 N 1093.79 -1.57004 0.136909 0
M  V30 11782 C 1095.04 -1.95797 -0.516711 0
M  V30 11783 C 1095.37 -1.02123 -1.65533 0
M  V30 11784 O 1094.62 -0.0484835 -1.9564 0
M  V30 11785 C 1094.92 -3.40903 -1.07331 0
M  V30 11786 C 1094.59 -4.50867 -0.0541941 0
M  V30 11787 C 1093.25 -4.80669 0.225988 0
M  V30 11788 C 1095.6 -5.17264 0.639361 0
M  V30 11789 C 1092.93 -5.74177 1.2057 0
M  V30 11790 C 1095.28 -6.11827 1.60783 0
M  V30 11791 C 1093.95 -6.40012 1.89581 0
M  V30 11792 H 1093.22 -0.716471 -0.189078 0
M  V30 11793 H 1095.86 -1.90213 0.221605 0
M  V30 11794 H 1094.17 -3.43268 -1.88876 0
M  V30 11795 H 1095.87 -3.6824 -1.58745 0
M  V30 11796 H 1092.46 -4.27666 -0.282754 0
M  V30 11797 H 1096.64 -4.9438 0.436085 0
M  V30 11798 H 1091.9 -5.94312 1.43538 0
M  V30 11799 H 1096.07 -6.62354 2.15081 0
M  V30 11800 H 1093.7 -7.12274 2.65649 0
M  V30 11801 N 1095.27 0.136881 -1.57004 0
M  V30 11802 C 1096.24 1.15267 -1.98106 0
M  V30 11803 C 1097.24 1.35305 -0.868856 0
M  V30 11804 O 1098.43 1.32126 -1.13527 0
M  V30 11805 C 1095.56 2.51092 -2.30577 0
M  V30 11806 H 1096.75 0.799821 -2.89038 0
M  V30 11807 H 1094.3 0.380576 -1.51596 0
M  V30 11808 H 1095.04 2.9133 -1.42469 0
M  V30 11809 H 1094.82 2.37906 -3.11678 0
M  V30 11810 H 1096.31 3.24232 -2.63179 0
M  V30 11811 N 1096.75 1.52266 0.40654 0
M  V30 11812 C 1098.17 1.41127 0.745348 0
M  V30 11813 C 1098.37 0.517802 1.94733 0
M  V30 11814 O 1097.42 -0.0154286 2.52495 0
M  V30 11815 C 1098.74 2.83696 0.996859 0
M  V30 11816 C 1100.28 2.93056 1.09942 0
M  V30 11817 C 1100.76 4.36599 1.38367 0
M  V30 11818 N 1102.25 4.39845 1.45226 0
M  V30 11819 C 1102.98 5.47975 1.68852 0
M  V30 11820 N 1102.48 6.66219 1.90065 0
M  V30 11821 N 1104.27 5.35494 1.70888 0
M  V30 11822 H 1096.42 2.08888 -0.384632 0
M  V30 11823 H 1098.69 0.941619 -0.109809 0
M  V30 11824 H 1098.39 3.51208 0.185986 0
M  V30 11825 H 1098.27 3.24895 1.91632 0
M  V30 11826 H 1100.65 2.25723 1.90088 0
M  V30 11827 H 1100.74 2.5531 0.158256 0
M  V30 11828 H 1100.38 5.04492 0.587373 0
M  V30 11829 H 1100.31 4.71883 2.33739 0
M  V30 11830 H 1102.8 3.54611 1.30612 0
M  V30 11831 H 1103.11 7.44408 2.0755 0
M  V30 11832 H 1101.46 6.69279 1.87325 0
M  V30 11833 H 1104.65 4.42093 1.53856 0
M  V30 11834 H 1104.82 6.19837 1.88962 0
M  V30 11835 N 1098.23 -0.663929 1.42933 0
M  V30 11836 C 1099.16 -1.78876 1.41699 0
M  V30 11837 C 1100.14 -1.60174 0.27981 0
M  V30 11838 O 1101.32 -1.82502 0.471735 0
M  V30 11839 C 1098.45 -3.1603 1.2183 0
M  V30 11840 C 1097.5 -3.53457 2.38685 0
M  V30 11841 S 1098.33 -3.54648 4.01229 0
M  V30 11842 C 1099.49 -4.94477 3.83723 0
M  V30 11843 H 1099.72 -1.7965 2.36882 0
M  V30 11844 H 1097.25 -0.835596 1.29835 0
M  V30 11845 H 1099.21 -3.95193 1.11054 0
M  V30 11846 H 1097.87 -3.1283 0.282139 0
M  V30 11847 H 1097.06 -4.53178 2.20559 0
M  V30 11848 H 1096.67 -2.81681 2.46032 0
M  V30 11849 H 1098.96 -5.82851 3.45386 0
M  V30 11850 H 1099.9 -5.17652 4.83158 0
M  V30 11851 H 1100.31 -4.67507 3.16382 0
M  V30 11852 N 1099.71 -1.29285 -0.901281 0
M  V30 11853 C 1100.95 -1.18431 -1.66594 0
M  V30 11854 C 1101.31 0.260312 -1.90227 0
M  V30 11855 O 1102.51 0.4918 -2.64263 0
M  V30 11856 C 1100.78 -1.97357 -2.97968 0
M  V30 11857 S 1102.34 -2.03019 -3.8901 0
M  V30 11858 H 1099.16 -0.422323 -0.571983 0
M  V30 11859 H 1101.76 -1.63551 -1.07105 0
M  V30 11860 H 1100.47 -3.01459 -2.78479 0
M  V30 11861 H 1100 -1.52836 -3.62498 0
M  V30 11862 H 1102.01 -1.14572 -4.82791 0
M  V30 11863 N 1101.18 1.11143 -1.11736 0
M  V30 11864 C 1102.11 2.19339 -0.800795 0
M  V30 11865 C 1103.1 1.68508 0.23221 0
M  V30 11866 O 1104.28 1.93967 0.0950063 0
M  V30 11867 C 1101.41 3.46424 -0.246579 0
M  V30 11868 C 1100.36 4.10487 -1.21181 0
M  V30 11869 C 1099.69 5.32183 -0.518158 0
M  V30 11870 C 1100.99 4.55052 -2.56368 0
M  V30 11871 H 1102.68 2.46077 -1.70548 0
M  V30 11872 H 1100.23 1.18271 -0.821454 0
M  V30 11873 H 1102.18 4.21398 -0.0128889 0
M  V30 11874 H 1100.91 3.19154 0.693415 0
M  V30 11875 H 1099.57 3.3751 -1.43118 0
M  V30 11876 H 1099.21 5.01187 0.426742 0
M  V30 11877 H 1098.91 5.75997 -1.16196 0
M  V30 11878 H 1100.44 6.09895 -0.293333 0
M  V30 11879 H 1101.85 5.21335 -2.38501 0
M  V30 11880 H 1100.25 5.0969 -3.16758 0
M  V30 11881 H 1101.32 3.68343 -3.1536 0
M  V30 11882 N 1102.66 0.908147 1.28804 0
M  V30 11883 C 1103.94 0.457561 1.90173 0
M  V30 11884 C 1104.32 -1.06333 1.82364 0
M  V30 11885 O 1103.67 -1.90892 1.25589 0
M  V30 11886 C 1103.88 0.981624 3.34911 0
M  V30 11887 C 1105.23 1.03037 4.11908 0
M  V30 11888 O 1106.25 0.929878 3.43848 0
M  V30 11889 O 1105.11 1.18257 5.33552 0
M  V30 11890 H 1102.2 0.144081 0.814352 0
M  V30 11891 H 1104.75 0.998565 1.37211 0
M  V30 11892 H 1103.52 2.02561 3.34791 0
M  V30 11893 H 1103.14 0.421122 3.95364 0
M  V30 11894 N 1104.14 -1.42577 0.671525 0
M  V30 11895 C 1105.56 -1.5592 0.340769 0
M  V30 11896 C 1105.76 -1.65179 -1.15405 0
M  V30 11897 O 1104.81 -1.61691 -1.93939 0
M  V30 11898 C 1106.13 -2.81087 1.06821 0
M  V30 11899 C 1107.67 -2.94855 1.05022 0
M  V30 11900 C 1108.15 -4.22878 1.75892 0
M  V30 11901 N 1109.64 -4.29783 1.72744 0
M  V30 11902 C 1110.37 -5.2765 2.24439 0
M  V30 11903 N 1109.87 -6.31689 2.84501 0
M  V30 11904 N 1111.66 -5.19426 2.14832 0
M  V30 11905 H 1103.81 -1.34811 1.64133 0
M  V30 11906 H 1106.08 -0.648704 0.691294 0
M  V30 11907 H 1105.78 -2.80371 2.12332 0
M  V30 11908 H 1105.66 -3.71879 0.631356 0
M  V30 11909 H 1108.04 -2.951 0.00345633 0
M  V30 11910 H 1108.13 -2.05303 1.52592 0
M  V30 11911 H 1107.77 -4.23394 2.80535 0
M  V30 11912 H 1107.7 -5.1136 1.25773 0
M  V30 11913 H 1110.19 -3.55225 1.28932 0
M  V30 11914 H 1110.5 -7.02715 3.21575 0
M  V30 11915 H 1108.85 -6.3226 2.88569 0
M  V30 11916 H 1112.04 -4.37067 1.676 0
M  V30 11917 H 1112.21 -5.95535 2.55426 0
M  V30 11918 N 1105.62 -0.414636 -1.52048 0
M  V30 11919 C 1106.55 0.443601 -2.24866 0
M  V30 11920 C 1107.56 1.00556 -1.28032 0
M  V30 11921 O 1108.75 0.903566 -1.53941 0
M  V30 11922 C 1105.85 1.63004 -2.97124 0
M  V30 11923 C 1105.03 1.191 -4.20873 0
M  V30 11924 C 1104.08 2.24497 -4.75907 0
M  V30 11925 O 1103.11 1.84861 -5.38345 0
M  V30 11926 N 1104.31 3.56727 -4.57959 0
M  V30 11927 H 1107.08 -0.180393 -2.99157 0
M  V30 11928 H 1104.64 -0.242305 -1.60077 0
M  V30 11929 H 1106.63 2.33089 -3.30835 0
M  V30 11930 H 1105.2 2.15984 -2.25986 0
M  V30 11931 H 1104.42 0.318059 -3.92915 0
M  V30 11932 H 1105.71 0.874699 -5.01225 0
M  V30 11933 H 1105.11 3.91675 -4.08175 0
M  V30 11934 H 1103.66 4.22772 -4.96092 0
M  V30 11935 N 1107.1 1.56929 -0.145233 0
M  V30 11936 C 1108.33 2.00141 0.51257 0
M  V30 11937 C 1108.73 1.0243 1.59075 0
M  V30 11938 O 1108.08 0.0130063 1.83695 0
M  V30 11939 C 1108.14 3.39785 1.17417 0
M  V30 11940 C 1107.8 4.56365 0.240801 0
M  V30 11941 C 1108.8 5.17183 -0.530847 0
M  V30 11942 C 1106.49 5.02093 0.144221 0
M  V30 11943 C 1108.48 6.22136 -1.38654 0
M  V30 11944 C 1106.17 6.06902 -0.71508 0
M  V30 11945 C 1107.16 6.66793 -1.47907 0
M  V30 11946 O 1106.85 7.69573 -2.32405 0
M  V30 11947 H 1106.58 0.661747 0.138085 0
M  V30 11948 H 1109.14 2.04037 -0.236269 0
M  V30 11949 H 1107.37 3.32722 1.97061 0
M  V30 11950 H 1109.06 3.67115 1.73152 0
M  V30 11951 H 1109.82 4.82754 -0.466256 0
M  V30 11952 H 1105.7 4.55206 0.728613 0
M  V30 11953 H 1109.25 6.68812 -1.98333 0
M  V30 11954 H 1105.14 6.40758 -0.78097 0
M  V30 11955 H 1105.91 7.86786 -2.25634 0
M  V30 11956 N 1108.58 -0.128553 1.57075 0
M  V30 11957 C 1109.51 -1.15953 2.02675 0
M  V30 11958 C 1110.49 -1.43743 0.909501 0
M  V30 11959 O 1111.67 -1.54348 1.17857 0
M  V30 11960 C 1108.8 -2.48813 2.423 0
M  V30 11961 C 1107.76 -2.35506 3.57381 0
M  V30 11962 C 1107.08 -3.73243 3.82875 0
M  V30 11963 C 1108.38 -1.82359 4.89431 0
M  V30 11964 H 1110.08 -0.780283 2.89054 0
M  V30 11965 H 1107.62 -0.373896 1.39061 0
M  V30 11966 H 1109.57 -3.21179 2.72804 0
M  V30 11967 H 1108.3 -2.88609 1.52881 0
M  V30 11968 H 1106.96 -1.6559 3.27071 0
M  V30 11969 H 1106.61 -4.10507 2.90677 0
M  V30 11970 H 1106.31 -3.65195 4.60333 0
M  V30 11971 H 1107.83 -4.47128 4.15823 0
M  V30 11972 H 1109.24 -2.44533 5.18533 0
M  V30 11973 H 1107.64 -1.85156 5.70822 0
M  V30 11974 H 1108.71 -0.780478 4.78578 0
M  V30 11975 N 1110.05 -1.5248 -0.398459 0
M  V30 11976 C 1111.02 -1.75949 -1.46883 0
M  V30 11977 C 1112.02 -0.629431 -1.47969 0
M  V30 11978 O 1113.21 -0.897407 -1.49306 0
M  V30 11979 C 1110.34 -1.85162 -2.8623 0
M  V30 11980 H 1111.53 -2.71513 -1.2736 0
M  V30 11981 H 1109.08 -1.43058 -0.629619 0
M  V30 11982 H 1109.82 -0.915505 -3.11109 0
M  V30 11983 H 1109.6 -2.67326 -2.86844 0
M  V30 11984 H 1111.09 -2.05025 -3.63805 0
M  V30 11985 N 1111.53 0.65634 -1.43283 0
M  V30 11986 C 1112.78 1.41212 -1.44021 0
M  V30 11987 C 1113.09 1.95485 -0.0669783 0
M  V30 11988 O 1114.3 2.71457 0.0481909 0
M  V30 11989 C 1112.76 2.55541 -2.5343 0
M  V30 11990 C 1112.36 2.07889 -3.96845 0
M  V30 11991 C 1114.11 3.3293 -2.63359 0
M  V30 11992 C 1112.01 3.19411 -4.97726 0
M  V30 11993 H 1110.94 0.530566 -0.535739 0
M  V30 11994 H 1113.6 0.708743 -1.6926 0
M  V30 11995 H 1111.98 3.28335 -2.21387 0
M  V30 11996 H 1113.15 1.42127 -4.38334 0
M  V30 11997 H 1111.47 1.43388 -3.90933 0
M  V30 11998 H 1114.06 4.1602 -3.35903 0
M  V30 11999 H 1114.41 3.80753 -1.68324 0
M  V30 12000 H 1114.94 2.67216 -2.94687 0
M  V30 12001 H 1111.68 2.7656 -5.94302 0
M  V30 12002 H 1111.2 3.83895 -4.60853 0
M  V30 12003 H 1112.88 3.84591 -5.20287 0
M  V30 12004 N 1113.01 1.29761 0.894412 0
M  V30 12005 C 1113.96 1.15232 2.0205 0
M  V30 12006 C 1114.95 0.0665664 1.69269 0
M  V30 12007 O 1116.16 0.226746 1.78566 0
M  V30 12008 H 1112.53 0.356102 0.662341 0
M  V30 12009 H 1114.5 2.10559 2.11442 0
M  V30 12010 C 1113.25 0.851143 3.37121 0
M  V30 12011 H 1112.58 1.67865 3.62852 0
M  V30 12012 H 1114.02 0.78954 4.16584 0
M  V30 12013 C 1112.47 -0.445737 3.33938 0
M  V30 12014 O 1113 -1.47017 3.7383 0
M  V30 12015 N 1111.21 -0.453493 2.8704 0
M  V30 12016 H 1110.76 0.380636 2.54772 0
M  V30 12017 H 1110.72 -1.32119 2.85293 0
M  V30 12018 N 1114.49 -1.10549 1.12324 0
M  V30 12019 C 1115.4 -2.20428 0.803032 0
M  V30 12020 C 1116.41 -1.72756 -0.207674 0
M  V30 12021 O 1117.59 -2.01357 -0.0415623 0
M  V30 12022 C 1114.65 -3.45716 0.261032 0
M  V30 12023 C 1113.72 -4.08129 1.33152 0
M  V30 12024 C 1112.95 -5.27436 0.815288 0
M  V30 12025 O 1113.17 -5.69317 -0.351361 0
M  V30 12026 O 1112.11 -5.80674 1.58434 0
M  V30 12027 H 1115.93 -2.50249 1.72073 0
M  V30 12028 H 1113.52 -1.19263 0.899815 0
M  V30 12029 H 1115.4 -4.21384 -0.0364007 0
M  V30 12030 H 1114.07 -3.17525 -0.629249 0
M  V30 12031 H 1112.98 -3.3415 1.6821 0
M  V30 12032 H 1114.31 -4.4052 2.19552 0
M  V30 12033 N 1115.97 -0.914965 -1.28321 0
M  V30 12034 C 1117.21 -0.544639 -1.94208 0
M  V30 12035 C 1117.53 0.916368 -1.72806 0
M  V30 12036 O 1118.73 1.39491 -2.32926 0
M  V30 12037 C 1117.19 -0.923209 -3.47858 0
M  V30 12038 C 1116.8 -2.40403 -3.78035 0
M  V30 12039 C 1118.54 -0.623526 -4.19896 0
M  V30 12040 C 1116.45 -2.72266 -5.25 0
M  V30 12041 H 1115.38 -0.199966 -0.727 0
M  V30 12042 H 1118.03 -1.11405 -1.45812 0
M  V30 12043 H 1116.41 -0.282576 -3.94991 0
M  V30 12044 H 1117.59 -3.09149 -3.41706 0
M  V30 12045 H 1115.9 -2.67429 -3.19172 0
M  V30 12046 H 1118.5 -0.838243 -5.28089 0
M  V30 12047 H 1118.84 0.438721 -4.13982 0
M  V30 12048 H 1119.37 -1.22268 -3.78544 0
M  V30 12049 H 1116.11 -3.77349 -5.35993 0
M  V30 12050 H 1115.63 -2.08157 -5.62522 0
M  V30 12051 H 1117.31 -2.59334 -5.92752 0
M  V30 12052 N 1117.44 1.42219 -0.679077 0
M  V30 12053 C 1118.67 2.06333 -0.210097 0
M  V30 12054 C 1119.09 1.50703 1.12562 0
M  V30 12055 O 1118.45 0.627241 1.70104 0
M  V30 12056 C 1118.5 3.60243 -0.160322 0
M  V30 12057 O 1117.6 4.03122 0.869872 0
M  V30 12058 H 1116.94 0.655362 -0.106754 0
M  V30 12059 H 1119.47 1.82278 -0.929294 0
M  V30 12060 H 1119.48 4.07997 0.014384 0
M  V30 12061 H 1118.16 4.00106 -1.13526 0
M  V30 12062 H 1116.74 3.66907 0.66586 0
M  V30 12063 N 1118.92 0.422693 1.51826 0
M  V30 12064 C 1120.17 -0.148348 2.01555 0
M  V30 12065 C 1120.49 -1.44483 1.30956 0
M  V30 12066 O 1119.76 -1.90904 0.439599 0
M  V30 12067 H 1118.34 -0.0578116 0.74476 0
M  V30 12068 H 1121 0.562046 1.8662 0
M  V30 12069 H 1120.1 -0.334766 3.10299 0
M  V30 12070 N 1120.4 -1.5685 0.153553 0
M  V30 12071 C 1121.33 -2.14231 -0.814729 0
M  V30 12072 C 1122.34 -1.09339 -1.20619 0
M  V30 12073 O 1123.53 -1.36592 -1.14913 0
M  V30 12074 C 1120.63 -2.6555 -2.10562 0
M  V30 12075 C 1119.81 -3.94912 -1.8805 0
M  V30 12076 C 1118.87 -4.31476 -3.0119 0
M  V30 12077 O 1117.89 -4.9968 -2.72596 0
M  V30 12078 N 1119.09 -3.91588 -4.28531 0
M  V30 12079 H 1121.86 -2.9794 -0.324277 0
M  V30 12080 H 1119.42 -1.61873 -0.0298087 0
M  V30 12081 H 1121.41 -2.87019 -2.85311 0
M  V30 12082 H 1119.98 -1.86529 -2.5085 0
M  V30 12083 H 1119.2 -3.82002 -0.973024 0
M  V30 12084 H 1120.49 -4.79433 -1.70356 0
M  V30 12085 H 1119.89 -3.36645 -4.54628 0
M  V30 12086 H 1118.44 -4.18095 -5.00039 0
M  V30 12087 N 1121.88 0.120221 -1.57141 0
M  V30 12088 C 1122.81 1.14876 -2.03287 0
M  V30 12089 C 1123.79 1.43259 -0.917112 0
M  V30 12090 O 1124.97 1.53721 -1.18674 0
M  V30 12091 C 1122.1 2.47525 -2.43616 0
M  V30 12092 C 1121.06 2.33607 -3.58625 0
M  V30 12093 C 1120.38 3.71207 -3.84849 0
M  V30 12094 C 1121.68 1.79761 -4.90391 0
M  V30 12095 H 1123.38 0.764943 -2.89463 0
M  V30 12096 H 1120.92 0.366516 -1.39258 0
M  V30 12097 H 1122.88 3.19728 -2.74504 0
M  V30 12098 H 1121.6 2.87794 -1.54409 0
M  V30 12099 H 1120.26 1.63853 -3.27945 0
M  V30 12100 H 1119.91 4.0896 -2.9285 0
M  V30 12101 H 1119.61 3.62749 -4.62263 0
M  V30 12102 H 1121.13 4.44917 -4.18188 0
M  V30 12103 H 1122.55 2.4178 -5.19822 0
M  V30 12104 H 1120.94 1.82126 -5.71795 0
M  V30 12105 H 1122.01 0.755087 -4.78985 0
M  V30 12106 N 1123.36 1.52689 0.390367 0
M  V30 12107 C 1124.63 1.58246 1.14968 0
M  V30 12108 C 1125.01 0.374808 2.07746 0
M  V30 12109 O 1124.36 -0.636969 2.19442 0
M  V30 12110 C 1124.57 2.92059 1.91056 0
M  V30 12111 C 1125.92 3.45745 2.46466 0
M  V30 12112 O 1126.94 2.93924 2.01214 0
M  V30 12113 O 1125.8 4.3628 3.29122 0
M  V30 12114 H 1122.9 0.638189 0.52597 0
M  V30 12115 H 1125.44 1.65024 0.39563 0
M  V30 12116 H 1124.21 3.71399 1.23201 0
M  V30 12117 H 1123.84 2.8866 2.73425 0
M  V30 12118 N 1124.83 -0.648732 1.43629 0
M  V30 12119 C 1126.08 -1.41066 1.45699 0
M  V30 12120 C 1126.41 -1.94024 0.082612 0
M  V30 12121 O 1125.69 -1.7257 -0.897207 0
M  V30 12122 C 1125.97 -2.58882 2.50304 0
M  V30 12123 C 1125.82 -2.11387 3.97033 0
M  V30 12124 C 1127.14 -3.61092 2.51597 0
M  V30 12125 H 1124.26 -0.511591 0.530512 0
M  V30 12126 H 1126.9 -0.735069 1.75205 0
M  V30 12127 H 1125.05 -3.16518 2.25274 0
M  V30 12128 H 1126.73 -1.58718 4.33136 0
M  V30 12129 H 1124.97 -1.4272 4.0965 0
M  V30 12130 H 1125.64 -2.96129 4.65845 0
M  V30 12131 H 1128.12 -3.13223 2.73917 0
M  V30 12132 H 1126.99 -4.41071 3.26722 0
M  V30 12133 H 1127.25 -4.13985 1.55141 0
M  V30 12134 N 1126.31 -1.30234 -0.887518 0
M  V30 12135 C 1127.59 -1.09572 -1.62029 0
M  V30 12136 C 1127.97 0.355877 -2.08079 0
M  V30 12137 O 1127.32 1.34692 -1.84582 0
M  V30 12138 C 1127.53 -2.0943 -2.79177 0
M  V30 12139 C 1128.88 -2.4101 -3.4957 0
M  V30 12140 O 1129.9 -2.0772 -2.89363 0
M  V30 12141 O 1128.76 -2.97943 -4.5814 0
M  V30 12142 H 1125.85 -0.420648 -0.712028 0
M  V30 12143 H 1128.4 -1.41651 -0.934517 0
M  V30 12144 H 1127.17 -3.07149 -2.42436 0
M  V30 12145 H 1126.79 -1.78154 -3.55453 0
M  V30 12146 N 1127.79 1.09952 -1.12909 0
M  V30 12147 C 1128.72 2.18477 -0.824014 0
M  V30 12148 C 1129.7 1.68744 0.214324 0
M  V30 12149 O 1130.89 1.94057 0.0744281 0
M  V30 12150 C 1128.02 3.46143 -0.283308 0
M  V30 12151 C 1126.97 4.09178 -1.25528 0
M  V30 12152 C 1126.3 5.31604 -0.574574 0
M  V30 12153 C 1127.6 4.52308 -2.6118 0
M  V30 12154 H 1129.29 2.44254 -1.73148 0
M  V30 12155 H 1126.84 1.17394 -0.833952 0
M  V30 12156 H 1128.79 4.21361 -0.057583 0
M  V30 12157 H 1127.51 3.19872 0.659525 0
M  V30 12158 H 1126.17 3.35973 -1.4669 0
M  V30 12159 H 1125.82 5.01611 0.37356 0
M  V30 12160 H 1125.52 5.74732 -1.22299 0
M  V30 12161 H 1127.04 6.0955 -0.358004 0
M  V30 12162 H 1128.46 5.18776 -2.44017 0
M  V30 12163 H 1126.86 5.06302 -3.22147 0
M  V30 12164 H 1127.93 3.64977 -3.19249 0
M  V30 12165 N 1129.27 0.921757 1.27833 0
M  V30 12166 C 1130.52 0.55493 1.93916 0
M  V30 12167 C 1130.83 -0.907191 1.7329 0
M  V30 12168 O 1132.04 -1.38253 2.33663 0
M  V30 12169 C 1130.49 0.941644 3.47363 0
M  V30 12170 C 1130.1 2.42404 3.76755 0
M  V30 12171 C 1131.84 0.645785 4.19559 0
M  V30 12172 C 1129.75 2.75046 5.23549 0
M  V30 12173 H 1128.68 0.203818 0.72593 0
M  V30 12174 H 1131.33 1.12176 1.4522 0
M  V30 12175 H 1129.71 0.303519 3.94835 0
M  V30 12176 H 1130.89 3.10957 3.40062 0
M  V30 12177 H 1129.2 2.69118 3.17749 0
M  V30 12178 H 1131.8 0.866237 5.27637 0
M  V30 12179 H 1132.14 -0.41676 4.14209 0
M  V30 12180 H 1132.68 1.24274 3.7789 0
M  V30 12181 H 1129.42 3.80186 5.33984 0
M  V30 12182 H 1128.94 2.11138 5.6141 0
M  V30 12183 H 1130.61 2.62474 5.91368 0
M  V30 12184 N 1130.75 -1.41857 0.686609 0
M  V30 12185 C 1131.68 -2.33481 0.0298353 0
M  V30 12186 C 1132.66 -1.51329 -0.776756 0
M  V30 12187 O 1133.84 -1.79895 -0.731535 0
M  V30 12188 C 1130.97 -3.35065 -0.913707 0
M  V30 12189 C 1129.93 -4.2746 -0.214861 0
M  V30 12190 C 1129.25 -5.19346 -1.27215 0
M  V30 12191 C 1130.55 -5.14252 0.913367 0
M  V30 12192 H 1132.25 -2.8865 0.795067 0
M  V30 12193 H 1129.79 -1.38792 0.383785 0
M  V30 12194 H 1131.75 -3.98082 -1.38234 0
M  V30 12195 H 1130.47 -2.78226 -1.7105 0
M  V30 12196 H 1129.13 -3.65855 0.233651 0
M  V30 12197 H 1128.78 -4.58827 -2.06124 0
M  V30 12198 H 1128.48 -5.81996 -0.80961 0
M  V30 12199 H 1130 -5.85239 -1.74147 0
M  V30 12200 H 1131.41 -5.70887 0.525424 0
M  V30 12201 H 1129.81 -5.85796 1.30244 0
M  V30 12202 H 1130.88 -4.51949 1.75699 0
M  V30 12203 N 1132.22 -0.430739 -1.51599 0
M  V30 12204 C 1133.64 -0.0826902 -1.59386 0
M  V30 12205 C 1133.84 1.40729 -1.44214 0
M  V30 12206 O 1132.9 2.1765 -1.28002 0
M  V30 12207 C 1134.21 -0.59691 -2.94716 0
M  V30 12208 C 1135.76 -0.556772 -3.08008 0
M  V30 12209 C 1136.23 -1.04786 -4.45852 0
M  V30 12210 N 1137.72 -1.00557 -4.52153 0
M  V30 12211 C 1138.46 -1.35649 -5.57124 0
M  V30 12212 N 1137.95 -1.77994 -6.69545 0
M  V30 12213 N 1139.75 -1.27508 -5.47447 0
M  V30 12214 H 1131.9 -1.40027 -1.59707 0
M  V30 12215 H 1134.16 -0.576606 -0.752482 0
M  V30 12216 H 1133.87 -1.63914 -3.11167 0
M  V30 12217 H 1133.74 -0.0182342 -3.77196 0
M  V30 12218 H 1136.13 0.476457 -2.91228 0
M  V30 12219 H 1136.21 -1.17177 -2.27383 0
M  V30 12220 H 1135.85 -2.07952 -4.63377 0
M  V30 12221 H 1135.78 -0.409461 -5.25006 0
M  V30 12222 H 1138.27 -0.694518 -3.71463 0
M  V30 12223 H 1138.59 -2.03026 -7.45654 0
M  V30 12224 H 1136.93 -1.81916 -6.70769 0
M  V30 12225 H 1140.12 -0.942969 -4.58504 0
M  V30 12226 H 1140.3 -1.55185 -6.29143 0
M  V30 12227 N 1133.7 1.56767 -0.161869 0
M  V30 12228 C 1134.94 1.98487 0.488067 0
M  V30 12229 C 1135.31 1.04527 1.61053 0
M  V30 12230 O 1136.51 1.35351 2.32236 0
M  V30 12231 C 1134.78 3.44057 0.967446 0
M  V30 12232 S 1136.34 4.07805 1.61989 0
M  V30 12233 H 1133.16 0.693377 0.157318 0
M  V30 12234 H 1135.76 1.93802 -0.257099 0
M  V30 12235 H 1134.46 4.10161 0.139959 0
M  V30 12236 H 1133.99 3.52488 1.74688 0
M  V30 12237 H 1136.01 4.02078 2.90772 0
M  V30 12238 N 1135.18 -0.111886 1.57202 0
M  V30 12239 C 1136.11 -1.16749 1.96074 0
M  V30 12240 C 1137.09 -1.39735 0.831438 0
M  V30 12241 O 1138.28 -1.53772 1.09025 0
M  V30 12242 C 1135.4 -2.51996 2.26308 0
M  V30 12243 C 1134.45 -2.45394 3.48832 0
M  V30 12244 S 1135.28 -1.8867 5.01163 0
M  V30 12245 C 1136.44 -3.25576 5.34557 0
M  V30 12246 H 1136.67 -0.836033 2.85303 0
M  V30 12247 H 1134.2 -0.318922 1.5107 0
M  V30 12248 H 1136.16 -3.29813 2.44405 0
M  V30 12249 H 1134.82 -2.82317 1.3768 0
M  V30 12250 H 1134.02 -3.45038 3.67376 0
M  V30 12251 H 1133.62 -1.75702 3.30159 0
M  V30 12252 H 1135.91 -4.21807 5.30174 0
M  V30 12253 H 1136.85 -3.11853 6.35731 0
M  V30 12254 H 1137.26 -3.24333 4.62026 0
M  V30 12255 N 1136.66 -1.52894 -0.382264 0
M  V30 12256 C 1137.88 -1.72453 -1.15216 0
M  V30 12257 C 1138.31 -0.444925 -1.82762 0
M  V30 12258 O 1137.67 0.599825 -1.7109 0
M  V30 12259 C 1137.71 -2.87939 -2.17079 0
M  V30 12260 O 1136.82 -2.55383 -3.23811 0
M  V30 12261 H 1136.16 -0.57324 -0.335099 0
M  V30 12262 H 1138.69 -1.99713 -0.444495 0
M  V30 12263 H 1138.7 -3.13628 -2.60963 0
M  V30 12264 H 1137.37 -3.80765 -1.67305 0
M  V30 12265 H 1135.95 -2.40457 -2.85018 0
M  V30 12266 N 1138.14 0.641106 -1.43971 0
M  V30 12267 C 1139.41 1.39897 -1.36704 0
M  V30 12268 C 1139.79 2.1109 -0.0208051 0
M  V30 12269 O 1139.14 2.05638 0.99625 0
M  V30 12270 C 1139.35 2.37366 -2.55849 0
M  V30 12271 C 1140.7 3.01 -2.99473 0
M  V30 12272 O 1141.72 2.47692 -2.55982 0
M  V30 12273 O 1140.58 3.9768 -3.74851 0
M  V30 12274 H 1137.68 0.625623 -0.540855 0
M  V30 12275 H 1140.22 0.666997 -1.56042 0
M  V30 12276 H 1139 1.8379 -3.45452 0
M  V30 12277 H 1138.62 3.17995 -2.38673 0
M  V30 12278 N 1139.62 1.30703 0.880598 0
M  V30 12279 C 1140.53 1.19389 2.01949 0
M  V30 12280 C 1141.54 0.112868 1.73634 0
M  V30 12281 O 1142.72 0.328643 1.98701 0
M  V30 12282 C 1139.78 0.891004 3.35055 0
M  V30 12283 C 1138.84 2.05784 3.76764 0
M  V30 12284 C 1138.08 1.76931 5.03519 0
M  V30 12285 O 1138.3 0.699326 5.66097 0
M  V30 12286 O 1137.23 2.623 5.4174 0
M  V30 12287 H 1141.06 2.15073 2.14423 0
M  V30 12288 H 1138.64 1.10339 1.00726 0
M  V30 12289 H 1140.53 0.737476 4.14897 0
M  V30 12290 H 1139.2 -0.0358909 3.2368 0
M  V30 12291 H 1138.11 2.26672 2.97608 0
M  V30 12292 H 1139.44 2.96661 3.9275 0
M  V30 12293 N 1141.09 -1.09351 1.1349 0
M  V30 12294 C 1142.04 -2.18099 0.808426 0
M  V30 12295 C 1143.04 -1.68099 -0.209571 0
M  V30 12296 O 1144.24 -1.79877 -0.0666417 0
M  V30 12297 H 1140.62 -0.711432 0.243658 0
M  V30 12298 H 1142.59 -2.42867 1.73373 0
M  V30 12299 C 1141.34 -3.46475 0.291615 0
M  V30 12300 H 1140.66 -3.85319 1.06627 0
M  V30 12301 H 1142.1 -4.23878 0.101616 0
M  V30 12302 C 1140.56 -3.22245 -0.982827 0
M  V30 12303 O 1141.09 -3.44947 -2.0585 0
M  V30 12304 N 1139.29 -2.75845 -0.914218 0
M  V30 12305 H 1138.84 -2.57571 -0.03872 0
M  V30 12306 H 1138.8 -2.60011 -1.76753 0
M  V30 12307 N 1142.57 -0.928524 -1.27343 0
M  V30 12308 C 1143.5 -0.445627 -2.29208 0
M  V30 12309 C 1144.48 0.494508 -1.62753 0
M  V30 12310 O 1145.67 0.399082 -1.90055 0
M  V30 12311 C 1142.8 0.301684 -3.45987 0
M  V30 12312 C 1141.75 -0.550695 -4.24442 0
M  V30 12313 C 1141.08 0.325833 -5.33706 0
M  V30 12314 C 1142.38 -1.81559 -4.89728 0
M  V30 12315 H 1144.07 -1.29696 -2.69851 0
M  V30 12316 H 1141.62 -0.625085 -1.29725 0
M  V30 12317 H 1143.57 0.650455 -4.1635 0
M  V30 12318 H 1142.29 1.18705 -3.04264 0
M  V30 12319 H 1140.95 -0.882185 -3.55827 0
M  V30 12320 H 1140.6 1.21018 -4.88225 0
M  V30 12321 H 1140.3 -0.240994 -5.87106 0
M  V30 12322 H 1141.83 0.670156 -6.06911 0
M  V30 12323 H 1143.24 -1.53483 -5.52373 0
M  V30 12324 H 1141.64 -2.32598 -5.53189 0
M  V30 12325 H 1142.71 -2.53461 -4.13383 0
M  V30 12326 N 1144.05 1.41491 -0.694123 0
M  V30 12327 C 1145.46 1.84283 -0.299439 0
M  V30 12328 C 1145.81 1.58081 1.16211 0
M  V30 12329 O 1144.94 1.05051 1.89191 0
M  V30 12330 C 1145.53 3.34522 -0.536696 0
M  V30 12331 C 1144.09 3.7589 -0.195944 0
M  V30 12332 C 1143.24 2.64908 -0.819692 0
M  V30 12333 H 1146.19 1.31063 -0.894884 0
M  V30 12334 H 1146.21 3.79947 0.205062 0
M  V30 12335 H 1145.72 3.53561 -1.6005 0
M  V30 12336 H 1143.82 3.62452 0.863655 0
M  V30 12337 H 1143.94 4.74671 -0.649954 0
M  V30 12338 H 1142.3 2.53476 -0.249412 0
M  V30 12339 H 1143.08 2.86765 -1.88734 0
M  V30 12340 N 1145.53 0.438773 1.51369 0
M  V30 12341 C 1146.76 -0.125665 2.06217 0
M  V30 12342 C 1147.17 -1.36887 1.30609 0
M  V30 12343 O 1146.51 -1.80149 0.359433 0
M  V30 12344 C 1146.57 -0.511846 3.55838 0
M  V30 12345 C 1146.23 0.624755 4.52709 0
M  V30 12346 C 1147.23 1.49731 4.97872 0
M  V30 12347 C 1144.92 0.805895 4.95793 0
M  V30 12348 C 1146.91 2.53569 5.84792 0
M  V30 12349 C 1144.6 1.84755 5.82502 0
M  V30 12350 C 1145.6 2.71083 6.269 0
M  V30 12351 O 1145.28 3.7346 7.11887 0
M  V30 12352 H 1145.02 -0.0107227 0.675915 0
M  V30 12353 H 1147.57 0.617071 1.95912 0
M  V30 12354 H 1145.8 -1.30731 3.63932 0
M  V30 12355 H 1147.49 -1.0076 3.93195 0
M  V30 12356 H 1148.25 1.36891 4.65281 0
M  V30 12357 H 1144.13 0.14352 4.60777 0
M  V30 12358 H 1147.68 3.20984 6.19367 0
M  V30 12359 H 1143.57 1.97614 6.14507 0
M  V30 12360 H 1144.34 3.70058 7.30068 0
M  V30 12361 N 1147.01 -1.56678 0.170181 0
M  V30 12362 C 1148.28 -1.88524 -0.521362 0
M  V30 12363 C 1148.66 -1.07989 -1.81388 0
M  V30 12364 O 1148.01 -0.17347 -2.27841 0
M  V30 12365 C 1148.22 -3.40527 -0.764367 0
M  V30 12366 C 1149.57 -4.10241 -1.09487 0
M  V30 12367 O 1150.59 -3.45837 -0.852945 0
M  V30 12368 O 1149.45 -5.24022 -1.55124 0
M  V30 12369 H 1146.55 -0.782161 -0.268614 0
M  V30 12370 H 1149.09 -1.68414 0.208531 0
M  V30 12371 H 1147.86 -3.91015 0.149416 0
M  V30 12372 H 1147.49 -3.66244 -1.54762 0
M  V30 12373 N 1148.48 0.103547 -1.57259 0
M  V30 12374 C 1149.41 1.12714 -2.04494 0
M  V30 12375 C 1150.39 1.42278 -0.932255 0
M  V30 12376 O 1151.58 1.52453 -1.20298 0
M  V30 12377 C 1148.71 2.44927 -2.46228 0
M  V30 12378 C 1147.66 2.2979 -3.61082 0
M  V30 12379 C 1146.99 3.67105 -3.88765 0
M  V30 12380 C 1148.29 1.7455 -4.9227 0
M  V30 12381 H 1149.98 0.734198 -2.90258 0
M  V30 12382 H 1147.53 0.351725 -1.39638 0
M  V30 12383 H 1149.48 3.16798 -2.77879 0
M  V30 12384 H 1148.21 2.8614 -1.57453 0
M  V30 12385 H 1146.87 1.60366 -3.29664 0
M  V30 12386 H 1146.51 4.05831 -2.97171 0
M  V30 12387 H 1146.21 3.57825 -4.66084 0
M  V30 12388 H 1147.74 4.40456 -4.22884 0
M  V30 12389 H 1149.15 2.36253 -5.22358 0
M  V30 12390 H 1147.55 1.76051 -5.73695 0
M  V30 12391 H 1148.62 0.704242 -4.79759 0
M  V30 12392 N 1149.96 1.53094 0.37415 0
M  V30 12393 C 1151.38 1.42676 0.715246 0
M  V30 12394 C 1151.58 0.558992 1.93591 0
M  V30 12395 O 1150.63 0.0381328 2.52471 0
M  V30 12396 C 1151.95 2.85746 0.936459 0
M  V30 12397 C 1153.49 2.95322 1.03701 0
M  V30 12398 C 1153.97 4.39436 1.29075 0
M  V30 12399 N 1155.46 4.42826 1.35864 0
M  V30 12400 C 1156.2 5.51433 1.57191 0
M  V30 12401 N 1155.69 6.701 1.75891 0
M  V30 12402 N 1157.48 5.38998 1.59491 0
M  V30 12403 H 1149.64 2.08025 -0.428854 0
M  V30 12404 H 1151.9 0.939078 -0.129758 0
M  V30 12405 H 1151.6 3.51523 0.111448 0
M  V30 12406 H 1151.48 3.28887 1.84698 0
M  V30 12407 H 1153.87 2.29704 1.85257 0
M  V30 12408 H 1153.95 2.55588 0.104066 0
M  V30 12409 H 1153.59 5.05625 0.480231 0
M  V30 12410 H 1153.52 4.76735 2.23677 0
M  V30 12411 H 1156.01 3.57301 1.23061 0
M  V30 12412 H 1156.32 7.48643 1.91713 0
M  V30 12413 H 1154.67 6.73102 1.73086 0
M  V30 12414 H 1157.86 4.45257 1.44444 0
M  V30 12415 H 1158.03 6.23705 1.75771 0
M  V30 12416 N 1151.44 -0.633461 1.44309 0
M  V30 12417 C 1152.4 -1.72743 1.50641 0
M  V30 12418 C 1153.4 -1.56031 0.388718 0
M  V30 12419 O 1154.59 -1.61568 0.651251 0
M  V30 12420 C 1151.72 -3.11804 1.37809 0
M  V30 12421 H 1152.92 -1.68503 2.48086 0
M  V30 12422 H 1150.47 -0.846912 1.31366 0
M  V30 12423 H 1151.21 -3.2164 0.414483 0
M  V30 12424 H 1150.99 -3.2534 2.18852 0
M  V30 12425 H 1152.48 -3.91538 1.45216 0
M  V30 12426 N 1152.92 -1.31168 -0.873655 0
M  V30 12427 C 1154.14 -1.23728 -1.66452 0
M  V30 12428 C 1154.57 0.194869 -1.87088 0
M  V30 12429 O 1153.93 1.1397 -1.40998 0
M  V30 12430 C 1153.97 -1.98285 -3.0119 0
M  V30 12431 O 1153.08 -1.31767 -3.90783 0
M  V30 12432 H 1152.42 -0.427362 -0.508191 0
M  V30 12433 H 1154.95 -1.73176 -1.08955 0
M  V30 12434 H 1154.96 -2.0774 -3.51153 0
M  V30 12435 H 1153.63 -3.02437 -2.8549 0
M  V30 12436 H 1152.21 -1.3074 -3.4923 0
M  V30 12437 N 1154.4 1.08748 -1.14068 0
M  V30 12438 C 1155.64 1.81065 -0.906738 0
M  V30 12439 C 1155.97 1.86057 0.566844 0
M  V30 12440 O 1155.23 1.32976 1.43582 0
M  V30 12441 C 1155.53 3.26734 -1.44843 0
M  V30 12442 C 1155.19 3.41866 -2.94005 0
M  V30 12443 C 1153.85 3.45703 -3.34729 0
M  V30 12444 C 1156.21 3.45831 -3.89937 0
M  V30 12445 C 1153.53 3.51092 -4.70055 0
M  V30 12446 C 1155.89 3.52755 -5.25116 0
M  V30 12447 C 1154.55 3.54863 -5.65357 0
M  V30 12448 H 1153.82 0.662564 -0.331799 0
M  V30 12449 H 1156.47 1.28065 -1.42378 0
M  V30 12450 H 1154.77 3.82419 -0.852239 0
M  V30 12451 H 1156.47 3.81236 -1.2434 0
M  V30 12452 H 1153.06 3.39568 -2.61518 0
M  V30 12453 H 1157.24 3.421 -3.59557 0
M  V30 12454 H 1152.5 3.51015 -5.00598 0
M  V30 12455 H 1156.67 3.54768 -5.9926 0
M  V30 12456 H 1154.3 3.58792 -6.70203 0
M  V30 12457 N 1155.87 0.935264 1.26849 0
M  V30 12458 C 1157.11 0.587087 1.95787 0
M  V30 12459 C 1157.48 -0.856974 1.71814 0
M  V30 12460 O 1158.68 -1.3138 2.34505 0
M  V30 12461 C 1156.95 0.91303 3.45541 0
M  V30 12462 S 1158.51 0.674506 4.33585 0
M  V30 12463 H 1155.33 0.216442 0.677255 0
M  V30 12464 H 1157.93 1.20532 1.53923 0
M  V30 12465 H 1156.63 1.96154 3.60488 0
M  V30 12466 H 1156.16 0.28429 3.92371 0
M  V30 12467 H 1158.18 -0.464121 4.94025 0
M  V30 12468 N 1157.35 -1.41121 0.701616 0
M  V30 12469 C 1158.77 -1.55162 0.373766 0
M  V30 12470 C 1158.97 -1.6759 -1.11875 0
M  V30 12471 O 1158.02 -1.65768 -1.90465 0
M  V30 12472 C 1159.34 -2.78758 1.12759 0
M  V30 12473 C 1160.89 -2.92561 1.11253 0
M  V30 12474 C 1161.36 -4.19052 1.84822 0
M  V30 12475 N 1162.85 -4.26023 1.81821 0
M  V30 12476 C 1163.59 -5.22771 2.3558 0
M  V30 12477 N 1163.08 -6.25512 2.97836 0
M  V30 12478 N 1164.88 -5.14752 2.25802 0
M  V30 12479 H 1157.03 -1.31299 1.66956 0
M  V30 12480 H 1159.29 -0.633894 0.704898 0
M  V30 12481 H 1159 -2.75804 2.18231 0
M  V30 12482 H 1158.87 -3.70456 0.710095 0
M  V30 12483 H 1161.26 -2.95026 0.0660506 0
M  V30 12484 H 1161.34 -2.0202 1.56913 0
M  V30 12485 H 1160.98 -4.17349 2.89452 0
M  V30 12486 H 1160.91 -5.08577 1.36592 0
M  V30 12487 H 1163.4 -3.52411 1.36438 0
M  V30 12488 H 1163.72 -6.95736 3.36409 0
M  V30 12489 H 1162.06 -6.25997 3.01916 0
M  V30 12490 H 1165.25 -4.33414 1.76833 0
M  V30 12491 H 1165.42 -5.89983 2.68001 0
M  V30 12492 N 1158.83 -0.446794 -1.51134 0
M  V30 12493 C 1159.76 0.350229 -2.30858 0
M  V30 12494 C 1160.74 1.0125 -1.36684 0
M  V30 12495 O 1161.93 1.01433 -1.65605 0
M  V30 12496 C 1159.06 1.4464 -3.15748 0
M  V30 12497 C 1158.01 0.907102 -4.18277 0
M  V30 12498 C 1157.34 2.09974 -4.91747 0
M  V30 12499 C 1158.64 -0.0649758 -5.2226 0
M  V30 12500 H 1160.33 -0.315105 -2.97737 0
M  V30 12501 H 1157.88 -0.152985 -1.43185 0
M  V30 12502 H 1159.83 2.01127 -3.70305 0
M  V30 12503 H 1158.55 2.14016 -2.46708 0
M  V30 12504 H 1157.21 0.364382 -3.64785 0
M  V30 12505 H 1156.86 2.77991 -4.19202 0
M  V30 12506 H 1156.56 1.74523 -5.61084 0
M  V30 12507 H 1158.08 2.66996 -5.49131 0
M  V30 12508 H 1159.5 0.4099 -5.71833 0
M  V30 12509 H 1157.9 -0.332529 -5.99178 0
M  V30 12510 H 1158.97 -0.998681 -4.74504 0
M  V30 12511 N 1160.31 1.56586 -0.178487 0
M  V30 12512 C 1161.24 2.14168 0.787856 0
M  V30 12513 C 1162.22 1.07374 1.22105 0
M  V30 12514 O 1163.4 1.35391 1.31154 0
M  V30 12515 C 1160.53 2.68708 2.06189 0
M  V30 12516 C 1159.58 3.8794 1.77215 0
M  V30 12517 S 1160.41 5.27274 0.935002 0
M  V30 12518 C 1161.57 5.85224 2.21954 0
M  V30 12519 H 1161.8 2.958 0.298293 0
M  V30 12520 H 1159.33 1.54357 0.0362853 0
M  V30 12521 H 1161.29 3.00777 2.79363 0
M  V30 12522 H 1159.95 1.87149 2.52258 0
M  V30 12523 H 1159.14 4.24453 2.71764 0
M  V30 12524 H 1158.75 3.56795 1.12132 0
M  V30 12525 H 1161.04 5.98575 3.17355 0
M  V30 12526 H 1161.98 6.82162 1.89898 0
M  V30 12527 H 1162.39 5.13697 2.34042 0
M  V30 12528 N 1161.79 -0.095206 1.57312 0
M  V30 12529 C 1162.72 -1.11627 2.05089 0
M  V30 12530 C 1163.7 -1.41782 0.939787 0
M  V30 12531 O 1164.88 -1.51813 1.21105 0
M  V30 12532 C 1162.01 -2.43618 2.47523 0
M  V30 12533 C 1160.97 -2.27872 3.62296 0
M  V30 12534 C 1160.29 -3.65038 3.90706 0
M  V30 12535 C 1161.59 -1.71936 4.93189 0
M  V30 12536 H 1163.29 -0.718795 2.90644 0
M  V30 12537 H 1160.83 -0.344315 1.39823 0
M  V30 12538 H 1162.79 -3.1532 2.79556 0
M  V30 12539 H 1161.51 -2.85301 1.58968 0
M  V30 12540 H 1160.17 -1.58615 3.3051 0
M  V30 12541 H 1159.82 -4.04249 2.99319 0
M  V30 12542 H 1159.52 -3.55349 4.67976 0
M  V30 12543 H 1161.04 -4.38208 4.25213 0
M  V30 12544 H 1162.45 -2.33479 5.23603 0
M  V30 12545 H 1160.85 -1.73006 5.74621 0
M  V30 12546 H 1161.92 -0.678789 4.80125 0
M  V30 12547 N 1163.26 -1.53291 -0.366026 0
M  V30 12548 C 1164.21 -1.76077 -1.44847 0
M  V30 12549 C 1165.2 -0.615302 -1.4867 0
M  V30 12550 O 1166.39 -0.873952 -1.53919 0
M  V30 12551 C 1163.52 -1.95371 -2.82286 0
M  V30 12552 C 1162.61 -3.15918 -2.82943 0
M  V30 12553 N 1163 -4.37835 -2.53247 0
M  V30 12554 C 1161.29 -3.16631 -3.14103 0
M  V30 12555 C 1162 -5.19573 -2.6157 0
M  V30 12556 N 1160.97 -4.55773 -2.96263 0
M  V30 12557 H 1164.77 -2.67949 -1.2075 0
M  V30 12558 H 1162.29 -1.5191 -0.574206 0
M  V30 12559 H 1164.28 -2.09823 -3.6025 0
M  V30 12560 H 1162.94 -1.04727 -3.07347 0
M  V30 12561 H 1163.96 -4.65575 -2.26848 0
M  V30 12562 H 1160.63 -2.35878 -3.44482 0
M  V30 12563 H 1162.02 -6.26821 -2.41961 0
M  V30 12564 N 1164.74 0.6258 -1.44643 0
M  V30 12565 C 1165.68 1.75056 -1.46392 0
M  V30 12566 C 1166.65 1.59376 -0.322179 0
M  V30 12567 O 1167.84 1.81187 -0.519956 0
M  V30 12568 C 1164.96 3.12689 -1.30166 0
M  V30 12569 C 1164.01 3.47005 -2.47972 0
M  V30 12570 S 1164.84 3.43885 -4.10491 0
M  V30 12571 C 1166 4.84129 -3.96698 0
M  V30 12572 H 1166.23 1.73306 -2.41562 0
M  V30 12573 H 1163.77 0.800879 -1.32005 0
M  V30 12574 H 1165.72 3.9211 -1.21492 0
M  V30 12575 H 1164.38 3.11972 -0.364982 0
M  V30 12576 H 1163.58 4.47171 -2.32496 0
M  V30 12577 H 1163.18 2.75059 -2.53414 0
M  V30 12578 H 1165.47 5.73488 -3.60718 0
M  V30 12579 H 1166.41 5.0466 -4.96713 0
M  V30 12580 H 1166.82 4.58954 -3.28666 0
M  V30 12581 N 1166.22 1.31629 0.866686 0
M  V30 12582 C 1167.17 1.16149 1.96197 0
M  V30 12583 C 1168.15 0.0716068 1.60741 0
M  V30 12584 O 1169.35 0.296868 1.74493 0
M  V30 12585 C 1166.48 0.874322 3.3198 0
M  V30 12586 C 1165.56 2.00534 3.73693 0
M  V30 12587 N 1165.95 3.25272 3.87339 0
M  V30 12588 C 1164.25 1.90582 4.0323 0
M  V30 12589 C 1164.95 3.99275 4.2303 0
M  V30 12590 N 1163.93 3.27471 4.33894 0
M  V30 12591 H 1167.73 2.10732 2.04864 0
M  V30 12592 H 1165.24 1.23234 1.05769 0
M  V30 12593 H 1167.24 0.7444 4.102 0
M  V30 12594 H 1165.9 -0.0632521 3.24638 0
M  V30 12595 H 1166.91 3.60349 3.71979 0
M  V30 12596 H 1163.59 1.0431 4.0426 0
M  V30 12597 H 1164.98 5.06784 4.41157 0
M  V30 12598 N 1167.7 -1.08142 1.14644 0
M  V30 12599 C 1168.95 -1.80849 0.917685 0
M  V30 12600 C 1169.28 -1.86123 -0.554249 0
M  V30 12601 O 1168.55 -1.33907 -1.41065 0
M  V30 12602 C 1168.84 -3.26325 1.52264 0
M  V30 12603 C 1168.69 -3.29244 3.06461 0
M  V30 12604 C 1170.01 -4.23375 1.20175 0
M  V30 12605 H 1167.13 -0.656559 0.334812 0
M  V30 12606 H 1169.77 -1.26595 1.41682 0
M  V30 12607 H 1167.92 -3.72656 1.09817 0
M  V30 12608 H 1169.59 -2.91216 3.57758 0
M  V30 12609 H 1167.83 -2.68438 3.40769 0
M  V30 12610 H 1168.51 -4.31785 3.43897 0
M  V30 12611 H 1170.98 -3.85394 1.56877 0
M  V30 12612 H 1169.86 -5.23472 1.65132 0
M  V30 12613 H 1170.12 -4.41944 0.117474 0
M  V30 12614 N 1169.18 -0.941978 -1.26351 0
M  V30 12615 C 1170.45 -0.507822 -1.88893 0
M  V30 12616 C 1170.83 1.0146 -1.85119 0
M  V30 12617 O 1170.18 1.87495 -1.30606 0
M  V30 12618 C 1170.39 -1.07007 -3.3219 0
M  V30 12619 C 1171.74 -1.13922 -4.09032 0
M  V30 12620 O 1172.76 -1.02072 -3.41262 0
M  V30 12621 O 1171.62 -1.32362 -5.30229 0
M  V30 12622 H 1168.72 -0.165621 -0.810246 0
M  V30 12623 H 1171.26 -1.03459 -1.34515 0
M  V30 12624 H 1170.04 -2.11366 -3.29302 0
M  V30 12625 H 1169.66 -0.525797 -3.94108 0
M  V30 12626 N 1170.66 1.40747 -0.709091 0
M  V30 12627 C 1172.07 1.54961 -0.381989 0
M  V30 12628 C 1172.27 1.68181 1.10985 0
M  V30 12629 O 1171.33 1.66776 1.89584 0
M  V30 12630 C 1172.64 2.78156 -1.14236 0
M  V30 12631 C 1174.19 2.91967 -1.12803 0
M  V30 12632 C 1174.66 4.18066 -1.87042 0
M  V30 12633 N 1176.15 4.25052 -1.84078 0
M  V30 12634 C 1176.89 5.21514 -2.38349 0
M  V30 12635 N 1176.39 6.23924 -3.01149 0
M  V30 12636 N 1178.18 5.13548 -2.28528 0
M  V30 12637 H 1170.33 1.30412 -1.6765 0
M  V30 12638 H 1172.59 0.630147 -0.70825 0
M  V30 12639 H 1172.3 2.74643 -2.19691 0
M  V30 12640 H 1172.17 3.70074 -0.729731 0
M  V30 12641 H 1174.56 2.94987 -0.0816956 0
M  V30 12642 H 1174.64 2.01185 -1.57982 0
M  V30 12643 H 1174.28 4.15808 -2.91662 0
M  V30 12644 H 1174.21 5.07845 -1.39287 0
M  V30 12645 H 1176.71 3.51682 -1.38305 0
M  V30 12646 H 1177.02 6.93942 -3.40094 0
M  V30 12647 H 1175.36 6.24387 -3.05231 0
M  V30 12648 H 1178.55 4.3247 -1.79129 0
M  V30 12649 H 1178.73 5.88553 -2.71126 0
M  V30 12650 N 1172.13 0.454803 1.50895 0
M  V30 12651 C 1173.41 -0.166559 1.9489 0
M  V30 12652 C 1173.79 -1.58492 1.3944 0
M  V30 12653 O 1173.14 -2.20788 0.588622 0
M  V30 12654 C 1173.35 -0.126506 3.48771 0
M  V30 12655 C 1174.7 -0.32347 4.23366 0
M  V30 12656 O 1175.72 -0.203835 3.55616 0
M  V30 12657 O 1174.58 -0.563292 5.43589 0
M  V30 12658 H 1171.67 -0.120523 0.818171 0
M  V30 12659 H 1174.22 0.514037 1.61727 0
M  V30 12660 H 1172.99 0.864407 3.81633 0
M  V30 12661 H 1172.61 -0.849264 3.88424 0
M  V30 12662 N 1173.61 -1.56489 0.186789 0
M  V30 12663 C 1175.02 -1.83809 -0.327265 0
M  V30 12664 C 1175.37 -1.10718 -1.61976 0
M  V30 12665 O 1174.5 -0.36525 -2.13295 0
M  V30 12666 C 1175.09 -3.33435 -0.600551 0
M  V30 12667 C 1173.65 -3.61195 -1.059 0
M  V30 12668 C 1172.8 -2.77108 -0.103131 0
M  V30 12669 H 1175.75 -1.53292 0.410747 0
M  V30 12670 H 1175.77 -3.51754 -1.45084 0
M  V30 12671 H 1175.28 -3.86605 0.340315 0
M  V30 12672 H 1173.38 -3.13451 -2.01443 0
M  V30 12673 H 1173.5 -4.69435 -0.957458 0
M  V30 12674 H 1171.86 -2.47448 -0.603449 0
M  V30 12675 H 1172.64 -3.33065 0.832031 0
M  V30 12676 N 1175.09 0.086862 -1.5736 0
M  V30 12677 C 1176.02 1.13117 -1.99342 0
M  V30 12678 C 1177.03 1.35849 -0.897151 0
M  V30 12679 O 1178.22 1.34356 -1.17519 0
M  V30 12680 C 1175.32 2.48511 -2.30425 0
M  V30 12681 C 1174.5 2.45942 -3.61706 0
M  V30 12682 C 1173.56 3.63327 -3.80631 0
M  V30 12683 O 1172.58 3.45443 -4.52392 0
M  V30 12684 N 1173.78 4.83118 -3.21835 0
M  V30 12685 H 1176.55 0.773782 -2.89539 0
M  V30 12686 H 1174.11 0.275731 -1.59535 0
M  V30 12687 H 1176.1 3.25656 -2.40272 0
M  V30 12688 H 1174.67 2.76308 -1.46194 0
M  V30 12689 H 1173.89 1.54287 -3.62752 0
M  V30 12690 H 1175.18 2.41313 -4.47935 0
M  V30 12691 H 1174.58 5.00552 -2.6356 0
M  V30 12692 H 1173.13 5.57827 -3.37154 0
M  V30 12693 N 1176.57 1.53483 0.357892 0
M  V30 12694 C 1177.48 1.83434 1.4625 0
M  V30 12695 C 1178.49 0.723313 1.58254 0
M  V30 12696 O 1179.67 1.01416 1.74002 0
M  V30 12697 C 1176.73 2.0249 2.81423 0
M  V30 12698 C 1175.8 3.26378 2.78883 0
M  V30 12699 C 1175.03 3.44516 4.07608 0
M  V30 12700 O 1175.25 2.66787 5.04163 0
M  V30 12701 O 1174.19 4.37898 4.12952 0
M  V30 12702 H 1178.01 2.77294 1.23861 0
M  V30 12703 H 1175.6 1.38958 0.548722 0
M  V30 12704 H 1177.48 2.16552 3.61501 0
M  V30 12705 H 1176.15 1.11819 3.03773 0
M  V30 12706 H 1175.06 3.17733 1.97475 0
M  V30 12707 H 1176.39 4.16996 2.61486 0
M  V30 12708 N 1178.05 -0.61812 1.44973 0
M  V30 12709 C 1178.98 -1.74299 1.48837 0
M  V30 12710 C 1179.99 -1.58296 0.38028 0
M  V30 12711 O 1181.18 -1.66371 0.646757 0
M  V30 12712 C 1178.28 -3.12179 1.31901 0
M  V30 12713 C 1177.45 -3.54519 2.56193 0
M  V30 12714 C 1176.51 -4.71324 2.33966 0
M  V30 12715 O 1175.54 -4.78975 3.07525 0
M  V30 12716 N 1176.74 -5.63894 1.37854 0
M  V30 12717 H 1179.5 -1.7145 2.45815 0
M  V30 12718 H 1177.07 -0.803087 1.40578 0
M  V30 12719 H 1179.06 -3.88059 1.14858 0
M  V30 12720 H 1177.63 -3.09595 0.43239 0
M  V30 12721 H 1176.85 -2.68711 2.88423 0
M  V30 12722 H 1178.14 -3.79563 3.38835 0
M  V30 12723 H 1177.53 -5.60418 0.771273 0
M  V30 12724 H 1176.09 -6.3935 1.26787 0
M  V30 12725 N 1179.52 -1.32087 -0.859693 0
M  V30 12726 C 1180.77 -1.22542 -1.6159 0
M  V30 12727 C 1181.1 0.213533 -1.93022 0
M  V30 12728 O 1180.38 1.14931 -1.56911 0
M  V30 12729 C 1180.66 -2.08004 -2.93949 0
M  V30 12730 C 1180.51 -3.60252 -2.6933 0
M  V30 12731 C 1181.83 -1.93732 -3.95166 0
M  V30 12732 H 1178.95 -0.446504 -0.586347 0
M  V30 12733 H 1181.59 -1.61982 -0.993064 0
M  V30 12734 H 1179.74 -1.74498 -3.47106 0
M  V30 12735 H 1181.42 -4.03947 -2.22766 0
M  V30 12736 H 1179.66 -3.83169 -2.03382 0
M  V30 12737 H 1180.33 -4.1537 -3.63555 0
M  V30 12738 H 1182.81 -2.23075 -3.5125 0
M  V30 12739 H 1181.68 -2.55815 -4.85644 0
M  V30 12740 H 1181.94 -0.903528 -4.32769 0
M  V30 12741 N 1181 1.07532 -1.15215 0
M  V30 12742 C 1182.23 1.83817 -0.949687 0
M  V30 12743 C 1182.64 1.82004 0.501991 0
M  V30 12744 O 1182 1.23014 1.34811 0
M  V30 12745 C 1182.05 3.30978 -1.45382 0
M  V30 12746 O 1181.77 3.32844 -2.84863 0
M  V30 12747 C 1183.27 4.24037 -1.29257 0
M  V30 12748 H 1180.49 0.58 -0.337404 0
M  V30 12749 H 1183.04 1.35752 -1.52944 0
M  V30 12750 H 1181.19 3.76399 -0.916638 0
M  V30 12751 H 1181.61 4.24773 -3.07682 0
M  V30 12752 H 1183.08 5.25371 -1.69379 0
M  V30 12753 H 1183.56 4.38563 -0.236519 0
M  V30 12754 H 1184.16 3.8445 -1.81874 0
M  V30 12755 N 1182.48 0.948665 1.2585 0
M  V30 12756 C 1183.89 0.641829 1.75321 0
M  V30 12757 C 1184.24 -0.842903 1.77171 0
M  V30 12758 O 1183.37 -1.65967 1.38867 0
M  V30 12759 C 1183.96 1.15835 3.18383 0
M  V30 12760 C 1182.52 0.901784 3.65438 0
M  V30 12761 C 1181.67 1.30489 2.44679 0
M  V30 12762 H 1184.62 1.12614 1.1182 0
M  V30 12763 H 1184.64 0.515639 3.7699 0
M  V30 12764 H 1184.15 2.23897 3.17004 0
M  V30 12765 H 1182.25 -0.164135 3.72238 0
M  V30 12766 H 1182.37 1.53405 4.53876 0
M  V30 12767 H 1180.73 0.723278 2.44215 0
M  V30 12768 H 1181.51 2.3946 2.45996 0
M  V30 12769 N 1183.96 -1.40369 0.716545 0
M  V30 12770 C 1185.2 -2.01167 0.256846 0
M  V30 12771 C 1185.54 -1.56689 -1.14727 0
M  V30 12772 O 1184.81 -0.787384 -1.7785 0
M  V30 12773 C 1185.1 -3.58511 0.337963 0
M  V30 12774 C 1184.95 -4.13059 1.78052 0
M  V30 12775 C 1186.27 -4.39142 -0.290295 0
M  V30 12776 H 1183.39 -0.730877 0.0948028 0
M  V30 12777 H 1186.03 -1.66833 0.909225 0
M  V30 12778 H 1184.18 -3.87891 -0.217482 0
M  V30 12779 H 1185.85 -3.94472 2.39143 0
M  V30 12780 H 1184.09 -3.67311 2.30793 0
M  V30 12781 H 1184.76 -5.22217 1.78867 0
M  V30 12782 H 1187.24 -4.15697 0.182987 0
M  V30 12783 H 1186.12 -5.48524 -0.203097 0
M  V30 12784 H 1186.38 -4.20209 -1.37394 0
M  V30 12785 N 1185.44 -0.462799 -1.50652 0
M  V30 12786 C 1186.38 0.335664 -2.28346 0
M  V30 12787 C 1187.35 0.994541 -1.33034 0
M  V30 12788 O 1188.54 1.00857 -1.61964 0
M  V30 12789 C 1185.68 1.41648 -3.1469 0
M  V30 12790 C 1184.79 0.773207 -4.25024 0
M  V30 12791 C 1183.93 1.83121 -4.98638 0
M  V30 12792 C 1182.97 1.16774 -6.00858 0
M  V30 12793 N 1182.1 2.16823 -6.67782 0
M  V30 12794 H 1186.94 -0.333202 -2.96131 0
M  V30 12795 H 1184.48 -0.176166 -1.46041 0
M  V30 12796 H 1186.44 2.05468 -3.63096 0
M  V30 12797 H 1185.07 2.05462 -2.48968 0
M  V30 12798 H 1184.12 0.0226444 -3.80393 0
M  V30 12799 H 1185.43 0.249061 -4.98178 0
M  V30 12800 H 1184.59 2.54543 -5.5072 0
M  V30 12801 H 1183.32 2.38915 -4.25172 0
M  V30 12802 H 1182.33 0.439112 -5.48044 0
M  V30 12803 H 1183.55 0.616809 -6.76293 0
M  V30 12804 H 1181.5 2.71649 -5.97112 0
M  V30 12805 H 1181.42 1.69371 -7.36783 0
M  V30 12806 H 1182.69 2.8765 -7.24484 0
M  V30 12807 N 1186.91 1.56388 -0.195085 0
M  V30 12808 C 1188.14 2.0167 0.448637 0
M  V30 12809 C 1188.55 1.07439 1.55736 0
M  V30 12810 O 1187.9 0.071441 1.83561 0
M  V30 12811 C 1187.96 3.43348 1.06547 0
M  V30 12812 C 1187.62 4.569 0.0954901 0
M  V30 12813 C 1188.62 5.15232 -0.695116 0
M  V30 12814 C 1186.3 5.02298 -0.0155889 0
M  V30 12815 C 1188.3 6.1741 -1.58377 0
M  V30 12816 C 1185.98 6.0432 -0.907799 0
M  V30 12817 C 1186.98 6.6175 -1.69045 0
M  V30 12818 O 1186.67 7.6179 -2.56771 0
M  V30 12819 H 1186.4 0.665805 0.116962 0
M  V30 12820 H 1188.96 2.03182 -0.301062 0
M  V30 12821 H 1187.19 3.38823 1.86376 0
M  V30 12822 H 1188.88 3.72438 1.61385 0
M  V30 12823 H 1189.64 4.81026 -0.619604 0
M  V30 12824 H 1185.52 4.57293 0.583424 0
M  V30 12825 H 1189.06 6.62164 -2.1951 0
M  V30 12826 H 1184.96 6.37949 -0.984427 0
M  V30 12827 H 1185.73 7.79209 -2.50551 0
M  V30 12828 N 1188.39 -0.0785156 1.57404 0
M  V30 12829 C 1189.36 -1.07835 2.02248 0
M  V30 12830 C 1190.36 -1.31987 0.918475 0
M  V30 12831 O 1191.55 -1.27821 1.18353 0
M  V30 12832 C 1188.68 -2.42361 2.39737 0
M  V30 12833 H 1189.87 -0.691995 2.91807 0
M  V30 12834 H 1187.42 -0.32405 1.52904 0
M  V30 12835 H 1188.16 -2.85841 1.53183 0
M  V30 12836 H 1187.94 -2.26174 3.20293 0
M  V30 12837 H 1189.43 -3.14241 2.75031 0
M  V30 12838 N 1189.87 -1.5367 -0.349747 0
M  V30 12839 C 1191.29 -1.43796 -0.692457 0
M  V30 12840 C 1191.49 -0.58972 -1.92677 0
M  V30 12841 O 1190.54 -0.078294 -2.52379 0
M  V30 12842 C 1191.86 -2.872 -0.890881 0
M  V30 12843 C 1193.4 -2.96935 -0.989892 0
M  V30 12844 C 1193.88 -4.41433 -1.22068 0
M  V30 12845 N 1195.37 -4.44932 -1.28802 0
M  V30 12846 C 1196.1 -5.53864 -1.48398 0
M  V30 12847 N 1195.6 -6.72814 -1.65208 0
M  V30 12848 N 1197.39 -5.41467 -1.50896 0
M  V30 12849 H 1189.54 -2.07317 0.461895 0
M  V30 12850 H 1191.81 -0.936895 0.144681 0
M  V30 12851 H 1191.51 -3.51656 -0.0555095 0
M  V30 12852 H 1191.39 -3.31784 -1.79442 0
M  V30 12853 H 1193.77 -2.32622 -1.81579 0
M  V30 12854 H 1193.86 -2.55721 -0.0633906 0
M  V30 12855 H 1193.5 -5.06325 -0.399729 0
M  V30 12856 H 1193.43 -4.80233 -2.16064 0
M  V30 12857 H 1195.92 -3.59214 -1.17361 0
M  V30 12858 H 1196.23 -7.51598 -1.79779 0
M  V30 12859 H 1194.58 -6.7577 -1.62356 0
M  V30 12860 H 1197.77 -4.47498 -1.37342 0
M  V30 12861 H 1197.94 -6.26423 -1.65826 0
M  V30 12862 N 1191.35 0.610423 -1.45298 0
M  V30 12863 C 1192.28 1.73207 -1.56594 0
M  V30 12864 C 1193.26 1.64893 -0.417651 0
M  V30 12865 O 1194.44 1.83336 -0.64043 0
M  V30 12866 C 1191.57 3.11803 -1.52959 0
M  V30 12867 C 1190.53 3.34925 -2.66475 0
M  V30 12868 C 1189.85 4.73764 -2.47894 0
M  V30 12869 C 1191.15 3.25456 -4.08504 0
M  V30 12870 H 1192.85 1.6401 -2.50482 0
M  V30 12871 H 1190.39 0.787621 -1.20551 0
M  V30 12872 H 1192.35 3.90065 -1.59458 0
M  V30 12873 H 1191.07 3.21833 -0.55599 0
M  V30 12874 H 1189.73 2.59051 -2.59399 0
M  V30 12875 H 1189.38 4.80524 -1.4868 0
M  V30 12876 H 1189.08 4.90191 -3.24016 0
M  V30 12877 H 1190.6 5.54231 -2.56243 0
M  V30 12878 H 1192.02 3.93597 -4.16839 0
M  V30 12879 H 1190.41 3.53414 -4.84994 0
M  V30 12880 H 1191.48 2.22939 -4.30612 0
M  V30 12881 N 1192.83 1.32541 0.852676 0
M  V30 12882 C 1194.07 1.24406 1.60918 0
M  V30 12883 C 1194.43 -0.19184 1.91441 0
M  V30 12884 O 1193.72 -1.13016 1.54719 0
M  V30 12885 C 1193.91 2.039 2.9353 0
M  V30 12886 C 1193.74 3.55074 2.75957 0
M  V30 12887 C 1192.51 4.24409 2.74236 0
M  V30 12888 C 1194.71 4.49686 2.49574 0
M  V30 12889 N 1192.69 5.61624 2.47895 0
M  V30 12890 C 1194.06 5.74692 2.32658 0
M  V30 12891 C 1196.12 4.38921 2.35058 0
M  V30 12892 C 1194.82 6.90149 2.027 0
M  V30 12893 C 1196.85 5.5418 2.06491 0
M  V30 12894 C 1196.21 6.78186 1.90377 0
M  V30 12895 H 1192.31 0.510401 0.592465 0
M  V30 12896 H 1194.89 1.66929 1.00214 0
M  V30 12897 H 1193.06 1.6372 3.52208 0
M  V30 12898 H 1194.8 1.87644 3.58569 0
M  V30 12899 H 1191.55 3.76546 2.87246 0
M  V30 12900 H 1191.98 6.33918 2.37648 0
M  V30 12901 H 1196.62 3.43697 2.46236 0
M  V30 12902 H 1194.34 7.85383 1.90259 0
M  V30 12903 H 1197.92 5.47779 1.96035 0
M  V30 12904 H 1196.8 7.65864 1.68587 0
M  V30 12905 N 1194.3 -1.0692 1.15784 0
M  V30 12906 C 1195.53 -1.83849 0.959903 0
M  V30 12907 C 1195.95 -1.8169 -0.486873 0
M  V30 12908 O 1195.31 -1.21305 -1.34739 0
M  V30 12909 C 1195.36 -3.28642 1.48414 0
M  V30 12910 O 1194.46 -4.0665 0.686249 0
M  V30 12911 H 1193.81 -0.569115 0.342059 0
M  V30 12912 H 1196.34 -1.34851 1.53871 0
M  V30 12913 H 1196.35 -3.7947 1.49888 0
M  V30 12914 H 1195.02 -3.29529 2.53739 0
M  V30 12915 H 1193.6 -3.65453 0.741501 0
M  V30 12916 N 1195.78 -0.955326 -1.25345 0
M  V30 12917 C 1196.69 -0.482707 -2.2958 0
M  V30 12918 C 1197.71 0.450283 -1.68073 0
M  V30 12919 O 1198.88 0.326358 -1.98738 0
M  V30 12920 C 1195.95 0.231293 -3.45928 0
M  V30 12921 C 1195.01 -0.739995 -4.22874 0
M  V30 12922 C 1194.24 -0.0599748 -5.33666 0
M  V30 12923 O 1194.47 1.15423 -5.586 0
M  V30 12924 O 1193.4 -0.745865 -5.97261 0
M  V30 12925 H 1197.23 -1.34892 -2.72099 0
M  V30 12926 H 1194.81 -0.721812 -1.30806 0
M  V30 12927 H 1196.69 0.632908 -4.1662 0
M  V30 12928 H 1195.37 1.07267 -3.0541 0
M  V30 12929 H 1194.28 -1.19183 -3.54607 0
M  V30 12930 H 1195.61 -1.54941 -4.67177 0
M  V30 12931 N 1197.26 1.39987 -0.723979 0
M  V30 12932 C 1198.51 1.99964 -0.26406 0
M  V30 12933 C 1198.82 1.58084 1.1519 0
M  V30 12934 O 1200.03 2.10819 1.71077 0
M  V30 12935 C 1198.49 3.57427 -0.421174 0
M  V30 12936 C 1198.09 4.08276 -1.84432 0
M  V30 12937 C 1199.84 4.24494 -0.0224734 0
M  V30 12938 C 1197.74 5.58272 -1.95157 0
M  V30 12939 H 1196.67 0.747995 -0.0949728 0
M  V30 12940 H 1199.33 1.60122 -0.896276 0
M  V30 12941 H 1197.71 3.95011 0.279762 0
M  V30 12942 H 1198.88 3.82051 -2.57631 0
M  V30 12943 H 1197.2 3.53834 -2.19523 0
M  V30 12944 H 1199.79 5.34637 -0.0817744 0
M  V30 12945 H 1200.14 4.03593 1.02069 0
M  V30 12946 H 1200.67 3.92046 -0.67416 0
M  V30 12947 H 1197.41 5.84038 -2.97623 0
M  V30 12948 H 1196.93 5.86335 -1.2638 0
M  V30 12949 H 1198.61 6.23509 -1.72759 0
M  V30 12950 N 1198.74 0.470782 1.50404 0
M  V30 12951 C 1200.15 0.0155901 1.86693 0
M  V30 12952 C 1200.5 -1.38908 1.38561 0
M  V30 12953 O 1199.63 -2.02971 0.750454 0
M  V30 12954 C 1200.22 0.0215152 3.38793 0
M  V30 12955 C 1198.78 -0.378206 3.74495 0
M  V30 12956 C 1197.93 0.407126 2.74295 0
M  V30 12957 H 1200.88 0.68507 1.43152 0
M  V30 12958 H 1200.9 -0.780717 3.72404 0
M  V30 12959 H 1200.41 1.04397 3.73795 0
M  V30 12960 H 1198.51 -1.40503 3.45094 0
M  V30 12961 H 1198.63 -0.0797643 4.79034 0
M  V30 12962 H 1196.99 -0.139123 2.5432 0
M  V30 12963 H 1197.77 1.42909 3.12141 0
M  V30 12964 N 1200.22 -1.56282 0.203376 0
M  V30 12965 C 1201.44 -2.02643 -0.441658 0
M  V30 12966 C 1201.87 -1.0825 -1.5383 0
M  V30 12967 O 1201.23 -0.0674337 -1.81175 0
M  V30 12968 C 1201.27 -3.47382 -0.967369 0
M  V30 12969 O 1200.38 -3.56115 -2.07981 0
M  V30 12970 H 1199.72 -0.656081 -0.102242 0
M  V30 12971 H 1202.25 -2.02134 0.316684 0
M  V30 12972 H 1202.26 -3.8734 -1.28186 0
M  V30 12973 H 1200.93 -4.15574 -0.164625 0
M  V30 12974 H 1199.51 -3.28035 -1.77334 0
M  V30 12975 N 1201.7 0.070167 -1.57444 0
M  V30 12976 C 1202.61 1.10106 -2.07157 0
M  V30 12977 C 1203.62 1.42293 -1.00143 0
M  V30 12978 O 1204.8 1.52437 -1.31624 0
M  V30 12979 C 1201.86 2.39486 -2.50694 0
M  V30 12980 C 1200.92 2.14255 -3.72012 0
M  V30 12981 C 1200.16 3.37466 -4.13464 0
M  V30 12982 O 1200.38 4.46645 -3.54773 0
M  V30 12983 O 1199.31 3.25583 -5.0624 0
M  V30 12984 H 1203.14 0.70873 -2.95315 0
M  V30 12985 H 1200.72 0.28441 -1.46668 0
M  V30 12986 H 1202.61 3.15625 -2.79212 0
M  V30 12987 H 1201.28 2.78095 -1.65664 0
M  V30 12988 H 1200.19 1.35816 -3.48575 0
M  V30 12989 H 1201.52 1.80525 -4.57899 0
M  V30 12990 N 1203.17 1.53854 0.341593 0
M  V30 12991 C 1204.42 1.7041 1.07905 0
M  V30 12992 C 1204.74 0.475039 1.89744 0
M  V30 12993 O 1205.94 0.521589 2.66443 0
M  V30 12994 C 1204.4 3.01342 1.96776 0
M  V30 12995 C 1204.01 4.31592 1.20135 0
M  V30 12996 C 1205.75 3.27264 2.70367 0
M  V30 12997 C 1203.66 5.53598 2.08047 0
M  V30 12998 H 1202.59 0.635005 0.406553 0
M  V30 12999 H 1205.24 1.80353 0.338409 0
M  V30 13000 H 1203.62 2.85261 2.74667 0
M  V30 13001 H 1204.79 4.58382 0.471404 0
M  V30 13002 H 1203.11 4.12298 0.583039 0
M  V30 13003 H 1205.71 4.15607 3.36415 0
M  V30 13004 H 1206.05 2.44357 3.37039 0
M  V30 13005 H 1206.58 3.4413 1.99548 0
M  V30 13006 H 1203.32 6.39053 1.45914 0
M  V30 13007 H 1202.84 5.31052 2.78825 0
M  V30 13008 H 1204.52 5.89314 2.67055 0
M  V30 13009 N 1204.65 -0.602709 1.4562 0
M  V30 13010 C 1205.61 -1.69508 1.54271 0
M  V30 13011 C 1206.61 -1.55171 0.421727 0
M  V30 13012 O 1207.8 -1.60151 0.685375 0
M  V30 13013 C 1204.94 -3.0881 1.44392 0
M  V30 13014 H 1206.13 -1.63203 2.51605 0
M  V30 13015 H 1203.68 -0.818857 1.33133 0
M  V30 13016 H 1204.42 -3.20689 0.482614 0
M  V30 13017 H 1204.2 -3.20625 2.25704 0
M  V30 13018 H 1205.69 -3.8837 1.53488 0
M  V30 13019 N 1206.13 -1.32992 -0.845635 0
M  V30 13020 C 1207.38 -1.23415 -1.59536 0
M  V30 13021 C 1207.69 0.200278 -1.94572 0
M  V30 13022 O 1208.9 0.417993 -2.68263 0
M  V30 13023 C 1207.35 -2.16207 -2.8772 0
M  V30 13024 C 1206.96 -3.64782 -2.60073 0
M  V30 13025 C 1208.71 -2.15488 -3.65739 0
M  V30 13026 C 1206.61 -4.49508 -3.84313 0
M  V30 13027 H 1205.54 -0.458366 -0.598679 0
M  V30 13028 H 1208.19 -1.58012 -0.932981 0
M  V30 13029 H 1206.58 -1.74535 -3.55462 0
M  V30 13030 H 1207.75 -4.14852 -2.00585 0
M  V30 13031 H 1206.06 -3.67723 -1.95369 0
M  V30 13032 H 1208.66 -2.76021 -4.57948 0
M  V30 13033 H 1209 -1.14818 -4.00153 0
M  V30 13034 H 1209.54 -2.55487 -3.04912 0
M  V30 13035 H 1206.28 -5.51027 -3.55035 0
M  V30 13036 H 1205.8 -4.04185 -4.43165 0
M  V30 13037 H 1207.48 -4.62969 -4.51961 0
M  V30 13038 N 1207.61 1.06304 -1.1635 0
M  V30 13039 C 1208.88 1.75916 -0.855166 0
M  V30 13040 C 1209.26 2.0094 0.647024 0
M  V30 13041 O 1208.61 1.63642 1.59479 0
M  V30 13042 C 1208.82 3.06028 -1.67774 0
M  V30 13043 C 1210.17 3.80184 -1.89065 0
M  V30 13044 O 1211.19 3.15868 -1.64639 0
M  V30 13045 O 1210.05 4.95723 -2.30045 0
M  V30 13046 H 1207.15 0.764432 -0.315551 0
M  V30 13047 H 1209.69 1.12574 -1.26985 0
M  V30 13048 H 1208.47 2.83498 -2.69712 0
M  V30 13049 H 1208.09 3.77104 -1.26009 0
M  V30 13050 N 1209.09 0.96196 1.24836 0
M  V30 13051 C 1210.36 0.537809 1.88061 0
M  V30 13052 C 1210.74 -0.985023 1.8671 0
M  V30 13053 O 1210.09 -1.85394 1.33572 0
M  V30 13054 C 1210.3 1.12279 3.30446 0
M  V30 13055 C 1211.65 1.20414 4.07168 0
M  V30 13056 O 1212.67 1.07488 3.39595 0
M  V30 13057 O 1211.53 1.4078 5.28056 0
M  V30 13058 H 1208.63 0.178491 0.807509 0
M  V30 13059 H 1211.17 1.05586 1.32852 0
M  V30 13060 H 1209.94 2.16578 3.25898 0
M  V30 13061 H 1209.57 0.58843 3.93222 0
M  V30 13062 N 1210.56 -1.39601 0.731392 0
M  V30 13063 C 1211.79 -2.0459 0.287472 0
M  V30 13064 C 1212.2 -1.5525 -1.08139 0
M  V30 13065 O 1211.54 -0.710949 -1.69385 0
M  V30 13066 C 1211.61 -3.58904 0.206948 0
M  V30 13067 C 1211.27 -4.31204 1.51368 0
M  V30 13068 C 1212.27 -4.58088 2.45869 0
M  V30 13069 C 1209.95 -4.69818 1.77698 0
M  V30 13070 C 1211.95 -5.22591 3.64935 0
M  V30 13071 C 1209.63 -5.34049 2.97043 0
M  V30 13072 C 1210.63 -5.60368 3.90483 0
M  V30 13073 O 1210.32 -6.23268 5.07732 0
M  V30 13074 H 1210.05 -0.664515 0.12408 0
M  V30 13075 H 1212.61 -1.79701 0.994814 0
M  V30 13076 H 1210.84 -3.82675 -0.556466 0
M  V30 13077 H 1212.52 -4.05385 -0.204498 0
M  V30 13078 H 1213.29 -4.28706 2.26796 0
M  V30 13079 H 1209.17 -4.48692 1.05815 0
M  V30 13080 H 1212.71 -5.43049 4.37885 0
M  V30 13081 H 1208.61 -5.62852 3.16018 0
M  V30 13082 H 1209.38 -6.41763 5.08019 0
M  V30 13083 N 1212.04 -0.478751 -1.50152 0
M  V30 13084 C 1213.32 0.135533 -1.9513 0
M  V30 13085 C 1213.7 1.56253 -1.41944 0
M  V30 13086 O 1213.05 2.19824 -0.623673 0
M  V30 13087 C 1213.26 0.0710037 -3.48928 0
M  V30 13088 C 1214.61 0.256075 -4.23827 0
M  V30 13089 O 1215.63 0.147234 -3.55896 0
M  V30 13090 O 1214.49 0.476741 -5.44417 0
M  V30 13091 H 1211.58 0.107491 -0.819985 0
M  V30 13092 H 1214.13 -0.539701 -1.60889 0
M  V30 13093 H 1212.9 -0.925012 -3.80209 0
M  V30 13094 H 1212.52 0.787362 -3.89726 0
M  V30 13095 N 1213.52 1.56172 -0.211661 0
M  V30 13096 C 1214.75 2.02874 0.430905 0
M  V30 13097 C 1215.17 1.09064 1.53254 0
M  V30 13098 O 1214.53 0.0770408 1.81136 0
M  V30 13099 C 1214.58 3.4789 0.948933 0
M  V30 13100 O 1213.68 3.57213 2.0609 0
M  V30 13101 H 1213.02 0.656614 0.0987607 0
M  V30 13102 H 1215.55 2.01964 -0.327399 0
M  V30 13103 H 1215.56 3.88015 1.2613 0
M  V30 13104 H 1214.24 4.15656 0.142584 0
M  V30 13105 H 1212.81 3.28971 1.75592 0
M  V30 13106 N 1215 -0.0618163 1.57479 0
M  V30 13107 C 1216.22 -0.775513 1.92355 0
M  V30 13108 C 1216.65 -1.69816 0.808949 0
M  V30 13109 O 1216.01 -1.79736 -0.23761 0
M  V30 13110 C 1216.05 -1.5367 3.26218 0
M  V30 13111 O 1215.16 -2.64802 3.16155 0
M  V30 13112 H 1214.5 -0.210909 0.629614 0
M  V30 13113 H 1217.03 -0.0270752 2.04582 0
M  V30 13114 H 1217.04 -1.91379 3.6033 0
M  V30 13115 H 1215.71 -0.859798 4.06916 0
M  V30 13116 H 1214.29 -2.29876 2.93618 0
M  V30 13117 N 1216.48 -1.54033 -0.333429 0
M  V30 13118 C 1217.72 -1.71426 -1.0704 0
M  V30 13119 C 1218.05 -0.485496 -1.8886 0
M  V30 13120 O 1217.32 0.500555 -1.89397 0
M  V30 13121 H 1215.9 -0.632034 -0.398173 0
M  V30 13122 H 1218.56 -1.91312 -0.372252 0
M  V30 13123 H 1217.65 -2.58958 -1.74205 0
M  V30 13124 N 1217.95 0.594978 -1.45938 0
M  V30 13125 C 1218.92 1.68688 -1.55168 0
M  V30 13126 C 1219.92 1.54945 -0.429951 0
M  V30 13127 O 1221.11 1.59785 -0.693859 0
M  V30 13128 C 1218.24 3.0804 -1.46027 0
M  V30 13129 H 1219.43 1.61866 -2.52467 0
M  V30 13130 H 1216.99 0.811785 -1.33565 0
M  V30 13131 H 1217.72 3.20428 -0.499614 0
M  V30 13132 H 1217.51 3.19423 -2.27401 0
M  V30 13133 H 1219 3.8755 -1.55546 0
M  V30 13134 N 1219.43 1.33438 0.838571 0
M  V30 13135 C 1220.66 1.28097 1.63113 0
M  V30 13136 C 1221.08 -0.145197 1.87539 0
M  V30 13137 O 1220.44 -1.10191 1.43971 0
M  V30 13138 C 1220.49 2.06201 2.95827 0
M  V30 13139 O 1219.59 1.42082 3.87152 0
M  V30 13140 H 1218.93 0.440685 0.496681 0
M  V30 13141 H 1221.46 1.76004 1.04325 0
M  V30 13142 H 1221.47 2.16977 3.45521 0
M  V30 13143 H 1220.15 3.099 2.77371 0
M  V30 13144 H 1218.73 1.39953 3.45641 0
M  V30 13145 N 1220.91 -1.05686 1.16912 0
M  V30 13146 C 1221.86 -2.13312 0.88129 0
M  V30 13147 C 1222.83 -1.65199 -0.172783 0
M  V30 13148 O 1224.01 -1.90765 -0.0366542 0
M  V30 13149 C 1221.15 -3.42829 0.395264 0
M  V30 13150 C 1220.27 -4.04643 1.51288 0
M  V30 13151 C 1219.4 -5.22059 0.981238 0
M  V30 13152 C 1218.44 -5.75869 2.07464 0
M  V30 13153 N 1217.58 -6.84592 1.55813 0
M  V30 13154 H 1222.42 -2.37271 1.80295 0
M  V30 13155 H 1219.95 -1.16407 0.899322 0
M  V30 13156 H 1221.91 -4.17092 0.0950633 0
M  V30 13157 H 1220.54 -3.19068 -0.489445 0
M  V30 13158 H 1219.59 -3.27867 1.92891 0
M  V30 13159 H 1220.91 -4.40626 2.33774 0
M  V30 13160 H 1220.06 -6.03372 0.634586 0
M  V30 13161 H 1218.8 -4.87538 0.125754 0
M  V30 13162 H 1217.8 -4.93188 2.42992 0
M  V30 13163 H 1219.03 -6.12439 2.93419 0
M  V30 13164 H 1216.97 -6.51978 0.725283 0
M  V30 13165 H 1216.89 -7.19551 2.31911 0
M  V30 13166 H 1218.16 -7.6957 1.24025 0
M  V30 13167 N 1222.39 -0.968567 -1.24324 0
M  V30 13168 C 1223.67 -0.547774 -1.87773 0
M  V30 13169 C 1224.05 0.975107 -1.87229 0
M  V30 13170 O 1223.39 1.84683 -1.34553 0
M  V30 13171 C 1223.6 -1.1403 -3.29846 0
M  V30 13172 C 1224.95 -1.22572 -4.06523 0
M  V30 13173 O 1225.98 -1.09287 -3.3902 0
M  V30 13174 O 1224.83 -1.43579 -5.27302 0
M  V30 13175 H 1221.93 -0.182771 -0.806551 0
M  V30 13176 H 1224.47 -1.06289 -1.3229 0
M  V30 13177 H 1223.25 -2.18303 -3.24745 0
M  V30 13178 H 1222.87 -0.609275 -3.92904 0
M  V30 13179 N 1223.87 1.39211 -0.738786 0
M  V30 13180 C 1224.78 2.34374 -0.102958 0
M  V30 13181 C 1225.79 1.58514 0.717596 0
M  V30 13182 O 1226.97 1.90786 0.645186 0
M  V30 13183 C 1224.03 3.37562 0.790733 0
M  V30 13184 C 1223.09 4.29279 -0.0425028 0
M  V30 13185 C 1222.33 5.27539 0.808628 0
M  V30 13186 O 1222.55 5.32396 2.04722 0
M  V30 13187 O 1221.48 6.0144 0.235279 0
M  V30 13188 H 1225.31 2.90412 -0.888498 0
M  V30 13189 H 1222.9 1.40803 -0.499498 0
M  V30 13190 H 1224.78 4.00783 1.30196 0
M  V30 13191 H 1223.45 2.83903 1.55502 0
M  V30 13192 H 1222.36 3.69268 -0.599335 0
M  V30 13193 H 1223.69 4.86154 -0.7691 0
M  V30 13194 N 1225.34 0.486708 1.49896 0
M  V30 13195 C 1226.59 -0.0646197 2.01596 0
M  V30 13196 C 1226.91 -1.39363 1.37249 0
M  V30 13197 O 1228.11 -2.03082 1.80194 0
M  V30 13198 C 1226.57 -0.16565 3.59519 0
M  V30 13199 C 1226.18 1.15586 4.32832 0
M  V30 13200 C 1227.92 -0.668103 4.1921 0
M  V30 13201 C 1225.83 1.01778 5.82576 0
M  V30 13202 H 1224.76 -0.0279241 0.753483 0
M  V30 13203 H 1227.41 0.623969 1.72566 0
M  V30 13204 H 1225.79 -0.918372 3.85204 0
M  V30 13205 H 1226.96 1.92076 4.1886 0
M  V30 13206 H 1225.28 1.59064 3.84822 0
M  V30 13207 H 1227.88 -0.788698 5.28851 0
M  V30 13208 H 1228.22 -1.66339 3.81624 0
M  V30 13209 H 1228.75 0.0276746 3.9779 0
M  V30 13210 H 1225.49 1.9869 6.24662 0
M  V30 13211 H 1225.01 0.293527 5.99081 0
M  V30 13212 H 1226.69 0.690693 6.43303 0
M  V30 13213 N 1226.82 -1.56058 0.219941 0
M  V30 13214 C 1227.77 -2.20218 -0.690846 0
M  V30 13215 C 1228.74 -1.15725 -1.19151 0
M  V30 13216 O 1229.93 -1.44073 -1.2509 0
M  V30 13217 C 1227.07 -2.88477 -1.89408 0
M  V30 13218 C 1226.18 -4.07559 -1.43246 0
M  V30 13219 C 1225.31 -4.63605 -2.59314 0
M  V30 13220 C 1224.35 -5.74993 -2.0988 0
M  V30 13221 N 1223.49 -6.25337 -3.19214 0
M  V30 13222 H 1228.33 -2.97685 -0.136992 0
M  V30 13223 H 1225.87 -1.46994 -0.055865 0
M  V30 13224 H 1227.82 -3.26235 -2.60051 0
M  V30 13225 H 1226.45 -2.1353 -2.42084 0
M  V30 13226 H 1225.51 -3.75297 -0.621013 0
M  V30 13227 H 1226.82 -4.8805 -1.02997 0
M  V30 13228 H 1225.97 -5.03798 -3.38041 0
M  V30 13229 H 1224.71 -3.82274 -3.0285 0
M  V30 13230 H 1223.72 -5.34304 -1.29613 0
M  V30 13231 H 1224.94 -6.58158 -1.67345 0
M  V30 13232 H 1222.89 -5.4692 -3.62236 0
M  V30 13233 H 1222.8 -7.00947 -2.83213 0
M  V30 13234 H 1224.07 -6.70187 -3.98083 0
M  V30 13235 N 1228.3 0.053464 -1.57509 0
M  V30 13236 C 1229.21 1.07902 -2.08313 0
M  V30 13237 C 1230.23 1.41223 -1.01647 0
M  V30 13238 O 1231.4 1.51032 -1.33233 0
M  V30 13239 C 1228.47 2.36813 -2.5322 0
M  V30 13240 C 1227.53 2.10297 -3.74264 0
M  V30 13241 C 1226.76 3.33062 -4.1702 0
M  V30 13242 O 1226.99 4.42857 -3.59491 0
M  V30 13243 O 1225.92 3.20195 -5.09665 0
M  V30 13244 H 1229.75 0.677368 -2.9605 0
M  V30 13245 H 1227.33 0.268838 -1.46961 0
M  V30 13246 H 1229.21 3.12645 -2.82544 0
M  V30 13247 H 1227.89 2.76323 -1.68605 0
M  V30 13248 H 1226.79 1.32111 -3.49996 0
M  V30 13249 H 1228.13 1.75658 -4.59788 0
M  V30 13250 N 1229.78 1.54207 0.325255 0
M  V30 13251 C 1231.2 1.44879 0.669492 0
M  V30 13252 C 1231.4 0.620298 1.91715 0
M  V30 13253 O 1230.45 0.118435 2.52222 0
M  V30 13254 C 1231.76 2.88581 0.845077 0
M  V30 13255 C 1233.31 2.98472 0.942527 0
M  V30 13256 C 1233.79 4.4332 1.15029 0
M  V30 13257 N 1235.28 4.46925 1.21707 0
M  V30 13258 C 1236.01 5.56155 1.39568 0
M  V30 13259 N 1235.51 6.75357 1.54483 0
M  V30 13260 N 1237.3 5.43799 1.42263 0
M  V30 13261 H 1229.45 2.06556 -0.494819 0
M  V30 13262 H 1231.72 0.934474 -0.159568 0
M  V30 13263 H 1231.42 3.517 -0.000442996 0
M  V30 13264 H 1231.3 3.34596 1.74141 0
M  V30 13265 H 1233.68 2.35481 1.77855 0
M  V30 13266 H 1233.76 2.5579 0.0226995 0
M  V30 13267 H 1233.41 5.06896 0.319127 0
M  V30 13268 H 1233.34 4.8361 2.08397 0
M  V30 13269 H 1235.83 3.61036 1.11632 0
M  V30 13270 H 1236.14 7.54363 1.67799 0
M  V30 13271 H 1234.49 6.78268 1.51584 0
M  V30 13272 H 1237.68 4.49627 1.30205 0
M  V30 13273 H 1237.85 6.28982 1.5584 0
M  V30 13274 N 1231.26 -0.58723 1.46251 0
M  V30 13275 C 1232.5 -1.3456 1.51327 0
M  V30 13276 C 1232.83 -1.93815 0.163146 0
M  V30 13277 O 1232.09 -1.76723 -0.840677 0
M  V30 13278 C 1232.39 -2.49776 2.5563 0
M  V30 13279 C 1232.05 -2.08543 3.99776 0
M  V30 13280 C 1230.71 -1.97013 4.39021 0
M  V30 13281 C 1233.07 -1.76669 4.90344 0
M  V30 13282 C 1230.39 -1.5186 5.66706 0
M  V30 13283 C 1232.75 -1.32996 6.18462 0
M  V30 13284 C 1231.41 -1.20039 6.56618 0
M  V30 13285 H 1230.68 -0.492391 0.553744 0
M  V30 13286 H 1233.33 -0.661715 1.79704 0
M  V30 13287 H 1231.63 -3.23592 2.20897 0
M  V30 13288 H 1233.33 -3.07995 2.56788 0
M  V30 13289 H 1229.92 -2.18451 3.68751 0
M  V30 13290 H 1234.1 -1.84465 4.60746 0
M  V30 13291 H 1229.36 -1.40467 5.95045 0
M  V30 13292 H 1233.53 -1.07385 6.88071 0
M  V30 13293 H 1231.16 -0.848268 7.55452 0
M  V30 13294 N 1232.74 -1.33881 -0.831482 0
M  V30 13295 C 1233.7 -1.24654 -1.92339 0
M  V30 13296 C 1234.7 -0.163788 -1.59964 0
M  V30 13297 O 1235.89 -0.415829 -1.69164 0
M  V30 13298 C 1233.02 -0.922537 -3.2818 0
M  V30 13299 H 1234.21 -2.21717 -2.01944 0
M  V30 13300 H 1231.77 -1.18046 -1.02445 0
M  V30 13301 H 1232.5 0.0452872 -3.24268 0
M  V30 13302 H 1232.29 -1.70562 -3.53059 0
M  V30 13303 H 1233.78 -0.88292 -4.0816 0
M  V30 13304 N 1234.21 1.05064 -1.1747 0
M  V30 13305 C 1235.15 2.12842 -0.850344 0
M  V30 13306 C 1236.16 1.62128 0.147796 0
M  V30 13307 O 1237.35 1.78327 -0.0786774 0
M  V30 13308 C 1234.45 3.37995 -0.247486 0
M  V30 13309 C 1233.62 4.17981 -1.28881 0
M  V30 13310 C 1232.68 5.21476 -0.703476 0
M  V30 13311 O 1231.71 5.52327 -1.37561 0
M  V30 13312 N 1232.91 5.78309 0.50387 0
M  V30 13313 H 1235.67 2.41264 -1.77797 0
M  V30 13314 H 1233.23 1.21172 -1.07373 0
M  V30 13315 H 1235.23 4.04394 0.157424 0
M  V30 13316 H 1233.8 3.07097 0.583952 0
M  V30 13317 H 1233.02 3.47054 -1.86942 0
M  V30 13318 H 1234.3 4.6822 -1.99116 0
M  V30 13319 H 1233.7 5.5553 1.06787 0
M  V30 13320 H 1232.26 6.46223 0.850828 0
M  V30 13321 N 1235.69 0.975146 1.23809 0
M  V30 13322 C 1236.92 0.658978 1.96125 0
M  V30 13323 C 1237.33 -0.773044 1.72248 0
M  V30 13324 O 1236.69 -1.51956 1.01072 0
M  V30 13325 C 1236.74 0.933355 3.49243 0
M  V30 13326 O 1236.46 2.30909 3.72307 0
M  V30 13327 C 1237.96 0.632408 4.38766 0
M  V30 13328 H 1235.18 0.245237 0.62458 0
M  V30 13329 H 1237.73 1.3051 1.5744 0
M  V30 13330 H 1235.88 0.333323 3.85963 0
M  V30 13331 H 1236.3 2.39476 4.66638 0
M  V30 13332 H 1237.77 0.874791 5.45024 0
M  V30 13333 H 1238.25 -0.433453 4.37056 0
M  V30 13334 H 1238.85 1.21268 4.07645 0
M  V30 13335 N 1237.17 -1.38817 0.746158 0
M  V30 13336 C 1238.1 -2.28116 0.0620717 0
M  V30 13337 C 1239.08 -1.44984 -0.736097 0
M  V30 13338 O 1240.26 -1.7436 -0.7163 0
M  V30 13339 C 1237.39 -3.25992 -0.919065 0
M  V30 13340 C 1236.44 -4.25992 -0.208033 0
M  V30 13341 S 1237.27 -5.24374 1.08593 0
M  V30 13342 C 1238.43 -6.25807 0.107674 0
M  V30 13343 H 1238.66 -2.85787 0.819331 0
M  V30 13344 H 1236.19 -1.44708 0.538422 0
M  V30 13345 H 1238.15 -3.82899 -1.47982 0
M  V30 13346 H 1236.81 -2.67318 -1.64924 0
M  V30 13347 H 1236 -4.9495 -0.95084 0
M  V30 13348 H 1235.61 -3.72943 0.280998 0
M  V30 13349 H 1237.9 -6.73568 -0.728905 0
M  V30 13350 H 1238.84 -7.03959 0.764698 0
M  V30 13351 H 1239.25 -5.63855 -0.269706 0
M  V30 13352 N 1238.65 -0.49465 -1.49636 0
M  V30 13353 C 1239.56 0.291881 -2.32777 0
M  V30 13354 C 1240.57 0.973468 -1.44221 0
M  V30 13355 O 1241.75 0.956252 -1.77251 0
M  V30 13356 C 1238.81 1.34609 -3.19502 0
M  V30 13357 C 1237.88 0.678611 -4.23903 0
M  V30 13358 C 1237.11 1.68259 -5.06483 0
M  V30 13359 O 1237.33 2.91176 -4.90482 0
M  V30 13360 O 1236.27 1.24141 -5.88959 0
M  V30 13361 H 1240.09 -0.388459 -3.01205 0
M  V30 13362 H 1237.68 -0.256086 -1.47189 0
M  V30 13363 H 1239.56 1.95617 -3.73245 0
M  V30 13364 H 1238.23 2.00947 -2.53775 0
M  V30 13365 H 1237.14 0.0289541 -3.74089 0
M  V30 13366 H 1238.47 0.0577817 -4.92166 0
M  V30 13367 N 1240.13 1.55939 -0.228214 0
M  V30 13368 C 1241.37 1.98476 0.401677 0
M  V30 13369 C 1241.7 1.116 1.59297 0
M  V30 13370 O 1240.96 0.162465 1.95024 0
M  V30 13371 C 1241.25 3.46581 0.872732 0
M  V30 13372 C 1240.92 4.50416 -0.208767 0
M  V30 13373 C 1239.58 4.78534 -0.505847 0
M  V30 13374 C 1241.93 5.12656 -0.939852 0
M  V30 13375 C 1239.26 5.66171 -1.53841 0
M  V30 13376 C 1241.61 6.01412 -1.9618 0
M  V30 13377 C 1240.28 6.2787 -2.26573 0
M  V30 13378 H 1239.55 0.726276 0.146984 0
M  V30 13379 H 1242.2 1.88598 -0.332128 0
M  V30 13380 H 1240.5 3.53696 1.68541 0
M  V30 13381 H 1242.2 3.76869 1.37006 0
M  V30 13382 H 1238.79 4.28587 0.0329308 0
M  V30 13383 H 1242.97 4.90997 -0.723581 0
M  V30 13384 H 1238.23 5.84933 -1.77944 0
M  V30 13385 H 1242.4 6.48688 -2.53332 0
M  V30 13386 H 1240.03 6.95574 -3.06725 0
M  V30 13387 N 1241.6 -0.0451101 1.57535 0
M  V30 13388 C 1242.85 -0.740209 1.88809 0
M  V30 13389 C 1243.18 -1.75854 0.823956 0
M  V30 13390 O 1242.46 -1.93817 -0.16286 0
M  V30 13391 C 1242.74 -1.42424 3.30737 0
M  V30 13392 C 1242.59 -0.42052 4.4783 0
M  V30 13393 C 1243.91 -2.36241 3.7132 0
M  V30 13394 H 1241.03 -0.267628 0.686691 0
M  V30 13395 H 1243.67 -0.00309149 1.9 0
M  V30 13396 H 1241.82 -2.05254 3.29853 0
M  V30 13397 H 1243.5 0.204625 4.60846 0
M  V30 13398 H 1241.74 0.261739 4.3301 0
M  V30 13399 H 1242.41 -0.937298 5.43984 0
M  V30 13400 H 1244.89 -1.83468 3.73468 0
M  V30 13401 H 1243.76 -2.81091 4.71465 0
M  V30 13402 H 1244.02 -3.2222 3.02699 0
M  V30 13403 N 1243.08 -1.54377 -0.317073 0
M  V30 13404 C 1243.99 -1.87247 -1.41335 0
M  V30 13405 C 1245.01 -0.765017 -1.5628 0
M  V30 13406 O 1246.18 -1.05994 -1.71252 0
M  V30 13407 C 1243.25 -2.0988 -2.75955 0
M  V30 13408 C 1242.31 -3.33658 -2.70131 0
M  V30 13409 C 1241.54 -3.55202 -3.9833 0
M  V30 13410 O 1241.77 -2.80061 -4.96913 0
M  V30 13411 O 1240.7 -4.48693 -4.01196 0
M  V30 13412 H 1244.53 -2.80481 -1.16465 0
M  V30 13413 H 1242.11 -1.40364 -0.511687 0
M  V30 13414 H 1243.99 -2.2606 -3.55633 0
M  V30 13415 H 1242.67 -1.19834 -3.00702 0
M  V30 13416 H 1241.58 -3.22857 -1.88981 0
M  V30 13417 H 1242.91 -4.23782 -2.50338 0
M  V30 13418 N 1244.56 0.579466 -1.4656 0
M  V30 13419 C 1245.47 1.71609 -1.59961 0
M  V30 13420 C 1246.49 1.67162 -0.483002 0
M  V30 13421 O 1247.66 1.87012 -0.747561 0
M  V30 13422 C 1244.73 3.08114 -1.58954 0
M  V30 13423 C 1243.79 3.238 -2.81872 0
M  V30 13424 C 1243.02 4.53794 -2.80904 0
M  V30 13425 O 1243.24 5.37884 -1.89835 0
M  V30 13426 O 1242.18 4.72796 -3.72488 0
M  V30 13427 H 1246 1.6325 -2.56092 0
M  V30 13428 H 1243.59 0.746891 -1.2939 0
M  V30 13429 H 1245.47 3.8939 -1.611 0
M  V30 13430 H 1244.15 3.16903 -0.65984 0
M  V30 13431 H 1243.05 2.42006 -2.85279 0
M  V30 13432 H 1244.39 3.19904 -3.74062 0
M  V30 13433 N 1246.04 1.3432 0.824371 0
M  V30 13434 C 1247.27 1.29481 1.60992 0
M  V30 13435 C 1247.68 -0.133581 1.88728 0
M  V30 13436 O 1247.02 -1.09065 1.4782 0
M  V30 13437 C 1247.08 2.01604 2.97651 0
M  V30 13438 C 1246.75 3.50866 2.92817 0
M  V30 13439 C 1247.74 4.458 2.67504 0
M  V30 13440 C 1245.43 3.93258 3.12495 0
M  V30 13441 C 1247.42 5.81101 2.61918 0
M  V30 13442 C 1245.11 5.28659 3.06533 0
M  V30 13443 C 1246.11 6.22392 2.81278 0
M  V30 13444 O 1245.79 7.55311 2.75246 0
M  V30 13445 H 1245.53 0.446931 0.507177 0
M  V30 13446 H 1248.08 1.77484 1.03386 0
M  V30 13447 H 1246.31 1.48212 3.5717 0
M  V30 13448 H 1248 1.90073 3.58646 0
M  V30 13449 H 1248.77 4.1437 2.52037 0
M  V30 13450 H 1244.64 3.20699 3.31169 0
M  V30 13451 H 1248.19 6.54233 2.42125 0
M  V30 13452 H 1244.09 5.59709 3.21553 0
M  V30 13453 H 1244.85 7.6503 2.90984 0
M  V30 13454 N 1247.52 -1.0444 1.18026 0
M  V30 13455 C 1248.45 -2.14297 0.927314 0
M  V30 13456 C 1249.43 -1.69575 -0.13357 0
M  V30 13457 O 1250.61 -1.94191 0.0182439 0
M  V30 13458 C 1247.74 -3.44397 0.448134 0
M  V30 13459 C 1246.7 -4.02723 1.44907 0
M  V30 13460 C 1246.02 -5.28257 0.827555 0
M  V30 13461 C 1247.32 -4.39331 2.82463 0
M  V30 13462 H 1249.02 -2.35715 1.84605 0
M  V30 13463 H 1246.56 -1.13281 0.889012 0
M  V30 13464 H 1248.52 -4.20606 0.258554 0
M  V30 13465 H 1247.24 -3.22654 -0.506159 0
M  V30 13466 H 1245.9 -3.28591 1.62552 0
M  V30 13467 H 1245.55 -5.02822 -0.13381 0
M  V30 13468 H 1245.25 -5.68242 1.49581 0
M  V30 13469 H 1246.77 -6.07147 0.64842 0
M  V30 13470 H 1248.18 -5.06543 2.68491 0
M  V30 13471 H 1246.58 -4.90355 3.45936 0
M  V30 13472 H 1247.65 -3.4933 3.36299 0
M  V30 13473 N 1248.99 -0.981699 -1.2329 0
M  V30 13474 C 1250.41 -0.690539 -1.43888 0
M  V30 13475 C 1250.61 0.742816 -1.87309 0
M  V30 13476 O 1249.67 1.5151 -2.01993 0
M  V30 13477 C 1250.98 -1.68657 -2.48948 0
M  V30 13478 C 1252.53 -1.70076 -2.62761 0
M  V30 13479 C 1253 -2.68513 -3.71032 0
M  V30 13480 N 1254.49 -2.67039 -3.78476 0
M  V30 13481 C 1255.23 -3.39874 -4.61815 0
M  V30 13482 N 1254.72 -4.22273 -5.49233 0
M  V30 13483 N 1256.52 -3.28633 -4.56023 0
M  V30 13484 H 1248.67 -1.90758 -0.934077 0
M  V30 13485 H 1250.93 -0.822058 -0.472149 0
M  V30 13486 H 1250.64 -2.7117 -2.23964 0
M  V30 13487 H 1250.51 -1.47045 -3.47358 0
M  V30 13488 H 1252.9 -0.682673 -2.87095 0
M  V30 13489 H 1252.98 -1.95754 -1.64663 0
M  V30 13490 H 1252.62 -3.70464 -3.47446 0
M  V30 13491 H 1252.55 -2.40109 -4.68674 0
M  V30 13492 H 1255.04 -2.07241 -3.16006 0
M  V30 13493 H 1255.36 -4.74702 -6.09818 0
M  V30 13494 H 1253.7 -4.26364 -5.48852 0
M  V30 13495 H 1256.89 -2.6371 -3.86749 0
M  V30 13496 H 1257.07 -3.85656 -5.20743 0
M  V30 13497 N 1250.47 1.3842 -0.753509 0
M  V30 13498 C 1251.75 1.94181 -0.235142 0
M  V30 13499 C 1252.13 1.68881 1.26659 0
M  V30 13500 O 1251.48 1.02731 2.04104 0
M  V30 13501 C 1251.69 3.43998 -0.588751 0
M  V30 13502 C 1253.04 4.21044 -0.548352 0
M  V30 13503 O 1254.06 3.52279 -0.52704 0
M  V30 13504 O 1252.92 5.43631 -0.559221 0
M  V30 13505 H 1250.01 0.825536 -0.0491834 0
M  V30 13506 H 1252.56 1.47813 -0.833626 0
M  V30 13507 H 1251.33 3.55921 -1.6259 0
M  V30 13508 H 1250.95 3.97582 0.0377429 0
M  V30 13509 N 1251.95 0.502579 1.49372 0
M  V30 13510 C 1253.2 -0.0414423 2.02758 0
M  V30 13511 C 1253.53 -1.36499 1.38136 0
M  V30 13512 O 1252.8 -1.87487 0.517593 0
M  V30 13513 C 1253.09 -0.192333 3.59586 0
M  V30 13514 C 1252.94 1.15445 4.34733 0
M  V30 13515 C 1254.26 -0.932218 4.30114 0
M  V30 13516 H 1251.38 -0.0135869 0.736875 0
M  V30 13517 H 1254.02 0.654296 1.78379 0
M  V30 13518 H 1252.17 -0.78491 3.80488 0
M  V30 13519 H 1253.84 1.78603 4.25322 0
M  V30 13520 H 1252.09 1.74333 3.97228 0
M  V30 13521 H 1252.76 1.00216 5.42827 0
M  V30 13522 H 1255.23 -0.429632 4.13876 0
M  V30 13523 H 1254.11 -1.00664 5.39591 0
M  V30 13524 H 1254.37 -1.9763 3.95468 0
M  V30 13525 N 1253.43 -1.55816 0.23648 0
M  V30 13526 C 1254.67 -1.98981 -0.391725 0
M  V30 13527 C 1255.01 -1.12428 -1.58346 0
M  V30 13528 O 1254.28 -0.185303 -1.93615 0
M  V30 13529 C 1254.57 -3.50831 -0.811759 0
M  V30 13530 C 1254.42 -4.48152 0.384648 0
M  V30 13531 C 1255.74 -4.07489 -1.66254 0
M  V30 13532 H 1252.86 -0.723404 -0.140911 0
M  V30 13533 H 1255.5 -1.87011 0.335706 0
M  V30 13534 H 1253.65 -3.61162 -1.43157 0
M  V30 13535 H 1255.32 -4.49814 1.02298 0
M  V30 13536 H 1253.56 -4.21406 1.02955 0
M  V30 13537 H 1254.23 -5.51979 0.0475809 0
M  V30 13538 H 1256.71 -4.00195 -1.13944 0
M  V30 13539 H 1255.59 -5.14026 -1.92531 0
M  V30 13540 H 1255.85 -3.55297 -2.6309 0
M  V30 13541 N 1254.91 0.036755 -1.57557 0
M  V30 13542 C 1256.15 0.734039 -1.90765 0
M  V30 13543 C 1256.51 1.7293 -0.834222 0
M  V30 13544 O 1257.71 2.47427 -1.0504 0
M  V30 13545 C 1255.98 1.39285 -3.29142 0
M  V30 13546 S 1257.54 2.12035 -3.8417 0
M  V30 13547 H 1254.36 0.243349 -0.668059 0
M  V30 13548 H 1256.96 -0.0110968 -1.95497 0
M  V30 13549 H 1255.67 0.655154 -4.05137 0
M  V30 13550 H 1255.2 2.17669 -3.27694 0
M  V30 13551 H 1257.21 3.39072 -3.62277 0
M  V30 13552 N 1256.39 1.54543 0.308881 0
M  V30 13553 C 1257.32 1.81309 1.40212 0
M  V30 13554 C 1258.33 0.69568 1.47187 0
M  V30 13555 O 1259.52 0.973034 1.49647 0
M  V30 13556 C 1256.62 1.92901 2.78644 0
M  V30 13557 C 1255.79 3.23222 2.94697 0
M  V30 13558 C 1254.85 3.25329 4.13579 0
M  V30 13559 O 1253.88 3.989 4.06039 0
M  V30 13560 N 1255.08 2.50158 5.23833 0
M  V30 13561 H 1257.84 2.75659 1.1761 0
M  V30 13562 H 1255.41 1.54021 0.498925 0
M  V30 13563 H 1257.4 1.91721 3.56406 0
M  V30 13564 H 1255.97 1.05582 2.9423 0
M  V30 13565 H 1255.19 3.37241 2.04113 0
M  V30 13566 H 1256.48 4.09238 3.02328 0
M  V30 13567 H 1255.87 1.90002 5.32838 0
M  V30 13568 H 1254.43 2.5474 5.99959 0
M  V30 13569 N 1257.86 -0.571685 1.46866 0
M  V30 13570 C 1259.28 -0.896172 1.32064 0
M  V30 13571 C 1259.48 -1.9925 0.300291 0
M  V30 13572 O 1258.54 -2.50791 -0.293284 0
M  V30 13573 C 1259.85 -1.3031 2.70998 0
M  V30 13574 C 1261.4 -1.41533 2.79173 0
M  V30 13575 C 1261.87 -1.85587 4.18714 0
M  V30 13576 N 1263.36 -1.92762 4.21185 0
M  V30 13577 C 1264.1 -2.28148 5.26057 0
M  V30 13578 N 1263.59 -2.62248 6.41247 0
M  V30 13579 N 1265.39 -2.28797 5.13428 0
M  V30 13580 H 1257.54 0.152349 2.11853 0
M  V30 13581 H 1259.8 0.00548777 0.947984 0
M  V30 13582 H 1259.51 -0.571469 3.47026 0
M  V30 13583 H 1259.38 -2.26233 3.01826 0
M  V30 13584 H 1261.77 -2.1378 2.03426 0
M  V30 13585 H 1261.85 -0.438342 2.52016 0
M  V30 13586 H 1261.49 -1.13915 4.9496 0
M  V30 13587 H 1261.42 -2.84264 4.43285 0
M  V30 13588 H 1263.91 -1.68854 3.38078 0
M  V30 13589 H 1264.23 -2.88234 7.17036 0
M  V30 13590 H 1262.57 -2.59861 6.44591 0
M  V30 13591 H 1265.76 -2.01587 4.22469 0
M  V30 13592 H 1265.94 -2.56045 5.95269 0
M  V30 13593 N 1259.34 -1.34755 -0.817236 0
M  V30 13594 C 1260.59 -1.27432 -1.57377 0
M  V30 13595 C 1260.92 0.15419 -1.93888 0
M  V30 13596 O 1260.17 1.11686 -1.60701 0
M  V30 13597 C 1260.47 -2.11611 -2.8802 0
M  V30 13598 C 1260.14 -3.60543 -2.70776 0
M  V30 13599 C 1258.8 -4.01141 -2.6578 0
M  V30 13600 C 1261.15 -4.55089 -2.54053 0
M  V30 13601 C 1258.48 -5.34469 -2.41991 0
M  V30 13602 C 1260.83 -5.88603 -2.31795 0
M  V30 13603 C 1259.49 -6.28358 -2.25215 0
M  V30 13604 H 1258.76 -0.466305 -0.575882 0
M  V30 13605 H 1261.41 -1.66552 -0.945128 0
M  V30 13606 H 1259.72 -1.65336 -3.55206 0
M  V30 13607 H 1261.41 -2.03287 -3.45652 0
M  V30 13608 H 1258 -3.2832 -2.75506 0
M  V30 13609 H 1262.19 -4.24617 -2.56932 0
M  V30 13610 H 1257.44 -5.64284 -2.35359 0
M  V30 13611 H 1261.62 -6.61451 -2.17844 0
M  V30 13612 H 1259.24 -7.31604 -2.06543 0
M  V30 13613 N 1260.82 1.03812 -1.18578 0
M  V30 13614 C 1262.23 1.58509 -0.986496 0
M  V30 13615 C 1262.58 1.90655 0.463136 0
M  V30 13616 O 1261.71 1.69847 1.34093 0
M  V30 13617 C 1262.3 2.88 -1.78441 0
M  V30 13618 C 1260.86 3.39304 -1.6294 0
M  V30 13619 C 1260.01 2.12857 -1.77727 0
M  V30 13620 H 1262.96 0.864528 -1.33085 0
M  V30 13621 H 1262.98 3.58502 -1.27501 0
M  V30 13622 H 1262.49 2.64572 -2.83942 0
M  V30 13623 H 1260.59 3.6774 -0.599864 0
M  V30 13624 H 1260.71 4.12959 -2.42902 0
M  V30 13625 H 1259.07 2.24285 -1.20699 0
M  V30 13626 H 1259.85 1.91882 -2.84669 0
M  V30 13627 N 1262.3 0.988223 1.22768 0
M  V30 13628 C 1263.54 0.661461 1.91392 0
M  V30 13629 C 1263.87 -0.805942 1.77016 0
M  V30 13630 O 1263.13 -1.5978 1.12999 0
M  V30 13631 C 1263.43 1.00744 3.42907 0
M  V30 13632 C 1263.09 2.46634 3.77469 0
M  V30 13633 C 1261.75 2.86503 3.86613 0
M  V30 13634 C 1264.11 3.41217 3.9398 0
M  V30 13635 C 1261.43 4.19954 4.09702 0
M  V30 13636 C 1263.79 4.74321 4.18572 0
M  V30 13637 C 1262.45 5.13938 4.25939 0
M  V30 13638 H 1261.72 0.242046 0.700353 0
M  V30 13639 H 1264.37 1.24354 1.45631 0
M  V30 13640 H 1262.67 0.34338 3.90292 0
M  V30 13641 H 1264.37 0.732714 3.94249 0
M  V30 13642 H 1260.96 2.14729 3.70931 0
M  V30 13643 H 1265.14 3.11589 3.86298 0
M  V30 13644 H 1260.4 4.50243 4.13631 0
M  V30 13645 H 1264.57 5.47561 4.30291 0
M  V30 13646 H 1262.2 6.17364 4.43583 0
M  V30 13647 N 1263.78 -1.38018 0.760839 0
M  V30 13648 C 1265 -2.04757 0.330038 0
M  V30 13649 C 1265.43 -1.57009 -1.03585 0
M  V30 13650 O 1264.78 -0.725349 -1.66158 0
M  V30 13651 C 1264.83 -3.58696 0.370082 0
M  V30 13652 O 1263.94 -4.07507 -0.633361 0
M  V30 13653 H 1263.28 -0.648023 0.144782 0
M  V30 13654 H 1265.81 -1.7655 1.03399 0
M  V30 13655 H 1265.82 -4.07387 0.223515 0
M  V30 13656 H 1264.49 -3.92806 1.36661 0
M  V30 13657 H 1263.07 -3.70165 -0.45081 0
M  V30 13658 N 1265.25 -0.510493 -1.49103 0
M  V30 13659 C 1266.53 0.0941122 -1.95373 0
M  V30 13660 C 1266.91 1.53207 -1.45227 0
M  V30 13661 O 1266.26 2.18452 -0.670161 0
M  V30 13662 C 1266.47 -0.00302507 -3.49 0
M  V30 13663 C 1267.82 0.166117 -4.24275 0
M  V30 13664 O 1268.84 0.0717097 -3.56128 0
M  V30 13665 O 1267.7 0.361155 -5.45305 0
M  V30 13666 H 1264.79 0.0900741 -0.82208 0
M  V30 13667 H 1267.34 -0.573707 -1.59708 0
M  V30 13668 H 1266.11 -1.00545 -3.78162 0
M  V30 13669 H 1265.73 0.704518 -3.91308 0
M  V30 13670 N 1266.73 1.55688 -0.24474 0
M  V30 13671 C 1267.68 2.21289 0.655723 0
M  V30 13672 C 1268.65 1.17606 1.17295 0
M  V30 13673 O 1269.83 1.46045 1.22782 0
M  V30 13674 C 1266.97 2.91453 1.84794 0
M  V30 13675 C 1266.09 4.09787 1.36744 0
M  V30 13676 C 1265.22 4.67672 2.51905 0
M  V30 13677 C 1264.26 5.78259 2.00706 0
M  V30 13678 N 1263.4 6.30336 3.09225 0
M  V30 13679 H 1268.24 2.97865 0.0896156 0
M  V30 13680 H 1265.77 1.47064 0.0324725 0
M  V30 13681 H 1267.73 3.30331 2.54828 0
M  V30 13682 H 1266.36 2.17355 2.38656 0
M  V30 13683 H 1265.41 3.76237 0.561228 0
M  V30 13684 H 1266.73 4.89627 0.952199 0
M  V30 13685 H 1265.88 5.09113 3.29984 0
M  V30 13686 H 1264.62 3.87044 2.9673 0
M  V30 13687 H 1263.62 5.36298 1.21097 0
M  V30 13688 H 1264.85 6.60737 1.56853 0
M  V30 13689 H 1262.8 5.52614 3.53489 0
M  V30 13690 H 1262.71 7.05364 2.72025 0
M  V30 13691 H 1263.98 6.76435 3.8737 0
M  V30 13692 N 1268.21 -0.0283989 1.57574 0
M  V30 13693 C 1269.12 -1.04575 2.10003 0
M  V30 13694 C 1270.14 -1.39588 1.03881 0
M  V30 13695 O 1271.31 -1.48894 1.35619 0
M  V30 13696 C 1268.38 -2.32755 2.56955 0
M  V30 13697 C 1267.44 -2.04317 3.77562 0
M  V30 13698 C 1266.67 -3.26385 4.22266 0
M  V30 13699 O 1266.89 -4.37082 3.66491 0
M  V30 13700 O 1265.83 -3.12046 5.14695 0
M  V30 13701 H 1269.65 -0.630183 2.9709 0
M  V30 13702 H 1267.24 -0.245423 1.4737 0
M  V30 13703 H 1269.12 -3.08111 2.87482 0
M  V30 13704 H 1267.8 -2.73605 1.72979 0
M  V30 13705 H 1266.7 -1.26527 3.52054 0
M  V30 13706 H 1268.04 -1.68321 4.62524 0
M  V30 13707 N 1269.69 -1.54705 -0.300681 0
M  V30 13708 C 1270.63 -1.85678 -1.37084 0
M  V30 13709 C 1271.6 -0.70573 -1.50362 0
M  V30 13710 O 1272.79 -0.954385 -1.65215 0
M  V30 13711 C 1269.93 -2.10995 -2.73084 0
M  V30 13712 C 1269.04 -3.38621 -2.68254 0
M  V30 13713 C 1268.18 -3.53779 -3.9625 0
M  V30 13714 C 1267.22 -4.75195 -3.85818 0
M  V30 13715 N 1266.35 -4.87157 -5.05591 0
M  V30 13716 H 1271.19 -2.76967 -1.09971 0
M  V30 13717 H 1268.73 -1.37147 -0.531887 0
M  V30 13718 H 1270.69 -2.23669 -3.52176 0
M  V30 13719 H 1269.32 -1.22973 -2.98458 0
M  V30 13720 H 1268.37 -3.34566 -1.81025 0
M  V30 13721 H 1269.68 -4.27834 -2.56436 0
M  V30 13722 H 1268.84 -3.66119 -4.83779 0
M  V30 13723 H 1267.58 -2.62699 -4.10902 0
M  V30 13724 H 1266.58 -4.62888 -2.96673 0
M  V30 13725 H 1267.81 -5.67683 -3.72711 0
M  V30 13726 H 1265.75 -3.99001 -5.20706 0
M  V30 13727 H 1265.67 -5.70372 -4.96197 0
M  V30 13728 H 1266.94 -5.03854 -5.9477 0
M  V30 13729 N 1271.17 0.563888 -1.47167 0
M  V30 13730 C 1272.11 1.69254 -1.59549 0
M  V30 13731 C 1273.11 1.62948 -0.463078 0
M  V30 13732 O 1274.31 1.68214 -0.640639 0
M  V30 13733 H 1270.69 0.559925 -0.501984 0
M  V30 13734 H 1272.66 1.55946 -2.54408 0
M  V30 13735 C 1271.41 3.0762 -1.62066 0
M  V30 13736 H 1270.73 3.13151 -2.48549 0
M  V30 13737 H 1272.17 3.863 -1.74781 0
M  V30 13738 C 1270.63 3.35048 -0.352721 0
M  V30 13739 O 1271.16 3.9793 0.549053 0
M  V30 13740 N 1269.37 2.8965 -0.234805 0
M  V30 13741 H 1268.91 2.38657 -0.969561 0
M  V30 13742 H 1268.87 3.08373 0.61263 0
M  V30 13743 N 1272.64 1.35187 0.810078 0
M  V30 13744 C 1273.59 1.27822 1.92173 0
M  V30 13745 C 1274.56 0.150851 1.65414 0
M  V30 13746 O 1275.75 0.333973 1.87854 0
M  V30 13747 C 1272.89 1.05258 3.28656 0
M  V30 13748 C 1272 2.26884 3.67624 0
M  V30 13749 C 1271.13 1.97499 4.9312 0
M  V30 13750 C 1270.17 3.15198 5.24706 0
M  V30 13751 N 1269.31 2.85612 6.41381 0
M  V30 13752 H 1274.15 2.22884 1.97804 0
M  V30 13753 H 1271.69 1.10799 0.967577 0
M  V30 13754 H 1273.65 0.902084 4.07331 0
M  V30 13755 H 1272.28 0.138583 3.22502 0
M  V30 13756 H 1271.33 2.5281 2.84238 0
M  V30 13757 H 1272.64 3.14783 3.86928 0
M  V30 13758 H 1271.79 1.7926 5.79613 0
M  V30 13759 H 1270.53 1.0688 4.75844 0
M  V30 13760 H 1269.54 3.34019 4.36705 0
M  V30 13761 H 1270.76 4.06614 5.43913 0
M  V30 13762 H 1268.71 1.97583 6.25537 0
M  V30 13763 H 1268.63 3.67044 6.60919 0
M  V30 13764 H 1269.89 2.70906 7.3091 0
M  V30 13765 N 1274.12 -1.03182 1.19127 0
M  V30 13766 C 1275.05 -2.13301 0.94999 0
M  V30 13767 C 1276.03 -1.69707 -0.115577 0
M  V30 13768 O 1277.22 -1.94161 0.0388395 0
M  V30 13769 C 1274.35 -3.43902 0.484637 0
M  V30 13770 C 1273.3 -4.01164 1.4917 0
M  V30 13771 C 1272.63 -5.2735 0.883537 0
M  V30 13772 C 1273.93 -4.36311 2.87107 0
M  V30 13773 H 1275.62 -2.33743 1.87095 0
M  V30 13774 H 1273.17 -1.12332 0.900977 0
M  V30 13775 H 1275.12 -4.20308 0.30315 0
M  V30 13776 H 1273.85 -3.23173 -0.471909 0
M  V30 13777 H 1272.5 -3.26849 1.66028 0
M  V30 13778 H 1272.15 -5.02936 -0.0804712 0
M  V30 13779 H 1271.85 -5.66624 1.55599 0
M  V30 13780 H 1273.38 -6.06425 0.71278 0
M  V30 13781 H 1274.79 -5.03666 2.73848 0
M  V30 13782 H 1273.19 -4.86659 3.51117 0
M  V30 13783 H 1274.26 -3.45743 3.39985 0
M  V30 13784 N 1275.6 -0.99472 -1.22242 0
M  V30 13785 C 1276.83 -0.690097 -1.95052 0
M  V30 13786 C 1277.24 0.745543 -1.73456 0
M  V30 13787 O 1276.6 1.50329 -1.03477 0
M  V30 13788 C 1276.65 -0.988798 -3.47714 0
M  V30 13789 O 1276.37 -2.36803 -3.68587 0
M  V30 13790 C 1277.87 -0.702132 -4.37704 0
M  V30 13791 H 1275.09 -0.255142 -0.620599 0
M  V30 13792 H 1277.64 -1.32998 -1.55344 0
M  V30 13793 H 1275.79 -0.394684 -3.85384 0
M  V30 13794 H 1276.21 -2.4687 -4.62769 0
M  V30 13795 H 1277.68 -0.961389 -5.43564 0
M  V30 13796 H 1278.16 0.363866 -4.3769 0
M  V30 13797 H 1278.76 -1.27738 -4.05664 0
M  V30 13798 N 1277.08 1.37613 -0.768148 0
M  V30 13799 C 1278.33 1.99779 -0.330841 0
M  V30 13800 C 1278.65 1.60978 1.09162 0
M  V30 13801 O 1277.91 0.845778 1.7648 0
M  V30 13802 C 1278.21 3.54952 -0.417608 0
M  V30 13803 C 1277.87 4.13509 -1.7978 0
M  V30 13804 C 1276.54 4.29216 -2.17549 0
M  V30 13805 C 1278.89 4.45662 -2.7025 0
M  V30 13806 C 1276.22 4.74376 -3.45231 0
M  V30 13807 C 1278.57 4.92245 -3.97338 0
M  V30 13808 C 1277.23 5.06157 -4.35157 0
M  V30 13809 H 1276.5 0.731044 -0.121063 0
M  V30 13810 H 1279.15 1.64437 -0.98147 0
M  V30 13811 H 1277.45 3.90519 0.316567 0
M  V30 13812 H 1279.15 4.00954 -0.0606037 0
M  V30 13813 H 1275.74 4.01709 -1.49425 0
M  V30 13814 H 1279.92 4.33116 -2.42332 0
M  V30 13815 H 1275.18 4.83333 -3.74431 0
M  V30 13816 H 1279.35 5.16091 -4.67572 0
M  V30 13817 H 1276.98 5.4091 -5.34154 0
M  V30 13818 N 1278.56 0.518393 1.4883 0
M  V30 13819 C 1279.47 -0.254811 2.33212 0
M  V30 13820 C 1280.48 -0.950401 1.45751 0
M  V30 13821 O 1281.66 -0.927932 1.78749 0
M  V30 13822 C 1278.72 -1.29509 3.21603 0
M  V30 13823 C 1277.78 -0.611086 4.24928 0
M  V30 13824 C 1277.02 -1.6018 5.09095 0
M  V30 13825 O 1277.24 -2.83336 4.95052 0
M  V30 13826 O 1276.17 -1.14756 5.90859 0
M  V30 13827 H 1280 0.436329 3.00549 0
M  V30 13828 H 1277.59 0.27947 1.46763 0
M  V30 13829 H 1279.47 -1.89654 3.7631 0
M  V30 13830 H 1278.14 -1.96884 2.5694 0
M  V30 13831 H 1277.05 0.0305638 3.74088 0
M  V30 13832 H 1278.38 0.0205249 4.92196 0
M  V30 13833 N 1280.03 -1.55556 0.252993 0
M  V30 13834 C 1281.28 -1.99385 -0.370599 0
M  V30 13835 C 1281.61 -1.14101 -1.57145 0
M  V30 13836 O 1280.89 -0.205828 -1.93408 0
M  V30 13837 C 1281.17 -3.51672 -0.774503 0
M  V30 13838 C 1281.02 -4.47719 0.432159 0
M  V30 13839 C 1282.34 -4.0923 -1.61923 0
M  V30 13840 H 1279.46 -0.724858 -0.133231 0
M  V30 13841 H 1282.1 -1.86644 0.355522 0
M  V30 13842 H 1280.25 -3.62661 -1.39318 0
M  V30 13843 H 1281.93 -4.48704 1.07063 0
M  V30 13844 H 1280.17 -4.2029 1.07419 0
M  V30 13845 H 1280.84 -5.51898 0.106123 0
M  V30 13846 H 1283.32 -4.01381 -1.09693 0
M  V30 13847 H 1282.19 -5.16039 -1.87068 0
M  V30 13848 H 1282.45 -3.58067 -2.59307 0
M  V30 13849 N 1281.51 0.0200419 -1.57587 0
M  V30 13850 C 1282.76 0.710078 -1.89962 0
M  V30 13851 C 1283.09 1.74521 -0.851829 0
M  V30 13852 O 1282.37 1.94052 0.132005 0
M  V30 13853 C 1282.65 1.37145 -3.32961 0
M  V30 13854 C 1282.5 0.349221 -4.48442 0
M  V30 13855 C 1283.82 2.30304 -3.75031 0
M  V30 13856 H 1280.94 0.25667 -0.690862 0
M  V30 13857 H 1283.58 -0.0271362 -1.89981 0
M  V30 13858 H 1281.73 1.99981 -3.33076 0
M  V30 13859 H 1283.4 -0.277916 -4.60462 0
M  V30 13860 H 1281.65 -0.330594 -4.32538 0
M  V30 13861 H 1282.32 0.850636 -5.45406 0
M  V30 13862 H 1284.79 1.77503 -3.7634 0
M  V30 13863 H 1283.67 2.73555 -4.75877 0
M  V30 13864 H 1283.93 3.17364 -3.07786 0
M  V30 13865 N 1282.99 1.54862 0.292472 0
M  V30 13866 C 1283.94 1.87168 1.38097 0
M  V30 13867 C 1284.93 0.746176 1.52081 0
M  V30 13868 O 1286.14 0.930281 1.54097 0
M  V30 13869 H 1282.51 0.593769 0.461456 0
M  V30 13870 H 1284.48 2.78135 1.0809 0
M  V30 13871 C 1283.23 2.14315 2.73796 0
M  V30 13872 H 1282.56 3.00398 2.63821 0
M  V30 13873 H 1284 2.40853 3.48949 0
M  V30 13874 C 1282.46 0.944424 3.23392 0
M  V30 13875 O 1282.99 0.169208 4.01343 0
M  V30 13876 N 1281.19 0.747456 2.80823 0
M  V30 13877 H 1280.74 1.37953 2.17547 0
M  V30 13878 H 1280.7 -0.0530199 3.14355 0
M  V30 13879 N 1284.47 -0.556076 1.47464 0
M  V30 13880 C 1285.4 -1.67275 1.62915 0
M  V30 13881 C 1286.38 -1.63229 0.478562 0
M  V30 13882 O 1287.56 -1.80833 0.708032 0
M  V30 13883 C 1284.69 -3.05911 1.64426 0
M  V30 13884 C 1283.65 -3.24804 2.78722 0
M  V30 13885 C 1282.97 -4.64238 2.65307 0
M  V30 13886 C 1284.27 -3.10071 4.20302 0
M  V30 13887 H 1285.97 -1.54601 2.56396 0
M  V30 13888 H 1283.51 -0.742337 1.23391 0
M  V30 13889 H 1285.47 -3.83878 1.73826 0
M  V30 13890 H 1284.19 -3.19547 0.675053 0
M  V30 13891 H 1282.85 -2.49246 2.68835 0
M  V30 13892 H 1282.5 -4.74675 1.66412 0
M  V30 13893 H 1282.2 -4.77828 3.41986 0
M  V30 13894 H 1283.72 -5.44339 2.76637 0
M  V30 13895 H 1285.14 -3.77855 4.3116 0
M  V30 13896 H 1283.53 -3.3517 4.97776 0
M  V30 13897 H 1284.6 -2.06803 4.38589 0
M  V30 13898 N 1285.95 -1.35615 -0.802897 0
M  V30 13899 C 1286.91 -1.28705 -1.89651 0
M  V30 13900 C 1287.91 -0.197681 -1.5958 0
M  V30 13901 O 1289.1 -0.451618 -1.68244 0
M  V30 13902 C 1286.23 -0.991941 -3.26149 0
M  V30 13903 H 1287.43 -2.25951 -1.97196 0
M  V30 13904 H 1284.98 -1.20192 -0.999179 0
M  V30 13905 H 1285.71 -0.0235051 -3.24291 0
M  V30 13906 H 1285.5 -1.78013 -3.49362 0
M  V30 13907 H 1286.99 -0.969298 -4.06195 0
M  V30 13908 N 1287.43 1.02549 -1.19673 0
M  V30 13909 C 1288.84 1.28271 -0.94967 0
M  V30 13910 C 1289.04 1.97961 0.37599 0
M  V30 13911 O 1288.1 2.26955 1.10668 0
M  V30 13912 C 1289.41 2.12647 -2.12607 0
M  V30 13913 C 1290.96 2.25943 -2.16607 0
M  V30 13914 C 1291.43 3.13693 -3.33708 0
M  V30 13915 N 1292.92 3.21281 -3.33665 0
M  V30 13916 C 1293.66 3.89377 -4.20919 0
M  V30 13917 N 1293.16 4.59675 -5.18334 0
M  V30 13918 N 1294.95 3.85811 -4.08786 0
M  V30 13919 H 1287.1 0.557304 -2.04958 0
M  V30 13920 H 1289.36 0.308531 -0.896389 0
M  V30 13921 H 1289.07 1.68766 -3.08563 0
M  V30 13922 H 1288.94 3.13367 -2.09955 0
M  V30 13923 H 1291.33 2.69053 -1.2122 0
M  V30 13924 H 1291.41 1.24762 -2.23311 0
M  V30 13925 H 1291.05 2.7129 -4.29376 0
M  V30 13926 H 1290.98 4.14941 -3.2424 0
M  V30 13927 H 1293.48 2.71218 -2.63152 0
M  V30 13928 H 1293.79 5.09277 -5.81254 0
M  V30 13929 H 1292.13 4.58529 -5.22279 0
M  V30 13930 H 1295.32 3.30033 -3.31957 0
M  V30 13931 H 1295.5 4.38607 -4.76999 0
M  V30 13932 N 1288.9 1.00119 1.21713 0
M  V30 13933 C 1289.85 0.551452 2.25969 0
M  V30 13934 C 1290.85 -0.402075 1.64559 0
M  V30 13935 O 1292.05 -0.273685 1.77907 0
M  V30 13936 H 1288.43 0.159968 0.734789 0
M  V30 13937 H 1290.4 1.44201 2.61244 0
M  V30 13938 C 1289.15 -0.109992 3.47526 0
M  V30 13939 H 1288.47 0.614686 3.95046 0
M  V30 13940 H 1289.91 -0.388007 4.22221 0
M  V30 13941 C 1288.37 -1.34798 3.08757 0
M  V30 13942 O 1288.9 -2.44266 3.189 0
M  V30 13943 N 1287.1 -1.2263 2.63458 0
M  V30 13944 H 1286.65 -0.335571 2.55405 0
M  V30 13945 H 1286.61 -2.05565 2.37887 0
M  V30 13946 N 1290.38 -1.37203 0.775435 0
M  V30 13947 C 1291.31 -2.32819 0.17826 0
M  V30 13948 C 1292.29 -1.55963 -0.678944 0
M  V30 13949 O 1293.48 -1.84183 -0.615648 0
M  V30 13950 C 1290.61 -3.40198 -0.698768 0
M  V30 13951 C 1289.56 -4.27961 0.057423 0
M  V30 13952 C 1288.89 -5.26385 -0.93929 0
M  V30 13953 C 1290.19 -5.07402 1.23856 0
M  V30 13954 H 1291.88 -2.8301 0.977028 0
M  V30 13955 H 1289.43 -1.3607 0.471274 0
M  V30 13956 H 1291.38 -4.06067 -1.12637 0
M  V30 13957 H 1290.1 -2.88541 -1.53009 0
M  V30 13958 H 1288.76 -3.63628 0.465848 0
M  V30 13959 H 1288.41 -4.71007 -1.76527 0
M  V30 13960 H 1288.11 -5.85966 -0.437844 0
M  V30 13961 H 1289.64 -5.9513 -1.36576 0
M  V30 13962 H 1291.05 -5.6639 0.887423 0
M  V30 13963 H 1289.45 -5.76327 1.67234 0
M  V30 13964 H 1290.52 -4.3986 2.04085 0
M  V30 13965 N 1291.86 -0.526279 -1.48553 0
M  V30 13966 C 1293.11 0.0111473 -2.01697 0
M  V30 13967 C 1293.42 1.35675 -1.40895 0
M  V30 13968 O 1294.63 1.98233 -1.85515 0
M  V30 13969 C 1293.08 0.0702721 -3.59831 0
M  V30 13970 C 1292.69 -1.27022 -4.29616 0
M  V30 13971 C 1294.44 0.556722 -4.20834 0
M  V30 13972 C 1292.34 -1.17188 -5.79673 0
M  V30 13973 H 1291.27 0.00793697 -0.753958 0
M  V30 13974 H 1293.92 -0.669503 -1.70851 0
M  V30 13975 H 1292.31 0.81592 -3.87503 0
M  V30 13976 H 1293.48 -2.03114 -4.1362 0
M  V30 13977 H 1291.79 -1.69211 -3.80469 0
M  V30 13978 H 1294.39 0.648205 -5.30756 0
M  V30 13979 H 1294.73 1.56163 -3.859 0
M  V30 13980 H 1295.27 -0.133132 -3.97577 0
M  V30 13981 H 1292.01 -2.15182 -6.19174 0
M  V30 13982 H 1291.53 -0.452259 -5.98093 0
M  V30 13983 H 1293.21 -0.861011 -6.41245 0
M  V30 13984 N 1293.34 1.5542 -0.261239 0
M  V30 13985 C 1294.57 2.03391 0.362698 0
M  V30 13986 C 1294.98 1.13947 1.51039 0
M  V30 13987 O 1294.32 0.149231 1.83093 0
M  V30 13988 C 1294.38 3.47558 0.918889 0
M  V30 13989 C 1294.04 4.56894 -0.0983829 0
M  V30 13990 C 1295.04 5.1182 -0.913018 0
M  V30 13991 C 1292.73 5.01779 -0.228616 0
M  V30 13992 C 1294.72 6.10138 -1.84421 0
M  V30 13993 C 1292.41 5.99926 -1.16329 0
M  V30 13994 C 1293.41 6.53984 -1.9696 0
M  V30 13995 O 1293.09 7.50214 -2.8885 0
M  V30 13996 H 1292.83 0.670166 0.0886182 0
M  V30 13997 H 1295.38 2.01722 -0.386967 0
M  V30 13998 H 1293.61 3.46423 1.71838 0
M  V30 13999 H 1295.3 3.78947 1.45443 0
M  V30 14000 H 1296.06 4.77965 -0.823066 0
M  V30 14001 H 1291.94 4.59356 0.388945 0
M  V30 14002 H 1295.49 6.52258 -2.47397 0
M  V30 14003 H 1291.38 6.332 -1.25412 0
M  V30 14004 H 1292.15 7.67881 -2.83374 0
M  V30 14005 N 1294.82 -0.0116844 1.57596 0
M  V30 14006 C 1296.06 -0.698958 1.90055 0
M  V30 14007 C 1296.39 -1.74422 0.860659 0
M  V30 14008 O 1295.65 -1.95226 -0.136132 0
M  V30 14009 C 1295.94 -1.38985 3.29269 0
M  V30 14010 C 1295.61 -0.478916 4.48349 0
M  V30 14011 C 1294.27 -0.228071 4.80659 0
M  V30 14012 C 1296.62 0.14897 5.20987 0
M  V30 14013 C 1293.95 0.659147 5.82986 0
M  V30 14014 C 1296.3 1.02399 6.24257 0
M  V30 14015 C 1294.97 1.28413 6.55032 0
M  V30 14016 H 1294.24 -0.255767 0.69546 0
M  V30 14017 H 1296.89 0.0413339 1.91455 0
M  V30 14018 H 1295.19 -2.2039 3.23937 0
M  V30 14019 H 1296.89 -1.92747 3.51638 0
M  V30 14020 H 1293.48 -0.68459 4.23097 0
M  V30 14021 H 1297.66 -0.0318326 4.9629 0
M  V30 14022 H 1292.92 0.86882 6.05195 0
M  V30 14023 H 1297.09 1.51694 6.79678 0
M  V30 14024 H 1294.72 1.97332 7.34142 0
M  V30 14025 N 1296.29 -1.55015 -0.284256 0
M  V30 14026 C 1297.54 -1.74744 -1.01532 0
M  V30 14027 C 1297.86 -0.545334 -1.87219 0
M  V30 14028 O 1297.13 0.440046 -1.90894 0
M  V30 14029 H 1295.71 -0.644382 -0.377864 0
M  V30 14030 H 1298.37 -1.92399 -0.311199 0
M  V30 14031 H 1297.47 -2.64369 -1.65878 0
M  V30 14032 N 1297.77 0.548248 -1.47757 0
M  V30 14033 C 1299.02 1.30501 -1.54841 0
M  V30 14034 C 1299.35 1.93314 -0.214476 0
M  V30 14035 O 1298.6 1.7889 0.793526 0
M  V30 14036 C 1298.9 2.42911 -2.62162 0
M  V30 14037 C 1298.57 1.97871 -4.05164 0
M  V30 14038 C 1297.23 1.85304 -4.4409 0
M  V30 14039 C 1299.58 1.63606 -4.94856 0
M  V30 14040 C 1296.91 1.36781 -5.70533 0
M  V30 14041 C 1299.26 1.16552 -6.2177 0
M  V30 14042 C 1297.92 1.02588 -6.5957 0
M  V30 14043 H 1297.19 0.477536 -0.566604 0
M  V30 14044 H 1299.84 0.613837 -1.81395 0
M  V30 14045 H 1298.15 3.17622 -2.29398 0
M  V30 14046 H 1299.84 3.01078 -2.64864 0
M  V30 14047 H 1296.43 2.08597 -3.74413 0
M  V30 14048 H 1300.62 1.72184 -4.65474 0
M  V30 14049 H 1295.87 1.24641 -5.9856 0
M  V30 14050 H 1300.05 0.891041 -6.90676 0
M  V30 14051 H 1297.67 0.647675 -7.57436 0
M  V30 14052 N 1299.25 1.36039 0.795694 0
M  V30 14053 C 1300.48 1.32866 1.58209 0
M  V30 14054 C 1300.89 -0.0935189 1.88969 0
M  V30 14055 O 1300.23 -1.05905 1.501 0
M  V30 14056 C 1300.29 2.07872 2.93308 0
M  V30 14057 C 1299.96 3.56999 2.85309 0
M  V30 14058 C 1300.95 4.51374 2.57987 0
M  V30 14059 C 1298.64 3.99798 3.04083 0
M  V30 14060 C 1300.63 5.86526 2.49533 0
M  V30 14061 C 1298.32 5.35042 2.95251 0
M  V30 14062 C 1299.32 6.28218 2.68013 0
M  V30 14063 O 1299.01 7.60979 2.59163 0
M  V30 14064 H 1298.74 0.457589 0.497583 0
M  V30 14065 H 1301.29 1.79637 0.995978 0
M  V30 14066 H 1299.52 1.55755 3.53945 0
M  V30 14067 H 1301.21 1.97638 3.54534 0
M  V30 14068 H 1301.98 4.19623 2.43191 0
M  V30 14069 H 1297.86 3.27652 3.24292 0
M  V30 14070 H 1301.4 6.59222 2.28193 0
M  V30 14071 H 1297.3 5.66404 3.09608 0
M  V30 14072 H 1298.06 7.7103 2.74691 0
M  V30 14073 N 1300.73 -1.01913 1.20215 0
M  V30 14074 C 1301.68 -2.12516 0.945493 0
M  V30 14075 C 1302.67 -1.69091 -0.102243 0
M  V30 14076 O 1303.88 -1.79936 0.047888 0
M  V30 14077 H 1300.25 -0.694496 0.288409 0
M  V30 14078 H 1302.22 -2.31349 1.88468 0
M  V30 14079 C 1300.97 -3.43919 0.51137 0
M  V30 14080 H 1300.29 -3.77758 1.30916 0
M  V30 14081 H 1301.73 -4.22374 0.370981 0
M  V30 14082 C 1300.19 -3.27844 -0.775902 0
M  V30 14083 O 1300.72 -3.5734 -1.83496 0
M  V30 14084 N 1298.93 -2.81101 -0.73694 0
M  V30 14085 H 1298.48 -2.57296 0.125164 0
M  V30 14086 H 1298.43 -2.70726 -1.59859 0
M  V30 14087 N 1302.21 -1.00763 -1.2118 0
M  V30 14088 C 1303.45 -0.691826 -1.90316 0
M  V30 14089 C 1303.78 0.777678 -1.78276 0
M  V30 14090 O 1303.04 1.57962 -1.15526 0
M  V30 14091 C 1303.34 -1.06187 -3.41261 0
M  V30 14092 C 1303 -2.52608 -3.73497 0
M  V30 14093 C 1301.66 -2.92617 -3.82006 0
M  V30 14094 C 1304.02 -3.47442 -3.88502 0
M  V30 14095 C 1301.34 -4.26419 -4.02969 0
M  V30 14096 C 1303.7 -4.8092 -4.10973 0
M  V30 14097 C 1302.36 -5.20649 -4.17709 0
M  V30 14098 H 1301.63 -0.253157 -0.696414 0
M  V30 14099 H 1304.28 -1.26655 -1.43634 0
M  V30 14100 H 1302.58 -0.405428 -3.89697 0
M  V30 14101 H 1304.28 -0.795343 -3.93033 0
M  V30 14102 H 1300.87 -2.20603 -3.67468 0
M  V30 14103 H 1305.05 -3.17695 -3.81292 0
M  V30 14104 H 1300.31 -4.56767 -4.06416 0
M  V30 14105 H 1304.48 -5.54337 -4.21525 0
M  V30 14106 H 1302.11 -6.24343 -4.33705 0
M  V30 14107 N 1303.68 1.3679 -0.7827 0
M  V30 14108 C 1304.91 2.04206 -0.362571 0
M  V30 14109 C 1305.33 1.58637 1.01074 0
M  V30 14110 O 1304.69 0.751692 1.64983 0
M  V30 14111 C 1304.74 3.58062 -0.4271 0
M  V30 14112 O 1303.84 4.08463 0.56845 0
M  V30 14113 H 1303.19 0.645638 -0.155073 0
M  V30 14114 H 1305.72 1.74883 -1.06194 0
M  V30 14115 H 1305.73 4.0698 -0.288298 0
M  V30 14116 H 1304.4 3.90582 -1.42893 0
M  V30 14117 H 1302.98 3.70835 0.391863 0
M  V30 14118 N 1305.16 0.53415 1.48272 0
M  V30 14119 C 1306.44 -0.0630181 1.95498 0
M  V30 14120 C 1306.82 -1.50877 1.47646 0
M  V30 14121 O 1306.17 -2.17358 0.704829 0
M  V30 14122 C 1306.38 0.0585475 3.48951 0
M  V30 14123 C 1307.73 -0.0985978 4.24486 0
M  V30 14124 O 1308.75 -0.0150438 3.56197 0
M  V30 14125 O 1307.61 -0.274356 5.45811 0
M  V30 14126 H 1304.7 -0.0769841 0.823409 0
M  V30 14127 H 1307.25 0.599043 1.58775 0
M  V30 14128 H 1306.02 1.06549 3.76514 0
M  V30 14129 H 1305.64 -0.642175 3.9238 0
M  V30 14130 N 1306.64 -1.55279 0.269478 0
M  V30 14131 C 1307.57 -2.25278 -0.614188 0
M  V30 14132 C 1308.55 -1.24092 -1.1634 0
M  V30 14133 O 1309.74 -1.52799 -1.19858 0
M  V30 14134 C 1306.87 -2.96956 -1.80096 0
M  V30 14135 C 1305.82 -4.05021 -1.38353 0
M  V30 14136 C 1305.15 -4.64244 -2.65295 0
M  V30 14137 C 1306.45 -5.19523 -0.537886 0
M  V30 14138 H 1308.14 -2.99385 -0.0304397 0
M  V30 14139 H 1305.69 -1.43994 -0.0132004 0
M  V30 14140 H 1307.64 -3.44633 -2.42499 0
M  V30 14141 H 1306.36 -2.20374 -2.41045 0
M  V30 14142 H 1305.02 -3.58146 -0.78273 0
M  V30 14143 H 1304.67 -3.84337 -3.2449 0
M  V30 14144 H 1304.37 -5.37208 -2.38079 0
M  V30 14145 H 1305.89 -5.14668 -3.28557 0
M  V30 14146 H 1307.31 -5.63287 -1.06677 0
M  V30 14147 H 1305.71 -5.99014 -0.360845 0
M  V30 14148 H 1306.78 -4.82857 0.444672 0
M  V30 14149 N 1308.12 0.00332656 -1.576 0
M  V30 14150 C 1309.05 0.994803 -2.11248 0
M  V30 14151 C 1310.03 1.36061 -1.02085 0
M  V30 14152 O 1311.21 1.44494 -1.2975 0
M  V30 14153 C 1308.34 2.28772 -2.61306 0
M  V30 14154 C 1307.3 2.06362 -3.74965 0
M  V30 14155 C 1306.62 3.41638 -4.11324 0
M  V30 14156 C 1307.92 1.4289 -5.02374 0
M  V30 14157 H 1309.62 0.548119 -2.9434 0
M  V30 14158 H 1307.16 0.262208 -1.41593 0
M  V30 14159 H 1309.12 2.98485 -2.97464 0
M  V30 14160 H 1307.84 2.75547 -1.75332 0
M  V30 14161 H 1306.5 1.39076 -3.39195 0
M  V30 14162 H 1306.15 3.8611 -3.22379 0
M  V30 14163 H 1305.85 3.2746 -4.87897 0
M  V30 14164 H 1307.37 4.12671 -4.50039 0
M  V30 14165 H 1308.79 2.02555 -5.36325 0
M  V30 14166 H 1307.18 1.3921 -5.8373 0
M  V30 14167 H 1308.25 0.397708 -4.83266 0
M  V30 14168 N 1309.6 1.55164 0.276031 0
M  V30 14169 C 1311.01 1.46936 0.623061 0
M  V30 14170 C 1311.21 0.680977 1.89644 0
M  V30 14171 O 1310.27 0.198618 2.51718 0
M  V30 14172 C 1311.58 2.91123 0.752839 0
M  V30 14173 C 1313.13 3.01319 0.847093 0
M  V30 14174 C 1313.6 4.46755 1.00867 0
M  V30 14175 N 1315.1 4.5057 1.07427 0
M  V30 14176 C 1315.83 5.60314 1.21804 0
M  V30 14177 N 1315.33 6.7993 1.32919 0
M  V30 14178 N 1317.12 5.4805 1.2489 0
M  V30 14179 H 1309.27 2.04877 -0.560282 0
M  V30 14180 H 1311.53 0.928925 -0.189217 0
M  V30 14181 H 1311.24 3.51521 -0.112333 0
M  V30 14182 H 1311.11 3.39967 1.63408 0
M  V30 14183 H 1313.5 2.41021 1.70274 0
M  V30 14184 H 1313.58 2.55733 -0.0586896 0
M  V30 14185 H 1313.23 5.07655 0.1577 0
M  V30 14186 H 1313.16 4.89995 1.92906 0
M  V30 14187 H 1315.65 3.64404 1.00089 0
M  V30 14188 H 1315.96 7.59319 1.43714 0
M  V30 14189 H 1314.3 6.82747 1.29929 0
M  V30 14190 H 1317.5 4.53542 1.15834 0
M  V30 14191 H 1317.67 6.33621 1.3575 0
M  V30 14192 N 1311.07 -0.540404 1.48045 0
M  V30 14193 C 1312 -1.65538 1.6468 0
M  V30 14194 C 1312.99 -1.62713 0.495847 0
M  V30 14195 O 1314.17 -1.80072 0.727172 0
M  V30 14196 C 1311.3 -3.0415 1.67661 0
M  V30 14197 C 1310.25 -3.2183 2.82152 0
M  V30 14198 C 1309.58 -4.61397 2.70216 0
M  V30 14199 C 1310.88 -3.05596 4.23567 0
M  V30 14200 H 1312.57 -1.51873 2.58021 0
M  V30 14201 H 1310.12 -0.729208 1.24171 0
M  V30 14202 H 1312.07 -3.82013 1.77887 0
M  V30 14203 H 1310.8 -3.18814 0.708907 0
M  V30 14204 H 1309.46 -2.4638 2.71463 0
M  V30 14205 H 1309.1 -4.72883 1.71437 0
M  V30 14206 H 1308.8 -4.74174 3.47035 0
M  V30 14207 H 1310.33 -5.41374 2.82395 0
M  V30 14208 H 1311.74 -3.73261 4.35143 0
M  V30 14209 H 1310.14 -3.29871 5.01303 0
M  V30 14210 H 1311.21 -2.0214 4.40758 0
M  V30 14211 N 1312.55 -1.36459 -0.788468 0
M  V30 14212 C 1313.78 -1.33898 -1.57731 0
M  V30 14213 C 1314.2 0.0795471 -1.88632 0
M  V30 14214 O 1313.55 1.03671 -1.50195 0
M  V30 14215 C 1313.6 -2.16134 -2.89773 0
M  V30 14216 O 1313.32 -3.52457 -2.60203 0
M  V30 14217 C 1314.83 -2.21364 -3.84074 0
M  V30 14218 H 1312.05 -0.459269 -0.489197 0
M  V30 14219 H 1314.59 -1.79569 -0.978526 0
M  V30 14220 H 1312.74 -1.74015 -3.46118 0
M  V30 14221 H 1313.16 -3.95378 -3.4464 0
M  V30 14222 H 1314.63 -2.83261 -4.7378 0
M  V30 14223 H 1315.11 -1.21736 -4.21992 0
M  V30 14224 H 1315.72 -2.63723 -3.33662 0
M  V30 14225 N 1314.03 1.01274 -1.20754 0
M  V30 14226 C 1314.98 2.09894 -0.959852 0
M  V30 14227 C 1315.95 1.65726 0.111351 0
M  V30 14228 O 1317.13 1.90769 -0.0341721 0
M  V30 14229 C 1314.27 3.41126 -0.52223 0
M  V30 14230 C 1313.39 3.98749 -1.66202 0
M  V30 14231 C 1312.52 5.18057 -1.17432 0
M  V30 14232 C 1311.56 5.67772 -2.28694 0
M  V30 14233 N 1310.7 6.78338 -1.81114 0
M  V30 14234 H 1315.54 2.30416 -1.88977 0
M  V30 14235 H 1313.07 1.12989 -0.941906 0
M  V30 14236 H 1315.03 4.16451 -0.249799 0
M  V30 14237 H 1313.66 3.20665 0.370688 0
M  V30 14238 H 1312.71 3.20483 -2.04927 0
M  V30 14239 H 1314.03 4.31646 -2.49967 0
M  V30 14240 H 1313.18 6.00601 -0.858086 0
M  V30 14241 H 1311.92 4.86735 -0.306614 0
M  V30 14242 H 1310.92 4.8383 -2.61129 0
M  V30 14243 H 1312.15 6.01127 -3.15948 0
M  V30 14244 H 1310.09 6.48837 -0.966761 0
M  V30 14245 H 1310.01 7.10448 -2.58457 0
M  V30 14246 H 1311.28 7.64437 -1.52502 0
M  V30 14247 N 1315.51 1.01404 1.20644 0
M  V30 14248 C 1316.76 0.697244 1.89265 0
M  V30 14249 C 1317.07 -0.776149 1.79542 0
M  V30 14250 O 1318.28 -1.2054 2.43274 0
M  V30 14251 C 1316.73 1.19672 3.39421 0
M  V30 14252 C 1316.34 2.69683 3.57736 0
M  V30 14253 C 1318.09 0.955225 4.13613 0
M  V30 14254 C 1315.99 3.13124 5.01704 0
M  V30 14255 H 1314.92 0.257105 0.708811 0
M  V30 14256 H 1317.57 1.22639 1.36499 0
M  V30 14257 H 1315.96 0.595562 3.91496 0
M  V30 14258 H 1317.13 3.35326 3.16059 0
M  V30 14259 H 1315.44 2.91946 2.96911 0
M  V30 14260 H 1318.04 1.25524 5.19757 0
M  V30 14261 H 1318.38 -0.108362 4.16159 0
M  V30 14262 H 1318.92 1.51962 3.67631 0
M  V30 14263 H 1315.66 4.18748 5.04311 0
M  V30 14264 H 1315.18 2.522 5.44201 0
M  V30 14265 H 1316.86 3.05617 5.70269 0
M  V30 14266 N 1316.99 -1.36373 0.789944 0
M  V30 14267 C 1317.92 -2.32616 0.202944 0
M  V30 14268 C 1318.9 -1.56674 -0.662364 0
M  V30 14269 O 1320.08 -1.84826 -0.596078 0
M  V30 14270 C 1317.21 -3.4092 -0.662646 0
M  V30 14271 C 1316.17 -4.27877 0.102811 0
M  V30 14272 C 1315.49 -5.27352 -0.883407 0
M  V30 14273 C 1316.79 -5.0606 1.29231 0
M  V30 14274 H 1318.49 -2.81958 1.00699 0
M  V30 14275 H 1316.03 -1.35562 0.48568 0
M  V30 14276 H 1317.99 -4.07239 -1.08324 0
M  V30 14277 H 1316.71 -2.90147 -1.4994 0
M  V30 14278 H 1315.37 -3.63114 0.504389 0
M  V30 14279 H 1315.02 -4.72853 -1.71521 0
M  V30 14280 H 1314.72 -5.86398 -0.375669 0
M  V30 14281 H 1316.24 -5.96545 -1.30256 0
M  V30 14282 H 1317.66 -5.65417 0.947446 0
M  V30 14283 H 1316.05 -5.74521 1.73338 0
M  V30 14284 H 1317.12 -4.37671 2.08739 0
M  V30 14285 N 1318.47 -0.542005 -1.47987 0
M  V30 14286 C 1319.4 0.202703 -2.32618 0
M  V30 14287 C 1320.38 0.923521 -1.42846 0
M  V30 14288 O 1321.56 0.906957 -1.7172 0
M  V30 14289 C 1318.69 1.24267 -3.24307 0
M  V30 14290 C 1317.65 0.639257 -4.23199 0
M  V30 14291 C 1316.97 1.78275 -5.04105 0
M  V30 14292 C 1318.27 -0.396982 -5.20789 0
M  V30 14293 H 1319.97 -0.503817 -2.95131 0
M  V30 14294 H 1317.51 -0.243736 -1.41922 0
M  V30 14295 H 1319.46 1.7717 -3.82347 0
M  V30 14296 H 1318.19 1.97893 -2.59819 0
M  V30 14297 H 1316.85 0.131655 -3.66364 0
M  V30 14298 H 1316.5 2.50768 -4.36032 0
M  V30 14299 H 1316.2 1.38487 -5.71047 0
M  V30 14300 H 1317.72 2.31533 -5.65 0
M  V30 14301 H 1319.13 0.0454057 -5.73282 0
M  V30 14302 H 1317.53 -0.712911 -5.9585 0
M  V30 14303 H 1318.6 -1.29843 -4.67193 0
M  V30 14304 N 1319.94 1.55134 -0.277709 0
M  V30 14305 C 1320.91 2.21327 0.595569 0
M  V30 14306 C 1321.91 1.19193 1.07933 0
M  V30 14307 O 1323.1 1.44081 0.979093 0
M  V30 14308 C 1320.23 2.88127 1.82196 0
M  V30 14309 H 1321.42 2.99895 0.0175855 0
M  V30 14310 H 1318.97 1.56274 -0.0283453 0
M  V30 14311 H 1319.71 2.13578 2.44039 0
M  V30 14312 H 1319.49 3.62974 1.48297 0
M  V30 14313 H 1320.98 3.38691 2.44291 0
M  V30 14314 N 1321.42 0.00503138 1.57599 0
M  V30 14315 C 1322.67 -0.677979 1.89964 0
M  V30 14316 C 1322.98 -1.74657 0.88059 0
M  V30 14317 O 1324.19 -2.48455 1.09463 0
M  V30 14318 C 1322.65 -1.25708 3.37232 0
M  V30 14319 C 1322.25 -0.223045 4.47444 0
M  V30 14320 C 1324 -1.91799 3.787 0
M  V30 14321 C 1321.9 -0.812416 5.85793 0
M  V30 14322 H 1320.83 -0.256991 0.708852 0
M  V30 14323 H 1323.49 0.0663988 1.8338 0
M  V30 14324 H 1321.87 -2.05228 3.3867 0
M  V30 14325 H 1323.04 0.54794 4.57531 0
M  V30 14326 H 1321.36 0.337714 4.15028 0
M  V30 14327 H 1323.95 -2.36808 4.79402 0
M  V30 14328 H 1324.3 -2.75067 3.1248 0
M  V30 14329 H 1324.83 -1.19004 3.79583 0
M  V30 14330 H 1321.57 -0.0184031 6.55497 0
M  V30 14331 H 1321.09 -1.55244 5.79361 0
M  V30 14332 H 1322.77 -1.30952 6.33609 0
M  V30 14333 N 1322.9 -1.55308 -0.267798 0
M  V30 14334 C 1323.83 -1.91555 -1.33525 0
M  V30 14335 C 1324.81 -0.778001 -1.51265 0
M  V30 14336 O 1326 -1.03657 -1.64222 0
M  V30 14337 C 1323.13 -2.19201 -2.69385 0
M  V30 14338 C 1322.08 -3.3501 -2.66369 0
M  V30 14339 C 1321.41 -3.48148 -4.05829 0
M  V30 14340 C 1322.71 -4.71265 -2.25182 0
M  V30 14341 H 1324.4 -2.80965 -1.03437 0
M  V30 14342 H 1321.95 -1.35183 -0.496141 0
M  V30 14343 H 1323.9 -2.43146 -3.44177 0
M  V30 14344 H 1322.62 -1.26596 -3.01067 0
M  V30 14345 H 1321.28 -3.11041 -1.94034 0
M  V30 14346 H 1320.93 -2.53 -4.34741 0
M  V30 14347 H 1320.63 -4.26014 -4.04704 0
M  V30 14348 H 1322.15 -3.74391 -4.82352 0
M  V30 14349 H 1323.57 -4.94719 -2.89699 0
M  V30 14350 H 1321.96 -5.52084 -2.3521 0
M  V30 14351 H 1323.03 -4.69735 -1.20319 0
M  V30 14352 N 1324.38 0.532545 -1.4833 0
M  V30 14353 C 1325.65 1.29371 -1.46705 0
M  V30 14354 C 1326.03 2.10354 -0.177329 0
M  V30 14355 O 1325.38 2.12462 0.840968 0
M  V30 14356 C 1325.59 2.17733 -2.72751 0
M  V30 14357 C 1326.94 2.77956 -3.20976 0
M  V30 14358 O 1327.96 2.28022 -2.7365 0
M  V30 14359 O 1326.82 3.68779 -4.03317 0
M  V30 14360 H 1323.92 0.58378 -0.585773 0
M  V30 14361 H 1326.46 0.549411 -1.6056 0
M  V30 14362 H 1325.24 1.57659 -3.58133 0
M  V30 14363 H 1324.86 2.99415 -2.61603 0
M  V30 14364 N 1325.86 1.36875 0.78122 0
M  V30 14365 C 1327.1 1.32949 1.55254 0
M  V30 14366 C 1327.46 -0.0879862 1.91798 0
M  V30 14367 O 1328.66 -0.251878 2.67617 0
M  V30 14368 C 1326.93 2.23382 2.78989 0
M  V30 14369 S 1328.49 2.37218 3.69152 0
M  V30 14370 H 1325.31 0.472105 0.531637 0
M  V30 14371 H 1327.91 1.72529 0.91945 0
M  V30 14372 H 1326.61 3.25307 2.50207 0
M  V30 14373 H 1326.15 1.84852 3.47266 0
M  V30 14374 H 1328.16 1.57575 4.70515 0
M  V30 14375 N 1327.33 -1.00632 1.21289 0
M  V30 14376 C 1328.58 -1.74647 1.03084 0
M  V30 14377 C 1328.91 -1.89271 -0.43476 0
M  V30 14378 O 1328.19 -1.42607 -1.32263 0
M  V30 14379 C 1328.47 -3.15981 1.72709 0
M  V30 14380 C 1328.32 -3.09088 3.2678 0
M  V30 14381 C 1329.64 -4.14875 1.46857 0
M  V30 14382 H 1326.76 -0.633938 0.375889 0
M  V30 14383 H 1329.4 -1.17328 1.49446 0
M  V30 14384 H 1327.55 -3.64918 1.33294 0
M  V30 14385 H 1329.23 -2.67875 3.75554 0
M  V30 14386 H 1327.47 -2.46223 3.57151 0
M  V30 14387 H 1328.14 -4.09041 3.70661 0
M  V30 14388 H 1330.62 -3.74637 1.81069 0
M  V30 14389 H 1329.49 -5.1191 1.98088 0
M  V30 14390 H 1329.75 -4.40302 0.398296 0
M  V30 14391 N 1328.81 -1.02043 -1.20104 0
M  V30 14392 C 1329.76 -0.564679 -2.20897 0
M  V30 14393 C 1330.75 0.382041 -1.56299 0
M  V30 14394 O 1331.94 0.204384 -1.75816 0
M  V30 14395 C 1329.07 0.0917516 -3.43177 0
M  V30 14396 C 1328.15 -0.876903 -4.14935 0
M  V30 14397 N 1328.54 -2.03596 -4.63014 0
M  V30 14398 C 1326.84 -0.698538 -4.40496 0
M  V30 14399 C 1327.54 -2.64621 -5.18026 0
M  V30 14400 N 1326.52 -1.92651 -5.08317 0
M  V30 14401 H 1330.32 -1.44825 -2.5574 0
M  V30 14402 H 1327.83 -0.88628 -1.36084 0
M  V30 14403 H 1329.83 0.43582 -4.14616 0
M  V30 14404 H 1328.49 0.971116 -3.09838 0
M  V30 14405 H 1329.5 -2.41573 -4.58108 0
M  V30 14406 H 1326.18 0.132449 -4.1729 0
M  V30 14407 H 1327.57 -3.62732 -5.65575 0
M  V30 14408 N 1330.29 1.35952 -0.797165 0
M  V30 14409 C 1331.54 1.99327 -0.373695 0
M  V30 14410 C 1331.87 1.63111 1.05396 0
M  V30 14411 O 1331.14 0.889736 1.72956 0
M  V30 14412 C 1331.43 3.5593 -0.54641 0
M  V30 14413 C 1331.28 4.01975 -2.01832 0
M  V30 14414 C 1332.6 4.40087 0.0337694 0
M  V30 14415 H 1329.72 0.724107 -0.137254 0
M  V30 14416 H 1332.36 1.61248 -1.00495 0
M  V30 14417 H 1330.51 3.88499 -0.00903959 0
M  V30 14418 H 1332.18 3.79859 -2.61735 0
M  V30 14419 H 1330.43 3.5323 -2.51815 0
M  V30 14420 H 1331.1 5.109 -2.09009 0
M  V30 14421 H 1333.57 4.13923 -0.425039 0
M  V30 14422 H 1332.45 5.48775 -0.117054 0
M  V30 14423 H 1332.71 4.27504 1.12661 0
M  V30 14424 N 1331.77 0.549846 1.47697 0
M  V30 14425 C 1333 0.0276889 2.06881 0
M  V30 14426 C 1333.41 -1.26273 1.40359 0
M  V30 14427 O 1332.77 -1.75584 0.497644 0
M  V30 14428 C 1332.82 -0.179291 3.61055 0
M  V30 14429 O 1332.54 1.06002 4.25083 0
M  V30 14430 C 1334.04 -0.739571 4.37087 0
M  V30 14431 H 1331.26 0.0425016 0.669653 0
M  V30 14432 H 1333.81 0.761158 1.89807 0
M  V30 14433 H 1331.96 -0.862867 3.77668 0
M  V30 14434 H 1332.37 0.853137 5.17515 0
M  V30 14435 H 1333.85 -0.833722 5.45668 0
M  V30 14436 H 1334.33 -1.74915 4.02867 0
M  V30 14437 H 1334.93 -0.0919294 4.25201 0
M  V30 14438 N 1333.25 -1.54984 0.285932 0
M  V30 14439 C 1334.47 -2.04239 -0.330774 0
M  V30 14440 C 1334.89 -1.16387 -1.48659 0
M  V30 14441 O 1334.25 -0.186255 -1.81547 0
M  V30 14442 C 1334.3 -3.52504 -0.801456 0
M  V30 14443 O 1334.02 -4.37014 0.30834 0
M  V30 14444 C 1335.52 -4.17692 -1.48487 0
M  V30 14445 H 1332.74 -0.666903 -0.0740351 0
M  V30 14446 H 1335.28 -2.00116 0.421178 0
M  V30 14447 H 1333.44 -3.57036 -1.50347 0
M  V30 14448 H 1333.85 -5.24471 -0.0553891 0
M  V30 14449 H 1335.33 -5.23004 -1.76552 0
M  V30 14450 H 1335.8 -3.66515 -2.41999 0
M  V30 14451 H 1336.41 -4.17193 -0.826428 0
M  V30 14452 N 1334.72 -0.0133892 -1.57594 0
M  V30 14453 C 1335.97 0.667896 -1.90321 0
M  V30 14454 C 1336.29 1.74187 -0.88984 0
M  V30 14455 O 1337.49 2.47871 -1.10779 0
M  V30 14456 C 1335.95 1.23917 -3.37894 0
M  V30 14457 C 1335.56 0.199313 -4.47556 0
M  V30 14458 C 1337.3 1.89788 -3.79712 0
M  V30 14459 C 1335.21 0.781339 -5.86216 0
M  V30 14460 H 1334.14 0.253229 -0.710205 0
M  V30 14461 H 1336.79 -0.0761229 -1.83342 0
M  V30 14462 H 1335.17 2.03429 -3.39754 0
M  V30 14463 H 1336.34 -0.572196 -4.57234 0
M  V30 14464 H 1334.66 -0.359719 -4.14843 0
M  V30 14465 H 1337.26 2.34262 -4.80651 0
M  V30 14466 H 1337.6 2.73406 -3.13934 0
M  V30 14467 H 1338.13 1.16989 -3.80208 0
M  V30 14468 H 1334.87 -0.0163598 -6.55498 0
M  V30 14469 H 1334.39 1.5217 -5.80176 0
M  V30 14470 H 1336.07 1.2759 -6.34295 0
M  V30 14471 N 1336.2 1.55448 0.259558 0
M  V30 14472 C 1337.45 1.76686 0.98935 0
M  V30 14473 C 1337.78 0.575434 1.85793 0
M  V30 14474 O 1337.03 -0.441676 1.90651 0
M  V30 14475 C 1337.33 3.03292 1.89073 0
M  V30 14476 C 1337 4.35225 1.17855 0
M  V30 14477 C 1335.66 4.7108 0.981675 0
M  V30 14478 C 1338.01 5.16839 0.6728 0
M  V30 14479 C 1335.34 5.86094 0.266551 0
M  V30 14480 C 1337.69 6.32593 -0.0287965 0
M  V30 14481 C 1336.36 6.67078 -0.23726 0
M  V30 14482 H 1335.63 0.646542 0.362029 0
M  V30 14483 H 1338.27 1.8972 0.260488 0
M  V30 14484 H 1336.58 2.85217 2.68624 0
M  V30 14485 H 1338.27 3.16923 2.45685 0
M  V30 14486 H 1334.86 4.07051 1.34192 0
M  V30 14487 H 1339.05 4.89604 0.812481 0
M  V30 14488 H 1334.3 6.11327 0.0944447 0
M  V30 14489 H 1338.48 6.95081 -0.428378 0
M  V30 14490 H 1336.11 7.56049 -0.793358 0
M  V30 14491 N 1337.68 -0.524672 1.4861 0
M  V30 14492 C 1339.09 -1.10655 1.50374 0
M  V30 14493 C 1339.44 -1.94242 0.276512 0
M  V30 14494 O 1338.57 -2.07451 -0.615887 0
M  V30 14495 C 1339.16 -2.01348 2.72478 0
M  V30 14496 C 1337.72 -2.54743 2.77097 0
M  V30 14497 C 1336.87 -1.31822 2.43964 0
M  V30 14498 H 1339.82 -0.309674 1.55649 0
M  V30 14499 H 1339.84 -2.85709 2.51297 0
M  V30 14500 H 1339.35 -1.40485 3.61781 0
M  V30 14501 H 1337.45 -3.19313 1.92016 0
M  V30 14502 H 1337.57 -2.93514 3.78664 0
M  V30 14503 H 1335.93 -1.63574 1.95233 0
M  V30 14504 H 1336.71 -0.727026 3.35513 0
M  V30 14505 N 1339.16 -1.37287 -0.77395 0
M  V30 14506 C 1340.41 -1.31698 -1.52769 0
M  V30 14507 C 1340.72 0.0968585 -1.9536 0
M  V30 14508 O 1341.93 0.275205 -2.70102 0
M  V30 14509 C 1340.38 -2.31154 -2.75854 0
M  V30 14510 C 1339.99 -3.78055 -2.40371 0
M  V30 14511 C 1341.73 -2.34572 -3.53803 0
M  V30 14512 C 1339.64 -4.69248 -3.59945 0
M  V30 14513 H 1338.57 -0.489456 -0.573541 0
M  V30 14514 H 1341.22 -1.62735 -0.84791 0
M  V30 14515 H 1339.6 -1.93132 -3.45711 0
M  V30 14516 H 1340.78 -4.24902 -1.78312 0
M  V30 14517 H 1339.09 -3.77562 -1.75602 0
M  V30 14518 H 1341.69 -2.99908 -4.42673 0
M  V30 14519 H 1342.03 -1.35868 -3.93504 0
M  V30 14520 H 1342.57 -2.7129 -2.90941 0
M  V30 14521 H 1339.31 -5.69072 -3.25327 0
M  V30 14522 H 1338.83 -4.27108 -4.21117 0
M  V30 14523 H 1340.5 -4.86275 -4.26785 0
M  V30 14524 N 1340.64 0.999871 -1.21821 0
M  V30 14525 C 1341.86 1.7794 -1.06546 0
M  V30 14526 C 1342.29 1.84219 0.380115 0
M  V30 14527 O 1341.64 1.28955 1.27438 0
M  V30 14528 C 1341.69 3.1943 -1.67322 0
M  V30 14529 O 1340.8 4.01957 -0.922171 0
M  V30 14530 H 1340.14 0.548204 -0.374658 0
M  V30 14531 H 1342.67 1.2565 -1.61472 0
M  V30 14532 H 1342.68 3.70086 -1.71757 0
M  V30 14533 H 1341.35 3.14175 -2.7252 0
M  V30 14534 H 1339.93 3.60509 -0.95331 0
M  V30 14535 N 1342.11 1.02678 1.19562 0
M  V30 14536 C 1343.06 0.605764 2.22709 0
M  V30 14537 C 1344.03 -0.37936 1.6171 0
M  V30 14538 O 1345.22 -0.276496 1.88786 0
M  V30 14539 C 1342.36 -0.0394312 3.45077 0
M  V30 14540 C 1341.47 0.991481 4.20468 0
M  V30 14541 C 1340.6 0.316269 5.30258 0
M  V30 14542 C 1339.64 1.33324 5.97404 0
M  V30 14543 N 1338.78 0.683979 6.9876 0
M  V30 14544 H 1343.62 1.48994 2.58079 0
M  V30 14545 H 1341.16 0.745636 1.26802 0
M  V30 14546 H 1343.12 -0.430726 4.14971 0
M  V30 14547 H 1341.75 -0.887193 3.10369 0
M  V30 14548 H 1340.8 1.50085 3.49541 0
M  V30 14549 H 1342.11 1.76449 4.66548 0
M  V30 14550 H 1341.26 -0.129983 6.06561 0
M  V30 14551 H 1340 -0.488956 4.85243 0
M  V30 14552 H 1339.01 1.78977 5.19853 0
M  V30 14553 H 1340.23 2.13992 6.44503 0
M  V30 14554 H 1338.18 -0.101192 6.55922 0
M  V30 14555 H 1338.1 1.3949 7.4302 0
M  V30 14556 H 1339.36 0.261658 7.79061 0
M  V30 14557 N 1343.59 -1.35528 0.804364 0
M  V30 14558 C 1344.53 -2.27647 0.158767 0
M  V30 14559 C 1345.5 -1.47976 -0.673942 0
M  V30 14560 O 1346.69 -1.77241 -0.641703 0
M  V30 14561 C 1343.81 -3.29597 -0.779973 0
M  V30 14562 C 1342.86 -4.26491 -0.0271676 0
M  V30 14563 S 1343.69 -5.19296 1.30736 0
M  V30 14564 C 1344.85 -6.24788 0.373003 0
M  V30 14565 H 1345.08 -2.82055 0.939805 0
M  V30 14566 H 1342.62 -1.42294 0.599313 0
M  V30 14567 H 1344.57 -3.88831 -1.31609 0
M  V30 14568 H 1343.23 -2.74072 -1.53438 0
M  V30 14569 H 1342.43 -4.98537 -0.740059 0
M  V30 14570 H 1342.03 -3.71415 0.438923 0
M  V30 14571 H 1344.32 -6.76053 -0.442566 0
M  V30 14572 H 1345.26 -7.00082 1.06258 0
M  V30 14573 H 1345.67 -5.64492 -0.0303131 0
M  V30 14574 N 1345.07 -0.557671 -1.47404 0
M  V30 14575 C 1346.03 0.179311 -2.28498 0
M  V30 14576 C 1347.03 0.842281 -1.36975 0
M  V30 14577 O 1348.22 0.698072 -1.59601 0
M  V30 14578 C 1345.36 1.26229 -3.16668 0
M  V30 14579 H 1346.55 -0.533033 -2.95125 0
M  V30 14580 H 1344.1 -0.314634 -1.531 0
M  V30 14581 H 1344.84 2.00702 -2.54733 0
M  V30 14582 H 1344.62 0.791712 -3.84024 0
M  V30 14583 H 1346.11 1.77991 -3.77768 0
M  V30 14584 N 1346.55 1.54831 -0.294147 0
M  V30 14585 C 1347.5 2.23263 0.58499 0
M  V30 14586 C 1348.47 1.21278 1.13494 0
M  V30 14587 O 1349.65 1.49878 1.18073 0
M  V30 14588 C 1346.79 2.97185 1.75429 0
M  V30 14589 C 1345.9 4.1393 1.23638 0
M  V30 14590 C 1345.04 4.7545 2.36899 0
M  V30 14591 C 1344.08 5.84352 1.82207 0
M  V30 14592 N 1343.22 6.39855 2.89015 0
M  V30 14593 H 1348.06 2.98 -0.00519329 0
M  V30 14594 H 1345.59 1.47093 -0.0143313 0
M  V30 14595 H 1347.55 3.38271 2.4419 0
M  V30 14596 H 1346.18 2.24837 2.3162 0
M  V30 14597 H 1345.23 3.77832 0.441247 0
M  V30 14598 H 1346.54 4.92409 0.795946 0
M  V30 14599 H 1345.7 5.19353 3.1362 0
M  V30 14600 H 1344.44 3.96288 2.84266 0
M  V30 14601 H 1343.44 5.39879 1.03974 0
M  V30 14602 H 1344.67 6.65393 1.35753 0
M  V30 14603 H 1342.61 5.6358 3.35729 0
M  V30 14604 H 1342.53 7.13661 2.49447 0
M  V30 14605 H 1343.8 6.88417 3.65654 0
M  V30 14606 N 1348.03 0.0217466 1.57585 0
M  V30 14607 C 1349.28 -0.657187 1.91116 0
M  V30 14608 C 1349.6 -1.7309 0.898039 0
M  V30 14609 O 1348.87 -1.95803 -0.0615116 0
M  V30 14610 H 1347.45 -0.245732 0.705425 0
M  V30 14611 H 1350.11 0.0678096 1.94782 0
M  V30 14612 H 1349.2 -1.11462 2.91518 0
M  V30 14613 N 1349.51 -1.55583 -0.251311 0
M  V30 14614 C 1350.42 -1.93073 -1.33266 0
M  V30 14615 C 1351.43 -0.830612 -1.52895 0
M  V30 14616 O 1352.61 -1.13162 -1.66602 0
M  V30 14617 C 1349.67 -2.21396 -2.66805 0
M  V30 14618 C 1348.73 -3.44815 -2.55737 0
M  V30 14619 C 1347.97 -3.71777 -3.82907 0
M  V30 14620 O 1348.19 -3.00884 -4.84587 0
M  V30 14621 O 1347.12 -4.65305 -3.81805 0
M  V30 14622 H 1350.95 -2.85168 -1.04465 0
M  V30 14623 H 1348.53 -1.42408 -0.451693 0
M  V30 14624 H 1350.42 -2.4094 -3.45725 0
M  V30 14625 H 1349.09 -1.3248 -2.95348 0
M  V30 14626 H 1348 -3.30582 -1.75118 0
M  V30 14627 H 1349.33 -4.34019 -2.32139 0
M  V30 14628 N 1350.98 0.516783 -1.48886 0
M  V30 14629 C 1351.89 1.6467 -1.67095 0
M  V30 14630 C 1352.91 1.64963 -0.553466 0
M  V30 14631 O 1354.09 1.83673 -0.826206 0
M  V30 14632 C 1351.15 3.01095 -1.71879 0
M  V30 14633 C 1350.21 3.11554 -2.95352 0
M  V30 14634 C 1349.44 4.41471 -2.99898 0
M  V30 14635 O 1349.67 5.29348 -2.12477 0
M  V30 14636 O 1348.6 4.56573 -3.92205 0
M  V30 14637 H 1352.43 1.52242 -2.62785 0
M  V30 14638 H 1350.01 0.69134 -1.32442 0
M  V30 14639 H 1351.89 3.82207 -1.77471 0
M  V30 14640 H 1350.57 3.1382 -0.793656 0
M  V30 14641 H 1349.48 2.29689 -2.95286 0
M  V30 14642 H 1350.81 3.03751 -3.87294 0
M  V30 14643 N 1352.46 1.37696 0.766659 0
M  V30 14644 C 1353.41 1.33966 1.90147 0
M  V30 14645 C 1354.4 0.2276 1.67864 0
M  V30 14646 O 1355.61 0.395912 1.75592 0
M  V30 14647 H 1351.98 0.417611 0.625384 0
M  V30 14648 H 1353.96 2.29753 1.9041 0
M  V30 14649 C 1352.7 1.16859 3.27474 0
M  V30 14650 H 1352.03 2.01686 3.452 0
M  V30 14651 H 1353.47 1.18301 4.07162 0
M  V30 14652 C 1351.93 -0.125418 3.36666 0
M  V30 14653 O 1352.46 -1.10717 3.86141 0
M  V30 14654 N 1350.66 -0.17784 2.90055 0
M  V30 14655 H 1350.21 0.621737 2.49984 0
M  V30 14656 H 1350.17 -1.04325 2.96587 0
M  V30 14657 N 1353.94 -0.993397 1.22349 0
M  V30 14658 C 1354.89 -2.0834 0.993123 0
M  V30 14659 C 1355.86 -1.65883 -0.0849717 0
M  V30 14660 O 1357.04 -1.90691 0.0645176 0
M  V30 14661 C 1354.18 -3.40252 0.576434 0
M  V30 14662 C 1353.29 -3.96055 1.72524 0
M  V30 14663 C 1352.43 -5.16123 1.25659 0
M  V30 14664 C 1351.47 -5.64062 2.37698 0
M  V30 14665 N 1350.61 -6.7537 1.91883 0
M  V30 14666 H 1355.45 -2.27381 1.92619 0
M  V30 14667 H 1352.98 -1.11476 0.959763 0
M  V30 14668 H 1354.94 -4.16001 0.316021 0
M  V30 14669 H 1353.57 -3.21214 -0.319626 0
M  V30 14670 H 1352.62 -3.17182 2.1 0
M  V30 14671 H 1353.93 -4.27614 2.56802 0
M  V30 14672 H 1353.09 -5.9916 0.953528 0
M  V30 14673 H 1351.83 -4.86186 0.384011 0
M  V30 14674 H 1350.83 -4.79614 2.68794 0
M  V30 14675 H 1352.06 -5.96025 3.25471 0
M  V30 14676 H 1350 -6.47217 1.06986 0
M  V30 14677 H 1349.92 -7.06246 2.69727 0
M  V30 14678 H 1351.19 -7.61914 1.64644 0
M  V30 14679 N 1355.42 -1.03311 -1.19015 0
M  V30 14680 C 1356.67 -0.730593 -1.88432 0
M  V30 14681 C 1356.99 0.743392 -1.80274 0
M  V30 14682 O 1356.26 1.5359 -1.21601 0
M  V30 14683 H 1354.84 -0.267253 -0.697556 0
M  V30 14684 H 1357.5 -1.30824 -1.44468 0
M  V30 14685 H 1356.59 -1.02867 -2.9466 0
M  V30 14686 N 1356.9 1.35099 -0.81154 0
M  V30 14687 C 1357.84 2.31618 -0.213536 0
M  V30 14688 C 1358.84 1.56868 0.63944 0
M  V30 14689 O 1360.04 1.71957 0.532051 0
M  V30 14690 H 1356.42 0.750316 -0.0502963 0
M  V30 14691 H 1358.39 2.79593 -1.04262 0
M  V30 14692 C 1357.14 3.4214 0.619293 0
M  V30 14693 H 1356.46 3.9979 -0.0277192 0
M  V30 14694 H 1357.9 4.11941 1.00401 0
M  V30 14695 C 1356.36 2.85607 1.7869 0
M  V30 14696 O 1356.89 2.7956 2.8846 0
M  V30 14697 N 1355.1 2.42587 1.6 0
M  V30 14698 H 1354.64 2.47705 0.707105 0
M  V30 14699 H 1354.6 2.0511 2.38279 0
M  V30 14700 N 1358.37 0.56548 1.47106 0
M  V30 14701 C 1359.32 -0.190542 2.31818 0
M  V30 14702 C 1360.32 -0.901279 1.43434 0
M  V30 14703 O 1361.52 -0.821625 1.60154 0
M  V30 14704 H 1357.9 -0.0803183 0.747698 0
M  V30 14705 H 1359.87 0.542999 2.93418 0
M  V30 14706 C 1358.62 -1.20208 3.2626 0
M  V30 14707 H 1357.94 -0.664608 3.94237 0
M  V30 14708 H 1359.38 -1.7018 3.88349 0
M  V30 14709 C 1357.84 -2.25423 2.50372 0
M  V30 14710 O 1358.37 -3.3249 2.25418 0
M  V30 14711 N 1356.57 -1.9957 2.11235 0
M  V30 14712 H 1356.12 -1.12513 2.31729 0
M  V30 14713 H 1356.08 -2.70182 1.60777 0
M  V30 14714 N 1359.85 -1.54672 0.302354 0
M  V30 14715 C 1361.13 -1.92264 -0.359711 0
M  V30 14716 C 1361.51 -1.22973 -1.71583 0
M  V30 14717 O 1360.86 -0.365942 -2.25551 0
M  V30 14718 C 1361.07 -3.4578 -0.473019 0
M  V30 14719 C 1362.42 -4.18044 -0.743252 0
M  V30 14720 O 1363.44 -3.51822 -0.556778 0
M  V30 14721 O 1362.3 -5.35283 -1.10155 0
M  V30 14722 H 1359.39 -0.802112 -0.201359 0
M  V30 14723 H 1361.94 -1.66041 0.350513 0
M  V30 14724 H 1360.71 -3.88342 0.480265 0
M  V30 14725 H 1360.33 -3.78042 -1.23166 0
M  V30 14726 N 1361.33 -0.0301034 -1.57571 0
M  V30 14727 C 1362.58 0.649283 -1.92125 0
M  V30 14728 C 1362.91 1.71722 -0.90692 0
M  V30 14729 O 1362.18 1.94373 0.0702019 0
M  V30 14730 C 1362.47 1.26482 -3.37156 0
M  V30 14731 C 1362.32 0.206375 -4.49326 0
M  V30 14732 C 1363.64 2.18256 -3.82168 0
M  V30 14733 H 1360.76 0.234561 -0.698678 0
M  V30 14734 H 1363.4 -0.0875634 -1.89798 0
M  V30 14735 H 1361.55 1.89283 -3.3927 0
M  V30 14736 H 1363.22 -0.424268 -4.59345 0
M  V30 14737 H 1361.47 -0.468035 -4.31268 0
M  V30 14738 H 1362.14 0.676689 -5.47837 0
M  V30 14739 H 1364.61 1.65441 -3.81797 0
M  V30 14740 H 1363.49 2.58277 -4.84339 0
M  V30 14741 H 1363.75 3.07411 -3.17727 0
M  V30 14742 N 1362.81 1.55714 0.243056 0
M  V30 14743 C 1363.72 1.93777 1.32241 0
M  V30 14744 C 1364.73 0.838709 1.52452 0
M  V30 14745 O 1365.91 1.14044 1.66 0
M  V30 14746 C 1362.98 2.22808 2.65627 0
M  V30 14747 C 1362.04 3.46166 2.53904 0
M  V30 14748 C 1361.27 3.73802 3.8093 0
M  V30 14749 O 1361.49 3.0345 4.82985 0
M  V30 14750 O 1360.43 4.67323 3.79332 0
M  V30 14751 H 1364.25 2.85718 1.02951 0
M  V30 14752 H 1361.84 1.42646 0.444135 0
M  V30 14753 H 1363.72 2.4277 3.44442 0
M  V30 14754 H 1362.39 1.34045 2.94642 0
M  V30 14755 H 1361.3 3.31506 1.73362 0
M  V30 14756 H 1362.63 4.35244 2.29834 0
M  V30 14757 N 1364.29 -0.50888 1.49158 0
M  V30 14758 C 1365.23 -1.61129 1.65246 0
M  V30 14759 C 1366.2 -1.58582 0.49405 0
M  V30 14760 O 1367.39 -1.76689 0.720122 0
M  V30 14761 C 1364.53 -2.99311 1.71776 0
M  V30 14762 C 1363.64 -3.11933 2.98868 0
M  V30 14763 C 1362.78 -4.408 2.96426 0
M  V30 14764 C 1361.82 -4.47027 4.18131 0
M  V30 14765 N 1360.95 -5.67311 4.13645 0
M  V30 14766 H 1365.79 -1.4672 2.59379 0
M  V30 14767 H 1363.33 -0.713978 1.28611 0
M  V30 14768 H 1365.29 -3.79392 1.73543 0
M  V30 14769 H 1363.92 -3.12442 0.811159 0
M  V30 14770 H 1362.97 -2.24966 3.06748 0
M  V30 14771 H 1364.28 -3.12393 3.8886 0
M  V30 14772 H 1363.44 -5.29194 2.96712 0
M  V30 14773 H 1362.17 -4.42893 2.04199 0
M  V30 14774 H 1361.18 -3.57036 4.18097 0
M  V30 14775 H 1362.4 -4.46656 5.11542 0
M  V30 14776 H 1360.35 -5.70261 3.2425 0
M  V30 14777 H 1360.27 -5.69355 4.97364 0
M  V30 14778 H 1361.54 -6.57934 4.18022 0
M  V30 14779 N 1365.76 -1.381 -0.759346 0
M  V30 14780 C 1366.69 -1.37578 -1.88665 0
M  V30 14781 C 1367.68 -0.242529 -1.68362 0
M  V30 14782 O 1368.86 -0.444751 -1.89039 0
M  V30 14783 C 1365.99 -1.19437 -3.26117 0
M  V30 14784 C 1364.94 -2.29905 -3.61009 0
M  V30 14785 C 1364.27 -1.96874 -4.97136 0
M  V30 14786 C 1365.57 -3.72143 -3.66479 0
M  V30 14787 H 1367.26 -2.31912 -1.89359 0
M  V30 14788 H 1364.81 -1.11632 -0.909631 0
M  V30 14789 H 1366.76 -1.17698 -4.0463 0
M  V30 14790 H 1365.49 -0.21562 -3.25887 0
M  V30 14791 H 1364.15 -2.3082 -2.84812 0
M  V30 14792 H 1363.79 -0.974979 -4.9346 0
M  V30 14793 H 1363.49 -2.70855 -5.21451 0
M  V30 14794 H 1365.02 -1.96744 -5.78035 0
M  V30 14795 H 1366.43 -3.73291 -4.35117 0
M  V30 14796 H 1364.83 -4.45282 -4.02299 0
M  V30 14797 H 1365.9 -4.04874 -2.66843 0
M  V30 14798 N 1367.24 0.986894 -1.22875 0
M  V30 14799 C 1368.19 2.07811 -1.00416 0
M  V30 14800 C 1369.16 1.65925 0.0761734 0
M  V30 14801 O 1370.34 1.90654 -0.0746294 0
M  V30 14802 C 1367.48 3.39941 -0.594471 0
M  V30 14803 C 1366.6 3.95134 -1.74622 0
M  V30 14804 C 1365.73 5.1545 -1.28394 0
M  V30 14805 C 1364.77 5.62794 -2.40686 0
M  V30 14806 N 1363.91 6.74343 -1.95462 0
M  V30 14807 H 1368.75 2.26356 -1.93822 0
M  V30 14808 H 1366.29 1.10966 -0.965661 0
M  V30 14809 H 1368.24 4.15828 -0.338078 0
M  V30 14810 H 1366.87 3.21379 0.302587 0
M  V30 14811 H 1365.93 3.16064 -2.11679 0
M  V30 14812 H 1367.24 4.26247 -2.59066 0
M  V30 14813 H 1366.39 5.98646 -0.98529 0
M  V30 14814 H 1365.13 4.85975 -0.409789 0
M  V30 14815 H 1364.14 4.78182 -2.71333 0
M  V30 14816 H 1365.36 5.9429 -3.28627 0
M  V30 14817 H 1363.31 6.46641 -1.10417 0
M  V30 14818 H 1363.22 7.04806 -2.73469 0
M  V30 14819 H 1364.49 7.6103 -1.68683 0
M  V30 14820 N 1368.72 1.0394 1.18466 0
M  V30 14821 C 1369.95 0.761926 1.92897 0
M  V30 14822 C 1370.37 -0.674618 1.75586 0
M  V30 14823 O 1369.73 -1.46711 1.06515 0
M  V30 14824 C 1369.78 1.13152 3.42387 0
M  V30 14825 O 1368.88 0.256266 4.11603 0
M  V30 14826 H 1368.22 0.280527 0.601831 0
M  V30 14827 H 1370.75 1.3889 1.50235 0
M  V30 14828 H 1370.76 1.0929 3.9309 0
M  V30 14829 H 1369.44 2.17804 3.54308 0
M  V30 14830 H 1368.01 0.354392 3.71212 0
M  V30 14831 N 1370.2 -1.34667 0.818693 0
M  V30 14832 C 1371.42 -2.03173 0.416585 0
M  V30 14833 C 1371.85 -1.61261 -0.968321 0
M  V30 14834 O 1371.21 -0.79517 -1.62932 0
M  V30 14835 C 1371.25 -3.56803 0.521884 0
M  V30 14836 O 1370.36 -4.09827 -0.459953 0
M  V30 14837 H 1369.7 -0.6413 0.172136 0
M  V30 14838 H 1372.23 -1.72006 1.10794 0
M  V30 14839 H 1372.24 -4.06073 0.3961 0
M  V30 14840 H 1370.91 -3.86656 1.53198 0
M  V30 14841 H 1369.49 -3.71744 -0.293405 0
M  V30 14842 N 1371.68 -0.573274 -1.46804 0
M  V30 14843 C 1372.62 0.178246 -2.31916 0
M  V30 14844 C 1373.62 0.89366 -1.4391 0
M  V30 14845 O 1374.82 0.81312 -1.60588 0
M  V30 14846 H 1371.2 0.0763519 -0.748114 0
M  V30 14847 H 1373.17 -0.558552 -2.93126 0
M  V30 14848 C 1371.92 1.18476 -3.26892 0
M  V30 14849 H 1371.24 0.643691 -3.94584 0
M  V30 14850 H 1372.68 1.68118 -3.89246 0
M  V30 14851 C 1371.14 2.24092 -2.51564 0
M  V30 14852 O 1371.67 3.3129 -2.27178 0
M  V30 14853 N 1369.88 1.98447 -2.1229 0
M  V30 14854 H 1369.42 1.11283 -2.32323 0
M  V30 14855 H 1369.38 2.69325 -1.62207 0
M  V30 14856 N 1373.15 1.5451 -0.310553 0
M  V30 14857 C 1374.4 2.00623 0.296343 0
M  V30 14858 C 1374.73 1.19855 1.52802 0
M  V30 14859 O 1374.01 0.277468 1.92511 0
M  V30 14860 C 1374.29 3.54305 0.643448 0
M  V30 14861 C 1374.14 4.45807 -0.598029 0
M  V30 14862 C 1375.46 4.14958 1.46623 0
M  V30 14863 H 1372.58 0.729303 0.106236 0
M  V30 14864 H 1375.22 1.85196 -0.424549 0
M  V30 14865 H 1373.37 3.67581 1.25762 0
M  V30 14866 H 1375.05 4.44421 -1.23643 0
M  V30 14867 H 1373.29 4.16014 -1.22944 0
M  V30 14868 H 1373.96 5.51124 -0.310883 0
M  V30 14869 H 1376.44 4.05176 0.947199 0
M  V30 14870 H 1375.31 5.22627 1.67787 0
M  V30 14871 H 1375.57 3.67445 2.45839 0
M  V30 14872 N 1374.63 0.0384594 1.57553 0
M  V30 14873 C 1375.57 -0.975285 2.06309 0
M  V30 14874 C 1376.54 -1.31174 0.96084 0
M  V30 14875 O 1377.73 -1.4268 1.23185 0
M  V30 14876 C 1374.86 -2.29279 2.49297 0
M  V30 14877 C 1373.9 -2.11028 3.70634 0
M  V30 14878 S 1374.73 -1.40043 5.16864 0
M  V30 14879 C 1375.89 -2.73143 5.63155 0
M  V30 14880 H 1376.12 -0.560293 2.91973 0
M  V30 14881 H 1373.66 -0.173479 1.53422 0
M  V30 14882 H 1375.61 -3.05016 2.74728 0
M  V30 14883 H 1374.28 -2.67909 1.63962 0
M  V30 14884 H 1373.47 -3.08451 3.9859 0
M  V30 14885 H 1373.07 -1.43433 3.45403 0
M  V30 14886 H 1375.36 -3.69354 5.67965 0
M  V30 14887 H 1376.31 -2.49839 6.6256 0
M  V30 14888 H 1376.71 -2.78819 4.90836 0
M  V30 14889 N 1376.11 -1.55841 -0.234795 0
M  V30 14890 C 1377.53 -1.48536 -0.583885 0
M  V30 14891 C 1377.73 -0.731018 -1.87772 0
M  V30 14892 O 1376.78 -0.265287 -2.51103 0
M  V30 14893 C 1378.1 -2.93017 -0.675389 0
M  V30 14894 C 1379.64 -3.03459 -0.766906 0
M  V30 14895 C 1380.12 -4.49272 -0.889868 0
M  V30 14896 N 1381.61 -4.5326 -0.95443 0
M  V30 14897 C 1382.35 -5.63346 -1.06905 0
M  V30 14898 N 1381.84 -6.83215 -1.14845 0
M  V30 14899 N 1383.63 -5.51169 -1.10315 0
M  V30 14900 H 1375.79 -2.0332 0.614405 0
M  V30 14901 H 1378.05 -0.923581 0.213779 0
M  V30 14902 H 1377.75 -3.51099 0.205493 0
M  V30 14903 H 1377.63 -3.4418 -1.54337 0
M  V30 14904 H 1380.02 -2.4545 -1.63823 0
M  V30 14905 H 1380.1 -2.55487 0.126472 0
M  V30 14906 H 1379.74 -5.07895 -0.0230489 0
M  V30 14907 H 1379.67 -4.94937 -1.79847 0
M  V30 14908 H 1382.16 -3.6693 -0.903923 0
M  V30 14909 H 1382.47 -7.62863 -1.23532 0
M  V30 14910 H 1380.82 -6.85952 -1.11781 0
M  V30 14911 H 1384.01 -4.56453 -1.03769 0
M  V30 14912 H 1384.18 -6.36998 -1.18903 0
M  V30 14913 N 1377.59 0.500963 -1.49426 0
M  V30 14914 C 1378.81 1.28383 -1.62888 0
M  V30 14915 C 1379.24 1.85688 -0.300262 0
M  V30 14916 O 1378.6 1.6586 0.73212 0
M  V30 14917 C 1378.65 2.38987 -2.70033 0
M  V30 14918 O 1377.75 3.42837 -2.29208 0
M  V30 14919 H 1377.09 0.379012 -0.545202 0
M  V30 14920 H 1379.62 0.59971 -1.95613 0
M  V30 14921 H 1379.63 2.84749 -2.92202 0
M  V30 14922 H 1378.31 1.96643 -3.66475 0
M  V30 14923 H 1376.88 3.02993 -2.1737 0
M  V30 14924 N 1379.07 1.38501 0.752011 0
M  V30 14925 C 1380.32 1.34112 1.50655 0
M  V30 14926 C 1380.63 -0.0657661 1.95489 0
M  V30 14927 O 1381.84 -0.232199 2.70505 0
M  V30 14928 C 1380.29 2.35514 2.72142 0
M  V30 14929 C 1379.9 3.81831 2.34326 0
M  V30 14930 C 1381.64 2.40171 3.50026 0
M  V30 14931 C 1379.55 4.74915 3.52434 0
M  V30 14932 H 1378.48 0.498519 0.565681 0
M  V30 14933 H 1381.13 1.64064 0.821913 0
M  V30 14934 H 1379.51 1.98607 3.42595 0
M  V30 14935 H 1380.69 4.27685 1.7153 0
M  V30 14936 H 1379 3.80308 1.69573 0
M  V30 14937 H 1381.6 3.06913 4.37845 0
M  V30 14938 H 1381.94 1.42111 3.91293 0
M  V30 14939 H 1382.48 2.75884 2.86588 0
M  V30 14940 H 1379.21 5.74176 3.16232 0
M  V30 14941 H 1378.73 4.33753 4.14268 0
M  V30 14942 H 1380.41 4.93003 4.18995 0
M  V30 14943 N 1380.55 -0.980364 1.23396 0
M  V30 14944 C 1381.5 -2.05753 0.982323 0
M  V30 14945 C 1382.48 -1.6074 -0.0716939 0
M  V30 14946 O 1383.67 -1.76442 0.140438 0
M  V30 14947 C 1380.8 -3.38442 0.575481 0
M  V30 14948 C 1379.89 -3.90054 1.6649 0
M  V30 14949 N 1380.28 -4.14744 2.89519 0
M  V30 14950 C 1378.58 -4.18588 1.53949 0
M  V30 14951 C 1379.28 -4.56877 3.60053 0
M  V30 14952 N 1378.25 -4.61309 2.87567 0
M  V30 14953 H 1382.05 -2.22801 1.91669 0
M  V30 14954 H 1379.57 -1.16314 1.13335 0
M  V30 14955 H 1381.57 -4.15197 0.376477 0
M  V30 14956 H 1380.23 -3.22788 -0.351844 0
M  V30 14957 H 1381.24 -4.02566 3.25824 0
M  V30 14958 H 1377.91 -4.11937 0.679275 0
M  V30 14959 H 1379.3 -4.84498 4.65523 0
M  V30 14960 N 1382.02 -1.04567 -1.17913 0
M  V30 14961 C 1383.27 -0.750538 -1.87647 0
M  V30 14962 C 1383.59 0.72423 -1.81052 0
M  V30 14963 O 1382.86 1.52292 -1.23223 0
M  V30 14964 H 1381.44 -0.274636 -0.694683 0
M  V30 14965 H 1384.1 -1.32349 -1.43072 0
M  V30 14966 H 1383.2 -1.05987 -2.93553 0
M  V30 14967 N 1383.5 1.34231 -0.825823 0
M  V30 14968 C 1384.75 1.9849 -0.415891 0
M  V30 14969 C 1385.08 1.6531 1.01913 0
M  V30 14970 O 1384.36 0.926223 1.7103 0
M  V30 14971 C 1384.64 3.54691 -0.621785 0
M  V30 14972 C 1384.49 3.97603 -2.10313 0
M  V30 14973 C 1385.81 4.4006 -0.0595871 0
M  V30 14974 H 1382.93 0.721032 -0.152582 0
M  V30 14975 H 1385.57 1.5908 -1.03892 0
M  V30 14976 H 1383.72 3.88392 -0.0914439 0
M  V30 14977 H 1385.39 3.74221 -2.69733 0
M  V30 14978 H 1383.64 3.47809 -2.59251 0
M  V30 14979 H 1384.31 5.06352 -2.19799 0
M  V30 14980 H 1386.78 4.12929 -0.512743 0
M  V30 14981 H 1385.66 5.48403 -0.233431 0
M  V30 14982 H 1385.92 4.29798 1.03568 0
M  V30 14983 N 1384.98 0.581051 1.46498 0
M  V30 14984 C 1386.23 0.0658652 2.01993 0
M  V30 14985 C 1386.55 -1.29807 1.45516 0
M  V30 14986 O 1385.82 -1.85177 0.639233 0
M  V30 14987 H 1384.4 0.0213584 0.746695 0
M  V30 14988 H 1387.06 0.756456 1.79621 0
M  V30 14989 H 1386.16 -0.00438128 3.121 0
M  V30 14990 N 1386.46 -1.54343 0.318742 0
M  V30 14991 C 1387.37 -2.27856 -0.558442 0
M  V30 14992 C 1388.38 -1.32029 -1.13333 0
M  V30 14993 O 1389.56 -1.65037 -1.15433 0
M  V30 14994 C 1386.62 -3.01842 -1.70565 0
M  V30 14995 C 1385.69 -4.13245 -1.16305 0
M  V30 14996 C 1384.92 -4.83693 -2.25559 0
M  V30 14997 O 1385.14 -4.53621 -3.4581 0
M  V30 14998 O 1384.08 -5.70708 -1.91249 0
M  V30 14999 H 1387.9 -3.03676 0.0384247 0
M  V30 15000 H 1385.49 -1.4916 0.0845936 0
M  V30 15001 H 1387.37 -3.48189 -2.37365 0
M  V30 15002 H 1386.04 -2.28902 -2.28879 0
M  V30 15003 H 1384.95 -3.71258 -0.460274 0
M  V30 15004 H 1386.28 -4.88214 -0.625111 0
M  V30 15005 N 1387.94 -0.0468143 -1.5753 0
M  V30 15006 C 1388.87 0.927092 -2.14306 0
M  V30 15007 C 1389.85 1.32745 -1.06362 0
M  V30 15008 O 1391.03 1.40293 -1.34281 0
M  V30 15009 C 1388.16 2.20343 -2.68452 0
M  V30 15010 C 1387.12 1.94328 -3.81341 0
M  V30 15011 C 1386.44 3.28379 -4.21985 0
M  V30 15012 C 1387.74 1.26835 -5.06666 0
M  V30 15013 H 1389.44 0.454199 -2.95935 0
M  V30 15014 H 1386.98 0.217029 -1.42355 0
M  V30 15015 H 1388.93 2.8887 -3.0681 0
M  V30 15016 H 1387.66 2.6983 -1.84009 0
M  V30 15017 H 1386.32 1.28214 -3.43448 0
M  V30 15018 H 1385.97 3.75658 -3.34499 0
M  V30 15019 H 1385.67 3.11772 -4.98068 0
M  V30 15020 H 1387.19 3.98145 -4.6294 0
M  V30 15021 H 1388.6 1.85389 -5.42498 0
M  V30 15022 H 1387 1.20569 -5.87863 0
M  V30 15023 H 1388.07 0.243759 -4.84287 0
M  V30 15024 N 1389.41 1.55964 0.226527 0
M  V30 15025 C 1390.35 1.87013 1.30772 0
M  V30 15026 C 1391.33 0.727044 1.4544 0
M  V30 15027 O 1392.51 0.974898 1.61332 0
M  V30 15028 C 1389.64 2.07278 2.67869 0
M  V30 15029 C 1388.68 3.29956 2.70243 0
M  V30 15030 S 1389.52 4.86026 2.24808 0
M  V30 15031 C 1390.67 5.09321 3.6379 0
M  V30 15032 H 1390.9 2.78427 1.0424 0
M  V30 15033 H 1388.44 1.48334 0.428525 0
M  V30 15034 H 1390.4 2.19636 3.468 0
M  V30 15035 H 1389.06 1.1667 2.91628 0
M  V30 15036 H 1388.25 3.41164 3.70975 0
M  V30 15037 H 1387.85 3.16429 1.99371 0
M  V30 15038 H 1390.14 4.97914 4.59443 0
M  V30 15039 H 1391.09 6.11227 3.57501 0
M  V30 15040 H 1391.49 4.37076 3.57247 0
M  V30 15041 N 1390.89 -0.493031 1.4969 0
M  V30 15042 C 1392.12 -1.27046 1.633 0
M  V30 15043 C 1392.54 -1.86278 0.307534 0
M  V30 15044 O 1391.89 -1.68208 -0.707968 0
M  V30 15045 C 1391.94 -2.39501 2.70779 0
M  V30 15046 O 1391.66 -1.82702 3.98185 0
M  V30 15047 C 1393.17 -3.30744 2.95166 0
M  V30 15048 H 1390.39 -0.385042 0.54953 0
M  V30 15049 H 1392.93 -0.590998 1.95774 0
M  V30 15050 H 1391.08 -3.03263 2.41061 0
M  V30 15051 H 1391.5 -2.56588 4.57452 0
M  V30 15052 H 1392.97 -4.05912 3.74085 0
M  V30 15053 H 1393.45 -3.88217 2.05387 0
M  V30 15054 H 1394.06 -2.72741 3.26332 0
M  V30 15055 N 1392.37 -1.38898 -0.744656 0
M  V30 15056 C 1393.3 -1.32739 -1.8685 0
M  V30 15057 C 1394.32 -0.23793 -1.61052 0
M  V30 15058 O 1395.5 -0.496166 -1.71466 0
M  V30 15059 C 1392.6 -1.03602 -3.22676 0
M  V30 15060 C 1391.78 -2.23634 -3.75908 0
M  V30 15061 C 1390.84 -1.91103 -4.90271 0
M  V30 15062 O 1389.86 -2.6369 -5.04437 0
M  V30 15063 N 1391.06 -0.871358 -5.73923 0
M  V30 15064 H 1393.83 -2.29585 -1.92641 0
M  V30 15065 H 1391.39 -1.32875 -0.924979 0
M  V30 15066 H 1393.38 -0.798755 -3.96739 0
M  V30 15067 H 1391.95 -0.155218 -3.12214 0
M  V30 15068 H 1391.17 -2.63371 -2.93307 0
M  V30 15069 H 1392.46 -3.0372 -4.08205 0
M  V30 15070 H 1391.86 -0.269591 -5.65057 0
M  V30 15071 H 1390.42 -0.693984 -6.48095 0
M  V30 15072 N 1393.85 0.973806 -1.23914 0
M  V30 15073 C 1395.09 1.71852 -1.07678 0
M  V30 15074 C 1395.43 1.90357 0.384425 0
M  V30 15075 O 1394.7 1.46063 1.28436 0
M  V30 15076 C 1394.99 3.1129 -1.81026 0
M  V30 15077 C 1394.84 3.00315 -3.3486 0
M  V30 15078 C 1396.16 4.10835 -1.57805 0
M  V30 15079 H 1393.28 0.623749 -0.392564 0
M  V30 15080 H 1395.92 1.13325 -1.52504 0
M  V30 15081 H 1394.07 3.61255 -1.42922 0
M  V30 15082 H 1395.74 2.57823 -3.82524 0
M  V30 15083 H 1393.98 2.36667 -3.63553 0
M  V30 15084 H 1394.65 3.9907 -3.81376 0
M  V30 15085 H 1397.13 3.69705 -1.90939 0
M  V30 15086 H 1396.01 5.06478 -2.11591 0
M  V30 15087 H 1396.27 4.39091 -0.514894 0
M  V30 15088 N 1395.33 1.05191 1.17357 0
M  V30 15089 C 1396.57 0.763113 1.87895 0
M  V30 15090 C 1396.91 -0.708071 1.80831 0
M  V30 15091 O 1396.18 -1.51777 1.21631 0
M  V30 15092 C 1396.46 1.2442 3.37923 0
M  V30 15093 C 1396.32 2.77832 3.53737 0
M  V30 15094 C 1397.64 0.843209 4.31947 0
M  V30 15095 H 1394.75 0.27869 0.682276 0
M  V30 15096 H 1397.4 1.3059 1.38008 0
M  V30 15097 H 1395.55 0.782438 3.80539 0
M  V30 15098 H 1397.22 3.32131 3.20135 0
M  V30 15099 H 1395.46 3.17108 2.96015 0
M  V30 15100 H 1396.13 3.06555 4.59052 0
M  V30 15101 H 1398.61 1.24073 3.97171 0
M  V30 15102 H 1397.48 1.20743 5.35455 0
M  V30 15103 H 1397.75 -0.252802 4.41377 0
M  V30 15104 N 1396.8 -1.33791 0.83293 0
M  V30 15105 C 1397.73 -2.31853 0.276846 0
M  V30 15106 C 1398.72 -1.58702 -0.612184 0
M  V30 15107 O 1399.9 -1.86629 -0.536975 0
M  V30 15108 C 1397.03 -3.42855 -0.55385 0
M  V30 15109 C 1395.98 -4.27333 0.238884 0
M  V30 15110 C 1395.31 -5.29895 -0.715187 0
M  V30 15111 C 1396.61 -5.01692 1.45265 0
M  V30 15112 H 1398.3 -2.78611 1.09618 0
M  V30 15113 H 1395.85 -1.33949 0.528562 0
M  V30 15114 H 1397.8 -4.10479 -0.953133 0
M  V30 15115 H 1396.53 -2.94771 -1.40634 0
M  V30 15116 H 1395.19 -3.61325 0.619656 0
M  V30 15117 H 1394.83 -4.7807 -1.56391 0
M  V30 15118 H 1394.53 -5.87296 -0.188921 0
M  V30 15119 H 1396.06 -6.00387 -1.11211 0
M  V30 15120 H 1397.47 -5.62117 1.12685 0
M  V30 15121 H 1395.87 -5.68715 1.91528 0
M  V30 15122 H 1396.94 -4.30809 2.22558 0
M  V30 15123 N 1398.28 -0.588812 -1.46187 0
M  V30 15124 C 1399.7 -0.250962 -1.57615 0
M  V30 15125 C 1399.9 1.2467 -1.58302 0
M  V30 15126 O 1398.95 2.02876 -1.50325 0
M  V30 15127 C 1400.27 -0.905561 -2.8674 0
M  V30 15128 C 1401.82 -0.879721 -3.00383 0
M  V30 15129 C 1402.29 -1.51398 -4.32253 0
M  V30 15130 N 1403.78 -1.4786 -4.38967 0
M  V30 15131 C 1404.52 -1.93868 -5.39632 0
M  V30 15132 N 1404.01 -2.47876 -6.46938 0
M  V30 15133 N 1405.81 -1.84748 -5.30872 0
M  V30 15134 H 1397.96 -1.56148 -1.43985 0
M  V30 15135 H 1400.22 -0.653028 -0.68721 0
M  V30 15136 H 1399.93 -1.95935 -2.92066 0
M  V30 15137 H 1399.8 -0.417456 -3.74883 0
M  V30 15138 H 1402.19 0.165466 -2.94636 0
M  V30 15139 H 1402.27 -1.40591 -2.137 0
M  V30 15140 H 1401.91 -2.55839 -4.38758 0
M  V30 15141 H 1401.84 -0.962965 -5.17721 0
M  V30 15142 H 1404.33 -1.08387 -3.62023 0
M  V30 15143 H 1404.65 -2.80824 -7.1997 0
M  V30 15144 H 1402.99 -2.51905 -6.47741 0
M  V30 15145 H 1406.18 -1.42307 -4.45944 0
M  V30 15146 H 1406.35 -2.20919 -6.09179 0
M  V30 15147 N 1399.76 1.54172 -0.326923 0
M  V30 15148 C 1401.01 2.00233 0.274098 0
M  V30 15149 C 1401.33 1.21665 1.5239 0
M  V30 15150 O 1400.6 0.319359 1.93279 0
M  V30 15151 H 1399.18 0.739687 0.104271 0
M  V30 15152 H 1401.84 1.8977 -0.444244 0
M  V30 15153 H 1400.94 3.07599 0.528154 0
M  V30 15154 N 1401.24 0.0551678 1.57503 0
M  V30 15155 C 1402.49 -0.6165 1.92467 0
M  V30 15156 C 1402.81 -1.71147 0.934552 0
M  V30 15157 O 1402.08 -1.9589 -0.0199649 0
M  V30 15158 H 1400.66 -0.230714 0.710479 0
M  V30 15159 H 1403.32 0.109111 1.94594 0
M  V30 15160 H 1402.42 -1.05254 2.93816 0
M  V30 15161 N 1402.72 -1.56081 -0.218252 0
M  V30 15162 C 1403.96 -1.78893 -0.940296 0
M  V30 15163 C 1404.29 -0.62425 -1.84738 0
M  V30 15164 O 1403.56 0.358686 -1.92588 0
M  V30 15165 H 1402.14 -0.659828 -0.350193 0
M  V30 15166 H 1404.8 -1.93546 -0.229316 0
M  V30 15167 H 1403.89 -2.71167 -1.54516 0
M  V30 15168 N 1404.2 0.485086 -1.49949 0
M  V30 15169 C 1405.44 1.23816 -1.60237 0
M  V30 15170 C 1405.77 1.9223 -0.296274 0
M  V30 15171 O 1405.03 1.82095 0.716939 0
M  V30 15172 C 1405.32 2.31573 -2.72229 0
M  V30 15173 C 1404.99 1.80508 -4.13192 0
M  V30 15174 C 1403.65 1.66301 -4.5155 0
M  V30 15175 C 1406 1.42471 -5.0135 0
M  V30 15176 C 1403.33 1.1246 -5.75821 0
M  V30 15177 C 1405.68 0.900757 -6.26154 0
M  V30 15178 C 1404.35 0.74521 -6.63327 0
M  V30 15179 H 1403.62 0.453075 -0.586348 0
M  V30 15180 H 1406.27 0.536349 -1.83836 0
M  V30 15181 H 1404.57 3.07606 -2.42663 0
M  V30 15182 H 1406.27 2.89574 -2.77395 0
M  V30 15183 H 1402.86 1.92529 -3.82924 0
M  V30 15184 H 1407.04 1.52287 -4.72358 0
M  V30 15185 H 1402.3 0.991422 -6.03308 0
M  V30 15186 H 1406.47 0.5973 -6.93834 0
M  V30 15187 H 1404.1 0.325838 -7.59501 0
M  V30 15188 N 1405.67 1.39291 0.737279 0
M  V30 15189 C 1406.6 1.40562 1.86452 0
M  V30 15190 C 1407.58 0.269283 1.67955 0
M  V30 15191 O 1408.77 0.474769 1.88307 0
M  V30 15192 C 1405.9 1.2461 3.24175 0
M  V30 15193 C 1404.85 2.35619 3.57306 0
M  V30 15194 C 1404.18 2.04758 4.93941 0
M  V30 15195 C 1405.48 3.77927 3.60512 0
M  V30 15196 H 1407.17 2.34896 1.85646 0
M  V30 15197 H 1404.72 1.13065 0.891756 0
M  V30 15198 H 1406.67 1.2412 4.02706 0
M  V30 15199 H 1405.4 0.267438 3.25503 0
M  V30 15200 H 1404.06 2.35322 2.81104 0
M  V30 15201 H 1403.7 1.05336 4.91847 0
M  V30 15202 H 1403.4 2.79117 5.17076 0
M  V30 15203 H 1404.93 2.05915 5.74832 0
M  V30 15204 H 1406.34 3.80166 4.29123 0
M  V30 15205 H 1404.74 4.51626 3.95164 0
M  V30 15206 H 1405.81 4.09068 2.60368 0
M  V30 15207 N 1407.15 -0.967221 1.24429 0
M  V30 15208 C 1408.56 -1.52488 1.07723 0
M  V30 15209 C 1408.91 -1.93031 -0.351191 0
M  V30 15210 O 1408.04 -1.77376 -1.23963 0
M  V30 15211 C 1408.63 -2.77107 1.94929 0
M  V30 15212 C 1407.19 -3.29227 1.82446 0
M  V30 15213 C 1406.34 -2.02133 1.89835 0
M  V30 15214 H 1409.29 -0.785465 1.37899 0
M  V30 15215 H 1409.31 -3.50459 1.48186 0
M  V30 15216 H 1408.82 -2.47567 2.98885 0
M  V30 15217 H 1406.92 -3.63617 0.813246 0
M  V30 15218 H 1407.04 -3.98095 2.66566 0
M  V30 15219 H 1405.4 -2.16867 1.3357 0
M  V30 15220 H 1406.18 -1.74958 2.95372 0
M  V30 15221 N 1408.63 -1.05812 -1.16797 0
M  V30 15222 C 1409.56 -0.608879 -2.19927 0
M  V30 15223 C 1410.54 0.365798 -1.58432 0
M  V30 15224 O 1411.72 0.27593 -1.8647 0
M  V30 15225 C 1408.85 0.108061 -3.38528 0
M  V30 15226 C 1407.9 -0.822607 -4.18492 0
M  V30 15227 S 1408.73 -2.3152 -4.82865 0
M  V30 15228 C 1409.89 -1.60961 -6.04849 0
M  V30 15229 H 1410.12 -1.48261 -2.57693 0
M  V30 15230 H 1407.65 -0.870648 -1.27511 0
M  V30 15231 H 1409.61 0.515496 -4.0725 0
M  V30 15232 H 1408.27 0.95792 -2.99137 0
M  V30 15233 H 1407.46 -0.267448 -5.0329 0
M  V30 15234 H 1407.07 -1.1697 -3.55238 0
M  V30 15235 H 1409.36 -0.912454 -6.71327 0
M  V30 15236 H 1410.3 -2.43531 -6.64905 0
M  V30 15237 H 1410.71 -1.09431 -5.53792 0
M  V30 15238 N 1410.11 1.33347 -0.840014 0
M  V30 15239 C 1411.34 2.01952 -0.449793 0
M  V30 15240 C 1411.75 1.63197 0.949317 0
M  V30 15241 O 1411.11 0.84589 1.61713 0
M  V30 15242 C 1411.16 3.57102 -0.562178 0
M  V30 15243 O 1410.88 3.94458 -1.90616 0
M  V30 15244 C 1412.38 4.42978 -0.169062 0
M  V30 15245 H 1409.6 0.646843 -0.178425 0
M  V30 15246 H 1412.14 1.70251 -1.1329 0
M  V30 15247 H 1410.3 3.87331 0.0730345 0
M  V30 15248 H 1410.71 4.89167 -1.8925 0
M  V30 15249 H 1412.19 5.51191 -0.298742 0
M  V30 15250 H 1412.66 4.30106 0.889137 0
M  V30 15251 H 1413.27 4.18109 -0.778756 0
M  V30 15252 N 1411.59 0.596556 1.45873 0
M  V30 15253 C 1413 0.173758 1.8589 0
M  V30 15254 C 1413.35 -1.26665 1.49835 0
M  V30 15255 O 1412.47 -1.9588 0.919773 0
M  V30 15256 C 1413.07 0.308567 3.37392 0
M  V30 15257 C 1411.63 -0.0594585 3.76353 0
M  V30 15258 C 1410.77 0.638127 2.69858 0
M  V30 15259 H 1413.72 0.803928 1.36831 0
M  V30 15260 H 1413.75 -0.462294 3.77681 0
M  V30 15261 H 1413.26 1.35701 3.63603 0
M  V30 15262 H 1411.36 -1.1075 3.5576 0
M  V30 15263 H 1411.47 0.326506 4.77986 0
M  V30 15264 H 1409.84 0.0769147 2.54584 0
M  V30 15265 H 1410.62 1.68849 2.98906 0
M  V30 15266 N 1413.06 -1.53996 0.335095 0
M  V30 15267 C 1414 -2.21007 -0.568424 0
M  V30 15268 C 1414.97 -1.19112 -1.10685 0
M  V30 15269 O 1416.16 -1.47898 -1.1687 0
M  V30 15270 C 1413.29 -2.88086 -1.78113 0
M  V30 15271 C 1412.33 -4.03798 -1.37292 0
M  V30 15272 S 1413.16 -5.34005 -0.399865 0
M  V30 15273 C 1414.32 -6.04582 -1.6196 0
M  V30 15274 H 1414.55 -2.973 0.000770174 0
M  V30 15275 H 1412.09 -1.53939 0.119169 0
M  V30 15276 H 1414.04 -3.27353 -2.4769 0
M  V30 15277 H 1412.71 -2.11575 -2.32153 0
M  V30 15278 H 1411.9 -4.49637 -2.27689 0
M  V30 15279 H 1411.5 -3.66264 -0.75673 0
M  V30 15280 H 1413.79 -6.27462 -2.55534 0
M  V30 15281 H 1414.74 -6.97804 -1.20315 0
M  V30 15282 H 1415.14 -5.34634 -1.81181 0
M  V30 15283 N 1414.54 -0.0635198 -1.57472 0
M  V30 15284 C 1415.5 0.891881 -2.11135 0
M  V30 15285 C 1416.5 1.23182 -1.03358 0
M  V30 15286 O 1417.69 1.16646 -1.2938 0
M  V30 15287 C 1414.83 2.19792 -2.60584 0
M  V30 15288 H 1416.02 0.426461 -2.96852 0
M  V30 15289 H 1413.57 0.185069 -1.552 0
M  V30 15290 H 1414.31 2.70889 -1.78297 0
M  V30 15291 H 1414.09 1.96419 -3.39355 0
M  V30 15292 H 1415.58 2.88203 -3.02206 0
M  V30 15293 N 1416.02 1.56195 0.209972 0
M  V30 15294 C 1416.98 1.92514 1.24383 0
M  V30 15295 C 1417.98 0.804793 1.39211 0
M  V30 15296 O 1419.17 1.0724 1.37278 0
M  V30 15297 C 1416.3 2.18613 2.61574 0
M  V30 15298 H 1417.5 2.84992 0.933781 0
M  V30 15299 H 1415.05 1.49656 0.450878 0
M  V30 15300 H 1415.79 1.28724 2.97659 0
M  V30 15301 H 1415.57 3.00241 2.52186 0
M  V30 15302 H 1417.06 2.47767 3.36156 0
M  V30 15303 N 1417.5 -0.477127 1.50204 0
M  V30 15304 C 1418.46 -1.55824 1.68082 0
M  V30 15305 C 1419.46 -1.51039 0.551719 0
M  V30 15306 O 1420.65 -1.53766 0.818638 0
M  V30 15307 C 1417.78 -2.95462 1.70044 0
M  V30 15308 H 1418.98 -1.41292 2.64531 0
M  V30 15309 H 1416.53 -0.70308 1.39594 0
M  V30 15310 H 1417.26 -3.15445 0.752663 0
M  V30 15311 H 1417.05 -3.00343 2.52065 0
M  V30 15312 H 1418.54 -3.73964 1.85851 0
M  V30 15313 N 1418.98 -1.3968 -0.729882 0
M  V30 15314 C 1420.39 -1.33184 -1.30839 0
M  V30 15315 C 1420.74 0.00141129 -1.962 0
M  V30 15316 O 1419.86 0.903523 -1.96635 0
M  V30 15317 C 1420.46 -2.41211 -2.37913 0
M  V30 15318 C 1419.02 -2.3822 -2.91424 0
M  V30 15319 C 1418.16 -2.22832 -1.65049 0
M  V30 15320 H 1421.12 -1.49694 -0.527023 0
M  V30 15321 H 1421.14 -2.08294 -3.18424 0
M  V30 15322 H 1420.65 -3.38234 -1.90313 0
M  V30 15323 H 1418.75 -1.4485 -3.43292 0
M  V30 15324 H 1418.86 -3.33271 -3.44191 0
M  V30 15325 H 1417.23 -1.70095 -1.89578 0
M  V30 15326 H 1418.01 -3.21832 -1.19494 0
M  V30 15327 N 1420.45 0.960609 -1.2494 0
M  V30 15328 C 1421.36 2.0902 -1.06527 0
M  V30 15329 C 1422.38 1.74 -0.00406641 0
M  V30 15330 O 1423.56 2.00367 -0.203744 0
M  V30 15331 C 1420.62 3.39971 -0.679736 0
M  V30 15332 C 1419.68 3.88895 -1.81821 0
M  V30 15333 C 1418.92 5.13597 -1.45098 0
M  V30 15334 O 1419.14 5.69362 -0.343954 0
M  V30 15335 O 1418.07 5.57083 -2.27909 0
M  V30 15336 H 1421.9 2.27453 -2.01243 0
M  V30 15337 H 1419.48 1.07429 -1.03824 0
M  V30 15338 H 1421.37 4.18696 -0.47658 0
M  V30 15339 H 1420.04 3.22822 0.238231 0
M  V30 15340 H 1418.95 3.11201 -2.07617 0
M  V30 15341 H 1420.28 4.10533 -2.7152 0
M  V30 15342 N 1421.93 1.0643 1.16234 0
M  V30 15343 C 1423.18 0.780296 1.86429 0
M  V30 15344 C 1423.5 -0.695335 1.82181 0
M  V30 15345 O 1422.77 -1.50312 1.2563 0
M  V30 15346 H 1421.35 0.285654 0.690225 0
M  V30 15347 H 1424.01 1.34609 1.40949 0
M  V30 15348 H 1423.11 1.10644 2.91829 0
M  V30 15349 N 1423.41 -1.329 0.847073 0
M  V30 15350 C 1424.36 -2.3097 0.27487 0
M  V30 15351 C 1425.35 -1.58508 -0.597625 0
M  V30 15352 O 1426.56 -1.73307 -0.486273 0
M  V30 15353 H 1422.93 -0.748719 0.0701719 0
M  V30 15354 H 1424.9 -2.7673 1.11638 0
M  V30 15355 C 1423.65 -3.43662 -0.528363 0
M  V30 15356 H 1422.98 -3.99576 0.133707 0
M  V30 15357 H 1424.42 -4.14458 -0.894443 0
M  V30 15358 C 1422.88 -2.90244 -1.71055 0
M  V30 15359 O 1423.41 -2.87109 -2.80947 0
M  V30 15360 N 1421.61 -2.46743 -1.53512 0
M  V30 15361 H 1421.16 -2.49493 -0.641181 0
M  V30 15362 H 1421.12 -2.11356 -2.32757 0
M  V30 15363 N 1424.89 -0.604284 -1.45555 0
M  V30 15364 C 1426.13 -0.0983316 -2.02561 0
M  V30 15365 C 1426.47 1.26659 -1.47211 0
M  V30 15366 O 1425.74 1.83476 -0.645519 0
M  V30 15367 C 1426.03 -0.0558349 -3.60057 0
M  V30 15368 C 1425.88 -1.45119 -4.25747 0
M  V30 15369 C 1427.2 0.633708 -4.35514 0
M  V30 15370 H 1424.32 -0.0372071 -0.73606 0
M  V30 15371 H 1426.96 -0.775623 -1.73448 0
M  V30 15372 H 1425.11 0.520935 -3.84992 0
M  V30 15373 H 1426.78 -2.07478 -4.12008 0
M  V30 15374 H 1425.02 -2.01283 -3.84275 0
M  V30 15375 H 1425.69 -1.37372 -5.34633 0
M  V30 15376 H 1428.17 0.143501 -4.15852 0
M  V30 15377 H 1427.05 0.632538 -5.45243 0
M  V30 15378 H 1427.31 1.69917 -4.08143 0
M  V30 15379 N 1426.37 1.53816 -0.343257 0
M  V30 15380 C 1427.31 2.25011 0.513664 0
M  V30 15381 C 1428.28 1.24827 1.09578 0
M  V30 15382 O 1429.47 1.53558 1.13245 0
M  V30 15383 C 1426.61 3.02616 1.65885 0
M  V30 15384 C 1425.72 4.17653 1.10406 0
M  V30 15385 C 1424.86 4.82746 2.21653 0
M  V30 15386 C 1423.9 5.89853 1.63524 0
M  V30 15387 N 1423.03 6.48726 2.68512 0
M  V30 15388 H 1427.87 2.97832 -0.099997 0
M  V30 15389 H 1425.41 1.46973 -0.0611206 0
M  V30 15390 H 1427.37 3.45868 2.33304 0
M  V30 15391 H 1426 2.32092 2.2435 0
M  V30 15392 H 1425.05 3.79045 0.320819 0
M  V30 15393 H 1426.36 4.94691 0.638887 0
M  V30 15394 H 1425.52 5.29068 2.96938 0
M  V30 15395 H 1424.25 4.05131 2.71515 0
M  V30 15396 H 1423.26 5.42914 0.86745 0
M  V30 15397 H 1424.48 6.69375 1.14515 0
M  V30 15398 H 1422.43 5.73975 3.17629 0
M  V30 15399 H 1422.35 7.21236 2.26616 0
M  V30 15400 H 1423.62 6.99701 3.43567 0
M  V30 15401 N 1427.84 0.0718701 1.57436 0
M  V30 15402 C 1428.78 -0.924911 2.09709 0
M  V30 15403 C 1429.79 -1.26136 1.02925 0
M  V30 15404 O 1430.98 -1.21853 1.30438 0
M  V30 15405 C 1428.08 -2.24072 2.54254 0
M  V30 15406 C 1427.25 -2.0831 3.84611 0
M  V30 15407 C 1426.31 -3.23196 4.15248 0
M  V30 15408 O 1425.34 -2.98184 4.84846 0
M  V30 15409 N 1426.54 -4.48293 3.688 0
M  V30 15410 H 1429.3 -0.478605 2.95854 0
M  V30 15411 H 1426.86 -0.113853 1.61499 0
M  V30 15412 H 1428.86 -2.99835 2.71811 0
M  V30 15413 H 1427.43 -2.60201 1.73246 0
M  V30 15414 H 1426.65 -1.17014 3.76432 0
M  V30 15415 H 1427.93 -1.9503 4.69937 0
M  V30 15416 H 1427.33 -4.71501 3.12575 0
M  V30 15417 H 1425.89 -5.21082 3.91556 0
M  V30 15418 N 1429.32 -1.56304 -0.201686 0
M  V30 15419 C 1430.29 -1.93171 -1.2336 0
M  V30 15420 C 1431.29 -0.812164 -1.38782 0
M  V30 15421 O 1432.48 -1.07967 -1.36707 0
M  V30 15422 C 1429.61 -2.19997 -2.60411 0
M  V30 15423 H 1430.8 -2.85483 -0.918654 0
M  V30 15424 H 1428.35 -1.49893 -0.442935 0
M  V30 15425 H 1429.09 -1.30301 -2.96972 0
M  V30 15426 H 1428.87 -3.01574 -2.5059 0
M  V30 15427 H 1430.36 -2.49547 -3.34838 0
M  V30 15428 N 1430.8 0.469154 -1.50455 0
M  V30 15429 C 1431.71 1.59271 -1.7225 0
M  V30 15430 C 1432.73 1.63119 -0.605668 0
M  V30 15431 O 1433.9 1.80952 -0.884222 0
M  V30 15432 C 1430.97 2.95475 -1.81372 0
M  V30 15433 C 1430.03 3.02 -3.05114 0
M  V30 15434 C 1429.26 4.31707 -3.13791 0
M  V30 15435 O 1429.48 5.2232 -2.29211 0
M  V30 15436 O 1428.42 4.43864 -4.06532 0
M  V30 15437 H 1432.24 1.43804 -2.67496 0
M  V30 15438 H 1429.83 0.648855 -1.34574 0
M  V30 15439 H 1431.71 3.76367 -1.89541 0
M  V30 15440 H 1430.39 3.11136 -0.893094 0
M  V30 15441 H 1429.29 2.20178 -3.02444 0
M  V30 15442 H 1430.63 2.91275 -3.96761 0
M  V30 15443 N 1432.28 1.40065 0.722464 0
M  V30 15444 C 1433.69 1.33876 1.30131 0
M  V30 15445 C 1434.04 0.00899369 1.96198 0
M  V30 15446 O 1433.17 -0.893082 1.97112 0
M  V30 15447 C 1433.76 2.42469 2.36631 0
M  V30 15448 C 1432.32 2.39762 2.90157 0
M  V30 15449 C 1431.47 2.23704 1.63865 0
M  V30 15450 H 1434.42 1.49971 0.519077 0
M  V30 15451 H 1434.44 2.0998 3.17315 0
M  V30 15452 H 1433.95 3.39239 1.88517 0
M  V30 15453 H 1432.05 1.46669 3.42519 0
M  V30 15454 H 1432.16 3.35092 3.42419 0
M  V30 15455 H 1430.53 1.71098 1.88674 0
M  V30 15456 H 1431.31 3.22462 1.17785 0
M  V30 15457 N 1433.76 -0.95397 1.25448 0
M  V30 15458 C 1434.67 -2.08452 1.07634 0
M  V30 15459 C 1435.68 -1.73995 0.013294 0
M  V30 15460 O 1436.86 -2.00256 0.214367 0
M  V30 15461 C 1433.92 -3.39606 0.697756 0
M  V30 15462 C 1432.99 -3.87926 1.83881 0
M  V30 15463 C 1432.22 -5.12821 1.47819 0
M  V30 15464 O 1432.44 -5.69172 0.374143 0
M  V30 15465 O 1431.38 -5.55866 2.3086 0
M  V30 15466 H 1435.2 -2.26382 2.02447 0
M  V30 15467 H 1432.79 -1.06877 1.04392 0
M  V30 15468 H 1434.67 -4.18438 0.498778 0
M  V30 15469 H 1433.34 -3.22944 -0.221108 0
M  V30 15470 H 1432.25 -3.10095 2.09265 0
M  V30 15471 H 1433.58 -4.09087 2.73694 0
M  V30 15472 N 1435.24 -1.07045 -1.15668 0
M  V30 15473 C 1436.18 -0.688004 -2.20307 0
M  V30 15474 C 1437.15 0.319081 -1.63006 0
M  V30 15475 O 1438.34 0.206239 -1.89682 0
M  V30 15476 C 1435.48 -0.0886692 -3.44986 0
M  V30 15477 C 1434.59 -1.14685 -4.16499 0
M  V30 15478 C 1433.73 -0.512852 -5.28719 0
M  V30 15479 C 1432.76 -1.55404 -5.92044 0
M  V30 15480 N 1431.9 -0.942848 -6.9574 0
M  V30 15481 H 1436.74 -1.58469 -2.52372 0
M  V30 15482 H 1434.28 -0.792184 -1.23947 0
M  V30 15483 H 1436.24 0.276415 -4.16283 0
M  V30 15484 H 1434.87 0.77139 -3.13448 0
M  V30 15485 H 1433.92 -1.62955 -3.43729 0
M  V30 15486 H 1435.23 -1.93643 -4.59678 0
M  V30 15487 H 1434.38 -0.0952274 -6.06625 0
M  V30 15488 H 1433.12 0.308524 -4.86723 0
M  V30 15489 H 1432.13 -1.98148 -5.12852 0
M  V30 15490 H 1433.35 -2.37765 -6.36117 0
M  V30 15491 H 1431.3 -0.142319 -6.55846 0
M  V30 15492 H 1431.22 -1.6697 -7.37331 0
M  V30 15493 H 1432.48 -0.550621 -7.77553 0
M  V30 15494 N 1436.71 1.32449 -0.85411 0
M  V30 15495 C 1437.62 2.32658 -0.301221 0
M  V30 15496 C 1438.64 1.64025 0.580673 0
M  V30 15497 O 1439.82 1.95568 0.481172 0
M  V30 15498 C 1436.88 3.43049 0.501803 0
M  V30 15499 C 1435.94 4.27374 -0.406166 0
M  V30 15500 C 1435.17 5.32494 0.358627 0
M  V30 15501 O 1435.4 5.4783 1.58865 0
M  V30 15502 O 1434.33 6.0127 -0.275291 0
M  V30 15503 H 1438.16 2.81838 -1.13143 0
M  V30 15504 H 1435.74 1.36063 -0.617032 0
M  V30 15505 H 1437.62 4.10375 0.957608 0
M  V30 15506 H 1436.3 2.9606 1.30882 0
M  V30 15507 H 1435.21 3.6286 -0.910136 0
M  V30 15508 H 1436.54 4.77887 -1.17835 0
M  V30 15509 N 1438.19 0.611994 1.45232 0
M  V30 15510 C 1439.47 0.0407 1.95558 0
M  V30 15511 C 1439.85 -1.42839 1.55436 0
M  V30 15512 O 1439.2 -2.13316 0.819055 0
M  V30 15513 C 1439.41 0.243436 3.4815 0
M  V30 15514 C 1440.75 0.126551 4.24411 0
M  V30 15515 O 1441.78 0.17379 3.55776 0
M  V30 15516 O 1440.64 0.0153526 5.46498 0
M  V30 15517 H 1437.73 -0.0332288 0.826332 0
M  V30 15518 H 1440.28 0.682364 1.55377 0
M  V30 15519 H 1439.05 1.26357 3.70337 0
M  V30 15520 H 1438.67 -0.43328 3.95232 0
M  V30 15521 N 1439.67 -1.53632 0.351409 0
M  V30 15522 C 1440.92 -2.00222 -0.243731 0
M  V30 15523 C 1441.23 -1.24305 -1.51022 0
M  V30 15524 O 1442.44 -1.61411 -2.18309 0
M  V30 15525 C 1440.89 -3.56619 -0.48487 0
M  V30 15526 C 1440.5 -4.414 0.766173 0
M  V30 15527 C 1442.25 -4.11603 -1.03844 0
M  V30 15528 C 1440.15 -5.89321 0.4954 0
M  V30 15529 H 1439.08 -0.74801 -0.0948534 0
M  V30 15530 H 1441.73 -1.77433 0.467957 0
M  V30 15531 H 1440.12 -3.75505 -1.25746 0
M  V30 15532 H 1441.29 -4.34288 1.54047 0
M  V30 15533 H 1439.6 -3.97448 1.24194 0
M  V30 15534 H 1442.2 -5.19736 -1.25611 0
M  V30 15535 H 1442.54 -3.65311 -1.99634 0
M  V30 15536 H 1443.08 -3.96459 -0.326363 0
M  V30 15537 H 1439.82 -6.39863 1.42324 0
M  V30 15538 H 1439.34 -5.99317 -0.240662 0
M  V30 15539 H 1441.02 -6.46897 0.115584 0
M  V30 15540 N 1441.15 -0.0802183 -1.57396 0
M  V30 15541 C 1442.08 0.920242 -2.08822 0
M  V30 15542 C 1443.06 1.2858 -0.995281 0
M  V30 15543 O 1444.24 1.39364 -1.26925 0
M  V30 15544 C 1441.37 2.22589 -2.55288 0
M  V30 15545 C 1440.42 2.01128 -3.76098 0
M  V30 15546 S 1441.25 1.2629 -5.20395 0
M  V30 15547 C 1442.4 2.58116 -5.70199 0
M  V30 15548 H 1442.64 0.482685 -2.93355 0
M  V30 15549 H 1440.17 0.13274 -1.53828 0
M  V30 15550 H 1442.13 2.97625 -2.82718 0
M  V30 15551 H 1440.79 2.63468 -1.71008 0
M  V30 15552 H 1439.98 2.97775 -4.06628 0
M  V30 15553 H 1439.58 1.34225 -3.49084 0
M  V30 15554 H 1441.88 3.54166 -5.77558 0
M  V30 15555 H 1442.82 2.32185 -6.68951 0
M  V30 15556 H 1443.23 2.65707 -4.98056 0
M  V30 15557 N 1442.63 1.56409 0.193394 0
M  V30 15558 C 1443.87 1.80991 0.914875 0
M  V30 15559 C 1444.2 0.654538 1.82837 0
M  V30 15560 O 1443.48 -0.344816 1.91419 0
M  V30 15561 C 1443.76 3.15841 1.72964 0
M  V30 15562 C 1443.62 4.41873 0.840748 0
M  V30 15563 C 1444.93 3.474 2.70188 0
M  V30 15564 H 1442.05 0.658408 0.331161 0
M  V30 15565 H 1444.7 1.89125 0.182161 0
M  V30 15566 H 1442.85 3.09038 2.35431 0
M  V30 15567 H 1444.52 4.60723 0.230654 0
M  V30 15568 H 1442.76 4.33549 0.147558 0
M  V30 15569 H 1443.43 5.32728 1.44586 0
M  V30 15570 H 1445.91 3.54513 2.17852 0
M  V30 15571 H 1444.78 4.42872 3.24278 0
M  V30 15572 H 1445.04 2.7098 3.49317 0
M  V30 15573 N 1444.1 -0.461169 1.50702 0
M  V30 15574 C 1445.04 -1.57702 1.64941 0
M  V30 15575 C 1446.01 -1.54808 0.497312 0
M  V30 15576 O 1447.2 -1.74286 0.718104 0
M  V30 15577 C 1444.33 -2.96285 1.64112 0
M  V30 15578 C 1443.37 -3.17296 2.85001 0
M  V30 15579 S 1444.2 -2.96134 4.46167 0
M  V30 15580 C 1445.36 -4.37042 4.48046 0
M  V30 15581 H 1445.59 -1.45386 2.59327 0
M  V30 15582 H 1443.13 -0.649209 1.40088 0
M  V30 15583 H 1445.08 -3.76178 1.64318 0
M  V30 15584 H 1443.75 -3.05983 0.709442 0
M  V30 15585 H 1442.94 -4.18561 2.80754 0
M  V30 15586 H 1442.54 -2.45191 2.82413 0
M  V30 15587 H 1444.83 -5.29846 4.2222 0
M  V30 15588 H 1445.78 -4.4633 5.49723 0
M  V30 15589 H 1446.18 -4.19584 3.77637 0
M  V30 15590 N 1445.58 -1.40446 -0.715026 0
M  V30 15591 C 1446.86 -1.29253 -1.4681 0
M  V30 15592 C 1447.24 0.0888738 -2.10913 0
M  V30 15593 O 1446.59 1.10172 -2.00186 0
M  V30 15594 C 1446.8 -2.43173 -2.50335 0
M  V30 15595 C 1448.14 -2.83433 -3.1615 0
M  V30 15596 O 1449.17 -2.4277 -2.60655 0
M  V30 15597 O 1448.03 -3.53687 -4.16615 0
M  V30 15598 H 1445.12 -0.507627 -0.652873 0
M  V30 15599 H 1447.67 -1.52367 -0.747153 0
M  V30 15600 H 1446.44 -3.35438 -2.01486 0
M  V30 15601 H 1446.06 -2.21832 -3.29964 0
M  V30 15602 N 1447.06 0.947303 -1.25952 0
M  V30 15603 C 1448.29 1.7273 -1.13895 0
M  V30 15604 C 1448.7 1.86296 0.306488 0
M  V30 15605 O 1448.06 1.36594 1.2103 0
M  V30 15606 C 1448.11 3.13727 -1.79604 0
M  V30 15607 O 1447.83 3.00816 -3.18499 0
M  V30 15608 C 1449.33 4.0797 -1.73422 0
M  V30 15609 H 1446.55 0.54102 -0.39691 0
M  V30 15610 H 1449.1 1.18797 -1.66456 0
M  V30 15611 H 1447.25 3.6458 -1.30997 0
M  V30 15612 H 1447.67 3.89813 -3.50922 0
M  V30 15613 H 1449.14 5.04487 -2.24047 0
M  V30 15614 H 1449.62 4.33594 -0.699481 0
M  V30 15615 H 1450.22 3.63035 -2.21553 0
M  V30 15616 N 1448.54 1.07657 1.15099 0
M  V30 15617 C 1449.49 0.699678 2.19939 0
M  V30 15618 C 1450.46 -0.310432 1.63173 0
M  V30 15619 O 1451.64 -0.196177 1.89789 0
M  V30 15620 C 1448.78 0.106963 3.44934 0
M  V30 15621 C 1447.89 1.16892 4.15885 0
M  V30 15622 C 1447.03 0.540884 5.28439 0
M  V30 15623 C 1446.07 1.58542 5.91211 0
M  V30 15624 N 1445.2 0.979731 6.95231 0
M  V30 15625 H 1450.04 1.59805 2.51528 0
M  V30 15626 H 1447.58 0.798746 1.23525 0
M  V30 15627 H 1449.54 -0.254335 4.16424 0
M  V30 15628 H 1448.17 -0.754756 3.13852 0
M  V30 15629 H 1447.22 1.64775 3.4286 0
M  V30 15630 H 1448.53 1.96078 4.58645 0
M  V30 15631 H 1447.69 0.127397 6.06566 0
M  V30 15632 H 1446.43 -0.282708 4.8688 0
M  V30 15633 H 1445.43 2.00865 5.11794 0
M  V30 15634 H 1446.66 2.41135 6.34847 0
M  V30 15635 H 1444.6 0.177098 6.55761 0
M  V30 15636 H 1444.52 1.70878 7.36435 0
M  V30 15637 H 1445.79 0.591849 7.7725 0
M  V30 15638 N 1450.02 -1.31994 0.861122 0
M  V30 15639 C 1450.95 -2.31214 0.325963 0
M  V30 15640 C 1451.93 -1.59965 -0.578383 0
M  V30 15641 O 1453.11 -1.87726 -0.497268 0
M  V30 15642 C 1450.24 -3.43953 -0.481001 0
M  V30 15643 C 1449.2 -4.2673 0.329474 0
M  V30 15644 C 1448.52 -5.31293 -0.602627 0
M  V30 15645 C 1449.82 -4.98498 1.55874 0
M  V30 15646 H 1451.52 -2.76223 1.15503 0
M  V30 15647 H 1449.06 -1.32797 0.556856 0
M  V30 15648 H 1451.02 -4.12409 -0.86585 0
M  V30 15649 H 1449.74 -2.97687 -1.3435 0
M  V30 15650 H 1448.4 -3.59929 0.696159 0
M  V30 15651 H 1448.05 -4.8128 -1.46215 0
M  V30 15652 H 1447.75 -5.87565 -0.0643044 0
M  V30 15653 H 1449.27 -6.02611 -0.984512 0
M  V30 15654 H 1450.68 -5.596 1.24583 0
M  V30 15655 H 1449.08 -5.64525 2.03548 0
M  V30 15656 H 1450.15 -4.25991 2.31646 0
M  V30 15657 N 1451.49 -0.619688 -1.44906 0
M  V30 15658 C 1452.44 0.0920359 -2.30616 0
M  V30 15659 C 1453.41 0.848114 -1.42815 0
M  V30 15660 O 1454.6 0.831439 -1.71732 0
M  V30 15661 C 1451.74 1.07537 -3.27917 0
M  V30 15662 C 1450.85 0.318904 -4.30821 0
M  V30 15663 C 1449.98 1.29303 -5.15222 0
M  V30 15664 C 1449.02 0.525071 -6.09844 0
M  V30 15665 N 1448.16 1.44909 -6.86983 0
M  V30 15666 H 1453 -0.644834 -2.9094 0
M  V30 15667 H 1450.54 -0.329785 -1.43356 0
M  V30 15668 H 1452.5 1.65874 -3.82808 0
M  V30 15669 H 1451.13 1.7795 -2.6932 0
M  V30 15670 H 1450.18 -0.380192 -3.78495 0
M  V30 15671 H 1451.49 -0.279742 -4.98015 0
M  V30 15672 H 1450.64 1.94809 -5.74573 0
M  V30 15673 H 1449.38 1.92561 -4.48076 0
M  V30 15674 H 1448.39 -0.14355 -5.49613 0
M  V30 15675 H 1449.61 -0.102625 -6.79022 0
M  V30 15676 H 1447.56 2.06908 -6.22515 0
M  V30 15677 H 1447.48 0.90418 -7.50574 0
M  V30 15678 H 1448.74 2.09335 -7.50866 0
M  V30 15679 N 1452.97 1.53444 -0.359552 0
M  V30 15680 C 1454.22 2.00348 0.233109 0
M  V30 15681 C 1454.53 1.25104 1.50361 0
M  V30 15682 O 1455.74 1.62566 2.1745 0
M  V30 15683 C 1454.2 3.56871 0.465951 0
M  V30 15684 C 1453.8 4.40987 -0.789571 0
M  V30 15685 C 1455.55 4.12148 1.0166 0
M  V30 15686 C 1453.46 5.8905 -0.526646 0
M  V30 15687 H 1452.39 0.748502 0.0908851 0
M  V30 15688 H 1455.04 1.77182 -0.47736 0
M  V30 15689 H 1453.42 3.76167 1.23753 0
M  V30 15690 H 1454.59 4.33465 -1.56348 0
M  V30 15691 H 1452.91 3.96784 -1.263 0
M  V30 15692 H 1455.5 5.20395 1.22853 0
M  V30 15693 H 1455.85 3.66364 1.97694 0
M  V30 15694 H 1456.38 3.96626 0.305334 0
M  V30 15695 H 1453.12 6.39099 -1.45715 0
M  V30 15696 H 1452.64 5.99436 0.208875 0
M  V30 15697 H 1454.32 6.46826 -0.149889 0
M  V30 15698 N 1454.45 0.0885642 1.57351 0
M  V30 15699 C 1455.7 -0.57633 1.93291 0
M  V30 15700 C 1456.01 -1.69743 0.971934 0
M  V30 15701 O 1457.22 -2.42304 1.22479 0
M  V30 15702 C 1455.67 -1.07655 3.43422 0
M  V30 15703 C 1455.28 0.0144488 4.47998 0
M  V30 15704 C 1457.03 -1.71455 3.88334 0
M  V30 15705 C 1454.93 -0.500758 5.89276 0
M  V30 15706 H 1453.86 -0.219055 0.721478 0
M  V30 15707 H 1456.51 0.163511 1.8277 0
M  V30 15708 H 1454.9 -1.86988 3.49072 0
M  V30 15709 H 1456.07 0.789696 4.53983 0
M  V30 15710 H 1454.39 0.557237 4.12655 0
M  V30 15711 H 1456.98 -2.11063 4.91281 0
M  V30 15712 H 1457.33 -2.58116 3.26621 0
M  V30 15713 H 1457.86 -0.987159 3.85357 0
M  V30 15714 H 1454.6 0.329088 6.54673 0
M  V30 15715 H 1454.12 -1.24315 5.86776 0
M  V30 15716 H 1455.8 -0.971821 6.3966 0
M  V30 15717 N 1455.93 -1.56509 -0.185096 0
M  V30 15718 C 1456.84 -1.98552 -1.24958 0
M  V30 15719 C 1457.85 -0.894713 -1.49234 0
M  V30 15720 O 1459.03 -1.20126 -1.61653 0
M  V30 15721 C 1456.1 -2.32513 -2.57175 0
M  V30 15722 C 1455.16 -3.55351 -2.40882 0
M  V30 15723 C 1454.39 -3.87683 -3.66794 0
M  V30 15724 O 1454.61 -3.21167 -4.7139 0
M  V30 15725 O 1453.55 -4.8108 -3.61726 0
M  V30 15726 H 1457.37 -2.89342 -0.922756 0
M  V30 15727 H 1454.96 -1.44196 -0.390887 0
M  V30 15728 H 1456.84 -2.55387 -3.35195 0
M  V30 15729 H 1455.51 -1.44888 -2.89464 0
M  V30 15730 H 1454.42 -3.37712 -1.60939 0
M  V30 15731 H 1455.75 -4.43474 -2.13522 0
M  V30 15732 N 1457.41 0.45317 -1.50944 0
M  V30 15733 C 1458.66 1.20076 -1.62064 0
M  V30 15734 C 1458.97 1.92709 -0.335034 0
M  V30 15735 O 1460.17 2.69543 -0.32538 0
M  V30 15736 C 1458.63 2.18283 -2.86148 0
M  V30 15737 C 1458.24 1.5137 -4.21653 0
M  V30 15738 C 1459.98 2.93572 -3.0662 0
M  V30 15739 C 1457.89 2.47968 -5.36904 0
M  V30 15740 H 1456.82 0.451894 -0.603579 0
M  V30 15741 H 1459.47 0.46937 -1.77396 0
M  V30 15742 H 1457.85 2.94789 -2.64415 0
M  V30 15743 H 1459.03 0.805295 -4.53709 0
M  V30 15744 H 1457.34 0.882935 -4.06931 0
M  V30 15745 H 1459.94 3.65903 -3.89897 0
M  V30 15746 H 1460.28 3.54003 -2.1906 0
M  V30 15747 H 1460.81 2.24175 -3.28619 0
M  V30 15748 H 1457.55 1.92249 -6.26674 0
M  V30 15749 H 1457.07 3.16907 -5.09244 0
M  V30 15750 H 1458.75 3.09428 -5.6821 0
M  V30 15751 N 1458.88 1.40823 0.707568 0
M  V30 15752 C 1459.81 1.44485 1.83429 0
M  V30 15753 C 1460.8 0.304848 1.67346 0
M  V30 15754 O 1461.98 0.514605 1.87258 0
M  V30 15755 C 1459.11 1.31458 3.21459 0
M  V30 15756 C 1458.06 2.43145 3.52228 0
M  V30 15757 C 1457.39 2.15189 4.89487 0
M  V30 15758 C 1458.69 3.85489 3.52414 0
M  V30 15759 H 1460.38 2.38781 1.80622 0
M  V30 15760 H 1457.93 1.14931 0.867572 0
M  V30 15761 H 1459.88 1.32635 3.99983 0
M  V30 15762 H 1458.61 0.336422 3.24863 0
M  V30 15763 H 1457.27 2.41231 2.76049 0
M  V30 15764 H 1456.91 1.15745 4.89502 0
M  V30 15765 H 1456.61 2.90022 5.11039 0
M  V30 15766 H 1458.14 2.18062 5.70334 0
M  V30 15767 H 1459.55 3.89183 4.20963 0
M  V30 15768 H 1457.95 4.59906 3.85495 0
M  V30 15769 H 1459.02 4.14499 2.51632 0
M  V30 15770 N 1460.36 -0.94061 1.26453 0
M  V30 15771 C 1461.29 -2.04322 1.03852 0
M  V30 15772 C 1462.31 -1.628 -0.00122618 0
M  V30 15773 O 1463.5 -1.76894 0.238911 0
M  V30 15774 C 1460.6 -3.34394 0.550789 0
M  V30 15775 C 1459.77 -4.0468 1.6599 0
M  V30 15776 C 1458.83 -5.13025 1.17012 0
M  V30 15777 O 1457.85 -5.37699 1.8673 0
M  V30 15778 N 1459.06 -5.80497 0.0188478 0
M  V30 15779 H 1461.82 -2.24276 1.98797 0
M  V30 15780 H 1459.38 -1.11013 1.17846 0
M  V30 15781 H 1461.37 -4.04169 0.207305 0
M  V30 15782 H 1459.94 -3.11108 -0.30509 0
M  V30 15783 H 1459.16 -3.28813 2.17429 0
M  V30 15784 H 1460.45 -4.48392 2.40463 0
M  V30 15785 H 1459.85 -5.62888 -0.563368 0
M  V30 15786 H 1458.41 -6.51259 -0.265556 0
M  V30 15787 N 1461.84 -1.08266 -1.14527 0
M  V30 15788 C 1463.09 -0.811459 -1.85531 0
M  V30 15789 C 1463.42 0.662726 -1.82861 0
M  V30 15790 O 1462.67 1.50296 -1.25338 0
M  V30 15791 C 1462.97 -1.27675 -3.33817 0
M  V30 15792 C 1462.64 -2.7585 -3.56676 0
M  V30 15793 C 1461.3 -3.16319 -3.62623 0
M  V30 15794 C 1463.65 -3.71446 -3.65619 0
M  V30 15795 C 1460.98 -4.51183 -3.75035 0
M  V30 15796 C 1463.33 -5.06083 -3.79556 0
M  V30 15797 C 1461.99 -5.4616 -3.83752 0
M  V30 15798 H 1461.26 -0.296934 -0.678904 0
M  V30 15799 H 1463.91 -1.35533 -1.35288 0
M  V30 15800 H 1462.22 -0.65244 -3.86329 0
M  V30 15801 H 1463.91 -1.04369 -3.8718 0
M  V30 15802 H 1460.5 -2.43526 -3.52694 0
M  V30 15803 H 1464.69 -3.41301 -3.60316 0
M  V30 15804 H 1459.94 -4.81689 -3.76545 0
M  V30 15805 H 1464.12 -5.80022 -3.85418 0
M  V30 15806 H 1461.74 -6.50661 -3.93121 0
M  V30 15807 N 1463.32 1.31536 -0.86811 0
M  V30 15808 C 1464.57 1.96045 -0.474271 0
M  V30 15809 C 1464.88 1.6939 0.978071 0
M  V30 15810 O 1466.09 2.27746 1.47797 0
M  V30 15811 C 1464.54 3.5096 -0.797203 0
M  V30 15812 C 1464.15 3.86456 -2.26618 0
M  V30 15813 C 1465.9 4.21871 -0.471745 0
M  V30 15814 C 1463.8 5.34474 -2.53162 0
M  V30 15815 H 1462.73 0.733737 -0.173627 0
M  V30 15816 H 1465.38 1.49734 -1.06076 0
M  V30 15817 H 1463.77 3.95752 -0.139994 0
M  V30 15818 H 1464.94 3.52629 -2.9663 0
M  V30 15819 H 1463.25 3.28605 -2.55749 0
M  V30 15820 H 1465.85 5.30767 -0.647317 0
M  V30 15821 H 1466.19 4.12131 0.58768 0
M  V30 15822 H 1466.73 3.82706 -1.08542 0
M  V30 15823 H 1463.47 5.49248 -3.57781 0
M  V30 15824 H 1462.99 5.6966 -1.87743 0
M  V30 15825 H 1464.67 6.01716 -2.37797 0
M  V30 15826 N 1464.8 0.627364 1.44575 0
M  V30 15827 C 1465.73 -0.066735 2.33405 0
M  V30 15828 C 1466.71 -0.838666 1.47988 0
M  V30 15829 O 1467.89 -0.805296 1.76716 0
M  V30 15830 C 1465.02 -1.05148 3.31 0
M  V30 15831 C 1463.98 -0.391433 4.26206 0
M  V30 15832 C 1463.3 -1.48581 5.13642 0
M  V30 15833 C 1464.6 0.699942 5.17589 0
M  V30 15834 H 1466.3 0.675029 2.91691 0
M  V30 15835 H 1463.84 0.326066 1.4026 0
M  V30 15836 H 1465.8 -1.54576 3.92026 0
M  V30 15837 H 1464.52 -1.82408 2.70915 0
M  V30 15838 H 1463.18 0.0821694 3.66508 0
M  V30 15839 H 1462.83 -2.2492 4.49911 0
M  V30 15840 H 1462.53 -1.04957 5.7815 0
M  V30 15841 H 1464.05 -1.98198 5.77538 0
M  V30 15842 H 1465.47 0.288911 5.72572 0
M  V30 15843 H 1463.86 1.0591 5.9068 0
M  V30 15844 H 1464.93 1.5686 4.58828 0
M  V30 15845 N 1466.28 -1.53251 0.367684 0
M  V30 15846 C 1467.22 -2.27318 -0.4929 0
M  V30 15847 C 1468.22 -1.30376 -1.08159 0
M  V30 15848 O 1469.42 -1.47996 -1.02455 0
M  V30 15849 H 1465.8 -0.730709 -0.177677 0
M  V30 15850 H 1467.77 -2.98005 0.153525 0
M  V30 15851 C 1466.52 -3.07678 -1.61955 0
M  V30 15852 H 1465.84 -3.82117 -1.17587 0
M  V30 15853 H 1467.28 -3.62678 -2.19638 0
M  V30 15854 C 1465.74 -2.18648 -2.5631 0
M  V30 15855 O 1466.27 -1.79869 -3.5918 0
M  V30 15856 N 1464.48 -1.83239 -2.25548 0
M  V30 15857 H 1464.02 -2.14973 -1.4193 0
M  V30 15858 H 1463.98 -1.23957 -2.88933 0
M  V30 15859 N 1467.75 -0.0969077 -1.57302 0
M  V30 15860 C 1469 0.567212 -1.94706 0
M  V30 15861 C 1469.33 1.67721 -0.978937 0
M  V30 15862 O 1468.61 1.94496 -0.0123016 0
M  V30 15863 C 1468.89 1.12069 -3.42217 0
M  V30 15864 C 1468.74 0.015615 -4.49797 0
M  V30 15865 C 1470.06 2.0185 -3.91081 0
M  V30 15866 H 1467.18 0.204716 -0.707997 0
M  V30 15867 H 1469.82 -0.167984 -1.89256 0
M  V30 15868 H 1467.97 1.74723 -3.46993 0
M  V30 15869 H 1469.65 -0.61871 -4.57132 0
M  V30 15870 H 1467.89 -0.650529 -4.28895 0
M  V30 15871 H 1468.56 0.443724 -5.50214 0
M  V30 15872 H 1471.04 1.49098 -3.8847 0
M  V30 15873 H 1469.91 2.37502 -4.94858 0
M  V30 15874 H 1470.17 2.93659 -3.3048 0
M  V30 15875 N 1469.23 1.56605 0.176793 0
M  V30 15876 C 1470.65 1.50601 0.528354 0
M  V30 15877 C 1470.85 0.800205 1.8493 0
M  V30 15878 O 1469.9 0.358299 2.49945 0
M  V30 15879 C 1471.22 2.95322 0.566172 0
M  V30 15880 C 1472.76 3.06097 0.653751 0
M  V30 15881 C 1473.24 4.52265 0.722511 0
M  V30 15882 N 1474.73 4.5649 0.785548 0
M  V30 15883 C 1475.47 5.66926 0.859232 0
M  V30 15884 N 1474.96 6.87006 0.894088 0
M  V30 15885 N 1476.75 5.54883 0.897832 0
M  V30 15886 H 1468.91 2.00899 -0.689442 0
M  V30 15887 H 1471.17 0.915011 -0.24791 0
M  V30 15888 H 1470.87 3.50095 -0.33566 0
M  V30 15889 H 1470.75 3.49671 1.41456 0
M  V30 15890 H 1473.14 2.51361 1.54601 0
M  V30 15891 H 1473.22 2.54842 -0.221207 0
M  V30 15892 H 1472.86 5.0763 -0.165469 0
M  V30 15893 H 1472.79 5.01271 1.61353 0
M  V30 15894 H 1475.28 3.70032 0.767117 0
M  V30 15895 H 1475.59 7.66922 0.951333 0
M  V30 15896 H 1473.94 6.89628 0.862457 0
M  V30 15897 H 1477.13 4.5999 0.867564 0
M  V30 15898 H 1477.3 6.40972 0.951795 0
M  V30 15899 N 1470.71 -0.445159 1.51182 0
M  V30 15900 C 1471.64 -1.5473 1.74874 0
M  V30 15901 C 1472.62 -1.5923 0.598323 0
M  V30 15902 O 1473.81 -1.75083 0.840219 0
M  V30 15903 C 1470.94 -2.92872 1.86664 0
M  V30 15904 C 1469.89 -3.03235 3.02048 0
M  V30 15905 C 1469.22 -4.43279 2.99012 0
M  V30 15906 C 1470.52 -2.7804 4.42144 0
M  V30 15907 H 1472.21 -1.35156 2.67158 0
M  V30 15908 H 1469.76 -0.648763 1.28558 0
M  V30 15909 H 1471.71 -3.69927 2.01822 0
M  V30 15910 H 1470.43 -3.1366 0.910225 0
M  V30 15911 H 1469.09 -2.28617 2.86583 0
M  V30 15912 H 1468.74 -4.61023 2.01163 0
M  V30 15913 H 1468.44 -4.51144 3.76488 0
M  V30 15914 H 1469.96 -5.22319 3.16252 0
M  V30 15915 H 1471.38 -3.44831 4.58 0
M  V30 15916 H 1469.77 -2.97323 5.21267 0
M  V30 15917 H 1470.84 -1.737 4.52721 0
M  V30 15918 N 1472.19 -1.41197 -0.700089 0
M  V30 15919 C 1473.46 -1.30803 -1.4543 0
M  V30 15920 C 1473.84 0.0664987 -2.10995 0
M  V30 15921 O 1473.19 1.08043 -2.01343 0
M  V30 15922 C 1473.4 -2.45815 -2.47742 0
M  V30 15923 C 1474.75 -2.86771 -3.13126 0
M  V30 15924 O 1475.77 -2.45521 -2.58065 0
M  V30 15925 O 1474.63 -3.58086 -4.1284 0
M  V30 15926 H 1471.73 -0.514523 -0.647453 0
M  V30 15927 H 1474.27 -1.53151 -0.73095 0
M  V30 15928 H 1473.05 -3.37557 -1.97917 0
M  V30 15929 H 1472.67 -2.25319 -3.27593 0
M  V30 15930 N 1473.67 0.933891 -1.2695 0
M  V30 15931 C 1474.9 1.71263 -1.15553 0
M  V30 15932 C 1475.3 1.86948 0.291059 0
M  V30 15933 O 1474.65 1.38173 1.21053 0
M  V30 15934 C 1474.71 3.13479 -1.75986 0
M  V30 15935 C 1474.37 3.21154 -3.2513 0
M  V30 15936 C 1475.37 3.03874 -4.21849 0
M  V30 15937 C 1473.05 3.44311 -3.65726 0
M  V30 15938 C 1475.05 3.09631 -5.57142 0
M  V30 15939 C 1472.74 3.49702 -5.01151 0
M  V30 15940 C 1473.73 3.32379 -5.96668 0
M  V30 15941 O 1473.42 3.37493 -7.29626 0
M  V30 15942 H 1473.15 0.542801 -0.402918 0
M  V30 15943 H 1475.71 1.17877 -1.68209 0
M  V30 15944 H 1473.94 3.6832 -1.178 0
M  V30 15945 H 1475.63 3.73295 -1.59391 0
M  V30 15946 H 1476.39 2.85832 -3.91823 0
M  V30 15947 H 1472.27 3.56847 -2.91859 0
M  V30 15948 H 1475.82 2.96028 -6.31675 0
M  V30 15949 H 1471.71 3.67267 -5.30835 0
M  V30 15950 H 1472.48 3.53988 -7.37994 0
M  V30 15951 N 1475.14 1.08871 1.13951 0
M  V30 15952 C 1476.56 0.817282 1.37086 0
M  V30 15953 C 1476.76 -0.571159 1.93236 0
M  V30 15954 O 1475.82 -1.32708 2.14813 0
M  V30 15955 C 1477.13 1.90386 2.32752 0
M  V30 15956 C 1478.68 1.93043 2.46381 0
M  V30 15957 C 1479.15 3.00828 3.4535 0
M  V30 15958 N 1480.64 3.0003 3.52897 0
M  V30 15959 C 1481.38 3.80073 4.29339 0
M  V30 15960 N 1480.87 4.70008 5.08984 0
M  V30 15961 N 1482.67 3.68355 4.24583 0
M  V30 15962 H 1474.82 1.98393 0.758537 0
M  V30 15963 H 1477.08 0.861229 0.396219 0
M  V30 15964 H 1476.79 2.90233 1.9864 0
M  V30 15965 H 1476.66 1.77722 3.32708 0
M  V30 15966 H 1479.05 0.938382 2.79783 0
M  V30 15967 H 1479.13 2.09785 1.4637 0
M  V30 15968 H 1478.77 4.00242 3.1268 0
M  V30 15969 H 1478.7 2.8133 4.45153 0
M  V30 15970 H 1481.19 2.3485 2.96064 0
M  V30 15971 H 1481.51 5.27678 5.64602 0
M  V30 15972 H 1479.85 4.74047 5.08236 0
M  V30 15973 H 1483.04 2.9746 3.61435 0
M  V30 15974 H 1483.22 4.30974 4.83906 0
M  V30 15975 N 1476.62 -1.31073 0.875073 0
M  V30 15976 C 1477.87 -1.95791 0.484661 0
M  V30 15977 C 1478.18 -1.69907 -0.969074 0
M  V30 15978 O 1479.39 -2.28527 -1.46587 0
M  V30 15979 C 1477.85 -3.50532 0.815804 0
M  V30 15980 C 1477.45 -3.85249 2.28664 0
M  V30 15981 C 1479.2 -4.21615 0.494111 0
M  V30 15982 C 1477.1 -5.33124 2.55993 0
M  V30 15983 H 1476.03 -0.732806 0.177516 0
M  V30 15984 H 1478.69 -1.49169 1.06868 0
M  V30 15985 H 1477.07 -3.95673 0.16098 0
M  V30 15986 H 1478.24 -3.51051 2.98496 0
M  V30 15987 H 1476.56 -3.27244 2.57488 0
M  V30 15988 H 1479.15 -5.30417 0.675456 0
M  V30 15989 H 1479.5 -4.12437 -0.565815 0
M  V30 15990 H 1480.03 -3.82125 1.1057 0
M  V30 15991 H 1476.77 -5.47343 3.60688 0
M  V30 15992 H 1476.29 -5.68657 1.90761 0
M  V30 15993 H 1477.97 -6.00446 2.40984 0
M  V30 15994 N 1478.1 -0.635022 -1.4424 0
M  V30 15995 C 1479.33 -0.146549 -2.06882 0
M  V30 15996 C 1479.75 1.17143 -1.4717 0
M  V30 15997 O 1479.11 1.71952 -0.574636 0
M  V30 15998 C 1479.16 -0.0494694 -3.60566 0
M  V30 15999 O 1478.26 0.993423 -4.00256 0
M  V30 16000 H 1477.6 -0.0865505 -0.658335 0
M  V30 16001 H 1480.13 -0.872803 -1.85049 0
M  V30 16002 H 1480.14 0.139839 -4.0776 0
M  V30 16003 H 1478.82 -1.01169 -4.03407 0
M  V30 16004 H 1477.39 0.778372 -3.64686 0
M  V30 16005 N 1479.58 1.53054 -0.375806 0
M  V30 16006 C 1480.82 2.03312 0.210617 0
M  V30 16007 C 1481.18 1.25671 1.45158 0
M  V30 16008 O 1482.38 1.65986 2.11428 0
M  V30 16009 C 1480.65 3.54089 0.485362 0
M  V30 16010 S 1482.21 4.262 1.044 0
M  V30 16011 H 1479.03 0.708419 0.0605214 0
M  V30 16012 H 1481.63 1.88429 -0.521037 0
M  V30 16013 H 1480.34 4.08192 -0.42513 0
M  V30 16014 H 1479.87 3.73153 1.24581 0
M  V30 16015 H 1481.88 4.38227 2.32747 0
M  V30 16016 N 1481.06 0.105248 1.57248 0
M  V30 16017 C 1481.99 -0.846915 2.176 0
M  V30 16018 C 1482.97 -1.28706 1.11216 0
M  V30 16019 O 1484.15 -1.35213 1.39396 0
M  V30 16020 C 1481.28 -2.10228 2.76445 0
M  V30 16021 C 1480.24 -1.80041 3.8829 0
M  V30 16022 C 1479.56 -3.12491 4.33882 0
M  V30 16023 C 1480.86 -1.07943 5.11024 0
M  V30 16024 H 1482.56 -0.344052 2.97417 0
M  V30 16025 H 1480.1 -0.164045 1.43063 0
M  V30 16026 H 1482.06 -2.77284 3.17319 0
M  V30 16027 H 1480.78 -2.62815 1.93897 0
M  V30 16028 H 1479.44 -1.15379 3.4797 0
M  V30 16029 H 1479.09 -3.62985 3.48211 0
M  V30 16030 H 1478.79 -2.93072 5.09296 0
M  V30 16031 H 1480.31 -3.80688 4.77398 0
M  V30 16032 H 1481.72 -1.65127 5.49004 0
M  V30 16033 H 1480.12 -0.986674 5.91933 0
M  V30 16034 H 1481.19 -0.0638511 4.84858 0
M  V30 16035 N 1482.53 -1.56697 -0.168486 0
M  V30 16036 C 1483.46 -1.99659 -1.21073 0
M  V30 16037 C 1484.45 -0.872625 -1.46011 0
M  V30 16038 O 1485.63 -1.13891 -1.57297 0
M  V30 16039 C 1482.76 -2.35889 -2.54899 0
M  V30 16040 C 1481.71 -3.51272 -2.44524 0
M  V30 16041 C 1481.04 -3.73253 -3.82866 0
M  V30 16042 C 1482.34 -4.84631 -1.94756 0
M  V30 16043 H 1484.03 -2.86974 -0.853593 0
M  V30 16044 H 1481.58 -1.38065 -0.409165 0
M  V30 16045 H 1483.53 -2.64542 -3.28017 0
M  V30 16046 H 1482.26 -1.45486 -2.92406 0
M  V30 16047 H 1480.92 -3.22751 -1.7386 0
M  V30 16048 H 1480.56 -2.80136 -4.17772 0
M  V30 16049 H 1480.26 -4.5089 -3.76792 0
M  V30 16050 H 1481.79 -4.04309 -4.57566 0
M  V30 16051 H 1483.2 -5.12142 -2.5765 0
M  V30 16052 H 1481.6 -5.65925 -1.99623 0
M  V30 16053 H 1482.67 -4.76436 -0.902021 0
M  V30 16054 N 1484.01 0.437135 -1.51416 0
M  V30 16055 C 1485.25 1.19603 -1.65754 0
M  V30 16056 C 1485.62 1.88481 -0.365891 0
M  V30 16057 O 1486.82 2.66028 -0.385046 0
M  V30 16058 C 1485.09 2.18579 -2.82769 0
M  V30 16059 S 1486.65 3.02952 -3.17436 0
M  V30 16060 H 1483.47 0.405591 -0.583966 0
M  V30 16061 H 1486.07 0.487568 -1.89323 0
M  V30 16062 H 1484.77 1.66616 -3.75056 0
M  V30 16063 H 1484.3 2.94005 -2.6139 0
M  V30 16064 H 1486.32 4.20213 -2.63886 0
M  V30 16065 N 1485.49 1.41566 0.692592 0
M  V30 16066 C 1486.74 1.40381 1.44831 0
M  V30 16067 C 1487.05 0.0172068 1.95592 0
M  V30 16068 O 1488.26 -0.11726 2.71247 0
M  V30 16069 C 1486.71 2.46844 2.61908 0
M  V30 16070 C 1486.32 3.91426 2.17921 0
M  V30 16071 C 1488.07 2.548 3.39525 0
M  V30 16072 C 1485.97 4.89436 3.31974 0
M  V30 16073 H 1484.9 0.522062 0.544028 0
M  V30 16074 H 1487.55 1.67402 0.751589 0
M  V30 16075 H 1485.94 2.12959 3.33863 0
M  V30 16076 H 1487.11 4.34575 1.53236 0
M  V30 16077 H 1485.43 3.87158 1.5329 0
M  V30 16078 H 1488.02 3.25207 4.24434 0
M  V30 16079 H 1488.37 1.58579 3.84913 0
M  V30 16080 H 1488.9 2.87791 2.74629 0
M  V30 16081 H 1485.64 5.87071 2.91595 0
M  V30 16082 H 1485.16 4.50933 3.95499 0
M  V30 16083 H 1486.84 5.10331 3.97708 0
M  V30 16084 N 1486.97 -0.927146 1.27443 0
M  V30 16085 C 1488.22 -1.67489 1.13814 0
M  V30 16086 C 1488.54 -1.91917 -0.315914 0
M  V30 16087 O 1487.8 -1.5079 -1.24743 0
M  V30 16088 C 1488.1 -3.0472 1.86764 0
M  V30 16089 C 1487.76 -3 3.36617 0
M  V30 16090 C 1486.43 -2.9842 3.77491 0
M  V30 16091 C 1488.78 -2.91249 4.32231 0
M  V30 16092 C 1486.11 -2.85872 5.12342 0
M  V30 16093 C 1488.46 -2.80242 5.67139 0
M  V30 16094 C 1487.12 -2.77013 6.07306 0
M  V30 16095 H 1486.39 -0.612887 0.416474 0
M  V30 16096 H 1489.04 -1.0812 1.58058 0
M  V30 16097 H 1487.34 -3.67797 1.35029 0
M  V30 16098 H 1489.04 -3.61453 1.73646 0
M  V30 16099 H 1485.63 -3.02017 3.04111 0
M  V30 16100 H 1489.81 -2.91567 4.01625 0
M  V30 16101 H 1485.07 -2.81758 5.42607 0
M  V30 16102 H 1489.24 -2.72437 6.40899 0
M  V30 16103 H 1486.87 -2.67047 7.11751 0
M  V30 16104 N 1488.45 -1.09474 -1.13372 0
M  V30 16105 C 1489.39 -0.73458 -2.18798 0
M  V30 16106 C 1490.36 0.284433 -1.63647 0
M  V30 16107 O 1491.55 0.165958 -1.90077 0
M  V30 16108 C 1488.69 -0.161826 -3.4472 0
M  V30 16109 C 1487.8 -1.23494 -4.13973 0
M  V30 16110 C 1486.94 -0.624886 -5.27512 0
M  V30 16111 C 1485.98 -1.67927 -5.88614 0
M  V30 16112 N 1485.11 -1.09021 -6.93584 0
M  V30 16113 H 1489.95 -1.63787 -2.48954 0
M  V30 16114 H 1487.49 -0.818297 -1.22239 0
M  V30 16115 H 1489.45 0.188053 -4.16776 0
M  V30 16116 H 1488.08 0.70473 -3.15013 0
M  V30 16117 H 1487.13 -1.70209 -3.40196 0
M  V30 16118 H 1488.44 -2.0335 -4.55467 0
M  V30 16119 H 1487.6 -0.22388 -6.06287 0
M  V30 16120 H 1486.33 0.205214 -4.87268 0
M  V30 16121 H 1485.34 -2.08982 -5.08534 0
M  V30 16122 H 1486.56 -2.51204 -6.3093 0
M  V30 16123 H 1484.51 -0.281401 -6.55396 0
M  V30 16124 H 1484.43 -1.82573 -7.33623 0
M  V30 16125 H 1485.7 -0.715428 -7.7621 0
M  V30 16126 N 1489.92 1.30607 -0.882012 0
M  V30 16127 C 1491.34 1.48859 -0.575599 0
M  V30 16128 C 1491.54 1.80908 0.887388 0
M  V30 16129 O 1490.6 1.89492 1.6688 0
M  V30 16130 C 1491.91 2.61405 -1.48619 0
M  V30 16131 C 1493.46 2.75286 -1.48951 0
M  V30 16132 C 1493.93 3.90942 -2.38596 0
M  V30 16133 N 1495.42 3.98248 -2.36543 0
M  V30 16134 C 1496.16 4.87041 -3.0262 0
M  V30 16135 N 1495.65 5.80651 -3.77911 0
M  V30 16136 N 1497.45 4.80385 -2.91867 0
M  V30 16137 H 1489.6 1.08076 -1.82848 0
M  V30 16138 H 1491.86 0.535148 -0.782509 0
M  V30 16139 H 1491.57 2.44535 -2.52775 0
M  V30 16140 H 1491.44 3.57818 -1.19358 0
M  V30 16141 H 1493.83 2.91564 -0.455477 0
M  V30 16142 H 1493.91 1.79504 -1.82242 0
M  V30 16143 H 1493.55 3.75422 -3.42083 0
M  V30 16144 H 1493.48 4.86057 -2.02623 0
M  V30 16145 H 1495.97 3.31282 -1.81827 0
M  V30 16146 H 1496.29 6.45159 -4.25428 0
M  V30 16147 H 1494.63 5.80592 -3.82019 0
M  V30 16148 H 1497.82 4.06234 -2.32576 0
M  V30 16149 H 1498 5.49377 -3.43641 0
M  V30 16150 N 1491.4 0.642663 1.43901 0
M  V30 16151 C 1492.31 -0.0562462 2.34533 0
M  V30 16152 C 1493.33 -0.823457 1.53281 0
M  V30 16153 O 1494.5 -0.773103 1.85971 0
M  V30 16154 C 1491.57 -1.01787 3.31422 0
M  V30 16155 C 1490.63 -0.248759 4.28579 0
M  V30 16156 C 1489.86 -1.16458 5.20839 0
M  V30 16157 O 1490.09 -2.40361 5.17284 0
M  V30 16158 O 1489.02 -0.642671 5.98459 0
M  V30 16159 H 1492.85 0.689476 2.9577 0
M  V30 16160 H 1490.43 0.402847 1.43866 0
M  V30 16161 H 1492.31 -1.5708 3.91029 0
M  V30 16162 H 1490.99 -1.744 2.72702 0
M  V30 16163 H 1489.9 0.347495 3.72483 0
M  V30 16164 H 1491.23 0.437589 4.90251 0
M  V30 16165 N 1492.88 -1.52852 0.383918 0
M  V30 16166 C 1494.13 -2.0151 -0.199989 0
M  V30 16167 C 1494.46 -1.27058 -1.47263 0
M  V30 16168 O 1493.71 -0.357819 -1.92401 0
M  V30 16169 C 1494.01 -3.53602 -0.519674 0
M  V30 16170 C 1493.68 -4.46032 0.660789 0
M  V30 16171 C 1492.34 -4.71018 0.984646 0
M  V30 16172 C 1494.69 -5.00602 1.45077 0
M  V30 16173 C 1492.02 -5.47824 2.10013 0
M  V30 16174 C 1494.37 -5.78627 2.55682 0
M  V30 16175 C 1493.03 -6.01894 2.88582 0
M  V30 16176 H 1492.3 -0.737377 -0.0731812 0
M  V30 16177 H 1494.95 -1.843 0.520157 0
M  V30 16178 H 1493.26 -3.68856 -1.32108 0
M  V30 16179 H 1494.95 -3.88739 -0.984011 0
M  V30 16180 H 1491.54 -4.26745 0.398359 0
M  V30 16181 H 1495.73 -4.81228 1.21381 0
M  V30 16182 H 1490.98 -5.64066 2.3588 0
M  V30 16183 H 1495.16 -6.19914 3.173 0
M  V30 16184 H 1492.78 -6.61192 3.75138 0
M  V30 16185 N 1494.36 -0.113586 -1.5719 0
M  V30 16186 C 1495.64 0.588987 -1.86522 0
M  V30 16187 C 1496.02 1.85163 -1.01379 0
M  V30 16188 O 1495.36 2.28318 -0.0912188 0
M  V30 16189 C 1495.57 0.886633 -3.3755 0
M  V30 16190 C 1496.92 1.24206 -4.06027 0
M  V30 16191 O 1497.95 0.977068 -3.42537 0
M  V30 16192 O 1496.81 1.73914 -5.18089 0
M  V30 16193 H 1493.9 0.296637 -0.771968 0
M  V30 16194 H 1496.45 -0.147681 -1.69056 0
M  V30 16195 H 1495.22 -0.00835421 -3.91299 0
M  V30 16196 H 1494.84 1.67865 -3.60426 0
M  V30 16197 N 1495.84 1.56784 0.160173 0
M  V30 16198 C 1496.75 2.00514 1.21783 0
M  V30 16199 C 1497.76 0.918341 1.47792 0
M  V30 16200 O 1498.94 1.22683 1.59721 0
M  V30 16201 C 1496 2.36575 2.53443 0
M  V30 16202 C 1495.07 3.59138 2.35198 0
M  V30 16203 C 1494.3 3.93469 3.6058 0
M  V30 16204 O 1494.52 3.28625 4.6622 0
M  V30 16205 O 1493.46 4.86774 3.54027 0
M  V30 16206 H 1497.28 2.90774 0.876607 0
M  V30 16207 H 1494.87 1.44799 0.367897 0
M  V30 16208 H 1496.75 2.60687 3.31089 0
M  V30 16209 H 1495.42 1.49474 2.87122 0
M  V30 16210 H 1494.33 3.4023 1.55546 0
M  V30 16211 H 1495.66 4.46815 2.0644 0
M  V30 16212 N 1497.32 -0.429099 1.51646 0
M  V30 16213 C 1498.54 -1.20465 1.68828 0
M  V30 16214 C 1498.97 -1.84044 0.388514 0
M  V30 16215 O 1498.32 -1.69165 -0.652152 0
M  V30 16216 C 1498.37 -2.25831 2.81128 0
M  V30 16217 O 1497.48 -3.31511 2.45305 0
M  V30 16218 H 1496.82 -0.352568 0.562665 0
M  V30 16219 H 1499.35 -0.505698 1.98252 0
M  V30 16220 H 1499.36 -2.70484 3.05455 0
M  V30 16221 H 1498.03 -1.78934 3.7544 0
M  V30 16222 H 1496.61 -2.92277 2.31579 0
M  V30 16223 N 1498.79 -1.41931 -0.685074 0
M  V30 16224 C 1499.74 -1.44824 -1.82013 0
M  V30 16225 C 1500.74 -0.325083 -1.66252 0
M  V30 16226 O 1501.94 -0.497614 -1.72985 0
M  V30 16227 H 1498.32 -0.453362 -0.599972 0
M  V30 16228 H 1500.29 -2.40464 -1.76691 0
M  V30 16229 C 1499.04 -1.35753 -3.20104 0
M  V30 16230 H 1498.36 -2.21469 -3.32854 0
M  V30 16231 H 1499.8 -1.41838 -3.99572 0
M  V30 16232 C 1498.26 -0.0710816 -3.36825 0
M  V30 16233 O 1498.79 0.880155 -3.91939 0
M  V30 16234 N 1496.99 0.00842652 -2.90599 0
M  V30 16235 H 1496.54 -0.766427 -2.45934 0
M  V30 16236 H 1496.5 0.868559 -3.02165 0
M  V30 16237 N 1500.27 0.920374 -1.27933 0
M  V30 16238 C 1501.5 1.70804 -1.17647 0
M  V30 16239 C 1501.92 1.86264 0.262189 0
M  V30 16240 O 1501.28 1.36798 1.18979 0
M  V30 16241 C 1501.33 3.08142 -1.87298 0
M  V30 16242 O 1500.43 3.95279 -1.17593 0
M  V30 16243 H 1499.77 0.523267 -0.408763 0
M  V30 16244 H 1502.3 1.15127 -1.69136 0
M  V30 16245 H 1502.31 3.58414 -1.94945 0
M  V30 16246 H 1500.99 2.96208 -2.91948 0
M  V30 16247 H 1499.56 3.53716 -1.18065 0
M  V30 16248 N 1501.75 1.10074 1.1279 0
M  V30 16249 C 1502.68 0.704023 2.1812 0
M  V30 16250 C 1503.69 -0.25742 1.60752 0
M  V30 16251 O 1504.88 -0.0424559 1.7845 0
M  V30 16252 C 1501.98 0.0176666 3.38895 0
M  V30 16253 C 1501.16 1.00234 4.2576 0
M  V30 16254 C 1500.22 0.348158 5.25047 0
M  V30 16255 O 1499.24 0.997821 5.60386 0
M  V30 16256 N 1500.44 -0.894955 5.7356 0
M  V30 16257 H 1503.21 1.61024 2.52767 0
M  V30 16258 H 1500.77 0.989068 1.28176 0
M  V30 16259 H 1502.76 -0.431346 4.02395 0
M  V30 16260 H 1501.33 -0.7909 3.02429 0
M  V30 16261 H 1500.55 1.62972 3.58934 0
M  V30 16262 H 1501.84 1.669 4.80647 0
M  V30 16263 H 1501.24 -1.4422 5.47007 0
M  V30 16264 H 1499.79 -1.28718 6.38964 0
M  V30 16265 N 1503.23 -1.30138 0.888926 0
M  V30 16266 C 1504.46 -2.00143 0.524437 0
M  V30 16267 C 1504.87 -1.66608 -0.888093 0
M  V30 16268 O 1504.23 -0.905326 -1.58462 0
M  V30 16269 C 1504.28 -3.54769 0.694327 0
M  V30 16270 O 1504 -3.87112 2.05125 0
M  V30 16271 C 1505.5 -4.42045 0.333354 0
M  V30 16272 H 1502.72 -0.639775 0.202309 0
M  V30 16273 H 1505.26 -1.65929 1.19531 0
M  V30 16274 H 1503.42 -3.87335 0.0707712 0
M  V30 16275 H 1503.83 -4.81807 2.07275 0
M  V30 16276 H 1505.31 -5.49702 0.503107 0
M  V30 16277 H 1505.78 -4.33109 -0.728893 0
M  V30 16278 H 1506.39 -4.14931 0.933398 0
M  V30 16279 N 1504.71 -0.650285 -1.43559 0
M  V30 16280 C 1505.93 -0.168483 -2.06715 0
M  V30 16281 C 1506.36 1.15576 -1.48404 0
M  V30 16282 O 1505.71 1.71333 -0.592842 0
M  V30 16283 C 1505.76 -0.0877095 -3.60493 0
M  V30 16284 O 1504.87 0.950915 -4.01287 0
M  V30 16285 H 1504.21 -0.0935281 -0.65738 0
M  V30 16286 H 1506.74 -0.892381 -1.84113 0
M  V30 16287 H 1506.75 0.0965825 -4.07886 0
M  V30 16288 H 1505.42 -1.05442 -4.02312 0
M  V30 16289 H 1504 0.739648 -3.65491 0
M  V30 16290 N 1506.18 1.52647 -0.392018 0
M  V30 16291 C 1507.09 2.30261 0.449093 0
M  V30 16292 C 1508.11 1.37286 1.06905 0
M  V30 16293 O 1509.29 1.70357 1.07427 0
M  V30 16294 C 1506.35 3.09636 1.55969 0
M  V30 16295 C 1505.41 4.18324 0.964566 0
M  V30 16296 C 1504.64 4.93904 2.02224 0
M  V30 16297 O 1504.87 4.69603 3.23773 0
M  V30 16298 O 1503.8 5.79183 1.63802 0
M  V30 16299 H 1507.63 3.03147 -0.183269 0
M  V30 16300 H 1505.21 1.48587 -0.155664 0
M  V30 16301 H 1507.09 3.59118 2.20482 0
M  V30 16302 H 1505.77 2.39561 2.17697 0
M  V30 16303 H 1504.68 3.73031 0.282618 0
M  V30 16304 H 1506.01 4.90641 0.391466 0
M  V30 16305 N 1507.66 0.121921 1.57128 0
M  V30 16306 C 1508.89 -0.543012 1.99647 0
M  V30 16307 C 1509.31 -1.60038 1.00165 0
M  V30 16308 O 1508.66 -1.82499 -0.00504688 0
M  V30 16309 C 1508.71 -1.1665 3.42162 0
M  V30 16310 O 1508.43 -0.151385 4.37838 0
M  V30 16311 C 1509.94 -1.91447 3.99829 0
M  V30 16312 H 1507.16 -0.143524 0.655471 0
M  V30 16313 H 1509.7 0.20912 2.03428 0
M  V30 16314 H 1507.85 -1.86939 3.39312 0
M  V30 16315 H 1508.27 -0.604773 5.21002 0
M  V30 16316 H 1509.74 -2.30394 5.0162 0
M  V30 16317 H 1510.22 -2.7908 3.39133 0
M  V30 16318 H 1510.83 -1.25913 4.06234 0
M  V30 16319 N 1509.14 -1.56867 -0.151857 0
M  V30 16320 C 1510.37 -1.87601 -0.884347 0
M  V30 16321 C 1510.79 -0.710419 -1.74168 0
M  V30 16322 O 1510.15 0.340103 -1.78081 0
M  V30 16323 C 1510.2 -3.16887 -1.72091 0
M  V30 16324 O 1509.3 -3.00479 -2.82464 0
M  V30 16325 H 1508.64 -0.616509 -0.246603 0
M  V30 16326 H 1511.17 -2.04092 -0.144135 0
M  V30 16327 H 1511.18 -3.48785 -2.11691 0
M  V30 16328 H 1509.86 -4.01327 -1.09131 0
M  V30 16329 H 1508.43 -2.79978 -2.46306 0
M  V30 16330 N 1510.62 0.421051 -1.51871 0
M  V30 16331 C 1511.84 1.19568 -1.69465 0
M  V30 16332 C 1512.27 1.83835 -0.398269 0
M  V30 16333 O 1511.63 1.69508 0.643172 0
M  V30 16334 C 1511.67 2.24337 -2.82321 0
M  V30 16335 O 1510.78 3.30205 -2.47059 0
M  V30 16336 H 1510.12 0.349579 -0.564527 0
M  V30 16337 H 1512.65 0.495177 -1.98517 0
M  V30 16338 H 1512.66 2.6886 -3.06885 0
M  V30 16339 H 1511.33 1.76941 -3.76384 0
M  V30 16340 H 1509.91 2.91045 -2.33125 0
M  V30 16341 N 1512.1 1.42293 0.677538 0
M  V30 16342 C 1513.34 1.42334 1.43476 0
M  V30 16343 C 1513.67 0.0397842 1.94959 0
M  V30 16344 O 1512.94 -0.921258 1.72886 0
M  V30 16345 H 1511.52 0.523969 0.532415 0
M  V30 16346 H 1514.18 1.7769 0.800758 0
M  V30 16347 H 1513.27 2.12146 2.28912 0
M  V30 16348 N 1513.57 -0.913576 1.28419 0
M  V30 16349 C 1514.52 -2.03739 1.1222 0
M  V30 16350 C 1515.52 -1.69349 0.0414309 0
M  V30 16351 O 1516.72 -1.78883 0.200213 0
M  V30 16352 H 1513.1 -0.667554 0.34623 0
M  V30 16353 H 1515.07 -2.14544 2.07397 0
M  V30 16354 C 1513.82 -3.38348 0.801003 0
M  V30 16355 H 1513.14 -3.65304 1.6246 0
M  V30 16356 H 1514.58 -4.1771 0.727611 0
M  V30 16357 C 1513.04 -3.3324 -0.495261 0
M  V30 16358 O 1513.57 -3.71606 -1.52551 0
M  V30 16359 N 1511.78 -2.86335 -0.496054 0
M  V30 16360 H 1511.32 -2.55309 0.342773 0
M  V30 16361 H 1511.28 -2.833 -1.3634 0
M  V30 16362 N 1515.05 -1.1067 -1.12204 0
M  V30 16363 C 1516.28 -0.873095 -1.88127 0
M  V30 16364 C 1516.7 0.571099 -1.79221 0
M  V30 16365 O 1516.06 1.40251 -1.14888 0
M  V30 16366 C 1516.11 -1.32922 -3.35208 0
M  V30 16367 O 1515.21 -0.495807 -4.09409 0
M  V30 16368 H 1514.55 -0.315138 -0.584452 0
M  V30 16369 H 1517.08 -1.47413 -1.41882 0
M  V30 16370 H 1517.09 -1.32023 -3.86049 0
M  V30 16371 H 1515.77 -2.38091 -3.41007 0
M  V30 16372 H 1514.35 -0.570216 -3.68515 0
M  V30 16373 N 1516.53 1.29665 -0.895815 0
M  V30 16374 C 1517.76 2.00399 -0.534333 0
M  V30 16375 C 1518.18 1.66632 0.872654 0
M  V30 16376 O 1517.54 0.888811 1.58018 0
M  V30 16377 C 1517.59 3.53154 -0.729023 0
M  V30 16378 O 1516.69 4.11812 0.22023 0
M  V30 16379 H 1516.03 0.630173 -0.209233 0
M  V30 16380 H 1518.56 1.65253 -1.20634 0
M  V30 16381 H 1518.57 4.03073 -0.632179 0
M  V30 16382 H 1517.25 3.77067 -1.75481 0
M  V30 16383 H 1515.82 3.72822 0.0761687 0
M  V30 16384 N 1518.01 0.657889 1.43212 0
M  V30 16385 C 1518.94 -0.0695999 2.29094 0
M  V30 16386 C 1519.95 -0.782463 1.42763 0
M  V30 16387 O 1521.14 -0.63944 1.66654 0
M  V30 16388 C 1518.24 -1.12178 3.19796 0
M  V30 16389 C 1517.42 -0.486131 4.3469 0
M  V30 16390 C 1516.47 -1.43582 5.06232 0
M  V30 16391 O 1515.5 -0.942622 5.61341 0
M  V30 16392 N 1516.7 -2.76966 5.10167 0
M  V30 16393 H 1519.47 0.667565 2.92171 0
M  V30 16394 H 1517.03 0.501022 1.53953 0
M  V30 16395 H 1519.02 -1.75801 3.64522 0
M  V30 16396 H 1517.59 -1.76087 2.58287 0
M  V30 16397 H 1516.81 0.329281 3.92822 0
M  V30 16398 H 1518.1 -0.0425918 5.08782 0
M  V30 16399 H 1517.5 -3.19592 4.66774 0
M  V30 16400 H 1516.05 -3.3588 5.58595 0
M  V30 16401 N 1519.49 -1.52437 0.400108 0
M  V30 16402 C 1520.4 -2.30496 -0.436875 0
M  V30 16403 C 1521.41 -1.37851 -1.06175 0
M  V30 16404 O 1522.59 -1.70924 -1.06522 0
M  V30 16405 C 1519.65 -3.10459 -1.54325 0
M  V30 16406 C 1518.71 -4.18829 -0.942367 0
M  V30 16407 C 1517.95 -4.94969 -1.99602 0
M  V30 16408 O 1518.17 -4.71314 -3.21278 0
M  V30 16409 O 1517.1 -5.80043 -1.60728 0
M  V30 16410 H 1520.93 -3.03045 0.199343 0
M  V30 16411 H 1518.52 -1.48502 0.163541 0
M  V30 16412 H 1520.4 -3.60282 -2.18575 0
M  V30 16413 H 1519.07 -2.40713 -2.16423 0
M  V30 16414 H 1517.98 -3.73176 -0.262831 0
M  V30 16415 H 1519.31 -4.90841 -0.365441 0
M  V30 16416 N 1520.96 -0.130252 -1.57061 0
M  V30 16417 C 1522.21 0.523969 -1.9519 0
M  V30 16418 C 1522.53 1.66493 -1.01514 0
M  V30 16419 O 1521.8 1.95762 -0.0735194 0
M  V30 16420 H 1520.38 0.196553 -0.720677 0
M  V30 16421 H 1523.05 -0.20183 -1.93852 0
M  V30 16422 H 1522.14 0.911156 -2.98504 0
M  V30 16423 N 1522.44 1.56945 0.143535 0
M  V30 16424 C 1523.85 1.72949 0.703249 0
M  V30 16425 C 1524.21 0.745193 1.81497 0
M  V30 16426 O 1523.33 -0.0874144 2.16223 0
M  V30 16427 C 1523.93 3.1359 1.28244 0
M  V30 16428 C 1522.48 3.31184 1.78869 0
M  V30 16429 C 1521.63 2.6887 0.678531 0
M  V30 16430 H 1524.58 1.58487 -0.0821664 0
M  V30 16431 H 1524.6 3.13782 2.15224 0
M  V30 16432 H 1524.12 3.85206 0.473087 0
M  V30 16433 H 1522.22 2.64571 2.6236 0
M  V30 16434 H 1522.33 4.39163 1.91502 0
M  V30 16435 H 1520.69 2.29432 1.10603 0
M  V30 16436 H 1521.48 3.43092 -0.119437 0
M  V30 16437 N 1523.92 -0.412991 1.52093 0
M  V30 16438 C 1525.15 -1.18667 1.70096 0
M  V30 16439 C 1525.57 -1.83622 0.408012 0
M  V30 16440 O 1524.93 -1.69847 -0.634174 0
M  V30 16441 C 1524.98 -2.22837 2.83507 0
M  V30 16442 O 1524.08 -3.2889 2.48807 0
M  V30 16443 H 1523.42 -0.346581 0.566373 0
M  V30 16444 H 1525.95 -0.484642 1.98777 0
M  V30 16445 H 1525.96 -2.67229 3.08306 0
M  V30 16446 H 1524.64 -1.74942 3.77317 0
M  V30 16447 H 1523.21 -2.89804 2.34665 0
M  V30 16448 N 1525.4 -1.4265 -0.669982 0
M  V30 16449 C 1526.35 -1.46746 -1.80467 0
M  V30 16450 C 1527.34 -0.342698 -1.65897 0
M  V30 16451 O 1528.55 -0.515933 -1.72447 0
M  V30 16452 H 1524.92 -0.4597 -0.59513 0
M  V30 16453 H 1526.89 -2.42325 -1.7413 0
M  V30 16454 C 1525.64 -1.39141 -3.18646 0
M  V30 16455 H 1524.97 -2.24987 -3.30486 0
M  V30 16456 H 1526.41 -1.46068 -3.98045 0
M  V30 16457 C 1524.86 -0.106802 -3.36731 0
M  V30 16458 O 1525.39 0.838535 -3.9285 0
M  V30 16459 N 1523.6 -0.0223958 -2.90591 0
M  V30 16460 H 1523.15 -0.792469 -2.45108 0
M  V30 16461 H 1523.11 0.836462 -3.03069 0
M  V30 16462 N 1526.88 0.906753 -1.28902 0
M  V30 16463 C 1528.12 1.65903 -1.16636 0
M  V30 16464 C 1528.46 1.92127 0.282981 0
M  V30 16465 O 1527.73 1.52666 1.20513 0
M  V30 16466 C 1528.01 3.01257 -1.97272 0
M  V30 16467 C 1527.87 2.82143 -3.50308 0
M  V30 16468 C 1529.19 4.01893 -1.7936 0
M  V30 16469 H 1526.31 0.602063 -0.425076 0
M  V30 16470 H 1528.95 1.05081 -1.58297 0
M  V30 16471 H 1527.1 3.53172 -1.61871 0
M  V30 16472 H 1528.77 2.37184 -3.95653 0
M  V30 16473 H 1527.01 2.17063 -3.75588 0
M  V30 16474 H 1527.68 3.78293 -4.01993 0
M  V30 16475 H 1530.16 3.59064 -2.10267 0
M  V30 16476 H 1529.04 4.9455 -2.38141 0
M  V30 16477 H 1529.3 4.35745 -0.746923 0
M  V30 16478 N 1528.36 1.11264 1.11616 0
M  V30 16479 C 1529.77 0.876713 1.64835 0
M  V30 16480 C 1530.12 -0.591384 1.87075 0
M  V30 16481 O 1529.24 -1.45304 1.60361 0
M  V30 16482 C 1529.84 1.58496 2.9944 0
M  V30 16483 C 1528.4 1.39551 3.49575 0
M  V30 16484 C 1527.54 1.62881 2.24422 0
M  V30 16485 H 1530.49 1.26915 0.952804 0
M  V30 16486 H 1530.52 1.02891 3.66325 0
M  V30 16487 H 1530.03 2.65344 2.83221 0
M  V30 16488 H 1528.13 0.349059 3.70961 0
M  V30 16489 H 1528.24 2.14334 4.28483 0
M  V30 16490 H 1526.61 1.05208 2.31955 0
M  V30 16491 H 1527.39 2.70999 2.10748 0
M  V30 16492 N 1529.83 -1.29188 0.902679 0
M  V30 16493 C 1531.08 -1.95052 0.529076 0
M  V30 16494 C 1531.4 -1.7149 -0.92824 0
M  V30 16495 O 1530.67 -1.04834 -1.65489 0
M  V30 16496 H 1529.25 -0.721725 0.192671 0
M  V30 16497 H 1531.91 -1.57384 1.14962 0
M  V30 16498 H 1531.01 -3.03819 0.714179 0
M  V30 16499 N 1531.31 -0.665475 -1.42861 0
M  V30 16500 C 1532.27 0.00932351 -2.29198 0
M  V30 16501 C 1533.27 0.738356 -1.42846 0
M  V30 16502 O 1534.46 0.57776 -1.6434 0
M  V30 16503 C 1531.6 1.02392 -3.25159 0
M  V30 16504 H 1532.79 -0.750481 -2.90358 0
M  V30 16505 H 1530.34 -0.427334 -1.50345 0
M  V30 16506 H 1531.08 1.81254 -2.68919 0
M  V30 16507 H 1530.86 0.504671 -3.88839 0
M  V30 16508 H 1532.35 1.49479 -3.89931 0
M  V30 16509 N 1532.79 1.52222 -0.408187 0
M  V30 16510 C 1533.72 2.29892 0.408868 0
M  V30 16511 C 1534.7 1.34063 1.04695 0
M  V30 16512 O 1535.89 1.6297 1.05615 0
M  V30 16513 C 1533.02 3.11964 1.52629 0
M  V30 16514 C 1531.97 4.15833 1.01326 0
M  V30 16515 C 1531.3 4.86244 2.2242 0
M  V30 16516 C 1532.6 5.22256 0.0679573 0
M  V30 16517 H 1534.29 2.98443 -0.23923 0
M  V30 16518 H 1531.84 1.43528 -0.116496 0
M  V30 16519 H 1533.79 3.65067 2.10486 0
M  V30 16520 H 1532.51 2.41181 2.20225 0
M  V30 16521 H 1531.17 3.63739 0.4571 0
M  V30 16522 H 1530.82 4.11991 2.88569 0
M  V30 16523 H 1530.52 5.56461 1.88746 0
M  V30 16524 H 1532.04 5.42159 2.80885 0
M  V30 16525 H 1533.46 5.70604 0.555295 0
M  V30 16526 H 1531.85 5.9983 -0.179934 0
M  V30 16527 H 1532.92 4.76892 -0.877599 0
M  V30 16528 N 1534.27 0.138579 1.5699 0
M  V30 16529 C 1535.54 -0.559239 1.87435 0
M  V30 16530 C 1535.92 -1.83527 1.04312 0
M  V30 16531 O 1535.27 -2.28144 0.127531 0
M  V30 16532 C 1535.48 -0.83282 3.38918 0
M  V30 16533 C 1536.83 -1.1773 4.07952 0
M  V30 16534 O 1537.85 -0.92245 3.44048 0
M  V30 16535 O 1536.71 -1.6565 5.2079 0
M  V30 16536 H 1533.81 -0.284318 0.77659 0
M  V30 16537 H 1536.35 0.174558 1.688 0
M  V30 16538 H 1535.13 0.0706054 3.91236 0
M  V30 16539 H 1534.75 -1.62109 3.63051 0
M  V30 16540 N 1535.75 -1.57019 -0.13521 0
M  V30 16541 C 1536.99 -1.8399 -0.845818 0
M  V30 16542 C 1537.32 -0.721255 -1.80633 0
M  V30 16543 O 1536.58 0.288778 -1.93558 0
M  V30 16544 C 1536.87 -3.17358 -1.64373 0
M  V30 16545 C 1536.54 -4.43214 -0.828967 0
M  V30 16546 C 1535.2 -4.77391 -0.604226 0
M  V30 16547 C 1537.55 -5.20551 -0.259965 0
M  V30 16548 C 1534.88 -5.86359 0.200033 0
M  V30 16549 C 1537.23 -6.30364 0.531397 0
M  V30 16550 C 1535.9 -6.63083 0.766605 0
M  V30 16551 H 1535.17 -0.673266 -0.309507 0
M  V30 16552 H 1537.82 -1.9119 -0.108903 0
M  V30 16553 H 1536.12 -3.05661 -2.4511 0
M  V30 16554 H 1537.82 -3.35444 -2.19724 0
M  V30 16555 H 1534.41 -4.16427 -1.01421 0
M  V30 16556 H 1538.59 -4.94512 -0.420847 0
M  V30 16557 H 1533.85 -6.10144 0.391646 0
M  V30 16558 H 1538.02 -6.89479 0.979371 0
M  V30 16559 H 1535.65 -7.47354 1.39164 0
M  V30 16560 N 1537.22 0.404919 -1.52309 0
M  V30 16561 C 1538.13 1.51822 -1.7885 0
M  V30 16562 C 1539.15 1.60403 -0.674307 0
M  V30 16563 O 1540.33 1.77038 -0.960175 0
M  V30 16564 C 1537.39 2.87516 -1.9374 0
M  V30 16565 C 1536.45 2.88787 -3.17648 0
M  V30 16566 C 1535.69 4.18009 -3.31819 0
M  V30 16567 O 1535.91 5.12129 -2.51158 0
M  V30 16568 O 1534.84 4.26222 -4.24992 0
M  V30 16569 H 1538.67 1.32329 -2.73354 0
M  V30 16570 H 1536.25 0.591193 -1.37205 0
M  V30 16571 H 1538.14 3.6799 -2.05333 0
M  V30 16572 H 1536.81 3.07068 -1.02425 0
M  V30 16573 H 1535.72 2.07152 -3.11511 0
M  V30 16574 H 1537.05 2.74185 -4.08758 0
M  V30 16575 N 1538.7 1.43003 0.662408 0
M  V30 16576 C 1539.65 1.43898 1.76854 0
M  V30 16577 C 1540.64 0.308629 1.57912 0
M  V30 16578 O 1541.83 0.551757 1.6818 0
M  V30 16579 C 1538.96 1.35585 3.15391 0
M  V30 16580 C 1538.04 2.53614 3.39913 0
M  V30 16581 N 1538.43 3.78998 3.34954 0
M  V30 16582 C 1536.73 2.48141 3.70597 0
M  V30 16583 C 1537.43 4.57467 3.59303 0
M  V30 16584 N 1536.41 3.8806 3.80671 0
M  V30 16585 H 1540.21 2.38722 1.71432 0
M  V30 16586 H 1537.73 1.37526 0.863728 0
M  V30 16587 H 1539.72 1.34308 3.94673 0
M  V30 16588 H 1538.38 0.417735 3.22002 0
M  V30 16589 H 1539.39 4.11417 3.14574 0
M  V30 16590 H 1536.07 1.62971 3.84379 0
M  V30 16591 H 1537.46 5.66475 3.61326 0
M  V30 16592 N 1540.18 -0.899904 1.29381 0
M  V30 16593 C 1541.43 -1.64502 1.16713 0
M  V30 16594 C 1541.74 -1.93577 -0.280563 0
M  V30 16595 O 1542.95 -2.66305 -0.528563 0
M  V30 16596 C 1541.4 -2.96414 2.04125 0
M  V30 16597 C 1541.01 -2.74935 3.53716 0
M  V30 16598 C 1542.76 -3.74337 2.0018 0
M  V30 16599 C 1540.66 -4.02571 4.33232 0
M  V30 16600 H 1539.59 -0.617121 0.433218 0
M  V30 16601 H 1542.24 -0.997521 1.54019 0
M  V30 16602 H 1540.63 -3.62375 1.59687 0
M  V30 16603 H 1541.8 -2.17567 4.06203 0
M  V30 16604 H 1540.12 -2.10407 3.5933 0
M  V30 16605 H 1542.71 -4.6897 2.56849 0
M  V30 16606 H 1543.06 -4.04559 0.981735 0
M  V30 16607 H 1543.59 -3.15216 2.4266 0
M  V30 16608 H 1540.33 -3.77516 5.35875 0
M  V30 16609 H 1539.85 -4.59499 3.85514 0
M  V30 16610 H 1541.53 -4.70719 4.43884 0
M  V30 16611 N 1541.66 -1.11854 -1.11024 0
M  V30 16612 C 1542.57 -0.79368 -2.20767 0
M  V30 16613 C 1543.58 0.214996 -1.72667 0
M  V30 16614 O 1544.76 0.0500976 -2.01338 0
M  V30 16615 C 1541.83 -0.246375 -3.45823 0
M  V30 16616 C 1540.89 -1.31421 -4.0869 0
M  V30 16617 C 1540.12 -0.792922 -5.27777 0
M  V30 16618 O 1540.34 0.375492 -5.69163 0
M  V30 16619 O 1539.28 -1.55971 -5.8134 0
M  V30 16620 H 1543.1 -1.71011 -2.50976 0
M  V30 16621 H 1540.69 -0.894752 -1.19643 0
M  V30 16622 H 1542.57 0.0542632 -4.21365 0
M  V30 16623 H 1541.24 0.642703 -3.17255 0
M  V30 16624 H 1540.15 -1.66792 -3.3486 0
M  V30 16625 H 1541.48 -2.17683 -4.41446 0
M  V30 16626 N 1543.14 1.28707 -0.909517 0
M  V30 16627 C 1544.05 2.31171 -0.399628 0
M  V30 16628 C 1545.06 1.6634 0.510582 0
M  V30 16629 O 1546.24 1.97432 0.397792 0
M  V30 16630 C 1543.3 3.44869 0.355852 0
M  V30 16631 C 1542.36 4.25267 -0.587065 0
M  V30 16632 C 1541.6 5.33536 0.132456 0
M  V30 16633 O 1541.82 5.54075 1.35486 0
M  V30 16634 O 1540.75 5.99561 -0.530062 0
M  V30 16635 H 1544.58 2.76785 -1.24995 0
M  V30 16636 H 1542.17 1.33323 -0.674186 0
M  V30 16637 H 1544.05 4.14068 0.782692 0
M  V30 16638 H 1542.72 3.01345 1.18207 0
M  V30 16639 H 1541.63 3.58673 -1.06322 0
M  V30 16640 H 1542.96 4.72459 -1.37998 0
M  V30 16641 N 1544.61 0.673042 1.42506 0
M  V30 16642 C 1545.55 -0.0452975 2.29155 0
M  V30 16643 C 1546.56 -0.767277 1.43585 0
M  V30 16644 O 1547.75 -0.621728 1.67322 0
M  V30 16645 C 1544.85 -1.0878 3.20967 0
M  V30 16646 C 1544.02 -0.439999 4.35181 0
M  V30 16647 C 1543.08 -1.38205 5.07726 0
M  V30 16648 O 1542.11 -0.883031 5.62309 0
M  V30 16649 N 1543.31 -2.7154 5.13075 0
M  V30 16650 H 1546.07 0.698517 2.91446 0
M  V30 16651 H 1543.63 0.517322 1.53412 0
M  V30 16652 H 1545.63 -1.71925 3.66366 0
M  V30 16653 H 1544.2 -1.73337 2.6014 0
M  V30 16654 H 1543.42 0.370926 3.92451 0
M  V30 16655 H 1544.7 0.0113738 5.08799 0
M  V30 16656 H 1544.1 -3.14623 4.70137 0
M  V30 16657 H 1542.66 -3.29937 5.62126 0
M  V30 16658 N 1546.09 -1.52004 0.416254 0
M  V30 16659 C 1547.06 -2.2579 -0.393882 0
M  V30 16660 C 1548.06 -1.28427 -0.967637 0
M  V30 16661 O 1549.25 -1.52311 -0.845396 0
M  V30 16662 C 1546.38 -3.03361 -1.55515 0
M  V30 16663 H 1547.57 -2.98835 0.252492 0
M  V30 16664 H 1545.12 -1.55384 0.168929 0
M  V30 16665 H 1545.86 -2.34682 -2.23818 0
M  V30 16666 H 1545.64 -3.74852 -1.15015 0
M  V30 16667 H 1547.13 -3.5931 -2.12805 0
M  V30 16668 N 1547.57 -0.146903 -1.56914 0
M  V30 16669 C 1548.48 0.805875 -2.20324 0
M  V30 16670 C 1549.5 1.27178 -1.18751 0
M  V30 16671 O 1550.67 1.32899 -1.51327 0
M  V30 16672 C 1547.74 2.02755 -2.81232 0
M  V30 16673 C 1546.8 1.61089 -3.97931 0
M  V30 16674 C 1546.03 2.77433 -4.55924 0
M  V30 16675 O 1546.25 3.93643 -4.12797 0
M  V30 16676 O 1545.19 2.52911 -5.46187 0
M  V30 16677 H 1549.01 0.296098 -3.02253 0
M  V30 16678 H 1546.6 0.0801175 -1.49185 0
M  V30 16679 H 1548.48 2.74252 -3.19944 0
M  V30 16680 H 1547.16 2.52686 -2.02316 0
M  V30 16681 H 1546.06 0.86616 -3.63935 0
M  V30 16682 H 1547.4 1.15874 -4.78366 0
M  V30 16683 N 1549.05 1.57088 0.126881 0
M  V30 16684 C 1550.3 1.84071 0.834397 0
M  V30 16685 C 1550.62 0.730896 1.80784 0
M  V30 16686 O 1549.89 -0.245791 1.94352 0
M  V30 16687 H 1548.47 0.679123 0.311128 0
M  V30 16688 H 1551.13 1.94554 0.116083 0
M  V30 16689 H 1550.23 2.79714 1.38443 0
M  V30 16690 N 1550.53 -0.396836 1.52522 0
M  V30 16691 C 1551.78 -1.13978 1.66409 0
M  V30 16692 C 1552.09 -1.91333 0.406326 0
M  V30 16693 O 1553.29 -2.6815 0.425195 0
M  V30 16694 C 1551.75 -2.07512 2.94052 0
M  V30 16695 C 1551.36 -1.35616 4.2698 0
M  V30 16696 C 1553.1 -2.8199 3.17304 0
M  V30 16697 C 1551.01 -2.2787 5.45737 0
M  V30 16698 H 1549.94 -0.429181 0.619935 0
M  V30 16699 H 1552.59 -0.403207 1.79015 0
M  V30 16700 H 1550.97 -2.84773 2.75174 0
M  V30 16701 H 1552.15 -0.636349 4.56385 0
M  V30 16702 H 1550.46 -0.731297 4.09928 0
M  V30 16703 H 1553.06 -3.5118 4.03208 0
M  V30 16704 H 1553.4 -3.45629 2.32048 0
M  V30 16705 H 1553.93 -2.11824 3.36712 0
M  V30 16706 H 1550.67 -1.68858 6.33378 0
M  V30 16707 H 1550.19 -2.97789 5.20655 0
M  V30 16708 H 1551.87 -2.88126 5.79303 0
M  V30 16709 N 1552.01 -1.43353 -0.654814 0
M  V30 16710 C 1553.25 -1.44885 -1.41473 0
M  V30 16711 C 1553.58 -0.0725577 -1.94365 0
M  V30 16712 O 1552.84 0.9222 -1.72609 0
M  V30 16713 C 1553.13 -2.437 -2.61429 0
M  V30 16714 C 1552.8 -3.89612 -2.26965 0
M  V30 16715 C 1551.46 -4.29353 -2.17278 0
M  V30 16716 C 1553.81 -4.81569 -1.99351 0
M  V30 16717 C 1551.14 -5.59005 -1.7813 0
M  V30 16718 C 1553.49 -6.11584 -1.61702 0
M  V30 16719 C 1552.16 -6.50303 -1.50539 0
M  V30 16720 H 1551.43 -0.530172 -0.517686 0
M  V30 16721 H 1554.08 -1.76422 -0.744824 0
M  V30 16722 H 1552.38 -2.05561 -3.33544 0
M  V30 16723 H 1554.08 -2.42141 -3.19638 0
M  V30 16724 H 1550.67 -3.58159 -2.35414 0
M  V30 16725 H 1554.85 -4.51639 -2.05757 0
M  V30 16726 H 1550.11 -5.87845 -1.68072 0
M  V30 16727 H 1554.28 -6.82312 -1.39365 0
M  V30 16728 H 1551.91 -7.50673 -1.19975 0
M  V30 16729 N 1553.48 0.89303 -1.29857 0
M  V30 16730 C 1554.73 1.64088 -1.17981 0
M  V30 16731 C 1555.05 1.93156 0.267533 0
M  V30 16732 O 1554.32 1.56233 1.18186 0
M  V30 16733 H 1552.9 0.608241 -0.43365 0
M  V30 16734 H 1555.56 1.07042 -1.62874 0
M  V30 16735 H 1554.66 2.59446 -1.73477 0
M  V30 16736 N 1554.96 1.12442 1.10429 0
M  V30 16737 C 1556.21 0.878021 1.82031 0
M  V30 16738 C 1556.53 -0.597787 1.85611 0
M  V30 16739 O 1555.8 -1.43442 1.33422 0
M  V30 16740 H 1554.38 0.321839 0.674113 0
M  V30 16741 H 1557.04 1.41891 1.33615 0
M  V30 16742 H 1556.14 1.25957 2.85554 0
M  V30 16743 N 1556.44 -1.28223 0.91633 0
M  V30 16744 C 1557.66 -1.99523 0.566147 0
M  V30 16745 C 1558.09 -1.68 -0.846034 0
M  V30 16746 O 1557.45 -0.913838 -1.56584 0
M  V30 16747 C 1557.5 -3.51949 0.785114 0
M  V30 16748 O 1556.6 -4.1211 -0.154686 0
M  V30 16749 H 1555.94 -0.626764 0.219232 0
M  V30 16750 H 1558.47 -1.63313 1.23247 0
M  V30 16751 H 1558.48 -4.02016 0.696224 0
M  V30 16752 H 1557.16 -3.74227 1.81457 0
M  V30 16753 H 1555.73 -3.72896 -0.0168463 0
M  V30 16754 N 1557.92 -0.68059 -1.42147 0
M  V30 16755 C 1558.83 -0.00595573 -2.34599 0
M  V30 16756 C 1559.84 0.782528 -1.55411 0
M  V30 16757 O 1561.02 0.723524 -1.87955 0
M  V30 16758 C 1558.08 0.92964 -3.34004 0
M  V30 16759 C 1557.15 0.135041 -4.29088 0
M  V30 16760 C 1556.38 1.02607 -5.23744 0
M  V30 16761 O 1556.6 2.26562 -5.23475 0
M  V30 16762 O 1555.54 0.483774 -5.99953 0
M  V30 16763 H 1559.36 -0.767652 -2.93838 0
M  V30 16764 H 1556.95 -0.440849 -1.42748 0
M  V30 16765 H 1558.83 1.46657 -3.95057 0
M  V30 16766 H 1557.5 1.67109 -2.7723 0
M  V30 16767 H 1556.41 -0.44613 -3.7143 0
M  V30 16768 H 1557.74 -0.567417 -4.88918 0
M  V30 16769 N 1559.4 1.51781 -0.424309 0
M  V30 16770 C 1560.31 2.31162 0.40015 0
M  V30 16771 C 1561.32 1.39523 1.03969 0
M  V30 16772 O 1562.5 1.72597 1.0379 0
M  V30 16773 C 1559.56 3.12875 1.49366 0
M  V30 16774 C 1558.62 4.20275 0.875616 0
M  V30 16775 C 1557.86 4.98082 1.91702 0
M  V30 16776 O 1558.08 4.76365 3.13739 0
M  V30 16777 O 1557.01 5.82527 1.5148 0
M  V30 16778 H 1560.84 3.0269 -0.247529 0
M  V30 16779 H 1558.42 1.48223 -0.187146 0
M  V30 16780 H 1560.31 3.63714 2.12815 0
M  V30 16781 H 1558.98 2.44125 2.12567 0
M  V30 16782 H 1557.89 3.73546 0.203429 0
M  V30 16783 H 1559.22 4.91361 0.287306 0
M  V30 16784 N 1560.87 0.155222 1.56834 0
M  V30 16785 C 1561.82 -0.798342 2.1847 0
M  V30 16786 C 1562.82 -1.24931 1.14405 0
M  V30 16787 O 1564.02 -1.21684 1.32639 0
M  V30 16788 H 1560.4 -0.275681 0.699646 0
M  V30 16789 H 1562.37 -0.254371 2.97314 0
M  V30 16790 C 1561.12 -2.02407 2.82713 0
M  V30 16791 H 1560.44 -1.68606 3.62508 0
M  V30 16792 H 1561.88 -2.67053 3.29331 0
M  V30 16793 C 1560.34 -2.83737 1.81645 0
M  V30 16794 O 1560.87 -3.80356 1.29198 0
M  V30 16795 N 1559.07 -2.48433 1.50764 0
M  V30 16796 H 1558.62 -1.69925 1.93606 0
M  V30 16797 H 1558.58 -3.03139 0.833899 0
M  V30 16798 N 1562.35 -1.57153 -0.118549 0
M  V30 16799 C 1563.58 -1.89062 -0.840429 0
M  V30 16800 C 1563.99 -0.746516 -1.73414 0
M  V30 16801 O 1563.35 0.282638 -1.80298 0
M  V30 16802 C 1563.4 -3.20433 -1.67347 0
M  V30 16803 O 1563.12 -4.30439 -0.815739 0
M  V30 16804 C 1564.62 -3.66048 -2.50047 0
M  V30 16805 H 1561.84 -0.626005 -0.241575 0
M  V30 16806 H 1564.39 -2.04241 -0.102804 0
M  V30 16807 H 1562.54 -3.06922 -2.36385 0
M  V30 16808 H 1562.96 -5.05736 -1.39037 0
M  V30 16809 H 1564.43 -4.60729 -3.04028 0
M  V30 16810 H 1564.91 -2.92727 -3.27426 0
M  V30 16811 H 1565.51 -3.82349 -1.86251 0
M  V30 16812 N 1563.83 0.388742 -1.5273 0
M  V30 16813 C 1565.24 0.966667 -1.59726 0
M  V30 16814 C 1565.59 1.90963 -0.450272 0
M  V30 16815 O 1564.72 2.12153 0.426611 0
M  V30 16816 C 1565.31 1.75998 -2.895 0
M  V30 16817 C 1563.87 2.28761 -2.98907 0
M  V30 16818 C 1563.02 1.09322 -2.54841 0
M  V30 16819 H 1565.97 0.16828 -1.57805 0
M  V30 16820 H 1565.99 2.61924 -2.76 0
M  V30 16821 H 1565.5 1.07342 -3.7296 0
M  V30 16822 H 1563.6 3.00728 -2.19985 0
M  V30 16823 H 1563.72 2.58229 -4.03552 0
M  V30 16824 H 1562.08 1.45332 -2.09167 0
M  V30 16825 H 1562.86 0.421999 -3.40696 0
M  V30 16826 N 1565.31 1.43698 0.647203 0
M  V30 16827 C 1566.24 1.52135 1.77136 0
M  V30 16828 C 1567.22 0.375551 1.65902 0
M  V30 16829 O 1568.4 0.593564 1.84907 0
M  V30 16830 C 1565.53 1.44974 3.15594 0
M  V30 16831 C 1564.49 2.57866 3.41598 0
M  V30 16832 C 1563.81 2.35757 4.7992 0
M  V30 16833 C 1565.11 4.00089 3.35747 0
M  V30 16834 H 1566.81 2.46227 1.70332 0
M  V30 16835 H 1564.35 1.18507 0.818046 0
M  V30 16836 H 1566.31 1.4948 3.93997 0
M  V30 16837 H 1565.03 0.473905 3.23143 0
M  V30 16838 H 1563.69 2.52722 2.65569 0
M  V30 16839 H 1563.34 1.36403 4.84152 0
M  V30 16840 H 1563.04 3.11436 4.98278 0
M  V30 16841 H 1564.56 2.42055 5.60572 0
M  V30 16842 H 1565.98 4.06687 4.04078 0
M  V30 16843 H 1564.37 4.75842 3.65642 0
M  V30 16844 H 1565.44 4.24798 2.33825 0
M  V30 16845 N 1566.79 -0.886131 1.30328 0
M  V30 16846 C 1568.06 -1.61912 1.09744 0
M  V30 16847 C 1568.44 -2.08116 -0.353663 0
M  V30 16848 O 1567.79 -1.84725 -1.34495 0
M  V30 16849 C 1568 -2.78954 2.09727 0
M  V30 16850 C 1569.35 -3.49313 2.41382 0
M  V30 16851 O 1570.37 -2.89141 2.08028 0
M  V30 16852 O 1569.23 -4.57823 2.98431 0
M  V30 16853 H 1566.33 -0.71158 0.421406 0
M  V30 16854 H 1568.87 -0.933009 1.4175 0
M  V30 16855 H 1567.64 -2.42109 3.07407 0
M  V30 16856 H 1567.27 -3.55263 1.78532 0
M  V30 16857 N 1568.26 -1.13026 -1.09832 0
M  V30 16858 C 1569.19 -0.826338 -2.18389 0
M  V30 16859 C 1570.18 0.212529 -1.68767 0
M  V30 16860 O 1571.36 0.072363 -1.94065 0
M  V30 16861 C 1568.49 -0.286991 -3.46112 0
M  V30 16862 C 1567.44 -1.25963 -4.09044 0
M  V30 16863 C 1566.77 -0.580231 -5.31542 0
M  V30 16864 C 1568.07 -2.61661 -4.5203 0
M  V30 16865 H 1569.76 -1.73408 -2.4407 0
M  V30 16866 H 1567.31 -0.835201 -1.17305 0
M  V30 16867 H 1569.26 -0.062067 -4.21354 0
M  V30 16868 H 1567.99 0.656121 -3.19942 0
M  V30 16869 H 1566.65 -1.47047 -3.35816 0
M  V30 16870 H 1566.29 0.368222 -5.0165 0
M  V30 16871 H 1565.99 -1.2291 -5.74601 0
M  V30 16872 H 1567.52 -0.36449 -6.09511 0
M  V30 16873 H 1568.93 -2.44569 -5.18516 0
M  V30 16874 H 1567.33 -3.22685 -5.05959 0
M  V30 16875 H 1568.4 -3.19637 -3.64637 0
M  V30 16876 N 1569.74 1.27735 -0.923117 0
M  V30 16877 C 1571.02 1.89626 -0.479724 0
M  V30 16878 C 1571.4 1.83592 1.04197 0
M  V30 16879 O 1570.75 1.27808 1.89413 0
M  V30 16880 C 1570.96 3.33742 -1.02064 0
M  V30 16881 C 1572.31 4.10678 -1.07837 0
M  V30 16882 O 1573.33 3.4274 -0.969943 0
M  V30 16883 O 1572.19 5.32135 -1.24476 0
M  V30 16884 H 1569.28 0.812615 -0.153575 0
M  V30 16885 H 1571.83 1.36036 -1.01451 0
M  V30 16886 H 1570.6 3.32404 -2.06454 0
M  V30 16887 H 1570.22 3.94845 -0.467234 0
M  V30 16888 N 1571.22 0.688118 1.41784 0
M  V30 16889 C 1572.5 0.144304 1.95067 0
M  V30 16890 C 1572.88 -1.34399 1.62789 0
M  V30 16891 O 1572.23 -2.08675 0.930978 0
M  V30 16892 C 1572.44 0.427641 3.4637 0
M  V30 16893 C 1573.78 0.351345 4.23144 0
M  V30 16894 O 1574.81 0.362134 3.54354 0
M  V30 16895 O 1573.67 0.305018 5.45648 0
M  V30 16896 H 1570.76 0.01062 0.826932 0
M  V30 16897 H 1573.31 0.763766 1.51541 0
M  V30 16898 H 1572.08 1.4581 3.63119 0
M  V30 16899 H 1571.7 -0.223167 3.96973 0
M  V30 16900 N 1572.7 -1.51554 0.432352 0
M  V30 16901 C 1573.65 -2.24474 -0.39944 0
M  V30 16902 C 1574.63 -1.26505 -0.994242 0
M  V30 16903 O 1575.82 -1.51623 -0.913209 0
M  V30 16904 C 1572.95 -3.08659 -1.50282 0
M  V30 16905 C 1572.04 -4.14053 -0.917654 0
M  V30 16906 N 1572.43 -5.05763 -0.061209 0
M  V30 16907 C 1570.73 -4.29949 -1.18576 0
M  V30 16908 C 1571.43 -5.81087 0.266897 0
M  V30 16909 N 1570.41 -5.42484 -0.348218 0
M  V30 16910 H 1574.21 -2.92739 0.260928 0
M  V30 16911 H 1571.72 -1.60555 0.24413 0
M  V30 16912 H 1573.72 -3.59472 -2.11153 0
M  V30 16913 H 1572.38 -2.41936 -2.16557 0
M  V30 16914 H 1573.39 -5.17002 0.304858 0
M  V30 16915 H 1570.07 -3.74453 -1.84638 0
M  V30 16916 H 1571.46 -6.64956 0.963519 0
M  V30 16917 N 1574.18 -0.163538 -1.56749 0
M  V30 16918 C 1575.42 0.482449 -1.96257 0
M  V30 16919 C 1575.75 1.64302 -1.05023 0
M  V30 16920 O 1575.02 1.95562 -0.115027 0
M  V30 16921 H 1573.6 0.181222 -0.724684 0
M  V30 16922 H 1576.26 -0.242903 -1.9338 0
M  V30 16923 H 1575.35 0.847634 -3.00369 0
M  V30 16924 N 1575.65 1.57214 0.110213 0
M  V30 16925 C 1576.9 1.84946 0.814827 0
M  V30 16926 C 1577.22 0.750029 1.79999 0
M  V30 16927 O 1576.49 -0.225164 1.94602 0
M  V30 16928 H 1575.07 0.682385 0.303907 0
M  V30 16929 H 1577.74 1.94666 0.0954415 0
M  V30 16930 H 1576.83 2.81167 1.35469 0
M  V30 16931 N 1577.13 -0.380637 1.52934 0
M  V30 16932 C 1578.55 -0.721287 1.42371 0
M  V30 16933 C 1578.75 -1.93826 0.55078 0
M  V30 16934 O 1577.8 -2.52485 0.02743 0
M  V30 16935 C 1579.12 -0.948564 2.85347 0
M  V30 16936 C 1580.67 -1.04952 2.9488 0
M  V30 16937 C 1581.14 -1.30937 4.38885 0
M  V30 16938 N 1582.63 -1.3774 4.42246 0
M  V30 16939 C 1583.37 -1.59527 5.50762 0
M  V30 16940 N 1582.86 -1.7873 6.69349 0
M  V30 16941 N 1584.66 -1.61774 5.38317 0
M  V30 16942 H 1576.81 0.420032 2.08205 0
M  V30 16943 H 1579.07 0.125776 0.939619 0
M  V30 16944 H 1578.78 -0.126348 3.51473 0
M  V30 16945 H 1578.65 -1.8609 3.28101 0
M  V30 16946 H 1581.04 -1.86229 2.28917 0
M  V30 16947 H 1581.12 -0.114899 2.55542 0
M  V30 16948 H 1580.76 -0.50166 5.05416 0
M  V30 16949 H 1580.69 -2.25696 4.75782 0
M  V30 16950 H 1583.18 -1.24575 3.56777 0
M  V30 16951 H 1583.5 -1.94885 7.47823 0
M  V30 16952 H 1581.84 -1.75938 6.72362 0
M  V30 16953 H 1585.03 -1.4633 4.44641 0
M  V30 16954 H 1585.2 -1.78414 6.22955 0
M  V30 16955 N 1578.61 -1.44039 -0.639573 0
M  V30 16956 C 1579.84 -1.49844 -1.42669 0
M  V30 16957 C 1580.25 -0.120599 -1.88414 0
M  V30 16958 O 1579.61 0.871875 -1.60327 0
M  V30 16959 C 1579.66 -2.45597 -2.65263 0
M  V30 16960 O 1579.38 -3.78023 -2.21427 0
M  V30 16961 C 1580.88 -2.60781 -3.5848 0
M  V30 16962 H 1578.1 -0.508477 -0.437826 0
M  V30 16963 H 1580.65 -1.88919 -0.782923 0
M  V30 16964 H 1578.8 -2.09679 -3.2575 0
M  V30 16965 H 1579.22 -4.29642 -3.00846 0
M  V30 16966 H 1580.69 -3.31826 -4.4113 0
M  V30 16967 H 1581.17 -1.65727 -4.06732 0
M  V30 16968 H 1581.77 -2.97565 -3.03867 0
M  V30 16969 N 1580.09 0.879207 -1.30796 0
M  V30 16970 C 1581.34 1.6315 -1.19951 0
M  V30 16971 C 1581.66 1.92958 0.244468 0
M  V30 16972 O 1580.92 1.55316 1.19061 0
M  V30 16973 C 1581.22 2.97578 -1.97945 0
M  V30 16974 C 1580.88 2.873 -3.47519 0
M  V30 16975 C 1579.55 2.84204 -3.88306 0
M  V30 16976 C 1581.9 2.75006 -4.42743 0
M  V30 16977 C 1579.23 2.6666 -5.22599 0
M  V30 16978 C 1581.58 2.59 -5.7715 0
M  V30 16979 C 1580.24 2.54282 -6.17168 0
M  V30 16980 H 1579.51 0.597008 -0.438934 0
M  V30 16981 H 1582.16 1.02179 -1.61962 0
M  V30 16982 H 1580.46 3.62532 -1.48587 0
M  V30 16983 H 1582.16 3.54759 -1.86941 0
M  V30 16984 H 1578.75 2.90522 -3.15111 0
M  V30 16985 H 1582.93 2.7646 -4.12169 0
M  V30 16986 H 1578.19 2.61426 -5.5269 0
M  V30 16987 H 1582.36 2.48462 -6.50568 0
M  V30 16988 H 1579.99 2.40446 -7.21172 0
M  V30 16989 N 1581.57 1.13606 1.09231 0
M  V30 16990 C 1582.5 0.837908 2.17948 0
M  V30 16991 C 1583.48 -0.203575 1.68877 0
M  V30 16992 O 1584.66 -0.0620702 1.94101 0
M  V30 16993 C 1581.79 0.305342 3.45955 0
M  V30 16994 C 1580.75 1.2813 4.08371 0
M  V30 16995 C 1580.07 0.608412 5.31227 0
M  V30 16996 C 1581.37 2.64055 4.50636 0
M  V30 16997 H 1583.07 1.747 2.43147 0
M  V30 16998 H 1580.61 0.84141 1.1686 0
M  V30 16999 H 1582.57 0.0844116 4.21315 0
M  V30 17000 H 1581.29 -0.639144 3.20285 0
M  V30 17001 H 1579.95 1.48826 3.35032 0
M  V30 17002 H 1579.6 -0.341613 5.01839 0
M  V30 17003 H 1579.3 1.25956 5.73942 0
M  V30 17004 H 1580.82 0.396809 6.09309 0
M  V30 17005 H 1582.24 2.47316 5.17212 0
M  V30 17006 H 1580.63 3.25364 5.0424 0
M  V30 17007 H 1581.7 3.21566 3.62937 0
M  V30 17008 N 1583.05 -1.27244 0.929878 0
M  V30 17009 C 1584.46 -1.4662 0.630451 0
M  V30 17010 C 1584.66 -1.84077 -0.819633 0
M  V30 17011 O 1583.72 -1.95555 -1.59733 0
M  V30 17012 C 1585.03 -2.55709 1.58219 0
M  V30 17013 C 1586.58 -2.69569 1.59065 0
M  V30 17014 C 1587.05 -3.81818 2.52941 0
M  V30 17015 N 1588.54 -3.89195 2.51161 0
M  V30 17016 C 1589.28 -4.75474 3.20488 0
M  V30 17017 N 1588.78 -5.66225 3.99201 0
M  V30 17018 N 1590.57 -4.69222 3.09495 0
M  V30 17019 H 1582.72 -1.01216 1.86733 0
M  V30 17020 H 1584.98 -0.505737 0.801832 0
M  V30 17021 H 1584.69 -2.34985 2.61677 0
M  V30 17022 H 1584.56 -3.53141 1.32556 0
M  V30 17023 H 1586.95 -2.89672 0.563375 0
M  V30 17024 H 1587.03 -1.72616 1.88778 0
M  V30 17025 H 1586.67 -3.62467 3.55781 0
M  V30 17026 H 1586.6 -4.78202 2.20524 0
M  V30 17027 H 1589.1 -3.24305 1.93997 0
M  V30 17028 H 1589.41 -6.28925 4.4908 0
M  V30 17029 H 1587.75 -5.66013 4.03304 0
M  V30 17030 H 1590.94 -3.97322 2.47493 0
M  V30 17031 H 1591.12 -5.36244 3.63794 0
M  V30 17032 N 1584.52 -0.695628 -1.41417 0
M  V30 17033 C 1585.77 -0.226954 -2.01526 0
M  V30 17034 C 1586.1 1.1704 -1.54968 0
M  V30 17035 O 1585.38 1.78999 -0.760895 0
M  V30 17036 C 1585.66 -0.284704 -3.58973 0
M  V30 17037 C 1585.51 -1.71901 -4.15656 0
M  V30 17038 C 1586.83 0.355454 -4.38662 0
M  V30 17039 H 1583.95 -0.0839425 -0.732204 0
M  V30 17040 H 1586.59 -0.884359 -1.68164 0
M  V30 17041 H 1584.74 0.275041 -3.87525 0
M  V30 17042 H 1586.42 -2.3326 -3.97979 0
M  V30 17043 H 1584.66 -2.25314 -3.70696 0
M  V30 17044 H 1585.33 -1.71095 -5.24815 0
M  V30 17045 H 1587.81 -0.121256 -4.15923 0
M  V30 17046 H 1586.68 0.284503 -5.48162 0
M  V30 17047 H 1586.94 1.43617 -4.18123 0
M  V30 17048 N 1586 1.51322 -0.440383 0
M  V30 17049 C 1586.93 2.30708 0.360013 0
M  V30 17050 C 1587.91 1.36254 1.01828 0
M  V30 17051 O 1589.1 1.65174 1.02134 0
M  V30 17052 C 1586.23 3.15132 1.45977 0
M  V30 17053 C 1585.18 4.17889 0.924825 0
M  V30 17054 C 1584.51 4.90853 2.12056 0
M  V30 17055 C 1585.81 5.22282 -0.0428362 0
M  V30 17056 H 1587.5 2.97868 -0.30248 0
M  V30 17057 H 1585.05 1.43249 -0.146914 0
M  V30 17058 H 1587 3.69449 2.02695 0
M  V30 17059 H 1585.72 2.45798 2.1506 0
M  V30 17060 H 1584.38 3.64627 0.379842 0
M  V30 17061 H 1584.03 4.1802 2.79765 0
M  V30 17062 H 1583.73 5.60339 1.769 0
M  V30 17063 H 1585.26 5.47995 2.69322 0
M  V30 17064 H 1586.67 5.71654 0.434137 0
M  V30 17065 H 1585.07 5.99314 -0.307126 0
M  V30 17066 H 1586.14 4.74923 -0.978557 0
M  V30 17067 N 1587.48 0.171848 1.5666 0
M  V30 17068 C 1588.41 -0.753861 2.20996 0
M  V30 17069 C 1589.39 -1.23873 1.16574 0
M  V30 17070 O 1590.58 -1.29179 1.45005 0
M  V30 17071 C 1587.71 -1.98314 2.85112 0
M  V30 17072 C 1586.66 -1.6341 3.95577 0
M  V30 17073 C 1585.99 -2.93807 4.46745 0
M  V30 17074 C 1587.29 -0.861713 5.15142 0
M  V30 17075 H 1588.98 -0.217598 2.98608 0
M  V30 17076 H 1586.53 -0.10322 1.4363 0
M  V30 17077 H 1588.48 -2.63576 3.28794 0
M  V30 17078 H 1587.2 -2.54354 2.04869 0
M  V30 17079 H 1585.86 -1.00516 3.52551 0
M  V30 17080 H 1585.51 -3.47889 3.63293 0
M  V30 17081 H 1585.21 -2.71207 5.21268 0
M  V30 17082 H 1586.73 -3.60098 4.93114 0
M  V30 17083 H 1588.15 -1.41693 5.55514 0
M  V30 17084 H 1586.54 -0.734727 5.95585 0
M  V30 17085 H 1587.61 0.141851 4.84692 0
M  V30 17086 N 1588.96 -1.5727 -0.101874 0
M  V30 17087 C 1589.91 -1.98011 -1.13029 0
M  V30 17088 C 1590.89 -0.857554 -1.36143 0
M  V30 17089 O 1592.08 -1.12135 -1.36948 0
M  V30 17090 C 1589.21 -2.4024 -2.45234 0
M  V30 17091 C 1588.3 -3.59166 -2.25522 0
M  V30 17092 N 1588.69 -4.74317 -1.75662 0
M  V30 17093 C 1586.99 -3.65132 -2.56115 0
M  V30 17094 C 1587.69 -5.56286 -1.70061 0
M  V30 17095 N 1586.66 -4.99262 -2.15031 0
M  V30 17096 H 1590.47 -2.84493 -0.737611 0
M  V30 17097 H 1587.98 -1.59426 -0.309395 0
M  V30 17098 H 1589.98 -2.67652 -3.19637 0
M  V30 17099 H 1588.64 -1.55131 -2.85245 0
M  V30 17100 H 1589.65 -4.972 -1.44958 0
M  V30 17101 H 1586.33 -2.9067 -2.99696 0
M  V30 17102 H 1587.72 -6.58682 -1.3262 0
M  V30 17103 N 1590.44 0.372521 -1.53134 0
M  V30 17104 C 1591.37 1.4621 -1.82057 0
M  V30 17105 C 1592.35 1.56194 -0.673612 0
M  V30 17106 O 1593.53 1.70875 -0.922797 0
M  V30 17107 C 1590.66 2.83632 -2.00425 0
M  V30 17108 C 1589.62 2.88478 -3.16171 0
M  V30 17109 C 1588.94 4.28508 -3.19821 0
M  V30 17110 C 1590.24 2.56628 -4.54906 0
M  V30 17111 H 1591.94 1.22256 -2.73302 0
M  V30 17112 H 1589.48 0.586688 -1.31507 0
M  V30 17113 H 1591.43 3.59876 -2.19242 0
M  V30 17114 H 1590.16 3.0896 -1.05884 0
M  V30 17115 H 1588.82 2.14684 -2.97164 0
M  V30 17116 H 1588.47 4.509 -2.2293 0
M  V30 17117 H 1588.17 4.32667 -3.97584 0
M  V30 17118 H 1589.69 5.06635 -3.40813 0
M  V30 17119 H 1591.1 3.22587 -4.73931 0
M  V30 17120 H 1589.5 2.72114 -5.34859 0
M  V30 17121 H 1590.57 1.51902 -4.60493 0
M  V30 17122 N 1591.91 1.44376 0.631925 0
M  V30 17123 C 1593.14 1.50598 1.41873 0
M  V30 17124 C 1593.56 0.130589 1.88348 0
M  V30 17125 O 1592.91 -0.86336 1.60787 0
M  V30 17126 C 1592.96 2.47 2.63957 0
M  V30 17127 O 1592.69 3.79192 2.1942 0
M  V30 17128 C 1594.19 2.62678 3.57092 0
M  V30 17129 H 1591.41 0.510792 0.435124 0
M  V30 17130 H 1593.95 1.89332 0.772893 0
M  V30 17131 H 1592.11 2.11404 3.24634 0
M  V30 17132 H 1592.52 4.31231 2.98563 0
M  V30 17133 H 1593.99 3.34161 4.39364 0
M  V30 17134 H 1594.47 1.67881 4.05848 0
M  V30 17135 H 1595.08 2.99172 3.02285 0
M  V30 17136 N 1593.39 -0.872258 1.31261 0
M  V30 17137 C 1594.32 -1.98231 1.13047 0
M  V30 17138 C 1595.3 -1.62563 0.0345979 0
M  V30 17139 O 1596.49 -1.87534 0.190586 0
M  V30 17140 C 1593.61 -3.30809 0.726841 0
M  V30 17141 C 1592.66 -3.85461 1.82542 0
M  V30 17142 S 1593.49 -4.11197 3.43041 0
M  V30 17143 C 1594.65 -5.46776 3.0461 0
M  V30 17144 H 1594.88 -2.13377 2.07021 0
M  V30 17145 H 1592.41 -1.02217 1.1572 0
M  V30 17146 H 1594.37 -4.07435 0.500707 0
M  V30 17147 H 1593.03 -3.13502 -0.193741 0
M  V30 17148 H 1592.23 -4.81299 1.49558 0
M  V30 17149 H 1591.83 -3.1562 2.0065 0
M  V30 17150 H 1594.12 -6.28343 2.53361 0
M  V30 17151 H 1595.06 -5.84708 3.99402 0
M  V30 17152 H 1595.47 -5.09941 2.42116 0
M  V30 17153 N 1594.87 -1.14184 -1.08627 0
M  V30 17154 C 1595.82 -0.795361 -2.13677 0
M  V30 17155 C 1596.8 0.214426 -1.59465 0
M  V30 17156 O 1598 0.0171053 -1.76992 0
M  V30 17157 C 1595.12 -0.272074 -3.4222 0
M  V30 17158 C 1594.21 -1.31125 -4.0332 0
M  V30 17159 N 1594.6 -2.51469 -4.38859 0
M  V30 17160 C 1592.9 -1.16095 -4.30625 0
M  V30 17161 C 1593.6 -3.17975 -4.871 0
M  V30 17162 N 1592.58 -2.45382 -4.85066 0
M  V30 17163 H 1596.38 -1.71086 -2.38971 0
M  V30 17164 H 1593.89 -1.02537 -1.25936 0
M  V30 17165 H 1595.89 -0.00556906 -4.169 0
M  V30 17166 H 1594.55 0.637644 -3.18377 0
M  V30 17167 H 1595.56 -2.88714 -4.29959 0
M  V30 17168 H 1592.24 -0.310066 -4.16347 0
M  V30 17169 H 1593.63 -4.20569 -5.23996 0
M  V30 17170 N 1596.35 1.26749 -0.936613 0
M  V30 17171 C 1597.63 1.89106 -0.49981 0
M  V30 17172 C 1598.01 1.84687 1.02244 0
M  V30 17173 O 1597.35 1.2981 1.88047 0
M  V30 17174 C 1597.56 3.32641 -1.05598 0
M  V30 17175 C 1598.91 4.09511 -1.12187 0
M  V30 17176 O 1599.94 3.41692 -1.00624 0
M  V30 17177 O 1598.79 5.30785 -1.30113 0
M  V30 17178 H 1595.89 0.810941 -0.162185 0
M  V30 17179 H 1598.43 1.34952 -1.02888 0
M  V30 17180 H 1597.21 3.30196 -2.09968 0
M  V30 17181 H 1596.83 3.94327 -0.509086 0
M  V30 17182 N 1597.83 0.703118 1.41046 0
M  V30 17183 C 1599.06 0.246194 2.05128 0
M  V30 17184 C 1599.46 -1.11245 1.5304 0
M  V30 17185 O 1598.81 -1.70783 0.676678 0
M  V30 17186 C 1598.87 0.134596 3.59248 0
M  V30 17187 C 1598.53 1.4265 4.34166 0
M  V30 17188 C 1599.53 2.3659 4.62948 0
M  V30 17189 C 1597.22 1.68196 4.73303 0
M  V30 17190 C 1599.21 3.54332 5.29837 0
M  V30 17191 C 1596.9 2.86223 5.39926 0
M  V30 17192 C 1597.89 3.79114 5.68121 0
M  V30 17193 O 1597.58 4.95072 6.33371 0
M  V30 17194 H 1597.31 0.110667 0.66688 0
M  V30 17195 H 1599.87 0.958407 1.81669 0
M  V30 17196 H 1598.1 -0.633453 3.81476 0
M  V30 17197 H 1599.79 -0.286131 4.0489 0
M  V30 17198 H 1600.55 2.18113 4.33188 0
M  V30 17199 H 1596.43 0.96753 4.50733 0
M  V30 17200 H 1599.98 4.26855 5.51762 0
M  V30 17201 H 1595.87 3.04614 5.69105 0
M  V30 17202 H 1596.64 4.94986 6.51868 0
M  V30 17203 N 1599.3 -1.51086 0.448402 0
M  V30 17204 C 1600.72 -1.86696 -0.0121264 0
M  V30 17205 C 1601.07 -1.36483 -1.40949 0
M  V30 17206 O 1600.19 -0.72024 -2.04062 0
M  V30 17207 C 1600.79 -3.38788 -0.0287814 0
M  V30 17208 C 1599.35 -3.73892 -0.433758 0
M  V30 17209 C 1598.49 -2.74869 0.366362 0
M  V30 17210 H 1601.44 -1.44153 0.663744 0
M  V30 17211 H 1601.46 -3.71204 -0.835915 0
M  V30 17212 H 1600.98 -3.75304 0.988368 0
M  V30 17213 H 1599.08 -3.4297 -1.4561 0
M  V30 17214 H 1599.19 -4.78862 -0.150869 0
M  V30 17215 H 1597.55 -2.54085 -0.176862 0
M  V30 17216 H 1598.34 -3.14228 1.3826 0
M  V30 17217 N 1600.78 -0.180154 -1.56567 0
M  V30 17218 C 1602.19 0.335054 -1.83669 0
M  V30 17219 C 1602.54 1.62443 -1.1003 0
M  V30 17220 O 1601.67 2.13448 -0.356205 0
M  V30 17221 C 1602.26 0.61468 -3.33177 0
M  V30 17222 C 1600.82 1.0743 -3.60743 0
M  V30 17223 C 1599.97 0.114877 -2.77062 0
M  V30 17224 H 1602.92 -0.404245 -1.53465 0
M  V30 17225 H 1602.94 1.46574 -3.51136 0
M  V30 17226 H 1602.45 -0.323923 -3.86746 0
M  V30 17227 H 1600.56 2.0277 -3.12594 0
M  V30 17228 H 1600.67 0.977349 -4.69025 0
M  V30 17229 H 1599.03 0.613933 -2.4719 0
M  V30 17230 H 1599.82 -0.817904 -3.33414 0
M  V30 17231 N 1602.26 1.57322 0.0935319 0
M  V30 17232 C 1603.19 2.05208 1.11409 0
M  V30 17233 C 1604.17 0.941295 1.41681 0
M  V30 17234 O 1605.36 1.21266 1.51684 0
M  V30 17235 C 1602.49 2.47782 2.43354 0
M  V30 17236 C 1601.44 3.62538 2.27486 0
M  V30 17237 C 1600.77 3.91095 3.64622 0
M  V30 17238 C 1602.07 4.93371 1.71412 0
M  V30 17239 H 1603.76 2.9072 0.715702 0
M  V30 17240 H 1601.31 1.3986 0.342827 0
M  V30 17241 H 1603.26 2.79891 3.15022 0
M  V30 17242 H 1601.98 1.59272 2.85132 0
M  V30 17243 H 1600.64 3.30679 1.58263 0
M  V30 17244 H 1600.29 2.99749 4.0393 0
M  V30 17245 H 1599.99 4.68353 3.5485 0
M  V30 17246 H 1601.51 4.25679 4.37755 0
M  V30 17247 H 1602.93 5.23851 2.32922 0
M  V30 17248 H 1601.33 5.74804 1.72395 0
M  V30 17249 H 1602.4 4.80197 0.67368 0
M  V30 17250 N 1603.74 -0.364395 1.53329 0
M  V30 17251 C 1604.98 -1.10855 1.6982 0
M  V30 17252 C 1605.32 -1.88931 0.449291 0
M  V30 17253 O 1604.59 -1.8646 -0.553437 0
M  V30 17254 C 1604.88 -2.06681 2.94881 0
M  V30 17255 C 1604.73 -1.32206 4.29932 0
M  V30 17256 C 1606.05 -3.06788 3.15546 0
M  V30 17257 H 1603.17 -0.401626 0.617953 0
M  V30 17258 H 1605.81 -0.389244 1.8597 0
M  V30 17259 H 1603.96 -2.68019 2.81244 0
M  V30 17260 H 1605.63 -0.73642 4.55384 0
M  V30 17261 H 1603.87 -0.623916 4.2929 0
M  V30 17262 H 1604.54 -2.0235 5.13574 0
M  V30 17263 H 1607.02 -2.55554 3.28377 0
M  V30 17264 H 1605.9 -3.71059 4.04483 0
M  V30 17265 H 1606.16 -3.77023 2.3088 0
M  V30 17266 N 1605.22 -1.44709 -0.62426 0
M  V30 17267 C 1606.44 -1.51573 -1.41564 0
M  V30 17268 C 1606.87 -0.143806 -1.87549 0
M  V30 17269 O 1606.22 0.868361 -1.59151 0
M  V30 17270 C 1606.27 -2.49085 -2.60747 0
M  V30 17271 O 1605.38 -1.99712 -3.60817 0
M  V30 17272 H 1604.72 -0.51157 -0.423311 0
M  V30 17273 H 1607.25 -1.89908 -0.761316 0
M  V30 17274 H 1607.26 -2.67346 -3.08205 0
M  V30 17275 H 1605.93 -3.48733 -2.26624 0
M  V30 17276 H 1604.51 -1.9125 -3.20122 0
M  V30 17277 N 1606.69 0.865285 -1.31722 0
M  V30 17278 C 1607.94 1.61549 -1.21435 0
M  V30 17279 C 1608.26 1.9368 0.226501 0
M  V30 17280 O 1607.53 1.58705 1.14846 0
M  V30 17281 H 1606.11 0.598905 -0.446454 0
M  V30 17282 H 1608.78 1.03563 -1.65108 0
M  V30 17283 H 1607.87 2.55708 -1.78941 0
M  V30 17284 N 1608.17 1.14759 1.0802 0
M  V30 17285 C 1609.14 0.840859 2.13219 0
M  V30 17286 C 1610.14 -0.156309 1.60038 0
M  V30 17287 O 1611.33 0.0725143 1.74049 0
M  V30 17288 C 1608.46 0.254208 3.39951 0
M  V30 17289 H 1609.65 1.77323 2.4186 0
M  V30 17290 H 1607.2 0.954146 1.23797 0
M  V30 17291 H 1607.94 -0.686692 3.16946 0
M  V30 17292 H 1607.72 0.972499 3.79848 0
M  V30 17293 H 1609.21 0.0569551 4.17561 0
M  V30 17294 N 1609.65 -1.26251 0.943322 0
M  V30 17295 C 1610.58 -2.28673 0.472347 0
M  V30 17296 C 1611.56 -1.63319 -0.475481 0
M  V30 17297 O 1612.75 -1.90508 -0.376875 0
M  V30 17298 C 1609.88 -3.46316 -0.261286 0
M  V30 17299 C 1608.83 -4.23771 0.600192 0
M  V30 17300 C 1608.16 -5.3405 -0.263525 0
M  V30 17301 C 1609.46 -4.87576 1.87262 0
M  V30 17302 H 1611.15 -2.68319 1.32836 0
M  V30 17303 H 1608.7 -1.28987 0.640182 0
M  V30 17304 H 1610.65 -4.1708 -0.601821 0
M  V30 17305 H 1609.37 -3.05629 -1.15146 0
M  V30 17306 H 1608.03 -3.54774 0.923651 0
M  V30 17307 H 1607.68 -4.89604 -1.15312 0
M  V30 17308 H 1607.38 -5.86784 0.309495 0
M  V30 17309 H 1608.9 -6.07652 -0.599281 0
M  V30 17310 H 1610.32 -5.50544 1.59919 0
M  V30 17311 H 1608.72 -5.50437 2.39038 0
M  V30 17312 H 1609.79 -4.10397 2.58268 0
M  V30 17313 N 1611.13 -0.710588 -1.40671 0
M  V30 17314 C 1612.06 -0.0154749 -2.29195 0
M  V30 17315 C 1613.07 0.728938 -1.45569 0
M  V30 17316 O 1614.26 0.577147 -1.68912 0
M  V30 17317 C 1611.36 1.00232 -3.23739 0
M  V30 17318 C 1610.54 0.324464 -4.36195 0
M  V30 17319 C 1609.6 1.24695 -5.11212 0
M  V30 17320 O 1608.62 0.733634 -5.64452 0
M  V30 17321 N 1609.82 2.57841 -5.20094 0
M  V30 17322 H 1612.59 -0.775543 -2.89492 0
M  V30 17323 H 1610.15 -0.557815 -1.51987 0
M  V30 17324 H 1612.14 1.62151 -3.70795 0
M  V30 17325 H 1610.71 1.66379 -2.64644 0
M  V30 17326 H 1609.93 -0.474847 -3.9133 0
M  V30 17327 H 1611.22 -0.146269 -5.0859 0
M  V30 17328 H 1610.62 3.02047 -4.78314 0
M  V30 17329 H 1609.17 3.14917 -5.70676 0
M  V30 17330 N 1612.61 1.50847 -0.456408 0
M  V30 17331 C 1613.54 2.31077 0.335523 0
M  V30 17332 C 1614.52 1.37326 1.00377 0
M  V30 17333 O 1615.7 1.66247 1.00376 0
M  V30 17334 C 1612.83 3.16662 1.42627 0
M  V30 17335 C 1611.79 4.18846 0.88045 0
M  V30 17336 C 1611.11 4.93074 2.06838 0
M  V30 17337 C 1612.41 5.22208 -0.0982288 0
M  V30 17338 H 1614.11 2.97531 -0.334056 0
M  V30 17339 H 1611.65 1.43085 -0.162099 0
M  V30 17340 H 1613.61 3.71578 1.98765 0
M  V30 17341 H 1612.33 2.48066 2.12441 0
M  V30 17342 H 1610.99 3.65009 0.341147 0
M  V30 17343 H 1610.64 4.20963 2.75316 0
M  V30 17344 H 1610.34 5.62184 1.70947 0
M  V30 17345 H 1611.86 5.5082 2.63494 0
M  V30 17346 H 1613.28 5.72082 0.373481 0
M  V30 17347 H 1611.67 5.98954 -0.370674 0
M  V30 17348 H 1612.74 4.73859 -1.02887 0
M  V30 17349 N 1614.09 0.188454 1.56469 0
M  V30 17350 C 1615.02 -0.730379 2.21783 0
M  V30 17351 C 1616 -1.22629 1.17882 0
M  V30 17352 O 1617.18 -1.27634 1.46367 0
M  V30 17353 C 1614.31 -1.95278 2.872 0
M  V30 17354 C 1613.27 -1.59205 3.97288 0
M  V30 17355 C 1612.59 -2.89052 4.49836 0
M  V30 17356 C 1613.89 -0.807027 5.16027 0
M  V30 17357 H 1615.59 -0.185914 2.98822 0
M  V30 17358 H 1613.13 -0.0879804 1.43731 0
M  V30 17359 H 1615.08 -2.60074 3.31571 0
M  V30 17360 H 1613.81 -2.52167 2.07556 0
M  V30 17361 H 1612.47 -0.967713 3.53597 0
M  V30 17362 H 1612.12 -3.44017 3.66963 0
M  V30 17363 H 1611.82 -2.65663 5.24115 0
M  V30 17364 H 1613.34 -3.54847 4.96906 0
M  V30 17365 H 1614.75 -1.35794 5.56986 0
M  V30 17366 H 1613.15 -0.671516 5.96331 0
M  V30 17367 H 1614.22 0.193251 4.84515 0
M  V30 17368 N 1615.56 -1.5737 -0.0851874 0
M  V30 17369 C 1616.81 -1.86587 -0.786855 0
M  V30 17370 C 1617.14 -0.778357 -1.78247 0
M  V30 17371 O 1616.39 0.227053 -1.94378 0
M  V30 17372 C 1616.69 -3.22427 -1.54194 0
M  V30 17373 C 1616.36 -4.45627 -0.687542 0
M  V30 17374 C 1615.02 -4.79072 -0.452042 0
M  V30 17375 C 1617.37 -5.21115 -0.094224 0
M  V30 17376 C 1614.7 -5.85426 0.386477 0
M  V30 17377 C 1617.05 -6.28354 0.731673 0
M  V30 17378 C 1615.72 -6.60309 0.977172 0
M  V30 17379 H 1614.99 -0.682772 -0.28793 0
M  V30 17380 H 1617.63 -1.9144 -0.0480218 0
M  V30 17381 H 1615.94 -3.13304 -2.35261 0
M  V30 17382 H 1617.64 -3.42264 -2.08941 0
M  V30 17383 H 1614.23 -4.19443 -0.881212 0
M  V30 17384 H 1618.41 -4.95601 -0.263309 0
M  V30 17385 H 1613.67 -6.08589 0.58556 0
M  V30 17386 H 1617.84 -6.86014 1.19823 0
M  V30 17387 H 1615.47 -7.42548 1.6287 0
M  V30 17388 N 1617.04 0.356258 -1.53521 0
M  V30 17389 C 1618.46 0.698546 -1.43501 0
M  V30 17390 C 1618.66 1.92926 -0.581547 0
M  V30 17391 O 1617.71 2.5241 -0.0675947 0
M  V30 17392 C 1619.03 0.903047 -2.8682 0
M  V30 17393 C 1620.57 1.00247 -2.96512 0
M  V30 17394 C 1621.05 1.23938 -4.40912 0
M  V30 17395 N 1622.54 1.30687 -4.44382 0
M  V30 17396 C 1623.28 1.50745 -5.5323 0
M  V30 17397 N 1622.77 1.68058 -6.72107 0
M  V30 17398 N 1624.56 1.5319 -5.40823 0
M  V30 17399 H 1616.72 -0.453102 -2.07511 0
M  V30 17400 H 1618.98 -0.140708 -0.937499 0
M  V30 17401 H 1618.68 0.070416 -3.5163 0
M  V30 17402 H 1618.56 1.80847 -3.3102 0
M  V30 17403 H 1620.95 1.82564 -2.3185 0
M  V30 17404 H 1621.03 0.0742303 -2.55692 0
M  V30 17405 H 1620.67 0.421189 -5.06151 0
M  V30 17406 H 1620.6 2.18098 -4.79313 0
M  V30 17407 H 1623.09 1.18883 -3.58713 0
M  V30 17408 H 1623.4 1.82963 -7.50829 0
M  V30 17409 H 1621.75 1.65219 -6.75076 0
M  V30 17410 H 1624.94 1.39237 -4.46912 0
M  V30 17411 H 1625.11 1.6848 -6.25714 0
M  V30 17412 N 1618.52 1.45038 0.616577 0
M  V30 17413 C 1619.47 1.49451 1.72187 0
M  V30 17414 C 1620.45 0.358711 1.5685 0
M  V30 17415 O 1621.65 0.604983 1.6634 0
M  V30 17416 C 1618.77 1.45551 3.10918 0
M  V30 17417 C 1617.86 2.643 3.31672 0
M  V30 17418 N 1618.25 3.89462 3.22727 0
M  V30 17419 C 1616.55 2.59805 3.62515 0
M  V30 17420 C 1617.25 4.68667 3.44567 0
M  V30 17421 N 1616.23 3.99974 3.68132 0
M  V30 17422 H 1620.03 2.44055 1.6375 0
M  V30 17423 H 1617.54 1.40205 0.819538 0
M  V30 17424 H 1619.54 1.46797 3.902 0
M  V30 17425 H 1618.2 0.519966 3.2051 0
M  V30 17426 H 1619.21 4.21217 3.01325 0
M  V30 17427 H 1615.89 1.75117 3.78999 0
M  V30 17428 H 1617.28 5.77683 3.43121 0
M  V30 17429 N 1620 -0.858287 1.32179 0
M  V30 17430 C 1621.24 -1.61221 1.22532 0
M  V30 17431 C 1621.57 -1.93322 -0.213739 0
M  V30 17432 O 1620.83 -1.5719 -1.16575 0
M  V30 17433 C 1621.13 -2.94391 2.02654 0
M  V30 17434 C 1620.79 -2.81735 3.52046 0
M  V30 17435 C 1619.45 -2.7799 3.92778 0
M  V30 17436 C 1621.81 -2.67928 4.47062 0
M  V30 17437 C 1619.13 -2.58312 5.26775 0
M  V30 17438 C 1621.49 -2.49785 5.81197 0
M  V30 17439 C 1620.15 -2.44431 6.21136 0
M  V30 17440 H 1619.42 -0.589949 0.448376 0
M  V30 17441 H 1622.07 -0.995897 1.63567 0
M  V30 17442 H 1620.37 -3.60122 1.54336 0
M  V30 17443 H 1622.07 -3.5174 1.92561 0
M  V30 17444 H 1618.66 -2.85472 3.19693 0
M  V30 17445 H 1622.84 -2.69868 4.16515 0
M  V30 17446 H 1618.1 -2.526 5.56779 0
M  V30 17447 H 1622.27 -2.38081 6.54439 0
M  V30 17448 H 1619.9 -2.28943 7.24906 0
M  V30 17449 N 1621.48 -1.1533 -1.07409 0
M  V30 17450 C 1622.7 -0.952101 -1.84255 0
M  V30 17451 C 1623.13 0.494571 -1.81482 0
M  V30 17452 O 1622.48 1.35253 -1.20733 0
M  V30 17453 C 1622.53 -1.47019 -3.29268 0
M  V30 17454 O 1621.64 -0.669005 -4.06937 0
M  V30 17455 H 1620.98 -0.339643 -0.57056 0
M  V30 17456 H 1623.51 -1.53298 -1.35502 0
M  V30 17457 H 1623.52 -1.48278 -3.80102 0
M  V30 17458 H 1622.19 -2.5234 -3.30602 0
M  V30 17459 H 1620.77 -0.726003 -3.65764 0
M  V30 17460 N 1622.95 1.25748 -0.950004 0
M  V30 17461 C 1623.89 2.25247 -0.423855 0
M  V30 17462 C 1624.9 1.56233 0.457726 0
M  V30 17463 O 1626.09 1.76496 0.266749 0
M  V30 17464 C 1623.19 3.36422 0.409074 0
M  V30 17465 C 1622.36 4.34991 -0.458421 0
M  V30 17466 C 1621.42 5.25253 0.315537 0
M  V30 17467 O 1620.45 5.68489 -0.284474 0
M  V30 17468 N 1621.65 5.57732 1.60983 0
M  V30 17469 H 1624.41 2.71026 -1.27925 0
M  V30 17470 H 1621.97 1.39607 -0.819853 0
M  V30 17471 H 1623.97 3.93764 0.934447 0
M  V30 17472 H 1622.54 2.90068 1.1653 0
M  V30 17473 H 1621.76 3.76594 -1.16494 0
M  V30 17474 H 1623.04 4.97833 -1.05068 0
M  V30 17475 H 1622.44 5.24502 2.1193 0
M  V30 17476 H 1621 6.17678 2.08126 0
M  V30 17477 N 1624.43 0.718038 1.40292 0
M  V30 17478 C 1625.85 0.391848 1.54715 0
M  V30 17479 C 1626.05 -1.09911 1.68884 0
M  V30 17480 O 1625.1 -1.88518 1.6798 0
M  V30 17481 C 1626.42 1.16005 2.77423 0
M  V30 17482 C 1627.96 1.14659 2.91243 0
M  V30 17483 C 1628.44 1.897 4.16867 0
M  V30 17484 N 1629.93 1.86781 4.23872 0
M  V30 17485 C 1630.67 2.41665 5.19986 0
M  V30 17486 N 1630.16 3.05116 6.21994 0
M  V30 17487 N 1631.95 2.31794 5.12082 0
M  V30 17488 H 1624.11 1.68477 1.29342 0
M  V30 17489 H 1626.37 0.712248 0.625625 0
M  V30 17490 H 1626.07 2.21435 2.73239 0
M  V30 17491 H 1625.95 0.75328 3.69602 0
M  V30 17492 H 1628.34 0.100477 2.94929 0
M  V30 17493 H 1628.42 1.5926 2.00175 0
M  V30 17494 H 1628.06 2.94303 4.13942 0
M  V30 17495 H 1627.99 1.42518 5.06948 0
M  V30 17496 H 1630.48 1.40541 3.50794 0
M  V30 17497 H 1630.79 3.44505 6.91763 0
M  V30 17498 H 1629.14 3.09201 6.22431 0
M  V30 17499 H 1632.33 1.81879 4.31321 0
M  V30 17500 H 1632.5 2.74868 5.86815 0
M  V30 17501 N 1625.91 -1.50602 0.464402 0
M  V30 17502 C 1626.84 -2.26203 -0.36943 0
M  V30 17503 C 1627.86 -1.31269 -0.962924 0
M  V30 17504 O 1629.04 -1.56829 -0.852465 0
M  V30 17505 C 1626.14 -3.02323 -1.53147 0
M  V30 17506 C 1625.32 -4.24561 -1.05198 0
M  V30 17507 C 1624.38 -4.83031 -2.08729 0
M  V30 17508 O 1623.4 -5.44131 -1.67062 0
M  V30 17509 N 1624.6 -4.6944 -3.41477 0
M  V30 17510 H 1627.37 -2.98402 0.278652 0
M  V30 17511 H 1624.93 -1.59193 0.294803 0
M  V30 17512 H 1626.92 -3.38319 -2.22086 0
M  V30 17513 H 1625.49 -2.32965 -2.08438 0
M  V30 17514 H 1624.71 -3.93748 -0.188705 0
M  V30 17515 H 1626 -5.0383 -0.709434 0
M  V30 17516 H 1625.4 -4.20832 -3.78044 0
M  V30 17517 H 1623.96 -5.09724 -4.06233 0
M  V30 17518 N 1627.39 -0.19675 -1.56367 0
M  V30 17519 C 1628.3 0.735372 -2.22777 0
M  V30 17520 C 1629.31 1.23336 -1.22737 0
M  V30 17521 O 1630.49 1.28017 -1.55479 0
M  V30 17522 C 1627.56 1.93706 -2.8754 0
M  V30 17523 C 1626.62 1.48348 -4.02854 0
M  V30 17524 C 1625.85 2.62788 -4.64519 0
M  V30 17525 O 1626.07 3.80311 -4.25111 0
M  V30 17526 O 1625.01 2.35406 -5.53956 0
M  V30 17527 H 1628.83 0.199788 -3.03042 0
M  V30 17528 H 1626.42 0.0326149 -1.49364 0
M  V30 17529 H 1628.3 2.63934 -3.28507 0
M  V30 17530 H 1626.97 2.46121 -2.10252 0
M  V30 17531 H 1625.88 0.749939 -3.66506 0
M  V30 17532 H 1627.21 1.00597 -4.8181 0
M  V30 17533 N 1628.87 1.57413 0.0768405 0
M  V30 17534 C 1630.11 1.87279 0.778099 0
M  V30 17535 C 1630.45 0.788359 1.77478 0
M  V30 17536 O 1629.72 -0.201876 1.9345 0
M  V30 17537 C 1630 3.27801 1.49059 0
M  V30 17538 C 1629.86 4.46892 0.510661 0
M  V30 17539 C 1631.18 3.66485 2.43674 0
M  V30 17540 H 1628.29 0.681159 0.281409 0
M  V30 17541 H 1630.94 1.89955 0.0413711 0
M  V30 17542 H 1629.09 3.2565 2.11859 0
M  V30 17543 H 1630.76 4.61165 -0.111734 0
M  V30 17544 H 1629 4.33449 -0.174445 0
M  V30 17545 H 1629.67 5.41985 1.04671 0
M  V30 17546 H 1632.15 3.69696 1.90955 0
M  V30 17547 H 1631.02 4.65706 2.90533 0
M  V30 17548 H 1631.29 2.96145 3.28254 0
M  V30 17549 N 1630.34 -0.348112 1.53707 0
M  V30 17550 C 1631.27 -1.43296 1.8436 0
M  V30 17551 C 1632.26 -1.55102 0.698376 0
M  V30 17552 O 1633.44 -1.69385 0.949864 0
M  V30 17553 C 1630.57 -2.80407 2.04912 0
M  V30 17554 C 1629.52 -2.83412 3.20721 0
M  V30 17555 C 1628.85 -4.23365 3.26597 0
M  V30 17556 C 1630.15 -2.49358 4.58931 0
M  V30 17557 H 1631.84 -1.17892 2.75212 0
M  V30 17558 H 1629.39 -0.565692 1.32423 0
M  V30 17559 H 1631.34 -3.56343 2.24939 0
M  V30 17560 H 1630.07 -3.07236 1.10786 0
M  V30 17561 H 1628.73 -2.09929 3.00542 0
M  V30 17562 H 1628.37 -4.47297 2.30076 0
M  V30 17563 H 1628.07 -4.26287 4.04417 0
M  V30 17564 H 1629.6 -5.01149 3.4883 0
M  V30 17565 H 1631.01 -3.15006 4.79003 0
M  V30 17566 H 1629.41 -2.6357 5.3912 0
M  V30 17567 H 1630.48 -1.44557 4.62851 0
M  V30 17568 N 1631.82 -1.45363 -0.608876 0
M  V30 17569 C 1632.75 -1.49944 -1.73348 0
M  V30 17570 C 1633.77 -0.390352 -1.58051 0
M  V30 17571 O 1634.96 -0.657338 -1.65956 0
M  V30 17572 C 1632.06 -1.33886 -3.11332 0
M  V30 17573 C 1631.23 -2.58445 -3.52881 0
M  V30 17574 C 1630.29 -2.36963 -4.69825 0
M  V30 17575 O 1629.31 -3.10569 -4.77007 0
M  V30 17576 N 1630.52 -1.41442 -5.63005 0
M  V30 17577 H 1633.28 -2.46902 -1.69882 0
M  V30 17578 H 1630.84 -1.41086 -0.794119 0
M  V30 17579 H 1632.83 -1.17327 -3.8732 0
M  V30 17580 H 1631.4 -0.452095 -3.09314 0
M  V30 17581 H 1630.62 -2.90129 -2.66869 0
M  V30 17582 H 1631.91 -3.41245 -3.77398 0
M  V30 17583 H 1631.31 -0.806941 -5.59915 0
M  V30 17584 H 1629.87 -1.30855 -6.3853 0
M  V30 17585 N 1633.3 0.851265 -1.32632 0
M  V30 17586 C 1634.26 1.94168 -1.21785 0
M  V30 17587 C 1635.26 1.60189 -0.140023 0
M  V30 17588 O 1636.45 1.69763 -0.390671 0
M  V30 17589 C 1633.59 3.29513 -0.873717 0
M  V30 17590 H 1634.78 2.05214 -2.18695 0
M  V30 17591 H 1632.33 1.04186 -1.16512 0
M  V30 17592 H 1633.07 3.24165 0.0934202 0
M  V30 17593 H 1632.85 3.55552 -1.65302 0
M  V30 17594 H 1634.34 4.09425 -0.822231 0
M  V30 17595 N 1634.78 1.15898 1.06796 0
M  V30 17596 C 1636.03 0.937339 1.795 0
M  V30 17597 C 1636.35 -0.535183 1.86992 0
M  V30 17598 O 1635.61 -1.41304 1.35394 0
M  V30 17599 C 1635.91 1.50368 3.24229 0
M  V30 17600 C 1635.57 2.99765 3.36826 0
M  V30 17601 C 1634.24 3.40548 3.39971 0
M  V30 17602 C 1636.59 3.9575 3.39163 0
M  V30 17603 C 1633.92 4.75946 3.43063 0
M  V30 17604 C 1636.27 5.31028 3.43791 0
M  V30 17605 C 1634.93 5.71298 3.45216 0
M  V30 17606 H 1634.2 0.342997 0.656837 0
M  V30 17607 H 1636.85 1.44531 1.2563 0
M  V30 17608 H 1635.15 0.917024 3.80917 0
M  V30 17609 H 1636.85 1.30793 3.7907 0
M  V30 17610 H 1633.44 2.67244 3.3508 0
M  V30 17611 H 1637.62 3.65311 3.35948 0
M  V30 17612 H 1632.88 5.06484 3.42468 0
M  V30 17613 H 1637.05 6.05195 3.44546 0
M  V30 17614 H 1634.68 6.76196 3.47365 0
M  V30 17615 N 1636.26 -1.25243 0.956659 0
M  V30 17616 C 1637.2 -2.25811 0.477292 0
M  V30 17617 C 1638.17 -1.59273 -0.471301 0
M  V30 17618 O 1639.36 -1.86894 -0.384105 0
M  V30 17619 C 1636.5 -3.44286 -0.236891 0
M  V30 17620 C 1635.61 -4.25454 0.749177 0
M  V30 17621 C 1634.75 -5.31199 0.012228 0
M  V30 17622 C 1633.79 -6.04056 0.989094 0
M  V30 17623 N 1632.92 -7.0153 0.282883 0
M  V30 17624 H 1637.76 -2.66185 1.33977 0
M  V30 17625 H 1635.3 -1.30862 0.671832 0
M  V30 17626 H 1637.26 -4.11825 -0.66755 0
M  V30 17627 H 1635.89 -3.04781 -1.06339 0
M  V30 17628 H 1634.94 -3.57558 1.29831 0
M  V30 17629 H 1636.25 -4.75883 1.49454 0
M  V30 17630 H 1635.41 -6.04822 -0.476968 0
M  V30 17631 H 1634.14 -4.81648 -0.76591 0
M  V30 17632 H 1633.15 -5.29245 1.48927 0
M  V30 17633 H 1634.37 -6.55695 1.76749 0
M  V30 17634 H 1632.32 -6.54267 -0.476479 0
M  V30 17635 H 1632.24 -7.49786 0.967304 0
M  V30 17636 H 1633.51 -7.79281 -0.184709 0
M  V30 17637 N 1637.73 -0.725468 -1.3991 0
M  V30 17638 C 1638.67 -0.0397832 -2.29165 0
M  V30 17639 C 1639.68 0.713458 -1.46334 0
M  V30 17640 O 1640.87 0.559199 -1.69515 0
M  V30 17641 C 1637.97 0.967929 -3.24784 0
M  V30 17642 C 1637.14 0.278181 -4.36515 0
M  V30 17643 C 1636.2 1.19266 -5.12506 0
M  V30 17644 O 1635.23 0.673726 -5.65199 0
M  V30 17645 N 1636.43 2.5231 -5.228 0
M  V30 17646 H 1639.19 -0.806204 -2.88653 0
M  V30 17647 H 1636.75 -0.573904 -1.51387 0
M  V30 17648 H 1638.75 1.58209 -3.72494 0
M  V30 17649 H 1637.32 1.63563 -2.66394 0
M  V30 17650 H 1636.54 -0.516326 -3.90804 0
M  V30 17651 H 1637.82 -0.200203 -5.08406 0
M  V30 17652 H 1637.22 2.96957 -4.8149 0
M  V30 17653 H 1635.78 3.08846 -5.73984 0
M  V30 17654 N 1639.21 1.50354 -0.472382 0
M  V30 17655 C 1640.46 2.02633 0.0822846 0
M  V30 17656 C 1640.79 1.35358 1.39254 0
M  V30 17657 O 1640.07 0.479714 1.88491 0
M  V30 17658 C 1640.35 3.59126 0.264742 0
M  V30 17659 C 1640.2 4.3697 -1.06663 0
M  V30 17660 C 1641.52 4.28148 1.01869 0
M  V30 17661 H 1638.64 0.736451 0.0284304 0
M  V30 17662 H 1641.28 1.79661 -0.618224 0
M  V30 17663 H 1639.43 3.7883 0.86141 0
M  V30 17664 H 1641.1 4.28834 -1.69997 0
M  V30 17665 H 1639.35 4.0066 -1.66295 0
M  V30 17666 H 1640.02 5.44736 -0.892592 0
M  V30 17667 H 1642.49 4.12926 0.512931 0
M  V30 17668 H 1641.37 5.37453 1.11515 0
M  V30 17669 H 1641.63 3.91406 2.05557 0
M  V30 17670 N 1640.69 0.205039 1.56261 0
M  V30 17671 C 1641.62 -0.743854 2.16794 0
M  V30 17672 C 1642.64 -1.16959 1.13245 0
M  V30 17673 O 1643.83 -1.1036 1.40296 0
M  V30 17674 C 1640.93 -2.01717 2.7233 0
M  V30 17675 C 1640.1 -1.74965 4.00882 0
M  V30 17676 C 1639.16 -2.86841 4.41145 0
M  V30 17677 O 1638.18 -2.5602 5.08372 0
M  V30 17678 N 1639.39 -4.15425 4.05466 0
M  V30 17679 H 1642.15 -0.226145 2.98846 0
M  V30 17680 H 1639.71 0.0234276 1.61883 0
M  V30 17681 H 1641.7 -2.7572 2.96244 0
M  V30 17682 H 1640.27 -2.44582 1.94675 0
M  V30 17683 H 1639.49 -0.846903 3.84995 0
M  V30 17684 H 1640.78 -1.54501 4.84775 0
M  V30 17685 H 1640.18 -4.43314 3.5141 0
M  V30 17686 H 1638.74 -4.86023 4.3431 0
M  V30 17687 N 1642.17 -1.57451 -0.0684915 0
M  V30 17688 C 1643.1 -2.06954 -1.0813 0
M  V30 17689 C 1644.08 -0.963716 -1.40166 0
M  V30 17690 O 1645.27 -1.23664 -1.49736 0
M  V30 17691 C 1642.4 -2.51622 -2.39381 0
M  V30 17692 C 1641.35 -3.66111 -2.2169 0
M  V30 17693 C 1640.68 -3.96846 -3.58354 0
M  V30 17694 C 1641.98 -4.96036 -1.63541 0
M  V30 17695 H 1643.67 -2.91822 -0.66936 0
M  V30 17696 H 1641.22 -1.40387 -0.320533 0
M  V30 17697 H 1643.17 -2.84867 -3.1053 0
M  V30 17698 H 1641.89 -1.63788 -2.82562 0
M  V30 17699 H 1640.55 -3.33155 -1.52982 0
M  V30 17700 H 1640.2 -3.06137 -3.9911 0
M  V30 17701 H 1639.9 -4.73939 -3.47354 0
M  V30 17702 H 1641.42 -4.3259 -4.30927 0
M  V30 17703 H 1642.84 -5.27491 -2.24559 0
M  V30 17704 H 1641.23 -5.77474 -1.63228 0
M  V30 17705 H 1642.3 -4.81208 -0.597199 0
M  V30 17706 N 1643.65 0.339955 -1.5389 0
M  V30 17707 C 1644.58 1.42316 -1.85117 0
M  V30 17708 C 1645.56 1.5473 -0.706591 0
M  V30 17709 O 1646.74 1.68879 -0.958834 0
M  V30 17710 C 1643.87 2.79317 -2.06396 0
M  V30 17711 C 1642.83 2.81707 -3.22219 0
M  V30 17712 C 1642.15 4.21627 -3.28838 0
M  V30 17713 C 1643.45 2.46921 -4.60247 0
M  V30 17714 H 1645.15 1.16431 -2.75834 0
M  V30 17715 H 1642.69 0.558661 -1.32721 0
M  V30 17716 H 1644.65 3.55145 -2.26826 0
M  V30 17717 H 1643.37 3.06644 -1.12414 0
M  V30 17718 H 1642.03 2.08332 -3.01651 0
M  V30 17719 H 1641.68 4.4607 -2.32444 0
M  V30 17720 H 1641.38 4.24137 -4.06672 0
M  V30 17721 H 1642.9 4.99292 -3.51482 0
M  V30 17722 H 1644.32 3.12462 -4.80667 0
M  V30 17723 H 1642.71 2.60707 -5.40511 0
M  V30 17724 H 1643.78 1.421 -4.63611 0
M  V30 17725 N 1645.13 1.45684 0.601159 0
M  V30 17726 C 1646.37 1.50258 1.362 0
M  V30 17727 C 1646.7 0.146358 1.93648 0
M  V30 17728 O 1645.98 -0.839985 1.75427 0
M  V30 17729 C 1646.26 2.5868 2.50513 0
M  V30 17730 C 1646.12 4.03769 1.98219 0
M  V30 17731 C 1647.43 2.63332 3.52624 0
M  V30 17732 H 1644.55 0.547045 0.493873 0
M  V30 17733 H 1647.2 1.77527 0.677068 0
M  V30 17734 H 1645.35 2.35559 3.08941 0
M  V30 17735 H 1647.02 4.3812 1.44391 0
M  V30 17736 H 1645.26 4.14121 1.29174 0
M  V30 17737 H 1645.93 4.75329 2.80653 0
M  V30 17738 H 1648.41 2.84067 3.04048 0
M  V30 17739 H 1647.28 3.41047 4.30091 0
M  V30 17740 H 1647.54 1.68668 4.0866 0
M  V30 17741 N 1646.6 -0.84422 1.33082 0
M  V30 17742 C 1647.83 -1.63133 1.27261 0
M  V30 17743 C 1648.25 -1.88142 -0.157479 0
M  V30 17744 O 1647.6 -1.4578 -1.09793 0
M  V30 17745 C 1647.65 -2.98462 2.03967 0
M  V30 17746 O 1647.38 -2.74555 3.41396 0
M  V30 17747 C 1648.88 -3.92899 2.05293 0
M  V30 17748 H 1646.1 -0.507769 0.438647 0
M  V30 17749 H 1648.64 -1.05194 1.75369 0
M  V30 17750 H 1646.8 -3.53017 1.59554 0
M  V30 17751 H 1647.21 -3.60694 3.80789 0
M  V30 17752 H 1648.68 -4.85088 2.63427 0
M  V30 17753 H 1649.16 -4.26665 1.04183 0
M  V30 17754 H 1649.77 -3.44281 2.49701 0
M  V30 17755 N 1648.08 -1.16463 -1.0618 0
M  V30 17756 C 1649.31 -0.97159 -1.83235 0
M  V30 17757 C 1649.73 0.475295 -1.81996 0
M  V30 17758 O 1649.09 1.33964 -1.22161 0
M  V30 17759 C 1649.14 -1.50504 -3.2769 0
M  V30 17760 O 1648.24 -0.712128 -4.06205 0
M  V30 17761 H 1647.58 -0.345676 -0.566925 0
M  V30 17762 H 1650.11 -1.54727 -1.33868 0
M  V30 17763 H 1650.12 -1.52301 -3.78508 0
M  V30 17764 H 1648.8 -2.55832 -3.27907 0
M  V30 17765 H 1647.37 -0.764756 -3.64974 0
M  V30 17766 N 1649.56 1.24734 -0.963288 0
M  V30 17767 C 1650.49 2.24785 -0.447722 0
M  V30 17768 C 1651.5 1.5671 0.44113 0
M  V30 17769 O 1652.69 1.76769 0.248015 0
M  V30 17770 C 1649.79 3.36837 0.373368 0
M  V30 17771 C 1648.97 4.3448 -0.504532 0
M  V30 17772 C 1648.03 5.25558 0.25981 0
M  V30 17773 O 1647.05 5.68155 -0.344754 0
M  V30 17774 N 1648.25 5.59408 1.55058 0
M  V30 17775 H 1651.02 2.69654 -1.30792 0
M  V30 17776 H 1648.58 1.38729 -0.834614 0
M  V30 17777 H 1650.57 3.94733 0.892631 0
M  V30 17778 H 1649.14 2.91288 1.13447 0
M  V30 17779 H 1648.36 3.75337 -1.20481 0
M  V30 17780 H 1649.65 4.96691 -1.10343 0
M  V30 17781 H 1649.05 5.2672 2.06355 0
M  V30 17782 H 1647.6 6.19851 2.01563 0
M  V30 17783 N 1651.04 0.732878 1.39523 0
M  V30 17784 C 1652.31 0.20629 1.94509 0
M  V30 17785 C 1652.69 -1.29152 1.66982 0
M  V30 17786 O 1652.04 -2.05607 0.996895 0
M  V30 17787 C 1652.25 0.537619 3.44834 0
M  V30 17788 C 1653.6 0.485787 4.21812 0
M  V30 17789 O 1654.62 0.474686 3.53023 0
M  V30 17790 O 1653.48 0.478457 5.44402 0
M  V30 17791 H 1650.58 0.0369228 0.826175 0
M  V30 17792 H 1653.12 0.811591 1.49035 0
M  V30 17793 H 1651.9 1.57289 3.58296 0
M  V30 17794 H 1651.52 -0.0967601 3.97482 0
M  V30 17795 N 1652.52 -1.50101 0.480349 0
M  V30 17796 C 1653.76 -2.02674 -0.0715373 0
M  V30 17797 C 1654.09 -1.36095 -1.38535 0
M  V30 17798 O 1653.37 -0.489703 -1.88234 0
M  V30 17799 C 1653.65 -3.59261 -0.245693 0
M  V30 17800 C 1653.51 -4.36399 1.08979 0
M  V30 17801 C 1654.82 -4.28682 -0.995966 0
M  V30 17802 H 1651.94 -0.736592 -0.0245244 0
M  V30 17803 H 1654.59 -1.7933 0.627743 0
M  V30 17804 H 1652.74 -3.79281 -0.841308 0
M  V30 17805 H 1654.41 -4.27926 1.72269 0
M  V30 17806 H 1652.65 -3.99773 1.68417 0
M  V30 17807 H 1653.32 -5.44254 0.921468 0
M  V30 17808 H 1655.8 -4.13193 -0.491025 0
M  V30 17809 H 1654.67 -5.38037 -1.08663 0
M  V30 17810 H 1654.93 -3.92491 -2.03479 0
M  V30 17811 N 1653.99 -0.213323 -1.5615 0
M  V30 17812 C 1655.27 0.469174 -1.8989 0
M  V30 17813 C 1655.65 1.78341 -1.1295 0
M  V30 17814 O 1655 2.27276 -0.236236 0
M  V30 17815 C 1655.21 0.67017 -3.42505 0
M  V30 17816 C 1656.56 0.981324 -4.13104 0
M  V30 17817 O 1657.58 0.757249 -3.48058 0
M  V30 17818 O 1656.44 1.40614 -5.281 0
M  V30 17819 H 1653.53 0.246943 -0.789271 0
M  V30 17820 H 1656.08 -0.254896 -1.67775 0
M  V30 17821 H 1654.85 -0.257189 -3.90454 0
M  V30 17822 H 1654.47 1.44603 -3.70372 0
M  V30 17823 N 1655.47 1.57485 0.0601405 0
M  V30 17824 C 1656.42 2.0554 1.08886 0
M  V30 17825 C 1657.41 0.962963 1.39368 0
M  V30 17826 O 1658.62 1.14802 1.38638 0
M  V30 17827 H 1655 0.655506 0.368532 0
M  V30 17828 H 1656.97 2.91066 0.657513 0
M  V30 17829 C 1655.72 2.52464 2.39076 0
M  V30 17830 H 1655.04 3.36123 2.16475 0
M  V30 17831 H 1656.48 2.89829 3.09476 0
M  V30 17832 C 1654.94 1.41248 3.05861 0
M  V30 17833 O 1655.47 0.761119 3.94423 0
M  V30 17834 N 1653.67 1.1547 2.66674 0
M  V30 17835 H 1653.22 1.6862 1.94744 0
M  V30 17836 H 1653.18 0.412641 3.1168 0
M  V30 17837 N 1656.95 -0.331789 1.54068 0
M  V30 17838 C 1658.18 -1.08886 1.75577 0
M  V30 17839 C 1658.59 -1.82462 0.50043 0
M  V30 17840 O 1657.93 -1.7564 -0.53816 0
M  V30 17841 C 1657.99 -2.13858 2.88972 0
M  V30 17842 C 1657.66 -1.59754 4.28168 0
M  V30 17843 C 1658.65 -1.04365 5.09317 0
M  V30 17844 C 1656.34 -1.64245 4.74688 0
M  V30 17845 C 1658.33 -0.541856 6.35093 0
M  V30 17846 C 1656.02 -1.13679 6.00433 0
M  V30 17847 C 1657.02 -0.587426 6.80469 0
M  V30 17848 O 1656.71 -0.0893367 8.0385 0
M  V30 17849 H 1656.44 -0.330075 0.589938 0
M  V30 17850 H 1658.99 -0.386127 2.01738 0
M  V30 17851 H 1657.22 -2.87724 2.58363 0
M  V30 17852 H 1658.91 -2.75223 2.98341 0
M  V30 17853 H 1659.68 -1.00208 4.74535 0
M  V30 17854 H 1655.56 -2.05945 4.12441 0
M  V30 17855 H 1659.1 -0.1124 6.97509 0
M  V30 17856 H 1655 -1.1754 6.34708 0
M  V30 17857 H 1655.77 -0.205529 8.18242 0
M  V30 17858 N 1658.43 -1.46001 -0.593424 0
M  V30 17859 C 1659.38 -1.55752 -1.70323 0
M  V30 17860 C 1660.35 -0.402466 -1.6115 0
M  V30 17861 O 1661.53 -0.617804 -1.80521 0
M  V30 17862 C 1658.67 -1.54362 -3.08653 0
M  V30 17863 C 1657.78 -2.80523 -3.28529 0
M  V30 17864 C 1656.92 -2.70709 -4.57045 0
M  V30 17865 C 1655.96 -3.91857 -4.70228 0
M  V30 17866 N 1655.09 -3.80494 -5.90059 0
M  V30 17867 H 1659.93 -2.50555 -1.61326 0
M  V30 17868 H 1657.47 -1.24313 -0.786425 0
M  V30 17869 H 1659.43 -1.51542 -3.88704 0
M  V30 17870 H 1658.06 -0.630986 -3.16573 0
M  V30 17871 H 1657.11 -2.93368 -2.42155 0
M  V30 17872 H 1658.42 -3.70341 -3.3414 0
M  V30 17873 H 1657.58 -2.65935 -5.45311 0
M  V30 17874 H 1656.32 -1.78513 -4.53855 0
M  V30 17875 H 1655.32 -3.96975 -3.80383 0
M  V30 17876 H 1656.55 -4.85136 -4.75205 0
M  V30 17877 H 1654.49 -2.91077 -5.87886 0
M  V30 17878 H 1654.41 -4.63958 -5.96891 0
M  V30 17879 H 1655.68 -3.79676 -6.80783 0
M  V30 17880 N 1659.91 0.83715 -1.33527 0
M  V30 17881 C 1660.84 1.95423 -1.1976 0
M  V30 17882 C 1661.85 1.62295 -0.128147 0
M  V30 17883 O 1663.04 1.74436 -0.378725 0
M  V30 17884 C 1660.14 3.2896 -0.814775 0
M  V30 17885 C 1659.31 3.9021 -1.97623 0
M  V30 17886 C 1658.37 5.02104 -1.5741 0
M  V30 17887 O 1657.4 5.2116 -2.28868 0
M  V30 17888 N 1658.6 5.78511 -0.480081 0
M  V30 17889 H 1661.37 2.0777 -2.15991 0
M  V30 17890 H 1658.93 1.01297 -1.26295 0
M  V30 17891 H 1660.92 4.01243 -0.527823 0
M  V30 17892 H 1659.49 3.12548 0.0569031 0
M  V30 17893 H 1658.71 3.10495 -2.42871 0
M  V30 17894 H 1660 4.27865 -2.75334 0
M  V30 17895 H 1659.39 5.65585 0.114287 0
M  V30 17896 H 1657.95 6.5131 -0.252808 0
M  V30 17897 N 1661.38 1.17024 1.05561 0
M  V30 17898 C 1662.63 0.950769 1.77886 0
M  V30 17899 C 1662.95 -0.522005 1.88506 0
M  V30 17900 O 1664.15 -0.859582 2.57533 0
M  V30 17901 C 1662.61 1.65189 3.19751 0
M  V30 17902 C 1662.22 3.16294 3.17273 0
M  V30 17903 C 1663.96 1.51466 3.96558 0
M  V30 17904 C 1661.87 3.79111 4.53904 0
M  V30 17905 H 1660.8 0.352089 0.666745 0
M  V30 17906 H 1663.45 1.40237 1.18346 0
M  V30 17907 H 1661.83 1.12801 3.79594 0
M  V30 17908 H 1663 3.75585 2.66969 0
M  V30 17909 H 1661.32 3.29986 2.53966 0
M  V30 17910 H 1663.92 1.95772 4.97571 0
M  V30 17911 H 1664.26 0.46467 4.13699 0
M  V30 17912 H 1664.79 2.0105 3.43254 0
M  V30 17913 H 1661.53 4.84091 4.41969 0
M  V30 17914 H 1661.05 3.24606 5.04372 0
M  V30 17915 H 1662.73 3.81099 5.2285 0
M  V30 17916 N 1662.86 -1.24221 0.969889 0
M  V30 17917 C 1663.81 -2.25292 0.501215 0
M  V30 17918 C 1664.78 -1.59764 -0.454382 0
M  V30 17919 O 1665.96 -1.87291 -0.364261 0
M  V30 17920 C 1663.1 -3.44518 -0.200361 0
M  V30 17921 C 1662.22 -4.24636 0.79426 0
M  V30 17922 C 1661.35 -5.31156 0.068568 0
M  V30 17923 C 1660.39 -6.02973 1.05311 0
M  V30 17924 N 1659.53 -7.0119 0.357274 0
M  V30 17925 H 1664.37 -2.64749 1.36792 0
M  V30 17926 H 1661.91 -1.30142 0.685673 0
M  V30 17927 H 1663.86 -4.1251 -0.623833 0
M  V30 17928 H 1662.49 -3.05892 -1.03101 0
M  V30 17929 H 1661.55 -3.56161 1.33616 0
M  V30 17930 H 1662.86 -4.74271 1.54493 0
M  V30 17931 H 1662.01 -6.05294 -0.412792 0
M  V30 17932 H 1660.75 -4.82434 -0.714781 0
M  V30 17933 H 1659.76 -5.27636 1.54532 0
M  V30 17934 H 1660.98 -6.53784 1.83694 0
M  V30 17935 H 1658.93 -6.54736 -0.407059 0
M  V30 17936 H 1658.84 -7.48718 1.04677 0
M  V30 17937 H 1660.11 -7.79433 -0.102045 0
M  V30 17938 N 1664.34 -0.740267 -1.39132 0
M  V30 17939 C 1665.27 -0.064087 -2.2911 0
M  V30 17940 C 1666.29 0.697897 -1.47082 0
M  V30 17941 O 1667.47 0.541189 -1.70098 0
M  V30 17942 C 1664.57 0.933426 -3.25792 0
M  V30 17943 C 1663.75 0.231867 -4.36785 0
M  V30 17944 C 1662.81 1.13823 -5.13742 0
M  V30 17945 O 1661.83 0.613741 -5.65881 0
M  V30 17946 N 1663.03 2.46751 -5.25447 0
M  V30 17947 H 1665.8 -0.836774 -2.87781 0
M  V30 17948 H 1663.36 -0.589928 -1.5077 0
M  V30 17949 H 1665.35 1.5425 -3.74151 0
M  V30 17950 H 1663.92 1.60728 -2.68114 0
M  V30 17951 H 1663.14 -0.557747 -3.90234 0
M  V30 17952 H 1664.43 -0.254115 -5.08165 0
M  V30 17953 H 1663.83 2.91834 -4.84613 0
M  V30 17954 H 1662.39 3.02741 -5.77227 0
M  V30 17955 N 1665.82 1.49844 -0.488302 0
M  V30 17956 C 1667.1 1.95212 0.123105 0
M  V30 17957 C 1667.48 1.42936 1.55346 0
M  V30 17958 O 1666.82 0.637657 2.19422 0
M  V30 17959 C 1667.03 3.48966 0.0487846 0
M  V30 17960 C 1668.38 4.23982 0.229083 0
M  V30 17961 O 1669.41 3.55982 0.124569 0
M  V30 17962 O 1668.26 5.44709 0.442066 0
M  V30 17963 H 1665.36 0.820652 0.102268 0
M  V30 17964 H 1667.9 1.60542 -0.549935 0
M  V30 17965 H 1666.68 3.79613 -0.949203 0
M  V30 17966 H 1666.3 3.90219 0.76253 0
M  V30 17967 N 1667.3 0.221601 1.56034 0
M  V30 17968 C 1668.23 -0.683171 2.23282 0
M  V30 17969 C 1669.21 -1.20101 1.20456 0
M  V30 17970 O 1670.39 -1.245 1.49041 0
M  V30 17971 C 1667.52 -1.89143 2.91277 0
M  V30 17972 C 1666.48 -1.50742 4.00576 0
M  V30 17973 C 1665.8 -2.79446 4.55867 0
M  V30 17974 C 1667.1 -0.697388 5.17623 0
M  V30 17975 H 1668.8 -0.122488 2.99149 0
M  V30 17976 H 1666.34 -0.0574732 1.43885 0
M  V30 17977 H 1668.3 -2.52982 3.37013 0
M  V30 17978 H 1667.02 -2.47708 2.12858 0
M  V30 17979 H 1665.68 -0.892492 3.5557 0
M  V30 17980 H 1665.33 -3.36155 3.74177 0
M  V30 17981 H 1665.03 -2.54486 5.29633 0
M  V30 17982 H 1666.55 -3.44228 5.04321 0
M  V30 17983 H 1667.96 -1.23948 5.59741 0
M  V30 17984 H 1666.36 -0.544875 5.97621 0
M  V30 17985 H 1667.43 0.295981 4.83996 0
M  V30 17986 N 1668.77 -1.57515 -0.0517878 0
M  V30 17987 C 1670.05 -1.79321 -0.781233 0
M  V30 17988 C 1670.43 -0.814142 -1.94769 0
M  V30 17989 O 1669.78 0.14858 -2.28016 0
M  V30 17990 C 1669.99 -3.26398 -1.23553 0
M  V30 17991 C 1671.34 -3.90773 -1.66077 0
M  V30 17992 O 1672.36 -3.3041 -1.33069 0
M  V30 17993 O 1671.22 -4.97008 -2.27257 0
M  V30 17994 H 1668.31 -0.736627 -0.375912 0
M  V30 17995 H 1670.86 -1.69673 -0.0303173 0
M  V30 17996 H 1669.63 -3.89232 -0.401806 0
M  V30 17997 H 1669.26 -3.40848 -2.04716 0
M  V30 17998 N 1670.25 0.323614 -1.54242 0
M  V30 17999 C 1671.19 1.41936 -1.79963 0
M  V30 18000 C 1672.2 1.47845 -0.681604 0
M  V30 18001 O 1673.39 1.50569 -0.95871 0
M  V30 18002 C 1670.49 2.80472 -1.90233 0
M  V30 18003 C 1669.66 2.97768 -3.20395 0
M  V30 18004 C 1668.72 4.16664 -3.21368 0
M  V30 18005 O 1667.75 4.09827 -3.95007 0
M  V30 18006 N 1668.95 5.26196 -2.45148 0
M  V30 18007 H 1671.71 1.20235 -2.74524 0
M  V30 18008 H 1669.27 0.513599 -1.53538 0
M  V30 18009 H 1671.27 3.58219 -1.88312 0
M  V30 18010 H 1669.84 2.95224 -1.02769 0
M  V30 18011 H 1669.06 2.07322 -3.35278 0
M  V30 18012 H 1670.34 3.06219 -4.06334 0
M  V30 18013 H 1669.74 5.34626 -1.84909 0
M  V30 18014 H 1668.3 6.02362 -2.49004 0
M  V30 18015 N 1671.73 1.46313 0.585673 0
M  V30 18016 C 1672.66 1.59511 1.70524 0
M  V30 18017 C 1673.64 0.445578 1.6416 0
M  V30 18018 O 1674.83 0.671455 1.82223 0
M  V30 18019 C 1671.96 1.58229 3.09162 0
M  V30 18020 C 1670.91 2.72122 3.30354 0
M  V30 18021 C 1670.24 2.559 4.69489 0
M  V30 18022 C 1671.54 4.13969 3.18476 0
M  V30 18023 H 1673.23 2.53229 1.59735 0
M  V30 18024 H 1670.78 1.2187 0.767046 0
M  V30 18025 H 1672.73 1.66056 3.87303 0
M  V30 18026 H 1671.45 0.610535 3.20843 0
M  V30 18027 H 1670.11 2.63759 2.54611 0
M  V30 18028 H 1669.76 1.56814 4.77931 0
M  V30 18029 H 1669.46 3.32289 4.84621 0
M  V30 18030 H 1670.99 2.65613 5.49802 0
M  V30 18031 H 1672.4 4.23459 3.86465 0
M  V30 18032 H 1670.8 4.90922 3.45131 0
M  V30 18033 H 1671.87 4.34334 2.15598 0
M  V30 18034 N 1673.21 -0.830057 1.33969 0
M  V30 18035 C 1674.63 -1.12209 1.13496 0
M  V30 18036 C 1674.83 -2.01384 -0.0682972 0
M  V30 18037 O 1673.88 -2.4123 -0.745949 0
M  V30 18038 C 1675.19 -1.77568 2.42673 0
M  V30 18039 C 1676.74 -1.90095 2.48662 0
M  V30 18040 C 1677.22 -2.5887 3.77823 0
M  V30 18041 N 1678.71 -2.66375 3.78944 0
M  V30 18042 C 1679.44 -3.20301 4.75599 0
M  V30 18043 N 1678.94 -3.74846 5.82634 0
M  V30 18044 N 1680.73 -3.18636 4.63063 0
M  V30 18045 H 1672.88 -0.236752 2.11076 0
M  V30 18046 H 1675.15 -0.167572 0.933072 0
M  V30 18047 H 1674.85 -1.19505 3.30774 0
M  V30 18048 H 1674.73 -2.77505 2.55481 0
M  V30 18049 H 1677.11 -2.47308 1.61005 0
M  V30 18050 H 1677.19 -0.890808 2.39788 0
M  V30 18051 H 1676.84 -2.02313 4.65867 0
M  V30 18052 H 1676.77 -3.60373 3.83978 0
M  V30 18053 H 1679.26 -2.27705 3.01594 0
M  V30 18054 H 1679.57 -4.14224 6.52409 0
M  V30 18055 H 1677.92 -3.7311 5.86357 0
M  V30 18056 H 1681.11 -2.75286 3.78597 0
M  V30 18057 H 1681.28 -3.60359 5.38559 0
M  V30 18058 N 1674.69 -1.17582 -1.04939 0
M  V30 18059 C 1675.91 -0.99097 -1.82194 0
M  V30 18060 C 1676.34 0.455965 -1.8249 0
M  V30 18061 O 1675.7 1.32661 -1.23575 0
M  V30 18062 C 1675.74 -1.53971 -3.26076 0
M  V30 18063 O 1674.85 -0.755172 -4.05427 0
M  V30 18064 H 1674.19 -0.351669 -0.563227 0
M  V30 18065 H 1676.72 -1.56138 -1.3222 0
M  V30 18066 H 1676.73 -1.56307 -3.76872 0
M  V30 18067 H 1675.4 -2.59295 -3.25175 0
M  V30 18068 H 1673.98 -0.803423 -3.64142 0
M  V30 18069 N 1676.17 1.23705 -0.976463 0
M  V30 18070 C 1677.41 1.9132 -0.638714 0
M  V30 18071 C 1677.73 1.7707 0.830993 0
M  V30 18072 O 1678.93 2.39453 1.27964 0
M  V30 18073 C 1677.39 3.42941 -1.09178 0
M  V30 18074 C 1677 3.6586 -2.58555 0
M  V30 18075 C 1678.74 4.16355 -0.827585 0
M  V30 18076 C 1676.65 5.11096 -2.97549 0
M  V30 18077 H 1675.58 0.716382 -0.235187 0
M  V30 18078 H 1678.23 1.40205 -1.18384 0
M  V30 18079 H 1676.61 3.93142 -0.474893 0
M  V30 18080 H 1677.79 3.26221 -3.25448 0
M  V30 18081 H 1676.1 3.05748 -2.82678 0
M  V30 18082 H 1678.7 5.23372 -1.09482 0
M  V30 18083 H 1679.04 4.15629 0.236282 0
M  V30 18084 H 1679.57 3.7213 -1.40586 0
M  V30 18085 H 1676.31 5.1695 -4.03042 0
M  V30 18086 H 1675.83 5.51699 -2.35346 0
M  V30 18087 H 1677.51 5.79397 -2.87937 0
M  V30 18088 N 1677.64 0.747635 1.38738 0
M  V30 18089 C 1678.89 0.301593 2.00545 0
M  V30 18090 C 1679.22 -1.11208 1.59205 0
M  V30 18091 O 1678.5 -1.76052 0.826806 0
M  V30 18092 C 1678.78 0.417739 3.57669 0
M  V30 18093 C 1678.63 1.87209 4.0899 0
M  V30 18094 C 1679.95 -0.192403 4.39679 0
M  V30 18095 H 1677.07 0.11106 0.728584 0
M  V30 18096 H 1679.71 0.946162 1.64766 0
M  V30 18097 H 1677.86 -0.131024 3.88279 0
M  V30 18098 H 1679.54 2.4787 3.89048 0
M  V30 18099 H 1677.78 2.38917 3.62079 0
M  V30 18100 H 1678.45 1.90455 5.18103 0
M  V30 18101 H 1680.93 0.27554 4.15187 0
M  V30 18102 H 1679.8 -0.0808605 5.4884 0
M  V30 18103 H 1680.06 -1.28 4.23165 0
M  V30 18104 N 1679.12 -1.49583 0.496242 0
M  V30 18105 C 1680.03 -2.32808 -0.289404 0
M  V30 18106 C 1681.05 -1.44324 -0.971933 0
M  V30 18107 O 1682.22 -1.77352 -0.954366 0
M  V30 18108 C 1679.29 -3.19645 -1.34269 0
M  V30 18109 C 1678.35 -4.23975 -0.6741 0
M  V30 18110 C 1677.58 -5.06661 -1.6772 0
M  V30 18111 O 1677.81 -4.90792 -2.90654 0
M  V30 18112 O 1676.74 -5.89091 -1.23514 0
M  V30 18113 H 1680.57 -3.01164 0.391664 0
M  V30 18114 H 1678.15 -1.47162 0.257652 0
M  V30 18115 H 1680.03 -3.73453 -1.9522 0
M  V30 18116 H 1678.71 -2.53989 -2.00677 0
M  V30 18117 H 1677.61 -3.74092 -0.0249732 0
M  V30 18118 H 1678.95 -4.92172 -0.0525442 0
M  V30 18119 N 1680.6 -0.229873 -1.55915 0
M  V30 18120 C 1681.55 0.676809 -2.20653 0
M  V30 18121 C 1682.52 1.18412 -1.16481 0
M  V30 18122 O 1683.7 1.2417 -1.44867 0
M  V30 18123 C 1680.84 1.87567 -2.89677 0
M  V30 18124 C 1679.95 1.40648 -4.08463 0
M  V30 18125 C 1679.09 2.56356 -4.65247 0
M  V30 18126 C 1678.13 2.06215 -5.76318 0
M  V30 18127 N 1677.27 3.15226 -6.27357 0
M  V30 18128 H 1682.11 0.118035 -2.97766 0
M  V30 18129 H 1679.64 0.0465042 -1.47026 0
M  V30 18130 H 1681.6 2.57968 -3.27884 0
M  V30 18131 H 1680.23 2.40719 -2.15067 0
M  V30 18132 H 1679.28 0.597104 -3.75684 0
M  V30 18133 H 1680.59 0.998877 -4.88696 0
M  V30 18134 H 1679.75 3.34827 -5.05941 0
M  V30 18135 H 1678.49 3.0041 -3.84194 0
M  V30 18136 H 1677.49 1.26209 -5.35118 0
M  V30 18137 H 1678.72 1.63151 -6.59211 0
M  V30 18138 H 1676.66 3.58746 -5.49215 0
M  V30 18139 H 1676.58 2.78744 -7.02736 0
M  V30 18140 H 1677.85 3.93807 -6.72708 0
M  V30 18141 N 1682.08 1.5754 0.0434337 0
M  V30 18142 C 1683.3 1.93247 0.753012 0
M  V30 18143 C 1683.73 0.828712 1.68861 0
M  V30 18144 O 1683.09 -0.216618 1.80001 0
M  V30 18145 C 1683.13 3.27989 1.49852 0
M  V30 18146 O 1682.24 3.19223 2.61094 0
M  V30 18147 H 1681.58 0.632032 0.203547 0
M  V30 18148 H 1684.11 2.046 0.00319776 0
M  V30 18149 H 1684.12 3.62539 1.87161 0
M  V30 18150 H 1682.79 4.07891 0.812251 0
M  V30 18151 H 1681.37 2.9628 2.26434 0
M  V30 18152 N 1683.56 -0.31543 1.54411 0
M  V30 18153 C 1684.47 -1.41136 1.87397 0
M  V30 18154 C 1685.48 -1.56199 0.76668 0
M  V30 18155 O 1686.66 -1.71139 1.06176 0
M  V30 18156 C 1683.72 -2.75731 2.10174 0
M  V30 18157 C 1682.78 -2.69776 3.33945 0
M  V30 18158 C 1682.02 -3.97952 3.55626 0
M  V30 18159 O 1682.24 -4.96614 2.80589 0
M  V30 18160 O 1681.17 -4.00719 4.49119 0
M  V30 18161 H 1685 -1.16167 2.80605 0
M  V30 18162 H 1682.58 -0.510193 1.40419 0
M  V30 18163 H 1684.47 -3.55392 2.26439 0
M  V30 18164 H 1683.14 -3.00574 1.20154 0
M  V30 18165 H 1682.05 -1.88638 3.23058 0
M  V30 18166 H 1683.38 -2.49887 4.24049 0
M  V30 18167 N 1685.03 -1.46622 -0.577906 0
M  V30 18168 C 1685.96 -1.60413 -1.69676 0
M  V30 18169 C 1686.95 -0.454277 -1.63922 0
M  V30 18170 O 1688.13 -0.68111 -1.81864 0
M  V30 18171 C 1685.26 -1.59866 -3.08318 0
M  V30 18172 C 1684.21 -2.7387 -3.28906 0
M  V30 18173 C 1683.54 -2.58386 -4.68125 0
M  V30 18174 C 1684.84 -4.15652 -3.16276 0
M  V30 18175 H 1686.53 -2.54073 -1.5839 0
M  V30 18176 H 1684.08 -1.22275 -0.760572 0
M  V30 18177 H 1686.03 -1.68108 -3.86417 0
M  V30 18178 H 1684.76 -0.627541 -3.20514 0
M  V30 18179 H 1683.42 -2.65105 -2.53209 0
M  V30 18180 H 1683.06 -1.59347 -4.77093 0
M  V30 18181 H 1682.76 -3.34855 -4.82852 0
M  V30 18182 H 1684.29 -2.68525 -5.48385 0
M  V30 18183 H 1685.7 -4.25503 -3.84214 0
M  V30 18184 H 1684.1 -4.92746 -3.42523 0
M  V30 18185 H 1685.17 -4.35471 -2.13291 0
M  V30 18186 N 1686.51 0.822941 -1.34408 0
M  V30 18187 C 1687.76 1.58107 -1.2796 0
M  V30 18188 C 1688.11 1.91821 0.149148 0
M  V30 18189 O 1687.41 1.57198 1.09541 0
M  V30 18190 C 1687.6 2.88915 -2.10388 0
M  V30 18191 C 1687.43 2.67979 -3.61133 0
M  V30 18192 C 1686.2 2.64714 -4.30412 0
M  V30 18193 C 1688.4 2.39495 -4.55134 0
M  V30 18194 N 1686.38 2.35323 -5.67006 0
M  V30 18195 C 1687.75 2.19799 -5.79732 0
M  V30 18196 C 1689.81 2.25223 -4.44048 0
M  V30 18197 C 1688.51 1.87276 -6.94493 0
M  V30 18198 C 1690.53 1.94096 -5.58642 0
M  V30 18199 C 1689.9 1.75223 -6.82258 0
M  V30 18200 H 1686 0.580949 -0.523472 0
M  V30 18201 H 1688.58 0.964711 -1.6912 0
M  V30 18202 H 1686.75 3.48474 -1.71525 0
M  V30 18203 H 1688.48 3.543 -1.95585 0
M  V30 18204 H 1685.24 2.78787 -3.82851 0
M  V30 18205 H 1685.66 2.23468 -6.39055 0
M  V30 18206 H 1690.3 2.38519 -3.49097 0
M  V30 18207 H 1688.02 1.72717 -7.89427 0
M  V30 18208 H 1691.61 1.83784 -5.5201 0
M  V30 18209 H 1690.49 1.51485 -7.6943 0
M  V30 18210 N 1687.99 1.18137 1.04314 0
M  V30 18211 C 1689.24 0.976648 1.77734 0
M  V30 18212 C 1689.57 -0.492756 1.87844 0
M  V30 18213 O 1688.84 -1.36586 1.38472 0
M  V30 18214 C 1689.13 1.62911 3.21142 0
M  V30 18215 C 1688.98 3.1712 3.1899 0
M  V30 18216 C 1690.3 1.34029 4.19195 0
M  V30 18217 H 1687.42 0.356217 0.645197 0
M  V30 18218 H 1690.06 1.45767 1.21868 0
M  V30 18219 H 1688.21 1.22009 3.68844 0
M  V30 18220 H 1689.88 3.67139 2.79296 0
M  V30 18221 H 1688.13 3.4941 2.57089 0
M  V30 18222 H 1688.8 3.57907 4.20245 0
M  V30 18223 H 1691.27 1.69463 3.80028 0
M  V30 18224 H 1690.15 1.82253 5.1776 0
M  V30 18225 H 1690.41 0.262712 4.41319 0
M  V30 18226 N 1689.47 -1.23186 0.98301 0
M  V30 18227 C 1690.7 -1.95418 0.670479 0
M  V30 18228 C 1691.11 -1.7295 -0.767135 0
M  V30 18229 O 1690.45 -1.01946 -1.52816 0
M  V30 18230 C 1690.51 -3.48456 0.884244 0
M  V30 18231 C 1690.18 -3.94645 2.30443 0
M  V30 18232 C 1691.17 -4.03108 3.28328 0
M  V30 18233 C 1688.86 -4.27561 2.63622 0
M  V30 18234 C 1690.85 -4.43845 4.57471 0
M  V30 18235 C 1688.54 -4.67979 3.92987 0
M  V30 18236 C 1689.54 -4.76088 4.89723 0
M  V30 18237 O 1689.22 -5.15597 6.16778 0
M  V30 18238 H 1688.96 -0.628896 0.247924 0
M  V30 18239 H 1691.51 -1.57559 1.31774 0
M  V30 18240 H 1689.74 -3.86282 0.179809 0
M  V30 18241 H 1691.43 -4.01899 0.568475 0
M  V30 18242 H 1692.2 -3.77879 3.04027 0
M  V30 18243 H 1688.07 -4.2046 1.89036 0
M  V30 18244 H 1691.62 -4.5009 5.32978 0
M  V30 18245 H 1687.52 -4.92658 4.17083 0
M  V30 18246 H 1688.28 -5.33701 6.20569 0
M  V30 18247 N 1690.95 -0.754982 -1.38339 0
M  V30 18248 C 1691.89 -0.128193 -2.30444 0
M  V30 18249 C 1692.86 0.70813 -1.50249 0
M  V30 18250 O 1694.05 0.663969 -1.78875 0
M  V30 18251 C 1691.19 0.757921 -3.36674 0
M  V30 18252 C 1690.3 -0.093181 -4.31899 0
M  V30 18253 C 1689.44 0.796067 -5.25201 0
M  V30 18254 C 1688.48 -0.0585854 -6.12072 0
M  V30 18255 N 1687.61 0.7877 -6.97667 0
M  V30 18256 H 1692.45 -0.919204 -2.83469 0
M  V30 18257 H 1689.99 -0.464921 -1.3956 0
M  V30 18258 H 1691.95 1.28632 -3.96875 0
M  V30 18259 H 1690.58 1.5147 -2.85055 0
M  V30 18260 H 1689.63 -0.73922 -3.73148 0
M  V30 18261 H 1690.94 -0.753146 -4.93081 0
M  V30 18262 H 1690.1 1.39158 -5.90525 0
M  V30 18263 H 1688.83 1.48976 -4.64389 0
M  V30 18264 H 1687.84 -0.666754 -5.45742 0
M  V30 18265 H 1689.06 -0.749361 -6.74953 0
M  V30 18266 H 1687.01 1.46632 -6.39402 0
M  V30 18267 H 1686.93 0.184662 -7.55774 0
M  V30 18268 H 1688.2 1.36814 -7.674 0
M  V30 18269 N 1692.42 1.49318 -0.504168 0
M  V30 18270 C 1693.67 2.02062 0.039149 0
M  V30 18271 C 1693.99 1.38577 1.37191 0
M  V30 18272 O 1693.26 0.542179 1.88248 0
M  V30 18273 H 1691.84 0.746796 0.0174575 0
M  V30 18274 H 1694.51 1.83308 -0.66213 0
M  V30 18275 H 1693.6 3.11656 0.166496 0
M  V30 18276 N 1693.9 0.238138 1.5579 0
M  V30 18277 C 1694.83 -0.697701 2.18323 0
M  V30 18278 C 1695.85 -1.1453 1.15701 0
M  V30 18279 O 1697.04 -1.07359 1.42605 0
M  V30 18280 C 1694.14 -1.95895 2.76547 0
M  V30 18281 C 1693.31 -1.66422 4.04503 0
M  V30 18282 C 1692.37 -2.77419 4.4713 0
M  V30 18283 O 1691.39 -2.45179 5.13689 0
M  V30 18284 N 1692.6 -4.06731 4.14187 0
M  V30 18285 H 1695.36 -0.162705 2.99258 0
M  V30 18286 H 1692.92 0.0577602 1.61797 0
M  V30 18287 H 1694.91 -2.69374 3.02026 0
M  V30 18288 H 1693.48 -2.40398 1.99819 0
M  V30 18289 H 1692.7 -0.76505 3.86705 0
M  V30 18290 H 1693.99 -1.44183 4.87943 0
M  V30 18291 H 1693.39 -4.3576 3.60735 0
M  V30 18292 H 1691.95 -4.76701 4.44521 0
M  V30 18293 N 1695.38 -1.57561 -0.0350783 0
M  V30 18294 C 1696.63 -1.88623 -0.725659 0
M  V30 18295 C 1696.95 -0.835055 -1.76215 0
M  V30 18296 O 1696.22 0.13206 -1.95454 0
M  V30 18297 H 1694.8 -0.696108 -0.271004 0
M  V30 18298 H 1697.46 -1.949 -0.00245508 0
M  V30 18299 H 1696.56 -2.8731 -1.21899 0
M  V30 18300 N 1696.86 0.307236 -1.54576 0
M  V30 18301 C 1698.27 0.88064 -1.64626 0
M  V30 18302 C 1698.62 1.88308 -0.550865 0
M  V30 18303 O 1697.75 2.14116 0.313553 0
M  V30 18304 C 1698.34 1.60405 -2.98422 0
M  V30 18305 C 1696.9 2.12595 -3.10613 0
M  V30 18306 C 1696.05 0.956593 -2.60278 0
M  V30 18307 H 1699 0.0843939 -1.58475 0
M  V30 18308 H 1699.02 2.46925 -2.89496 0
M  V30 18309 H 1698.53 0.874209 -3.78126 0
M  V30 18310 H 1696.63 2.88644 -2.35617 0
M  V30 18311 H 1696.74 2.36475 -4.16673 0
M  V30 18312 H 1695.11 1.3404 -2.16576 0
M  V30 18313 H 1695.89 0.24081 -3.42454 0
M  V30 18314 N 1698.34 1.46926 0.570122 0
M  V30 18315 C 1699.61 1.43365 1.33063 0
M  V30 18316 C 1699.99 0.123738 2.10737 0
M  V30 18317 O 1699.34 -0.894766 2.10253 0
M  V30 18318 C 1699.55 2.67122 2.24604 0
M  V30 18319 C 1700.9 3.13798 2.86035 0
M  V30 18320 O 1701.92 2.67759 2.34912 0
M  V30 18321 O 1700.78 3.93801 3.78923 0
M  V30 18322 H 1697.88 0.570726 0.598499 0
M  V30 18323 H 1700.42 1.5911 0.590095 0
M  V30 18324 H 1699.19 3.54005 1.66722 0
M  V30 18325 H 1698.82 2.53899 3.05976 0
M  V30 18326 N 1699.82 -0.815801 1.34842 0
M  V30 18327 C 1700.73 -1.95886 1.29097 0
M  V30 18328 C 1701.74 -1.72876 0.197422 0
M  V30 18329 O 1702.92 -1.96861 0.425166 0
M  V30 18330 C 1699.98 -3.30311 1.05336 0
M  V30 18331 C 1699.04 -3.66279 2.23916 0
M  V30 18332 C 1698.28 -4.9429 2.01279 0
M  V30 18333 O 1698.5 -5.62012 0.974603 0
M  V30 18334 O 1697.43 -5.28302 2.88411 0
M  V30 18335 H 1701.26 -2.03678 2.25276 0
M  V30 18336 H 1698.84 -0.952243 1.1512 0
M  V30 18337 H 1700.73 -4.10806 0.938961 0
M  V30 18338 H 1699.4 -3.2347 0.122024 0
M  V30 18339 H 1698.31 -2.86198 2.40918 0
M  V30 18340 H 1699.64 -3.77814 3.15464 0
M  V30 18341 N 1701.29 -1.18689 -1.03686 0
M  V30 18342 C 1702.52 -1.00961 -1.80595 0
M  V30 18343 C 1702.94 0.44188 -1.83556 0
M  V30 18344 O 1702.29 1.30693 -1.27379 0
M  V30 18345 C 1702.34 -1.56185 -3.26019 0
M  V30 18346 O 1702.07 -2.95652 -3.23298 0
M  V30 18347 C 1703.57 -1.43129 -4.19558 0
M  V30 18348 H 1700.79 -0.356291 -0.568593 0
M  V30 18349 H 1703.33 -1.57324 -1.3065 0
M  V30 18350 H 1701.49 -1.03989 -3.73182 0
M  V30 18351 H 1701.9 -3.21481 -4.14427 0
M  V30 18352 H 1703.37 -1.86561 -5.19518 0
M  V30 18353 H 1703.85 -0.380581 -4.37548 0
M  V30 18354 H 1704.46 -1.94416 -3.78262 0
M  V30 18355 N 1702.77 1.22662 -0.989529 0
M  V30 18356 C 1703.7 2.23052 -0.481994 0
M  V30 18357 C 1704.68 1.56078 0.455885 0
M  V30 18358 O 1705.87 1.84584 0.382214 0
M  V30 18359 C 1702.99 3.37354 0.301658 0
M  V30 18360 C 1702.04 4.22514 -0.581711 0
M  V30 18361 S 1702.87 4.95326 -2.03501 0
M  V30 18362 C 1704.03 6.13071 -1.26075 0
M  V30 18363 H 1704.26 2.65757 -1.33268 0
M  V30 18364 H 1701.79 1.32286 -0.796233 0
M  V30 18365 H 1703.75 4.03632 0.747763 0
M  V30 18366 H 1702.41 2.93163 1.12758 0
M  V30 18367 H 1701.61 5.03996 0.0210757 0
M  V30 18368 H 1701.21 3.61351 -0.964439 0
M  V30 18369 H 1703.5 6.7545 -0.526687 0
M  V30 18370 H 1704.44 6.77754 -2.05072 0
M  V30 18371 H 1704.85 5.59147 -0.775524 0
M  V30 18372 N 1704.25 0.762308 1.37937 0
M  V30 18373 C 1705.53 0.247502 1.94028 0
M  V30 18374 C 1705.91 -1.25581 1.69684 0
M  V30 18375 O 1705.25 -2.03446 1.04028 0
M  V30 18376 C 1705.46 0.610643 3.43616 0
M  V30 18377 C 1706.81 0.57515 4.20687 0
M  V30 18378 O 1707.84 0.549461 3.51937 0
M  V30 18379 O 1706.7 0.593825 5.43264 0
M  V30 18380 H 1703.79 0.0544389 0.825206 0
M  V30 18381 H 1706.34 0.843021 1.47279 0
M  V30 18382 H 1705.11 1.64853 3.54879 0
M  V30 18383 H 1704.73 -0.0124265 3.97598 0
M  V30 18384 N 1705.73 -1.49049 0.51208 0
M  V30 18385 C 1706.98 -2.0208 -0.0284326 0
M  V30 18386 C 1707.3 -1.39303 -1.36454 0
M  V30 18387 O 1706.57 -0.552155 -1.87958 0
M  V30 18388 H 1705.15 -0.746878 -0.0134968 0
M  V30 18389 H 1707.81 -1.82954 0.671842 0
M  V30 18390 H 1706.9 -3.11739 -0.149966 0
M  V30 18391 N 1707.21 -0.246397 -1.55662 0
M  V30 18392 C 1708.17 0.640041 -2.20082 0
M  V30 18393 C 1709.17 1.10313 -1.16994 0
M  V30 18394 O 1710.36 1.00792 -1.42079 0
M  V30 18395 C 1707.49 1.87964 -2.84398 0
M  V30 18396 H 1708.68 0.0780034 -2.99799 0
M  V30 18397 H 1706.24 0.00314588 -1.563 0
M  V30 18398 H 1706.97 2.48292 -2.08618 0
M  V30 18399 H 1706.76 1.5558 -3.59913 0
M  V30 18400 H 1708.25 2.51065 -3.33701 0
M  V30 18401 N 1708.68 1.57577 0.026722 0
M  V30 18402 C 1709.91 1.94035 0.732473 0
M  V30 18403 C 1710.33 0.846575 1.67972 0
M  V30 18404 O 1709.69 -0.197514 1.80221 0
M  V30 18405 C 1709.74 3.2956 1.46365 0
M  V30 18406 O 1708.84 3.21975 2.57694 0
M  V30 18407 H 1708.18 0.634155 0.196832 0
M  V30 18408 H 1710.71 2.04592 -0.018503 0
M  V30 18409 H 1710.72 3.64504 1.83305 0
M  V30 18410 H 1709.4 4.0873 0.768943 0
M  V30 18411 H 1707.98 2.98665 2.23279 0
M  V30 18412 N 1710.16 -0.299034 1.54737 0
M  V30 18413 C 1711.41 -1.03195 1.73767 0
M  V30 18414 C 1711.73 -1.87731 0.527445 0
M  V30 18415 O 1711 -1.90465 -0.458242 0
M  V30 18416 H 1709.58 -0.383996 0.640747 0
M  V30 18417 H 1712.24 -0.329544 1.92094 0
M  V30 18418 H 1711.34 -1.68393 2.62774 0
M  V30 18419 N 1711.64 -1.47227 -0.562322 0
M  V30 18420 C 1712.55 -1.61953 -1.69731 0
M  V30 18421 C 1713.57 -0.502478 -1.66587 0
M  V30 18422 O 1714.74 -0.769335 -1.86127 0
M  V30 18423 C 1711.81 -1.62539 -3.06238 0
M  V30 18424 C 1710.87 -2.85632 -3.20489 0
M  V30 18425 C 1710.1 -2.86181 -4.50485 0
M  V30 18426 O 1710.32 -1.96099 -5.35632 0
M  V30 18427 O 1709.26 -3.7798 -4.68417 0
M  V30 18428 H 1713.08 -2.5798 -1.6025 0
M  V30 18429 H 1710.67 -1.30253 -0.73174 0
M  V30 18430 H 1712.55 -1.65634 -3.87483 0
M  V30 18431 H 1711.23 -0.696779 -3.16112 0
M  V30 18432 H 1710.13 -2.88084 -2.3866 0
M  V30 18433 H 1711.47 -3.7777 -3.15517 0
M  V30 18434 N 1713.12 0.808639 -1.35273 0
M  V30 18435 C 1714.07 1.94177 -1.28055 0
M  V30 18436 C 1715.06 1.68485 -0.175874 0
M  V30 18437 O 1716.27 1.76726 -0.341729 0
M  V30 18438 H 1712.64 0.63793 -0.398183 0
M  V30 18439 H 1714.61 1.97385 -2.2379 0
M  V30 18440 C 1713.36 3.30913 -1.06734 0
M  V30 18441 H 1712.68 3.51238 -1.90975 0
M  V30 18442 H 1714.12 4.10607 -1.05724 0
M  V30 18443 C 1712.58 3.36122 0.228886 0
M  V30 18444 O 1713.11 3.82553 1.22539 0
M  V30 18445 N 1711.32 2.89371 0.266949 0
M  V30 18446 H 1710.87 2.51778 -0.544571 0
M  V30 18447 H 1710.82 2.93238 1.13396 0
M  V30 18448 N 1714.6 1.19237 1.03055 0
M  V30 18449 C 1715.51 0.943876 2.14775 0
M  V30 18450 C 1716.52 -0.0955384 1.73738 0
M  V30 18451 O 1717.7 0.0887187 2.01204 0
M  V30 18452 C 1714.76 0.48402 3.43305 0
M  V30 18453 C 1713.82 1.59262 3.98665 0
M  V30 18454 C 1713.06 1.15461 5.21061 0
M  V30 18455 O 1713.28 0.0174841 5.70397 0
M  V30 18456 O 1712.21 1.95648 5.69215 0
M  V30 18457 H 1716.04 1.87894 2.38599 0
M  V30 18458 H 1713.63 0.975046 1.13195 0
M  V30 18459 H 1715.51 0.236135 4.20738 0
M  V30 18460 H 1714.18 -0.422626 3.20929 0
M  V30 18461 H 1713.09 1.89464 3.22574 0
M  V30 18462 H 1714.42 2.47576 4.25402 0
M  V30 18463 N 1716.07 -1.22136 0.99602 0
M  V30 18464 C 1717.02 -2.2199 0.520059 0
M  V30 18465 C 1718.01 -1.55497 -0.413454 0
M  V30 18466 O 1719.2 -1.75369 -0.239765 0
M  V30 18467 C 1716.33 -3.42923 -0.160875 0
M  V30 18468 C 1715.42 -4.16618 0.793126 0
M  V30 18469 N 1715.81 -4.67022 1.94226 0
M  V30 18470 C 1714.1 -4.41814 0.609648 0
M  V30 18471 C 1714.81 -5.23252 2.5413 0
M  V30 18472 N 1713.78 -5.12096 1.8237 0
M  V30 18473 H 1717.58 -2.58606 1.39643 0
M  V30 18474 H 1715.1 -1.37842 0.858682 0
M  V30 18475 H 1717.09 -4.13654 -0.519266 0
M  V30 18476 H 1715.75 -3.07818 -1.03334 0
M  V30 18477 H 1716.77 -4.62882 2.32294 0
M  V30 18478 H 1713.44 -4.16938 -0.216495 0
M  V30 18479 H 1714.83 -5.72769 3.51263 0
M  V30 18480 N 1717.55 -0.769612 -1.37531 0
M  V30 18481 C 1718.5 -0.152627 -2.30295 0
M  V30 18482 C 1719.47 0.692154 -1.50992 0
M  V30 18483 O 1720.65 0.64496 -1.79569 0
M  V30 18484 C 1717.79 0.72217 -3.37459 0
M  V30 18485 C 1716.91 -0.138985 -4.31776 0
M  V30 18486 C 1716.04 0.740317 -5.26016 0
M  V30 18487 C 1715.08 -0.1235 -6.11975 0
M  V30 18488 N 1714.22 0.713658 -6.98464 0
M  V30 18489 H 1719.06 -0.949218 -2.82478 0
M  V30 18490 H 1716.6 -0.479697 -1.39059 0
M  V30 18491 H 1718.55 1.24415 -3.98217 0
M  V30 18492 H 1717.18 1.48438 -2.86646 0
M  V30 18493 H 1716.24 -0.778756 -3.72343 0
M  V30 18494 H 1717.55 -0.805402 -4.92255 0
M  V30 18495 H 1716.7 1.32887 -5.91968 0
M  V30 18496 H 1715.44 1.44042 -4.65943 0
M  V30 18497 H 1714.45 -0.7246 -5.45004 0
M  V30 18498 H 1715.67 -0.820907 -6.7412 0
M  V30 18499 H 1713.62 1.39842 -6.40921 0
M  V30 18500 H 1713.53 0.104492 -7.55928 0
M  V30 18501 H 1714.8 1.28667 -7.68808 0
M  V30 18502 N 1719.03 1.48775 -0.519977 0
M  V30 18503 C 1719.98 2.29461 0.248242 0
M  V30 18504 C 1720.95 1.36734 0.943027 0
M  V30 18505 O 1722.13 1.65697 0.946003 0
M  V30 18506 C 1719.27 3.19868 1.29531 0
M  V30 18507 C 1718.39 4.27666 0.610379 0
M  V30 18508 C 1717.52 5.05266 1.63951 0
M  V30 18509 C 1716.56 6.04878 0.937496 0
M  V30 18510 N 1715.7 6.75573 1.91171 0
M  V30 18511 H 1720.54 2.94643 -0.446016 0
M  V30 18512 H 1718.07 1.45262 -0.231792 0
M  V30 18513 H 1720.03 3.70675 1.91456 0
M  V30 18514 H 1718.66 2.5663 1.95808 0
M  V30 18515 H 1717.71 3.80202 -0.122598 0
M  V30 18516 H 1719.03 4.98765 0.0586864 0
M  V30 18517 H 1718.18 5.60037 2.33332 0
M  V30 18518 H 1716.92 4.33983 2.22509 0
M  V30 18519 H 1715.92 5.49321 0.229562 0
M  V30 18520 H 1717.15 6.78155 0.358166 0
M  V30 18521 H 1715.09 6.07048 2.48655 0
M  V30 18522 H 1715.01 7.42712 1.41118 0
M  V30 18523 H 1716.28 7.34938 2.59781 0
M  V30 18524 N 1720.51 0.254649 1.55529 0
M  V30 18525 C 1721.74 -0.371856 2.03531 0
M  V30 18526 C 1722.15 -1.50974 1.13368 0
M  V30 18527 O 1721.51 -1.81885 0.14964 0
M  V30 18528 C 1721.56 -0.872314 3.50818 0
M  V30 18529 O 1721.28 0.22023 4.37546 0
M  V30 18530 C 1722.78 -1.56872 4.14616 0
M  V30 18531 H 1720 -0.0874565 0.665276 0
M  V30 18532 H 1722.55 0.380774 2.00924 0
M  V30 18533 H 1720.7 -1.5751 3.53934 0
M  V30 18534 H 1721.11 -0.161046 5.24253 0
M  V30 18535 H 1722.59 -1.87053 5.19341 0
M  V30 18536 H 1723.07 -2.49334 3.61565 0
M  V30 18537 H 1723.67 -0.910314 4.15444 0
M  V30 18538 N 1721.99 -1.57589 -0.0183649 0
M  V30 18539 C 1722.9 -2.10665 -1.03235 0
M  V30 18540 C 1723.91 -1.04767 -1.38924 0
M  V30 18541 O 1725.09 -1.36565 -1.48027 0
M  V30 18542 C 1722.15 -2.58432 -2.31114 0
M  V30 18543 C 1721.21 -3.78856 -2.01908 0
M  V30 18544 C 1720.45 -4.24335 -3.2369 0
M  V30 18545 O 1720.67 -3.69266 -4.3474 0
M  V30 18546 O 1719.6 -5.16671 -3.08763 0
M  V30 18547 H 1723.43 -2.97485 -0.611254 0
M  V30 18548 H 1721.02 -1.47524 -0.236035 0
M  V30 18549 H 1722.9 -2.89438 -3.06274 0
M  V30 18550 H 1721.57 -1.74718 -2.72498 0
M  V30 18551 H 1720.48 -3.52852 -1.24282 0
M  V30 18552 H 1721.81 -4.63587 -1.65373 0
M  V30 18553 N 1723.46 0.290824 -1.54893 0
M  V30 18554 C 1724.37 1.38137 -1.89619 0
M  V30 18555 C 1725.39 1.54959 -0.791432 0
M  V30 18556 O 1726.57 1.69428 -1.08885 0
M  V30 18557 C 1723.63 2.72353 -2.14534 0
M  V30 18558 C 1722.69 2.64429 -3.38195 0
M  V30 18559 C 1721.93 3.92244 -3.61912 0
M  V30 18560 O 1722.15 4.92088 -2.88454 0
M  V30 18561 O 1721.08 3.93523 -4.55438 0
M  V30 18562 H 1724.91 1.11688 -2.82417 0
M  V30 18563 H 1722.49 0.487789 -1.41213 0
M  V30 18564 H 1724.38 3.51745 -2.32064 0
M  V30 18565 H 1723.05 2.98624 -1.24921 0
M  V30 18566 H 1721.96 1.83474 -3.26018 0
M  V30 18567 H 1723.29 2.43109 -4.2797 0
M  V30 18568 N 1724.94 1.47523 0.554506 0
M  V30 18569 C 1726.19 1.53982 1.30897 0
M  V30 18570 C 1726.51 0.20487 1.93921 0
M  V30 18571 O 1725.78 -0.771422 1.80072 0
M  V30 18572 H 1724.36 0.567206 0.486092 0
M  V30 18573 H 1727.02 1.83838 0.647284 0
M  V30 18574 H 1726.12 2.30783 2.10109 0
M  V30 18575 N 1726.42 -0.801453 1.357 0
M  V30 18576 C 1727.37 -1.93495 1.29083 0
M  V30 18577 C 1728.36 -1.68389 0.184806 0
M  V30 18578 O 1729.57 -1.76543 0.351097 0
M  V30 18579 H 1725.94 -0.635809 0.40156 0
M  V30 18580 H 1727.91 -1.96195 2.24833 0
M  V30 18581 C 1726.66 -3.30342 1.08487 0
M  V30 18582 H 1725.99 -3.50221 1.92835 0
M  V30 18583 H 1727.43 -4.10041 1.079 0
M  V30 18584 C 1725.89 -3.36238 -0.211057 0
M  V30 18585 O 1726.42 -3.83198 -1.20508 0
M  V30 18586 N 1724.62 -2.89509 -0.251599 0
M  V30 18587 H 1724.17 -2.51486 0.557916 0
M  V30 18588 H 1724.13 -2.93836 -1.11839 0
M  V30 18589 N 1727.9 -1.19782 -1.02421 0
M  V30 18590 C 1728.85 -0.936475 -2.12915 0
M  V30 18591 C 1729.84 0.10941 -1.69046 0
M  V30 18592 O 1731.05 -0.04026 -1.79955 0
M  V30 18593 H 1727.42 -0.285462 -0.695712 0
M  V30 18594 H 1729.39 -1.87485 -2.32146 0
M  V30 18595 C 1728.14 -0.496786 -3.44133 0
M  V30 18596 H 1727.46 -1.29314 -3.78309 0
M  V30 18597 H 1728.9 -0.353073 -4.22527 0
M  V30 18598 C 1727.36 0.789792 -3.27512 0
M  V30 18599 O 1727.89 1.85009 -3.56559 0
M  V30 18600 N 1726.1 0.748849 -2.80786 0
M  V30 18601 H 1725.65 -0.114256 -2.57346 0
M  V30 18602 H 1725.6 1.61005 -2.70046 0
M  V30 18603 N 1729.38 1.21606 -1.00248 0
M  V30 18604 C 1730.32 2.23884 -0.560771 0
M  V30 18605 C 1731.29 1.60913 0.411864 0
M  V30 18606 O 1732.48 1.88191 0.314476 0
M  V30 18607 C 1729.62 3.44928 0.108948 0
M  V30 18608 C 1728.73 4.22381 -0.906566 0
M  V30 18609 C 1727.87 5.30787 -0.20937 0
M  V30 18610 C 1726.91 5.99969 -1.2126 0
M  V30 18611 N 1726.04 6.99997 -0.543057 0
M  V30 18612 H 1730.88 2.61029 -1.43764 0
M  V30 18613 H 1728.42 1.28278 -0.719937 0
M  V30 18614 H 1730.38 4.14019 0.514244 0
M  V30 18615 H 1729.01 3.08518 0.949544 0
M  V30 18616 H 1728.06 3.52493 -1.43012 0
M  V30 18617 H 1729.37 4.70009 -1.67013 0
M  V30 18618 H 1728.53 6.06176 0.252164 0
M  V30 18619 H 1727.27 4.84159 0.586621 0
M  V30 18620 H 1726.27 5.23353 -1.68467 0
M  V30 18621 H 1727.5 6.48684 -2.00963 0
M  V30 18622 H 1725.44 6.55585 0.233324 0
M  V30 18623 H 1725.36 7.45679 -1.24492 0
M  V30 18624 H 1726.63 7.7943 -0.104643 0
M  V30 18625 N 1730.86 0.776895 1.37121 0
M  V30 18626 C 1732.27 0.408311 1.8218 0
M  V30 18627 C 1732.62 -1.06621 1.64701 0
M  V30 18628 O 1731.74 -1.82621 1.16097 0
M  V30 18629 C 1732.34 0.734339 3.30746 0
M  V30 18630 C 1730.9 0.418746 3.74063 0
M  V30 18631 C 1730.04 0.97551 2.59575 0
M  V30 18632 H 1732.99 0.971111 1.25519 0
M  V30 18633 H 1733.02 0.0208557 3.80494 0
M  V30 18634 H 1732.53 1.80757 3.43436 0
M  V30 18635 H 1730.63 -0.646961 3.6694 0
M  V30 18636 H 1730.74 0.930597 4.69975 0
M  V30 18637 H 1729.11 0.399449 2.51548 0
M  V30 18638 H 1729.89 2.05425 2.75056 0
M  V30 18639 N 1732.33 -1.48497 0.527859 0
M  V30 18640 C 1733.27 -2.27566 -0.273157 0
M  V30 18641 C 1734.28 -1.35235 -0.906381 0
M  V30 18642 O 1735.47 -1.60303 -0.785182 0
M  V30 18643 C 1732.57 -3.08546 -1.40187 0
M  V30 18644 C 1731.74 -4.28641 -0.870962 0
M  V30 18645 C 1730.8 -4.91449 -1.88054 0
M  V30 18646 O 1729.83 -5.50727 -1.43833 0
M  V30 18647 N 1731.03 -4.83501 -3.21259 0
M  V30 18648 H 1733.79 -2.96951 0.404963 0
M  V30 18649 H 1731.35 -1.578 0.362057 0
M  V30 18650 H 1733.35 -3.47434 -2.07537 0
M  V30 18651 H 1731.92 -2.41596 -1.98369 0
M  V30 18652 H 1731.14 -3.94194 -0.0215331 0
M  V30 18653 H 1732.42 -5.06385 -0.495105 0
M  V30 18654 H 1731.82 -4.36487 -3.59855 0
M  V30 18655 H 1730.38 -5.26495 -3.84248 0
M  V30 18656 N 1733.81 -0.262893 -1.55392 0
M  V30 18657 C 1734.76 0.629853 -2.22039 0
M  V30 18658 C 1735.73 1.15915 -1.18966 0
M  V30 18659 O 1736.91 1.21069 -1.47468 0
M  V30 18660 C 1734.05 1.8138 -2.9359 0
M  V30 18661 C 1733.17 1.31952 -4.11355 0
M  V30 18662 C 1732.3 2.4643 -4.7058 0
M  V30 18663 C 1731.34 1.93944 -5.80562 0
M  V30 18664 N 1730.48 3.01848 -6.33902 0
M  V30 18665 H 1735.32 0.0548473 -2.9795 0
M  V30 18666 H 1732.85 0.0153072 -1.47092 0
M  V30 18667 H 1734.81 2.50955 -3.33283 0
M  V30 18668 H 1733.44 2.36103 -2.20125 0
M  V30 18669 H 1732.49 0.517281 -3.76866 0
M  V30 18670 H 1733.81 0.894993 -4.90705 0
M  V30 18671 H 1732.96 3.2402 -5.12929 0
M  V30 18672 H 1731.7 2.92193 -3.9048 0
M  V30 18673 H 1730.7 1.1483 -5.37675 0
M  V30 18674 H 1731.93 1.49132 -6.62523 0
M  V30 18675 H 1729.88 3.47015 -5.56701 0
M  V30 18676 H 1729.79 2.63775 -7.08491 0
M  V30 18677 H 1731.06 3.79449 -6.8091 0
M  V30 18678 N 1735.29 1.57597 0.0100073 0
M  V30 18679 C 1736.24 2.04265 1.01292 0
M  V30 18680 C 1737.22 0.93547 1.30911 0
M  V30 18681 O 1738.42 1.19929 1.30177 0
M  V30 18682 C 1735.54 2.54129 2.3081 0
M  V30 18683 C 1734.63 3.71704 2.04198 0
M  V30 18684 N 1735.02 4.83752 1.47709 0
M  V30 18685 C 1733.32 3.79443 2.34391 0
M  V30 18686 C 1734.02 5.65255 1.37339 0
M  V30 18687 N 1733 5.1095 1.85556 0
M  V30 18688 H 1736.8 2.8831 0.570489 0
M  V30 18689 H 1734.31 1.60958 0.215919 0
M  V30 18690 H 1736.31 2.85832 3.03489 0
M  V30 18691 H 1734.97 1.71497 2.75715 0
M  V30 18692 H 1735.98 5.04805 1.15723 0
M  V30 18693 H 1732.66 3.07648 2.82239 0
M  V30 18694 H 1734.05 6.65293 0.939918 0
M  V30 18695 N 1736.77 -0.282606 1.55045 0
M  V30 18696 C 1737.68 -1.37129 1.90349 0
M  V30 18697 C 1738.69 -1.54537 0.799639 0
M  V30 18698 O 1739.87 -1.68849 1.09782 0
M  V30 18699 C 1736.93 -2.71211 2.15975 0
M  V30 18700 C 1736 -2.62632 3.39592 0
M  V30 18701 C 1735.23 -3.90319 3.63987 0
M  V30 18702 O 1735.45 -4.90551 2.9106 0
M  V30 18703 O 1734.39 -3.91102 4.57518 0
M  V30 18704 H 1738.21 -1.10189 2.83006 0
M  V30 18705 H 1735.8 -0.480293 1.41469 0
M  V30 18706 H 1737.68 -3.50509 2.33926 0
M  V30 18707 H 1736.35 -2.97958 1.26503 0
M  V30 18708 H 1735.26 -1.81743 3.26987 0
M  V30 18709 H 1736.59 -2.40836 4.29254 0
M  V30 18710 N 1738.25 -1.47815 -0.546675 0
M  V30 18711 C 1739.47 -1.58864 -1.33331 0
M  V30 18712 C 1739.9 -0.24302 -1.86524 0
M  V30 18713 O 1739.25 0.782777 -1.63531 0
M  V30 18714 C 1739.3 -2.62556 -2.47177 0
M  V30 18715 O 1738.41 -2.18558 -3.49723 0
M  V30 18716 H 1737.75 -0.53329 -0.395598 0
M  V30 18717 H 1740.28 -1.93677 -0.659579 0
M  V30 18718 H 1740.29 -2.83307 -2.936 0
M  V30 18719 H 1738.96 -3.60255 -2.0782 0
M  V30 18720 H 1737.54 -2.0795 -3.09534 0
M  V30 18721 N 1739.72 0.794246 -1.36123 0
M  V30 18722 C 1740.95 1.58297 -1.33228 0
M  V30 18723 C 1741.37 1.88597 0.0875426 0
M  V30 18724 O 1740.72 1.49754 1.04307 0
M  V30 18725 C 1740.77 2.90687 -2.14904 0
M  V30 18726 O 1740.5 2.61695 -3.51351 0
M  V30 18727 C 1742 3.85009 -2.19734 0
M  V30 18728 H 1739.22 0.491139 -0.457191 0
M  V30 18729 H 1741.76 0.986129 -1.79153 0
M  V30 18730 H 1739.92 3.46852 -1.72546 0
M  V30 18731 H 1740.33 3.46313 -3.93913 0
M  V30 18732 H 1741.8 4.74976 -2.8125 0
M  V30 18733 H 1742.28 4.22504 -1.19946 0
M  V30 18734 H 1742.89 3.34777 -2.62307 0
M  V30 18735 N 1741.2 1.20323 1.01785 0
M  V30 18736 C 1742.43 1.03893 1.79502 0
M  V30 18737 C 1742.85 -0.407421 1.83635 0
M  V30 18738 O 1742.21 -1.29338 1.27049 0
M  V30 18739 C 1742.26 1.62562 3.21879 0
M  V30 18740 O 1741.36 0.862398 4.03282 0
M  V30 18741 H 1740.7 0.366479 0.553705 0
M  V30 18742 H 1743.23 1.59589 1.28034 0
M  V30 18743 H 1743.24 1.66244 3.72595 0
M  V30 18744 H 1741.92 2.67826 3.18186 0
M  V30 18745 H 1740.49 0.899687 3.61884 0
M  V30 18746 N 1742.68 -1.21073 1.00892 0
M  V30 18747 C 1743.9 -1.94774 0.712588 0
M  V30 18748 C 1744.33 -1.73812 -0.719085 0
M  V30 18749 O 1743.69 -1.02747 -1.49374 0
M  V30 18750 C 1743.74 -3.45156 1.04402 0
M  V30 18751 O 1742.84 -4.12122 0.151433 0
M  V30 18752 H 1742.18 -0.608775 0.26512 0
M  V30 18753 H 1744.71 -1.53721 1.35022 0
M  V30 18754 H 1744.72 -3.95744 0.992511 0
M  V30 18755 H 1743.4 -3.59736 2.08716 0
M  V30 18756 H 1741.97 -3.71994 0.259805 0
M  V30 18757 N 1744.16 -0.784156 -1.36707 0
M  V30 18758 C 1745.39 -0.365371 -2.03344 0
M  V30 18759 C 1745.8 1.02133 -1.59266 0
M  V30 18760 O 1745.14 1.66547 -0.775098 0
M  V30 18761 C 1745.2 -0.343819 -3.57852 0
M  V30 18762 C 1744.87 -1.6772 -4.25111 0
M  V30 18763 C 1745.86 -2.63179 -4.48367 0
M  V30 18764 C 1743.55 -1.95505 -4.62691 0
M  V30 18765 C 1745.54 -3.84621 -5.08277 0
M  V30 18766 C 1743.23 -3.17215 -5.2232 0
M  V30 18767 C 1744.23 -4.11592 -5.45052 0
M  V30 18768 O 1743.91 -5.31157 -6.0343 0
M  V30 18769 H 1743.65 -0.14936 -0.659293 0
M  V30 18770 H 1746.2 -1.06269 -1.75772 0
M  V30 18771 H 1744.43 0.409964 -3.84521 0
M  V30 18772 H 1746.12 0.0495818 -4.0587 0
M  V30 18773 H 1746.89 -2.42998 -4.19735 0
M  V30 18774 H 1742.76 -1.22867 -4.44325 0
M  V30 18775 H 1746.31 -4.58298 -5.25936 0
M  V30 18776 H 1742.21 -3.37276 -5.50377 0
M  V30 18777 H 1742.97 -5.32149 -6.219 0
M  V30 18778 N 1745.64 1.48215 -0.535727 0
M  V30 18779 C 1746.58 2.31387 0.237209 0
M  V30 18780 C 1747.58 1.41589 0.929995 0
M  V30 18781 O 1748.78 1.58466 0.853725 0
M  V30 18782 H 1745.16 0.745928 0.0953663 0
M  V30 18783 H 1747.13 2.94452 -0.483772 0
M  V30 18784 C 1745.88 3.23771 1.26757 0
M  V30 18785 H 1745.2 3.92818 0.743902 0
M  V30 18786 H 1746.64 3.84841 1.7797 0
M  V30 18787 C 1745.1 2.45779 2.30422 0
M  V30 18788 O 1745.63 2.18673 3.36964 0
M  V30 18789 N 1743.84 2.07171 2.03785 0
M  V30 18790 H 1743.38 2.29416 1.17159 0
M  V30 18791 H 1743.34 1.55301 2.73366 0
M  V30 18792 N 1747.11 0.27113 1.5525 0
M  V30 18793 C 1748.34 -0.34974 2.03618 0
M  V30 18794 C 1748.75 -1.5031 1.14907 0
M  V30 18795 O 1748.1 -1.82994 0.160886 0
M  V30 18796 C 1748.16 -0.89674 3.48136 0
M  V30 18797 C 1747.82 0.127473 4.56822 0
M  V30 18798 C 1748.82 0.945589 5.11229 0
M  V30 18799 C 1746.5 0.260562 5.01624 0
M  V30 18800 C 1748.5 1.88302 6.08951 0
M  V30 18801 C 1746.18 1.20147 5.99173 0
M  V30 18802 C 1747.18 2.01121 6.52717 0
M  V30 18803 O 1746.87 2.93621 7.48359 0
M  V30 18804 H 1746.6 -0.0843491 0.670717 0
M  V30 18805 H 1749.16 0.399804 2.01471 0
M  V30 18806 H 1747.39 -1.69628 3.4751 0
M  V30 18807 H 1749.08 -1.43027 3.79866 0
M  V30 18808 H 1749.84 0.853483 4.77431 0
M  V30 18809 H 1745.72 -0.359689 4.59595 0
M  V30 18810 H 1749.26 2.51545 6.50669 0
M  V30 18811 H 1745.16 1.29441 6.32389 0
M  V30 18812 H 1745.93 2.88258 7.66061 0
M  V30 18813 N 1748.59 -1.576 -0.00164943 0
M  V30 18814 C 1750.01 -1.5554 -0.357706 0
M  V30 18815 C 1750.21 -1.00078 -1.74891 0
M  V30 18816 O 1749.26 -0.633864 -2.44414 0
M  V30 18817 C 1750.58 -2.99785 -0.234448 0
M  V30 18818 C 1752.13 -3.11466 -0.309509 0
M  V30 18819 C 1752.6 -4.57493 -0.215394 0
M  V30 18820 N 1754.09 -4.62393 -0.273345 0
M  V30 18821 C 1754.83 -5.72963 -0.223836 0
M  V30 18822 N 1754.32 -6.92687 -0.12502 0
M  V30 18823 N 1756.12 -5.61424 -0.27558 0
M  V30 18824 H 1748.27 -1.91992 0.908448 0
M  V30 18825 H 1750.53 -0.88179 0.348067 0
M  V30 18826 H 1750.24 -3.44195 0.722671 0
M  V30 18827 H 1750.11 -3.63226 -1.01718 0
M  V30 18828 H 1752.5 -2.66986 -1.25707 0
M  V30 18829 H 1752.58 -2.50805 0.503064 0
M  V30 18830 H 1752.22 -5.02647 0.728617 0
M  V30 18831 H 1752.15 -5.16098 -1.04643 0
M  V30 18832 H 1754.64 -3.76265 -0.351116 0
M  V30 18833 H 1754.96 -7.72744 -0.0930938 0
M  V30 18834 H 1753.3 -6.94941 -0.0906712 0
M  V30 18835 H 1756.49 -4.66782 -0.350963 0
M  V30 18836 H 1756.66 -6.47579 -0.233531 0
M  V30 18837 N 1750.07 0.274379 -1.55193 0
M  V30 18838 C 1751.32 1.00766 -1.75995 0
M  V30 18839 C 1751.65 1.8599 -0.558679 0
M  V30 18840 O 1750.92 1.8937 0.443784 0
M  V30 18841 C 1751.21 1.89137 -3.0643 0
M  V30 18842 C 1751.06 1.06914 -4.36909 0
M  V30 18843 C 1752.38 2.87869 -3.32896 0
M  V30 18844 H 1749.5 0.364915 -0.640317 0
M  V30 18845 H 1752.14 0.280156 -1.87923 0
M  V30 18846 H 1750.29 2.51166 -2.96391 0
M  V30 18847 H 1751.96 0.469666 -4.58903 0
M  V30 18848 H 1750.21 0.372566 -4.32197 0
M  V30 18849 H 1750.88 1.72063 -5.24498 0
M  V30 18850 H 1753.35 2.35974 -3.42718 0
M  V30 18851 H 1752.23 3.46845 -4.25429 0
M  V30 18852 H 1752.49 3.62921 -2.52469 0
M  V30 18853 N 1751.55 1.48103 0.538828 0
M  V30 18854 C 1752.79 1.559 1.29704 0
M  V30 18855 C 1753.13 0.228359 1.92853 0
M  V30 18856 O 1752.4 -0.764825 1.78831 0
M  V30 18857 C 1752.69 2.69072 2.39316 0
M  V30 18858 C 1752.54 4.11812 1.80916 0
M  V30 18859 C 1753.86 2.78051 3.41138 0
M  V30 18860 H 1750.98 0.5675 0.470226 0
M  V30 18861 H 1753.62 1.80239 0.601163 0
M  V30 18862 H 1751.77 2.4845 2.98672 0
M  V30 18863 H 1753.44 4.4385 1.25679 0
M  V30 18864 H 1751.68 4.19227 1.11494 0
M  V30 18865 H 1752.35 4.86805 2.6024 0
M  V30 18866 H 1754.83 2.96707 2.91726 0
M  V30 18867 H 1753.71 3.58982 4.15239 0
M  V30 18868 H 1753.97 1.85849 4.01139 0
M  V30 18869 N 1753.03 -0.787016 1.36542 0
M  V30 18870 C 1753.97 -1.89975 1.31065 0
M  V30 18871 C 1754.94 -1.65134 0.178905 0
M  V30 18872 O 1756.13 -1.8726 0.36581 0
M  V30 18873 C 1753.27 -3.26822 1.10821 0
M  V30 18874 C 1752.38 -3.6372 2.33091 0
M  V30 18875 C 1751.52 -4.89697 2.0584 0
M  V30 18876 C 1750.56 -5.1928 3.24059 0
M  V30 18877 N 1749.69 -6.36441 2.96457 0
M  V30 18878 H 1754.53 -1.93993 2.2621 0
M  V30 18879 H 1752.07 -0.948631 1.12425 0
M  V30 18880 H 1754.03 -4.05741 0.971091 0
M  V30 18881 H 1752.66 -3.22221 0.193302 0
M  V30 18882 H 1751.71 -2.79906 2.57598 0
M  V30 18883 H 1753.02 -3.81529 3.21305 0
M  V30 18884 H 1752.18 -5.76486 1.89072 0
M  V30 18885 H 1750.91 -4.73962 1.14941 0
M  V30 18886 H 1749.92 -4.30973 3.41383 0
M  V30 18887 H 1751.14 -5.36934 4.15787 0
M  V30 18888 H 1749.09 -6.22093 2.08172 0
M  V30 18889 H 1749.01 -6.54594 3.78209 0
M  V30 18890 H 1750.28 -7.26207 2.83273 0
M  V30 18891 N 1754.5 -1.20861 -1.01145 0
M  V30 18892 C 1755.41 -0.977926 -2.13246 0
M  V30 18893 C 1756.43 0.0678862 -1.73868 0
M  V30 18894 O 1757.61 -0.120717 -2.01038 0
M  V30 18895 C 1754.67 -0.538575 -3.42491 0
M  V30 18896 C 1753.73 -1.65584 -3.96081 0
M  V30 18897 C 1752.97 -1.23736 -5.19158 0
M  V30 18898 O 1753.19 -0.108227 -5.70297 0
M  V30 18899 O 1752.12 -2.04679 -5.6603 0
M  V30 18900 H 1755.95 -1.91666 -2.3558 0
M  V30 18901 H 1753.53 -0.992931 -1.1163 0
M  V30 18902 H 1755.42 -0.303041 -4.20309 0
M  V30 18903 H 1754.09 0.371515 -3.21561 0
M  V30 18904 H 1753 -1.94572 -3.19519 0
M  V30 18905 H 1754.33 -2.54313 -4.21409 0
M  V30 18906 N 1755.98 1.20536 -1.01532 0
M  V30 18907 C 1757.23 1.89191 -0.699258 0
M  V30 18908 C 1757.54 1.79624 0.774238 0
M  V30 18909 O 1758.75 2.43402 1.20281 0
M  V30 18910 C 1757.21 3.39294 -1.20033 0
M  V30 18911 C 1756.81 3.57449 -2.70064 0
M  V30 18912 C 1758.56 4.13511 -0.959626 0
M  V30 18913 C 1756.47 5.01371 -3.13658 0
M  V30 18914 H 1755.4 0.708537 -0.257859 0
M  V30 18915 H 1758.05 1.36368 -1.22785 0
M  V30 18916 H 1756.43 3.91432 -0.599728 0
M  V30 18917 H 1757.6 3.15702 -3.35662 0
M  V30 18918 H 1755.92 2.966 -2.92262 0
M  V30 18919 H 1758.51 5.19624 -1.26077 0
M  V30 18920 H 1758.86 4.1617 0.103934 0
M  V30 18921 H 1759.39 3.67469 -1.52354 0
M  V30 18922 H 1756.13 5.03866 -4.19285 0
M  V30 18923 H 1755.65 5.43933 -2.52779 0
M  V30 18924 H 1757.33 5.69944 -3.06224 0
M  V30 18925 N 1757.46 0.791395 1.36289 0
M  V30 18926 C 1758.39 0.205419 2.32595 0
M  V30 18927 C 1759.37 -0.660696 1.56744 0
M  V30 18928 O 1760.56 -0.594111 1.84889 0
M  V30 18929 C 1757.69 -0.659018 3.4099 0
M  V30 18930 C 1756.64 0.107364 4.27865 0
M  V30 18931 C 1755.97 -0.877795 5.27446 0
M  V30 18932 C 1757.27 1.29769 5.05922 0
M  V30 18933 H 1758.96 1.00999 2.8185 0
M  V30 18934 H 1756.51 0.487122 1.35511 0
M  V30 18935 H 1758.46 -1.07891 4.07354 0
M  V30 18936 H 1757.18 -1.49632 2.90307 0
M  V30 18937 H 1755.84 0.508253 3.6306 0
M  V30 18938 H 1755.49 -1.71018 4.73035 0
M  V30 18939 H 1755.19 -0.369429 5.86438 0
M  V30 18940 H 1756.71 -1.29621 5.96683 0
M  V30 18941 H 1758.13 0.953463 5.65316 0
M  V30 18942 H 1756.53 1.73949 5.74336 0
M  V30 18943 H 1757.6 2.09205 4.37449 0
M  V30 18944 N 1758.94 -1.47929 0.54358 0
M  V30 18945 C 1760.19 -2.01696 0.0123924 0
M  V30 18946 C 1760.5 -1.42469 -1.34022 0
M  V30 18947 O 1761.71 -1.87816 -1.96054 0
M  V30 18948 C 1760.16 -3.59889 -0.0282734 0
M  V30 18949 C 1759.77 -4.28104 1.32027 0
M  V30 18950 C 1761.52 -4.21455 -0.507571 0
M  V30 18951 C 1759.42 -5.78266 1.23945 0
M  V30 18952 H 1758.35 -0.754 0.000862593 0
M  V30 18953 H 1761 -1.70058 0.689396 0
M  V30 18954 H 1759.39 -3.88429 -0.770641 0
M  V30 18955 H 1760.56 -4.11221 2.07927 0
M  V30 18956 H 1758.87 -3.78468 1.7364 0
M  V30 18957 H 1761.47 -5.31477 -0.586219 0
M  V30 18958 H 1761.81 -3.87696 -1.51648 0
M  V30 18959 H 1762.35 -3.97395 0.179522 0
M  V30 18960 H 1759.09 -6.16621 2.22393 0
M  V30 18961 H 1758.61 -5.97524 0.522029 0
M  V30 18962 H 1760.29 -6.40197 0.935788 0
M  V30 18963 N 1760.42 -0.27936 -1.55104 0
M  V30 18964 C 1761.83 0.074665 -1.59425 0
M  V30 18965 C 1762.03 1.54246 -1.29655 0
M  V30 18966 O 1761.09 2.29197 -1.05947 0
M  V30 18967 C 1762.4 -0.30379 -2.99162 0
M  V30 18968 C 1763.95 -0.250758 -3.11994 0
M  V30 18969 C 1764.43 -0.603715 -4.54004 0
M  V30 18970 N 1765.92 -0.555428 -4.59858 0
M  V30 18971 C 1766.65 -0.801278 -5.67774 0
M  V30 18972 N 1766.15 -1.11197 -6.83818 0
M  V30 18973 N 1767.94 -0.72979 -5.57342 0
M  V30 18974 H 1760.09 -1.23619 -1.7272 0
M  V30 18975 H 1762.35 -0.499704 -0.805606 0
M  V30 18976 H 1762.06 -1.32475 -3.25796 0
M  V30 18977 H 1761.93 0.353294 -3.75542 0
M  V30 18978 H 1764.32 0.760925 -2.85121 0
M  V30 18979 H 1764.4 -0.94216 -2.37817 0
M  V30 18980 H 1764.05 -1.6131 -4.81603 0
M  V30 18981 H 1763.98 0.109523 -5.26486 0
M  V30 18982 H 1766.47 -0.325348 -3.76497 0
M  V30 18983 H 1766.78 -1.28611 -7.62023 0
M  V30 18984 H 1765.13 -1.14978 -6.85423 0
M  V30 18985 H 1768.32 -0.48688 -4.65561 0
M  V30 18986 H 1768.49 -0.92477 -6.41367 0
M  V30 18987 N 1761.9 1.57599 -0.0067085 0
M  V30 18988 C 1762.83 2.11878 0.981331 0
M  V30 18989 C 1763.81 1.02949 1.35408 0
M  V30 18990 O 1764.99 1.30667 1.43665 0
M  V30 18991 C 1762.12 2.62757 2.27104 0
M  V30 18992 C 1761.08 3.76272 2.0397 0
M  V30 18993 C 1760.4 4.13491 3.39012 0
M  V30 18994 C 1761.7 5.03274 1.39688 0
M  V30 18995 H 1763.4 2.94683 0.529366 0
M  V30 18996 H 1760.94 1.41757 0.253187 0
M  V30 18997 H 1762.89 2.99359 2.96585 0
M  V30 18998 H 1761.62 1.77082 2.74426 0
M  V30 18999 H 1760.28 3.40074 1.36913 0
M  V30 19000 H 1759.93 3.24831 3.8405 0
M  V30 19001 H 1759.63 4.89972 3.24347 0
M  V30 19002 H 1761.15 4.52657 4.09797 0
M  V30 19003 H 1762.56 5.37604 1.99136 0
M  V30 19004 H 1760.96 5.84604 1.3549 0
M  V30 19005 H 1762.03 4.8351 0.366928 0
M  V30 19006 N 1763.37 -0.266145 1.55336 0
M  V30 19007 C 1764.6 -1.01915 1.80633 0
M  V30 19008 C 1765.02 -1.78897 0.581172 0
M  V30 19009 O 1764.38 -1.75118 -0.469399 0
M  V30 19010 C 1764.43 -1.948 3.03456 0
M  V30 19011 O 1763.53 -3.03678 2.79022 0
M  V30 19012 H 1762.87 -0.29102 0.596828 0
M  V30 19013 H 1765.4 -0.292973 2.02492 0
M  V30 19014 H 1765.41 -2.36626 3.32373 0
M  V30 19015 H 1764.09 -1.38182 3.92273 0
M  V30 19016 H 1762.67 -2.66118 2.61219 0
M  V30 19017 N 1764.85 -1.48386 -0.530967 0
M  V30 19018 C 1765.8 -1.62835 -1.63564 0
M  V30 19019 C 1766.77 -0.470453 -1.59298 0
M  V30 19020 O 1767.95 -0.693813 -1.77738 0
M  V30 19021 C 1765.09 -1.67314 -3.01828 0
M  V30 19022 C 1764.21 -2.94204 -3.16335 0
M  V30 19023 C 1763.34 -2.8985 -4.45152 0
M  V30 19024 C 1762.38 -4.11449 -4.53185 0
M  V30 19025 N 1761.52 -4.05178 -5.7339 0
M  V30 19026 H 1766.36 -2.57172 -1.50554 0
M  V30 19027 H 1763.89 -1.27537 -0.732991 0
M  V30 19028 H 1765.85 -1.67892 -3.81927 0
M  V30 19029 H 1764.48 -0.764688 -3.13612 0
M  V30 19030 H 1763.53 -3.03375 -2.29495 0
M  V30 19031 H 1764.85 -3.84179 -3.18132 0
M  V30 19032 H 1764 -2.88824 -5.33541 0
M  V30 19033 H 1762.74 -1.97602 -4.45875 0
M  V30 19034 H 1761.74 -4.12751 -3.63203 0
M  V30 19035 H 1762.97 -5.04855 -4.54201 0
M  V30 19036 H 1760.92 -3.15749 -5.75012 0
M  V30 19037 H 1760.83 -4.88857 -5.76676 0
M  V30 19038 H 1762.1 -4.08209 -6.64067 0
M  V30 19039 N 1766.33 0.779763 -1.36958 0
M  V30 19040 C 1767.26 1.90687 -1.34762 0
M  V30 19041 C 1768.24 1.68704 -0.217508 0
M  V30 19042 O 1769.43 1.89678 -0.416639 0
M  V30 19043 C 1766.56 3.27854 -1.14582 0
M  V30 19044 C 1765.51 3.64383 -2.2452 0
M  V30 19045 C 1764.84 5.00004 -1.89473 0
M  V30 19046 C 1766.14 3.71963 -3.66662 0
M  V30 19047 H 1767.83 1.92781 -2.29076 0
M  V30 19048 H 1765.38 0.926102 -1.10269 0
M  V30 19049 H 1767.33 4.06332 -1.11678 0
M  V30 19050 H 1766.05 3.26172 -0.167218 0
M  V30 19051 H 1764.71 2.88207 -2.26566 0
M  V30 19052 H 1764.36 4.94853 -0.901617 0
M  V30 19053 H 1764.06 5.25414 -2.63085 0
M  V30 19054 H 1765.58 5.80892 -1.88141 0
M  V30 19055 H 1767 4.40611 -3.6679 0
M  V30 19056 H 1765.39 4.08864 -4.39261 0
M  V30 19057 H 1766.46 2.72824 -4.00868 0
M  V30 19058 N 1767.81 1.21396 1.00503 0
M  V30 19059 C 1769.05 1.0426 1.7581 0
M  V30 19060 C 1769.41 -0.416605 1.87426 0
M  V30 19061 O 1770.61 -0.708477 2.59295 0
M  V30 19062 C 1768.88 1.72061 3.13257 0
M  V30 19063 S 1770.44 1.70181 4.04455 0
M  V30 19064 H 1767.26 0.373616 0.604923 0
M  V30 19065 H 1769.86 1.54141 1.20253 0
M  V30 19066 H 1768.57 2.77418 3.02436 0
M  V30 19067 H 1768.1 1.2236 3.73887 0
M  V30 19068 H 1770.11 0.742877 4.90608 0
M  V30 19069 N 1769.29 -1.19996 1.0217 0
M  V30 19070 C 1770.53 -1.89776 0.715047 0
M  V30 19071 C 1770.86 -1.78971 -0.753862 0
M  V30 19072 O 1770.14 -1.17729 -1.54823 0
M  V30 19073 C 1770.42 -3.4098 1.15779 0
M  V30 19074 C 1770.28 -3.60693 2.68739 0
M  V30 19075 C 1771.59 -4.33953 0.733008 0
M  V30 19076 H 1768.71 -0.689148 0.261236 0
M  V30 19077 H 1771.36 -1.41287 1.27035 0
M  V30 19078 H 1769.51 -3.82407 0.68534 0
M  V30 19079 H 1771.18 -3.28484 3.23876 0
M  V30 19080 H 1769.42 -3.0399 3.09472 0
M  V30 19081 H 1770.09 -4.66704 2.94773 0
M  V30 19082 H 1772.57 -4.002 1.13925 0
M  V30 19083 H 1771.44 -5.38355 1.07077 0
M  V30 19084 H 1771.7 -4.4059 -0.365047 0
M  V30 19085 N 1770.76 -0.798611 -1.35867 0
M  V30 19086 C 1771.7 -0.161203 -2.28632 0
M  V30 19087 C 1772.71 0.634886 -1.4991 0
M  V30 19088 O 1773.9 0.468557 -1.72241 0
M  V30 19089 C 1771 0.794407 -3.29458 0
M  V30 19090 C 1770.17 0.0464031 -4.37375 0
M  V30 19091 C 1769.23 0.919313 -5.18107 0
M  V30 19092 O 1768.26 0.373179 -5.67975 0
M  V30 19093 N 1769.46 2.24243 -5.35439 0
M  V30 19094 H 1772.22 -0.958079 -2.83973 0
M  V30 19095 H 1769.78 -0.653344 -1.48132 0
M  V30 19096 H 1771.78 1.38242 -3.80357 0
M  V30 19097 H 1770.35 1.49212 -2.7469 0
M  V30 19098 H 1769.57 -0.722757 -3.87518 0
M  V30 19099 H 1770.85 -0.469417 -5.0663 0
M  V30 19100 H 1770.25 2.71017 -4.96554 0
M  V30 19101 H 1768.81 2.77986 -5.89548 0
M  V30 19102 N 1772.24 1.47639 -0.551417 0
M  V30 19103 C 1773.15 2.33722 0.202799 0
M  V30 19104 C 1774.17 1.47832 0.917699 0
M  V30 19105 O 1775.34 1.80772 0.887885 0
M  V30 19106 C 1772.41 3.24408 1.22313 0
M  V30 19107 C 1771.47 4.26184 0.51628 0
M  V30 19108 C 1770.7 5.12537 1.488 0
M  V30 19109 O 1770.93 5.01241 2.72238 0
M  V30 19110 O 1769.86 5.93269 1.01566 0
M  V30 19111 H 1773.69 2.99503 -0.50317 0
M  V30 19112 H 1771.27 1.46104 -0.312093 0
M  V30 19113 H 1773.15 3.80441 1.81225 0
M  V30 19114 H 1771.83 2.61262 1.91112 0
M  V30 19115 H 1770.73 3.73927 -0.113886 0
M  V30 19116 H 1772.07 4.92028 -0.130158 0
M  V30 19117 N 1773.72 0.287581 1.54954 0
M  V30 19118 C 1774.95 -0.331442 2.04735 0
M  V30 19119 C 1775.37 -1.47752 1.16409 0
M  V30 19120 O 1774.73 -1.80545 0.165297 0
M  V30 19121 C 1774.78 -0.778123 3.52105 0
M  V30 19122 O 1773.88 -1.88422 3.66839 0
M  V30 19123 H 1773.22 -0.0666173 0.66065 0
M  V30 19124 H 1775.75 0.425516 2.00126 0
M  V30 19125 H 1775.76 -1.07054 3.93705 0
M  V30 19126 H 1774.44 0.0603184 4.15856 0
M  V30 19127 H 1773.01 -1.59338 3.37144 0
M  V30 19128 N 1775.2 -1.57593 0.0150662 0
M  V30 19129 C 1776.16 -2.08293 -0.956385 0
M  V30 19130 C 1777.16 -0.99521 -1.26302 0
M  V30 19131 O 1778.35 -1.25732 -1.2057 0
M  V30 19132 C 1775.48 -2.53702 -2.27701 0
M  V30 19133 H 1776.68 -2.95401 -0.517543 0
M  V30 19134 H 1774.23 -1.54558 -0.232706 0
M  V30 19135 H 1774.96 -1.69882 -2.76244 0
M  V30 19136 H 1774.75 -3.33155 -2.06761 0
M  V30 19137 H 1776.24 -2.93201 -2.9736 0
M  V30 19138 N 1776.68 0.257904 -1.55475 0
M  V30 19139 C 1777.9 1.00955 -1.81171 0
M  V30 19140 C 1778.33 1.78586 -0.590651 0
M  V30 19141 O 1777.68 1.75365 0.460105 0
M  V30 19142 C 1777.73 1.93188 -3.04485 0
M  V30 19143 O 1776.84 3.02194 -2.80628 0
M  V30 19144 H 1776.18 0.28785 -0.598363 0
M  V30 19145 H 1778.71 0.28223 -2.02644 0
M  V30 19146 H 1778.72 2.3486 -3.33624 0
M  V30 19147 H 1777.39 1.361 -3.93001 0
M  V30 19148 H 1775.97 2.64729 -2.62627 0
M  V30 19149 N 1778.15 1.48666 0.52309 0
M  V30 19150 C 1779.4 1.57267 1.28043 0
M  V30 19151 C 1779.73 0.248801 1.926 0
M  V30 19152 O 1779.01 -0.745814 1.79633 0
M  V30 19153 C 1779.29 2.71595 2.36449 0
M  V30 19154 C 1779.14 4.13708 1.76538 0
M  V30 19155 C 1780.46 2.81654 3.3817 0
M  V30 19156 H 1777.58 0.572455 0.464181 0
M  V30 19157 H 1780.22 1.80866 0.582013 0
M  V30 19158 H 1778.37 2.51604 2.9602 0
M  V30 19159 H 1780.05 4.45158 1.20964 0
M  V30 19160 H 1778.29 4.20386 1.07041 0
M  V30 19161 H 1778.96 4.89538 2.55062 0
M  V30 19162 H 1781.44 2.99784 2.88563 0
M  V30 19163 H 1780.31 3.63366 4.11408 0
M  V30 19164 H 1780.57 1.90093 3.99145 0
M  V30 19165 N 1779.63 -0.772489 1.37369 0
M  V30 19166 C 1781.05 -1.07294 1.18153 0
M  V30 19167 C 1781.25 -2.01493 0.0171782 0
M  V30 19168 O 1780.3 -2.44177 -0.642964 0
M  V30 19169 C 1781.62 -1.67116 2.49986 0
M  V30 19170 C 1783.17 -1.79377 2.56501 0
M  V30 19171 C 1783.64 -2.42612 3.88463 0
M  V30 19172 N 1785.13 -2.50063 3.89901 0
M  V30 19173 C 1785.87 -2.99841 4.88756 0
M  V30 19174 N 1785.36 -3.49798 5.98008 0
M  V30 19175 N 1787.16 -2.98709 4.76161 0
M  V30 19176 H 1779.31 -0.147014 2.11891 0
M  V30 19177 H 1781.57 -0.127846 0.93934 0
M  V30 19178 H 1781.28 -1.05369 3.35545 0
M  V30 19179 H 1781.15 -2.6642 2.67021 0
M  V30 19180 H 1783.54 -2.40257 1.71349 0
M  V30 19181 H 1783.62 -0.788304 2.4335 0
M  V30 19182 H 1783.26 -1.82372 4.74029 0
M  V30 19183 H 1783.19 -3.43763 3.98917 0
M  V30 19184 H 1785.68 -2.14709 3.1098 0
M  V30 19185 H 1786 -3.86181 6.69391 0
M  V30 19186 H 1784.34 -3.47905 6.01654 0
M  V30 19187 H 1787.53 -2.5898 3.89932 0
M  V30 19188 H 1787.7 -3.37193 5.53358 0
M  V30 19189 N 1781.11 -1.21927 -0.998575 0
M  V30 19190 C 1782.06 -0.984283 -2.08759 0
M  V30 19191 C 1783.03 0.0920029 -1.65845 0
M  V30 19192 O 1784.21 -0.0564334 -1.90717 0
M  V30 19193 C 1781.35 -0.562006 -3.40493 0
M  V30 19194 C 1780.47 -1.70844 -3.96783 0
M  V30 19195 C 1779.6 -1.2347 -5.16651 0
M  V30 19196 C 1778.64 -2.35305 -5.65065 0
M  V30 19197 N 1777.78 -1.89018 -6.76178 0
M  V30 19198 H 1782.62 -1.91653 -2.28195 0
M  V30 19199 H 1780.15 -0.955028 -1.11882 0
M  V30 19200 H 1782.11 -0.298383 -4.16132 0
M  V30 19201 H 1780.74 0.33324 -3.21075 0
M  V30 19202 H 1779.79 -2.08653 -3.18069 0
M  V30 19203 H 1781.11 -2.54987 -4.28699 0
M  V30 19204 H 1780.26 -0.928121 -5.99559 0
M  V30 19205 H 1779 -0.363397 -4.86344 0
M  V30 19206 H 1778 -2.66758 -4.8075 0
M  V30 19207 H 1779.23 -3.22941 -5.97399 0
M  V30 19208 H 1777.17 -1.04242 -6.47665 0
M  V30 19209 H 1777.09 -2.66731 -7.07383 0
M  V30 19210 H 1778.36 -1.61413 -7.62605 0
M  V30 19211 N 1782.59 1.19452 -1.02805 0
M  V30 19212 C 1783.81 1.93616 -0.743485 0
M  V30 19213 C 1784.24 1.74934 0.691342 0
M  V30 19214 O 1783.6 1.05111 1.47721 0
M  V30 19215 C 1783.64 3.43451 -1.0988 0
M  V30 19216 O 1782.75 4.11829 -0.216978 0
M  V30 19217 H 1782.09 0.60448 -0.274771 0
M  V30 19218 H 1784.62 1.51554 -1.37451 0
M  V30 19219 H 1784.63 3.94115 -1.05535 0
M  V30 19220 H 1783.3 3.5637 -2.14413 0
M  V30 19221 H 1781.88 3.71533 -0.318954 0
M  V30 19222 N 1784.07 0.805805 1.35442 0
M  V30 19223 C 1785.48 0.489448 1.5191 0
M  V30 19224 C 1785.68 -0.989485 1.75532 0
M  V30 19225 O 1784.74 -1.77453 1.79629 0
M  V30 19226 C 1786.05 1.33413 2.69484 0
M  V30 19227 C 1787.6 1.32949 2.83361 0
M  V30 19228 C 1788.07 2.15827 4.03959 0
M  V30 19229 N 1789.57 2.13359 4.11135 0
M  V30 19230 C 1790.3 2.74245 5.03564 0
M  V30 19231 N 1789.8 3.44055 6.0133 0
M  V30 19232 N 1791.59 2.63891 4.96304 0
M  V30 19233 H 1783.74 1.76361 1.18366 0
M  V30 19234 H 1786 0.750594 0.579062 0
M  V30 19235 H 1785.71 2.38364 2.58603 0
M  V30 19236 H 1785.58 0.986809 3.64063 0
M  V30 19237 H 1787.97 0.287837 2.93693 0
M  V30 19238 H 1788.05 1.71668 1.89641 0
M  V30 19239 H 1787.7 3.20033 3.94388 0
M  V30 19240 H 1787.63 1.74469 4.96858 0
M  V30 19241 H 1790.12 1.62566 3.41146 0
M  V30 19242 H 1790.43 3.87802 6.68453 0
M  V30 19243 H 1788.77 3.48159 6.01507 0
M  V30 19244 H 1791.97 2.08941 4.18881 0
M  V30 19245 H 1792.14 3.11631 5.68146 0
M  V30 19246 N 1785.54 -1.47344 0.559239 0
M  V30 19247 C 1786.49 -2.30039 -0.187317 0
M  V30 19248 C 1787.46 -1.39186 -0.906443 0
M  V30 19249 O 1788.65 -1.68147 -0.901739 0
M  V30 19250 C 1785.79 -3.2319 -1.21004 0
M  V30 19251 C 1784.9 -4.29134 -0.496776 0
M  V30 19252 C 1784.03 -5.09435 -1.50497 0
M  V30 19253 C 1783.07 -6.07151 -0.776794 0
M  V30 19254 N 1782.21 -6.80404 -1.73192 0
M  V30 19255 H 1787.05 -2.93357 0.523978 0
M  V30 19256 H 1784.59 -1.44597 0.270225 0
M  V30 19257 H 1786.55 -3.75621 -1.81561 0
M  V30 19258 H 1785.18 -2.61732 -1.88935 0
M  V30 19259 H 1784.23 -3.79744 0.223359 0
M  V30 19260 H 1785.54 -4.98746 0.0735731 0
M  V30 19261 H 1784.69 -5.66026 -2.18402 0
M  V30 19262 H 1783.43 -4.3973 -2.10924 0
M  V30 19263 H 1782.44 -5.49736 -0.0838382 0
M  V30 19264 H 1783.66 -6.78866 -0.178239 0
M  V30 19265 H 1781.61 -6.13427 -2.32472 0
M  V30 19266 H 1781.53 -7.46193 -1.21377 0
M  V30 19267 H 1782.79 -7.41567 -2.40204 0
M  V30 19268 N 1787.02 -0.295795 -1.54799 0
M  V30 19269 C 1787.95 0.616191 -2.20762 0
M  V30 19270 C 1788.97 1.10157 -1.19872 0
M  V30 19271 O 1790.16 1.01992 -1.46492 0
M  V30 19272 C 1787.26 1.85497 -2.83627 0
M  V30 19273 C 1786.43 1.51295 -4.10401 0
M  V30 19274 C 1785.49 2.60633 -4.57118 0
M  V30 19275 O 1784.51 2.25945 -5.22434 0
M  V30 19276 N 1785.72 3.91078 -4.28997 0
M  V30 19277 H 1788.48 0.0515252 -2.99656 0
M  V30 19278 H 1786.04 -0.11777 -1.61471 0
M  V30 19279 H 1788.03 2.57979 -3.11816 0
M  V30 19280 H 1786.6 2.32816 -2.08604 0
M  V30 19281 H 1785.82 0.621 -3.89278 0
M  V30 19282 H 1787.11 1.25974 -4.92958 0
M  V30 19283 H 1786.51 4.22072 -3.76659 0
M  V30 19284 H 1785.07 4.59875 -4.61907 0
M  V30 19285 N 1788.5 1.57583 -0.0234236 0
M  V30 19286 C 1789.43 2.06766 0.988961 0
M  V30 19287 C 1790.45 0.98998 1.29241 0
M  V30 19288 O 1791.64 1.2663 1.25806 0
M  V30 19289 C 1788.74 2.47244 2.31784 0
M  V30 19290 C 1787.91 3.78023 2.20039 0
M  V30 19291 C 1786.97 4.05113 3.35812 0
M  V30 19292 O 1785.99 4.75447 3.12952 0
M  V30 19293 N 1787.2 3.5484 4.59422 0
M  V30 19294 H 1789.96 2.94242 0.569355 0
M  V30 19295 H 1787.52 1.61073 0.163461 0
M  V30 19296 H 1789.51 2.62463 3.08051 0
M  V30 19297 H 1788.08 1.65163 2.65405 0
M  V30 19298 H 1787.3 3.72656 1.28534 0
M  V30 19299 H 1788.59 4.63717 2.09389 0
M  V30 19300 H 1787.99 2.97928 4.8089 0
M  V30 19301 H 1786.55 3.75348 5.32877 0
M  V30 19302 N 1789.98 -0.249655 1.5561 0
M  V30 19303 C 1790.91 -1.33188 1.8653 0
M  V30 19304 C 1791.92 -1.44424 0.751366 0
M  V30 19305 O 1793.11 -1.45823 1.02946 0
M  V30 19306 C 1790.21 -2.71076 2.03398 0
M  V30 19307 C 1789.39 -2.82142 3.34237 0
M  V30 19308 C 1788.45 -4.00857 3.40882 0
M  V30 19309 O 1787.47 -3.90514 4.1411 0
M  V30 19310 N 1788.67 -5.13901 2.69974 0
M  V30 19311 H 1791.44 -1.07 2.79948 0
M  V30 19312 H 1789 -0.43976 1.55813 0
M  V30 19313 H 1790.99 -3.48826 2.05188 0
M  V30 19314 H 1789.56 -2.89985 1.16738 0
M  V30 19315 H 1788.78 -1.9109 3.44788 0
M  V30 19316 H 1790.07 -2.86483 4.20481 0
M  V30 19317 H 1789.47 -5.25195 2.10206 0
M  V30 19318 H 1788.02 -5.89796 2.7746 0
M  V30 19319 N 1791.46 -1.48941 -0.515198 0
M  V30 19320 C 1792.87 -1.35389 -0.8451 0
M  V30 19321 C 1793.07 -0.376141 -1.97958 0
M  V30 19322 O 1792.13 0.197324 -2.51728 0
M  V30 19323 C 1793.44 -2.75775 -1.19868 0
M  V30 19324 C 1794.99 -2.84373 -1.30772 0
M  V30 19325 C 1795.47 -4.25494 -1.69466 0
M  V30 19326 N 1796.96 -4.28237 -1.76542 0
M  V30 19327 C 1797.69 -5.34384 -2.07898 0
M  V30 19328 N 1797.19 -6.50792 -2.37575 0
M  V30 19329 N 1798.98 -5.21789 -2.09029 0
M  V30 19330 H 1791.13 -2.11117 0.233118 0
M  V30 19331 H 1793.39 -0.947083 0.0416757 0
M  V30 19332 H 1793.1 -3.48955 -0.438565 0
M  V30 19333 H 1792.97 -3.10243 -2.14545 0
M  V30 19334 H 1795.36 -2.11439 -2.05858 0
M  V30 19335 H 1795.44 -2.53506 -0.341808 0
M  V30 19336 H 1795.09 -4.98949 -0.949358 0
M  V30 19337 H 1795.02 -4.53814 -2.67133 0
M  V30 19338 H 1797.51 -3.44278 -1.55824 0
M  V30 19339 H 1797.82 -7.27518 -2.60649 0
M  V30 19340 H 1796.17 -6.54042 -2.35062 0
M  V30 19341 H 1799.36 -4.29858 -1.85311 0
M  V30 19342 H 1799.53 -6.0461 -2.33133 0
M  V30 19343 N 1792.94 0.765193 -1.37777 0
M  V30 19344 C 1793.87 1.89247 -1.36777 0
M  V30 19345 C 1794.85 1.68463 -0.235389 0
M  V30 19346 O 1796.03 1.89225 -0.436733 0
M  V30 19347 C 1793.16 3.2662 -1.18053 0
M  V30 19348 C 1792.12 3.61981 -2.28372 0
M  V30 19349 C 1791.44 4.97967 -1.94765 0
M  V30 19350 C 1792.74 3.68053 -3.70587 0
M  V30 19351 H 1794.44 1.90341 -2.31108 0
M  V30 19352 H 1791.98 0.914355 -1.11245 0
M  V30 19353 H 1793.93 4.05125 -1.15982 0
M  V30 19354 H 1792.66 3.25976 -0.201803 0
M  V30 19355 H 1791.32 2.85788 -2.2961 0
M  V30 19356 H 1790.97 4.93869 -0.954052 0
M  V30 19357 H 1790.67 5.22594 -2.68642 0
M  V30 19358 H 1792.19 5.78864 -1.94292 0
M  V30 19359 H 1793.6 4.36696 -3.71443 0
M  V30 19360 H 1792 4.04183 -4.43572 0
M  V30 19361 H 1793.07 2.68556 -4.03739 0
M  V30 19362 N 1794.41 1.22455 0.992094 0
M  V30 19363 C 1795.34 1.01961 2.10063 0
M  V30 19364 C 1796.32 -0.0597186 1.69995 0
M  V30 19365 O 1797.51 0.102655 1.93928 0
M  V30 19366 C 1794.64 0.597442 3.42123 0
M  V30 19367 C 1793.59 1.62279 3.96042 0
M  V30 19368 C 1792.92 1.05644 5.2416 0
M  V30 19369 C 1794.22 3.01296 4.26635 0
M  V30 19370 H 1795.91 1.94678 2.27466 0
M  V30 19371 H 1793.46 0.937422 1.09309 0
M  V30 19372 H 1795.41 0.441175 4.19084 0
M  V30 19373 H 1794.14 -0.365401 3.24549 0
M  V30 19374 H 1792.8 1.76685 3.21213 0
M  V30 19375 H 1792.44 0.0849267 5.02928 0
M  V30 19376 H 1792.14 1.74144 5.61202 0
M  V30 19377 H 1793.67 0.911774 6.03754 0
M  V30 19378 H 1795.08 2.9026 4.94391 0
M  V30 19379 H 1793.48 3.66928 4.74852 0
M  V30 19380 H 1794.55 3.51168 3.34378 0
M  V30 19381 N 1795.89 -1.18905 1.03437 0
M  V30 19382 C 1797.31 -1.4075 0.752444 0
M  V30 19383 C 1797.51 -1.90361 -0.660679 0
M  V30 19384 O 1796.56 -2.08389 -1.42584 0
M  V30 19385 C 1797.88 -2.4138 1.79321 0
M  V30 19386 C 1799.42 -2.55118 1.81339 0
M  V30 19387 C 1799.9 -3.59007 2.8439 0
M  V30 19388 N 1801.39 -3.66508 2.83242 0
M  V30 19389 C 1802.13 -4.46602 3.59631 0
M  V30 19390 N 1801.62 -5.30355 4.45753 0
M  V30 19391 N 1803.41 -4.41304 3.48148 0
M  V30 19392 H 1795.57 -0.850259 1.94639 0
M  V30 19393 H 1797.83 -0.435962 0.841808 0
M  V30 19394 H 1797.53 -2.11963 2.80651 0
M  V30 19395 H 1797.41 -3.40636 1.62008 0
M  V30 19396 H 1799.8 -2.83856 0.806847 0
M  V30 19397 H 1799.88 -1.55996 2.02728 0
M  V30 19398 H 1799.52 -3.31011 3.8522 0
M  V30 19399 H 1799.45 -4.57792 2.60258 0
M  V30 19400 H 1801.94 -3.06697 2.20784 0
M  V30 19401 H 1802.25 -5.88603 5.00766 0
M  V30 19402 H 1800.6 -5.29797 4.49823 0
M  V30 19403 H 1803.79 -3.74918 2.80275 0
M  V30 19404 H 1803.96 -5.03483 4.07932 0
M  V30 19405 N 1797.37 -0.812977 -1.35013 0
M  V30 19406 C 1798.32 -0.216001 -2.31595 0
M  V30 19407 C 1799.31 0.637771 -1.56936 0
M  V30 19408 O 1800.52 0.530221 -1.72014 0
M  V30 19409 H 1796.89 -0.0510947 -0.750262 0
M  V30 19410 H 1798.86 -1.04559 -2.79482 0
M  V30 19411 C 1797.61 0.615651 -3.42206 0
M  V30 19412 H 1796.94 -0.0319737 -3.99787 0
M  V30 19413 H 1798.38 0.99963 -4.12048 0
M  V30 19414 C 1796.83 1.78386 -2.85797 0
M  V30 19415 O 1797.36 2.88163 -2.79866 0
M  V30 19416 N 1795.57 1.59742 -2.42757 0
M  V30 19417 H 1795.12 0.704468 -2.4778 0
M  V30 19418 H 1795.08 2.38061 -2.05364 0
M  V30 19419 N 1798.85 1.47045 -0.567045 0
M  V30 19420 C 1799.78 2.27106 0.223156 0
M  V30 19421 C 1800.76 1.34662 0.911315 0
M  V30 19422 O 1801.94 1.64055 0.92834 0
M  V30 19423 C 1799.07 3.1197 1.31879 0
M  V30 19424 C 1798.12 4.20064 0.738145 0
M  V30 19425 S 1798.95 5.33828 -0.422892 0
M  V30 19426 C 1800.1 6.22257 0.674324 0
M  V30 19427 H 1800.34 2.93779 -0.456193 0
M  V30 19428 H 1797.87 1.50297 -0.353581 0
M  V30 19429 H 1799.83 3.61432 1.9462 0
M  V30 19430 H 1798.49 2.44641 1.97002 0
M  V30 19431 H 1797.68 4.7921 1.56122 0
M  V30 19432 H 1797.28 3.73534 0.186721 0
M  V30 19433 H 1799.58 6.59201 1.56398 0
M  V30 19434 H 1800.52 7.07998 0.11999 0
M  V30 19435 H 1800.93 5.56079 0.971422 0
M  V30 19436 N 1800.33 0.304 1.5464 0
M  V30 19437 C 1801.57 -0.303793 1.99804 0
M  V30 19438 C 1801.89 -1.54179 1.19389 0
M  V30 19439 O 1801.16 -1.93732 0.290631 0
M  V30 19440 H 1799.74 -0.115241 0.738057 0
M  V30 19441 H 1802.41 0.416024 1.90408 0
M  V30 19442 H 1801.5 -0.573759 3.06781 0
M  V30 19443 N 1801.8 -1.57568 0.0317802 0
M  V30 19444 C 1802.77 -2.09296 -0.934239 0
M  V30 19445 C 1803.77 -1.00855 -1.25239 0
M  V30 19446 O 1804.96 -1.27004 -1.19229 0
M  V30 19447 C 1802.09 -2.56103 -2.24998 0
M  V30 19448 H 1803.28 -2.95933 -0.486183 0
M  V30 19449 H 1800.83 -1.54796 -0.2163 0
M  V30 19450 H 1801.57 -1.72803 -2.74426 0
M  V30 19451 H 1801.35 -3.35329 -2.03216 0
M  V30 19452 H 1802.84 -2.96339 -2.94233 0
M  V30 19453 N 1803.28 0.241399 -1.5574 0
M  V30 19454 C 1804.23 1.30198 -1.8717 0
M  V30 19455 C 1805.22 1.43233 -0.733022 0
M  V30 19456 O 1806.41 1.46382 -0.995058 0
M  V30 19457 C 1803.54 2.65637 -2.17467 0
M  V30 19458 C 1802.62 2.56584 -3.37676 0
M  V30 19459 N 1803.01 2.17167 -4.56806 0
M  V30 19460 C 1801.31 2.87586 -3.40896 0
M  V30 19461 C 1802.01 2.18882 -5.38949 0
M  V30 19462 N 1800.99 2.58599 -4.7815 0
M  V30 19463 H 1804.79 0.98781 -2.76802 0
M  V30 19464 H 1802.31 0.450014 -1.5604 0
M  V30 19465 H 1804.3 3.42184 -2.38151 0
M  V30 19466 H 1802.96 2.97916 -1.29136 0
M  V30 19467 H 1803.97 1.88621 -4.8233 0
M  V30 19468 H 1800.65 3.24369 -2.62852 0
M  V30 19469 H 1802.04 1.907 -6.4427 0
M  V30 19470 N 1804.76 1.49212 0.507292 0
M  V30 19471 C 1805.72 1.64908 1.59179 0
M  V30 19472 C 1806.72 0.521176 1.5212 0
M  V30 19473 O 1807.91 0.787492 1.55384 0
M  V30 19474 C 1805.05 1.64057 2.98828 0
M  V30 19475 H 1806.24 2.6163 1.46593 0
M  V30 19476 H 1803.79 1.38149 0.731062 0
M  V30 19477 H 1804.53 0.688956 3.16897 0
M  V30 19478 H 1804.31 2.45963 3.0536 0
M  V30 19479 H 1805.8 1.78279 3.77633 0
M  V30 19480 N 1806.24 -0.757876 1.38181 0
M  V30 19481 C 1807.48 -1.51912 1.34352 0
M  V30 19482 C 1807.82 -1.94082 -0.0677003 0
M  V30 19483 O 1807.09 -1.65114 -1.02799 0
M  V30 19484 C 1807.38 -2.77466 2.29531 0
M  V30 19485 C 1807.23 -2.41462 3.79495 0
M  V30 19486 C 1808.55 -3.79469 2.22915 0
M  V30 19487 H 1805.67 -0.551091 0.489355 0
M  V30 19488 H 1808.31 -0.868376 1.68995 0
M  V30 19489 H 1806.46 -3.32994 2.00119 0
M  V30 19490 H 1808.13 -1.91742 4.19562 0
M  V30 19491 H 1806.37 -1.73976 3.97385 0
M  V30 19492 H 1807.04 -3.31272 4.41546 0
M  V30 19493 H 1809.52 -3.33471 2.48871 0
M  V30 19494 H 1808.4 -4.6502 2.91629 0
M  V30 19495 H 1808.66 -4.24744 1.22658 0
M  V30 19496 N 1807.72 -1.22979 -0.985586 0
M  V30 19497 C 1808.96 -1.06033 -1.72872 0
M  V30 19498 C 1809.3 0.402572 -1.89982 0
M  V30 19499 O 1808.57 1.29824 -1.44831 0
M  V30 19500 C 1808.85 -1.78047 -3.13004 0
M  V30 19501 C 1808.71 -3.31979 -3.03497 0
M  V30 19502 C 1810.03 -1.53877 -4.12323 0
M  V30 19503 H 1807.14 -0.386594 -0.627466 0
M  V30 19504 H 1809.79 -1.51416 -1.14775 0
M  V30 19505 H 1807.94 -1.39469 -3.62603 0
M  V30 19506 H 1809.61 -3.80047 -2.61462 0
M  V30 19507 H 1807.85 -3.61279 -2.40125 0
M  V30 19508 H 1808.52 -3.7755 -4.02691 0
M  V30 19509 H 1811 -1.87402 -3.7151 0
M  V30 19510 H 1809.87 -2.06749 -5.08474 0
M  V30 19511 H 1810.14 -0.472972 -4.39563 0
M  V30 19512 N 1809.19 1.18355 -1.04066 0
M  V30 19513 C 1810.12 2.24196 -0.652568 0
M  V30 19514 C 1811.11 1.66581 0.344195 0
M  V30 19515 O 1812.29 1.929 0.224296 0
M  V30 19516 C 1809.42 3.47297 -0.0147409 0
M  V30 19517 C 1808.37 4.17661 -0.935044 0
M  V30 19518 C 1807.7 5.34455 -0.161692 0
M  V30 19519 C 1809 4.71153 -2.25415 0
M  V30 19520 H 1810.69 2.56914 -1.53738 0
M  V30 19521 H 1808.24 1.23492 -0.740658 0
M  V30 19522 H 1810.19 4.20544 0.268484 0
M  V30 19523 H 1808.92 3.13812 0.904949 0
M  V30 19524 H 1807.58 3.46312 -1.20265 0
M  V30 19525 H 1807.22 4.97219 0.760404 0
M  V30 19526 H 1806.92 5.82469 -0.774805 0
M  V30 19527 H 1808.45 6.10493 0.114515 0
M  V30 19528 H 1809.86 5.36095 -2.03163 0
M  V30 19529 H 1808.26 5.29701 -2.82022 0
M  V30 19530 H 1809.33 3.88576 -2.90064 0
M  V30 19531 N 1810.67 0.820125 1.3458 0
M  V30 19532 C 1811.58 0.241913 2.33349 0
M  V30 19533 C 1812.6 -0.622228 1.62494 0
M  V30 19534 O 1813.77 -0.530787 1.9428 0
M  V30 19535 C 1810.84 -0.588944 3.41661 0
M  V30 19536 C 1809.9 0.29727 4.2827 0
M  V30 19537 C 1809.13 -0.494028 5.31409 0
M  V30 19538 O 1809.36 -1.72755 5.4361 0
M  V30 19539 O 1808.29 0.122182 6.01776 0
M  V30 19540 H 1812.12 1.05934 2.84626 0
M  V30 19541 H 1809.7 0.582205 1.37589 0
M  V30 19542 H 1811.58 -1.06174 4.07805 0
M  V30 19543 H 1810.26 -1.38374 2.92633 0
M  V30 19544 H 1809.17 0.817495 3.65059 0
M  V30 19545 H 1810.5 1.05635 4.80731 0
M  V30 19546 N 1812.15 -1.46743 0.574835 0
M  V30 19547 C 1813.08 -2.33012 -0.150836 0
M  V30 19548 C 1814.06 -1.44868 -0.891472 0
M  V30 19549 O 1815.25 -1.73698 -0.868481 0
M  V30 19550 C 1812.38 -3.26995 -1.17012 0
M  V30 19551 C 1811.33 -4.24518 -0.544829 0
M  V30 19552 C 1810.66 -5.07951 -1.67002 0
M  V30 19553 C 1811.96 -5.19776 0.512891 0
M  V30 19554 H 1813.65 -2.93935 0.569433 0
M  V30 19555 H 1811.2 -1.41344 0.275289 0
M  V30 19556 H 1813.15 -3.86198 -1.68609 0
M  V30 19557 H 1811.87 -2.64163 -1.92056 0
M  V30 19558 H 1810.53 -3.66566 -0.0500133 0
M  V30 19559 H 1810.18 -4.4151 -2.40993 0
M  V30 19560 H 1809.88 -5.73991 -1.25732 0
M  V30 19561 H 1811.4 -5.70017 -2.1889 0
M  V30 19562 H 1812.82 -5.73241 0.0823064 0
M  V30 19563 H 1811.22 -5.94114 0.845462 0
M  V30 19564 H 1812.29 -4.64184 1.40217 0
M  V30 19565 N 1813.63 -0.312197 -1.54477 0
M  V30 19566 C 1814.56 0.551829 -2.26886 0
M  V30 19567 C 1815.54 1.12874 -1.27254 0
M  V30 19568 O 1816.72 1.15599 -1.56046 0
M  V30 19569 C 1813.85 1.71839 -3.01809 0
M  V30 19570 C 1812.81 1.27131 -4.08683 0
M  V30 19571 C 1812.13 2.52392 -4.71384 0
M  V30 19572 C 1813.43 0.394413 -5.20809 0
M  V30 19573 H 1815.13 -0.0521331 -2.99355 0
M  V30 19574 H 1812.67 -0.0265138 -1.43976 0
M  V30 19575 H 1814.63 2.32903 -3.5119 0
M  V30 19576 H 1813.35 2.34876 -2.26938 0
M  V30 19577 H 1812.01 0.683666 -3.60169 0
M  V30 19578 H 1811.66 3.13768 -3.93139 0
M  V30 19579 H 1811.36 2.23174 -5.43569 0
M  V30 19580 H 1812.88 3.14239 -5.23533 0
M  V30 19581 H 1814.3 0.911031 -5.66015 0
M  V30 19582 H 1812.69 0.195517 -5.99781 0
M  V30 19583 H 1813.76 -0.577661 -4.81447 0
M  V30 19584 N 1815.11 1.57549 -0.040136 0
M  V30 19585 C 1816.04 2.07803 0.966975 0
M  V30 19586 C 1817.05 1.00363 1.28184 0
M  V30 19587 O 1818.24 1.27957 1.24456 0
M  V30 19588 C 1815.34 2.49688 2.29149 0
M  V30 19589 C 1814.51 3.80336 2.16017 0
M  V30 19590 C 1813.57 4.08652 3.31497 0
M  V30 19591 O 1812.6 4.78739 3.07892 0
M  V30 19592 N 1813.8 3.59693 4.55633 0
M  V30 19593 H 1816.57 2.94829 0.538115 0
M  V30 19594 H 1814.13 1.61237 0.146368 0
M  V30 19595 H 1816.12 2.65715 3.0525 0
M  V30 19596 H 1814.69 1.67969 2.63638 0
M  V30 19597 H 1813.91 3.73998 1.24575 0
M  V30 19598 H 1815.2 4.65912 2.04458 0
M  V30 19599 H 1814.59 3.03012 4.77703 0
M  V30 19600 H 1813.15 3.80978 5.28866 0
M  V30 19601 N 1816.58 -0.233136 1.55866 0
M  V30 19602 C 1817.83 -0.957205 1.7754 0
M  V30 19603 C 1818.15 -1.85956 0.606601 0
M  V30 19604 O 1819.35 -2.62142 0.706687 0
M  V30 19605 C 1817.81 -1.75215 3.14369 0
M  V30 19606 C 1817.42 -0.896509 4.38938 0
M  V30 19607 C 1819.16 -2.46813 3.45374 0
M  V30 19608 C 1817.07 -1.68814 5.66794 0
M  V30 19609 H 1816 -0.361139 0.661887 0
M  V30 19610 H 1818.65 -0.211424 1.82278 0
M  V30 19611 H 1817.03 -2.54041 3.03775 0
M  V30 19612 H 1818.2 -0.149614 4.60557 0
M  V30 19613 H 1816.52 -0.293211 4.15366 0
M  V30 19614 H 1819.12 -3.0652 4.38121 0
M  V30 19615 H 1819.46 -3.19121 2.67334 0
M  V30 19616 H 1819.99 -1.74987 3.57245 0
M  V30 19617 H 1816.73 -1.00855 6.47695 0
M  V30 19618 H 1816.25 -2.40995 5.49255 0
M  V30 19619 H 1817.93 -2.25178 6.06551 0
M  V30 19620 N 1818.06 -1.49479 -0.499372 0
M  V30 19621 C 1819.47 -1.52231 -1.08087 0
M  V30 19622 C 1819.83 -0.309442 -1.93744 0
M  V30 19623 O 1818.95 0.580587 -2.08466 0
M  V30 19624 C 1819.55 -2.75857 -1.96694 0
M  V30 19625 C 1818.1 -2.81381 -2.50003 0
M  V30 19626 C 1817.25 -2.46166 -1.27662 0
M  V30 19627 H 1820.2 -1.56153 -0.283211 0
M  V30 19628 H 1820.22 -2.56111 -2.81403 0
M  V30 19629 H 1819.74 -3.64114 -1.34324 0
M  V30 19630 H 1817.84 -1.97408 -3.16008 0
M  V30 19631 H 1817.95 -3.83591 -2.87045 0
M  V30 19632 H 1816.31 -1.97981 -1.60236 0
M  V30 19633 H 1817.1 -3.36699 -0.669974 0
M  V30 19634 N 1819.54 0.750537 -1.38581 0
M  V30 19635 C 1820.77 1.53755 -1.37996 0
M  V30 19636 C 1821.18 1.89174 0.0313394 0
M  V30 19637 O 1820.52 1.535 1.00912 0
M  V30 19638 C 1820.58 2.86315 -2.17403 0
M  V30 19639 C 1820.25 2.73417 -3.66186 0
M  V30 19640 C 1821.25 2.43008 -4.59612 0
M  V30 19641 C 1818.93 2.90774 -4.0958 0
M  V30 19642 C 1820.92 2.30114 -5.94413 0
M  V30 19643 C 1818.61 2.775 -5.4446 0
M  V30 19644 C 1819.61 2.47213 -6.3669 0
M  V30 19645 O 1819.3 2.34004 -7.69089 0
M  V30 19646 H 1819.03 0.482269 -0.473701 0
M  V30 19647 H 1821.58 0.936379 -1.82814 0
M  V30 19648 H 1819.81 3.48633 -1.67307 0
M  V30 19649 H 1821.5 3.47844 -2.09187 0
M  V30 19650 H 1822.27 2.29263 -4.27391 0
M  V30 19651 H 1818.15 3.13344 -3.38137 0
M  V30 19652 H 1821.69 2.06396 -6.66368 0
M  V30 19653 H 1817.59 2.90818 -5.76277 0
M  V30 19654 H 1818.36 2.49193 -7.79644 0
M  V30 19655 N 1821.02 1.235 0.979051 0
M  V30 19656 C 1821.93 1.03412 2.10578 0
M  V30 19657 C 1822.95 -0.0217644 1.73986 0
M  V30 19658 O 1824.12 0.173977 2.00647 0
M  V30 19659 C 1821.19 0.629192 3.40943 0
M  V30 19660 C 1820.25 1.76028 3.91552 0
M  V30 19661 C 1819.48 1.37457 5.15695 0
M  V30 19662 O 1819.7 0.259393 5.6981 0
M  V30 19663 O 1818.64 2.19614 5.60404 0
M  V30 19664 H 1822.46 1.97845 2.30415 0
M  V30 19665 H 1820.05 1.02218 1.08958 0
M  V30 19666 H 1821.93 0.414372 4.19358 0
M  V30 19667 H 1820.61 -0.286128 3.22433 0
M  V30 19668 H 1819.51 2.02975 3.14248 0
M  V30 19669 H 1820.85 2.65396 4.14519 0
M  V30 19670 N 1822.5 -1.17802 1.04693 0
M  V30 19671 C 1823.44 -2.21648 0.643478 0
M  V30 19672 C 1824.41 -1.6233 -0.351858 0
M  V30 19673 O 1825.6 -1.89228 -0.244414 0
M  V30 19674 C 1822.74 -3.45095 0.019145 0
M  V30 19675 C 1821.85 -4.18725 1.06271 0
M  V30 19676 C 1820.99 -5.29644 0.406224 0
M  V30 19677 C 1820.03 -5.95055 1.43444 0
M  V30 19678 N 1819.16 -6.97499 0.802482 0
M  V30 19679 H 1824 -2.55513 1.53352 0
M  V30 19680 H 1821.54 -1.25518 0.767051 0
M  V30 19681 H 1823.5 -4.15642 -0.36023 0
M  V30 19682 H 1822.13 -3.1183 -0.834386 0
M  V30 19683 H 1821.18 -3.46943 1.55996 0
M  V30 19684 H 1822.49 -4.63486 1.84342 0
M  V30 19685 H 1821.65 -6.06694 -0.027012 0
M  V30 19686 H 1820.39 -4.86003 -0.406525 0
M  V30 19687 H 1819.39 -5.1674 1.87775 0
M  V30 19688 H 1820.62 -6.40778 2.249 0
M  V30 19689 H 1818.56 -6.55999 0.010153 0
M  V30 19690 H 1818.48 -7.40545 1.52081 0
M  V30 19691 H 1819.75 -7.78504 0.393852 0
M  V30 19692 N 1823.98 -0.827251 -1.34143 0
M  V30 19693 C 1824.94 -0.257543 -2.27748 0
M  V30 19694 C 1825.94 0.567053 -1.5047 0
M  V30 19695 O 1827.13 0.382529 -1.69948 0
M  V30 19696 C 1824.26 0.638449 -3.34868 0
M  V30 19697 H 1825.45 -1.08338 -2.79648 0
M  V30 19698 H 1823.01 -0.599441 -1.44348 0
M  V30 19699 H 1823.74 1.48717 -2.8819 0
M  V30 19700 H 1823.53 0.0486033 -3.9207 0
M  V30 19701 H 1825.02 1.03071 -4.0468 0
M  V30 19702 N 1825.45 1.46436 -0.582609 0
M  V30 19703 C 1826.36 2.34099 0.153178 0
M  V30 19704 C 1827.38 1.49745 0.886135 0
M  V30 19705 O 1828.56 1.82615 0.849341 0
M  V30 19706 C 1825.62 3.26929 1.15404 0
M  V30 19707 C 1824.68 4.27183 0.425764 0
M  V30 19708 C 1823.91 5.15578 1.37895 0
M  V30 19709 O 1824.14 5.06903 2.61545 0
M  V30 19710 O 1823.07 5.9529 0.889585 0
M  V30 19711 H 1826.9 2.98368 -0.566585 0
M  V30 19712 H 1824.48 1.45409 -0.343013 0
M  V30 19713 H 1826.36 3.842 1.73114 0
M  V30 19714 H 1825.04 2.65257 1.85527 0
M  V30 19715 H 1823.95 3.73601 -0.193175 0
M  V30 19716 H 1825.28 4.91641 -0.234496 0
M  V30 19717 N 1826.93 0.320385 1.54309 0
M  V30 19718 C 1828.21 -0.337248 1.92671 0
M  V30 19719 C 1828.59 -1.70137 1.24967 0
M  V30 19720 O 1827.94 -2.25108 0.39224 0
M  V30 19721 C 1828.15 -0.432633 3.46308 0
M  V30 19722 C 1829.49 -0.694413 4.18883 0
M  V30 19723 O 1830.52 -0.515681 3.52447 0
M  V30 19724 O 1829.38 -1.039 5.36532 0
M  V30 19725 H 1826.47 -0.191985 0.804407 0
M  V30 19726 H 1829.02 0.369866 1.6562 0
M  V30 19727 H 1827.79 0.525553 3.87755 0
M  V30 19728 H 1827.41 -1.18745 3.79454 0
M  V30 19729 N 1828.41 -1.57525 0.0484906 0
M  V30 19730 C 1829.64 -1.96897 -0.635553 0
M  V30 19731 C 1830.05 -0.925909 -1.64537 0
M  V30 19732 O 1829.41 0.0901742 -1.82277 0
M  V30 19733 C 1829.46 -3.36348 -1.32484 0
M  V30 19734 O 1829.18 -4.36656 -0.355464 0
M  V30 19735 C 1830.68 -3.90463 -2.0989 0
M  V30 19736 H 1827.9 -0.648062 -0.173945 0
M  V30 19737 H 1830.45 -2.04182 0.113997 0
M  V30 19738 H 1828.6 -3.30222 -2.02564 0
M  V30 19739 H 1829.02 -5.17613 -0.847153 0
M  V30 19740 H 1830.49 -4.90326 -2.53543 0
M  V30 19741 H 1830.97 -3.25745 -2.94596 0
M  V30 19742 H 1831.57 -3.99918 -1.44726 0
M  V30 19743 N 1829.89 0.224867 -1.55988 0
M  V30 19744 C 1830.83 1.27865 -1.92144 0
M  V30 19745 C 1831.8 1.46741 -0.778228 0
M  V30 19746 O 1832.99 1.60364 -1.03383 0
M  V30 19747 C 1830.13 2.62468 -2.24063 0
M  V30 19748 C 1829.24 2.51419 -3.51301 0
M  V30 19749 C 1828.38 3.78523 -3.72684 0
M  V30 19750 C 1827.42 3.62182 -4.93448 0
M  V30 19751 N 1826.55 4.81228 -5.11237 0
M  V30 19752 H 1831.39 0.96331 -2.82001 0
M  V30 19753 H 1828.93 0.464362 -1.39578 0
M  V30 19754 H 1830.89 3.40848 -2.4058 0
M  V30 19755 H 1829.52 2.92105 -1.37384 0
M  V30 19756 H 1828.57 1.64491 -3.42997 0
M  V30 19757 H 1829.88 2.35263 -4.39833 0
M  V30 19758 H 1829.04 4.65346 -3.89279 0
M  V30 19759 H 1827.78 3.976 -2.82428 0
M  V30 19760 H 1826.78 2.73743 -4.76807 0
M  V30 19761 H 1828.01 3.44579 -5.85186 0
M  V30 19762 H 1825.95 5.00625 -4.23923 0
M  V30 19763 H 1825.87 4.67787 -5.93895 0
M  V30 19764 H 1827.14 5.69487 -5.32264 0
M  V30 19765 N 1831.37 1.49742 0.491438 0
M  V30 19766 C 1832.3 1.6173 1.60993 0
M  V30 19767 C 1833.28 0.466021 1.55779 0
M  V30 19768 O 1834.46 0.682843 1.75697 0
M  V30 19769 C 1831.59 1.58109 2.99532 0
M  V30 19770 C 1830.63 2.78551 3.22973 0
M  V30 19771 S 1831.47 4.4011 3.05063 0
M  V30 19772 C 1832.62 4.3915 4.4598 0
M  V30 19773 H 1832.86 2.56345 1.50581 0
M  V30 19774 H 1830.39 1.38752 0.677301 0
M  V30 19775 H 1832.35 1.56706 3.79412 0
M  V30 19776 H 1831.01 0.64765 3.0735 0
M  V30 19777 H 1830.2 2.72264 4.24133 0
M  V30 19778 H 1829.8 2.77416 2.50831 0
M  V30 19779 H 1832.09 4.11459 5.38245 0
M  V30 19780 H 1833.04 5.40619 4.57315 0
M  V30 19781 H 1833.45 3.69107 4.27107 0
M  V30 19782 N 1832.84 -0.743177 1.38977 0
M  V30 19783 C 1833.78 -1.86709 1.32938 0
M  V30 19784 C 1834.79 -1.61027 0.239644 0
M  V30 19785 O 1835.98 -1.71413 0.497991 0
M  V30 19786 C 1833.08 -3.22566 1.03945 0
M  V30 19787 C 1832.25 -3.75669 2.24034 0
M  V30 19788 C 1831.31 -4.90068 1.91625 0
M  V30 19789 O 1830.34 -5.04156 2.64226 0
M  V30 19790 N 1831.54 -5.7383 0.877465 0
M  V30 19791 H 1834.3 -1.92397 2.2979 0
M  V30 19792 H 1831.86 -0.923564 1.32973 0
M  V30 19793 H 1833.86 -3.96654 0.802977 0
M  V30 19794 H 1832.43 -3.12198 0.15854 0
M  V30 19795 H 1831.65 -2.93027 2.63683 0
M  V30 19796 H 1832.93 -4.07882 3.04154 0
M  V30 19797 H 1832.33 -5.65028 0.275604 0
M  V30 19798 H 1830.89 -6.48021 0.700881 0
M  V30 19799 N 1834.32 -1.24018 -0.972487 0
M  V30 19800 C 1835.23 -1.04527 -2.10027 0
M  V30 19801 C 1836.25 0.0125372 -1.73995 0
M  V30 19802 O 1837.42 -0.184615 -2.00552 0
M  V30 19803 C 1834.49 -0.647264 -3.40604 0
M  V30 19804 C 1833.55 -1.78102 -3.90613 0
M  V30 19805 C 1832.78 -1.4019 -5.14959 0
M  V30 19806 O 1833.01 -0.289608 -5.69664 0
M  V30 19807 O 1831.94 -2.22583 -5.59232 0
M  V30 19808 H 1835.77 -1.99064 -2.29363 0
M  V30 19809 H 1833.35 -1.02794 -1.08414 0
M  V30 19810 H 1835.23 -0.436606 -4.19132 0
M  V30 19811 H 1833.91 0.269025 -3.2258 0
M  V30 19812 H 1832.82 -2.04638 -3.13168 0
M  V30 19813 H 1834.15 -2.67591 -4.13105 0
M  V30 19814 N 1835.8 1.17245 -1.05316 0
M  V30 19815 C 1837.05 1.86871 -0.759093 0
M  V30 19816 C 1837.36 1.81997 0.7167 0
M  V30 19817 O 1838.57 2.47106 1.12476 0
M  V30 19818 C 1837.02 3.35303 -1.30766 0
M  V30 19819 C 1836.63 3.48676 -2.81299 0
M  V30 19820 C 1838.38 4.10249 -1.0907 0
M  V30 19821 C 1836.28 4.91138 -3.2945 0
M  V30 19822 H 1835.21 0.699975 -0.28027 0
M  V30 19823 H 1837.86 1.32393 -1.27061 0
M  V30 19824 H 1836.25 3.89326 -0.723955 0
M  V30 19825 H 1837.42 3.04864 -3.45536 0
M  V30 19826 H 1835.74 2.87152 -3.0155 0
M  V30 19827 H 1838.33 5.1535 -1.42545 0
M  V30 19828 H 1838.68 4.1629 -0.0285204 0
M  V30 19829 H 1839.21 3.62436 -1.63967 0
M  V30 19830 H 1835.95 4.90271 -4.35103 0
M  V30 19831 H 1835.47 5.35615 -2.69956 0
M  V30 19832 H 1837.15 5.59913 -3.24201 0
M  V30 19833 N 1837.28 0.834353 1.33702 0
M  V30 19834 C 1838.21 0.209437 2.27237 0
M  V30 19835 C 1839.19 -0.640813 1.4944 0
M  V30 19836 O 1840.37 -0.602063 1.78627 0
M  V30 19837 C 1837.5 -0.706361 3.31253 0
M  V30 19838 C 1836.55 0.0678418 4.26446 0
M  V30 19839 S 1837.38 1.42271 5.16255 0
M  V30 19840 C 1838.54 0.512085 6.23802 0
M  V30 19841 H 1838.77 1.0024 2.79891 0
M  V30 19842 H 1836.3 0.630861 1.40924 0
M  V30 19843 H 1838.26 -1.22915 3.91666 0
M  V30 19844 H 1836.92 -1.47295 2.77422 0
M  V30 19845 H 1836.11 -0.628824 5.00062 0
M  V30 19846 H 1835.72 0.521548 3.70346 0
M  V30 19847 H 1838.01 -0.291863 6.76871 0
M  V30 19848 H 1838.95 1.21826 6.97541 0
M  V30 19849 H 1839.36 0.0954372 5.64419 0
M  V30 19850 N 1838.76 -1.46125 0.590367 0
M  V30 19851 C 1840.17 -1.57588 0.252639 0
M  V30 19852 C 1840.37 -1.58435 -1.24502 0
M  V30 19853 O 1839.43 -1.50541 -2.02716 0
M  V30 19854 C 1840.74 -2.86644 0.908612 0
M  V30 19855 C 1842.29 -3.00289 0.882917 0
M  V30 19856 C 1842.76 -4.32092 1.51858 0
M  V30 19857 N 1844.26 -4.38809 1.48327 0
M  V30 19858 C 1844.99 -5.39426 1.94442 0
M  V30 19859 N 1844.49 -6.46674 2.48565 0
M  V30 19860 N 1846.28 -5.30675 1.85313 0
M  V30 19861 H 1838.43 -1.43819 1.56301 0
M  V30 19862 H 1840.69 -0.686515 0.653759 0
M  V30 19863 H 1840.4 -2.91857 1.96246 0
M  V30 19864 H 1840.27 -3.74838 0.421445 0
M  V30 19865 H 1842.66 -2.94653 -0.16233 0
M  V30 19866 H 1842.74 -2.13551 1.40818 0
M  V30 19867 H 1842.39 -4.38486 2.56306 0
M  V30 19868 H 1842.32 -5.17618 0.968474 0
M  V30 19869 H 1844.81 -3.61907 1.08772 0
M  V30 19870 H 1845.12 -7.19671 2.8159 0
M  V30 19871 H 1843.46 -6.47473 2.52595 0
M  V30 19872 H 1846.66 -4.45793 1.42782 0
M  V30 19873 H 1846.83 -6.08943 2.21567 0
M  V30 19874 N 1840.23 -0.328564 -1.54137 0
M  V30 19875 C 1841.16 0.527734 -2.27458 0
M  V30 19876 C 1842.15 1.11518 -1.28444 0
M  V30 19877 O 1843.33 1.13938 -1.57264 0
M  V30 19878 C 1840.46 1.68628 -3.03615 0
M  V30 19879 C 1839.41 1.22789 -4.10008 0
M  V30 19880 C 1838.74 2.47378 -4.74034 0
M  V30 19881 C 1840.04 0.339152 -5.21198 0
M  V30 19882 H 1841.73 -0.0838808 -2.99282 0
M  V30 19883 H 1839.28 -0.0417829 -1.43939 0
M  V30 19884 H 1841.23 2.29165 -3.5364 0
M  V30 19885 H 1839.96 2.32456 -2.29416 0
M  V30 19886 H 1838.62 0.645427 -3.60874 0
M  V30 19887 H 1838.26 3.09581 -3.96445 0
M  V30 19888 H 1837.96 2.17396 -5.45905 0
M  V30 19889 H 1839.49 3.08668 -5.26836 0
M  V30 19890 H 1840.9 0.850947 -5.6695 0
M  V30 19891 H 1839.3 0.131892 -5.99955 0
M  V30 19892 H 1840.37 -0.628692 -4.80807 0
M  V30 19893 N 1841.71 1.57497 -0.0568439 0
M  V30 19894 C 1842.68 2.10755 0.900823 0
M  V30 19895 C 1843.68 1.02835 1.23619 0
M  V30 19896 O 1844.87 1.28885 1.17194 0
M  V30 19897 C 1842 2.5965 2.20895 0
M  V30 19898 H 1843.19 2.96669 0.439041 0
M  V30 19899 H 1840.74 1.55121 0.191646 0
M  V30 19900 H 1841.48 1.77147 2.71642 0
M  V30 19901 H 1841.26 3.3852 1.97855 0
M  V30 19902 H 1842.75 3.00982 2.89482 0
M  V30 19903 N 1843.19 -0.216591 1.56105 0
M  V30 19904 C 1844.14 -1.27204 1.89217 0
M  V30 19905 C 1845.12 -1.42048 0.755716 0
M  V30 19906 O 1846.32 -1.4478 1.01822 0
M  V30 19907 C 1843.45 -2.62143 2.21666 0
M  V30 19908 C 1842.53 -2.5118 3.41716 0
M  V30 19909 N 1842.92 -2.09872 4.60203 0
M  V30 19910 C 1841.22 -2.82126 3.45428 0
M  V30 19911 C 1841.92 -2.1028 5.42363 0
M  V30 19912 N 1840.9 -2.50959 4.82204 0
M  V30 19913 H 1844.7 -0.943648 2.78339 0
M  V30 19914 H 1842.21 -0.425133 1.56737 0
M  V30 19915 H 1844.21 -3.38352 2.43565 0
M  V30 19916 H 1842.87 -2.95824 1.3386 0
M  V30 19917 H 1843.88 -1.80924 4.8527 0
M  V30 19918 H 1840.56 -3.20146 2.67979 0
M  V30 19919 H 1841.95 -1.80426 6.47222 0
M  V30 19920 N 1844.67 -1.5 -0.48349 0
M  V30 19921 C 1845.58 -1.70722 -1.60907 0
M  V30 19922 C 1846.59 -0.590075 -1.63689 0
M  V30 19923 O 1847.77 -0.866915 -1.81787 0
M  V30 19924 C 1844.84 -1.78544 -2.97192 0
M  V30 19925 C 1843.9 -3.02218 -3.04898 0
M  V30 19926 C 1843.13 -3.09658 -4.34681 0
M  V30 19927 O 1843.35 -2.24216 -5.24484 0
M  V30 19928 O 1842.29 -4.02278 -4.47723 0
M  V30 19929 H 1846.11 -2.66111 -1.4635 0
M  V30 19930 H 1843.7 -1.33949 -0.661666 0
M  V30 19931 H 1845.58 -1.85941 -3.78159 0
M  V30 19932 H 1844.25 -0.863364 -3.11974 0
M  V30 19933 H 1843.16 -3.00329 -2.23054 0
M  V30 19934 H 1844.49 -3.93964 -2.95048 0
M  V30 19935 N 1846.15 0.735796 -1.39369 0
M  V30 19936 C 1847.39 1.49534 -1.3655 0
M  V30 19937 C 1847.72 1.94461 0.0388165 0
M  V30 19938 O 1846.98 1.67048 1.01949 0
M  V30 19939 C 1847.28 2.7495 -2.28336 0
M  V30 19940 C 1846.94 2.48894 -3.75982 0
M  V30 19941 C 1845.6 2.41498 -4.16212 0
M  V30 19942 C 1847.96 2.26589 -4.69369 0
M  V30 19943 C 1845.28 2.09836 -5.47892 0
M  V30 19944 C 1847.64 1.96444 -6.01326 0
M  V30 19945 C 1846.3 1.87515 -6.4062 0
M  V30 19946 H 1845.57 0.547184 -0.49967 0
M  V30 19947 H 1848.22 0.844587 -1.71869 0
M  V30 19948 H 1846.52 3.44764 -1.86132 0
M  V30 19949 H 1848.22 3.32975 -2.23448 0
M  V30 19950 H 1844.81 2.5553 -3.44097 0
M  V30 19951 H 1848.99 2.31272 -4.39121 0
M  V30 19952 H 1844.25 2.01445 -5.77261 0
M  V30 19953 H 1848.42 1.78193 -6.73216 0
M  V30 19954 H 1846.05 1.62747 -7.42575 0
M  V30 19955 N 1847.63 1.24532 0.965897 0
M  V30 19956 C 1848.56 1.06393 2.07853 0
M  V30 19957 C 1849.54 -0.0236467 1.70084 0
M  V30 19958 O 1850.72 0.143767 1.93667 0
M  V30 19959 C 1847.85 0.669877 3.40778 0
M  V30 19960 C 1846.81 1.70643 3.92511 0
M  V30 19961 C 1846.13 1.16738 5.21801 0
M  V30 19962 C 1847.43 3.10278 4.20149 0
M  V30 19963 H 1849.13 1.99459 2.23285 0
M  V30 19964 H 1846.67 0.960397 1.07296 0
M  V30 19965 H 1848.62 0.52997 4.18054 0
M  V30 19966 H 1847.35 -0.296477 3.25252 0
M  V30 19967 H 1846.01 1.83458 3.17393 0
M  V30 19968 H 1845.66 0.191586 5.02635 0
M  V30 19969 H 1845.36 1.86009 5.57382 0
M  V30 19970 H 1846.88 1.03963 6.01684 0
M  V30 19971 H 1848.29 3.00681 4.88123 0
M  V30 19972 H 1846.69 3.76918 4.66962 0
M  V30 19973 H 1847.76 3.58182 3.26854 0
M  V30 19974 N 1849.1 -1.16685 1.05936 0
M  V30 19975 C 1850.04 -2.20516 0.624931 0
M  V30 19976 C 1851.05 -1.59719 -0.315206 0
M  V30 19977 O 1852.24 -1.7818 -0.106761 0
M  V30 19978 C 1849.34 -3.38739 -0.10452 0
M  V30 19979 C 1848.51 -4.29097 0.848197 0
M  V30 19980 C 1847.57 -5.25961 0.158648 0
M  V30 19981 O 1846.6 -5.63619 0.795149 0
M  V30 19982 N 1847.8 -5.69961 -1.10115 0
M  V30 19983 H 1850.56 -2.58408 1.51807 0
M  V30 19984 H 1848.12 -1.31658 0.942216 0
M  V30 19985 H 1850.12 -4.00578 -0.576133 0
M  V30 19986 H 1848.69 -2.99382 -0.899414 0
M  V30 19987 H 1847.91 -3.64576 1.49927 0
M  V30 19988 H 1849.19 -4.86352 1.49463 0
M  V30 19989 H 1848.59 -5.41452 -1.63847 0
M  V30 19990 H 1847.15 -6.33908 -1.51669 0
M  V30 19991 N 1850.58 -0.841432 -1.33258 0
M  V30 19992 C 1851.53 -0.265077 -2.31085 0
M  V30 19993 C 1852.52 0.604339 -1.58253 0
M  V30 19994 O 1853.73 0.493615 -1.731 0
M  V30 19995 H 1850.1 -0.0669974 -0.74901 0
M  V30 19996 H 1852.08 -1.10464 -2.77201 0
M  V30 19997 C 1850.82 0.542926 -3.43435 0
M  V30 19998 H 1850.15 -0.116767 -3.99629 0
M  V30 19999 H 1851.59 0.912004 -4.14075 0
M  V30 20000 C 1850.05 1.72284 -2.89517 0
M  V30 20001 O 1850.58 2.82161 -2.85916 0
M  V30 20002 N 1848.78 1.54557 -2.4609 0
M  V30 20003 H 1848.33 0.651752 -2.49219 0
M  V30 20004 H 1848.29 2.33651 -2.10367 0
M  V30 20005 N 1852.06 1.4581 -0.598108 0
M  V30 20006 C 1853.31 2.02302 -0.0896112 0
M  V30 20007 C 1853.63 1.46772 1.27625 0
M  V30 20008 O 1852.89 0.628712 1.85326 0
M  V30 20009 C 1853.19 3.57399 0.00976809 0
M  V30 20010 C 1852.85 4.32038 -1.29051 0
M  V30 20011 C 1851.52 4.52147 -1.64671 0
M  V30 20012 C 1853.87 4.74776 -2.15028 0
M  V30 20013 C 1851.2 5.12249 -2.86038 0
M  V30 20014 C 1853.55 5.3622 -3.35635 0
M  V30 20015 C 1852.21 5.54554 -3.71519 0
M  V30 20016 H 1851.48 0.740274 -0.0327911 0
M  V30 20017 H 1854.13 1.74992 -0.77783 0
M  V30 20018 H 1852.43 3.83933 0.781201 0
M  V30 20019 H 1854.13 3.98803 0.419212 0
M  V30 20020 H 1850.72 4.16693 -1.00324 0
M  V30 20021 H 1854.91 4.58982 -1.8881 0
M  V30 20022 H 1850.16 5.24633 -3.13958 0
M  V30 20023 H 1854.34 5.68292 -4.02514 0
M  V30 20024 H 1851.96 6.00894 -4.65651 0
M  V30 20025 N 1853.54 0.336733 1.53961 0
M  V30 20026 C 1854.78 -0.26229 2.0271 0
M  V30 20027 C 1855.14 -1.48309 1.21936 0
M  V30 20028 O 1856.34 -2.15584 1.60552 0
M  V30 20029 C 1854.61 -0.575319 3.52739 0
M  V30 20030 S 1856.17 -1.15212 4.23405 0
M  V30 20031 H 1852.99 -0.0785306 0.70665 0
M  V30 20032 H 1855.59 0.472914 1.89694 0
M  V30 20033 H 1854.3 0.32111 4.09142 0
M  V30 20034 H 1853.83 -1.34037 3.69862 0
M  V30 20035 H 1855.84 -2.43824 4.32162 0
M  V30 20036 N 1855.02 -1.57465 0.0651956 0
M  V30 20037 C 1855.98 -2.1123 -0.889634 0
M  V30 20038 C 1856.98 -1.03489 -1.23072 0
M  V30 20039 O 1858.17 -1.29505 -1.16508 0
M  V30 20040 C 1855.3 -2.60818 -2.19515 0
M  V30 20041 H 1856.49 -2.96898 -0.423301 0
M  V30 20042 H 1854.05 -1.5522 -0.183417 0
M  V30 20043 H 1854.78 -1.78585 -2.70699 0
M  V30 20044 H 1854.57 -3.39564 -1.96057 0
M  V30 20045 H 1856.06 -3.02513 -2.87881 0
M  V30 20046 N 1856.49 0.20831 -1.56217 0
M  V30 20047 C 1857.74 0.928886 -1.79488 0
M  V30 20048 C 1858.06 1.84337 -0.636 0
M  V30 20049 O 1857.33 1.92813 0.346416 0
M  V30 20050 H 1855.91 0.345985 -0.662045 0
M  V30 20051 H 1858.57 0.216988 -1.93688 0
M  V30 20052 H 1857.67 1.52786 -2.72145 0
M  V30 20053 N 1857.97 1.50255 0.475528 0
M  V30 20054 C 1858.92 1.69315 1.59484 0
M  V30 20055 C 1859.91 0.558996 1.59911 0
M  V30 20056 O 1861.12 0.73937 1.64114 0
M  V30 20057 H 1857.49 0.534338 0.529138 0
M  V30 20058 H 1859.47 2.63217 1.40568 0
M  V30 20059 C 1858.21 1.80042 2.97456 0
M  V30 20060 H 1857.54 2.667 2.97844 0
M  V30 20061 H 1858.98 1.97405 3.75243 0
M  V30 20062 C 1857.44 0.551002 3.32364 0
M  V30 20063 O 1857.97 -0.311853 4.00488 0
M  V30 20064 N 1856.17 0.406343 2.87745 0
M  V30 20065 H 1855.72 1.10953 2.32481 0
M  V30 20066 H 1855.68 -0.428483 3.11467 0
M  V30 20067 N 1859.45 -0.728395 1.39758 0
M  V30 20068 C 1860.38 -1.85288 1.34911 0
M  V30 20069 C 1861.39 -1.60763 0.25671 0
M  V30 20070 O 1862.58 -1.70875 0.516143 0
M  V30 20071 C 1859.68 -3.21445 1.07361 0
M  V30 20072 C 1858.86 -3.73272 2.28006 0
M  V30 20073 C 1857.92 -4.88008 1.96812 0
M  V30 20074 O 1856.94 -5.01325 2.69559 0
M  V30 20075 N 1858.14 -5.72867 0.938278 0
M  V30 20076 H 1860.91 -1.89949 2.31818 0
M  V30 20077 H 1858.47 -0.909409 1.33945 0
M  V30 20078 H 1860.46 -3.9578 0.845002 0
M  V30 20079 H 1859.03 -3.12012 0.191644 0
M  V30 20080 H 1858.25 -2.90214 2.66777 0
M  V30 20081 H 1859.54 -4.04633 3.08463 0
M  V30 20082 H 1858.94 -5.64704 0.335517 0
M  V30 20083 H 1857.49 -6.47241 0.769572 0
M  V30 20084 N 1860.93 -1.25042 -0.959279 0
M  V30 20085 C 1861.86 -1.00807 -2.05841 0
M  V30 20086 C 1862.87 0.0253938 -1.6278 0
M  V30 20087 O 1864.06 -0.212625 -1.77229 0
M  V30 20088 C 1861.16 -0.501088 -3.35175 0
M  V30 20089 C 1860.33 -1.59964 -4.071 0
M  V30 20090 C 1859.39 -1.09383 -5.14705 0
M  V30 20091 O 1858.42 -1.78728 -5.40412 0
M  V30 20092 N 1859.62 0.0673296 -5.80461 0
M  V30 20093 H 1862.39 -1.95446 -2.27203 0
M  V30 20094 H 1859.95 -1.16185 -1.1275 0
M  V30 20095 H 1861.94 -0.147283 -4.04432 0
M  V30 20096 H 1860.51 0.351241 -3.1062 0
M  V30 20097 H 1859.73 -2.12524 -3.32005 0
M  V30 20098 H 1861.02 -2.3378 -4.51912 0
M  V30 20099 H 1860.42 0.646867 -5.61989 0
M  V30 20100 H 1858.97 0.362206 -6.50793 0
M  V30 20101 N 1862.41 1.16121 -1.06553 0
M  V30 20102 C 1863.35 2.22656 -0.672827 0
M  V30 20103 C 1864.35 1.66492 0.312509 0
M  V30 20104 O 1865.55 1.79127 0.17709 0
M  V30 20105 H 1861.93 0.725064 -0.199464 0
M  V30 20106 H 1863.9 2.53065 -1.58116 0
M  V30 20107 C 1862.65 3.47612 -0.0780782 0
M  V30 20108 H 1861.97 3.91145 -0.82739 0
M  V30 20109 H 1863.41 4.23701 0.159143 0
M  V30 20110 C 1861.87 3.15594 1.17906 0
M  V30 20111 O 1862.4 3.31641 2.26665 0
M  V30 20112 N 1860.61 2.69703 1.08206 0
M  V30 20113 H 1860.15 2.56846 0.196981 0
M  V30 20114 H 1860.11 2.48654 1.92402 0
M  V30 20115 N 1863.88 0.848487 1.3281 0
M  V30 20116 C 1864.82 0.245947 2.27877 0
M  V30 20117 C 1865.83 -0.578811 1.52163 0
M  V30 20118 O 1867.02 -0.404308 1.73861 0
M  V30 20119 C 1864.12 -0.671584 3.32179 0
M  V30 20120 C 1863.29 0.115958 4.37246 0
M  V30 20121 C 1862.35 -0.726387 5.21162 0
M  V30 20122 O 1861.38 -0.162121 5.68969 0
M  V30 20123 N 1862.58 -2.04216 5.43393 0
M  V30 20124 H 1865.34 1.06281 2.80222 0
M  V30 20125 H 1862.9 0.707872 1.45605 0
M  V30 20126 H 1864.9 -1.2403 3.85225 0
M  V30 20127 H 1863.47 -1.38914 2.80039 0
M  V30 20128 H 1862.69 0.866084 3.84568 0
M  V30 20129 H 1863.97 0.657126 5.04539 0
M  V30 20130 H 1863.37 -2.52401 5.06271 0
M  V30 20131 H 1861.93 -2.55914 5.99459 0
M  V30 20132 N 1865.36 -1.4549 0.605832 0
M  V30 20133 C 1866.33 -2.28964 -0.104089 0
M  V30 20134 C 1867.33 -1.39671 -0.796791 0
M  V30 20135 O 1868.52 -1.6181 -0.645221 0
M  V30 20136 C 1865.65 -3.20647 -1.1575 0
M  V30 20137 H 1866.84 -2.93213 0.629776 0
M  V30 20138 H 1864.39 -1.51983 0.3648 0
M  V30 20139 H 1865.13 -2.61194 -1.92219 0
M  V30 20140 H 1864.91 -3.86419 -0.665025 0
M  V30 20141 H 1866.4 -3.83416 -1.65474 0
M  V30 20142 N 1866.84 -0.344893 -1.5378 0
M  V30 20143 C 1867.77 0.503579 -2.28005 0
M  V30 20144 C 1868.75 1.10149 -1.29619 0
M  V30 20145 O 1869.94 1.12263 -1.58463 0
M  V30 20146 C 1867.07 1.65398 -3.05386 0
M  V30 20147 C 1866.02 1.18434 -4.11288 0
M  V30 20148 C 1865.35 2.42336 -4.76631 0
M  V30 20149 C 1866.65 0.283853 -5.21528 0
M  V30 20150 H 1868.34 -0.115619 -2.99177 0
M  V30 20151 H 1865.89 -0.0570472 -1.43887 0
M  V30 20152 H 1867.84 2.25401 -3.56051 0
M  V30 20153 H 1866.56 2.3001 -2.31869 0
M  V30 20154 H 1865.22 0.607115 -3.61538 0
M  V30 20155 H 1864.87 3.05358 -3.99707 0
M  V30 20156 H 1864.57 2.11594 -5.4818 0
M  V30 20157 H 1866.09 3.03063 -5.3008 0
M  V30 20158 H 1867.51 0.790766 -5.6782 0
M  V30 20159 H 1865.91 0.0682509 -6.00061 0
M  V30 20160 H 1866.98 -0.679653 -4.80113 0
M  V30 20161 N 1868.32 1.57428 -0.0735454 0
M  V30 20162 C 1869.25 2.15849 0.890584 0
M  V30 20163 C 1870.23 1.086 1.3092 0
M  V30 20164 O 1871.41 1.36643 1.37994 0
M  V30 20165 C 1868.54 2.72153 2.15755 0
M  V30 20166 C 1867.5 3.84584 1.87827 0
M  V30 20167 C 1866.82 4.27498 3.21169 0
M  V30 20168 C 1868.12 5.08746 1.18217 0
M  V30 20169 H 1869.82 2.96663 0.403904 0
M  V30 20170 H 1867.36 1.42703 0.192836 0
M  V30 20171 H 1869.32 3.11668 2.83621 0
M  V30 20172 H 1868.04 1.88562 2.66668 0
M  V30 20173 H 1866.7 3.45575 1.22366 0
M  V30 20174 H 1866.35 3.40827 3.69927 0
M  V30 20175 H 1866.05 5.03288 3.03273 0
M  V30 20176 H 1867.57 4.69631 3.9023 0
M  V30 20177 H 1868.99 5.45566 1.76155 0
M  V30 20178 H 1867.38 5.89825 1.10573 0
M  V30 20179 H 1868.45 4.84631 0.161525 0
M  V30 20180 N 1869.8 -0.200022 1.56326 0
M  V30 20181 C 1870.75 -1.2519 1.90556 0
M  V30 20182 C 1871.73 -1.41239 0.77074 0
M  V30 20183 O 1872.92 -1.43692 1.03352 0
M  V30 20184 C 1870.05 -2.59777 2.24434 0
M  V30 20185 C 1869.14 -2.47541 3.4436 0
M  V30 20186 N 1869.53 -2.04979 4.62404 0
M  V30 20187 C 1867.83 -2.78447 3.48401 0
M  V30 20188 C 1868.53 -2.04515 5.44562 0
M  V30 20189 N 1867.5 -2.45831 4.84838 0
M  V30 20190 H 1871.31 -0.914073 2.79324 0
M  V30 20191 H 1868.82 -0.408485 1.57179 0
M  V30 20192 H 1870.82 -3.35749 2.4714 0
M  V30 20193 H 1869.48 -2.94387 1.3699 0
M  V30 20194 H 1870.49 -1.75766 4.87162 0
M  V30 20195 H 1867.16 -3.17286 2.71359 0
M  V30 20196 H 1868.55 -1.73551 6.49099 0
M  V30 20197 N 1871.27 -1.50505 -0.467553 0
M  V30 20198 C 1872.22 -1.69626 -1.56511 0
M  V30 20199 C 1873.19 -0.537594 -1.5716 0
M  V30 20200 O 1874.38 -0.768574 -1.74636 0
M  V30 20201 C 1871.52 -1.79965 -2.9446 0
M  V30 20202 C 1870.63 -3.07356 -3.03572 0
M  V30 20203 C 1869.76 -3.08469 -4.32458 0
M  V30 20204 C 1868.8 -4.303 -4.35326 0
M  V30 20205 N 1867.94 -4.29132 -5.55689 0
M  V30 20206 H 1872.78 -2.63326 -1.39511 0
M  V30 20207 H 1870.32 -1.30531 -0.678239 0
M  V30 20208 H 1872.28 -1.8394 -3.74462 0
M  V30 20209 H 1870.91 -0.897013 -3.10086 0
M  V30 20210 H 1869.96 -3.12836 -2.16421 0
M  V30 20211 H 1871.27 -3.97327 -3.01551 0
M  V30 20212 H 1870.42 -3.11193 -5.20811 0
M  V30 20213 H 1869.16 -2.16335 -4.37093 0
M  V30 20214 H 1868.17 -4.27784 -3.4537 0
M  V30 20215 H 1869.39 -5.23665 -4.3238 0
M  V30 20216 H 1867.34 -3.39853 -5.61102 0
M  V30 20217 H 1867.26 -5.12875 -5.55423 0
M  V30 20218 H 1868.52 -4.36007 -6.46156 0
M  V30 20219 N 1872.75 0.720973 -1.40142 0
M  V30 20220 C 1873.7 1.82653 -1.36462 0
M  V30 20221 C 1874.69 1.59053 -0.243068 0
M  V30 20222 O 1875.88 1.70318 -0.481742 0
M  V30 20223 C 1873.01 3.20728 -1.22428 0
M  V30 20224 C 1872.09 3.50109 -2.39342 0
M  V30 20225 N 1872.48 3.50339 -3.64823 0
M  V30 20226 C 1870.78 3.80541 -2.32604 0
M  V30 20227 C 1871.48 3.77912 -4.42219 0
M  V30 20228 N 1870.46 3.96392 -3.71987 0
M  V30 20229 H 1874.26 1.81157 -2.31429 0
M  V30 20230 H 1871.78 0.919857 -1.33837 0
M  V30 20231 H 1873.77 3.99889 -1.17874 0
M  V30 20232 H 1872.43 3.23454 -0.284229 0
M  V30 20233 H 1873.44 3.31317 -3.98057 0
M  V30 20234 H 1870.12 3.90789 -1.46937 0
M  V30 20235 H 1871.51 3.8444 -5.51049 0
M  V30 20236 N 1874.23 1.25549 0.952634 0
M  V30 20237 C 1875.48 1.09811 1.69188 0
M  V30 20238 C 1875.79 -0.360368 1.92252 0
M  V30 20239 O 1877 -0.638228 2.63892 0
M  V30 20240 C 1875.45 1.91693 3.04601 0
M  V30 20241 C 1875.06 3.42045 2.89326 0
M  V30 20242 C 1876.81 1.8453 3.82294 0
M  V30 20243 C 1874.71 4.16216 4.20141 0
M  V30 20244 H 1873.64 0.40733 0.634507 0
M  V30 20245 H 1876.29 1.49762 1.06035 0
M  V30 20246 H 1874.68 1.44566 3.68669 0
M  V30 20247 H 1875.85 3.96859 2.34178 0
M  V30 20248 H 1874.17 3.50322 2.25085 0
M  V30 20249 H 1876.76 2.37237 4.79189 0
M  V30 20250 H 1877.11 0.81361 4.08272 0
M  V30 20251 H 1877.64 2.29418 3.2498 0
M  V30 20252 H 1874.38 5.19806 3.99352 0
M  V30 20253 H 1873.9 3.66184 4.75047 0
M  V30 20254 H 1875.58 4.2404 4.88671 0
M  V30 20255 N 1875.71 -1.15554 1.07168 0
M  V30 20256 C 1876.66 -2.22296 0.684626 0
M  V30 20257 C 1877.65 -1.66656 -0.303675 0
M  V30 20258 O 1878.86 -1.79218 -0.167588 0
M  V30 20259 H 1875.23 -0.723996 0.203306 0
M  V30 20260 H 1877.2 -2.52223 1.59456 0
M  V30 20261 C 1875.95 -3.47566 0.0965118 0
M  V30 20262 H 1875.27 -3.90701 0.848122 0
M  V30 20263 H 1876.71 -4.2378 -0.136671 0
M  V30 20264 C 1875.17 -3.16215 -1.16231 0
M  V30 20265 O 1875.7 -3.32838 -2.24903 0
M  V30 20266 N 1873.91 -2.70273 -1.06774 0
M  V30 20267 H 1873.46 -2.56947 -0.183357 0
M  V30 20268 H 1873.41 -2.49671 -1.9108 0
M  V30 20269 N 1877.19 -0.855519 -1.32358 0
M  V30 20270 C 1878.12 -0.316159 -2.3135 0
M  V30 20271 C 1879.1 0.585159 -1.59718 0
M  V30 20272 O 1880.28 0.505221 -1.87513 0
M  V30 20273 C 1877.41 0.495577 -3.43746 0
M  V30 20274 C 1876.37 -0.311382 -4.26866 0
M  V30 20275 C 1875.69 0.625144 -5.31033 0
M  V30 20276 C 1876.99 -1.5376 -4.99154 0
M  V30 20277 H 1878.69 -1.14331 -2.7671 0
M  V30 20278 H 1876.23 -0.551221 -1.33032 0
M  V30 20279 H 1878.19 0.883325 -4.12038 0
M  V30 20280 H 1876.91 1.3561 -2.97115 0
M  V30 20281 H 1875.57 -0.680895 -3.60221 0
M  V30 20282 H 1875.22 1.48254 -4.80656 0
M  V30 20283 H 1874.92 0.0892112 -5.87532 0
M  V30 20284 H 1876.44 1.01005 -6.02188 0
M  V30 20285 H 1877.86 -1.2221 -5.60123 0
M  V30 20286 H 1876.25 -2.01153 -5.65382 0
M  V30 20287 H 1877.32 -2.29838 -4.26969 0
M  V30 20288 N 1878.67 1.45167 -0.61354 0
M  V30 20289 C 1879.91 2.02195 -0.111063 0
M  V30 20290 C 1880.24 1.48117 1.26061 0
M  V30 20291 O 1879.5 0.648333 1.84649 0
M  V30 20292 C 1879.79 3.57389 -0.0281394 0
M  V30 20293 C 1879.46 4.30645 -1.33626 0
M  V30 20294 C 1878.12 4.50375 -1.69457 0
M  V30 20295 C 1880.47 4.72469 -2.20052 0
M  V30 20296 C 1877.8 5.09186 -2.91455 0
M  V30 20297 C 1880.15 5.3263 -3.41304 0
M  V30 20298 C 1878.82 5.50582 -3.7738 0
M  V30 20299 H 1878.09 0.739885 -0.0406408 0
M  V30 20300 H 1880.74 1.74157 -0.796346 0
M  V30 20301 H 1879.04 3.8474 0.740436 0
M  V30 20302 H 1880.74 3.99225 0.37689 0
M  V30 20303 H 1877.33 4.15605 -1.04738 0
M  V30 20304 H 1881.51 4.56954 -1.93668 0
M  V30 20305 H 1876.77 5.21274 -3.19505 0
M  V30 20306 H 1880.94 5.6399 -4.08519 0
M  V30 20307 H 1878.57 5.95921 -4.71998 0
M  V30 20308 N 1880.14 0.353044 1.53595 0
M  V30 20309 C 1881.07 -0.491481 2.28269 0
M  V30 20310 C 1882.05 -1.0946 1.30201 0
M  V30 20311 O 1883.24 -1.11421 1.59056 0
M  V30 20312 C 1880.37 -1.63776 3.06259 0
M  V30 20313 C 1879.32 -1.16251 4.1191 0
M  V30 20314 C 1878.65 -2.39805 4.7791 0
M  V30 20315 C 1879.95 -0.256191 5.21671 0
M  V30 20316 H 1881.64 0.131483 2.99111 0
M  V30 20317 H 1879.19 0.0646771 1.43855 0
M  V30 20318 H 1881.14 -2.2351 3.57241 0
M  V30 20319 H 1879.87 -2.28777 2.33085 0
M  V30 20320 H 1878.53 -0.587934 3.61855 0
M  V30 20321 H 1878.17 -3.03234 4.0132 0
M  V30 20322 H 1877.87 -2.08684 5.49295 0
M  V30 20323 H 1879.4 -3.00248 5.3168 0
M  V30 20324 H 1880.81 -0.760642 5.68232 0
M  V30 20325 H 1879.21 -0.0364273 6.00089 0
M  V30 20326 H 1880.28 0.705105 4.79746 0
M  V30 20327 N 1881.62 -1.57387 0.0818932 0
M  V30 20328 C 1882.57 -2.14508 -0.899386 0
M  V30 20329 C 1883.56 -1.08453 -1.30132 0
M  V30 20330 O 1884.77 -1.26818 -1.27739 0
M  V30 20331 H 1881.14 -0.686024 -0.308018 0
M  V30 20332 H 1883.12 -2.95804 -0.392786 0
M  V30 20333 C 1881.86 -2.72963 -2.15375 0
M  V30 20334 H 1881.19 -3.54248 -1.85333 0
M  V30 20335 H 1882.63 -3.16515 -2.82125 0
M  V30 20336 C 1881.09 -1.68212 -2.91901 0
M  V30 20337 O 1881.62 -1.11314 -3.85969 0
M  V30 20338 N 1879.82 -1.3901 -2.55195 0
M  V30 20339 H 1879.37 -1.85468 -1.78771 0
M  V30 20340 H 1879.33 -0.691582 -3.06699 0
M  V30 20341 N 1883.1 0.191729 -1.56429 0
M  V30 20342 C 1884.51 0.756099 -1.70705 0
M  V30 20343 C 1884.86 1.83703 -0.689029 0
M  V30 20344 O 1883.99 2.15852 0.153863 0
M  V30 20345 C 1884.58 1.37827 -3.09498 0
M  V30 20346 C 1883.14 1.88968 -3.25527 0
M  V30 20347 C 1882.29 0.76089 -2.66657 0
M  V30 20348 H 1885.24 -0.0333918 -1.58665 0
M  V30 20349 H 1885.26 2.24771 -3.07015 0
M  V30 20350 H 1884.77 0.591316 -3.83569 0
M  V30 20351 H 1882.87 2.70372 -2.56378 0
M  V30 20352 H 1882.99 2.04916 -4.33066 0
M  V30 20353 H 1881.35 1.17606 -2.25923 0
M  V30 20354 H 1882.13 -0.0138776 -3.43297 0
M  V30 20355 N 1884.58 1.50751 0.459565 0
M  V30 20356 C 1885.83 1.61995 1.20839 0
M  V30 20357 C 1886.15 0.327782 1.92225 0
M  V30 20358 O 1885.42 -0.655341 1.84613 0
M  V30 20359 H 1884 0.596972 0.449036 0
M  V30 20360 H 1886.66 1.87582 0.52906 0
M  V30 20361 H 1885.75 2.43678 1.95006 0
M  V30 20362 N 1886.06 -0.713531 1.40522 0
M  V30 20363 C 1887.3 -1.46899 1.38216 0
M  V30 20364 C 1887.62 -1.95596 -0.011831 0
M  V30 20365 O 1888.82 -2.71043 -0.157513 0
M  V30 20366 C 1887.28 -2.65544 2.42929 0
M  V30 20367 C 1886.89 -2.23707 3.88148 0
M  V30 20368 C 1888.63 -3.4327 2.49732 0
M  V30 20369 C 1886.54 -3.39203 4.84453 0
M  V30 20370 H 1885.47 -0.551718 0.513929 0
M  V30 20371 H 1888.12 -0.776357 1.66268 0
M  V30 20372 H 1886.5 -3.36987 2.0798 0
M  V30 20373 H 1887.68 -1.5967 4.32252 0
M  V30 20374 H 1885.99 -1.59021 3.84839 0
M  V30 20375 H 1888.59 -4.29215 3.18871 0
M  V30 20376 H 1888.93 -3.87225 1.52848 0
M  V30 20377 H 1889.46 -2.78871 2.83683 0
M  V30 20378 H 1886.2 -3.00278 5.82678 0
M  V30 20379 H 1885.72 -4.02149 4.45012 0
M  V30 20380 H 1887.4 -4.0524 5.04371 0
M  V30 20381 N 1887.53 -1.26053 -0.945962 0
M  V30 20382 C 1888.46 -1.09687 -2.06134 0
M  V30 20383 C 1889.44 -0.00341513 -1.701 0
M  V30 20384 O 1890.63 -0.174559 -1.93414 0
M  V30 20385 C 1887.76 -0.724007 -3.3967 0
M  V30 20386 C 1886.71 -1.76866 -3.89747 0
M  V30 20387 C 1886.04 -1.25025 -5.19878 0
M  V30 20388 C 1887.34 -3.16923 -4.15159 0
M  V30 20389 H 1889.03 -2.02986 -2.20084 0
M  V30 20390 H 1886.58 -0.977346 -1.05754 0
M  V30 20391 H 1888.53 -0.596411 -4.17158 0
M  V30 20392 H 1887.26 0.244695 -3.25682 0
M  V30 20393 H 1885.92 -1.88485 -3.14435 0
M  V30 20394 H 1885.56 -0.271527 -5.02267 0
M  V30 20395 H 1885.26 -1.94853 -5.54352 0
M  V30 20396 H 1886.79 -1.13523 -5.99954 0
M  V30 20397 H 1888.2 -3.08409 -4.83277 0
M  V30 20398 H 1886.6 -3.84299 -4.60906 0
M  V30 20399 H 1887.67 -3.63337 -3.21114 0
M  V30 20400 N 1889.01 1.14984 -1.07779 0
M  V30 20401 C 1889.92 2.23484 -0.713576 0
M  V30 20402 C 1890.94 1.71779 0.277104 0
M  V30 20403 O 1892.11 2.01026 0.122649 0
M  V30 20404 C 1889.18 3.46487 -0.121542 0
M  V30 20405 C 1888.24 4.13162 -1.16602 0
M  V30 20406 C 1887.47 5.30292 -0.602138 0
M  V30 20407 O 1887.7 5.67439 0.580436 0
M  V30 20408 O 1886.63 5.86585 -1.34912 0
M  V30 20409 H 1890.46 2.56978 -1.61852 0
M  V30 20410 H 1888.04 1.22791 -0.851038 0
M  V30 20411 H 1889.92 4.20896 0.206134 0
M  V30 20412 H 1888.6 3.14732 0.756659 0
M  V30 20413 H 1887.5 3.40655 -1.54612 0
M  V30 20414 H 1888.84 4.49007 -2.01627 0
M  V30 20415 N 1890.49 0.862526 1.31902 0
M  V30 20416 C 1891.45 0.317836 2.26986 0
M  V30 20417 C 1892.45 -0.526959 1.5192 0
M  V30 20418 O 1893.64 -0.337336 1.70903 0
M  V30 20419 C 1890.77 -0.549441 3.36443 0
M  V30 20420 H 1891.97 1.15714 2.76677 0
M  V30 20421 H 1889.52 0.637501 1.42708 0
M  V30 20422 H 1890.26 -1.41024 2.92032 0
M  V30 20423 H 1890.04 0.0553642 3.92061 0
M  V30 20424 H 1891.53 -0.923059 4.07271 0
M  V30 20425 N 1891.97 -1.4484 0.62123 0
M  V30 20426 C 1893.21 -2.02433 0.121965 0
M  V30 20427 C 1893.55 -1.48679 -1.24932 0
M  V30 20428 O 1892.82 -0.666887 -1.8271 0
M  V30 20429 C 1893.11 -3.59967 0.0978513 0
M  V30 20430 C 1892.96 -4.24025 1.50077 0
M  V30 20431 C 1894.28 -4.36224 -0.582838 0
M  V30 20432 H 1891.4 -0.735576 0.0457947 0
M  V30 20433 H 1894.04 -1.72531 0.795812 0
M  V30 20434 H 1892.19 -3.85573 -0.47597 0
M  V30 20435 H 1893.86 -4.09558 2.12272 0
M  V30 20436 H 1892.1 -3.819 2.05754 0
M  V30 20437 H 1892.77 -5.32994 1.43602 0
M  V30 20438 H 1895.25 -4.15992 -0.0949595 0
M  V30 20439 H 1894.13 -5.45944 -0.568863 0
M  V30 20440 H 1894.39 -4.10098 -1.65142 0
M  V30 20441 N 1893.45 -0.361184 -1.53405 0
M  V30 20442 C 1894.67 0.230765 -2.05609 0
M  V30 20443 C 1895.09 1.42805 -1.23499 0
M  V30 20444 O 1894.45 1.80423 -0.274582 0
M  V30 20445 C 1894.5 0.628571 -3.55993 0
M  V30 20446 O 1894.22 -0.521123 -4.3499 0
M  V30 20447 C 1895.72 1.27938 -4.24437 0
M  V30 20448 H 1892.94 0.0414193 -0.66972 0
M  V30 20449 H 1895.48 -0.518281 -1.97823 0
M  V30 20450 H 1893.64 1.32754 -3.63944 0
M  V30 20451 H 1894.05 -0.200483 -5.24117 0
M  V30 20452 H 1895.53 1.50832 -5.30993 0
M  V30 20453 H 1896 2.23834 -3.77882 0
M  V30 20454 H 1896.61 0.621961 -4.20728 0
M  V30 20455 N 1894.92 1.57341 -0.0902386 0
M  V30 20456 C 1895.86 2.09404 0.906927 0
M  V30 20457 C 1896.84 1.00345 1.27944 0
M  V30 20458 O 1898.02 1.2781 1.38553 0
M  V30 20459 C 1895.15 2.567 2.20959 0
M  V30 20460 C 1894.19 3.77371 1.98729 0
M  V30 20461 S 1895.03 5.21189 1.22974 0
M  V30 20462 C 1896.18 5.71831 2.5448 0
M  V30 20463 H 1896.41 2.93657 0.463996 0
M  V30 20464 H 1893.95 1.5391 0.122943 0
M  V30 20465 H 1895.91 2.84608 2.95819 0
M  V30 20466 H 1894.57 1.72682 2.62373 0
M  V30 20467 H 1893.76 4.08516 2.95179 0
M  V30 20468 H 1893.36 3.49932 1.31999 0
M  V30 20469 H 1895.65 5.79801 3.50481 0
M  V30 20470 H 1896.6 6.70416 2.27921 0
M  V30 20471 H 1897 4.99738 2.6253 0
M  V30 20472 N 1896.4 -0.183431 1.56529 0
M  V30 20473 C 1897.33 -1.25157 1.92011 0
M  V30 20474 C 1898.35 -1.41107 0.811945 0
M  V30 20475 O 1899.54 -1.41326 1.09038 0
M  V30 20476 C 1896.64 -2.62206 2.14712 0
M  V30 20477 C 1895.81 -2.67712 3.45903 0
M  V30 20478 C 1894.87 -3.86038 3.57576 0
M  V30 20479 O 1893.89 -3.72599 4.30301 0
M  V30 20480 N 1895.1 -5.01988 2.91528 0
M  V30 20481 H 1897.86 -0.950304 2.84235 0
M  V30 20482 H 1895.42 -0.373278 1.57538 0
M  V30 20483 H 1897.41 -3.3981 2.19798 0
M  V30 20484 H 1895.98 -2.84772 1.28932 0
M  V30 20485 H 1895.2 -1.76294 3.52582 0
M  V30 20486 H 1896.49 -2.68392 4.32254 0
M  V30 20487 H 1895.89 -5.15807 2.32292 0
M  V30 20488 H 1894.45 -5.77497 3.02225 0
M  V30 20489 N 1897.88 -1.50992 -0.451564 0
M  V30 20490 C 1898.83 -1.67662 -1.5451 0
M  V30 20491 C 1899.81 -0.53081 -1.51892 0
M  V30 20492 O 1901.01 -0.786103 -1.58586 0
M  V30 20493 C 1898.14 -1.79204 -2.92815 0
M  V30 20494 C 1897.22 -2.99524 -3.00244 0
M  V30 20495 N 1897.61 -4.22917 -2.77443 0
M  V30 20496 C 1895.91 -2.98485 -3.31395 0
M  V30 20497 C 1896.61 -5.04058 -2.90346 0
M  V30 20498 N 1895.59 -4.3841 -3.21399 0
M  V30 20499 H 1899.39 -2.60742 -1.35612 0
M  V30 20500 H 1896.9 -1.48444 -0.658639 0
M  V30 20501 H 1898.9 -1.89254 -3.71468 0
M  V30 20502 H 1897.56 -0.872954 -3.12745 0
M  V30 20503 H 1898.57 -4.52096 -2.52645 0
M  V30 20504 H 1895.25 -2.16153 -3.57189 0
M  V30 20505 H 1896.64 -6.12238 -2.76792 0
M  V30 20506 N 1899.36 0.706069 -1.40899 0
M  V30 20507 C 1900.61 1.46164 -1.38993 0
M  V30 20508 C 1900.92 1.956 0.00145788 0
M  V30 20509 O 1902.13 2.71122 0.143137 0
M  V30 20510 C 1900.58 2.64252 -2.44334 0
M  V30 20511 C 1900.19 2.21646 -3.89329 0
M  V30 20512 C 1901.93 3.41941 -2.51549 0
M  V30 20513 C 1899.84 3.36629 -4.86245 0
M  V30 20514 H 1898.77 0.548985 -0.516847 0
M  V30 20515 H 1901.42 0.767528 -1.66677 0
M  V30 20516 H 1899.8 3.3588 -2.09764 0
M  V30 20517 H 1900.98 1.57376 -4.33093 0
M  V30 20518 H 1899.29 1.56978 -3.85677 0
M  V30 20519 H 1901.89 4.27518 -3.21142 0
M  V30 20520 H 1902.23 3.86409 -1.54899 0
M  V30 20521 H 1902.77 2.77363 -2.85158 0
M  V30 20522 H 1899.51 2.97183 -5.84262 0
M  V30 20523 H 1899.03 3.99784 -4.47139 0
M  V30 20524 H 1900.7 4.02559 -5.06513 0
M  V30 20525 N 1900.84 1.26553 0.939264 0
M  V30 20526 C 1902.08 1.1221 1.68568 0
M  V30 20527 C 1902.41 -0.334213 1.91607 0
M  V30 20528 O 1901.67 -1.26177 1.49593 0
M  V30 20529 C 1901.97 1.83848 3.06488 0
M  V30 20530 C 1901.63 3.33739 3.03198 0
M  V30 20531 C 1900.29 3.74626 3.02008 0
M  V30 20532 C 1902.65 4.29432 2.9536 0
M  V30 20533 C 1899.97 5.0959 2.90748 0
M  V30 20534 C 1902.33 5.64439 2.85641 0
M  V30 20535 C 1900.99 6.04635 2.82795 0
M  V30 20536 H 1900.26 0.410606 0.616833 0
M  V30 20537 H 1902.91 1.57019 1.09623 0
M  V30 20538 H 1901.21 1.31514 3.69068 0
M  V30 20539 H 1902.91 1.70189 3.63093 0
M  V30 20540 H 1899.5 3.01216 3.04905 0
M  V30 20541 H 1903.68 3.98824 2.95386 0
M  V30 20542 H 1898.94 5.39894 2.86923 0
M  V30 20543 H 1903.11 6.3827 2.7854 0
M  V30 20544 H 1900.74 7.09171 2.73826 0
M  V30 20545 N 1902.31 -1.14411 1.08387 0
M  V30 20546 C 1903.25 -2.18516 0.657718 0
M  V30 20547 C 1904.23 -1.59207 -0.330415 0
M  V30 20548 O 1905.41 -1.87038 -0.234325 0
M  V30 20549 C 1902.54 -3.38684 -0.0326254 0
M  V30 20550 C 1901.58 -4.16556 0.915623 0
M  V30 20551 S 1902.42 -4.77588 2.42218 0
M  V30 20552 C 1903.57 -6.01113 1.74395 0
M  V30 20553 H 1903.8 -2.54327 1.53965 0
M  V30 20554 H 1901.34 -1.2554 0.898836 0
M  V30 20555 H 1903.3 -4.08298 -0.424651 0
M  V30 20556 H 1901.96 -3.01196 -0.891048 0
M  V30 20557 H 1901.15 -5.02569 0.379492 0
M  V30 20558 H 1900.75 -3.52544 1.24854 0
M  V30 20559 H 1903.04 -6.69128 1.06177 0
M  V30 20560 H 1903.99 -6.59315 2.58281 0
M  V30 20561 H 1904.39 -5.51217 1.2174 0
M  V30 20562 N 1903.79 -0.869509 -1.31443 0
M  V30 20563 C 1904.74 -0.314033 -2.3047 0
M  V30 20564 C 1905.73 0.570635 -1.595 0
M  V30 20565 O 1906.94 0.456787 -1.74108 0
M  V30 20566 H 1903.32 -0.0828699 -0.74742 0
M  V30 20567 H 1905.29 -1.16319 -2.74795 0
M  V30 20568 C 1904.04 0.469956 -3.44509 0
M  V30 20569 H 1903.36 -0.201508 -3.99292 0
M  V30 20570 H 1904.8 0.823967 -4.15917 0
M  V30 20571 C 1903.26 1.66104 -2.93106 0
M  V30 20572 O 1903.79 2.76033 -2.91836 0
M  V30 20573 N 1901.99 1.49302 -2.49313 0
M  V30 20574 H 1901.54 0.598742 -2.50545 0
M  V30 20575 H 1901.5 2.29137 -2.15276 0
M  V30 20576 N 1905.27 1.44508 -0.628902 0
M  V30 20577 C 1906.22 2.32427 0.0895754 0
M  V30 20578 C 1907.21 1.47217 0.838067 0
M  V30 20579 O 1908.42 1.63575 0.751218 0
M  V30 20580 H 1904.79 0.750483 0.0477349 0
M  V30 20581 H 1906.76 2.9078 -0.670054 0
M  V30 20582 C 1905.51 3.31177 1.0591 0
M  V30 20583 H 1904.84 3.96754 0.492578 0
M  V30 20584 H 1906.28 3.9538 1.53135 0
M  V30 20585 C 1904.74 2.59936 2.14325 0
M  V30 20586 O 1905.27 2.3966 3.22375 0
M  V30 20587 N 1903.47 2.19712 1.90197 0
M  V30 20588 H 1903.02 2.36402 1.02332 0
M  V30 20589 H 1902.98 1.72371 2.62936 0
M  V30 20590 N 1906.75 0.369315 1.53212 0
M  V30 20591 C 1908 -0.219209 2.0131 0
M  V30 20592 C 1908.32 -1.48469 1.25647 0
M  V30 20593 O 1907.58 -1.92734 0.339443 0
M  V30 20594 C 1907.88 -0.553392 3.5309 0
M  V30 20595 C 1907.54 0.618198 4.46642 0
M  V30 20596 C 1906.21 0.939656 4.71936 0
M  V30 20597 C 1908.56 1.40294 5.01963 0
M  V30 20598 C 1905.89 2.04776 5.49803 0
M  V30 20599 C 1908.24 2.50149 5.81041 0
M  V30 20600 C 1906.9 2.82826 6.0462 0
M  V30 20601 H 1906.17 -0.0802141 0.736646 0
M  V30 20602 H 1908.82 0.502547 1.84788 0
M  V30 20603 H 1907.12 -1.35621 3.67579 0
M  V30 20604 H 1908.82 -1.02106 3.87783 0
M  V30 20605 H 1905.41 0.35762 4.27105 0
M  V30 20606 H 1909.6 1.16784 4.82364 0
M  V30 20607 H 1904.85 2.30487 5.66291 0
M  V30 20608 H 1909.03 3.1137 6.22914 0
M  V30 20609 H 1906.65 3.68812 6.64742 0
M  V30 20610 N 1908.23 -1.57291 0.0985816 0
M  V30 20611 C 1909.16 -2.11249 -0.889184 0
M  V30 20612 C 1910.17 -1.05051 -1.24371 0
M  V30 20613 O 1911.36 -1.32488 -1.19621 0
M  V30 20614 C 1908.46 -2.58021 -2.19724 0
M  V30 20615 C 1907.63 -3.88091 -2.01752 0
M  V30 20616 C 1906.69 -4.20674 -3.16101 0
M  V30 20617 O 1905.72 -4.89837 -2.89911 0
M  V30 20618 N 1906.92 -3.76356 -4.41969 0
M  V30 20619 H 1909.69 -2.96624 -0.42832 0
M  V30 20620 H 1907.25 -1.61669 -0.0864254 0
M  V30 20621 H 1909.24 -2.76861 -2.95178 0
M  V30 20622 H 1907.81 -1.77638 -2.57223 0
M  V30 20623 H 1907.03 -3.78364 -1.10608 0
M  V30 20624 H 1908.32 -4.7318 -1.87026 0
M  V30 20625 H 1907.72 -3.20533 -4.66128 0
M  V30 20626 H 1906.27 -4.00344 -5.14361 0
M  V30 20627 N 1909.71 0.175127 -1.56624 0
M  V30 20628 C 1910.64 1.21918 -1.99144 0
M  V30 20629 C 1911.62 1.4638 -0.866428 0
M  V30 20630 O 1912.8 1.57779 -1.13223 0
M  V30 20631 C 1909.93 2.55897 -2.34807 0
M  V30 20632 C 1908.89 2.46011 -3.50232 0
M  V30 20633 C 1908.21 3.84445 -3.71626 0
M  V30 20634 C 1909.51 1.96808 -4.83801 0
M  V30 20635 H 1911.21 0.86575 -2.8661 0
M  V30 20636 H 1908.75 0.415014 -1.3789 0
M  V30 20637 H 1910.7 3.29136 -2.63149 0
M  V30 20638 H 1909.43 2.9302 -1.44245 0
M  V30 20639 H 1908.09 1.75227 -3.22011 0
M  V30 20640 H 1907.74 4.18955 -2.78362 0
M  V30 20641 H 1907.44 3.787 -4.49288 0
M  V30 20642 H 1908.96 4.59276 -4.02366 0
M  V30 20643 H 1910.37 2.59819 -5.11045 0
M  V30 20644 H 1908.77 2.0202 -5.65073 0
M  V30 20645 H 1909.84 0.922209 -4.7605 0
M  V30 20646 N 1911.18 1.5123 0.44355 0
M  V30 20647 C 1912.42 1.65246 1.20305 0
M  V30 20648 C 1912.79 0.357897 1.88635 0
M  V30 20649 O 1913.99 0.373765 2.66189 0
M  V30 20650 C 1912.26 2.8184 2.19775 0
M  V30 20651 S 1913.82 3.16149 3.04295 0
M  V30 20652 H 1910.64 0.582242 0.408063 0
M  V30 20653 H 1913.24 1.89114 0.495589 0
M  V30 20654 H 1911.94 3.74347 1.68204 0
M  V30 20655 H 1911.47 2.60141 2.95111 0
M  V30 20656 H 1913.49 2.62102 4.21327 0
M  V30 20657 N 1912.66 -0.698586 1.41271 0
M  V30 20658 C 1913.89 -1.49247 1.44014 0
M  V30 20659 C 1914.31 -1.88043 0.0461888 0
M  V30 20660 O 1913.67 -1.54426 -0.94986 0
M  V30 20661 C 1913.72 -2.73334 2.35204 0
M  V30 20662 O 1912.82 -3.70704 1.807 0
M  V30 20663 H 1912.16 -0.449313 0.488891 0
M  V30 20664 H 1914.69 -0.858936 1.85697 0
M  V30 20665 H 1914.7 -3.21676 2.50975 0
M  V30 20666 H 1913.38 -2.44433 3.3649 0
M  V30 20667 H 1911.95 -3.29624 1.74363 0
M  V30 20668 N 1914.14 -1.27049 -0.93254 0
M  V30 20669 C 1915.05 -1.11156 -2.06595 0
M  V30 20670 C 1916.07 -0.0428245 -1.73947 0
M  V30 20671 O 1917.24 -0.248326 -1.99863 0
M  V30 20672 C 1914.31 -0.755297 -3.38373 0
M  V30 20673 C 1913.37 -1.90439 -3.84749 0
M  V30 20674 C 1912.6 -1.56502 -5.10238 0
M  V30 20675 O 1912.82 -0.470696 -5.68455 0
M  V30 20676 O 1911.76 -2.40262 -5.51868 0
M  V30 20677 H 1915.58 -2.0626 -2.22914 0
M  V30 20678 H 1913.17 -1.06191 -1.05089 0
M  V30 20679 H 1915.05 -0.569728 -4.17531 0
M  V30 20680 H 1913.73 0.166262 -3.23273 0
M  V30 20681 H 1912.63 -2.14498 -3.06499 0
M  V30 20682 H 1913.97 -2.80598 -4.04383 0
M  V30 20683 N 1915.62 1.13835 -1.08993 0
M  V30 20684 C 1916.87 1.84361 -0.818161 0
M  V30 20685 C 1917.18 1.84185 0.658437 0
M  V30 20686 O 1918.39 2.50559 1.04558 0
M  V30 20687 C 1916.84 3.30973 -1.41367 0
M  V30 20688 C 1916.45 3.3955 -2.92249 0
M  V30 20689 C 1918.19 4.06571 -1.22066 0
M  V30 20690 C 1916.1 4.80408 -3.44908 0
M  V30 20691 H 1915.03 0.690704 -0.302397 0
M  V30 20692 H 1917.68 1.28283 -1.31208 0
M  V30 20693 H 1916.06 3.86826 -0.84745 0
M  V30 20694 H 1917.24 2.93716 -3.5506 0
M  V30 20695 H 1915.55 2.77413 -3.10533 0
M  V30 20696 H 1918.15 5.10554 -1.58868 0
M  V30 20697 H 1918.49 4.15989 -0.160946 0
M  V30 20698 H 1919.03 3.57036 -1.75415 0
M  V30 20699 H 1915.76 4.76181 -4.5048 0
M  V30 20700 H 1915.28 5.26756 -2.86859 0
M  V30 20701 H 1916.96 5.49315 -3.4185 0
M  V30 20702 N 1917.1 0.876467 1.3098 0
M  V30 20703 C 1918.04 0.326251 2.30301 0
M  V30 20704 C 1919.04 -0.562168 1.598 0
M  V30 20705 O 1920.24 -0.447547 1.74347 0
M  V30 20706 H 1916.62 0.0868325 0.74697 0
M  V30 20707 H 1918.59 1.17775 2.74175 0
M  V30 20708 C 1917.34 -0.451679 3.44754 0
M  V30 20709 H 1916.66 0.222681 3.99179 0
M  V30 20710 H 1918.1 -0.801899 4.16348 0
M  V30 20711 C 1916.56 -1.64547 2.93983 0
M  V30 20712 O 1917.09 -2.74482 2.93296 0
M  V30 20713 N 1915.3 -1.47978 2.50102 0
M  V30 20714 H 1914.84 -0.585447 2.50859 0
M  V30 20715 H 1914.8 -2.27992 2.16488 0
M  V30 20716 N 1918.57 -1.44173 0.636557 0
M  V30 20717 C 1919.48 -2.34507 -0.0661877 0
M  V30 20718 C 1920.5 -1.52931 -0.829947 0
M  V30 20719 O 1921.68 -1.85641 -0.780979 0
M  V30 20720 C 1918.74 -3.30987 -1.03191 0
M  V30 20721 C 1917.8 -4.28469 -0.266924 0
M  V30 20722 C 1917.03 -5.20341 -1.18664 0
M  V30 20723 O 1917.26 -5.1626 -2.42552 0
M  V30 20724 O 1916.19 -5.98181 -0.668035 0
M  V30 20725 H 1920.02 -2.9606 0.676932 0
M  V30 20726 H 1917.6 -1.44036 0.396744 0
M  V30 20727 H 1919.48 -3.9036 -1.58736 0
M  V30 20728 H 1918.16 -2.7196 -1.75555 0
M  V30 20729 H 1917.07 -3.72627 0.331702 0
M  V30 20730 H 1918.4 -4.90432 0.416803 0
M  V30 20731 N 1920.05 -0.377435 -1.53014 0
M  V30 20732 C 1921.47 -0.0268747 -1.59577 0
M  V30 20733 C 1921.67 1.45688 -1.39202 0
M  V30 20734 O 1920.72 2.21996 -1.20309 0
M  V30 20735 C 1922.04 -0.493431 -2.96624 0
M  V30 20736 C 1923.58 -0.448667 -3.09768 0
M  V30 20737 C 1924.06 -0.891223 -4.49245 0
M  V30 20738 N 1925.55 -0.846756 -4.55395 0
M  V30 20739 C 1926.29 -1.16074 -5.61529 0
M  V30 20740 N 1925.78 -1.5446 -6.75362 0
M  V30 20741 N 1927.57 -1.08276 -5.51573 0
M  V30 20742 H 1919.73 -1.34353 -1.64508 0
M  V30 20743 H 1921.99 -0.549926 -0.772195 0
M  V30 20744 H 1921.69 -1.52927 -3.16712 0
M  V30 20745 H 1921.57 0.113748 -3.77028 0
M  V30 20746 H 1923.96 0.578058 -2.89383 0
M  V30 20747 H 1924.04 -1.0915 -2.31344 0
M  V30 20748 H 1923.68 -1.91612 -4.70369 0
M  V30 20749 H 1923.61 -0.225524 -5.26117 0
M  V30 20750 H 1926.1 -0.564127 -3.73666 0
M  V30 20751 H 1926.41 -1.76813 -7.52301 0
M  V30 20752 H 1924.76 -1.58336 -6.76724 0
M  V30 20753 H 1927.95 -0.781974 -4.61522 0
M  V30 20754 H 1928.12 -1.33078 -6.34188 0
M  V30 20755 N 1921.53 1.57237 -0.106922 0
M  V30 20756 C 1922.78 1.95064 0.554803 0
M  V30 20757 C 1923.11 0.989597 1.67095 0
M  V30 20758 O 1922.38 0.0246857 1.94484 0
M  V30 20759 C 1922.67 3.42924 1.09887 0
M  V30 20760 C 1922.52 4.49798 -0.0130257 0
M  V30 20761 C 1923.84 3.92358 1.99356 0
M  V30 20762 H 1920.96 0.709287 0.200204 0
M  V30 20763 H 1923.6 1.89145 -0.180032 0
M  V30 20764 H 1921.75 3.48098 1.7251 0
M  V30 20765 H 1923.42 4.56729 -0.647804 0
M  V30 20766 H 1921.67 4.28472 -0.677825 0
M  V30 20767 H 1922.34 5.50485 0.40868 0
M  V30 20768 H 1924.81 3.89411 1.46622 0
M  V30 20769 H 1923.69 4.9636 2.34346 0
M  V30 20770 H 1923.95 3.32343 2.91549 0
M  V30 20771 N 1923.01 -0.166818 1.56715 0
M  V30 20772 C 1924.25 -0.884023 1.82518 0
M  V30 20773 C 1924.59 -1.817 0.685477 0
M  V30 20774 O 1923.86 -1.91977 -0.312277 0
M  V30 20775 C 1924.15 -1.67578 3.18731 0
M  V30 20776 C 1924 -0.765627 4.43236 0
M  V30 20777 C 1925.32 -2.64252 3.51936 0
M  V30 20778 H 1922.44 -0.319938 0.663934 0
M  V30 20779 H 1925.08 -0.150034 1.89407 0
M  V30 20780 H 1923.23 -2.30152 3.1299 0
M  V30 20781 H 1924.9 -0.152422 4.61048 0
M  V30 20782 H 1923.14 -0.0739497 4.33737 0
M  V30 20783 H 1923.81 -1.35523 5.35105 0
M  V30 20784 H 1926.29 -2.11804 3.5816 0
M  V30 20785 H 1925.17 -3.16714 4.48312 0
M  V30 20786 H 1925.43 -3.44667 2.7687 0
M  V30 20787 N 1924.49 -1.51463 -0.435524 0
M  V30 20788 C 1925.42 -1.69104 -1.54715 0
M  V30 20789 C 1926.43 -0.571681 -1.52432 0
M  V30 20790 O 1927.62 -0.846054 -1.57176 0
M  V30 20791 C 1924.72 -1.69217 -2.9363 0
M  V30 20792 C 1923.89 -2.97766 -3.20397 0
M  V30 20793 C 1922.95 -2.90043 -4.39046 0
M  V30 20794 O 1921.98 -3.63985 -4.37611 0
M  V30 20795 N 1923.18 -2.06018 -5.42712 0
M  V30 20796 H 1925.95 -2.64998 -1.39985 0
M  V30 20797 H 1923.51 -1.49371 -0.624486 0
M  V30 20798 H 1925.5 -1.61616 -3.71029 0
M  V30 20799 H 1924.07 -0.809085 -3.01948 0
M  V30 20800 H 1923.29 -3.19222 -2.31282 0
M  V30 20801 H 1924.58 -3.82857 -3.35109 0
M  V30 20802 H 1923.97 -1.45324 -5.46715 0
M  V30 20803 H 1922.53 -2.04295 -6.18956 0
M  V30 20804 N 1925.96 0.691085 -1.4164 0
M  V30 20805 C 1926.91 1.79718 -1.40305 0
M  V30 20806 C 1927.9 1.58502 -0.276751 0
M  V30 20807 O 1929.09 1.69258 -0.517761 0
M  V30 20808 C 1926.22 3.18059 -1.29203 0
M  V30 20809 C 1925.31 3.44954 -2.46714 0
M  V30 20810 N 1925.7 3.42522 -3.72172 0
M  V30 20811 C 1923.99 3.75521 -2.40624 0
M  V30 20812 C 1924.7 3.68447 -4.50135 0
M  V30 20813 N 1923.67 3.88412 -3.80312 0
M  V30 20814 H 1927.47 1.76207 -2.3522 0
M  V30 20815 H 1924.99 0.891261 -1.35758 0
M  V30 20816 H 1926.98 3.97299 -1.26329 0
M  V30 20817 H 1925.64 3.22778 -0.352775 0
M  V30 20818 H 1926.66 3.22799 -4.04996 0
M  V30 20819 H 1923.33 3.87584 -1.55193 0
M  V30 20820 H 1924.72 3.72665 -5.5908 0
M  V30 20821 N 1927.44 1.27542 0.925789 0
M  V30 20822 C 1928.69 1.13992 1.67368 0
M  V30 20823 C 1929.02 -0.313872 1.91951 0
M  V30 20824 O 1928.27 -1.24583 1.50923 0
M  V30 20825 C 1928.57 1.87088 3.04521 0
M  V30 20826 C 1928.24 3.36936 2.99641 0
M  V30 20827 C 1926.9 3.77808 2.98018 0
M  V30 20828 C 1929.25 4.32541 2.90789 0
M  V30 20829 C 1926.58 5.12646 2.85327 0
M  V30 20830 C 1928.93 5.67437 2.79639 0
M  V30 20831 C 1927.6 6.076 2.76366 0
M  V30 20832 H 1926.87 0.417126 0.612444 0
M  V30 20833 H 1929.51 1.58173 1.07952 0
M  V30 20834 H 1927.82 1.35421 3.67653 0
M  V30 20835 H 1929.51 1.7403 3.61268 0
M  V30 20836 H 1926.1 3.04433 3.01693 0
M  V30 20837 H 1930.29 4.01935 2.91139 0
M  V30 20838 H 1925.54 5.42906 2.81181 0
M  V30 20839 H 1929.72 6.41188 2.71755 0
M  V30 20840 H 1927.35 7.12035 2.66289 0
M  V30 20841 N 1928.92 -1.13255 1.09595 0
M  V30 20842 C 1930.17 -1.84844 0.83429 0
M  V30 20843 C 1930.5 -1.83403 -0.638518 0
M  V30 20844 O 1929.77 -1.27337 -1.47022 0
M  V30 20845 C 1930.06 -3.32926 1.3723 0
M  V30 20846 C 1929.91 -3.42872 2.91134 0
M  V30 20847 C 1931.23 -4.28413 1.0075 0
M  V30 20848 H 1928.35 -0.671139 0.304534 0
M  V30 20849 H 1930.99 -1.32922 1.35764 0
M  V30 20850 H 1929.14 -3.77275 0.927149 0
M  V30 20851 H 1930.81 -3.07222 3.44111 0
M  V30 20852 H 1929.06 -2.83693 3.28178 0
M  V30 20853 H 1929.73 -4.47013 3.23857 0
M  V30 20854 H 1932.2 -3.92145 1.39146 0
M  V30 20855 H 1931.08 -5.30455 1.41098 0
M  V30 20856 H 1931.34 -4.4202 -0.0841095 0
M  V30 20857 N 1930.4 -0.883401 -1.30514 0
M  V30 20858 C 1931.35 -0.320484 -2.25736 0
M  V30 20859 C 1932.33 0.550165 -1.51202 0
M  V30 20860 O 1933.52 0.394846 -1.7254 0
M  V30 20861 C 1930.65 0.465347 -3.40131 0
M  V30 20862 C 1929.74 -0.419301 -4.22022 0
M  V30 20863 N 1930.13 -1.51903 -4.82451 0
M  V30 20864 C 1928.43 -0.214132 -4.45486 0
M  V30 20865 C 1929.13 -2.06567 -5.43788 0
M  V30 20866 N 1928.11 -1.36084 -5.26291 0
M  V30 20867 H 1931.91 -1.1608 -2.70005 0
M  V30 20868 H 1929.42 -0.732634 -1.44935 0
M  V30 20869 H 1931.42 0.885249 -4.07393 0
M  V30 20870 H 1930.08 1.30312 -2.97403 0
M  V30 20871 H 1931.09 -1.90189 -4.81714 0
M  V30 20872 H 1927.77 0.586602 -4.13358 0
M  V30 20873 H 1929.16 -2.98909 -6.0175 0
M  V30 20874 N 1931.88 1.43833 -0.644194 0
M  V30 20875 C 1933.12 2.03793 -0.157409 0
M  V30 20876 C 1933.48 1.49666 1.20267 0
M  V30 20877 O 1934.68 2.01212 1.78233 0
M  V30 20878 C 1932.95 3.57053 -0.157514 0
M  V30 20879 S 1934.51 4.38013 0.262743 0
M  V30 20880 H 1931.33 0.707788 -0.0675047 0
M  V30 20881 H 1933.93 1.7603 -0.85051 0
M  V30 20882 H 1932.64 3.9395 -1.15027 0
M  V30 20883 H 1932.17 3.89445 0.556416 0
M  V30 20884 H 1934.18 4.72863 1.50384 0
M  V30 20885 N 1933.35 0.385544 1.52811 0
M  V30 20886 C 1934.6 -0.19907 2.00715 0
M  V30 20887 C 1934.92 -1.48216 1.27638 0
M  V30 20888 O 1936.12 -2.14659 1.66234 0
M  V30 20889 C 1934.58 -0.405311 3.5761 0
M  V30 20890 C 1934.19 0.864306 4.39584 0
M  V30 20891 C 1935.93 -0.946495 4.13814 0
M  V30 20892 C 1933.84 0.626551 5.88072 0
M  V30 20893 H 1932.77 -0.0781676 0.749937 0
M  V30 20894 H 1935.42 0.507365 1.76346 0
M  V30 20895 H 1933.8 -1.1735 3.78213 0
M  V30 20896 H 1934.97 1.63683 4.30749 0
M  V30 20897 H 1933.29 1.33017 3.94583 0
M  V30 20898 H 1935.89 -1.14002 5.22406 0
M  V30 20899 H 1936.23 -1.91447 3.69667 0
M  V30 20900 H 1936.76 -0.23797 3.97088 0
M  V30 20901 H 1933.5 1.56542 6.36534 0
M  V30 20902 H 1933.02 -0.107102 5.99704 0
M  V30 20903 H 1934.7 0.259654 6.46479 0
M  V30 20904 N 1934.83 -1.57178 0.115259 0
M  V30 20905 C 1935.74 -2.18656 -0.850101 0
M  V30 20906 C 1936.76 -1.16164 -1.29545 0
M  V30 20907 O 1937.93 -1.48619 -1.35921 0
M  V30 20908 C 1935 -2.77089 -2.0838 0
M  V30 20909 C 1934.06 -3.94604 -1.69074 0
M  V30 20910 C 1933.29 -4.50242 -2.86563 0
M  V30 20911 O 1933.52 -4.04782 -4.0188 0
M  V30 20912 O 1932.45 -5.4098 -2.63864 0
M  V30 20913 H 1936.28 -3.01595 -0.356934 0
M  V30 20914 H 1933.86 -1.48993 -0.110158 0
M  V30 20915 H 1935.74 -3.14353 -2.80642 0
M  V30 20916 H 1934.42 -1.97184 -2.56711 0
M  V30 20917 H 1933.33 -3.62116 -0.939308 0
M  V30 20918 H 1934.66 -4.75934 -1.25489 0
M  V30 20919 N 1936.31 0.158505 -1.56801 0
M  V30 20920 C 1937.54 0.888272 -1.86862 0
M  V30 20921 C 1937.95 1.75258 -0.702142 0
M  V30 20922 O 1937.31 1.7952 0.328431 0
M  V30 20923 C 1937.36 1.75448 -3.1607 0
M  V30 20924 O 1937.08 0.925019 -4.28223 0
M  V30 20925 C 1938.58 2.59282 -3.59566 0
M  V30 20926 H 1935.8 0.257429 -0.619654 0
M  V30 20927 H 1938.35 0.154749 -2.03914 0
M  V30 20928 H 1936.5 2.4412 -3.00806 0
M  V30 20929 H 1936.92 1.51863 -5.02034 0
M  V30 20930 H 1938.39 3.15655 -4.52842 0
M  V30 20931 H 1938.87 3.3477 -2.84299 0
M  V30 20932 H 1939.47 1.95921 -3.77485 0
M  V30 20933 N 1937.79 1.51692 0.427485 0
M  V30 20934 C 1938.74 1.70099 1.51823 0
M  V30 20935 C 1939.72 0.554908 1.51028 0
M  V30 20936 O 1940.92 0.811233 1.57315 0
M  V30 20937 C 1938.04 1.8384 2.89927 0
M  V30 20938 C 1937.13 3.04263 2.9544 0
M  V30 20939 N 1937.52 4.27277 2.7068 0
M  V30 20940 C 1935.82 3.0372 3.26604 0
M  V30 20941 C 1936.52 5.08613 2.8229 0
M  V30 20942 N 1935.5 4.43468 3.14384 0
M  V30 20943 H 1939.3 2.62867 1.31447 0
M  V30 20944 H 1936.81 1.49473 0.63494 0
M  V30 20945 H 1938.81 1.95139 3.6841 0
M  V30 20946 H 1937.47 0.922599 3.11317 0
M  V30 20947 H 1938.48 4.56058 2.45421 0
M  V30 20948 H 1935.16 2.21808 3.53705 0
M  V30 20949 H 1936.55 6.16564 2.67017 0
M  V30 20950 N 1939.27 -0.683564 1.42004 0
M  V30 20951 C 1940.52 -1.44078 1.41725 0
M  V30 20952 C 1940.84 -1.94975 0.0315193 0
M  V30 20953 O 1940.11 -1.72494 -0.928579 0
M  V30 20954 H 1938.69 -0.534631 0.521707 0
M  V30 20955 H 1941.35 -0.808284 1.77349 0
M  V30 20956 H 1940.44 -2.29809 2.11174 0
M  V30 20957 N 1940.75 -1.28031 -0.919012 0
M  V30 20958 C 1942.16 -1.05624 -1.19649 0
M  V30 20959 C 1942.36 0.204731 -2.00457 0
M  V30 20960 O 1941.42 0.907849 -2.35615 0
M  V30 20961 C 1942.73 -2.3007 -1.93619 0
M  V30 20962 C 1944.28 -2.35196 -2.06523 0
M  V30 20963 C 1944.75 -3.59395 -2.839 0
M  V30 20964 N 1946.24 -3.60004 -2.91464 0
M  V30 20965 C 1946.98 -4.52779 -3.51822 0
M  V30 20966 N 1946.48 -5.55868 -4.13501 0
M  V30 20967 N 1948.27 -4.40385 -3.4931 0
M  V30 20968 H 1940.42 -2.08985 -0.379372 0
M  V30 20969 H 1942.68 -0.919558 -0.230473 0
M  V30 20970 H 1942.39 -3.21907 -1.41665 0
M  V30 20971 H 1942.26 -2.36071 -2.94195 0
M  V30 20972 H 1944.65 -1.4386 -2.57659 0
M  V30 20973 H 1944.73 -2.33194 -1.0514 0
M  V30 20974 H 1944.37 -4.51072 -2.33445 0
M  V30 20975 H 1944.3 -3.58651 -3.85587 0
M  V30 20976 H 1946.8 -2.85455 -2.47637 0
M  V30 20977 H 1947.11 -6.22812 -4.57521 0
M  V30 20978 H 1945.45 -5.597 -4.12021 0
M  V30 20979 H 1948.64 -3.59053 -3.0033 0
M  V30 20980 H 1948.82 -5.12877 -3.96057 0
M  V30 20981 N 1942.22 1.12672 -1.10194 0
M  V30 20982 C 1943.17 2.20403 -0.743323 0
M  V30 20983 C 1944.17 1.67402 0.259382 0
M  V30 20984 O 1945.37 1.79599 0.120012 0
M  V30 20985 H 1941.75 0.718351 -0.22243 0
M  V30 20986 H 1943.72 2.47907 -1.66087 0
M  V30 20987 C 1942.47 3.47188 -0.188629 0
M  V30 20988 H 1941.79 3.88315 -0.951411 0
M  V30 20989 H 1943.23 4.23993 0.0242649 0
M  V30 20990 C 1941.69 3.19186 1.07806 0
M  V30 20991 O 1942.22 3.38684 2.16 0
M  V30 20992 N 1940.42 2.73009 0.995705 0
M  V30 20993 H 1939.97 2.57342 0.115168 0
M  V30 20994 H 1939.93 2.54649 1.84394 0
M  V30 20995 N 1943.7 0.89031 1.30043 0
M  V30 20996 C 1944.95 0.512208 1.96225 0
M  V30 20997 C 1945.28 -0.937287 1.70084 0
M  V30 20998 O 1944.56 -1.66309 1.00854 0
M  V30 20999 C 1944.84 0.794043 3.51236 0
M  V30 21000 C 1944.69 2.29456 3.86872 0
M  V30 21001 C 1946.01 0.274152 4.39245 0
M  V30 21002 H 1943.13 0.187568 0.712732 0
M  V30 21003 H 1945.77 1.11528 1.53823 0
M  V30 21004 H 1943.92 0.28077 3.87484 0
M  V30 21005 H 1945.59 2.87665 3.6062 0
M  V30 21006 H 1943.84 2.75907 3.34751 0
M  V30 21007 H 1944.51 2.44235 4.95029 0
M  V30 21008 H 1946.98 0.713535 4.09936 0
M  V30 21009 H 1945.86 0.500633 5.46612 0
M  V30 21010 H 1946.12 -0.824812 4.34338 0
M  V30 21011 N 1945.18 -1.43489 0.651812 0
M  V30 21012 C 1946.11 -2.29063 -0.0793108 0
M  V30 21013 C 1947.12 -1.4243 -0.788508 0
M  V30 21014 O 1948.31 -1.66381 -0.646499 0
M  V30 21015 C 1945.41 -3.19317 -1.13533 0
M  V30 21016 C 1944.59 -4.3448 -0.504553 0
M  V30 21017 C 1943.65 -5.05619 -1.45727 0
M  V30 21018 O 1942.67 -5.60936 -0.966409 0
M  V30 21019 N 1943.87 -5.08988 -2.79126 0
M  V30 21020 H 1946.64 -2.92451 0.655174 0
M  V30 21021 H 1944.2 -1.54164 0.494491 0
M  V30 21022 H 1946.19 -3.63773 -1.77345 0
M  V30 21023 H 1944.76 -2.57538 -1.7718 0
M  V30 21024 H 1943.98 -3.92958 0.312626 0
M  V30 21025 H 1945.27 -5.0876 -0.0641591 0
M  V30 21026 H 1944.67 -4.65415 -3.21567 0
M  V30 21027 H 1943.22 -5.57166 -3.38245 0
M  V30 21028 N 1946.66 -0.393643 -1.52605 0
M  V30 21029 C 1947.89 0.186829 -2.05754 0
M  V30 21030 C 1948.3 1.40704 -1.26488 0
M  V30 21031 O 1947.64 1.81137 -0.305794 0
M  V30 21032 C 1947.7 0.617257 -3.54161 0
M  V30 21033 C 1947.36 -0.490084 -4.54365 0
M  V30 21034 C 1948.36 -1.34885 -5.02098 0
M  V30 21035 C 1946.05 -0.658354 -4.97967 0
M  V30 21036 C 1948.04 -2.36097 -5.92062 0
M  V30 21037 C 1945.73 -1.6738 -5.8773 0
M  V30 21038 C 1946.73 -2.52353 -6.34671 0
M  V30 21039 O 1946.41 -3.52161 -7.2266 0
M  V30 21040 H 1946.15 0.0307838 -0.675299 0
M  V30 21041 H 1948.7 -0.558639 -1.97657 0
M  V30 21042 H 1946.93 1.41477 -3.5989 0
M  V30 21043 H 1948.62 1.12389 -3.9003 0
M  V30 21044 H 1949.38 -1.23018 -4.69139 0
M  V30 21045 H 1945.26 -0.00666652 -4.61 0
M  V30 21046 H 1948.81 -3.02456 -6.28623 0
M  V30 21047 H 1944.7 -1.79284 -6.20103 0
M  V30 21048 H 1945.47 -3.48221 -7.40732 0
M  V30 21049 N 1948.14 1.57115 -0.123593 0
M  V30 21050 C 1949.38 1.94527 0.533131 0
M  V30 21051 C 1949.7 1.0095 1.67536 0
M  V30 21052 O 1950.9 1.27846 2.39515 0
M  V30 21053 C 1949.36 3.45735 0.999783 0
M  V30 21054 C 1948.97 4.47854 -0.114238 0
M  V30 21055 C 1950.71 3.92057 1.62762 0
M  V30 21056 C 1948.62 5.90245 0.36937 0
M  V30 21057 H 1947.55 0.726179 0.20293 0
M  V30 21058 H 1950.2 1.8236 -0.204183 0
M  V30 21059 H 1948.58 3.53151 1.79166 0
M  V30 21060 H 1949.76 4.52111 -0.890627 0
M  V30 21061 H 1948.07 4.11311 -0.649019 0
M  V30 21062 H 1950.67 4.9586 2.00067 0
M  V30 21063 H 1951.01 3.3229 2.50777 0
M  V30 21064 H 1951.54 3.8746 0.901074 0
M  V30 21065 H 1948.28 6.53778 -0.474837 0
M  V30 21066 H 1947.8 5.89399 1.11214 0
M  V30 21067 H 1949.48 6.41666 0.829093 0
M  V30 21068 N 1949.61 -0.150187 1.56883 0
M  V30 21069 C 1950.56 -1.18552 1.98025 0
M  V30 21070 C 1951.53 -1.42861 0.847353 0
M  V30 21071 O 1952.72 -1.55249 1.10917 0
M  V30 21072 C 1949.86 -2.51479 2.36331 0
M  V30 21073 C 1948.97 -2.34371 3.62897 0
M  V30 21074 C 1948.1 -3.60311 3.9032 0
M  V30 21075 C 1947.14 -3.38226 5.10166 0
M  V30 21076 N 1946.28 -4.56289 5.33615 0
M  V30 21077 H 1951.12 -0.827667 2.86276 0
M  V30 21078 H 1948.66 -0.397238 1.41635 0
M  V30 21079 H 1950.61 -3.28981 2.56568 0
M  V30 21080 H 1949.24 -2.85218 1.51164 0
M  V30 21081 H 1948.3 -1.47939 3.50454 0
M  V30 21082 H 1949.61 -2.1401 4.50556 0
M  V30 21083 H 1948.76 -4.46243 4.11038 0
M  V30 21084 H 1947.5 -3.83672 3.01076 0
M  V30 21085 H 1946.51 -2.50682 4.89324 0
M  V30 21086 H 1947.73 -3.16266 6.0096 0
M  V30 21087 H 1945.68 -4.79829 4.47325 0
M  V30 21088 H 1945.59 -4.38919 6.15537 0
M  V30 21089 H 1946.86 -5.43443 5.58829 0
M  V30 21090 N 1951.09 -1.51916 -0.419434 0
M  V30 21091 C 1952.34 -1.65468 -1.16732 0
M  V30 21092 C 1952.67 -0.379569 -1.9076 0
M  V30 21093 O 1951.92 0.637093 -1.8504 0
M  V30 21094 C 1952.22 -2.82039 -2.19519 0
M  V30 21095 C 1951.89 -4.20649 -1.62373 0
M  V30 21096 C 1950.55 -4.58353 -1.46512 0
M  V30 21097 C 1952.9 -5.0707 -1.20539 0
M  V30 21098 C 1950.23 -5.80166 -0.873185 0
M  V30 21099 C 1952.58 -6.29478 -0.627675 0
M  V30 21100 C 1951.25 -6.6594 -0.456114 0
M  V30 21101 H 1950.52 -0.605492 -0.427154 0
M  V30 21102 H 1953.16 -1.85994 -0.455916 0
M  V30 21103 H 1951.47 -2.55808 -2.96765 0
M  V30 21104 H 1953.16 -2.89722 -2.7724 0
M  V30 21105 H 1949.75 -3.90932 -1.75699 0
M  V30 21106 H 1953.94 -4.78533 -1.31606 0
M  V30 21107 H 1949.19 -6.07048 -0.728187 0
M  V30 21108 H 1953.37 -6.95775 -0.29508 0
M  V30 21109 H 1951 -7.602 0.00467585 0
M  V30 21110 N 1952.57 0.676023 -1.42365 0
M  V30 21111 C 1953.5 1.80165 -1.48536 0
M  V30 21112 C 1954.48 1.66625 -0.342049 0
M  V30 21113 O 1955.67 1.86065 -0.55619 0
M  V30 21114 C 1952.8 3.18451 -1.38586 0
M  V30 21115 C 1951.75 3.46724 -2.50931 0
M  V30 21116 C 1951.08 4.84572 -2.2604 0
M  V30 21117 C 1952.38 3.4374 -3.93243 0
M  V30 21118 H 1954.07 1.75258 -2.42745 0
M  V30 21119 H 1951.62 0.841756 -1.16835 0
M  V30 21120 H 1953.57 3.96929 -1.41511 0
M  V30 21121 H 1952.29 3.24033 -0.408703 0
M  V30 21122 H 1950.95 2.70607 -2.47321 0
M  V30 21123 H 1950.6 4.86802 -1.2662 0
M  V30 21124 H 1950.3 5.04452 -3.01334 0
M  V30 21125 H 1951.82 5.65336 -2.30712 0
M  V30 21126 H 1953.24 4.12189 -3.98463 0
M  V30 21127 H 1951.64 3.75155 -4.68379 0
M  V30 21128 H 1952.71 2.42337 -4.20001 0
M  V30 21129 N 1954.05 1.28517 0.912209 0
M  V30 21130 C 1954.98 1.08378 2.01958 0
M  V30 21131 C 1955.99 0.0350385 1.62762 0
M  V30 21132 O 1957.18 0.278256 1.76318 0
M  V30 21133 C 1954.28 0.62514 3.33084 0
M  V30 21134 C 1953.46 1.74963 4.00882 0
M  V30 21135 C 1952.51 1.28411 5.10291 0
M  V30 21136 O 1951.54 1.98662 5.33406 0
M  V30 21137 N 1952.74 0.148151 5.80311 0
M  V30 21138 H 1955.51 2.03744 2.19792 0
M  V30 21139 H 1953.07 1.2029 1.0836 0
M  V30 21140 H 1955.06 0.297284 4.03607 0
M  V30 21141 H 1953.63 -0.235714 3.1171 0
M  V30 21142 H 1952.85 2.247 3.23888 0
M  V30 21143 H 1954.14 2.50391 4.42924 0
M  V30 21144 H 1953.54 -0.437843 5.64003 0
M  V30 21145 H 1952.09 -0.120419 6.51689 0
M  V30 21146 N 1955.53 -1.12086 1.1079 0
M  V30 21147 C 1956.75 -1.87493 0.874862 0
M  V30 21148 C 1957.17 -1.79834 -0.574907 0
M  V30 21149 O 1956.53 -1.17483 -1.39657 0
M  V30 21150 C 1956.58 -3.36566 1.3193 0
M  V30 21151 O 1956.3 -3.4405 2.71222 0
M  V30 21152 C 1957.8 -4.289 1.12069 0
M  V30 21153 H 1955.02 -0.593122 0.313764 0
M  V30 21154 H 1957.56 -1.41803 1.4735 0
M  V30 21155 H 1955.72 -3.79787 0.764254 0
M  V30 21156 H 1956.13 -4.36824 2.90319 0
M  V30 21157 H 1957.61 -5.31768 1.48076 0
M  V30 21158 H 1958.08 -4.3916 0.0596432 0
M  V30 21159 H 1958.69 -3.91465 1.66238 0
M  V30 21160 N 1957 -0.897194 -1.29569 0
M  V30 21161 C 1958.25 -0.517823 -1.9494 0
M  V30 21162 C 1958.57 0.940096 -1.71527 0
M  V30 21163 O 1959.77 1.42687 -2.30982 0
M  V30 21164 C 1958.23 -0.875183 -3.49097 0
M  V30 21165 C 1957.84 -2.3517 -3.81312 0
M  V30 21166 C 1959.58 -0.565601 -4.20715 0
M  V30 21167 C 1957.49 -2.65005 -5.28702 0
M  V30 21168 H 1956.42 -0.189928 -0.729687 0
M  V30 21169 H 1959.07 -1.09385 -1.47334 0
M  V30 21170 H 1957.45 -0.228115 -3.95342 0
M  V30 21171 H 1958.62 -3.04411 -3.45934 0
M  V30 21172 H 1956.94 -2.63005 -3.22827 0
M  V30 21173 H 1959.54 -0.765387 -5.29194 0
M  V30 21174 H 1959.88 0.49573 -4.13338 0
M  V30 21175 H 1960.41 -1.1704 -3.80193 0
M  V30 21176 H 1957.15 -3.69927 -5.41142 0
M  V30 21177 H 1956.67 -2.00386 -5.65337 0
M  V30 21178 H 1958.35 -2.51141 -5.96269 0
M  V30 21179 N 1958.48 1.43142 -0.659413 0
M  V30 21180 C 1959.73 2.02038 -0.175593 0
M  V30 21181 C 1960.06 1.5194 1.20946 0
M  V30 21182 O 1959.34 0.715095 1.80877 0
M  V30 21183 C 1959.62 3.59581 -0.193256 0
M  V30 21184 C 1959.47 4.19896 -1.61267 0
M  V30 21185 C 1960.79 4.37616 0.466976 0
M  V30 21186 H 1957.91 0.734103 -0.0652811 0
M  V30 21187 H 1960.55 1.7036 -0.841276 0
M  V30 21188 H 1958.7 3.867 0.373574 0
M  V30 21189 H 1960.37 4.03786 -2.23056 0
M  V30 21190 H 1958.62 3.7631 -2.15807 0
M  V30 21191 H 1959.29 5.28999 -1.57683 0
M  V30 21192 H 1961.76 4.16097 -0.0153667 0
M  V30 21193 H 1960.64 5.47261 0.423915 0
M  V30 21194 H 1960.9 4.14332 1.54211 0
M  V30 21195 N 1959.96 0.40173 1.52394 0
M  V30 21196 C 1960.91 -0.427385 2.26808 0
M  V30 21197 C 1961.88 -1.04733 1.28919 0
M  V30 21198 O 1963.06 -1.073 1.5777 0
M  V30 21199 C 1960.2 -1.54211 3.08728 0
M  V30 21200 C 1959.32 -0.943809 4.21564 0
M  V30 21201 C 1958.45 -2.03061 4.90856 0
M  V30 21202 C 1957.49 -1.40886 5.95666 0
M  V30 21203 N 1956.63 -2.4355 6.58504 0
M  V30 21204 H 1961.47 0.21363 2.97233 0
M  V30 21205 H 1959 0.117187 1.46632 0
M  V30 21206 H 1960.96 -2.1993 3.54523 0
M  V30 21207 H 1959.59 -2.15326 2.40488 0
M  V30 21208 H 1958.64 -0.175875 3.79993 0
M  V30 21209 H 1959.96 -0.449559 4.9677 0
M  V30 21210 H 1959.11 -2.76523 5.40018 0
M  V30 21211 H 1957.85 -2.5585 4.15201 0
M  V30 21212 H 1956.85 -0.659546 5.4583 0
M  V30 21213 H 1958.08 -0.888766 6.73259 0
M  V30 21214 H 1956.02 -2.95484 5.85683 0
M  V30 21215 H 1955.94 -1.98916 7.29362 0
M  V30 21216 H 1957.21 -3.16604 7.12308 0
M  V30 21217 N 1961.44 -1.57047 0.131923 0
M  V30 21218 C 1962.4 -2.14813 -0.799243 0
M  V30 21219 C 1963.4 -1.08616 -1.18572 0
M  V30 21220 O 1964.59 -1.3433 -1.10911 0
M  V30 21221 C 1961.72 -2.69894 -2.08255 0
M  V30 21222 H 1962.92 -2.98426 -0.296996 0
M  V30 21223 H 1960.47 -1.55858 -0.117418 0
M  V30 21224 H 1961.2 -1.89905 -2.62881 0
M  V30 21225 H 1960.99 -3.47574 -1.81479 0
M  V30 21226 H 1962.48 -3.14451 -2.74792 0
M  V30 21227 N 1962.92 0.141865 -1.5696 0
M  V30 21228 C 1963.83 1.19435 -2.01922 0
M  V30 21229 C 1964.84 1.4671 -0.935527 0
M  V30 21230 O 1966.02 1.58279 -1.24538 0
M  V30 21231 C 1963.08 2.50665 -2.39516 0
M  V30 21232 C 1962.14 2.30991 -3.61859 0
M  V30 21233 C 1961.38 3.55963 -3.9765 0
M  V30 21234 O 1961.6 4.62354 -3.34044 0
M  V30 21235 O 1960.53 3.48322 -4.90872 0
M  V30 21236 H 1964.36 0.842613 -2.91777 0
M  V30 21237 H 1961.95 0.350973 -1.45219 0
M  V30 21238 H 1963.83 3.28024 -2.64534 0
M  V30 21239 H 1962.5 2.85358 -1.52815 0
M  V30 21240 H 1961.41 1.51565 -3.42022 0
M  V30 21241 H 1962.74 2.01211 -4.49194 0
M  V30 21242 N 1964.39 1.52136 0.411372 0
M  V30 21243 C 1965.64 1.65757 1.15624 0
M  V30 21244 C 1965.96 0.388771 1.91085 0
M  V30 21245 O 1965.23 -0.596276 1.86605 0
M  V30 21246 H 1963.81 0.610955 0.429817 0
M  V30 21247 H 1966.48 1.8917 0.469114 0
M  V30 21248 H 1965.57 2.49759 1.87155 0
M  V30 21249 N 1965.87 -0.668464 1.42721 0
M  V30 21250 C 1966.82 -1.78184 1.46694 0
M  V30 21251 C 1967.79 -1.63023 0.318213 0
M  V30 21252 O 1968.98 -1.83486 0.523198 0
M  V30 21253 C 1966.12 -3.16254 1.3812 0
M  V30 21254 C 1965.23 -3.42657 2.63078 0
M  V30 21255 C 1964.36 -4.7049 2.46602 0
M  V30 21256 C 1963.4 -4.89948 3.66902 0
M  V30 21257 N 1962.54 -6.09027 3.49329 0
M  V30 21258 H 1967.38 -1.74123 2.41837 0
M  V30 21259 H 1964.92 -0.849937 1.2006 0
M  V30 21260 H 1966.87 -3.96051 1.31146 0
M  V30 21261 H 1965.5 -3.19423 0.46569 0
M  V30 21262 H 1964.56 -2.57068 2.80393 0
M  V30 21263 H 1965.87 -3.52926 3.52484 0
M  V30 21264 H 1965.02 -5.58388 2.37249 0
M  V30 21265 H 1963.76 -4.62515 1.54696 0
M  V30 21266 H 1962.77 -4.0049 3.7668 0
M  V30 21267 H 1963.99 -4.99764 4.59797 0
M  V30 21268 H 1961.94 -6.02213 2.60146 0
M  V30 21269 H 1961.85 -6.20186 4.32326 0
M  V30 21270 H 1963.12 -6.99587 3.438 0
M  V30 21271 N 1967.35 -1.28999 -0.905381 0
M  V30 21272 C 1968.6 -1.1664 -1.65534 0
M  V30 21273 C 1968.93 0.283294 -1.92426 0
M  V30 21274 O 1968.18 1.22166 -1.52885 0
M  V30 21275 C 1968.48 -1.91909 -3.01506 0
M  V30 21276 C 1968.15 -3.4166 -2.94243 0
M  V30 21277 C 1966.81 -3.82501 -2.91969 0
M  V30 21278 C 1969.16 -4.37112 -2.8387 0
M  V30 21279 C 1966.49 -5.1712 -2.77135 0
M  V30 21280 C 1968.84 -5.71814 -2.70576 0
M  V30 21281 C 1967.5 -6.1192 -2.66665 0
M  V30 21282 H 1966.77 -0.426816 -0.60573 0
M  V30 21283 H 1969.42 -1.5987 -1.05422 0
M  V30 21284 H 1967.73 -1.41252 -3.65452 0
M  V30 21285 H 1969.42 -1.79756 -3.58453 0
M  V30 21286 H 1966.01 -3.09194 -2.96812 0
M  V30 21287 H 1970.2 -4.06516 -2.84708 0
M  V30 21288 H 1965.45 -5.47311 -2.72508 0
M  V30 21289 H 1969.63 -6.45431 -2.61519 0
M  V30 21290 H 1967.25 -7.16182 -2.54928 0
M  V30 21291 N 1968.83 1.11497 -1.11383 0
M  V30 21292 C 1970.08 1.82584 -0.857082 0
M  V30 21293 C 1970.39 1.8554 0.61922 0
M  V30 21294 O 1971.6 2.52721 0.992197 0
M  V30 21295 C 1970.05 3.279 -1.48356 0
M  V30 21296 C 1969.66 3.33275 -2.99386 0
M  V30 21297 C 1971.41 4.0389 -1.30663 0
M  V30 21298 C 1969.31 4.72984 -3.55021 0
M  V30 21299 H 1968.24 0.684134 -0.31698 0
M  V30 21300 H 1970.89 1.25471 -1.339 0
M  V30 21301 H 1969.28 3.84941 -0.929311 0
M  V30 21302 H 1970.45 2.86119 -3.6121 0
M  V30 21303 H 1968.76 2.70764 -3.16348 0
M  V30 21304 H 1971.36 5.07069 -1.69662 0
M  V30 21305 H 1971.7 4.15554 -0.249147 0
M  V30 21306 H 1972.24 3.53235 -1.82949 0
M  V30 21307 H 1968.98 4.66518 -4.60479 0
M  V30 21308 H 1968.5 5.20553 -2.97968 0
M  V30 21309 H 1970.18 5.41941 -3.53425 0
M  V30 21310 N 1970.31 0.904053 1.29092 0
M  V30 21311 C 1971.25 0.38351 2.27591 0
M  V30 21312 C 1972.22 -0.536758 1.57188 0
M  V30 21313 O 1973.41 -0.461057 1.85146 0
M  V30 21314 C 1970.55 -0.379051 3.43012 0
M  V30 21315 C 1969.66 0.572611 4.28188 0
M  V30 21316 C 1968.8 -0.207434 5.30795 0
M  V30 21317 C 1967.84 0.73847 6.07629 0
M  V30 21318 N 1966.97 -0.00744238 7.021 0
M  V30 21319 H 1971.81 1.22855 2.71497 0
M  V30 21320 H 1969.35 0.617145 1.33528 0
M  V30 21321 H 1971.31 -0.83727 4.08712 0
M  V30 21322 H 1969.94 -1.18851 3.00124 0
M  V30 21323 H 1968.99 1.14935 3.62621 0
M  V30 21324 H 1970.3 1.29648 4.81656 0
M  V30 21325 H 1969.46 -0.726655 6.02333 0
M  V30 21326 H 1968.2 -0.964417 4.78069 0
M  V30 21327 H 1967.2 1.26915 5.34951 0
M  V30 21328 H 1968.43 1.49485 6.62443 0
M  V30 21329 H 1966.37 -0.746612 6.51737 0
M  V30 21330 H 1966.29 0.656439 7.53145 0
M  V30 21331 H 1967.56 -0.506785 7.77851 0
M  V30 21332 N 1971.79 -1.4279 0.666995 0
M  V30 21333 C 1972.73 -2.30794 -0.0161644 0
M  V30 21334 C 1973.7 -1.45527 -0.800701 0
M  V30 21335 O 1974.89 -1.74372 -0.774527 0
M  V30 21336 C 1972.03 -3.31276 -0.966974 0
M  V30 21337 C 1971.14 -4.31637 -0.177086 0
M  V30 21338 C 1970.28 -5.19195 -1.12294 0
M  V30 21339 C 1969.31 -6.1124 -0.324284 0
M  V30 21340 N 1968.45 -6.91376 -1.22244 0
M  V30 21341 H 1973.29 -2.88662 0.74014 0
M  V30 21342 H 1970.83 -1.42194 0.376738 0
M  V30 21343 H 1972.79 -3.88054 -1.53198 0
M  V30 21344 H 1971.42 -2.75025 -1.69 0
M  V30 21345 H 1970.47 -3.77041 0.504428 0
M  V30 21346 H 1971.78 -4.96826 0.443328 0
M  V30 21347 H 1970.93 -5.80667 -1.75813 0
M  V30 21348 H 1969.67 -4.54164 -1.77725 0
M  V30 21349 H 1968.68 -5.48843 0.324174 0
M  V30 21350 H 1969.9 -6.78318 0.325818 0
M  V30 21351 H 1967.85 -6.28981 -1.86329 0
M  V30 21352 H 1967.77 -7.5314 -0.656918 0
M  V30 21353 H 1969.03 -7.57342 -1.84535 0
M  V30 21354 N 1973.26 -0.409806 -1.52179 0
M  V30 21355 C 1974.5 0.165276 -2.03731 0
M  V30 21356 C 1974.87 1.42322 -1.28874 0
M  V30 21357 O 1976.07 2.07678 -1.70655 0
M  V30 21358 C 1974.34 0.406367 -3.55082 0
M  V30 21359 S 1975.9 0.9488 -4.28419 0
M  V30 21360 H 1972.72 0.044726 -0.709592 0
M  V30 21361 H 1975.32 -0.562881 -1.87222 0
M  V30 21362 H 1974.02 -0.515951 -4.07144 0
M  V30 21363 H 1973.55 1.16238 -3.75835 0
M  V30 21364 H 1975.57 2.22927 -4.43303 0
M  V30 21365 N 1974.74 1.56975 -0.14025 0
M  V30 21366 C 1975.67 2.13532 0.832862 0
M  V30 21367 C 1976.69 1.08312 1.21542 0
M  V30 21368 O 1977.88 1.35613 1.16067 0
M  V30 21369 C 1974.98 2.63756 2.12806 0
M  V30 21370 C 1974.15 3.93304 1.91392 0
M  V30 21371 C 1973.21 4.28907 3.04837 0
M  V30 21372 O 1972.23 4.97351 2.76822 0
M  V30 21373 N 1973.44 3.87941 4.31835 0
M  V30 21374 H 1976.2 2.97655 0.349525 0
M  V30 21375 H 1973.76 1.61841 0.0435313 0
M  V30 21376 H 1975.75 2.8459 2.87734 0
M  V30 21377 H 1974.32 1.84395 2.52423 0
M  V30 21378 H 1973.54 3.81164 1.00538 0
M  V30 21379 H 1974.83 4.77972 1.74414 0
M  V30 21380 H 1974.23 3.32779 4.57466 0
M  V30 21381 H 1972.79 4.13841 5.03566 0
M  V30 21382 N 1976.22 -0.133539 1.57033 0
M  V30 21383 C 1977.5 -0.873327 1.75021 0
M  V30 21384 C 1977.88 -1.98735 0.71187 0
M  V30 21385 O 1977.22 -2.26937 -0.266823 0
M  V30 21386 C 1977.43 -1.40341 3.19539 0
M  V30 21387 C 1978.78 -1.86151 3.81619 0
M  V30 21388 O 1979.81 -1.50053 3.23052 0
M  V30 21389 O 1978.67 -2.52767 4.84532 0
M  V30 21390 H 1975.76 -0.413669 0.716105 0
M  V30 21391 H 1978.31 -0.118413 1.69286 0
M  V30 21392 H 1977.08 -0.60345 3.86619 0
M  V30 21393 H 1976.7 -2.22145 3.29754 0
M  V30 21394 N 1977.7 -1.52352 -0.403298 0
M  V30 21395 C 1978.63 -1.70841 -1.5129 0
M  V30 21396 C 1979.61 -0.556052 -1.52797 0
M  V30 21397 O 1980.79 -0.784118 -1.71417 0
M  V30 21398 C 1977.92 -1.75304 -2.89804 0
M  V30 21399 C 1976.97 -2.96907 -3.06184 0
M  V30 21400 S 1977.8 -4.57148 -2.78884 0
M  V30 21401 C 1978.95 -4.64405 -4.19618 0
M  V30 21402 H 1979.19 -2.64688 -1.35379 0
M  V30 21403 H 1976.72 -1.42464 -0.595253 0
M  V30 21404 H 1978.68 -1.7856 -3.6963 0
M  V30 21405 H 1977.34 -0.825742 -3.03052 0
M  V30 21406 H 1976.53 -2.96529 -4.07537 0
M  V30 21407 H 1976.13 -2.91568 -2.3423 0
M  V30 21408 H 1978.43 -4.4214 -5.1334 0
M  V30 21409 H 1979.37 -5.66362 -4.25017 0
M  V30 21410 H 1979.78 -3.93381 -4.0486 0
M  V30 21411 N 1979.18 0.660885 -1.43074 0
M  V30 21412 C 1980.42 1.42296 -1.44498 0
M  V30 21413 C 1980.75 1.94087 -0.0661594 0
M  V30 21414 O 1980.03 1.71803 0.911806 0
M  V30 21415 C 1980.31 2.60995 -2.481 0
M  V30 21416 C 1980.17 2.14746 -3.95227 0
M  V30 21417 C 1981.48 3.63212 -2.48526 0
M  V30 21418 H 1978.6 0.516071 -0.526156 0
M  V30 21419 H 1981.25 0.749896 -1.74575 0
M  V30 21420 H 1979.4 3.18417 -2.22583 0
M  V30 21421 H 1981.07 1.62384 -4.31774 0
M  V30 21422 H 1979.31 1.46188 -4.08426 0
M  V30 21423 H 1979.98 3.00068 -4.63318 0
M  V30 21424 H 1982.46 3.15534 -2.71251 0
M  V30 21425 H 1981.33 4.43825 -3.22971 0
M  V30 21426 H 1981.59 4.15285 -1.51626 0
M  V30 21427 N 1980.65 1.29477 0.898527 0
M  V30 21428 C 1981.59 1.0903 2.00469 0
M  V30 21429 C 1982.57 0.00183835 1.626 0
M  V30 21430 O 1983.75 0.152763 1.8788 0
M  V30 21431 C 1980.88 0.660044 3.32206 0
M  V30 21432 C 1979.92 1.74739 3.89061 0
M  V30 21433 S 1980.76 3.34687 4.18025 0
M  V30 21434 C 1981.91 2.93532 5.52802 0
M  V30 21435 H 1982.14 2.0268 2.17505 0
M  V30 21436 H 1979.68 1.13637 1.04527 0
M  V30 21437 H 1981.64 0.418518 4.08361 0
M  V30 21438 H 1980.3 -0.256865 3.13048 0
M  V30 21439 H 1979.49 1.39831 4.84214 0
M  V30 21440 H 1979.09 1.9425 3.19598 0
M  V30 21441 H 1981.38 2.4065 6.3332 0
M  V30 21442 H 1982.33 3.87541 5.92636 0
M  V30 21443 H 1982.73 2.31793 5.14716 0
M  V30 21444 N 1982.13 -1.10905 1.11972 0
M  V30 21445 C 1983.1 -2.1529 0.786324 0
M  V30 21446 C 1984.1 -1.59589 -0.196987 0
M  V30 21447 O 1985.29 -1.74177 0.0281964 0
M  V30 21448 C 1982.42 -3.40488 0.167611 0
M  V30 21449 H 1983.61 -2.46295 1.71111 0
M  V30 21450 H 1981.16 -1.26185 0.922332 0
M  V30 21451 H 1981.9 -3.15096 -0.76713 0
M  V30 21452 H 1981.68 -3.822 0.875514 0
M  V30 21453 H 1983.17 -4.17571 -0.0493303 0
M  V30 21454 N 1983.61 -0.910886 -1.2861 0
M  V30 21455 C 1984.52 -0.402088 -2.31129 0
M  V30 21456 C 1985.54 0.508811 -1.66394 0
M  V30 21457 O 1986.71 0.395691 -1.97475 0
M  V30 21458 C 1983.78 0.352182 -3.44907 0
M  V30 21459 C 1982.84 -0.59159 -4.25204 0
M  V30 21460 C 1982.07 0.126778 -5.33549 0
M  V30 21461 O 1982.29 1.34897 -5.54219 0
M  V30 21462 O 1981.23 -0.536442 -5.99505 0
M  V30 21463 H 1985.05 -1.25289 -2.76652 0
M  V30 21464 H 1982.64 -0.675604 -1.33251 0
M  V30 21465 H 1984.52 0.778285 -4.14151 0
M  V30 21466 H 1983.2 1.17886 -3.01471 0
M  V30 21467 H 1982.1 -1.06703 -3.5856 0
M  V30 21468 H 1983.44 -1.38501 -4.72312 0
M  V30 21469 N 1985.09 1.42434 -0.674558 0
M  V30 21470 C 1986.02 2.33498 -0.0100395 0
M  V30 21471 C 1987 1.50665 0.789558 0
M  V30 21472 O 1988.18 1.79268 0.74676 0
M  V30 21473 C 1985.31 3.34279 0.942081 0
M  V30 21474 C 1984.27 4.27263 0.251094 0
M  V30 21475 C 1983.59 5.18249 1.31614 0
M  V30 21476 C 1984.89 5.15008 -0.869735 0
M  V30 21477 H 1986.59 2.89314 -0.770566 0
M  V30 21478 H 1984.13 1.39112 -0.372004 0
M  V30 21479 H 1986.09 3.96896 1.41604 0
M  V30 21480 H 1984.81 2.76765 1.73403 0
M  V30 21481 H 1983.47 3.6604 -0.202625 0
M  V30 21482 H 1983.12 4.57063 2.10006 0
M  V30 21483 H 1982.82 5.81288 0.858923 0
M  V30 21484 H 1984.34 5.83742 1.79103 0
M  V30 21485 H 1985.76 5.71312 -0.477004 0
M  V30 21486 H 1984.15 5.86879 -1.25273 0
M  V30 21487 H 1985.22 4.53422 -1.71861 0
M  V30 21488 N 1986.57 0.417871 1.51959 0
M  V30 21489 C 1987.81 -0.155282 2.02205 0
M  V30 21490 C 1988.15 -1.44044 1.3025 0
M  V30 21491 O 1987.42 -1.90098 0.411449 0
M  V30 21492 C 1987.7 -0.394038 3.57938 0
M  V30 21493 C 1987.56 0.908404 4.40532 0
M  V30 21494 C 1988.88 -1.17238 4.24197 0
M  V30 21495 H 1985.99 -0.0549616 0.734948 0
M  V30 21496 H 1988.64 0.553053 1.81773 0
M  V30 21497 H 1986.79 -0.997422 3.75478 0
M  V30 21498 H 1988.46 1.54427 4.34684 0
M  V30 21499 H 1986.7 1.51743 4.06395 0
M  V30 21500 H 1987.37 0.69563 5.47599 0
M  V30 21501 H 1989.85 -0.661461 4.10809 0
M  V30 21502 H 1988.72 -1.30818 5.33083 0
M  V30 21503 H 1988.99 -2.19534 3.83741 0
M  V30 21504 N 1988.04 -1.56898 0.148573 0
M  V30 21505 C 1988.99 -2.1813 -0.807596 0
M  V30 21506 C 1989.99 -1.13875 -1.25415 0
M  V30 21507 O 1991.19 -1.32122 -1.22245 0
M  V30 21508 H 1987.57 -0.698471 -0.278644 0
M  V30 21509 H 1989.54 -2.97203 -0.266972 0
M  V30 21510 C 1988.29 -2.81852 -2.03604 0
M  V30 21511 H 1987.61 -3.6179 -1.70141 0
M  V30 21512 H 1989.05 -3.28196 -2.68446 0
M  V30 21513 C 1987.51 -1.80441 -2.84504 0
M  V30 21514 O 1988.04 -1.27584 -3.809 0
M  V30 21515 N 1986.25 -1.49709 -2.49069 0
M  V30 21516 H 1985.79 -1.92884 -1.70744 0
M  V30 21517 H 1985.75 -0.821041 -3.0349 0
M  V30 21518 N 1989.52 0.125209 -1.57102 0
M  V30 21519 C 1990.75 0.852378 -1.89075 0
M  V30 21520 C 1991.17 1.72938 -0.739878 0
M  V30 21521 O 1990.53 1.78633 0.309828 0
M  V30 21522 C 1990.58 1.66688 -3.19762 0
M  V30 21523 O 1989.68 2.77324 -3.0523 0
M  V30 21524 H 1989.02 0.236103 -0.620606 0
M  V30 21525 H 1991.55 0.109473 -2.04307 0
M  V30 21526 H 1991.56 2.0574 -3.52328 0
M  V30 21527 H 1990.24 1.02303 -4.03121 0
M  V30 21528 H 1988.82 2.41519 -2.84118 0
M  V30 21529 N 1991 1.52564 0.395213 0
M  V30 21530 C 1992.25 1.66974 1.1386 0
M  V30 21531 C 1992.57 0.409016 1.90662 0
M  V30 21532 O 1991.84 -0.576451 1.87227 0
M  V30 21533 H 1990.42 0.61548 0.423313 0
M  V30 21534 H 1993.08 1.89657 0.449024 0
M  V30 21535 H 1992.18 2.5173 1.84496 0
M  V30 21536 N 1992.48 -0.653289 1.43422 0
M  V30 21537 C 1993.39 -1.79526 1.51022 0
M  V30 21538 C 1994.4 -1.69403 0.39732 0
M  V30 21539 O 1995.58 -1.90574 0.651437 0
M  V30 21540 C 1992.65 -3.15803 1.43071 0
M  V30 21541 C 1991.71 -3.37723 2.65031 0
M  V30 21542 C 1990.94 -4.67499 2.5745 0
M  V30 21543 O 1991.16 -5.46846 1.6222 0
M  V30 21544 O 1990.1 -4.91137 3.47948 0
M  V30 21545 H 1993.92 -1.76069 2.47454 0
M  V30 21546 H 1991.51 -0.81176 1.25423 0
M  V30 21547 H 1993.39 -3.97083 1.41079 0
M  V30 21548 H 1992.06 -3.1985 0.497738 0
M  V30 21549 H 1990.97 -2.56208 2.72595 0
M  V30 21550 H 1992.3 -3.38523 3.573 0
M  V30 21551 N 1993.96 -1.29952 -0.891648 0
M  V30 21552 C 1995.23 -1.09057 -1.62376 0
M  V30 21553 C 1995.61 0.362482 -2.07965 0
M  V30 21554 O 1994.96 1.35277 -1.84153 0
M  V30 21555 C 1995.17 -2.08543 -2.79841 0
M  V30 21556 C 1996.52 -2.39899 -3.50333 0
M  V30 21557 O 1997.54 -2.06801 -2.90021 0
M  V30 21558 O 1996.4 -2.96487 -4.59083 0
M  V30 21559 H 1993.5 -0.418386 -0.71336 0
M  V30 21560 H 1996.04 -1.41353 -0.939009 0
M  V30 21561 H 1994.81 -3.06378 -2.43409 0
M  V30 21562 H 1994.44 -1.77024 -3.56017 0
M  V30 21563 N 1995.44 1.1031 -1.12559 0
M  V30 21564 C 1996.68 1.82567 -0.883005 0
M  V30 21565 C 1997.01 1.85031 0.589667 0
M  V30 21566 O 1996.29 1.3119 1.43595 0
M  V30 21567 C 1996.57 3.29171 -1.46009 0
M  V30 21568 C 1996.43 3.35032 -3.00122 0
M  V30 21569 C 1997.74 4.25591 -1.12073 0
M  V30 21570 H 1994.86 0.662829 -0.322221 0
M  V30 21571 H 1997.51 1.29276 -1.3924 0
M  V30 21572 H 1995.66 3.74684 -1.02685 0
M  V30 21573 H 1997.33 2.9799 -3.52135 0
M  V30 21574 H 1995.57 2.74892 -3.35584 0
M  V30 21575 H 1996.24 4.3827 -3.35595 0
M  V30 21576 H 1998.72 3.88318 -1.49494 0
M  V30 21577 H 1997.59 5.26528 -1.55112 0
M  V30 21578 H 1997.85 4.42088 -0.0331138 0
M  V30 21579 N 1996.91 0.917694 1.28125 0
M  V30 21580 C 1997.84 0.426179 2.29578 0
M  V30 21581 C 1998.82 -0.508289 1.62328 0
M  V30 21582 O 2000.01 -0.415181 1.8971 0
M  V30 21583 C 1997.14 -0.331007 3.45719 0
M  V30 21584 C 1996.09 0.51469 4.24894 0
M  V30 21585 C 1995.42 -0.371069 5.33411 0
M  V30 21586 C 1996.72 1.774 4.9125 0
M  V30 21587 H 1998.41 1.27403 2.7094 0
M  V30 21588 H 1995.96 0.614065 1.30251 0
M  V30 21589 H 1997.91 -0.68573 4.15783 0
M  V30 21590 H 1996.64 -1.2128 3.03247 0
M  V30 21591 H 1995.3 0.851986 3.56562 0
M  V30 21592 H 1994.94 -1.25152 4.87182 0
M  V30 21593 H 1994.64 0.19121 5.87289 0
M  V30 21594 H 1996.17 -0.721587 6.06321 0
M  V30 21595 H 1997.58 1.48795 5.53654 0
M  V30 21596 H 1995.98 2.27899 5.55141 0
M  V30 21597 H 1997.05 2.49947 4.15517 0
M  V30 21598 N 1998.39 -1.42074 0.682102 0
M  V30 21599 C 1999.64 -2.01733 0.207714 0
M  V30 21600 C 1999.97 -1.53844 -1.18514 0
M  V30 21601 O 1999.25 -0.74378 -1.79717 0
M  V30 21602 C 1999.53 -3.59228 0.250438 0
M  V30 21603 C 1999.38 -4.17278 1.67927 0
M  V30 21604 C 2000.7 -4.38303 -0.397296 0
M  V30 21605 H 1997.82 -0.732972 0.0769518 0
M  V30 21606 H 2000.46 -1.69 0.868272 0
M  V30 21607 H 1998.61 -3.87245 -0.312007 0
M  V30 21608 H 2000.28 -4.00187 2.29452 0
M  V30 21609 H 1998.53 -3.7283 2.21767 0
M  V30 21610 H 1999.2 -5.26423 1.66079 0
M  V30 21611 H 2001.67 -4.1602 0.0815622 0
M  V30 21612 H 2000.55 -5.47866 -0.336797 0
M  V30 21613 H 2000.81 -4.16733 -1.476 0
M  V30 21614 N 1999.87 -0.425924 -1.51735 0
M  V30 21615 C 2001.12 0.144343 -2.01985 0
M  V30 21616 C 2001.44 1.43704 -1.31071 0
M  V30 21617 O 2000.7 1.91341 -0.410741 0
M  V30 21618 C 2001 0.421964 -3.549 0
M  V30 21619 C 2000.66 -0.78354 -4.4404 0
M  V30 21620 C 1999.33 -1.11416 -4.68124 0
M  V30 21621 C 2001.68 -1.58827 -4.9641 0
M  V30 21622 C 1999.01 -2.25041 -5.41824 0
M  V30 21623 C 2001.36 -2.71542 -5.71356 0
M  V30 21624 C 2000.02 -3.05071 -5.93707 0
M  V30 21625 H 1999.29 0.0528187 -0.739115 0
M  V30 21626 H 2001.94 -0.570784 -1.82796 0
M  V30 21627 H 2000.24 1.21885 -3.72359 0
M  V30 21628 H 2001.94 0.876435 -3.91305 0
M  V30 21629 H 1998.53 -0.515891 -4.25484 0
M  V30 21630 H 2002.72 -1.34606 -4.77698 0
M  V30 21631 H 1997.97 -2.51346 -5.57347 0
M  V30 21632 H 2002.15 -3.34275 -6.10928 0
M  V30 21633 H 1999.77 -3.93229 -6.50596 0
M  V30 21634 N 2001.35 1.56817 -0.156891 0
M  V30 21635 C 2002.58 2.00516 0.497682 0
M  V30 21636 C 2002.99 1.03609 1.58309 0
M  V30 21637 O 2002.33 0.0266573 1.83681 0
M  V30 21638 C 2002.39 3.40648 1.14888 0
M  V30 21639 C 2002.05 4.56531 0.206879 0
M  V30 21640 C 2003.05 5.16774 -0.569267 0
M  V30 21641 C 2000.74 5.02186 0.106904 0
M  V30 21642 C 2002.73 6.21089 -1.43274 0
M  V30 21643 C 2000.42 6.06354 -0.760162 0
M  V30 21644 C 2001.42 6.65675 -1.52858 0
M  V30 21645 O 2001.1 7.67825 -2.38118 0
M  V30 21646 H 2000.84 0.662754 0.133164 0
M  V30 21647 H 2003.39 2.03855 -0.251425 0
M  V30 21648 H 2001.62 3.34177 1.94583 0
M  V30 21649 H 2003.31 3.68391 1.70419 0
M  V30 21650 H 2004.07 4.82394 -0.502119 0
M  V30 21651 H 1999.95 4.55735 0.694764 0
M  V30 21652 H 2003.5 6.6732 -2.03298 0
M  V30 21653 H 1999.39 6.4016 -0.828566 0
M  V30 21654 H 2000.16 7.85087 -2.31475 0
M  V30 21655 N 2002.83 -0.116876 1.57166 0
M  V30 21656 C 2003.77 -1.16225 2.01481 0
M  V30 21657 C 2004.77 -1.42749 0.912094 0
M  V30 21658 O 2005.97 -1.42686 1.0973 0
M  V30 21659 H 2002.35 -0.391924 0.641794 0
M  V30 21660 H 2004.32 -0.762018 2.88506 0
M  V30 21661 C 2003.07 -2.48022 2.43681 0
M  V30 21662 H 2002.39 -2.28451 3.28101 0
M  V30 21663 H 2003.83 -3.19723 2.78484 0
M  V30 21664 C 2002.29 -3.10754 1.30129 0
M  V30 21665 O 2002.82 -3.96911 0.618431 0
M  V30 21666 N 2001.03 -2.70664 1.05781 0
M  V30 21667 H 2000.57 -2.00696 1.61489 0
M  V30 21668 H 2000.53 -3.12965 0.300009 0
M  V30 21669 N 2004.3 -1.52772 -0.387116 0
M  V30 21670 C 2005.58 -1.5849 -1.14631 0
M  V30 21671 C 2005.96 -0.379228 -2.07666 0
M  V30 21672 O 2005.31 0.632297 -2.19577 0
M  V30 21673 C 2005.52 -2.92465 -1.90434 0
M  V30 21674 C 2006.87 -3.46269 -2.45729 0
M  V30 21675 O 2007.89 -2.94352 -2.00588 0
M  V30 21676 O 2006.75 -4.3698 -3.28193 0
M  V30 21677 H 2003.84 -0.639307 -0.52461 0
M  V30 21678 H 2006.39 -1.65108 -0.392117 0
M  V30 21679 H 2005.16 -3.7166 -1.22411 0
M  V30 21680 H 2004.78 -2.89241 -2.7281 0
M  V30 21681 N 2005.78 0.645673 -1.43767 0
M  V30 21682 C 2007.2 0.962209 -1.27333 0
M  V30 21683 C 2007.4 2.0052 -0.198519 0
M  V30 21684 O 2006.45 2.48974 0.420512 0
M  V30 21685 C 2007.77 1.4393 -2.64016 0
M  V30 21686 C 2009.31 1.55555 -2.71609 0
M  V30 21687 C 2009.79 2.06652 -4.08728 0
M  V30 21688 N 2011.28 2.13944 -4.10831 0
M  V30 21689 C 2012.02 2.54619 -5.13767 0
M  V30 21690 N 2011.51 2.94536 -6.27073 0
M  V30 21691 N 2013.3 2.54625 -5.01121 0
M  V30 21692 H 2005.46 -0.0443554 -2.12354 0
M  V30 21693 H 2007.72 0.042755 -0.947035 0
M  V30 21694 H 2007.42 0.747304 -3.43669 0
M  V30 21695 H 2007.3 2.41297 -2.89923 0
M  V30 21696 H 2009.69 2.23854 -1.92285 0
M  V30 21697 H 2009.77 0.566006 -2.49459 0
M  V30 21698 H 2009.41 1.38952 -4.88523 0
M  V30 21699 H 2009.34 3.06451 -4.28247 0
M  V30 21700 H 2011.83 1.85838 -3.29048 0
M  V30 21701 H 2012.14 3.24345 -7.01442 0
M  V30 21702 H 2010.49 2.92323 -6.30533 0
M  V30 21703 H 2013.68 2.22822 -4.11665 0
M  V30 21704 H 2013.85 2.86002 -5.81469 0
M  V30 21705 N 2007.26 1.30423 0.884744 0
M  V30 21706 C 2008.22 1.16804 1.97204 0
M  V30 21707 C 2009.22 0.0992103 1.60494 0
M  V30 21708 O 2010.41 0.34734 1.70702 0
M  V30 21709 C 2007.54 0.789574 3.3163 0
M  V30 21710 H 2008.74 2.13401 2.10713 0
M  V30 21711 H 2006.29 1.13823 1.07117 0
M  V30 21712 H 2007.03 -0.175888 3.23823 0
M  V30 21713 H 2006.81 1.562 3.59644 0
M  V30 21714 H 2008.3 0.717768 4.11385 0
M  V30 21715 N 2008.74 -1.09711 1.13142 0
M  V30 21716 C 2009.96 -1.86136 0.914785 0
M  V30 21717 C 2010.39 -1.80448 -0.531035 0
M  V30 21718 O 2009.75 -1.17983 -1.37658 0
M  V30 21719 C 2009.79 -3.32164 1.40356 0
M  V30 21720 O 2008.9 -4.08203 0.586881 0
M  V30 21721 H 2008.24 -0.577287 0.328079 0
M  V30 21722 H 2010.77 -1.38563 1.50537 0
M  V30 21723 H 2010.78 -3.83013 1.40589 0
M  V30 21724 H 2009.45 -3.35619 2.45628 0
M  V30 21725 H 2008.03 -3.67153 0.652163 0
M  V30 21726 N 2010.22 -0.924476 -1.27637 0
M  V30 21727 C 2011.46 -0.563219 -1.9451 0
M  V30 21728 C 2011.79 0.894968 -1.72686 0
M  V30 21729 O 2011.05 1.65323 -1.04722 0
M  V30 21730 C 2011.35 -0.831659 -3.47589 0
M  V30 21731 C 2011.01 -2.27108 -3.89529 0
M  V30 21732 C 2009.67 -2.6646 -4.0069 0
M  V30 21733 C 2012.03 -3.20729 -4.10832 0
M  V30 21734 C 2009.35 -3.98563 -4.3054 0
M  V30 21735 C 2011.71 -4.52409 -4.42164 0
M  V30 21736 C 2010.37 -4.91599 -4.51538 0
M  V30 21737 H 2009.64 -0.206096 -0.711762 0
M  V30 21738 H 2012.29 -1.16783 -1.51769 0
M  V30 21739 H 2010.59 -0.144345 -3.91534 0
M  V30 21740 H 2012.29 -0.531162 -3.97467 0
M  V30 21741 H 2008.88 -1.95577 -3.81376 0
M  V30 21742 H 2013.06 -2.9153 -4.01652 0
M  V30 21743 H 2008.32 -4.28614 -4.36005 0
M  V30 21744 H 2012.49 -5.24957 -4.57595 0
M  V30 21745 H 2010.12 -5.93994 -4.74421 0
M  V30 21746 N 2011.69 1.41711 -0.689627 0
M  V30 21747 C 2012.63 2.29192 0.018551 0
M  V30 21748 C 2013.64 1.44471 0.750468 0
M  V30 21749 O 2014.83 1.68037 0.602159 0
M  V30 21750 C 2011.93 3.22215 1.05027 0
M  V30 21751 C 2011.1 4.35665 0.389181 0
M  V30 21752 C 2010.16 5.09304 1.3227 0
M  V30 21753 O 2009.19 5.63301 0.817347 0
M  V30 21754 N 2010.39 5.16209 2.65533 0
M  V30 21755 H 2013.15 2.90611 -0.732482 0
M  V30 21756 H 2010.71 1.52798 -0.535191 0
M  V30 21757 H 2012.71 3.68347 1.67638 0
M  V30 21758 H 2011.28 2.62145 1.7029 0
M  V30 21759 H 2010.5 3.91991 -0.416702 0
M  V30 21760 H 2011.78 5.08751 -0.070752 0
M  V30 21761 H 2011.18 4.73777 3.09115 0
M  V30 21762 H 2009.74 5.65938 3.23354 0
M  V30 21763 N 2013.17 0.433965 1.51507 0
M  V30 21764 C 2014.4 -0.132403 2.06476 0
M  V30 21765 C 2014.82 -1.3675 1.30172 0
M  V30 21766 O 2014.17 -1.78907 0.360351 0
M  V30 21767 C 2014.22 -0.458007 3.58587 0
M  V30 21768 O 2013.94 0.728069 4.32008 0
M  V30 21769 C 2015.45 -1.07541 4.30058 0
M  V30 21770 H 2012.67 -0.00941889 0.670934 0
M  V30 21771 H 2015.21 0.612075 1.95125 0
M  V30 21772 H 2013.36 -1.15238 3.69863 0
M  V30 21773 H 2013.78 0.450318 5.22563 0
M  V30 21774 H 2015.25 -1.25326 5.37585 0
M  V30 21775 H 2015.73 -2.0555 3.88131 0
M  V30 21776 H 2016.34 -0.420519 4.23216 0
M  V30 21777 N 2014.65 -1.56732 0.165206 0
M  V30 21778 C 2015.58 -2.20674 -0.763223 0
M  V30 21779 C 2016.56 -1.16048 -1.24366 0
M  V30 21780 O 2017.75 -1.44456 -1.29793 0
M  V30 21781 C 2014.88 -2.84269 -1.9952 0
M  V30 21782 C 2013.83 -3.94881 -1.65085 0
M  V30 21783 C 2013.16 -4.45496 -2.95698 0
M  V30 21784 C 2014.46 -5.14773 -0.883543 0
M  V30 21785 H 2016.15 -2.98513 -0.230254 0
M  V30 21786 H 2013.7 -1.43585 -0.109308 0
M  V30 21787 H 2015.65 -3.27674 -2.64967 0
M  V30 21788 H 2014.37 -2.03789 -2.55221 0
M  V30 21789 H 2013.03 -3.52122 -1.0201 0
M  V30 21790 H 2012.68 -3.61815 -3.49426 0
M  V30 21791 H 2012.38 -5.20114 -2.73414 0
M  V30 21792 H 2013.9 -4.91584 -3.62185 0
M  V30 21793 H 2015.32 -5.54908 -1.44047 0
M  V30 21794 H 2013.72 -5.95268 -0.759968 0
M  V30 21795 H 2014.79 -4.84748 0.121303 0
M  V30 21796 N 2016.13 0.10854 -1.57226 0
M  V30 21797 C 2017.38 0.813095 -1.84585 0
M  V30 21798 C 2017.69 1.80548 -0.752453 0
M  V30 21799 O 2018.9 2.55697 -0.912763 0
M  V30 21800 C 2017.35 1.4968 -3.27298 0
M  V30 21801 C 2016.96 0.544871 -4.44674 0
M  V30 21802 C 2018.7 2.18587 -3.63895 0
M  V30 21803 C 2016.61 1.2324 -5.78417 0
M  V30 21804 H 2015.54 0.3074 -0.688492 0
M  V30 21805 H 2018.19 0.065908 -1.83382 0
M  V30 21806 H 2016.57 2.29098 -3.23002 0
M  V30 21807 H 2017.75 -0.216842 -4.6029 0
M  V30 21808 H 2016.06 -0.0377882 -4.16383 0
M  V30 21809 H 2018.66 2.70735 -4.61093 0
M  V30 21810 H 2019 2.96868 -2.91848 0
M  V30 21811 H 2019.54 1.46046 -3.70021 0
M  V30 21812 H 2016.28 0.490673 -6.53661 0
M  V30 21813 H 2015.8 1.96587 -5.66669 0
M  V30 21814 H 2017.47 1.76267 -6.22526 0
M  V30 21815 N 2017.61 1.52975 0.379009 0
M  V30 21816 C 2018.54 1.74729 1.48332 0
M  V30 21817 C 2019.55 0.627862 1.50206 0
M  V30 21818 O 2020.74 0.903805 1.53927 0
M  V30 21819 C 2017.84 1.79998 2.87148 0
M  V30 21820 C 2017.01 3.09452 3.09125 0
M  V30 21821 C 2016.07 3.06138 4.27979 0
M  V30 21822 O 2015.1 3.79976 4.23801 0
M  V30 21823 N 2016.3 2.26019 5.34692 0
M  V30 21824 H 2019.07 2.70011 1.30054 0
M  V30 21825 H 2016.63 1.51586 0.568617 0
M  V30 21826 H 2018.62 1.75275 3.64775 0
M  V30 21827 H 2017.19 0.920593 2.98737 0
M  V30 21828 H 2016.41 3.27586 2.19274 0
M  V30 21829 H 2017.7 3.9503 3.20669 0
M  V30 21830 H 2017.09 1.65515 5.40945 0
M  V30 21831 H 2015.65 2.27126 6.10948 0
M  V30 21832 N 2019.08 -0.63804 1.44107 0
M  V30 21833 C 2020.02 -1.76291 1.44903 0
M  V30 21834 C 2021 -1.59644 0.308656 0
M  V30 21835 O 2022.18 -1.81621 0.504576 0
M  V30 21836 C 2019.31 -3.13781 1.27511 0
M  V30 21837 C 2018.35 -3.49094 2.45021 0
M  V30 21838 S 2019.19 -3.47353 4.07561 0
M  V30 21839 C 2020.34 -4.87475 3.9258 0
M  V30 21840 H 2020.57 -1.75348 2.40084 0
M  V30 21841 H 2018.11 -0.812041 1.31321 0
M  V30 21842 H 2020.07 -3.93125 1.18164 0
M  V30 21843 H 2018.73 -3.1227 0.338519 0
M  V30 21844 H 2017.92 -4.49126 2.28697 0
M  V30 21845 H 2017.52 -2.77198 2.51073 0
M  V30 21846 H 2019.81 -5.76526 3.55843 0
M  V30 21847 H 2020.76 -5.08853 4.92417 0
M  V30 21848 H 2021.16 -4.61724 3.24763 0
M  V30 21849 N 2020.56 -1.3089 -0.877815 0
M  V30 21850 C 2021.5 -1.12206 -1.98709 0
M  V30 21851 C 2022.47 -0.0277064 -1.62576 0
M  V30 21852 O 2023.66 -0.182634 -1.87613 0
M  V30 21853 C 2020.78 -0.712811 -3.31114 0
M  V30 21854 C 2019.83 -1.80907 -3.86232 0
M  V30 21855 S 2020.66 -3.41295 -4.12647 0
M  V30 21856 C 2021.82 -3.02289 -5.48062 0
M  V30 21857 H 2022.05 -2.06114 -2.14253 0
M  V30 21858 H 2019.59 -1.15286 -1.02706 0
M  V30 21859 H 2021.54 -0.483431 -4.07643 0
M  V30 21860 H 2020.2 0.207029 -3.13417 0
M  V30 21861 H 2019.4 -1.47517 -4.81928 0
M  V30 21862 H 2019 -1.9931 -3.16467 0
M  V30 21863 H 2021.29 -2.50695 -6.29411 0
M  V30 21864 H 2022.23 -3.9692 -5.86396 0
M  V30 21865 H 2022.64 -2.39953 -5.10963 0
M  V30 21866 N 2022.04 1.0911 -1.13723 0
M  V30 21867 C 2023.46 1.33403 -0.87611 0
M  V30 21868 C 2023.66 1.95536 0.486607 0
M  V30 21869 O 2022.71 2.2038 1.23243 0
M  V30 21870 C 2024.03 2.24255 -2.00325 0
M  V30 21871 C 2025.57 2.37755 -2.03572 0
M  V30 21872 C 2026.05 3.31944 -3.15558 0
M  V30 21873 N 2027.54 3.39519 -3.15089 0
M  V30 21874 C 2028.27 4.12409 -3.9838 0
M  V30 21875 N 2027.77 4.88068 -4.91692 0
M  V30 21876 N 2029.56 4.08167 -3.86467 0
M  V30 21877 H 2021.71 0.671565 -2.01504 0
M  V30 21878 H 2023.98 0.358401 -0.877641 0
M  V30 21879 H 2023.68 1.85834 -2.98595 0
M  V30 21880 H 2023.56 3.24667 -1.92019 0
M  V30 21881 H 2025.94 2.75438 -1.05913 0
M  V30 21882 H 2026.03 1.3711 -2.1595 0
M  V30 21883 H 2025.67 2.94984 -4.13458 0
M  V30 21884 H 2025.6 4.32501 -3.00418 0
M  V30 21885 H 2028.09 2.85573 -2.475 0
M  V30 21886 H 2028.4 5.41127 -5.51726 0
M  V30 21887 H 2026.75 4.87146 -4.95695 0
M  V30 21888 H 2029.94 3.48161 -3.12892 0
M  V30 21889 H 2030.11 4.64711 -4.51606 0
M  V30 21890 N 2023.52 0.931232 1.27145 0
M  V30 21891 C 2024.74 0.589393 1.98849 0
M  V30 21892 C 2025.17 -0.82637 1.68976 0
M  V30 21893 O 2024.53 -1.55507 0.93205 0
M  V30 21894 C 2024.57 0.826135 3.51009 0
M  V30 21895 O 2023.68 -0.106581 4.12262 0
M  V30 21896 H 2023.02 0.226532 0.624163 0
M  V30 21897 H 2025.55 1.25145 1.61864 0
M  V30 21898 H 2025.56 0.743094 4.01176 0
M  V30 21899 H 2024.23 1.85812 3.72084 0
M  V30 21900 H 2022.81 0.0266735 3.7289 0
M  V30 21901 N 2025 -1.41343 0.697132 0
M  V30 21902 C 2025.91 -2.34576 0.0333341 0
M  V30 21903 C 2026.92 -1.56313 -0.764337 0
M  V30 21904 O 2028.1 -1.88787 -0.70154 0
M  V30 21905 C 2025.16 -3.35066 -0.890597 0
M  V30 21906 C 2024.23 -4.29216 -0.0849556 0
M  V30 21907 C 2023.46 -5.24905 -0.964881 0
M  V30 21908 O 2023.68 -5.26083 -2.20437 0
M  V30 21909 O 2022.62 -6.00476 -0.413724 0
M  V30 21910 H 2026.44 -2.92922 0.801892 0
M  V30 21911 H 2024.03 -1.42223 0.457478 0
M  V30 21912 H 2025.91 -3.96741 -1.42036 0
M  V30 21913 H 2024.58 -2.79161 -1.63862 0
M  V30 21914 H 2023.49 -3.70884 0.489447 0
M  V30 21915 H 2024.82 -4.88223 0.624437 0
M  V30 21916 N 2026.48 -0.441993 -1.51275 0
M  V30 21917 C 2027.89 -0.0945327 -1.5932 0
M  V30 21918 C 2028.09 1.39653 -1.45256 0
M  V30 21919 O 2027.15 2.16693 -1.29616 0
M  V30 21920 C 2028.46 -0.618795 -2.94264 0
M  V30 21921 C 2030.01 -0.579646 -3.07586 0
M  V30 21922 C 2030.48 -1.08096 -4.45061 0
M  V30 21923 N 2031.97 -1.03914 -4.51393 0
M  V30 21924 C 2032.71 -1.39786 -5.561 0
M  V30 21925 N 2032.21 -1.82965 -6.68203 0
M  V30 21926 N 2034 -1.31573 -5.46484 0
M  V30 21927 H 2026.15 -1.4121 -1.58662 0
M  V30 21928 H 2028.41 -0.582182 -0.748176 0
M  V30 21929 H 2028.12 -1.66222 -3.09941 0
M  V30 21930 H 2027.99 -0.0462651 -3.77172 0
M  V30 21931 H 2030.38 0.454801 -2.91574 0
M  V30 21932 H 2030.46 -1.18863 -2.26506 0
M  V30 21933 H 2030.1 -2.1139 -4.61819 0
M  V30 21934 H 2030.03 -0.448465 -5.24687 0
M  V30 21935 H 2032.53 -0.722104 -3.70937 0
M  V30 21936 H 2032.84 -2.08561 -7.44125 0
M  V30 21937 H 2031.18 -1.86895 -6.69399 0
M  V30 21938 H 2034.37 -0.977017 -4.5779 0
M  V30 21939 H 2034.55 -1.59857 -6.27973 0
M  V30 21940 N 2027.95 1.56642 -0.173515 0
M  V30 21941 C 2029.23 1.88634 0.517348 0
M  V30 21942 C 2029.61 1.08374 1.81158 0
M  V30 21943 O 2028.96 0.178319 2.27803 0
M  V30 21944 C 2029.17 3.40689 0.757118 0
M  V30 21945 C 2030.52 4.10473 1.08614 0
M  V30 21946 O 2031.54 3.46018 0.845582 0
M  V30 21947 O 2030.4 5.24351 1.54008 0
M  V30 21948 H 2027.49 0.782731 0.266949 0
M  V30 21949 H 2030.04 1.68369 -0.212115 0
M  V30 21950 H 2028.81 3.90982 -0.157737 0
M  V30 21951 H 2028.43 3.66572 1.53982 0
M  V30 21952 N 2029.43 -0.1002 1.57281 0
M  V30 21953 C 2030.85 -0.454271 1.52998 0
M  V30 21954 C 2031.05 -1.80807 0.889451 0
M  V30 21955 O 2030.1 -2.479 0.479781 0
M  V30 21956 C 2031.42 -0.421457 2.97732 0
M  V30 21957 C 2032.96 -0.503676 3.08921 0
M  V30 21958 C 2033.44 -0.501062 4.55251 0
M  V30 21959 N 2034.93 -0.561964 4.59778 0
M  V30 21960 C 2035.67 -0.581696 5.70442 0
M  V30 21961 N 2035.16 -0.557942 6.9055 0
M  V30 21962 N 2036.95 -0.626123 5.58602 0
M  V30 21963 H 2029.11 0.786609 1.97297 0
M  V30 21964 H 2031.37 0.292244 0.90183 0
M  V30 21965 H 2031.07 0.506016 3.48041 0
M  V30 21966 H 2030.95 -1.24233 3.56154 0
M  V30 21967 H 2033.34 -1.42157 2.58603 0
M  V30 21968 H 2033.42 0.345241 2.5346 0
M  V30 21969 H 2033.06 0.412865 5.06219 0
M  V30 21970 H 2032.99 -1.36712 5.08544 0
M  V30 21971 H 2035.48 -0.585723 3.73333 0
M  V30 21972 H 2035.79 -0.576141 7.70649 0
M  V30 21973 H 2034.14 -0.52507 6.93014 0
M  V30 21974 H 2037.33 -0.642175 4.63674 0
M  V30 21975 H 2037.5 -0.638033 6.44851 0
M  V30 21976 N 2030.91 -1.53174 -0.370891 0
M  V30 21977 C 2031.84 -1.74012 -1.47632 0
M  V30 21978 C 2032.82 -0.588337 -1.51583 0
M  V30 21979 O 2034 -0.820302 -1.69715 0
M  V30 21980 C 2031.13 -1.81411 -2.8602 0
M  V30 21981 C 2030.18 -3.03335 -2.99817 0
M  V30 21982 S 2031.01 -4.6296 -2.69125 0
M  V30 21983 C 2032.17 -4.73201 -4.09672 0
M  V30 21984 H 2032.4 -2.675 -1.29734 0
M  V30 21985 H 2029.93 -1.43695 -0.5649 0
M  V30 21986 H 2031.89 -1.8636 -3.6576 0
M  V30 21987 H 2030.55 -0.889838 -3.01232 0
M  V30 21988 H 2029.74 -3.05107 -4.01156 0
M  V30 21989 H 2029.35 -2.96471 -2.27993 0
M  V30 21990 H 2031.64 -4.52929 -5.03846 0
M  V30 21991 H 2032.58 -5.7525 -4.12908 0
M  V30 21992 H 2032.99 -4.0188 -3.96425 0
M  V30 21993 N 2032.39 0.630389 -1.44443 0
M  V30 21994 C 2033.66 1.38877 -1.3774 0
M  V30 21995 C 2034.04 2.11068 -0.0364918 0
M  V30 21996 O 2033.39 2.06373 0.98094 0
M  V30 21997 C 2033.6 2.35458 -2.57606 0
M  V30 21998 C 2034.95 2.98766 -3.01702 0
M  V30 21999 O 2035.97 2.45783 -2.57816 0
M  V30 22000 O 2034.83 3.94883 -3.77796 0
M  V30 22001 H 2031.93 0.621587 -0.54549 0
M  V30 22002 H 2034.47 0.655382 -1.56534 0
M  V30 22003 H 2033.25 1.81218 -3.46808 0
M  V30 22004 H 2032.87 3.16213 -2.41029 0
M  V30 22005 N 2033.87 1.31354 0.870861 0
M  V30 22006 C 2034.78 1.20887 2.01056 0
M  V30 22007 C 2035.79 0.125768 1.73545 0
M  V30 22008 O 2036.97 0.3434 1.98451 0
M  V30 22009 C 2034.03 0.915879 3.34384 0
M  V30 22010 C 2033.09 2.08579 3.75225 0
M  V30 22011 C 2032.33 1.80668 5.0219 0
M  V30 22012 O 2032.55 0.741377 5.65561 0
M  V30 22013 O 2031.48 2.66319 5.39776 0
M  V30 22014 H 2035.31 2.16661 2.12819 0
M  V30 22015 H 2032.89 1.11084 0.999031 0
M  V30 22016 H 2034.78 0.768289 4.14337 0
M  V30 22017 H 2033.45 -0.0118355 3.23698 0
M  V30 22018 H 2032.36 2.28877 2.95916 0
M  V30 22019 H 2033.69 2.99572 3.90535 0
M  V30 22020 N 2035.34 -1.08505 1.143 0
M  V30 22021 C 2036.29 -2.17492 0.824612 0
M  V30 22022 C 2037.29 -1.6825 -0.197073 0
M  V30 22023 O 2038.49 -1.79921 -0.0532722 0
M  V30 22024 H 2034.87 -0.709601 0.248938 0
M  V30 22025 H 2036.84 -2.41572 1.75173 0
M  V30 22026 C 2035.59 -3.46249 0.317355 0
M  V30 22027 H 2034.91 -3.84516 1.09488 0
M  V30 22028 H 2036.35 -4.23791 0.133114 0
M  V30 22029 C 2034.81 -3.22967 -0.958852 0
M  V30 22030 O 2035.34 -3.46468 -2.03281 0
M  V30 22031 N 2033.54 -2.76517 -0.893693 0
M  V30 22032 H 2033.09 -2.57593 -0.0195774 0
M  V30 22033 H 2033.05 -2.61318 -1.74815 0
M  V30 22034 N 2036.82 -0.937962 -1.26649 0
M  V30 22035 C 2038.05 -0.59993 -1.98534 0
M  V30 22036 C 2038.47 0.817397 -1.69411 0
M  V30 22037 O 2037.83 1.55011 -0.940284 0
M  V30 22038 C 2037.88 -0.844738 -3.50566 0
M  V30 22039 O 2036.98 0.0847162 -4.12313 0
M  V30 22040 H 2036.32 -0.229839 -0.622953 0
M  V30 22041 H 2038.85 -1.26002 -1.61198 0
M  V30 22042 H 2038.86 -0.764359 -4.00776 0
M  V30 22043 H 2037.54 -1.87783 -3.71094 0
M  V30 22044 H 2036.11 -0.0464484 -3.72871 0
M  V30 22045 N 2038.3 1.40971 -0.704618 0
M  V30 22046 C 2039.71 1.84055 -0.313126 0
M  V30 22047 C 2040.06 1.5894 1.15033 0
M  V30 22048 O 2039.19 1.06454 1.88405 0
M  V30 22049 C 2039.78 3.34114 -0.561542 0
M  V30 22050 C 2038.34 3.75734 -0.223873 0
M  V30 22051 C 2037.49 2.64292 -0.839356 0
M  V30 22052 H 2040.44 1.30394 -0.904599 0
M  V30 22053 H 2040.46 3.80089 0.176821 0
M  V30 22054 H 2039.97 3.52362 -1.62673 0
M  V30 22055 H 2038.07 3.63084 0.836696 0
M  V30 22056 H 2038.19 4.74175 -0.685211 0
M  V30 22057 H 2036.55 2.53284 -0.268242 0
M  V30 22058 H 2037.33 2.85355 -1.9086 0
M  V30 22059 N 2039.78 0.45001 1.51039 0
M  V30 22060 C 2040.71 -0.345315 2.30933 0
M  V30 22061 C 2041.69 -1.00959 1.36899 0
M  V30 22062 O 2042.87 -1.0108 1.6582 0
M  V30 22063 C 2040 -1.43968 3.16055 0
M  V30 22064 C 2038.96 -0.898198 4.18469 0
M  V30 22065 C 2038.28 -2.08927 4.92193 0
M  V30 22066 C 2039.58 0.0760911 5.22245 0
M  V30 22067 H 2041.28 0.321441 2.97669 0
M  V30 22068 H 2038.82 0.156032 1.43152 0
M  V30 22069 H 2040.78 -2.00338 3.70732 0
M  V30 22070 H 2039.5 -2.1349 2.47163 0
M  V30 22071 H 2038.16 -0.356617 3.64861 0
M  V30 22072 H 2037.81 -2.77098 4.19792 0
M  V30 22073 H 2037.51 -1.73328 5.61454 0
M  V30 22074 H 2039.03 -2.65827 5.49698 0
M  V30 22075 H 2040.45 -0.397728 5.71919 0
M  V30 22076 H 2038.84 0.345281 5.99106 0
M  V30 22077 H 2039.91 1.00878 4.74291 0
M  V30 22078 N 2041.26 -1.56548 0.18182 0
M  V30 22079 C 2042.19 -2.14336 -0.783296 0
M  V30 22080 C 2043.17 -1.07634 -1.21876 0
M  V30 22081 O 2044.35 -1.3567 -1.30866 0
M  V30 22082 C 2041.48 -2.69146 -2.05616 0
M  V30 22083 C 2040.52 -3.88316 -1.76389 0
M  V30 22084 S 2041.36 -5.27472 -0.923777 0
M  V30 22085 C 2042.51 -5.85695 -2.20708 0
M  V30 22086 H 2042.75 -2.95863 -0.291996 0
M  V30 22087 H 2040.28 -1.54365 -0.033 0
M  V30 22088 H 2042.24 -3.01371 -2.78722 0
M  V30 22089 H 2040.9 -1.87685 -2.51859 0
M  V30 22090 H 2040.09 -4.25031 -2.7086 0
M  V30 22091 H 2039.69 -3.57032 -1.11373 0
M  V30 22092 H 2041.99 -5.99249 -3.16081 0
M  V30 22093 H 2042.93 -6.82564 -1.88446 0
M  V30 22094 H 2043.34 -5.14194 -2.32948 0
M  V30 22095 N 2042.73 0.0918577 -1.57332 0
M  V30 22096 C 2043.96 0.807046 -1.90185 0
M  V30 22097 C 2044.37 1.72642 -0.774035 0
M  V30 22098 O 2043.72 1.81811 0.262746 0
M  V30 22099 C 2043.78 1.67067 -3.18322 0
M  V30 22100 C 2043.44 0.922776 -4.47587 0
M  V30 22101 C 2044.44 0.251109 -5.19293 0
M  V30 22102 C 2042.12 0.895897 -4.94246 0
M  V30 22103 C 2044.12 -0.437433 -6.35897 0
M  V30 22104 C 2041.8 0.203571 -6.10761 0
M  V30 22105 C 2042.8 -0.461913 -6.81436 0
M  V30 22106 O 2042.49 -1.14313 -7.95731 0
M  V30 22107 H 2042.22 0.235807 -0.633539 0
M  V30 22108 H 2044.78 0.0725289 -2.05272 0
M  V30 22109 H 2043.01 2.4475 -2.9939 0
M  V30 22110 H 2044.7 2.26271 -3.36981 0
M  V30 22111 H 2045.46 0.263315 -4.84285 0
M  V30 22112 H 2041.34 1.40333 -4.39122 0
M  V30 22113 H 2044.88 -0.957435 -6.90999 0
M  V30 22114 H 2040.78 0.189223 -6.45223 0
M  V30 22115 H 2041.55 -1.05035 -8.11733 0
M  V30 22116 N 2044.21 1.53368 0.362763 0
M  V30 22117 C 2045.16 1.76385 1.44472 0
M  V30 22118 C 2046.15 0.618465 1.48539 0
M  V30 22119 O 2047.34 0.877226 1.53733 0
M  V30 22120 C 2044.47 1.95971 2.81869 0
M  V30 22121 C 2043.55 3.1652 2.8227 0
M  V30 22122 N 2043.94 4.38373 2.52314 0
M  V30 22123 C 2042.24 3.17299 3.13429 0
M  V30 22124 C 2042.94 5.20128 2.60464 0
M  V30 22125 N 2041.92 4.56403 2.95292 0
M  V30 22126 H 2045.72 2.68205 1.20179 0
M  V30 22127 H 2043.24 1.52032 0.570972 0
M  V30 22128 H 2045.23 2.10589 3.59802 0
M  V30 22129 H 2043.89 1.05381 3.07124 0
M  V30 22130 H 2044.9 4.66057 2.25857 0
M  V30 22131 H 2041.58 2.36611 3.43979 0
M  V30 22132 H 2042.97 6.27335 2.40626 0
M  V30 22133 N 2045.69 -0.62272 1.44776 0
M  V30 22134 C 2046.94 -1.37812 1.47278 0
M  V30 22135 C 2047.25 -1.95276 0.112585 0
M  V30 22136 O 2048.46 -2.71496 0.0151784 0
M  V30 22137 C 2046.91 -2.49557 2.59325 0
M  V30 22138 C 2046.52 -1.9857 4.01589 0
M  V30 22139 C 2048.27 -3.26693 2.71057 0
M  V30 22140 C 2046.17 -3.07707 5.05045 0
M  V30 22141 H 2045.1 -0.517918 0.547976 0
M  V30 22142 H 2047.75 -0.669045 1.70868 0
M  V30 22143 H 2046.14 -3.23078 2.2899 0
M  V30 22144 H 2047.31 -1.31858 4.41532 0
M  V30 22145 H 2045.63 -1.34224 3.94174 0
M  V30 22146 H 2048.22 -4.08067 3.45521 0
M  V30 22147 H 2048.57 -3.76721 1.77164 0
M  V30 22148 H 2049.1 -2.60265 3.00844 0
M  V30 22149 H 2045.84 -2.62614 6.00595 0
M  V30 22150 H 2045.36 -3.73034 4.69687 0
M  V30 22151 H 2047.04 -3.72343 5.29121 0
M  V30 22152 N 2047.17 -1.31814 -0.863883 0
M  V30 22153 C 2048.12 -1.16567 -1.9595 0
M  V30 22154 C 2049.1 -0.0750277 -1.60725 0
M  V30 22155 O 2050.29 -0.300581 -1.74429 0
M  V30 22156 C 2047.42 -0.881386 -3.31793 0
M  V30 22157 C 2046.51 -2.01329 -3.73266 0
M  V30 22158 N 2046.9 -3.26096 -3.86646 0
M  V30 22159 C 2045.2 -1.91439 -4.02824 0
M  V30 22160 C 2045.9 -4.00175 -4.22179 0
M  V30 22161 N 2044.88 -3.28393 -4.33196 0
M  V30 22162 H 2048.68 -2.11168 -2.04415 0
M  V30 22163 H 2046.19 -1.23459 -1.05506 0
M  V30 22164 H 2048.19 -0.753128 -4.10041 0
M  V30 22165 H 2046.85 0.0563426 -3.24651 0
M  V30 22166 H 2047.86 -3.6114 -3.71212 0
M  V30 22167 H 2044.54 -1.0517 -4.04037 0
M  V30 22168 H 2045.93 -5.07722 -4.40078 0
M  V30 22169 N 2048.65 1.07897 -1.14873 0
M  V30 22170 C 2049.58 2.16955 -0.863287 0
M  V30 22171 C 2050.56 1.69103 0.183853 0
M  V30 22172 O 2051.74 1.9416 0.0394136 0
M  V30 22173 C 2048.87 3.45575 -0.345696 0
M  V30 22174 C 2047.83 4.06847 -1.32888 0
M  V30 22175 C 2047.15 5.30481 -0.670367 0
M  V30 22176 C 2048.45 4.47523 -2.69296 0
M  V30 22177 H 2050.15 2.41091 -1.77526 0
M  V30 22178 H 2047.69 1.1587 -0.854991 0
M  V30 22179 H 2049.65 4.21188 -0.133575 0
M  V30 22180 H 2048.37 3.21009 0.601722 0
M  V30 22181 H 2047.03 3.33272 -1.52726 0
M  V30 22182 H 2046.68 5.02203 0.283023 0
M  V30 22183 H 2046.38 5.72433 -1.32645 0
M  V30 22184 H 2047.9 6.08805 -0.467891 0
M  V30 22185 H 2049.31 5.1429 -2.53335 0
M  V30 22186 H 2047.71 5.00409 -3.31226 0
M  V30 22187 H 2048.78 3.59159 -3.2578 0
M  V30 22188 N 2050.12 0.944665 1.2615 0
M  V30 22189 C 2051.37 0.594973 1.93876 0
M  V30 22190 C 2051.7 -0.864305 1.73906 0
M  V30 22191 O 2050.98 -1.61882 1.07817 0
M  V30 22192 C 2051.26 0.9423 3.47552 0
M  V30 22193 C 2051.11 2.45658 3.76792 0
M  V30 22194 C 2052.43 0.460204 4.37687 0
M  V30 22195 H 2049.55 0.217629 0.704135 0
M  V30 22196 H 2052.19 1.17952 1.48954 0
M  V30 22197 H 2050.34 0.444863 3.85945 0
M  V30 22198 H 2052.02 3.02701 3.48095 0
M  V30 22199 H 2050.26 2.89856 3.22747 0
M  V30 22200 H 2050.93 2.65011 4.84224 0
M  V30 22201 H 2053.41 0.886761 4.06541 0
M  V30 22202 H 2052.28 0.732019 5.43997 0
M  V30 22203 H 2052.54 -0.639853 4.37445 0
M  V30 22204 N 2051.6 -1.40596 0.712085 0
M  V30 22205 C 2052.51 -2.34528 0.0582122 0
M  V30 22206 C 2053.53 -1.57115 -0.747715 0
M  V30 22207 O 2054.7 -1.8952 -0.681477 0
M  V30 22208 C 2051.77 -3.35992 -0.855008 0
M  V30 22209 C 2050.83 -4.29282 -0.0394267 0
M  V30 22210 C 2050.06 -5.25899 -0.909154 0
M  V30 22211 O 2050.29 -5.28392 -2.14845 0
M  V30 22212 O 2049.22 -6.00881 -0.350012 0
M  V30 22213 H 2053.05 -2.92055 0.832915 0
M  V30 22214 H 2050.63 -1.4173 0.472537 0
M  V30 22215 H 2052.51 -3.98225 -1.3782 0
M  V30 22216 H 2051.19 -2.80883 -1.60892 0
M  V30 22217 H 2050.1 -3.70344 0.528757 0
M  V30 22218 H 2051.43 -4.87533 0.676185 0
M  V30 22219 N 2053.08 -0.458013 -1.50798 0
M  V30 22220 C 2054.01 0.333063 -2.31112 0
M  V30 22221 C 2054.99 1.00231 -1.37433 0
M  V30 22222 O 2056.18 1.00199 -1.66354 0
M  V30 22223 C 2053.31 1.4229 -3.16814 0
M  V30 22224 C 2052.26 0.875993 -4.1894 0
M  V30 22225 C 2051.59 2.06313 -4.93294 0
M  V30 22226 C 2052.89 -0.103786 -5.22197 0
M  V30 22227 H 2054.58 -0.337222 -2.97495 0
M  V30 22228 H 2052.13 -0.163622 -1.43067 0
M  V30 22229 H 2054.08 1.98369 -3.7179 0
M  V30 22230 H 2052.8 2.12177 -2.48291 0
M  V30 22231 H 2051.46 0.337263 -3.65045 0
M  V30 22232 H 2051.11 2.74868 -4.21256 0
M  V30 22233 H 2050.81 1.70348 -5.62366 0
M  V30 22234 H 2052.33 2.62908 -5.511 0
M  V30 22235 H 2053.75 0.367392 -5.72122 0
M  V30 22236 H 2052.15 -0.377048 -5.98914 0
M  V30 22237 H 2053.22 -1.03392 -4.73749 0
M  V30 22238 N 2054.56 1.56449 -0.190119 0
M  V30 22239 C 2055.49 2.21861 0.728019 0
M  V30 22240 C 2056.47 1.18012 1.22504 0
M  V30 22241 O 2057.66 1.46503 1.27478 0
M  V30 22242 C 2054.79 2.87407 1.94973 0
M  V30 22243 C 2053.74 3.97457 1.58782 0
M  V30 22244 C 2053.07 4.50144 2.88573 0
M  V30 22245 C 2054.37 5.16113 0.801535 0
M  V30 22246 H 2056.06 2.98842 0.182734 0
M  V30 22247 H 2053.61 1.4374 0.0864508 0
M  V30 22248 H 2055.56 3.31848 2.59721 0
M  V30 22249 H 2054.28 2.07824 2.51946 0
M  V30 22250 H 2052.94 3.537 0.96395 0
M  V30 22251 H 2052.59 3.67328 3.43626 0
M  V30 22252 H 2052.29 5.24398 2.65105 0
M  V30 22253 H 2053.81 4.97283 3.54318 0
M  V30 22254 H 2055.23 5.5713 1.35201 0
M  V30 22255 H 2053.62 5.96402 0.66517 0
M  V30 22256 H 2054.69 4.84494 -0.198407 0
M  V30 22257 N 2056.04 -0.0835127 1.57379 0
M  V30 22258 C 2057 -1.08477 2.01905 0
M  V30 22259 C 2058 -1.32278 0.91428 0
M  V30 22260 O 2059.19 -1.28196 1.17947 0
M  V30 22261 C 2056.32 -2.43121 2.38967 0
M  V30 22262 H 2057.52 -0.701256 2.91586 0
M  V30 22263 H 2055.07 -0.328903 1.528 0
M  V30 22264 H 2055.8 -2.86326 1.52275 0
M  V30 22265 H 2055.59 -2.2719 3.19573 0
M  V30 22266 H 2057.08 -3.15113 2.74032 0
M  V30 22267 N 2057.52 -1.53558 -0.354624 0
M  V30 22268 C 2058.76 -1.70523 -1.09772 0
M  V30 22269 C 2059.09 -0.461312 -1.88641 0
M  V30 22270 O 2058.37 0.541553 -1.86809 0
M  V30 22271 C 2058.65 -2.96191 -2.04799 0
M  V30 22272 C 2058.51 -4.30765 -1.29465 0
M  V30 22273 C 2059.82 -3.17493 -3.04772 0
M  V30 22274 H 2056.94 -0.620497 -0.397683 0
M  V30 22275 H 2059.59 -1.86214 -0.377395 0
M  V30 22276 H 2057.74 -2.82944 -2.66223 0
M  V30 22277 H 2059.41 -4.55844 -0.707409 0
M  V30 22278 H 2057.65 -4.29678 -0.596569 0
M  V30 22279 H 2058.32 -5.14852 -1.99076 0
M  V30 22280 H 2060.8 -3.29998 -2.53458 0
M  V30 22281 H 2059.67 -4.06838 -3.68476 0
M  V30 22282 H 2059.93 -2.33276 -3.75546 0
M  V30 22283 N 2058.99 0.615033 -1.45104 0
M  V30 22284 C 2060.23 1.38563 -1.50265 0
M  V30 22285 C 2060.6 1.91504 -0.137917 0
M  V30 22286 O 2061.8 2.68723 -0.0642206 0
M  V30 22287 C 2060.07 2.50819 -2.54607 0
M  V30 22288 S 2061.63 3.38731 -2.78938 0
M  V30 22289 H 2058.45 0.472501 -0.531285 0
M  V30 22290 H 2061.05 0.710424 -1.82135 0
M  V30 22291 H 2059.75 2.10263 -3.52445 0
M  V30 22292 H 2059.28 3.23148 -2.24363 0
M  V30 22293 H 2061.3 4.48749 -2.11752 0
M  V30 22294 N 2060.47 1.3227 0.85688 0
M  V30 22295 C 2061.7 1.25698 1.6434 0
M  V30 22296 C 2062.11 -0.175425 1.87983 0
M  V30 22297 O 2061.47 -1.11179 1.44726 0
M  V30 22298 C 2061.52 2.0111 3.00395 0
M  V30 22299 O 2061.24 3.38761 2.778 0
M  V30 22300 C 2062.74 2.01535 3.9484 0
M  V30 22301 H 2059.96 0.433782 0.511932 0
M  V30 22302 H 2062.51 1.74358 1.06863 0
M  V30 22303 H 2060.66 1.56178 3.54524 0
M  V30 22304 H 2061.08 3.7733 3.64311 0
M  V30 22305 H 2062.55 2.58787 4.87579 0
M  V30 22306 H 2063.03 1.00106 4.27639 0
M  V30 22307 H 2063.63 2.46404 3.46648 0
M  V30 22308 N 2061.95 -1.07287 1.15444 0
M  V30 22309 C 2062.86 -2.18038 0.865835 0
M  V30 22310 C 2063.88 -1.7328 -0.15811 0
M  V30 22311 O 2065.05 -2.01394 0.016125 0
M  V30 22312 C 2062.12 -3.44827 0.359941 0
M  V30 22313 C 2061.18 -4.04148 1.44786 0
M  V30 22314 C 2060.41 -5.24885 0.966015 0
M  V30 22315 O 2060.63 -5.7009 -0.188161 0
M  V30 22316 O 2059.57 -5.75898 1.75 0
M  V30 22317 H 2063.39 -2.45218 1.7917 0
M  V30 22318 H 2060.98 -1.16637 0.933604 0
M  V30 22319 H 2062.86 -4.21316 0.0843019 0
M  V30 22320 H 2061.54 -3.19197 -0.538049 0
M  V30 22321 H 2060.44 -3.29195 1.77711 0
M  V30 22322 H 2061.78 -4.34051 2.32079 0
M  V30 22323 N 2063.43 -0.951342 -1.25647 0
M  V30 22324 C 2064.68 -0.603157 -1.9289 0
M  V30 22325 C 2065 0.862093 -1.74908 0
M  V30 22326 O 2064.27 1.61366 -1.11075 0
M  V30 22327 H 2062.85 -0.220085 -0.713843 0
M  V30 22328 H 2065.51 -1.20887 -1.5288 0
M  V30 22329 H 2064.6 -0.82965 -3.00871 0
M  V30 22330 N 2064.91 1.40216 -0.719531 0
M  V30 22331 C 2065.85 2.30695 -0.0695046 0
M  V30 22332 C 2066.82 1.48398 0.746138 0
M  V30 22333 O 2068.01 1.77127 0.709277 0
M  V30 22334 C 2065.15 3.34636 0.843357 0
M  V30 22335 C 2064.26 4.31997 0.0167651 0
M  V30 22336 C 2063.4 5.23005 0.929469 0
M  V30 22337 C 2062.43 6.12023 0.0972024 0
M  V30 22338 N 2061.57 6.95437 0.964997 0
M  V30 22339 H 2066.41 2.85716 -0.846765 0
M  V30 22340 H 2063.95 1.40698 -0.429253 0
M  V30 22341 H 2065.91 3.93473 1.38691 0
M  V30 22342 H 2064.54 2.81108 1.58676 0
M  V30 22343 H 2063.59 3.74909 -0.644016 0
M  V30 22344 H 2064.9 4.94838 -0.627416 0
M  V30 22345 H 2064.05 5.86792 1.54141 0
M  V30 22346 H 2062.79 4.60447 1.60746 0
M  V30 22347 H 2061.8 5.47262 -0.52765 0
M  V30 22348 H 2063.02 6.76641 -0.577347 0
M  V30 22349 H 2060.97 6.35463 1.62857 0
M  V30 22350 H 2060.89 7.5506 0.376943 0
M  V30 22351 H 2062.15 7.63669 1.56299 0
M  V30 22352 N 2066.38 0.466004 1.50553 0
M  V30 22353 C 2067.33 -0.344889 2.30029 0
M  V30 22354 C 2068.33 -0.995031 1.37097 0
M  V30 22355 O 2069.53 -0.926717 1.54311 0
M  V30 22356 H 2065.91 -0.130059 0.740668 0
M  V30 22357 H 2067.88 0.345888 2.96389 0
M  V30 22358 C 2066.63 -1.41723 3.17506 0
M  V30 22359 H 2065.95 -0.926335 3.8892 0
M  V30 22360 H 2067.39 -1.95728 3.7612 0
M  V30 22361 C 2065.85 -2.41636 2.34763 0
M  V30 22362 O 2066.38 -3.46798 2.02716 0
M  V30 22363 N 2064.58 -2.13228 1.97439 0
M  V30 22364 H 2064.13 -1.27733 2.23701 0
M  V30 22365 H 2064.09 -2.80313 1.4238 0
M  V30 22366 N 2067.86 -1.56346 0.198413 0
M  V30 22367 C 2069.11 -1.97966 -0.440131 0
M  V30 22368 C 2069.44 -1.08533 -1.61041 0
M  V30 22369 O 2068.72 -0.138034 -1.9401 0
M  V30 22370 C 2069 -3.48747 -0.897069 0
M  V30 22371 C 2068.85 -4.48957 0.275249 0
M  V30 22372 C 2070.17 -4.03314 -1.76141 0
M  V30 22373 H 2067.29 -0.719752 -0.15851 0
M  V30 22374 H 2069.93 -1.87774 0.290003 0
M  V30 22375 H 2068.08 -3.57564 -1.51921 0
M  V30 22376 H 2069.75 -4.52175 0.912988 0
M  V30 22377 H 2068 -4.23791 0.926484 0
M  V30 22378 H 2068.67 -5.51931 -0.0870366 0
M  V30 22379 H 2071.14 -3.97297 -1.23669 0
M  V30 22380 H 2070.02 -5.09178 -2.05009 0
M  V30 22381 H 2070.28 -3.48776 -2.71676 0
M  V30 22382 N 2069.34 0.0751653 -1.57421 0
M  V30 22383 C 2070.57 0.786829 -1.9103 0
M  V30 22384 C 2070.98 1.71812 -0.792303 0
M  V30 22385 O 2070.32 1.8208 0.243447 0
M  V30 22386 C 2070.38 1.63681 -3.20076 0
M  V30 22387 C 2070.05 0.875252 -4.4854 0
M  V30 22388 C 2071.04 0.196017 -5.1953 0
M  V30 22389 C 2068.73 0.843425 -4.95168 0
M  V30 22390 C 2070.72 -0.504853 -6.35398 0
M  V30 22391 C 2068.41 0.13878 -6.10942 0
M  V30 22392 C 2069.41 -0.534162 -6.80908 0
M  V30 22393 O 2069.1 -1.22746 -7.94474 0
M  V30 22394 H 2068.83 0.229074 -0.636004 0
M  V30 22395 H 2071.38 0.0507529 -2.05337 0
M  V30 22396 H 2069.61 2.41561 -3.01969 0
M  V30 22397 H 2071.3 2.22685 -3.39362 0
M  V30 22398 H 2072.07 0.211935 -4.84537 0
M  V30 22399 H 2067.95 1.35667 -4.40585 0
M  V30 22400 H 2071.49 -1.03067 -6.89944 0
M  V30 22401 H 2067.39 0.120778 -6.45387 0
M  V30 22402 H 2068.16 -1.13639 -8.10573 0
M  V30 22403 N 2070.82 1.53744 0.346476 0
M  V30 22404 C 2072.05 1.74784 1.10717 0
M  V30 22405 C 2072.46 0.485625 1.82448 0
M  V30 22406 O 2071.82 -0.542565 1.74248 0
M  V30 22407 C 2071.87 2.926 2.1229 0
M  V30 22408 O 2071.59 4.13939 1.43477 0
M  V30 22409 C 2073.09 3.25667 3.00758 0
M  V30 22410 H 2070.31 0.58408 0.33029 0
M  V30 22411 H 2072.86 2.00558 0.399573 0
M  V30 22412 H 2071.01 2.69165 2.7862 0
M  V30 22413 H 2071.42 4.80051 2.11308 0
M  V30 22414 H 2072.9 4.11463 3.6797 0
M  V30 22415 H 2073.38 2.41845 3.66617 0
M  V30 22416 H 2073.98 3.51098 2.40022 0
M  V30 22417 N 2072.3 -0.607329 1.45428 0
M  V30 22418 C 2073.21 -1.7463 1.56657 0
M  V30 22419 C 2074.22 -1.68053 0.451014 0
M  V30 22420 O 2075.4 -1.88405 0.711736 0
M  V30 22421 C 2072.46 -3.11092 1.53045 0
M  V30 22422 C 2071.52 -3.29121 2.75641 0
M  V30 22423 C 2070.76 -4.59072 2.72193 0
M  V30 22424 O 2070.98 -5.41408 1.79536 0
M  V30 22425 O 2069.91 -4.79819 3.63397 0
M  V30 22426 H 2073.74 -1.68108 2.5293 0
M  V30 22427 H 2071.33 -0.771447 1.27942 0
M  V30 22428 H 2073.21 -3.92394 1.5364 0
M  V30 22429 H 2071.88 -3.18105 0.599244 0
M  V30 22430 H 2070.79 -2.47406 2.80608 0
M  V30 22431 H 2072.12 -3.26984 3.67889 0
M  V30 22432 N 2073.77 -1.32722 -0.849853 0
M  V30 22433 C 2075.02 -1.22908 -1.59927 0
M  V30 22434 C 2075.34 0.206455 -1.94507 0
M  V30 22435 O 2076.54 0.426508 -2.68129 0
M  V30 22436 C 2075 -2.15292 -2.88405 0
M  V30 22437 C 2074.61 -3.63954 -2.6123 0
M  V30 22438 C 2076.35 -2.14325 -3.66422 0
M  V30 22439 C 2074.26 -4.48286 -3.85738 0
M  V30 22440 H 2073.19 -0.456463 -0.600132 0
M  V30 22441 H 2075.84 -1.57715 -0.937993 0
M  V30 22442 H 2074.22 -1.73406 -3.56015 0
M  V30 22443 H 2075.39 -4.14213 -2.01901 0
M  V30 22444 H 2073.71 -3.67101 -1.96535 0
M  V30 22445 H 2076.31 -2.74566 -4.58822 0
M  V30 22446 H 2076.65 -1.13547 -4.00516 0
M  V30 22447 H 2077.18 -2.54517 -3.05722 0
M  V30 22448 H 2073.92 -5.49897 -3.56782 0
M  V30 22449 H 2073.44 -4.02776 -4.44446 0
M  V30 22450 H 2075.12 -4.61531 -4.53429 0
M  V30 22451 N 2075.25 1.06673 -1.16011 0
M  V30 22452 C 2076.2 2.14051 -0.863174 0
M  V30 22453 C 2077.17 1.65046 0.186783 0
M  V30 22454 O 2078.35 1.90727 0.0528262 0
M  V30 22455 C 2075.49 3.43152 -0.366184 0
M  V30 22456 C 2074.61 4.05911 -1.47852 0
M  V30 22457 C 2073.74 5.22872 -0.936942 0
M  V30 22458 C 2072.78 5.77607 -2.02574 0
M  V30 22459 N 2071.92 6.85889 -1.50004 0
M  V30 22460 H 2076.76 2.38791 -1.78277 0
M  V30 22461 H 2074.3 1.17165 -0.889421 0
M  V30 22462 H 2076.25 4.17157 -0.0596984 0
M  V30 22463 H 2074.88 3.18641 0.516479 0
M  V30 22464 H 2073.94 3.29491 -1.90105 0
M  V30 22465 H 2075.25 4.42592 -2.3003 0
M  V30 22466 H 2074.4 6.03888 -0.583409 0
M  V30 22467 H 2073.14 4.87627 -0.0844157 0
M  V30 22468 H 2072.15 4.95231 -2.38802 0
M  V30 22469 H 2073.37 6.14905 -2.88217 0
M  V30 22470 H 2071.32 6.5257 -0.669982 0
M  V30 22471 H 2071.23 7.21491 -2.25802 0
M  V30 22472 H 2072.5 7.70594 -1.17496 0
M  V30 22473 N 2076.73 0.957992 1.25141 0
M  V30 22474 C 2077.97 0.622306 1.94696 0
M  V30 22475 C 2078.33 -0.825845 1.73331 0
M  V30 22476 O 2079.54 -1.27128 2.36837 0
M  V30 22477 C 2077.81 0.975207 3.43838 0
M  V30 22478 S 2079.37 0.752603 4.32298 0
M  V30 22479 H 2076.18 0.228622 0.673241 0
M  V30 22480 H 2078.79 1.23288 1.51724 0
M  V30 22481 H 2077.49 2.02624 3.56892 0
M  V30 22482 H 2077.02 0.355017 3.91795 0
M  V30 22483 H 2079.04 -0.374938 4.94781 0
M  V30 22484 N 2078.21 -1.39832 0.726957 0
M  V30 22485 C 2079.16 -2.32492 0.0707517 0
M  V30 22486 C 2080.15 -1.5264 -0.734661 0
M  V30 22487 O 2081.36 -1.68361 -0.63675 0
M  V30 22488 H 2077.73 -0.751989 0.00407767 0
M  V30 22489 H 2079.7 -2.85473 0.868774 0
M  V30 22490 C 2078.45 -3.37686 -0.828442 0
M  V30 22491 H 2077.77 -3.99205 -0.218093 0
M  V30 22492 H 2079.21 -4.0499 -1.25534 0
M  V30 22493 C 2077.67 -2.74083 -1.95909 0
M  V30 22494 O 2078.2 -2.61299 -3.051 0
M  V30 22495 N 2076.41 -2.32292 -1.7461 0
M  V30 22496 H 2075.96 -2.4289 -0.858037 0
M  V30 22497 H 2075.91 -1.90075 -2.50437 0
M  V30 22498 N 2079.69 -0.473982 -1.50304 0
M  V30 22499 C 2080.91 0.0798733 -2.07246 0
M  V30 22500 C 2081.34 1.3249 -1.33521 0
M  V30 22501 O 2080.69 1.77192 -0.383743 0
M  V30 22502 C 2080.74 0.343926 -3.58956 0
M  V30 22503 O 2079.85 1.42387 -3.8704 0
M  V30 22504 H 2079.19 -0.0142608 -0.663847 0
M  V30 22505 H 2081.72 -0.665854 -1.93462 0
M  V30 22506 H 2081.73 0.583558 -4.03805 0
M  V30 22507 H 2080.4 -0.565855 -4.12033 0
M  V30 22508 H 2078.98 1.17132 -3.54026 0
M  V30 22509 N 2081.16 1.56239 -0.206702 0
M  V30 22510 C 2082.09 2.2262 0.704446 0
M  V30 22511 C 2083.08 1.19305 1.21245 0
M  V30 22512 O 2084.26 1.47846 1.25917 0
M  V30 22513 C 2081.39 2.89459 1.91913 0
M  V30 22514 C 2080.34 3.99119 1.54558 0
M  V30 22515 C 2079.67 4.53179 2.83783 0
M  V30 22516 C 2080.97 5.16934 0.746749 0
M  V30 22517 H 2082.66 2.99019 0.151028 0
M  V30 22518 H 2080.21 1.43824 0.0712004 0
M  V30 22519 H 2082.16 3.34584 2.56186 0
M  V30 22520 H 2080.89 2.10484 2.49728 0
M  V30 22521 H 2079.55 3.54702 0.926381 0
M  V30 22522 H 2079.19 3.70952 3.39711 0
M  V30 22523 H 2078.89 5.2718 2.59528 0
M  V30 22524 H 2080.42 5.01013 3.49024 0
M  V30 22525 H 2081.83 5.58532 1.29284 0
M  V30 22526 H 2080.23 5.97074 0.601876 0
M  V30 22527 H 2081.3 4.84256 -0.249783 0
M  V30 22528 N 2082.64 -0.0668159 1.57458 0
M  V30 22529 C 2083.57 -1.0791 2.07069 0
M  V30 22530 C 2084.55 -1.40063 0.965207 0
M  V30 22531 O 2085.74 -1.49604 1.23823 0
M  V30 22532 C 2082.87 -2.39113 2.51877 0
M  V30 22533 C 2081.82 -2.213 3.66347 0
M  V30 22534 C 2081.15 -3.57931 3.97227 0
M  V30 22535 C 2082.45 -1.63013 4.9621 0
M  V30 22536 H 2084.14 -0.666254 2.91893 0
M  V30 22537 H 2081.69 -0.319039 1.40421 0
M  V30 22538 H 2083.64 -3.10226 2.85198 0
M  V30 22539 H 2082.37 -2.82387 1.64088 0
M  V30 22540 H 2081.02 -1.52628 3.33317 0
M  V30 22541 H 2080.67 -3.98784 3.06562 0
M  V30 22542 H 2080.37 -3.4685 4.74309 0
M  V30 22543 H 2081.9 -4.30467 4.33048 0
M  V30 22544 H 2083.31 -2.23997 5.27729 0
M  V30 22545 H 2081.71 -1.62614 5.77648 0
M  V30 22546 H 2082.78 -0.592078 4.81272 0
M  V30 22547 N 2084.12 -1.53926 -0.338317 0
M  V30 22548 C 2085.53 -1.62818 -0.913629 0
M  V30 22549 C 2085.88 -0.512813 -1.8938 0
M  V30 22550 O 2085.01 0.356629 -2.13441 0
M  V30 22551 C 2085.6 -2.9513 -1.66385 0
M  V30 22552 C 2084.16 -3.06267 -2.1881 0
M  V30 22553 C 2083.31 -2.58298 -1.00884 0
M  V30 22554 H 2086.26 -1.58273 -0.116306 0
M  V30 22555 H 2086.28 -2.84463 -2.52708 0
M  V30 22556 H 2085.79 -3.76288 -0.950215 0
M  V30 22557 H 2083.89 -2.29753 -2.93333 0
M  V30 22558 H 2084.01 -4.11824 -2.44822 0
M  V30 22559 H 2082.37 -2.13832 -1.38376 0
M  V30 22560 H 2083.15 -3.419 -0.309757 0
M  V30 22561 N 2085.6 0.599608 -1.45748 0
M  V30 22562 C 2086.53 1.72038 -1.57877 0
M  V30 22563 C 2087.51 1.64578 -0.429893 0
M  V30 22564 O 2088.7 1.82855 -0.654037 0
M  V30 22565 C 2085.83 3.10657 -1.55272 0
M  V30 22566 C 2084.78 3.32936 -2.68957 0
M  V30 22567 C 2084.11 4.71909 -2.51408 0
M  V30 22568 C 2085.41 3.22412 -4.10911 0
M  V30 22569 H 2087.1 1.62144 -2.51694 0
M  V30 22570 H 2084.65 0.778641 -1.21133 0
M  V30 22571 H 2086.6 3.8887 -1.62353 0
M  V30 22572 H 2085.32 3.21411 -0.579891 0
M  V30 22573 H 2083.98 2.57117 -2.61317 0
M  V30 22574 H 2083.63 4.79406 -1.52247 0
M  V30 22575 H 2083.33 4.8777 -3.2765 0
M  V30 22576 H 2084.85 5.52311 -2.60355 0
M  V30 22577 H 2086.27 3.90488 -4.19752 0
M  V30 22578 H 2084.66 3.498 -4.87607 0
M  V30 22579 H 2085.73 2.19732 -4.32256 0
M  V30 22580 N 2087.08 1.33171 0.842803 0
M  V30 22581 C 2088.35 1.15008 1.58216 0
M  V30 22582 C 2088.73 -0.285047 2.09167 0
M  V30 22583 O 2088.08 -1.28349 1.89047 0
M  V30 22584 C 2088.29 2.18785 2.71908 0
M  V30 22585 C 2089.64 2.52736 3.41188 0
M  V30 22586 O 2090.66 2.17422 2.82146 0
M  V30 22587 O 2089.52 3.13321 4.47763 0
M  V30 22588 H 2086.62 0.444573 0.69734 0
M  V30 22589 H 2089.16 1.44741 0.8859 0
M  V30 22590 H 2087.94 3.15201 2.31871 0
M  V30 22591 H 2087.56 1.90116 3.49202 0
M  V30 22592 N 2088.56 -1.06056 1.16576 0
M  V30 22593 C 2089.83 -1.75733 0.858908 0
M  V30 22594 C 2090.21 -2.01077 -0.642746 0
M  V30 22595 O 2089.56 -1.63981 -1.5913 0
M  V30 22596 C 2089.77 -3.0567 1.68425 0
M  V30 22597 C 2091.12 -3.7978 1.89874 0
M  V30 22598 O 2092.14 -3.15517 1.65311 0
M  V30 22599 O 2091 -4.95232 2.311 0
M  V30 22600 H 2088.1 -0.763759 0.317177 0
M  V30 22601 H 2090.64 -1.12303 1.27225 0
M  V30 22602 H 2089.41 -2.82923 2.70315 0
M  V30 22603 H 2089.04 -3.76835 1.26811 0
M  V30 22604 N 2090.03 -0.964615 -1.24631 0
M  V30 22605 C 2091.28 -0.620429 -1.91921 0
M  V30 22606 C 2091.6 0.847851 -1.76269 0
M  V30 22607 O 2092.8 1.30243 -2.38221 0
M  V30 22608 C 2091.26 -1.059 -3.43967 0
M  V30 22609 C 2090.87 -2.55052 -3.6831 0
M  V30 22610 C 2092.61 -0.787818 -4.17126 0
M  V30 22611 C 2090.52 -2.92658 -5.13912 0
M  V30 22612 H 2089.45 -0.22834 -0.718594 0
M  V30 22613 H 2092.1 -1.17041 -1.41328 0
M  V30 22614 H 2090.48 -0.437357 -3.93577 0
M  V30 22615 H 2091.65 -3.2232 -3.29312 0
M  V30 22616 H 2089.97 -2.79748 -3.08432 0
M  V30 22617 H 2092.57 -1.04483 -5.24392 0
M  V30 22618 H 2092.91 0.275932 -4.15385 0
M  V30 22619 H 2093.44 -1.37028 -3.73454 0
M  V30 22620 H 2090.18 -3.98091 -5.20772 0
M  V30 22621 H 2089.7 -2.30071 -5.5392 0
M  V30 22622 H 2091.38 -2.82395 -5.82119 0
M  V30 22623 N 2091.51 1.39445 -0.734362 0
M  V30 22624 C 2092.76 2.00824 -0.282443 0
M  V30 22625 C 2093.09 1.58137 1.12722 0
M  V30 22626 O 2092.37 0.809969 1.76833 0
M  V30 22627 C 2092.65 3.58051 -0.38359 0
M  V30 22628 C 2092.5 4.10758 -1.83298 0
M  V30 22629 C 2093.82 4.39476 0.234349 0
M  V30 22630 H 2090.94 0.729611 -0.104103 0
M  V30 22631 H 2093.58 1.65661 -0.930397 0
M  V30 22632 H 2091.73 3.88136 0.168068 0
M  V30 22633 H 2093.4 3.91395 -2.44147 0
M  V30 22634 H 2091.65 3.64342 -2.35451 0
M  V30 22635 H 2092.32 5.19897 -1.85503 0
M  V30 22636 H 2094.79 4.15431 -0.235909 0
M  V30 22637 H 2093.67 5.48738 0.133228 0
M  V30 22638 H 2093.93 4.21924 1.32032 0
M  V30 22639 N 2092.99 0.481946 1.5005 0
M  V30 22640 C 2094.41 0.13674 1.59013 0
M  V30 22641 C 2094.61 -1.35753 1.48908 0
M  V30 22642 O 2093.66 -2.1318 1.35316 0
M  V30 22643 C 2094.97 0.696597 2.9252 0
M  V30 22644 C 2096.52 0.660993 3.05941 0
M  V30 22645 C 2097 1.19858 4.42038 0
M  V30 22646 N 2098.49 1.15846 4.4848 0
M  V30 22647 C 2099.22 1.54481 5.52199 0
M  V30 22648 N 2098.72 2.00617 6.63117 0
M  V30 22649 N 2100.51 1.46016 5.42804 0
M  V30 22650 H 2092.66 1.45367 1.54862 0
M  V30 22651 H 2094.93 0.601814 0.732478 0
M  V30 22652 H 2094.63 1.74381 3.05425 0
M  V30 22653 H 2094.51 0.146249 3.76916 0
M  V30 22654 H 2096.89 -0.377335 2.92678 0
M  V30 22655 H 2096.97 1.24827 2.23275 0
M  V30 22656 H 2096.62 2.2356 4.56052 0
M  V30 22657 H 2096.55 0.587419 5.23313 0
M  V30 22658 H 2099.04 0.820197 3.68892 0
M  V30 22659 H 2099.35 2.28217 7.38334 0
M  V30 22660 H 2097.7 2.04578 6.64209 0
M  V30 22661 H 2100.89 1.09805 4.55039 0
M  V30 22662 H 2101.06 1.7645 6.23514 0
M  V30 22663 N 2094.47 -1.56127 0.214985 0
M  V30 22664 C 2095.71 -1.98422 -0.41911 0
M  V30 22665 C 2096.05 -1.10235 -1.59881 0
M  V30 22666 O 2095.32 -0.158603 -1.93852 0
M  V30 22667 C 2095.6 -3.49679 -0.86003 0
M  V30 22668 C 2095.46 -4.4864 0.322851 0
M  V30 22669 C 2096.78 -4.0516 -1.71854 0
M  V30 22670 H 2093.9 -0.721393 -0.150867 0
M  V30 22671 H 2096.54 -1.87456 0.309902 0
M  V30 22672 H 2094.69 -3.59155 -1.48121 0
M  V30 22673 H 2096.36 -4.51181 0.960896 0
M  V30 22674 H 2094.6 -4.22784 0.97138 0
M  V30 22675 H 2095.27 -5.51993 -0.028492 0
M  V30 22676 H 2097.75 -3.98587 -1.19448 0
M  V30 22677 H 2096.63 -5.11324 -1.99596 0
M  V30 22678 H 2096.89 -3.51638 -2.67962 0
M  V30 22679 N 2095.95 0.0584645 -1.57492 0
M  V30 22680 C 2097.19 0.75619 -1.88174 0
M  V30 22681 C 2097.52 1.76546 -0.809018 0
M  V30 22682 O 2096.8 1.93672 0.179286 0
M  V30 22683 C 2097.08 1.45223 -3.29518 0
M  V30 22684 C 2096.94 0.458472 -4.47457 0
M  V30 22685 C 2098.25 2.39381 -3.69303 0
M  V30 22686 H 2095.37 0.27344 -0.684397 0
M  V30 22687 H 2098.02 0.0191997 -1.8999 0
M  V30 22688 H 2096.17 2.08044 -3.28101 0
M  V30 22689 H 2097.84 -0.165547 -4.61003 0
M  V30 22690 H 2096.08 -0.225018 -4.33216 0
M  V30 22691 H 2096.75 0.983384 -5.4317 0
M  V30 22692 H 2099.23 1.86628 -3.719 0
M  V30 22693 H 2098.1 2.85078 -4.69065 0
M  V30 22694 H 2098.36 3.24775 -2.99956 0
M  V30 22695 N 2097.42 1.54103 0.330149 0
M  V30 22696 C 2098.65 1.75948 1.08857 0
M  V30 22697 C 2099.07 0.504949 1.81922 0
M  V30 22698 O 2098.42 -0.524053 1.74814 0
M  V30 22699 C 2098.47 2.94836 2.09175 0
M  V30 22700 O 2098.2 4.15438 1.39079 0
M  V30 22701 C 2099.7 3.28839 2.97287 0
M  V30 22702 H 2096.92 0.587551 0.324076 0
M  V30 22703 H 2099.46 2.00971 0.378279 0
M  V30 22704 H 2097.62 2.72105 2.75749 0
M  V30 22705 H 2098.03 4.82266 2.06204 0
M  V30 22706 H 2099.5 4.15343 3.63586 0
M  V30 22707 H 2099.98 2.4572 3.64031 0
M  V30 22708 H 2100.59 3.53624 2.36284 0
M  V30 22709 N 2098.9 -0.59187 1.46064 0
M  V30 22710 C 2099.85 -1.69625 1.52352 0
M  V30 22711 C 2100.84 -1.56219 0.385282 0
M  V30 22712 O 2102.03 -1.65289 0.633129 0
M  V30 22713 C 2099.16 -3.08403 1.50807 0
M  V30 22714 C 2098.24 -3.27138 2.69891 0
M  V30 22715 N 2098.63 -3.1607 3.94884 0
M  V30 22716 C 2096.93 -3.58053 2.65921 0
M  V30 22717 C 2097.63 -3.36563 4.74447 0
M  V30 22718 N 2096.61 -3.6129 4.06165 0
M  V30 22719 H 2100.41 -1.59585 2.468 0
M  V30 22720 H 2097.93 -0.795623 1.41575 0
M  V30 22721 H 2099.92 -3.87653 1.53398 0
M  V30 22722 H 2098.58 -3.19581 0.574291 0
M  V30 22723 H 2099.59 -2.94133 4.2627 0
M  V30 22724 H 2096.27 -3.75972 1.81524 0
M  V30 22725 H 2097.66 -3.33266 5.83424 0
M  V30 22726 N 2100.38 -1.33616 -0.835729 0
M  V30 22727 C 2101.29 -1.26175 -1.9778 0
M  V30 22728 C 2102.31 -0.171736 -1.7315 0
M  V30 22729 O 2103.48 -0.395895 -1.97471 0
M  V30 22730 C 2100.55 -1.00421 -3.31838 0
M  V30 22731 C 2099.61 -2.18454 -3.69563 0
M  V30 22732 C 2098.84 -1.93919 -4.97223 0
M  V30 22733 O 2099.06 -0.891065 -5.63397 0
M  V30 22734 O 2098 -2.80536 -5.32525 0
M  V30 22735 H 2101.82 -2.22227 -2.07 0
M  V30 22736 H 2099.41 -1.13694 -0.969228 0
M  V30 22737 H 2101.29 -0.877873 -4.12155 0
M  V30 22738 H 2099.97 -0.0739914 -3.23615 0
M  V30 22739 H 2098.87 -2.36642 -2.89743 0
M  V30 22740 H 2100.21 -3.09821 -3.82455 0
M  V30 22741 N 2101.86 1.05436 -1.17136 0
M  V30 22742 C 2103.14 1.75275 -0.868216 0
M  V30 22743 C 2103.52 2.01415 0.632074 0
M  V30 22744 O 2102.86 1.64823 1.58258 0
M  V30 22745 C 2103.07 3.04772 -1.70044 0
M  V30 22746 C 2104.42 3.78768 -1.91885 0
M  V30 22747 O 2105.45 3.14636 -1.66982 0
M  V30 22748 O 2104.3 4.94 -2.33723 0
M  V30 22749 H 2101.4 0.762066 -0.321223 0
M  V30 22750 H 2103.94 1.11627 -1.27818 0
M  V30 22751 H 2102.72 2.81485 -2.71812 0
M  V30 22752 H 2102.34 3.76157 -1.28808 0
M  V30 22753 N 2103.34 0.971211 1.24118 0
M  V30 22754 C 2104.58 0.642921 1.94025 0
M  V30 22755 C 2104.94 -0.807414 1.74198 0
M  V30 22756 O 2106.14 -1.24609 2.38172 0
M  V30 22757 C 2104.41 1.01162 3.42784 0
M  V30 22758 S 2105.97 0.798412 4.31475 0
M  V30 22759 H 2102.79 0.23575 0.670778 0
M  V30 22760 H 2105.39 1.24891 1.50408 0
M  V30 22761 H 2104.1 2.06398 3.54722 0
M  V30 22762 H 2103.63 0.396552 3.91396 0
M  V30 22763 H 2105.64 -0.322438 4.95151 0
M  V30 22764 N 2104.81 -1.39054 0.741747 0
M  V30 22765 C 2106.06 -1.99612 0.289503 0
M  V30 22766 C 2106.38 -1.59538 -1.13168 0
M  V30 22767 O 2107.58 -2.12981 -1.68379 0
M  V30 22768 C 2106.04 -3.56862 0.466657 0
M  V30 22769 C 2105.65 -4.05894 1.89616 0
M  V30 22770 C 2107.39 -4.24431 0.0765289 0
M  V30 22771 C 2105.3 -5.55742 2.0225 0
M  V30 22772 H 2104.23 -0.746725 0.10449 0
M  V30 22773 H 2106.88 -1.58968 0.916594 0
M  V30 22774 H 2105.26 -3.95335 -0.229437 0
M  V30 22775 H 2106.43 -3.78739 2.62475 0
M  V30 22776 H 2104.75 -3.5101 2.24011 0
M  V30 22777 H 2107.35 -5.3449 0.149851 0
M  V30 22778 H 2107.69 -4.04861 -0.969208 0
M  V30 22779 H 2108.22 -3.91156 0.724031 0
M  V30 22780 H 2104.96 -5.80201 3.05036 0
M  V30 22781 H 2104.48 -5.84678 1.33836 0
M  V30 22782 H 2106.16 -6.21258 1.80685 0
M  V30 22783 N 2106.29 -0.489897 -1.49792 0
M  V30 22784 C 2107.7 -0.0393634 -1.86658 0
M  V30 22785 C 2108.05 1.37132 -1.40318 0
M  V30 22786 O 2107.18 2.01999 -0.776241 0
M  V30 22787 C 2107.77 -0.0646571 -3.38738 0
M  V30 22788 C 2106.33 0.330485 -3.74946 0
M  V30 22789 C 2105.48 -0.442023 -2.73754 0
M  V30 22790 H 2108.43 -0.703245 -1.42268 0
M  V30 22791 H 2108.45 0.73323 -3.73368 0
M  V30 22792 H 2107.96 -1.09149 -3.72435 0
M  V30 22793 H 2106.07 1.36097 -3.46855 0
M  V30 22794 H 2106.18 0.0187552 -4.79096 0
M  V30 22795 H 2104.54 0.106725 -2.54476 0
M  V30 22796 H 2105.33 -1.46872 -3.10296 0
M  V30 22797 N 2107.77 1.56011 -0.223262 0
M  V30 22798 C 2108.68 2.23993 0.697454 0
M  V30 22799 C 2109.7 1.24812 1.21235 0
M  V30 22800 O 2110.87 1.57629 1.2536 0
M  V30 22801 C 2107.94 2.90786 1.88797 0
M  V30 22802 C 2107 4.05314 1.41489 0
M  V30 22803 C 2106.23 4.68913 2.54866 0
M  V30 22804 O 2106.45 4.31505 3.73041 0
M  V30 22805 O 2105.39 5.57872 2.2597 0
M  V30 22806 H 2109.21 3.03338 0.148324 0
M  V30 22807 H 2106.8 1.49398 0.00725836 0
M  V30 22808 H 2108.68 3.32939 2.5832 0
M  V30 22809 H 2107.36 2.144 2.42517 0
M  V30 22810 H 2106.26 3.67726 0.687623 0
M  V30 22811 H 2107.6 4.83448 0.924045 0
M  V30 22812 N 2109.25 -0.0501116 1.5752 0
M  V30 22813 C 2110.49 -0.7462 1.88573 0
M  V30 22814 C 2110.83 -1.76115 0.818369 0
M  V30 22815 O 2110.1 -1.93764 -0.169013 0
M  V30 22816 C 2110.39 -1.43474 3.30284 0
M  V30 22817 C 2110.24 -0.434736 4.47694 0
M  V30 22818 C 2111.56 -2.37419 3.70568 0
M  V30 22819 H 2108.68 -0.269807 0.685838 0
M  V30 22820 H 2111.32 -0.00912382 1.89998 0
M  V30 22821 H 2109.47 -2.06301 3.29199 0
M  V30 22822 H 2111.14 0.189992 4.60909 0
M  V30 22823 H 2109.38 0.24799 4.33091 0
M  V30 22824 H 2110.05 -0.954564 5.43684 0
M  V30 22825 H 2112.53 -1.84653 3.72884 0
M  V30 22826 H 2111.41 -2.82587 4.7057 0
M  V30 22827 H 2111.67 -3.2318 3.01674 0
M  V30 22828 N 2110.73 -1.54276 -0.321972 0
M  V30 22829 C 2111.67 -1.83772 -1.3963 0
M  V30 22830 C 2112.64 -0.684941 -1.5132 0
M  V30 22831 O 2113.83 -0.931526 -1.66515 0
M  V30 22832 C 2110.97 -2.07212 -2.75966 0
M  V30 22833 C 2110.08 -3.34892 -2.72895 0
M  V30 22834 C 2109.22 -3.48284 -4.01088 0
M  V30 22835 C 2108.26 -4.69833 -3.9233 0
M  V30 22836 N 2107.39 -4.80144 -5.12256 0
M  V30 22837 H 2112.23 -2.75425 -1.13777 0
M  V30 22838 H 2109.77 -1.36401 -0.550737 0
M  V30 22839 H 2111.73 -2.18794 -3.55225 0
M  V30 22840 H 2110.36 -1.18848 -3.00125 0
M  V30 22841 H 2109.41 -3.32039 -1.85618 0
M  V30 22842 H 2110.72 -4.2426 -2.62307 0
M  V30 22843 H 2109.88 -3.59417 -4.88778 0
M  V30 22844 H 2108.61 -2.57011 -4.14483 0
M  V30 22845 H 2107.62 -4.58755 -3.03024 0
M  V30 22846 H 2108.84 -5.62492 -3.80498 0
M  V30 22847 H 2106.79 -3.91787 -5.26155 0
M  V30 22848 H 2106.71 -5.6348 -5.0401 0
M  V30 22849 H 2107.98 -4.9561 -6.01657 0
M  V30 22850 N 2112.2 0.584116 -1.46376 0
M  V30 22851 C 2113.45 1.33858 -1.5088 0
M  V30 22852 C 2113.77 1.94909 -0.164319 0
M  V30 22853 O 2114.97 2.7136 -0.0871554 0
M  V30 22854 C 2113.43 2.42594 -2.6585 0
M  V30 22855 C 2113.04 1.87853 -4.06713 0
M  V30 22856 C 2114.78 3.19391 -2.79624 0
M  V30 22857 C 2112.69 2.94209 -5.13026 0
M  V30 22858 H 2111.62 0.503207 -0.561515 0
M  V30 22859 H 2114.27 0.623507 -1.72582 0
M  V30 22860 H 2112.65 3.16894 -2.37475 0
M  V30 22861 H 2113.82 1.20105 -4.44872 0
M  V30 22862 H 2112.14 1.23726 -3.97594 0
M  V30 22863 H 2114.74 3.98763 -3.56219 0
M  V30 22864 H 2115.08 3.71891 -1.8709 0
M  V30 22865 H 2115.61 2.52197 -3.07638 0
M  V30 22866 H 2112.35 2.46598 -6.07347 0
M  V30 22867 H 2111.87 3.6045 -4.79412 0
M  V30 22868 H 2113.55 3.58184 -5.38807 0
M  V30 22869 N 2113.68 1.34058 0.828631 0
M  V30 22870 C 2114.65 1.25063 1.92073 0
M  V30 22871 C 2115.65 0.167192 1.59928 0
M  V30 22872 O 2116.84 0.419428 1.69075 0
M  V30 22873 C 2113.97 0.929519 3.27983 0
M  V30 22874 H 2115.16 2.22146 2.01472 0
M  V30 22875 H 2112.71 1.18263 1.02193 0
M  V30 22876 H 2113.45 -0.0383856 3.24277 0
M  V30 22877 H 2113.23 1.71313 3.52696 0
M  V30 22878 H 2114.72 0.891605 4.07971 0
M  V30 22879 N 2115.16 -1.04814 1.17694 0
M  V30 22880 C 2116.39 -1.81287 0.990891 0
M  V30 22881 C 2116.8 -1.83422 -0.464018 0
M  V30 22882 O 2116.14 -1.2629 -1.33403 0
M  V30 22883 C 2116.2 -3.28516 1.46005 0
M  V30 22884 C 2115.87 -3.50056 2.93785 0
M  V30 22885 C 2116.87 -3.41866 3.91693 0
M  V30 22886 C 2114.55 -3.76896 3.32046 0
M  V30 22887 C 2116.54 -3.60206 5.25861 0
M  V30 22888 C 2114.23 -3.94884 4.66379 0
M  V30 22889 C 2115.23 -3.86539 5.63095 0
M  V30 22890 O 2114.92 -4.04021 6.94998 0
M  V30 22891 H 2114.65 -0.577989 0.350578 0
M  V30 22892 H 2117.2 -1.3304 1.56491 0
M  V30 22893 H 2115.43 -3.77696 0.829622 0
M  V30 22894 H 2117.12 -3.86525 1.23908 0
M  V30 22895 H 2117.89 -3.21104 3.6348 0
M  V30 22896 H 2113.77 -3.82493 2.57332 0
M  V30 22897 H 2117.31 -3.53609 6.01337 0
M  V30 22898 H 2113.21 -4.15139 4.94297 0
M  V30 22899 H 2113.98 -4.21225 7.01792 0
M  V30 22900 N 2116.64 -0.977779 -1.23601 0
M  V30 22901 C 2117.89 -0.640749 -1.91252 0
M  V30 22902 C 2118.2 0.829108 -1.77159 0
M  V30 22903 O 2119.41 1.27709 -2.39589 0
M  V30 22904 C 2117.86 -1.09542 -3.42824 0
M  V30 22905 C 2117.47 -2.58944 -3.65584 0
M  V30 22906 C 2119.22 -0.832015 -4.16266 0
M  V30 22907 C 2117.12 -2.98092 -5.10779 0
M  V30 22908 H 2116.05 -0.235949 -0.716131 0
M  V30 22909 H 2118.7 -1.18533 -1.40079 0
M  V30 22910 H 2117.09 -0.479076 -3.93091 0
M  V30 22911 H 2118.26 -3.25795 -3.25875 0
M  V30 22912 H 2116.57 -2.83003 -3.05447 0
M  V30 22913 H 2119.17 -1.10039 -5.23255 0
M  V30 22914 H 2119.51 0.231859 -4.15654 0
M  V30 22915 H 2120.05 -1.40982 -3.7198 0
M  V30 22916 H 2116.79 -4.03592 -5.16521 0
M  V30 22917 H 2116.31 -2.35933 -5.51449 0
M  V30 22918 H 2117.99 -2.88553 -5.79091 0
M  V30 22919 N 2118.12 1.38658 -0.749111 0
M  V30 22920 C 2119.07 2.3235 -0.10773 0
M  V30 22921 C 2120.06 1.5379 0.710284 0
M  V30 22922 O 2121.27 1.69353 0.609885 0
M  V30 22923 H 2117.64 0.751829 -0.0160406 0
M  V30 22924 H 2119.61 2.84055 -0.91408 0
M  V30 22925 C 2118.36 3.38962 0.774615 0
M  V30 22926 H 2117.68 3.99501 0.154555 0
M  V30 22927 H 2119.12 4.06936 1.19076 0
M  V30 22928 C 2117.58 2.77165 1.91524 0
M  V30 22929 O 2118.11 2.66119 3.00904 0
M  V30 22930 N 2116.32 2.35041 1.70892 0
M  V30 22931 H 2115.87 2.44224 0.819286 0
M  V30 22932 H 2115.82 1.94035 2.47382 0
M  V30 22933 N 2119.6 0.497834 1.49531 0
M  V30 22934 C 2120.84 -0.0478087 2.02444 0
M  V30 22935 C 2121.17 -1.37286 1.37778 0
M  V30 22936 O 2120.43 -1.89163 0.501565 0
M  V30 22937 C 2120.72 -0.252156 3.56509 0
M  V30 22938 C 2120.39 0.994505 4.39796 0
M  V30 22939 C 2119.05 1.33624 4.62275 0
M  V30 22940 C 2121.4 1.82331 4.88267 0
M  V30 22941 C 2118.73 2.50636 5.3047 0
M  V30 22942 C 2121.08 2.98493 5.5775 0
M  V30 22943 C 2119.75 3.3305 5.78475 0
M  V30 22944 H 2119.02 -0.0174944 0.740793 0
M  V30 22945 H 2121.67 0.657348 1.79864 0
M  V30 22946 H 2119.97 -1.03981 3.7775 0
M  V30 22947 H 2121.67 -0.68874 3.95041 0
M  V30 22948 H 2118.26 0.718308 4.22538 0
M  V30 22949 H 2122.44 1.57244 4.70731 0
M  V30 22950 H 2117.7 2.77651 5.4472 0
M  V30 22951 H 2121.87 3.63042 5.94284 0
M  V30 22952 H 2119.5 4.23822 6.31093 0
M  V30 22953 N 2121.07 -1.5589 0.231532 0
M  V30 22954 C 2122 -2.23713 -0.66894 0
M  V30 22955 C 2122.98 -1.21219 -1.19332 0
M  V30 22956 O 2124.17 -1.49831 -1.23549 0
M  V30 22957 C 2121.3 -2.92476 -1.87284 0
M  V30 22958 C 2120.25 -4.01527 -1.48189 0
M  V30 22959 C 2119.58 -4.57637 -2.76537 0
M  V30 22960 C 2120.88 -5.18057 -0.664415 0
M  V30 22961 H 2122.57 -2.99221 -0.103437 0
M  V30 22962 H 2120.12 -1.43919 -0.0483103 0
M  V30 22963 H 2122.07 -3.38617 -2.50831 0
M  V30 22964 H 2120.8 -2.14431 -2.46347 0
M  V30 22965 H 2119.46 -3.56131 -0.869833 0
M  V30 22966 H 2119.1 -3.7631 -3.33766 0
M  V30 22967 H 2118.8 -5.31242 -2.51108 0
M  V30 22968 H 2120.33 -5.06503 -3.41009 0
M  V30 22969 H 2121.74 -5.60519 -1.20382 0
M  V30 22970 H 2120.14 -5.97956 -0.506811 0
M  V30 22971 H 2121.21 -4.83798 0.326792 0
M  V30 22972 N 2122.55 0.0417572 -1.57545 0
M  V30 22973 C 2123.5 1.0648 -2.06796 0
M  V30 22974 C 2124.49 1.38234 -0.979162 0
M  V30 22975 O 2125.7 1.37288 -1.16413 0
M  V30 22976 H 2122.07 0.360857 -0.659762 0
M  V30 22977 H 2124.05 0.6235 -2.91813 0
M  V30 22978 C 2122.79 2.36114 -2.55236 0
M  V30 22979 H 2122.12 2.12537 -3.38627 0
M  V30 22980 H 2123.56 3.06072 -2.93421 0
M  V30 22981 C 2122.02 3.04191 -1.44808 0
M  V30 22982 O 2122.55 3.93508 -0.807098 0
M  V30 22983 N 2120.75 2.65308 -1.18574 0
M  V30 22984 H 2120.3 1.92763 -1.70881 0
M  V30 22985 H 2120.26 3.11178 -0.448987 0
M  V30 22986 N 2124.03 1.54445 0.313786 0
M  V30 22987 C 2124.98 1.80892 1.38787 0
M  V30 22988 C 2125.96 0.665408 1.46496 0
M  V30 22989 O 2127.16 0.92569 1.50864 0
M  V30 22990 C 2124.28 2.04839 2.75492 0
M  V30 22991 C 2123.37 3.25339 2.72057 0
M  V30 22992 N 2123.76 4.46179 2.3824 0
M  V30 22993 C 2122.06 3.2711 3.03175 0
M  V30 22994 C 2122.76 5.28152 2.43784 0
M  V30 22995 N 2121.74 4.65566 2.80622 0
M  V30 22996 H 2125.54 2.71893 1.11586 0
M  V30 22997 H 2123.05 1.53771 0.522315 0
M  V30 22998 H 2125.05 2.2193 3.52921 0
M  V30 22999 H 2123.71 1.15098 3.03616 0
M  V30 23000 H 2124.72 4.73006 2.10915 0
M  V30 23001 H 2121.4 2.47434 3.36277 0
M  V30 23002 H 2122.79 6.34672 2.20546 0
M  V30 23003 N 2125.51 -0.576345 1.46683 0
M  V30 23004 C 2126.75 -1.3453 1.53886 0
M  V30 23005 C 2127.11 -1.91071 0.188643 0
M  V30 23006 O 2128.31 -2.68459 0.135445 0
M  V30 23007 C 2126.58 -2.4398 2.61168 0
M  V30 23008 S 2128.14 -3.31217 2.87821 0
M  V30 23009 H 2124.96 -0.458249 0.543626 0
M  V30 23010 H 2127.56 -0.661885 1.83955 0
M  V30 23011 H 2126.27 -2.00844 3.57896 0
M  V30 23012 H 2125.8 -3.17086 2.32852 0
M  V30 23013 H 2127.81 -4.42977 2.23576 0
M  V30 23014 N 2126.99 -1.34495 -0.82151 0
M  V30 23015 C 2128.22 -1.29823 -1.60716 0
M  V30 23016 C 2128.62 0.129564 -1.88756 0
M  V30 23017 O 2127.97 1.0875 -1.48051 0
M  V30 23018 C 2128.03 -2.02237 -2.97221 0
M  V30 23019 C 2127.69 -3.51489 -2.92069 0
M  V30 23020 C 2128.69 -4.46369 -2.66554 0
M  V30 23021 C 2126.37 -3.93923 -3.11657 0
M  V30 23022 C 2128.37 -5.81657 -2.6068 0
M  V30 23023 C 2126.06 -5.2931 -3.05408 0
M  V30 23024 C 2127.05 -6.22989 -2.79953 0
M  V30 23025 O 2126.74 -7.55895 -2.73638 0
M  V30 23026 H 2126.47 -0.44801 -0.506225 0
M  V30 23027 H 2129.03 -1.77704 -1.03008 0
M  V30 23028 H 2127.26 -1.48972 -3.56853 0
M  V30 23029 H 2128.95 -1.90836 -3.58241 0
M  V30 23030 H 2129.71 -4.14905 -2.51155 0
M  V30 23031 H 2125.59 -3.21403 -3.30486 0
M  V30 23032 H 2129.14 -6.54747 -2.40732 0
M  V30 23033 H 2125.03 -5.60392 -3.20361 0
M  V30 23034 H 2125.8 -7.65647 -2.89355 0
M  V30 23035 N 2128.46 1.04188 -1.18248 0
M  V30 23036 C 2129.71 1.7763 -0.978539 0
M  V30 23037 C 2130.04 1.87897 0.490757 0
M  V30 23038 O 2129.32 1.38617 1.36439 0
M  V30 23039 C 2129.6 3.20968 -1.63252 0
M  V30 23040 C 2129.45 3.18653 -3.1746 0
M  V30 23041 C 2130.77 4.19052 -1.34475 0
M  V30 23042 H 2127.89 0.644817 -0.356903 0
M  V30 23043 H 2130.53 1.21713 -1.45897 0
M  V30 23044 H 2128.68 3.68714 -1.22402 0
M  V30 23045 H 2130.36 2.78906 -3.67436 0
M  V30 23046 H 2128.6 2.56717 -3.49684 0
M  V30 23047 H 2129.27 4.19864 -3.58354 0
M  V30 23048 H 2131.75 3.79848 -1.69868 0
M  V30 23049 H 2130.62 5.17565 -1.82804 0
M  V30 23050 H 2130.88 4.41291 -0.267408 0
M  V30 23051 N 2129.94 0.98432 1.23081 0
M  V30 23052 C 2131.22 0.571642 1.8706 0
M  V30 23053 C 2131.6 -0.951185 1.88456 0
M  V30 23054 O 2130.95 -1.82954 1.36894 0
M  V30 23055 C 2131.16 1.18221 3.28367 0
M  V30 23056 C 2132.51 1.27739 4.04929 0
M  V30 23057 O 2133.53 1.13596 3.37601 0
M  V30 23058 O 2132.39 1.50282 5.25431 0
M  V30 23059 H 2129.48 0.193027 0.804158 0
M  V30 23060 H 2132.03 1.07965 1.30926 0
M  V30 23061 H 2130.8 2.22421 3.21939 0
M  V30 23062 H 2130.42 0.65926 3.92096 0
M  V30 23063 N 2131.42 -1.38259 0.756453 0
M  V30 23064 C 2132.65 -2.04335 0.324799 0
M  V30 23065 C 2133.06 -1.57053 -1.04784 0
M  V30 23066 O 2132.42 -0.744882 -1.66607 0
M  V30 23067 C 2132.47 -3.59882 0.341597 0
M  V30 23068 O 2132.19 -4.0543 1.66008 0
M  V30 23069 C 2133.69 -4.43179 -0.103565 0
M  V30 23070 H 2130.91 -0.656588 0.138324 0
M  V30 23071 H 2133.46 -1.76894 1.02611 0
M  V30 23072 H 2131.61 -3.8615 -0.310997 0
M  V30 23073 H 2132.03 -4.99876 1.58822 0
M  V30 23074 H 2133.5 -5.51985 -0.0406515 0
M  V30 23075 H 2133.98 -4.23827 -1.15185 0
M  V30 23076 H 2134.58 -4.22106 0.520263 0
M  V30 23077 N 2132.9 -0.505757 -1.49264 0
M  V30 23078 C 2133.81 0.274574 -2.32988 0
M  V30 23079 C 2134.82 0.962724 -1.4494 0
M  V30 23080 O 2136 0.943054 -1.77956 0
M  V30 23081 C 2133.07 1.32231 -3.20493 0
M  V30 23082 C 2132.13 0.64709 -4.24395 0
M  V30 23083 C 2131.36 1.6449 -5.07719 0
M  V30 23084 O 2131.58 2.87523 -4.92632 0
M  V30 23085 O 2130.52 1.19761 -5.89865 0
M  V30 23086 H 2134.34 -0.410833 -3.00908 0
M  V30 23087 H 2131.93 -0.267017 -1.46994 0
M  V30 23088 H 2133.81 1.92838 -3.74689 0
M  V30 23089 H 2132.48 1.99056 -2.55262 0
M  V30 23090 H 2131.39 0.00115278 -3.741 0
M  V30 23091 H 2132.72 0.0212046 -4.92195 0
M  V30 23092 N 2134.38 1.55765 -0.239796 0
M  V30 23093 C 2135.62 1.99064 0.387489 0
M  V30 23094 C 2135.96 1.12765 1.58107 0
M  V30 23095 O 2135.23 0.189423 1.93575 0
M  V30 23096 C 2135.51 3.51003 0.80429 0
M  V30 23097 C 2135.37 4.48069 -0.394185 0
M  V30 23098 C 2136.69 4.07842 1.65386 0
M  V30 23099 H 2133.8 0.723702 0.139371 0
M  V30 23100 H 2136.45 1.86939 -0.339685 0
M  V30 23101 H 2134.6 3.61466 1.42388 0
M  V30 23102 H 2136.27 4.49595 -1.03255 0
M  V30 23103 H 2134.51 4.21186 -1.03852 0
M  V30 23104 H 2135.18 5.51968 -0.0593288 0
M  V30 23105 H 2137.66 4.00437 1.13092 0
M  V30 23106 H 2136.53 5.14435 1.91436 0
M  V30 23107 H 2136.8 3.55856 2.62333 0
M  V30 23108 N 2135.85 -0.0334016 1.57565 0
M  V30 23109 C 2136.76 -1.05241 2.0967 0
M  V30 23110 C 2137.78 -1.39917 1.03437 0
M  V30 23111 O 2138.96 -1.49324 1.35146 0
M  V30 23112 C 2136.02 -2.3357 2.56215 0
M  V30 23113 C 2135.08 -2.05514 3.76912 0
M  V30 23114 C 2134.32 -3.27724 4.21227 0
M  V30 23115 O 2134.54 -4.38244 3.65101 0
M  V30 23116 O 2133.47 -3.13679 5.13701 0
M  V30 23117 H 2137.3 -0.639612 2.96888 0
M  V30 23118 H 2134.88 -0.250101 1.47292 0
M  V30 23119 H 2136.77 -3.09022 2.86502 0
M  V30 23120 H 2135.44 -2.74153 1.7211 0
M  V30 23121 H 2134.35 -1.27644 3.5165 0
M  V30 23122 H 2135.68 -1.69789 4.61988 0
M  V30 23123 N 2137.33 -1.54609 -0.305591 0
M  V30 23124 C 2138.27 -1.80117 -1.40119 0
M  V30 23125 C 2139.24 -0.652099 -1.48951 0
M  V30 23126 O 2140.43 -0.891546 -1.66083 0
M  V30 23127 C 2137.55 -1.93379 -2.78069 0
M  V30 23128 C 2136.6 -3.15778 -2.86682 0
M  V30 23129 S 2137.43 -4.73958 -2.49247 0
M  V30 23130 C 2138.59 -4.90151 -3.89234 0
M  V30 23131 H 2138.82 -2.72762 -1.18272 0
M  V30 23132 H 2136.36 -1.45962 -0.503446 0
M  V30 23133 H 2138.31 -2.01706 -3.57526 0
M  V30 23134 H 2136.97 -1.0168 -2.97187 0
M  V30 23135 H 2136.17 -3.21846 -3.87854 0
M  V30 23136 H 2135.77 -3.05874 -2.15214 0
M  V30 23137 H 2138.06 -4.73892 -4.84183 0
M  V30 23138 H 2139 -5.92245 -3.88138 0
M  V30 23139 H 2139.41 -4.18332 -3.79023 0
M  V30 23140 N 2138.81 0.568558 -1.46987 0
M  V30 23141 C 2139.76 1.67655 -1.5862 0
M  V30 23142 C 2140.73 1.60444 -0.429761 0
M  V30 23143 O 2141.91 1.79446 -0.648355 0
M  V30 23144 C 2139.05 3.05988 -1.59578 0
M  V30 23145 C 2138.17 3.2372 -2.86058 0
M  V30 23146 C 2137.3 4.52385 -2.78427 0
M  V30 23147 C 2136.34 4.63509 -3.99782 0
M  V30 23148 N 2135.48 5.83515 -3.90454 0
M  V30 23149 H 2140.32 1.5705 -2.53257 0
M  V30 23150 H 2137.85 0.765211 -1.2563 0
M  V30 23151 H 2139.81 3.86076 -1.58118 0
M  V30 23152 H 2138.44 3.15456 -0.684628 0
M  V30 23153 H 2137.49 2.37141 -2.97436 0
M  V30 23154 H 2138.81 3.27806 -3.75959 0
M  V30 23155 H 2137.96 5.40718 -2.75152 0
M  V30 23156 H 2136.7 4.5076 -1.86191 0
M  V30 23157 H 2135.7 3.7359 -4.03374 0
M  V30 23158 H 2136.93 4.66902 -4.93132 0
M  V30 23159 H 2134.87 5.82861 -3.01013 0
M  V30 23160 H 2134.79 5.8893 -4.74022 0
M  V30 23161 H 2136.06 6.74241 -3.91177 0
M  V30 23162 N 2140.29 1.34929 0.814366 0
M  V30 23163 C 2141.2 1.29305 1.95748 0
M  V30 23164 C 2142.21 0.199261 1.72855 0
M  V30 23165 O 2143.39 0.427261 1.96816 0
M  V30 23166 C 2140.46 1.05688 3.30198 0
M  V30 23167 C 2139.52 2.24305 3.6604 0
M  V30 23168 C 2138.75 2.01805 4.94075 0
M  V30 23169 O 2138.97 0.980584 5.61908 0
M  V30 23170 O 2137.91 2.88973 5.27995 0
M  V30 23171 H 2141.73 2.25492 2.03438 0
M  V30 23172 H 2139.32 1.15222 0.951017 0
M  V30 23173 H 2141.2 0.943332 4.10706 0
M  V30 23174 H 2139.87 0.125466 3.23457 0
M  V30 23175 H 2138.78 2.41222 2.85942 0
M  V30 23176 H 2140.11 3.15866 3.77478 0
M  V30 23177 N 2141.77 -1.0356 1.18799 0
M  V30 23178 C 2143.02 -1.76246 0.980824 0
M  V30 23179 C 2143.33 -1.89365 -0.489935 0
M  V30 23180 O 2144.53 -2.58955 -0.815746 0
M  V30 23181 C 2142.99 -3.16901 1.70592 0
M  V30 23182 C 2142.6 -3.11859 3.21633 0
M  V30 23183 C 2144.34 -3.9393 1.58175 0
M  V30 23184 C 2142.25 -4.47404 3.8676 0
M  V30 23185 H 2141.18 -0.660673 0.363355 0
M  V30 23186 H 2143.83 -1.15949 1.42225 0
M  V30 23187 H 2142.21 -3.77625 1.19228 0
M  V30 23188 H 2143.39 -2.60556 3.80062 0
M  V30 23189 H 2141.7 -2.48328 3.34249 0
M  V30 23190 H 2144.3 -4.94177 2.0419 0
M  V30 23191 H 2144.64 -4.1285 0.534821 0
M  V30 23192 H 2145.17 -3.39792 2.06848 0
M  V30 23193 H 2141.91 -4.33688 4.91523 0
M  V30 23194 H 2141.43 -4.9879 3.3312 0
M  V30 23195 H 2143.11 -5.16306 3.89919 0
M  V30 23196 N 2143.25 -0.990834 -1.22557 0
M  V30 23197 C 2144.48 -0.682909 -1.94987 0
M  V30 23198 C 2144.88 0.756108 -1.73435 0
M  V30 23199 O 2144.23 1.52164 -1.02917 0
M  V30 23200 C 2144.29 -0.906413 -3.47886 0
M  V30 23201 C 2143.95 -2.32951 -3.9317 0
M  V30 23202 C 2144.95 -3.30889 -4.0101 0
M  V30 23203 C 2142.63 -2.66339 -4.25874 0
M  V30 23204 C 2144.63 -4.60288 -4.40923 0
M  V30 23205 C 2142.32 -3.95959 -4.65467 0
M  V30 23206 C 2143.31 -4.92745 -4.7296 0
M  V30 23207 O 2143 -6.20049 -5.11659 0
M  V30 23208 H 2142.73 -0.251924 -0.627304 0
M  V30 23209 H 2145.29 -1.32775 -1.56717 0
M  V30 23210 H 2143.52 -0.204401 -3.86159 0
M  V30 23211 H 2145.21 -0.594054 -4.01529 0
M  V30 23212 H 2145.97 -3.06426 -3.75936 0
M  V30 23213 H 2141.85 -1.91709 -4.19248 0
M  V30 23214 H 2145.4 -5.35833 -4.46687 0
M  V30 23215 H 2141.29 -4.20211 -4.89992 0
M  V30 23216 H 2142.06 -6.23955 -5.29738 0
M  V30 23217 N 2144.72 1.37856 -0.763775 0
M  V30 23218 C 2145.95 2.0416 -0.335631 0
M  V30 23219 C 2146.37 1.57607 1.0395 0
M  V30 23220 O 2145.72 0.753707 1.66209 0
M  V30 23221 C 2145.77 3.59696 -0.360678 0
M  V30 23222 O 2145.5 4.04543 -1.68155 0
M  V30 23223 C 2147 4.43228 0.080061 0
M  V30 23224 H 2144.22 0.655845 -0.141805 0
M  V30 23225 H 2146.76 1.76347 -1.03547 0
M  V30 23226 H 2144.92 3.86309 0.290514 0
M  V30 23227 H 2145.33 4.99027 -1.6147 0
M  V30 23228 H 2146.8 5.51999 0.0113779 0
M  V30 23229 H 2147.28 4.24432 1.12936 0
M  V30 23230 H 2147.89 4.21824 -0.542641 0
M  V30 23231 N 2146.2 0.513665 1.48994 0
M  V30 23232 C 2147.43 -0.0248975 2.07385 0
M  V30 23233 C 2147.85 -1.28903 1.36987 0
M  V30 23234 O 2147.21 -1.76113 0.430588 0
M  V30 23235 C 2147.26 -0.248634 3.59742 0
M  V30 23236 O 2146.36 -1.32076 3.90679 0
M  V30 23237 H 2145.7 0.0318565 0.663235 0
M  V30 23238 H 2148.23 0.716913 1.91629 0
M  V30 23239 H 2148.24 -0.476291 4.0521 0
M  V30 23240 H 2146.92 0.674899 4.10388 0
M  V30 23241 H 2145.49 -1.07705 3.57007 0
M  V30 23242 N 2147.68 -1.55636 0.248053 0
M  V30 23243 C 2148.63 -2.22824 -0.667239 0
M  V30 23244 C 2149.62 -1.2162 -1.17919 0
M  V30 23245 O 2150.83 -1.39629 -1.13595 0
M  V30 23246 H 2147.2 -0.714778 -0.23366 0
M  V30 23247 H 2149.17 -2.983 -0.0774218 0
M  V30 23248 C 2147.92 -2.9423 -1.85267 0
M  V30 23249 H 2147.25 -3.71878 -1.46789 0
M  V30 23250 H 2148.69 -3.44604 -2.47031 0
M  V30 23251 C 2147.14 -1.98169 -2.72453 0
M  V30 23252 O 2147.67 -1.5155 -3.72016 0
M  V30 23253 N 2145.88 -1.65246 -2.39044 0
M  V30 23254 H 2145.43 -2.03352 -1.58132 0
M  V30 23255 H 2145.39 -1.01239 -2.97654 0
M  V30 23256 N 2149.16 0.0250451 -1.5758 0
M  V30 23257 C 2150.11 1.03236 -2.03289 0
M  V30 23258 C 2151.09 1.31798 -0.922936 0
M  V30 23259 O 2152.28 1.31315 -1.18681 0
M  V30 23260 C 2149.41 2.33225 -2.51915 0
M  V30 23261 C 2148.5 2.07736 -3.69739 0
M  V30 23262 N 2148.89 1.52319 -4.8232 0
M  V30 23263 C 2147.19 2.38001 -3.77189 0
M  V30 23264 C 2147.89 1.42727 -5.63918 0
M  V30 23265 N 2146.86 1.90424 -5.09156 0
M  V30 23266 H 2150.67 0.597974 -2.87752 0
M  V30 23267 H 2148.18 0.231268 -1.60745 0
M  V30 23268 H 2150.18 3.06202 -2.82923 0
M  V30 23269 H 2148.84 2.77339 -1.68859 0
M  V30 23270 H 2149.85 1.20535 -5.03678 0
M  V30 23271 H 2146.53 2.85162 -3.04941 0
M  V30 23272 H 2147.92 1.00336 -6.64366 0
M  V30 23273 N 2150.64 1.54769 0.297388 0
M  V30 23274 C 2151.57 1.80857 1.39161 0
M  V30 23275 C 2152.55 0.659989 1.48603 0
M  V30 23276 O 2153.73 0.900341 1.65608 0
M  V30 23277 C 2150.86 1.94851 2.77039 0
M  V30 23278 C 2149.9 3.17294 2.85003 0
M  V30 23279 S 2150.74 4.75273 2.4673 0
M  V30 23280 C 2151.89 4.92208 3.86629 0
M  V30 23281 H 2152.13 2.73385 1.16824 0
M  V30 23282 H 2149.66 1.46227 0.495698 0
M  V30 23283 H 2151.62 2.03599 3.56452 0
M  V30 23284 H 2150.28 1.03255 2.96643 0
M  V30 23285 H 2149.47 3.23899 3.86142 0
M  V30 23286 H 2149.07 3.07011 2.13589 0
M  V30 23287 H 2151.36 4.76453 4.81663 0
M  V30 23288 H 2152.31 5.94295 3.84992 0
M  V30 23289 H 2152.72 4.20336 3.76799 0
M  V30 23290 N 2152.11 -0.560755 1.47286 0
M  V30 23291 C 2153.36 -1.31776 1.54941 0
M  V30 23292 C 2153.71 -1.91279 0.20742 0
M  V30 23293 O 2153.01 -1.74714 -0.786485 0
M  V30 23294 C 2153.2 -2.45125 2.60093 0
M  V30 23295 C 2153.03 -1.96729 4.04386 0
M  V30 23296 C 2151.8 -1.80734 4.71872 0
M  V30 23297 C 2154 -1.51386 4.91515 0
M  V30 23298 N 2151.98 -1.2664 6.00696 0
M  V30 23299 C 2153.35 -1.09033 6.10337 0
M  V30 23300 C 2155.41 -1.39405 4.77986 0
M  V30 23301 C 2154.11 -0.558905 7.17125 0
M  V30 23302 C 2156.14 -0.87664 5.84867 0
M  V30 23303 C 2155.5 -0.463017 7.02877 0
M  V30 23304 H 2151.6 -0.474363 0.621694 0
M  V30 23305 H 2154.18 -0.636029 1.84018 0
M  V30 23306 H 2152.35 -3.10833 2.32889 0
M  V30 23307 H 2154.08 -3.12119 2.57612 0
M  V30 23308 H 2150.84 -2.03343 4.27725 0
M  V30 23309 H 2151.26 -1.01691 6.69319 0
M  V30 23310 H 2155.9 -1.69996 3.87119 0
M  V30 23311 H 2153.62 -0.240613 8.07742 0
M  V30 23312 H 2157.21 -0.78754 5.76445 0
M  V30 23313 H 2156.09 -0.0688485 7.8417 0
M  V30 23314 N 2153.59 -1.35359 -0.807199 0
M  V30 23315 C 2154.54 -1.2823 -1.919 0
M  V30 23316 C 2155.51 -0.154371 -1.65381 0
M  V30 23317 O 2156.69 -0.337971 -1.87783 0
M  V30 23318 C 2153.83 -1.05957 -3.28431 0
M  V30 23319 C 2152.95 -2.27666 -3.6714 0
M  V30 23320 C 2152.08 -1.98548 -4.92699 0
M  V30 23321 C 2151.12 -3.16315 -5.24034 0
M  V30 23322 N 2150.26 -2.86976 -6.40772 0
M  V30 23323 H 2155.1 -2.23305 -1.97329 0
M  V30 23324 H 2152.63 -1.11004 -0.965216 0
M  V30 23325 H 2154.59 -0.910752 -4.07138 0
M  V30 23326 H 2153.22 -0.145447 -3.22472 0
M  V30 23327 H 2152.27 -2.53414 -2.83699 0
M  V30 23328 H 2153.59 -3.15606 -3.86257 0
M  V30 23329 H 2152.74 -1.80493 -5.7923 0
M  V30 23330 H 2151.48 -1.07893 -4.75616 0
M  V30 23331 H 2150.48 -3.34948 -4.35993 0
M  V30 23332 H 2151.71 -4.07771 -5.43047 0
M  V30 23333 H 2149.66 -1.98914 -6.25115 0
M  V30 23334 H 2149.57 -3.6845 -6.60137 0
M  V30 23335 H 2150.84 -2.72461 -7.30332 0
M  V30 23336 N 2155.07 1.02928 -1.19346 0
M  V30 23337 C 2156 2.13099 -0.954528 0
M  V30 23338 C 2156.98 1.69731 0.111965 0
M  V30 23339 O 2158.17 1.94152 -0.0429718 0
M  V30 23340 C 2155.3 3.43798 -0.491955 0
M  V30 23341 C 2154.25 4.00845 -1.50024 0
M  V30 23342 C 2153.58 5.2716 -0.894759 0
M  V30 23343 C 2154.88 4.35699 -2.88035 0
M  V30 23344 H 2156.57 2.33345 -1.87592 0
M  V30 23345 H 2154.12 1.1214 -0.903366 0
M  V30 23346 H 2156.07 4.20243 -0.312095 0
M  V30 23347 H 2154.79 3.23272 0.46503 0
M  V30 23348 H 2153.45 3.26495 -1.66724 0
M  V30 23349 H 2153.1 5.02952 0.0697668 0
M  V30 23350 H 2152.8 5.66291 -1.56805 0
M  V30 23351 H 2154.32 6.06272 -0.725685 0
M  V30 23352 H 2155.74 5.03083 -2.7492 0
M  V30 23353 H 2154.13 4.8591 -3.52152 0
M  V30 23354 H 2155.2 3.45019 -3.4072 0
M  V30 23355 N 2156.55 0.997319 1.2203 0
M  V30 23356 C 2157.79 0.675666 1.90895 0
M  V30 23357 C 2158.12 -0.792764 1.77611 0
M  V30 23358 O 2157.38 -1.58936 1.14183 0
M  V30 23359 C 2157.68 1.0329 3.42149 0
M  V30 23360 C 2157.34 2.49432 3.75625 0
M  V30 23361 C 2156 2.89368 3.84473 0
M  V30 23362 C 2158.36 3.44136 3.91433 0
M  V30 23363 C 2155.68 4.22987 4.0657 0
M  V30 23364 C 2158.04 4.77419 4.15035 0
M  V30 23365 C 2156.7 5.17089 4.22108 0
M  V30 23366 H 2155.97 0.247244 0.698535 0
M  V30 23367 H 2158.62 1.25433 1.44703 0
M  V30 23368 H 2156.92 0.372375 3.90026 0
M  V30 23369 H 2158.62 0.761993 3.93694 0
M  V30 23370 H 2155.21 2.17479 3.69325 0
M  V30 23371 H 2159.39 3.14451 3.83972 0
M  V30 23372 H 2154.65 4.53305 4.10274 0
M  V30 23373 H 2158.82 5.50743 4.2621 0
M  V30 23374 H 2156.45 6.20643 4.38983 0
M  V30 23375 N 2158.03 -1.37449 0.771075 0
M  V30 23376 C 2158.94 -2.3407 0.157631 0
M  V30 23377 C 2159.95 -1.60145 -0.680404 0
M  V30 23378 O 2161.13 -1.9224 -0.600482 0
M  V30 23379 C 2158.19 -3.39316 -0.711733 0
M  V30 23380 C 2157.25 -4.29063 0.142682 0
M  V30 23381 C 2156.49 -5.29282 -0.685284 0
M  V30 23382 O 2156.71 -5.37029 -1.92241 0
M  V30 23383 O 2155.64 -6.01825 -0.0948431 0
M  V30 23384 H 2159.47 -2.8826 0.956036 0
M  V30 23385 H 2157.06 -1.39598 0.532224 0
M  V30 23386 H 2158.94 -4.03713 -1.20806 0
M  V30 23387 H 2157.61 -2.87455 -1.48834 0
M  V30 23388 H 2156.52 -3.67769 0.685357 0
M  V30 23389 H 2157.85 -4.84227 0.882356 0
M  V30 23390 N 2159.5 -0.52156 -1.4872 0
M  V30 23391 C 2160.45 0.259278 -2.3115 0
M  V30 23392 C 2161.45 0.943463 -1.40695 0
M  V30 23393 O 2162.65 0.868807 -1.57644 0
M  V30 23394 H 2159.03 0.10248 -0.744984 0
M  V30 23395 H 2161 -0.455653 -2.94901 0
M  V30 23396 C 2159.75 1.29841 -3.22547 0
M  V30 23397 H 2159.07 0.781352 -3.9209 0
M  V30 23398 H 2160.51 1.81634 -3.83125 0
M  V30 23399 C 2158.97 2.32757 -2.43569 0
M  V30 23400 O 2159.5 3.39036 -2.15448 0
M  V30 23401 N 2157.71 2.05753 -2.05217 0
M  V30 23402 H 2157.25 1.19343 -2.28287 0
M  V30 23403 H 2157.21 2.74836 -1.52685 0
M  V30 23404 N 2160.98 1.55502 -0.256304 0
M  V30 23405 C 2162.23 1.99168 0.365812 0
M  V30 23406 C 2162.56 1.14455 1.57259 0
M  V30 23407 O 2161.81 0.197615 1.947 0
M  V30 23408 C 2162.11 3.48098 0.810077 0
M  V30 23409 C 2161.78 4.49967 -0.289975 0
M  V30 23410 C 2160.44 4.77544 -0.592079 0
M  V30 23411 C 2162.79 5.10877 -1.03217 0
M  V30 23412 C 2160.12 5.63304 -1.64029 0
M  V30 23413 C 2162.47 5.97775 -2.06996 0
M  V30 23414 C 2161.14 6.23681 -2.37861 0
M  V30 23415 H 2160.41 0.728809 0.13386 0
M  V30 23416 H 2163.05 1.87968 -0.366092 0
M  V30 23417 H 2161.36 3.56679 1.62134 0
M  V30 23418 H 2163.05 3.79279 1.30186 0
M  V30 23419 H 2159.64 4.28577 -0.0443795 0
M  V30 23420 H 2163.83 4.89612 -0.812025 0
M  V30 23421 H 2159.08 5.81628 -1.88465 0
M  V30 23422 H 2163.26 6.44013 -2.64992 0
M  V30 23423 H 2160.89 6.89929 -3.19221 0
M  V30 23424 N 2162.46 -0.0166879 1.57591 0
M  V30 23425 C 2163.39 -1.01268 2.10398 0
M  V30 23426 C 2164.37 -1.36922 1.00928 0
M  V30 23427 O 2165.56 -1.45589 1.2852 0
M  V30 23428 C 2162.69 -2.30979 2.59357 0
M  V30 23429 C 2161.64 -2.09533 3.73202 0
M  V30 23430 C 2160.97 -3.45113 4.08413 0
M  V30 23431 C 2162.27 -1.47144 5.01145 0
M  V30 23432 H 2163.96 -0.573053 2.93865 0
M  V30 23433 H 2161.51 -0.274203 1.41365 0
M  V30 23434 H 2163.46 -3.00996 2.94923 0
M  V30 23435 H 2162.18 -2.77024 1.72989 0
M  V30 23436 H 2160.84 -1.41946 3.38004 0
M  V30 23437 H 2160.49 -3.88829 3.19094 0
M  V30 23438 H 2160.19 -3.31585 4.85104 0
M  V30 23439 H 2161.71 -4.16472 4.46524 0
M  V30 23440 H 2163.13 -2.07094 5.34588 0
M  V30 23441 H 2161.53 -1.44154 5.82529 0
M  V30 23442 H 2162.6 -0.438665 4.82912 0
M  V30 23443 N 2163.94 -1.54924 -0.289176 0
M  V30 23444 C 2165.18 -1.75025 -1.0244 0
M  V30 23445 C 2165.52 -0.540906 -1.86515 0
M  V30 23446 O 2164.79 0.461833 -1.88937 0
M  V30 23447 C 2165.08 -3.04611 -1.92052 0
M  V30 23448 C 2164.93 -4.35869 -1.11079 0
M  V30 23449 C 2166.25 -3.30134 -2.91032 0
M  V30 23450 H 2163.37 -0.636806 -0.371008 0
M  V30 23451 H 2166.01 -1.87647 -0.298076 0
M  V30 23452 H 2164.16 -2.93981 -2.53983 0
M  V30 23453 H 2165.83 -4.58434 -0.513434 0
M  V30 23454 H 2164.07 -4.31822 -0.41379 0
M  V30 23455 H 2164.74 -5.22832 -1.7706 0
M  V30 23456 H 2167.22 -3.40451 -2.39233 0
M  V30 23457 H 2166.1 -4.221 -3.50889 0
M  V30 23458 H 2166.36 -2.48995 -3.65314 0
M  V30 23459 N 2165.42 0.552936 -1.47582 0
M  V30 23460 C 2166.69 1.31381 -1.44908 0
M  V30 23461 C 2167.07 2.10578 -0.148323 0
M  V30 23462 O 2166.42 2.11283 0.870167 0
M  V30 23463 C 2166.63 2.21471 -2.69725 0
M  V30 23464 C 2167.98 2.82353 -3.17115 0
M  V30 23465 O 2169 2.31771 -2.70482 0
M  V30 23466 O 2167.86 3.74302 -3.98196 0
M  V30 23467 H 2164.96 0.591798 -0.577672 0
M  V30 23468 H 2167.5 0.571486 -1.59788 0
M  V30 23469 H 2166.27 1.62579 -3.55926 0
M  V30 23470 H 2165.9 3.02992 -2.57452 0
M  V30 23471 N 2166.89 1.35785 0.800009 0
M  V30 23472 C 2168.14 1.28759 1.55255 0
M  V30 23473 C 2168.46 -0.134123 1.9514 0
M  V30 23474 O 2169.66 -0.3267 2.69527 0
M  V30 23475 C 2168.12 2.25848 2.80215 0
M  V30 23476 C 2167.73 3.73399 2.47542 0
M  V30 23477 C 2169.47 2.27777 3.58215 0
M  V30 23478 C 2167.38 4.62293 3.68834 0
M  V30 23479 H 2166.31 0.478422 0.582777 0
M  V30 23480 H 2168.96 1.61087 0.878812 0
M  V30 23481 H 2167.34 1.86499 3.49334 0
M  V30 23482 H 2168.51 4.21421 1.86389 0
M  V30 23483 H 2166.83 3.74142 1.82775 0
M  V30 23484 H 2169.43 2.91406 4.48315 0
M  V30 23485 H 2169.77 1.28334 3.96025 0
M  V30 23486 H 2170.3 2.65688 2.96065 0
M  V30 23487 H 2167.04 5.6276 3.36127 0
M  V30 23488 H 2166.56 4.18993 4.29191 0
M  V30 23489 H 2168.24 4.78042 4.35987 0
M  V30 23490 N 2168.37 -1.02294 1.19891 0
M  V30 23491 C 2169.61 -1.77338 1.01639 0
M  V30 23492 C 2169.98 -1.86787 -0.444383 0
M  V30 23493 O 2171.18 -2.58215 -0.746892 0
M  V30 23494 C 2169.45 -3.15777 1.67392 0
M  V30 23495 S 2171.01 -4.06937 1.64158 0
M  V30 23496 H 2167.83 -0.610403 0.364594 0
M  V30 23497 H 2170.43 -1.22528 1.52339 0
M  V30 23498 H 2169.13 -3.06521 2.72897 0
M  V30 23499 H 2168.66 -3.75662 1.16796 0
M  V30 23500 H 2170.68 -4.91656 0.669964 0
M  V30 23501 N 2169.85 -1.00378 -1.21499 0
M  V30 23502 C 2171.27 -0.71638 -1.42619 0
M  V30 23503 C 2171.47 0.70891 -1.88618 0
M  V30 23504 O 2170.52 1.47842 -2.04693 0
M  V30 23505 C 2171.84 -1.7312 -2.45866 0
M  V30 23506 C 2173.38 -1.74788 -2.5965 0
M  V30 23507 C 2173.86 -2.75162 -3.66128 0
M  V30 23508 N 2175.35 -2.73823 -3.73598 0
M  V30 23509 C 2176.08 -3.48149 -4.55609 0
M  V30 23510 N 2175.58 -4.32111 -5.41527 0
M  V30 23511 N 2177.37 -3.36805 -4.50021 0
M  V30 23512 H 2169.52 -1.92412 -0.899518 0
M  V30 23513 H 2171.79 -0.830441 -0.457244 0
M  V30 23514 H 2171.49 -2.75165 -2.19036 0
M  V30 23515 H 2171.37 -1.53287 -3.44649 0
M  V30 23516 H 2173.75 -0.734346 -2.85817 0
M  V30 23517 H 2173.84 -1.98693 -1.61105 0
M  V30 23518 H 2173.48 -3.76671 -3.40707 0
M  V30 23519 H 2173.41 -2.48523 -4.64267 0
M  V30 23520 H 2175.9 -2.12907 -3.12216 0
M  V30 23521 H 2176.21 -4.85624 -6.01156 0
M  V30 23522 H 2174.56 -4.36194 -5.41073 0
M  V30 23523 H 2177.75 -2.70643 -3.81929 0
M  V30 23524 H 2177.92 -3.94986 -5.13702 0
M  V30 23525 N 2171.33 1.37038 -0.778354 0
M  V30 23526 C 2172.29 2.28529 -0.175271 0
M  V30 23527 C 2173.29 1.48328 0.62093 0
M  V30 23528 O 2174.48 1.68459 0.443548 0
M  V30 23529 C 2171.61 3.32349 0.758757 0
M  V30 23530 H 2172.81 2.83372 -0.981858 0
M  V30 23531 H 2170.36 1.46415 -0.547012 0
M  V30 23532 H 2171.09 2.82642 1.5901 0
M  V30 23533 H 2170.88 3.9164 0.189916 0
M  V30 23534 H 2172.37 4.00701 1.17594 0
M  V30 23535 N 2172.81 0.529439 1.48441 0
M  V30 23536 C 2174.05 -0.00285821 2.044 0
M  V30 23537 C 2174.41 -1.31631 1.39776 0
M  V30 23538 O 2175.61 -1.93461 1.86618 0
M  V30 23539 C 2173.88 -0.122915 3.57189 0
M  V30 23540 S 2175.44 -0.605355 4.34604 0
M  V30 23541 H 2172.26 0.0118032 0.710902 0
M  V30 23542 H 2174.86 0.709877 1.82157 0
M  V30 23543 H 2173.57 0.837857 4.01756 0
M  V30 23544 H 2173.1 -0.860045 3.83884 0
M  V30 23545 H 2175.11 -1.86995 4.59616 0
M  V30 23546 N 2174.29 -1.55364 0.264547 0
M  V30 23547 C 2175.23 -2.23519 -0.643568 0
M  V30 23548 C 2176.23 -1.22864 -1.16622 0
M  V30 23549 O 2177.43 -1.40826 -1.12108 0
M  V30 23550 H 2173.81 -0.717216 -0.226066 0
M  V30 23551 H 2175.78 -2.98365 -0.0457788 0
M  V30 23552 C 2174.53 -2.96179 -1.82136 0
M  V30 23553 H 2173.85 -3.73414 -1.42836 0
M  V30 23554 H 2175.29 -3.47204 -2.43362 0
M  V30 23555 C 2173.75 -2.01048 -2.70336 0
M  V30 23556 O 2174.28 -1.55487 -3.70387 0
M  V30 23557 N 2172.49 -1.67772 -2.37278 0
M  V30 23558 H 2172.03 -2.05018 -1.55966 0
M  V30 23559 H 2171.99 -1.0439 -2.96564 0
M  V30 23560 N 2175.76 0.00833021 -1.57598 0
M  V30 23561 C 2176.71 1.0207 -2.09008 0
M  V30 23562 C 2177.71 1.36126 -1.00826 0
M  V30 23563 O 2178.91 1.34788 -1.19298 0
M  V30 23564 H 2175.29 0.346781 -0.667268 0
M  V30 23565 H 2177.26 0.561462 -2.9307 0
M  V30 23566 C 2176.01 2.30647 -2.60187 0
M  V30 23567 H 2175.33 2.05307 -3.43059 0
M  V30 23568 H 2176.77 2.9978 -2.99847 0
M  V30 23569 C 2175.23 3.01051 -1.51227 0
M  V30 23570 O 2175.76 3.91708 -0.890385 0
M  V30 23571 N 2173.96 2.62734 -1.24175 0
M  V30 23572 H 2173.51 1.89095 -1.74931 0
M  V30 23573 H 2173.47 3.10155 -0.514892 0
M  V30 23574 N 2177.24 1.55075 0.280956 0
M  V30 23575 C 2178.47 1.79322 1.03205 0
M  V30 23576 C 2178.88 0.56257 1.80224 0
M  V30 23577 O 2178.24 -0.468172 1.76393 0
M  V30 23578 C 2178.29 3.01341 1.99689 0
M  V30 23579 O 2178.01 4.19652 1.25792 0
M  V30 23580 C 2179.51 3.38131 2.86675 0
M  V30 23581 H 2176.73 0.597563 0.30522 0
M  V30 23582 H 2179.28 2.02073 0.31415 0
M  V30 23583 H 2177.43 2.8074 2.66953 0
M  V30 23584 H 2177.85 4.88582 1.90757 0
M  V30 23585 H 2179.32 4.267 3.50188 0
M  V30 23586 H 2179.8 2.57177 3.56029 0
M  V30 23587 H 2180.4 3.60962 2.24914 0
M  V30 23588 N 2178.72 -0.545102 1.47873 0
M  V30 23589 C 2179.94 -1.33162 1.59005 0
M  V30 23590 C 2180.37 -1.86498 0.245004 0
M  V30 23591 O 2179.73 -1.63614 -0.781037 0
M  V30 23592 C 2179.78 -2.46898 2.62819 0
M  V30 23593 O 2178.88 -3.49491 2.1893 0
M  V30 23594 H 2178.22 -0.395031 0.53371 0
M  V30 23595 H 2180.75 -0.657518 1.93747 0
M  V30 23596 H 2180.76 -2.93298 2.8362 0
M  V30 23597 H 2179.44 -2.07436 3.60476 0
M  V30 23598 H 2178.01 -3.09312 2.08279 0
M  V30 23599 N 2180.2 -1.36208 -0.792797 0
M  V30 23600 C 2181.47 -1.20801 -1.53839 0
M  V30 23601 C 2181.85 0.20722 -2.1008 0
M  V30 23602 O 2181.2 1.21244 -1.9368 0
M  V30 23603 C 2181.41 -2.28726 -2.63601 0
M  V30 23604 C 2182.76 -2.65225 -3.31573 0
M  V30 23605 O 2183.78 -2.27744 -2.73882 0
M  V30 23606 O 2182.64 -3.29724 -4.35826 0
M  V30 23607 H 2179.74 -0.470148 -0.68036 0
M  V30 23608 H 2182.28 -1.47929 -0.83157 0
M  V30 23609 H 2181.06 -3.2359 -2.20013 0
M  V30 23610 H 2180.68 -2.02945 -3.41905 0
M  V30 23611 N 2181.68 1.01656 -1.20431 0
M  V30 23612 C 2183.09 1.27562 -0.959176 0
M  V30 23613 C 2183.29 1.98235 0.361268 0
M  V30 23614 O 2182.35 2.27772 1.08979 0
M  V30 23615 C 2183.66 2.11061 -2.14181 0
M  V30 23616 C 2185.21 2.24327 -2.1828 0
M  V30 23617 C 2185.68 3.11204 -3.3603 0
M  V30 23618 N 2187.17 3.18793 -3.36044 0
M  V30 23619 C 2187.91 3.86239 -4.23801 0
M  V30 23620 N 2187.41 4.55811 -5.21736 0
M  V30 23621 N 2189.2 3.82763 -4.11642 0
M  V30 23622 H 2181.35 0.542057 -2.05367 0
M  V30 23623 H 2183.61 0.30186 -0.898657 0
M  V30 23624 H 2183.32 1.66468 -3.09808 0
M  V30 23625 H 2183.19 3.11798 -2.12278 0
M  V30 23626 H 2185.58 2.68145 -1.23216 0
M  V30 23627 H 2185.66 1.23099 -2.24232 0
M  V30 23628 H 2185.3 2.68092 -4.3138 0
M  V30 23629 H 2185.23 4.1252 -3.27315 0
M  V30 23630 H 2187.73 2.69255 -2.6516 0
M  V30 23631 H 2188.04 5.04944 -5.85023 0
M  V30 23632 H 2186.38 4.54635 -5.25673 0
M  V30 23633 H 2189.57 3.27557 -3.34401 0
M  V30 23634 H 2189.75 4.3505 -4.80245 0
M  V30 23635 N 2183.15 1.01021 1.20965 0
M  V30 23636 C 2184.1 0.575015 2.23522 0
M  V30 23637 C 2185.07 -0.401609 1.61172 0
M  V30 23638 O 2186.26 -0.302487 1.88387 0
M  V30 23639 C 2183.4 -0.0869827 3.4499 0
M  V30 23640 C 2182.51 0.933442 4.21795 0
M  V30 23641 C 2181.64 0.243164 5.30643 0
M  V30 23642 C 2180.68 1.25078 5.99184 0
M  V30 23643 N 2179.82 0.587617 6.99637 0
M  V30 23644 H 2184.66 1.45423 2.60108 0
M  V30 23645 H 2182.2 0.728091 1.27817 0
M  V30 23646 H 2184.15 -0.487872 4.14338 0
M  V30 23647 H 2182.78 -0.929881 3.09117 0
M  V30 23648 H 2181.84 1.45254 3.51576 0
M  V30 23649 H 2183.15 1.70003 4.68936 0
M  V30 23650 H 2182.3 -0.213561 6.06324 0
M  V30 23651 H 2181.04 -0.555781 4.84523 0
M  V30 23652 H 2180.05 1.71796 5.2227 0
M  V30 23653 H 2181.27 2.0509 6.47391 0
M  V30 23654 H 2179.22 -0.191575 6.5572 0
M  V30 23655 H 2179.13 1.29237 7.44872 0
M  V30 23656 H 2180.4 0.154271 7.79347 0
M  V30 23657 N 2184.63 -1.36623 0.78561 0
M  V30 23658 C 2185.58 -2.27475 0.154576 0
M  V30 23659 C 2186.57 -1.46775 -0.659246 0
M  V30 23660 O 2187.76 -1.69191 -0.519944 0
M  V30 23661 C 2184.89 -3.35819 -0.712793 0
M  V30 23662 C 2183.97 -4.23958 0.109612 0
M  V30 23663 N 2184.36 -4.92266 1.16221 0
M  V30 23664 C 2182.66 -4.45859 -0.112163 0
M  V30 23665 C 2183.36 -5.57436 1.66254 0
M  V30 23666 N 2182.34 -5.34832 0.972395 0
M  V30 23667 H 2186.14 -2.77769 0.960279 0
M  V30 23668 H 2183.65 -1.49904 0.624702 0
M  V30 23669 H 2185.65 -3.9983 -1.18075 0
M  V30 23670 H 2184.31 -2.87079 -1.51708 0
M  V30 23671 H 2185.32 -4.94331 1.54459 0
M  V30 23672 H 2182 -4.07963 -0.887264 0
M  V30 23673 H 2183.39 -6.21995 2.54111 0
M  V30 23674 N 2186.11 -0.537304 -1.48158 0
M  V30 23675 C 2187.07 0.210784 -2.28229 0
M  V30 23676 C 2188.07 0.861078 -1.35802 0
M  V30 23677 O 2189.26 0.72 -1.58624 0
M  V30 23678 C 2186.39 1.30581 -3.14899 0
M  V30 23679 H 2187.59 -0.492311 -2.95832 0
M  V30 23680 H 2185.14 -0.293505 -1.53519 0
M  V30 23681 H 2185.88 2.04194 -2.51943 0
M  V30 23682 H 2185.66 0.844559 -3.82896 0
M  V30 23683 H 2187.15 1.8318 -3.7528 0
M  V30 23684 N 2187.59 1.55221 -0.272782 0
M  V30 23685 C 2188.87 1.91543 0.396336 0
M  V30 23686 C 2189.25 1.19676 1.73899 0
M  V30 23687 O 2188.59 0.322832 2.26208 0
M  V30 23688 C 2188.8 3.44814 0.53892 0
M  V30 23689 C 2190.15 4.1655 0.822894 0
M  V30 23690 O 2191.18 3.50695 0.623816 0
M  V30 23691 O 2190.03 5.33084 1.2035 0
M  V30 23692 H 2187.13 0.798123 0.21663 0
M  V30 23693 H 2189.67 1.66679 -0.318762 0
M  V30 23694 H 2188.45 3.89187 -0.406068 0
M  V30 23695 H 2188.07 3.75623 1.30358 0
M  V30 23696 N 2189.07 2.77022e-05 1.576 0
M  V30 23697 C 2190.29 -0.699433 1.9525 0
M  V30 23698 C 2190.72 -1.66511 0.874964 0
M  V30 23699 O 2190.07 -1.8053 -0.166897 0
M  V30 23700 C 2190.12 -1.4075 3.31996 0
M  V30 23701 O 2189.23 -2.52192 3.26302 0
M  V30 23702 H 2188.57 -0.18604 0.637405 0
M  V30 23703 H 2191.1 0.053226 2.04531 0
M  V30 23704 H 2191.11 -1.77092 3.67563 0
M  V30 23705 H 2189.78 -0.699458 4.09976 0
M  V30 23706 H 2188.36 -2.18177 3.02412 0
M  V30 23707 N 2190.54 -1.55222 -0.272728 0
M  V30 23708 C 2191.79 -1.75047 -1.00208 0
M  V30 23709 C 2192.11 -0.559079 -1.8744 0
M  V30 23710 O 2193.31 -0.639745 -2.63855 0
M  V30 23711 C 2191.77 -3.09808 -1.83159 0
M  V30 23712 C 2191.38 -4.36514 -1.00793 0
M  V30 23713 C 2193.12 -3.38981 -2.55523 0
M  V30 23714 C 2191.03 -5.62315 -1.83184 0
M  V30 23715 H 2189.96 -0.652482 -0.377866 0
M  V30 23716 H 2192.61 -1.81681 -0.257744 0
M  V30 23717 H 2190.99 -2.97212 -2.61689 0
M  V30 23718 H 2192.16 -4.60027 -0.266774 0
M  V30 23719 H 2190.48 -4.14486 -0.398824 0
M  V30 23720 H 2193.08 -4.30178 -3.17571 0
M  V30 23721 H 2193.42 -2.59126 -3.25821 0
M  V30 23722 H 2193.95 -3.52676 -1.84022 0
M  V30 23723 H 2190.69 -6.44918 -1.17306 0
M  V30 23724 H 2190.21 -5.42944 -2.54896 0
M  V30 23725 H 2191.89 -6.00624 -2.40542 0
M  V30 23726 N 2192.02 0.537252 -1.4816 0
M  V30 23727 C 2192.95 1.65187 -1.65032 0
M  V30 23728 C 2193.93 1.62607 -0.499309 0
M  V30 23729 O 2195.12 1.79917 -0.731003 0
M  V30 23730 C 2192.25 3.03792 -1.68308 0
M  V30 23731 C 2191.2 3.21229 -2.82836 0
M  V30 23732 C 2190.53 4.60821 -2.71197 0
M  V30 23733 C 2191.83 3.04693 -4.24216 0
M  V30 23734 H 2193.52 1.51323 -2.58344 0
M  V30 23735 H 2191.07 0.726563 -1.24326 0
M  V30 23736 H 2193.02 3.81634 -1.787 0
M  V30 23737 H 2191.75 3.18662 -0.715691 0
M  V30 23738 H 2190.4 2.45802 -2.71987 0
M  V30 23739 H 2190.05 4.72517 -1.72443 0
M  V30 23740 H 2189.75 4.73434 -3.48043 0
M  V30 23741 H 2191.28 5.40772 -2.83546 0
M  V30 23742 H 2192.69 3.72334 -4.35936 0
M  V30 23743 H 2191.09 3.28804 -5.02004 0
M  V30 23744 H 2192.16 2.01201 -4.41187 0
M  V30 23745 N 2193.5 1.36626 0.785562 0
M  V30 23746 C 2194.41 1.33428 1.92961 0
M  V30 23747 C 2195.43 0.235882 1.72394 0
M  V30 23748 O 2196.6 0.468912 1.95865 0
M  V30 23749 C 2193.67 1.12668 3.27882 0
M  V30 23750 C 2192.73 2.32019 3.612 0
M  V30 23751 C 2191.96 2.1224 4.89684 0
M  V30 23752 O 2192.18 1.09955 5.59702 0
M  V30 23753 O 2191.12 3.00107 5.21746 0
M  V30 23754 H 2194.94 2.29757 1.98609 0
M  V30 23755 H 2192.53 1.17213 0.926363 0
M  V30 23756 H 2194.41 1.03024 4.08612 0
M  V30 23757 H 2193.09 0.194048 3.23118 0
M  V30 23758 H 2191.99 2.47233 2.80761 0
M  V30 23759 H 2193.33 3.23802 3.70693 0
M  V30 23760 N 2194.98 -1.01016 1.20969 0
M  V30 23761 C 2195.93 -2.09689 0.964317 0
M  V30 23762 C 2196.9 -1.6575 -0.107824 0
M  V30 23763 O 2198.08 -1.90762 0.0382323 0
M  V30 23764 C 2195.22 -3.41014 0.52949 0
M  V30 23765 C 2194.33 -3.98395 1.6705 0
M  V30 23766 C 2193.47 -5.17806 1.18534 0
M  V30 23767 C 2192.51 -5.67284 2.29902 0
M  V30 23768 N 2191.64 -6.77951 1.82558 0
M  V30 23769 H 2196.48 -2.30013 1.89467 0
M  V30 23770 H 2194.02 -1.12788 0.944309 0
M  V30 23771 H 2195.98 -4.16397 0.258662 0
M  V30 23772 H 2194.61 -3.20743 -0.363862 0
M  V30 23773 H 2193.66 -3.20046 2.05609 0
M  V30 23774 H 2194.97 -4.31113 2.50885 0
M  V30 23775 H 2194.13 -6.00417 0.870867 0
M  V30 23776 H 2192.87 -4.86669 0.316973 0
M  V30 23777 H 2191.87 -4.83273 2.62158 0
M  V30 23778 H 2193.1 -6.00453 3.17226 0
M  V30 23779 H 2191.04 -6.4863 0.980568 0
M  V30 23780 H 2190.96 -7.09896 2.59969 0
M  V30 23781 H 2192.23 -7.6411 1.54129 0
M  V30 23782 N 2196.46 -1.01661 -1.20428 0
M  V30 23783 C 2197.69 -0.724115 -1.93495 0
M  V30 23784 C 2198.09 0.719149 -1.75 0
M  V30 23785 O 2197.44 1.49947 -1.06121 0
M  V30 23786 C 2197.5 -0.980001 -3.45885 0
M  V30 23787 C 2197.16 -2.41238 -3.8814 0
M  V30 23788 C 2198.16 -3.3932 -3.93901 0
M  V30 23789 C 2195.85 -2.75313 -4.20129 0
M  V30 23790 C 2197.84 -4.69537 -4.31061 0
M  V30 23791 C 2195.53 -4.05743 -4.56964 0
M  V30 23792 C 2196.52 -5.02666 -4.62402 0
M  V30 23793 O 2196.21 -6.30762 -4.98392 0
M  V30 23794 H 2195.94 -0.265173 -0.621819 0
M  V30 23795 H 2198.5 -1.36069 -1.53865 0
M  V30 23796 H 2196.73 -0.286265 -3.85639 0
M  V30 23797 H 2198.42 -0.679091 -4.00179 0
M  V30 23798 H 2199.18 -3.14332 -3.69352 0
M  V30 23799 H 2195.06 -2.00559 -4.15087 0
M  V30 23800 H 2198.61 -5.45187 -4.3522 0
M  V30 23801 H 2194.5 -4.3051 -4.80969 0
M  V30 23802 H 2195.27 -6.35051 -5.16384 0
M  V30 23803 N 2197.93 1.36205 -0.792844 0
M  V30 23804 C 2199.18 1.99445 -0.367365 0
M  V30 23805 C 2199.51 1.62776 1.05914 0
M  V30 23806 O 2198.79 0.884241 1.73238 0
M  V30 23807 C 2199.07 3.56102 -0.535107 0
M  V30 23808 C 2198.92 4.02614 -2.00555 0
M  V30 23809 C 2200.24 4.40074 0.0477417 0
M  V30 23810 H 2197.36 0.724539 -0.134954 0
M  V30 23811 H 2200 1.61566 -0.999822 0
M  V30 23812 H 2198.15 3.885 0.003295 0
M  V30 23813 H 2199.83 3.80688 -2.60527 0
M  V30 23814 H 2198.07 3.54028 -2.50693 0
M  V30 23815 H 2198.74 5.11561 -2.07386 0
M  V30 23816 H 2201.22 4.14056 -0.411895 0
M  V30 23817 H 2200.09 5.4881 -0.0996301 0
M  V30 23818 H 2200.35 4.27144 1.14018 0
M  V30 23819 N 2199.41 0.545154 1.47871 0
M  V30 23820 C 2200.64 0.0211204 2.06889 0
M  V30 23821 C 2201.06 -1.26718 1.39957 0
M  V30 23822 O 2200.41 -1.75741 0.492067 0
M  V30 23823 C 2200.46 -0.190754 3.60996 0
M  V30 23824 O 2200.18 1.04652 4.25417 0
M  V30 23825 C 2201.69 -0.753445 4.3685 0
M  V30 23826 H 2198.91 0.0403753 0.669784 0
M  V30 23827 H 2201.45 0.755128 1.90048 0
M  V30 23828 H 2199.6 -0.874854 3.77392 0
M  V30 23829 H 2200.02 0.836702 5.17783 0
M  V30 23830 H 2201.49 -0.851043 5.454 0
M  V30 23831 H 2201.97 -1.76193 4.02309 0
M  V30 23832 H 2202.58 -0.105429 4.25169 0
M  V30 23833 N 2200.89 -1.55074 0.28101 0
M  V30 23834 C 2201.8 -2.26427 -0.61384 0
M  V30 23835 C 2202.82 -1.29226 -1.16519 0
M  V30 23836 O 2203.99 -1.62173 -1.19423 0
M  V30 23837 C 2201.06 -2.97593 -1.77875 0
M  V30 23838 C 2200.12 -4.10286 -1.26348 0
M  V30 23839 C 2199.35 -4.78049 -2.37287 0
M  V30 23840 O 2199.57 -4.45053 -3.56769 0
M  V30 23841 O 2198.51 -5.65874 -2.05109 0
M  V30 23842 H 2202.33 -3.03679 -0.0356398 0
M  V30 23843 H 2199.92 -1.49322 0.0481948 0
M  V30 23844 H 2201.8 -3.42297 -2.45785 0
M  V30 23845 H 2200.48 -2.23253 -2.34393 0
M  V30 23846 H 2199.38 -3.70025 -0.55067 0
M  V30 23847 H 2200.72 -4.86545 -0.743979 0
M  V30 23848 N 2202.37 -0.00838561 -1.57598 0
M  V30 23849 C 2203.62 0.673935 -1.90108 0
M  V30 23850 C 2203.93 1.74469 -0.884306 0
M  V30 23851 O 2205.14 2.48222 -1.09992 0
M  V30 23852 C 2203.59 1.24989 -3.37499 0
M  V30 23853 C 2203.2 0.213522 -4.47491 0
M  V30 23854 C 2204.95 1.90992 -3.79107 0
M  V30 23855 C 2202.85 0.799947 -5.85965 0
M  V30 23856 H 2201.78 0.255482 -0.709398 0
M  V30 23857 H 2204.43 -0.0703015 -1.83365 0
M  V30 23858 H 2202.82 2.04507 -3.39106 0
M  V30 23859 H 2203.99 -0.557676 -4.57413 0
M  V30 23860 H 2202.3 -0.346547 -4.14955 0
M  V30 23861 H 2204.9 2.35787 -4.79905 0
M  V30 23862 H 2205.24 2.74401 -3.13065 0
M  V30 23863 H 2205.78 1.18196 -3.79835 0
M  V30 23864 H 2202.52 0.00445186 -6.555 0
M  V30 23865 H 2202.04 1.54011 -5.7969 0
M  V30 23866 H 2203.72 1.29604 -6.33886 0
M  V30 23867 N 2203.85 1.55365 0.264492 0
M  V30 23868 C 2205.09 1.76633 0.996429 0
M  V30 23869 C 2205.43 0.570511 1.85631 0
M  V30 23870 O 2204.7 -0.431717 1.89648 0
M  V30 23871 C 2204.98 3.07628 1.87182 0
M  V30 23872 C 2204.84 4.37581 1.0413 0
M  V30 23873 C 2206.16 3.34722 2.85743 0
M  V30 23874 H 2203.28 0.642628 0.36083 0
M  V30 23875 H 2205.92 1.88098 0.268185 0
M  V30 23876 H 2204.07 2.97985 2.49274 0
M  V30 23877 H 2205.74 4.59193 0.440436 0
M  V30 23878 H 2203.98 4.32426 0.345039 0
M  V30 23879 H 2204.65 5.25583 1.6872 0
M  V30 23880 H 2207.13 3.44214 2.33787 0
M  V30 23881 H 2206.01 4.27629 3.44129 0
M  V30 23882 H 2206.27 2.54775 3.61306 0
M  V30 23883 N 2205.33 -0.529387 1.48443 0
M  V30 23884 C 2206.26 -1.65057 1.5758 0
M  V30 23885 C 2207.24 -1.56914 0.426225 0
M  V30 23886 O 2208.42 -1.77378 0.637908 0
M  V30 23887 C 2205.55 -3.03458 1.50435 0
M  V30 23888 C 2204.59 -3.29958 2.70241 0
M  V30 23889 S 2205.43 -3.16164 4.32204 0
M  V30 23890 C 2206.58 -4.57012 4.27658 0
M  V30 23891 H 2206.82 -1.57056 2.5243 0
M  V30 23892 H 2204.35 -0.712393 1.36983 0
M  V30 23893 H 2206.31 -3.83277 1.46999 0
M  V30 23894 H 2204.97 -3.08899 0.569221 0
M  V30 23895 H 2204.16 -4.30924 2.61382 0
M  V30 23896 H 2203.76 -2.5781 2.70943 0
M  V30 23897 H 2206.05 -5.48542 3.97628 0
M  V30 23898 H 2207 -4.70925 5.28806 0
M  V30 23899 H 2207.41 -4.36362 3.58118 0
M  V30 23900 N 2206.8 -1.37041 -0.778305 0
M  V30 23901 C 2208.03 -1.35235 -1.57246 0
M  V30 23902 C 2208.45 0.0615238 -1.87999 0
M  V30 23903 O 2207.81 1.0367 -1.48736 0
M  V30 23904 C 2207.86 -2.19172 -2.86349 0
M  V30 23905 O 2206.96 -1.59184 -3.80439 0
M  V30 23906 H 2206.3 -0.46237 -0.47656 0
M  V30 23907 H 2208.83 -1.80476 -0.963821 0
M  V30 23908 H 2208.84 -2.32151 -3.35514 0
M  V30 23909 H 2207.52 -3.21947 -2.63293 0
M  V30 23910 H 2206.1 -1.55209 -3.39064 0
M  V30 23911 N 2208.28 1.00373 -1.21503 0
M  V30 23912 C 2209.53 1.73584 -1.02721 0
M  V30 23913 C 2209.84 1.90597 0.439556 0
M  V30 23914 O 2211.05 2.61027 0.746802 0
M  V30 23915 C 2209.51 3.12267 -1.78934 0
M  V30 23916 C 2209.11 3.03222 -3.29789 0
M  V30 23917 C 2210.86 3.89598 -1.68564 0
M  V30 23918 C 2208.76 4.36992 -3.98487 0
M  V30 23919 H 2207.69 0.650807 -0.380744 0
M  V30 23920 H 2210.35 1.12137 -1.4525 0
M  V30 23921 H 2208.73 3.74331 -1.29198 0
M  V30 23922 H 2209.9 2.50388 -3.86837 0
M  V30 23923 H 2208.22 2.39379 -3.40715 0
M  V30 23924 H 2210.81 4.88589 -2.1722 0
M  V30 23925 H 2211.16 4.11287 -0.644093 0
M  V30 23926 H 2211.69 3.34189 -2.15784 0
M  V30 23927 H 2208.43 4.20504 -5.02848 0
M  V30 23928 H 2207.95 4.89782 -3.46227 0
M  V30 23929 H 2209.63 5.05787 -4.03471 0
M  V30 23930 N 2209.76 1.02298 1.19887 0
M  V30 23931 C 2211.01 0.717066 1.897 0
M  V30 23932 C 2211.34 -0.751958 1.79051 0
M  V30 23933 O 2210.61 -1.54698 1.17894 0
M  V30 23934 C 2210.9 1.16142 3.40856 0
M  V30 23935 C 2210.75 2.69123 3.60407 0
M  V30 23936 C 2212.07 0.737625 4.33875 0
M  V30 23937 H 2209.19 0.261969 0.68887 0
M  V30 23938 H 2211.83 1.27186 1.41152 0
M  V30 23939 H 2209.98 0.689409 3.82334 0
M  V30 23940 H 2211.65 3.24226 3.28139 0
M  V30 23941 H 2209.89 3.09795 3.0366 0
M  V30 23942 H 2210.57 2.95269 4.66391 0
M  V30 23943 H 2213.04 1.14351 4.00079 0
M  V30 23944 H 2211.92 1.0765 5.3824 0
M  V30 23945 H 2212.18 -0.360359 4.40629 0
M  V30 23946 N 2211.24 -1.35782 0.800057 0
M  V30 23947 C 2212.47 -2.03198 0.389642 0
M  V30 23948 C 2212.88 -1.60307 -0.997347 0
M  V30 23949 O 2212.24 -0.79751 -1.64152 0
M  V30 23950 C 2212.29 -3.58613 0.455918 0
M  V30 23951 O 2212.01 -3.99943 1.78822 0
M  V30 23952 C 2213.51 -4.43284 0.0374812 0
M  V30 23953 H 2210.73 -0.651855 0.159143 0
M  V30 23954 H 2213.27 -1.7354 1.08186 0
M  V30 23955 H 2211.43 -3.86944 -0.187989 0
M  V30 23956 H 2211.84 -4.9457 1.74645 0
M  V30 23957 H 2213.32 -5.51835 0.134979 0
M  V30 23958 H 2213.79 -4.27277 -1.01643 0
M  V30 23959 H 2214.4 -4.20237 0.654289 0
M  V30 23960 N 2212.72 -0.552988 -1.4758 0
M  V30 23961 C 2213.94 -0.0320919 -2.06875 0
M  V30 23962 C 2214.36 1.25974 -1.40627 0
M  V30 23963 O 2213.72 1.75478 -0.50138 0
M  V30 23964 C 2213.77 0.171607 -3.61092 0
M  V30 23965 O 2213.49 -1.06906 -4.24856 0
M  V30 23966 C 2214.99 0.730267 -4.37244 0
M  V30 23967 H 2212.21 -0.0439268 -0.669561 0
M  V30 23968 H 2214.75 -0.765196 -1.89644 0
M  V30 23969 H 2212.91 0.854827 -3.77851 0
M  V30 23970 H 2213.32 -0.86415 -5.17332 0
M  V30 23971 H 2214.8 0.822107 -5.45844 0
M  V30 23972 H 2215.27 1.74057 -4.03238 0
M  V30 23973 H 2215.88 0.0828795 -4.25219 0
M  V30 23974 N 2214.19 1.54923 -0.28923 0
M  V30 23975 C 2215.44 1.999 0.323483 0
M  V30 23976 C 2215.77 1.17765 1.54795 0
M  V30 23977 O 2215.02 0.238869 1.94237 0
M  V30 23978 C 2215.32 3.49738 0.736058 0
M  V30 23979 C 2214.99 4.4925 -0.385354 0
M  V30 23980 C 2213.65 4.7618 -0.69324 0
M  V30 23981 C 2216 5.08573 -1.1403 0
M  V30 23982 C 2213.33 5.59698 -1.7594 0
M  V30 23983 C 2215.68 5.9325 -2.19629 0
M  V30 23984 C 2214.35 6.18496 -2.51037 0
M  V30 23985 H 2213.62 0.731484 0.118371 0
M  V30 23986 H 2216.26 1.87149 -0.40588 0
M  V30 23987 H 2214.57 3.60038 1.54532 0
M  V30 23988 H 2216.27 3.81955 1.22112 0
M  V30 23989 H 2212.86 4.28386 -0.135277 0
M  V30 23990 H 2217.04 4.87779 -0.915696 0
M  V30 23991 H 2212.3 5.77499 -2.0076 0
M  V30 23992 H 2216.47 6.38247 -2.78593 0
M  V30 23993 H 2214.1 6.83002 -3.33784 0
M  V30 23994 N 2215.67 0.0167433 1.57591 0
M  V30 23995 C 2216.92 -0.664564 1.91285 0
M  V30 23996 C 2217.25 -1.72841 0.891979 0
M  V30 23997 O 2216.5 -1.9544 -0.100896 0
M  V30 23998 C 2216.8 -1.33024 3.31722 0
M  V30 23999 C 2216.47 -0.397968 4.4914 0
M  V30 24000 C 2215.13 -0.141336 4.80992 0
M  V30 24001 C 2217.48 0.242917 5.20634 0
M  V30 24002 C 2214.81 0.764194 5.81702 0
M  V30 24003 C 2217.16 1.13643 6.22309 0
M  V30 24004 C 2215.82 1.40207 6.52609 0
M  V30 24005 H 2215.09 -0.243181 0.69996 0
M  V30 24006 H 2217.74 0.0758603 1.9135 0
M  V30 24007 H 2216.05 -2.14511 3.2786 0
M  V30 24008 H 2217.74 -1.86373 3.55058 0
M  V30 24009 H 2214.33 -0.608164 4.24263 0
M  V30 24010 H 2218.52 0.0576892 4.96266 0
M  V30 24011 H 2213.77 0.977838 6.0353 0
M  V30 24012 H 2217.95 1.63928 6.76831 0
M  V30 24013 H 2215.57 2.10541 7.30463 0
M  V30 24014 N 2217.15 -1.55503 -0.256249 0
M  V30 24015 C 2218.38 -1.81278 -1.00762 0
M  V30 24016 C 2218.8 -0.592551 -1.78523 0
M  V30 24017 O 2218.16 0.458239 -1.75413 0
M  V30 24018 C 2218.21 -3.0469 -1.92864 0
M  V30 24019 O 2217.31 -2.8095 -3.01896 0
M  V30 24020 H 2216.65 -0.598669 -0.287213 0
M  V30 24021 H 2219.18 -2.02674 -0.280074 0
M  V30 24022 H 2219.19 -3.33873 -2.34505 0
M  V30 24023 H 2217.87 -3.93145 -1.35682 0
M  V30 24024 H 2216.44 -2.62909 -2.64449 0
M  V30 24025 N 2218.63 0.521507 -1.48721 0
M  V30 24026 C 2219.85 1.30615 -1.61104 0
M  V30 24027 C 2220.28 1.86084 -0.274643 0
M  V30 24028 O 2219.64 1.64836 0.754908 0
M  V30 24029 C 2219.68 2.42685 -2.66714 0
M  V30 24030 O 2218.79 3.45963 -2.24462 0
M  V30 24031 H 2218.13 0.38649 -0.539927 0
M  V30 24032 H 2220.66 0.626611 -1.94768 0
M  V30 24033 H 2220.67 2.88749 -2.8825 0
M  V30 24034 H 2219.34 2.01675 -3.63731 0
M  V30 24035 H 2217.92 3.0596 -2.13174 0
M  V30 24036 N 2220.11 1.37452 0.771027 0
M  V30 24037 C 2221.52 1.29241 1.34735 0
M  V30 24038 C 2221.87 -0.0596564 1.96109 0
M  V30 24039 O 2220.99 -0.9615 1.93866 0
M  V30 24040 C 2221.59 2.34042 2.44969 0
M  V30 24041 C 2220.15 2.29463 2.98368 0
M  V30 24042 C 2219.29 2.17834 1.71592 0
M  V30 24043 H 2222.25 1.48063 0.57123 0
M  V30 24044 H 2222.27 1.98749 3.24467 0
M  V30 24045 H 2221.78 3.32436 2.0027 0
M  V30 24046 H 2219.88 1.34595 3.4744 0
M  V30 24047 H 2219.99 3.22906 3.53933 0
M  V30 24048 H 2218.36 1.64392 1.94544 0
M  V30 24049 H 2219.14 3.18143 1.28995 0
M  V30 24050 N 2221.58 -0.997276 1.22033 0
M  V30 24051 C 2222.83 -1.73619 1.04225 0
M  V30 24052 C 2223.16 -1.89839 -0.423231 0
M  V30 24053 O 2222.41 -1.43544 -1.33017 0
M  V30 24054 C 2222.71 -3.1473 1.6935 0
M  V30 24055 C 2222.38 -3.18436 3.19232 0
M  V30 24056 C 2221.04 -3.19155 3.6013 0
M  V30 24057 C 2223.39 -3.15071 4.15187 0
M  V30 24058 C 2220.72 -3.14203 4.95473 0
M  V30 24059 C 2223.07 -3.1166 5.505 0
M  V30 24060 C 2221.74 -3.10692 5.90785 0
M  V30 24061 H 2221.01 -0.635316 0.381385 0
M  V30 24062 H 2223.65 -1.16829 1.51734 0
M  V30 24063 H 2221.96 -3.74801 1.14154 0
M  V30 24064 H 2223.66 -3.70637 1.53066 0
M  V30 24065 H 2220.25 -3.18624 2.86664 0
M  V30 24066 H 2224.43 -3.13669 3.84611 0
M  V30 24067 H 2219.69 -3.11796 5.25921 0
M  V30 24068 H 2223.86 -3.08011 6.24582 0
M  V30 24069 H 2221.49 -3.0661 6.95625 0
M  V30 24070 N 2223.06 -1.02932 -1.19343 0
M  V30 24071 C 2224.29 -0.745545 -1.93537 0
M  V30 24072 C 2224.71 0.68948 -1.75008 0
M  V30 24073 O 2224.07 1.47609 -1.05268 0
M  V30 24074 C 2224.12 -1.10245 -3.43334 0
M  V30 24075 O 2223.22 -0.221361 -4.11805 0
M  V30 24076 H 2222.56 -0.275415 -0.604188 0
M  V30 24077 H 2225.09 -1.37612 -1.51407 0
M  V30 24078 H 2225.1 -1.05954 -3.94002 0
M  V30 24079 H 2223.78 -2.14792 -3.56142 0
M  V30 24080 H 2222.36 -0.322907 -3.71499 0
M  V30 24081 N 2224.54 1.35356 -0.807246 0
M  V30 24082 C 2225.82 1.93109 -0.31116 0
M  V30 24083 C 2226.2 1.73721 1.19934 0
M  V30 24084 O 2225.55 1.10661 1.99916 0
M  V30 24085 C 2225.76 3.41423 -0.723287 0
M  V30 24086 C 2227.1 4.18568 -0.713152 0
M  V30 24087 O 2228.13 3.4994 -0.664873 0
M  V30 24088 O 2226.99 5.41018 -0.772118 0
M  V30 24089 H 2224.08 0.82297 -0.0815405 0
M  V30 24090 H 2226.63 1.44428 -0.890988 0
M  V30 24091 H 2225.4 3.49267 -1.76432 0
M  V30 24092 H 2225.02 3.97424 -0.118302 0
M  V30 24093 N 2226.02 0.560807 1.47284 0
M  V30 24094 C 2226.95 -0.222398 2.28118 0
M  V30 24095 C 2227.96 -0.876032 1.37221 0
M  V30 24096 O 2229.15 -0.749279 1.62013 0
M  V30 24097 C 2226.25 -1.33279 3.11592 0
M  V30 24098 C 2225.43 -0.775265 4.30475 0
M  V30 24099 C 2224.48 -1.7706 4.95516 0
M  V30 24100 O 2223.51 -1.31529 5.53795 0
M  V30 24101 N 2224.71 -3.10409 4.90537 0
M  V30 24102 H 2227.48 0.47101 2.95976 0
M  V30 24103 H 2225.04 0.397118 1.56954 0
M  V30 24104 H 2227.03 -1.99746 3.51971 0
M  V30 24105 H 2225.6 -1.92938 2.45954 0
M  V30 24106 H 2224.82 0.0662805 3.94144 0
M  V30 24107 H 2226.11 -0.382182 5.07363 0
M  V30 24108 H 2225.51 -3.50042 4.44395 0
M  V30 24109 H 2224.06 -3.72425 5.34923 0
M  V30 24110 N 2227.5 -1.54768 0.297442 0
M  V30 24111 C 2228.72 -2.04941 -0.318399 0
M  V30 24112 C 2229.15 -1.17347 -1.47007 0
M  V30 24113 O 2228.5 -0.17679 -1.80436 0
M  V30 24114 C 2228.55 -3.52593 -0.755687 0
M  V30 24115 O 2227.66 -3.68032 -1.86082 0
M  V30 24116 H 2227 -0.661061 -0.0624094 0
M  V30 24117 H 2229.53 -1.99851 0.43825 0
M  V30 24118 H 2229.54 -3.94378 -1.04545 0
M  V30 24119 H 2228.21 -4.15809 0.0867964 0
M  V30 24120 H 2226.79 -3.38152 -1.57188 0
M  V30 24121 N 2228.97 -0.0251005 -1.5758 0
M  V30 24122 C 2230.2 0.664712 -1.95932 0
M  V30 24123 C 2230.62 1.65893 -0.901382 0
M  V30 24124 O 2229.97 1.82123 0.117223 0
M  V30 24125 C 2230.03 1.37462 -3.34345 0
M  V30 24126 O 2229.75 0.420247 -4.3608 0
M  V30 24127 C 2231.25 2.15663 -3.87304 0
M  V30 24128 H 2228.47 0.183546 -0.645408 0
M  V30 24129 H 2231.01 -0.0836731 -2.04329 0
M  V30 24130 H 2229.17 2.07444 -3.27179 0
M  V30 24131 H 2229.58 0.9239 -5.16299 0
M  V30 24132 H 2231.05 2.60794 -4.86508 0
M  V30 24133 H 2231.53 2.99399 -3.21336 0
M  V30 24134 H 2232.14 1.50647 -3.97726 0
M  V30 24135 N 2230.45 1.55637 0.247999 0
M  V30 24136 C 2231.68 1.81471 0.993776 0
M  V30 24137 C 2232.1 0.600672 1.7899 0
M  V30 24138 O 2231.45 -0.430651 1.77346 0
M  V30 24139 C 2231.5 3.05509 1.93252 0
M  V30 24140 O 2231.22 4.22226 1.16862 0
M  V30 24141 C 2232.73 3.44135 2.79438 0
M  V30 24142 H 2229.95 0.603903 0.292476 0
M  V30 24143 H 2232.49 2.02694 0.271217 0
M  V30 24144 H 2230.64 2.8634 2.60938 0
M  V30 24145 H 2231.06 4.92518 1.80351 0
M  V30 24146 H 2232.53 4.34032 3.41058 0
M  V30 24147 H 2233.01 2.64671 3.50494 0
M  V30 24148 H 2233.62 3.65652 2.17207 0
M  V30 24149 N 2231.93 -0.513613 1.48996 0
M  V30 24150 C 2232.86 -1.62541 1.67639 0
M  V30 24151 C 2233.84 -1.61792 0.525116 0
M  V30 24152 O 2235.03 -1.78731 0.759534 0
M  V30 24153 C 2232.16 -3.01076 1.7312 0
M  V30 24154 C 2231.11 -3.16688 2.87911 0
M  V30 24155 C 2230.44 -4.56448 2.78494 0
M  V30 24156 C 2231.74 -2.97906 4.2901 0
M  V30 24157 H 2233.43 -1.47194 2.60719 0
M  V30 24158 H 2230.98 -0.706692 1.25467 0
M  V30 24159 H 2232.93 -3.78742 1.84749 0
M  V30 24160 H 2231.65 -3.17483 0.766297 0
M  V30 24161 H 2230.31 -2.41444 2.75863 0
M  V30 24162 H 2229.96 -4.69714 1.79938 0
M  V30 24163 H 2229.66 -4.67837 3.55531 0
M  V30 24164 H 2231.19 -5.36192 2.92113 0
M  V30 24165 H 2232.6 -3.65351 4.41805 0
M  V30 24166 H 2231 -3.20776 5.07172 0
M  V30 24167 H 2232.07 -1.94157 4.44332 0
M  V30 24168 N 2233.41 -1.37859 -0.763727 0
M  V30 24169 C 2234.34 -1.30151 -1.88662 0
M  V30 24170 C 2235.35 -0.215713 -1.61365 0
M  V30 24171 O 2236.54 -0.472489 -1.72133 0
M  V30 24172 C 2233.64 -0.991453 -3.24073 0
M  V30 24173 C 2232.82 -2.18432 -3.78954 0
M  V30 24174 C 2231.88 -1.84329 -4.92858 0
M  V30 24175 O 2230.9 -2.56713 -5.08023 0
M  V30 24176 N 2232.1 -0.792182 -5.75069 0
M  V30 24177 H 2234.87 -2.26909 -1.95787 0
M  V30 24178 H 2232.43 -1.31588 -0.943203 0
M  V30 24179 H 2234.42 -0.744005 -3.97802 0
M  V30 24180 H 2232.99 -0.112176 -3.12399 0
M  V30 24181 H 2232.21 -2.59304 -2.96909 0
M  V30 24182 H 2233.5 -2.98066 -4.12352 0
M  V30 24183 H 2232.9 -0.191694 -5.65375 0
M  V30 24184 H 2231.45 -0.604604 -6.4899 0
M  V30 24185 N 2234.89 0.990791 -1.22561 0
M  V30 24186 C 2236.12 1.76609 -1.07782 0
M  V30 24187 C 2236.53 1.85109 0.371481 0
M  V30 24188 O 2235.89 1.32276 1.25735 0
M  V30 24189 C 2235.94 3.19819 -1.68518 0
M  V30 24190 O 2235.66 3.11775 -3.07779 0
M  V30 24191 C 2237.16 4.13788 -1.59042 0
M  V30 24192 H 2234.38 0.554576 -0.377738 0
M  V30 24193 H 2236.92 1.24548 -1.62197 0
M  V30 24194 H 2235.08 3.6894 -1.18161 0
M  V30 24195 H 2235.49 4.01852 -3.37069 0
M  V30 24196 H 2236.97 5.12017 -2.06259 0
M  V30 24197 H 2237.44 4.35776 -0.547349 0
M  V30 24198 H 2238.05 3.70564 -2.08715 0
M  V30 24199 N 2236.37 1.03564 1.18795 0
M  V30 24200 C 2237.78 0.753941 1.40669 0
M  V30 24201 C 2237.98 -0.658652 1.90431 0
M  V30 24202 O 2237.04 -1.42363 2.0854 0
M  V30 24203 C 2238.35 1.79578 2.41189 0
M  V30 24204 C 2239.9 1.81611 2.54925 0
M  V30 24205 C 2240.37 2.84772 3.58704 0
M  V30 24206 N 2241.86 2.83632 3.66207 0
M  V30 24207 C 2242.6 3.60106 4.46219 0
M  V30 24208 N 2242.1 4.46317 5.2988 0
M  V30 24209 N 2243.89 3.48618 4.40933 0
M  V30 24210 H 2236.04 1.94729 0.848187 0
M  V30 24211 H 2238.3 0.842272 0.435066 0
M  V30 24212 H 2238.01 2.80876 2.11664 0
M  V30 24213 H 2237.88 1.62371 3.40464 0
M  V30 24214 H 2240.27 0.809867 2.8377 0
M  V30 24215 H 2240.35 2.02894 1.55781 0
M  V30 24216 H 2239.99 3.85572 3.306 0
M  V30 24217 H 2239.92 2.60745 4.57515 0
M  V30 24218 H 2242.42 2.2111 3.06462 0
M  V30 24219 H 2242.73 5.01392 5.8807 0
M  V30 24220 H 2241.07 4.50386 5.29318 0
M  V30 24221 H 2244.26 2.80674 3.74619 0
M  V30 24222 H 2244.44 4.08467 5.03049 0
M  V30 24223 N 2237.84 -1.34926 0.814413 0
M  V30 24224 C 2238.78 -2.28429 0.187874 0
M  V30 24225 C 2239.79 -1.50641 -0.617348 0
M  V30 24226 O 2240.98 -1.72776 -0.448424 0
M  V30 24227 C 2238.08 -3.30362 -0.755904 0
M  V30 24228 C 2237.25 -4.374 0.00464374 0
M  V30 24229 C 2236.31 -5.19145 -0.858785 0
M  V30 24230 O 2235.34 -5.68372 -0.306868 0
M  V30 24231 N 2236.54 -5.3802 -2.17979 0
M  V30 24232 H 2239.3 -2.82836 0.991154 0
M  V30 24233 H 2236.86 -1.47359 0.670587 0
M  V30 24234 H 2238.86 -3.81944 -1.33793 0
M  V30 24235 H 2237.43 -2.76413 -1.45996 0
M  V30 24236 H 2236.65 -3.86648 0.767933 0
M  V30 24237 H 2237.93 -5.06048 0.528511 0
M  V30 24238 H 2237.33 -4.99684 -2.65203 0
M  V30 24239 H 2235.89 -5.92752 -2.71087 0
M  V30 24240 N 2239.32 -0.56861 -1.46985 0
M  V30 24241 C 2240.73 -0.138252 -1.86187 0
M  V30 24242 C 2241.08 1.29501 -1.4739 0
M  V30 24243 O 2240.21 1.976 -0.882224 0
M  V30 24244 C 2240.8 -0.244124 -3.37919 0
M  V30 24245 C 2239.36 0.131269 -3.76171 0
M  V30 24246 C 2238.51 -0.586513 -2.71026 0
M  V30 24247 H 2241.46 -0.777669 -1.3834 0
M  V30 24248 H 2241.48 0.534285 -3.7673 0
M  V30 24249 H 2240.99 -1.28738 -3.66126 0
M  V30 24250 H 2239.09 1.17519 -3.53582 0
M  V30 24251 H 2239.21 -0.23523 -4.78522 0
M  V30 24252 H 2237.57 -0.028317 -2.54684 0
M  V30 24253 H 2238.35 -1.63114 -3.02074 0
M  V30 24254 N 2240.8 1.54608 -0.305646 0
M  V30 24255 C 2242.05 2.00528 0.302711 0
M  V30 24256 C 2242.38 1.19369 1.53182 0
M  V30 24257 O 2241.65 0.271355 1.92598 0
M  V30 24258 C 2241.94 3.54099 0.654694 0
M  V30 24259 C 2241.79 4.45994 -0.583872 0
M  V30 24260 C 2243.11 4.1449 1.47939 0
M  V30 24261 H 2240.23 0.728962 0.108551 0
M  V30 24262 H 2242.87 1.8533 -0.418667 0
M  V30 24263 H 2241.02 3.6718 1.26929 0
M  V30 24264 H 2242.69 4.44811 -1.22231 0
M  V30 24265 H 2240.93 4.16402 -1.21622 0
M  V30 24266 H 2241.61 5.5122 -0.293384 0
M  V30 24267 H 2244.08 4.04873 0.960059 0
M  V30 24268 H 2242.96 5.22091 1.69445 0
M  V30 24269 H 2243.22 3.66662 2.47004 0
M  V30 24270 N 2242.28 0.033457 1.57564 0
M  V30 24271 C 2243.52 -0.644238 1.91979 0
M  V30 24272 C 2243.85 -1.71885 0.910261 0
M  V30 24273 O 2243.11 -1.95536 -0.0801618 0
M  V30 24274 C 2243.41 -1.29498 3.33114 0
M  V30 24275 C 2243.07 -0.350309 4.49537 0
M  V30 24276 C 2241.73 -0.0903128 4.81115 0
M  V30 24277 C 2244.09 0.298123 5.20347 0
M  V30 24278 C 2241.41 0.825848 5.80859 0
M  V30 24279 C 2243.77 1.20237 6.21068 0
M  V30 24280 C 2242.43 1.47121 6.51085 0
M  V30 24281 H 2241.7 -0.235743 0.7025 0
M  V30 24282 H 2244.35 0.0961512 1.91258 0
M  V30 24283 H 2242.65 -2.11022 3.30117 0
M  V30 24284 H 2244.35 -1.82597 3.57015 0
M  V30 24285 H 2240.94 -0.563131 4.24884 0
M  V30 24286 H 2245.12 0.110322 4.96177 0
M  V30 24287 H 2240.38 1.0418 6.02459 0
M  V30 24288 H 2244.55 1.71098 6.75054 0
M  V30 24289 H 2242.18 2.18277 7.28189 0
M  V30 24290 N 2243.76 -1.55766 -0.239741 0
M  V30 24291 C 2245 -1.78196 -0.968202 0
M  V30 24292 C 2245.33 -0.599971 -1.847 0
M  V30 24293 O 2244.61 0.401491 -1.90311 0
M  V30 24294 C 2244.89 -3.10567 -1.82264 0
M  V30 24295 C 2244.75 -4.39182 -0.971555 0
M  V30 24296 C 2246.06 -3.39226 -2.80382 0
M  V30 24297 H 2243.18 -0.648287 -0.350561 0
M  V30 24298 H 2245.83 -1.88501 -0.238226 0
M  V30 24299 H 2243.98 -3.01913 -2.44501 0
M  V30 24300 H 2245.65 -4.59835 -0.367327 0
M  V30 24301 H 2243.89 -4.3292 -0.2762 0
M  V30 24302 H 2244.56 -5.28201 -1.60337 0
M  V30 24303 H 2247.04 -3.47889 -2.28281 0
M  V30 24304 H 2245.91 -4.3305 -3.37282 0
M  V30 24305 H 2246.17 -2.60491 -3.57207 0
M  V30 24306 N 2245.23 0.505704 -1.49266 0
M  V30 24307 C 2246.17 1.62434 -1.61702 0
M  V30 24308 C 2247.18 1.54933 -0.499952 0
M  V30 24309 O 2248.37 1.60951 -0.771813 0
M  V30 24310 C 2245.47 3.01204 -1.55335 0
M  V30 24311 C 2244.64 3.33938 -2.82496 0
M  V30 24312 C 2243.7 4.52098 -2.69246 0
M  V30 24313 O 2242.73 4.54114 -3.43175 0
M  V30 24314 N 2243.93 5.51732 -1.80477 0
M  V30 24315 H 2246.69 1.52195 -2.5818 0
M  V30 24316 H 2244.25 0.693485 -1.46296 0
M  V30 24317 H 2246.25 3.78164 -1.44132 0
M  V30 24318 H 2244.82 3.05394 -0.66735 0
M  V30 24319 H 2244.04 2.45921 -3.08085 0
M  V30 24320 H 2245.32 3.52604 -3.66808 0
M  V30 24321 H 2244.72 5.52899 -1.19662 0
M  V30 24322 H 2243.28 6.27812 -1.75199 0
M  V30 24323 N 2246.71 1.38262 0.756405 0
M  V30 24324 C 2247.64 1.37979 1.88372 0
M  V30 24325 C 2248.62 0.246111 1.6831 0
M  V30 24326 O 2249.81 0.448773 1.88944 0
M  V30 24327 C 2246.94 1.2013 3.25862 0
M  V30 24328 C 2245.89 2.30673 3.60519 0
M  V30 24329 C 2245.22 1.97932 4.96716 0
M  V30 24330 C 2246.52 3.72923 3.65686 0
M  V30 24331 H 2248.21 2.32315 1.88865 0
M  V30 24332 H 2245.76 1.11825 0.907253 0
M  V30 24333 H 2247.71 1.18559 4.04378 0
M  V30 24334 H 2246.44 0.222555 3.25841 0
M  V30 24335 H 2245.09 2.31425 2.8432 0
M  V30 24336 H 2244.74 0.98548 4.93252 0
M  V30 24337 H 2244.44 2.71965 5.20873 0
M  V30 24338 H 2245.97 1.97974 5.77615 0
M  V30 24339 H 2247.38 3.74216 4.34322 0
M  V30 24340 H 2245.78 4.46137 4.0135 0
M  V30 24341 H 2246.85 4.05441 2.6598 0
M  V30 24342 N 2248.19 -0.984277 1.23084 0
M  V30 24343 C 2249.12 -2.09409 1.03296 0
M  V30 24344 C 2250.1 -1.7003 -0.0488931 0
M  V30 24345 O 2251.29 -1.93859 0.115001 0
M  V30 24346 C 2248.42 -3.41735 0.619215 0
M  V30 24347 C 2247.37 -3.95001 1.64798 0
M  V30 24348 C 2246.7 -5.23476 1.08979 0
M  V30 24349 C 2248 -4.24708 3.04007 0
M  V30 24350 H 2249.69 -2.26222 1.96123 0
M  V30 24351 H 2247.24 -1.0871 0.944363 0
M  V30 24352 H 2249.19 -4.18795 0.467851 0
M  V30 24353 H 2247.91 -3.24776 -0.344729 0
M  V30 24354 H 2246.57 -3.20082 1.78726 0
M  V30 24355 H 2246.22 -5.02864 0.116948 0
M  V30 24356 H 2245.92 -5.60082 1.77714 0
M  V30 24357 H 2247.44 -6.03161 0.950199 0
M  V30 24358 H 2248.86 -4.92532 2.93402 0
M  V30 24359 H 2247.26 -4.72506 3.69944 0
M  V30 24360 H 2248.33 -3.32135 3.5329 0
M  V30 24361 N 2249.67 -1.04192 -1.18244 0
M  V30 24362 C 2250.6 -0.592127 -2.21419 0
M  V30 24363 C 2251.61 0.338881 -1.59234 0
M  V30 24364 O 2252.8 0.1332 -1.78002 0
M  V30 24365 C 2249.9 0.154794 -3.38546 0
M  V30 24366 C 2249.08 -0.784403 -4.30309 0
M  V30 24367 C 2248.13 -0.0805508 -5.26138 0
M  V30 24368 O 2247.16 -0.711391 -5.64737 0
M  V30 24369 N 2248.36 1.18564 -5.68263 0
M  V30 24370 H 2251.13 -1.47954 -2.60633 0
M  V30 24371 H 2248.69 -0.922568 -1.33042 0
M  V30 24372 H 2250.68 0.635535 -3.99679 0
M  V30 24373 H 2249.25 0.943758 -2.98013 0
M  V30 24374 H 2248.47 -1.44498 -3.66762 0
M  V30 24375 H 2249.76 -1.42227 -4.88517 0
M  V30 24376 H 2249.16 1.71867 -5.3896 0
M  V30 24377 H 2247.71 1.61063 -6.31587 0
M  V30 24378 N 2251.15 1.34492 -0.821557 0
M  V30 24379 C 2252.39 1.97935 -0.408173 0
M  V30 24380 C 2252.72 1.65459 1.0319 0
M  V30 24381 O 2251.99 0.944625 1.71621 0
M  V30 24382 H 2250.57 0.732204 -0.147941 0
M  V30 24383 H 2253.23 1.64153 -1.0507 0
M  V30 24384 H 2252.32 3.07634 -0.526065 0
M  V30 24385 N 2252.62 0.576397 1.46681 0
M  V30 24386 C 2253.87 0.0596577 2.02712 0
M  V30 24387 C 2254.2 -1.29445 1.44767 0
M  V30 24388 O 2253.48 -1.84674 0.610387 0
M  V30 24389 C 2253.76 -0.012887 3.60098 0
M  V30 24390 C 2253.61 1.36967 4.28439 0
M  V30 24391 C 2254.93 -0.716704 4.34225 0
M  V30 24392 H 2252.05 0.0231537 0.736636 0
M  V30 24393 H 2254.69 0.742381 1.74896 0
M  V30 24394 H 2252.84 -0.594311 3.83927 0
M  V30 24395 H 2254.52 1.99578 4.15892 0
M  V30 24396 H 2252.76 1.93913 3.88046 0
M  V30 24397 H 2253.43 1.27145 5.37158 0
M  V30 24398 H 2255.91 -0.222834 4.15503 0
M  V30 24399 H 2254.78 -0.736475 5.43937 0
M  V30 24400 H 2255.04 -1.77675 4.04826 0
M  V30 24401 N 2254.1 -1.54444 0.313841 0
M  V30 24402 C 2255.35 -2.00389 -0.29164 0
M  V30 24403 C 2255.68 -1.20213 -1.52902 0
M  V30 24404 O 2254.93 -0.269741 -1.93832 0
M  V30 24405 C 2255.23 -3.50865 -0.680324 0
M  V30 24406 C 2254.9 -4.4858 0.456778 0
M  V30 24407 C 2253.56 -4.75017 0.768908 0
M  V30 24408 C 2255.91 -5.06695 1.22107 0
M  V30 24409 C 2253.24 -5.56828 1.84822 0
M  V30 24410 C 2255.59 -5.89681 2.2904 0
M  V30 24411 C 2254.26 -6.14423 2.60845 0
M  V30 24412 H 2253.53 -0.733275 -0.106719 0
M  V30 24413 H 2256.17 -1.8648 0.435603 0
M  V30 24414 H 2254.48 -3.6245 -1.48785 0
M  V30 24415 H 2256.17 -3.8385 -1.1602 0
M  V30 24416 H 2252.76 -4.28117 0.203413 0
M  V30 24417 H 2256.95 -4.86261 0.993182 0
M  V30 24418 H 2252.2 -5.74232 2.09922 0
M  V30 24419 H 2256.38 -6.33734 2.88711 0
M  V30 24420 H 2254.01 -6.77606 3.44608 0
M  V30 24421 N 2255.58 -0.0418125 -1.57545 0
M  V30 24422 C 2257 0.314677 -1.56467 0
M  V30 24423 C 2257.2 1.72064 -1.04862 0
M  V30 24424 O 2256.25 2.42573 -0.701025 0
M  V30 24425 C 2257.57 0.151687 -3.00317 0
M  V30 24426 C 2259.11 0.223498 -3.12201 0
M  V30 24427 C 2259.59 0.089149 -4.57913 0
M  V30 24428 N 2261.08 0.145727 -4.62971 0
M  V30 24429 C 2261.81 0.0657451 -5.73362 0
M  V30 24430 N 2261.31 -0.06605 -6.92769 0
M  V30 24431 N 2263.1 0.120652 -5.6197 0
M  V30 24432 H 2255.25 -0.961048 -1.89414 0
M  V30 24433 H 2257.52 -0.372252 -0.871856 0
M  V30 24434 H 2257.22 -0.817315 -3.42071 0
M  V30 24435 H 2257.1 0.916628 -3.65893 0
M  V30 24436 H 2259.48 1.18297 -2.70351 0
M  V30 24437 H 2259.57 -0.572037 -2.49322 0
M  V30 24438 H 2259.21 -0.866955 -5.00446 0
M  V30 24439 H 2259.14 0.903711 -5.18788 0
M  V30 24440 H 2261.63 0.24722 -3.7709 0
M  V30 24441 H 2261.94 -0.120041 -7.72707 0
M  V30 24442 H 2260.29 -0.101007 -6.94927 0
M  V30 24443 H 2263.48 0.222105 -4.67573 0
M  V30 24444 H 2263.65 0.0548596 -6.47977 0
M  V30 24445 N 2257.06 1.55891 0.231477 0
M  V30 24446 C 2258.3 1.78707 0.958738 0
M  V30 24447 C 2258.64 0.609757 1.84379 0
M  V30 24448 O 2257.91 -0.391392 1.90521 0
M  V30 24449 C 2258.2 3.11529 1.80614 0
M  V30 24450 C 2258.05 4.39691 0.948251 0
M  V30 24451 C 2259.37 3.40708 2.78579 0
M  V30 24452 H 2256.49 0.650137 0.347118 0
M  V30 24453 H 2259.13 1.88624 0.228226 0
M  V30 24454 H 2257.28 3.03205 2.42897 0
M  V30 24455 H 2258.95 4.60024 0.342936 0
M  V30 24456 H 2257.19 4.3306 0.253237 0
M  V30 24457 H 2257.86 5.29044 1.57533 0
M  V30 24458 H 2260.34 3.49095 2.26433 0
M  V30 24459 H 2259.22 4.34832 3.34981 0
M  V30 24460 H 2259.48 2.62381 3.55821 0
M  V30 24461 N 2258.54 -0.497781 1.49532 0
M  V30 24462 C 2259.77 -1.27379 1.62659 0
M  V30 24463 C 2260.17 -1.8683 0.298521 0
M  V30 24464 O 2259.52 -1.68726 -0.726441 0
M  V30 24465 C 2259.58 -2.44088 2.63934 0
M  V30 24466 C 2259.24 -2.05482 4.08199 0
M  V30 24467 C 2260.24 -1.5927 4.94903 0
M  V30 24468 C 2257.93 -2.15018 4.53952 0
M  V30 24469 C 2259.92 -1.23102 6.254 0
M  V30 24470 C 2257.61 -1.78462 5.84461 0
M  V30 24471 C 2258.6 -1.32579 6.70009 0
M  V30 24472 O 2258.29 -0.965187 7.98085 0
M  V30 24473 H 2258.02 -0.392424 0.550436 0
M  V30 24474 H 2260.58 -0.603767 1.96326 0
M  V30 24475 H 2258.81 -3.14177 2.25454 0
M  V30 24476 H 2260.5 -3.06108 2.66557 0
M  V30 24477 H 2261.26 -1.51346 4.60781 0
M  V30 24478 H 2257.14 -2.49683 3.8753 0
M  V30 24479 H 2260.69 -0.872177 6.92126 0
M  V30 24480 H 2256.58 -1.86037 6.1811 0
M  V30 24481 H 2257.35 -1.09638 8.11124 0
M  V30 24482 N 2260.01 -1.38661 -0.749062 0
M  V30 24483 C 2260.96 -1.32754 -1.85365 0
M  V30 24484 C 2261.95 -0.210973 -1.59511 0
M  V30 24485 O 2263.14 -0.447329 -1.71254 0
M  V30 24486 C 2260.27 -1.15941 -3.23129 0
M  V30 24487 C 2259.36 -2.32239 -3.5486 0
M  V30 24488 N 2259.75 -3.57691 -3.57618 0
M  V30 24489 C 2258.04 -2.2489 -3.8515 0
M  V30 24490 C 2258.75 -4.34515 -3.86745 0
M  V30 24491 N 2257.72 -3.63926 -4.03806 0
M  V30 24492 H 2261.52 -2.27732 -1.85783 0
M  V30 24493 H 2259.04 -1.31957 -0.946635 0
M  V30 24494 H 2261.03 -1.09793 -4.02183 0
M  V30 24495 H 2259.69 -0.219004 -3.23961 0
M  V30 24496 H 2260.71 -3.91301 -3.39269 0
M  V30 24497 H 2257.38 -1.39034 -3.9367 0
M  V30 24498 H 2258.77 -5.43192 -3.95465 0
M  V30 24499 N 2261.49 0.977736 -1.23605 0
M  V30 24500 C 2262.73 1.73444 -1.08151 0
M  V30 24501 C 2263.1 1.88307 0.374752 0
M  V30 24502 O 2264.3 2.60809 0.650543 0
M  V30 24503 C 2262.57 3.09346 -1.78996 0
M  V30 24504 S 2264.13 4.00564 -1.79148 0
M  V30 24505 H 2260.95 0.596451 -0.386998 0
M  V30 24506 H 2263.55 1.16789 -1.56782 0
M  V30 24507 H 2262.25 2.96182 -2.84086 0
M  V30 24508 H 2261.78 3.71069 -1.30658 0
M  V30 24509 H 2263.8 4.88831 -0.851978 0
M  V30 24510 N 2262.97 1.04818 1.1769 0
M  V30 24511 C 2263.92 0.6397 2.23631 0
M  V30 24512 C 2264.91 -0.33719 1.6601 0
M  V30 24513 O 2266.12 -0.203662 1.78844 0
M  V30 24514 H 2262.49 0.188678 0.727945 0
M  V30 24515 H 2264.47 1.54342 2.55384 0
M  V30 24516 C 2263.21 0.0264662 3.4769 0
M  V30 24517 H 2262.54 0.769233 3.9233 0
M  V30 24518 H 2263.98 -0.222024 4.23418 0
M  V30 24519 C 2262.44 -1.22578 3.13809 0
M  V30 24520 O 2262.97 -2.31563 3.2824 0
M  V30 24521 N 2261.17 -1.12197 2.68067 0
M  V30 24522 H 2260.72 -0.235088 2.56525 0
M  V30 24523 H 2260.68 -1.96072 2.45771 0
M  V30 24524 N 2264.45 -1.34055 0.828678 0
M  V30 24525 C 2265.7 -1.98818 0.429314 0
M  V30 24526 C 2266.05 -1.64493 -0.997982 0
M  V30 24527 O 2265.34 -0.909258 -1.68651 0
M  V30 24528 C 2265.54 -3.5274 0.575288 0
M  V30 24529 C 2265.37 -4.02018 2.01522 0
M  V30 24530 C 2264.14 -4.30339 2.64832 0
M  V30 24531 C 2266.33 -4.18975 2.98269 0
M  V30 24532 N 2264.32 -4.65691 4.00006 0
M  V30 24533 C 2265.69 -4.57571 4.18364 0
M  V30 24534 C 2267.74 -4.01238 2.94809 0
M  V30 24535 C 2266.45 -4.80284 5.35462 0
M  V30 24536 C 2268.47 -4.2512 4.11129 0
M  V30 24537 C 2267.83 -4.64009 5.29977 0
M  V30 24538 H 2263.93 -0.754565 0.205317 0
M  V30 24539 H 2266.52 -1.62359 1.07459 0
M  V30 24540 H 2264.69 -3.88379 -0.040128 0
M  V30 24541 H 2266.42 -4.04428 0.148363 0
M  V30 24542 H 2263.17 -4.21457 2.16034 0
M  V30 24543 H 2263.6 -4.87593 4.69662 0
M  V30 24544 H 2268.24 -3.70296 2.04061 0
M  V30 24545 H 2265.96 -5.10091 6.26764 0
M  V30 24546 H 2269.54 -4.12926 4.09857 0
M  V30 24547 H 2268.42 -4.82124 6.18487 0
M  V30 24548 N 2265.93 -0.584167 -1.46374 0
M  V30 24549 C 2266.86 0.135996 -2.33104 0
M  V30 24550 C 2267.84 0.88223 -1.45433 0
M  V30 24551 O 2269.02 0.857403 -1.74248 0
M  V30 24552 C 2266.15 1.14928 -3.27733 0
M  V30 24553 C 2265.11 0.517788 -4.24856 0
M  V30 24554 C 2264.43 1.63764 -5.09004 0
M  V30 24555 C 2265.73 -0.545977 -5.19439 0
M  V30 24556 H 2267.43 -0.588137 -2.93567 0
M  V30 24557 H 2264.97 -0.284284 -1.41166 0
M  V30 24558 H 2266.93 1.66146 -3.87264 0
M  V30 24559 H 2265.65 1.9037 -2.6538 0
M  V30 24560 H 2264.31 0.0266716 -3.6659 0
M  V30 24561 H 2263.96 2.38177 -4.43036 0
M  V30 24562 H 2263.66 1.22075 -5.7478 0
M  V30 24563 H 2265.18 2.15256 -5.71399 0
M  V30 24564 H 2266.6 -0.118805 -5.73177 0
M  V30 24565 H 2264.99 -0.883274 -5.93564 0
M  V30 24566 H 2266.06 -1.4317 -4.63282 0
M  V30 24567 N 2267.41 1.54275 -0.322027 0
M  V30 24568 C 2268.34 2.20517 0.587141 0
M  V30 24569 C 2269.32 1.18169 1.1169 0
M  V30 24570 O 2270.5 1.46901 1.18119 0
M  V30 24571 C 2267.63 2.86565 1.80549 0
M  V30 24572 C 2266.67 4.0262 1.40711 0
M  V30 24573 S 2267.51 5.33647 0.445124 0
M  V30 24574 C 2268.66 6.03188 1.67079 0
M  V30 24575 H 2268.9 2.9729 0.0244352 0
M  V30 24576 H 2266.43 1.54035 -0.106114 0
M  V30 24577 H 2268.39 3.25241 2.50457 0
M  V30 24578 H 2267.05 2.09599 2.33938 0
M  V30 24579 H 2266.24 4.47691 2.31493 0
M  V30 24580 H 2265.84 3.6561 0.787755 0
M  V30 24581 H 2268.13 6.25273 2.60845 0
M  V30 24582 H 2269.08 6.96758 1.26227 0
M  V30 24583 H 2269.49 5.33079 1.85707 0
M  V30 24584 N 2268.88 0.0501669 1.5752 0
M  V30 24585 C 2270.29 -0.485673 1.80272 0
M  V30 24586 C 2270.65 -1.7098 0.96231 0
M  V30 24587 O 2269.77 -2.15662 0.178615 0
M  V30 24588 C 2270.37 -0.887881 3.26959 0
M  V30 24589 C 2268.92 -1.36871 3.50633 0
M  V30 24590 C 2268.07 -0.34342 2.75165 0
M  V30 24591 H 2271.02 0.276055 1.56281 0
M  V30 24592 H 2271.04 -1.75087 3.37824 0
M  V30 24593 H 2270.56 0.00324912 3.881 0
M  V30 24594 H 2268.66 -2.27906 2.9477 0
M  V30 24595 H 2268.77 -1.36156 4.59346 0
M  V30 24596 H 2267.13 -0.816086 2.41272 0
M  V30 24597 H 2267.92 0.539608 3.39033 0
M  V30 24598 N 2270.36 -1.56011 -0.223207 0
M  V30 24599 C 2271.59 -1.83374 -0.968946 0
M  V30 24600 C 2272.01 -0.630285 -1.77226 0
M  V30 24601 O 2271.37 0.420928 -1.76346 0
M  V30 24602 C 2271.42 -3.08712 -1.86357 0
M  V30 24603 O 2270.52 -2.8729 -2.95868 0
M  V30 24604 H 2269.86 -0.604626 -0.27445 0
M  V30 24605 H 2272.39 -2.03222 -0.237021 0
M  V30 24606 H 2272.4 -3.38772 -2.2737 0
M  V30 24607 H 2271.08 -3.95935 -1.27312 0
M  V30 24608 H 2269.65 -2.68459 -2.58813 0
M  V30 24609 N 2271.84 0.489844 -1.49794 0
M  V30 24610 C 2272.77 1.6071 -1.63416 0
M  V30 24611 C 2273.78 1.54394 -0.516356 0
M  V30 24612 O 2274.97 1.60124 -0.78884 0
M  V30 24613 C 2272.07 2.9954 -1.58521 0
M  V30 24614 C 2271.25 3.30923 -2.86022 0
M  V30 24615 C 2270.31 4.49217 -2.74026 0
M  V30 24616 O 2269.33 4.50449 -3.47972 0
M  V30 24617 N 2270.53 5.49787 -1.86319 0
M  V30 24618 H 2273.3 1.49448 -2.5978 0
M  V30 24619 H 2270.86 0.677929 -1.47023 0
M  V30 24620 H 2272.85 3.76614 -1.48135 0
M  V30 24621 H 2271.42 3.04669 -0.699704 0
M  V30 24622 H 2270.64 2.42639 -3.10676 0
M  V30 24623 H 2271.93 3.48693 -3.70527 0
M  V30 24624 H 2271.33 5.51599 -1.2552 0
M  V30 24625 H 2269.88 6.25919 -1.81848 0
M  V30 24626 N 2273.32 1.39056 0.741698 0
M  V30 24627 C 2274.26 1.3724 1.85563 0
M  V30 24628 C 2275.23 0.233101 1.64456 0
M  V30 24629 O 2276.42 0.427179 1.85956 0
M  V30 24630 C 2273.56 1.21506 3.23002 0
M  V30 24631 C 2272.67 2.44924 3.5586 0
M  V30 24632 C 2271.81 2.21829 4.82665 0
M  V30 24633 C 2270.85 3.40957 5.08345 0
M  V30 24634 N 2269.98 3.17222 6.2635 0
M  V30 24635 H 2274.82 2.32465 1.86451 0
M  V30 24636 H 2272.36 1.15483 0.911155 0
M  V30 24637 H 2274.32 1.10397 4.02329 0
M  V30 24638 H 2272.95 0.299137 3.21411 0
M  V30 24639 H 2272 2.66661 2.71286 0
M  V30 24640 H 2273.31 3.33675 3.70759 0
M  V30 24641 H 2272.47 2.07924 5.69959 0
M  V30 24642 H 2271.21 1.30462 4.69927 0
M  V30 24643 H 2270.21 3.55368 4.19516 0
M  V30 24644 H 2271.44 4.33216 5.22973 0
M  V30 24645 H 2269.38 2.28513 6.14913 0
M  V30 24646 H 2269.3 3.99527 6.41806 0
M  V30 24647 H 2270.57 3.06996 7.16501 0
M  V30 24648 N 2274.8 -0.971167 1.24121 0
M  V30 24649 C 2275.76 -2.04673 1.03159 0
M  V30 24650 C 2276.76 -1.60797 -0.00987496 0
M  V30 24651 O 2277.95 -1.72665 0.23076 0
M  V30 24652 C 2275.08 -3.36222 0.562824 0
M  V30 24653 H 2276.27 -2.24702 1.98618 0
M  V30 24654 H 2273.83 -1.14591 1.06295 0
M  V30 24655 H 2274.56 -3.21884 -0.39512 0
M  V30 24656 H 2274.35 -3.6941 1.31447 0
M  V30 24657 H 2275.84 -4.15306 0.437088 0
M  V30 24658 N 2276.27 -1.05441 -1.17133 0
M  V30 24659 C 2277.5 -0.786429 -1.91912 0
M  V30 24660 C 2277.92 0.652203 -1.76431 0
M  V30 24661 O 2277.28 1.45343 -1.08375 0
M  V30 24662 C 2277.33 -1.17503 -3.40918 0
M  V30 24663 O 2276.43 -0.308661 -4.11243 0
M  V30 24664 H 2275.78 -0.288168 -0.59821 0
M  V30 24665 H 2278.31 -1.40792 -1.48454 0
M  V30 24666 H 2278.32 -1.14287 -3.91666 0
M  V30 24667 H 2276.99 -2.22298 -3.51506 0
M  V30 24668 H 2275.57 -0.401635 -3.70731 0
M  V30 24669 N 2277.75 1.33613 -0.835776 0
M  V30 24670 C 2279 1.98175 -0.430631 0
M  V30 24671 C 2279.33 1.66063 1.00682 0
M  V30 24672 O 2278.61 0.938907 1.70337 0
M  V30 24673 C 2278.89 3.54219 -0.648127 0
M  V30 24674 C 2278.74 3.96029 -2.13262 0
M  V30 24675 C 2280.06 4.40003 -0.0922887 0
M  V30 24676 H 2277.18 0.719879 -0.157936 0
M  V30 24677 H 2279.82 1.58303 -1.05072 0
M  V30 24678 H 2277.97 3.88314 -0.120305 0
M  V30 24679 H 2279.64 3.72207 -2.72507 0
M  V30 24680 H 2277.89 3.45873 -2.61829 0
M  V30 24681 H 2278.56 5.04704 -2.23556 0
M  V30 24682 H 2281.03 4.12536 -0.543416 0
M  V30 24683 H 2279.91 5.48215 -0.274179 0
M  V30 24684 H 2280.17 4.30556 1.00371 0
M  V30 24685 N 2279.23 0.591922 1.46062 0
M  V30 24686 C 2280.14 -0.138269 2.34192 0
M  V30 24687 C 2281.16 -0.876582 1.50306 0
M  V30 24688 O 2282.33 -0.837696 1.83152 0
M  V30 24689 C 2279.4 -1.1332 3.27658 0
M  V30 24690 C 2278.46 -0.398555 4.27446 0
M  V30 24691 C 2277.69 -1.34609 5.16446 0
M  V30 24692 O 2277.91 -2.58312 5.08558 0
M  V30 24693 O 2276.85 -0.851663 5.95844 0
M  V30 24694 H 2280.67 0.585572 2.98001 0
M  V30 24695 H 2278.26 0.352265 1.45188 0
M  V30 24696 H 2280.14 -1.70664 3.85294 0
M  V30 24697 H 2278.82 -1.83835 2.66433 0
M  V30 24698 H 2277.72 0.21696 3.7347 0
M  V30 24699 H 2279.06 0.265795 4.91482 0
M  V30 24700 N 2280.71 -1.54102 0.330204 0
M  V30 24701 C 2281.93 -2.05571 -0.274857 0
M  V30 24702 C 2282.36 -1.20439 -1.44485 0
M  V30 24703 O 2281.72 -0.215023 -1.8002 0
M  V30 24704 C 2281.76 -3.54116 -0.680727 0
M  V30 24705 O 2280.87 -3.71896 -1.78234 0
M  V30 24706 H 2280.21 -0.662236 -0.0483732 0
M  V30 24707 H 2282.74 -1.98877 0.480543 0
M  V30 24708 H 2282.75 -3.96507 -0.961565 0
M  V30 24709 H 2281.42 -4.15532 0.174976 0
M  V30 24710 H 2280 -3.4141 -1.49979 0
M  V30 24711 N 2282.19 -0.0585199 -1.57491 0
M  V30 24712 C 2283.43 0.617424 -1.94852 0
M  V30 24713 C 2283.79 1.67573 -0.937194 0
M  V30 24714 O 2284.99 2.40627 -1.198 0
M  V30 24715 C 2283.26 1.19141 -3.36957 0
M  V30 24716 S 2284.82 1.88433 -3.96281 0
M  V30 24717 H 2281.64 0.202535 -0.681543 0
M  V30 24718 H 2284.24 -0.12921 -1.95073 0
M  V30 24719 H 2282.95 0.409143 -4.08355 0
M  V30 24720 H 2282.48 1.9747 -3.40249 0
M  V30 24721 H 2284.49 3.16561 -3.82104 0
M  V30 24722 N 2283.66 1.56128 0.21493 0
M  V30 24723 C 2284.91 1.78645 0.93642 0
M  V30 24724 C 2285.23 0.628261 1.85236 0
M  V30 24725 O 2286.43 0.737232 2.61299 0
M  V30 24726 C 2284.89 3.16392 1.71535 0
M  V30 24727 C 2284.5 4.39955 0.845222 0
M  V30 24728 C 2286.24 3.48231 2.42766 0
M  V30 24729 C 2284.15 5.68726 1.62188 0
M  V30 24730 H 2283.08 0.666057 0.35339 0
M  V30 24731 H 2285.73 1.82512 0.190137 0
M  V30 24732 H 2284.11 3.06719 2.50478 0
M  V30 24733 H 2285.28 4.607 0.0958543 0
M  V30 24734 H 2283.6 4.1568 0.244716 0
M  V30 24735 H 2286.2 4.41668 3.01386 0
M  V30 24736 H 2286.54 2.7104 3.15979 0
M  V30 24737 H 2287.07 3.59263 1.70806 0
M  V30 24738 H 2283.81 6.48828 0.932897 0
M  V30 24739 H 2283.33 5.5203 2.34569 0
M  V30 24740 H 2285.01 6.09137 2.18084 0
M  V30 24741 N 2285.14 -0.481893 1.50052 0
M  V30 24742 C 2286.56 -0.814732 1.37238 0
M  V30 24743 C 2286.76 -1.97071 0.420144 0
M  V30 24744 O 2285.81 -2.52105 -0.141201 0
M  V30 24745 C 2287.13 -1.13696 2.78377 0
M  V30 24746 C 2288.68 -1.24405 2.87215 0
M  V30 24747 C 2289.15 -1.59946 4.29163 0
M  V30 24748 N 2290.64 -1.66959 4.32064 0
M  V30 24749 C 2291.38 -1.95942 5.38882 0
M  V30 24750 N 2290.87 -2.2302 6.55922 0
M  V30 24751 N 2292.67 -1.97354 5.26315 0
M  V30 24752 H 2284.82 0.280087 2.10545 0
M  V30 24753 H 2287.08 0.062762 0.94592 0
M  V30 24754 H 2286.79 -0.360725 3.49845 0
M  V30 24755 H 2286.66 -2.07581 3.14945 0
M  V30 24756 H 2289.05 -2.01097 2.15972 0
M  V30 24757 H 2289.13 -0.285254 2.54205 0
M  V30 24758 H 2288.77 -0.837979 5.00939 0
M  V30 24759 H 2288.7 -2.56958 4.59652 0
M  V30 24760 H 2291.19 -1.48117 3.47663 0
M  V30 24761 H 2291.51 -2.44378 7.33143 0
M  V30 24762 H 2289.85 -2.20435 6.59116 0
M  V30 24763 H 2293.04 -1.75689 4.33879 0
M  V30 24764 H 2293.21 -2.19607 6.09653 0
M  V30 24765 N 2286.62 -1.39448 -0.734313 0
M  V30 24766 C 2287.87 -1.36911 -1.4961 0
M  V30 24767 C 2288.2 0.0347488 -1.94169 0
M  V30 24768 O 2287.47 0.999818 -1.66835 0
M  V30 24769 C 2287.76 -2.34208 -2.7353 0
M  V30 24770 C 2287.61 -3.83538 -2.34986 0
M  V30 24771 C 2288.93 -2.29324 -3.75631 0
M  V30 24772 H 2286.05 -0.498638 -0.542705 0
M  V30 24773 H 2288.69 -1.70444 -0.839567 0
M  V30 24774 H 2286.84 -2.05742 -3.29549 0
M  V30 24775 H 2288.51 -4.22756 -1.84593 0
M  V30 24776 H 2286.76 -4.00281 -1.67206 0
M  V30 24777 H 2287.43 -4.47105 -3.2373 0
M  V30 24778 H 2289.9 -2.54495 -3.29198 0
M  V30 24779 H 2288.78 -2.9948 -4.60003 0
M  V30 24780 H 2289.04 -1.29849 -4.22601 0
M  V30 24781 N 2288.1 0.964571 -1.24635 0
M  V30 24782 C 2289.03 2.07739 -1.06614 0
M  V30 24783 C 2290.01 1.70086 0.0218367 0
M  V30 24784 O 2291.19 1.93652 -0.145827 0
M  V30 24785 C 2288.32 3.40707 -0.673503 0
M  V30 24786 C 2287.28 3.92329 -1.71061 0
M  V30 24787 C 2286.6 5.21676 -1.17294 0
M  V30 24788 C 2287.9 4.19818 -3.10725 0
M  V30 24789 H 2289.6 2.23073 -1.99697 0
M  V30 24790 H 2287.14 1.07193 -0.961539 0
M  V30 24791 H 2289.1 4.17998 -0.534418 0
M  V30 24792 H 2287.82 3.25283 0.293016 0
M  V30 24793 H 2286.48 3.17198 -1.83796 0
M  V30 24794 H 2286.13 5.02614 -0.196935 0
M  V30 24795 H 2285.83 5.57183 -1.86602 0
M  V30 24796 H 2287.35 6.01573 -1.04604 0
M  V30 24797 H 2288.77 4.87802 -3.01201 0
M  V30 24798 H 2287.16 4.6656 -3.77414 0
M  V30 24799 H 2288.23 3.26473 -3.5853 0
M  V30 24800 N 2289.58 1.0606 1.16572 0
M  V30 24801 C 2290.8 0.796596 1.91492 0
M  V30 24802 C 2291.23 -0.642837 1.76774 0
M  V30 24803 O 2290.58 -1.44766 1.09144 0
M  V30 24804 C 2290.63 1.19309 3.40291 0
M  V30 24805 O 2289.74 0.330466 4.11074 0
M  V30 24806 H 2289.08 0.291337 0.596673 0
M  V30 24807 H 2291.61 1.41578 1.47706 0
M  V30 24808 H 2291.62 1.16363 3.91055 0
M  V30 24809 H 2290.29 2.24159 3.50322 0
M  V30 24810 H 2288.87 0.42129 3.70513 0
M  V30 24811 N 2291.06 -1.33168 0.84285 0
M  V30 24812 C 2292.33 -1.92216 0.36225 0
M  V30 24813 C 2292.71 -1.7684 -1.15286 0
M  V30 24814 O 2292.06 -1.15922 -1.96912 0
M  V30 24815 C 2292.27 -3.39385 0.813554 0
M  V30 24816 C 2293.62 -4.1653 0.823877 0
M  V30 24817 O 2294.64 -3.48054 0.757419 0
M  V30 24818 O 2293.5 -5.38781 0.915288 0
M  V30 24819 H 2290.6 -0.820519 0.103331 0
M  V30 24820 H 2293.14 -1.42015 0.928967 0
M  V30 24821 H 2291.91 -3.44466 1.8563 0
M  V30 24822 H 2291.54 -3.96971 0.22363 0
M  V30 24823 N 2292.53 -0.599659 -1.45746 0
M  V30 24824 C 2293.78 -0.0918999 -2.02592 0
M  V30 24825 C 2294.11 1.27126 -1.46808 0
M  V30 24826 O 2293.39 1.8368 -0.63969 0
M  V30 24827 C 2293.67 -0.044403 -3.60073 0
M  V30 24828 C 2293.52 -1.43766 -4.26206 0
M  V30 24829 C 2294.84 0.647532 -4.3531 0
M  V30 24830 H 2291.96 -0.03487 -0.736175 0
M  V30 24831 H 2294.6 -0.770112 -1.73693 0
M  V30 24832 H 2292.75 0.533156 -3.84824 0
M  V30 24833 H 2294.43 -2.06169 -4.12665 0
M  V30 24834 H 2292.67 -2.00062 -3.84912 0
M  V30 24835 H 2293.34 -1.35674 -5.35067 0
M  V30 24836 H 2295.82 0.156703 -4.15805 0
M  V30 24837 H 2294.69 0.649846 -5.4504 0
M  V30 24838 H 2294.95 1.71212 -4.07601 0
M  V30 24839 N 2294.01 1.53925 -0.338371 0
M  V30 24840 C 2294.97 2.23494 0.50826 0
M  V30 24841 C 2295.97 1.23337 1.03173 0
M  V30 24842 O 2297.16 1.47812 0.9218 0
M  V30 24843 C 2294.3 2.95055 1.70749 0
M  V30 24844 H 2295.49 2.99733 -0.10011 0
M  V30 24845 H 2293.04 1.56043 -0.0896473 0
M  V30 24846 H 2293.78 2.2299 2.3547 0
M  V30 24847 H 2293.56 3.68514 1.33939 0
M  V30 24848 H 2295.05 3.48017 2.30812 0
M  V30 24849 N 2295.49 0.0668712 1.57458 0
M  V30 24850 C 2296.44 -0.902085 2.12441 0
M  V30 24851 C 2297.41 -1.29858 1.03567 0
M  V30 24852 O 2298.59 -1.3853 1.31203 0
M  V30 24853 C 2295.73 -2.16609 2.68653 0
M  V30 24854 C 2294.84 -1.82267 3.91667 0
M  V30 24855 C 2293.98 -3.03242 4.36139 0
M  V30 24856 C 2293.02 -2.64895 5.51813 0
M  V30 24857 N 2292.16 -3.78613 5.91267 0
M  V30 24858 H 2297 -0.42633 2.94935 0
M  V30 24859 H 2294.53 -0.198793 1.45751 0
M  V30 24860 H 2296.49 -2.90594 2.99351 0
M  V30 24861 H 2295.12 -2.61734 1.88932 0
M  V30 24862 H 2294.17 -0.983654 3.67462 0
M  V30 24863 H 2295.48 -1.50051 4.75695 0
M  V30 24864 H 2294.64 -3.85511 4.68472 0
M  V30 24865 H 2293.38 -3.38649 3.50954 0
M  V30 24866 H 2292.38 -1.81046 5.19136 0
M  V30 24867 H 2293.61 -2.30664 6.38726 0
M  V30 24868 H 2291.55 -4.13791 5.09032 0
M  V30 24869 H 2291.47 -3.50148 6.70024 0
M  V30 24870 H 2292.74 -4.61475 6.2822 0
M  V30 24871 N 2296.97 -1.56239 -0.206647 0
M  V30 24872 C 2298.19 -1.84392 -0.949442 0
M  V30 24873 C 2298.62 -0.649047 -1.76547 0
M  V30 24874 O 2297.98 0.4022 -1.76782 0
M  V30 24875 C 2298.02 -3.10672 -1.83073 0
M  V30 24876 O 2297.13 -2.90412 -2.92805 0
M  V30 24877 H 2296.47 -0.607503 -0.268022 0
M  V30 24878 H 2299 -2.03462 -0.215453 0
M  V30 24879 H 2299.01 -3.41165 -2.23764 0
M  V30 24880 H 2297.68 -3.97263 -1.23105 0
M  V30 24881 H 2296.26 -2.71189 -2.55951 0
M  V30 24882 N 2298.45 0.473929 -1.50305 0
M  V30 24883 C 2299.86 0.807442 -1.37668 0
M  V30 24884 C 2300.06 1.96846 -0.430589 0
M  V30 24885 O 2299.12 2.52176 0.12783 0
M  V30 24886 C 2300.43 1.12218 -2.78976 0
M  V30 24887 C 2301.98 1.2288 -2.87871 0
M  V30 24888 C 2302.45 1.57668 -4.30006 0
M  V30 24889 N 2303.94 1.64665 -4.32943 0
M  V30 24890 C 2304.68 1.93082 -5.39914 0
M  V30 24891 N 2304.18 2.19538 -6.57096 0
M  V30 24892 N 2305.97 1.9456 -5.27355 0
M  V30 24893 H 2298.12 -0.291249 -2.10394 0
M  V30 24894 H 2300.38 -0.0677776 -0.945574 0
M  V30 24895 H 2300.09 0.342167 -3.50032 0
M  V30 24896 H 2299.96 2.05907 -3.16041 0
M  V30 24897 H 2302.35 1.99949 -2.17036 0
M  V30 24898 H 2302.43 0.271769 -2.54352 0
M  V30 24899 H 2302.07 0.811401 -5.01377 0
M  V30 24900 H 2302 2.54517 -4.61009 0
M  V30 24901 H 2304.5 1.46271 -3.48444 0
M  V30 24902 H 2304.81 2.40487 -7.34429 0
M  V30 24903 H 2303.15 2.16937 -6.60275 0
M  V30 24904 H 2306.34 1.73386 -4.34804 0
M  V30 24905 H 2306.52 2.16371 -6.10809 0
M  V30 24906 N 2299.92 1.39835 0.726907 0
M  V30 24907 C 2300.89 1.38966 1.82267 0
M  V30 24908 C 2301.89 0.285362 1.58248 0
M  V30 24909 O 2303.08 0.543689 1.65498 0
M  V30 24910 C 2300.21 1.17025 3.20184 0
M  V30 24911 H 2301.4 2.36479 1.84439 0
M  V30 24912 H 2298.95 1.25518 0.931393 0
M  V30 24913 H 2299.69 0.202261 3.23669 0
M  V30 24914 H 2299.47 1.97003 3.39016 0
M  V30 24915 H 2300.96 1.19177 4.00233 0
M  V30 24916 N 2301.4 -0.957948 1.25144 0
M  V30 24917 C 2302.65 -1.69652 1.09093 0
M  V30 24918 C 2302.96 -1.92097 -0.368514 0
M  V30 24919 O 2304.17 -2.63619 -0.649409 0
M  V30 24920 C 2302.63 -3.05411 1.904 0
M  V30 24921 C 2302.23 -2.90773 3.40815 0
M  V30 24922 C 2303.98 -3.83073 1.82908 0
M  V30 24923 C 2301.88 -4.21902 4.14431 0
M  V30 24924 H 2300.81 -0.636228 0.404636 0
M  V30 24925 H 2303.47 -1.06669 1.49311 0
M  V30 24926 H 2301.85 -3.69278 1.43002 0
M  V30 24927 H 2303.02 -2.35858 3.95863 0
M  V30 24928 H 2301.34 -2.26568 3.49365 0
M  V30 24929 H 2303.93 -4.80191 2.35204 0
M  V30 24930 H 2304.28 -4.08613 0.796296 0
M  V30 24931 H 2304.81 -3.2595 2.28038 0
M  V30 24932 H 2301.55 -4.01552 5.18109 0
M  V30 24933 H 2301.07 -4.76595 3.64167 0
M  V30 24934 H 2302.75 -4.90464 4.21965 0
M  V30 24935 N 2302.88 -1.06677 -1.16008 0
M  V30 24936 C 2303.84 -0.685039 -2.18723 0
M  V30 24937 C 2304.84 0.271218 -1.58496 0
M  V30 24938 O 2306.03 0.053085 -1.74119 0
M  V30 24939 C 2303.16 -0.0085964 -3.40899 0
M  V30 24940 H 2304.36 -1.59435 -2.54009 0
M  V30 24941 H 2301.91 -0.862464 -1.3035 0
M  V30 24942 H 2302.65 0.913282 -3.11175 0
M  V30 24943 H 2302.43 -0.696271 -3.85868 0
M  V30 24944 H 2303.92 0.244066 -4.16886 0
M  V30 24945 N 2304.36 1.32719 -0.8499 0
M  V30 24946 C 2305.61 1.9668 -0.447209 0
M  V30 24947 C 2305.92 1.68027 1.00132 0
M  V30 24948 O 2307.13 2.25688 1.50922 0
M  V30 24949 C 2305.58 3.52025 -0.748762 0
M  V30 24950 C 2305.19 3.89542 -2.21271 0
M  V30 24951 C 2306.93 4.22481 -0.413562 0
M  V30 24952 C 2304.84 5.37912 -2.45773 0
M  V30 24953 H 2303.77 0.73606 -0.163499 0
M  V30 24954 H 2306.42 1.51181 -1.04002 0
M  V30 24955 H 2304.8 3.95908 -0.0854423 0
M  V30 24956 H 2305.98 3.56684 -2.91742 0
M  V30 24957 H 2304.29 3.32099 -2.51196 0
M  V30 24958 H 2306.89 5.31609 -0.574111 0
M  V30 24959 H 2307.23 4.11282 0.64442 0
M  V30 24960 H 2307.77 3.84165 -1.03257 0
M  V30 24961 H 2304.5 5.54126 -3.50177 0
M  V30 24962 H 2304.02 5.72193 -1.79874 0
M  V30 24963 H 2305.7 6.04936 -2.29482 0
M  V30 24964 N 2305.84 0.60738 1.45426 0
M  V30 24965 C 2307.25 0.187567 1.85755 0
M  V30 24966 C 2307.6 -1.25548 1.50772 0
M  V30 24967 O 2306.72 -1.95191 0.934304 0
M  V30 24968 C 2307.32 0.333632 3.37153 0
M  V30 24969 C 2305.88 -0.031488 3.76387 0
M  V30 24970 C 2305.02 0.658164 2.69376 0
M  V30 24971 H 2307.98 0.814074 1.3623 0
M  V30 24972 H 2308 -0.434213 3.78014 0
M  V30 24973 H 2307.51 1.38399 3.62584 0
M  V30 24974 H 2305.61 -1.08104 3.56573 0
M  V30 24975 H 2305.72 0.362019 4.7773 0
M  V30 24976 H 2304.09 0.095832 2.5452 0
M  V30 24977 H 2304.87 1.71066 2.97643 0
M  V30 24978 N 2307.31 -1.53743 0.34653 0
M  V30 24979 C 2308.56 -2.0126 -0.249438 0
M  V30 24980 C 2308.89 -1.23389 -1.49963 0
M  V30 24981 O 2308.17 -0.322323 -1.91811 0
M  V30 24982 C 2308.45 -3.5571 -0.560581 0
M  V30 24983 C 2308.3 -4.4429 0.701914 0
M  V30 24984 C 2309.62 -4.18267 -1.36898 0
M  V30 24985 H 2306.74 -0.731584 -0.0891859 0
M  V30 24986 H 2309.38 -1.84155 0.467657 0
M  V30 24987 H 2307.53 -3.70416 -1.17149 0
M  V30 24988 H 2309.21 -4.41414 1.33982 0
M  V30 24989 H 2307.45 -4.13031 1.3262 0
M  V30 24990 H 2308.12 -5.50248 0.439427 0
M  V30 24991 H 2310.6 -4.07276 -0.852376 0
M  V30 24992 H 2309.47 -5.264 -1.55543 0
M  V30 24993 H 2309.73 -3.73082 -2.37196 0
M  V30 24994 N 2308.79 -0.0752207 -1.5742 0
M  V30 24995 C 2310.07 0.634296 -1.8503 0
M  V30 24996 C 2310.45 1.8758 -0.968338 0
M  V30 24997 O 2309.8 2.28472 -0.035515 0
M  V30 24998 C 2310.01 0.968683 -3.35287 0
M  V30 24999 C 2311.36 1.3407 -4.02878 0
M  V30 25000 O 2312.38 1.06031 -3.40053 0
M  V30 25001 O 2311.24 1.86497 -5.13694 0
M  V30 25002 H 2308.33 0.315374 -0.764505 0
M  V30 25003 H 2310.88 -0.106412 -1.69366 0
M  V30 25004 H 2309.65 0.0870688 -3.91203 0
M  V30 25005 H 2309.27 1.76604 -3.56226 0
M  V30 25006 N 2310.27 1.56347 0.198358 0
M  V30 25007 C 2311.2 1.97312 1.24861 0
M  V30 25008 C 2312.18 0.844602 1.4765 0
M  V30 25009 O 2313.37 1.10868 1.59442 0
M  V30 25010 C 2310.5 2.30982 2.59354 0
M  V30 25011 C 2309.45 3.46541 2.51183 0
M  V30 25012 C 2308.78 3.65878 3.8992 0
M  V30 25013 C 2310.08 4.80826 2.03969 0
M  V30 25014 H 2311.77 2.85293 0.908202 0
M  V30 25015 H 2309.32 1.37259 0.435438 0
M  V30 25016 H 2311.27 2.58234 3.33006 0
M  V30 25017 H 2309.99 1.3988 2.95129 0
M  V30 25018 H 2308.65 3.19374 1.79988 0
M  V30 25019 H 2308.3 2.72112 4.23041 0
M  V30 25020 H 2308 4.43617 3.85328 0
M  V30 25021 H 2309.52 3.95503 4.65198 0
M  V30 25022 H 2310.94 5.07132 2.67377 0
M  V30 25023 H 2309.34 5.62012 2.10387 0
M  V30 25024 H 2310.41 4.74628 0.992778 0
M  V30 25025 N 2311.75 -0.465951 1.50554 0
M  V30 25026 C 2313.03 -1.22709 1.52322 0
M  V30 25027 C 2313.41 -2.09355 0.270844 0
M  V30 25028 O 2312.75 -2.15997 -0.745503 0
M  V30 25029 C 2312.96 -2.05369 2.82178 0
M  V30 25030 C 2314.31 -2.63384 3.33037 0
M  V30 25031 O 2315.34 -2.15607 2.83535 0
M  V30 25032 O 2314.19 -3.50449 4.19342 0
M  V30 25033 H 2311.29 -0.557111 0.611193 0
M  V30 25034 H 2313.83 -0.477353 1.62848 0
M  V30 25035 H 2312.61 -1.41551 3.648 0
M  V30 25036 H 2312.23 -2.87466 2.7468 0
M  V30 25037 N 2313.23 -1.40218 -0.719481 0
M  V30 25038 C 2314.45 -1.41783 -1.51368 0
M  V30 25039 C 2314.88 -0.0182685 -1.88091 0
M  V30 25040 O 2314.23 0.97268 -1.52999 0
M  V30 25041 C 2314.28 -2.3112 -2.76796 0
M  V30 25042 O 2313.39 -1.75177 -3.73345 0
M  V30 25043 H 2312.73 -0.482167 -0.456521 0
M  V30 25044 H 2315.26 -1.84402 -0.886408 0
M  V30 25045 H 2315.27 -2.46172 -3.25366 0
M  V30 25046 H 2313.94 -3.32824 -2.49401 0
M  V30 25047 H 2312.52 -1.6945 -3.32176 0
M  V30 25048 N 2314.7 0.951297 -1.25651 0
M  V30 25049 C 2315.64 2.05195 -1.02116 0
M  V30 25050 C 2316.65 1.62793 0.0150285 0
M  V30 25051 O 2317.84 1.7709 -0.223906 0
M  V30 25052 C 2314.94 3.34849 -0.522419 0
M  V30 25053 C 2314.11 4.06073 -1.62553 0
M  V30 25054 C 2313.17 5.13999 -1.12659 0
M  V30 25055 O 2312.2 5.39263 -1.82165 0
M  V30 25056 N 2313.4 5.80492 0.030368 0
M  V30 25057 H 2316.16 2.25954 -1.96888 0
M  V30 25058 H 2313.72 1.12008 -1.16901 0
M  V30 25059 H 2315.72 4.0433 -0.173032 0
M  V30 25060 H 2314.29 3.10838 0.331455 0
M  V30 25061 H 2313.51 3.30645 -2.14634 0
M  V30 25062 H 2314.79 4.50414 -2.36652 0
M  V30 25063 H 2314.19 5.6239 0.61107 0
M  V30 25064 H 2312.75 6.5101 0.320761 0
M  V30 25065 N 2316.18 1.07291 1.1544 0
M  V30 25066 C 2317.43 0.796879 1.86488 0
M  V30 25067 C 2317.76 -0.675339 1.82079 0
M  V30 25068 O 2317.04 -1.49558 1.24349 0
M  V30 25069 C 2317.32 1.30495 3.35624 0
M  V30 25070 C 2317.17 2.84167 3.48668 0
M  V30 25071 C 2318.49 0.920983 4.30356 0
M  V30 25072 H 2315.61 0.290951 0.677139 0
M  V30 25073 H 2318.25 1.33058 1.3563 0
M  V30 25074 H 2316.4 0.850949 3.79066 0
M  V30 25075 H 2318.07 3.37851 3.14093 0
M  V30 25076 H 2316.32 3.22396 2.90247 0
M  V30 25077 H 2316.99 3.14785 4.53447 0
M  V30 25078 H 2319.46 1.31217 3.94869 0
M  V30 25079 H 2318.34 1.30382 5.3319 0
M  V30 25080 H 2318.6 -0.173149 4.41761 0
M  V30 25081 N 2317.66 -1.32267 0.856927 0
M  V30 25082 C 2318.61 -2.3076 0.292027 0
M  V30 25083 C 2319.6 -1.58948 -0.585829 0
M  V30 25084 O 2320.81 -1.73664 -0.47338 0
M  V30 25085 H 2317.18 -0.748177 0.0757341 0
M  V30 25086 H 2319.15 -2.75893 1.13691 0
M  V30 25087 C 2317.9 -3.44045 -0.502809 0
M  V30 25088 H 2317.23 -3.99466 0.163398 0
M  V30 25089 H 2318.67 -4.15112 -0.863618 0
M  V30 25090 C 2317.13 -2.91508 -1.68893 0
M  V30 25091 O 2317.66 -2.89189 -2.78805 0
M  V30 25092 N 2315.86 -2.47877 -1.51675 0
M  V30 25093 H 2315.41 -2.49962 -0.622622 0
M  V30 25094 H 2315.37 -2.1308 -2.3118 0
M  V30 25095 N 2319.14 -0.615084 -1.45102 0
M  V30 25096 C 2320.09 0.11175 -2.32331 0
M  V30 25097 C 2321.08 0.852076 -1.4641 0
M  V30 25098 O 2322.29 0.766793 -1.62851 0
M  V30 25099 H 2318.66 0.0548941 -0.749994 0
M  V30 25100 H 2320.63 -0.642276 -2.91406 0
M  V30 25101 C 2319.38 1.09065 -3.30152 0
M  V30 25102 H 2318.7 0.530415 -3.96266 0
M  V30 25103 H 2320.14 1.56901 -3.93901 0
M  V30 25104 C 2318.6 2.16795 -2.57879 0
M  V30 25105 O 2319.13 3.24648 -2.36573 0
M  V30 25106 N 2317.34 1.92285 -2.17887 0
M  V30 25107 H 2316.89 1.04583 -2.35415 0
M  V30 25108 H 2316.84 2.64569 -1.69855 0
M  V30 25109 N 2320.62 1.53557 -0.354678 0
M  V30 25110 C 2321.55 2.28321 0.489051 0
M  V30 25111 C 2322.53 1.30318 1.09322 0
M  V30 25112 O 2323.71 1.59175 1.11252 0
M  V30 25113 C 2320.84 3.06433 1.6345 0
M  V30 25114 C 2319.8 4.12033 1.15813 0
M  V30 25115 C 2319.12 4.78164 2.39297 0
M  V30 25116 C 2320.42 5.21698 0.250639 0
M  V30 25117 H 2322.12 2.99097 -0.134666 0
M  V30 25118 H 2319.66 1.43848 -0.0662079 0
M  V30 25119 H 2321.62 3.57479 2.2313 0
M  V30 25120 H 2320.34 2.33329 2.28529 0
M  V30 25121 H 2319 3.61917 0.584083 0
M  V30 25122 H 2318.65 4.01643 3.02807 0
M  V30 25123 H 2318.35 5.49517 2.08099 0
M  V30 25124 H 2319.87 5.31999 2.99682 0
M  V30 25125 H 2321.29 5.68312 0.754595 0
M  V30 25126 H 2319.68 6.00092 0.0300413 0
M  V30 25127 H 2320.75 4.79671 -0.710209 0
M  V30 25128 N 2322.1 0.083568 1.57378 0
M  V30 25129 C 2323.34 -0.582836 1.93931 0
M  V30 25130 C 2323.67 -1.68902 0.964484 0
M  V30 25131 O 2322.93 -1.95692 -0.017913 0
M  V30 25132 C 2323.22 -1.18834 3.37066 0
M  V30 25133 C 2322.89 -0.207114 4.50424 0
M  V30 25134 C 2321.55 0.0627961 4.81159 0
M  V30 25135 C 2323.9 0.463517 5.19135 0
M  V30 25136 C 2321.23 1.01023 5.77937 0
M  V30 25137 C 2323.58 1.39934 6.16929 0
M  V30 25138 C 2322.25 1.6776 6.46075 0
M  V30 25139 H 2321.52 -0.213275 0.709644 0
M  V30 25140 H 2324.17 0.15695 1.90856 0
M  V30 25141 H 2322.47 -2.00413 3.36663 0
M  V30 25142 H 2324.17 -1.71146 3.62643 0
M  V30 25143 H 2320.76 -0.427672 4.26461 0
M  V30 25144 H 2324.94 0.268121 4.95575 0
M  V30 25145 H 2320.2 1.23294 5.98839 0
M  V30 25146 H 2324.37 1.92488 6.69269 0
M  V30 25147 H 2322 2.41333 7.20876 0
M  V30 25148 N 2323.57 -1.5645 -0.190064 0
M  V30 25149 C 2324.5 -1.97971 -1.23813 0
M  V30 25150 C 2325.48 -0.85242 -1.472 0
M  V30 25151 O 2326.67 -1.11712 -1.58852 0
M  V30 25152 C 2323.8 -2.32354 -2.58126 0
M  V30 25153 C 2322.75 -3.47868 -2.49342 0
M  V30 25154 C 2322.08 -3.67941 -3.87974 0
M  V30 25155 C 2323.38 -4.81901 -2.01416 0
M  V30 25156 H 2325.07 -2.85771 -0.89306 0
M  V30 25157 H 2322.62 -1.37488 -0.428153 0
M  V30 25158 H 2324.57 -2.59997 -3.31632 0
M  V30 25159 H 2323.3 -1.41443 -2.94383 0
M  V30 25160 H 2321.96 -3.20324 -1.78291 0
M  V30 25161 H 2321.6 -2.74352 -4.21592 0
M  V30 25162 H 2321.3 -4.45654 -3.8297 0
M  V30 25163 H 2322.83 -3.97965 -4.63094 0
M  V30 25164 H 2324.24 -5.08542 -2.64684 0
M  V30 25165 H 2322.64 -5.6312 -2.07403 0
M  V30 25166 H 2323.71 -4.75148 -0.967593 0
M  V30 25167 N 2325.05 0.45796 -1.50799 0
M  V30 25168 C 2326 1.55427 -1.70619 0
M  V30 25169 C 2326.97 1.56814 -0.54759 0
M  V30 25170 O 2328.15 1.74143 -0.779678 0
M  V30 25171 C 2325.29 2.93308 -1.81836 0
M  V30 25172 C 2324.41 3.01609 -3.09283 0
M  V30 25173 C 2323.54 4.30485 -3.11217 0
M  V30 25174 C 2322.58 4.32577 -4.33063 0
M  V30 25175 N 2321.72 5.52945 -4.32662 0
M  V30 25176 H 2326.56 1.37831 -2.64209 0
M  V30 25177 H 2324.09 0.669914 -1.3096 0
M  V30 25178 H 2326.05 3.73283 -1.86321 0
M  V30 25179 H 2324.68 3.09509 -0.916739 0
M  V30 25180 H 2323.73 2.14425 -3.14207 0
M  V30 25181 H 2325.05 2.99015 -3.99239 0
M  V30 25182 H 2324.2 5.18819 -3.14503 0
M  V30 25183 H 2322.94 4.35707 -2.19114 0
M  V30 25184 H 2321.94 3.42639 -4.29975 0
M  V30 25185 H 2323.17 4.29036 -5.26407 0
M  V30 25186 H 2321.12 5.58927 -3.43419 0
M  V30 25187 H 2321.03 5.52146 -5.16402 0
M  V30 25188 H 2322.3 6.43367 -4.40113 0
M  V30 25189 N 2326.53 1.40598 0.712035 0
M  V30 25190 C 2327.75 1.42584 1.50614 0
M  V30 25191 C 2328.18 0.0282432 1.88079 0
M  V30 25192 O 2327.54 -0.964552 1.53512 0
M  V30 25193 C 2327.59 2.32585 2.75566 0
M  V30 25194 O 2326.69 1.77154 3.72411 0
M  V30 25195 H 2326.03 0.484581 0.453957 0
M  V30 25196 H 2328.56 1.84869 0.876616 0
M  V30 25197 H 2328.57 2.47894 3.24056 0
M  V30 25198 H 2327.25 3.34142 2.47633 0
M  V30 25199 H 2325.82 1.7121 3.31273 0
M  V30 25200 N 2328.01 -0.94462 1.26153 0
M  V30 25201 C 2328.96 -2.02855 1.04085 0
M  V30 25202 C 2329.94 -1.6088 -0.0256272 0
M  V30 25203 O 2331.13 -1.75967 0.190915 0
M  V30 25204 C 2328.26 -3.36655 0.672177 0
M  V30 25205 C 2327.35 -3.85125 1.77593 0
M  V30 25206 N 2327.74 -4.06282 3.01279 0
M  V30 25207 C 2326.04 -4.14007 1.65874 0
M  V30 25208 C 2326.74 -4.46377 3.72991 0
M  V30 25209 N 2325.71 -4.52884 3.00661 0
M  V30 25210 H 2329.52 -2.1722 1.97972 0
M  V30 25211 H 2327.03 -1.1302 1.1662 0
M  V30 25212 H 2329.03 -4.13948 0.495239 0
M  V30 25213 H 2327.69 -3.23663 -0.25925 0
M  V30 25214 H 2328.7 -3.93069 3.3722 0
M  V30 25215 H 2325.38 -4.09823 0.796979 0
M  V30 25216 H 2326.77 -4.70966 4.79208 0
M  V30 25217 N 2329.49 -1.07901 -1.1487 0
M  V30 25218 C 2330.71 -0.82696 -1.902 0
M  V30 25219 C 2331.14 0.614633 -1.77775 0
M  V30 25220 O 2330.49 1.43011 -1.11434 0
M  V30 25221 C 2330.54 -1.24708 -3.38349 0
M  V30 25222 O 2329.65 -0.395823 -4.10496 0
M  V30 25223 H 2328.99 -0.300792 -0.591963 0
M  V30 25224 H 2331.52 -1.4391 -1.45434 0
M  V30 25225 H 2331.53 -1.2257 -3.89154 0
M  V30 25226 H 2330.2 -2.29704 -3.46711 0
M  V30 25227 H 2328.78 -0.480182 -3.69795 0
M  V30 25228 N 2330.96 1.31811 -0.863929 0
M  V30 25229 C 2332.21 1.96194 -0.468045 0
M  V30 25230 C 2332.53 1.69079 0.983444 0
M  V30 25231 O 2333.73 2.27276 1.48519 0
M  V30 25232 C 2332.19 3.51211 -0.786057 0
M  V30 25233 C 2331.8 3.87174 -2.2539 0
M  V30 25234 C 2333.54 4.22018 -0.458348 0
M  V30 25235 C 2331.45 5.35275 -2.51464 0
M  V30 25236 H 2330.38 0.734284 -0.171296 0
M  V30 25237 H 2333.03 1.5007 -1.056 0
M  V30 25238 H 2331.41 3.95795 -0.127429 0
M  V30 25239 H 2332.58 3.53569 -2.95509 0
M  V30 25240 H 2330.9 3.29416 -2.54704 0
M  V30 25241 H 2333.5 5.3097 -0.630463 0
M  V30 25242 H 2333.84 4.11942 0.600762 0
M  V30 25243 H 2334.37 3.83048 -1.07326 0
M  V30 25244 H 2331.11 5.50381 -3.56035 0
M  V30 25245 H 2330.63 5.70253 -1.85933 0
M  V30 25246 H 2332.31 6.02468 -2.35885 0
M  V30 25247 N 2332.44 0.62277 1.44773 0
M  V30 25248 C 2333.69 0.124119 2.0242 0
M  V30 25249 C 2334.02 -1.24774 1.48812 0
M  V30 25250 O 2333.3 -1.82639 0.668831 0
M  V30 25251 C 2333.58 0.101682 3.59956 0
M  V30 25252 C 2333.43 1.50529 4.23865 0
M  V30 25253 C 2334.75 -0.578196 4.36285 0
M  V30 25254 H 2331.87 0.0465775 0.735527 0
M  V30 25255 H 2334.51 0.797647 1.72446 0
M  V30 25256 H 2332.66 -0.471866 3.85624 0
M  V30 25257 H 2334.33 2.12708 4.09332 0
M  V30 25258 H 2332.58 2.06161 3.81681 0
M  V30 25259 H 2333.25 1.44169 5.32841 0
M  V30 25260 H 2335.72 -0.0905326 4.16002 0
M  V30 25261 H 2334.6 -0.563053 5.46005 0
M  V30 25262 H 2334.86 -1.64706 4.10274 0
M  V30 25263 N 2333.92 -1.53367 0.362817 0
M  V30 25264 C 2334.85 -2.23232 -0.519629 0
M  V30 25265 C 2335.86 -1.24547 -1.04842 0
M  V30 25266 O 2337.05 -1.50787 -0.955269 0
M  V30 25267 C 2334.15 -2.91424 -1.7299 0
M  V30 25268 C 2333.33 -4.1659 -1.33309 0
M  V30 25269 C 2332.39 -4.68017 -2.40512 0
M  V30 25270 O 2331.41 -5.31764 -2.03018 0
M  V30 25271 N 2332.61 -4.45594 -3.72057 0
M  V30 25272 H 2335.38 -2.99596 0.0788036 0
M  V30 25273 H 2332.94 -1.60806 0.187861 0
M  V30 25274 H 2334.93 -3.22737 -2.44178 0
M  V30 25275 H 2333.5 -2.18529 -2.23526 0
M  V30 25276 H 2332.72 -3.9161 -0.451168 0
M  V30 25277 H 2334.01 -4.97969 -1.04423 0
M  V30 25278 H 2333.41 -3.94653 -4.05297 0
M  V30 25279 H 2331.96 -4.81464 -4.39358 0
M  V30 25280 N 2335.4 -0.091913 -1.57332 0
M  V30 25281 C 2336.35 0.868173 -2.13849 0
M  V30 25282 C 2337.32 1.28194 -1.0562 0
M  V30 25283 O 2338.5 1.36425 -1.3339 0
M  V30 25284 C 2335.64 2.12307 -2.72065 0
M  V30 25285 C 2334.75 1.76013 -3.94517 0
M  V30 25286 C 2333.89 2.96265 -4.40908 0
M  V30 25287 C 2332.93 2.56082 -5.55957 0
M  V30 25288 N 2332.06 3.69159 -5.97215 0
M  V30 25289 H 2336.9 0.379354 -2.95576 0
M  V30 25290 H 2334.44 0.17558 -1.46048 0
M  V30 25291 H 2336.4 2.85795 -3.03936 0
M  V30 25292 H 2335.03 2.58695 -1.93072 0
M  V30 25293 H 2334.08 0.92507 -3.68981 0
M  V30 25294 H 2335.39 1.42464 -4.78022 0
M  V30 25295 H 2334.55 3.78009 -4.74546 0
M  V30 25296 H 2333.29 3.33022 -3.56297 0
M  V30 25297 H 2332.29 1.72764 -5.21951 0
M  V30 25298 H 2333.52 2.20473 -6.42315 0
M  V30 25299 H 2331.46 4.0564 -5.1555 0
M  V30 25300 H 2331.38 3.39444 -6.7551 0
M  V30 25301 H 2332.65 4.51423 -6.35482 0
M  V30 25302 N 2336.88 1.56548 0.181765 0
M  V30 25303 C 2338.1 1.85523 0.915914 0
M  V30 25304 C 2338.52 0.676047 1.76281 0
M  V30 25305 O 2337.88 -0.355045 1.79013 0
M  V30 25306 C 2337.93 3.13431 1.80121 0
M  V30 25307 O 2337.65 4.26803 0.988487 0
M  V30 25308 C 2339.15 3.55678 2.64591 0
M  V30 25309 H 2336.37 0.615765 0.266599 0
M  V30 25310 H 2338.91 2.03661 0.185004 0
M  V30 25311 H 2337.07 2.97149 2.48558 0
M  V30 25312 H 2337.48 4.99724 1.59299 0
M  V30 25313 H 2338.96 4.48107 3.22342 0
M  V30 25314 H 2339.43 2.79298 3.38953 0
M  V30 25315 H 2340.04 3.74535 2.01503 0
M  V30 25316 N 2338.35 -0.449957 1.5104 0
M  V30 25317 C 2339.32 -1.52767 1.70865 0
M  V30 25318 C 2340.32 -1.50019 0.578872 0
M  V30 25319 O 2341.51 -1.52264 0.84624 0
M  V30 25320 C 2338.64 -2.92347 1.75346 0
M  V30 25321 H 2339.83 -1.36498 2.67036 0
M  V30 25322 H 2337.39 -0.677787 1.40839 0
M  V30 25323 H 2338.12 -3.14036 0.809438 0
M  V30 25324 H 2337.91 -2.95747 2.57441 0
M  V30 25325 H 2339.4 -3.70551 1.92566 0
M  V30 25326 N 2339.83 -1.40974 -0.704569 0
M  V30 25327 C 2340.77 -1.36521 -1.82858 0
M  V30 25328 C 2341.74 -0.233849 -1.6091 0
M  V30 25329 O 2342.93 -0.419304 -1.83777 0
M  V30 25330 C 2340.05 -1.12735 -3.19388 0
M  V30 25331 C 2339.1 -2.2847 -3.60144 0
M  V30 25332 S 2339.93 -3.90914 -3.65987 0
M  V30 25333 C 2341.09 -3.69412 -5.05258 0
M  V30 25334 H 2341.32 -2.31643 -1.86356 0
M  V30 25335 H 2338.86 -1.2739 -0.872416 0
M  V30 25336 H 2340.81 -0.996963 -3.9821 0
M  V30 25337 H 2339.47 -0.192482 -3.1351 0
M  V30 25338 H 2338.67 -2.07497 -4.59305 0
M  V30 25339 H 2338.27 -2.37868 -2.88608 0
M  V30 25340 H 2340.56 -3.28561 -5.92498 0
M  V30 25341 H 2341.5 -4.68143 -5.3127 0
M  V30 25342 H 2341.91 -3.02871 -4.76371 0
M  V30 25343 N 2341.31 0.937917 -1.26653 0
M  V30 25344 C 2342.26 2.05843 -1.08311 0
M  V30 25345 C 2343.25 1.69398 -0.00910548 0
M  V30 25346 O 2344.46 1.79233 -0.166039 0
M  V30 25347 H 2340.83 0.67404 -0.333428 0
M  V30 25348 H 2342.8 2.18463 -2.03265 0
M  V30 25349 C 2341.55 3.39815 -0.736289 0
M  V30 25350 H 2340.88 3.68337 -1.55459 0
M  V30 25351 H 2342.32 4.19023 -0.647764 0
M  V30 25352 C 2340.78 3.32234 0.558765 0
M  V30 25353 O 2341.31 3.68627 1.59615 0
M  V30 25354 N 2339.51 2.85336 0.550607 0
M  V30 25355 H 2339.06 2.55917 -0.293988 0
M  V30 25356 H 2339.02 2.80646 1.41721 0
M  V30 25357 N 2342.79 1.08509 1.14296 0
M  V30 25358 C 2344.03 0.826471 1.85852 0
M  V30 25359 C 2344.39 -0.640846 1.81414 0
M  V30 25360 O 2343.68 -1.46516 1.23465 0
M  V30 25361 C 2343.88 1.28385 3.33545 0
M  V30 25362 C 2343.71 2.79409 3.52364 0
M  V30 25363 C 2342.48 3.4717 3.67153 0
M  V30 25364 C 2344.67 3.77579 3.49197 0
M  V30 25365 N 2342.66 4.86716 3.7414 0
M  V30 25366 C 2344.03 5.03027 3.62441 0
M  V30 25367 C 2346.08 3.70569 3.3254 0
M  V30 25368 C 2344.78 6.22296 3.6075 0
M  V30 25369 C 2346.81 4.89314 3.32153 0
M  V30 25370 C 2346.17 6.13601 3.45939 0
M  V30 25371 H 2342.27 0.355155 0.696699 0
M  V30 25372 H 2344.86 1.38365 1.36979 0
M  V30 25373 H 2343.03 0.754233 3.81006 0
M  V30 25374 H 2344.76 0.971538 3.92865 0
M  V30 25375 H 2341.51 2.97587 3.68428 0
M  V30 25376 H 2341.94 5.59377 3.81349 0
M  V30 25377 H 2346.58 2.75413 3.20792 0
M  V30 25378 H 2344.3 7.17761 3.71274 0
M  V30 25379 H 2347.88 4.85578 3.20476 0
M  V30 25380 H 2346.76 7.03945 3.45587 0
M  V30 25381 N 2344.27 -1.31351 0.870907 0
M  V30 25382 C 2345.68 -1.49342 0.562958 0
M  V30 25383 C 2345.88 -1.80149 -0.902693 0
M  V30 25384 O 2344.94 -1.8807 -1.68481 0
M  V30 25385 C 2346.25 -2.62656 1.46398 0
M  V30 25386 C 2347.8 -2.76539 1.46612 0
M  V30 25387 C 2348.27 -3.92951 2.35273 0
M  V30 25388 N 2349.77 -4.00239 2.33158 0
M  V30 25389 C 2350.5 -4.89589 2.9848 0
M  V30 25390 N 2350 -5.83834 3.72975 0
M  V30 25391 N 2351.79 -4.82843 2.87784 0
M  V30 25392 H 2343.94 -1.09623 1.81925 0
M  V30 25393 H 2346.2 -0.541763 0.777944 0
M  V30 25394 H 2345.91 -2.4667 2.50693 0
M  V30 25395 H 2345.78 -3.58817 1.1632 0
M  V30 25396 H 2348.17 -2.91939 0.430741 0
M  V30 25397 H 2348.25 -1.81043 1.80713 0
M  V30 25398 H 2347.9 -3.78309 3.38888 0
M  V30 25399 H 2347.83 -4.87757 1.98495 0
M  V30 25400 H 2350.32 -3.32811 1.79011 0
M  V30 25401 H 2350.63 -6.48743 4.19943 0
M  V30 25402 H 2348.97 -5.8381 3.77083 0
M  V30 25403 H 2352.17 -4.08191 2.29123 0
M  V30 25404 H 2352.34 -5.52271 3.38971 0
M  V30 25405 N 2345.74 -0.630439 -1.44441 0
M  V30 25406 C 2346.67 0.0617672 -2.33418 0
M  V30 25407 C 2347.66 0.835515 -1.48166 0
M  V30 25408 O 2348.84 0.801533 -1.76887 0
M  V30 25409 C 2345.97 1.04443 -3.31223 0
M  V30 25410 C 2344.92 0.382361 -4.26289 0
M  V30 25411 C 2344.25 1.47488 -5.13957 0
M  V30 25412 C 2345.55 -0.710956 -5.17439 0
M  V30 25413 H 2347.24 -0.681236 -2.91547 0
M  V30 25414 H 2344.79 -0.329051 -1.4019 0
M  V30 25415 H 2346.74 1.53742 -3.92354 0
M  V30 25416 H 2345.47 1.81831 -2.71302 0
M  V30 25417 H 2344.13 -0.0899698 -3.6649 0
M  V30 25418 H 2343.77 2.23962 -4.50389 0
M  V30 25419 H 2343.47 1.03727 -5.78372 0
M  V30 25420 H 2345 1.96968 -5.77958 0
M  V30 25421 H 2346.41 -0.301097 -5.72509 0
M  V30 25422 H 2344.81 -1.07166 -5.90454 0
M  V30 25423 H 2345.88 -1.57837 -4.58493 0
M  V30 25424 N 2347.22 1.53172 -0.370945 0
M  V30 25425 C 2348.45 2.06227 0.220257 0
M  V30 25426 C 2348.87 1.24228 1.41241 0
M  V30 25427 O 2348.23 0.262677 1.79387 0
M  V30 25428 C 2348.28 3.55797 0.5866 0
M  V30 25429 O 2347.38 3.76491 1.68311 0
M  V30 25430 H 2346.72 0.663285 0.0307982 0
M  V30 25431 H 2349.25 1.97533 -0.533102 0
M  V30 25432 H 2349.26 3.98917 0.8561 0
M  V30 25433 H 2347.94 4.14922 -0.285086 0
M  V30 25434 H 2346.52 3.45266 1.40875 0
M  V30 25435 N 2348.7 0.100255 1.57281 0
M  V30 25436 C 2349.66 -0.842361 2.13159 0
M  V30 25437 C 2350.66 -1.20736 1.06205 0
M  V30 25438 O 2351.85 -1.13595 1.32068 0
M  V30 25439 C 2348.99 -2.13651 2.65643 0
M  V30 25440 H 2350.18 -0.357061 2.97767 0
M  V30 25441 H 2347.73 -0.148796 1.5559 0
M  V30 25442 H 2348.47 -2.66654 1.8457 0
M  V30 25443 H 2348.25 -1.88445 3.43847 0
M  V30 25444 H 2349.74 -2.81071 3.08851 0
M  V30 25445 N 2350.18 -1.56643 -0.17346 0
M  V30 25446 C 2351.6 -1.50713 -0.525148 0
M  V30 25447 C 2351.8 -0.804139 -1.84759 0
M  V30 25448 O 2350.85 -0.363618 -2.49868 0
M  V30 25449 C 2352.16 -2.95442 -0.559885 0
M  V30 25450 C 2353.71 -3.06235 -0.647234 0
M  V30 25451 C 2354.19 -4.52418 -0.712884 0
M  V30 25452 N 2355.68 -4.56656 -0.775831 0
M  V30 25453 C 2356.41 -5.67107 -0.847164 0
M  V30 25454 N 2355.91 -6.87195 -0.879464 0
M  V30 25455 N 2357.7 -5.55073 -0.88602 0
M  V30 25456 H 2349.85 -2.00752 0.693717 0
M  V30 25457 H 2352.12 -0.914481 0.249857 0
M  V30 25458 H 2351.82 -3.50022 0.34311 0
M  V30 25459 H 2351.7 -3.49971 -1.40712 0
M  V30 25460 H 2354.08 -2.5169 -1.54066 0
M  V30 25461 H 2354.16 -2.54794 0.226631 0
M  V30 25462 H 2353.81 -5.07594 0.176273 0
M  V30 25463 H 2353.74 -5.01613 -1.60286 0
M  V30 25464 H 2356.23 -3.70194 -0.759239 0
M  V30 25465 H 2356.54 -7.67123 -0.935009 0
M  V30 25466 H 2354.89 -6.8981 -0.847777 0
M  V30 25467 H 2358.08 -4.60174 -0.857772 0
M  V30 25468 H 2358.25 -6.41173 -0.93815 0
M  V30 25469 N 2351.66 0.44194 -1.51277 0
M  V30 25470 C 2352.61 1.55673 -1.72826 0
M  V30 25471 C 2353.6 1.58626 -0.594478 0
M  V30 25472 O 2354.81 1.62426 -0.775743 0
M  V30 25473 H 2351.18 0.517104 -0.545993 0
M  V30 25474 H 2353.15 1.3467 -2.66283 0
M  V30 25475 C 2351.9 2.93372 -1.86624 0
M  V30 25476 H 2351.22 2.91829 -2.73269 0
M  V30 25477 H 2352.66 3.70752 -2.05715 0
M  V30 25478 C 2351.12 3.31054 -0.6249 0
M  V30 25479 O 2351.65 4.01083 0.222565 0
M  V30 25480 N 2349.86 2.86769 -0.470338 0
M  V30 25481 H 2349.41 2.29951 -1.16104 0
M  V30 25482 H 2349.36 3.12344 0.358996 0
M  V30 25483 N 2353.14 1.41345 0.697083 0
M  V30 25484 C 2354.1 1.42801 1.79278 0
M  V30 25485 C 2355.1 0.318865 1.57607 0
M  V30 25486 O 2356.29 0.578671 1.64308 0
M  V30 25487 C 2353.42 1.2379 3.1763 0
M  V30 25488 H 2354.61 2.40338 1.79381 0
M  V30 25489 H 2352.17 1.27465 0.90456 0
M  V30 25490 H 2352.9 0.270871 3.23167 0
M  V30 25491 H 2352.69 2.0415 3.34761 0
M  V30 25492 H 2354.18 1.2764 3.97615 0
M  V30 25493 N 2354.61 -0.931187 1.27148 0
M  V30 25494 C 2355.58 -2.01287 1.09618 0
M  V30 25495 C 2356.58 -1.60747 0.0412864 0
M  V30 25496 O 2357.77 -1.71843 0.285575 0
M  V30 25497 C 2354.9 -3.34261 0.669505 0
M  V30 25498 H 2356.09 -2.18269 2.05666 0
M  V30 25499 H 2353.64 -1.11151 1.09887 0
M  V30 25500 H 2354.38 -3.22978 -0.292515 0
M  V30 25501 H 2354.16 -3.65042 1.43133 0
M  V30 25502 H 2355.65 -4.13705 0.568994 0
M  V30 25503 N 2356.09 -1.09114 -1.13719 0
M  V30 25504 C 2357.51 -0.820198 -1.36912 0
M  V30 25505 C 2357.71 0.567045 -1.93357 0
M  V30 25506 O 2356.76 1.32251 -2.15095 0
M  V30 25507 C 2358.08 -1.90881 -2.32347 0
M  V30 25508 C 2359.62 -1.93566 -2.4597 0
M  V30 25509 C 2360.1 -3.01562 -3.44709 0
M  V30 25510 N 2361.59 -3.00781 -3.52257 0
M  V30 25511 C 2362.33 -3.80986 -4.28529 0
M  V30 25512 N 2361.82 -4.7109 -5.07982 0
M  V30 25513 N 2363.61 -3.69258 -4.23798 0
M  V30 25514 H 2355.77 -1.98554 -0.754313 0
M  V30 25515 H 2358.03 -0.86207 -0.394385 0
M  V30 25516 H 2357.73 -2.90655 -1.98022 0
M  V30 25517 H 2357.61 -1.7843 -3.32329 0
M  V30 25518 H 2360 -0.944335 -2.79582 0
M  V30 25519 H 2360.08 -2.10096 -1.45923 0
M  V30 25520 H 2359.72 -4.00906 -3.11828 0
M  V30 25521 H 2359.65 -2.82277 -4.44553 0
M  V30 25522 H 2362.14 -2.3548 -2.95563 0
M  V30 25523 H 2362.45 -5.28879 -5.63478 0
M  V30 25524 H 2360.8 -4.75128 -5.07226 0
M  V30 25525 H 2363.99 -2.98228 -3.60801 0
M  V30 25526 H 2364.16 -4.32003 -4.82988 0
M  V30 25527 N 2357.57 1.30887 -0.877861 0
M  V30 25528 C 2358.99 1.49041 -0.57087 0
M  V30 25529 C 2359.19 1.80625 0.893127 0
M  V30 25530 O 2358.24 1.88961 1.67481 0
M  V30 25531 C 2359.55 2.61876 -1.47789 0
M  V30 25532 C 2361.1 2.75758 -1.48076 0
M  V30 25533 C 2361.58 3.91698 -2.37354 0
M  V30 25534 N 2363.07 3.98997 -2.35278 0
M  V30 25535 C 2363.8 4.87999 -3.01072 0
M  V30 25536 N 2363.3 5.81847 -3.76066 0
M  V30 25537 N 2365.09 4.8131 -2.9034 0
M  V30 25538 H 2357.24 1.08656 -1.82504 0
M  V30 25539 H 2359.51 0.53763 -0.780806 0
M  V30 25540 H 2359.21 2.45337 -2.51998 0
M  V30 25541 H 2359.09 3.58195 -1.18222 0
M  V30 25542 H 2361.47 2.91707 -0.446217 0
M  V30 25543 H 2361.55 1.80082 -1.81671 0
M  V30 25544 H 2361.2 3.76506 -3.40889 0
M  V30 25545 H 2361.13 4.86698 -2.01079 0
M  V30 25546 H 2363.62 3.31857 -1.80774 0
M  V30 25547 H 2363.93 6.46507 -4.23378 0
M  V30 25548 H 2362.28 5.81802 -3.80174 0
M  V30 25549 H 2365.47 4.0697 -2.31285 0
M  V30 25550 H 2365.64 5.50465 -3.41895 0
M  V30 25551 N 2359.05 0.638091 1.44105 0
M  V30 25552 C 2360.32 0.0759664 1.95452 0
M  V30 25553 C 2360.7 -1.40012 1.57987 0
M  V30 25554 O 2360.05 -2.11804 0.857398 0
M  V30 25555 C 2360.26 0.306193 3.47654 0
M  V30 25556 C 2361.61 0.203083 4.24114 0
M  V30 25557 O 2362.63 0.237933 3.55404 0
M  V30 25558 O 2361.49 0.113923 5.46381 0
M  V30 25559 H 2358.59 -0.0183187 0.826797 0
M  V30 25560 H 2361.13 0.710278 1.54121 0
M  V30 25561 H 2359.91 1.33016 3.67998 0
M  V30 25562 H 2359.53 -0.361921 3.95949 0
M  V30 25563 N 2360.53 -1.52973 0.379063 0
M  V30 25564 C 2361.75 -2.06341 -0.209317 0
M  V30 25565 C 2362.18 -1.24975 -1.4058 0
M  V30 25566 O 2361.53 -0.272186 -1.79245 0
M  V30 25567 C 2361.58 -3.56103 -0.567723 0
M  V30 25568 O 2360.69 -3.77378 -1.66312 0
M  V30 25569 H 2360.03 -0.663439 -0.0272802 0
M  V30 25570 H 2362.56 -1.97247 0.54357 0
M  V30 25571 H 2362.57 -3.99366 -0.834933 0
M  V30 25572 H 2361.24 -4.14765 0.307086 0
M  V30 25573 H 2359.82 -3.46008 -1.39042 0
M  V30 25574 N 2362 -0.108595 -1.57225 0
M  V30 25575 C 2363.25 0.552727 -1.95122 0
M  V30 25576 C 2363.58 1.66989 -0.991375 0
M  V30 25577 O 2362.86 1.94482 -0.0267553 0
M  V30 25578 C 2363.14 1.09522 -3.43041 0
M  V30 25579 C 2362.99 -0.0178123 -4.49796 0
M  V30 25580 C 2364.31 1.98938 -3.9257 0
M  V30 25581 H 2361.43 0.199449 -0.709499 0
M  V30 25582 H 2364.07 -0.182044 -1.89126 0
M  V30 25583 H 2362.22 1.7214 -3.48282 0
M  V30 25584 H 2363.9 -0.652664 -4.5666 0
M  V30 25585 H 2362.14 -0.682385 -4.28399 0
M  V30 25586 H 2362.81 0.402822 -5.50528 0
M  V30 25587 H 2365.29 1.46207 -3.89567 0
M  V30 25588 H 2364.16 2.33818 -4.96609 0
M  V30 25589 H 2364.42 2.91195 -3.32653 0
M  V30 25590 N 2363.48 1.56732 0.16515 0
M  V30 25591 C 2364.41 1.99916 1.20648 0
M  V30 25592 C 2365.39 0.875731 1.45825 0
M  V30 25593 O 2366.58 1.14226 1.57055 0
M  V30 25594 C 2363.71 2.36431 2.54396 0
M  V30 25595 C 2362.66 3.51791 2.43776 0
M  V30 25596 C 2361.99 3.74067 3.82071 0
M  V30 25597 C 2363.29 4.85045 1.93724 0
M  V30 25598 H 2364.98 2.87155 0.847483 0
M  V30 25599 H 2362.53 1.38151 0.406226 0
M  V30 25600 H 2364.48 2.6524 3.27454 0
M  V30 25601 H 2363.2 1.46108 2.92096 0
M  V30 25602 H 2361.86 3.2312 1.73173 0
M  V30 25603 H 2361.51 2.81024 4.17174 0
M  V30 25604 H 2361.21 4.51691 3.75832 0
M  V30 25605 H 2362.74 4.05282 4.56705 0
M  V30 25606 H 2364.15 5.12689 2.5656 0
M  V30 25607 H 2362.55 5.66348 1.98418 0
M  V30 25608 H 2363.62 4.76627 0.891879 0
M  V30 25609 N 2364.96 -0.433911 1.51509 0
M  V30 25610 C 2365.92 -1.50946 1.72476 0
M  V30 25611 C 2366.92 -1.49397 0.594751 0
M  V30 25612 O 2368.11 -1.51358 0.862342 0
M  V30 25613 C 2365.24 -2.90471 1.78437 0
M  V30 25614 H 2366.44 -1.33658 2.68469 0
M  V30 25615 H 2363.99 -0.662811 1.4155 0
M  V30 25616 H 2364.73 -3.1316 0.8427 0
M  V30 25617 H 2364.51 -2.93 2.60563 0
M  V30 25618 H 2366 -3.68488 1.96485 0
M  V30 25619 N 2366.44 -1.41713 -0.689577 0
M  V30 25620 C 2367.4 -1.43749 -1.78518 0
M  V30 25621 C 2368.4 -0.327218 -1.57435 0
M  V30 25622 O 2369.59 -0.587377 -1.63999 0
M  V30 25623 C 2366.72 -1.25473 -3.16969 0
M  V30 25624 H 2367.92 -2.41286 -1.78104 0
M  V30 25625 H 2365.47 -1.27943 -0.897787 0
M  V30 25626 H 2366.2 -0.288005 -3.23019 0
M  V30 25627 H 2365.99 -2.05923 -3.33674 0
M  V30 25628 H 2367.48 -1.29747 -3.96933 0
M  V30 25629 N 2367.92 0.924431 -1.2764 0
M  V30 25630 C 2369.14 1.71177 -1.17104 0
M  V30 25631 C 2369.57 1.8618 0.268101 0
M  V30 25632 O 2368.92 1.3642 1.19413 0
M  V30 25633 C 2368.97 3.08736 -1.86319 0
M  V30 25634 O 2368.08 3.9565 -1.16338 0
M  V30 25635 H 2367.42 0.524562 -0.4071 0
M  V30 25636 H 2369.95 1.15663 -1.68769 0
M  V30 25637 H 2369.96 3.59031 -1.93806 0
M  V30 25638 H 2368.63 2.97133 -2.91006 0
M  V30 25639 H 2367.21 3.54089 -1.16941 0
M  V30 25640 N 2369.39 1.09715 1.13139 0
M  V30 25641 C 2370.81 0.827447 1.36475 0
M  V30 25642 C 2371.01 -0.556783 1.93655 0
M  V30 25643 O 2370.07 -1.31108 2.15794 0
M  V30 25644 C 2371.38 1.9211 2.31331 0
M  V30 25645 C 2372.93 1.94868 2.4494 0
M  V30 25646 C 2373.4 3.03386 3.43105 0
M  V30 25647 N 2374.89 3.02645 3.50657 0
M  V30 25648 C 2375.63 3.83253 4.26503 0
M  V30 25649 N 2375.12 4.73777 5.05477 0
M  V30 25650 N 2376.92 3.71501 4.21834 0
M  V30 25651 H 2369.07 1.98952 0.743772 0
M  V30 25652 H 2371.33 0.864149 0.389807 0
M  V30 25653 H 2371.04 2.91701 1.96478 0
M  V30 25654 H 2370.91 1.8019 3.31378 0
M  V30 25655 H 2373.3 0.959148 2.79078 0
M  V30 25656 H 2373.38 2.10867 1.44807 0
M  V30 25657 H 2373.02 4.02554 3.09697 0
M  V30 25658 H 2372.95 2.8463 4.4305 0
M  V30 25659 H 2375.44 2.37044 2.9431 0
M  V30 25660 H 2375.76 5.31859 5.60665 0
M  V30 25661 H 2374.1 4.77811 5.04699 0
M  V30 25662 H 2377.29 3.00137 3.59215 0
M  V30 25663 H 2377.47 4.34559 4.8069 0
M  V30 25664 N 2370.87 -1.30419 0.88479 0
M  V30 25665 C 2372.15 -1.90967 0.423219 0
M  V30 25666 C 2372.53 -1.80418 -1.09601 0
M  V30 25667 O 2371.88 -1.22128 -1.93124 0
M  V30 25668 C 2372.09 -3.36625 0.921115 0
M  V30 25669 C 2373.44 -4.13698 0.955976 0
M  V30 25670 O 2374.46 -3.45468 0.867767 0
M  V30 25671 O 2373.32 -5.35596 1.08623 0
M  V30 25672 H 2370.41 -0.816816 0.129383 0
M  V30 25673 H 2372.96 -1.38988 0.973678 0
M  V30 25674 H 2371.73 -3.38386 1.96495 0
M  V30 25675 H 2371.35 -3.96058 0.34981 0
M  V30 25676 N 2372.35 -0.645724 -1.43764 0
M  V30 25677 C 2373.58 -0.163355 -2.05953 0
M  V30 25678 C 2373.99 1.1732 -1.48434 0
M  V30 25679 O 2373.33 1.7337 -0.607326 0
M  V30 25680 C 2373.39 0.0102433 -3.59499 0
M  V30 25681 C 2373.06 -1.25043 -4.3956 0
M  V30 25682 C 2374.05 -2.17747 -4.72104 0
M  V30 25683 C 2371.74 -1.48992 -4.79694 0
M  V30 25684 C 2373.73 -3.32699 -5.43682 0
M  V30 25685 C 2371.42 -2.64238 -5.51018 0
M  V30 25686 C 2372.42 -3.55918 -5.82933 0
M  V30 25687 O 2372.11 -4.69153 -6.52802 0
M  V30 25688 H 2371.84 -0.0837104 -0.670797 0
M  V30 25689 H 2374.39 -0.88444 -1.85383 0
M  V30 25690 H 2372.62 0.786624 -3.78615 0
M  V30 25691 H 2374.31 0.449017 -4.03409 0
M  V30 25692 H 2375.08 -2.00484 -4.41623 0
M  V30 25693 H 2370.96 -0.785158 -4.54265 0
M  V30 25694 H 2374.5 -4.04279 -5.6851 0
M  V30 25695 H 2370.4 -2.81439 -5.80915 0
M  V30 25696 H 2371.17 -4.68322 -6.7128 0
M  V30 25697 N 2373.83 1.5277 -0.38717 0
M  V30 25698 C 2375.24 1.59557 -0.0370351 0
M  V30 25699 C 2375.44 1.40127 1.44799 0
M  V30 25700 O 2374.5 1.2172 2.21225 0
M  V30 25701 C 2375.81 2.96304 -0.512308 0
M  V30 25702 C 2377.36 3.09476 -0.468382 0
M  V30 25703 C 2377.84 4.48669 -0.91981 0
M  V30 25704 N 2379.33 4.54846 -0.875736 0
M  V30 25705 C 2380.06 5.60778 -1.19647 0
M  V30 25706 N 2379.56 6.74365 -1.58757 0
M  V30 25707 N 2381.35 5.50872 -1.11786 0
M  V30 25708 H 2373.5 1.63649 -1.35398 0
M  V30 25709 H 2375.77 0.768678 -0.554831 0
M  V30 25710 H 2375.47 3.15732 -1.5494 0
M  V30 25711 H 2375.35 3.77093 0.0897387 0
M  V30 25712 H 2377.73 2.89745 0.55962 0
M  V30 25713 H 2377.81 2.30644 -1.1062 0
M  V30 25714 H 2377.46 4.6914 -1.94603 0
M  V30 25715 H 2377.39 5.25963 -0.25902 0
M  V30 25716 H 2379.88 3.73299 -0.587909 0
M  V30 25717 H 2380.19 7.5116 -1.81599 0
M  V30 25718 H 2378.54 6.75702 -1.62642 0
M  V30 25719 H 2381.73 4.61015 -0.811345 0
M  V30 25720 H 2381.9 6.33328 -1.37114 0
M  V30 25721 N 2375.31 0.116931 1.57166 0
M  V30 25722 C 2376.25 -0.85138 2.16458 0
M  V30 25723 C 2377.25 -1.27684 1.11325 0
M  V30 25724 O 2378.45 -1.24882 1.29632 0
M  V30 25725 H 2374.83 -0.29266 0.692715 0
M  V30 25726 H 2376.8 -0.326797 2.96605 0
M  V30 25727 C 2375.55 -2.09241 2.77693 0
M  V30 25728 H 2374.87 -1.77396 3.58289 0
M  V30 25729 H 2376.31 -2.75004 3.22721 0
M  V30 25730 C 2374.77 -2.88082 1.74672 0
M  V30 25731 O 2375.3 -3.83394 1.19884 0
M  V30 25732 N 2373.51 -2.52035 1.44661 0
M  V30 25733 H 2373.05 -1.74596 1.89405 0
M  V30 25734 H 2373.01 -3.05083 0.759729 0
M  V30 25735 N 2376.78 -1.56818 -0.156836 0
M  V30 25736 C 2378.03 -1.81997 -0.869472 0
M  V30 25737 C 2378.35 -0.696577 -1.82776 0
M  V30 25738 O 2379.55 -0.833703 -2.58383 0
M  V30 25739 C 2378.01 -3.2254 -1.59674 0
M  V30 25740 C 2377.62 -4.42788 -0.681354 0
M  V30 25741 C 2379.36 -3.57002 -2.29674 0
M  V30 25742 C 2377.27 -5.74354 -1.40968 0
M  V30 25743 H 2376.2 -0.678714 -0.328426 0
M  V30 25744 H 2378.85 -1.83092 -0.122268 0
M  V30 25745 H 2377.23 -3.15804 -2.38922 0
M  V30 25746 H 2378.4 -4.60739 0.0751976 0
M  V30 25747 H 2376.72 -4.16302 -0.0902699 0
M  V30 25748 H 2379.32 -4.52549 -2.84786 0
M  V30 25749 H 2379.66 -2.82581 -3.05702 0
M  V30 25750 H 2380.19 -3.65355 -1.57355 0
M  V30 25751 H 2376.93 -6.51843 -0.691446 0
M  V30 25752 H 2376.45 -5.60356 -2.13919 0
M  V30 25753 H 2378.13 -6.16812 -1.95326 0
M  V30 25754 N 2378.26 0.425871 -1.51737 0
M  V30 25755 C 2379.51 1.17133 -1.64203 0
M  V30 25756 C 2379.82 1.92074 -0.369739 0
M  V30 25757 O 2381.03 2.68912 -0.373945 0
M  V30 25758 C 2379.49 2.13086 -2.90039 0
M  V30 25759 C 2379.09 1.4374 -4.24315 0
M  V30 25760 C 2380.84 2.87994 -3.11865 0
M  V30 25761 C 2378.75 2.38243 -5.41289 0
M  V30 25762 H 2377.68 0.440933 -0.611632 0
M  V30 25763 H 2380.33 0.437296 -1.78213 0
M  V30 25764 H 2378.71 2.89972 -2.69689 0
M  V30 25765 H 2379.88 0.723328 -4.55087 0
M  V30 25766 H 2378.2 0.809393 -4.08458 0
M  V30 25767 H 2380.79 3.5881 -3.96433 0
M  V30 25768 H 2381.14 3.49995 -2.2541 0
M  V30 25769 H 2381.67 2.18212 -3.32609 0
M  V30 25770 H 2378.41 1.80914 -6.3004 0
M  V30 25771 H 2377.93 3.07671 -5.14878 0
M  V30 25772 H 2379.61 2.99129 -5.73699 0
M  V30 25773 N 2379.74 1.42077 0.682052 0
M  V30 25774 C 2380.65 1.47374 1.82532 0
M  V30 25775 C 2381.67 0.363109 1.70169 0
M  V30 25776 O 2382.84 0.612908 1.91847 0
M  V30 25777 C 2379.91 1.36679 3.18622 0
M  V30 25778 C 2378.97 2.58173 3.42995 0
M  V30 25779 C 2378.2 2.47979 4.72591 0
M  V30 25780 O 2378.42 1.5117 5.50004 0
M  V30 25781 O 2377.36 3.37982 4.98048 0
M  V30 25782 H 2381.18 2.43856 1.81019 0
M  V30 25783 H 2378.77 1.23762 0.836865 0
M  V30 25784 H 2380.65 1.3305 3.99845 0
M  V30 25785 H 2379.33 0.433195 3.20788 0
M  V30 25786 H 2378.23 2.67378 2.61648 0
M  V30 25787 H 2379.57 3.50407 3.45653 0
M  V30 25788 N 2381.22 -0.917649 1.28129 0
M  V30 25789 C 2382.64 -1.19536 1.05751 0
M  V30 25790 C 2382.84 -2.00479 -0.202598 0
M  V30 25791 O 2381.89 -2.35711 -0.905341 0
M  V30 25792 C 2383.2 -1.93374 2.30276 0
M  V30 25793 C 2384.75 -2.06272 2.35416 0
M  V30 25794 C 2385.23 -2.83517 3.59697 0
M  V30 25795 N 2386.72 -2.91081 3.60314 0
M  V30 25796 C 2387.45 -3.5134 4.53153 0
M  V30 25797 N 2386.95 -4.12909 5.56307 0
M  V30 25798 N 2388.74 -3.48841 4.40757 0
M  V30 25799 H 2380.89 -0.377148 2.09025 0
M  V30 25800 H 2383.16 -0.229494 0.919802 0
M  V30 25801 H 2382.86 -1.41323 3.22057 0
M  V30 25802 H 2382.74 -2.93943 2.36384 0
M  V30 25803 H 2385.12 -2.57506 1.44134 0
M  V30 25804 H 2385.2 -1.04891 2.33305 0
M  V30 25805 H 2384.85 -2.32965 4.5132 0
M  V30 25806 H 2384.78 -3.85205 3.59061 0
M  V30 25807 H 2387.27 -2.47333 2.85718 0
M  V30 25808 H 2387.58 -4.56858 6.23298 0
M  V30 25809 H 2385.93 -4.11425 5.60138 0
M  V30 25810 H 2389.12 -2.99948 3.59373 0
M  V30 25811 H 2389.29 -3.95511 5.13298 0
M  V30 25812 N 2382.7 -1.10314 -1.12555 0
M  V30 25813 C 2383.63 -0.772837 -2.20339 0
M  V30 25814 C 2384.61 0.25362 -1.68199 0
M  V30 25815 O 2385.79 0.119665 -1.93831 0
M  V30 25816 C 2382.92 -0.202504 -3.46709 0
M  V30 25817 C 2381.88 -1.15951 -4.11994 0
M  V30 25818 C 2381.2 -0.450438 -5.32799 0
M  V30 25819 C 2382.5 -2.5056 -4.58276 0
M  V30 25820 H 2384.2 -1.67405 -2.48226 0
M  V30 25821 H 2381.74 -0.806347 -1.19307 0
M  V30 25822 H 2383.7 0.0407012 -4.2138 0
M  V30 25823 H 2382.42 0.733945 -3.18246 0
M  V30 25824 H 2381.08 -1.38814 -3.39302 0
M  V30 25825 H 2380.73 0.490443 -5.00603 0
M  V30 25826 H 2380.43 -1.08862 -5.77428 0
M  V30 25827 H 2381.95 -0.215749 -6.10219 0
M  V30 25828 H 2383.37 -2.31852 -5.24326 0
M  V30 25829 H 2381.76 -3.10251 -5.13677 0
M  V30 25830 H 2382.83 -3.1065 -3.72323 0
M  V30 25831 N 2384.18 1.29948 -0.891694 0
M  V30 25832 C 2385.11 2.26945 -0.320735 0
M  V30 25833 C 2386.12 1.53984 0.52847 0
M  V30 25834 O 2387.31 1.75096 0.346928 0
M  V30 25835 C 2384.41 3.34208 0.562007 0
M  V30 25836 C 2383.58 4.36629 -0.259652 0
M  V30 25837 C 2382.64 5.23269 0.554648 0
M  V30 25838 O 2381.67 5.69194 -0.0250312 0
M  V30 25839 N 2382.87 5.49814 1.8624 0
M  V30 25840 H 2385.63 2.76576 -1.15437 0
M  V30 25841 H 2383.2 1.43199 -0.755361 0
M  V30 25842 H 2385.19 3.89095 1.11297 0
M  V30 25843 H 2383.76 2.84454 1.29632 0
M  V30 25844 H 2382.98 3.81513 -0.992053 0
M  V30 25845 H 2384.27 5.02105 -0.822652 0
M  V30 25846 H 2383.66 5.14296 2.35619 0
M  V30 25847 H 2382.22 6.07549 2.36067 0
M  V30 25848 N 2385.65 0.653339 1.4342 0
M  V30 25849 C 2386.93 0.0966925 1.95361 0
M  V30 25850 C 2387.31 -1.38328 1.59463 0
M  V30 25851 O 2386.66 -2.10883 0.879815 0
M  V30 25852 C 2386.87 0.343049 3.4731 0
M  V30 25853 C 2388.22 0.248054 4.23875 0
M  V30 25854 O 2389.24 0.275615 3.55132 0
M  V30 25855 O 2388.1 0.171867 5.4623 0
M  V30 25856 H 2385.19 -0.00954838 0.826945 0
M  V30 25857 H 2387.74 0.726585 1.53359 0
M  V30 25858 H 2386.51 1.36912 3.66566 0
M  V30 25859 H 2386.13 -0.319905 3.96311 0
M  V30 25860 N 2387.13 -1.52563 0.395266 0
M  V30 25861 C 2388.38 -2.00838 -0.186286 0
M  V30 25862 C 2388.69 -1.28579 -1.474 0
M  V30 25863 O 2389.9 -1.67597 -2.13597 0
M  V30 25864 C 2388.36 -3.57861 -0.382533 0
M  V30 25865 C 2387.96 -4.39024 0.892279 0
M  V30 25866 C 2389.71 -4.14408 -0.920127 0
M  V30 25867 C 2387.61 -5.87661 0.663983 0
M  V30 25868 H 2386.54 -0.75042 -0.0733909 0
M  V30 25869 H 2389.2 -1.7602 0.518583 0
M  V30 25870 H 2387.58 -3.78952 -1.1494 0
M  V30 25871 H 2388.75 -4.29698 1.66422 0
M  V30 25872 H 2387.07 -3.93728 1.35526 0
M  V30 25873 H 2389.66 -5.23121 -1.10674 0
M  V30 25874 H 2390.01 -3.70879 -1.89089 0
M  V30 25875 H 2390.54 -3.97231 -0.212681 0
M  V30 25876 H 2387.28 -6.35524 1.60592 0
M  V30 25877 H 2386.8 -5.9976 -0.0689139 0
M  V30 25878 H 2388.48 -6.463 0.300813 0
M  V30 25879 N 2388.61 -0.125265 -1.57101 0
M  V30 25880 C 2389.86 0.532 -1.95698 0
M  V30 25881 C 2390.19 1.65928 -1.00903 0
M  V30 25882 O 2389.46 1.94442 -0.0473812 0
M  V30 25883 C 2389.75 1.05878 -3.44183 0
M  V30 25884 C 2389.6 -0.0655182 -4.49752 0
M  V30 25885 C 2390.92 1.94764 -3.94658 0
M  V30 25886 H 2388.04 0.191913 -0.711575 0
M  V30 25887 H 2390.68 -0.202094 -1.88922 0
M  V30 25888 H 2388.83 1.68436 -3.50088 0
M  V30 25889 H 2390.5 -0.701063 -4.55942 0
M  V30 25890 H 2388.74 -0.727784 -4.27651 0
M  V30 25891 H 2389.42 0.344409 -5.50925 0
M  V30 25892 H 2391.89 1.42067 -3.91096 0
M  V30 25893 H 2390.77 2.28538 -4.99061 0
M  V30 25894 H 2391.03 2.8765 -3.35723 0
M  V30 25895 N 2390.09 1.56899 0.148518 0
M  V30 25896 C 2391.31 1.87789 0.880352 0
M  V30 25897 C 2391.74 0.714124 1.74017 0
M  V30 25898 O 2391.1 -0.336312 1.78153 0
M  V30 25899 C 2391.14 3.17252 1.71416 0
M  V30 25900 O 2390.25 3.01079 2.81824 0
M  V30 25901 H 2389.59 0.617032 0.24529 0
M  V30 25902 H 2392.12 2.04122 0.139791 0
M  V30 25903 H 2392.13 3.49235 2.10948 0
M  V30 25904 H 2390.8 4.01558 1.08277 0
M  V30 25905 H 2389.38 2.80501 2.4571 0
M  V30 25906 N 2391.57 -0.417818 1.51961 0
M  V30 25907 C 2392.53 -1.49108 1.74067 0
M  V30 25908 C 2393.53 -1.48757 0.610563 0
M  V30 25909 O 2394.72 -1.50435 0.878347 0
M  V30 25910 C 2391.85 -2.88562 1.81507 0
M  V30 25911 H 2393.04 -1.30803 2.69872 0
M  V30 25912 H 2390.6 -0.64776 1.42245 0
M  V30 25913 H 2391.33 -3.12248 0.875868 0
M  V30 25914 H 2391.12 -2.9022 2.63656 0
M  V30 25915 H 2392.61 -3.66383 2.00382 0
M  V30 25916 N 2393.04 -1.42436 -0.674508 0
M  V30 25917 C 2393.97 -1.48727 -1.80007 0
M  V30 25918 C 2394.95 -0.343822 -1.66589 0
M  V30 25919 O 2396.14 -0.558169 -1.86006 0
M  V30 25920 C 2393.27 -1.38925 -3.18304 0
M  V30 25921 C 2392.22 -2.513 -3.46457 0
M  V30 25922 C 2391.55 -2.26555 -4.84331 0
M  V30 25923 C 2392.85 -3.93609 -3.43321 0
M  V30 25924 H 2394.54 -2.42931 -1.74999 0
M  V30 25925 H 2392.09 -1.16925 -0.840512 0
M  V30 25926 H 2394.04 -1.41934 -3.96778 0
M  V30 25927 H 2392.77 -0.412151 -3.23989 0
M  V30 25928 H 2391.43 -2.47608 -2.70344 0
M  V30 25929 H 2391.07 -1.27138 -4.86667 0
M  V30 25930 H 2390.77 -3.0187 -5.04131 0
M  V30 25931 H 2392.3 -2.31314 -5.6509 0
M  V30 25932 H 2393.71 -3.98902 -4.11765 0
M  V30 25933 H 2392.11 -4.68778 -3.74656 0
M  V30 25934 H 2393.18 -4.20259 -2.41889 0
M  V30 25935 N 2394.52 0.910841 -1.28614 0
M  V30 25936 C 2395.43 2.04678 -1.14647 0
M  V30 25937 C 2396.45 1.7385 -0.0723427 0
M  V30 25938 O 2397.62 1.99413 -0.282213 0
M  V30 25939 C 2394.69 3.37042 -0.812621 0
M  V30 25940 C 2393.75 3.81461 -1.96941 0
M  V30 25941 C 2392.98 5.07508 -1.6514 0
M  V30 25942 O 2393.21 5.67574 -0.567113 0
M  V30 25943 O 2392.14 5.4771 -2.49594 0
M  V30 25944 H 2395.97 2.19381 -2.10014 0
M  V30 25945 H 2393.55 1.03272 -1.0796 0
M  V30 25946 H 2395.43 4.16504 -0.640515 0
M  V30 25947 H 2394.11 3.23508 0.111369 0
M  V30 25948 H 2393.01 3.02814 -2.19669 0
M  V30 25949 H 2394.35 3.99562 -2.87421 0
M  V30 25950 N 2396 1.10909 1.11969 0
M  V30 25951 C 2397.28 0.766464 1.79957 0
M  V30 25952 C 2397.66 -0.746328 1.97467 0
M  V30 25953 O 2397.01 -1.67434 1.55494 0
M  V30 25954 C 2397.22 1.5232 3.14006 0
M  V30 25955 C 2398.56 1.6989 3.89131 0
M  V30 25956 O 2399.59 1.48698 3.23678 0
M  V30 25957 O 2398.45 2.05063 5.06568 0
M  V30 25958 H 2395.54 0.277076 0.779203 0
M  V30 25959 H 2398.09 1.21219 1.1876 0
M  V30 25960 H 2396.86 2.55254 2.96583 0
M  V30 25961 H 2396.48 1.07065 3.82914 0
M  V30 25962 N 2397.48 -1.29474 0.898573 0
M  V30 25963 C 2398.89 -1.48114 0.594509 0
M  V30 25964 C 2399.09 -1.82023 -0.864278 0
M  V30 25965 O 2398.15 -1.91602 -1.64454 0
M  V30 25966 C 2399.46 -2.59492 1.51936 0
M  V30 25967 C 2401.01 -2.73367 1.52444 0
M  V30 25968 C 2401.49 -3.87872 2.43555 0
M  V30 25969 N 2402.98 -3.95204 2.41596 0
M  V30 25970 C 2403.71 -4.83148 3.08798 0
M  V30 25971 N 2403.21 -5.75791 3.85275 0
M  V30 25972 N 2405 -4.7663 2.97961 0
M  V30 25973 H 2397.15 -1.05739 1.84209 0
M  V30 25974 H 2399.42 -0.52514 0.78926 0
M  V30 25975 H 2399.12 -2.41296 2.55869 0
M  V30 25976 H 2399 -3.56269 1.23905 0
M  V30 25977 H 2401.38 -2.9096 0.492569 0
M  V30 25978 H 2401.46 -1.77169 1.84513 0
M  V30 25979 H 2401.11 -3.71035 3.46836 0
M  V30 25980 H 2401.04 -4.83437 2.08797 0
M  V30 25981 H 2403.53 -3.28939 1.86031 0
M  V30 25982 H 2403.84 -6.39689 4.3361 0
M  V30 25983 H 2402.19 -5.7568 3.89381 0
M  V30 25984 H 2405.38 -4.03239 2.3773 0
M  V30 25985 H 2405.55 -5.44956 3.50609 0
M  V30 25986 N 2398.96 -0.660936 -1.43071 0
M  V30 25987 C 2399.89 0.0122419 -2.33497 0
M  V30 25988 C 2400.87 0.803899 -1.49905 0
M  V30 25989 O 2402.05 0.763833 -1.78548 0
M  V30 25990 C 2399.18 0.973936 -3.33364 0
M  V30 25991 C 2398.14 0.291852 -4.27004 0
M  V30 25992 C 2397.46 1.36553 -5.16969 0
M  V30 25993 C 2398.76 -0.820552 -5.15814 0
M  V30 25994 H 2400.46 -0.742924 -2.90036 0
M  V30 25995 H 2398 -0.358713 -1.39461 0
M  V30 25996 H 2399.96 1.45385 -3.95527 0
M  V30 25997 H 2398.68 1.76036 -2.75098 0
M  V30 25998 H 2397.34 -0.167687 -3.66216 0
M  V30 25999 H 2396.99 2.14358 -4.55038 0
M  V30 26000 H 2396.69 0.914352 -5.80442 0
M  V30 26001 H 2398.21 1.84665 -5.82006 0
M  V30 26002 H 2399.62 -0.422467 -5.71741 0
M  V30 26003 H 2398.02 -1.19667 -5.88048 0
M  V30 26004 H 2399.09 -1.67526 -4.55042 0
M  V30 26005 N 2400.43 1.52351 -0.403352 0
M  V30 26006 C 2401.85 1.59509 -0.0539561 0
M  V30 26007 C 2402.05 1.41655 1.43304 0
M  V30 26008 O 2401.11 1.24059 2.19922 0
M  V30 26009 C 2402.42 2.95744 -0.543706 0
M  V30 26010 C 2403.97 3.08961 -0.50118 0
M  V30 26011 C 2404.44 4.47668 -0.967345 0
M  V30 26012 N 2405.93 4.53892 -0.923929 0
M  V30 26013 C 2406.67 5.59478 -1.25588 0
M  V30 26014 N 2406.16 6.72643 -1.65901 0
M  V30 26015 N 2407.96 5.49656 -1.17623 0
M  V30 26016 H 2400.11 1.62204 -1.37126 0
M  V30 26017 H 2402.37 0.76275 -0.562953 0
M  V30 26018 H 2402.08 3.14071 -1.5828 0
M  V30 26019 H 2401.95 3.77167 0.0497379 0
M  V30 26020 H 2404.34 2.90322 0.528858 0
M  V30 26021 H 2404.42 2.29458 -1.1306 0
M  V30 26022 H 2404.06 4.67049 -1.99568 0
M  V30 26023 H 2403.99 5.25658 -0.31479 0
M  V30 26024 H 2406.48 3.72654 -0.627469 0
M  V30 26025 H 2406.8 7.49192 -1.89556 0
M  V30 26026 H 2405.14 6.73939 -1.69799 0
M  V30 26027 H 2408.33 4.60129 -0.860196 0
M  V30 26028 H 2408.51 6.31838 -1.43823 0
M  V30 26029 N 2401.91 0.133594 1.57033 0
M  V30 26030 C 2403.32 -0.389432 1.82593 0
M  V30 26031 C 2403.67 -1.65638 1.05159 0
M  V30 26032 O 2402.8 -2.14412 0.292682 0
M  V30 26033 C 2403.39 -0.713319 3.31206 0
M  V30 26034 C 2401.95 -1.18092 3.57395 0
M  V30 26035 C 2401.1 -0.197078 2.76599 0
M  V30 26036 H 2404.05 0.358508 1.54598 0
M  V30 26037 H 2404.07 -1.56933 3.4663 0
M  V30 26038 H 2403.58 0.208968 3.87537 0
M  V30 26039 H 2401.69 -2.11961 3.06437 0
M  V30 26040 H 2401.8 -1.11616 4.65917 0
M  V30 26041 H 2400.16 -0.687045 2.45259 0
M  V30 26042 H 2400.95 0.718563 3.35696 0
M  V30 26043 N 2403.39 -1.56975 -0.140195 0
M  V30 26044 C 2404.32 -2.0181 -1.17452 0
M  V30 26045 C 2405.3 -0.898819 -1.44413 0
M  V30 26046 O 2406.49 -1.1671 -1.55218 0
M  V30 26047 C 2403.62 -2.40449 -2.50603 0
M  V30 26048 C 2402.57 -3.55625 -2.38149 0
M  V30 26049 C 2401.9 -3.80098 -3.76072 0
M  V30 26050 C 2403.2 -4.88065 -1.85983 0
M  V30 26051 H 2404.89 -2.88467 -0.801692 0
M  V30 26052 H 2402.44 -1.3878 -0.384196 0
M  V30 26053 H 2404.39 -2.70416 -3.23193 0
M  V30 26054 H 2403.11 -1.50737 -2.89734 0
M  V30 26055 H 2401.77 -3.25834 -1.6801 0
M  V30 26056 H 2401.42 -2.87625 -4.12651 0
M  V30 26057 H 2401.12 -4.57613 -3.68598 0
M  V30 26058 H 2402.64 -4.12496 -4.50199 0
M  V30 26059 H 2404.06 -5.16706 -2.48371 0
M  V30 26060 H 2402.46 -5.69433 -1.89383 0
M  V30 26061 H 2403.53 -4.77986 -0.815938 0
M  V30 26062 N 2404.87 0.409753 -1.5218 0
M  V30 26063 C 2406.11 1.15848 -1.66455 0
M  V30 26064 C 2406.45 1.90182 -0.393005 0
M  V30 26065 O 2405.72 1.84735 0.608547 0
M  V30 26066 C 2406.01 2.15344 -2.88616 0
M  V30 26067 C 2405.86 1.44911 -4.25818 0
M  V30 26068 C 2407.18 3.1602 -3.06299 0
M  V30 26069 H 2404.3 0.419794 -0.605757 0
M  V30 26070 H 2406.94 0.444282 -1.84733 0
M  V30 26071 H 2405.09 2.7625 -2.73163 0
M  V30 26072 H 2406.76 0.871285 -4.52997 0
M  V30 26073 H 2405 0.751084 -4.27248 0
M  V30 26074 H 2405.67 2.17507 -5.07341 0
M  V30 26075 H 2408.15 2.6519 -3.20646 0
M  V30 26076 H 2407.03 3.82903 -3.93289 0
M  V30 26077 H 2407.29 3.83711 -2.19586 0
M  V30 26078 N 2406.35 1.42792 0.666944 0
M  V30 26079 C 2407.28 1.42839 1.79248 0
M  V30 26080 C 2408.29 0.326361 1.59495 0
M  V30 26081 O 2409.48 0.589946 1.68469 0
M  V30 26082 C 2406.58 1.21234 3.16473 0
M  V30 26083 C 2405.75 2.44019 3.63006 0
M  V30 26084 C 2404.81 2.17843 4.7899 0
M  V30 26085 O 2403.84 2.911 4.89132 0
M  V30 26086 N 2405.04 1.18645 5.68246 0
M  V30 26087 H 2407.81 2.39857 1.79691 0
M  V30 26088 H 2405.37 1.37773 0.850314 0
M  V30 26089 H 2407.36 1.01627 3.91732 0
M  V30 26090 H 2405.93 0.327115 3.10884 0
M  V30 26091 H 2405.15 2.79142 2.78341 0
M  V30 26092 H 2406.44 3.25764 3.90839 0
M  V30 26093 H 2405.83 0.580714 5.62711 0
M  V30 26094 H 2404.39 1.05024 6.43283 0
M  V30 26095 N 2407.82 -0.904008 1.29095 0
M  V30 26096 C 2408.79 -1.98917 1.13863 0
M  V30 26097 C 2409.79 -1.60623 0.0753739 0
M  V30 26098 O 2410.98 -1.71199 0.321961 0
M  V30 26099 C 2408.11 -3.32766 0.740257 0
M  V30 26100 H 2409.3 -2.13858 2.1025 0
M  V30 26101 H 2406.86 -1.08795 1.1222 0
M  V30 26102 H 2407.59 -3.23526 -0.223941 0
M  V30 26103 H 2407.38 -3.61923 1.50844 0
M  V30 26104 H 2408.87 -4.12405 0.656619 0
M  V30 26105 N 2409.3 -1.11501 -1.11379 0
M  V30 26106 C 2410.21 -0.786667 -2.21017 0
M  V30 26107 C 2411.23 0.220477 -1.72598 0
M  V30 26108 O 2412.4 0.0564897 -2.01321 0
M  V30 26109 C 2409.47 -0.235394 -3.459 0
M  V30 26110 C 2408.53 -1.30122 -4.09105 0
M  V30 26111 C 2407.76 -0.776161 -5.28026 0
M  V30 26112 O 2407.99 0.393561 -5.69041 0
M  V30 26113 O 2406.92 -1.54125 -5.81833 0
M  V30 26114 H 2410.75 -1.70213 -2.51518 0
M  V30 26115 H 2408.33 -0.890949 -1.19927 0
M  V30 26116 H 2410.21 0.067641 -4.21346 0
M  V30 26117 H 2408.89 0.652773 -3.1705 0
M  V30 26118 H 2407.8 -1.65728 -3.35388 0
M  V30 26119 H 2409.13 -2.1628 -4.42135 0
M  V30 26120 N 2410.78 1.28995 -0.905426 0
M  V30 26121 C 2411.71 2.29974 -0.404253 0
M  V30 26122 C 2412.69 1.61836 0.523755 0
M  V30 26123 O 2413.88 1.89305 0.433265 0
M  V30 26124 C 2411.01 3.45387 0.363981 0
M  V30 26125 C 2409.96 4.25366 -0.474123 0
M  V30 26126 C 2409.29 5.33033 0.421952 0
M  V30 26127 C 2410.59 4.9292 -1.72704 0
M  V30 26128 H 2412.28 2.72144 -1.24812 0
M  V30 26129 H 2409.83 1.30831 -0.601608 0
M  V30 26130 H 2411.78 4.1511 0.725374 0
M  V30 26131 H 2410.5 3.02076 1.24168 0
M  V30 26132 H 2409.16 3.57359 -0.817923 0
M  V30 26133 H 2408.81 4.85965 1.29796 0
M  V30 26134 H 2408.51 5.87445 -0.13516 0
M  V30 26135 H 2410.04 6.05605 0.77941 0
M  V30 26136 H 2411.45 5.55049 -1.43505 0
M  V30 26137 H 2409.85 5.57291 -2.22592 0
M  V30 26138 H 2410.92 4.17883 -2.45971 0
M  V30 26139 N 2412.26 0.668514 1.42719 0
M  V30 26140 C 2413.48 0.194794 2.06483 0
M  V30 26141 C 2413.91 -1.13677 1.49864 0
M  V30 26142 O 2413.27 -1.70564 0.614612 0
M  V30 26143 C 2413.32 0.133609 3.60352 0
M  V30 26144 O 2412.42 -0.899736 4.02466 0
M  V30 26145 H 2411.76 0.101892 0.656136 0
M  V30 26146 H 2414.29 0.915754 1.82962 0
M  V30 26147 H 2414.3 -0.0446324 4.07976 0
M  V30 26148 H 2412.98 1.10557 4.00936 0
M  V30 26149 H 2411.55 -0.693044 3.66403 0
M  V30 26150 N 2413.74 -1.52135 0.411426 0
M  V30 26151 C 2414.98 -2.02137 -0.163852 0
M  V30 26152 C 2415.32 -1.29638 -1.44595 0
M  V30 26153 O 2414.59 -0.403387 -1.90271 0
M  V30 26154 C 2414.87 -3.57767 -0.409208 0
M  V30 26155 C 2414.73 -4.40913 0.889721 0
M  V30 26156 C 2416.05 -4.23697 -1.19035 0
M  V30 26157 H 2413.17 -0.734708 -0.0580766 0
M  V30 26158 H 2415.81 -1.82006 0.545342 0
M  V30 26159 H 2413.96 -3.75052 -1.01333 0
M  V30 26160 H 2415.63 -4.35334 1.52583 0
M  V30 26161 H 2413.87 -4.07034 1.50018 0
M  V30 26162 H 2414.54 -5.47889 0.672411 0
M  V30 26163 H 2417.02 -4.10525 -0.67887 0
M  V30 26164 H 2415.9 -5.32524 -1.33077 0
M  V30 26165 H 2416.16 -3.82807 -2.21159 0
M  V30 26166 N 2415.22 -0.14192 -1.5696 0
M  V30 26167 C 2416.15 0.795898 -2.19517 0
M  V30 26168 C 2417.13 1.26075 -1.14189 0
M  V30 26169 O 2418.31 1.31923 -1.42513 0
M  V30 26170 C 2415.44 2.03718 -2.81276 0
M  V30 26171 C 2414.4 1.70929 -3.92387 0
M  V30 26172 C 2413.72 3.02279 -4.41057 0
M  V30 26173 C 2415.02 0.959864 -5.13404 0
M  V30 26174 H 2416.72 0.274543 -2.98139 0
M  V30 26175 H 2414.26 0.130611 -1.43406 0
M  V30 26176 H 2416.21 2.69802 -3.23705 0
M  V30 26177 H 2414.94 2.58218 -1.99978 0
M  V30 26178 H 2413.6 1.07226 -3.50568 0
M  V30 26179 H 2413.25 3.54759 -3.56588 0
M  V30 26180 H 2412.95 2.81105 -5.15998 0
M  V30 26181 H 2414.47 3.69443 -4.86153 0
M  V30 26182 H 2415.88 1.52269 -5.52709 0
M  V30 26183 H 2414.28 0.848253 -5.94075 0
M  V30 26184 H 2415.35 -0.0493287 -4.84875 0
M  V30 26185 N 2416.69 1.57047 0.131868 0
M  V30 26186 C 2417.94 1.84442 0.843147 0
M  V30 26187 C 2418.27 0.725781 1.80128 0
M  V30 26188 O 2417.55 -0.269436 1.92625 0
M  V30 26189 C 2417.83 3.22385 1.60437 0
M  V30 26190 C 2417.68 4.44832 0.666704 0
M  V30 26191 C 2419 3.57735 2.56347 0
M  V30 26192 H 2416.12 0.670896 0.305069 0
M  V30 26193 H 2418.76 1.89694 0.107806 0
M  V30 26194 H 2416.91 3.18039 2.23122 0
M  V30 26195 H 2418.59 4.61273 0.0496835 0
M  V30 26196 H 2416.83 4.33794 -0.0226853 0
M  V30 26197 H 2417.5 5.37991 1.23569 0
M  V30 26198 H 2419.98 3.62789 2.03773 0
M  V30 26199 H 2418.85 4.55256 3.06649 0
M  V30 26200 H 2419.11 2.84479 3.38414 0
M  V30 26201 N 2418.17 -0.401677 1.52395 0
M  V30 26202 C 2419.45 -1.16138 1.57389 0
M  V30 26203 C 2419.83 -2.08018 0.359395 0
M  V30 26204 O 2419.18 -2.18964 -0.653221 0
M  V30 26205 C 2419.39 -1.93216 2.90635 0
M  V30 26206 C 2420.73 -2.49022 3.43909 0
M  V30 26207 O 2421.76 -2.03388 2.92424 0
M  V30 26208 O 2420.62 -3.32348 4.33828 0
M  V30 26209 H 2417.71 -0.530687 0.634272 0
M  V30 26210 H 2420.26 -0.407854 1.64726 0
M  V30 26211 H 2419.03 -1.25952 3.70475 0
M  V30 26212 H 2418.65 -2.75557 2.86625 0
M  V30 26213 N 2419.65 -1.43144 -0.659362 0
M  V30 26214 C 2420.9 -1.44649 -1.42142 0
M  V30 26215 C 2421.23 -0.0682248 -1.9408 0
M  V30 26216 O 2420.5 0.909977 -1.719 0
M  V30 26217 C 2420.79 -2.48378 -2.60731 0
M  V30 26218 C 2420.64 -3.95455 -2.14325 0
M  V30 26219 C 2421.96 -2.48913 -3.62947 0
M  V30 26220 H 2419.08 -0.526705 -0.515511 0
M  V30 26221 H 2421.72 -1.74655 -0.748038 0
M  V30 26222 H 2419.87 -2.22921 -3.1818 0
M  V30 26223 H 2421.54 -4.31947 -1.61925 0
M  V30 26224 H 2419.78 -4.08581 -1.45753 0
M  V30 26225 H 2420.46 -4.63637 -2.99575 0
M  V30 26226 H 2422.93 -2.71587 -3.15245 0
M  V30 26227 H 2421.81 -3.23443 -4.43482 0
M  V30 26228 H 2422.07 -1.52068 -4.15124 0
M  V30 26229 N 2421.13 0.897149 -1.29572 0
M  V30 26230 C 2422.06 2.01796 -1.17476 0
M  V30 26231 C 2423.04 1.69963 -0.0683529 0
M  V30 26232 O 2424.22 1.92606 -0.248273 0
M  V30 26233 C 2421.35 3.36658 -0.853158 0
M  V30 26234 C 2420.31 3.8271 -1.91617 0
M  V30 26235 C 2419.63 5.14726 -1.44782 0
M  V30 26236 C 2420.93 4.02757 -3.32542 0
M  V30 26237 H 2422.63 2.12174 -2.11241 0
M  V30 26238 H 2420.17 1.01946 -1.01701 0
M  V30 26239 H 2422.13 4.14577 -0.755238 0
M  V30 26240 H 2420.85 3.26379 0.120179 0
M  V30 26241 H 2419.51 3.07009 -2.00352 0
M  V30 26242 H 2419.16 5.00864 -0.463083 0
M  V30 26243 H 2418.86 5.46509 -2.15875 0
M  V30 26244 H 2420.38 5.95183 -1.36345 0
M  V30 26245 H 2421.8 4.71151 -3.26634 0
M  V30 26246 H 2420.19 4.45898 -4.01615 0
M  V30 26247 H 2421.26 3.07009 -3.75331 0
M  V30 26248 N 2422.61 1.1209 1.10786 0
M  V30 26249 C 2423.56 0.754439 2.15156 0
M  V30 26250 C 2424.54 -0.244818 1.59027 0
M  V30 26251 O 2425.73 -0.0508786 1.76927 0
M  V30 26252 C 2422.86 0.206717 3.42677 0
M  V30 26253 C 2421.95 1.23405 4.05749 0
M  V30 26254 N 2422.34 2.43049 4.43578 0
M  V30 26255 C 2420.64 1.07856 4.32762 0
M  V30 26256 C 2421.34 3.08622 4.9308 0
M  V30 26257 N 2420.31 2.36081 4.8966 0
M  V30 26258 H 2424.11 1.66494 2.42192 0
M  V30 26259 H 2421.63 1.00115 1.2787 0
M  V30 26260 H 2423.63 -0.0739913 4.16834 0
M  V30 26261 H 2422.29 -0.698286 3.17103 0
M  V30 26262 H 2423.3 2.80456 4.3539 0
M  V30 26263 H 2419.97 0.230556 4.16863 0
M  V30 26264 H 2421.36 4.10493 5.31926 0
M  V30 26265 N 2424.08 -1.28513 0.912254 0
M  V30 26266 C 2425.5 -1.47475 0.610185 0
M  V30 26267 C 2425.7 -1.8293 -0.844923 0
M  V30 26268 O 2424.76 -1.93335 -1.62412 0
M  V30 26269 C 2426.07 -2.57865 1.5468 0
M  V30 26270 C 2427.62 -2.71735 1.55335 0
M  V30 26271 C 2428.09 -3.85267 2.47655 0
M  V30 26272 N 2429.58 -3.92619 2.45774 0
M  V30 26273 C 2430.32 -4.79845 3.13905 0
M  V30 26274 N 2429.81 -5.71672 3.9136 0
M  V30 26275 N 2431.61 -4.73443 3.02999 0
M  V30 26276 H 2423.76 -1.03779 1.8532 0
M  V30 26277 H 2426.02 -0.516739 0.794786 0
M  V30 26278 H 2425.73 -2.38569 2.58414 0
M  V30 26279 H 2425.6 -3.54934 1.27677 0
M  V30 26280 H 2427.99 -2.90421 0.523401 0
M  V30 26281 H 2428.07 -1.75202 1.86381 0
M  V30 26282 H 2427.71 -3.67336 3.50752 0
M  V30 26283 H 2427.64 -4.81195 2.13912 0
M  V30 26284 H 2430.13 -3.26948 1.89509 0
M  V30 26285 H 2430.45 -6.35054 4.4037 0
M  V30 26286 H 2428.79 -5.71517 3.95465 0
M  V30 26287 H 2431.98 -4.00695 2.41994 0
M  V30 26288 H 2432.16 -5.41207 3.56369 0
M  V30 26289 N 2425.56 -0.676073 -1.42362 0
M  V30 26290 C 2426.97 -0.27598 -1.84649 0
M  V30 26291 C 2427.32 1.18212 -1.5659 0
M  V30 26292 O 2426.45 1.90512 -1.02637 0
M  V30 26293 C 2427.04 -0.494112 -3.35178 0
M  V30 26294 C 2425.6 -0.148127 -3.76108 0
M  V30 26295 C 2424.75 -0.785938 -2.65929 0
M  V30 26296 H 2427.7 -0.878144 -1.3219 0
M  V30 26297 H 2427.72 0.253363 -3.79656 0
M  V30 26298 H 2427.23 -1.55541 -3.55568 0
M  V30 26299 H 2425.34 0.909678 -3.61325 0
M  V30 26300 H 2425.45 -0.589538 -4.75459 0
M  V30 26301 H 2423.81 -0.217158 -2.53773 0
M  V30 26302 H 2424.6 -1.85072 -2.89142 0
M  V30 26303 N 2427.04 1.51915 -0.419488 0
M  V30 26304 C 2427.95 2.31034 0.407487 0
M  V30 26305 C 2428.97 1.39192 1.04411 0
M  V30 26306 O 2430.14 1.72266 1.04337 0
M  V30 26307 C 2427.21 3.12399 1.50359 0
M  V30 26308 C 2426.27 4.19995 0.888955 0
M  V30 26309 C 2425.5 4.97471 1.93283 0
M  V30 26310 O 2425.72 4.75367 3.1525 0
M  V30 26311 O 2424.66 5.82043 1.53329 0
M  V30 26312 H 2428.48 3.02767 -0.237918 0
M  V30 26313 H 2426.07 1.48282 -0.182439 0
M  V30 26314 H 2427.95 3.63036 2.13969 0
M  V30 26315 H 2426.63 2.43449 2.13341 0
M  V30 26316 H 2425.53 3.7348 0.215287 0
M  V30 26317 H 2426.87 4.91267 0.302905 0
M  V30 26318 N 2428.52 0.150242 1.56882 0
M  V30 26319 C 2429.45 -0.784245 2.19936 0
M  V30 26320 C 2430.43 -1.25467 1.14856 0
M  V30 26321 O 2431.61 -1.31165 1.43211 0
M  V30 26322 C 2428.74 -2.02224 2.82352 0
M  V30 26323 C 2427.7 -1.68846 3.93287 0
M  V30 26324 C 2427.02 -2.99936 4.42654 0
M  V30 26325 C 2428.32 -0.932623 5.13906 0
M  V30 26326 H 2430.02 -0.258729 2.9828 0
M  V30 26327 H 2427.56 -0.123004 1.43474 0
M  V30 26328 H 2429.52 -2.68082 3.25131 0
M  V30 26329 H 2428.24 -2.57154 2.01345 0
M  V30 26330 H 2426.9 -1.05365 3.51132 0
M  V30 26331 H 2426.55 -3.52863 3.58464 0
M  V30 26332 H 2426.25 -2.78365 5.17481 0
M  V30 26333 H 2427.77 -3.66859 4.88105 0
M  V30 26334 H 2429.19 -1.49336 5.53509 0
M  V30 26335 H 2427.58 -0.816735 5.94516 0
M  V30 26336 H 2428.65 0.0750421 4.84842 0
M  V30 26337 N 2430 -1.57115 -0.123538 0
M  V30 26338 C 2430.93 -2.03044 -1.15305 0
M  V30 26339 C 2431.91 -0.914086 -1.43452 0
M  V30 26340 O 2433.09 -1.18349 -1.53971 0
M  V30 26341 C 2430.22 -2.43093 -2.48038 0
M  V30 26342 C 2429.18 -3.58131 -2.34363 0
M  V30 26343 C 2428.5 -3.84065 -3.72019 0
M  V30 26344 C 2429.8 -4.9001 -1.80796 0
M  V30 26345 H 2431.5 -2.89301 -0.771051 0
M  V30 26346 H 2429.04 -1.3918 -0.369455 0
M  V30 26347 H 2431 -2.73828 -3.20306 0
M  V30 26348 H 2429.72 -1.53801 -2.88119 0
M  V30 26349 H 2428.38 -3.27598 -1.64545 0
M  V30 26350 H 2428.03 -2.91986 -4.09577 0
M  V30 26351 H 2427.73 -4.61496 -3.63724 0
M  V30 26352 H 2429.25 -4.17248 -4.45799 0
M  V30 26353 H 2430.66 -5.19311 -2.42877 0
M  V30 26354 H 2429.06 -5.7141 -1.83333 0
M  V30 26355 H 2430.13 -4.78824 -0.765196 0
M  V30 26356 N 2431.47 0.393589 -1.52606 0
M  V30 26357 C 2432.72 1.13907 -1.67426 0
M  V30 26358 C 2433.05 1.90089 -0.411892 0
M  V30 26359 O 2432.3 1.86094 0.605594 0
M  V30 26360 C 2432.6 2.147 -2.85725 0
M  V30 26361 C 2432.27 1.5521 -4.23345 0
M  V30 26362 C 2430.93 1.38712 -4.60774 0
M  V30 26363 C 2433.28 1.11915 -5.09043 0
M  V30 26364 C 2430.61 0.774587 -5.81564 0
M  V30 26365 C 2432.96 0.520742 -6.30453 0
M  V30 26366 C 2431.63 0.343017 -6.66618 0
M  V30 26367 H 2430.9 0.416815 -0.612655 0
M  V30 26368 H 2433.54 0.424282 -1.86741 0
M  V30 26369 H 2431.85 2.92381 -2.60808 0
M  V30 26370 H 2433.55 2.72282 -2.94386 0
M  V30 26371 H 2430.14 1.69038 -3.93858 0
M  V30 26372 H 2434.32 1.23465 -4.80698 0
M  V30 26373 H 2429.58 0.625047 -6.08197 0
M  V30 26374 H 2433.75 0.176943 -6.96175 0
M  V30 26375 H 2431.38 -0.133705 -7.60082 0
M  V30 26376 N 2432.95 1.43492 0.651762 0
M  V30 26377 C 2434.36 1.40195 1.23297 0
M  V30 26378 C 2434.71 0.106762 1.95909 0
M  V30 26379 O 2433.84 -0.793738 2.01318 0
M  V30 26380 C 2434.43 2.53961 2.24253 0
M  V30 26381 C 2432.99 2.53925 2.77847 0
M  V30 26382 C 2432.14 2.31593 1.52513 0
M  V30 26383 H 2435.09 1.52372 0.44369 0
M  V30 26384 H 2435.11 2.25533 3.06456 0
M  V30 26385 H 2434.62 3.48213 1.71376 0
M  V30 26386 H 2432.73 1.63557 3.34783 0
M  V30 26387 H 2432.84 3.5174 3.25293 0
M  V30 26388 H 2431.2 1.80288 1.79912 0
M  V30 26389 H 2431.99 3.27931 1.01568 0
M  V30 26390 N 2434.43 -0.890264 1.30046 0
M  V30 26391 C 2435.34 -2.02829 1.17889 0
M  V30 26392 C 2436.36 -1.73712 0.0999915 0
M  V30 26393 O 2437.53 -1.98939 0.313902 0
M  V30 26394 C 2434.6 -3.35707 0.866138 0
M  V30 26395 C 2433.66 -3.7828 2.02985 0
M  V30 26396 C 2432.89 -5.04817 1.73193 0
M  V30 26397 O 2433.11 -5.666 0.657337 0
M  V30 26398 O 2432.05 -5.4367 2.58276 0
M  V30 26399 H 2435.87 -2.16012 2.13478 0
M  V30 26400 H 2433.46 -1.01541 1.09589 0
M  V30 26401 H 2435.34 -4.15432 0.706696 0
M  V30 26402 H 2434.02 -3.23645 -0.0598874 0
M  V30 26403 H 2432.92 -2.99281 2.24459 0
M  V30 26404 H 2434.26 -3.94939 2.93741 0
M  V30 26405 N 2435.91 -1.12676 -1.1019 0
M  V30 26406 C 2436.86 -0.792234 -2.18692 0
M  V30 26407 C 2437.85 0.222028 -1.67939 0
M  V30 26408 O 2439.06 0.0799758 -1.79822 0
M  V30 26409 H 2435.43 -0.238377 -0.713218 0
M  V30 26410 H 2437.4 -1.71568 -2.44146 0
M  V30 26411 C 2436.15 -0.26592 -3.46682 0
M  V30 26412 H 2435.47 -1.03767 -3.86099 0
M  V30 26413 H 2436.91 -0.0701873 -4.23942 0
M  V30 26414 C 2435.37 1.00669 -3.21508 0
M  V30 26415 O 2435.9 2.08402 -3.43412 0
M  V30 26416 N 2434.11 0.934644 -2.7516 0
M  V30 26417 H 2433.66 0.0578151 -2.57535 0
M  V30 26418 H 2433.61 1.78675 -2.58694 0
M  V30 26419 N 2437.39 1.28028 -0.919057 0
M  V30 26420 C 2438.61 1.98865 -0.571006 0
M  V30 26421 C 2439.03 1.68636 0.848966 0
M  V30 26422 O 2438.39 0.942063 1.56306 0
M  V30 26423 C 2438.44 3.53052 -0.776939 0
M  V30 26424 O 2438.16 3.82219 -2.14104 0
M  V30 26425 C 2439.66 4.41146 -0.436433 0
M  V30 26426 H 2436.88 0.634879 -0.217186 0
M  V30 26427 H 2439.42 1.63094 -1.23371 0
M  V30 26428 H 2437.58 3.87065 -0.161153 0
M  V30 26429 H 2437.99 4.76838 -2.18463 0
M  V30 26430 H 2439.47 5.48379 -0.631267 0
M  V30 26431 H 2439.94 4.34693 0.62761 0
M  V30 26432 H 2440.55 4.1264 -1.02999 0
M  V30 26433 N 2438.86 0.683613 1.42002 0
M  V30 26434 C 2440.14 0.13811 1.95112 0
M  V30 26435 C 2440.52 -1.34915 1.62361 0
M  V30 26436 O 2439.87 -2.08969 0.924348 0
M  V30 26437 C 2440.08 0.416642 3.46504 0
M  V30 26438 C 2441.43 0.337908 4.23253 0
M  V30 26439 O 2442.45 0.350882 3.54468 0
M  V30 26440 O 2441.31 0.287692 5.45742 0
M  V30 26441 H 2438.4 0.0079945 0.826961 0
M  V30 26442 H 2440.95 0.758951 1.51783 0
M  V30 26443 H 2439.72 1.44657 3.6358 0
M  V30 26444 H 2439.35 -0.23577 3.969 0
M  V30 26445 N 2440.34 -1.5169 0.427538 0
M  V30 26446 C 2441.31 -2.26077 -0.377092 0
M  V30 26447 C 2442.31 -1.29142 -0.958066 0
M  V30 26448 O 2443.5 -1.52935 -0.834053 0
M  V30 26449 C 2440.63 -3.04508 -1.53256 0
M  V30 26450 H 2441.82 -2.98639 0.274693 0
M  V30 26451 H 2439.37 -1.55255 0.180472 0
M  V30 26452 H 2440.11 -2.36339 -2.22068 0
M  V30 26453 H 2439.89 -3.75696 -1.12226 0
M  V30 26454 H 2441.38 -3.60882 -2.10129 0
M  V30 26455 N 2441.82 -0.15856 -1.568 0
M  V30 26456 C 2443.24 0.197746 -1.5837 0
M  V30 26457 C 2443.44 1.63812 -1.17337 0
M  V30 26458 O 2442.49 2.36705 -0.879029 0
M  V30 26459 C 2443.81 -0.0714987 -3.00615 0
M  V30 26460 C 2445.35 -0.00870035 -3.12999 0
M  V30 26461 C 2445.83 -0.250765 -4.57313 0
M  V30 26462 N 2447.32 -0.198095 -4.62776 0
M  V30 26463 C 2448.06 -0.359742 -5.7227 0
M  V30 26464 N 2447.55 -0.579747 -6.9037 0
M  V30 26465 N 2449.34 -0.296537 -5.61317 0
M  V30 26466 H 2441.5 -1.0989 -1.81763 0
M  V30 26467 H 2443.76 -0.435899 -0.841841 0
M  V30 26468 H 2443.46 -1.0688 -3.35066 0
M  V30 26469 H 2443.34 0.642692 -3.71684 0
M  V30 26470 H 2445.73 0.979168 -2.78382 0
M  V30 26471 H 2445.81 -0.755402 -2.44392 0
M  V30 26472 H 2445.45 -1.23578 -4.92637 0
M  V30 26473 H 2445.38 0.516397 -5.24062 0
M  V30 26474 H 2447.87 -0.0331779 -3.77885 0
M  V30 26475 H 2448.18 -0.692886 -7.69688 0
M  V30 26476 H 2446.53 -0.616208 -6.92263 0
M  V30 26477 H 2449.72 -0.125341 -4.67932 0
M  V30 26478 H 2449.89 -0.425945 -6.46599 0
M  V30 26479 N 2443.3 1.57178 0.115204 0
M  V30 26480 C 2444.72 1.52558 0.46885 0
M  V30 26481 C 2444.92 0.872157 1.81647 0
M  V30 26482 O 2443.97 0.456104 2.48346 0
M  V30 26483 C 2445.28 2.97316 0.449848 0
M  V30 26484 C 2446.83 3.08426 0.533131 0
M  V30 26485 C 2447.31 4.54752 0.54448 0
M  V30 26486 N 2448.8 4.59221 0.605811 0
M  V30 26487 C 2449.53 5.69861 0.636102 0
M  V30 26488 N 2449.03 6.89986 0.62381 0
M  V30 26489 N 2450.82 5.57979 0.679398 0
M  V30 26490 H 2442.97 1.98039 -0.767746 0
M  V30 26491 H 2445.24 0.904578 -0.283625 0
M  V30 26492 H 2444.94 3.48508 -0.472783 0
M  V30 26493 H 2444.82 3.54953 1.27626 0
M  V30 26494 H 2447.2 2.57235 1.44618 0
M  V30 26495 H 2447.28 2.53777 -0.32104 0
M  V30 26496 H 2446.93 5.0659 -0.364541 0
M  V30 26497 H 2446.86 5.07217 1.41559 0
M  V30 26498 H 2449.35 3.72757 0.621321 0
M  V30 26499 H 2449.66 7.70065 0.649652 0
M  V30 26500 H 2448.01 6.92481 0.591175 0
M  V30 26501 H 2451.2 4.6304 0.686391 0
M  V30 26502 H 2451.37 6.44213 0.699537 0
M  V30 26503 N 2444.78 -0.38549 1.52813 0
M  V30 26504 C 2445.72 -1.4711 1.77841 0
M  V30 26505 C 2446.69 -1.54023 0.621784 0
M  V30 26506 O 2447.88 -1.70224 0.861876 0
M  V30 26507 C 2445.02 -2.84298 1.95623 0
M  V30 26508 C 2444.13 -2.86509 3.23321 0
M  V30 26509 C 2443.27 -4.15146 3.31401 0
M  V30 26510 C 2442.31 -4.11423 4.53208 0
M  V30 26511 N 2441.44 -5.31672 4.58551 0
M  V30 26512 H 2446.28 -1.25069 2.70484 0
M  V30 26513 H 2443.82 -0.606668 1.34007 0
M  V30 26514 H 2445.78 -3.63969 2.03918 0
M  V30 26515 H 2444.41 -3.04782 1.06337 0
M  V30 26516 H 2443.46 -1.99189 3.2408 0
M  V30 26517 H 2444.77 -2.79626 4.1305 0
M  V30 26518 H 2443.93 -5.03222 3.38898 0
M  V30 26519 H 2442.67 -4.24756 2.39652 0
M  V30 26520 H 2441.67 -3.21734 4.45833 0
M  V30 26521 H 2442.9 -4.03432 5.46278 0
M  V30 26522 H 2440.84 -5.41905 3.69695 0
M  V30 26523 H 2440.76 -5.26879 5.42157 0
M  V30 26524 H 2442.03 -6.21636 4.70307 0
M  V30 26525 N 2446.26 -1.43835 -0.644143 0
M  V30 26526 C 2447.5 -1.47443 -1.41562 0
M  V30 26527 C 2447.86 -0.099306 -1.91743 0
M  V30 26528 O 2449.06 -0.0100665 -2.68798 0
M  V30 26529 C 2447.33 -2.49502 -2.55897 0
M  V30 26530 S 2448.89 -2.72057 -3.44283 0
M  V30 26531 H 2445.71 -0.521658 -0.483109 0
M  V30 26532 H 2448.31 -1.80667 -0.746976 0
M  V30 26533 H 2447.01 -3.48138 -2.17321 0
M  V30 26534 H 2446.55 -2.17807 -3.27603 0
M  V30 26535 H 2448.56 -2.02668 -4.52924 0
M  V30 26536 N 2447.73 0.883355 -1.30517 0
M  V30 26537 C 2448.64 2.02201 -1.18963 0
M  V30 26538 C 2449.66 1.73657 -0.109202 0
M  V30 26539 O 2450.84 1.98769 -0.324448 0
M  V30 26540 C 2447.9 3.35243 -0.883929 0
M  V30 26541 C 2446.96 3.77198 -2.04989 0
M  V30 26542 C 2446.19 5.03891 -1.75868 0
M  V30 26543 O 2446.42 5.66243 -0.687376 0
M  V30 26544 O 2445.35 5.42293 -2.61156 0
M  V30 26545 H 2449.18 2.14876 -2.1462 0
M  V30 26546 H 2446.76 1.00959 -1.10126 0
M  V30 26547 H 2448.64 4.15051 -0.728717 0
M  V30 26548 H 2447.32 3.23672 0.0427229 0
M  V30 26549 H 2446.23 2.98086 -2.26043 0
M  V30 26550 H 2447.56 3.93376 -2.95832 0
M  V30 26551 N 2449.21 1.13259 1.09591 0
M  V30 26552 C 2450.44 0.916765 1.86038 0
M  V30 26553 C 2450.86 -0.529114 1.80505 0
M  V30 26554 O 2450.22 -1.37532 1.1813 0
M  V30 26555 C 2450.27 1.40709 3.32014 0
M  V30 26556 O 2449.37 0.591225 4.0814 0
M  V30 26557 H 2448.71 0.328693 0.576937 0
M  V30 26558 H 2451.24 1.50685 1.38403 0
M  V30 26559 H 2451.25 1.40997 3.82863 0
M  V30 26560 H 2449.93 2.45985 3.35357 0
M  V30 26561 H 2448.5 0.656069 3.67083 0
M  V30 26562 N 2450.69 -1.27539 0.925834 0
M  V30 26563 C 2451.94 -1.94066 0.564172 0
M  V30 26564 C 2452.26 -1.73136 -0.897157 0
M  V30 26565 O 2451.53 -1.07802 -1.63571 0
M  V30 26566 H 2450.11 -0.718132 0.205658 0
M  V30 26567 H 2452.77 -1.55285 1.17782 0
M  V30 26568 H 2451.87 -3.02481 0.768863 0
M  V30 26569 N 2452.17 -0.691135 -1.41637 0
M  V30 26570 C 2453.42 -0.219793 -2.00901 0
M  V30 26571 C 2453.74 1.18326 -1.54996 0
M  V30 26572 O 2453.01 1.7976 -0.778659 0
M  V30 26573 H 2451.59 -0.0782689 -0.742888 0
M  V30 26574 H 2454.25 -0.891301 -1.73326 0
M  V30 26575 H 2453.34 -0.233763 -3.11223 0
M  V30 26576 N 2453.65 1.51461 -0.435577 0
M  V30 26577 C 2454.89 2.02073 0.131479 0
M  V30 26578 C 2455.22 1.31983 1.42866 0
M  V30 26579 O 2454.48 0.422917 1.91076 0
M  V30 26580 C 2454.77 3.55162 0.399357 0
M  V30 26581 C 2454.44 4.43532 -0.811798 0
M  V30 26582 C 2453.1 4.67405 -1.14395 0
M  V30 26583 C 2455.45 4.95389 -1.61985 0
M  V30 26584 C 2452.78 5.4038 -2.28486 0
M  V30 26585 C 2455.13 5.69616 -2.75174 0
M  V30 26586 C 2453.8 5.91752 -3.08845 0
M  V30 26587 H 2453.07 0.739436 0.0481114 0
M  V30 26588 H 2455.72 1.82429 -0.582412 0
M  V30 26589 H 2454.02 3.73127 1.19512 0
M  V30 26590 H 2455.72 3.91855 0.851501 0
M  V30 26591 H 2452.31 4.25147 -0.542973 0
M  V30 26592 H 2456.49 4.76831 -1.37645 0
M  V30 26593 H 2451.75 5.55735 -2.5489 0
M  V30 26594 H 2455.92 6.08787 -3.38158 0
M  V30 26595 H 2453.55 6.48079 -3.97364 0
M  V30 26596 N 2455.12 0.166873 1.56714 0
M  V30 26597 C 2456.37 -0.479284 1.95923 0
M  V30 26598 C 2456.69 -1.64689 1.05532 0
M  V30 26599 O 2457.89 -2.35898 1.34403 0
M  V30 26600 C 2456.35 -0.904059 3.4836 0
M  V30 26601 C 2455.96 0.2377 4.47369 0
M  V30 26602 C 2457.7 -1.51889 3.96396 0
M  V30 26603 C 2455.61 -0.206458 5.9104 0
M  V30 26604 H 2454.54 -0.182827 0.731499 0
M  V30 26605 H 2457.19 0.254395 1.81728 0
M  V30 26606 H 2455.57 -1.69359 3.57958 0
M  V30 26607 H 2456.74 1.01497 4.49483 0
M  V30 26608 H 2455.06 0.7622 4.09365 0
M  V30 26609 H 2457.66 -1.86316 5.01189 0
M  V30 26610 H 2458 -2.41518 3.39079 0
M  V30 26611 H 2458.53 -0.793882 3.89798 0
M  V30 26612 H 2455.27 0.654949 6.5222 0
M  V30 26613 H 2454.79 -0.949178 5.92242 0
M  V30 26614 H 2456.47 -0.651826 6.43708 0
M  V30 26615 N 2456.6 -1.57237 -0.106866 0
M  V30 26616 C 2457.84 -1.87308 -0.818244 0
M  V30 26617 C 2458.21 -0.756402 -1.76473 0
M  V30 26618 O 2459.41 -0.9392 -2.51858 0
M  V30 26619 C 2457.68 -3.22614 -1.53801 0
M  V30 26620 S 2459.24 -3.74349 -2.28929 0
M  V30 26621 H 2456.06 -0.656562 -0.272851 0
M  V30 26622 H 2458.66 -1.95352 -0.0759536 0
M  V30 26623 H 2457.36 -4.01818 -0.83488 0
M  V30 26624 H 2456.89 -3.17678 -2.32043 0
M  V30 26625 H 2458.91 -3.46822 -3.54865 0
M  V30 26626 N 2458.08 0.377381 -1.53015 0
M  V30 26627 C 2459.03 1.46165 -1.78618 0
M  V30 26628 C 2460 1.53691 -0.629944 0
M  V30 26629 O 2461.18 1.69765 -0.870891 0
M  V30 26630 C 2458.32 2.83257 -1.97128 0
M  V30 26631 C 2457.44 2.84791 -3.24836 0
M  V30 26632 C 2456.57 4.13383 -3.33598 0
M  V30 26633 C 2455.61 4.09013 -4.55384 0
M  V30 26634 N 2454.75 5.29233 -4.61364 0
M  V30 26635 H 2459.59 1.23632 -2.71144 0
M  V30 26636 H 2457.12 0.599553 -1.34327 0
M  V30 26637 H 2459.08 3.62882 -2.05846 0
M  V30 26638 H 2457.71 3.04214 -1.07951 0
M  V30 26639 H 2456.76 1.97468 -3.25132 0
M  V30 26640 H 2458.08 2.77432 -4.14527 0
M  V30 26641 H 2457.23 5.01418 -3.41562 0
M  V30 26642 H 2455.97 4.23479 -2.41902 0
M  V30 26643 H 2454.97 3.19366 -4.47533 0
M  V30 26644 H 2456.2 4.00529 -5.48409 0
M  V30 26645 H 2454.14 5.39937 -3.72564 0
M  V30 26646 H 2454.06 5.23996 -5.44944 0
M  V30 26647 H 2455.33 6.19133 -4.73597 0
M  V30 26648 N 2459.56 1.44175 0.636506 0
M  V30 26649 C 2460.49 1.53447 1.76 0
M  V30 26650 C 2461.47 0.38787 1.65619 0
M  V30 26651 O 2462.65 0.607289 1.8446 0
M  V30 26652 C 2459.78 1.47315 3.14508 0
M  V30 26653 C 2458.74 2.60397 3.39673 0
M  V30 26654 C 2458.06 2.39317 4.78154 0
M  V30 26655 C 2459.36 4.02573 3.32765 0
M  V30 26656 H 2461.06 2.47486 1.68497 0
M  V30 26657 H 2458.6 1.19112 0.809216 0
M  V30 26658 H 2460.56 1.52404 3.92875 0
M  V30 26659 H 2459.28 0.497906 3.22782 0
M  V30 26660 H 2457.94 2.54689 2.63684 0
M  V30 26661 H 2457.59 1.39997 4.83125 0
M  V30 26662 H 2457.29 3.1513 4.9595 0
M  V30 26663 H 2458.81 2.46215 5.58758 0
M  V30 26664 H 2460.23 4.09679 4.01044 0
M  V30 26665 H 2458.62 4.78547 3.62096 0
M  V30 26666 H 2459.69 4.26524 2.30662 0
M  V30 26667 N 2461.04 -0.876421 1.30983 0
M  V30 26668 C 2462.29 -1.6237 1.19661 0
M  V30 26669 C 2462.6 -1.94052 -0.245601 0
M  V30 26670 O 2463.8 -2.67215 -0.480443 0
M  V30 26671 C 2462.26 -2.92684 2.09438 0
M  V30 26672 C 2461.87 -2.6851 3.58617 0
M  V30 26673 C 2463.61 -3.70665 2.06899 0
M  V30 26674 C 2461.52 -3.94691 4.40423 0
M  V30 26675 H 2460.45 -0.609206 0.444279 0
M  V30 26676 H 2463.1 -0.969578 1.55793 0
M  V30 26677 H 2461.48 -3.59436 1.66198 0
M  V30 26678 H 2462.66 -2.10205 4.10061 0
M  V30 26679 H 2460.97 -2.03892 3.63066 0
M  V30 26680 H 2463.57 -4.64261 2.65266 0
M  V30 26681 H 2463.91 -4.02722 1.05455 0
M  V30 26682 H 2464.44 -3.10788 2.48306 0
M  V30 26683 H 2461.18 -3.67789 5.42597 0
M  V30 26684 H 2460.7 -4.5247 3.93739 0
M  V30 26685 H 2462.38 -4.62636 4.52302 0
M  V30 26686 N 2462.51 -1.13839 -1.08989 0
M  V30 26687 C 2463.46 -0.819873 -2.15747 0
M  V30 26688 C 2464.43 0.219997 -1.64637 0
M  V30 26689 O 2465.62 0.0912422 -1.90582 0
M  V30 26690 C 2462.76 -0.296973 -3.4382 0
M  V30 26691 C 2461.87 -1.39644 -4.08808 0
M  V30 26692 C 2461 -0.831406 -5.24653 0
M  V30 26693 C 2460.04 -1.90896 -5.81571 0
M  V30 26694 N 2459.18 -1.36154 -6.88772 0
M  V30 26695 H 2464.02 -1.7343 -2.42335 0
M  V30 26696 H 2461.56 -0.865634 -1.18934 0
M  V30 26697 H 2463.52 0.0243606 -4.17193 0
M  V30 26698 H 2462.15 0.580572 -3.17536 0
M  V30 26699 H 2461.2 -1.83428 -3.33254 0
M  V30 26700 H 2462.51 -2.21066 -4.47137 0
M  V30 26701 H 2461.66 -0.461622 -6.04941 0
M  V30 26702 H 2460.4 0.0138463 -4.87698 0
M  V30 26703 H 2459.41 -2.28776 -4.99942 0
M  V30 26704 H 2460.63 -2.75769 -6.20587 0
M  V30 26705 H 2458.58 -0.538369 -6.53787 0
M  V30 26706 H 2458.5 -2.1122 -7.25894 0
M  V30 26707 H 2459.76 -1.01947 -7.72805 0
M  V30 26708 N 2463.99 1.27046 -0.932584 0
M  V30 26709 C 2464.94 2.24348 -0.406431 0
M  V30 26710 C 2465.93 1.53192 0.492039 0
M  V30 26711 O 2467.12 1.73921 0.328687 0
M  V30 26712 C 2464.25 3.4166 0.335154 0
M  V30 26713 C 2463.33 4.20114 -0.580114 0
M  V30 26714 N 2463.72 4.763 -1.70211 0
M  V30 26715 C 2462.02 4.44343 -0.384053 0
M  V30 26716 C 2462.72 5.35505 -2.27177 0
M  V30 26717 N 2461.7 5.20712 -1.56078 0
M  V30 26718 H 2465.5 2.65376 -1.26304 0
M  V30 26719 H 2463.02 1.42033 -0.787433 0
M  V30 26720 H 2465.01 4.10476 0.72907 0
M  V30 26721 H 2463.67 3.02162 1.18863 0
M  V30 26722 H 2464.68 4.74102 -2.08441 0
M  V30 26723 H 2461.36 4.15297 0.428363 0
M  V30 26724 H 2462.75 5.899 -3.21664 0
M  V30 26725 N 2465.47 0.698636 1.41269 0
M  V30 26726 C 2466.7 0.240028 2.05503 0
M  V30 26727 C 2467.11 -1.11189 1.52586 0
M  V30 26728 O 2466.47 -1.69544 0.675353 0
M  V30 26729 C 2466.52 0.192493 3.60987 0
M  V30 26730 O 2466.24 1.49101 4.11947 0
M  V30 26731 C 2467.74 -0.286732 4.42372 0
M  V30 26732 H 2464.96 0.111056 0.661746 0
M  V30 26733 H 2467.51 0.952082 1.80985 0
M  V30 26734 H 2465.66 -0.470405 3.84533 0
M  V30 26735 H 2466.08 1.38016 5.06016 0
M  V30 26736 H 2467.55 -0.268864 5.51345 0
M  V30 26737 H 2468.03 -1.32612 4.18701 0
M  V30 26738 H 2468.63 0.345276 4.23896 0
M  V30 26739 N 2466.95 -1.51228 0.443603 0
M  V30 26740 C 2467.9 -2.27901 -0.364676 0
M  V30 26741 C 2468.87 -1.31759 -1.01138 0
M  V30 26742 O 2470.05 -1.60669 -1.02909 0
M  V30 26743 C 2467.19 -3.12863 -1.45638 0
M  V30 26744 C 2466.3 -4.24006 -0.827195 0
M  V30 26745 C 2465.44 -4.96269 -1.89448 0
M  V30 26746 C 2464.48 -5.99324 -1.24406 0
M  V30 26747 N 2463.61 -6.6497 -2.25298 0
M  V30 26748 H 2468.45 -2.96531 0.295517 0
M  V30 26749 H 2465.99 -1.46254 0.157579 0
M  V30 26750 H 2467.95 -3.60454 -2.10069 0
M  V30 26751 H 2466.58 -2.46335 -2.08612 0
M  V30 26752 H 2465.63 -3.80334 -0.071017 0
M  V30 26753 H 2466.94 -4.97821 -0.312394 0
M  V30 26754 H 2466.1 -5.47439 -2.61526 0
M  V30 26755 H 2464.84 -4.22099 -2.44302 0
M  V30 26756 H 2463.84 -5.47441 -0.508771 0
M  V30 26757 H 2465.07 -6.75454 -0.702763 0
M  V30 26758 H 2463.01 -5.93609 -2.7922 0
M  V30 26759 H 2462.93 -7.3457 -1.78726 0
M  V30 26760 H 2464.2 -7.20768 -2.9684 0
M  V30 26761 N 2468.43 -0.175182 -1.56623 0
M  V30 26762 C 2469.36 0.78509 -2.15335 0
M  V30 26763 C 2470.37 1.19099 -1.10993 0
M  V30 26764 O 2471.56 1.13017 -1.38164 0
M  V30 26765 C 2468.66 2.06878 -2.6843 0
M  V30 26766 C 2467.83 1.82583 -3.9747 0
M  V30 26767 C 2466.89 2.95207 -4.35591 0
M  V30 26768 O 2465.92 2.65675 -5.03394 0
M  V30 26769 N 2467.12 4.23087 -3.97464 0
M  V30 26770 H 2469.89 0.283135 -2.9836 0
M  V30 26771 H 2467.45 0.00746971 -1.61898 0
M  V30 26772 H 2469.44 2.81323 -2.90929 0
M  V30 26773 H 2468.01 2.48252 -1.89972 0
M  V30 26774 H 2467.23 0.92022 -3.83309 0
M  V30 26775 H 2468.52 1.63724 -4.81738 0
M  V30 26776 H 2467.91 4.49939 -3.42886 0
M  V30 26777 H 2466.47 4.94223 -4.24955 0
M  V30 26778 N 2469.91 1.57292 0.0985263 0
M  V30 26779 C 2470.84 2.04853 1.1206 0
M  V30 26780 C 2471.82 0.936792 1.4198 0
M  V30 26781 O 2473 1.20784 1.52069 0
M  V30 26782 C 2470.13 2.47008 2.4414 0
M  V30 26783 C 2469.09 3.61814 2.28636 0
M  V30 26784 C 2468.41 3.89935 3.65862 0
M  V30 26785 C 2469.71 4.92825 1.72977 0
M  V30 26786 H 2471.41 2.90491 0.724928 0
M  V30 26787 H 2468.95 1.3975 0.347266 0
M  V30 26788 H 2470.9 2.78889 3.15909 0
M  V30 26789 H 2469.63 1.58365 2.85636 0
M  V30 26790 H 2468.29 3.30174 1.59312 0
M  V30 26791 H 2467.94 2.98465 4.0488 0
M  V30 26792 H 2467.64 4.67224 3.56336 0
M  V30 26793 H 2469.16 4.24288 4.39104 0
M  V30 26794 H 2470.57 5.23109 2.34584 0
M  V30 26795 H 2468.97 5.74254 1.74219 0
M  V30 26796 H 2470.04 4.79981 0.688922 0
M  V30 26797 N 2471.38 -0.369261 1.53213 0
M  V30 26798 C 2472.31 -1.45823 1.82368 0
M  V30 26799 C 2473.29 -1.5605 0.676935 0
M  V30 26800 O 2474.48 -1.70678 0.926431 0
M  V30 26801 C 2471.61 -2.83205 2.01028 0
M  V30 26802 C 2470.56 -2.87805 3.16785 0
M  V30 26803 C 2469.89 -4.27826 3.20732 0
M  V30 26804 C 2471.19 -2.55659 4.55451 0
M  V30 26805 H 2472.88 -1.21674 2.73562 0
M  V30 26806 H 2470.43 -0.583888 1.31631 0
M  V30 26807 H 2472.38 -3.59409 2.20007 0
M  V30 26808 H 2471.11 -3.08734 1.06541 0
M  V30 26809 H 2469.77 -2.14051 2.9762 0
M  V30 26810 H 2469.41 -4.50425 2.23889 0
M  V30 26811 H 2469.11 -4.3182 3.98504 0
M  V30 26812 H 2470.64 -5.05909 3.4189 0
M  V30 26813 H 2472.05 -3.21578 4.74616 0
M  V30 26814 H 2470.45 -2.70975 5.35437 0
M  V30 26815 H 2471.52 -1.50922 4.60815 0
M  V30 26816 N 2472.86 -1.4451 -0.628851 0
M  V30 26817 C 2473.77 -1.54047 -1.76937 0
M  V30 26818 C 2474.79 -0.426016 -1.68704 0
M  V30 26819 O 2475.96 -0.683689 -1.8944 0
M  V30 26820 C 2473.03 -1.4841 -3.13329 0
M  V30 26821 C 2472.09 -2.70725 -3.33176 0
M  V30 26822 C 2471.32 -2.65348 -4.63062 0
M  V30 26823 O 2471.55 -1.71478 -5.44014 0
M  V30 26824 O 2470.48 -3.56234 -4.85161 0
M  V30 26825 H 2474.31 -2.50406 -1.71844 0
M  V30 26826 H 2471.89 -1.26782 -0.790355 0
M  V30 26827 H 2473.77 -1.47798 -3.94631 0
M  V30 26828 H 2472.45 -0.551955 -3.18959 0
M  V30 26829 H 2471.35 -2.76905 -2.51544 0
M  V30 26830 H 2472.69 -3.62994 -3.32409 0
M  V30 26831 N 2474.34 0.869463 -1.31446 0
M  V30 26832 C 2475.25 2.00927 -1.211 0
M  V30 26833 C 2476.27 1.73531 -0.127615 0
M  V30 26834 O 2477.44 1.98414 -0.345512 0
M  V30 26835 C 2474.51 3.34286 -0.919437 0
M  V30 26836 C 2473.57 3.75002 -2.08978 0
M  V30 26837 C 2472.8 5.01997 -1.81202 0
M  V30 26838 O 2473.02 5.65482 -0.747395 0
M  V30 26839 O 2471.96 5.39492 -2.66893 0
M  V30 26840 H 2475.78 2.12588 -2.16887 0
M  V30 26841 H 2473.37 0.997848 -1.11191 0
M  V30 26842 H 2475.25 4.14255 -0.772698 0
M  V30 26843 H 2473.93 3.23699 0.00839082 0
M  V30 26844 H 2472.83 2.95672 -2.29192 0
M  V30 26845 H 2474.17 3.90216 -2.99987 0
M  V30 26846 N 2475.82 1.14415 1.08383 0
M  V30 26847 C 2476.77 0.826926 2.17404 0
M  V30 26848 C 2477.76 -0.195283 1.68271 0
M  V30 26849 O 2478.97 -0.0513575 1.79927 0
M  V30 26850 H 2475.34 0.249693 0.709336 0
M  V30 26851 H 2477.31 1.7543 2.41385 0
M  V30 26852 C 2476.06 0.32104 3.46215 0
M  V30 26853 H 2475.38 1.09897 3.84399 0
M  V30 26854 H 2476.82 0.137624 4.23777 0
M  V30 26855 C 2475.28 -0.955415 3.23069 0
M  V30 26856 O 2475.81 -2.02912 3.46684 0
M  V30 26857 N 2474.02 -0.89075 2.76612 0
M  V30 26858 H 2473.57 -0.0168362 2.57594 0
M  V30 26859 H 2473.52 -1.74537 2.61504 0
M  V30 26860 N 2477.3 -1.26549 0.939309 0
M  V30 26861 C 2478.21 -2.30176 0.453473 0
M  V30 26862 C 2479.22 -1.67487 -0.47162 0
M  V30 26863 O 2480.4 -1.98307 -0.351605 0
M  V30 26864 C 2477.46 -3.45606 -0.275265 0
M  V30 26865 C 2476.52 -4.23781 0.686159 0
M  V30 26866 C 2475.76 -5.33699 -0.00789613 0
M  V30 26867 O 2475.98 -5.57087 -1.22518 0
M  V30 26868 O 2474.91 -5.98161 0.669851 0
M  V30 26869 H 2478.74 -2.73792 1.31421 0
M  V30 26870 H 2476.32 -1.31713 0.705119 0
M  V30 26871 H 2478.21 -4.15781 -0.685838 0
M  V30 26872 H 2476.88 -3.04022 -1.11142 0
M  V30 26873 H 2475.79 -3.56094 1.14664 0
M  V30 26874 H 2477.12 -4.69109 1.48987 0
M  V30 26875 N 2478.77 -0.706118 -1.40896 0
M  V30 26876 C 2479.68 -0.0482698 -2.3455 0
M  V30 26877 C 2480.7 0.754369 -1.56797 0
M  V30 26878 O 2481.88 0.689505 -1.89229 0
M  V30 26879 C 2478.94 0.869244 -3.35626 0
M  V30 26880 C 2478 0.057624 -4.29261 0
M  V30 26881 C 2477.23 0.931439 -5.25509 0
M  V30 26882 O 2477.46 2.17083 -5.27476 0
M  V30 26883 O 2476.39 0.375481 -6.00728 0
M  V30 26884 H 2480.22 -0.820527 -2.92406 0
M  V30 26885 H 2477.8 -0.466525 -1.41929 0
M  V30 26886 H 2479.68 1.39507 -3.97638 0
M  V30 26887 H 2478.36 1.62081 -2.80199 0
M  V30 26888 H 2477.27 -0.513053 -3.70565 0
M  V30 26889 H 2478.6 -0.655512 -4.87815 0
M  V30 26890 N 2480.25 1.50991 -0.451617 0
M  V30 26891 C 2481.2 2.28091 0.352585 0
M  V30 26892 C 2482.17 1.32293 1.00438 0
M  V30 26893 O 2483.35 1.61212 1.02055 0
M  V30 26894 C 2480.49 3.13631 1.43977 0
M  V30 26895 C 2479.61 4.24439 0.804697 0
M  V30 26896 C 2478.74 4.97267 1.86813 0
M  V30 26897 C 2477.78 5.99976 1.21226 0
M  V30 26898 N 2476.92 6.66156 2.21768 0
M  V30 26899 H 2481.76 2.9637 -0.311238 0
M  V30 26900 H 2479.29 1.46168 -0.165333 0
M  V30 26901 H 2481.25 3.61563 2.08155 0
M  V30 26902 H 2479.88 2.47438 2.07303 0
M  V30 26903 H 2478.93 3.80366 0.050846 0
M  V30 26904 H 2480.25 4.97979 0.285989 0
M  V30 26905 H 2479.4 5.48818 2.58619 0
M  V30 26906 H 2478.14 4.23389 2.4206 0
M  V30 26907 H 2477.14 5.47703 0.479732 0
M  V30 26908 H 2478.37 6.75817 0.666933 0
M  V30 26909 H 2476.32 5.95082 2.76069 0
M  V30 26910 H 2476.23 7.35507 1.74828 0
M  V30 26911 H 2477.5 7.22332 2.93013 0
M  V30 26912 N 2481.73 0.183486 1.56528 0
M  V30 26913 C 2482.66 -0.737417 2.2155 0
M  V30 26914 C 2483.64 -1.23003 1.17492 0
M  V30 26915 O 2484.83 -1.28098 1.45961 0
M  V30 26916 C 2481.96 -1.96189 2.86578 0
M  V30 26917 C 2480.91 -1.60466 3.9678 0
M  V30 26918 C 2480.24 -2.90479 4.48917 0
M  V30 26919 C 2481.54 -0.823406 5.15769 0
M  V30 26920 H 2483.23 -0.195401 2.98762 0
M  V30 26921 H 2480.78 -0.0925433 1.43702 0
M  V30 26922 H 2482.73 -2.61125 3.30744 0
M  V30 26923 H 2481.45 -2.52825 2.06754 0
M  V30 26924 H 2480.11 -0.978935 3.53288 0
M  V30 26925 H 2479.76 -3.4518 3.65869 0
M  V30 26926 H 2479.46 -2.67326 5.23269 0
M  V30 26927 H 2480.98 -3.56423 4.95777 0
M  V30 26928 H 2482.4 -1.37561 5.56552 0
M  V30 26929 H 2480.79 -0.690446 5.96115 0
M  V30 26930 H 2481.86 0.177867 4.84574 0
M  V30 26931 N 2483.21 -1.57342 -0.0901833 0
M  V30 26932 C 2484.45 -1.88165 -0.798332 0
M  V30 26933 C 2484.81 -0.775077 -1.7566 0
M  V30 26934 O 2486.01 -0.96586 -2.50848 0
M  V30 26935 C 2484.28 -3.24228 -1.5037 0
M  V30 26936 S 2485.84 -3.76756 -2.24945 0
M  V30 26937 H 2482.66 -0.659419 -0.265872 0
M  V30 26938 H 2485.26 -1.95422 -0.0552296 0
M  V30 26939 H 2483.97 -4.02681 -0.792215 0
M  V30 26940 H 2483.5 -3.20122 -2.28661 0
M  V30 26941 H 2485.51 -3.50566 -3.51167 0
M  V30 26942 N 2484.69 0.36113 -1.53407 0
M  V30 26943 C 2485.94 1.10063 -1.69024 0
M  V30 26944 C 2486.25 1.90333 -0.450871 0
M  V30 26945 O 2487.45 2.67084 -0.487664 0
M  V30 26946 C 2485.91 2.00592 -2.98815 0
M  V30 26947 C 2485.52 1.25614 -4.30029 0
M  V30 26948 C 2487.26 2.74507 -3.23799 0
M  V30 26949 C 2485.17 2.15071 -5.50907 0
M  V30 26950 H 2484.1 0.414595 -0.629783 0
M  V30 26951 H 2486.75 0.361317 -1.79908 0
M  V30 26952 H 2485.13 2.78273 -2.81745 0
M  V30 26953 H 2486.31 0.529659 -4.57746 0
M  V30 26954 H 2484.62 0.635424 -4.11523 0
M  V30 26955 H 2487.22 3.41673 -4.11295 0
M  V30 26956 H 2487.56 3.40119 -2.40051 0
M  V30 26957 H 2488.09 2.03908 -3.41565 0
M  V30 26958 H 2484.83 1.54029 -6.37146 0
M  V30 26959 H 2484.35 2.85556 -5.27464 0
M  V30 26960 H 2486.03 2.74527 -5.8587 0
M  V30 26961 N 2486.16 1.44842 0.621179 0
M  V30 26962 C 2487.11 1.52473 1.73265 0
M  V30 26963 C 2488.08 0.37164 1.61889 0
M  V30 26964 O 2489.27 0.583242 1.81667 0
M  V30 26965 C 2486.41 1.48443 3.11542 0
M  V30 26966 C 2485.52 2.74202 3.33822 0
M  V30 26967 C 2484.65 2.61937 4.62128 0
M  V30 26968 C 2483.69 3.82812 4.7762 0
M  V30 26969 N 2482.83 3.69164 5.97212 0
M  V30 26970 H 2487.67 2.47431 1.66078 0
M  V30 26971 H 2485.21 1.2279 0.810005 0
M  V30 26972 H 2487.17 1.44097 3.91525 0
M  V30 26973 H 2485.8 0.570458 3.17719 0
M  V30 26974 H 2484.85 2.88694 2.4771 0
M  V30 26975 H 2486.16 3.63896 3.41146 0
M  V30 26976 H 2485.31 2.5548 5.50286 0
M  V30 26977 H 2484.05 1.69819 4.57179 0
M  V30 26978 H 2483.06 3.89644 3.87889 0
M  V30 26979 H 2484.28 4.75979 4.84376 0
M  V30 26980 H 2482.23 2.79805 5.93334 0
M  V30 26981 H 2482.15 4.52483 6.05636 0
M  V30 26982 H 2483.41 3.66615 6.87905 0
M  V30 26983 N 2487.64 -0.862479 1.31905 0
M  V30 26984 C 2488.89 -1.61849 1.222 0
M  V30 26985 C 2489.22 -1.92977 -0.217607 0
M  V30 26986 O 2488.5 -1.56668 -1.15262 0
M  V30 26987 C 2488.78 -2.94388 2.07384 0
M  V30 26988 C 2488.63 -2.7009 3.59682 0
M  V30 26989 C 2489.95 -3.95574 1.92898 0
M  V30 26990 H 2487.07 -0.587288 0.445266 0
M  V30 26991 H 2489.71 -0.996481 1.61772 0
M  V30 26992 H 2487.86 -3.47474 1.73765 0
M  V30 26993 H 2489.53 -2.23618 4.03476 0
M  V30 26994 H 2487.78 -2.0419 3.82739 0
M  V30 26995 H 2488.45 -3.6443 4.14602 0
M  V30 26996 H 2490.92 -3.5172 2.22333 0
M  V30 26997 H 2489.8 -4.86183 2.5479 0
M  V30 26998 H 2490.06 -4.32958 0.894391 0
M  V30 26999 N 2489.12 -1.14988 -1.07775 0
M  V30 27000 C 2490.05 -0.865595 -2.16863 0
M  V30 27001 C 2491.03 0.182053 -1.69123 0
M  V30 27002 O 2492.22 0.0373473 -1.94164 0
M  V30 27003 C 2489.35 -0.349373 -3.45538 0
M  V30 27004 C 2488.3 -1.3332 -4.06706 0
M  V30 27005 C 2487.63 -0.676011 -5.30409 0
M  V30 27006 C 2488.93 -2.69772 -4.47236 0
M  V30 27007 H 2490.62 -1.77782 -2.40902 0
M  V30 27008 H 2488.17 -0.856223 -1.15779 0
M  V30 27009 H 2490.12 -0.138057 -4.21174 0
M  V30 27010 H 2488.84 0.598306 -3.21073 0
M  V30 27011 H 2487.5 -1.53081 -3.33109 0
M  V30 27012 H 2487.15 0.277679 -5.02233 0
M  V30 27013 H 2486.85 -1.33254 -5.72291 0
M  V30 27014 H 2488.37 -0.474369 -6.08755 0
M  V30 27015 H 2489.79 -2.53882 -5.1402 0
M  V30 27016 H 2488.19 -3.31759 -5.00056 0
M  V30 27017 H 2489.26 -3.26162 -3.58812 0
M  V30 27018 N 2490.6 1.26049 -0.946007 0
M  V30 27019 C 2491.53 2.2538 -0.416702 0
M  V30 27020 C 2492.54 1.56087 0.462684 0
M  V30 27021 O 2493.73 1.7641 0.272352 0
M  V30 27022 C 2490.83 3.3629 0.419753 0
M  V30 27023 C 2490.01 4.35134 -0.444608 0
M  V30 27024 C 2489.06 5.2515 0.332212 0
M  V30 27025 O 2488.09 5.68576 -0.266423 0
M  V30 27026 N 2489.29 5.57218 1.62753 0
M  V30 27027 H 2492.06 2.71431 -1.27064 0
M  V30 27028 H 2489.62 1.39866 -0.815417 0
M  V30 27029 H 2491.61 3.93465 0.946944 0
M  V30 27030 H 2490.18 2.89696 1.17451 0
M  V30 27031 H 2489.4 3.76962 -1.15297 0
M  V30 27032 H 2490.69 4.98164 -1.03487 0
M  V30 27033 H 2490.09 5.23826 2.13594 0
M  V30 27034 H 2488.64 6.17015 2.10086 0
M  V30 27035 N 2492.08 0.71358 1.4052 0
M  V30 27036 C 2493.3 0.261811 2.05237 0
M  V30 27037 C 2493.72 -1.09564 1.53757 0
M  V30 27038 O 2493.08 -1.68818 0.693298 0
M  V30 27039 C 2493.13 0.230769 3.60763 0
M  V30 27040 O 2492.85 1.53462 4.10343 0
M  V30 27041 C 2494.35 -0.239796 4.42651 0
M  V30 27042 H 2491.57 0.118069 0.660531 0
M  V30 27043 H 2494.11 0.971224 1.79965 0
M  V30 27044 H 2492.27 -0.429593 3.85011 0
M  V30 27045 H 2492.68 1.43375 5.04523 0
M  V30 27046 H 2494.16 -0.210371 5.51599 0
M  V30 27047 H 2494.63 -1.28163 4.20084 0
M  V30 27048 H 2495.24 0.390216 4.23506 0
M  V30 27049 N 2493.55 -1.50749 0.459618 0
M  V30 27050 C 2494.48 -2.31148 -0.330604 0
M  V30 27051 C 2495.47 -1.37539 -1.00085 0
M  V30 27052 O 2496.65 -1.66461 -1.00022 0
M  V30 27053 C 2493.78 -3.16965 -1.41952 0
M  V30 27054 C 2492.73 -4.19033 -0.871534 0
M  V30 27055 C 2492.06 -4.93513 -2.05788 0
M  V30 27056 C 2493.36 -5.22186 0.109343 0
M  V30 27057 H 2495.05 -2.97459 0.340388 0
M  V30 27058 H 2492.6 -1.4305 0.165144 0
M  V30 27059 H 2494.55 -3.72001 -1.97973 0
M  V30 27060 H 2493.28 -2.48517 -2.11912 0
M  V30 27061 H 2491.94 -3.65081 -0.333378 0
M  V30 27062 H 2491.58 -4.21548 -2.74419 0
M  V30 27063 H 2491.28 -5.62547 -1.6975 0
M  V30 27064 H 2492.81 -5.5138 -2.62321 0
M  V30 27065 H 2494.22 -5.7216 -0.361304 0
M  V30 27066 H 2492.62 -5.98874 0.383421 0
M  V30 27067 H 2493.69 -4.73639 1.03896 0
M  V30 27068 N 2495.03 -0.191784 -1.56429 0
M  V30 27069 C 2496.45 0.164109 -1.58754 0
M  V30 27070 C 2496.65 1.61286 -1.20785 0
M  V30 27071 O 2495.7 2.34787 -0.92904 0
M  V30 27072 C 2497.02 -0.135248 -3.00396 0
M  V30 27073 C 2498.57 -0.0750901 -3.1291 0
M  V30 27074 C 2499.04 -0.347712 -4.56678 0
M  V30 27075 N 2500.53 -0.296212 -4.62252 0
M  V30 27076 C 2501.27 -0.481048 -5.71379 0
M  V30 27077 N 2500.76 -0.726054 -6.88985 0
M  V30 27078 N 2502.56 -0.415534 -5.60562 0
M  V30 27079 H 2494.71 -1.13721 -1.79391 0
M  V30 27080 H 2496.97 -0.453657 -0.832406 0
M  V30 27081 H 2496.68 -1.13964 -3.32724 0
M  V30 27082 H 2496.55 0.563708 -3.72964 0
M  V30 27083 H 2498.94 0.919899 -2.80396 0
M  V30 27084 H 2499.02 -0.807071 -2.42734 0
M  V30 27085 H 2498.66 -1.34 -4.89904 0
M  V30 27086 H 2498.59 0.40512 -5.25039 0
M  V30 27087 H 2501.08 -0.113326 -3.7773 0
M  V30 27088 H 2501.4 -0.855992 -7.68045 0
M  V30 27089 H 2499.74 -0.762909 -6.908 0
M  V30 27090 H 2502.93 -0.224568 -4.67561 0
M  V30 27091 H 2503.1 -0.563002 -6.4555 0
M  V30 27092 N 2496.51 1.57387 0.0818378 0
M  V30 27093 C 2497.42 2.06335 1.11639 0
M  V30 27094 C 2498.44 0.990856 1.43032 0
M  V30 27095 O 2499.61 1.3049 1.53409 0
M  V30 27096 C 2496.68 2.48911 2.41338 0
M  V30 27097 C 2495.74 3.70414 2.17007 0
M  V30 27098 C 2494.97 4.1095 3.40522 0
M  V30 27099 O 2495.19 3.51452 4.49263 0
M  V30 27100 O 2494.13 5.03813 3.29327 0
M  V30 27101 H 2497.95 2.94781 0.730605 0
M  V30 27102 H 2495.54 1.46453 0.295276 0
M  V30 27103 H 2497.42 2.76864 3.17686 0
M  V30 27104 H 2496.1 1.63598 2.79316 0
M  V30 27105 H 2495 3.47559 1.38397 0
M  V30 27106 H 2496.34 4.56548 1.83915 0
M  V30 27107 N 2497.99 -0.35299 1.53596 0
M  V30 27108 C 2498.92 -1.45591 1.75723 0
M  V30 27109 C 2499.9 -1.50886 0.605987 0
M  V30 27110 O 2501.08 -1.68746 0.840053 0
M  V30 27111 C 2498.21 -2.83884 1.84737 0
M  V30 27112 C 2497.26 -2.96256 3.06813 0
M  V30 27113 S 2498.09 -2.63703 4.6607 0
M  V30 27114 C 2499.25 -4.04122 4.7795 0
M  V30 27115 H 2499.48 -1.26603 2.68996 0
M  V30 27116 H 2497.01 -0.548092 1.44344 0
M  V30 27117 H 2498.97 -3.6356 1.90616 0
M  V30 27118 H 2497.63 -3.00173 0.924933 0
M  V30 27119 H 2496.82 -3.97568 3.09768 0
M  V30 27120 H 2496.43 -2.24518 2.99112 0
M  V30 27121 H 2498.72 -4.98526 4.58779 0
M  V30 27122 H 2499.66 -4.06167 5.8003 0
M  V30 27123 H 2500.07 -3.91708 4.06479 0
M  V30 27124 N 2499.47 -1.45169 -0.613489 0
M  V30 27125 C 2500.4 -1.47874 -1.73806 0
M  V30 27126 C 2501.38 -0.335708 -1.59097 0
M  V30 27127 O 2502.56 -0.53533 -1.80739 0
M  V30 27128 C 2499.69 -1.32818 -3.11572 0
M  V30 27129 C 2498.74 -2.50911 -3.44885 0
M  V30 27130 S 2499.57 -4.13398 -3.40386 0
M  V30 27131 C 2500.72 -4.00797 -4.80742 0
M  V30 27132 H 2500.96 -2.43026 -1.71248 0
M  V30 27133 H 2498.49 -1.32681 -0.789635 0
M  V30 27134 H 2500.45 -1.24819 -3.91063 0
M  V30 27135 H 2499.11 -0.391473 -3.11651 0
M  V30 27136 H 2498.3 -2.36287 -4.45179 0
M  V30 27137 H 2497.9 -2.55741 -2.72896 0
M  V30 27138 H 2500.2 -3.65577 -5.70403 0
M  V30 27139 H 2501.14 -5.00983 -5.00422 0
M  V30 27140 H 2501.55 -3.32553 -4.56145 0
M  V30 27141 N 2500.95 0.855472 -1.32361 0
M  V30 27142 C 2502.17 1.64206 -1.25873 0
M  V30 27143 C 2502.59 1.88002 0.173424 0
M  V30 27144 O 2501.95 1.44844 1.11025 0
M  V30 27145 C 2502 3.00181 -2.01429 0
M  V30 27146 O 2501.72 2.77439 -3.39056 0
M  V30 27147 C 2503.22 3.94625 -2.01955 0
M  V30 27148 H 2500.44 0.51147 -0.434327 0
M  V30 27149 H 2502.98 1.06677 -1.74471 0
M  V30 27150 H 2501.14 3.54357 -1.56555 0
M  V30 27151 H 2501.55 3.63909 -3.77717 0
M  V30 27152 H 2503.03 4.87304 -2.59305 0
M  V30 27153 H 2503.5 4.27532 -1.00561 0
M  V30 27154 H 2504.11 3.46386 -2.46773 0
M  V30 27155 N 2502.42 1.15558 1.07164 0
M  V30 27156 C 2503.37 0.854092 2.14415 0
M  V30 27157 C 2504.34 -0.193777 1.64966 0
M  V30 27158 O 2505.53 -0.0609108 1.90703 0
M  V30 27159 C 2502.67 0.351635 3.43304 0
M  V30 27160 C 2501.78 1.4613 4.06534 0
M  V30 27161 C 2500.91 0.914769 5.23264 0
M  V30 27162 C 2499.95 2.00124 5.78461 0
M  V30 27163 N 2499.09 1.47095 6.86518 0
M  V30 27164 H 2503.93 1.77263 2.39545 0
M  V30 27165 H 2501.47 0.884446 1.17541 0
M  V30 27166 H 2503.42 0.0420143 4.17179 0
M  V30 27167 H 2502.05 -0.529981 3.1842 0
M  V30 27168 H 2501.11 1.88706 3.30294 0
M  V30 27169 H 2502.42 2.28152 4.43563 0
M  V30 27170 H 2501.57 0.557804 6.0413 0
M  V30 27171 H 2500.31 0.063744 4.87658 0
M  V30 27172 H 2499.32 2.36701 4.96239 0
M  V30 27173 H 2500.54 2.85607 6.16121 0
M  V30 27174 H 2498.49 0.642313 6.52848 0
M  V30 27175 H 2498.4 2.22742 7.22442 0
M  V30 27176 H 2499.67 1.14229 7.71085 0
M  V30 27177 N 2503.9 -1.25546 0.952678 0
M  V30 27178 C 2505.18 -1.88455 0.523851 0
M  V30 27179 C 2505.56 -1.85974 -0.998838 0
M  V30 27180 O 2504.91 -1.32194 -1.86379 0
M  V30 27181 C 2505.12 -3.31269 1.09826 0
M  V30 27182 C 2506.46 -4.08049 1.17392 0
M  V30 27183 O 2507.49 -3.40383 1.04967 0
M  V30 27184 O 2506.35 -5.29085 1.36861 0
M  V30 27185 H 2503.44 -0.80881 0.172499 0
M  V30 27186 H 2505.99 -1.33631 1.04598 0
M  V30 27187 H 2504.76 -3.27495 2.14156 0
M  V30 27188 H 2504.38 -3.93647 0.55926 0
M  V30 27189 N 2505.38 -0.721022 -1.40139 0
M  V30 27190 C 2506.8 -0.39514 -1.54631 0
M  V30 27191 C 2507 1.09552 -1.69117 0
M  V30 27192 O 2506.05 1.8816 -1.68381 0
M  V30 27193 C 2507.36 -1.16595 -2.77175 0
M  V30 27194 C 2508.91 -1.15279 -2.90998 0
M  V30 27195 C 2509.39 -1.90587 -4.16462 0
M  V30 27196 N 2510.88 -1.87683 -4.23473 0
M  V30 27197 C 2511.61 -2.42771 -5.1947 0
M  V30 27198 N 2511.11 -3.06439 -6.21343 0
M  V30 27199 N 2512.9 -2.32883 -5.11588 0
M  V30 27200 H 2505.05 -1.68752 -1.28983 0
M  V30 27201 H 2507.32 -0.713578 -0.624108 0
M  V30 27202 H 2507.02 -2.22016 -2.72767 0
M  V30 27203 H 2506.9 -0.761145 -3.69441 0
M  V30 27204 H 2509.28 -0.106754 -2.94907 0
M  V30 27205 H 2509.36 -1.59686 -1.99835 0
M  V30 27206 H 2509.01 -2.95184 -4.13315 0
M  V30 27207 H 2508.94 -1.43596 -5.06644 0
M  V30 27208 H 2511.43 -1.41287 -3.50494 0
M  V30 27209 H 2511.74 -3.45977 -6.91028 0
M  V30 27210 H 2510.09 -3.10525 -6.21771 0
M  V30 27211 H 2513.28 -1.82797 -4.30933 0
M  V30 27212 H 2513.45 -2.76116 -5.86228 0
M  V30 27213 N 2506.86 1.50503 -0.467606 0
M  V30 27214 C 2508.11 2.01907 0.0884114 0
M  V30 27215 C 2508.43 1.3519 1.4053 0
M  V30 27216 O 2507.7 0.496112 1.89514 0
M  V30 27217 H 2506.28 0.746148 0.0356634 0
M  V30 27218 H 2508.94 1.84868 -0.617232 0
M  V30 27219 H 2508.03 3.11157 0.242445 0
M  V30 27220 N 2508.34 0.200077 1.56325 0
M  V30 27221 C 2509.57 -0.442197 2.01812 0
M  V30 27222 C 2509.97 -1.55392 1.07935 0
M  V30 27223 O 2509.32 -1.83537 0.0773008 0
M  V30 27224 C 2509.38 -1.05451 3.43686 0
M  V30 27225 C 2509.04 -0.080903 4.56928 0
M  V30 27226 C 2510.04 0.711562 5.15008 0
M  V30 27227 C 2507.72 0.0316246 5.0229 0
M  V30 27228 C 2509.72 1.60347 6.16902 0
M  V30 27229 C 2507.41 0.927087 6.04027 0
M  V30 27230 C 2508.4 1.71157 6.61207 0
M  V30 27231 O 2508.09 2.59202 7.60966 0
M  V30 27232 H 2507.82 -0.114836 0.666175 0
M  V30 27233 H 2510.38 0.307547 2.03084 0
M  V30 27234 H 2508.61 -1.85293 3.39416 0
M  V30 27235 H 2510.3 -1.60195 3.72951 0
M  V30 27236 H 2511.06 0.634958 4.80826 0
M  V30 27237 H 2506.94 -0.568822 4.57477 0
M  V30 27238 H 2510.49 2.21623 6.6146 0
M  V30 27239 H 2506.38 1.00479 6.37632 0
M  V30 27240 H 2507.15 2.53037 7.78405 0
M  V30 27241 N 2509.81 -1.57429 -0.0734901 0
M  V30 27242 C 2511.06 -1.86797 -0.77144 0
M  V30 27243 C 2511.38 -0.791835 -1.78199 0
M  V30 27244 O 2510.65 0.179684 -1.95074 0
M  V30 27245 H 2509.23 -0.689292 -0.287898 0
M  V30 27246 H 2511.89 -1.94836 -0.0499818 0
M  V30 27247 H 2510.99 -2.84252 -1.28869 0
M  V30 27248 N 2511.29 0.344839 -1.53781 0
M  V30 27249 C 2512.2 1.44687 -1.8467 0
M  V30 27250 C 2513.22 1.57633 -0.736732 0
M  V30 27251 O 2514.39 1.73134 -1.02891 0
M  V30 27252 C 2511.46 2.79692 -2.04874 0
M  V30 27253 C 2510.52 2.761 -3.28736 0
M  V30 27254 C 2509.75 4.04666 -3.47967 0
M  V30 27255 O 2509.98 5.01879 -2.71061 0
M  V30 27256 O 2508.91 4.09216 -4.4139 0
M  V30 27257 H 2512.74 1.21501 -2.78337 0
M  V30 27258 H 2510.32 0.536897 -1.39419 0
M  V30 27259 H 2512.2 3.59649 -2.19615 0
M  V30 27260 H 2510.88 3.02812 -1.14396 0
M  V30 27261 H 2509.78 1.94769 -3.19399 0
M  V30 27262 H 2511.12 2.57934 -4.19203 0
M  V30 27263 N 2512.77 1.45492 0.605781 0
M  V30 27264 C 2513.72 1.54302 1.71638 0
M  V30 27265 C 2514.69 0.388789 1.61486 0
M  V30 27266 O 2515.87 0.602477 1.81038 0
M  V30 27267 C 2513.01 1.51739 3.0995 0
M  V30 27268 C 2512.12 2.77727 3.30895 0
M  V30 27269 C 2511.26 2.66824 4.59324 0
M  V30 27270 C 2510.3 3.87857 4.73533 0
M  V30 27271 N 2509.44 3.75477 5.93263 0
M  V30 27272 H 2514.28 2.49178 1.63444 0
M  V30 27273 H 2511.81 1.23642 0.796936 0
M  V30 27274 H 2513.77 1.48241 3.89975 0
M  V30 27275 H 2512.4 0.604124 3.17096 0
M  V30 27276 H 2511.45 2.91305 2.44634 0
M  V30 27277 H 2512.76 3.67494 3.37267 0
M  V30 27278 H 2511.92 2.61302 5.47546 0
M  V30 27279 H 2510.66 1.74659 4.55352 0
M  V30 27280 H 2509.66 3.93736 3.83735 0
M  V30 27281 H 2510.89 4.8109 4.79301 0
M  V30 27282 H 2508.83 2.86082 5.90333 0
M  V30 27283 H 2508.75 4.58881 6.00803 0
M  V30 27284 H 2510.02 3.73891 6.83978 0
M  V30 27285 N 2514.25 -0.848441 1.32813 0
M  V30 27286 C 2515.18 -1.97297 1.24885 0
M  V30 27287 C 2516.16 -1.69592 0.131386 0
M  V30 27288 O 2517.34 -1.91552 0.319586 0
M  V30 27289 C 2514.47 -3.33259 0.977518 0
M  V30 27290 C 2513.43 -3.75335 2.05689 0
M  V30 27291 C 2512.75 -5.08997 1.63786 0
M  V30 27292 C 2514.05 -3.90137 3.47261 0
M  V30 27293 H 2515.75 -2.04187 2.1897 0
M  V30 27294 H 2513.29 -0.98101 1.05414 0
M  V30 27295 H 2515.25 -4.11488 0.908585 0
M  V30 27296 H 2513.97 -3.266 0.00103742 0
M  V30 27297 H 2512.63 -2.99362 2.11608 0
M  V30 27298 H 2512.28 -4.988 0.648656 0
M  V30 27299 H 2511.98 -5.3812 2.36009 0
M  V30 27300 H 2513.5 -5.89712 1.58341 0
M  V30 27301 H 2514.92 -4.58703 3.43896 0
M  V30 27302 H 2513.31 -4.30685 4.17888 0
M  V30 27303 H 2514.38 -2.92867 3.86467 0
M  V30 27304 N 2515.73 -1.16125 -1.06549 0
M  V30 27305 C 2516.98 -0.935653 -1.78685 0
M  V30 27306 C 2517.29 0.537968 -1.88057 0
M  V30 27307 O 2518.49 0.881385 -2.56795 0
M  V30 27308 C 2516.95 -1.62472 -3.2114 0
M  V30 27309 C 2516.56 -3.13592 -3.19943 0
M  V30 27310 C 2518.3 -1.48099 -3.97828 0
M  V30 27311 C 2516.21 -3.75249 -4.57102 0
M  V30 27312 H 2515.14 -0.346424 -0.669706 0
M  V30 27313 H 2517.79 -1.39228 -1.19531 0
M  V30 27314 H 2516.17 -1.09579 -3.80537 0
M  V30 27315 H 2517.35 -3.73308 -2.70144 0
M  V30 27316 H 2515.66 -3.27821 -2.56754 0
M  V30 27317 H 2518.26 -1.91547 -4.99213 0
M  V30 27318 H 2518.6 -0.42958 -4.14078 0
M  V30 27319 H 2519.13 -1.98133 -3.44947 0
M  V30 27320 H 2515.87 -4.80326 -4.46057 0
M  V30 27321 H 2515.39 -3.20318 -5.07106 0
M  V30 27322 H 2517.07 -3.76653 -5.26062 0
M  V30 27323 N 2517.2 1.25039 -0.959323 0
M  V30 27324 C 2518.43 1.97487 -0.633541 0
M  V30 27325 C 2518.85 1.70774 0.788525 0
M  V30 27326 O 2518.21 0.966458 1.53393 0
M  V30 27327 C 2518.26 3.49082 -0.904119 0
M  V30 27328 O 2517.36 4.12397 0.0147214 0
M  V30 27329 H 2516.71 0.618962 -0.240379 0
M  V30 27330 H 2519.24 1.59036 -1.28719 0
M  V30 27331 H 2519.25 3.99421 -0.832273 0
M  V30 27332 H 2517.92 3.67853 -1.94054 0
M  V30 27333 H 2516.5 3.72739 -0.10973 0
M  V30 27334 N 2518.68 0.728444 1.39755 0
M  V30 27335 C 2519.93 0.270443 1.99879 0
M  V30 27336 C 2520.24 -1.14685 1.58451 0
M  V30 27337 O 2521.45 -1.70403 2.11365 0
M  V30 27338 C 2519.91 0.432583 3.57291 0
M  V30 27339 C 2519.51 1.85734 4.07685 0
M  V30 27340 C 2521.26 0.0360253 4.24485 0
M  V30 27341 C 2519.17 1.96938 5.57646 0
M  V30 27342 H 2518.1 0.0973603 0.747688 0
M  V30 27343 H 2520.75 0.901384 1.59835 0
M  V30 27344 H 2519.13 -0.26715 3.95098 0
M  V30 27345 H 2520.3 2.58849 3.81226 0
M  V30 27346 H 2518.62 2.20652 3.53131 0
M  V30 27347 H 2521.21 0.0988423 5.34609 0
M  V30 27348 H 2521.56 -1.0078 4.03917 0
M  V30 27349 H 2522.09 0.686673 3.91829 0
M  V30 27350 H 2518.83 2.99486 5.83085 0
M  V30 27351 H 2518.35 1.28251 5.85928 0
M  V30 27352 H 2520.03 1.74748 6.22954 0
M  V30 27353 N 2520.16 -1.50253 0.475581 0
M  V30 27354 C 2521.44 -1.95101 -0.139651 0
M  V30 27355 C 2521.82 -1.41614 -1.56552 0
M  V30 27356 O 2521.17 -0.619032 -2.19955 0
M  V30 27357 C 2521.38 -3.48912 -0.0783685 0
M  V30 27358 C 2522.72 -4.23772 -0.26502 0
M  V30 27359 O 2523.75 -3.55864 -0.154745 0
M  V30 27360 O 2522.61 -5.44315 -0.488231 0
M  V30 27361 H 2519.7 -0.819756 -0.109222 0
M  V30 27362 H 2522.25 -1.61003 0.536304 0
M  V30 27363 H 2521.02 -3.80404 0.916985 0
M  V30 27364 H 2520.64 -3.89559 -0.795586 0
M  V30 27365 N 2521.64 -0.208365 -1.56217 0
M  V30 27366 C 2522.55 0.718796 -2.23317 0
M  V30 27367 C 2523.56 1.2242 -1.2365 0
M  V30 27368 O 2524.74 1.26858 -1.56426 0
M  V30 27369 C 2521.81 1.91563 -2.88971 0
M  V30 27370 C 2520.87 1.4535 -4.03945 0
M  V30 27371 C 2520.1 2.59329 -4.66459 0
M  V30 27372 O 2520.32 3.77141 -4.27926 0
M  V30 27373 O 2519.26 2.31283 -5.5569 0
M  V30 27374 H 2523.08 0.177262 -3.03182 0
M  V30 27375 H 2520.67 0.0215139 -1.49385 0
M  V30 27376 H 2522.55 2.61486 -3.30459 0
M  V30 27377 H 2521.22 2.44552 -2.12076 0
M  V30 27378 H 2520.13 0.722681 -3.67053 0
M  V30 27379 H 2521.46 0.970134 -4.82545 0
M  V30 27380 N 2523.12 1.57465 0.0651402 0
M  V30 27381 C 2524.05 2.07184 1.0769 0
M  V30 27382 C 2525.03 0.966697 1.39961 0
M  V30 27383 O 2526.21 1.23982 1.49472 0
M  V30 27384 C 2523.34 2.52131 2.38845 0
M  V30 27385 C 2522.3 3.66582 2.2091 0
M  V30 27386 C 2521.62 3.97608 3.57508 0
M  V30 27387 C 2522.92 4.96383 1.62485 0
M  V30 27388 H 2524.62 2.91964 0.663148 0
M  V30 27389 H 2522.16 1.40455 0.317544 0
M  V30 27390 H 2524.12 2.85528 3.09923 0
M  V30 27391 H 2522.84 1.64389 2.82213 0
M  V30 27392 H 2521.5 3.33479 1.52273 0
M  V30 27393 H 2521.15 3.06986 3.98458 0
M  V30 27394 H 2520.85 4.74678 3.46345 0
M  V30 27395 H 2522.37 4.33506 4.30006 0
M  V30 27396 H 2523.78 5.27967 2.23435 0
M  V30 27397 H 2522.18 5.7782 1.61999 0
M  V30 27398 H 2523.25 4.81334 0.586956 0
M  V30 27399 N 2524.59 -0.336679 1.53962 0
M  V30 27400 C 2525.87 -1.09358 1.62173 0
M  V30 27401 C 2526.25 -2.06307 0.447299 0
M  V30 27402 O 2525.6 -2.21538 -0.559763 0
M  V30 27403 C 2525.81 -1.80715 2.98568 0
M  V30 27404 C 2527.16 -2.34212 3.54161 0
M  V30 27405 O 2528.18 -1.90802 3.00788 0
M  V30 27406 O 2527.04 -3.13649 4.47534 0
M  V30 27407 H 2524.13 -0.503308 0.656209 0
M  V30 27408 H 2526.68 -0.337621 1.66308 0
M  V30 27409 H 2525.45 -1.10125 3.75484 0
M  V30 27410 H 2525.08 -2.63153 2.98054 0
M  V30 27411 N 2526.07 -1.45812 -0.598057 0
M  V30 27412 C 2527.02 -1.55558 -1.72929 0
M  V30 27413 C 2528.01 -0.42495 -1.63983 0
M  V30 27414 O 2529.22 -0.601235 -1.69662 0
M  V30 27415 H 2525.6 -0.488789 -0.57148 0
M  V30 27416 H 2527.57 -2.50702 -1.61837 0
M  V30 27417 C 2526.32 -1.54848 -3.11316 0
M  V30 27418 H 2525.64 -2.41178 -3.18863 0
M  V30 27419 H 2527.08 -1.65724 -3.90271 0
M  V30 27420 C 2525.54 -0.274486 -3.3578 0
M  V30 27421 O 2526.07 0.641708 -3.96541 0
M  V30 27422 N 2524.27 -0.16719 -2.90119 0
M  V30 27423 H 2523.82 -0.913638 -2.40854 0
M  V30 27424 H 2523.78 0.684382 -3.06861 0
M  V30 27425 N 2527.55 0.841385 -1.33261 0
M  V30 27426 C 2528.51 1.93257 -1.23224 0
M  V30 27427 C 2529.51 1.60081 -0.151923 0
M  V30 27428 O 2530.7 1.69468 -0.403276 0
M  V30 27429 C 2527.84 3.28855 -0.89818 0
M  V30 27430 H 2529.03 2.03583 -2.20214 0
M  V30 27431 H 2526.58 1.03317 -1.17283 0
M  V30 27432 H 2527.32 3.24226 0.0693271 0
M  V30 27433 H 2527.1 3.54314 -1.6794 0
M  V30 27434 H 2528.59 4.08803 -0.852635 0
M  V30 27435 N 2529.03 1.16688 1.05932 0
M  V30 27436 C 2529.94 0.891222 2.17012 0
M  V30 27437 C 2530.96 -0.137877 1.73453 0
M  V30 27438 O 2532.13 0.0396274 2.01361 0
M  V30 27439 C 2529.2 0.400159 3.44383 0
M  V30 27440 C 2528.26 1.49493 4.0243 0
M  V30 27441 C 2527.49 1.02721 5.23721 0
M  V30 27442 O 2527.71 -0.121616 5.7027 0
M  V30 27443 O 2526.65 1.81709 5.73817 0
M  V30 27444 H 2530.47 1.8202 2.4311 0
M  V30 27445 H 2528.06 0.947153 1.1554 0
M  V30 27446 H 2529.94 0.133466 4.21189 0
M  V30 27447 H 2528.62 -0.500761 3.19803 0
M  V30 27448 H 2527.52 1.81541 3.27099 0
M  V30 27449 H 2528.86 2.37129 4.31313 0
M  V30 27450 N 2530.51 -1.24529 0.96594 0
M  V30 27451 C 2531.44 -2.27783 0.513516 0
M  V30 27452 C 2532.42 -1.6415 -0.445945 0
M  V30 27453 O 2533.6 -1.91157 -0.342451 0
M  V30 27454 C 2530.73 -3.46731 -0.198778 0
M  V30 27455 C 2529.69 -4.22619 0.67653 0
M  V30 27456 C 2529.01 -5.34439 -0.167154 0
M  V30 27457 C 2530.31 -4.84119 1.96026 0
M  V30 27458 H 2532.01 -2.65879 1.37654 0
M  V30 27459 H 2529.55 -1.27811 0.663344 0
M  V30 27460 H 2531.51 -4.18098 -0.526493 0
M  V30 27461 H 2530.23 -3.07656 -1.09614 0
M  V30 27462 H 2528.89 -3.5305 0.987492 0
M  V30 27463 H 2528.54 -4.91604 -1.06462 0
M  V30 27464 H 2528.24 -5.86131 0.415284 0
M  V30 27465 H 2529.76 -6.08634 -0.489581 0
M  V30 27466 H 2531.18 -5.4757 1.69823 0
M  V30 27467 H 2529.57 -5.46036 2.48927 0
M  V30 27468 H 2530.64 -4.05672 2.65629 0
M  V30 27469 N 2531.99 -0.735845 -1.39367 0
M  V30 27470 C 2533.4 -0.354048 -1.83312 0
M  V30 27471 C 2533.75 1.11464 -1.61463 0
M  V30 27472 O 2532.87 1.85987 -1.10625 0
M  V30 27473 C 2533.47 -0.635827 -3.3278 0
M  V30 27474 C 2532.03 -0.307514 -3.75142 0
M  V30 27475 C 2531.17 -0.89802 -2.62356 0
M  V30 27476 H 2534.12 -0.93342 -1.28347 0
M  V30 27477 H 2534.15 0.0921105 -3.80388 0
M  V30 27478 H 2533.66 -1.70482 -3.48651 0
M  V30 27479 H 2531.76 0.755609 -3.64858 0
M  V30 27480 H 2531.87 -0.790666 -4.72531 0
M  V30 27481 H 2530.24 -0.324596 -2.52623 0
M  V30 27482 H 2531.02 -1.97169 -2.81033 0
M  V30 27483 N 2533.46 1.49999 -0.483543 0
M  V30 27484 C 2534.87 1.86674 -0.0314504 0
M  V30 27485 C 2535.23 1.39736 1.37726 0
M  V30 27486 O 2534.35 0.767671 2.02326 0
M  V30 27487 C 2534.95 3.38763 -0.0502971 0
M  V30 27488 C 2533.5 3.74803 0.346376 0
M  V30 27489 C 2532.65 2.73939 -0.430414 0
M  V30 27490 H 2535.6 1.42565 -0.697207 0
M  V30 27491 H 2535.62 3.73054 0.749051 0
M  V30 27492 H 2535.14 3.72895 -1.07569 0
M  V30 27493 H 2533.24 3.46275 1.37566 0
M  V30 27494 H 2533.35 4.79084 0.0390643 0
M  V30 27495 H 2531.71 2.54429 0.117512 0
M  V30 27496 H 2532.5 3.10915 -1.45556 0
M  V30 27497 N 2534.94 0.216646 1.56104 0
M  V30 27498 C 2535.9 -0.681923 2.18821 0
M  V30 27499 C 2536.9 -1.12526 1.14868 0
M  V30 27500 O 2538.09 -1.03485 1.4013 0
M  V30 27501 C 2535.23 -1.93357 2.80759 0
M  V30 27502 H 2536.42 -0.135201 2.99595 0
M  V30 27503 H 2533.97 -0.0329729 1.56265 0
M  V30 27504 H 2534.71 -2.52228 2.03842 0
M  V30 27505 H 2534.49 -1.6242 3.56878 0
M  V30 27506 H 2535.98 -2.57387 3.28849 0
M  V30 27507 N 2536.42 -1.57498 -0.0567885 0
M  V30 27508 C 2537.83 -1.76563 -0.606827 0
M  V30 27509 C 2538.18 -0.844125 -1.77113 0
M  V30 27510 O 2537.31 -0.0319291 -2.16376 0
M  V30 27511 C 2537.9 -3.20184 -1.1076 0
M  V30 27512 C 2536.46 -3.40542 -1.60338 0
M  V30 27513 C 2535.61 -2.72202 -0.529263 0
M  V30 27514 H 2538.56 -1.57793 0.16942 0
M  V30 27515 H 2538.58 -3.2517 -1.97597 0
M  V30 27516 H 2538.09 -3.87228 -0.259992 0
M  V30 27517 H 2536.19 -2.78633 -2.47374 0
M  V30 27518 H 2536.31 -4.49053 -1.66998 0
M  V30 27519 H 2534.67 -2.35181 -0.977852 0
M  V30 27520 H 2535.45 -3.41912 0.308412 0
M  V30 27521 N 2537.9 0.328509 -1.54138 0
M  V30 27522 C 2539.17 1.08496 -1.62751 0
M  V30 27523 C 2539.55 2.06067 -0.458234 0
M  V30 27524 O 2538.9 2.21831 0.548007 0
M  V30 27525 C 2539.11 1.79129 -2.99522 0
M  V30 27526 C 2540.46 2.3233 -3.55398 0
M  V30 27527 O 2541.48 1.89204 -3.01795 0
M  V30 27528 O 2540.34 3.11271 -4.49191 0
M  V30 27529 H 2537.44 0.499821 -0.658869 0
M  V30 27530 H 2539.98 0.328797 -1.66484 0
M  V30 27531 H 2538.76 1.08132 -3.76063 0
M  V30 27532 H 2538.38 2.61568 -2.99446 0
M  V30 27533 N 2539.38 1.46127 0.590316 0
M  V30 27534 C 2540.6 1.54835 1.37988 0
M  V30 27535 C 2541.03 0.187539 1.87163 0
M  V30 27536 O 2540.38 -0.830979 1.61135 0
M  V30 27537 C 2540.43 2.55102 2.54863 0
M  V30 27538 O 2539.54 2.08079 3.56057 0
M  V30 27539 H 2538.88 0.521311 0.411256 0
M  V30 27540 H 2541.41 1.91633 0.716785 0
M  V30 27541 H 2541.42 2.74466 3.01881 0
M  V30 27542 H 2540.09 3.53927 2.18423 0
M  V30 27543 H 2538.67 1.98669 3.15571 0
M  V30 27544 N 2540.85 -0.834306 1.33705 0
M  V30 27545 C 2541.76 -1.97646 1.26385 0
M  V30 27546 C 2542.78 -1.73132 0.173579 0
M  V30 27547 O 2543.96 -1.97428 0.397996 0
M  V30 27548 C 2541.02 -3.31731 1.00774 0
M  V30 27549 C 2540.08 -3.6933 2.18847 0
M  V30 27550 C 2539.31 -4.97017 1.94448 0
M  V30 27551 O 2539.54 -5.63302 0.89706 0
M  V30 27552 O 2538.47 -5.32226 2.81103 0
M  V30 27553 H 2542.3 -2.06763 2.22447 0
M  V30 27554 H 2539.88 -0.968017 1.13797 0
M  V30 27555 H 2541.76 -4.12061 0.882259 0
M  V30 27556 H 2540.44 -3.23607 0.0774352 0
M  V30 27557 H 2539.35 -2.89491 2.36951 0
M  V30 27558 H 2540.68 -3.82125 3.10228 0
M  V30 27559 N 2542.33 -1.17248 -1.05312 0
M  V30 27560 C 2543.28 -0.884276 -2.15136 0
M  V30 27561 C 2544.27 0.1506 -1.68729 0
M  V30 27562 O 2545.48 0.00363509 -1.8 0
M  V30 27563 H 2541.85 -0.268412 -0.702466 0
M  V30 27564 H 2543.83 -1.81769 -2.36649 0
M  V30 27565 C 2542.57 -0.41272 -3.45242 0
M  V30 27566 H 2541.9 -1.2005 -3.8135 0
M  V30 27567 H 2543.34 -0.249932 -4.23263 0
M  V30 27568 C 2541.8 0.869423 -3.25488 0
M  V30 27569 O 2542.33 1.93649 -3.51942 0
M  V30 27570 N 2540.53 0.817098 -2.78876 0
M  V30 27571 H 2540.08 -0.0514664 -2.57549 0
M  V30 27572 H 2540.04 1.67543 -2.66039 0
M  V30 27573 N 2543.81 1.24015 -0.972531 0
M  V30 27574 C 2544.77 2.23421 -0.511442 0
M  V30 27575 C 2545.77 1.55882 0.394651 0
M  V30 27576 O 2546.96 1.73167 0.189438 0
M  V30 27577 C 2544.1 3.39917 0.258709 0
M  V30 27578 H 2545.29 2.65727 -1.39029 0
M  V30 27579 H 2542.84 1.36711 -0.757609 0
M  V30 27580 H 2543.58 3.03056 1.15445 0
M  V30 27581 H 2543.36 3.9014 -0.391591 0
M  V30 27582 H 2544.85 4.13689 0.570172 0
M  V30 27583 N 2545.29 0.743226 1.38974 0
M  V30 27584 C 2546.52 0.305286 2.04635 0
M  V30 27585 C 2546.93 -1.06278 1.56046 0
M  V30 27586 O 2546.29 -1.6731 0.728951 0
M  V30 27587 C 2546.34 0.307241 3.60192 0
M  V30 27588 O 2546.06 1.62131 4.06995 0
M  V30 27589 C 2547.56 -0.14585 4.4306 0
M  V30 27590 H 2544.78 0.132053 0.657878 0
M  V30 27591 H 2547.33 1.00918 1.77865 0
M  V30 27592 H 2545.48 -0.34783 3.85835 0
M  V30 27593 H 2545.89 1.54045 5.01369 0
M  V30 27594 H 2547.37 -0.0933213 5.51921 0
M  V30 27595 H 2547.85 -1.19224 4.22708 0
M  V30 27596 H 2548.45 0.479961 4.22583 0
M  V30 27597 N 2546.77 -1.4974 0.491491 0
M  V30 27598 C 2547.68 -2.32715 -0.296794 0
M  V30 27599 C 2548.69 -1.44015 -0.97651 0
M  V30 27600 O 2549.87 -1.77048 -0.959992 0
M  V30 27601 C 2546.93 -3.19217 -1.35283 0
M  V30 27602 C 2545.99 -4.23758 -0.687557 0
M  V30 27603 C 2545.23 -5.06126 -1.69328 0
M  V30 27604 O 2545.45 -4.89866 -2.92211 0
M  V30 27605 O 2544.38 -5.88696 -1.25384 0
M  V30 27606 H 2548.21 -3.01287 0.382101 0
M  V30 27607 H 2545.8 -1.47243 0.252979 0
M  V30 27608 H 2547.68 -3.72831 -1.96404 0
M  V30 27609 H 2546.35 -2.53351 -2.01482 0
M  V30 27610 H 2545.26 -3.74082 -0.0368502 0
M  V30 27611 H 2546.59 -4.92153 -0.0681701 0
M  V30 27612 N 2548.24 -0.224922 -1.55987 0
M  V30 27613 C 2549.15 0.69507 -2.24067 0
M  V30 27614 C 2550.17 1.21102 -1.24941 0
M  V30 27615 O 2551.35 1.25192 -1.57762 0
M  V30 27616 C 2548.41 1.88488 -2.90987 0
M  V30 27617 C 2547.47 1.41057 -4.05464 0
M  V30 27618 C 2546.71 2.54367 -4.69184 0
M  V30 27619 O 2546.93 3.72581 -4.31902 0
M  V30 27620 O 2545.86 2.25376 -5.58112 0
M  V30 27621 H 2549.69 0.145096 -3.03353 0
M  V30 27622 H 2547.27 0.0056685 -1.49399 0
M  V30 27623 H 2549.16 2.57966 -3.33214 0
M  V30 27624 H 2547.83 2.42289 -2.14657 0
M  V30 27625 H 2546.74 0.68371 -3.67799 0
M  V30 27626 H 2548.07 0.9189 -4.83546 0
M  V30 27627 N 2549.72 1.57526 0.0484352 0
M  V30 27628 C 2550.65 2.08314 1.05486 0
M  V30 27629 C 2551.63 0.981488 1.38927 0
M  V30 27630 O 2552.82 1.25561 1.48149 0
M  V30 27631 C 2549.95 2.5465 2.36158 0
M  V30 27632 C 2548.9 3.68905 2.1701 0
M  V30 27633 C 2548.23 4.01377 3.53271 0
M  V30 27634 C 2549.53 4.98078 1.57211 0
M  V30 27635 H 2551.22 2.9265 0.632144 0
M  V30 27636 H 2548.77 1.40784 0.302629 0
M  V30 27637 H 2550.72 2.88799 3.06877 0
M  V30 27638 H 2549.45 1.67373 2.80453 0
M  V30 27639 H 2548.1 3.35076 1.48727 0
M  V30 27640 H 2547.75 3.11195 3.95179 0
M  V30 27641 H 2547.45 4.78324 3.41291 0
M  V30 27642 H 2548.98 4.38043 4.25384 0
M  V30 27643 H 2550.39 5.30307 2.17823 0
M  V30 27644 H 2548.79 5.79506 1.55861 0
M  V30 27645 H 2549.86 4.8193 0.535871 0
M  V30 27646 N 2551.2 -0.32033 1.5431 0
M  V30 27647 C 2552.11 -1.4173 1.86948 0
M  V30 27648 C 2553.13 -1.56441 0.761717 0
M  V30 27649 O 2554.3 -1.71475 1.05632 0
M  V30 27650 C 2551.37 -2.76397 2.09297 0
M  V30 27651 C 2550.43 -2.70835 3.33087 0
M  V30 27652 C 2549.66 -3.99079 3.5436 0
M  V30 27653 O 2549.88 -4.97503 2.79011 0
M  V30 27654 O 2548.82 -4.02142 4.47845 0
M  V30 27655 H 2552.64 -1.17057 2.80234 0
M  V30 27656 H 2550.23 -0.514649 1.40256 0
M  V30 27657 H 2552.11 -3.56109 2.25309 0
M  V30 27658 H 2550.79 -3.00954 1.19199 0
M  V30 27659 H 2549.69 -1.89663 3.22458 0
M  V30 27660 H 2551.03 -2.51232 4.23253 0
M  V30 27661 N 2552.68 -1.46438 -0.582558 0
M  V30 27662 C 2554.09 -1.45918 -1.16468 0
M  V30 27663 C 2554.44 -0.200111 -1.95177 0
M  V30 27664 O 2553.57 0.696783 -2.04875 0
M  V30 27665 C 2554.16 -2.64371 -2.11881 0
M  V30 27666 C 2552.72 -2.66892 -2.65416 0
M  V30 27667 C 2551.87 -2.38605 -1.4129 0
M  V30 27668 H 2554.82 -1.54315 -0.370487 0
M  V30 27669 H 2554.84 -2.39898 -2.95346 0
M  V30 27670 H 2554.35 -3.55993 -1.54567 0
M  V30 27671 H 2552.45 -1.79343 -3.26599 0
M  V30 27672 H 2552.56 -3.6686 -3.08141 0
M  V30 27673 H 2550.93 -1.88666 -1.71105 0
M  V30 27674 H 2551.71 -3.32404 -0.858067 0
M  V30 27675 N 2554.16 0.827204 -1.34146 0
M  V30 27676 C 2555.38 1.62019 -1.29479 0
M  V30 27677 C 2555.81 1.87655 0.129259 0
M  V30 27678 O 2555.16 1.44902 1.08964 0
M  V30 27679 C 2555.21 2.94064 -2.08707 0
M  V30 27680 O 2554.32 3.85931 -1.45366 0
M  V30 27681 H 2553.66 0.492919 -0.444889 0
M  V30 27682 H 2556.19 1.02826 -1.76884 0
M  V30 27683 H 2556.2 3.43666 -2.19904 0
M  V30 27684 H 2554.87 2.74728 -3.12245 0
M  V30 27685 H 2553.45 3.44439 -1.42885 0
M  V30 27686 N 2555.63 1.17805 1.04688 0
M  V30 27687 C 2557.05 0.974717 1.59236 0
M  V30 27688 C 2557.4 -0.477259 1.90307 0
M  V30 27689 O 2556.52 -1.35349 1.68848 0
M  V30 27690 C 2557.12 1.76301 2.89315 0
M  V30 27691 C 2555.68 1.6042 3.40503 0
M  V30 27692 C 2554.82 1.76144 2.14169 0
M  V30 27693 H 2557.77 1.3244 0.874371 0
M  V30 27694 H 2557.79 1.24839 3.59438 0
M  V30 27695 H 2557.31 2.81973 2.6667 0
M  V30 27696 H 2555.41 0.572583 3.68174 0
M  V30 27697 H 2555.52 2.39834 4.14749 0
M  V30 27698 H 2553.88 1.19032 2.25174 0
M  V30 27699 H 2554.67 2.83238 1.93987 0
M  V30 27700 N 2557.11 -1.23497 0.979094 0
M  V30 27701 C 2558.52 -1.73703 0.684422 0
M  V30 27702 C 2558.87 -1.79175 -0.799417 0
M  V30 27703 O 2558 -1.42876 -1.62528 0
M  V30 27704 C 2558.59 -3.15462 1.2357 0
M  V30 27705 C 2557.15 -3.63128 0.990694 0
M  V30 27706 C 2556.3 -2.41422 1.36421 0
M  V30 27707 H 2559.25 -1.09039 1.15309 0
M  V30 27708 H 2559.27 -3.75619 0.607483 0
M  V30 27709 H 2558.78 -3.11446 2.31566 0
M  V30 27710 H 2556.89 -3.72528 -0.0732481 0
M  V30 27711 H 2557 -4.49998 1.64435 0
M  V30 27712 H 2555.36 -2.42377 0.782658 0
M  V30 27713 H 2556.15 -2.40079 2.45391 0
M  V30 27714 N 2558.59 -0.750586 -1.38578 0
M  V30 27715 C 2559.52 -0.136278 -2.33102 0
M  V30 27716 C 2560.5 0.706937 -1.54714 0
M  V30 27717 O 2561.69 0.648737 -1.83044 0
M  V30 27718 C 2558.82 0.759957 -3.38883 0
M  V30 27719 C 2557.77 0.0197032 -4.27995 0
M  V30 27720 C 2557.1 1.03399 -5.24607 0
M  V30 27721 C 2558.4 -1.14693 -5.09552 0
M  V30 27722 H 2560.09 -0.925872 -2.84724 0
M  V30 27723 H 2557.64 -0.446678 -1.36897 0
M  V30 27724 H 2559.59 1.19936 -4.03972 0
M  V30 27725 H 2558.31 1.58184 -2.85737 0
M  V30 27726 H 2556.97 -0.400248 -3.64409 0
M  V30 27727 H 2556.62 1.84985 -4.67749 0
M  V30 27728 H 2556.32 0.543361 -5.85082 0
M  V30 27729 H 2557.85 1.47278 -5.92572 0
M  V30 27730 H 2559.26 -0.785218 -5.67897 0
M  V30 27731 H 2557.66 -1.56822 -5.79247 0
M  V30 27732 H 2558.73 -1.96126 -4.43466 0
M  V30 27733 N 2560.07 1.49477 -0.499425 0
M  V30 27734 C 2561.49 1.58843 -0.155289 0
M  V30 27735 C 2561.69 1.50482 1.34006 0
M  V30 27736 O 2560.74 1.37795 2.11587 0
M  V30 27737 C 2562.05 2.91687 -0.730688 0
M  V30 27738 C 2563.6 3.05149 -0.696653 0
M  V30 27739 C 2564.08 4.4061 -1.25009 0
M  V30 27740 N 2565.57 4.47097 -1.21072 0
M  V30 27741 C 2566.3 5.50358 -1.60915 0
M  V30 27742 N 2565.8 6.60731 -2.08342 0
M  V30 27743 N 2567.59 5.41063 -1.5234 0
M  V30 27744 H 2559.74 1.53155 -1.47164 0
M  V30 27745 H 2562.01 0.725404 -0.610321 0
M  V30 27746 H 2561.71 3.03369 -1.77933 0
M  V30 27747 H 2561.59 3.7672 -0.190227 0
M  V30 27748 H 2563.97 2.93098 0.343153 0
M  V30 27749 H 2564.05 2.21803 -1.27424 0
M  V30 27750 H 2563.7 4.53412 -2.28867 0
M  V30 27751 H 2563.63 5.22592 -0.648452 0
M  V30 27752 H 2566.12 3.67909 -0.863193 0
M  V30 27753 H 2566.43 7.3562 -2.36818 0
M  V30 27754 H 2564.78 6.61776 -2.12315 0
M  V30 27755 H 2567.97 4.53727 -1.15108 0
M  V30 27756 H 2568.14 6.21412 -1.83715 0
M  V30 27757 N 2561.55 0.233191 1.55865 0
M  V30 27758 C 2562.48 -0.704629 2.181 0
M  V30 27759 C 2563.49 -1.14897 1.15336 0
M  V30 27760 O 2564.68 -1.07811 1.42264 0
M  V30 27761 C 2561.78 -1.96772 2.75924 0
M  V30 27762 C 2560.95 -1.67706 4.03972 0
M  V30 27763 C 2560.01 -2.78837 4.46247 0
M  V30 27764 O 2559.04 -2.46809 5.12908 0
M  V30 27765 N 2560.24 -4.08044 4.12893 0
M  V30 27766 H 2563.01 -0.172205 2.99205 0
M  V30 27767 H 2560.57 0.0526229 1.61814 0
M  V30 27768 H 2562.56 -2.70331 3.01169 0
M  V30 27769 H 2561.13 -2.41031 1.99055 0
M  V30 27770 H 2560.35 -0.777323 3.8646 0
M  V30 27771 H 2561.64 -1.45732 4.87483 0
M  V30 27772 H 2561.04 -4.36903 3.59349 0
M  V30 27773 H 2559.59 -4.7811 4.43005 0
M  V30 27774 N 2563.03 -1.57549 -0.0400806 0
M  V30 27775 C 2563.96 -2.08871 -1.0438 0
M  V30 27776 C 2564.94 -0.988842 -1.38405 0
M  V30 27777 O 2566.12 -1.26345 -1.47481 0
M  V30 27778 C 2563.25 -2.55899 -2.34804 0
M  V30 27779 C 2562.21 -3.70051 -2.1505 0
M  V30 27780 C 2561.53 -4.03245 -3.51137 0
M  V30 27781 C 2562.83 -4.98905 -1.54567 0
M  V30 27782 H 2564.53 -2.92982 -0.616615 0
M  V30 27783 H 2562.07 -1.40943 -0.295159 0
M  V30 27784 H 2564.02 -2.90422 -3.05341 0
M  V30 27785 H 2562.75 -1.68858 -2.79562 0
M  V30 27786 H 2561.41 -3.3586 -1.46948 0
M  V30 27787 H 2561.06 -3.13286 -3.93523 0
M  V30 27788 H 2560.76 -4.80128 -3.38749 0
M  V30 27789 H 2562.28 -4.40292 -4.23054 0
M  V30 27790 H 2563.69 -5.31455 -2.15008 0
M  V30 27791 H 2562.09 -5.80324 -1.52786 0
M  V30 27792 H 2563.16 -4.82207 -0.510306 0
M  V30 27793 N 2564.5 0.312142 -1.54478 0
M  V30 27794 C 2565.41 1.40737 -1.87697 0
M  V30 27795 C 2566.43 1.56035 -0.770002 0
M  V30 27796 O 2567.61 1.70913 -1.0654 0
M  V30 27797 C 2564.67 2.75283 -2.1076 0
M  V30 27798 C 2563.73 2.69065 -3.34519 0
M  V30 27799 C 2562.96 3.97194 -3.56472 0
M  V30 27800 O 2563.19 4.96016 -2.81646 0
M  V30 27801 O 2562.12 3.99762 -4.49971 0
M  V30 27802 H 2565.95 1.15569 -2.80851 0
M  V30 27803 H 2563.53 0.507203 -1.40527 0
M  V30 27804 H 2565.41 3.54909 -2.27194 0
M  V30 27805 H 2564.09 3.00318 -1.20793 0
M  V30 27806 H 2563 1.8795 -3.23459 0
M  V30 27807 H 2564.33 2.48984 -4.24579 0
M  V30 27808 N 2565.98 1.46745 0.574784 0
M  V30 27809 C 2567.26 1.42942 1.33518 0
M  V30 27810 C 2567.64 0.117046 2.10775 0
M  V30 27811 O 2566.99 -0.901437 2.09968 0
M  V30 27812 C 2567.2 2.66407 2.25451 0
M  V30 27813 C 2568.54 3.12888 2.8703 0
M  V30 27814 O 2569.57 2.67011 2.35761 0
M  V30 27815 O 2568.43 3.92596 3.80172 0
M  V30 27816 H 2565.52 0.568823 0.600308 0
M  V30 27817 H 2568.07 1.58922 0.595143 0
M  V30 27818 H 2566.84 3.53474 1.67845 0
M  V30 27819 H 2566.46 2.52926 3.0678 0
M  V30 27820 N 2567.46 -0.820078 1.34583 0
M  V30 27821 C 2568.41 -1.92011 1.22946 0
M  V30 27822 C 2569.39 -1.60391 0.12783 0
M  V30 27823 O 2570.59 -1.73347 0.357767 0
M  V30 27824 C 2567.71 -3.28716 0.989996 0
M  V30 27825 C 2566.8 -3.66445 2.13492 0
M  V30 27826 N 2567.19 -3.75716 3.38631 0
M  V30 27827 C 2565.49 -3.96312 2.0458 0
M  V30 27828 C 2566.19 -4.08794 4.13839 0
M  V30 27829 N 2565.17 -4.22165 3.42459 0
M  V30 27830 H 2568.97 -1.97361 2.17774 0
M  V30 27831 H 2566.48 -1.0139 1.26861 0
M  V30 27832 H 2568.48 -4.07343 0.887534 0
M  V30 27833 H 2567.14 -3.24661 0.0504262 0
M  V30 27834 H 2568.15 -3.59137 3.7315 0
M  V30 27835 H 2564.83 -4.0036 1.18397 0
M  V30 27836 H 2566.22 -4.23147 5.21916 0
M  V30 27837 N 2568.94 -1.18359 -1.04062 0
M  V30 27838 C 2569.88 -0.91064 -2.12075 0
M  V30 27839 C 2570.85 0.149971 -1.65422 0
M  V30 27840 O 2572.04 0.0103279 -1.90797 0
M  V30 27841 C 2569.18 -0.442532 -3.42251 0
M  V30 27842 C 2568.29 -1.56857 -4.02517 0
M  V30 27843 C 2567.43 -1.05318 -5.20655 0
M  V30 27844 C 2566.47 -2.1539 -5.72951 0
M  V30 27845 N 2565.6 -1.65245 -6.82377 0
M  V30 27846 H 2570.44 -1.83552 -2.34761 0
M  V30 27847 H 2567.98 -0.915299 -1.15155 0
M  V30 27848 H 2569.94 -0.152607 -4.16921 0
M  V30 27849 H 2568.57 0.445372 -3.19713 0
M  V30 27850 H 2567.62 -1.97397 -3.25175 0
M  V30 27851 H 2568.93 -2.39832 -4.37358 0
M  V30 27852 H 2568.09 -0.717782 -6.02439 0
M  V30 27853 H 2566.83 -0.193016 -4.87318 0
M  V30 27854 H 2565.83 -2.49775 -4.89788 0
M  V30 27855 H 2567.06 -3.01842 -6.08332 0
M  V30 27856 H 2565 -0.815178 -6.50915 0
M  V30 27857 H 2564.92 -2.41818 -7.16282 0
M  V30 27858 H 2566.19 -1.34633 -7.67785 0
M  V30 27859 N 2570.42 1.22976 -0.98563 0
M  V30 27860 C 2571.83 1.43667 -0.695129 0
M  V30 27861 C 2572.03 1.87545 0.736833 0
M  V30 27862 O 2571.09 2.02475 1.50864 0
M  V30 27863 C 2572.4 2.48409 -1.69451 0
M  V30 27864 C 2573.95 2.62216 -1.70914 0
M  V30 27865 C 2574.42 3.70173 -2.69696 0
M  V30 27866 N 2575.91 3.77622 -2.68246 0
M  V30 27867 C 2576.65 4.60727 -3.41347 0
M  V30 27868 N 2576.15 5.47882 -4.24024 0
M  V30 27869 N 2577.94 4.54971 -3.30087 0
M  V30 27870 H 2570.09 0.927982 -1.91056 0
M  V30 27871 H 2572.35 0.469522 -0.823561 0
M  V30 27872 H 2572.06 2.23097 -2.71883 0
M  V30 27873 H 2571.93 3.46887 -1.48153 0
M  V30 27874 H 2574.32 2.86876 -0.691835 0
M  V30 27875 H 2574.4 1.64037 -1.96279 0
M  V30 27876 H 2574.04 3.46261 -3.71572 0
M  V30 27877 H 2573.97 4.67905 -2.41604 0
M  V30 27878 H 2576.47 3.15343 -2.08249 0
M  V30 27879 H 2576.78 6.08299 -4.76646 0
M  V30 27880 H 2575.12 5.47488 -4.28114 0
M  V30 27881 H 2578.31 3.85905 -2.64944 0
M  V30 27882 H 2578.49 5.19509 -3.87317 0
M  V30 27883 N 2571.89 0.757924 1.38178 0
M  V30 27884 C 2573.14 0.315396 1.99624 0
M  V30 27885 C 2573.46 -1.10796 1.60465 0
M  V30 27886 O 2572.73 -1.7584 0.863538 0
M  V30 27887 H 2571.31 0.113624 0.738308 0
M  V30 27888 H 2573.97 0.972982 1.68876 0
M  V30 27889 H 2573.07 0.381986 3.09754 0
M  V30 27890 N 2573.37 -1.4921 0.507345 0
M  V30 27891 C 2574.28 -2.33017 -0.272095 0
M  V30 27892 C 2575.3 -1.45042 -0.961181 0
M  V30 27893 O 2576.47 -1.78057 -0.941159 0
M  V30 27894 C 2573.54 -3.20634 -1.3189 0
M  V30 27895 C 2572.6 -4.24464 -0.642574 0
M  V30 27896 C 2571.83 -5.07894 -1.6395 0
M  V30 27897 O 2572.06 -4.92938 -2.86999 0
M  V30 27898 O 2570.99 -5.89992 -1.19133 0
M  V30 27899 H 2574.82 -3.00864 0.414035 0
M  V30 27900 H 2572.4 -1.46966 0.268581 0
M  V30 27901 H 2574.28 -3.74894 -1.92439 0
M  V30 27902 H 2572.96 -2.55473 -1.98784 0
M  V30 27903 H 2571.87 -3.741 0.00282828 0
M  V30 27904 H 2573.2 -4.92197 -0.0159668 0
M  V30 27905 N 2574.85 -0.241454 -1.55739 0
M  V30 27906 C 2575.81 0.647025 -2.19878 0
M  V30 27907 C 2576.81 1.10684 -1.16644 0
M  V30 27908 O 2578 1.01243 -1.41759 0
M  V30 27909 C 2575.14 1.88866 -2.838 0
M  V30 27910 H 2576.33 0.0875213 -2.99772 0
M  V30 27911 H 2573.88 0.00810826 -1.56298 0
M  V30 27912 H 2574.62 2.48953 -2.07829 0
M  V30 27913 H 2574.4 1.56722 -3.59417 0
M  V30 27914 H 2575.89 2.52123 -3.32902 0
M  V30 27915 N 2576.33 1.57568 0.0317248 0
M  V30 27916 C 2577.26 2.09422 1.03271 0
M  V30 27917 C 2578.24 0.996168 1.37879 0
M  V30 27918 O 2579.42 1.27125 1.46809 0
M  V30 27919 C 2576.55 2.57141 2.33443 0
M  V30 27920 C 2575.51 3.71186 2.13085 0
M  V30 27921 C 2574.83 4.05102 3.48994 0
M  V30 27922 C 2576.13 4.99718 1.51919 0
M  V30 27923 H 2577.83 2.93304 0.601069 0
M  V30 27924 H 2575.37 1.41097 0.28768 0
M  V30 27925 H 2577.33 2.92037 3.03796 0
M  V30 27926 H 2576.05 1.70338 2.78662 0
M  V30 27927 H 2574.71 3.36634 1.45165 0
M  V30 27928 H 2574.36 3.15369 3.91857 0
M  V30 27929 H 2574.06 4.81917 3.36198 0
M  V30 27930 H 2575.58 4.4253 4.20714 0
M  V30 27931 H 2577 5.32588 2.12186 0
M  V30 27932 H 2575.39 5.81127 1.49706 0
M  V30 27933 H 2576.46 4.82471 0.484726 0
M  V30 27934 N 2577.81 -0.303946 1.54641 0
M  V30 27935 C 2579.22 -0.649437 1.45789 0
M  V30 27936 C 2579.42 -1.90841 0.646693 0
M  V30 27937 O 2578.48 -2.52035 0.153227 0
M  V30 27938 C 2579.79 -0.805176 2.8972 0
M  V30 27939 C 2581.34 -0.901252 2.99744 0
M  V30 27940 C 2581.81 -1.08901 4.44865 0
M  V30 27941 N 2583.31 -1.15529 4.48561 0
M  V30 27942 C 2584.04 -1.31881 5.58028 0
M  V30 27943 N 2583.54 -1.45149 6.77424 0
M  V30 27944 N 2585.33 -1.34745 5.45711 0
M  V30 27945 H 2577.48 0.523273 2.05853 0
M  V30 27946 H 2579.74 0.172447 0.932183 0
M  V30 27947 H 2579.45 0.0489726 3.51666 0
M  V30 27948 H 2579.32 -1.69507 3.36967 0
M  V30 27949 H 2581.71 -1.74589 2.37913 0
M  V30 27950 H 2581.79 0.0125981 2.55797 0
M  V30 27951 H 2581.44 -0.249152 5.07289 0
M  V30 27952 H 2581.37 -2.01704 4.86439 0
M  V30 27953 H 2583.86 -1.06639 3.62542 0
M  V30 27954 H 2584.17 -1.57373 7.56607 0
M  V30 27955 H 2582.51 -1.42211 6.80295 0
M  V30 27956 H 2585.71 -1.23988 4.51381 0
M  V30 27957 H 2585.88 -1.47146 6.31072 0
M  V30 27958 N 2579.28 -1.47047 -0.566994 0
M  V30 27959 C 2580.22 -1.54847 -1.68982 0
M  V30 27960 C 2581.23 -0.435459 -1.56868 0
M  V30 27961 O 2582.42 -0.704599 -1.64005 0
M  V30 27962 C 2579.52 -1.42748 -3.0737 0
M  V30 27963 C 2578.69 -2.68446 -3.45334 0
M  V30 27964 C 2577.75 -2.50322 -4.62845 0
M  V30 27965 O 2576.78 -3.24103 -4.67916 0
M  V30 27966 N 2577.98 -1.57509 -5.58723 0
M  V30 27967 H 2580.74 -2.51666 -1.6274 0
M  V30 27968 H 2578.3 -1.43303 -0.753385 0
M  V30 27969 H 2580.3 -1.28372 -3.838 0
M  V30 27970 H 2578.87 -0.540499 -3.07892 0
M  V30 27971 H 2578.09 -2.97653 -2.5845 0
M  V30 27972 H 2579.37 -3.51914 -3.6747 0
M  V30 27973 H 2578.77 -0.966974 -5.57374 0
M  V30 27974 H 2577.33 -1.49089 -6.3452 0
M  V30 27975 N 2580.76 0.812929 -1.35016 0
M  V30 27976 C 2582.01 1.57202 -1.28123 0
M  V30 27977 C 2582.34 1.93652 0.145835 0
M  V30 27978 O 2581.62 1.60838 1.09368 0
M  V30 27979 C 2581.9 2.86488 -2.18167 0
M  V30 27980 C 2581.75 2.56555 -3.69459 0
M  V30 27981 C 2583.07 3.88142 -2.07446 0
M  V30 27982 H 2580.19 0.570358 -0.466756 0
M  V30 27983 H 2582.83 0.935754 -1.65359 0
M  V30 27984 H 2580.98 3.40785 -1.86541 0
M  V30 27985 H 2582.65 2.0849 -4.11497 0
M  V30 27986 H 2580.9 1.89844 -3.90053 0
M  V30 27987 H 2581.57 3.48792 -4.27841 0
M  V30 27988 H 2584.04 3.43226 -2.35234 0
M  V30 27989 H 2582.92 4.76391 -2.72658 0
M  V30 27990 H 2583.18 4.29341 -1.05446 0
M  V30 27991 N 2582.24 1.18909 1.03433 0
M  V30 27992 C 2583.17 0.945486 2.13501 0
M  V30 27993 C 2584.15 -0.119159 1.69682 0
M  V30 27994 O 2585.34 0.0347411 1.94169 0
M  V30 27995 C 2582.47 0.477377 3.44003 0
M  V30 27996 C 2581.42 1.48323 4.01478 0
M  V30 27997 C 2580.75 0.872404 5.27535 0
M  V30 27998 C 2582.05 2.86185 4.36916 0
M  V30 27999 H 2583.74 1.86601 2.34138 0
M  V30 28000 H 2581.29 0.898604 1.12522 0
M  V30 28001 H 2583.24 0.294278 4.20371 0
M  V30 28002 H 2581.96 -0.478729 3.23072 0
M  V30 28003 H 2580.62 1.65338 3.27198 0
M  V30 28004 H 2580.27 -0.0910868 5.02918 0
M  V30 28005 H 2579.97 1.54403 5.66951 0
M  V30 28006 H 2581.49 0.699978 6.06575 0
M  V30 28007 H 2582.91 2.72785 5.04243 0
M  V30 28008 H 2581.31 3.50089 4.87399 0
M  V30 28009 H 2582.38 3.39254 3.4646 0
M  V30 28010 N 2583.72 -1.22452 0.992137 0
M  V30 28011 C 2584.96 -1.91463 0.668557 0
M  V30 28012 C 2585.3 -1.77079 -0.797281 0
M  V30 28013 O 2584.57 -1.13919 -1.57648 0
M  V30 28014 C 2584.86 -3.43702 1.0743 0
M  V30 28015 C 2584.71 -3.67139 2.59864 0
M  V30 28016 C 2586.03 -4.35611 0.626968 0
M  V30 28017 H 2583.15 -0.695313 0.244353 0
M  V30 28018 H 2585.79 -1.44343 1.23552 0
M  V30 28019 H 2583.94 -3.83965 0.591884 0
M  V30 28020 H 2585.61 -3.36284 3.1577 0
M  V30 28021 H 2583.85 -3.11446 3.01967 0
M  V30 28022 H 2584.52 -4.73754 2.83304 0
M  V30 28023 H 2587 -4.02859 1.04132 0
M  V30 28024 H 2585.88 -5.40806 0.939171 0
M  V30 28025 H 2586.14 -4.39569 -0.472379 0
M  V30 28026 N 2585.2 -0.765242 -1.37774 0
M  V30 28027 C 2586.14 -0.134839 -2.32209 0
M  V30 28028 C 2587.14 0.692288 -1.54608 0
M  V30 28029 O 2588.34 0.590079 -1.70053 0
M  V30 28030 H 2584.72 -0.0248137 -0.75159 0
M  V30 28031 H 2586.69 -0.947168 -2.82969 0
M  V30 28032 C 2585.44 0.735004 -3.39843 0
M  V30 28033 H 2584.76 0.107921 -3.99654 0
M  V30 28034 H 2586.2 1.14318 -4.08298 0
M  V30 28035 C 2584.66 1.88276 -2.79381 0
M  V30 28036 O 2585.19 2.97778 -2.69613 0
M  V30 28037 N 2583.4 1.68138 -2.37019 0
M  V30 28038 H 2582.94 0.790729 -2.45164 0
M  V30 28039 H 2582.9 2.451 -1.96909 0
M  V30 28040 N 2586.67 1.48939 -0.515251 0
M  V30 28041 C 2588.09 1.58669 -0.172127 0
M  V30 28042 C 2588.29 1.51895 1.32402 0
M  V30 28043 O 2587.35 1.40031 2.10113 0
M  V30 28044 C 2588.66 2.90896 -0.761584 0
M  V30 28045 C 2590.21 3.04393 -0.728979 0
M  V30 28046 C 2590.68 4.39259 -1.29675 0
M  V30 28047 N 2592.17 4.45788 -1.25807 0
M  V30 28048 C 2592.91 5.4862 -1.66743 0
M  V30 28049 N 2592.4 6.58484 -2.15338 0
M  V30 28050 N 2594.2 5.39416 -1.58071 0
M  V30 28051 H 2586.35 1.51586 -1.4878 0
M  V30 28052 H 2588.61 0.71889 -0.617981 0
M  V30 28053 H 2588.32 3.01464 -1.81141 0
M  V30 28054 H 2588.19 3.76497 -0.230173 0
M  V30 28055 H 2590.58 2.93446 0.312047 0
M  V30 28056 H 2590.66 2.20439 -1.2977 0
M  V30 28057 H 2590.3 4.50959 -2.33663 0
M  V30 28058 H 2590.23 5.21875 -0.703844 0
M  V30 28059 H 2592.72 3.66973 -0.902166 0
M  V30 28060 H 2593.04 7.33067 -2.44607 0
M  V30 28061 H 2591.38 6.59487 -2.19322 0
M  V30 28062 H 2594.57 4.5248 -1.19914 0
M  V30 28063 H 2594.75 6.19429 -1.90295 0
M  V30 28064 N 2588.15 0.249709 1.55609 0
M  V30 28065 C 2589.38 -0.377768 2.03117 0
M  V30 28066 C 2589.79 -1.51879 1.12824 0
M  V30 28067 O 2589.13 -1.83198 0.135653 0
M  V30 28068 C 2589.2 -0.944632 3.46867 0
M  V30 28069 C 2588.86 0.0645062 4.56954 0
M  V30 28070 C 2589.86 0.875047 5.12483 0
M  V30 28071 C 2587.54 0.191408 5.01935 0
M  V30 28072 C 2589.54 1.79892 6.11488 0
M  V30 28073 C 2587.22 1.11878 6.00772 0
M  V30 28074 C 2588.22 1.92106 6.55427 0
M  V30 28075 O 2587.91 2.8328 7.52335 0
M  V30 28076 H 2587.64 -0.0935843 0.669491 0
M  V30 28077 H 2590.2 0.372001 2.02003 0
M  V30 28078 H 2588.43 -1.74401 3.45139 0
M  V30 28079 H 2590.11 -1.48249 3.77859 0
M  V30 28080 H 2590.88 0.787607 4.78562 0
M  V30 28081 H 2586.76 -0.422991 4.59055 0
M  V30 28082 H 2590.3 2.42555 6.54074 0
M  V30 28083 H 2586.2 1.20714 6.34112 0
M  V30 28084 H 2586.97 2.77673 7.69961 0
M  V30 28085 N 2589.63 -1.57583 -0.0233682 0
M  V30 28086 C 2590.86 -1.93514 -0.723597 0
M  V30 28087 C 2591.27 -0.848362 -1.69114 0
M  V30 28088 O 2590.61 0.183452 -1.82782 0
M  V30 28089 C 2590.67 -3.25285 -1.53069 0
M  V30 28090 C 2590.34 -4.51175 -0.727308 0
M  V30 28091 C 2591.34 -5.19894 -0.025101 0
M  V30 28092 C 2589.02 -4.97674 -0.680168 0
M  V30 28093 C 2591.01 -6.33394 0.713486 0
M  V30 28094 C 2588.7 -6.11068 0.0621597 0
M  V30 28095 C 2589.7 -6.78784 0.757741 0
M  V30 28096 O 2589.39 -7.90009 1.48801 0
M  V30 28097 H 2589.12 -0.643192 -0.208039 0
M  V30 28098 H 2591.67 -2.05393 0.016785 0
M  V30 28099 H 2589.9 -3.09748 -2.31502 0
M  V30 28100 H 2591.59 -3.465 -2.11407 0
M  V30 28101 H 2592.36 -4.84972 -0.0525151 0
M  V30 28102 H 2588.24 -4.44808 -1.21109 0
M  V30 28103 H 2591.78 -6.86183 1.25695 0
M  V30 28104 H 2587.68 -6.45435 0.0914768 0
M  V30 28105 H 2588.45 -8.06398 1.40228 0
M  V30 28106 N 2591.11 0.29574 -1.548 0
M  V30 28107 C 2592.36 1.02825 -1.73987 0
M  V30 28108 C 2592.68 1.87619 -0.531439 0
M  V30 28109 O 2591.95 1.90562 0.454187 0
M  V30 28110 H 2590.53 0.382631 -0.641563 0
M  V30 28111 H 2593.19 0.325455 -1.92163 0
M  V30 28112 H 2592.29 1.67833 -2.63132 0
M  V30 28113 N 2592.59 1.47346 0.559187 0
M  V30 28114 C 2593.54 1.60088 1.68744 0
M  V30 28115 C 2594.53 0.468278 1.62799 0
M  V30 28116 O 2595.74 0.646006 1.68008 0
M  V30 28117 H 2592.11 0.503769 0.55832 0
M  V30 28118 H 2594.08 2.54904 1.55133 0
M  V30 28119 C 2592.83 1.63048 3.07101 0
M  V30 28120 H 2592.15 2.49547 3.12356 0
M  V30 28121 H 2593.59 1.76013 3.8574 0
M  V30 28122 C 2592.05 0.363416 3.34934 0
M  V30 28123 O 2592.58 -0.536346 3.98103 0
M  V30 28124 N 2590.79 0.244051 2.89573 0
M  V30 28125 H 2590.34 0.977175 2.38346 0
M  V30 28126 H 2590.29 -0.602782 3.08567 0
M  V30 28127 N 2594.07 -0.805758 1.35445 0
M  V30 28128 C 2595.31 -1.5652 1.28955 0
M  V30 28129 C 2595.64 -1.93726 -0.135563 0
M  V30 28130 O 2594.92 -1.61416 -1.08513 0
M  V30 28131 C 2595.2 -2.85327 2.19683 0
M  V30 28132 C 2595.06 -2.54592 3.70814 0
M  V30 28133 C 2596.37 -3.87036 2.09502 0
M  V30 28134 H 2593.49 -0.567874 0.469774 0
M  V30 28135 H 2596.14 -0.926971 1.65853 0
M  V30 28136 H 2594.29 -3.39791 1.88346 0
M  V30 28137 H 2595.96 -2.06304 4.12597 0
M  V30 28138 H 2594.2 -1.87773 3.91055 0
M  V30 28139 H 2594.87 -3.46518 4.29685 0
M  V30 28140 H 2597.35 -3.41974 2.37051 0
M  V30 28141 H 2596.22 -4.74939 2.75181 0
M  V30 28142 H 2596.48 -4.28775 1.07722 0
M  V30 28143 N 2595.54 -1.19456 -1.02801 0
M  V30 28144 C 2596.96 -0.94696 -1.28471 0
M  V30 28145 C 2597.16 0.380168 -1.97881 0
M  V30 28146 O 2596.22 1.11147 -2.26721 0
M  V30 28147 C 2597.53 -2.12158 -2.13095 0
M  V30 28148 C 2599.08 -2.1613 -2.264 0
M  V30 28149 C 2599.55 -3.33045 -3.14396 0
M  V30 28150 N 2601.04 -3.32986 -3.21985 0
M  V30 28151 C 2601.78 -4.20096 -3.90265 0
M  V30 28152 N 2601.27 -5.17363 -4.60768 0
M  V30 28153 N 2603.07 -4.07971 -3.86673 0
M  V30 28154 H 2595.22 -2.0484 -0.561629 0
M  V30 28155 H 2597.48 -0.895736 -0.310422 0
M  V30 28156 H 2597.19 -3.08206 -1.69417 0
M  V30 28157 H 2597.06 -2.09293 -3.13809 0
M  V30 28158 H 2599.45 -1.20652 -2.69309 0
M  V30 28159 H 2599.53 -2.23048 -1.25233 0
M  V30 28160 H 2599.17 -4.28803 -2.72196 0
M  V30 28161 H 2599.1 -3.23364 -4.15624 0
M  V30 28162 H 2601.59 -2.62579 -2.71773 0
M  V30 28163 H 2601.91 -5.80178 -5.10503 0
M  V30 28164 H 2600.25 -5.2131 -4.59631 0
M  V30 28165 H 2603.44 -3.3126 -3.30733 0
M  V30 28166 H 2603.62 -4.76072 -4.39613 0
M  V30 28167 N 2597.02 1.21924 -0.998617 0
M  V30 28168 C 2598.43 1.72592 -0.71197 0
M  V30 28169 C 2598.78 1.80424 0.77081 0
M  V30 28170 O 2597.91 1.45443 1.60235 0
M  V30 28171 C 2598.5 3.13456 -1.28573 0
M  V30 28172 C 2597.06 3.61506 -1.04834 0
M  V30 28173 C 2596.21 2.39221 -1.40244 0
M  V30 28174 H 2599.16 1.07191 -1.17029 0
M  V30 28175 H 2599.18 3.74605 -0.667164 0
M  V30 28176 H 2598.69 3.07723 -2.36492 0
M  V30 28177 H 2596.79 3.72597 0.0139728 0
M  V30 28178 H 2596.91 4.47325 -1.71574 0
M  V30 28179 H 2595.27 2.41101 -0.821119 0
M  V30 28180 H 2596.05 2.36145 -2.4918 0
M  V30 28181 N 2598.5 0.772537 1.37367 0
M  V30 28182 C 2599.72 0.347421 2.04469 0
M  V30 28183 C 2600.15 -1.02247 1.57883 0
M  V30 28184 O 2599.51 -1.65535 0.739439 0
M  V30 28185 C 2599.56 0.400542 3.58369 0
M  V30 28186 O 2598.66 -0.598718 4.08031 0
M  V30 28187 H 2598 0.150282 0.64677 0
M  V30 28188 H 2600.53 1.04895 1.75665 0
M  V30 28189 H 2600.54 0.258117 4.07183 0
M  V30 28190 H 2599.22 1.39993 3.91631 0
M  V30 28191 H 2597.79 -0.419346 3.70535 0
M  V30 28192 N 2599.98 -1.48664 0.523142 0
M  V30 28193 C 2601.23 -2.02096 -0.0134142 0
M  V30 28194 C 2601.55 -1.40313 -1.35415 0
M  V30 28195 O 2600.82 -0.566107 -1.87542 0
M  V30 28196 H 2599.4 -0.746958 -0.00794602 0
M  V30 28197 H 2602.06 -1.8245 0.68542 0
M  V30 28198 H 2601.15 -3.11842 -0.126795 0
M  V30 28199 N 2601.46 -0.257958 -1.55475 0
M  V30 28200 C 2602.87 0.0966283 -1.59307 0
M  V30 28201 C 2603.07 1.56018 -1.27517 0
M  V30 28202 O 2602.13 2.30636 -1.02779 0
M  V30 28203 C 2603.44 -0.262534 -2.99552 0
M  V30 28204 C 2604.99 -0.207738 -3.1231 0
M  V30 28205 C 2605.46 -0.541092 -4.54792 0
M  V30 28206 N 2606.95 -0.492002 -4.6058 0
M  V30 28207 C 2607.69 -0.722957 -5.68824 0
M  V30 28208 N 2607.19 -1.01762 -6.85286 0
M  V30 28209 N 2608.98 -0.652913 -5.58295 0
M  V30 28210 H 2601.13 -1.21227 -1.74407 0
M  V30 28211 H 2603.39 -0.488554 -0.812415 0
M  V30 28212 H 2603.1 -1.27973 -3.27591 0
M  V30 28213 H 2602.97 0.405014 -3.75019 0
M  V30 28214 H 2605.36 0.800145 -2.84045 0
M  V30 28215 H 2605.44 -0.909297 -2.39093 0
M  V30 28216 H 2605.08 -1.54658 -4.8378 0
M  V30 28217 H 2605.01 0.182068 -5.26285 0
M  V30 28218 H 2607.51 -0.273432 -3.76909 0
M  V30 28219 H 2607.82 -1.18098 -7.63723 0
M  V30 28220 H 2606.16 -1.05521 -6.86943 0
M  V30 28221 H 2609.35 -0.422674 -4.66188 0
M  V30 28222 H 2609.53 -0.836295 -6.42581 0
M  V30 28223 N 2602.93 1.57593 0.0150108 0
M  V30 28224 C 2604.35 1.55231 0.37088 0
M  V30 28225 C 2604.55 0.985912 1.75733 0
M  V30 28226 O 2603.61 0.61312 2.44943 0
M  V30 28227 C 2604.92 2.99575 0.259856 0
M  V30 28228 C 2606.47 3.11192 0.335904 0
M  V30 28229 C 2606.94 4.57294 0.254173 0
M  V30 28230 N 2608.43 4.62144 0.312537 0
M  V30 28231 C 2609.17 5.72753 0.272405 0
M  V30 28232 N 2608.66 6.92556 0.183742 0
M  V30 28233 N 2610.46 5.6117 0.323169 0
M  V30 28234 H 2602.61 1.92755 -0.892138 0
M  V30 28235 H 2604.87 0.884709 -0.340579 0
M  V30 28236 H 2604.58 3.44796 -0.693463 0
M  V30 28237 H 2604.45 3.62351 1.04794 0
M  V30 28238 H 2606.84 2.65911 1.27966 0
M  V30 28239 H 2606.92 2.51222 -0.481783 0
M  V30 28240 H 2606.56 5.03246 -0.685976 0
M  V30 28241 H 2606.49 5.15192 1.09015 0
M  V30 28242 H 2608.98 3.75954 0.383003 0
M  V30 28243 H 2609.3 7.72637 0.158604 0
M  V30 28244 H 2607.64 6.94839 0.149586 0
M  V30 28245 H 2610.83 4.66468 0.390525 0
M  V30 28246 H 2611.01 6.47358 0.288425 0
M  V30 28247 N 2604.41 -0.287527 1.54955 0
M  V30 28248 C 2605.32 -1.37733 1.89913 0
M  V30 28249 C 2606.34 -1.5479 0.794729 0
M  V30 28250 O 2607.51 -1.69196 1.09246 0
M  V30 28251 C 2604.58 -2.71896 2.15113 0
M  V30 28252 C 2603.64 -2.63709 3.38757 0
M  V30 28253 C 2602.87 -3.91473 3.62746 0
M  V30 28254 O 2603.1 -4.91473 2.89501 0
M  V30 28255 O 2602.03 -3.92553 4.56274 0
M  V30 28256 H 2605.86 -1.11087 2.82654 0
M  V30 28257 H 2603.44 -0.484782 1.41316 0
M  V30 28258 H 2605.32 -3.5125 2.32812 0
M  V30 28259 H 2604 -2.98358 1.25556 0
M  V30 28260 H 2602.91 -1.8278 3.26408 0
M  V30 28261 H 2604.24 -2.42198 4.28487 0
M  V30 28262 N 2605.89 -1.47641 -0.551365 0
M  V30 28263 C 2607.12 -1.58439 -1.33835 0
M  V30 28264 C 2607.54 -0.237096 -1.866 0
M  V30 28265 O 2606.9 0.787965 -1.63281 0
M  V30 28266 C 2606.95 -2.6177 -2.4801 0
M  V30 28267 O 2606.05 -2.17446 -3.50415 0
M  V30 28268 H 2605.39 -0.532031 -0.397289 0
M  V30 28269 H 2607.92 -1.93466 -0.665725 0
M  V30 28270 H 2607.93 -2.82374 -2.94498 0
M  V30 28271 H 2606.61 -3.59594 -2.08962 0
M  V30 28272 H 2605.18 -2.06966 -3.10193 0
M  V30 28273 N 2607.37 0.798563 -1.3587 0
M  V30 28274 C 2608.3 1.92526 -1.32121 0
M  V30 28275 C 2609.28 1.68987 -0.194239 0
M  V30 28276 O 2610.46 1.90234 -0.39046 0
M  V30 28277 C 2607.59 3.29402 -1.10053 0
M  V30 28278 C 2606.55 3.67442 -2.19477 0
M  V30 28279 C 2605.87 5.02568 -1.82564 0
M  V30 28280 C 2607.17 3.7698 -3.61501 0
M  V30 28281 H 2608.87 1.9592 -2.26397 0
M  V30 28282 H 2606.41 0.941211 -1.08983 0
M  V30 28283 H 2608.37 4.07833 -1.06068 0
M  V30 28284 H 2607.09 3.26371 -0.122252 0
M  V30 28285 H 2605.75 2.91302 -2.22573 0
M  V30 28286 H 2605.4 4.96049 -0.833336 0
M  V30 28287 H 2605.1 5.2899 -2.55819 0
M  V30 28288 H 2606.62 5.83429 -1.80118 0
M  V30 28289 H 2608.04 4.45624 -3.60683 0
M  V30 28290 H 2606.43 4.14879 -4.33584 0
M  V30 28291 H 2607.5 2.78322 -3.9707 0
M  V30 28292 N 2608.85 1.19999 1.02166 0
M  V30 28293 C 2610.07 1.03252 1.79295 0
M  V30 28294 C 2610.49 -0.41847 1.84104 0
M  V30 28295 O 2609.85 -1.29061 1.29033 0
M  V30 28296 C 2609.9 1.60324 3.24004 0
M  V30 28297 O 2609.62 2.99745 3.19507 0
M  V30 28298 C 2611.12 1.4846 4.17701 0
M  V30 28299 H 2608.34 0.363502 0.56401 0
M  V30 28300 H 2610.88 1.58975 1.28636 0
M  V30 28301 H 2609.04 1.08733 3.71828 0
M  V30 28302 H 2609.45 3.26733 4.103 0
M  V30 28303 H 2610.93 1.93162 5.171 0
M  V30 28304 H 2611.4 0.436269 4.37028 0
M  V30 28305 H 2612.01 1.99217 3.75756 0
M  V30 28306 N 2610.32 -1.21392 1.00507 0
M  V30 28307 C 2611.55 -1.94999 0.706401 0
M  V30 28308 C 2611.97 -1.73583 -0.7246 0
M  V30 28309 O 2611.33 -1.02272 -1.497 0
M  V30 28310 C 2611.38 -3.45486 1.03306 0
M  V30 28311 O 2610.48 -4.12168 0.138347 0
M  V30 28312 H 2609.83 -0.609614 0.263186 0
M  V30 28313 H 2612.36 -1.54149 1.34533 0
M  V30 28314 H 2612.37 -3.96057 0.979942 0
M  V30 28315 H 2611.04 -3.60397 2.07573 0
M  V30 28316 H 2609.62 -3.72074 0.247994 0
M  V30 28317 N 2611.8 -0.779811 -1.36955 0
M  V30 28318 C 2613.05 -0.347801 -1.99491 0
M  V30 28319 C 2613.38 1.0779 -1.619 0
M  V30 28320 O 2612.63 1.75755 -0.860741 0
M  V30 28321 C 2612.93 -0.447749 -3.54584 0
M  V30 28322 C 2612.6 -1.83287 -4.11967 0
M  V30 28323 C 2611.26 -2.21187 -4.27352 0
M  V30 28324 C 2613.61 -2.74027 -4.4335 0
M  V30 28325 C 2610.94 -3.49249 -4.71426 0
M  V30 28326 C 2613.29 -4.01506 -4.88851 0
M  V30 28327 C 2611.96 -4.39441 -5.02442 0
M  V30 28328 H 2611.23 -0.127269 -0.729989 0
M  V30 28329 H 2613.87 -0.995405 -1.63597 0
M  V30 28330 H 2612.18 0.283378 -3.90774 0
M  V30 28331 H 2613.87 -0.0946653 -4.00888 0
M  V30 28332 H 2610.46 -1.52832 -4.00425 0
M  V30 28333 H 2614.65 -2.46002 -4.31041 0
M  V30 28334 H 2609.9 -3.78524 -4.80135 0
M  V30 28335 H 2614.08 -4.7194 -5.121 0
M  V30 28336 H 2611.71 -5.3873 -5.36353 0
M  V30 28337 N 2613.28 1.48384 -0.531019 0
M  V30 28338 C 2614.53 2.021 0.00269637 0
M  V30 28339 C 2614.85 1.41029 1.34669 0
M  V30 28340 O 2614.12 0.576045 1.87239 0
M  V30 28341 H 2612.7 0.746989 0.00398461 0
M  V30 28342 H 2615.36 1.82084 -0.695086 0
M  V30 28343 H 2614.46 3.11905 0.110255 0
M  V30 28344 N 2614.76 0.2662 1.55336 0
M  V30 28345 C 2615.71 -0.641189 2.23588 0
M  V30 28346 C 2616.7 -1.16492 1.22988 0
M  V30 28347 O 2617.91 -1.11958 1.40945 0
M  V30 28348 H 2614.28 -0.225302 0.717456 0
M  V30 28349 H 2616.25 -0.0426037 2.9837 0
M  V30 28350 C 2615 -1.81821 2.96372 0
M  V30 28351 H 2614.32 -1.42439 3.73566 0
M  V30 28352 H 2615.76 -2.42992 3.47463 0
M  V30 28353 C 2614.22 -2.70122 2.01335 0
M  V30 28354 O 2614.75 -3.70222 1.55881 0
M  V30 28355 N 2612.96 -2.37099 1.68024 0
M  V30 28356 H 2612.51 -1.55748 2.05184 0
M  V30 28357 H 2612.46 -2.96453 1.04706 0
M  V30 28358 N 2616.24 -1.57599 -0.0066531 0
M  V30 28359 C 2617.48 -1.89901 -0.691518 0
M  V30 28360 C 2617.81 -0.866703 -1.7468 0
M  V30 28361 O 2617.08 0.0967845 -1.95661 0
M  V30 28362 H 2615.66 -0.700883 -0.258404 0
M  V30 28363 H 2618.32 -1.94873 0.0326997 0
M  V30 28364 H 2617.41 -2.89462 -1.16697 0
M  V30 28365 N 2617.72 0.279305 -1.55105 0
M  V30 28366 C 2619.13 0.850803 -1.66187 0
M  V30 28367 C 2619.48 1.87284 -0.58474 0
M  V30 28368 O 2618.6 2.14647 0.274882 0
M  V30 28369 C 2619.2 1.54996 -3.01267 0
M  V30 28370 C 2617.76 2.06957 -3.14397 0
M  V30 28371 C 2616.9 0.90949 -2.61961 0
M  V30 28372 H 2619.85 0.0557957 -1.58602 0
M  V30 28373 H 2619.88 2.41664 -2.93903 0
M  V30 28374 H 2619.39 0.805864 -3.79641 0
M  V30 28375 H 2617.49 2.84348 -2.40784 0
M  V30 28376 H 2617.6 2.28921 -4.20871 0
M  V30 28377 H 2615.97 1.30112 -2.18959 0
M  V30 28378 H 2616.75 0.179002 -3.42833 0
M  V30 28379 N 2619.19 1.47931 0.543528 0
M  V30 28380 C 2620.12 1.6433 1.65885 0
M  V30 28381 C 2621.1 0.492412 1.62817 0
M  V30 28382 O 2622.29 0.72337 1.80225 0
M  V30 28383 C 2619.42 1.67019 3.04503 0
M  V30 28384 C 2618.37 2.81472 3.22425 0
M  V30 28385 C 2617.7 2.69241 4.61967 0
M  V30 28386 C 2619 4.22921 3.06489 0
M  V30 28387 H 2620.69 2.577 1.52417 0
M  V30 28388 H 2618.24 1.24017 0.731827 0
M  V30 28389 H 2620.19 1.77081 3.82388 0
M  V30 28390 H 2618.92 0.702176 3.18962 0
M  V30 28391 H 2617.58 2.70943 2.46953 0
M  V30 28392 H 2617.22 1.70438 4.73244 0
M  V30 28393 H 2616.92 3.46033 4.74905 0
M  V30 28394 H 2618.45 2.81251 5.41969 0
M  V30 28395 H 2619.86 4.34354 3.74178 0
M  V30 28396 H 2618.26 5.00606 3.30929 0
M  V30 28397 H 2619.33 4.4033 2.0307 0
M  V30 28398 N 2620.67 -0.791347 1.36292 0
M  V30 28399 C 2621.9 -1.58529 1.33729 0
M  V30 28400 C 2622.32 -1.87932 -0.0794603 0
M  V30 28401 O 2621.68 -1.4774 -1.05084 0
M  V30 28402 C 2621.73 -2.88427 2.1643 0
M  V30 28403 O 2620.83 -3.81941 1.55547 0
M  V30 28404 H 2620.17 -0.480951 0.457802 0
M  V30 28405 H 2622.7 -0.980999 1.79548 0
M  V30 28406 H 2622.71 -3.37714 2.28939 0
M  V30 28407 H 2621.39 -2.66353 3.1942 0
M  V30 28408 H 2619.96 -3.4053 1.51967 0
M  V30 28409 N 2622.15 -1.2054 -1.01528 0
M  V30 28410 C 2623.11 -0.957134 -2.08258 0
M  V30 28411 C 2624.11 0.0678373 -1.60657 0
M  V30 28412 O 2625.3 -0.168363 -1.73384 0
M  V30 28413 C 2622.43 -0.441247 -3.38032 0
M  V30 28414 H 2623.63 -1.90388 -2.31716 0
M  V30 28415 H 2621.18 -1.02095 -1.18348 0
M  V30 28416 H 2621.92 0.510905 -3.2025 0
M  V30 28417 H 2621.7 -1.18044 -3.73909 0
M  V30 28418 H 2623.19 -0.287083 -4.16612 0
M  V30 28419 N 2623.63 1.20858 -1.01149 0
M  V30 28420 C 2624.88 1.89718 -0.69652 0
M  V30 28421 C 2625.2 1.78905 0.775756 0
M  V30 28422 O 2624.47 1.18814 1.55757 0
M  V30 28423 H 2623.05 0.702259 -0.25464 0
M  V30 28424 H 2625.71 1.46802 -1.282 0
M  V30 28425 H 2624.8 2.96466 -0.97541 0
M  V30 28426 N 2625.11 0.787064 1.3654 0
M  V30 28427 C 2626.35 0.357668 1.9891 0
M  V30 28428 C 2626.67 -1.07368 1.6278 0
M  V30 28429 O 2625.94 -1.73969 0.900642 0
M  V30 28430 H 2624.52 0.129259 0.735732 0
M  V30 28431 H 2627.19 1.00858 1.66774 0
M  V30 28432 H 2626.28 0.447603 3.08874 0
M  V30 28433 N 2626.58 -1.48101 0.53888 0
M  V30 28434 C 2627.99 -1.86428 0.100711 0
M  V30 28435 C 2628.35 -1.44751 -1.32445 0
M  V30 28436 O 2627.47 -0.842234 -1.99337 0
M  V30 28437 C 2628.07 -3.38343 0.175992 0
M  V30 28438 C 2626.62 -3.7583 -0.207032 0
M  V30 28439 C 2625.77 -2.72153 0.531789 0
M  V30 28440 H 2628.72 -1.39879 0.749639 0
M  V30 28441 H 2628.74 -3.75577 -0.610078 0
M  V30 28442 H 2628.26 -3.68645 1.21335 0
M  V30 28443 H 2626.36 -3.51142 -1.24619 0
M  V30 28444 H 2626.47 -4.78899 0.138772 0
M  V30 28445 H 2624.83 -2.5469 -0.0230014 0
M  V30 28446 H 2625.62 -3.05299 1.56995 0
M  V30 28447 N 2628.06 -0.274434 -1.55192 0
M  V30 28448 C 2629.31 0.341867 -1.99188 0
M  V30 28449 C 2629.63 1.56429 -1.16425 0
M  V30 28450 O 2628.9 1.94251 -0.253607 0
M  V30 28451 H 2627.48 0.129304 -0.735724 0
M  V30 28452 H 2630.14 -0.379611 -1.91167 0
M  V30 28453 H 2629.24 0.632199 -3.0563 0
M  V30 28454 N 2629.54 1.576 -0.00170483 0
M  V30 28455 C 2630.49 2.08529 0.989158 0
M  V30 28456 C 2631.46 0.981088 1.34029 0
M  V30 28457 O 2632.64 1.25362 1.43837 0
M  V30 28458 C 2629.78 2.59467 2.27532 0
M  V30 28459 C 2628.89 3.83795 1.98307 0
M  V30 28460 C 2628.03 4.23227 3.21017 0
M  V30 28461 C 2627.07 5.40387 2.87486 0
M  V30 28462 N 2626.21 5.75105 4.02739 0
M  V30 28463 H 2631.05 2.92919 0.547921 0
M  V30 28464 H 2628.58 1.44804 0.258891 0
M  V30 28465 H 2630.54 2.87079 3.02724 0
M  V30 28466 H 2629.17 1.77948 2.69322 0
M  V30 28467 H 2628.22 3.6308 1.13476 0
M  V30 28468 H 2629.53 4.69084 1.69593 0
M  V30 28469 H 2628.69 4.5213 4.04553 0
M  V30 28470 H 2627.43 3.3665 3.52871 0
M  V30 28471 H 2626.43 5.11206 2.02358 0
M  V30 28472 H 2627.66 6.28642 2.56878 0
M  V30 28473 H 2625.6 4.91486 4.34485 0
M  V30 28474 H 2625.52 6.54972 3.77554 0
M  V30 28475 H 2626.79 6.08601 4.87058 0
M  V30 28476 N 2631.02 -0.271076 1.55251 0
M  V30 28477 C 2632.43 -0.841978 1.66636 0
M  V30 28478 C 2632.78 -1.86971 0.594664 0
M  V30 28479 O 2631.9 -2.1479 -0.263494 0
M  V30 28480 C 2632.5 -1.53396 3.02085 0
M  V30 28481 C 2631.06 -2.05287 3.1549 0
M  V30 28482 C 2630.21 -0.895585 2.6244 0
M  V30 28483 H 2633.16 -0.0473838 1.58629 0
M  V30 28484 H 2633.18 -2.40102 2.9518 0
M  V30 28485 H 2632.69 -0.785719 3.80063 0
M  V30 28486 H 2630.79 -2.83067 2.42289 0
M  V30 28487 H 2630.9 -2.26686 4.22079 0
M  V30 28488 H 2629.27 -1.28949 2.19646 0
M  V30 28489 H 2630.05 -0.160818 3.42923 0
M  V30 28490 N 2632.5 -1.48217 -0.535675 0
M  V30 28491 C 2633.74 -1.55636 -1.28925 0
M  V30 28492 C 2634.07 -0.229548 -1.93644 0
M  V30 28493 O 2633.34 0.748428 -1.8104 0
M  V30 28494 H 2631.92 -0.573351 -0.47883 0
M  V30 28495 H 2634.58 -1.84647 -0.623821 0
M  V30 28496 H 2633.67 -2.3344 -2.07153 0
M  V30 28497 N 2633.97 0.784108 -1.3671 0
M  V30 28498 C 2635.22 1.53916 -1.30975 0
M  V30 28499 C 2635.54 1.94695 0.109051 0
M  V30 28500 O 2634.81 1.65355 1.05046 0
M  V30 28501 H 2633.39 0.570833 -0.481829 0
M  V30 28502 H 2636.06 0.933971 -1.71064 0
M  V30 28503 H 2635.15 2.44428 -1.94066 0
M  V30 28504 N 2635.45 1.21076 1.00888 0
M  V30 28505 C 2636.7 1.02361 1.7426 0
M  V30 28506 C 2637.02 -0.44436 1.8987 0
M  V30 28507 O 2636.29 -1.32078 1.4468 0
M  V30 28508 H 2634.87 0.375765 0.645608 0
M  V30 28509 H 2637.53 1.52319 1.21594 0
M  V30 28510 H 2636.63 1.48835 2.74326 0
M  V30 28511 N 2636.93 -1.2032 1.01789 0
M  V30 28512 C 2638.18 -1.89346 0.706571 0
M  V30 28513 C 2638.5 -1.79314 -0.766258 0
M  V30 28514 O 2637.77 -1.19638 -1.55124 0
M  V30 28515 H 2636.35 -0.700899 0.258361 0
M  V30 28516 H 2639.01 -1.4612 1.28976 0
M  V30 28517 H 2638.11 -2.95945 0.991118 0
M  V30 28518 N 2638.41 -0.794293 -1.3612 0
M  V30 28519 C 2639.66 -0.368211 -1.98717 0
M  V30 28520 C 2639.98 1.06503 -1.63347 0
M  V30 28521 O 2639.25 1.73489 -0.909856 0
M  V30 28522 H 2637.83 -0.133159 -0.735036 0
M  V30 28523 H 2640.49 -1.01741 -1.66237 0
M  V30 28524 H 2639.59 -0.463977 -3.08632 0
M  V30 28525 N 2639.89 1.47813 -0.546727 0
M  V30 28526 C 2641.13 2.02091 -0.0187392 0
M  V30 28527 C 2641.46 1.42449 1.33166 0
M  V30 28528 O 2640.73 0.595872 1.86618 0
M  V30 28529 H 2639.31 0.74699 -0.00393844 0
M  V30 28530 H 2641.97 1.81336 -0.714359 0
M  V30 28531 H 2641.06 3.12005 0.0771671 0
M  V30 28532 N 2641.36 0.28266 1.55044 0
M  V30 28533 C 2642.59 -0.337941 2.04628 0
M  V30 28534 C 2643.01 -1.48121 1.15939 0
M  V30 28535 O 2642.37 -1.80596 0.159564 0
M  V30 28536 C 2642.42 -0.789298 3.51856 0
M  V30 28537 O 2641.52 -1.89585 3.66239 0
M  V30 28538 H 2640.87 -0.0687145 0.660435 0
M  V30 28539 H 2643.4 0.41916 2.0026 0
M  V30 28540 H 2643.41 -1.08304 3.93363 0
M  V30 28541 H 2642.08 0.047115 4.15873 0
M  V30 28542 H 2640.66 -1.60407 3.36636 0
M  V30 28543 N 2642.84 -1.57597 0.0100627 0
M  V30 28544 C 2644.09 -1.90624 -0.671338 0
M  V30 28545 C 2644.41 -0.885181 -1.73751 0
M  V30 28546 O 2643.68 0.0760267 -1.95752 0
M  V30 28547 H 2642.26 -0.703584 -0.250956 0
M  V30 28548 H 2644.92 -1.94827 0.0533667 0
M  V30 28549 H 2644.02 -2.90683 -1.13621 0
M  V30 28550 N 2644.32 0.262839 -1.55393 0
M  V30 28551 C 2645.55 1.0153 -1.80849 0
M  V30 28552 C 2645.97 1.78773 -0.584978 0
M  V30 28553 O 2645.33 1.75218 0.465671 0
M  V30 28554 C 2645.38 1.94154 -3.0387 0
M  V30 28555 O 2644.48 3.03084 -2.79668 0
M  V30 28556 H 2643.82 0.289749 -0.597446 0
M  V30 28557 H 2646.35 0.288663 -2.02553 0
M  V30 28558 H 2646.36 2.35918 -3.32876 0
M  V30 28559 H 2645.04 1.37347 -3.92567 0
M  V30 28560 H 2643.61 2.65561 -2.61785 0
M  V30 28561 N 2645.8 1.48499 0.527807 0
M  V30 28562 C 2647.02 1.60549 1.31297 0
M  V30 28563 C 2647.45 0.266753 1.86199 0
M  V30 28564 O 2646.81 -0.761889 1.64514 0
M  V30 28565 C 2646.85 2.65682 2.43814 0
M  V30 28566 O 2645.96 2.22993 3.46912 0
M  V30 28567 H 2645.3 0.538284 0.388775 0
M  V30 28568 H 2647.83 1.94501 0.634862 0
M  V30 28569 H 2647.84 2.87023 2.89968 0
M  V30 28570 H 2646.51 3.62872 2.03215 0
M  V30 28571 H 2645.09 2.11875 3.06861 0
M  V30 28572 N 2647.28 -0.776847 1.37123 0
M  V30 28573 C 2648.5 -1.57102 1.35403 0
M  V30 28574 C 2648.93 -1.88006 -0.0595231 0
M  V30 28575 O 2648.29 -1.48846 -1.03511 0
M  V30 28576 C 2648.33 -2.86116 2.19477 0
M  V30 28577 O 2647.44 -3.8027 1.59589 0
M  V30 28578 H 2646.78 -0.476068 0.462877 0
M  V30 28579 H 2649.31 -0.9619 1.80579 0
M  V30 28580 H 2649.32 -3.35267 2.32508 0
M  V30 28581 H 2647.99 -2.6295 3.22227 0
M  V30 28582 H 2646.57 -3.38899 1.5557 0
M  V30 28583 N 2648.76 -1.2161 -1.00244 0
M  V30 28584 C 2649.69 -0.920929 -2.08792 0
M  V30 28585 C 2650.67 0.132524 -1.62059 0
M  V30 28586 O 2651.85 0.00300347 -1.885 0
M  V30 28587 C 2648.98 -0.383286 -3.36524 0
M  V30 28588 C 2648.02 -1.41994 -4.02169 0
M  V30 28589 S 2648.86 -2.99001 -4.4425 0
M  V30 28590 C 2650.01 -2.4685 -5.75166 0
M  V30 28591 H 2650.25 -1.84014 -2.33508 0
M  V30 28592 H 2647.78 -1.04611 -1.1356 0
M  V30 28593 H 2649.74 -0.0796593 -4.10423 0
M  V30 28594 H 2648.4 0.514657 -3.09855 0
M  V30 28595 H 2647.59 -0.993422 -4.94112 0
M  V30 28596 H 2647.19 -1.67177 -3.34556 0
M  V30 28597 H 2649.48 -1.87496 -6.51039 0
M  V30 28598 H 2650.43 -3.37246 -6.22632 0
M  V30 28599 H 2650.84 -1.8847 -5.32108 0
M  V30 28600 N 2650.23 1.19778 -1.02425 0
M  V30 28601 C 2651.46 1.93851 -0.737334 0
M  V30 28602 C 2651.88 1.74714 0.696893 0
M  V30 28603 O 2651.24 1.04641 1.48054 0
M  V30 28604 C 2651.29 3.43798 -1.08789 0
M  V30 28605 O 2650.39 4.11896 -0.203902 0
M  V30 28606 H 2649.73 0.60535 -0.272851 0
M  V30 28607 H 2652.26 1.51989 -1.36969 0
M  V30 28608 H 2652.27 3.94448 -1.04283 0
M  V30 28609 H 2650.95 3.57049 -2.13281 0
M  V30 28610 H 2649.53 3.71633 -0.307156 0
M  V30 28611 N 2651.71 0.801501 1.35697 0
M  V30 28612 C 2653.13 0.484623 1.52064 0
M  V30 28613 C 2653.33 -0.995053 1.75217 0
M  V30 28614 O 2652.38 -1.78023 1.79065 0
M  V30 28615 C 2653.7 1.32557 2.69906 0
M  V30 28616 C 2655.24 1.32049 2.83782 0
M  V30 28617 C 2655.72 2.14544 4.04642 0
M  V30 28618 N 2657.21 2.12053 4.1181 0
M  V30 28619 C 2657.95 2.72645 5.04433 0
M  V30 28620 N 2657.44 3.42144 6.0242 0
M  V30 28621 N 2659.23 2.62314 4.9714 0
M  V30 28622 H 2651.39 1.75985 1.18925 0
M  V30 28623 H 2653.65 0.748752 0.581442 0
M  V30 28624 H 2653.35 2.37541 2.59359 0
M  V30 28625 H 2653.23 0.975245 3.64375 0
M  V30 28626 H 2655.62 0.278511 2.93783 0
M  V30 28627 H 2655.7 1.71065 1.90185 0
M  V30 28628 H 2655.34 3.18779 3.95402 0
M  V30 28629 H 2655.27 1.72891 4.9741 0
M  V30 28630 H 2657.76 1.61482 3.41661 0
M  V30 28631 H 2658.07 3.85677 6.69681 0
M  V30 28632 H 2656.42 3.46248 6.02609 0
M  V30 28633 H 2659.61 2.0761 4.19542 0
M  V30 28634 H 2659.78 3.09825 5.69133 0
M  V30 28635 N 2653.19 -1.47521 0.554558 0
M  V30 28636 C 2654.44 -2.02079 0.0294563 0
M  V30 28637 C 2654.76 -1.43154 -1.32409 0
M  V30 28638 O 2654.03 -0.605761 -1.86299 0
M  V30 28639 H 2652.61 -0.746958 0.00789985 0
M  V30 28640 H 2655.27 -1.80955 0.723966 0
M  V30 28641 H 2654.37 -3.12041 -0.0606196 0
M  V30 28642 N 2654.67 -0.290879 -1.54892 0
M  V30 28643 C 2655.58 0.59941 -2.26813 0
M  V30 28644 C 2656.59 1.15694 -1.29965 0
M  V30 28645 O 2657.77 1.18388 -1.6293 0
M  V30 28646 C 2654.83 1.75976 -2.98719 0
M  V30 28647 C 2653.9 1.23733 -4.11082 0
M  V30 28648 C 2653.13 2.34238 -4.7955 0
M  V30 28649 O 2653.35 3.53928 -4.47316 0
M  V30 28650 O 2652.29 2.01502 -5.67169 0
M  V30 28651 H 2656.11 0.0163027 -3.03696 0
M  V30 28652 H 2653.7 -0.0577018 -1.49289 0
M  V30 28653 H 2655.58 2.43601 -3.43855 0
M  V30 28654 H 2654.25 2.32966 -2.24741 0
M  V30 28655 H 2653.16 0.527098 -3.70368 0
M  V30 28656 H 2654.49 0.712984 -4.87009 0
M  V30 28657 N 2656.15 1.57589 -0.0184203 0
M  V30 28658 C 2657.08 2.05052 1.00144 0
M  V30 28659 C 2658.06 0.944081 1.32385 0
M  V30 28660 O 2659.24 1.21361 1.44235 0
M  V30 28661 C 2656.37 2.46361 2.32431 0
M  V30 28662 C 2655.41 3.6792 2.15725 0
M  V30 28663 S 2656.25 5.15041 1.46604 0
M  V30 28664 C 2657.4 5.59636 2.80283 0
M  V30 28665 H 2657.64 2.91236 0.597378 0
M  V30 28666 H 2655.17 1.53189 0.192975 0
M  V30 28667 H 2657.13 2.70827 3.08485 0
M  V30 28668 H 2655.79 1.60542 2.69972 0
M  V30 28669 H 2654.98 3.94635 3.13495 0
M  V30 28670 H 2654.58 3.43551 1.47814 0
M  V30 28671 H 2656.87 5.63222 3.76547 0
M  V30 28672 H 2657.82 6.59329 2.58245 0
M  V30 28673 H 2658.23 4.87251 2.85038 0
M  V30 28674 N 2657.62 -0.254594 1.5553 0
M  V30 28675 C 2658.85 -1.00569 1.81385 0
M  V30 28676 C 2659.27 -1.7846 0.59445 0
M  V30 28677 O 2658.63 -1.75462 -0.456372 0
M  V30 28678 C 2658.68 -1.92539 3.04895 0
M  V30 28679 O 2657.78 -3.01596 2.81271 0
M  V30 28680 H 2657.12 -0.286576 0.598974 0
M  V30 28681 H 2659.65 -0.277917 2.02704 0
M  V30 28682 H 2659.66 -2.3415 3.34123 0
M  V30 28683 H 2658.34 -1.35263 3.9329 0
M  V30 28684 H 2656.92 -2.64169 2.6319 0
M  V30 28685 N 2659.1 -1.48777 -0.519925 0
M  V30 28686 C 2660.03 -1.66948 -1.6325 0
M  V30 28687 C 2661.01 -0.518252 -1.62013 0
M  V30 28688 O 2662.2 -0.75195 -1.79051 0
M  V30 28689 C 2659.33 -1.71842 -3.01807 0
M  V30 28690 C 2658.28 -2.86566 -3.17906 0
M  V30 28691 C 2657.61 -2.76556 -4.57625 0
M  V30 28692 C 2658.91 -4.27743 -2.99722 0
M  V30 28693 H 2660.6 -2.60093 -1.48298 0
M  V30 28694 H 2658.15 -1.25166 -0.712004 0
M  V30 28695 H 2660.1 -1.83142 -3.79522 0
M  V30 28696 H 2658.82 -0.752831 -3.17805 0
M  V30 28697 H 2657.48 -2.74837 -2.42611 0
M  V30 28698 H 2657.13 -1.77946 -4.70472 0
M  V30 28699 H 2656.83 -3.53545 -4.6934 0
M  V30 28700 H 2658.36 -2.89838 -5.37426 0
M  V30 28701 H 2659.77 -4.40252 -3.67221 0
M  V30 28702 H 2658.17 -5.05807 -3.22923 0
M  V30 28703 H 2659.24 -4.43505 -1.96039 0
M  V30 28704 N 2660.58 0.769564 -1.37534 0
M  V30 28705 C 2661.54 1.86454 -1.33295 0
M  V30 28706 C 2662.54 1.5905 -0.236565 0
M  V30 28707 O 2663.73 1.67092 -0.49254 0
M  V30 28708 C 2660.86 3.23631 -1.07124 0
M  V30 28709 H 2662.06 1.91623 -2.30696 0
M  V30 28710 H 2659.61 0.96955 -1.22594 0
M  V30 28711 H 2660.35 3.24138 -0.102635 0
M  V30 28712 H 2660.13 3.44914 -1.86485 0
M  V30 28713 H 2661.62 4.03709 -1.06813 0
M  V30 28714 N 2662.06 1.22139 0.995977 0
M  V30 28715 C 2662.97 1.005 2.11983 0
M  V30 28716 C 2663.98 -0.0457395 1.7394 0
M  V30 28717 O 2665.16 0.146309 2.00868 0
M  V30 28718 C 2662.23 0.582146 3.41778 0
M  V30 28719 C 2661.29 1.70615 3.9394 0
M  V30 28720 C 2660.52 1.30337 5.1754 0
M  V30 28721 O 2660.74 0.180843 5.70113 0
M  V30 28722 O 2659.68 2.1187 5.63378 0
M  V30 28723 H 2663.5 1.94651 2.3312 0
M  V30 28724 H 2661.09 1.00707 1.10356 0
M  V30 28725 H 2662.97 0.356541 4.19889 0
M  V30 28726 H 2661.64 -0.330536 3.22008 0
M  V30 28727 H 2660.55 1.98625 3.17016 0
M  V30 28728 H 2661.88 2.59658 4.18137 0
M  V30 28729 N 2663.54 -1.19233 1.03059 0
M  V30 28730 C 2664.78 -1.89239 0.729131 0
M  V30 28731 C 2665.12 -1.79526 -0.740541 0
M  V30 28732 O 2664.39 -1.18876 -1.53944 0
M  V30 28733 C 2664.67 -3.4011 1.1831 0
M  V30 28734 C 2664.53 -3.58686 2.71412 0
M  V30 28735 C 2665.85 -4.33396 0.765237 0
M  V30 28736 H 2662.96 -0.687188 0.26635 0
M  V30 28737 H 2665.61 -1.40339 1.28082 0
M  V30 28738 H 2663.76 -3.81887 0.71374 0
M  V30 28739 H 2665.43 -3.26068 3.26308 0
M  V30 28740 H 2663.67 -3.01681 3.11722 0
M  V30 28741 H 2664.34 -4.64501 2.98233 0
M  V30 28742 H 2666.82 -3.99343 1.16896 0
M  V30 28743 H 2665.69 -5.37544 1.11075 0
M  V30 28744 H 2665.96 -4.40849 -0.332295 0
M  V30 28745 N 2665.01 -0.808686 -1.3527 0
M  V30 28746 C 2665.95 -0.178189 -2.28506 0
M  V30 28747 C 2666.96 0.623728 -1.50378 0
M  V30 28748 O 2668.15 0.455744 -1.72584 0
M  V30 28749 C 2665.25 0.769901 -3.30039 0
M  V30 28750 C 2664.42 0.0138981 -4.37398 0
M  V30 28751 C 2663.48 0.880784 -5.18776 0
M  V30 28752 O 2662.51 0.330959 -5.68237 0
M  V30 28753 N 2663.71 2.20258 -5.37091 0
M  V30 28754 H 2666.47 -0.979156 -2.83254 0
M  V30 28755 H 2664.03 -0.664334 -1.47642 0
M  V30 28756 H 2666.03 1.35411 -3.81374 0
M  V30 28757 H 2664.6 1.47167 -2.75791 0
M  V30 28758 H 2663.82 -0.751536 -3.8697 0
M  V30 28759 H 2665.1 -0.507054 -5.06267 0
M  V30 28760 H 2664.5 2.67319 -4.98555 0
M  V30 28761 H 2663.06 2.73598 -5.91598 0
M  V30 28762 N 2666.49 1.47225 -0.562374 0
M  V30 28763 C 2667.73 2.04355 -0.0426734 0
M  V30 28764 C 2668.1 1.42673 1.28485 0
M  V30 28765 O 2669.3 1.90882 1.89256 0
M  V30 28766 C 2667.57 3.57374 0.0433198 0
M  V30 28767 S 2669.13 4.35845 0.508395 0
M  V30 28768 H 2665.95 0.710463 -0.0276359 0
M  V30 28769 H 2668.55 1.8053 -0.750277 0
M  V30 28770 H 2667.25 3.9979 -0.927142 0
M  V30 28771 H 2666.78 3.85704 0.77432 0
M  V30 28772 H 2668.8 4.63668 1.76711 0
M  V30 28773 N 2667.97 0.299089 1.54736 0
M  V30 28774 C 2668.92 -0.592894 2.20156 0
M  V30 28775 C 2669.9 -1.10036 1.17392 0
M  V30 28776 O 2671.1 -1.04145 1.43118 0
M  V30 28777 C 2668.23 -1.76522 2.9444 0
M  V30 28778 C 2667.31 -1.27381 4.04518 0
M  V30 28779 N 2667.7 -0.50025 5.0332 0
M  V30 28780 C 2666 -1.5547 4.18025 0
M  V30 28781 C 2666.7 -0.238807 5.8121 0
M  V30 28782 N 2665.68 -0.818068 5.37409 0
M  V30 28783 H 2669.48 0.00568762 2.93899 0
M  V30 28784 H 2666.99 0.10376 1.62068 0
M  V30 28785 H 2668.99 -2.41576 3.39774 0
M  V30 28786 H 2667.65 -2.36752 2.22213 0
M  V30 28787 H 2668.66 -0.145328 5.17696 0
M  V30 28788 H 2665.34 -2.16463 3.57002 0
M  V30 28789 H 2666.73 0.382341 6.70811 0
M  V30 28790 N 2669.45 -1.57577 0.0267774 0
M  V30 28791 C 2670.38 -2.1311 -0.95427 0
M  V30 28792 C 2671.36 -1.04665 -1.34086 0
M  V30 28793 O 2672.54 -1.32486 -1.4199 0
M  V30 28794 C 2669.67 -2.65628 -2.23739 0
M  V30 28795 C 2668.63 -3.78839 -1.99162 0
M  V30 28796 C 2667.95 -4.17775 -3.33719 0
M  V30 28797 C 2669.25 -5.05012 -1.33268 0
M  V30 28798 H 2670.95 -2.95333 -0.491796 0
M  V30 28799 H 2668.49 -1.42068 -0.235115 0
M  V30 28800 H 2670.45 -3.03111 -2.92748 0
M  V30 28801 H 2669.17 -1.80563 -2.72148 0
M  V30 28802 H 2667.83 -3.4179 -1.32571 0
M  V30 28803 H 2667.48 -3.29695 -3.79882 0
M  V30 28804 H 2667.18 -4.94063 -3.18081 0
M  V30 28805 H 2668.7 -4.57839 -4.03999 0
M  V30 28806 H 2670.12 -5.40096 -1.92273 0
M  V30 28807 H 2668.51 -5.86282 -1.28035 0
M  V30 28808 H 2669.58 -4.83938 -0.305326 0
M  V30 28809 N 2670.93 0.246342 -1.55663 0
M  V30 28810 C 2672.2 0.997169 -1.68273 0
M  V30 28811 C 2672.58 2.03348 -0.566821 0
M  V30 28812 O 2671.93 2.24424 0.429648 0
M  V30 28813 C 2672.14 1.63001 -3.08597 0
M  V30 28814 C 2673.49 2.13165 -3.67214 0
M  V30 28815 O 2674.51 1.7294 -3.114 0
M  V30 28816 O 2673.37 2.87023 -4.65059 0
M  V30 28817 H 2670.47 0.464193 -0.684437 0
M  V30 28818 H 2673.01 0.240085 -1.67993 0
M  V30 28819 H 2671.78 0.88046 -3.81266 0
M  V30 28820 H 2671.41 2.45328 -3.1289 0
M  V30 28821 N 2672.4 1.4905 0.512027 0
M  V30 28822 C 2673.35 1.64905 1.61477 0
M  V30 28823 C 2674.32 0.490701 1.58686 0
M  V30 28824 O 2675.51 0.716391 1.7684 0
M  V30 28825 C 2672.65 1.71144 2.99673 0
M  V30 28826 C 2671.76 2.98209 3.12563 0
M  V30 28827 C 2670.89 2.95495 4.41425 0
M  V30 28828 C 2669.93 4.17187 4.47908 0
M  V30 28829 N 2669.07 4.12447 5.68183 0
M  V30 28830 H 2673.91 2.59069 1.47267 0
M  V30 28831 H 2671.45 1.2846 0.716691 0
M  V30 28832 H 2673.41 1.72742 3.79758 0
M  V30 28833 H 2672.04 0.804563 3.12613 0
M  V30 28834 H 2671.09 3.06273 2.25613 0
M  V30 28835 H 2672.4 3.88199 3.13214 0
M  V30 28836 H 2671.55 2.95595 5.29819 0
M  V30 28837 H 2670.29 2.03264 4.43323 0
M  V30 28838 H 2669.3 4.17343 3.57918 0
M  V30 28839 H 2670.52 5.10598 4.47735 0
M  V30 28840 H 2668.47 3.23046 5.70944 0
M  V30 28841 H 2668.39 4.96161 5.70404 0
M  V30 28842 H 2669.65 4.16633 6.58815 0
M  V30 28843 N 2673.88 -0.762259 1.3794 0
M  V30 28844 C 2674.79 -1.90669 1.36684 0
M  V30 28845 C 2675.81 -1.71969 0.265108 0
M  V30 28846 O 2676.98 -1.95041 0.502089 0
M  V30 28847 C 2674.05 -3.25923 1.18217 0
M  V30 28848 C 2673.11 -3.5721 2.38116 0
M  V30 28849 C 2672.34 -4.86011 2.20521 0
M  V30 28850 O 2672.57 -5.57755 1.19439 0
M  V30 28851 O 2671.5 -5.16577 3.0892 0
M  V30 28852 H 2675.33 -1.94681 2.33095 0
M  V30 28853 H 2672.91 -0.906335 1.18768 0
M  V30 28854 H 2674.79 -4.06805 1.09944 0
M  V30 28855 H 2673.47 -3.22742 0.248864 0
M  V30 28856 H 2672.38 -2.76524 2.51963 0
M  V30 28857 H 2673.71 -3.65143 3.30047 0
M  V30 28858 N 2675.36 -1.22666 -0.989486 0
M  V30 28859 C 2676.61 -1.0512 -1.7261 0
M  V30 28860 C 2676.93 0.414097 -1.90552 0
M  V30 28861 O 2676.2 1.2976 -1.46763 0
M  V30 28862 H 2674.78 -0.385988 -0.639548 0
M  V30 28863 H 2677.44 -1.54234 -1.19155 0
M  V30 28864 H 2676.54 -1.5318 -2.71923 0
M  V30 28865 N 2676.84 1.18685 -1.0369 0
M  V30 28866 C 2677.8 2.20396 -0.629154 0
M  V30 28867 C 2678.8 1.57755 0.311467 0
M  V30 28868 O 2679.99 1.73928 0.0973801 0
M  V30 28869 C 2677.12 3.4081 0.0781632 0
M  V30 28870 H 2678.32 2.57984 -1.52919 0
M  V30 28871 H 2675.87 1.32503 -0.829011 0
M  V30 28872 H 2676.61 3.0875 0.992178 0
M  V30 28873 H 2676.39 3.87515 -0.597845 0
M  V30 28874 H 2677.88 4.1613 0.350082 0
M  V30 28875 N 2678.32 0.815849 1.34839 0
M  V30 28876 C 2679.54 0.412296 2.03261 0
M  V30 28877 C 2679.97 -0.971723 1.61056 0
M  V30 28878 O 2679.33 -1.63099 0.791729 0
M  V30 28879 C 2679.37 0.514351 3.56913 0
M  V30 28880 O 2678.48 -0.468603 4.09729 0
M  V30 28881 H 2677.82 0.170782 0.641661 0
M  V30 28882 H 2680.35 1.1043 1.72239 0
M  V30 28883 H 2680.36 0.387528 4.06155 0
M  V30 28884 H 2679.03 1.52381 3.86979 0
M  V30 28885 H 2677.61 -0.301251 3.71681 0
M  V30 28886 N 2679.8 -1.46924 0.570174 0
M  V30 28887 C 2680.74 -2.31878 -0.183141 0
M  V30 28888 C 2681.74 -1.43721 -0.896695 0
M  V30 28889 O 2682.94 -1.60416 -0.816508 0
M  V30 28890 H 2679.32 -0.747951 -0.0779308 0
M  V30 28891 H 2681.29 -2.93243 0.552363 0
M  V30 28892 C 2680.04 -3.26642 -1.19166 0
M  V30 28893 H 2679.36 -3.94447 -0.652018 0
M  V30 28894 H 2680.8 -3.8889 -1.6894 0
M  V30 28895 C 2679.26 -2.5109 -2.24623 0
M  V30 28896 O 2679.79 -2.26478 -3.31769 0
M  V30 28897 N 2678 -2.11871 -1.98895 0
M  V30 28898 H 2677.54 -2.32087 -1.11773 0
M  V30 28899 H 2677.5 -1.61639 -2.69667 0
M  V30 28900 N 2681.27 -0.307291 -1.54575 0
M  V30 28901 C 2682.2 0.55903 -2.26709 0
M  V30 28902 C 2683.18 1.13277 -1.26895 0
M  V30 28903 O 2684.37 1.16094 -1.55679 0
M  V30 28904 C 2681.5 1.72796 -3.01262 0
M  V30 28905 C 2680.45 1.28428 -4.08277 0
M  V30 28906 C 2679.78 2.53887 -4.7058 0
M  V30 28907 C 2681.08 0.410946 -5.20681 0
M  V30 28908 H 2682.77 -0.0426286 -2.9937 0
M  V30 28909 H 2680.32 -0.0219426 -1.43983 0
M  V30 28910 H 2682.27 2.34017 -3.50448 0
M  V30 28911 H 2681 2.35596 -2.26191 0
M  V30 28912 H 2679.66 0.695098 -3.5995 0
M  V30 28913 H 2679.3 3.15015 -3.92141 0
M  V30 28914 H 2679 2.24899 -5.42858 0
M  V30 28915 H 2680.53 3.15899 -5.22532 0
M  V30 28916 H 2681.94 0.928997 -5.65723 0
M  V30 28917 H 2680.34 0.214559 -5.99716 0
M  V30 28918 H 2681.41 -0.562372 -4.81628 0
M  V30 28919 N 2682.75 1.57561 -0.0351337 0
M  V30 28920 C 2684 1.92332 0.643146 0
M  V30 28921 C 2684.33 0.912398 1.71432 0
M  V30 28922 O 2683.61 -0.0639962 1.94395 0
M  V30 28923 C 2683.89 3.37558 1.25405 0
M  V30 28924 C 2683.74 4.4939 0.19203 0
M  V30 28925 C 2685.06 3.82863 2.17035 0
M  V30 28926 H 2682.18 0.699423 0.232329 0
M  V30 28927 H 2684.82 1.89769 -0.0936222 0
M  V30 28928 H 2682.97 3.39873 1.88199 0
M  V30 28929 H 2684.64 4.59207 -0.43893 0
M  V30 28930 H 2682.89 4.31116 -0.481801 0
M  V30 28931 H 2683.56 5.4805 0.659196 0
M  V30 28932 H 2686.03 3.82323 1.64221 0
M  V30 28933 H 2684.91 4.85161 2.56729 0
M  V30 28934 H 2685.17 3.18707 3.06395 0
M  V30 28935 N 2684.23 -0.238084 1.55791 0
M  V30 28936 C 2685.48 -0.962837 1.77235 0
M  V30 28937 C 2685.79 -1.86148 0.600694 0
M  V30 28938 O 2687 -2.62365 0.698361 0
M  V30 28939 C 2685.45 -1.76213 3.13811 0
M  V30 28940 C 2685.06 -0.910441 4.38651 0
M  V30 28941 C 2686.81 -2.47908 3.44589 0
M  V30 28942 C 2684.71 -1.70613 5.66255 0
M  V30 28943 H 2683.64 -0.363238 0.660737 0
M  V30 28944 H 2686.29 -0.21721 1.8221 0
M  V30 28945 H 2684.68 -2.55004 3.02967 0
M  V30 28946 H 2685.85 -0.164235 4.60507 0
M  V30 28947 H 2684.16 -0.306397 4.15271 0
M  V30 28948 H 2686.76 -3.07909 4.37145 0
M  V30 28949 H 2687.1 -3.19968 2.6632 0
M  V30 28950 H 2687.64 -1.76121 3.56688 0
M  V30 28951 H 2684.38 -1.02911 6.47371 0
M  V30 28952 H 2683.9 -2.42738 5.48487 0
M  V30 28953 H 2685.58 -2.27103 6.05833 0
M  V30 28954 N 2685.71 -1.4932 -0.504115 0
M  V30 28955 C 2686.98 -1.49149 -1.26546 0
M  V30 28956 C 2687.36 -0.217477 -2.09977 0
M  V30 28957 O 2686.71 0.800232 -2.14029 0
M  V30 28958 C 2686.92 -2.7686 -2.12484 0
M  V30 28959 C 2688.27 -3.26226 -2.71775 0
M  V30 28960 O 2689.29 -2.77956 -2.22753 0
M  V30 28961 O 2688.15 -4.10287 -3.61008 0
M  V30 28962 H 2685.25 -0.596817 -0.572485 0
M  V30 28963 H 2687.79 -1.6158 -0.518642 0
M  V30 28964 H 2686.57 -3.61079 -1.50789 0
M  V30 28965 H 2686.19 -2.67275 -2.94364 0
M  V30 28966 N 2687.19 0.754933 -1.38342 0
M  V30 28967 C 2688.12 1.88225 -1.3818 0
M  V30 28968 C 2689.1 1.68284 -0.247902 0
M  V30 28969 O 2690.28 1.88896 -0.450784 0
M  V30 28970 C 2687.41 3.25734 -1.20477 0
M  V30 28971 C 2686.37 3.60274 -2.31056 0
M  V30 28972 C 2685.69 4.96505 -1.9846 0
M  V30 28973 C 2686.99 3.65289 -3.73312 0
M  V30 28974 H 2688.69 1.88618 -2.32516 0
M  V30 28975 H 2686.23 0.906062 -1.11922 0
M  V30 28976 H 2688.18 4.04252 -1.18989 0
M  V30 28977 H 2686.91 3.25817 -0.226023 0
M  V30 28978 H 2685.57 2.84074 -2.31728 0
M  V30 28979 H 2685.22 4.93147 -0.990728 0
M  V30 28980 H 2684.92 5.20584 -2.72519 0
M  V30 28981 H 2686.44 5.77404 -1.98588 0
M  V30 28982 H 2687.85 4.33923 -3.74678 0
M  V30 28983 H 2686.25 4.00875 -4.46564 0
M  V30 28984 H 2687.32 2.65549 -4.05724 0
M  V30 28985 N 2688.66 1.23189 0.982967 0
M  V30 28986 C 2689.91 1.05652 1.71815 0
M  V30 28987 C 2690.23 -0.407142 1.91316 0
M  V30 28988 O 2691.43 -0.70239 2.62257 0
M  V30 28989 C 2689.89 1.84208 3.09185 0
M  V30 28990 C 2689.5 3.34888 2.97581 0
M  V30 28991 C 2691.24 1.75153 3.86681 0
M  V30 28992 C 2689.15 4.05846 4.30166 0
M  V30 28993 H 2688.08 0.391736 0.644251 0
M  V30 28994 H 2690.73 1.47132 1.09656 0
M  V30 28995 H 2689.11 1.35533 3.72084 0
M  V30 28996 H 2690.28 3.91031 2.43786 0
M  V30 28997 H 2688.6 3.44729 2.33561 0
M  V30 28998 H 2691.2 2.25482 4.84832 0
M  V30 28999 H 2691.54 0.713809 4.10135 0
M  V30 29000 H 2692.07 2.21425 3.30478 0
M  V30 29001 H 2688.81 5.09913 4.11909 0
M  V30 29002 H 2688.33 3.54491 4.83835 0
M  V30 29003 H 2690.01 4.11997 4.98866 0
M  V30 29004 N 2690.14 -1.18133 1.04318 0
M  V30 29005 C 2691.07 -2.20684 0.580862 0
M  V30 29006 C 2692.05 -1.57954 -0.385916 0
M  V30 29007 O 2693.24 -1.86104 -0.299621 0
M  V30 29008 C 2690.36 -3.38363 -0.151102 0
M  V30 29009 C 2689.41 -4.19504 0.769321 0
M  V30 29010 S 2690.24 -4.8577 2.25361 0
M  V30 29011 C 2691.4 -6.06847 1.53256 0
M  V30 29012 H 2691.63 -2.59558 1.44972 0
M  V30 29013 H 2689.16 -1.28608 0.854362 0
M  V30 29014 H 2691.12 -4.06562 -0.567244 0
M  V30 29015 H 2689.78 -2.97894 -0.995883 0
M  V30 29016 H 2688.98 -5.03589 0.203424 0
M  V30 29017 H 2688.58 -3.56697 1.12443 0
M  V30 29018 H 2690.87 -6.72434 0.827008 0
M  V30 29019 H 2691.81 -6.67948 2.35056 0
M  V30 29020 H 2692.22 -5.55138 1.0238 0
M  V30 29021 N 2691.62 -0.822988 -1.34405 0
M  V30 29022 C 2692.57 -0.233206 -2.31428 0
M  V30 29023 C 2693.56 0.62609 -1.57405 0
M  V30 29024 O 2694.77 0.517423 -1.72403 0
M  V30 29025 H 2691.14 -0.0566689 -0.749862 0
M  V30 29026 H 2693.11 -1.06633 -2.78697 0
M  V30 29027 C 2691.86 0.590203 -3.42654 0
M  V30 29028 H 2691.19 -0.0616831 -3.99752 0
M  V30 29029 H 2692.63 0.968981 -4.12779 0
M  V30 29030 C 2691.09 1.76257 -2.87115 0
M  V30 29031 O 2691.62 2.86075 -2.82 0
M  V30 29032 N 2689.82 1.57934 -2.43937 0
M  V30 29033 H 2689.37 0.686035 -2.48297 0
M  V30 29034 H 2689.33 2.36528 -2.07127 0
M  V30 29035 N 2693.1 1.4662 -0.577957 0
M  V30 29036 C 2694.06 2.28723 0.147765 0
M  V30 29037 C 2695.06 1.38125 0.8233 0
M  V30 29038 O 2696.25 1.60549 0.675983 0
M  V30 29039 C 2693.38 3.1838 1.21848 0
M  V30 29040 H 2694.58 2.94361 -0.573706 0
M  V30 29041 H 2692.13 1.52652 -0.33573 0
M  V30 29042 H 2692.86 2.57479 1.97168 0
M  V30 29043 H 2692.65 3.8508 0.738647 0
M  V30 29044 H 2694.14 3.80189 1.72761 0
M  V30 29045 N 2694.58 0.315484 1.5441 0
M  V30 29046 C 2695.8 -0.29446 2.05299 0
M  V30 29047 C 2696.23 -1.45628 1.19055 0
M  V30 29048 O 2695.58 -1.80217 0.197835 0
M  V30 29049 C 2695.63 -0.714487 3.53451 0
M  V30 29050 O 2694.74 -1.81774 3.70178 0
M  V30 29051 H 2694.08 -0.0546902 0.661744 0
M  V30 29052 H 2696.61 0.461543 1.99326 0
M  V30 29053 H 2696.62 -0.999357 3.95572 0
M  V30 29054 H 2695.29 0.135317 4.1568 0
M  V30 29055 H 2693.87 -1.5323 3.39963 0
M  V30 29056 N 2696.05 -1.5754 0.0434891 0
M  V30 29057 C 2697.28 -1.97105 -0.645323 0
M  V30 29058 C 2697.7 -0.92055 -1.64035 0
M  V30 29059 O 2697.06 0.117048 -1.80922 0
M  V30 29060 C 2697.11 -3.35752 -1.31541 0
M  V30 29061 O 2696.21 -3.33133 -2.43097 0
M  V30 29062 H 2695.56 -0.642293 -0.168392 0
M  V30 29063 H 2698.09 -2.04306 0.109609 0
M  V30 29064 H 2698.1 -3.72307 -1.66888 0
M  V30 29065 H 2696.77 -4.11749 -0.586133 0
M  V30 29066 H 2695.35 -3.08314 -2.09755 0
M  V30 29067 N 2697.53 0.229818 -1.55915 0
M  V30 29068 C 2698.81 0.979265 -1.69321 0
M  V30 29069 C 2699.19 2.02735 -0.588357 0
M  V30 29070 O 2698.54 2.24867 0.405821 0
M  V30 29071 C 2698.75 1.59718 -3.10308 0
M  V30 29072 C 2700.1 2.09258 -3.69454 0
M  V30 29073 O 2701.12 1.69628 -3.13217 0
M  V30 29074 O 2699.98 2.82074 -4.68077 0
M  V30 29075 H 2697.07 0.456907 -0.689322 0
M  V30 29076 H 2699.62 0.222253 -1.68238 0
M  V30 29077 H 2698.39 0.839972 -3.82178 0
M  V30 29078 H 2698.01 2.41995 -3.15474 0
M  V30 29079 N 2699.01 1.49585 0.49619 0
M  V30 29080 C 2700.43 1.36454 0.82779 0
M  V30 29081 C 2700.63 0.40132 1.97463 0
M  V30 29082 O 2699.68 -0.165251 2.51959 0
M  V30 29083 C 2701 2.77279 1.16347 0
M  V30 29084 C 2702.54 2.86015 1.2714 0
M  V30 29085 C 2703.02 4.27618 1.64034 0
M  V30 29086 N 2704.51 4.30451 1.71074 0
M  V30 29087 C 2705.24 5.36988 2.01076 0
M  V30 29088 N 2704.74 6.53764 2.29269 0
M  V30 29089 N 2706.53 5.24408 2.02367 0
M  V30 29090 H 2698.68 2.10803 -0.259984 0
M  V30 29091 H 2700.95 0.946476 -0.053733 0
M  V30 29092 H 2700.65 3.49485 0.394092 0
M  V30 29093 H 2700.53 3.1295 2.10576 0
M  V30 29094 H 2702.91 2.14044 2.03149 0
M  V30 29095 H 2703 2.53921 0.309498 0
M  V30 29096 H 2702.64 5.00117 0.885742 0
M  V30 29097 H 2702.57 4.57179 2.61332 0
M  V30 29098 H 2705.06 3.46234 1.51427 0
M  V30 29099 H 2705.37 7.30778 2.51363 0
M  V30 29100 H 2703.72 6.56982 2.26715 0
M  V30 29101 H 2706.91 4.32183 1.79822 0
M  V30 29102 H 2707.08 6.0753 2.25414 0
M  V30 29103 N 2700.49 -0.747586 1.3874 0
M  V30 29104 C 2701.73 -1.5091 1.35477 0
M  V30 29105 C 2702.07 -1.94127 -0.0532752 0
M  V30 29106 O 2701.34 -1.65873 -1.01569 0
M  V30 29107 C 2701.63 -2.75753 2.31587 0
M  V30 29108 C 2701.48 -2.38635 3.81279 0
M  V30 29109 C 2702.8 -3.77802 2.25729 0
M  V30 29110 H 2699.92 -0.547439 0.493437 0
M  V30 29111 H 2702.56 -0.855793 1.69635 0
M  V30 29112 H 2700.71 -3.31497 2.02588 0
M  V30 29113 H 2702.38 -1.88619 4.20976 0
M  V30 29114 H 2700.62 -1.71018 3.98667 0
M  V30 29115 H 2701.29 -3.27982 4.43996 0
M  V30 29116 H 2703.77 -3.31612 2.51342 0
M  V30 29117 H 2702.65 -4.6284 2.95077 0
M  V30 29118 H 2702.91 -4.23821 1.25811 0
M  V30 29119 N 2701.97 -1.23709 -0.97642 0
M  V30 29120 C 2703.21 -1.07157 -1.71825 0
M  V30 29121 C 2703.54 0.390948 -1.9053 0
M  V30 29122 O 2702.8 1.30562 -1.45781 0
M  V30 29123 C 2703.1 -1.74668 -3.11811 0
M  V30 29124 C 2702.76 -3.24591 -3.12972 0
M  V30 29125 C 2701.42 -3.65495 -3.12996 0
M  V30 29126 C 2703.78 -4.20475 -3.07978 0
M  V30 29127 C 2701.1 -5.00734 -3.05748 0
M  V30 29128 C 2703.46 -5.55711 -3.02272 0
M  V30 29129 C 2702.12 -5.95973 -3.0062 0
M  V30 29130 H 2701.39 -0.392113 -0.628751 0
M  V30 29131 H 2704.04 -1.53695 -1.14236 0
M  V30 29132 H 2702.34 -1.20499 -3.7281 0
M  V30 29133 H 2704.04 -1.59335 -3.67986 0
M  V30 29134 H 2700.63 -2.92031 -3.13713 0
M  V30 29135 H 2704.81 -3.89879 -3.07096 0
M  V30 29136 H 2700.07 -5.31138 -3.02825 0
M  V30 29137 H 2704.24 -6.2972 -2.97365 0
M  V30 29138 H 2701.87 -7.00729 -2.94759 0
M  V30 29139 N 2703.44 1.17579 -1.04943 0
M  V30 29140 C 2704.39 2.19453 -0.618416 0
M  V30 29141 C 2705.38 1.57184 0.343785 0
M  V30 29142 O 2706.57 1.76262 0.161419 0
M  V30 29143 C 2703.7 3.43299 0.00797812 0
M  V30 29144 C 2702.79 4.12672 -0.977899 0
M  V30 29145 N 2703.18 4.57908 -2.14834 0
M  V30 29146 C 2701.47 4.3866 -0.805825 0
M  V30 29147 C 2702.18 5.11414 -2.77183 0
M  V30 29148 N 2701.15 5.03465 -2.04998 0
M  V30 29149 H 2704.95 2.5213 -1.51023 0
M  V30 29150 H 2702.47 1.33881 -0.919225 0
M  V30 29151 H 2704.46 4.15556 0.334511 0
M  V30 29152 H 2703.12 3.12115 0.895217 0
M  V30 29153 H 2704.14 4.52076 -2.52681 0
M  V30 29154 H 2700.81 4.17489 0.0305772 0
M  V30 29155 H 2702.2 5.56555 -3.76426 0
M  V30 29156 N 2704.92 0.830104 1.33967 0
M  V30 29157 C 2705.83 0.259248 2.33163 0
M  V30 29158 C 2706.85 -0.610135 1.62952 0
M  V30 29159 O 2708.02 -0.516335 1.94669 0
M  V30 29160 C 2705.09 -0.563537 3.42089 0
M  V30 29161 C 2704.15 0.329089 4.28037 0
M  V30 29162 C 2703.38 -0.454522 5.31761 0
M  V30 29163 O 2703.61 -1.68711 5.44879 0
M  V30 29164 O 2702.54 0.1669 6.01669 0
M  V30 29165 H 2706.37 1.08046 2.83831 0
M  V30 29166 H 2703.95 0.592414 1.37153 0
M  V30 29167 H 2705.83 -1.0314 4.08583 0
M  V30 29168 H 2704.51 -1.36196 2.93654 0
M  V30 29169 H 2703.42 0.844602 3.64441 0
M  V30 29170 H 2704.75 1.09205 4.79932 0
M  V30 29171 N 2706.4 -1.46311 0.585725 0
M  V30 29172 C 2707.63 -2.0726 0.0762826 0
M  V30 29173 C 2708.05 -1.43111 -1.22069 0
M  V30 29174 O 2707.41 -0.515973 -1.73803 0
M  V30 29175 C 2707.46 -3.60526 -0.072877 0
M  V30 29176 O 2706.56 -3.96656 -1.12863 0
M  V30 29177 H 2705.9 -0.660892 0.0641674 0
M  V30 29178 H 2708.43 -1.87904 0.809525 0
M  V30 29179 H 2708.44 -4.07051 -0.278086 0
M  V30 29180 H 2707.12 -4.06607 0.874259 0
M  V30 29181 H 2705.69 -3.61835 -0.901639 0
M  V30 29182 N 2707.88 -0.323668 -1.54241 0
M  V30 29183 C 2709.13 0.279771 -1.9975 0
M  V30 29184 C 2709.44 1.53238 -1.21563 0
M  V30 29185 O 2710.65 2.21182 -1.57451 0
M  V30 29186 C 2709.1 0.549052 -3.55687 0
M  V30 29187 C 2708.71 -0.68651 -4.42709 0
M  V30 29188 C 2710.46 1.11244 -4.09665 0
M  V30 29189 C 2708.36 -0.389126 -5.90118 0
M  V30 29190 H 2707.29 0.108317 -0.746179 0
M  V30 29191 H 2709.94 -0.435908 -1.78247 0
M  V30 29192 H 2708.33 1.32492 -3.73178 0
M  V30 29193 H 2709.5 -1.46196 -4.36994 0
M  V30 29194 H 2707.81 -1.17012 -3.99621 0
M  V30 29195 H 2710.41 1.34956 -5.17389 0
M  V30 29196 H 2710.75 2.06184 -3.61654 0
M  V30 29197 H 2711.29 0.397751 -3.95806 0
M  V30 29198 H 2708.03 -1.30771 -6.42323 0
M  V30 29199 H 2707.55 0.348617 -5.98786 0
M  V30 29200 H 2709.23 0.00100267 -6.47 0
M  V30 29201 N 2709.36 1.57515 -0.0518432 0
M  V30 29202 C 2710.29 2.14601 0.920246 0
M  V30 29203 C 2711.27 1.06785 1.32404 0
M  V30 29204 O 2712.45 1.34728 1.39864 0
M  V30 29205 C 2709.58 2.69154 2.19485 0
M  V30 29206 C 2708.54 3.81959 1.93109 0
M  V30 29207 C 2707.86 4.23031 3.2703 0
M  V30 29208 C 2709.16 5.07068 1.25217 0
M  V30 29209 H 2710.86 2.96078 0.444749 0
M  V30 29210 H 2708.4 1.42424 0.212483 0
M  V30 29211 H 2710.36 3.0773 2.87889 0
M  V30 29212 H 2709.08 1.8487 2.69241 0
M  V30 29213 H 2707.74 3.43856 1.27117 0
M  V30 29214 H 2707.39 3.35697 3.74589 0
M  V30 29215 H 2707.09 4.99061 3.1018 0
M  V30 29216 H 2708.61 4.64209 3.96665 0
M  V30 29217 H 2710.03 5.43087 1.83656 0
M  V30 29218 H 2708.42 5.88245 1.18691 0
M  V30 29219 H 2709.49 4.84362 0.228297 0
M  V30 29220 N 2710.84 -0.221546 1.56035 0
M  V30 29221 C 2711.77 -1.27776 1.95436 0
M  V30 29222 C 2712.75 -1.48887 0.82259 0
M  V30 29223 O 2713.93 -1.61071 1.08489 0
M  V30 29224 C 2711.06 -2.62755 2.27106 0
M  V30 29225 C 2710.02 -2.563 3.42774 0
M  V30 29226 C 2709.34 -3.95308 3.60049 0
M  V30 29227 C 2710.64 -2.11084 4.77745 0
M  V30 29228 H 2712.34 -0.950454 2.83913 0
M  V30 29229 H 2709.88 -0.455767 1.36597 0
M  V30 29230 H 2711.83 -3.36803 2.53262 0
M  V30 29231 H 2710.56 -2.97173 1.35483 0
M  V30 29232 H 2709.22 -1.84709 3.16667 0
M  V30 29233 H 2708.87 -4.27034 2.65802 0
M  V30 29234 H 2708.57 -3.91871 4.37848 0
M  V30 29235 H 2710.09 -4.71018 3.88554 0
M  V30 29236 H 2711.5 -2.74876 5.03106 0
M  V30 29237 H 2709.9 -2.18707 5.58827 0
M  V30 29238 H 2710.97 -1.06313 4.73102 0
M  V30 29239 N 2712.31 -1.49846 -0.48825 0
M  V30 29240 C 2713.28 -1.66922 -1.57066 0
M  V30 29241 C 2714.28 -0.540505 -1.51444 0
M  V30 29242 O 2715.47 -0.807215 -1.54369 0
M  V30 29243 C 2712.6 -1.67849 -2.96715 0
M  V30 29244 H 2713.79 -2.63476 -1.43249 0
M  V30 29245 H 2711.34 -1.39069 -0.71341 0
M  V30 29246 H 2712.08 -0.729256 -3.15994 0
M  V30 29247 H 2711.86 -2.49831 -3.02203 0
M  V30 29248 H 2713.35 -1.83073 -3.75332 0
M  V30 29249 N 2713.79 0.740218 -1.39135 0
M  V30 29250 C 2715.04 1.4951 -1.35387 0
M  V30 29251 C 2715.35 1.95538 0.0491556 0
M  V30 29252 O 2716.56 2.70693 0.209209 0
M  V30 29253 C 2715.02 2.70131 -2.37817 0
M  V30 29254 C 2714.62 2.31074 -3.83808 0
M  V30 29255 C 2716.37 3.47973 -2.43136 0
M  V30 29256 C 2714.27 3.48387 -4.77892 0
M  V30 29257 H 2713.2 0.561426 -0.503306 0
M  V30 29258 H 2715.86 0.807945 -1.64756 0
M  V30 29259 H 2714.24 3.40895 -2.01511 0
M  V30 29260 H 2715.41 1.6789 -4.29126 0
M  V30 29261 H 2713.73 1.66336 -3.81735 0
M  V30 29262 H 2716.32 4.35222 -3.10621 0
M  V30 29263 H 2716.67 3.90071 -1.4543 0
M  V30 29264 H 2717.2 2.84234 -2.78309 0
M  V30 29265 H 2713.94 3.11343 -5.76841 0
M  V30 29266 H 2713.46 4.10568 -4.37257 0
M  V30 29267 H 2715.14 4.14791 -4.96545 0
M  V30 29268 N 2715.27 1.24225 0.969846 0
M  V30 29269 C 2716.23 1.03377 2.04563 0
M  V30 29270 C 2717.23 -0.0081638 1.60798 0
M  V30 29271 O 2718.42 0.232597 1.7264 0
M  V30 29272 C 2715.55 0.566402 3.36162 0
M  V30 29273 H 2716.75 1.98857 2.2449 0
M  V30 29274 H 2714.3 1.06417 1.14478 0
M  V30 29275 H 2715.04 -0.391694 3.21926 0
M  V30 29276 H 2714.82 1.3184 3.6927 0
M  V30 29277 H 2716.31 0.441508 4.1526 0
M  V30 29278 N 2716.75 -1.1702 1.05565 0
M  V30 29279 C 2717.68 -2.23347 0.681065 0
M  V30 29280 C 2718.66 -1.67006 -0.322954 0
M  V30 29281 O 2719.84 -1.9317 -0.199712 0
M  V30 29282 C 2716.97 -3.4725 0.0589663 0
M  V30 29283 C 2715.93 -4.16437 0.988155 0
M  V30 29284 C 2715.25 -5.34206 0.22974 0
M  V30 29285 C 2716.55 -4.68245 2.31396 0
M  V30 29286 H 2718.25 -2.54936 1.56997 0
M  V30 29287 H 2715.79 -1.22539 0.756324 0
M  V30 29288 H 2717.75 -4.20852 -0.214908 0
M  V30 29289 H 2716.47 -3.14939 -0.864913 0
M  V30 29290 H 2715.13 -3.44752 1.24666 0
M  V30 29291 H 2714.78 -4.98147 -0.697024 0
M  V30 29292 H 2714.48 -5.81435 0.848917 0
M  V30 29293 H 2716 -6.10589 -0.0367621 0
M  V30 29294 H 2717.42 -5.33464 2.09973 0
M  V30 29295 H 2715.81 -5.26067 2.88745 0
M  V30 29296 H 2716.88 -3.8485 2.94989 0
M  V30 29297 N 2718.23 -0.837197 -1.33524 0
M  V30 29298 C 2719.16 -0.284246 -2.31763 0
M  V30 29299 C 2720.14 0.607114 -1.58897 0
M  V30 29300 O 2721.32 0.531015 -1.86799 0
M  V30 29301 C 2718.45 0.542901 -3.4303 0
M  V30 29302 C 2717.41 -0.252526 -4.27254 0
M  V30 29303 C 2716.73 0.698266 -5.30121 0
M  V30 29304 C 2718.03 -1.46866 -5.01226 0
M  V30 29305 H 2719.73 -1.10507 -2.7826 0
M  V30 29306 H 2717.27 -0.532836 -1.33779 0
M  V30 29307 H 2719.22 0.940024 -4.10782 0
M  V30 29308 H 2717.95 1.39692 -2.95218 0
M  V30 29309 H 2716.61 -0.631188 -3.61125 0
M  V30 29310 H 2716.26 1.54864 -4.78567 0
M  V30 29311 H 2715.96 0.170171 -5.87354 0
M  V30 29312 H 2717.48 1.09294 -6.00739 0
M  V30 29313 H 2718.89 -1.14479 -5.61754 0
M  V30 29314 H 2717.29 -1.93343 -5.68101 0
M  V30 29315 H 2718.36 -2.23932 -4.30096 0
M  V30 29316 N 2719.7 1.45999 -0.593476 0
M  V30 29317 C 2720.61 2.34207 0.135776 0
M  V30 29318 C 2721.63 1.504 0.874982 0
M  V30 29319 O 2722.81 1.83241 0.835746 0
M  V30 29320 C 2719.87 3.27778 1.12971 0
M  V30 29321 C 2718.93 4.27488 0.394006 0
M  V30 29322 C 2718.16 5.16589 1.34059 0
M  V30 29323 O 2718.39 5.08832 2.57771 0
M  V30 29324 O 2717.32 5.95934 0.845322 0
M  V30 29325 H 2721.15 2.97939 -0.588743 0
M  V30 29326 H 2718.73 1.4515 -0.35381 0
M  V30 29327 H 2720.61 3.85476 1.70254 0
M  V30 29328 H 2719.29 2.66628 1.83551 0
M  V30 29329 H 2718.2 3.73447 -0.220934 0
M  V30 29330 H 2719.53 4.91453 -0.271026 0
M  V30 29331 N 2721.18 0.331843 1.54067 0
M  V30 29332 C 2722.43 -0.267704 2.00319 0
M  V30 29333 C 2722.75 -1.52001 1.22151 0
M  V30 29334 O 2722.02 -1.93176 0.325527 0
M  V30 29335 H 2720.6 -0.101909 0.740016 0
M  V30 29336 H 2723.26 0.4503 1.89627 0
M  V30 29337 H 2722.36 -0.518331 3.07766 0
M  V30 29338 N 2722.66 -1.57485 0.0601958 0
M  V30 29339 C 2723.91 -1.92663 -0.610353 0
M  V30 29340 C 2724.23 -0.940011 -1.70847 0
M  V30 29341 O 2723.5 0.013711 -1.95895 0
M  V30 29342 H 2722.08 -0.711212 -0.228445 0
M  V30 29343 H 2724.74 -1.94559 0.115322 0
M  V30 29344 H 2723.84 -2.94151 -1.04315 0
M  V30 29345 N 2724.14 0.213268 -1.5615 0
M  V30 29346 C 2725.09 1.28391 -1.93955 0
M  V30 29347 C 2726.08 1.48086 -0.822618 0
M  V30 29348 O 2727.29 1.49162 -1.00751 0
M  V30 29349 H 2723.66 0.430635 -0.616488 0
M  V30 29350 H 2725.63 0.937927 -2.83276 0
M  V30 29351 C 2724.38 2.62533 -2.27973 0
M  V30 29352 H 2723.7 2.48188 -3.13437 0
M  V30 29353 H 2725.14 3.36238 -2.58303 0
M  V30 29354 C 2723.6 3.18165 -1.10781 0
M  V30 29355 O 2724.13 3.99962 -0.373272 0
M  V30 29356 N 2722.34 2.76654 -0.889426 0
M  V30 29357 H 2721.89 2.10244 -1.48847 0
M  V30 29358 H 2721.84 3.14218 -0.107055 0
M  V30 29359 N 2725.62 1.50103 0.480296 0
M  V30 29360 C 2726.84 1.64373 1.25654 0
M  V30 29361 C 2727.26 0.323349 1.8601 0
M  V30 29362 O 2726.62 -0.693652 1.68804 0
M  V30 29363 C 2726.67 2.72804 2.37192 0
M  V30 29364 O 2726.39 3.99723 1.79313 0
M  V30 29365 C 2727.89 2.97966 3.28225 0
M  V30 29366 H 2725.11 0.552782 0.380359 0
M  V30 29367 H 2727.65 1.96269 0.574344 0
M  V30 29368 H 2725.81 2.43629 3.01204 0
M  V30 29369 H 2726.22 4.59616 2.52693 0
M  V30 29370 H 2727.7 3.7752 4.02719 0
M  V30 29371 H 2728.17 2.08678 3.86459 0
M  V30 29372 H 2728.78 3.28637 2.69958 0
M  V30 29373 N 2727.09 -0.732829 1.39526 0
M  V30 29374 C 2728.32 -1.52206 1.40146 0
M  V30 29375 C 2728.74 -1.888 -0.00345517 0
M  V30 29376 O 2728.09 -1.54252 -0.97533 0
M  V30 29377 C 2728.15 -2.80826 2.27637 0
M  V30 29378 O 2727.87 -2.45786 3.62658 0
M  V30 29379 C 2729.37 -3.7484 2.36664 0
M  V30 29380 H 2726.59 -0.470289 0.478612 0
M  V30 29381 H 2729.13 -0.905356 1.83367 0
M  V30 29382 H 2727.29 -3.38823 1.87824 0
M  V30 29383 H 2727.7 -3.28424 4.08947 0
M  V30 29384 H 2729.17 -4.61978 3.02126 0
M  V30 29385 H 2729.65 -4.16742 1.38645 0
M  V30 29386 H 2730.26 -3.22761 2.76957 0
M  V30 29387 N 2728.57 -1.24737 -0.963244 0
M  V30 29388 C 2729.82 -1.08372 -1.70113 0
M  V30 29389 C 2730.13 0.376654 -1.91939 0
M  V30 29390 O 2731.34 0.660578 -2.63341 0
M  V30 29391 C 2729.8 -1.89104 -3.06215 0
M  V30 29392 C 2729.4 -3.3958 -2.92215 0
M  V30 29393 C 2731.15 -1.81282 -3.83845 0
M  V30 29394 C 2729.06 -4.12639 -4.23655 0
M  V30 29395 H 2727.99 -0.401936 -0.637937 0
M  V30 29396 H 2730.64 -1.48858 -1.07301 0
M  V30 29397 H 2729.02 -1.41436 -3.69881 0
M  V30 29398 H 2730.19 -3.9486 -2.37534 0
M  V30 29399 H 2728.51 -3.48401 -2.28047 0
M  V30 29400 H 2731.1 -2.33166 -4.81184 0
M  V30 29401 H 2731.45 -0.778967 -4.08947 0
M  V30 29402 H 2731.98 -2.26655 -3.26914 0
M  V30 29403 H 2728.72 -5.16402 -4.03744 0
M  V30 29404 H 2728.24 -3.62143 -4.78134 0
M  V30 29405 H 2729.92 -4.19882 -4.92248 0
M  V30 29406 N 2730.05 1.16459 -1.06184 0
M  V30 29407 C 2730.98 2.20382 -0.629623 0
M  V30 29408 C 2732 1.59786 0.311805 0
M  V30 29409 O 2733.18 1.78203 0.102968 0
M  V30 29410 C 2730.28 3.3876 0.0973099 0
M  V30 29411 C 2729.46 4.28916 -0.857327 0
M  V30 29412 C 2728.52 5.25926 -0.169841 0
M  V30 29413 O 2727.54 5.63448 -0.807143 0
M  V30 29414 N 2728.74 5.70194 1.08901 0
M  V30 29415 H 2731.51 2.58085 -1.52356 0
M  V30 29416 H 2729.07 1.31457 -0.945016 0
M  V30 29417 H 2731.06 4.007 0.567606 0
M  V30 29418 H 2729.63 2.99572 0.89304 0
M  V30 29419 H 2728.85 3.64256 -1.50702 0
M  V30 29420 H 2730.14 4.86033 -1.50498 0
M  V30 29421 H 2729.54 5.418 1.62694 0
M  V30 29422 H 2728.1 6.3423 1.5032 0
M  V30 29423 N 2731.53 0.844266 1.33079 0
M  V30 29424 C 2732.48 0.253329 2.26588 0
M  V30 29425 C 2733.46 -0.59481 1.49502 0
M  V30 29426 O 2734.65 -0.445894 1.71292 0
M  V30 29427 C 2731.78 -0.566117 3.386 0
M  V30 29428 C 2730.87 0.293831 4.23081 0
M  V30 29429 N 2731.26 1.37513 4.86748 0
M  V30 29430 C 2729.56 0.081787 4.45925 0
M  V30 29431 C 2730.26 1.90332 5.4968 0
M  V30 29432 N 2729.24 1.204 5.30099 0
M  V30 29433 H 2733.04 1.08014 2.73332 0
M  V30 29434 H 2730.55 0.689284 1.47046 0
M  V30 29435 H 2732.55 -1.0058 4.04585 0
M  V30 29436 H 2731.21 -1.39084 2.93404 0
M  V30 29437 H 2732.22 1.75804 4.87148 0
M  V30 29438 H 2728.9 -0.709056 4.11435 0
M  V30 29439 H 2730.29 2.80913 6.10359 0
M  V30 29440 N 2733.01 -1.45682 0.60121 0
M  V30 29441 C 2734.23 -2.07167 0.0982609 0
M  V30 29442 C 2734.66 -1.44398 -1.20544 0
M  V30 29443 O 2734.01 -0.534378 -1.73246 0
M  V30 29444 C 2734.06 -3.60583 -0.0346342 0
M  V30 29445 O 2733.17 -3.9783 -1.0865 0
M  V30 29446 H 2732.51 -0.660174 0.0711734 0
M  V30 29447 H 2735.04 -1.87035 0.829409 0
M  V30 29448 H 2735.05 -4.07323 -0.234897 0
M  V30 29449 H 2733.72 -4.05657 0.917336 0
M  V30 29450 H 2732.3 -3.62771 -0.863211 0
M  V30 29451 N 2734.48 -0.340009 -1.53889 0
M  V30 29452 C 2735.73 0.257586 -2.00855 0
M  V30 29453 C 2736.06 1.5084 -1.22791 0
M  V30 29454 O 2735.31 1.93346 -0.302601 0
M  V30 29455 C 2735.61 0.620673 -3.51969 0
M  V30 29456 C 2735.28 -0.53285 -4.4774 0
M  V30 29457 C 2733.94 -0.849423 -4.73644 0
M  V30 29458 C 2736.29 -1.30689 -5.04549 0
M  V30 29459 C 2733.62 -1.94247 -5.53611 0
M  V30 29460 C 2735.97 -2.39015 -5.85708 0
M  V30 29461 C 2734.64 -2.71236 -6.09908 0
M  V30 29462 H 2733.91 0.0942573 -0.734981 0
M  V30 29463 H 2736.55 -0.467192 -1.85714 0
M  V30 29464 H 2734.86 1.42611 -3.64924 0
M  V30 29465 H 2736.56 1.09488 -3.85763 0
M  V30 29466 H 2733.15 -0.276048 -4.2771 0
M  V30 29467 H 2737.33 -1.07557 -4.84505 0
M  V30 29468 H 2732.59 -2.19638 -5.70587 0
M  V30 29469 H 2736.76 -2.99426 -6.28742 0
M  V30 29470 H 2734.39 -3.56059 -6.71659 0
M  V30 29471 N 2735.96 1.57451 -0.0685468 0
M  V30 29472 C 2737.21 1.93366 0.601314 0
M  V30 29473 C 2737.54 0.948323 1.69815 0
M  V30 29474 O 2736.79 -0.0365855 1.95666 0
M  V30 29475 C 2737.09 3.35916 1.22045 0
M  V30 29476 C 2736.76 4.50206 0.250086 0
M  V30 29477 C 2735.42 4.81197 -0.0168799 0
M  V30 29478 C 2737.77 5.19553 -0.413959 0
M  V30 29479 C 2735.1 5.78875 -0.955032 0
M  V30 29480 C 2737.45 6.18236 -1.34041 0
M  V30 29481 C 2736.12 6.47646 -1.61588 0
M  V30 29482 H 2735.39 0.707577 0.220036 0
M  V30 29483 H 2738.03 1.90997 -0.138731 0
M  V30 29484 H 2736.34 3.34735 2.03616 0
M  V30 29485 H 2738.04 3.60993 1.74599 0
M  V30 29486 H 2734.63 4.26033 0.468346 0
M  V30 29487 H 2738.81 4.95809 -0.22082 0
M  V30 29488 H 2734.07 5.99989 -1.17574 0
M  V30 29489 H 2738.24 6.71076 -1.86093 0
M  V30 29490 H 2735.87 7.23146 -2.34444 0
M  V30 29491 N 2737.44 -0.204984 1.56261 0
M  V30 29492 C 2738.68 -0.933774 1.81824 0
M  V30 29493 C 2739.05 -1.80857 0.644566 0
M  V30 29494 O 2740.25 -2.57238 0.779864 0
M  V30 29495 C 2738.52 -1.73674 3.12365 0
M  V30 29496 S 2740.08 -2.5189 3.593 0
M  V30 29497 H 2736.89 -0.313374 0.638214 0
M  V30 29498 H 2739.5 -0.197967 1.94495 0
M  V30 29499 H 2738.2 -1.08452 3.95811 0
M  V30 29500 H 2737.73 -2.51455 3.02546 0
M  V30 29501 H 2739.75 -3.75859 3.23952 0
M  V30 29502 N 2738.92 -1.50356 -0.472329 0
M  V30 29503 C 2740.34 -1.37754 -0.805977 0
M  V30 29504 C 2740.54 -0.432684 -1.968 0
M  V30 29505 O 2739.59 0.125146 -2.5219 0
M  V30 29506 C 2740.9 -2.79095 -1.11921 0
M  V30 29507 C 2742.45 -2.88001 -1.22574 0
M  V30 29508 C 2742.93 -4.30173 -1.5721 0
M  V30 29509 N 2744.42 -4.33118 -1.64204 0
M  V30 29510 C 2745.15 -5.40119 -1.92507 0
M  V30 29511 N 2744.65 -6.57329 -2.18839 0
M  V30 29512 N 2746.44 -5.27561 -1.93999 0
M  V30 29513 H 2738.59 -2.10363 0.293488 0
M  V30 29514 H 2740.86 -0.945501 0.0687838 0
M  V30 29515 H 2740.56 -3.50068 -0.338442 0
M  V30 29516 H 2740.44 -3.1626 -2.05571 0
M  V30 29517 H 2742.82 -2.17248 -1.99718 0
M  V30 29518 H 2742.9 -2.54381 -0.269062 0
M  V30 29519 H 2742.55 -5.01463 -0.806066 0
M  V30 29520 H 2742.48 -4.61279 -2.54026 0
M  V30 29521 H 2744.97 -3.48599 -1.459 0
M  V30 29522 H 2745.28 -7.34685 -2.39705 0
M  V30 29523 H 2743.63 -6.60506 -2.16234 0
M  V30 29524 H 2746.82 -4.34989 -1.72923 0
M  V30 29525 H 2746.99 -6.11039 -2.15721 0
M  V30 29526 N 2740.4 0.725419 -1.39912 0
M  V30 29527 C 2741.33 1.85252 -1.42141 0
M  V30 29528 C 2742.31 1.6772 -0.283542 0
M  V30 29529 O 2743.49 1.87897 -0.49075 0
M  V30 29530 C 2740.62 3.23105 -1.27359 0
M  V30 29531 C 2739.58 3.55291 -2.38646 0
M  V30 29532 C 2738.9 4.92184 -2.08947 0
M  V30 29533 C 2740.2 3.57288 -3.80976 0
M  V30 29534 H 2741.9 1.83644 -2.36464 0
M  V30 29535 H 2739.44 0.882118 -1.13819 0
M  V30 29536 H 2741.4 4.01637 -1.27537 0
M  V30 29537 H 2740.12 3.25264 -0.295083 0
M  V30 29538 H 2738.78 2.79094 -2.37701 0
M  V30 29539 H 2738.43 4.90934 -1.09511 0
M  V30 29540 H 2738.13 5.14686 -2.835 0
M  V30 29541 H 2739.65 5.73061 -2.10791 0
M  V30 29542 H 2741.07 4.25878 -3.83798 0
M  V30 29543 H 2739.46 3.91312 -4.54967 0
M  V30 29544 H 2740.53 2.56883 -4.11265 0
M  V30 29545 N 2741.88 1.25246 0.956615 0
M  V30 29546 C 2743.1 1.12611 1.73569 0
M  V30 29547 C 2743.52 -0.320292 1.86063 0
M  V30 29548 O 2742.88 -1.22039 1.35693 0
M  V30 29549 C 2742.93 1.77274 3.1505 0
M  V30 29550 O 2742.65 3.1626 3.03169 0
M  V30 29551 C 2744.15 1.70393 4.09245 0
M  V30 29552 H 2741.37 0.392888 0.543948 0
M  V30 29553 H 2743.91 1.6557 1.20028 0
M  V30 29554 H 2742.07 1.2829 3.65541 0
M  V30 29555 H 2742.48 3.48022 3.92404 0
M  V30 29556 H 2743.96 2.203 5.06134 0
M  V30 29557 H 2744.43 0.667315 4.34101 0
M  V30 29558 H 2745.04 2.18855 3.64668 0
M  V30 29559 N 2743.35 -1.15894 1.068 0
M  V30 29560 C 2744.26 -2.24081 0.694603 0
M  V30 29561 C 2745.28 -1.71538 -0.291657 0
M  V30 29562 O 2746.46 -2.00915 -0.139688 0
M  V30 29563 C 2743.52 -3.46577 0.0921623 0
M  V30 29564 C 2742.58 -4.14135 1.13095 0
M  V30 29565 C 2741.81 -5.30784 0.557158 0
M  V30 29566 O 2742.04 -5.66927 -0.628523 0
M  V30 29567 O 2740.97 -5.87708 1.29934 0
M  V30 29568 H 2744.8 -2.58341 1.59668 0
M  V30 29569 H 2742.38 -1.23508 0.840597 0
M  V30 29570 H 2744.26 -4.20706 -0.24181 0
M  V30 29571 H 2742.94 -3.14079 -0.783315 0
M  V30 29572 H 2741.85 -3.41954 1.51718 0
M  V30 29573 H 2743.18 -4.507 1.97813 0
M  V30 29574 N 2744.83 -0.851312 -1.32629 0
M  V30 29575 C 2746.11 -0.374482 -1.91982 0
M  V30 29576 C 2746.49 1.14158 -1.7757 0
M  V30 29577 O 2745.84 1.9617 -1.17174 0
M  V30 29578 C 2746.05 -0.835148 -3.3886 0
M  V30 29579 C 2747.39 -0.850383 -4.15997 0
M  V30 29580 O 2748.42 -0.779566 -3.47565 0
M  V30 29581 O 2747.28 -0.949575 -5.38187 0
M  V30 29582 H 2744.37 -0.108554 -0.819845 0
M  V30 29583 H 2746.92 -0.937991 -1.41421 0
M  V30 29584 H 2745.69 -1.8782 -3.43278 0
M  V30 29585 H 2745.31 -0.248902 -3.9682 0
M  V30 29586 N 2746.31 1.45361 -0.608928 0
M  V30 29587 C 2747.26 2.30542 0.109131 0
M  V30 29588 C 2748.23 1.42183 0.858679 0
M  V30 29589 O 2749.41 1.7111 0.844148 0
M  V30 29590 C 2746.55 3.27111 1.09965 0
M  V30 29591 C 2745.66 4.30573 0.350836 0
M  V30 29592 C 2744.8 5.1425 1.33119 0
M  V30 29593 C 2743.84 6.09438 0.57027 0
M  V30 29594 N 2742.98 6.8589 1.49998 0
M  V30 29595 H 2747.82 2.9141 -0.623246 0
M  V30 29596 H 2745.35 1.43596 -0.319147 0
M  V30 29597 H 2747.31 3.81567 1.68708 0
M  V30 29598 H 2745.94 2.67994 1.79942 0
M  V30 29599 H 2744.99 3.78767 -0.35212 0
M  V30 29600 H 2746.3 4.98209 -0.242812 0
M  V30 29601 H 2745.46 5.73113 1.99064 0
M  V30 29602 H 2744.2 4.46636 1.95877 0
M  V30 29603 H 2743.2 5.49704 -0.102798 0
M  V30 29604 H 2744.43 6.7908 -0.05228 0
M  V30 29605 H 2742.37 6.20964 2.11518 0
M  V30 29606 H 2742.29 7.49883 0.959802 0
M  V30 29607 H 2743.56 7.49293 2.14896 0
M  V30 29608 N 2747.79 0.348166 1.53706 0
M  V30 29609 C 2748.73 -0.506478 2.25174 0
M  V30 29610 C 2749.7 -1.09179 1.25176 0
M  V30 29611 O 2750.89 -1.12755 1.53919 0
M  V30 29612 C 2748.03 -1.64918 3.03144 0
M  V30 29613 C 2747.14 -1.09073 4.18004 0
M  V30 29614 C 2746.28 -2.20111 4.83451 0
M  V30 29615 C 2745.32 -1.61641 5.90372 0
M  V30 29616 N 2744.45 -2.6644 6.4958 0
M  V30 29617 H 2749.29 0.109505 2.97799 0
M  V30 29618 H 2746.83 0.0658124 1.46953 0
M  V30 29619 H 2748.79 -2.32199 3.46612 0
M  V30 29620 H 2747.42 -2.23608 2.32807 0
M  V30 29621 H 2746.47 -0.308717 3.79145 0
M  V30 29622 H 2747.78 -0.623091 4.94893 0
M  V30 29623 H 2746.94 -2.95248 5.30013 0
M  V30 29624 H 2745.68 -2.7022 4.05996 0
M  V30 29625 H 2744.68 -0.850114 5.43188 0
M  V30 29626 H 2745.91 -1.12378 6.69737 0
M  V30 29627 H 2743.85 -3.15795 5.74987 0
M  V30 29628 H 2743.77 -2.24312 7.21956 0
M  V30 29629 H 2745.04 -3.41332 7.00795 0
M  V30 29630 N 2749.27 -1.57412 0.0768958 0
M  V30 29631 C 2750.49 -1.98429 -0.603369 0
M  V30 29632 C 2750.92 -0.955137 -1.62046 0
M  V30 29633 O 2750.27 0.0786459 -1.81129 0
M  V30 29634 C 2750.32 -3.38466 -1.2439 0
M  V30 29635 O 2749.43 -3.38214 -2.35976 0
M  V30 29636 H 2748.77 -0.64572 -0.15473 0
M  V30 29637 H 2751.3 -2.04028 0.152921 0
M  V30 29638 H 2751.31 -3.75763 -1.58954 0
M  V30 29639 H 2749.98 -4.129 -0.498663 0
M  V30 29640 H 2748.56 -3.12693 -2.03168 0
M  V30 29641 N 2750.74 0.196695 -1.56368 0
M  V30 29642 C 2751.65 1.26426 -1.9762 0
M  V30 29643 C 2752.67 1.49894 -0.883624 0
M  V30 29644 O 2753.85 1.62539 -1.18924 0
M  V30 29645 C 2750.91 2.58891 -2.306 0
M  V30 29646 C 2749.97 2.4351 -3.53556 0
M  V30 29647 C 2749.21 3.69658 -3.84953 0
M  V30 29648 O 2749.43 4.73758 -3.17663 0
M  V30 29649 O 2748.36 3.65283 -4.78385 0
M  V30 29650 H 2752.19 0.944182 -2.8865 0
M  V30 29651 H 2749.77 0.401566 -1.43902 0
M  V30 29652 H 2751.66 3.37079 -2.52895 0
M  V30 29653 H 2750.33 2.9053 -1.42738 0
M  V30 29654 H 2749.24 1.63439 -3.36509 0
M  V30 29655 H 2750.57 2.16804 -4.41879 0
M  V30 29656 N 2752.22 1.50604 0.464349 0
M  V30 29657 C 2753.17 1.69959 1.56149 0
M  V30 29658 C 2754.14 0.540938 1.57045 0
M  V30 29659 O 2755.32 0.772289 1.74472 0
M  V30 29660 C 2752.46 1.80591 2.94076 0
M  V30 29661 C 2751.58 3.08002 3.02917 0
M  V30 29662 C 2750.71 3.09389 4.31801 0
M  V30 29663 C 2749.75 4.31225 4.34409 0
M  V30 29664 N 2748.89 4.30314 5.54774 0
M  V30 29665 H 2753.73 2.63623 1.3895 0
M  V30 29666 H 2751.27 1.30675 0.675459 0
M  V30 29667 H 2753.22 1.84737 3.7407 0
M  V30 29668 H 2751.85 0.903611 3.09895 0
M  V30 29669 H 2750.91 3.13295 2.15755 0
M  V30 29670 H 2752.22 3.97968 3.00705 0
M  V30 29671 H 2751.37 3.12301 5.20147 0
M  V30 29672 H 2750.11 2.17265 4.36632 0
M  V30 29673 H 2749.12 4.28518 3.44459 0
M  V30 29674 H 2750.34 5.24584 4.31264 0
M  V30 29675 H 2748.29 3.41047 5.60378 0
M  V30 29676 H 2748.2 5.14056 5.5433 0
M  V30 29677 H 2749.47 4.37381 6.45227 0
M  V30 29678 N 2753.7 -0.717989 1.40295 0
M  V30 29679 C 2754.95 -1.47783 1.38443 0
M  V30 29680 C 2755.28 -1.94495 -0.0140497 0
M  V30 29681 O 2754.53 -1.68332 -0.998135 0
M  V30 29682 C 2754.83 -2.7202 2.31819 0
M  V30 29683 C 2754.5 -2.44086 3.79121 0
M  V30 29684 C 2753.16 -2.36178 4.19253 0
M  V30 29685 C 2755.51 -2.20593 4.72216 0
M  V30 29686 C 2752.84 -2.02842 5.5052 0
M  V30 29687 C 2755.19 -1.8877 6.03779 0
M  V30 29688 C 2753.85 -1.79342 6.42956 0
M  V30 29689 H 2753.12 -0.540777 0.506598 0
M  V30 29690 H 2755.77 -0.822632 1.72931 0
M  V30 29691 H 2754.08 -3.42366 1.90507 0
M  V30 29692 H 2755.77 -3.30102 2.2767 0
M  V30 29693 H 2752.36 -2.51127 3.47323 0
M  V30 29694 H 2756.55 -2.25661 4.4203 0
M  V30 29695 H 2751.8 -1.94078 5.79779 0
M  V30 29696 H 2755.98 -1.69605 6.75431 0
M  V30 29697 H 2753.6 -1.53278 7.44587 0
M  V30 29698 N 2755.18 -1.25752 -0.94996 0
M  V30 29699 C 2756.43 -1.10777 -1.69513 0
M  V30 29700 C 2756.75 0.350446 -1.91317 0
M  V30 29701 O 2756.01 1.2744 -1.48518 0
M  V30 29702 C 2756.31 -1.81242 -3.08036 0
M  V30 29703 C 2755.97 -3.31156 -3.06017 0
M  V30 29704 C 2754.64 -3.72052 -3.05173 0
M  V30 29705 C 2756.99 -4.26913 -2.9899 0
M  V30 29706 C 2754.32 -5.07107 -2.95058 0
M  V30 29707 C 2756.67 -5.61997 -2.90416 0
M  V30 29708 C 2755.33 -6.02215 -2.87911 0
M  V30 29709 H 2754.6 -0.405362 -0.620292 0
M  V30 29710 H 2757.25 -1.56084 -1.10951 0
M  V30 29711 H 2755.55 -1.2838 -3.7017 0
M  V30 29712 H 2757.25 -1.67104 -3.64523 0
M  V30 29713 H 2753.84 -2.9862 -3.07448 0
M  V30 29714 H 2758.02 -3.96306 -2.98757 0
M  V30 29715 H 2753.28 -5.37442 -2.9149 0
M  V30 29716 H 2757.45 -6.35885 -2.83941 0
M  V30 29717 H 2755.08 -7.06824 -2.79829 0
M  V30 29718 N 2756.66 1.15326 -1.07413 0
M  V30 29719 C 2757.6 2.20086 -0.695034 0
M  V30 29720 C 2758.57 1.63107 0.313875 0
M  V30 29721 O 2759.76 1.89747 0.200182 0
M  V30 29722 C 2756.9 3.44956 -0.0996825 0
M  V30 29723 C 2756.01 4.16131 -1.16014 0
M  V30 29724 C 2755.15 5.28552 -0.529729 0
M  V30 29725 C 2754.19 5.91545 -1.57293 0
M  V30 29726 N 2753.32 6.95436 -0.965055 0
M  V30 29727 H 2758.16 2.51864 -1.59274 0
M  V30 29728 H 2755.7 1.23693 -0.796137 0
M  V30 29729 H 2757.66 4.16369 0.263124 0
M  V30 29730 H 2756.29 3.13692 0.761379 0
M  V30 29731 H 2755.34 3.43207 -1.64051 0
M  V30 29732 H 2756.65 4.59057 -1.95109 0
M  V30 29733 H 2755.81 6.06592 -0.114593 0
M  V30 29734 H 2754.54 4.86819 0.292984 0
M  V30 29735 H 2753.55 5.12217 -1.99784 0
M  V30 29736 H 2754.77 6.35355 -2.39794 0
M  V30 29737 H 2752.72 6.55797 -0.163256 0
M  V30 29738 H 2752.64 7.36794 -1.69324 0
M  V30 29739 H 2753.91 7.77373 -0.575442 0
M  V30 29740 N 2758.13 0.858334 1.32176 0
M  V30 29741 C 2759.38 0.464205 1.97416 0
M  V30 29742 C 2759.71 -0.978484 1.67748 0
M  V30 29743 O 2758.99 -1.68719 0.967684 0
M  V30 29744 C 2759.27 0.708156 3.53068 0
M  V30 29745 C 2759.12 2.19953 3.92353 0
M  V30 29746 C 2760.44 0.166958 4.39783 0
M  V30 29747 H 2757.56 0.170132 0.717094 0
M  V30 29748 H 2760.2 1.07743 1.56497 0
M  V30 29749 H 2758.35 0.186197 3.88054 0
M  V30 29750 H 2760.03 2.78785 3.67528 0
M  V30 29751 H 2758.27 2.67662 3.41379 0
M  V30 29752 H 2758.94 2.32091 5.00837 0
M  V30 29753 H 2761.42 0.613358 4.11555 0
M  V30 29754 H 2760.29 0.367189 5.4767 0
M  V30 29755 H 2760.55 -0.930483 4.32197 0
M  V30 29756 N 2759.61 -1.45036 0.616628 0
M  V30 29757 C 2760.86 -2.02171 0.115366 0
M  V30 29758 C 2761.19 -1.48385 -1.25746 0
M  V30 29759 O 2760.44 -0.652262 -1.8451 0
M  V30 29760 C 2760.74 -3.57382 0.0357457 0
M  V30 29761 C 2760.41 -4.30359 1.34543 0
M  V30 29762 C 2759.07 -4.50013 1.70416 0
M  V30 29763 C 2761.42 -4.71999 2.21057 0
M  V30 29764 C 2758.75 -5.08565 2.92538 0
M  V30 29765 C 2761.1 -5.31902 3.42437 0
M  V30 29766 C 2759.77 -5.49778 3.78551 0
M  V30 29767 H 2759.04 -0.739796 0.0422154 0
M  V30 29768 H 2761.68 -1.73987 0.800051 0
M  V30 29769 H 2759.99 -3.84897 -0.732246 0
M  V30 29770 H 2761.68 -3.99304 -0.368393 0
M  V30 29771 H 2758.27 -4.15382 1.05623 0
M  V30 29772 H 2762.46 -4.5654 1.9464 0
M  V30 29773 H 2757.71 -5.20593 3.20614 0
M  V30 29774 H 2761.89 -5.6312 4.09718 0
M  V30 29775 H 2759.52 -5.94915 4.73265 0
M  V30 29776 N 2761.09 -0.356312 -1.53519 0
M  V30 29777 C 2762.32 0.236947 -2.05237 0
M  V30 29778 C 2762.73 1.43746 -1.23019 0
M  V30 29779 O 2762.07 1.81829 -0.261532 0
M  V30 29780 C 2762.13 0.703438 -3.52551 0
M  V30 29781 C 2761.8 -0.379139 -4.55425 0
M  V30 29782 C 2762.79 -1.22601 -5.05238 0
M  V30 29783 C 2760.48 -0.536726 -4.99424 0
M  V30 29784 C 2762.47 -2.21589 -5.97643 0
M  V30 29785 C 2760.16 -1.52999 -5.91637 0
M  V30 29786 C 2761.16 -2.36801 -6.40636 0
M  V30 29787 O 2760.85 -3.34434 -7.31033 0
M  V30 29788 H 2760.58 0.0472422 -0.674347 0
M  V30 29789 H 2763.13 -0.510273 -1.98961 0
M  V30 29790 H 2761.36 1.50211 -3.56333 0
M  V30 29791 H 2763.05 1.21867 -3.87174 0
M  V30 29792 H 2763.82 -1.11541 -4.72 0
M  V30 29793 H 2759.7 0.105753 -4.60879 0
M  V30 29794 H 2763.24 -2.87036 -6.35811 0
M  V30 29795 H 2759.14 -1.6411 -6.2429 0
M  V30 29796 H 2759.91 -3.30054 -7.49004 0
M  V30 29797 N 2762.57 1.57369 -0.0852427 0
M  V30 29798 C 2763.85 1.8543 0.622502 0
M  V30 29799 C 2764.23 0.980262 1.8696 0
M  V30 29800 O 2763.57 0.0500621 2.28445 0
M  V30 29801 C 2763.78 3.35897 0.947314 0
M  V30 29802 C 2765.13 4.03723 1.31502 0
M  V30 29803 O 2766.16 3.40721 1.03863 0
M  V30 29804 O 2765.01 5.14871 1.83222 0
M  V30 29805 H 2762.11 0.766498 0.3105 0
M  V30 29806 H 2764.65 1.69295 -0.117194 0
M  V30 29807 H 2763.43 3.91251 0.0621576 0
M  V30 29808 H 2763.05 3.57343 1.74332 0
M  V30 29809 N 2764.05 -0.188399 1.5647 0
M  V30 29810 C 2765.46 -0.539505 1.50205 0
M  V30 29811 C 2765.66 -1.85518 0.786472 0
M  V30 29812 O 2764.72 -2.50204 0.339758 0
M  V30 29813 C 2766.03 -0.588051 2.94894 0
M  V30 29814 C 2767.58 -0.676426 3.05603 0
M  V30 29815 C 2768.05 -0.756022 4.51717 0
M  V30 29816 N 2769.55 -0.819371 4.55895 0
M  V30 29817 C 2770.28 -0.90124 5.66273 0
M  V30 29818 N 2769.78 -0.944998 6.86325 0
M  V30 29819 N 2771.57 -0.938946 5.54202 0
M  V30 29820 H 2763.72 0.674529 2.01405 0
M  V30 29821 H 2765.98 0.241119 0.916824 0
M  V30 29822 H 2765.69 0.309695 3.50334 0
M  V30 29823 H 2765.56 -1.44045 3.48613 0
M  V30 29824 H 2767.95 -1.5646 2.50208 0
M  V30 29825 H 2768.03 0.202307 2.54999 0
M  V30 29826 H 2767.68 0.127829 5.07739 0
M  V30 29827 H 2767.61 -1.65065 5.00061 0
M  V30 29828 H 2770.1 -0.794529 3.69453 0
M  V30 29829 H 2770.41 -1.00817 7.66196 0
M  V30 29830 H 2768.75 -0.913562 6.8897 0
M  V30 29831 H 2771.95 -0.901644 4.59334 0
M  V30 29832 H 2772.12 -0.99929 6.40249 0
M  V30 29833 N 2765.53 -1.50848 -0.456355 0
M  V30 29834 C 2766.46 -1.65443 -1.57174 0
M  V30 29835 C 2767.44 -0.502252 -1.54649 0
M  V30 29836 O 2768.62 -0.723664 -1.74056 0
M  V30 29837 C 2765.75 -1.65057 -2.9576 0
M  V30 29838 C 2764.79 -2.86013 -3.16384 0
M  V30 29839 S 2765.63 -4.4711 -2.94708 0
M  V30 29840 C 2766.78 -4.49439 -4.35609 0
M  V30 29841 H 2767.02 -2.5979 -1.44557 0
M  V30 29842 H 2764.55 -1.40295 -0.644733 0
M  V30 29843 H 2766.51 -1.65518 -3.75651 0
M  V30 29844 H 2765.17 -0.719207 -3.05755 0
M  V30 29845 H 2764.36 -2.82089 -4.17663 0
M  V30 29846 H 2763.96 -2.83195 -2.44288 0
M  V30 29847 H 2766.25 -4.23909 -5.28495 0
M  V30 29848 H 2767.2 -5.51145 -4.44572 0
M  V30 29849 H 2767.61 -3.78975 -4.18376 0
M  V30 29850 N 2767 0.710538 -1.40674 0
M  V30 29851 C 2767.95 1.8246 -1.4134 0
M  V30 29852 C 2768.92 1.63896 -0.269676 0
M  V30 29853 O 2770.11 1.84959 -0.468496 0
M  V30 29854 C 2767.25 3.20215 -1.28671 0
M  V30 29855 C 2766.36 3.50316 -2.5279 0
M  V30 29856 C 2765.49 4.77604 -2.32526 0
M  V30 29857 C 2764.53 5.00624 -3.52196 0
M  V30 29858 N 2763.67 6.19129 -3.31095 0
M  V30 29859 H 2768.51 1.81226 -2.36561 0
M  V30 29860 H 2766.05 0.885205 -1.17484 0
M  V30 29861 H 2768 3.9977 -1.19331 0
M  V30 29862 H 2766.63 3.20665 -0.370658 0
M  V30 29863 H 2765.69 2.65278 -2.72638 0
M  V30 29864 H 2767 3.63235 -3.41851 0
M  V30 29865 H 2766.15 5.65186 -2.20568 0
M  V30 29866 H 2764.89 4.66904 -1.40898 0
M  V30 29867 H 2763.9 4.11496 -3.64625 0
M  V30 29868 H 2765.12 5.13193 -4.44758 0
M  V30 29869 H 2763.07 6.0967 -2.42154 0
M  V30 29870 H 2762.98 6.32747 -4.13724 0
M  V30 29871 H 2764.25 7.09485 -3.2288 0
M  V30 29872 N 2768.48 1.26254 0.943277 0
M  V30 29873 C 2769.73 1.1184 1.69173 0
M  V30 29874 C 2770.06 -0.337858 1.91238 0
M  V30 29875 O 2769.34 -1.24833 1.49154 0
M  V30 29876 C 2769.62 1.88568 3.0678 0
M  V30 29877 C 2769.47 3.42088 2.92054 0
M  V30 29878 C 2770.79 1.67783 4.06862 0
M  V30 29879 H 2767.91 0.407669 0.613983 0
M  V30 29880 H 2770.55 1.55224 1.09569 0
M  V30 29881 H 2768.7 1.51695 3.5766 0
M  V30 29882 H 2770.37 3.88702 2.48412 0
M  V30 29883 H 2768.62 3.69221 2.27725 0
M  V30 29884 H 2769.29 3.91001 3.89644 0
M  V30 29885 H 2771.76 1.99904 3.64935 0
M  V30 29886 H 2770.64 2.23888 5.01164 0
M  V30 29887 H 2770.9 0.621893 4.37704 0
M  V30 29888 N 2769.96 -1.14755 1.08024 0
M  V30 29889 C 2770.92 -2.17909 0.710519 0
M  V30 29890 C 2771.92 -1.58802 -0.252703 0
M  V30 29891 O 2773.11 -1.74169 -0.0327609 0
M  V30 29892 C 2770.24 -3.40866 0.0483802 0
M  V30 29893 H 2771.44 -2.52131 1.62389 0
M  V30 29894 H 2768.99 -1.29335 0.877618 0
M  V30 29895 H 2769.73 -3.12219 -0.876904 0
M  V30 29896 H 2769.51 -3.8503 0.741256 0
M  V30 29897 H 2771 -4.17143 -0.195397 0
M  V30 29898 N 2771.44 -0.865331 -1.31719 0
M  V30 29899 C 2772.37 -0.274946 -2.27545 0
M  V30 29900 C 2773.38 0.559386 -1.52888 0
M  V30 29901 O 2774.57 0.382135 -1.74362 0
M  V30 29902 C 2771.67 0.629228 -3.33007 0
M  V30 29903 C 2770.84 -0.17163 -4.37063 0
M  V30 29904 C 2769.9 0.659961 -5.22045 0
M  V30 29905 O 2768.93 0.0896526 -5.69129 0
M  V30 29906 N 2770.13 1.9728 -5.4595 0
M  V30 29907 H 2772.9 -1.09841 -2.78846 0
M  V30 29908 H 2770.46 -0.726356 -1.44692 0
M  V30 29909 H 2772.45 1.19114 -3.86774 0
M  V30 29910 H 2771.02 1.35337 -2.81785 0
M  V30 29911 H 2770.24 -0.914987 -3.83434 0
M  V30 29912 H 2771.53 -0.721323 -5.03661 0
M  V30 29913 H 2770.93 2.45933 -5.09444 0
M  V30 29914 H 2769.48 2.4826 -6.02669 0
M  V30 29915 N 2772.92 1.44707 -0.624311 0
M  V30 29916 C 2773.85 2.2887 0.12301 0
M  V30 29917 C 2774.86 1.409 0.815545 0
M  V30 29918 O 2776.05 1.65117 0.678133 0
M  V30 29919 C 2773.15 3.17092 1.19606 0
M  V30 29920 C 2772.32 4.33438 0.587376 0
M  V30 29921 C 2771.38 5.02745 1.55349 0
M  V30 29922 O 2770.41 5.5899 1.07328 0
M  V30 29923 N 2771.61 5.03568 2.88789 0
M  V30 29924 H 2774.37 2.93648 -0.599245 0
M  V30 29925 H 2771.94 1.55079 -0.464981 0
M  V30 29926 H 2773.93 3.60322 1.84255 0
M  V30 29927 H 2772.5 2.5411 1.82063 0
M  V30 29928 H 2771.72 3.93483 -0.237578 0
M  V30 29929 H 2773.01 5.08544 0.161237 0
M  V30 29930 H 2772.4 4.59193 3.30391 0
M  V30 29931 H 2770.96 5.50609 3.48816 0
M  V30 29932 N 2774.39 0.364449 1.53328 0
M  V30 29933 C 2775.3 -0.490512 2.29415 0
M  V30 29934 C 2776.32 -1.09361 1.35337 0
M  V30 29935 O 2777.5 -1.1048 1.68393 0
M  V30 29936 C 2774.56 -1.61524 3.06775 0
M  V30 29937 C 2773.62 -1.03979 4.16518 0
M  V30 29938 C 2772.85 -2.11091 4.9018 0
M  V30 29939 O 2773.08 -3.32183 4.63693 0
M  V30 29940 O 2772.01 -1.74212 5.76137 0
M  V30 29941 H 2775.84 0.128613 3.03428 0
M  V30 29942 H 2773.42 0.128864 1.48843 0
M  V30 29943 H 2775.3 -2.26918 3.55086 0
M  V30 29944 H 2773.98 -2.21978 2.356 0
M  V30 29945 H 2772.89 -0.34979 3.72461 0
M  V30 29946 H 2774.22 -0.479814 4.89856 0
M  V30 29947 N 2775.87 -1.57322 0.0935872 0
M  V30 29948 C 2777.12 -1.93474 -0.570157 0
M  V30 29949 C 2777.43 -0.977348 -1.69432 0
M  V30 29950 O 2778.64 -1.23252 -2.41911 0
M  V30 29951 C 2777.1 -3.43764 -1.06558 0
M  V30 29952 C 2776.7 -4.47991 0.0287511 0
M  V30 29953 C 2778.45 -3.8888 -1.70214 0
M  V30 29954 C 2776.35 -5.89433 -0.481943 0
M  V30 29955 H 2775.28 -0.722174 -0.216751 0
M  V30 29956 H 2777.94 -1.82717 0.169345 0
M  V30 29957 H 2776.32 -3.49668 -1.85872 0
M  V30 29958 H 2777.49 -4.53728 0.804186 0
M  V30 29959 H 2775.81 -4.12475 0.570408 0
M  V30 29960 H 2778.4 -4.91952 -2.09493 0
M  V30 29961 H 2778.75 -3.27444 -2.57072 0
M  V30 29962 H 2779.28 -3.8567 -0.974851 0
M  V30 29963 H 2776.02 -6.54565 0.349986 0
M  V30 29964 H 2775.54 -5.8717 -1.22442 0
M  V30 29965 H 2777.22 -6.39967 -0.951395 0
M  V30 29966 N 2777.35 0.180099 -1.56568 0
M  V30 29967 C 2778.3 1.22309 -1.95727 0
M  V30 29968 C 2779.27 1.44452 -0.819936 0
M  V30 29969 O 2780.45 1.57337 -1.07934 0
M  V30 29970 C 2777.59 2.55943 -2.31489 0
M  V30 29971 C 2776.7 2.41254 -3.58358 0
M  V30 29972 C 2775.84 3.67694 -3.83373 0
M  V30 29973 C 2774.88 3.47901 -5.03619 0
M  V30 29974 N 2774.02 4.66389 -5.2481 0
M  V30 29975 H 2778.86 0.882148 -2.84644 0
M  V30 29976 H 2776.39 0.424195 -1.40851 0
M  V30 29977 H 2778.35 3.33818 -2.50243 0
M  V30 29978 H 2776.98 2.88051 -1.45694 0
M  V30 29979 H 2776.03 1.546 -3.47567 0
M  V30 29980 H 2777.34 2.2257 -4.4639 0
M  V30 29981 H 2776.5 4.54006 -4.02447 0
M  V30 29982 H 2775.24 3.89348 -2.93699 0
M  V30 29983 H 2774.24 2.59975 -4.84451 0
M  V30 29984 H 2775.47 3.27677 -5.94815 0
M  V30 29985 H 2773.41 4.88278 -4.38087 0
M  V30 29986 H 2773.33 4.50585 -6.07049 0
M  V30 29987 H 2774.6 5.54009 -5.48356 0
M  V30 29988 N 2778.83 1.51088 0.448349 0
M  V30 29989 C 2779.79 1.71028 1.52585 0
M  V30 29990 C 2780.79 0.580468 1.49957 0
M  V30 29991 O 2781.98 0.84786 1.52174 0
M  V30 29992 C 2779.11 1.75657 2.9216 0
M  V30 29993 H 2780.31 2.67181 1.36213 0
M  V30 29994 H 2777.86 1.40911 0.676288 0
M  V30 29995 H 2778.59 0.81278 3.1395 0
M  V30 29996 H 2778.38 2.57756 2.95473 0
M  V30 29997 H 2779.87 1.9296 3.70346 0
M  V30 29998 N 2780.31 -0.703068 1.41049 0
M  V30 29999 C 2781.53 -1.49199 1.43343 0
M  V30 30000 C 2781.95 -1.88765 0.0365928 0
M  V30 30001 O 2781.31 -1.56286 -0.942391 0
M  V30 30002 C 2781.36 -2.75935 2.33543 0
M  V30 30003 O 2781.08 -2.38038 3.6779 0
M  V30 30004 C 2782.58 -3.69736 2.44562 0
M  V30 30005 H 2779.8 -0.460031 0.48848 0
M  V30 30006 H 2782.34 -0.866257 1.85246 0
M  V30 30007 H 2780.5 -3.34763 1.94968 0
M  V30 30008 H 2780.91 -3.19676 4.15822 0
M  V30 30009 H 2782.39 -4.55466 3.11857 0
M  V30 30010 H 2782.86 -4.13708 1.47454 0
M  V30 30011 H 2783.47 -3.16814 2.83741 0
M  V30 30012 N 2781.78 -1.26752 -0.936569 0
M  V30 30013 C 2783.03 -1.12736 -1.68578 0
M  V30 30014 C 2783.36 0.327711 -1.91415 0
M  V30 30015 O 2782.64 1.2404 -1.49814 0
M  V30 30016 C 2782.92 -1.90193 -3.05776 0
M  V30 30017 C 2782.77 -3.43632 -2.90236 0
M  V30 30018 C 2784.09 -1.69939 -4.05967 0
M  V30 30019 H 2781.21 -0.410919 -0.611812 0
M  V30 30020 H 2783.85 -1.55803 -1.08745 0
M  V30 30021 H 2782 -1.5359 -3.56851 0
M  V30 30022 H 2783.68 -3.90014 -2.46347 0
M  V30 30023 H 2781.92 -3.70423 -2.25763 0
M  V30 30024 H 2782.59 -3.93062 -3.87565 0
M  V30 30025 H 2785.07 -2.01836 -3.6387 0
M  V30 30026 H 2783.94 -2.26543 -4.9997 0
M  V30 30027 H 2784.2 -0.645097 -4.37368 0
M  V30 30028 N 2783.26 1.1418 -1.08631 0
M  V30 30029 C 2784.49 1.89129 -0.838923 0
M  V30 30030 C 2784.91 1.78704 0.609121 0
M  V30 30031 O 2784.26 1.14796 1.41874 0
M  V30 30032 C 2784.31 3.39023 -1.25483 0
M  V30 30033 O 2784.03 3.49163 -2.64607 0
M  V30 30034 C 2785.54 4.30961 -1.03864 0
M  V30 30035 H 2782.76 0.599001 -0.302388 0
M  V30 30036 H 2785.3 1.44589 -1.44617 0
M  V30 30037 H 2783.45 3.81176 -0.691638 0
M  V30 30038 H 2783.87 4.42284 -2.8193 0
M  V30 30039 H 2785.34 5.34497 -1.37901 0
M  V30 30040 H 2785.82 4.39193 0.024175 0
M  V30 30041 H 2786.43 3.94566 -1.58738 0
M  V30 30042 N 2784.74 0.872304 1.31258 0
M  V30 30043 C 2785.99 0.485118 1.96912 0
M  V30 30044 C 2786.32 -0.960637 1.68776 0
M  V30 30045 O 2785.59 -1.67683 0.985524 0
M  V30 30046 C 2785.88 0.745564 3.52297 0
M  V30 30047 C 2785.73 2.24102 3.89998 0
M  V30 30048 C 2787.05 0.213593 4.39581 0
M  V30 30049 H 2784.17 0.177729 0.715249 0
M  V30 30050 H 2786.81 1.09397 1.55346 0
M  V30 30051 H 2784.96 0.227344 3.87834 0
M  V30 30052 H 2786.63 2.82668 3.6455 0
M  V30 30053 H 2784.88 2.71267 3.38521 0
M  V30 30054 H 2785.55 2.3739 4.98347 0
M  V30 30055 H 2788.02 0.656974 4.10881 0
M  V30 30056 H 2786.9 0.425256 5.4725 0
M  V30 30057 H 2787.16 -0.88459 4.3316 0
M  V30 30058 N 2786.22 -1.44374 0.631976 0
M  V30 30059 C 2787.17 -2.32446 -0.0846284 0
M  V30 30060 C 2788.16 -1.47395 -0.834931 0
M  V30 30061 O 2789.37 -1.63734 -0.747735 0
M  V30 30062 H 2785.74 -0.750583 -0.0461376 0
M  V30 30063 H 2787.71 -2.90636 0.676241 0
M  V30 30064 C 2786.46 -3.31402 -1.05205 0
M  V30 30065 H 2785.78 -3.96858 -0.484133 0
M  V30 30066 H 2787.22 -3.95705 -1.52293 0
M  V30 30067 C 2785.68 -2.60391 -2.13771 0
M  V30 30068 O 2786.21 -2.40346 -3.21865 0
M  V30 30069 N 2784.42 -2.20116 -1.89729 0
M  V30 30070 H 2783.97 -2.36619 -1.01829 0
M  V30 30071 H 2783.92 -1.72931 -2.62569 0
M  V30 30072 N 2787.7 -0.372575 -1.53133 0
M  V30 30073 C 2788.92 0.215478 -2.05775 0
M  V30 30074 C 2789.34 1.41884 -1.24557 0
M  V30 30075 O 2788.7 1.80214 -0.287983 0
M  V30 30076 C 2788.75 0.602098 -3.56451 0
M  V30 30077 O 2788.47 -0.553435 -4.3459 0
M  V30 30078 C 2789.97 1.2478 -4.25376 0
M  V30 30079 H 2787.19 0.0364411 -0.67001 0
M  V30 30080 H 2789.73 -0.532968 -1.97433 0
M  V30 30081 H 2787.89 1.30045 -3.6492 0
M  V30 30082 H 2788.3 -0.239428 -5.23953 0
M  V30 30083 H 2789.78 1.46882 -5.32099 0
M  V30 30084 H 2790.25 2.2102 -3.79535 0
M  V30 30085 H 2790.86 0.590678 -4.21178 0
M  V30 30086 N 2789.17 1.5727 -0.101929 0
M  V30 30087 C 2790.4 1.99364 0.571724 0
M  V30 30088 C 2790.82 0.980796 1.60505 0
M  V30 30089 O 2790.18 -0.0498199 1.81232 0
M  V30 30090 C 2790.23 3.40402 1.1899 0
M  V30 30091 O 2789.33 3.41926 2.30566 0
M  V30 30092 H 2788.68 0.6481 0.144437 0
M  V30 30093 H 2791.21 2.03759 -0.185361 0
M  V30 30094 H 2791.22 3.78244 1.52955 0
M  V30 30095 H 2789.89 4.13641 0.432911 0
M  V30 30096 H 2788.47 3.15886 1.98167 0
M  V30 30097 N 2790.65 -0.171793 1.56661 0
M  V30 30098 C 2791.93 -0.915748 1.72839 0
M  V30 30099 C 2792.31 -2.00412 0.663196 0
M  V30 30100 O 2791.66 -2.26219 -0.322083 0
M  V30 30101 C 2791.87 -1.48091 3.16022 0
M  V30 30102 C 2793.22 -1.95402 3.76966 0
M  V30 30103 O 2794.24 -1.57886 3.19297 0
M  V30 30104 O 2793.1 -2.64507 4.78224 0
M  V30 30105 H 2790.19 -0.431009 0.705805 0
M  V30 30106 H 2792.74 -0.159659 1.68947 0
M  V30 30107 H 2791.51 -0.69755 3.85032 0
M  V30 30108 H 2791.13 -2.3012 3.24238 0
M  V30 30109 N 2792.13 -1.51324 -0.44033 0
M  V30 30110 C 2793.06 -1.75367 -1.54171 0
M  V30 30111 C 2794.04 -0.603403 -1.59038 0
M  V30 30112 O 2795.23 -0.845804 -1.74814 0
M  V30 30113 C 2792.36 -1.87598 -2.92274 0
M  V30 30114 C 2791.31 -3.03014 -3.02269 0
M  V30 30115 C 2790.64 -3.00425 -4.42322 0
M  V30 30116 C 2791.94 -4.43029 -2.76627 0
M  V30 30117 H 2793.63 -2.67588 -1.34302 0
M  V30 30118 H 2791.18 -1.28764 -0.644656 0
M  V30 30119 H 2793.13 -2.03002 -3.69281 0
M  V30 30120 H 2791.85 -0.920234 -3.13368 0
M  V30 30121 H 2790.51 -2.87311 -2.27701 0
M  V30 30122 H 2790.16 -2.02634 -4.60379 0
M  V30 30123 H 2789.86 -3.77926 -4.49939 0
M  V30 30124 H 2791.38 -3.17918 -5.21306 0
M  V30 30125 H 2792.8 -4.59099 -3.43368 0
M  V30 30126 H 2791.2 -5.22213 -2.95657 0
M  V30 30127 H 2792.27 -4.53273 -1.72254 0
M  V30 30128 N 2793.61 0.695578 -1.41419 0
M  V30 30129 C 2794.86 1.45274 -1.40498 0
M  V30 30130 C 2795.18 1.94994 -0.0149881 0
M  V30 30131 O 2794.45 1.71701 0.94317 0
M  V30 30132 H 2793.03 0.539035 -0.517156 0
M  V30 30133 H 2795.69 0.82329 -1.76658 0
M  V30 30134 H 2794.79 2.31591 -2.09218 0
M  V30 30135 N 2795.09 1.27247 0.929833 0
M  V30 30136 C 2796.04 1.0962 2.05149 0
M  V30 30137 C 2797.03 0.0198915 1.69388 0
M  V30 30138 O 2798.24 0.177448 1.79123 0
M  V30 30139 H 2794.61 0.337713 0.671903 0
M  V30 30140 H 2796.58 2.04651 2.17164 0
M  V30 30141 C 2795.33 0.757911 3.39339 0
M  V30 30142 H 2794.65 1.57802 3.6734 0
M  V30 30143 H 2796.09 0.674432 4.18602 0
M  V30 30144 C 2794.55 -0.537599 3.32583 0
M  V30 30145 O 2795.08 -1.57264 3.69636 0
M  V30 30146 N 2793.29 -0.532427 2.85681 0
M  V30 30147 H 2792.84 0.310278 2.55725 0
M  V30 30148 H 2792.79 -1.39931 2.81543 0
M  V30 30149 N 2796.57 -1.13603 1.09235 0
M  V30 30150 C 2797.51 -2.18953 0.72996 0
M  V30 30151 C 2798.48 -1.63586 -0.287887 0
M  V30 30152 O 2799.67 -1.90041 -0.16997 0
M  V30 30153 C 2796.81 -3.44754 0.154549 0
M  V30 30154 C 2795.92 -4.14232 1.2262 0
M  V30 30155 C 2795.06 -5.27642 0.61375 0
M  V30 30156 C 2794.09 -5.88967 1.66684 0
M  V30 30157 N 2793.23 -6.93813 1.07557 0
M  V30 30158 H 2798.07 -2.49299 1.63261 0
M  V30 30159 H 2795.61 -1.22411 0.815715 0
M  V30 30160 H 2797.57 -4.16735 -0.19685 0
M  V30 30161 H 2796.2 -3.14864 -0.711377 0
M  V30 30162 H 2795.25 -3.40554 1.69491 0
M  V30 30163 H 2796.56 -4.55895 2.02388 0
M  V30 30164 H 2795.71 -6.06333 0.211082 0
M  V30 30165 H 2794.45 -4.87224 -0.215498 0
M  V30 30166 H 2793.46 -5.08974 2.07908 0
M  V30 30167 H 2794.68 -6.31459 2.49872 0
M  V30 30168 H 2792.63 -6.55454 0.267567 0
M  V30 30169 H 2792.55 -7.34007 1.81024 0
M  V30 30170 H 2793.81 -7.76359 0.699042 0
M  V30 30171 N 2798.04 -0.879253 -1.30793 0
M  V30 30172 C 2798.99 -0.340008 -2.28282 0
M  V30 30173 C 2799.96 0.566658 -1.56135 0
M  V30 30174 O 2801.15 0.496306 -1.84232 0
M  V30 30175 C 2798.29 0.444441 -3.42226 0
M  V30 30176 C 2797.4 -0.490793 -4.29203 0
M  V30 30177 C 2796.53 0.308691 -5.30302 0
M  V30 30178 C 2795.57 -0.622379 -6.08928 0
M  V30 30179 N 2794.71 0.141427 -7.01958 0
M  V30 30180 H 2799.55 -1.17652 -2.73792 0
M  V30 30181 H 2797.09 -0.591551 -1.34681 0
M  V30 30182 H 2799.04 0.915114 -4.0704 0
M  V30 30183 H 2797.67 1.24557 -2.97801 0
M  V30 30184 H 2796.73 -1.07994 -3.64748 0
M  V30 30185 H 2798.04 -1.20433 -4.84043 0
M  V30 30186 H 2797.19 0.84147 -6.00836 0
M  V30 30187 H 2795.93 1.05547 -4.76142 0
M  V30 30188 H 2794.94 -1.16683 -5.37276 0
M  V30 30189 H 2796.16 -1.36816 -6.65175 0
M  V30 30190 H 2794.11 0.870851 -6.50194 0
M  V30 30191 H 2794.02 -0.512592 -7.5426 0
M  V30 30192 H 2795.29 0.655135 -7.76742 0
M  V30 30193 N 2799.52 1.44037 -0.639624 0
M  V30 30194 C 2800.47 2.30721 0.0602053 0
M  V30 30195 C 2801.44 1.43972 0.828326 0
M  V30 30196 O 2802.62 1.72863 0.807663 0
M  V30 30197 C 2799.76 3.2937 1.03002 0
M  V30 30198 C 2798.88 4.3122 0.259426 0
M  V30 30199 C 2798.01 5.16958 1.22182 0
M  V30 30200 C 2797.05 6.1051 0.440871 0
M  V30 30201 N 2796.19 6.88917 1.35416 0
M  V30 30202 H 2801.03 2.90022 -0.684918 0
M  V30 30203 H 2798.56 1.42887 -0.349534 0
M  V30 30204 H 2800.52 3.8506 1.60576 0
M  V30 30205 H 2799.15 2.7175 1.74217 0
M  V30 30206 H 2798.2 3.77935 -0.432383 0
M  V30 30207 H 2799.52 4.97582 -0.348435 0
M  V30 30208 H 2798.67 5.77206 1.86863 0
M  V30 30209 H 2797.41 4.5069 1.8636 0
M  V30 30210 H 2796.41 5.49362 -0.219376 0
M  V30 30211 H 2797.64 6.78816 -0.196311 0
M  V30 30212 H 2795.59 6.25311 1.98299 0
M  V30 30213 H 2795.5 7.5175 0.800525 0
M  V30 30214 H 2796.77 7.53683 1.98954 0
M  V30 30215 N 2801 0.380691 1.52933 0
M  V30 30216 C 2802.28 -0.261383 1.93846 0
M  V30 30217 C 2802.66 -1.65102 1.31547 0
M  V30 30218 O 2802 -2.23396 0.480273 0
M  V30 30219 C 2802.21 -0.296405 3.47739 0
M  V30 30220 C 2803.56 -0.529504 4.21285 0
M  V30 30221 O 2804.59 -0.376979 3.542 0
M  V30 30222 O 2803.45 -0.827658 5.40196 0
M  V30 30223 H 2800.54 -0.160271 0.811321 0
M  V30 30224 H 2803.09 0.434573 1.64041 0
M  V30 30225 H 2801.86 0.677308 3.85394 0
M  V30 30226 H 2801.48 -1.03764 3.83821 0
M  V30 30227 N 2802.48 -1.57214 0.110268 0
M  V30 30228 C 2803.75 -1.86397 -0.592923 0
M  V30 30229 C 2804.13 -1.00988 -1.85377 0
M  V30 30230 O 2803.48 -0.0863994 -2.28337 0
M  V30 30231 C 2803.69 -3.37362 -0.893756 0
M  V30 30232 C 2805.04 -4.05764 -1.25062 0
M  V30 30233 O 2806.06 -3.4233 -0.984296 0
M  V30 30234 O 2804.92 -5.17721 -1.75008 0
M  V30 30235 H 2802.02 -0.771341 -0.298266 0
M  V30 30236 H 2804.56 -1.69087 0.144112 0
M  V30 30237 H 2803.34 -3.913 9.48118e-05 0
M  V30 30238 H 2802.96 -3.60071 -1.68625 0
M  V30 30239 N 2803.96 0.163482 -1.5675 0
M  V30 30240 C 2804.87 1.22206 -2.00257 0
M  V30 30241 C 2805.88 1.47986 -0.91522 0
M  V30 30242 O 2807.06 1.5998 -1.22345 0
M  V30 30243 C 2804.12 2.53942 -2.36039 0
M  V30 30244 C 2803.18 2.35956 -3.58641 0
M  V30 30245 C 2802.42 3.61409 -3.92707 0
M  V30 30246 O 2802.64 4.66913 -3.27641 0
M  V30 30247 O 2801.57 3.55053 -4.86026 0
M  V30 30248 H 2805.4 0.882743 -2.90588 0
M  V30 30249 H 2802.98 0.370952 -1.44721 0
M  V30 30250 H 2804.87 3.31639 -2.59988 0
M  V30 30251 H 2803.54 2.87437 -1.48868 0
M  V30 30252 H 2802.45 1.56264 -3.39901 0
M  V30 30253 H 2803.78 2.07382 -4.46378 0
M  V30 30254 N 2805.43 1.51555 0.432299 0
M  V30 30255 C 2806.68 1.64717 1.18306 0
M  V30 30256 C 2807.01 0.364729 1.90744 0
M  V30 30257 O 2806.29 -0.635904 1.83811 0
M  V30 30258 C 2806.57 2.85387 2.19605 0
M  V30 30259 C 2806.42 4.2362 1.51216 0
M  V30 30260 C 2807.74 3.01574 3.20532 0
M  V30 30261 H 2804.86 0.599459 0.42874 0
M  V30 30262 H 2807.5 1.84053 0.471656 0
M  V30 30263 H 2805.65 2.69032 2.80275 0
M  V30 30264 H 2807.33 4.51654 0.938437 0
M  V30 30265 H 2805.57 4.26086 0.814426 0
M  V30 30266 H 2806.24 5.04056 2.25015 0
M  V30 30267 H 2808.72 3.16674 2.6992 0
M  V30 30268 H 2807.59 3.87562 3.88699 0
M  V30 30269 H 2807.85 2.13865 3.86929 0
M  V30 30270 N 2806.91 -0.688069 1.41786 0
M  V30 30271 C 2808.19 -1.44314 1.32034 0
M  V30 30272 C 2808.57 -2.11044 -0.0485708 0
M  V30 30273 O 2807.92 -2.02254 -1.06329 0
M  V30 30274 C 2808.13 -2.45645 2.47911 0
M  V30 30275 C 2809.47 -3.10678 2.89421 0
M  V30 30276 O 2810.5 -2.5597 2.47705 0
M  V30 30277 O 2809.36 -4.09783 3.6158 0
M  V30 30278 H 2806.45 -0.643058 0.520005 0
M  V30 30279 H 2809 -0.717913 1.53766 0
M  V30 30280 H 2807.77 -1.95042 3.39226 0
M  V30 30281 H 2807.39 -3.25667 2.28094 0
M  V30 30282 N 2808.39 -1.27739 -0.923072 0
M  V30 30283 C 2809.81 -1.05243 -1.19983 0
M  V30 30284 C 2810.01 0.211095 -2.00391 0
M  V30 30285 O 2809.06 0.915325 -2.35325 0
M  V30 30286 C 2810.37 -2.29454 -1.94348 0
M  V30 30287 C 2811.92 -2.34539 -2.07268 0
M  V30 30288 C 2812.4 -3.58492 -2.8504 0
M  V30 30289 N 2813.89 -3.59077 -2.92606 0
M  V30 30290 C 2814.62 -4.5166 -3.53258 0
M  V30 30291 N 2814.12 -5.54552 -4.15264 0
M  V30 30292 N 2815.91 -4.39274 -3.50706 0
M  V30 30293 H 2808.06 -2.08863 -0.386005 0
M  V30 30294 H 2810.33 -0.918821 -0.233391 0
M  V30 30295 H 2810.03 -3.21455 -1.42687 0
M  V30 30296 H 2809.91 -2.35135 -2.94943 0
M  V30 30297 H 2812.29 -1.43042 -2.58115 0
M  V30 30298 H 2812.37 -2.32859 -1.05879 0
M  V30 30299 H 2812.02 -4.50329 -2.34876 0
M  V30 30300 H 2811.95 -3.57425 -3.86724 0
M  V30 30301 H 2814.44 -2.84667 -2.48542 0
M  V30 30302 H 2814.75 -6.21356 -4.59496 0
M  V30 30303 H 2813.1 -5.58389 -4.13796 0
M  V30 30304 H 2816.29 -3.58098 -3.01469 0
M  V30 30305 H 2816.46 -5.11617 -3.97684 0
M  V30 30306 N 2809.87 1.13022 -1.09836 0
M  V30 30307 C 2811.15 1.80681 -0.749257 0
M  V30 30308 C 2811.53 1.96746 0.765137 0
M  V30 30309 O 2810.87 1.53889 1.6891 0
M  V30 30310 C 2811.08 3.15445 -1.49316 0
M  V30 30311 C 2812.43 3.90734 -1.66169 0
M  V30 30312 O 2813.46 3.25082 -1.45603 0
M  V30 30313 O 2812.31 5.08502 -2.0022 0
M  V30 30314 H 2809.41 0.781812 -0.269628 0
M  V30 30315 H 2811.95 1.19912 -1.2008 0
M  V30 30316 H 2810.73 2.99005 -2.52412 0
M  V30 30317 H 2810.35 3.83918 -1.03407 0
M  V30 30318 N 2811.35 0.886177 1.30325 0
M  V30 30319 C 2812.31 0.358726 2.26375 0
M  V30 30320 C 2813.31 -0.499471 1.52846 0
M  V30 30321 O 2814.5 -0.306455 1.71483 0
M  V30 30322 C 2811.63 -0.488666 3.37379 0
M  V30 30323 H 2812.82 1.20686 2.74545 0
M  V30 30324 H 2810.38 0.663138 1.41535 0
M  V30 30325 H 2811.11 -1.35734 2.94528 0
M  V30 30326 H 2810.9 0.126072 3.91897 0
M  V30 30327 H 2812.39 -0.849448 4.08869 0
M  V30 30328 N 2812.82 -1.43695 0.647253 0
M  V30 30329 C 2814.24 -1.85168 0.238722 0
M  V30 30330 C 2814.59 -1.54177 -1.21342 0
M  V30 30331 O 2813.71 -0.987777 -1.92541 0
M  V30 30332 C 2814.31 -3.36105 0.426481 0
M  V30 30333 C 2812.87 -3.76331 0.0723202 0
M  V30 30334 C 2812.01 -2.67459 0.7322 0
M  V30 30335 H 2814.96 -1.33933 0.851333 0
M  V30 30336 H 2814.98 -3.79068 -0.329803 0
M  V30 30337 H 2814.5 -3.5863 1.48346 0
M  V30 30338 H 2812.6 -3.59419 -0.982292 0
M  V30 30339 H 2812.71 -4.7655 0.493625 0
M  V30 30340 H 2811.07 -2.54159 0.165984 0
M  V30 30341 H 2811.86 -2.92812 1.79209 0
M  V30 30342 N 2814.3 -0.388796 -1.52729 0
M  V30 30343 C 2815.53 0.196174 -2.0647 0
M  V30 30344 C 2815.95 1.39782 -1.25868 0
M  V30 30345 O 2815.31 1.79068 -0.283594 0
M  V30 30346 C 2815.36 0.545037 -3.56457 0
M  V30 30347 O 2814.46 1.63906 -3.78429 0
M  V30 30348 H 2813.8 0.0230553 -0.6636 0
M  V30 30349 H 2816.33 -0.556119 -1.96897 0
M  V30 30350 H 2816.34 0.809487 -3.99889 0
M  V30 30351 H 2815.02 -0.333489 -4.14561 0
M  V30 30352 H 2813.6 1.36836 -3.46887 0
M  V30 30353 N 2815.78 1.57153 -0.118604 0
M  V30 30354 C 2817.2 1.57816 0.237986 0
M  V30 30355 C 2817.4 1.1313 1.66745 0
M  V30 30356 O 2816.45 0.818504 2.38866 0
M  V30 30357 C 2817.77 3.007 0.00502921 0
M  V30 30358 C 2819.31 3.1292 0.0709589 0
M  V30 30359 C 2819.79 4.57803 -0.134301 0
M  V30 30360 N 2821.28 4.6313 -0.080257 0
M  V30 30361 C 2822.01 5.73001 -0.213986 0
M  V30 30362 N 2821.51 6.91622 -0.403864 0
M  V30 30363 N 2823.3 5.6189 -0.153589 0
M  V30 30364 H 2815.45 1.84501 -1.05229 0
M  V30 30365 H 2817.72 0.852662 -0.414333 0
M  V30 30366 H 2817.42 3.37678 -0.983184 0
M  V30 30367 H 2817.3 3.69928 0.737075 0
M  V30 30368 H 2819.68 2.758 1.0497 0
M  V30 30369 H 2819.77 2.46235 -0.692961 0
M  V30 30370 H 2819.41 4.95622 -1.11001 0
M  V30 30371 H 2819.34 5.22578 0.649601 0
M  V30 30372 H 2821.83 3.77847 0.0630025 0
M  V30 30373 H 2822.14 7.71202 -0.49678 0
M  V30 30374 H 2820.49 6.93607 -0.439832 0
M  V30 30375 H 2823.68 4.681 -0.00621402 0
M  V30 30376 H 2823.85 6.47473 -0.261251 0
M  V30 30377 N 2817.26 -0.155167 1.56834 0
M  V30 30378 C 2818.21 -1.1918 1.97648 0
M  V30 30379 C 2819.18 -1.43129 0.842813 0
M  V30 30380 O 2820.36 -1.556 1.10423 0
M  V30 30381 C 2817.5 -2.52228 2.35531 0
M  V30 30382 C 2816.61 -2.35522 3.62151 0
M  V30 30383 C 2815.75 -3.61548 3.89174 0
M  V30 30384 C 2814.79 -3.39844 5.0909 0
M  V30 30385 N 2813.92 -4.5798 5.32164 0
M  V30 30386 H 2818.76 -0.836751 2.86011 0
M  V30 30387 H 2816.3 -0.401733 1.41508 0
M  V30 30388 H 2818.26 -3.29794 2.55522 0
M  V30 30389 H 2816.89 -2.85696 1.50258 0
M  V30 30390 H 2815.94 -1.49051 3.49983 0
M  V30 30391 H 2817.25 -2.1544 4.49875 0
M  V30 30392 H 2816.41 -4.47546 4.09619 0
M  V30 30393 H 2815.15 -3.84626 2.99856 0
M  V30 30394 H 2814.15 -2.52235 4.88526 0
M  V30 30395 H 2815.38 -3.18173 5.99952 0
M  V30 30396 H 2813.32 -4.81247 4.458 0
M  V30 30397 H 2813.24 -4.40871 6.14141 0
M  V30 30398 H 2814.51 -5.45215 5.57101 0
M  V30 30399 N 2818.74 -1.51782 -0.424256 0
M  V30 30400 C 2819.68 -1.74039 -1.51588 0
M  V30 30401 C 2820.65 -0.582385 -1.55555 0
M  V30 30402 O 2821.84 -0.818275 -1.72363 0
M  V30 30403 C 2818.98 -1.88325 -2.89185 0
M  V30 30404 C 2818.09 -3.15925 -2.94645 0
M  V30 30405 C 2817.23 -3.20729 -4.23446 0
M  V30 30406 C 2816.27 -4.42591 -4.22823 0
M  V30 30407 N 2815.4 -4.44872 -5.4317 0
M  V30 30408 H 2820.24 -2.67214 -1.31912 0
M  V30 30409 H 2817.78 -1.3242 -0.640576 0
M  V30 30410 H 2819.74 -1.94589 -3.6904 0
M  V30 30411 H 2818.37 -0.985456 -3.0739 0
M  V30 30412 H 2817.42 -3.18906 -2.07372 0
M  V30 30413 H 2818.73 -4.058 -2.90048 0
M  V30 30414 H 2817.89 -3.25982 -5.11684 0
M  V30 30415 H 2816.62 -2.28765 -4.30718 0
M  V30 30416 H 2815.63 -4.37501 -3.32976 0
M  V30 30417 H 2816.85 -5.35834 -4.17204 0
M  V30 30418 H 2814.8 -3.55784 -5.51138 0
M  V30 30419 H 2814.72 -5.28573 -5.40506 0
M  V30 30420 H 2815.99 -4.54335 -6.33404 0
M  V30 30421 N 2820.21 0.68054 -1.42149 0
M  V30 30422 C 2821.18 1.77599 -1.44883 0
M  V30 30423 C 2822.18 1.57224 -0.337236 0
M  V30 30424 O 2823.37 1.63621 -0.597807 0
M  V30 30425 C 2820.5 3.16164 -1.27489 0
M  V30 30426 H 2821.69 1.76564 -2.42415 0
M  V30 30427 H 2819.25 0.889622 -1.28512 0
M  V30 30428 H 2819.98 3.22829 -0.308567 0
M  V30 30429 H 2819.77 3.32356 -2.08043 0
M  V30 30430 H 2821.26 3.96098 -1.32272 0
M  V30 30431 N 2821.69 1.28226 0.916285 0
M  V30 30432 C 2822.64 1.11935 2.01839 0
M  V30 30433 C 2823.61 0.0171896 1.66091 0
M  V30 30434 O 2824.79 0.181651 1.89933 0
M  V30 30435 C 2821.93 0.784563 3.36063 0
M  V30 30436 C 2821.05 1.96551 3.84697 0
M  V30 30437 C 2820.18 1.57157 5.0742 0
M  V30 30438 C 2819.22 2.71932 5.48379 0
M  V30 30439 N 2818.36 2.33048 6.62294 0
M  V30 30440 H 2823.2 2.06236 2.15106 0
M  V30 30441 H 2820.74 1.02649 1.05364 0
M  V30 30442 H 2822.69 0.571221 4.13271 0
M  V30 30443 H 2821.32 -0.121508 3.22571 0
M  V30 30444 H 2820.38 2.29106 3.03669 0
M  V30 30445 H 2821.69 2.8261 4.11015 0
M  V30 30446 H 2820.84 1.32015 5.92163 0
M  V30 30447 H 2819.58 0.682238 4.82905 0
M  V30 30448 H 2818.59 2.97776 4.62179 0
M  V30 30449 H 2819.81 3.61504 5.74884 0
M  V30 30450 H 2817.76 1.46581 6.39414 0
M  V30 30451 H 2817.67 3.12643 6.88324 0
M  V30 30452 H 2818.94 2.11183 7.50348 0
M  V30 30453 N 2823.17 -1.12438 1.10433 0
M  V30 30454 C 2824.08 -2.21758 0.765541 0
M  V30 30455 C 2825.1 -1.72379 -0.236936 0
M  V30 30456 O 2826.27 -2.01258 -0.0756976 0
M  V30 30457 C 2823.34 -3.46109 0.202377 0
M  V30 30458 C 2822.4 -4.10328 1.26213 0
M  V30 30459 C 2821.63 -5.28743 0.72574 0
M  V30 30460 O 2821.85 -5.68639 -0.447842 0
M  V30 30461 O 2820.79 -5.83277 1.48566 0
M  V30 30462 H 2824.61 -2.5313 1.67806 0
M  V30 30463 H 2822.2 -1.20772 0.879464 0
M  V30 30464 H 2824.08 -4.21262 -0.107844 0
M  V30 30465 H 2822.76 -3.16412 -0.682996 0
M  V30 30466 H 2821.66 -3.36954 1.6252 0
M  V30 30467 H 2823 -4.44179 2.12051 0
M  V30 30468 N 2824.65 -0.893076 -1.29853 0
M  V30 30469 C 2826.06 -0.56503 -1.77945 0
M  V30 30470 C 2826.41 0.919104 -1.7334 0
M  V30 30471 O 2825.54 1.71845 -1.31523 0
M  V30 30472 C 2826.13 -1.01889 -3.23116 0
M  V30 30473 C 2824.69 -0.742116 -3.69012 0
M  V30 30474 C 2823.84 -1.19732 -2.50119 0
M  V30 30475 H 2826.79 -1.07648 -1.16609 0
M  V30 30476 H 2826.81 -0.351316 -3.78875 0
M  V30 30477 H 2826.32 -2.09909 -3.26435 0
M  V30 30478 H 2824.42 0.325751 -3.71173 0
M  V30 30479 H 2824.54 -1.33535 -4.60114 0
M  V30 30480 H 2822.9 -0.616461 -2.47127 0
M  V30 30481 H 2823.68 -2.28543 -2.5617 0
M  V30 30482 N 2826.13 1.4335 -0.654865 0
M  V30 30483 C 2827.36 2.06144 -0.176721 0
M  V30 30484 C 2827.77 1.49095 1.15828 0
M  V30 30485 O 2827.13 0.622898 1.71541 0
M  V30 30486 C 2827.18 3.61408 -0.0813961 0
M  V30 30487 O 2826.9 4.16337 -1.36363 0
M  V30 30488 C 2828.4 4.41281 0.422628 0
M  V30 30489 H 2825.62 0.664848 -0.0906546 0
M  V30 30490 H 2828.16 1.83827 -0.895977 0
M  V30 30491 H 2826.32 3.82905 0.588428 0
M  V30 30492 H 2826.73 5.1002 -1.2239 0
M  V30 30493 H 2828.21 5.50257 0.438278 0
M  V30 30494 H 2828.68 4.14425 1.45424 0
M  V30 30495 H 2829.29 4.24757 -0.214762 0
M  V30 30496 N 2827.61 0.39689 1.52521 0
M  V30 30497 C 2828.83 -0.182714 2.06092 0
M  V30 30498 C 2829.25 -1.39884 1.26799 0
M  V30 30499 O 2828.61 -1.79733 0.316616 0
M  V30 30500 C 2828.66 -0.545314 3.57363 0
M  V30 30501 O 2828.38 0.622505 4.33655 0
M  V30 30502 C 2829.88 -1.17997 4.27307 0
M  V30 30503 H 2827.1 -0.0257772 0.670505 0
M  V30 30504 H 2829.64 0.564311 1.9656 0
M  V30 30505 H 2827.8 -1.24223 3.66943 0
M  V30 30506 H 2828.21 0.322754 5.23506 0
M  V30 30507 H 2829.69 -1.38398 5.34369 0
M  V30 30508 H 2830.16 -2.14954 3.83003 0
M  V30 30509 H 2830.77 -0.523597 4.22065 0
M  V30 30510 N 2829.08 -1.57088 0.126936 0
M  V30 30511 C 2830.02 -2.12819 -0.850936 0
M  V30 30512 C 2831.03 -1.07278 -1.22455 0
M  V30 30513 O 2832.22 -1.34624 -1.17212 0
M  V30 30514 C 2829.32 -2.61942 -2.15034 0
M  V30 30515 C 2828.49 -3.91667 -1.94719 0
M  V30 30516 C 2827.55 -4.26307 -3.08462 0
M  V30 30517 O 2826.58 -4.94986 -2.81029 0
M  V30 30518 N 2827.78 -3.84266 -4.35109 0
M  V30 30519 H 2830.54 -2.97348 -0.374748 0
M  V30 30520 H 2828.1 -1.61799 -0.0572509 0
M  V30 30521 H 2830.1 -2.8214 -2.90136 0
M  V30 30522 H 2828.67 -1.82249 -2.53977 0
M  V30 30523 H 2827.89 -3.80298 -1.03765 0
M  V30 30524 H 2829.17 -4.76476 -1.7846 0
M  V30 30525 H 2828.57 -3.28888 -4.60271 0
M  V30 30526 H 2827.13 -4.09557 -5.07057 0
M  V30 30527 N 2830.56 0.146848 -1.56914 0
M  V30 30528 C 2831.81 0.857866 -1.82547 0
M  V30 30529 C 2832.12 1.82329 -0.708201 0
M  V30 30530 O 2833.33 2.57847 -0.850139 0
M  V30 30531 C 2831.79 1.57617 -3.23551 0
M  V30 30532 C 2831.39 0.653146 -4.43213 0
M  V30 30533 C 2833.14 2.27396 -3.58457 0
M  V30 30534 C 2831.04 1.37308 -5.75239 0
M  V30 30535 H 2829.97 0.324098 -0.680791 0
M  V30 30536 H 2832.63 0.110607 -1.83166 0
M  V30 30537 H 2831.01 2.36906 -3.17319 0
M  V30 30538 H 2832.18 -0.104533 -4.60681 0
M  V30 30539 H 2830.5 0.0637605 -4.16351 0
M  V30 30540 H 2833.09 2.81899 -4.54354 0
M  V30 30541 H 2833.44 3.03896 -2.84522 0
M  V30 30542 H 2833.97 1.55025 -3.6635 0
M  V30 30543 H 2830.71 0.649927 -6.5227 0
M  V30 30544 H 2830.23 2.10347 -5.61707 0
M  V30 30545 H 2831.91 1.91395 -6.18043 0
M  V30 30546 N 2832.04 1.52005 0.4162 0
M  V30 30547 C 2833.27 1.69555 1.1857 0
M  V30 30548 C 2833.68 0.401951 1.84472 0
M  V30 30549 O 2833.04 -0.621432 1.71594 0
M  V30 30550 C 2833.09 2.82619 2.25408 0
M  V30 30551 O 2832.81 4.06969 1.62198 0
M  V30 30552 C 2834.31 3.11619 3.15291 0
M  V30 30553 H 2831.53 0.568417 0.356572 0
M  V30 30554 H 2834.08 1.98528 0.490583 0
M  V30 30555 H 2832.23 2.56184 2.906 0
M  V30 30556 H 2832.65 4.6992 2.32971 0
M  V30 30557 H 2834.12 3.94261 3.86344 0
M  V30 30558 H 2834.6 2.24881 3.7726 0
M  V30 30559 H 2835.2 3.39792 2.55777 0
M  V30 30560 N 2833.52 -0.672992 1.42508 0
M  V30 30561 C 2834.43 -1.8159 1.48533 0
M  V30 30562 C 2835.44 -1.69934 0.373937 0
M  V30 30563 O 2836.62 -1.91453 0.625112 0
M  V30 30564 C 2833.68 -3.17745 1.38705 0
M  V30 30565 C 2832.75 -3.41344 2.60352 0
M  V30 30566 C 2831.98 -4.71002 2.50983 0
M  V30 30567 O 2832.2 -5.4903 1.54669 0
M  V30 30568 O 2831.14 -4.95886 3.41147 0
M  V30 30569 H 2834.96 -1.79463 2.45004 0
M  V30 30570 H 2832.55 -0.828968 1.24292 0
M  V30 30571 H 2834.43 -3.98989 1.35593 0
M  V30 30572 H 2833.1 -3.20506 0.453612 0
M  V30 30573 H 2832.01 -2.5994 2.69039 0
M  V30 30574 H 2833.34 -3.43414 3.52601 0
M  V30 30575 N 2835 -1.2871 -0.909472 0
M  V30 30576 C 2835.91 -1.14865 -2.04556 0
M  V30 30577 C 2836.92 -0.0741927 -1.73842 0
M  V30 30578 O 2838.1 -0.284335 -1.99383 0
M  V30 30579 C 2835.16 -0.816207 -3.36955 0
M  V30 30580 C 2834.22 -1.97347 -3.81251 0
M  V30 30581 C 2833.46 -1.6568 -5.07332 0
M  V30 30582 O 2833.68 -0.573152 -5.67513 0
M  V30 30583 O 2832.61 -2.50177 -5.47444 0
M  V30 30584 H 2836.44 -2.10247 -2.19157 0
M  V30 30585 H 2834.02 -1.0807 -1.03157 0
M  V30 30586 H 2835.91 -0.644946 -4.16435 0
M  V30 30587 H 2834.58 0.107926 -3.2352 0
M  V30 30588 H 2833.49 -2.19991 -3.0258 0
M  V30 30589 H 2834.82 -2.87846 -3.99256 0
M  V30 30590 N 2836.47 1.1185 -1.11028 0
M  V30 30591 C 2837.72 1.83767 -0.857762 0
M  V30 30592 C 2838.05 1.84201 0.61511 0
M  V30 30593 O 2837.33 1.29199 1.45389 0
M  V30 30594 C 2837.61 3.31152 -1.41459 0
M  V30 30595 C 2837.46 3.39137 -2.95477 0
M  V30 30596 C 2838.78 4.27095 -1.06198 0
M  V30 30597 H 2835.9 0.667207 -0.313056 0
M  V30 30598 H 2838.54 1.31182 -1.37445 0
M  V30 30599 H 2836.69 3.76063 -0.975118 0
M  V30 30600 H 2838.37 3.02815 -3.47995 0
M  V30 30601 H 2836.61 2.79491 -3.31764 0
M  V30 30602 H 2837.28 4.42853 -3.29523 0
M  V30 30603 H 2839.76 3.90341 -1.44128 0
M  V30 30604 H 2838.63 5.28615 -1.47841 0
M  V30 30605 H 2838.89 4.42091 0.0278135 0
M  V30 30606 N 2837.95 0.89995 1.29378 0
M  V30 30607 C 2839.37 0.596085 1.48051 0
M  V30 30608 C 2839.57 -0.86234 1.82115 0
M  V30 30609 O 2838.62 -1.6425 1.91777 0
M  V30 30610 C 2839.94 1.52212 2.5933 0
M  V30 30611 C 2841.48 1.52735 2.73205 0
M  V30 30612 C 2841.96 2.43968 3.87613 0
M  V30 30613 N 2843.45 2.42016 3.94946 0
M  V30 30614 C 2844.19 3.09312 4.82819 0
M  V30 30615 N 2843.68 3.85887 5.75381 0
M  V30 30616 N 2845.47 2.98468 4.76312 0
M  V30 30617 H 2837.63 1.84321 1.05543 0
M  V30 30618 H 2839.89 0.789819 0.5243 0
M  V30 30619 H 2839.59 2.56126 2.41024 0
M  V30 30620 H 2839.47 1.24284 3.56137 0
M  V30 30621 H 2841.86 0.495665 2.90907 0
M  V30 30622 H 2841.94 1.84701 1.76972 0
M  V30 30623 H 2841.58 3.47231 3.70666 0
M  V30 30624 H 2841.51 2.09311 4.83215 0
M  V30 30625 H 2844 1.8638 3.28741 0
M  V30 30626 H 2844.31 4.3429 6.39228 0
M  V30 30627 H 2842.66 3.89994 5.75265 0
M  V30 30628 H 2845.85 2.38159 4.02986 0
M  V30 30629 H 2846.02 3.51189 5.44583 0
M  V30 30630 N 2839.43 -1.43001 0.662458 0
M  V30 30631 C 2840.71 -1.95295 0.10913 0
M  V30 30632 C 2841.09 -1.60341 -1.3731 0
M  V30 30633 O 2840.44 -0.893224 -2.10318 0
M  V30 30634 C 2840.65 -3.47084 0.365157 0
M  V30 30635 C 2841.99 -4.23708 0.275039 0
M  V30 30636 O 2843.02 -3.54949 0.298222 0
M  V30 30637 O 2841.88 -5.46109 0.206645 0
M  V30 30638 H 2838.97 -0.826989 -0.0042827 0
M  V30 30639 H 2841.52 -1.52893 0.736335 0
M  V30 30640 H 2840.29 -3.65687 1.39243 0
M  V30 30641 H 2839.91 -3.96507 -0.294664 0
M  V30 30642 N 2840.91 -0.404973 -1.52308 0
M  V30 30643 C 2841.84 0.457871 -2.2458 0
M  V30 30644 C 2842.85 1.01367 -1.27391 0
M  V30 30645 O 2844.04 0.913323 -1.53364 0
M  V30 30646 C 2841.14 1.64888 -2.96083 0
M  V30 30647 C 2840.32 1.2177 -4.20108 0
M  V30 30648 C 2839.37 2.27514 -4.74472 0
M  V30 30649 O 2838.4 1.88276 -5.3716 0
M  V30 30650 N 2839.6 3.59627 -4.55685 0
M  V30 30651 H 2842.37 -0.161393 -2.99265 0
M  V30 30652 H 2839.93 -0.232135 -1.60227 0
M  V30 30653 H 2841.92 2.35185 -3.29348 0
M  V30 30654 H 2840.49 2.17415 -2.2461 0
M  V30 30655 H 2839.71 0.343002 -3.92705 0
M  V30 30656 H 2841 0.906508 -5.00659 0
M  V30 30657 H 2840.4 3.94259 -4.0568 0
M  V30 30658 H 2838.95 4.25913 -4.93397 0
M  V30 30659 N 2842.39 1.57018 -0.135265 0
M  V30 30660 C 2843.32 2.19178 0.805196 0
M  V30 30661 C 2844.3 1.13654 1.26558 0
M  V30 30662 O 2845.48 1.41953 1.32526 0
M  V30 30663 C 2842.61 2.8041 2.04909 0
M  V30 30664 C 2841.57 3.91658 1.72591 0
M  V30 30665 C 2840.89 4.39772 3.04146 0
M  V30 30666 C 2842.19 5.12993 0.981619 0
M  V30 30667 H 2843.89 2.9802 0.287179 0
M  V30 30668 H 2841.43 1.4335 0.136689 0
M  V30 30669 H 2843.39 3.22558 2.71172 0
M  V30 30670 H 2842.11 1.98882 2.59063 0
M  V30 30671 H 2840.77 3.50111 1.08711 0
M  V30 30672 H 2840.42 3.55081 3.56267 0
M  V30 30673 H 2840.12 5.14801 2.8329 0
M  V30 30674 H 2841.64 4.84582 3.715 0
M  V30 30675 H 2843.05 5.52058 1.5461 0
M  V30 30676 H 2841.45 5.9371 0.873428 0
M  V30 30677 H 2842.52 4.84891 -0.028774 0
M  V30 30678 N 2843.86 -0.138524 1.5699 0
M  V30 30679 C 2844.79 -1.17237 2.01935 0
M  V30 30680 C 2845.78 -1.44318 0.900356 0
M  V30 30681 O 2846.96 -1.55093 1.16875 0
M  V30 30682 C 2844.09 -2.50347 2.40715 0
M  V30 30683 C 2843.04 -2.3777 3.55878 0
M  V30 30684 C 2842.37 -3.75667 3.80498 0
M  V30 30685 C 2843.67 -1.85463 4.88263 0
M  V30 30686 H 2845.36 -0.798622 2.88552 0
M  V30 30687 H 2842.91 -0.382719 1.38821 0
M  V30 30688 H 2844.86 -3.22905 2.70759 0
M  V30 30689 H 2843.59 -2.89574 1.51045 0
M  V30 30690 H 2842.25 -1.67663 3.26013 0
M  V30 30691 H 2841.89 -4.12344 2.88064 0
M  V30 30692 H 2841.59 -3.68111 4.58005 0
M  V30 30693 H 2843.12 -4.4976 4.12975 0
M  V30 30694 H 2844.53 -2.47821 5.1697 0
M  V30 30695 H 2842.93 -1.88777 5.69634 0
M  V30 30696 H 2844 -0.810851 4.78072 0
M  V30 30697 N 2845.34 -1.52224 -0.408133 0
M  V30 30698 C 2846.25 -1.78529 -1.52199 0
M  V30 30699 C 2847.27 -0.67092 -1.60545 0
M  V30 30700 O 2848.44 -0.956436 -1.77241 0
M  V30 30701 C 2845.51 -1.93133 -2.87924 0
M  V30 30702 C 2844.57 -3.17038 -2.89457 0
M  V30 30703 C 2843.8 -3.30936 -4.18709 0
M  V30 30704 O 2844.03 -2.50076 -5.12658 0
M  V30 30705 O 2842.96 -4.24092 -4.27118 0
M  V30 30706 H 2846.79 -2.73074 -1.32906 0
M  V30 30707 H 2844.37 -1.3708 -0.594088 0
M  V30 30708 H 2846.25 -2.04556 -3.68422 0
M  V30 30709 H 2844.93 -1.01777 -3.07283 0
M  V30 30710 H 2843.84 -3.11073 -2.07809 0
M  V30 30711 H 2845.17 -4.08178 -2.75048 0
M  V30 30712 N 2846.82 0.665425 -1.42863 0
M  V30 30713 C 2847.78 1.76053 -1.46759 0
M  V30 30714 C 2848.78 1.56857 -0.353893 0
M  V30 30715 O 2849.97 1.62978 -0.615128 0
M  V30 30716 C 2847.11 3.14794 -1.30835 0
M  V30 30717 H 2848.3 1.73983 -2.44274 0
M  V30 30718 H 2845.85 0.875942 -1.29449 0
M  V30 30719 H 2846.59 3.22483 -0.34279 0
M  V30 30720 H 2846.37 3.30131 -2.11556 0
M  V30 30721 H 2847.86 3.94673 -1.36465 0
M  V30 30722 N 2848.3 1.29191 0.902633 0
M  V30 30723 C 2849.52 1.19992 1.69164 0
M  V30 30724 C 2849.95 -0.236462 1.86608 0
M  V30 30725 O 2849.31 -1.1708 1.38427 0
M  V30 30726 C 2849.35 1.91532 3.05529 0
M  V30 30727 O 2848.46 1.23036 3.93619 0
M  V30 30728 H 2847.8 0.415945 0.517577 0
M  V30 30729 H 2850.33 1.70708 1.12782 0
M  V30 30730 H 2850.34 1.99872 3.5569 0
M  V30 30731 H 2849.01 2.96008 2.92151 0
M  V30 30732 H 2847.59 1.22935 3.52053 0
M  V30 30733 N 2849.78 -1.1126 1.1162 0
M  V30 30734 C 2850.74 -2.15538 0.779485 0
M  V30 30735 C 2851.74 -1.59525 -0.202053 0
M  V30 30736 O 2852.93 -1.74185 0.0226663 0
M  V30 30737 C 2850.06 -3.40539 0.1568 0
M  V30 30738 H 2851.25 -2.46837 1.70328 0
M  V30 30739 H 2848.81 -1.26478 0.918321 0
M  V30 30740 H 2849.54 -3.14851 -0.77713 0
M  V30 30741 H 2849.33 -3.82476 0.863375 0
M  V30 30742 H 2850.82 -4.17553 -0.0625876 0
M  V30 30743 N 2851.25 -0.906798 -1.28899 0
M  V30 30744 C 2852.22 -0.394695 -2.25776 0
M  V30 30745 C 2853.22 0.475092 -1.53621 0
M  V30 30746 O 2854.41 0.279134 -1.71949 0
M  V30 30747 C 2851.54 0.43493 -3.38114 0
M  V30 30748 H 2852.73 -1.25038 -2.7259 0
M  V30 30749 H 2850.29 -0.685571 -1.40462 0
M  V30 30750 H 2851.02 1.31031 -2.9665 0
M  V30 30751 H 2850.81 -0.188403 -3.91647 0
M  V30 30752 H 2852.3 0.784293 -4.10169 0
M  V30 30753 N 2852.73 1.42648 -0.670032 0
M  V30 30754 C 2853.96 2.05945 -0.198576 0
M  V30 30755 C 2854.38 1.50315 1.1424 0
M  V30 30756 O 2853.73 0.641057 1.7087 0
M  V30 30757 C 2853.78 3.61302 -0.119724 0
M  V30 30758 O 2853.5 4.14868 -1.40771 0
M  V30 30759 C 2855.01 4.41704 0.375801 0
M  V30 30760 H 2852.23 0.663849 -0.0977011 0
M  V30 30761 H 2854.77 1.82867 -0.915424 0
M  V30 30762 H 2852.92 3.83508 0.547783 0
M  V30 30763 H 2853.34 5.08694 -1.27793 0
M  V30 30764 H 2854.81 5.50691 0.379891 0
M  V30 30765 H 2855.29 4.15944 1.41021 0
M  V30 30766 H 2855.9 4.24506 -0.259801 0
M  V30 30767 N 2854.21 0.413044 1.52091 0
M  V30 30768 C 2855.63 0.0641116 1.59471 0
M  V30 30769 C 2855.83 -1.42399 1.42565 0
M  V30 30770 O 2854.88 -2.19127 1.25457 0
M  V30 30771 C 2856.2 0.562526 2.95391 0
M  V30 30772 C 2857.74 0.520842 3.08636 0
M  V30 30773 C 2858.22 0.995831 4.47043 0
M  V30 30774 N 2859.71 0.952812 4.53294 0
M  V30 30775 C 2860.45 1.29148 5.58667 0
M  V30 30776 N 2859.94 1.7018 6.71573 0
M  V30 30777 N 2861.73 1.2112 5.48896 0
M  V30 30778 H 2853.89 1.38156 1.61328 0
M  V30 30779 H 2856.15 0.567798 0.75915 0
M  V30 30780 H 2855.85 1.60277 3.13056 0
M  V30 30781 H 2855.73 -0.0257212 3.77191 0
M  V30 30782 H 2858.12 -0.510361 2.90653 0
M  V30 30783 H 2858.2 1.14519 2.28733 0
M  V30 30784 H 2857.84 2.02538 4.65769 0
M  V30 30785 H 2857.77 0.348255 5.25447 0
M  V30 30786 H 2860.26 0.651184 3.72247 0
M  V30 30787 H 2860.57 1.94323 7.4797 0
M  V30 30788 H 2858.92 1.74087 6.72844 0
M  V30 30789 H 2862.11 0.889477 4.59571 0
M  V30 30790 H 2862.28 1.47844 6.30909 0
M  V30 30791 N 2855.69 -1.56945 0.143591 0
M  V30 30792 C 2856.64 -2.16588 -0.797395 0
M  V30 30793 C 2857.61 -1.09778 -1.24652 0
M  V30 30794 O 2858.79 -1.37803 -1.31966 0
M  V30 30795 C 2855.93 -2.78899 -2.03248 0
M  V30 30796 C 2855.04 -4.0009 -1.62947 0
M  V30 30797 C 2854.18 -4.50411 -2.81609 0
M  V30 30798 C 2853.22 -5.64076 -2.37665 0
M  V30 30799 N 2852.36 -6.0903 -3.49324 0
M  V30 30800 H 2857.2 -2.96663 -0.28197 0
M  V30 30801 H 2854.73 -1.46547 -0.127468 0
M  V30 30802 H 2856.69 -3.13168 -2.75648 0
M  V30 30803 H 2855.32 -2.01473 -2.52207 0
M  V30 30804 H 2854.37 -3.71822 -0.803257 0
M  V30 30805 H 2855.68 -4.82448 -1.26671 0
M  V30 30806 H 2854.84 -4.86717 -3.62203 0
M  V30 30807 H 2853.58 -3.67053 -3.21128 0
M  V30 30808 H 2852.58 -5.27349 -1.5551 0
M  V30 30809 H 2853.81 -6.49216 -1.99236 0
M  V30 30810 H 2851.75 -5.28608 -3.88471 0
M  V30 30811 H 2851.67 -6.86305 -3.17052 0
M  V30 30812 H 2852.94 -6.49981 -4.30285 0
M  V30 30813 N 2857.17 0.130197 -1.57061 0
M  V30 30814 C 2858.13 1.14423 -1.98595 0
M  V30 30815 C 2859.13 1.34934 -0.874608 0
M  V30 30816 O 2860.32 1.31641 -1.14089 0
M  V30 30817 C 2857.45 2.50108 -2.31644 0
M  V30 30818 H 2858.65 0.78751 -2.89376 0
M  V30 30819 H 2856.2 0.374119 -1.51757 0
M  V30 30820 H 2856.93 2.90721 -1.43708 0
M  V30 30821 H 2856.72 2.36577 -3.12688 0
M  V30 30822 H 2858.21 3.23109 -2.64557 0
M  V30 30823 N 2858.65 1.52438 0.400055 0
M  V30 30824 C 2859.89 1.66942 1.14616 0
M  V30 30825 C 2860.22 0.40383 1.90262 0
M  V30 30826 O 2859.48 -0.613477 1.85836 0
M  V30 30827 C 2859.77 2.84812 2.15909 0
M  V30 30828 C 2859.44 4.22683 1.57003 0
M  V30 30829 C 2858.1 4.60182 1.40664 0
M  V30 30830 C 2860.45 5.08564 1.14072 0
M  V30 30831 C 2857.78 5.81231 0.799233 0
M  V30 30832 C 2860.13 6.30227 0.547463 0
M  V30 30833 C 2858.8 6.66467 0.371272 0
M  V30 30834 H 2858.07 0.610882 0.419409 0
M  V30 30835 H 2860.72 1.86559 0.432194 0
M  V30 30836 H 2859.02 2.59566 2.93484 0
M  V30 30837 H 2860.72 2.93229 2.73528 0
M  V30 30838 H 2857.31 3.93138 1.70706 0
M  V30 30839 H 2861.49 4.8017 1.25502 0
M  V30 30840 H 2856.75 6.07926 0.650823 0
M  V30 30841 H 2860.92 6.96094 0.206453 0
M  V30 30842 H 2858.55 7.60132 -0.101483 0
M  V30 30843 N 2860.12 -0.657839 1.43214 0
M  V30 30844 C 2861.35 -1.44563 1.48017 0
M  V30 30845 C 2861.77 -1.88553 0.0966283 0
M  V30 30846 O 2861.12 -1.59205 -0.892193 0
M  V30 30847 C 2861.17 -2.68365 2.42203 0
M  V30 30848 O 2860.9 -2.26217 3.75177 0
M  V30 30849 C 2862.4 -3.61768 2.56201 0
M  V30 30850 H 2859.62 -0.444257 0.502868 0
M  V30 30851 H 2862.16 -0.806884 1.87909 0
M  V30 30852 H 2860.32 -3.28391 2.0552 0
M  V30 30853 H 2860.73 -3.06285 4.25781 0
M  V30 30854 H 2862.2 -4.45314 3.2619 0
M  V30 30855 H 2862.68 -4.08807 1.60541 0
M  V30 30856 H 2863.29 -3.07627 2.93677 0
M  V30 30857 N 2861.6 -1.29668 -0.895769 0
M  V30 30858 C 2862.83 -1.20764 -1.67999 0
M  V30 30859 C 2863.24 0.231154 -1.8738 0
M  V30 30860 O 2862.6 1.15426 -1.41361 0
M  V30 30861 C 2862.65 -1.92103 -3.06233 0
M  V30 30862 O 2862.37 -3.30364 -2.87734 0
M  V30 30863 C 2863.87 -1.89724 -4.00649 0
M  V30 30864 H 2861.09 -0.418393 -0.524584 0
M  V30 30865 H 2863.64 -1.71108 -1.11992 0
M  V30 30866 H 2861.79 -1.45585 -3.59004 0
M  V30 30867 H 2862.21 -3.66348 -3.75352 0
M  V30 30868 H 2863.68 -2.44198 -4.95047 0
M  V30 30869 H 2864.16 -0.87367 -4.30423 0
M  V30 30870 H 2864.76 -2.36005 -3.53811 0
M  V30 30871 N 2863.08 1.10667 -1.12208 0
M  V30 30872 C 2864.33 1.82576 -0.875907 0
M  V30 30873 C 2864.65 1.85069 0.59831 0
M  V30 30874 O 2863.91 1.30523 1.45816 0
M  V30 30875 C 2864.21 3.29143 -1.39282 0
M  V30 30876 C 2863.87 3.46801 -2.88166 0
M  V30 30877 C 2862.54 3.51328 -3.28819 0
M  V30 30878 C 2864.89 3.52393 -3.84017 0
M  V30 30879 C 2862.22 3.59011 -4.64034 0
M  V30 30880 C 2864.57 3.61608 -5.19059 0
M  V30 30881 C 2863.23 3.64398 -5.59258 0
M  V30 30882 H 2862.5 0.668094 -0.320517 0
M  V30 30883 H 2865.15 1.30461 -1.40186 0
M  V30 30884 H 2863.45 3.83809 -0.787275 0
M  V30 30885 H 2865.15 3.83289 -1.17858 0
M  V30 30886 H 2861.74 3.43953 -2.55723 0
M  V30 30887 H 2865.93 3.48148 -3.53704 0
M  V30 30888 H 2861.18 3.59452 -4.94575 0
M  V30 30889 H 2865.36 3.64878 -5.93158 0
M  V30 30890 H 2862.98 3.70104 -6.64023 0
M  V30 30891 N 2864.56 0.913621 1.28416 0
M  V30 30892 C 2865.97 0.611754 1.4741 0
M  V30 30893 C 2866.17 -0.842976 1.8302 0
M  V30 30894 O 2865.23 -1.62207 1.93508 0
M  V30 30895 C 2866.54 1.54954 2.57701 0
M  V30 30896 C 2868.09 1.55624 2.7157 0
M  V30 30897 C 2868.57 2.48065 3.85003 0
M  V30 30898 N 2870.06 2.46191 3.92357 0
M  V30 30899 C 2870.79 3.14415 4.79511 0
M  V30 30900 N 2870.29 3.91968 5.71255 0
M  V30 30901 N 2872.08 3.03503 4.7312 0
M  V30 30902 H 2864.23 1.85431 1.03582 0
M  V30 30903 H 2866.49 0.795335 0.515893 0
M  V30 30904 H 2866.2 2.58668 2.38294 0
M  V30 30905 H 2866.07 1.28055 3.54798 0
M  V30 30906 H 2868.46 0.526492 2.90365 0
M  V30 30907 H 2868.54 1.86568 1.75003 0
M  V30 30908 H 2868.19 3.51142 3.66962 0
M  V30 30909 H 2868.12 2.14424 4.80967 0
M  V30 30910 H 2870.61 1.89857 3.26746 0
M  V30 30911 H 2870.92 4.41046 6.34585 0
M  V30 30912 H 2869.27 3.96073 5.71096 0
M  V30 30913 H 2872.46 2.4242 4.00438 0
M  V30 30914 H 2872.63 3.56945 5.40827 0
M  V30 30915 N 2866.04 -1.4229 0.677588 0
M  V30 30916 C 2867.45 -1.55773 0.347403 0
M  V30 30917 C 2867.65 -1.65669 -1.147 0
M  V30 30918 O 2866.71 -1.62515 -1.93249 0
M  V30 30919 C 2868.02 -2.8063 1.08016 0
M  V30 30920 C 2869.57 -2.94405 1.06276 0
M  V30 30921 C 2870.04 -4.22126 1.7769 0
M  V30 30922 N 2871.53 -4.29044 1.74572 0
M  V30 30923 C 2872.27 -5.2669 2.26683 0
M  V30 30924 N 2871.77 -6.30472 2.87187 0
M  V30 30925 N 2873.56 -5.18507 2.17041 0
M  V30 30926 H 2865.71 -1.34111 1.64706 0
M  V30 30927 H 2867.97 -0.645755 0.694049 0
M  V30 30928 H 2867.68 -2.79465 2.13523 0
M  V30 30929 H 2867.55 -3.71607 0.64718 0
M  V30 30930 H 2869.94 -2.95096 0.0160177 0
M  V30 30931 H 2870.02 -2.04651 1.53465 0
M  V30 30932 H 2869.66 -4.22196 2.82334 0
M  V30 30933 H 2869.59 -5.1082 1.27949 0
M  V30 30934 H 2872.09 -3.54673 1.30443 0
M  V30 30935 H 2872.4 -7.0134 3.24564 0
M  V30 30936 H 2870.74 -6.31026 2.91258 0
M  V30 30937 H 2873.93 -4.3635 1.69459 0
M  V30 30938 H 2874.11 -5.94442 2.57959 0
M  V30 30939 N 2867.51 -0.421104 -1.5187 0
M  V30 30940 C 2868.42 0.405028 -2.31077 0
M  V30 30941 C 2869.44 1.04263 -1.39303 0
M  V30 30942 O 2870.62 1.04154 -1.72377 0
M  V30 30943 C 2867.68 1.50027 -3.12559 0
M  V30 30944 C 2866.74 0.884485 -4.2009 0
M  V30 30945 C 2865.97 1.92753 -4.97677 0
M  V30 30946 O 2866.2 3.14744 -4.75702 0
M  V30 30947 O 2865.13 1.52709 -5.82206 0
M  V30 30948 H 2868.96 -0.24114 -3.02741 0
M  V30 30949 H 2866.54 -0.184017 -1.48262 0
M  V30 30950 H 2868.42 2.13583 -3.63264 0
M  V30 30951 H 2867.1 2.13081 -2.43676 0
M  V30 30952 H 2866.01 0.211313 -3.73503 0
M  V30 30953 H 2867.34 0.297677 -4.91299 0
M  V30 30954 N 2868.99 1.56866 -0.151912 0
M  V30 30955 C 2869.96 2.15814 0.771823 0
M  V30 30956 C 2870.96 1.10117 1.17179 0
M  V30 30957 O 2872.15 1.35731 1.09191 0
M  V30 30958 C 2869.28 2.72524 2.04801 0
M  V30 30959 H 2870.47 2.9878 0.258969 0
M  V30 30960 H 2868.02 1.55995 0.0975606 0
M  V30 30961 H 2868.76 1.93238 2.60441 0
M  V30 30962 H 2868.54 3.49857 1.77038 0
M  V30 30963 H 2870.03 3.17925 2.70765 0
M  V30 30964 N 2870.47 -0.121866 1.57128 0
M  V30 30965 C 2871.75 -0.860296 1.75665 0
M  V30 30966 C 2872.13 -1.98201 0.726619 0
M  V30 30967 O 2871.48 -2.27129 -0.24995 0
M  V30 30968 C 2871.69 -1.37962 3.20573 0
M  V30 30969 C 2873.03 -1.8331 3.82992 0
M  V30 30970 O 2874.06 -1.47648 3.24158 0
M  V30 30971 O 2872.92 -2.49159 4.86397 0
M  V30 30972 H 2870.01 -0.408336 0.71916 0
M  V30 30973 H 2872.56 -0.105829 1.6937 0
M  V30 30974 H 2871.33 -0.574702 3.87057 0
M  V30 30975 H 2870.95 -2.19688 3.31395 0
M  V30 30976 N 2871.95 -1.52648 -0.391965 0
M  V30 30977 C 2873.36 -1.59522 -0.970036 0
M  V30 30978 C 2873.71 -0.44624 -1.91058 0
M  V30 30979 O 2872.84 0.431088 -2.12063 0
M  V30 30980 C 2873.43 -2.89128 -1.76609 0
M  V30 30981 C 2871.99 -2.98424 -2.29391 0
M  V30 30982 C 2871.14 -2.5461 -1.09859 0
M  V30 30983 H 2874.09 -1.57769 -0.17161 0
M  V30 30984 H 2874.11 -2.75447 -2.62506 0
M  V30 30985 H 2873.62 -3.72733 -1.08129 0
M  V30 30986 H 2871.72 -2.1935 -3.01192 0
M  V30 30987 H 2871.83 -4.03006 -2.59081 0
M  V30 30988 H 2870.2 -2.0886 -1.45773 0
M  V30 30989 H 2870.98 -3.40607 -0.42919 0
M  V30 30990 N 2873.43 0.650235 -1.43561 0
M  V30 30991 C 2874.7 1.40762 -1.35813 0
M  V30 30992 C 2875.08 2.11099 -0.00740089 0
M  V30 30993 O 2874.43 2.05002 1.00929 0
M  V30 30994 C 2874.64 2.38985 -2.54336 0
M  V30 30995 C 2875.99 3.02895 -2.97556 0
M  V30 30996 O 2877.01 2.49313 -2.54404 0
M  V30 30997 O 2875.87 4.00052 -3.72318 0
M  V30 30998 H 2872.97 0.629045 -0.536872 0
M  V30 30999 H 2875.51 0.676892 -1.55616 0
M  V30 31000 H 2874.28 1.8598 -3.44278 0
M  V30 31001 H 2873.91 3.19504 -2.36649 0
M  V30 31002 N 2874.9 1.30141 0.88888 0
M  V30 31003 C 2876.18 1.09402 1.62143 0
M  V30 31004 C 2876.56 -0.358055 2.08041 0
M  V30 31005 O 2875.91 -1.34885 1.84441 0
M  V30 31006 C 2876.12 2.09138 2.79396 0
M  V30 31007 C 2877.47 2.40644 3.49822 0
M  V30 31008 O 2878.49 2.07417 2.8958 0
M  V30 31009 O 2877.35 2.97464 4.58451 0
M  V30 31010 H 2874.44 0.419903 0.712468 0
M  V30 31011 H 2876.99 1.41553 0.935999 0
M  V30 31012 H 2875.76 3.06895 2.42757 0
M  V30 31013 H 2875.39 1.77782 3.55639 0
M  V30 31014 N 2876.38 -1.1007 1.12794 0
M  V30 31015 C 2877.33 -2.14672 0.768124 0
M  V30 31016 C 2878.32 -1.59179 -0.234688 0
M  V30 31017 O 2879.51 -1.76956 -0.0396119 0
M  V30 31018 C 2876.64 -3.42538 0.228532 0
M  V30 31019 C 2875.72 -4.04955 1.25986 0
M  V30 31020 N 2876.11 -4.42021 2.45868 0
M  V30 31021 C 2874.41 -4.32067 1.10609 0
M  V30 31022 C 2875.11 -4.91104 3.11755 0
M  V30 31023 N 2874.09 -4.88147 2.39194 0
M  V30 31024 H 2877.89 -2.41127 1.68033 0
M  V30 31025 H 2875.41 -1.2723 1.00927 0
M  V30 31026 H 2877.4 -4.16873 -0.0474483 0
M  V30 31027 H 2876.06 -3.17541 -0.678081 0
M  V30 31028 H 2877.07 -4.33596 2.83223 0
M  V30 31029 H 2873.75 -4.16708 0.257095 0
M  V30 31030 H 2875.14 -5.29302 4.13871 0
M  V30 31031 N 2877.86 -0.920419 -1.2793 0
M  V30 31032 C 2879.09 -0.572291 -1.98515 0
M  V30 31033 C 2879.5 0.852346 -1.68913 0
M  V30 31034 O 2878.84 1.57705 -0.942058 0
M  V30 31035 C 2878.9 -0.709547 -3.52428 0
M  V30 31036 C 2878.57 -2.10496 -4.05636 0
M  V30 31037 C 2879.56 -3.07838 -4.18965 0
M  V30 31038 C 2877.25 -2.41994 -4.40164 0
M  V30 31039 C 2879.24 -4.34791 -4.66085 0
M  V30 31040 C 2876.93 -3.69184 -4.86976 0
M  V30 31041 C 2877.93 -4.65397 -4.99895 0
M  V30 31042 O 2877.62 -5.90326 -5.45684 0
M  V30 31043 H 2877.35 -0.216285 -0.640466 0
M  V30 31044 H 2879.9 -1.23761 -1.63928 0
M  V30 31045 H 2878.13 0.0128583 -3.86698 0
M  V30 31046 H 2879.82 -0.367545 -4.04233 0
M  V30 31047 H 2880.59 -2.84823 -3.92557 0
M  V30 31048 H 2876.47 -1.67854 -4.29355 0
M  V30 31049 H 2880.01 -5.09893 -4.76083 0
M  V30 31050 H 2875.91 -3.92021 -5.12825 0
M  V30 31051 H 2876.68 -5.9321 -5.63954 0
M  V30 31052 N 2879.34 1.41929 -0.685124 0
M  V30 31053 C 2880.27 2.29185 0.0258276 0
M  V30 31054 C 2881.28 1.44232 0.755051 0
M  V30 31055 O 2882.47 1.67845 0.607491 0
M  V30 31056 C 2879.57 3.2188 1.0605 0
M  V30 31057 C 2878.75 4.35539 0.403011 0
M  V30 31058 C 2877.8 5.08882 1.33886 0
M  V30 31059 O 2876.83 5.63039 0.835227 0
M  V30 31060 N 2878.03 5.15364 2.67171 0
M  V30 31061 H 2880.8 2.90842 -0.723252 0
M  V30 31062 H 2878.36 1.52967 -0.530337 0
M  V30 31063 H 2880.35 3.67813 1.68806 0
M  V30 31064 H 2878.92 2.61603 1.71121 0
M  V30 31065 H 2878.14 3.92122 -0.404254 0
M  V30 31066 H 2879.43 5.08771 -0.0545992 0
M  V30 31067 H 2878.83 4.72793 3.10617 0
M  V30 31068 H 2877.38 5.64908 3.25149 0
M  V30 31069 N 2880.82 0.429152 1.51644 0
M  V30 31070 C 2882.23 -0.0358675 1.86666 0
M  V30 31071 C 2882.58 -1.42674 1.3468 0
M  V30 31072 O 2881.7 -2.04962 0.694231 0
M  V30 31073 C 2882.3 -0.0718625 3.38724 0
M  V30 31074 C 2880.86 -0.481271 3.73311 0
M  V30 31075 C 2880 0.331377 2.75313 0
M  V30 31076 H 2882.96 0.645358 1.44986 0
M  V30 31077 H 2882.98 -0.883053 3.70111 0
M  V30 31078 H 2882.49 0.940561 3.7653 0
M  V30 31079 H 2880.59 -1.4996 3.41091 0
M  V30 31080 H 2880.7 -0.211753 4.78632 0
M  V30 31081 H 2879.07 -0.209159 2.5384 0
M  V30 31082 H 2879.85 1.34252 3.15961 0
M  V30 31083 N 2882.29 -1.56783 0.160229 0
M  V30 31084 C 2883.54 -1.96155 -0.48659 0
M  V30 31085 C 2883.86 -1.04676 -1.64523 0
M  V30 31086 O 2883.13 -0.110899 -1.95586 0
M  V30 31087 H 2881.71 -0.7243 -0.182752 0
M  V30 31088 H 2884.38 -1.93431 0.238821 0
M  V30 31089 H 2883.47 -3.00189 -0.853973 0
M  V30 31090 N 2883.77 0.113531 -1.57191 0
M  V30 31091 C 2884.68 1.15773 -2.04043 0
M  V30 31092 C 2885.7 1.44999 -0.961837 0
M  V30 31093 O 2886.88 1.56007 -1.27373 0
M  V30 31094 C 2883.94 2.46304 -2.43999 0
M  V30 31095 C 2883 2.24426 -3.65966 0
M  V30 31096 C 2882.23 3.48733 -4.04006 0
M  V30 31097 O 2882.46 4.56253 -3.42329 0
M  V30 31098 O 2881.39 3.39411 -4.97075 0
M  V30 31099 H 2885.22 0.789848 -2.93249 0
M  V30 31100 H 2882.8 0.324722 -1.45828 0
M  V30 31101 H 2884.68 3.232 -2.70407 0
M  V30 31102 H 2883.36 2.82555 -1.57937 0
M  V30 31103 H 2882.27 1.45371 -3.447 0
M  V30 31104 H 2883.6 1.93076 -4.5275 0
M  V30 31105 N 2885.25 1.52854 0.383864 0
M  V30 31106 C 2886.5 1.67816 1.12616 0
M  V30 31107 C 2886.82 0.423174 1.90353 0
M  V30 31108 O 2886.09 -0.562521 1.8765 0
M  V30 31109 H 2884.67 0.618609 0.418727 0
M  V30 31110 H 2887.33 1.89985 0.434917 0
M  V30 31111 H 2886.43 2.53094 1.8262 0
M  V30 31112 N 2886.73 -0.642612 1.43904 0
M  V30 31113 C 2887.96 -1.42985 1.49542 0
M  V30 31114 C 2888.37 -1.88439 0.116621 0
M  V30 31115 O 2887.73 -1.60142 -0.875257 0
M  V30 31116 C 2887.78 -2.65781 2.45036 0
M  V30 31117 O 2887.5 -2.22225 3.77555 0
M  V30 31118 C 2889 -3.5903 2.60024 0
M  V30 31119 H 2886.22 -0.438899 0.507552 0
M  V30 31120 H 2888.77 -0.786909 1.88754 0
M  V30 31121 H 2886.92 -3.26192 2.08991 0
M  V30 31122 H 2887.34 -3.01752 4.29006 0
M  V30 31123 H 2888.81 -4.41829 3.30894 0
M  V30 31124 H 2889.29 -4.07081 1.64868 0
M  V30 31125 H 2889.89 -3.04495 2.96923 0
M  V30 31126 N 2888.21 -1.30611 -0.881966 0
M  V30 31127 C 2889.14 -1.13062 -1.99373 0
M  V30 31128 C 2890.15 -0.0730165 -1.62636 0
M  V30 31129 O 2891.34 -0.319332 -1.7562 0
M  V30 31130 C 2888.44 -0.70271 -3.31535 0
M  V30 31131 C 2887.61 -1.84272 -3.9669 0
M  V30 31132 C 2886.67 -1.40286 -5.07155 0
M  V30 31133 O 2885.7 -2.11057 -5.28624 0
M  V30 31134 N 2886.9 -0.283551 -5.79807 0
M  V30 31135 H 2889.67 -2.08818 -2.14977 0
M  V30 31136 H 2887.23 -1.22786 -1.05523 0
M  V30 31137 H 2889.22 -0.391402 -4.02803 0
M  V30 31138 H 2887.79 0.162899 -3.12175 0
M  V30 31139 H 2887.01 -2.32198 -3.18556 0
M  V30 31140 H 2888.3 -2.6066 -4.3696 0
M  V30 31141 H 2887.7 0.306089 -5.64871 0
M  V30 31142 H 2886.25 -0.031713 -6.51792 0
M  V30 31143 N 2889.69 1.0947 -1.13376 0
M  V30 31144 C 2890.65 2.14271 -0.813677 0
M  V30 31145 C 2891.65 1.59827 0.176648 0
M  V30 31146 O 2892.84 1.74127 -0.0503747 0
M  V30 31147 C 2889.97 3.40247 -0.210957 0
M  V30 31148 H 2891.16 2.44096 -1.74233 0
M  V30 31149 H 2888.72 1.25001 -0.938326 0
M  V30 31150 H 2889.45 3.16048 0.726942 0
M  V30 31151 H 2889.24 3.81054 -0.924115 0
M  V30 31152 H 2890.73 4.176 -0.00384943 0
M  V30 31153 N 2891.16 0.92719 1.2744 0
M  V30 31154 C 2892.39 0.583657 1.98497 0
M  V30 31155 C 2892.81 -0.838211 1.69173 0
M  V30 31156 O 2892.16 -1.55703 0.951997 0
M  V30 31157 C 2892.21 0.799403 3.5255 0
M  V30 31158 O 2891.94 2.16533 3.80848 0
M  V30 31159 C 2893.44 0.464514 4.4086 0
M  V30 31160 H 2890.66 0.221224 0.633483 0
M  V30 31161 H 2893.2 1.24407 1.62306 0
M  V30 31162 H 2891.36 0.185796 3.86954 0
M  V30 31163 H 2891.77 2.21495 4.75437 0
M  V30 31164 H 2893.24 0.666171 5.47965 0
M  V30 31165 H 2893.72 -0.599919 4.35083 0
M  V30 31166 H 2894.33 1.05624 4.11975 0
M  V30 31167 N 2892.64 -1.41564 0.692641 0
M  V30 31168 C 2893.6 -2.29174 0.0344577 0
M  V30 31169 C 2894.6 -1.4423 -0.710936 0
M  V30 31170 O 2895.79 -1.65413 -0.546264 0
M  V30 31171 C 2892.93 -3.27056 -0.961624 0
M  V30 31172 H 2894.12 -2.88872 0.805806 0
M  V30 31173 H 2891.67 -1.49501 0.455973 0
M  V30 31174 H 2892.41 -2.72332 -1.76084 0
M  V30 31175 H 2892.19 -3.89732 -0.430306 0
M  V30 31176 H 2893.68 -3.92715 -1.42003 0
M  V30 31177 N 2894.12 -0.437188 -1.51415 0
M  V30 31178 C 2895.4 0.189258 -1.94682 0
M  V30 31179 C 2895.78 1.60106 -1.37584 0
M  V30 31180 O 2895.12 2.21459 -0.562854 0
M  V30 31181 C 2895.33 0.167139 -3.486 0
M  V30 31182 C 2896.68 0.372782 -4.2296 0
M  V30 31183 O 2897.71 0.24526 -3.55355 0
M  V30 31184 O 2896.57 0.626598 -5.42896 0
M  V30 31185 H 2893.66 0.130049 -0.816711 0
M  V30 31186 H 2896.21 -0.495156 -1.62315 0
M  V30 31187 H 2894.98 -0.819878 -3.82614 0
M  V30 31188 H 2894.6 0.894469 -3.87408 0
M  V30 31189 N 2895.6 1.56696 -0.168541 0
M  V30 31190 C 2896.54 2.17829 0.762837 0
M  V30 31191 C 2897.51 1.11747 1.2289 0
M  V30 31192 O 2898.7 1.39885 1.29757 0
M  V30 31193 C 2895.84 2.82097 1.98785 0
M  V30 31194 C 2894.95 4.02632 1.56561 0
M  V30 31195 C 2894.09 4.54834 2.74408 0
M  V30 31196 C 2893.13 5.67786 2.28661 0
M  V30 31197 N 2892.26 6.1451 3.39591 0
M  V30 31198 H 2897.1 2.97074 0.234738 0
M  V30 31199 H 2894.64 1.46731 0.104137 0
M  V30 31200 H 2896.6 3.17514 2.70631 0
M  V30 31201 H 2895.23 2.0546 2.4897 0
M  V30 31202 H 2894.28 3.73053 0.744001 0
M  V30 31203 H 2895.59 4.84402 1.18979 0
M  V30 31204 H 2894.75 4.92418 3.54414 0
M  V30 31205 H 2893.49 3.72116 3.15248 0
M  V30 31206 H 2892.49 5.29756 1.47101 0
M  V30 31207 H 2893.72 6.52304 1.88882 0
M  V30 31208 H 2891.66 5.34721 3.80012 0
M  V30 31209 H 2891.58 6.91262 3.06093 0
M  V30 31210 H 2892.85 6.56744 4.1989 0
M  V30 31211 N 2897.08 -0.105193 1.57249 0
M  V30 31212 C 2898.04 -1.11249 2.0039 0
M  V30 31213 C 2899.04 -1.33526 0.895964 0
M  V30 31214 O 2900.23 -1.29809 1.16169 0
M  V30 31215 C 2897.36 -2.46391 2.35593 0
M  V30 31216 H 2898.55 -0.741373 2.90592 0
M  V30 31217 H 2896.11 -0.349929 1.52332 0
M  V30 31218 H 2896.84 -2.88398 1.48315 0
M  V30 31219 H 2896.63 -2.31572 3.16412 0
M  V30 31220 H 2898.12 -3.18859 2.69663 0
M  V30 31221 N 2898.55 -1.53055 -0.375752 0
M  V30 31222 C 2899.5 -1.78774 -1.45974 0
M  V30 31223 C 2900.47 -0.631579 -1.53624 0
M  V30 31224 O 2901.66 -0.872697 -1.69672 0
M  V30 31225 C 2898.8 -1.97429 -2.83047 0
M  V30 31226 C 2897.91 -3.25139 -2.84445 0
M  V30 31227 C 2897.04 -3.34038 -4.13028 0
M  V30 31228 C 2896.08 -4.55819 -4.08528 0
M  V30 31229 N 2895.22 -4.61927 -5.28742 0
M  V30 31230 H 2900.06 -2.71275 -1.23344 0
M  V30 31231 H 2897.6 -1.34391 -0.598123 0
M  V30 31232 H 2899.56 -2.06232 -3.62663 0
M  V30 31233 H 2898.19 -1.08275 -3.04099 0
M  V30 31234 H 2897.24 -3.25342 -1.97122 0
M  V30 31235 H 2898.55 -4.14822 -2.76991 0
M  V30 31236 H 2897.7 -3.42096 -5.01054 0
M  V30 31237 H 2896.44 -2.42352 -4.23222 0
M  V30 31238 H 2895.45 -4.47872 -3.18889 0
M  V30 31239 H 2896.67 -5.48835 -3.99946 0
M  V30 31240 H 2894.62 -3.73138 -5.3954 0
M  V30 31241 H 2894.54 -5.45501 -5.23416 0
M  V30 31242 H 2895.8 -4.74256 -6.18629 0
M  V30 31243 N 2900.03 0.634971 -1.44242 0
M  V30 31244 C 2901.31 1.39314 -1.37299 0
M  V30 31245 C 2901.69 2.11079 -0.0297903 0
M  V30 31246 O 2901.04 2.06061 0.987488 0
M  V30 31247 C 2901.25 2.36274 -2.56857 0
M  V30 31248 C 2902.6 2.99722 -3.00752 0
M  V30 31249 O 2903.62 2.466 -2.57034 0
M  V30 31250 O 2902.48 3.96081 -3.7654 0
M  V30 31251 H 2899.57 0.623315 -0.543514 0
M  V30 31252 H 2902.12 0.660349 -1.56325 0
M  V30 31253 H 2900.89 1.82318 -3.46231 0
M  V30 31254 H 2900.51 3.16977 -2.40024 0
M  V30 31255 N 2901.51 1.31076 0.875027 0
M  V30 31256 C 2902.79 1.11116 1.60974 0
M  V30 31257 C 2903.17 -0.335969 2.08409 0
M  V30 31258 O 2902.52 -1.32921 1.85861 0
M  V30 31259 C 2902.73 2.12089 2.77163 0
M  V30 31260 C 2904.07 2.44341 3.4725 0
M  V30 31261 O 2905.1 2.10477 2.87364 0
M  V30 31262 O 2903.96 3.02309 4.55271 0
M  V30 31263 H 2901.05 0.427436 0.707974 0
M  V30 31264 H 2903.6 1.42537 0.920932 0
M  V30 31265 H 2902.37 3.09453 2.39488 0
M  V30 31266 H 2901.99 1.81544 3.53734 0
M  V30 31267 N 2902.99 -1.08867 1.13955 0
M  V30 31268 C 2903.92 -2.17679 0.844862 0
M  V30 31269 C 2904.9 -1.68942 -0.198183 0
M  V30 31270 O 2906.08 -1.9412 -0.0558732 0
M  V30 31271 C 2903.21 -3.45856 0.316385 0
M  V30 31272 C 2902.17 -4.0796 1.29434 0
M  V30 31273 C 2901.49 -5.3103 0.625368 0
M  V30 31274 C 2902.79 -4.4979 2.65492 0
M  V30 31275 H 2904.49 -2.42588 1.75475 0
M  V30 31276 H 2902.03 -1.16591 0.845136 0
M  V30 31277 H 2903.99 -4.21286 0.0978616 0
M  V30 31278 H 2902.71 -3.20487 -0.628916 0
M  V30 31279 H 2901.37 -3.34555 1.49895 0
M  V30 31280 H 2901.02 -5.01945 -0.32559 0
M  V30 31281 H 2900.72 -5.73537 1.27787 0
M  V30 31282 H 2902.24 -6.09179 0.416259 0
M  V30 31283 H 2903.66 -5.16419 2.48966 0
M  V30 31284 H 2902.05 -5.03199 3.26972 0
M  V30 31285 H 2903.12 -3.61908 3.22723 0
M  V30 31286 N 2904.47 -0.933936 -1.26946 0
M  V30 31287 C 2905.38 -0.443711 -2.30366 0
M  V30 31288 C 2906.39 0.478716 -1.67285 0
M  V30 31289 O 2907.57 0.360008 -1.98156 0
M  V30 31290 C 2904.63 0.289913 -3.45486 0
M  V30 31291 C 2903.69 -0.668188 -4.24068 0
M  V30 31292 C 2902.93 0.03052 -5.33691 0
M  V30 31293 O 2903.15 1.24878 -5.56562 0
M  V30 31294 O 2902.08 -0.644489 -5.9844 0
M  V30 31295 H 2905.91 -1.30259 -2.74347 0
M  V30 31296 H 2903.5 -0.699529 -1.32011 0
M  V30 31297 H 2905.38 0.703457 -4.15487 0
M  V30 31298 H 2904.05 1.1243 -3.03548 0
M  V30 31299 H 2902.96 -1.13153 -3.56577 0
M  V30 31300 H 2904.29 -1.46997 -4.69737 0
M  V30 31301 N 2905.94 1.41194 -0.700139 0
M  V30 31302 C 2906.88 2.28196 0.0129213 0
M  V30 31303 C 2907.86 1.42487 0.783342 0
M  V30 31304 O 2909.04 1.71912 0.773208 0
M  V30 31305 C 2906.17 3.22796 1.02569 0
M  V30 31306 C 2905.21 4.25079 0.347903 0
M  V30 31307 S 2906.05 5.27659 -0.913031 0
M  V30 31308 C 2907.2 6.25823 0.0980262 0
M  V30 31309 H 2907.43 2.88325 -0.724978 0
M  V30 31310 H 2904.97 1.46399 -0.49058 0
M  V30 31311 H 2906.93 3.77829 1.60485 0
M  V30 31312 H 2905.59 2.61754 1.73619 0
M  V30 31313 H 2904.78 4.91558 1.11297 0
M  V30 31314 H 2904.38 3.73665 -0.158296 0
M  V30 31315 H 2906.67 6.70809 0.949847 0
M  V30 31316 H 2907.62 7.06091 -0.532962 0
M  V30 31317 H 2908.02 5.62665 0.454845 0
M  V30 31318 N 2907.42 0.445212 1.51181 0
M  V30 31319 C 2908.65 -0.119409 2.07056 0
M  V30 31320 C 2909.07 -1.35014 1.30969 0
M  V30 31321 O 2908.43 -1.77892 0.349859 0
M  V30 31322 C 2908.48 -0.412365 3.58234 0
M  V30 31323 O 2907.58 -1.49747 3.84252 0
M  V30 31324 H 2906.92 0.00158965 0.663998 0
M  V30 31325 H 2909.45 0.628813 1.94697 0
M  V30 31326 H 2909.46 -0.660513 4.02618 0
M  V30 31327 H 2908.14 0.487121 4.13037 0
M  V30 31328 H 2906.72 -1.23867 3.51726 0
M  V30 31329 N 2908.9 -1.56605 0.176849 0
M  V30 31330 C 2909.86 -2.17014 -0.737391 0
M  V30 31331 C 2910.86 -1.11967 -1.15412 0
M  V30 31332 O 2912.05 -1.37451 -1.07018 0
M  V30 31333 C 2909.19 -2.75748 -2.0044 0
M  V30 31334 H 2910.38 -2.99154 -0.211403 0
M  V30 31335 H 2907.93 -1.56131 -0.0727308 0
M  V30 31336 H 2908.67 -1.97357 -2.57334 0
M  V30 31337 H 2908.45 -3.52629 -1.7145 0
M  V30 31338 H 2909.94 -3.22192 -2.65673 0
M  V30 31339 N 2910.38 0.0968524 -1.57302 0
M  V30 31340 C 2911.62 0.801853 -1.86274 0
M  V30 31341 C 2911.96 1.78466 -0.765725 0
M  V30 31342 O 2911.23 1.93177 0.226461 0
M  V30 31343 C 2911.52 1.53216 -3.25879 0
M  V30 31344 C 2911.37 0.567451 -4.46206 0
M  V30 31345 C 2912.69 2.48315 -3.63356 0
M  V30 31346 H 2909.81 0.290049 -0.677526 0
M  V30 31347 H 2912.45 0.0655243 -1.89887 0
M  V30 31348 H 2910.6 2.15983 -3.2293 0
M  V30 31349 H 2912.27 -0.0530792 -4.61269 0
M  V30 31350 H 2910.51 -0.119309 -4.33636 0
M  V30 31351 H 2911.18 1.11555 -5.4061 0
M  V30 31352 H 2913.66 1.95641 -3.67238 0
M  V30 31353 H 2912.54 2.96432 -4.61973 0
M  V30 31354 H 2912.8 3.31993 -2.91947 0
M  V30 31355 N 2911.86 1.53252 0.36763 0
M  V30 31356 C 2913.11 1.68556 1.10779 0
M  V30 31357 C 2913.42 0.442799 1.90522 0
M  V30 31358 O 2914.62 0.476337 2.67289 0
M  V30 31359 C 2913.08 2.97962 2.01857 0
M  V30 31360 C 2912.69 4.29493 1.27435 0
M  V30 31361 C 2914.43 3.22633 2.75877 0
M  V30 31362 C 2912.34 5.4999 2.17404 0
M  V30 31363 H 2911.27 0.62802 0.417261 0
M  V30 31364 H 2913.92 1.79753 0.36894 0
M  V30 31365 H 2912.3 2.80563 2.79465 0
M  V30 31366 H 2913.48 4.57517 0.549058 0
M  V30 31367 H 2911.79 4.1125 0.652863 0
M  V30 31368 H 2914.39 4.09843 3.43414 0
M  V30 31369 H 2914.73 2.38607 3.41134 0
M  V30 31370 H 2915.26 3.40697 2.05354 0
M  V30 31371 H 2912 6.36487 1.56729 0
M  V30 31372 H 2911.52 5.26248 2.87789 0
M  V30 31373 H 2913.2 5.84701 2.77009 0
M  V30 31374 N 2913.34 -0.627313 1.44577 0
M  V30 31375 C 2914.56 -1.41391 1.5105 0
M  V30 31376 C 2914.98 -1.88305 0.136601 0
M  V30 31377 O 2914.34 -1.61061 -0.858223 0
M  V30 31378 C 2914.39 -2.63167 2.47841 0
M  V30 31379 O 2914.11 -2.18208 3.79891 0
M  V30 31380 C 2915.61 -3.56252 2.63817 0
M  V30 31381 H 2912.83 -0.433491 0.512179 0
M  V30 31382 H 2915.37 -0.766844 1.89578 0
M  V30 31383 H 2913.53 -3.23957 2.12439 0
M  V30 31384 H 2913.94 -2.97185 4.32182 0
M  V30 31385 H 2915.42 -4.38295 3.35562 0
M  V30 31386 H 2915.89 -4.0531 1.69176 0
M  V30 31387 H 2916.5 -3.01328 3.00136 0
M  V30 31388 N 2914.81 -1.31539 -0.868063 0
M  V30 31389 C 2916.06 -1.20692 -1.61605 0
M  V30 31390 C 2916.38 0.23324 -1.94204 0
M  V30 31391 O 2917.58 0.463418 -2.67516 0
M  V30 31392 C 2916.04 -2.11297 -2.91344 0
M  V30 31393 C 2915.65 -3.6032 -2.66221 0
M  V30 31394 C 2917.39 -2.09255 -3.69341 0
M  V30 31395 C 2915.3 -4.42927 -3.91879 0
M  V30 31396 H 2914.23 -0.448149 -0.606365 0
M  V30 31397 H 2916.88 -1.56407 -0.959638 0
M  V30 31398 H 2915.26 -1.68483 -3.58371 0
M  V30 31399 H 2916.43 -4.11392 -2.0759 0
M  V30 31400 H 2914.75 -3.64357 -2.01576 0
M  V30 31401 H 2917.35 -2.68217 -4.62562 0
M  V30 31402 H 2917.69 -1.08017 -4.02042 0
M  V30 31403 H 2918.22 -2.5028 -3.092 0
M  V30 31404 H 2914.96 -5.44928 -3.64327 0
M  V30 31405 H 2914.48 -3.96612 -4.49954 0
M  V30 31406 H 2916.16 -4.55239 -4.59746 0
M  V30 31407 N 2916.29 1.08262 -1.1453 0
M  V30 31408 C 2917.22 2.14558 -0.777192 0
M  V30 31409 C 2918.2 1.60787 0.242137 0
M  V30 31410 O 2919.39 1.88045 0.130849 0
M  V30 31411 C 2916.51 3.38349 -0.154151 0
M  V30 31412 C 2915.56 4.10874 -1.14389 0
M  V30 31413 S 2916.39 4.63508 -2.68181 0
M  V30 31414 C 2917.55 5.90584 -2.0727 0
M  V30 31415 H 2917.78 2.45451 -1.67752 0
M  V30 31416 H 2915.31 1.20394 -0.966683 0
M  V30 31417 H 2917.27 4.10018 0.198898 0
M  V30 31418 H 2915.93 3.05651 0.723634 0
M  V30 31419 H 2915.13 4.99713 -0.655996 0
M  V30 31420 H 2914.73 3.45125 -1.44101 0
M  V30 31421 H 2917.02 6.62257 -1.42906 0
M  V30 31422 H 2917.96 6.44072 -2.94239 0
M  V30 31423 H 2918.37 5.43666 -1.51945 0
M  V30 31424 N 2917.77 0.940655 1.26449 0
M  V30 31425 C 2918.7 0.407144 2.25555 0
M  V30 31426 C 2919.71 -0.469297 1.55889 0
M  V30 31427 O 2920.9 -0.279827 1.76293 0
M  V30 31428 C 2918 -0.434004 3.3611 0
M  V30 31429 C 2917.18 0.426158 4.35319 0
M  V30 31430 C 2916.24 -0.354471 5.25005 0
M  V30 31431 O 2915.26 0.242319 5.68684 0
M  V30 31432 N 2916.46 -1.65114 5.56523 0
M  V30 31433 H 2919.23 1.25912 2.71967 0
M  V30 31434 H 2916.79 0.80948 1.40211 0
M  V30 31435 H 2918.78 -0.963615 3.9306 0
M  V30 31436 H 2917.35 -1.18678 2.89196 0
M  V30 31437 H 2916.57 1.13698 3.77447 0
M  V30 31438 H 2917.86 1.01374 4.98599 0
M  V30 31439 H 2917.26 -2.15813 5.22916 0
M  V30 31440 H 2915.81 -2.127 6.16118 0
M  V30 31441 N 2919.25 -1.40821 0.707617 0
M  V30 31442 C 2920.66 -1.83988 0.317043 0
M  V30 31443 C 2921.01 -1.59185 -1.14694 0
M  V30 31444 O 2920.13 -1.06855 -1.88178 0
M  V30 31445 C 2920.73 -3.33994 0.568651 0
M  V30 31446 C 2919.29 -3.75685 0.23187 0
M  V30 31447 C 2918.44 -2.64112 0.844979 0
M  V30 31448 H 2921.39 -1.30202 0.907372 0
M  V30 31449 H 2921.41 -3.80126 -0.168731 0
M  V30 31450 H 2920.92 -3.52015 1.63423 0
M  V30 31451 H 2919.02 -3.63261 -0.828966 0
M  V30 31452 H 2919.13 -4.74028 0.695302 0
M  V30 31453 H 2917.5 -2.53226 0.273632 0
M  V30 31454 H 2918.28 -2.84948 1.91467 0
M  V30 31455 N 2920.73 -0.453223 -1.50943 0
M  V30 31456 C 2921.97 0.109475 -2.01403 0
M  V30 31457 C 2922.29 1.42384 -1.34113 0
M  V30 31458 O 2923.49 2.07042 -1.7563 0
M  V30 31459 C 2921.95 0.24563 -3.59061 0
M  V30 31460 C 2921.56 -1.05924 -4.35298 0
M  V30 31461 C 2923.3 0.761245 -4.17619 0
M  V30 31462 C 2921.21 -0.887855 -5.84697 0
M  V30 31463 H 2920.14 0.044688 -0.752675 0
M  V30 31464 H 2922.79 -0.585405 -1.73912 0
M  V30 31465 H 2921.17 1.00388 -3.83064 0
M  V30 31466 H 2922.35 -1.82706 -4.23031 0
M  V30 31467 H 2920.66 -1.50459 -3.88267 0
M  V30 31468 H 2923.26 0.906213 -5.26965 0
M  V30 31469 H 2923.6 1.74792 -3.77827 0
M  V30 31470 H 2924.13 0.0608717 -3.97753 0
M  V30 31471 H 2920.87 -1.84737 -6.2893 0
M  V30 31472 H 2920.39 -0.160111 -5.99586 0
M  V30 31473 H 2922.07 -0.547337 -6.44681 0
M  V30 31474 N 2922.2 1.56509 -0.185151 0
M  V30 31475 C 2923.13 2.21628 0.735059 0
M  V30 31476 C 2924.11 1.17622 1.22878 0
M  V30 31477 O 2925.3 1.46097 1.27942 0
M  V30 31478 C 2922.43 2.86787 1.95884 0
M  V30 31479 C 2921.38 3.96951 1.60043 0
M  V30 31480 C 2920.71 4.49225 2.90001 0
M  V30 31481 C 2922.01 5.15856 0.817917 0
M  V30 31482 H 2923.7 2.98782 0.192221 0
M  V30 31483 H 2921.25 1.43712 0.0910141 0
M  V30 31484 H 2923.2 3.31022 2.60773 0
M  V30 31485 H 2921.93 2.07023 2.52605 0
M  V30 31486 H 2920.59 3.53392 0.975174 0
M  V30 31487 H 2920.23 3.66236 3.4479 0
M  V30 31488 H 2919.93 5.23553 2.66769 0
M  V30 31489 H 2921.46 4.96156 3.55896 0
M  V30 31490 H 2922.87 5.56698 1.36969 0
M  V30 31491 H 2921.27 5.96188 0.684102 0
M  V30 31492 H 2922.34 4.84554 -0.183024 0
M  V30 31493 N 2923.68 -0.0885089 1.57351 0
M  V30 31494 C 2925.1 -0.442889 1.53332 0
M  V30 31495 C 2925.3 -1.80141 0.902863 0
M  V30 31496 O 2924.35 -2.47536 0.498191 0
M  V30 31497 C 2925.67 -0.399319 2.98037 0
M  V30 31498 C 2927.21 -0.480705 3.09287 0
M  V30 31499 C 2927.69 -0.467216 4.55611 0
M  V30 31500 N 2929.18 -0.527779 4.60183 0
M  V30 31501 C 2929.92 -0.539287 5.70858 0
M  V30 31502 N 2929.41 -0.506608 6.90945 0
M  V30 31503 N 2931.2 -0.584593 5.59052 0
M  V30 31504 H 2923.36 0.801249 1.96707 0
M  V30 31505 H 2925.62 0.298938 0.899633 0
M  V30 31506 H 2925.32 0.531867 3.47655 0
M  V30 31507 H 2925.2 -1.21583 3.57068 0
M  V30 31508 H 2927.59 -1.40231 2.59652 0
M  V30 31509 H 2927.67 0.364067 2.53196 0
M  V30 31510 H 2927.31 0.450473 5.05898 0
M  V30 31511 H 2927.24 -1.32929 5.09546 0
M  V30 31512 H 2929.73 -0.557963 3.73758 0
M  V30 31513 H 2930.04 -0.518854 7.71056 0
M  V30 31514 H 2928.39 -0.473554 6.93385 0
M  V30 31515 H 2931.58 -0.607699 4.64139 0
M  V30 31516 H 2931.75 -0.590093 6.45308 0
M  V30 31517 N 2925.16 -1.53445 -0.359498 0
M  V30 31518 C 2926.41 -1.69922 -1.10149 0
M  V30 31519 C 2926.73 -0.454133 -1.89124 0
M  V30 31520 O 2925.99 0.56399 -1.87397 0
M  V30 31521 C 2926.29 -2.90436 -2.08282 0
M  V30 31522 C 2925.95 -4.26697 -1.45741 0
M  V30 31523 C 2924.62 -4.63749 -1.28413 0
M  V30 31524 C 2926.97 -5.11409 -1.00548 0
M  V30 31525 C 2924.3 -5.83145 -0.644849 0
M  V30 31526 C 2926.65 -6.31457 -0.380177 0
M  V30 31527 C 2925.31 -6.67217 -0.19444 0
M  V30 31528 H 2924.58 -0.621788 -0.403065 0
M  V30 31529 H 2927.23 -1.87639 -0.382579 0
M  V30 31530 H 2925.53 -2.67256 -2.86499 0
M  V30 31531 H 2927.23 -3.00379 -2.65657 0
M  V30 31532 H 2923.82 -3.97526 -1.60223 0
M  V30 31533 H 2928.01 -4.83328 -1.12727 0
M  V30 31534 H 2923.26 -6.09438 -0.489413 0
M  V30 31535 H 2927.44 -6.96397 -0.0218231 0
M  V30 31536 H 2925.06 -7.59596 0.302983 0
M  V30 31537 N 2926.64 0.619637 -1.44908 0
M  V30 31538 C 2927.57 1.74198 -1.55491 0
M  V30 31539 C 2928.55 1.65155 -0.407172 0
M  V30 31540 O 2929.73 1.83739 -0.628775 0
M  V30 31541 C 2926.86 3.12768 -1.50976 0
M  V30 31542 C 2925.82 3.3661 -2.64343 0
M  V30 31543 C 2925.14 4.75329 -2.44881 0
M  V30 31544 C 2926.44 3.28044 -4.06429 0
M  V30 31545 H 2928.14 1.65597 -2.49435 0
M  V30 31546 H 2925.68 0.79526 -1.20048 0
M  V30 31547 H 2927.64 3.9107 -1.56978 0
M  V30 31548 H 2926.36 3.22179 -0.535543 0
M  V30 31549 H 2925.02 2.60693 -2.57749 0
M  V30 31550 H 2924.67 4.81458 -1.45625 0
M  V30 31551 H 2924.37 4.92239 -3.20897 0
M  V30 31552 H 2925.89 5.55847 -2.52719 0
M  V30 31553 H 2927.31 3.96236 -4.14331 0
M  V30 31554 H 2925.7 3.56486 -4.8274 0
M  V30 31555 H 2926.77 2.25669 -4.29187 0
M  V30 31556 N 2928.12 1.31997 0.861075 0
M  V30 31557 C 2929.05 1.16219 1.97549 0
M  V30 31558 C 2930.06 0.0988813 1.62499 0
M  V30 31559 O 2931.25 0.347231 1.7509 0
M  V30 31560 C 2928.35 0.755365 3.30375 0
M  V30 31561 C 2927.52 1.90559 3.93708 0
M  V30 31562 C 2926.58 1.48337 5.04859 0
M  V30 31563 O 2925.61 2.1944 5.252 0
M  V30 31564 N 2926.81 0.375758 5.79283 0
M  V30 31565 H 2929.58 2.12212 2.11628 0
M  V30 31566 H 2927.14 1.24449 1.03557 0
M  V30 31567 H 2929.13 0.455435 4.02129 0
M  V30 31568 H 2927.7 -0.113214 3.12395 0
M  V30 31569 H 2926.92 2.37237 3.14821 0
M  V30 31570 H 2928.21 2.67579 4.32757 0
M  V30 31571 H 2927.6 -0.216185 5.65287 0
M  V30 31572 H 2926.16 0.135404 6.51659 0
M  V30 31573 N 2929.59 -1.07653 1.15103 0
M  V30 31574 C 2930.52 -2.16771 0.867902 0
M  V30 31575 C 2931.51 -1.69142 -0.180253 0
M  V30 31576 O 2932.69 -1.94168 -0.0352811 0
M  V30 31577 C 2929.82 -3.45501 0.35305 0
M  V30 31578 C 2928.77 -4.06564 1.33753 0
M  V30 31579 C 2928.1 -5.30337 0.681656 0
M  V30 31580 C 2929.4 -4.46949 2.70248 0
M  V30 31581 H 2931.09 -2.40713 1.78039 0
M  V30 31582 H 2928.64 -1.15688 0.857455 0
M  V30 31583 H 2930.59 -4.21159 0.142539 0
M  V30 31584 H 2929.32 -3.21136 -0.594888 0
M  V30 31585 H 2927.98 -3.32946 1.53435 0
M  V30 31586 H 2927.62 -5.02262 -0.272334 0
M  V30 31587 H 2927.32 -5.72149 1.33863 0
M  V30 31588 H 2928.85 -6.08704 0.480847 0
M  V30 31589 H 2930.26 -5.1375 2.54429 0
M  V30 31590 H 2928.66 -4.99703 3.32291 0
M  V30 31591 H 2929.73 -3.58465 3.26544 0
M  V30 31592 N 2931.07 -0.947348 -1.25949 0
M  V30 31593 C 2932 -0.479644 -2.28521 0
M  V30 31594 C 2932.98 0.470264 -1.6347 0
M  V30 31595 O 2934.17 0.370791 -1.90627 0
M  V30 31596 C 2931.3 0.250228 -3.46397 0
M  V30 31597 C 2930.25 -0.613718 -4.23577 0
M  V30 31598 C 2929.58 0.246474 -5.34132 0
M  V30 31599 C 2930.88 -1.88817 -4.86976 0
M  V30 31600 H 2932.57 -1.33692 -2.67893 0
M  V30 31601 H 2930.12 -0.644297 -1.28782 0
M  V30 31602 H 2932.07 0.588502 -4.1727 0
M  V30 31603 H 2930.8 1.1417 -3.05995 0
M  V30 31604 H 2929.45 -0.934973 -3.54477 0
M  V30 31605 H 2929.1 1.13748 -4.8997 0
M  V30 31606 H 2928.8 -0.328227 -5.86683 0
M  V30 31607 H 2930.33 0.579879 -6.0784 0
M  V30 31608 H 2931.74 -1.61676 -5.50031 0
M  V30 31609 H 2930.14 -2.40794 -5.49671 0
M  V30 31610 H 2931.21 -2.59577 -4.0957 0
M  V30 31611 N 2932.55 1.40444 -0.715075 0
M  V30 31612 C 2933.79 2.02755 -0.258778 0
M  V30 31613 C 2934.15 1.55474 1.12659 0
M  V30 31614 O 2935.36 2.09845 1.67984 0
M  V30 31615 C 2933.63 3.55824 -0.335263 0
M  V30 31616 S 2935.19 4.38778 0.0441239 0
M  V30 31617 H 2932 0.703544 -0.102695 0
M  V30 31618 H 2934.61 1.71573 -0.937181 0
M  V30 31619 H 2933.31 3.87728 -1.34518 0
M  V30 31620 H 2932.84 3.91734 0.361636 0
M  V30 31621 H 2934.86 4.7977 1.26631 0
M  V30 31622 N 2934.03 0.461222 1.507 0
M  V30 31623 C 2934.94 -0.34362 2.3207 0
M  V30 31624 C 2935.95 -1.00533 1.42018 0
M  V30 31625 O 2937.13 -0.995468 1.75078 0
M  V30 31626 C 2934.2 -1.41687 3.16426 0
M  V30 31627 C 2933.26 -0.772795 4.22287 0
M  V30 31628 C 2932.49 -1.7949 5.02612 0
M  V30 31629 O 2932.71 -3.02021 4.8388 0
M  V30 31630 O 2931.65 -1.37219 5.8605 0
M  V30 31631 H 2935.47 0.321321 3.01995 0
M  V30 31632 H 2933.06 0.223261 1.47722 0
M  V30 31633 H 2934.94 -2.03876 3.68799 0
M  V30 31634 H 2933.61 -2.06546 2.4924 0
M  V30 31635 H 2932.52 -0.112211 3.73932 0
M  V30 31636 H 2933.85 -0.167313 4.91916 0
M  V30 31637 N 2935.51 -1.56408 0.193449 0
M  V30 31638 C 2936.45 -2.20353 -0.744791 0
M  V30 31639 C 2937.45 -1.1742 -1.22102 0
M  V30 31640 O 2938.65 -1.35569 -1.18411 0
M  V30 31641 H 2935.03 -0.706165 -0.258525 0
M  V30 31642 H 2937 -2.97846 -0.181742 0
M  V30 31643 C 2935.75 -2.87568 -1.95448 0
M  V30 31644 H 2935.07 -3.66514 -1.5971 0
M  V30 31645 H 2936.51 -3.3575 -2.58936 0
M  V30 31646 C 2934.97 -1.88515 -2.7922 0
M  V30 31647 O 2935.5 -1.38441 -3.7709 0
M  V30 31648 N 2933.71 -1.56781 -2.44679 0
M  V30 31649 H 2933.25 -1.97695 -1.6515 0
M  V30 31650 H 2933.21 -0.907626 -3.01014 0
M  V30 31651 N 2936.98 0.0801629 -1.57396 0
M  V30 31652 C 2937.93 1.10286 -1.99552 0
M  V30 31653 C 2938.92 1.34946 -0.876258 0
M  V30 31654 O 2940.11 1.35387 -1.14014 0
M  V30 31655 C 2937.24 2.41896 -2.43601 0
M  V30 31656 C 2936.33 2.20545 -3.62244 0
M  V30 31657 N 2936.72 1.69101 -4.76696 0
M  V30 31658 C 2935.01 2.51052 -3.68631 0
M  V30 31659 C 2935.72 1.62369 -5.5858 0
M  V30 31660 N 2934.69 2.08121 -5.02182 0
M  V30 31661 H 2938.49 0.698285 -2.85484 0
M  V30 31662 H 2936.01 0.287367 -1.59837 0
M  V30 31663 H 2938 3.15914 -2.72037 0
M  V30 31664 H 2936.66 2.83077 -1.59052 0
M  V30 31665 H 2937.68 1.38084 -4.99153 0
M  V30 31666 H 2934.35 2.95656 -2.94777 0
M  V30 31667 H 2935.74 1.23519 -6.60449 0
M  V30 31668 N 2938.46 1.53634 0.351355 0
M  V30 31669 C 2939.41 1.81762 1.45139 0
M  V30 31670 C 2940.4 0.687598 1.54817 0
M  V30 31671 O 2941.61 0.8708 1.57534 0
M  V30 31672 H 2937.99 0.575728 0.483779 0
M  V30 31673 H 2939.96 2.73808 1.18625 0
M  V30 31674 C 2938.71 2.03711 2.81775 0
M  V30 31675 H 2938.03 2.90111 2.75092 0
M  V30 31676 H 2939.47 2.27362 3.57886 0
M  V30 31677 C 2937.93 0.820329 3.2676 0
M  V30 31678 O 2938.46 0.0159309 4.01697 0
M  V30 31679 N 2936.66 0.639749 2.83471 0
M  V30 31680 H 2936.21 1.2955 2.22653 0
M  V30 31681 H 2936.17 -0.17294 3.13924 0
M  V30 31682 N 2939.94 -0.611943 1.45234 0
M  V30 31683 C 2941.36 -0.932228 1.29544 0
M  V30 31684 C 2941.56 -2.00002 0.245265 0
M  V30 31685 O 2940.61 -2.49887 -0.362289 0
M  V30 31686 C 2941.93 -1.37729 2.67304 0
M  V30 31687 C 2943.47 -1.49173 2.75166 0
M  V30 31688 C 2943.95 -1.97056 4.1344 0
M  V30 31689 N 2945.44 -2.04297 4.15713 0
M  V30 31690 C 2946.17 -2.42559 5.1957 0
M  V30 31691 N 2945.67 -2.79821 6.33776 0
M  V30 31692 N 2947.46 -2.4286 5.06927 0
M  V30 31693 H 2939.61 0.0939052 2.12192 0
M  V30 31694 H 2941.88 -0.0206402 0.947775 0
M  V30 31695 H 2941.58 -0.66689 3.45319 0
M  V30 31696 H 2941.46 -2.34465 2.95476 0
M  V30 31697 H 2943.84 -2.19305 1.97457 0
M  V30 31698 H 2943.93 -0.50763 2.50713 0
M  V30 31699 H 2943.57 -1.27513 4.91633 0
M  V30 31700 H 2943.5 -2.96373 4.35283 0
M  V30 31701 H 2945.99 -1.78108 3.33296 0
M  V30 31702 H 2946.3 -3.07885 7.08821 0
M  V30 31703 H 2944.65 -2.77527 6.37184 0
M  V30 31704 H 2947.84 -2.13153 4.16753 0
M  V30 31705 H 2948.01 -2.72353 5.87986 0
M  V30 31706 N 2941.42 -1.32452 -0.854063 0
M  V30 31707 C 2942.7 -1.13663 -1.59186 0
M  V30 31708 C 2943.08 0.30277 -2.08917 0
M  V30 31709 O 2942.42 1.29947 -1.87952 0
M  V30 31710 C 2942.63 -2.16472 -2.73753 0
M  V30 31711 C 2943.98 -2.49835 -3.43319 0
M  V30 31712 O 2945.01 -2.15022 -2.83979 0
M  V30 31713 O 2943.86 -3.09514 -4.50404 0
M  V30 31714 H 2940.96 -0.438645 -0.701084 0
M  V30 31715 H 2943.5 -1.43985 -0.898139 0
M  V30 31716 H 2942.28 -3.13224 -2.34535 0
M  V30 31717 H 2941.9 -1.87148 -3.50801 0
M  V30 31718 N 2942.9 1.07041 -1.15672 0
M  V30 31719 C 2943.83 2.16308 -0.879386 0
M  V30 31720 C 2944.81 1.69235 0.171281 0
M  V30 31721 O 2945.99 1.94184 0.0249834 0
M  V30 31722 C 2943.12 3.45309 -0.371368 0
M  V30 31723 C 2942.08 4.05849 -1.35907 0
M  V30 31724 C 2941.4 5.29968 -0.709771 0
M  V30 31725 C 2942.7 4.4551 -2.72614 0
M  V30 31726 H 2944.4 2.39765 -1.79313 0
M  V30 31727 H 2941.94 1.15232 -0.863578 0
M  V30 31728 H 2943.9 4.21077 -0.164872 0
M  V30 31729 H 2942.62 3.21447 0.577849 0
M  V30 31730 H 2941.28 3.32128 -1.55198 0
M  V30 31731 H 2940.93 5.024 0.245694 0
M  V30 31732 H 2940.63 5.71431 -1.36896 0
M  V30 31733 H 2942.15 6.0844 -0.513122 0
M  V30 31734 H 2943.57 5.12393 -2.5715 0
M  V30 31735 H 2941.96 4.97934 -3.34936 0
M  V30 31736 H 2943.03 3.56728 -3.2844 0
M  V30 31737 N 2944.38 0.954014 1.25445 0
M  V30 31738 C 2945.31 0.431044 2.2511 0
M  V30 31739 C 2946.32 -0.452736 1.56378 0
M  V30 31740 O 2947.51 -0.261113 1.7658 0
M  V30 31741 C 2944.61 -0.398331 3.36551 0
M  V30 31742 C 2943.78 0.472306 4.34843 0
M  V30 31743 C 2942.84 -0.298767 5.25351 0
M  V30 31744 O 2941.87 0.302622 5.68395 0
M  V30 31745 N 2943.07 -1.59202 5.58243 0
M  V30 31746 H 2945.83 1.28789 2.70617 0
M  V30 31747 H 2943.4 0.824306 1.39344 0
M  V30 31748 H 2945.39 -0.921872 3.9406 0
M  V30 31749 H 2943.96 -1.15604 2.90438 0
M  V30 31750 H 2943.18 1.17695 3.7622 0
M  V30 31751 H 2944.47 1.06657 4.97495 0
M  V30 31752 H 2943.86 -2.10255 5.25176 0
M  V30 31753 H 2942.42 -2.06153 6.1834 0
M  V30 31754 N 2945.85 -1.40063 0.722513 0
M  V30 31755 C 2946.8 -2.32514 0.0633699 0
M  V30 31756 C 2947.8 -1.52406 -0.739504 0
M  V30 31757 O 2949 -1.68158 -0.642093 0
M  V30 31758 H 2945.38 -0.751998 0.00169014 0
M  V30 31759 H 2947.35 -2.85747 0.859706 0
M  V30 31760 C 2946.1 -3.37422 -0.83916 0
M  V30 31761 H 2945.42 -3.99133 -0.230766 0
M  V30 31762 H 2946.86 -4.0459 -1.2682 0
M  V30 31763 C 2945.32 -2.73459 -1.96778 0
M  V30 31764 O 2945.85 -2.60329 -3.05928 0
M  V30 31765 N 2944.05 -2.31737 -1.75347 0
M  V30 31766 H 2943.6 -2.42616 -0.865744 0
M  V30 31767 H 2943.56 -1.89279 -2.5104 0
M  V30 31768 N 2947.33 -0.469207 -1.50453 0
M  V30 31769 C 2948.58 0.0864334 -2.02315 0
M  V30 31770 C 2948.91 1.39891 -1.35133 0
M  V30 31771 O 2948.16 1.90086 -0.465374 0
M  V30 31772 C 2948.46 0.320144 -3.55963 0
M  V30 31773 C 2948.13 -0.910395 -4.41614 0
M  V30 31774 C 2946.79 -1.24778 -4.64741 0
M  V30 31775 C 2949.14 -1.7298 -4.91658 0
M  V30 31776 C 2946.47 -2.40467 -5.35157 0
M  V30 31777 C 2948.82 -2.87794 -5.63345 0
M  V30 31778 C 2947.48 -3.2195 -5.84726 0
M  V30 31779 H 2946.75 0.0316282 -0.740325 0
M  V30 31780 H 2949.4 -0.622904 -1.81086 0
M  V30 31781 H 2947.71 1.11171 -3.75697 0
M  V30 31782 H 2949.4 0.764002 -3.93655 0
M  V30 31783 H 2945.99 -0.637541 -4.23832 0
M  V30 31784 H 2950.18 -1.48232 -4.73646 0
M  V30 31785 H 2945.43 -2.67206 -5.49919 0
M  V30 31786 H 2949.61 -3.51635 -6.01104 0
M  V30 31787 H 2947.23 -4.11702 -6.39066 0
M  V30 31788 N 2948.81 1.56303 -0.201741 0
M  V30 31789 C 2949.74 2.22396 0.711511 0
M  V30 31790 C 2950.72 1.18919 1.21623 0
M  V30 31791 O 2951.91 1.47446 1.26386 0
M  V30 31792 C 2949.04 2.88848 1.92831 0
M  V30 31793 C 2947.99 3.98626 1.55824 0
M  V30 31794 C 2947.32 4.52276 2.8522 0
M  V30 31795 C 2948.62 5.16694 0.763158 0
M  V30 31796 H 2950.31 2.98969 0.160521 0
M  V30 31797 H 2947.86 1.43801 0.0757663 0
M  V30 31798 H 2949.81 3.33769 2.57247 0
M  V30 31799 H 2948.53 2.0969 2.50395 0
M  V30 31800 H 2947.19 3.54406 0.937638 0
M  V30 31801 H 2946.84 3.69872 3.40887 0
M  V30 31802 H 2946.54 5.26353 2.61201 0
M  V30 31803 H 2948.06 4.99903 3.50613 0
M  V30 31804 H 2949.48 5.58119 1.31057 0
M  V30 31805 H 2947.87 5.9688 0.62083 0
M  V30 31806 H 2948.94 4.84333 -0.234407 0
M  V30 31807 N 2950.29 -0.0718147 1.57436 0
M  V30 31808 C 2951.7 -0.426601 1.53793 0
M  V30 31809 C 2951.9 -1.79173 0.921918 0
M  V30 31810 O 2950.96 -2.46994 0.524417 0
M  V30 31811 C 2952.27 -0.367686 2.98444 0
M  V30 31812 C 2953.82 -0.447874 3.09779 0
M  V30 31813 C 2954.3 -0.418866 4.56081 0
M  V30 31814 N 2955.79 -0.478941 4.60717 0
M  V30 31815 C 2956.52 -0.47871 5.71398 0
M  V30 31816 N 2956.02 -0.433295 6.91444 0
M  V30 31817 N 2957.81 -0.525265 5.5964 0
M  V30 31818 H 2949.96 0.822068 1.95846 0
M  V30 31819 H 2952.22 0.308463 0.896412 0
M  V30 31820 H 2951.93 0.568711 3.47071 0
M  V30 31821 H 2951.8 -1.17789 3.58337 0
M  V30 31822 H 2954.19 -1.37469 2.61125 0
M  V30 31823 H 2954.27 0.390902 2.52796 0
M  V30 31824 H 2953.92 0.504105 5.05392 0
M  V30 31825 H 2953.85 -1.27517 5.10927 0
M  V30 31826 H 2956.34 -0.518289 3.74329 0
M  V30 31827 H 2956.65 -0.437044 7.71563 0
M  V30 31828 H 2955 -0.399984 6.93848 0
M  V30 31829 H 2958.19 -0.558437 4.64757 0
M  V30 31830 H 2958.36 -0.521616 6.45897 0
M  V30 31831 N 2951.77 -1.53818 -0.343203 0
M  V30 31832 C 2953.01 -1.72795 -1.09185 0
M  V30 31833 C 2953.37 -0.481095 -1.85875 0
M  V30 31834 O 2954.57 -0.547897 -2.63157 0
M  V30 31835 C 2952.84 -2.95674 -2.00778 0
M  V30 31836 S 2954.4 -3.35464 -2.8286 0
M  V30 31837 H 2951.22 -0.607801 -0.368916 0
M  V30 31838 H 2953.82 -1.91962 -0.370231 0
M  V30 31839 H 2952.52 -3.84592 -1.43239 0
M  V30 31840 H 2952.06 -2.78973 -2.77376 0
M  V30 31841 H 2954.07 -2.89225 -4.03191 0
M  V30 31842 N 2953.24 0.604233 -1.45557 0
M  V30 31843 C 2954.18 1.72868 -1.50497 0
M  V30 31844 C 2955.19 1.57925 -0.395396 0
M  V30 31845 O 2956.38 1.65745 -0.662633 0
M  V30 31846 C 2953.48 3.10903 -1.34879 0
M  V30 31847 C 2952.65 3.52054 -2.5957 0
M  V30 31848 C 2951.71 4.69066 -2.38461 0
M  V30 31849 O 2950.74 4.76013 -3.1209 0
M  V30 31850 N 2951.94 5.6255 -1.43239 0
M  V30 31851 H 2954.7 1.69092 -2.47443 0
M  V30 31852 H 2952.26 0.789611 -1.41339 0
M  V30 31853 H 2954.26 3.86943 -1.18563 0
M  V30 31854 H 2952.83 3.09168 -0.461967 0
M  V30 31855 H 2952.05 2.65941 -2.90979 0
M  V30 31856 H 2953.33 3.76307 -3.42448 0
M  V30 31857 H 2952.73 5.59655 -0.824813 0
M  V30 31858 H 2951.29 6.38109 -1.32893 0
M  V30 31859 N 2954.72 1.32903 0.847027 0
M  V30 31860 C 2955.67 1.22445 1.97763 0
M  V30 31861 C 2956.66 0.127576 1.68919 0
M  V30 31862 O 2957.87 0.291004 1.77632 0
M  V30 31863 H 2954.24 0.37976 0.649066 0
M  V30 31864 H 2956.22 2.18048 2.0371 0
M  V30 31865 C 2954.96 0.972184 3.33832 0
M  V30 31866 H 2954.29 1.80844 3.56561 0
M  V30 31867 H 2955.73 0.939282 4.13465 0
M  V30 31868 C 2954.19 -0.325 3.35329 0
M  V30 31869 O 2954.72 -1.33438 3.78889 0
M  V30 31870 N 2952.92 -0.349667 2.88489 0
M  V30 31871 H 2952.47 0.472281 2.53234 0
M  V30 31872 H 2952.43 -1.21743 2.89872 0
M  V30 31873 N 2956.2 -1.06426 1.16238 0
M  V30 31874 C 2957.15 -2.1597 0.863707 0
M  V30 31875 C 2958.14 -1.68578 -0.166694 0
M  V30 31876 O 2959.35 -1.79988 -0.0208109 0
M  V30 31877 H 2955.72 -0.704996 0.261697 0
M  V30 31878 H 2957.69 -2.38373 1.79502 0
M  V30 31879 C 2956.44 -3.4562 0.379757 0
M  V30 31880 H 2955.77 -3.82479 1.16405 0
M  V30 31881 H 2957.21 -4.23482 0.209532 0
M  V30 31882 C 2955.66 -3.24644 -0.900442 0
M  V30 31883 O 2956.19 -3.50078 -1.96998 0
M  V30 31884 N 2954.4 -2.78084 -0.843672 0
M  V30 31885 H 2953.95 -2.57586 0.0268882 0
M  V30 31886 H 2953.91 -2.64428 -1.70074 0
M  V30 31887 N 2957.68 -0.960653 -1.24937 0
M  V30 31888 C 2958.63 -0.484498 -2.25657 0
M  V30 31889 C 2959.6 0.466214 -1.59423 0
M  V30 31890 O 2960.78 0.378136 -1.87015 0
M  V30 31891 C 2957.92 0.225898 -3.4436 0
M  V30 31892 C 2957.03 -0.762756 -4.25213 0
M  V30 31893 C 2956.17 -0.0291865 -5.31192 0
M  V30 31894 C 2955.21 -1.00837 -6.03737 0
M  V30 31895 N 2954.34 -0.305278 -7.01436 0
M  V30 31896 H 2959.18 -1.34826 -2.65756 0
M  V30 31897 H 2956.72 -0.676006 -1.30647 0
M  V30 31898 H 2958.68 0.6544 -4.12036 0
M  V30 31899 H 2957.31 1.05366 -3.05119 0
M  V30 31900 H 2956.36 -1.30972 -3.57142 0
M  V30 31901 H 2957.67 -1.50973 -4.75404 0
M  V30 31902 H 2956.83 0.457657 -6.04971 0
M  V30 31903 H 2955.57 0.750529 -4.8189 0
M  V30 31904 H 2954.57 -1.50616 -5.28767 0
M  V30 31905 H 2955.8 -1.78842 -6.55128 0
M  V30 31906 H 2953.74 0.455589 -6.54416 0
M  V30 31907 H 2953.66 -0.991236 -7.49473 0
M  V30 31908 H 2954.93 0.159829 -7.79336 0
M  V30 31909 N 2959.16 1.39677 -0.729931 0
M  V30 31910 C 2960.38 2.04917 -0.285745 0
M  V30 31911 C 2960.8 1.55025 1.07762 0
M  V30 31912 O 2960.16 0.712952 1.67998 0
M  V30 31913 C 2960.21 3.60469 -0.272856 0
M  V30 31914 O 2959.93 4.08524 -1.5824 0
M  V30 31915 C 2961.43 4.42901 0.188121 0
M  V30 31916 H 2958.65 0.659108 -0.125769 0
M  V30 31917 H 2961.19 1.7882 -0.992161 0
M  V30 31918 H 2959.35 3.85486 0.384631 0
M  V30 31919 H 2959.76 5.02816 -1.49253 0
M  V30 31920 H 2961.24 5.51807 0.145983 0
M  V30 31921 H 2961.71 4.21551 1.23252 0
M  V30 31922 H 2962.32 4.23022 -0.439615 0
M  V30 31923 N 2960.63 0.47718 1.50202 0
M  V30 31924 C 2961.58 -0.327785 2.30279 0
M  V30 31925 C 2962.58 -0.984815 1.37832 0
M  V30 31926 O 2963.78 -0.915224 1.54996 0
M  V30 31927 H 2960.16 -0.124551 0.741614 0
M  V30 31928 H 2962.13 0.367905 2.96123 0
M  V30 31929 C 2960.88 -1.39359 3.1855 0
M  V30 31930 H 2960.2 -0.897407 3.89598 0
M  V30 31931 H 2961.64 -1.92928 3.77564 0
M  V30 31932 C 2960.1 -2.39885 2.36552 0
M  V30 31933 O 2960.63 -3.45282 2.05288 0
M  V30 31934 N 2958.84 -2.11754 1.99019 0
M  V30 31935 H 2958.38 -1.26067 2.24644 0
M  V30 31936 H 2958.34 -2.79247 1.44459 0
M  V30 31937 N 2962.11 -1.56194 0.210027 0
M  V30 31938 C 2963.34 -2.0209 -0.429337 0
M  V30 31939 C 2963.75 -1.08922 -1.54701 0
M  V30 31940 O 2963.09 -0.0889858 -1.83484 0
M  V30 31941 C 2963.16 -3.44351 -1.0326 0
M  V30 31942 C 2962.82 -4.56971 -0.0518069 0
M  V30 31943 C 2963.82 -5.14544 0.74434 0
M  V30 31944 C 2961.5 -5.0226 0.0636068 0
M  V30 31945 C 2963.5 -6.15868 1.64272 0
M  V30 31946 C 2961.18 -6.03424 0.965529 0
M  V30 31947 C 2962.18 -6.60103 1.75364 0
M  V30 31948 O 2961.87 -7.593 2.64042 0
M  V30 31949 H 2961.6 -0.666892 -0.110592 0
M  V30 31950 H 2964.15 -2.02885 0.320472 0
M  V30 31951 H 2962.38 -3.40589 -1.83128 0
M  V30 31952 H 2964.07 -3.73963 -1.57817 0
M  V30 31953 H 2964.84 -4.80412 0.665561 0
M  V30 31954 H 2960.72 -4.5783 -0.539681 0
M  V30 31955 H 2964.26 -6.60035 2.2583 0
M  V30 31956 H 2960.16 -6.36979 1.04537 0
M  V30 31957 H 2960.93 -7.76778 2.57988 0
M  V30 31958 N 2963.59 0.0634645 -1.57472 0
M  V30 31959 C 2964.54 1.0932 -2.05309 0
M  V30 31960 C 2965.53 1.39571 -0.960019 0
M  V30 31961 O 2966.74 1.3888 -1.1451 0
M  V30 31962 H 2963.11 0.369915 -0.654727 0
M  V30 31963 H 2965.08 0.663656 -2.90926 0
M  V30 31964 C 2963.83 2.39609 -2.51958 0
M  V30 31965 H 2963.16 2.17184 -3.35665 0
M  V30 31966 H 2964.6 3.10087 -2.89175 0
M  V30 31967 C 2963.06 3.06158 -1.40602 0
M  V30 31968 O 2963.59 3.94583 -0.752792 0
M  V30 31969 N 2961.79 2.66917 -1.14907 0
M  V30 31970 H 2961.34 1.95099 -1.68208 0
M  V30 31971 H 2961.3 3.11767 -0.406061 0
M  V30 31972 N 2965.07 1.53998 0.33504 0
M  V30 31973 C 2966 1.85571 1.41724 0
M  V30 31974 C 2966.98 0.711528 1.54503 0
M  V30 31975 O 2968.16 0.964221 1.68572 0
M  V30 31976 C 2965.29 2.07287 2.78657 0
M  V30 31977 C 2964.25 3.23117 2.80677 0
M  V30 31978 C 2963.57 3.30182 4.20575 0
M  V30 31979 C 2964.87 4.61033 2.4545 0
M  V30 31980 H 2966.57 2.76204 1.1555 0
M  V30 31981 H 2964.11 1.32899 0.554421 0
M  V30 31982 H 2966.07 2.27959 3.54419 0
M  V30 31983 H 2964.79 1.13392 3.06284 0
M  V30 31984 H 2963.45 3.02314 2.07368 0
M  V30 31985 H 2963.1 2.33867 4.45326 0
M  V30 31986 H 2962.8 4.08024 4.22836 0
M  V30 31987 H 2964.32 3.53075 4.98167 0
M  V30 31988 H 2965.74 4.81662 3.10925 0
M  V30 31989 H 2964.13 5.4134 2.58981 0
M  V30 31990 H 2965.2 4.64063 1.4062 0
M  V30 31991 N 2966.55 -0.596505 1.45875 0
M  V30 31992 C 2967.79 -1.35719 1.50692 0
M  V30 31993 C 2968.13 -1.936 0.15254 0
M  V30 31994 O 2967.4 -1.75694 -0.83438 0
M  V30 31995 C 2967.68 -2.49686 2.59478 0
M  V30 31996 C 2967.54 -1.96929 4.04399 0
M  V30 31997 C 2968.86 -3.51782 2.64457 0
M  V30 31998 H 2965.97 -0.492124 0.548619 0
M  V30 31999 H 2968.62 -0.671397 1.77742 0
M  V30 32000 H 2966.77 -3.08187 2.36544 0
M  V30 32001 H 2968.44 -1.42992 4.38578 0
M  V30 32002 H 2966.68 -1.27852 4.14532 0
M  V30 32003 H 2967.35 -2.79134 4.76223 0
M  V30 32004 H 2969.83 -3.0314 2.85036 0
M  V30 32005 H 2968.7 -4.29 3.42418 0
M  V30 32006 H 2968.97 -4.0812 1.69972 0
M  V30 32007 N 2968.02 -1.3335 -0.839967 0
M  V30 32008 C 2969.26 -1.26076 -1.60886 0
M  V30 32009 C 2969.63 0.171257 -1.91235 0
M  V30 32010 O 2970.83 0.367944 -2.6627 0
M  V30 32011 C 2969.1 -2.11047 -2.88434 0
M  V30 32012 S 2970.66 -2.20951 -3.79112 0
M  V30 32013 H 2967.48 -0.448555 -0.551652 0
M  V30 32014 H 2970.08 -1.6837 -0.993561 0
M  V30 32015 H 2968.78 -3.14126 -2.64108 0
M  V30 32016 H 2968.31 -1.69585 -3.54971 0
M  V30 32017 H 2970.33 -1.36977 -4.76919 0
M  V30 32018 N 2969.5 1.05808 -1.16801 0
M  V30 32019 C 2970.41 2.16917 -0.893531 0
M  V30 32020 C 2971.43 1.73467 0.136031 0
M  V30 32021 O 2972.6 2.01357 -0.0417702 0
M  V30 32022 C 2969.67 3.4434 -0.403824 0
M  V30 32023 C 2968.73 4.02271 -1.49921 0
M  V30 32024 C 2967.96 5.23612 -1.03278 0
M  V30 32025 O 2968.19 5.70283 0.115547 0
M  V30 32026 O 2967.12 5.73623 -1.8232 0
M  V30 32027 H 2970.95 2.42916 -1.82278 0
M  V30 32028 H 2968.53 1.15439 -0.948382 0
M  V30 32029 H 2970.41 4.21174 -0.137948 0
M  V30 32030 H 2969.09 3.19856 0.497357 0
M  V30 32031 H 2968 3.26905 -1.81889 0
M  V30 32032 H 2969.33 4.3106 -2.37588 0
M  V30 32033 N 2970.98 0.967265 1.24426 0
M  V30 32034 C 2972.21 0.646511 1.9654 0
M  V30 32035 C 2972.62 -0.783966 1.71754 0
M  V30 32036 O 2971.98 -1.52595 1.00105 0
M  V30 32037 C 2972.03 0.91116 3.49829 0
M  V30 32038 O 2971.75 2.2854 3.73766 0
M  V30 32039 C 2973.25 0.604535 4.39159 0
M  V30 32040 H 2970.47 0.241266 0.626124 0
M  V30 32041 H 2973.02 1.29508 1.58265 0
M  V30 32042 H 2971.17 0.308808 3.86167 0
M  V30 32043 H 2971.59 2.36508 4.6815 0
M  V30 32044 H 2973.06 0.840165 5.45569 0
M  V30 32045 H 2973.54 -0.461197 4.36772 0
M  V30 32046 H 2974.14 1.18677 4.08406 0
M  V30 32047 N 2972.46 -1.39288 0.737328 0
M  V30 32048 C 2973.39 -2.33221 0.114029 0
M  V30 32049 C 2974.37 -1.54032 -0.721668 0
M  V30 32050 O 2975.56 -1.82416 -0.666174 0
M  V30 32051 C 2972.69 -3.38143 -0.792259 0
M  V30 32052 C 2971.64 -4.27957 -0.0605426 0
M  V30 32053 C 2970.97 -5.23597 -1.084 0
M  V30 32054 C 2972.27 -5.10623 1.09826 0
M  V30 32055 H 2973.96 -2.85595 0.898661 0
M  V30 32056 H 2971.51 -1.37317 0.433595 0
M  V30 32057 H 2973.46 -4.02809 -1.23786 0
M  V30 32058 H 2972.18 -2.84214 -1.60903 0
M  V30 32059 H 2970.84 -3.64774 0.365457 0
M  V30 32060 H 2970.49 -4.65963 -1.8944 0
M  V30 32061 H 2970.19 -5.84537 -0.599166 0
M  V30 32062 H 2971.71 -5.9114 -1.52925 0
M  V30 32063 H 2973.13 -5.68621 0.730992 0
M  V30 32064 H 2971.52 -5.80717 1.51288 0
M  V30 32065 H 2972.59 -4.45318 1.91886 0
M  V30 32066 N 2973.94 -0.485139 -1.49947 0
M  V30 32067 C 2974.87 0.338182 -2.26691 0
M  V30 32068 C 2975.88 0.944719 -1.32585 0
M  V30 32069 O 2977.07 0.830744 -1.5799 0
M  V30 32070 C 2974.17 1.48961 -3.04407 0
M  V30 32071 C 2973.34 0.993296 -4.25972 0
M  V30 32072 C 2972.4 2.02044 -4.85865 0
M  V30 32073 O 2971.43 1.59537 -5.46385 0
M  V30 32074 N 2972.63 3.34967 -4.74107 0
M  V30 32075 H 2975.4 -0.3198 -2.97989 0
M  V30 32076 H 2972.96 -0.316742 -1.58771 0
M  V30 32077 H 2974.95 2.17397 -3.41351 0
M  V30 32078 H 2973.52 2.05203 -2.35819 0
M  V30 32079 H 2972.74 0.134355 -3.93971 0
M  V30 32080 H 2974.03 0.639845 -5.04761 0
M  V30 32081 H 2973.43 3.72201 -4.26008 0
M  V30 32082 H 2971.98 3.99161 -5.15281 0
M  V30 32083 N 2975.42 1.56081 -0.218307 0
M  V30 32084 C 2976.66 1.98217 0.414272 0
M  V30 32085 C 2976.99 1.10586 1.60003 0
M  V30 32086 O 2976.25 0.150078 1.95124 0
M  V30 32087 C 2976.54 3.46019 0.894722 0
M  V30 32088 C 2976.21 4.5054 -0.180162 0
M  V30 32089 C 2974.87 4.78845 -0.475451 0
M  V30 32090 C 2977.22 5.13242 -0.907281 0
M  V30 32091 C 2974.55 5.67137 -1.50243 0
M  V30 32092 C 2976.9 6.02645 -1.92357 0
M  V30 32093 C 2975.57 6.29296 -2.22582 0
M  V30 32094 H 2974.84 0.725328 0.151593 0
M  V30 32095 H 2977.49 1.88805 -0.320146 0
M  V30 32096 H 2975.79 3.52619 1.70784 0
M  V30 32097 H 2977.49 3.75992 1.39396 0
M  V30 32098 H 2974.08 4.28558 0.0601447 0
M  V30 32099 H 2978.26 4.91447 -0.692389 0
M  V30 32100 H 2973.52 5.86051 -1.74226 0
M  V30 32101 H 2977.69 6.50283 -2.49208 0
M  V30 32102 H 2975.32 6.97508 -3.02302 0
M  V30 32103 N 2976.89 -0.0551124 1.57504 0
M  V30 32104 C 2977.82 -1.06368 2.07865 0
M  V30 32105 C 2978.8 -1.39342 0.97559 0
M  V30 32106 O 2979.99 -1.4868 1.24932 0
M  V30 32107 C 2977.12 -2.37235 2.53647 0
M  V30 32108 C 2976.07 -2.18572 3.67982 0
M  V30 32109 C 2975.4 -3.54969 3.99876 0
M  V30 32110 C 2976.7 -1.59321 4.97407 0
M  V30 32111 H 2978.39 -0.644544 2.9238 0
M  V30 32112 H 2975.94 -0.308595 1.40655 0
M  V30 32113 H 2977.89 -3.08098 2.87495 0
M  V30 32114 H 2976.62 -2.8116 1.66182 0
M  V30 32115 H 2975.28 -1.50146 3.34442 0
M  V30 32116 H 2974.92 -3.96495 3.09517 0
M  V30 32117 H 2974.62 -3.43315 4.76873 0
M  V30 32118 H 2976.15 -4.27237 4.36235 0
M  V30 32119 H 2977.56 -2.20069 5.29379 0
M  V30 32120 H 2975.96 -1.58316 5.7884 0
M  V30 32121 H 2977.03 -0.556296 4.81698 0
M  V30 32122 N 2978.37 -1.54173 -0.326869 0
M  V30 32123 C 2979.65 -1.62866 -1.08323 0
M  V30 32124 C 2980.03 -0.460427 -2.06018 0
M  V30 32125 O 2979.38 0.545646 -2.2189 0
M  V30 32126 C 2979.59 -2.99713 -1.78811 0
M  V30 32127 C 2980.93 -3.55645 -2.31952 0
M  V30 32128 O 2981.96 -3.01996 -1.88883 0
M  V30 32129 O 2980.82 -4.49522 -3.10793 0
M  V30 32130 H 2977.91 -0.659401 -0.499119 0
M  V30 32131 H 2980.46 -1.66519 -0.327025 0
M  V30 32132 H 2979.23 -3.76177 -1.07732 0
M  V30 32133 H 2978.85 -2.99724 -2.6125 0
M  V30 32134 N 2979.85 0.58876 -1.4619 0
M  V30 32135 C 2981.09 1.3583 -1.5274 0
M  V30 32136 C 2981.45 1.91224 -0.172437 0
M  V30 32137 O 2982.65 2.68564 -0.11268 0
M  V30 32138 C 2980.93 2.46185 -2.5909 0
M  V30 32139 S 2982.48 3.33645 -2.85002 0
M  V30 32140 H 2979.3 0.462841 -0.539721 0
M  V30 32141 H 2981.9 0.677457 -1.83387 0
M  V30 32142 H 2980.61 2.03871 -3.56181 0
M  V30 32143 H 2980.14 3.19049 -2.30156 0
M  V30 32144 H 2982.15 4.44856 -2.19812 0
M  V30 32145 N 2981.33 1.33794 0.832883 0
M  V30 32146 C 2982.58 1.24935 1.58348 0
M  V30 32147 C 2982.89 -0.181669 1.94755 0
M  V30 32148 O 2984.1 -0.392328 2.6865 0
M  V30 32149 C 2982.55 2.18948 2.8564 0
M  V30 32150 C 2982.16 3.67252 2.56574 0
M  V30 32151 C 2983.9 2.18974 3.63663 0
M  V30 32152 C 2981.81 4.53162 3.79998 0
M  V30 32153 H 2980.74 0.464068 0.59427 0
M  V30 32154 H 2983.39 1.58896 0.917832 0
M  V30 32155 H 2981.77 1.77925 3.53778 0
M  V30 32156 H 2982.95 4.16751 1.9661 0
M  V30 32157 H 2981.26 3.69574 1.91844 0
M  V30 32158 H 2983.86 2.80387 4.55288 0
M  V30 32159 H 2984.2 1.18638 3.99037 0
M  V30 32160 H 2984.74 2.5839 3.02456 0
M  V30 32161 H 2981.47 5.54396 3.49751 0
M  V30 32162 H 2980.99 4.08403 4.3928 0
M  V30 32163 H 2982.67 4.67268 4.47515 0
M  V30 32164 N 2982.81 -1.05187 1.1736 0
M  V30 32165 C 2984.05 -1.79764 0.972843 0
M  V30 32166 C 2984.41 -1.85647 -0.4898 0
M  V30 32167 O 2985.61 -2.56317 -0.809637 0
M  V30 32168 C 2983.88 -3.19765 1.59641 0
M  V30 32169 S 2985.44 -4.10819 1.54186 0
M  V30 32170 H 2982.26 -0.619112 0.349601 0
M  V30 32171 H 2984.86 -1.26206 1.49306 0
M  V30 32172 H 2983.56 -3.13085 2.65341 0
M  V30 32173 H 2983.1 -3.78399 1.076 0
M  V30 32174 H 2985.11 -4.93144 0.549872 0
M  V30 32175 N 2984.28 -0.97385 -1.23911 0
M  V30 32176 C 2985.53 -0.637851 -1.9177 0
M  V30 32177 C 2985.85 0.830404 -1.76435 0
M  V30 32178 O 2985.12 1.59337 -1.13968 0
M  V30 32179 H 2983.7 -0.232925 -0.709757 0
M  V30 32180 H 2986.36 -1.23625 -1.50675 0
M  V30 32181 H 2985.46 -0.883783 -2.99325 0
M  V30 32182 N 2985.76 1.38895 -0.744705 0
M  V30 32183 C 2986.99 2.05128 -0.306155 0
M  V30 32184 C 2987.41 1.55791 1.05407 0
M  V30 32185 O 2986.77 0.705938 1.66992 0
M  V30 32186 C 2986.82 3.59103 -0.328258 0
M  V30 32187 O 2985.92 4.06742 0.680804 0
M  V30 32188 H 2985.26 0.649666 -0.13722 0
M  V30 32189 H 2987.79 1.77743 -1.01334 0
M  V30 32190 H 2987.8 4.0762 -0.176027 0
M  V30 32191 H 2986.48 3.94372 -1.32074 0
M  V30 32192 H 2985.05 3.69615 0.493915 0
M  V30 32193 N 2987.24 0.493084 1.49688 0
M  V30 32194 C 2988.47 -0.0512777 2.06836 0
M  V30 32195 C 2988.88 -1.31537 1.35438 0
M  V30 32196 O 2988.24 -1.77355 0.430279 0
M  V30 32197 C 2988.29 -0.31694 3.60108 0
M  V30 32198 O 2988.01 0.897033 4.28818 0
M  V30 32199 C 2989.51 -0.905826 4.33947 0
M  V30 32200 H 2986.73 0.0169166 0.670787 0
M  V30 32201 H 2989.28 0.688173 1.92573 0
M  V30 32202 H 2987.43 -1.00636 3.74101 0
M  V30 32203 H 2987.85 0.655031 5.20394 0
M  V30 32204 H 2989.32 -1.04134 5.42089 0
M  V30 32205 H 2989.8 -1.90161 3.95898 0
M  V30 32206 H 2990.4 -0.25412 4.2454 0
M  V30 32207 N 2988.72 -1.55963 0.226582 0
M  V30 32208 C 2989.95 -2.02828 -0.408471 0
M  V30 32209 C 2990.36 -1.1063 -1.52992 0
M  V30 32210 O 2989.72 -0.116841 -1.82126 0
M  V30 32211 C 2989.77 -3.49189 -0.935389 0
M  V30 32212 O 2989.49 -4.37872 0.14135 0
M  V30 32213 C 2990.99 -4.11721 -1.64318 0
M  V30 32214 H 2988.21 -0.663592 -0.0994303 0
M  V30 32215 H 2990.76 -2.01577 0.344506 0
M  V30 32216 H 2988.91 -3.51038 -1.63862 0
M  V30 32217 H 2989.32 -5.23877 -0.255488 0
M  V30 32218 H 2990.8 -5.15886 -1.96381 0
M  V30 32219 H 2991.28 -3.57013 -2.55809 0
M  V30 32220 H 2991.88 -4.13736 -0.985028 0
M  V30 32221 N 2990.2 0.0467589 -1.57531 0
M  V30 32222 C 2991.44 0.739623 -1.8808 0
M  V30 32223 C 2991.77 1.7683 -0.821967 0
M  V30 32224 O 2991.04 1.95351 0.146548 0
M  V30 32225 H 2989.62 0.276157 -0.694079 0
M  V30 32226 H 2992.28 0.0169048 -1.94893 0
M  V30 32227 H 2991.37 1.24026 -2.86398 0
M  V30 32228 N 2991.67 1.54344 0.318688 0
M  V30 32229 C 2992.92 1.72441 1.05397 0
M  V30 32230 C 2993.24 0.503528 1.88387 0
M  V30 32231 O 2992.51 -0.482426 1.89867 0
M  V30 32232 H 2991.09 0.635812 0.392113 0
M  V30 32233 H 2993.76 1.91659 0.353946 0
M  V30 32234 H 2992.85 2.60611 1.71721 0
M  V30 32235 N 2993.15 -0.580999 1.465 0
M  V30 32236 C 2994.08 -1.70014 1.60055 0
M  V30 32237 C 2995.06 -1.64017 0.450816 0
M  V30 32238 O 2996.25 -1.82007 0.677269 0
M  V30 32239 C 2993.38 -3.08655 1.59215 0
M  V30 32240 C 2992.33 -3.29483 2.73175 0
M  V30 32241 C 2991.66 -4.68669 2.57397 0
M  V30 32242 C 2992.96 -3.17153 4.14984 0
M  V30 32243 H 2994.65 -1.58926 2.53738 0
M  V30 32244 H 2992.2 -0.763152 1.22115 0
M  V30 32245 H 2994.15 -3.86771 1.67292 0
M  V30 32246 H 2992.88 -3.20646 0.620775 0
M  V30 32247 H 2991.53 -2.53768 2.6457 0
M  V30 32248 H 2991.18 -4.77428 1.58339 0
M  V30 32249 H 2990.88 -4.83558 3.33835 0
M  V30 32250 H 2992.41 -5.48951 2.67367 0
M  V30 32251 H 2993.82 -3.85111 4.24691 0
M  V30 32252 H 2992.22 -3.43562 4.92022 0
M  V30 32253 H 2993.29 -2.1421 4.3502 0
M  V30 32254 N 2994.63 -1.34234 -0.825776 0
M  V30 32255 C 2995.88 -1.2618 -1.5787 0
M  V30 32256 C 2996.2 0.16887 -1.94267 0
M  V30 32257 O 2995.47 1.10081 -1.62046 0
M  V30 32258 H 2994.05 -0.464047 -0.585379 0
M  V30 32259 H 2996.71 -1.68111 -0.986133 0
M  V30 32260 H 2995.81 -1.86458 -2.5028 0
M  V30 32261 N 2996.11 1.04563 -1.17917 0
M  V30 32262 C 2997.04 2.14394 -0.92507 0
M  V30 32263 C 2998.02 1.69561 0.135345 0
M  V30 32264 O 2999.2 1.94193 -0.0162115 0
M  V30 32265 C 2996.33 3.44443 -0.44453 0
M  V30 32266 C 2995.29 4.02875 -1.44486 0
M  V30 32267 C 2994.61 5.28343 -0.822025 0
M  V30 32268 C 2995.91 4.39627 -2.82003 0
M  V30 32269 H 2997.61 2.35908 -1.84358 0
M  V30 32270 H 2995.15 1.13374 -0.887826 0
M  V30 32271 H 2997.11 4.20633 -0.254152 0
M  V30 32272 H 2995.83 3.22601 0.509536 0
M  V30 32273 H 2994.49 3.28761 -1.62208 0
M  V30 32274 H 2994.14 5.02808 0.139072 0
M  V30 32275 H 2993.84 5.68399 -1.48986 0
M  V30 32276 H 2995.36 6.07215 -0.642065 0
M  V30 32277 H 2996.78 5.06823 -2.67961 0
M  V30 32278 H 2995.17 4.90717 -3.45423 0
M  V30 32279 H 2996.24 3.49681 -3.35933 0
M  V30 32280 N 2997.59 0.980408 1.23393 0
M  V30 32281 C 2998.52 0.540064 2.27169 0
M  V30 32282 C 2999.5 -0.426758 1.6466 0
M  V30 32283 O 3000.68 -0.320119 1.91543 0
M  V30 32284 C 2997.81 -0.158299 3.46939 0
M  V30 32285 C 2996.77 0.725806 4.21801 0
M  V30 32286 C 2996.09 -0.104772 5.34597 0
M  V30 32287 C 2997.39 2.01662 4.81798 0
M  V30 32288 H 2999.09 1.40748 2.64254 0
M  V30 32289 H 2996.63 0.678215 1.27029 0
M  V30 32290 H 2998.59 -0.477664 4.18684 0
M  V30 32291 H 2997.31 -1.06017 3.08914 0
M  V30 32292 H 2995.97 1.02863 3.51873 0
M  V30 32293 H 2995.62 -1.00717 4.92813 0
M  V30 32294 H 2995.32 0.48366 5.85606 0
M  V30 32295 H 2996.84 -0.418517 6.09164 0
M  V30 32296 H 2998.25 1.76202 5.45551 0
M  V30 32297 H 2996.65 2.55283 5.43094 0
M  V30 32298 H 2997.72 2.70345 4.02544 0
M  V30 32299 N 2999.06 -1.38498 0.75206 0
M  V30 32300 C 3000.31 -1.99756 0.306931 0
M  V30 32301 C 3000.63 -1.59994 -1.11476 0
M  V30 32302 O 2999.9 -0.856076 -1.76205 0
M  V30 32303 H 2998.48 -0.738783 0.110493 0
M  V30 32304 H 3001.15 -1.69287 0.965815 0
M  V30 32305 H 3000.24 -3.09913 0.368851 0
M  V30 32306 N 3000.54 -0.501015 -1.49424 0
M  V30 32307 C 3001.47 0.266734 -2.31972 0
M  V30 32308 C 3002.45 0.962538 -1.40247 0
M  V30 32309 O 3003.64 0.953938 -1.69156 0
M  V30 32310 C 3000.77 1.33157 -3.20759 0
M  V30 32311 C 2999.72 0.755646 -4.21277 0
M  V30 32312 C 2999.05 1.921 -4.99001 0
M  V30 32313 C 3000.35 -0.253304 -5.21685 0
M  V30 32314 H 3002.04 -0.422289 -2.96407 0
M  V30 32315 H 2999.59 -0.20453 -1.4254 0
M  V30 32316 H 3001.54 1.8764 -3.77319 0
M  V30 32317 H 3000.27 2.04978 -2.54266 0
M  V30 32318 H 2998.92 0.232573 -3.65862 0
M  V30 32319 H 2998.57 2.6269 -4.28956 0
M  V30 32320 H 2998.27 1.54172 -5.67014 0
M  V30 32321 H 2999.8 2.47016 -5.58404 0
M  V30 32322 H 3001.21 0.203382 -5.72939 0
M  V30 32323 H 2999.61 -0.548427 -5.97589 0
M  V30 32324 H 3000.68 -1.16918 -4.70594 0
M  V30 32325 N 3002.02 1.5584 -0.234849 0
M  V30 32326 C 3003.25 2.02747 0.397132 0
M  V30 32327 C 3003.66 1.1137 1.52949 0
M  V30 32328 O 3003 0.118165 1.8332 0
M  V30 32329 C 3003.06 3.4595 0.977688 0
M  V30 32330 C 3002.73 4.56995 -0.0208997 0
M  V30 32331 C 3003.73 5.13295 -0.826105 0
M  V30 32332 C 3001.41 5.02095 -0.143504 0
M  V30 32333 C 3003.4 6.13177 -1.74049 0
M  V30 32334 C 3001.09 6.01812 -1.06141 0
M  V30 32335 C 3002.09 6.5723 -1.85843 0
M  V30 32336 O 3001.78 7.55004 -2.76088 0
M  V30 32337 H 3001.51 0.668567 0.0999685 0
M  V30 32338 H 3004.06 2.02349 -0.352709 0
M  V30 32339 H 3002.29 3.43459 1.77687 0
M  V30 32340 H 3003.98 3.76427 1.51847 0
M  V30 32341 H 3004.75 4.79292 -0.741906 0
M  V30 32342 H 3000.63 4.58631 0.466776 0
M  V30 32343 H 3004.17 6.56359 -2.36302 0
M  V30 32344 H 3000.07 6.35235 -1.14657 0
M  V30 32345 H 3000.84 7.72576 -2.70313 0
M  V30 32346 N 3003.5 -0.038404 1.57553 0
M  V30 32347 C 3004.75 -0.730075 1.88023 0
M  V30 32348 C 3005.06 -1.77017 0.832121 0
M  V30 32349 O 3006.27 -2.51378 1.02574 0
M  V30 32350 C 3004.72 -1.34954 3.3364 0
M  V30 32351 C 3004.33 -0.346274 4.4666 0
M  V30 32352 C 3006.08 -2.02163 3.7327 0
M  V30 32353 C 3003.98 -0.973549 5.83332 0
M  V30 32354 H 3002.91 -0.276429 0.7015 0
M  V30 32355 H 3005.56 0.0158351 1.83493 0
M  V30 32356 H 3003.95 -2.14484 3.32885 0
M  V30 32357 H 3005.12 0.421638 4.58867 0
M  V30 32358 H 3003.43 0.223207 4.15801 0
M  V30 32359 H 3006.03 -2.4993 4.72694 0
M  V30 32360 H 3006.37 -2.83574 3.04781 0
M  V30 32361 H 3006.91 -1.2942 3.76159 0
M  V30 32362 H 3003.65 -0.199048 6.55198 0
M  V30 32363 H 3003.17 -1.71152 5.74863 0
M  V30 32364 H 3004.85 -1.48365 6.29759 0
M  V30 32365 N 3004.98 -1.54511 -0.310498 0
M  V30 32366 C 3005.93 -1.85547 -1.40269 0
M  V30 32367 C 3006.92 -0.728404 -1.5294 0
M  V30 32368 O 3008.13 -0.912261 -1.5517 0
M  V30 32369 H 3004.5 -0.588352 -0.468344 0
M  V30 32370 H 3006.47 -2.76857 -1.11324 0
M  V30 32371 C 3005.22 -2.1111 -2.76275 0
M  V30 32372 H 3004.54 -2.97303 -2.67303 0
M  V30 32373 H 3005.98 -2.36771 -3.51732 0
M  V30 32374 C 3004.44 -0.906675 -3.2447 0
M  V30 32375 O 3004.97 -0.122428 -4.01513 0
M  V30 32376 N 3003.18 -0.714682 -2.81675 0
M  V30 32377 H 3002.73 -1.35408 -2.1914 0
M  V30 32378 H 3002.68 0.0896477 -3.14272 0
M  V30 32379 N 3006.46 0.573222 -1.46806 0
M  V30 32380 C 3007.37 1.70927 -1.6069 0
M  V30 32381 C 3008.38 1.66955 -0.490113 0
M  V30 32382 O 3009.56 1.86692 -0.755515 0
M  V30 32383 C 3006.62 3.07435 -1.60264 0
M  V30 32384 C 3005.68 3.22598 -2.83248 0
M  V30 32385 C 3004.92 4.52594 -2.82833 0
M  V30 32386 O 3005.14 5.37071 -1.92123 0
M  V30 32387 O 3004.07 4.71207 -3.74497 0
M  V30 32388 H 3007.9 1.62159 -2.56784 0
M  V30 32389 H 3005.48 0.741376 -1.29707 0
M  V30 32390 H 3007.37 3.88701 -1.62756 0
M  V30 32391 H 3006.04 3.1662 -0.673324 0
M  V30 32392 H 3004.95 2.40789 -2.86306 0
M  V30 32393 H 3006.28 3.18309 -3.7542 0
M  V30 32394 N 3007.93 1.3467 0.818645 0
M  V30 32395 C 3008.88 1.26599 1.9298 0
M  V30 32396 C 3009.85 0.140345 1.65506 0
M  V30 32397 O 3011.04 0.322038 1.88063 0
M  V30 32398 C 3008.18 1.03169 3.29318 0
M  V30 32399 C 3007.29 2.24546 3.69057 0
M  V30 32400 C 3006.42 1.94364 4.94364 0
M  V30 32401 C 3005.46 3.1186 5.26697 0
M  V30 32402 N 3004.6 2.81534 6.43182 0
M  V30 32403 H 3009.44 2.21624 1.99216 0
M  V30 32404 H 3006.98 1.10182 0.974593 0
M  V30 32405 H 3008.93 0.876201 4.07895 0
M  V30 32406 H 3007.56 0.118102 3.22584 0
M  V30 32407 H 3006.62 2.51 2.85838 0
M  V30 32408 H 3007.93 3.12319 3.88919 0
M  V30 32409 H 3007.08 1.75576 5.80739 0
M  V30 32410 H 3005.82 1.03857 4.76514 0
M  V30 32411 H 3004.83 3.31239 4.38817 0
M  V30 32412 H 3006.05 4.03152 5.46484 0
M  V30 32413 H 3004 1.93607 6.26779 0
M  V30 32414 H 3003.91 3.6284 6.63237 0
M  V30 32415 H 3005.18 2.6626 7.32616 0
M  V30 32416 N 3009.41 -1.03936 1.1847 0
M  V30 32417 C 3010.36 -2.14089 0.909323 0
M  V30 32418 C 3011.35 -1.68894 -0.130898 0
M  V30 32419 O 3012.56 -1.79992 0.0173719 0
M  V30 32420 H 3008.93 -0.699286 0.276592 0
M  V30 32421 H 3010.91 -2.34512 1.84518 0
M  V30 32422 C 3009.65 -3.44737 0.452983 0
M  V30 32423 H 3008.98 -3.79923 1.24492 0
M  V30 32424 H 3010.42 -4.22942 0.299312 0
M  V30 32425 C 3008.88 -3.26481 -0.831378 0
M  V30 32426 O 3009.41 -3.54178 -1.89528 0
M  V30 32427 N 3007.61 -2.79811 -0.784496 0
M  V30 32428 H 3007.16 -2.57471 0.0815199 0
M  V30 32429 H 3007.12 -2.67976 -1.64426 0
M  V30 32430 N 3010.89 -0.986938 -1.22871 0
M  V30 32431 C 3012.14 -0.660434 -1.91745 0
M  V30 32432 C 3012.47 0.804781 -1.7674 0
M  V30 32433 O 3011.74 1.58129 -1.13249 0
M  V30 32434 C 3012.03 -1.05972 -3.44154 0
M  V30 32435 C 3011.88 -2.58305 -3.68237 0
M  V30 32436 C 3013.2 -0.608496 -4.35873 0
M  V30 32437 H 3010.32 -0.241403 -0.696343 0
M  V30 32438 H 3012.96 -1.22939 -1.44865 0
M  V30 32439 H 3011.11 -0.575602 -3.84212 0
M  V30 32440 H 3012.78 -3.14341 -3.3762 0
M  V30 32441 H 3011.02 -3.00644 -3.12723 0
M  V30 32442 H 3011.7 -2.81293 -4.74951 0
M  V30 32443 H 3014.17 -1.02424 -4.03297 0
M  V30 32444 H 3013.05 -0.916238 -5.41199 0
M  V30 32445 H 3013.31 0.491009 -4.39365 0
M  V30 32446 N 3012.37 1.38098 -0.759394 0
M  V30 32447 C 3013.33 2.28749 -0.14376 0
M  V30 32448 C 3014.33 1.47458 0.641312 0
M  V30 32449 O 3015.52 1.67831 0.466721 0
M  V30 32450 C 3012.65 3.31272 0.804486 0
M  V30 32451 H 3013.85 2.84698 -0.942713 0
M  V30 32452 H 3011.4 1.47155 -0.526783 0
M  V30 32453 H 3012.13 2.80423 1.6289 0
M  V30 32454 H 3011.92 3.91341 0.24387 0
M  V30 32455 H 3013.41 3.99043 1.23104 0
M  V30 32456 N 3013.85 0.508932 1.49156 0
M  V30 32457 C 3014.78 -0.254429 2.3211 0
M  V30 32458 C 3015.76 -0.955087 1.40755 0
M  V30 32459 O 3016.94 -0.944954 1.69659 0
M  V30 32460 C 3014.07 -1.31455 3.21461 0
M  V30 32461 C 3013.03 -0.733294 4.21671 0
M  V30 32462 C 3012.35 -1.89451 5.00012 0
M  V30 32463 C 3013.65 0.280967 5.21544 0
M  V30 32464 H 3015.35 0.438002 2.96179 0
M  V30 32465 H 3012.89 0.212087 1.4243 0
M  V30 32466 H 3014.84 -1.85636 3.78308 0
M  V30 32467 H 3013.57 -2.03627 2.5535 0
M  V30 32468 H 3012.23 -0.213167 3.6598 0
M  V30 32469 H 3011.88 -2.60411 4.30343 0
M  V30 32470 H 3011.58 -1.51163 5.67824 0
M  V30 32471 H 3013.1 -2.44051 5.59706 0
M  V30 32472 H 3014.51 -0.172995 5.73039 0
M  V30 32473 H 3012.91 0.580111 5.97289 0
M  V30 32474 H 3013.98 1.19412 4.69967 0
M  V30 32475 N 3015.32 -1.55714 0.243111 0
M  V30 32476 C 3016.57 -1.98027 -0.383153 0
M  V30 32477 C 3016.89 -1.13439 -1.59345 0
M  V30 32478 O 3018.09 -1.45749 -2.29062 0
M  V30 32479 C 3016.55 -3.52355 -0.733073 0
M  V30 32480 C 3016.16 -4.45677 0.455618 0
M  V30 32481 C 3017.9 -4.03333 -1.32374 0
M  V30 32482 C 3015.81 -5.91343 0.0820631 0
M  V30 32483 H 3014.74 -0.739545 -0.146931 0
M  V30 32484 H 3017.39 -1.80271 0.342729 0
M  V30 32485 H 3015.77 -3.65792 -1.51698 0
M  V30 32486 H 3016.94 -4.43998 1.23299 0
M  V30 32487 H 3015.26 -4.0516 0.960957 0
M  V30 32488 H 3017.86 -5.0968 -1.61649 0
M  V30 32489 H 3018.2 -3.50456 -2.24692 0
M  V30 32490 H 3018.73 -3.93206 -0.602816 0
M  V30 32491 H 3015.47 -6.48249 0.972285 0
M  V30 32492 H 3014.99 -5.96167 -0.659186 0
M  V30 32493 H 3016.67 -6.46121 -0.337086 0
M  V30 32494 N 3016.8 0.030048 -1.57571 0
M  V30 32495 C 3017.75 1.0494 -2.07582 0
M  V30 32496 C 3018.74 1.37503 -0.989408 0
M  V30 32497 O 3019.95 1.3642 -1.1743 0
M  V30 32498 H 3016.33 0.355944 -0.662426 0
M  V30 32499 H 3018.3 0.601796 -2.92269 0
M  V30 32500 C 3017.05 2.3421 -2.56984 0
M  V30 32501 H 3016.37 2.10015 -3.40197 0
M  V30 32502 H 3017.81 3.03883 -2.95687 0
M  V30 32503 C 3016.27 3.03107 -1.47064 0
M  V30 32504 O 3016.8 3.92898 -0.836319 0
M  V30 32505 N 3015 2.6442 -1.20543 0
M  V30 32506 H 3014.55 1.91487 -1.72309 0
M  V30 32507 H 3014.51 3.10835 -0.4721 0
M  V30 32508 N 3018.28 1.54674 0.3023 0
M  V30 32509 C 3019.21 1.81905 1.39439 0
M  V30 32510 C 3020.23 0.701939 1.4689 0
M  V30 32511 O 3021.41 0.979395 1.49232 0
M  V30 32512 C 3018.51 1.94085 2.7782 0
M  V30 32513 C 3017.69 3.24474 2.93318 0
M  V30 32514 C 3016.75 3.27087 4.1219 0
M  V30 32515 O 3015.77 4.00624 4.04337 0
M  V30 32516 N 3016.97 2.52385 5.22764 0
M  V30 32517 H 3019.74 2.76157 1.16436 0
M  V30 32518 H 3017.3 1.54232 0.492365 0
M  V30 32519 H 3019.29 1.93237 3.55586 0
M  V30 32520 H 3017.86 1.06833 2.93778 0
M  V30 32521 H 3017.08 3.38107 2.02676 0
M  V30 32522 H 3018.37 4.10521 3.00583 0
M  V30 32523 H 3017.77 1.92268 5.32024 0
M  V30 32524 H 3016.33 2.57292 5.98869 0
M  V30 32525 N 3019.76 -0.565428 1.47108 0
M  V30 32526 C 3020.99 -1.34857 1.56911 0
M  V30 32527 C 3021.4 -1.87556 0.216345 0
M  V30 32528 O 3020.76 -1.64557 -0.789139 0
M  V30 32529 C 3020.81 -2.52419 2.5878 0
M  V30 32530 O 3020.53 -2.01899 3.88804 0
M  V30 32531 C 3022.03 -3.44742 2.78689 0
M  V30 32532 H 3019.25 -0.411377 0.530104 0
M  V30 32533 H 3021.8 -0.685748 1.9266 0
M  V30 32534 H 3019.95 -3.14656 2.25988 0
M  V30 32535 H 3020.36 -2.78587 4.44398 0
M  V30 32536 H 3021.84 -4.23668 3.5385 0
M  V30 32537 H 3022.32 -3.9777 1.86215 0
M  V30 32538 H 3022.92 -2.88327 3.12646 0
M  V30 32539 N 3021.24 -1.35102 -0.811492 0
M  V30 32540 C 3022.17 -1.30278 -1.93778 0
M  V30 32541 C 3023.15 -0.178105 -1.69165 0
M  V30 32542 O 3024.33 -0.372289 -1.90598 0
M  V30 32543 C 3021.46 -1.06905 -3.30437 0
M  V30 32544 C 3020.42 -2.15961 -3.6952 0
M  V30 32545 C 3019.74 -1.7776 -5.04287 0
M  V30 32546 C 3021.04 -3.57888 -3.80413 0
M  V30 32547 H 3022.74 -2.24518 -1.98071 0
M  V30 32548 H 3020.28 -1.0808 -0.951567 0
M  V30 32549 H 3022.24 -1.02172 -4.08826 0
M  V30 32550 H 3020.96 -0.0911035 -3.26473 0
M  V30 32551 H 3019.62 -2.19783 -2.93413 0
M  V30 32552 H 3019.27 -0.785964 -4.96822 0
M  V30 32553 H 3018.97 -2.50759 -5.31407 0
M  V30 32554 H 3020.49 -1.74543 -5.85121 0
M  V30 32555 H 3021.9 -3.56415 -4.49045 0
M  V30 32556 H 3020.3 -4.29606 -4.18998 0
M  V30 32557 H 3021.37 -3.94396 -2.82098 0
M  V30 32558 N 3022.71 1.03306 -1.19019 0
M  V30 32559 C 3023.62 2.14973 -0.939341 0
M  V30 32560 C 3024.64 1.73717 0.0992054 0
M  V30 32561 O 3025.82 2.01223 -0.0844715 0
M  V30 32562 C 3022.88 3.43406 -0.476773 0
M  V30 32563 C 3021.94 3.99001 -1.5842 0
M  V30 32564 C 3021.18 5.21303 -1.14361 0
M  V30 32565 O 3021.4 5.704 -0.00544434 0
M  V30 32566 O 3020.33 5.69626 -1.94446 0
M  V30 32567 H 3024.16 2.38995 -1.8739 0
M  V30 32568 H 3021.74 1.13401 -0.972655 0
M  V30 32569 H 3023.63 4.20787 -0.227254 0
M  V30 32570 H 3022.3 3.20839 0.429399 0
M  V30 32571 H 3021.21 3.22974 -1.88782 0
M  V30 32572 H 3022.54 4.25924 -2.46678 0
M  V30 32573 N 3024.19 0.99344 1.22346 0
M  V30 32574 C 3025.42 0.687761 1.95665 0
M  V30 32575 C 3025.84 -0.741131 1.72884 0
M  V30 32576 O 3025.2 -1.50669 1.00839 0
M  V30 32577 C 3025.25 1.00004 3.46456 0
M  V30 32578 O 3024.35 0.099011 4.12281 0
M  V30 32579 H 3023.69 0.257357 0.612098 0
M  V30 32580 H 3026.22 1.33056 1.55426 0
M  V30 32581 H 3026.23 0.942105 3.96974 0
M  V30 32582 H 3024.91 2.04125 3.62362 0
M  V30 32583 H 3023.49 0.212478 3.72294 0
M  V30 32584 N 3025.67 -1.37693 0.766707 0
M  V30 32585 C 3026.6 -2.32927 0.163473 0
M  V30 32586 C 3027.58 -1.55528 -0.688834 0
M  V30 32587 O 3028.77 -1.83788 -0.627331 0
M  V30 32588 C 3025.9 -3.39747 -0.720356 0
M  V30 32589 C 3024.85 -4.27989 0.0302471 0
M  V30 32590 C 3024.18 -5.25778 -0.972696 0
M  V30 32591 C 3025.48 -5.08178 1.20632 0
M  V30 32592 H 3027.17 -2.83624 0.959038 0
M  V30 32593 H 3024.72 -1.36366 0.462625 0
M  V30 32594 H 3026.67 -4.05344 -1.15214 0
M  V30 32595 H 3025.39 -2.87563 -1.54839 0
M  V30 32596 H 3024.05 -3.63917 0.442749 0
M  V30 32597 H 3023.7 -4.69876 -1.79514 0
M  V30 32598 H 3023.4 -5.85677 -0.475043 0
M  V30 32599 H 3024.92 -5.94251 -1.40352 0
M  V30 32600 H 3026.34 -5.66942 0.85144 0
M  V30 32601 H 3024.74 -5.77377 1.63572 0
M  V30 32602 H 3025.81 -4.41147 2.01288 0
M  V30 32603 N 3027.15 -0.516835 -1.48884 0
M  V30 32604 C 3028.38 0.0183653 -2.06892 0
M  V30 32605 C 3028.79 1.29366 -1.37514 0
M  V30 32606 O 3028.15 1.76648 -0.45844 0
M  V30 32607 C 3028.2 0.25961 -3.60567 0
M  V30 32608 O 3027.92 -0.96514 -4.27337 0
M  V30 32609 C 3029.42 0.836674 -4.35333 0
M  V30 32610 H 3026.64 -0.0275861 -0.670433 0
M  V30 32611 H 3029.19 -0.718723 -1.91454 0
M  V30 32612 H 3027.34 0.946714 -3.75654 0
M  V30 32613 H 3027.75 -0.737738 -5.19286 0
M  V30 32614 H 3029.23 0.95497 -5.43677 0
M  V30 32615 H 3029.71 1.83838 -3.98873 0
M  V30 32616 H 3030.31 0.186547 -4.24891 0
M  V30 32617 N 3028.63 1.55583 -0.251365 0
M  V30 32618 C 3029.54 2.25214 0.656939 0
M  V30 32619 C 3030.55 1.26979 1.18964 0
M  V30 32620 O 3031.73 1.59864 1.22496 0
M  V30 32621 C 3028.79 2.94144 1.83522 0
M  V30 32622 C 3027.85 4.078 1.34155 0
M  V30 32623 C 3027.09 4.73433 2.46366 0
M  V30 32624 O 3027.31 4.38163 3.65197 0
M  V30 32625 O 3026.24 5.61857 2.15871 0
M  V30 32626 H 3030.07 3.03556 0.0935862 0
M  V30 32627 H 3027.66 1.49387 -0.01969 0
M  V30 32628 H 3029.54 3.37545 2.52273 0
M  V30 32629 H 3028.21 2.18739 2.3861 0
M  V30 32630 H 3027.12 3.68907 0.621184 0
M  V30 32631 H 3028.45 4.85036 0.836694 0
M  V30 32632 N 3030.1 -0.0216912 1.57585 0
M  V30 32633 C 3031.33 -0.721538 1.93591 0
M  V30 32634 C 3031.74 -1.69023 0.850161 0
M  V30 32635 O 3031.09 -1.82801 -0.181507 0
M  V30 32636 C 3031.15 -1.52723 3.25447 0
M  V30 32637 C 3030.81 -0.722507 4.51253 0
M  V30 32638 C 3031.81 -0.0195684 5.19896 0
M  V30 32639 C 3029.49 -0.674872 4.97746 0
M  V30 32640 C 3031.49 0.720225 6.33318 0
M  V30 32641 C 3029.17 0.0686624 6.11061 0
M  V30 32642 C 3030.17 0.764964 6.78703 0
M  V30 32643 O 3029.86 1.49641 7.8985 0
M  V30 32644 H 3029.59 -0.207355 0.643413 0
M  V30 32645 H 3032.15 0.0189707 2.05391 0
M  V30 32646 H 3030.38 -2.31172 3.09994 0
M  V30 32647 H 3032.07 -2.11038 3.46724 0
M  V30 32648 H 3032.83 -0.0473541 4.84977 0
M  V30 32649 H 3028.71 -1.20635 4.44936 0
M  V30 32650 H 3032.25 1.26425 6.86048 0
M  V30 32651 H 3028.15 0.0983453 6.45425 0
M  V30 32652 H 3028.92 1.41086 8.06249 0
M  V30 32653 N 3031.58 -1.54832 -0.294093 0
M  V30 32654 C 3032.82 -1.76181 -1.03632 0
M  V30 32655 C 3033.19 -0.539986 -1.8425 0
M  V30 32656 O 3034.39 -0.631341 -2.61281 0
M  V30 32657 C 3032.66 -3.01912 -1.91269 0
M  V30 32658 S 3034.22 -3.44293 -2.72044 0
M  V30 32659 H 3031.04 -0.61923 -0.349392 0
M  V30 32660 H 3033.64 -1.93043 -0.308972 0
M  V30 32661 H 3032.34 -3.88954 -1.30931 0
M  V30 32662 H 3031.87 -2.87657 -2.6836 0
M  V30 32663 H 3033.89 -3.01906 -3.93786 0
M  V30 32664 N 3033.06 0.557619 -1.47405 0
M  V30 32665 C 3033.99 1.67993 -1.5592 0
M  V30 32666 C 3035.01 1.56588 -0.445438 0
M  V30 32667 O 3036.2 1.63553 -0.715028 0
M  V30 32668 C 3033.3 3.06455 -1.44702 0
M  V30 32669 C 3032.47 3.43618 -2.70639 0
M  V30 32670 C 3031.53 4.61242 -2.53264 0
M  V30 32671 O 3030.55 4.65843 -3.27076 0
M  V30 32672 N 3031.76 5.57709 -1.61063 0
M  V30 32673 H 3034.52 1.61135 -2.52697 0
M  V30 32674 H 3032.08 0.744245 -1.4378 0
M  V30 32675 H 3034.07 3.82975 -1.30813 0
M  V30 32676 H 3032.64 3.07541 -0.560093 0
M  V30 32677 H 3031.86 2.56549 -2.99293 0
M  V30 32678 H 3033.15 3.65222 -3.54247 0
M  V30 32679 H 3032.55 5.56747 -1.00244 0
M  V30 32680 H 3031.11 6.33558 -1.53126 0
M  V30 32681 N 3034.54 1.35531 0.804316 0
M  V30 32682 C 3035.79 1.28676 1.55843 0
M  V30 32683 C 3036.11 -0.137942 1.94511 0
M  V30 32684 O 3035.38 -1.07489 1.63777 0
M  V30 32685 H 3033.96 0.473301 0.577923 0
M  V30 32686 H 3036.62 1.69659 0.959263 0
M  V30 32687 H 3035.72 1.90416 2.47282 0
M  V30 32688 N 3036.02 -1.02674 1.19565 0
M  V30 32689 C 3037.43 -1.57559 1.0016 0
M  V30 32690 C 3037.78 -1.91089 -0.444889 0
M  V30 32691 O 3036.9 -1.71121 -1.32463 0
M  V30 32692 C 3037.5 -2.86281 1.81186 0
M  V30 32693 C 3036.06 -3.37731 1.66177 0
M  V30 32694 C 3035.21 -2.11149 1.79754 0
M  V30 32695 H 3038.16 -0.851766 1.33905 0
M  V30 32696 H 3038.18 -3.57267 1.30922 0
M  V30 32697 H 3037.69 -2.61845 2.86459 0
M  V30 32698 H 3035.79 -3.67149 0.634992 0
M  V30 32699 H 3035.9 -4.10618 2.46839 0
M  V30 32700 H 3034.27 -2.23121 1.22837 0
M  V30 32701 H 3035.05 -1.89152 2.8649 0
M  V30 32702 N 3037.5 -0.999914 -1.21817 0
M  V30 32703 C 3038.74 -0.68803 -1.92472 0
M  V30 32704 C 3039.1 0.766538 -1.76035 0
M  V30 32705 O 3040.3 1.19017 -2.41016 0
M  V30 32706 C 3038.57 -1.09135 -3.4033 0
M  V30 32707 S 3040.13 -0.898897 -4.29494 0
M  V30 32708 H 3036.95 -0.251341 -0.665093 0
M  V30 32709 H 3039.55 -1.28367 -1.47452 0
M  V30 32710 H 3038.25 -2.14621 -3.49809 0
M  V30 32711 H 3037.79 -0.487793 -3.90364 0
M  V30 32712 H 3039.8 0.206786 -4.95769 0
M  V30 32713 N 3038.97 1.37284 -0.773999 0
M  V30 32714 C 3039.92 2.27598 -0.135285 0
M  V30 32715 C 3040.91 1.4621 0.671666 0
M  V30 32716 O 3042.1 1.68744 0.534269 0
M  V30 32717 C 3039.23 3.35202 0.741239 0
M  V30 32718 C 3038.31 4.24036 -0.0736642 0
M  V30 32719 N 3038.71 4.93234 -1.12044 0
M  V30 32720 C 3037 4.45748 0.14996 0
M  V30 32721 C 3037.7 5.58825 -1.61522 0
M  V30 32722 N 3036.68 5.35637 -0.927016 0
M  V30 32723 H 3040.48 2.78574 -0.936695 0
M  V30 32724 H 3038 1.50428 -0.61197 0
M  V30 32725 H 3039.99 3.98814 1.21461 0
M  V30 32726 H 3038.65 2.85783 1.54137 0
M  V30 32727 H 3039.66 4.95623 -1.50262 0
M  V30 32728 H 3036.34 4.07196 0.921819 0
M  V30 32729 H 3037.73 6.24127 -2.48829 0
M  V30 32730 N 3040.45 0.524724 1.48608 0
M  V30 32731 C 3041.36 -0.244882 2.33318 0
M  V30 32732 C 3042.38 -0.944188 1.46154 0
M  V30 32733 O 3043.55 -0.920315 1.79143 0
M  V30 32734 C 3040.62 -1.28139 3.22151 0
M  V30 32735 C 3039.68 -0.592993 4.25185 0
M  V30 32736 C 3038.91 -1.58011 5.09773 0
M  V30 32737 O 3039.14 -2.81226 4.96254 0
M  V30 32738 O 3038.07 -1.12239 5.91342 0
M  V30 32739 H 3041.9 0.449119 3.00361 0
M  V30 32740 H 3039.48 0.285715 1.46643 0
M  V30 32741 H 3041.36 -1.88051 3.77114 0
M  V30 32742 H 3040.04 -1.95789 2.57776 0
M  V30 32743 H 3038.94 0.0464872 3.74071 0
M  V30 32744 H 3040.28 0.0414759 4.92183 0
M  V30 32745 N 3041.93 -1.55447 0.259613 0
M  V30 32746 C 3042.88 -2.23314 -0.650661 0
M  V30 32747 C 3043.87 -1.22493 -1.17012 0
M  V30 32748 O 3045.08 -1.40469 -1.12554 0
M  V30 32749 H 3041.45 -0.716494 -0.228342 0
M  V30 32750 H 3043.42 -2.98349 -0.0552514 0
M  V30 32751 C 3042.17 -2.95599 -1.83075 0
M  V30 32752 H 3041.5 -3.72958 -1.44021 0
M  V30 32753 H 3042.94 -3.4643 -2.44463 0
M  V30 32754 C 3041.39 -2.00188 -2.70973 0
M  V30 32755 O 3041.92 -1.5431 -3.70879 0
M  V30 32756 N 3040.13 -1.67018 -2.3781 0
M  V30 32757 H 3039.68 -2.04522 -1.56616 0
M  V30 32758 H 3039.64 -1.03448 -2.96894 0
M  V30 32759 N 3043.41 0.0133338 -1.57594 0
M  V30 32760 C 3044.34 1.03691 -2.04403 0
M  V30 32761 C 3045.35 1.31515 -0.959569 0
M  V30 32762 O 3046.54 1.28725 -1.23661 0
M  V30 32763 C 3043.64 2.37487 -2.41771 0
M  V30 32764 C 3042.81 2.28795 -3.72789 0
M  V30 32765 C 3041.87 3.45169 -3.97171 0
M  V30 32766 O 3040.9 3.23955 -4.68019 0
M  V30 32767 N 3042.1 4.67573 -3.44029 0
M  V30 32768 H 3044.87 0.637823 -2.92834 0
M  V30 32769 H 3042.43 0.200982 -1.60648 0
M  V30 32770 H 3044.42 3.14088 -2.55207 0
M  V30 32771 H 3042.99 2.69185 -1.58929 0
M  V30 32772 H 3042.21 1.3719 -3.69557 0
M  V30 32773 H 3043.5 2.20146 -4.58708 0
M  V30 32774 H 3042.9 4.87708 -2.86632 0
M  V30 32775 H 3041.45 5.41485 -3.62818 0
M  V30 32776 N 3044.89 1.54985 0.285878 0
M  V30 32777 C 3045.83 1.87755 1.37299 0
M  V30 32778 C 3046.83 0.752643 1.51762 0
M  V30 32779 O 3048.03 0.936832 1.53699 0
M  V30 32780 H 3044.41 0.595728 0.458925 0
M  V30 32781 H 3046.38 2.78593 1.06905 0
M  V30 32782 C 3045.13 2.15478 2.72882 0
M  V30 32783 H 3044.45 3.01518 2.6254 0
M  V30 32784 H 3045.89 2.42337 3.47921 0
M  V30 32785 C 3044.35 0.958181 3.22987 0
M  V30 32786 O 3044.88 0.18629 4.01268 0
M  V30 32787 N 3043.09 0.759403 2.80502 0
M  V30 32788 H 3042.63 1.38877 2.16958 0
M  V30 32789 H 3042.59 -0.0396384 3.14375 0
M  V30 32790 N 3046.36 -0.549794 1.47699 0
M  V30 32791 C 3047.6 -1.31732 1.56288 0
M  V30 32792 C 3047.97 -1.907 0.223076 0
M  V30 32793 O 3049.17 -2.68171 0.183846 0
M  V30 32794 C 3047.44 -2.3923 2.65526 0
M  V30 32795 S 3049 -3.25972 2.93748 0
M  V30 32796 H 3045.82 -0.448369 0.551803 0
M  V30 32797 H 3048.42 -0.628597 1.85119 0
M  V30 32798 H 3047.12 -1.94356 3.61461 0
M  V30 32799 H 3046.65 -3.12834 2.38534 0
M  V30 32800 H 3048.67 -4.38872 2.31529 0
M  V30 32801 N 3047.84 -1.35955 -0.797117 0
M  V30 32802 C 3049.09 -1.29089 -1.5498 0
M  V30 32803 C 3049.4 0.129969 -1.95168 0
M  V30 32804 O 3050.61 0.320962 -2.69596 0
M  V30 32805 C 3049.07 -2.26444 -2.79734 0
M  V30 32806 C 3048.67 -3.73925 -2.46747 0
M  V30 32807 C 3050.42 -2.28539 -3.57729 0
M  V30 32808 C 3048.33 -4.63077 -3.6785 0
M  V30 32809 H 3047.26 -0.479661 -0.581757 0
M  V30 32810 H 3049.91 -1.61274 -0.875381 0
M  V30 32811 H 3048.29 -1.87242 -3.48936 0
M  V30 32812 H 3049.46 -4.21817 -1.85491 0
M  V30 32813 H 3047.78 -3.7453 -1.81978 0
M  V30 32814 H 3050.37 -2.92359 -4.47694 0
M  V30 32815 H 3050.72 -1.29176 -3.95751 0
M  V30 32816 H 3051.25 -2.66318 -2.95499 0
M  V30 32817 H 3047.99 -5.63474 -3.34929 0
M  V30 32818 H 3047.51 -4.19906 -4.28298 0
M  V30 32819 H 3049.19 -4.78969 -4.34969 0
M  V30 32820 N 3049.32 1.02038 -1.20108 0
M  V30 32821 C 3050.28 2.08662 -0.948298 0
M  V30 32822 C 3051.28 1.60627 0.0746471 0
M  V30 32823 O 3052.47 1.73454 -0.161011 0
M  V30 32824 C 3049.61 3.38216 -0.426914 0
M  V30 32825 H 3050.8 2.32521 -1.89404 0
M  V30 32826 H 3048.35 1.1878 -1.01592 0
M  V30 32827 H 3049.09 3.20031 0.524476 0
M  V30 32828 H 3048.87 3.74406 -1.16458 0
M  V30 32829 H 3050.36 4.1673 -0.26942 0
M  V30 32830 N 3050.8 1.00636 1.21285 0
M  V30 32831 C 3052.03 0.708712 1.94383 0
M  V30 32832 C 3052.44 -0.728927 1.74161 0
M  V30 32833 O 3051.8 -1.49333 1.04909 0
M  V30 32834 C 3051.85 1.02199 3.46753 0
M  V30 32835 O 3051.57 2.40315 3.66306 0
M  V30 32836 C 3053.07 0.743944 4.37013 0
M  V30 32837 H 3050.29 0.261063 0.618132 0
M  V30 32838 H 3052.84 1.34477 1.54065 0
M  V30 32839 H 3050.99 0.431508 3.84989 0
M  V30 32840 H 3051.4 2.51283 4.60388 0
M  V30 32841 H 3052.88 1.01331 5.4262 0
M  V30 32842 H 3053.36 -0.322007 4.38018 0
M  V30 32843 H 3053.96 1.3161 4.04424 0
M  V30 32844 N 3052.28 -1.36872 0.781268 0
M  V30 32845 C 3053.23 -2.27523 0.147353 0
M  V30 32846 C 3054.21 -1.46564 -0.663902 0
M  V30 32847 O 3055.4 -1.69025 -0.525313 0
M  V30 32848 C 3052.53 -3.35591 -0.723452 0
M  V30 32849 C 3051.62 -4.23991 0.0961508 0
M  V30 32850 N 3052.01 -4.92633 1.14658 0
M  V30 32851 C 3050.31 -4.45821 -0.126319 0
M  V30 32852 C 3051.01 -5.57961 1.64483 0
M  V30 32853 N 3049.98 -5.35138 0.95541 0
M  V30 32854 H 3053.79 -2.78073 0.951455 0
M  V30 32855 H 3051.3 -1.50102 0.619939 0
M  V30 32856 H 3053.3 -3.99453 -1.19344 0
M  V30 32857 H 3051.96 -2.86596 -1.52619 0
M  V30 32858 H 3052.97 -4.94819 1.52888 0
M  V30 32859 H 3049.64 -4.07679 -0.900212 0
M  V30 32860 H 3051.03 -6.22798 2.52135 0
M  V30 32861 N 3053.75 -0.532597 -1.48328 0
M  V30 32862 C 3054.66 0.232505 -2.33445 0
M  V30 32863 C 3055.68 0.936424 -1.46653 0
M  V30 32864 O 3056.86 0.910802 -1.79628 0
M  V30 32865 C 3053.92 1.26428 -3.22826 0
M  V30 32866 C 3052.98 0.570436 -4.25493 0
M  V30 32867 C 3052.22 1.55306 -5.10603 0
M  V30 32868 O 3052.44 2.78591 -4.97738 0
M  V30 32869 O 3051.37 1.09102 -5.91929 0
M  V30 32870 H 3055.2 -0.465041 -3.00118 0
M  V30 32871 H 3052.78 -0.293487 -1.46489 0
M  V30 32872 H 3054.67 1.86048 -3.78106 0
M  V30 32873 H 3053.34 1.94419 -2.58811 0
M  V30 32874 H 3052.25 -0.0663244 -3.74041 0
M  V30 32875 H 3053.58 -0.0675769 -4.92154 0
M  V30 32876 N 3055.23 1.55307 -0.267853 0
M  V30 32877 C 3056.46 2.04296 0.357451 0
M  V30 32878 C 3056.88 1.14521 1.4922 0
M  V30 32879 O 3056.24 0.142324 1.80741 0
M  V30 32880 C 3056.29 3.51087 0.822837 0
M  V30 32881 O 3055.39 3.64413 1.93071 0
M  V30 32882 H 3054.73 0.659749 0.0750134 0
M  V30 32883 H 3057.26 2.00651 -0.400031 0
M  V30 32884 H 3057.27 3.92311 1.12052 0
M  V30 32885 H 3055.95 4.15899 -0.0074293 0
M  V30 32886 H 3054.53 3.3509 1.63612 0
M  V30 32887 N 3056.71 -0.00497598 1.57599 0
M  V30 32888 C 3057.66 -1.01625 2.09225 0
M  V30 32889 C 3058.65 -1.35912 1.01116 0
M  V30 32890 O 3059.86 -1.34534 1.19585 0
M  V30 32891 H 3056.23 -0.34536 0.668005 0
M  V30 32892 H 3058.2 -0.555223 2.93189 0
M  V30 32893 C 3056.95 -2.30092 2.60678 0
M  V30 32894 H 3056.28 -2.04576 3.43495 0
M  V30 32895 H 3057.72 -2.99141 3.00484 0
M  V30 32896 C 3056.18 -3.00729 1.51868 0
M  V30 32897 O 3056.71 -3.91517 0.89872 0
M  V30 32898 N 3054.91 -2.62469 1.24734 0
M  V30 32899 H 3054.46 -1.88722 1.75333 0
M  V30 32900 H 3054.42 -3.10045 0.521492 0
M  V30 32901 N 3058.19 -1.55135 -0.277654 0
M  V30 32902 C 3059.44 -1.75175 -1.00788 0
M  V30 32903 C 3059.76 -0.553299 -1.86986 0
M  V30 32904 O 3059.03 0.431917 -1.91079 0
M  V30 32905 H 3057.61 -0.645984 -0.375118 0
M  V30 32906 H 3060.27 -1.9253 -0.303007 0
M  V30 32907 H 3059.37 -2.65073 -1.64751 0
M  V30 32908 N 3059.67 0.541953 -1.47989 0
M  V30 32909 C 3060.92 1.29482 -1.54652 0
M  V30 32910 C 3061.23 1.94358 -0.220075 0
M  V30 32911 O 3062.43 2.70999 -0.164839 0
M  V30 32912 C 3060.89 2.3488 -2.72689 0
M  V30 32913 C 3060.5 1.76127 -4.11926 0
M  V30 32914 C 3062.24 3.11252 -2.88657 0
M  V30 32915 C 3060.15 2.79395 -5.21241 0
M  V30 32916 H 3059.08 0.486918 -0.575697 0
M  V30 32917 H 3061.73 0.573823 -1.74297 0
M  V30 32918 H 3060.11 3.09962 -2.46454 0
M  V30 32919 H 3061.29 1.07314 -4.4813 0
M  V30 32920 H 3059.6 1.12288 -4.00974 0
M  V30 32921 H 3062.2 3.88397 -3.67494 0
M  V30 32922 H 3062.54 3.6638 -1.97665 0
M  V30 32923 H 3063.07 2.43283 -3.14735 0
M  V30 32924 H 3059.81 2.29102 -6.1416 0
M  V30 32925 H 3059.33 3.46571 -4.89539 0
M  V30 32926 H 3061.01 3.42605 -5.48845 0
M  V30 32927 N 3061.15 1.36376 0.789896 0
M  V30 32928 C 3062.42 1.21128 1.53581 0
M  V30 32929 C 3062.8 -0.202748 2.10124 0
M  V30 32930 O 3062.15 -1.20832 1.93938 0
M  V30 32931 C 3062.36 2.29287 2.63113 0
M  V30 32932 C 3063.71 2.6593 3.31008 0
M  V30 32933 O 3064.73 2.28326 2.73396 0
M  V30 32934 O 3063.59 3.30651 4.35123 0
M  V30 32935 H 3060.69 0.471595 0.679358 0
M  V30 32936 H 3063.23 1.48106 0.82842 0
M  V30 32937 H 3062 3.24057 2.19323 0
M  V30 32938 H 3061.63 2.03672 3.41472 0
M  V30 32939 N 3062.62 -1.014 1.20647 0
M  V30 32940 C 3063.87 -1.74448 1.01245 0
M  V30 32941 C 3064.19 -1.90218 -0.455699 0
M  V30 32942 O 3065.39 -2.60385 -0.768905 0
M  V30 32943 C 3063.85 -3.13773 1.7628 0
M  V30 32944 C 3063.46 -3.06007 3.27206 0
M  V30 32945 C 3065.2 -3.91013 1.65255 0
M  V30 32946 C 3063.11 -4.40355 3.94767 0
M  V30 32947 H 3062.04 -0.654012 0.375213 0
M  V30 32948 H 3064.69 -1.13365 1.44294 0
M  V30 32949 H 3063.07 -3.75413 1.2602 0
M  V30 32950 H 3064.24 -2.53658 3.847 0
M  V30 32951 H 3062.56 -2.42259 3.38673 0
M  V30 32952 H 3065.16 -4.90413 2.1307 0
M  V30 32953 H 3065.5 -4.11818 0.6092 0
M  V30 32954 H 3066.03 -3.36006 2.12943 0
M  V30 32955 H 3062.77 -4.24752 4.99265 0
M  V30 32956 H 3062.29 -4.927 3.42063 0
M  V30 32957 H 3063.97 -5.09189 3.99168 0
M  V30 32958 N 3064.1 -1.01278 -1.2075 0
M  V30 32959 C 3065.35 -0.695263 -1.89338 0
M  V30 32960 C 3065.66 0.778028 -1.79461 0
M  V30 32961 O 3066.87 1.20794 -2.43148 0
M  V30 32962 C 3065.33 -1.19316 -3.39546 0
M  V30 32963 C 3064.93 -2.69308 -3.58018 0
M  V30 32964 C 3066.68 -0.950896 -4.13713 0
M  V30 32965 C 3064.58 -3.12599 -5.02032 0
M  V30 32966 H 3063.51 -0.256363 -0.70908 0
M  V30 32967 H 3066.17 -1.22496 -1.36627 0
M  V30 32968 H 3064.55 -0.591464 -3.91558 0
M  V30 32969 H 3065.72 -3.34995 -3.1641 0
M  V30 32970 H 3064.04 -2.91636 -2.97217 0
M  V30 32971 H 3066.63 -1.2498 -5.19889 0
M  V30 32972 H 3066.98 0.112718 -4.16147 0
M  V30 32973 H 3067.51 -1.51578 -3.67789 0
M  V30 32974 H 3064.25 -4.1822 -5.04749 0
M  V30 32975 H 3063.77 -2.5163 -5.44465 0
M  V30 32976 H 3065.45 -3.0502 -5.70589 0
M  V30 32977 N 3065.58 1.36456 -0.788516 0
M  V30 32978 C 3066.81 2.03521 -0.372401 0
M  V30 32979 C 3067.22 1.59456 1.0109 0
M  V30 32980 O 3066.58 0.783564 1.64823 0
M  V30 32981 C 3066.63 3.58987 -0.425498 0
M  V30 32982 O 3066.35 4.01445 -1.75425 0
M  V30 32983 C 3067.85 4.433 0.000102246 0
M  V30 32984 H 3065.07 0.65318 -0.153611 0
M  V30 32985 H 3067.62 1.74451 -1.06711 0
M  V30 32986 H 3065.77 3.8677 0.220788 0
M  V30 32987 H 3066.19 4.96033 -1.70445 0
M  V30 32988 H 3067.66 5.5193 -0.0881889 0
M  V30 32989 H 3068.14 4.264 1.05262 0
M  V30 32990 H 3068.74 4.20777 -0.618637 0
M  V30 32991 N 3067.06 0.540456 1.48043 0
M  V30 32992 C 3068.02 -0.205926 2.28273 0
M  V30 32993 C 3069.02 -0.858185 1.35985 0
M  V30 32994 O 3070.21 -0.716623 1.58777 0
M  V30 32995 C 3067.34 -1.29911 3.15176 0
M  V30 32996 H 3068.54 0.498607 2.95726 0
M  V30 32997 H 3066.09 0.296772 1.53457 0
M  V30 32998 H 3066.82 -2.03657 2.52377 0
M  V30 32999 H 3066.61 -0.836408 3.83075 0
M  V30 33000 H 3068.1 -1.82381 3.75669 0
M  V30 33001 N 3068.54 -1.55163 0.276085 0
M  V30 33002 C 3069.47 -2.25537 -0.604593 0
M  V30 33003 C 3070.45 -1.24587 -1.15811 0
M  V30 33004 O 3071.63 -1.53308 -1.19207 0
M  V30 33005 C 3068.76 -2.9772 -1.78831 0
M  V30 33006 C 3067.72 -4.05607 -1.36628 0
M  V30 33007 C 3067.04 -4.65369 -2.63317 0
M  V30 33008 C 3068.34 -5.19747 -0.515767 0
M  V30 33009 H 3070.04 -2.99395 -0.0176957 0
M  V30 33010 H 3067.58 -1.43998 -0.00707096 0
M  V30 33011 H 3069.53 -3.45663 -2.4103 0
M  V30 33012 H 3068.26 -2.21398 -2.40105 0
M  V30 33013 H 3066.92 -3.58476 -0.767478 0
M  V30 33014 H 3066.57 -3.85715 -3.22851 0
M  V30 33015 H 3066.27 -5.38216 -2.3579 0
M  V30 33016 H 3067.79 -5.16062 -3.26363 0
M  V30 33017 H 3069.2 -5.63736 -1.04279 0
M  V30 33018 H 3067.6 -5.99162 -0.335344 0
M  V30 33019 H 3068.67 -4.82663 0.465222 0
M  V30 33020 N 3070.01 -0.00338196 -1.576 0
M  V30 33021 C 3071.26 0.679967 -1.89893 0
M  V30 33022 C 3071.58 1.74749 -0.878762 0
M  V30 33023 O 3072.78 2.4857 -1.09203 0
M  V30 33024 C 3071.24 1.2606 -3.37101 0
M  V30 33025 C 3070.85 0.227728 -4.47421 0
M  V30 33026 C 3072.59 1.92195 -3.78499 0
M  V30 33027 C 3070.5 0.818547 -5.85708 0
M  V30 33028 H 3069.43 0.257733 -0.708583 0
M  V30 33029 H 3072.08 -0.0644795 -1.83387 0
M  V30 33030 H 3070.46 2.05583 -3.38455 0
M  V30 33031 H 3071.63 -0.543151 -4.57588 0
M  V30 33032 H 3069.95 -0.33337 -4.15063 0
M  V30 33033 H 3072.55 2.37309 -4.79154 0
M  V30 33034 H 3072.89 2.75394 -3.12192 0
M  V30 33035 H 3073.42 1.19401 -3.79458 0
M  V30 33036 H 3070.16 0.0252635 -6.55495 0
M  V30 33037 H 3069.68 1.55851 -5.79198 0
M  V30 33038 H 3071.36 1.31616 -6.33472 0
M  V30 33039 N 3071.49 1.5528 0.269423 0
M  V30 33040 C 3072.42 1.91415 1.33726 0
M  V30 33041 C 3073.4 0.776417 1.51347 0
M  V30 33042 O 3074.59 1.03485 1.6433 0
M  V30 33043 C 3071.72 2.18919 2.69614 0
M  V30 33044 C 3070.67 3.34731 2.6672 0
M  V30 33045 C 3070 3.47723 4.06193 0
M  V30 33046 C 3071.3 4.71029 2.25675 0
M  V30 33047 H 3072.99 2.80856 1.03731 0
M  V30 33048 H 3070.54 1.35131 0.497555 0
M  V30 33049 H 3072.49 2.42786 3.44432 0
M  V30 33050 H 3071.21 1.26281 3.01199 0
M  V30 33051 H 3069.87 3.10838 1.94359 0
M  V30 33052 H 3069.52 2.52545 4.35006 0
M  V30 33053 H 3069.22 4.25591 4.0515 0
M  V30 33054 H 3070.75 3.73886 4.82744 0
M  V30 33055 H 3072.16 4.94416 2.90217 0
M  V30 33056 H 3070.56 5.51837 2.35787 0
M  V30 33057 H 3071.63 4.69609 1.20811 0
M  V30 33058 N 3072.97 -0.534097 1.48274 0
M  V30 33059 C 3073.92 -1.66003 1.62929 0
M  V30 33060 C 3074.91 -1.61981 0.495843 0
M  V30 33061 O 3076.12 -1.66888 0.674429 0
M  V30 33062 H 3072.49 -0.549689 0.513172 0
M  V30 33063 H 3074.46 -1.50785 2.57501 0
M  V30 33064 C 3073.21 -3.04289 1.68237 0
M  V30 33065 H 3072.54 -3.08076 2.54813 0
M  V30 33066 H 3073.98 -3.82697 1.82535 0
M  V30 33067 C 3072.43 -3.34269 0.420213 0
M  V30 33068 O 3072.96 -3.98956 -0.468698 0
M  V30 33069 N 3071.17 -2.89117 0.293166 0
M  V30 33070 H 3070.72 -2.36654 1.01749 0
M  V30 33071 H 3070.68 -3.09546 -0.550322 0
M  V30 33072 N 3074.45 -1.36793 -0.782652 0
M  V30 33073 C 3075.72 -1.21941 -1.52937 0
M  V30 33074 C 3076.1 0.191602 -2.10229 0
M  V30 33075 O 3075.45 1.19802 -1.94576 0
M  V30 33076 C 3075.66 -2.30679 -2.61894 0
M  V30 33077 C 3077.01 -2.67682 -3.29593 0
M  V30 33078 O 3078.03 -2.29773 -2.72182 0
M  V30 33079 O 3076.89 -3.32954 -4.33364 0
M  V30 33080 H 3073.99 -0.475191 -0.676847 0
M  V30 33081 H 3076.53 -1.48543 -0.820554 0
M  V30 33082 H 3075.31 -3.25216 -2.17602 0
M  V30 33083 H 3074.93 -2.0548 -3.40387 0
M  V30 33084 N 3075.93 1.00759 -1.21184 0
M  V30 33085 C 3077.18 1.73909 -1.02169 0
M  V30 33086 C 3077.49 1.90457 0.445605 0
M  V30 33087 O 3078.69 2.60789 0.755086 0
M  V30 33088 C 3077.15 3.12833 -1.77942 0
M  V30 33089 C 3076.76 3.04267 -3.28824 0
M  V30 33090 C 3078.5 3.90131 -1.67326 0
M  V30 33091 C 3076.41 4.38255 -3.97097 0
M  V30 33092 H 3075.34 0.652013 -0.378676 0
M  V30 33093 H 3077.99 1.12598 -1.44893 0
M  V30 33094 H 3076.37 3.74739 -1.28009 0
M  V30 33095 H 3077.55 2.51615 -3.8604 0
M  V30 33096 H 3075.86 2.40459 -3.39953 0
M  V30 33097 H 3078.46 4.89277 -2.15668 0
M  V30 33098 H 3078.8 4.1149 -0.631032 0
M  V30 33099 H 3079.33 3.34872 -2.14722 0
M  V30 33100 H 3076.07 4.22099 -5.01511 0
M  V30 33101 H 3075.59 4.90879 -3.44671 0
M  V30 33102 H 3077.27 5.07065 -4.01863 0
M  V30 33103 N 3077.4 1.01917 1.20211 0
M  V30 33104 C 3078.35 0.584976 2.25124 0
M  V30 33105 C 3079.35 -0.377572 1.65139 0
M  V30 33106 O 3080.55 -0.247213 1.78294 0
M  V30 33107 H 3076.93 0.170871 0.73233 0
M  V30 33108 H 3078.9 1.48068 2.59072 0
M  V30 33109 C 3077.65 -0.0583278 3.47651 0
M  V30 33110 H 3076.97 0.673333 3.94089 0
M  V30 33111 H 3078.41 -0.325211 4.22751 0
M  V30 33112 C 3076.87 -1.30194 3.10727 0
M  V30 33113 O 3077.4 -2.39499 3.22495 0
M  V30 33114 N 3075.61 -1.18701 2.65252 0
M  V30 33115 H 3075.15 -0.297573 2.55875 0
M  V30 33116 H 3075.11 -2.02007 2.40916 0
M  V30 33117 N 3078.88 -1.36036 0.795742 0
M  V30 33118 C 3080.29 -1.816 0.433411 0
M  V30 33119 C 3080.64 -1.66156 -1.04338 0
M  V30 33120 O 3079.77 -1.18606 -1.81001 0
M  V30 33121 C 3080.36 -3.29701 0.779908 0
M  V30 33122 C 3078.92 -3.7345 0.470322 0
M  V30 33123 C 3078.07 -2.58204 1.01123 0
M  V30 33124 H 3081.02 -1.24167 0.988339 0
M  V30 33125 H 3081.04 -3.80429 0.0733566 0
M  V30 33126 H 3080.55 -3.40909 1.85479 0
M  V30 33127 H 3078.66 -3.67798 -0.596267 0
M  V30 33128 H 3078.77 -4.68646 0.995358 0
M  V30 33129 H 3077.13 -2.50973 0.434121 0
M  V30 33130 H 3077.92 -2.72195 2.09201 0
M  V30 33131 N 3080.36 -0.5483 -1.47755 0
M  V30 33132 C 3081.29 0.192799 -2.32703 0
M  V30 33133 C 3082.27 0.917432 -1.43238 0
M  V30 33134 O 3083.46 0.899639 -1.72105 0
M  V30 33135 C 3080.59 1.22885 -3.24833 0
M  V30 33136 C 3079.54 0.621237 -4.23467 0
M  V30 33137 C 3078.87 1.76128 -5.04859 0
M  V30 33138 C 3080.17 -0.419146 -5.20615 0
M  V30 33139 H 3081.86 -0.516375 -2.94913 0
M  V30 33140 H 3079.41 -0.249775 -1.41817 0
M  V30 33141 H 3081.36 1.7554 -3.83097 0
M  V30 33142 H 3080.08 1.96785 -2.60659 0
M  V30 33143 H 3078.74 0.116059 -3.66416 0
M  V30 33144 H 3078.39 2.4891 -4.37096 0
M  V30 33145 H 3078.09 1.36055 -5.71632 0
M  V30 33146 H 3079.61 2.29126 -5.6598 0
M  V30 33147 H 3081.03 0.0210026 -5.73296 0
M  V30 33148 H 3079.43 -0.738267 -5.95541 0
M  V30 33149 H 3080.5 -1.3183 -4.66636 0
M  V30 33150 N 3081.84 1.55014 -0.28431 0
M  V30 33151 C 3083.09 1.99401 0.329177 0
M  V30 33152 C 3083.41 1.17419 1.55685 0
M  V30 33153 O 3082.68 0.265971 1.94086 0
M  V30 33154 H 3081.26 0.736532 0.124617 0
M  V30 33155 H 3083.92 1.90922 -0.391776 0
M  V30 33156 H 3083.02 3.06026 0.612726 0
M  V30 33157 N 3083.32 0.0117398 1.57596 0
M  V30 33158 C 3084.26 -0.97586 2.09155 0
M  V30 33159 C 3085.23 -1.33402 0.989603 0
M  V30 33160 O 3086.42 -1.43035 1.26275 0
M  V30 33161 C 3083.56 -2.25876 2.6091 0
M  V30 33162 C 3082.67 -1.95859 3.8505 0
M  V30 33163 C 3081.81 -3.18316 4.25263 0
M  V30 33164 C 3080.85 -2.84039 5.42207 0
M  V30 33165 N 3079.98 -3.99068 5.77658 0
M  V30 33166 H 3084.82 -0.529259 2.93262 0
M  V30 33167 H 3082.36 -0.249666 1.44966 0
M  V30 33168 H 3084.32 -3.0089 2.89 0
M  V30 33169 H 3082.95 -2.68184 1.79659 0
M  V30 33170 H 3082 -1.11162 3.63796 0
M  V30 33171 H 3083.31 -1.66602 4.70154 0
M  V30 33172 H 3082.47 -4.01666 4.54697 0
M  V30 33173 H 3081.2 -3.5072 3.3889 0
M  V30 33174 H 3080.21 -1.99098 5.12484 0
M  V30 33175 H 3081.43 -2.5287 6.30265 0
M  V30 33176 H 3079.38 -4.31347 4.94242 0
M  V30 33177 H 3079.3 -3.73376 6.57363 0
M  V30 33178 H 3080.57 -4.83173 6.1169 0
M  V30 33179 N 3084.79 -1.55421 -0.261185 0
M  V30 33180 C 3085.74 -1.89109 -1.32311 0
M  V30 33181 C 3086.71 -0.743794 -1.48516 0
M  V30 33182 O 3087.9 -0.996151 -1.62731 0
M  V30 33183 C 3085.04 -2.17881 -2.67622 0
M  V30 33184 C 3084.15 -3.45342 -2.59543 0
M  V30 33185 C 3083.28 -3.63755 -3.87112 0
M  V30 33186 C 3082.32 -4.84867 -3.73591 0
M  V30 33187 N 3081.46 -4.99875 -4.9302 0
M  V30 33188 H 3086.3 -2.79677 -1.02882 0
M  V30 33189 H 3083.84 -1.38457 -0.496787 0
M  V30 33190 H 3085.8 -2.32565 -3.46366 0
M  V30 33191 H 3084.43 -1.30534 -2.9523 0
M  V30 33192 H 3083.48 -3.39067 -1.72446 0
M  V30 33193 H 3084.79 -4.34226 -2.45457 0
M  V30 33194 H 3083.94 -3.7832 -4.74298 0
M  V30 33195 H 3082.68 -2.73078 -4.04079 0
M  V30 33196 H 3081.69 -4.70293 -2.84789 0
M  V30 33197 H 3082.91 -5.7699 -3.58133 0
M  V30 33198 H 3080.86 -4.12132 -5.10376 0
M  V30 33199 H 3080.78 -5.82824 -4.8151 0
M  V30 33200 H 3082.04 -5.18838 -5.81745 0
M  V30 33201 N 3086.27 0.526227 -1.48555 0
M  V30 33202 C 3087.69 0.855114 -1.34759 0
M  V30 33203 C 3087.89 1.98232 -0.361455 0
M  V30 33204 O 3086.94 2.51575 0.215981 0
M  V30 33205 C 3088.26 1.2191 -2.74879 0
M  V30 33206 C 3089.81 1.32877 -2.83395 0
M  V30 33207 C 3090.28 1.72616 -4.24226 0
M  V30 33208 N 3091.77 1.79712 -4.26917 0
M  V30 33209 C 3092.51 2.11854 -5.32828 0
M  V30 33210 N 3092 2.42394 -6.49012 0
M  V30 33211 N 3093.8 2.12892 -5.20225 0
M  V30 33212 H 3085.95 -0.21746 -2.11284 0
M  V30 33213 H 3088.21 -0.0346529 -0.947366 0
M  V30 33214 H 3087.92 0.464425 -3.4862 0
M  V30 33215 H 3087.79 2.16839 -3.08643 0
M  V30 33216 H 3090.18 2.0742 -2.09907 0
M  V30 33217 H 3090.26 0.360594 -2.53246 0
M  V30 33218 H 3089.9 0.986323 -4.98231 0
M  V30 33219 H 3089.83 2.7049 -4.51821 0
M  V30 33220 H 3092.32 1.58373 -3.43113 0
M  V30 33221 H 3092.64 2.66035 -7.25565 0
M  V30 33222 H 3090.98 2.39905 -6.52281 0
M  V30 33223 H 3094.17 1.88493 -4.28472 0
M  V30 33224 H 3094.34 2.37609 -6.02865 0
M  V30 33225 N 3087.75 1.37206 0.775387 0
M  V30 33226 C 3088.68 1.2704 1.89568 0
M  V30 33227 C 3089.66 0.151671 1.61891 0
M  V30 33228 O 3090.85 0.32525 1.85673 0
M  V30 33229 C 3087.97 0.963373 3.2471 0
M  V30 33230 C 3087.02 2.09849 3.71303 0
M  V30 33231 S 3087.85 3.71785 3.85404 0
M  V30 33232 C 3089.01 3.43225 5.234 0
M  V30 33233 H 3089.24 2.21861 1.97902 0
M  V30 33234 H 3086.77 1.22786 0.936105 0
M  V30 33235 H 3088.73 0.793054 4.02767 0
M  V30 33236 H 3087.39 0.0327113 3.14083 0
M  V30 33237 H 3086.59 1.83858 4.69268 0
M  V30 33238 H 3086.19 2.22875 3.00338 0
M  V30 33239 H 3088.48 2.97988 6.08448 0
M  V30 33240 H 3089.42 4.40505 5.54402 0
M  V30 33241 H 3089.83 2.7824 4.91165 0
M  V30 33242 N 3089.23 -1.00115 1.21716 0
M  V30 33243 C 3090.51 -1.71234 0.945421 0
M  V30 33244 C 3090.89 -2.0403 -0.541736 0
M  V30 33245 O 3090.23 -1.71708 -1.5076 0
M  V30 33246 C 3090.44 -2.96896 1.83449 0
M  V30 33247 C 3091.79 -3.69846 2.08565 0
M  V30 33248 O 3092.82 -3.06886 1.8083 0
M  V30 33249 O 3091.67 -4.831 2.55494 0
M  V30 33250 H 3088.77 -0.747003 0.354847 0
M  V30 33251 H 3091.31 -1.05823 1.32663 0
M  V30 33252 H 3090.09 -2.691 2.84079 0
M  V30 33253 H 3089.71 -3.70047 1.45434 0
M  V30 33254 N 3090.71 -1.02553 -1.19669 0
M  V30 33255 C 3091.64 -0.624004 -2.25008 0
M  V30 33256 C 3092.62 0.365351 -1.6613 0
M  V30 33257 O 3093.8 0.248809 -1.926 0
M  V30 33258 C 3090.93 0.0294259 -3.47288 0
M  V30 33259 C 3089.89 -0.881854 -4.18817 0
M  V30 33260 C 3089.21 -0.0937128 -5.34618 0
M  V30 33261 C 3090.51 -2.19405 -4.73982 0
M  V30 33262 H 3092.21 -1.50459 -2.58849 0
M  V30 33263 H 3089.75 -0.724893 -1.24424 0
M  V30 33264 H 3091.71 0.321943 -4.20168 0
M  V30 33265 H 3090.43 0.944783 -3.12636 0
M  V30 33266 H 3089.09 -1.15851 -3.47813 0
M  V30 33267 H 3088.74 0.823574 -4.96212 0
M  V30 33268 H 3088.44 -0.70067 -5.83408 0
M  V30 33269 H 3089.96 0.192142 -6.10298 0
M  V30 33270 H 3091.38 -1.96329 -5.38635 0
M  V30 33271 H 3089.77 -2.75263 -5.33245 0
M  V30 33272 H 3090.84 -2.85099 -3.92233 0
M  V30 33273 N 3092.19 1.35612 -0.802945 0
M  V30 33274 C 3093.43 1.99166 -0.382176 0
M  V30 33275 C 3093.76 1.63558 1.04701 0
M  V30 33276 O 3093.04 0.89709 1.72576 0
M  V30 33277 C 3093.32 3.55694 -0.561556 0
M  V30 33278 C 3093.18 4.01112 -2.03541 0
M  V30 33279 C 3094.49 4.40097 0.0150361 0
M  V30 33280 H 3091.61 0.723516 -0.140335 0
M  V30 33281 H 3094.26 1.60818 -1.0118 0
M  V30 33282 H 3092.41 3.88492 -0.0255766 0
M  V30 33283 H 3094.08 3.78741 -2.63349 0
M  V30 33284 H 3092.32 3.52155 -2.53317 0
M  V30 33285 H 3092.99 5.10006 -2.11182 0
M  V30 33286 H 3095.47 4.13739 -0.442655 0
M  V30 33287 H 3094.34 5.4872 -0.140412 0
M  V30 33288 H 3094.6 4.2798 1.1084 0
M  V30 33289 N 3093.66 0.556128 1.47462 0
M  V30 33290 C 3094.59 -0.180456 2.32802 0
M  V30 33291 C 3095.57 -0.909823 1.43723 0
M  V30 33292 O 3096.76 -0.8905 1.7258 0
M  V30 33293 C 3093.89 -1.21161 3.2548 0
M  V30 33294 C 3092.84 -0.598771 4.23791 0
M  V30 33295 C 3092.17 -1.73448 5.05786 0
M  V30 33296 C 3093.47 0.44675 5.20386 0
M  V30 33297 H 3095.16 0.532007 2.94635 0
M  V30 33298 H 3092.71 0.257292 1.41683 0
M  V30 33299 H 3094.66 -1.73506 3.84023 0
M  V30 33300 H 3093.39 -1.954 2.61699 0
M  V30 33301 H 3092.05 -0.0966253 3.66473 0
M  V30 33302 H 3091.69 -2.46589 4.3841 0
M  V30 33303 H 3091.39 -1.33021 5.72345 0
M  V30 33304 H 3092.92 -2.26121 5.67187 0
M  V30 33305 H 3094.33 0.00940096 5.73299 0
M  V30 33306 H 3092.73 0.76984 5.95142 0
M  V30 33307 H 3093.8 1.34303 4.6593 0
M  V30 33308 N 3095.14 -1.54861 0.292527 0
M  V30 33309 C 3096.05 -2.26877 -0.596996 0
M  V30 33310 C 3097.07 -1.30088 -1.15555 0
M  V30 33311 O 3098.24 -1.63056 -1.18215 0
M  V30 33312 C 3095.31 -2.98906 -1.75658 0
M  V30 33313 C 3094.37 -4.11214 -1.23296 0
M  V30 33314 C 3093.6 -4.79799 -2.33728 0
M  V30 33315 O 3093.83 -4.47692 -3.53452 0
M  V30 33316 O 3092.76 -5.67383 -2.00898 0
M  V30 33317 H 3096.59 -3.03697 -0.0130708 0
M  V30 33318 H 3094.17 -1.49282 0.0592904 0
M  V30 33319 H 3096.05 -3.44114 -2.43235 0
M  V30 33320 H 3094.73 -2.24988 -2.32727 0
M  V30 33321 H 3093.63 -3.70424 -0.523156 0
M  V30 33322 H 3094.97 -4.87084 -0.707801 0
M  V30 33323 N 3096.62 -0.0200973 -1.57587 0
M  V30 33324 C 3097.55 0.963296 -2.12704 0
M  V30 33325 C 3098.53 1.34529 -1.04096 0
M  V30 33326 O 3099.72 1.4255 -1.31883 0
M  V30 33327 C 3096.85 2.24863 -2.64677 0
M  V30 33328 C 3095.8 2.00766 -3.77991 0
M  V30 33329 C 3095.13 3.35487 -4.16357 0
M  V30 33330 C 3096.43 1.35407 -5.04442 0
M  V30 33331 H 3098.12 0.504311 -2.95122 0
M  V30 33332 H 3095.67 0.241135 -1.41967 0
M  V30 33333 H 3097.62 2.94031 -3.01867 0
M  V30 33334 H 3096.34 2.72911 -1.79408 0
M  V30 33335 H 3095 1.34019 -3.41225 0
M  V30 33336 H 3094.65 3.81276 -3.28082 0
M  V30 33337 H 3094.35 3.20172 -4.9271 0
M  V30 33338 H 3095.87 4.05937 -4.56123 0
M  V30 33339 H 3097.29 1.94561 -5.39276 0
M  V30 33340 H 3095.68 1.30519 -5.85734 0
M  V30 33341 H 3096.75 0.325838 -4.83804 0
M  V30 33342 N 3098.1 1.55557 0.252939 0
M  V30 33343 C 3099.04 1.89808 1.31307 0
M  V30 33344 C 3100.01 0.751659 1.48119 0
M  V30 33345 O 3101.2 1.00477 1.62201 0
M  V30 33346 C 3098.34 2.19298 2.66463 0
M  V30 33347 C 3097.45 3.46714 2.57708 0
M  V30 33348 C 3096.59 3.65803 3.85177 0
M  V30 33349 C 3095.63 4.86841 3.71015 0
M  V30 33350 N 3094.76 5.02483 4.90363 0
M  V30 33351 H 3099.6 2.80219 1.01397 0
M  V30 33352 H 3097.14 1.38719 0.489438 0
M  V30 33353 H 3099.1 2.34399 3.45128 0
M  V30 33354 H 3097.73 1.32098 2.94533 0
M  V30 33355 H 3096.78 3.39977 1.70645 0
M  V30 33356 H 3098.09 4.35522 2.43151 0
M  V30 33357 H 3097.25 3.8083 4.72285 0
M  V30 33358 H 3095.99 2.75217 4.02625 0
M  V30 33359 H 3094.99 4.71797 2.8229 0
M  V30 33360 H 3096.22 5.78882 3.55068 0
M  V30 33361 H 3094.16 4.14833 5.08183 0
M  V30 33362 H 3094.08 5.85369 4.78413 0
M  V30 33363 H 3095.35 5.21916 5.78986 0
M  V30 33364 N 3099.58 -0.518341 1.48832 0
M  V30 33365 C 3100.52 -1.64265 1.64681 0
M  V30 33366 C 3101.52 -1.61446 0.512995 0
M  V30 33367 O 3102.72 -1.66163 0.692092 0
M  V30 33368 H 3099.1 -0.544215 0.518974 0
M  V30 33369 H 3101.07 -1.48045 2.59085 0
M  V30 33370 C 3099.82 -3.02487 1.71454 0
M  V30 33371 H 3099.14 -3.05356 2.58066 0
M  V30 33372 H 3100.58 -3.80739 1.86584 0
M  V30 33373 C 3099.04 -3.33805 0.455643 0
M  V30 33374 O 3099.57 -3.99431 -0.426357 0
M  V30 33375 N 3097.78 -2.8879 0.323814 0
M  V30 33376 H 3097.32 -2.35561 1.04253 0
M  V30 33377 H 3097.28 -3.10112 -0.517459 0
M  V30 33378 N 3101.05 -1.37615 -0.7681 0
M  V30 33379 C 3102 -1.33767 -1.90287 0
M  V30 33380 C 3103 -0.225843 -1.67888 0
M  V30 33381 O 3104.2 -0.394074 -1.75633 0
M  V30 33382 H 3100.58 -0.416956 -0.625821 0
M  V30 33383 H 3102.55 -2.29554 -1.9065 0
M  V30 33384 C 3101.3 -1.16516 -3.27596 0
M  V30 33385 H 3100.62 -2.01324 -3.45411 0
M  V30 33386 H 3102.06 -1.17875 -4.07286 0
M  V30 33387 C 3100.52 0.128941 -3.36653 0
M  V30 33388 O 3101.05 1.11121 -3.86025 0
M  V30 33389 N 3099.25 0.180875 -2.90037 0
M  V30 33390 H 3098.8 -0.61912 -2.50049 0
M  V30 33391 H 3098.76 1.04636 -2.96477 0
M  V30 33392 N 3102.53 0.994677 -1.22245 0
M  V30 33393 C 3103.49 2.06604 -0.992345 0
M  V30 33394 C 3104.49 1.60749 0.040559 0
M  V30 33395 O 3105.68 1.73074 -0.197767 0
M  V30 33396 C 3102.82 3.37235 -0.498558 0
M  V30 33397 H 3104.01 2.28451 -1.94294 0
M  V30 33398 H 3101.56 1.16598 -1.04089 0
M  V30 33399 H 3102.3 3.21071 0.456475 0
M  V30 33400 H 3102.08 3.71852 -1.24374 0
M  V30 33401 H 3103.57 4.16065 -0.357754 0
M  V30 33402 N 3104.01 1.03186 1.19123 0
M  V30 33403 C 3105.23 0.749662 1.93377 0
M  V30 33404 C 3105.66 -0.685754 1.75154 0
M  V30 33405 O 3105.02 -1.47385 1.05582 0
M  V30 33406 C 3105.07 1.10976 3.43099 0
M  V30 33407 O 3104.17 0.230125 4.11757 0
M  V30 33408 H 3103.51 0.2767 0.6036 0
M  V30 33409 H 3106.04 1.37934 1.51114 0
M  V30 33410 H 3106.05 1.06792 3.93776 0
M  V30 33411 H 3104.73 2.1555 3.55684 0
M  V30 33412 H 3103.3 0.330813 3.7143 0
M  V30 33413 N 3105.49 -1.35184 0.810125 0
M  V30 33414 C 3106.44 -2.2974 0.220968 0
M  V30 33415 C 3107.41 -1.52981 -0.646997 0
M  V30 33416 O 3108.59 -1.81405 -0.591335 0
M  V30 33417 C 3105.73 -3.39455 -0.62161 0
M  V30 33418 C 3104.84 -4.31173 0.26718 0
M  V30 33419 C 3103.98 -5.27983 -0.58374 0
M  V30 33420 C 3103.02 -6.11338 0.30523 0
M  V30 33421 N 3102.15 -7.00275 -0.505868 0
M  V30 33422 H 3106.99 -2.79534 1.03271 0
M  V30 33423 H 3104.53 -1.37572 0.520792 0
M  V30 33424 H 3106.49 -4.01737 -1.12532 0
M  V30 33425 H 3105.12 -2.90929 -1.39858 0
M  V30 33426 H 3104.17 -3.69866 0.889015 0
M  V30 33427 H 3105.48 -4.89645 0.951268 0
M  V30 33428 H 3104.64 -5.95654 -1.15244 0
M  V30 33429 H 3103.38 -4.70016 -1.30138 0
M  V30 33430 H 3102.38 -5.42611 0.886171 0
M  V30 33431 H 3103.61 -6.71384 1.02079 0
M  V30 33432 H 3101.55 -6.44793 -1.20742 0
M  V30 33433 H 3101.47 -7.55905 0.120099 0
M  V30 33434 H 3102.74 -7.7229 -1.05773 0
M  V30 33435 N 3106.97 -0.56394 -1.47165 0
M  V30 33436 C 3107.9 0.168107 -2.32894 0
M  V30 33437 C 3108.88 0.902188 -1.44203 0
M  V30 33438 O 3110.06 0.881335 -1.7305 0
M  V30 33439 C 3107.19 1.19433 -3.26118 0
M  V30 33440 C 3106.15 0.576288 -4.24102 0
M  V30 33441 C 3105.47 1.70763 -5.06699 0
M  V30 33442 C 3106.77 -0.474341 -5.20142 0
M  V30 33443 H 3108.47 -0.547625 -2.94349 0
M  V30 33444 H 3106.01 -0.264802 -1.41544 0
M  V30 33445 H 3107.97 1.71467 -3.84938 0
M  V30 33446 H 3106.69 1.9401 -2.62732 0
M  V30 33447 H 3105.35 0.077189 -3.66519 0
M  V30 33448 H 3105 2.4426 -4.39711 0
M  V30 33449 H 3104.7 1.29984 -5.73043 0
M  V30 33450 H 3106.22 2.2311 -5.68379 0
M  V30 33451 H 3107.63 -0.0398043 -5.73286 0
M  V30 33452 H 3106.03 -0.801391 -5.94725 0
M  V30 33453 H 3107.1 -1.36772 -4.65211 0
M  V30 33454 N 3108.44 1.54704 -0.300735 0
M  V30 33455 C 3109.37 2.2647 0.568635 0
M  V30 33456 C 3110.36 1.26413 1.13814 0
M  V30 33457 O 3111.54 1.55185 1.16753 0
M  V30 33458 C 3108.67 3.00527 1.74071 0
M  V30 33459 C 3107.62 4.07729 1.30158 0
M  V30 33460 C 3106.95 4.69499 2.5588 0
M  V30 33461 C 3108.25 5.20502 0.433015 0
M  V30 33462 H 3109.94 2.99385 -0.0299377 0
M  V30 33463 H 3107.49 1.43991 -0.0158388 0
M  V30 33464 H 3109.44 3.49453 2.355 0
M  V30 33465 H 3108.17 2.2519 2.36552 0
M  V30 33466 H 3106.83 3.59652 0.71035 0
M  V30 33467 H 3106.47 3.90802 3.16674 0
M  V30 33468 H 3106.17 5.41899 2.27198 0
M  V30 33469 H 3107.7 5.21189 3.18111 0
M  V30 33470 H 3109.11 5.65324 0.95297 0
M  V30 33471 H 3107.51 5.9962 0.23998 0
M  V30 33472 H 3108.58 4.81862 -0.54195 0
M  V30 33473 N 3109.92 0.0284543 1.57574 0
M  V30 33474 C 3110.85 -0.952002 2.13212 0
M  V30 33475 C 3111.83 -1.33975 1.04808 0
M  V30 33476 O 3113.02 -1.41849 1.32637 0
M  V30 33477 C 3110.15 -2.23456 2.65866 0
M  V30 33478 C 3109.1 -1.98758 3.7905 0
M  V30 33479 C 3108.43 -3.33274 4.1813 0
M  V30 33480 C 3109.73 -1.3273 5.05153 0
M  V30 33481 H 3111.42 -0.488653 2.95385 0
M  V30 33482 H 3108.97 -0.233603 1.42093 0
M  V30 33483 H 3110.92 -2.92426 3.03423 0
M  V30 33484 H 3109.65 -2.71956 1.80852 0
M  V30 33485 H 3108.3 -1.32207 3.41931 0
M  V30 33486 H 3107.95 -3.79531 3.30099 0
M  V30 33487 H 3107.65 -3.17555 4.94401 0
M  V30 33488 H 3109.18 -4.03512 4.58269 0
M  V30 33489 H 3110.59 -1.91698 5.403 0
M  V30 33490 H 3108.99 -1.27411 5.86418 0
M  V30 33491 H 3110.06 -0.300176 4.8397 0
M  V30 33492 N 3111.4 -1.55689 -0.244686 0
M  V30 33493 C 3112.36 -1.89697 -1.28637 0
M  V30 33494 C 3113.36 -0.773608 -1.40968 0
M  V30 33495 O 3114.55 -1.04158 -1.39631 0
M  V30 33496 C 3111.69 -2.12737 -2.66375 0
M  V30 33497 H 3112.88 -2.82843 -0.996983 0
M  V30 33498 H 3110.43 -1.48615 -0.484077 0
M  V30 33499 H 3111.17 -1.22067 -3.0045 0
M  V30 33500 H 3110.95 -2.94553 -2.58806 0
M  V30 33501 H 3112.44 -2.40224 -3.41588 0
M  V30 33502 N 3112.88 0.510441 -1.49105 0
M  V30 33503 C 3114.13 1.26173 -1.57364 0
M  V30 33504 C 3114.44 1.93847 -0.261252 0
M  V30 33505 O 3115.65 2.70589 -0.222285 0
M  V30 33506 C 3114.1 2.29043 -2.7761 0
M  V30 33507 C 3113.71 1.6735 -4.1557 0
M  V30 33508 C 3115.45 3.05059 -2.95194 0
M  V30 33509 C 3113.36 2.68275 -5.27051 0
M  V30 33510 H 3112.29 0.474597 -0.585895 0
M  V30 33511 H 3114.94 0.536723 -1.75475 0
M  V30 33512 H 3113.32 3.04665 -2.52973 0
M  V30 33513 H 3114.5 0.977844 -4.50305 0
M  V30 33514 H 3112.81 1.03758 -4.03266 0
M  V30 33515 H 3115.41 3.80515 -3.7565 0
M  V30 33516 H 3115.75 3.62105 -2.05392 0
M  V30 33517 H 3116.29 2.36552 -3.19825 0
M  V30 33518 H 3113.03 2.16023 -6.18882 0
M  V30 33519 H 3112.55 3.3611 -4.9678 0
M  V30 33520 H 3114.22 3.30886 -5.55989 0
M  V30 33521 N 3114.36 1.38021 0.760791 0
M  V30 33522 C 3115.29 1.29044 1.8821 0
M  V30 33523 C 3116.27 0.168833 1.61721 0
M  V30 33524 O 3117.45 0.344925 1.85317 0
M  V30 33525 C 3114.58 0.997759 3.2367 0
M  V30 33526 C 3113.62 2.13775 3.69056 0
M  V30 33527 S 3114.46 3.75852 3.81439 0
M  V30 33528 C 3115.61 3.48757 5.1973 0
M  V30 33529 H 3115.85 2.23947 1.95537 0
M  V30 33530 H 3113.38 1.23772 0.92303 0
M  V30 33531 H 3115.34 0.835728 4.01903 0
M  V30 33532 H 3114 0.0660222 3.14031 0
M  V30 33533 H 3113.19 1.88824 4.67291 0
M  V30 33534 H 3112.79 2.26048 2.97957 0
M  V30 33535 H 3115.09 3.04425 6.05254 0
M  V30 33536 H 3116.03 4.4636 5.49698 0
M  V30 33537 H 3116.44 2.83433 4.88186 0
M  V30 33538 N 3115.83 -0.98818 1.22771 0
M  V30 33539 C 3116.74 -2.11339 1.01848 0
M  V30 33540 C 3117.76 -1.73965 -0.0346631 0
M  V30 33541 O 3118.94 -2.00771 0.159096 0
M  V30 33542 C 3116 -3.414 0.603897 0
M  V30 33543 C 3115.06 -3.92846 1.7312 0
M  V30 33544 C 3114.3 -5.167 1.3363 0
M  V30 33545 O 3114.52 -5.69987 0.217141 0
M  V30 33546 O 3113.45 -5.62017 2.15453 0
M  V30 33547 H 3117.28 -2.31876 1.96131 0
M  V30 33548 H 3114.86 -1.09713 1.01407 0
M  V30 33549 H 3116.75 -4.19653 0.38327 0
M  V30 33550 H 3115.42 -3.22212 -0.310026 0
M  V30 33551 H 3114.33 -3.15745 2.00639 0
M  V30 33552 H 3115.66 -4.16475 2.62316 0
M  V30 33553 N 3117.31 -1.03816 -1.18575 0
M  V30 33554 C 3118.54 -0.759907 -1.92977 0
M  V30 33555 C 3118.96 0.676455 -1.75516 0
M  V30 33556 O 3118.32 1.46823 -1.06362 0
M  V30 33557 C 3118.37 -1.12794 -3.42505 0
M  V30 33558 O 3117.47 -0.251958 -4.1163 0
M  V30 33559 H 3116.81 -0.279897 -0.602124 0
M  V30 33560 H 3119.34 -1.38733 -1.5038 0
M  V30 33561 H 3119.35 -1.08879 -3.93204 0
M  V30 33562 H 3118.03 -2.17433 -3.54536 0
M  V30 33563 H 3116.61 -0.350506 -3.71249 0
M  V30 33564 N 3118.79 1.34753 -0.817283 0
M  V30 33565 C 3120.21 1.51488 -0.502336 0
M  V30 33566 C 3120.41 1.76366 0.974537 0
M  V30 33567 O 3119.46 1.8113 1.75921 0
M  V30 33568 C 3120.78 2.68341 -1.35697 0
M  V30 33569 C 3122.32 2.82221 -1.35352 0
M  V30 33570 C 3122.8 4.02111 -2.19251 0
M  V30 33571 N 3124.29 4.09308 -2.16845 0
M  V30 33572 C 3125.02 5.01216 -2.78514 0
M  V30 33573 N 3124.52 5.98386 -3.49151 0
M  V30 33574 N 3126.31 4.94044 -2.68098 0
M  V30 33575 H 3118.46 1.16863 -1.77361 0
M  V30 33576 H 3120.73 0.572664 -0.755486 0
M  V30 33577 H 3120.43 2.56569 -2.40552 0
M  V30 33578 H 3120.31 3.63212 -1.0177 0
M  V30 33579 H 3122.69 2.93438 -0.312778 0
M  V30 33580 H 3122.78 1.88176 -1.73273 0
M  V30 33581 H 3122.42 3.91654 -3.23372 0
M  V30 33582 H 3122.35 4.95358 -1.78684 0
M  V30 33583 H 3124.84 3.39753 -1.65458 0
M  V30 33584 H 3125.15 6.65135 -3.93467 0
M  V30 33585 H 3123.5 5.98527 -3.53257 0
M  V30 33586 H 3126.69 4.17091 -2.12493 0
M  V30 33587 H 3126.86 5.65478 -3.16446 0
M  V30 33588 N 3120.27 0.571737 1.46864 0
M  V30 33589 C 3121.22 -0.188463 2.2722 0
M  V30 33590 C 3122.2 -0.871995 1.35222 0
M  V30 33591 O 3123.4 -0.767902 1.59475 0
M  V30 33592 C 3120.52 -1.20857 3.21323 0
M  V30 33593 C 3119.61 -0.527709 4.20804 0
M  V30 33594 N 3120 0.410492 5.04132 0
M  V30 33595 C 3118.3 -0.779832 4.39129 0
M  V30 33596 C 3119 0.807381 5.7607 0
M  V30 33597 N 3117.98 0.15896 5.43368 0
M  V30 33598 H 3121.78 0.532662 2.89033 0
M  V30 33599 H 3119.29 0.392724 1.5758 0
M  V30 33600 H 3121.29 -1.76726 3.77589 0
M  V30 33601 H 3119.95 -1.93063 2.61069 0
M  V30 33602 H 3120.96 0.785441 5.11909 0
M  V30 33603 H 3117.64 -1.4893 3.90033 0
M  V30 33604 H 3119.03 1.57915 6.53079 0
M  V30 33605 N 3121.75 -1.54542 0.308935 0
M  V30 33606 C 3123.02 -1.92415 -0.351524 0
M  V30 33607 C 3123.4 -1.23702 -1.71058 0
M  V30 33608 O 3122.75 -0.37554 -2.25393 0
M  V30 33609 C 3122.96 -3.45978 -0.458296 0
M  V30 33610 C 3124.31 -4.18357 -0.72545 0
M  V30 33611 O 3125.33 -3.52055 -0.541797 0
M  V30 33612 O 3124.19 -5.35747 -1.07875 0
M  V30 33613 H 3121.29 -0.802962 -0.197943 0
M  V30 33614 H 3123.83 -1.6589 0.357577 0
M  V30 33615 H 3122.61 -3.88134 0.496791 0
M  V30 33616 H 3122.23 -3.78563 -1.21555 0
M  V30 33617 N 3123.23 -0.0368104 -1.57557 0
M  V30 33618 C 3124.45 0.653673 -1.9683 0
M  V30 33619 C 3124.88 1.64424 -0.913588 0
M  V30 33620 O 3124.23 1.80871 0.124717 0
M  V30 33621 C 3124.28 1.32964 -3.35191 0
M  V30 33622 O 3123.39 2.44507 -3.32099 0
M  V30 33623 H 3122.73 0.171113 -0.641573 0
M  V30 33624 H 3125.26 -0.100947 -2.04351 0
M  V30 33625 H 3125.27 1.68465 -3.71596 0
M  V30 33626 H 3123.94 0.603582 -4.11497 0
M  V30 33627 H 3122.52 2.1106 -3.07422 0
M  V30 33628 N 3124.7 1.55817 0.236426 0
M  V30 33629 C 3125.61 1.94338 1.31415 0
M  V30 33630 C 3126.63 0.845191 1.52094 0
M  V30 33631 O 3127.81 1.14749 1.65513 0
M  V30 33632 C 3124.87 2.23936 2.64676 0
M  V30 33633 C 3123.93 3.47244 2.52429 0
M  V30 33634 C 3123.16 3.75421 3.79335 0
M  V30 33635 O 3123.39 3.05503 4.81689 0
M  V30 33636 O 3122.32 4.68934 3.77339 0
M  V30 33637 H 3126.15 2.86154 1.01734 0
M  V30 33638 H 3123.73 1.42833 0.438059 0
M  V30 33639 H 3125.61 2.44234 3.43406 0
M  V30 33640 H 3124.29 1.35297 2.94068 0
M  V30 33641 H 3123.2 3.32241 1.7195 0
M  V30 33642 H 3124.53 4.36218 2.27979 0
M  V30 33643 N 3126.18 -0.502526 1.49373 0
M  V30 33644 C 3127.13 -1.62509 1.66414 0
M  V30 33645 C 3128.12 -1.60893 0.53009 0
M  V30 33646 O 3129.33 -1.65419 0.709677 0
M  V30 33647 H 3125.7 -0.53868 0.524717 0
M  V30 33648 H 3127.68 -1.45289 2.60641 0
M  V30 33649 C 3126.42 -3.00652 1.74653 0
M  V30 33650 H 3125.75 -3.02601 2.6129 0
M  V30 33651 H 3127.19 -3.78739 1.90612 0
M  V30 33652 C 3125.65 -3.33303 0.491022 0
M  V30 33653 O 3126.18 -3.99861 -0.383968 0
M  V30 33654 N 3124.38 -2.88431 0.354426 0
M  V30 33655 H 3123.93 -2.34442 1.06746 0
M  V30 33656 H 3123.89 -3.10644 -0.484539 0
M  V30 33657 N 3127.66 -1.38422 -0.75346 0
M  V30 33658 C 3128.62 -1.35462 -1.84886 0
M  V30 33659 C 3129.62 -0.255111 -1.58763 0
M  V30 33660 O 3130.81 -0.512007 -1.66506 0
M  V30 33661 C 3127.94 -1.10893 -3.22359 0
M  V30 33662 H 3129.14 -2.32916 -1.88918 0
M  V30 33663 H 3126.69 -1.23718 -0.955177 0
M  V30 33664 H 3127.43 -0.140457 -3.23996 0
M  V30 33665 H 3127.21 -1.90498 -3.42714 0
M  V30 33666 H 3128.7 -1.11518 -4.02435 0
M  V30 33667 N 3129.14 0.981655 -1.23294 0
M  V30 33668 C 3130.05 2.10796 -1.02967 0
M  V30 33669 C 3131.06 1.73981 0.0254368 0
M  V30 33670 O 3132.24 2.00683 -0.169741 0
M  V30 33671 C 3129.3 3.41075 -0.621994 0
M  V30 33672 C 3128.37 3.91922 -1.75201 0
M  V30 33673 C 3127.6 5.15984 -1.36368 0
M  V30 33674 O 3127.82 5.69863 -0.247365 0
M  V30 33675 O 3126.76 5.60867 -2.18431 0
M  V30 33676 H 3130.58 2.30832 -1.97358 0
M  V30 33677 H 3128.17 1.09174 -1.01988 0
M  V30 33678 H 3130.05 4.19444 -0.405519 0
M  V30 33679 H 3128.72 3.22372 0.292934 0
M  V30 33680 H 3127.63 3.14676 -2.02311 0
M  V30 33681 H 3128.96 4.15078 -2.64521 0
M  V30 33682 N 3130.62 1.04444 1.18022 0
M  V30 33683 C 3132.03 0.764374 1.40105 0
M  V30 33684 C 3132.23 -0.644482 1.90915 0
M  V30 33685 O 3131.29 -1.40809 2.09593 0
M  V30 33686 C 3132.6 1.81365 2.39848 0
M  V30 33687 C 3134.15 1.835 2.53568 0
M  V30 33688 C 3134.62 2.8743 3.56578 0
M  V30 33689 N 3136.11 2.86345 3.64089 0
M  V30 33690 C 3136.85 3.63412 4.4353 0
M  V30 33691 N 3136.35 4.50242 5.26549 0
M  V30 33692 N 3138.14 3.51885 4.3833 0
M  V30 33693 H 3130.29 1.95354 0.833692 0
M  V30 33694 H 3132.55 0.845482 0.428795 0
M  V30 33695 H 3132.26 2.82441 2.09571 0
M  V30 33696 H 3132.13 1.64896 3.39248 0
M  V30 33697 H 3134.52 0.830933 2.8316 0
M  V30 33698 H 3134.6 2.04046 1.54268 0
M  V30 33699 H 3134.24 3.88018 3.27726 0
M  V30 33700 H 3134.17 2.64138 4.55564 0
M  V30 33701 H 3136.67 2.23381 3.0481 0
M  V30 33702 H 3136.98 5.05748 5.84327 0
M  V30 33703 H 3135.32 4.54308 5.25956 0
M  V30 33704 H 3138.51 2.83451 3.72523 0
M  V30 33705 H 3138.69 4.12195 5 0
M  V30 33706 N 3132.09 -1.34317 0.824418 0
M  V30 33707 C 3133.34 -1.97497 0.409594 0
M  V30 33708 C 3133.66 -1.66085 -1.0332 0
M  V30 33709 O 3134.86 -2.22766 -1.55201 0
M  V30 33710 C 3133.32 -3.5339 0.681446 0
M  V30 33711 C 3132.93 -3.93694 2.13796 0
M  V30 33712 C 3134.67 -4.23193 0.332862 0
M  V30 33713 C 3132.58 -5.42505 2.35463 0
M  V30 33714 H 3131.51 -0.739046 0.149422 0
M  V30 33715 H 3134.16 -1.53139 1.01098 0
M  V30 33716 H 3132.54 -3.95999 0.00987336 0
M  V30 33717 H 3133.71 -3.62186 2.84882 0
M  V30 33718 H 3132.03 -3.36832 2.44813 0
M  V30 33719 H 3134.63 -5.32608 0.472556 0
M  V30 33720 H 3134.97 -4.09977 -0.72279 0
M  V30 33721 H 3135.5 -3.86066 0.959073 0
M  V30 33722 H 3132.24 -5.60708 3.39539 0
M  V30 33723 H 3131.76 -5.75522 1.68922 0
M  V30 33724 H 3133.44 -6.09205 2.17896 0
M  V30 33725 N 3133.57 -0.579517 -1.46558 0
M  V30 33726 C 3134.5 0.143396 -2.33059 0
M  V30 33727 C 3135.48 0.886843 -1.45152 0
M  V30 33728 O 3136.67 0.862931 -1.73975 0
M  V30 33729 C 3133.8 1.15968 -3.27366 0
M  V30 33730 C 3132.75 0.531274 -4.2469 0
M  V30 33731 C 3132.08 1.65379 -5.08482 0
M  V30 33732 C 3133.38 -0.529482 -5.19609 0
M  V30 33733 H 3135.07 -0.578814 -2.93752 0
M  V30 33734 H 3132.62 -0.2798 -1.41256 0
M  V30 33735 H 3134.57 1.67375 -3.86735 0
M  V30 33736 H 3133.29 1.91212 -2.64774 0
M  V30 33737 H 3131.95 0.0383105 -3.6658 0
M  V30 33738 H 3131.6 2.39583 -4.42277 0
M  V30 33739 H 3131.3 1.23899 -5.74389 0
M  V30 33740 H 3132.83 2.17069 -5.70713 0
M  V30 33741 H 3134.24 -0.100607 -5.73212 0
M  V30 33742 H 3132.64 -0.864425 -5.93841 0
M  V30 33743 H 3133.71 -1.41699 -4.63734 0
M  V30 33744 N 3135.05 1.54376 -0.317127 0
M  V30 33745 C 3136.28 2.04567 0.289102 0
M  V30 33746 C 3136.69 1.19321 1.46831 0
M  V30 33747 O 3136.03 0.215173 1.82435 0
M  V30 33748 C 3136.09 3.50646 0.792932 0
M  V30 33749 C 3135.76 4.56242 -0.263114 0
M  V30 33750 C 3136.75 5.08194 -1.09703 0
M  V30 33751 C 3134.44 5.00628 -0.409452 0
M  V30 33752 C 3136.43 6.03089 -2.06307 0
M  V30 33753 C 3134.12 5.95339 -1.37892 0
M  V30 33754 C 3135.12 6.46455 -2.2042 0
M  V30 33755 O 3134.81 7.39307 -3.15721 0
M  V30 33756 H 3134.54 0.672927 0.0643886 0
M  V30 33757 H 3137.09 2.00195 -0.459474 0
M  V30 33758 H 3135.32 3.52395 1.59231 0
M  V30 33759 H 3137.01 3.83947 1.3168 0
M  V30 33760 H 3137.78 4.74685 -0.994925 0
M  V30 33761 H 3133.66 4.6046 0.22301 0
M  V30 33762 H 3137.2 6.4291 -2.70762 0
M  V30 33763 H 3133.1 6.28265 -1.48169 0
M  V30 33764 H 3133.87 7.57161 -3.10886 0
M  V30 33765 N 3136.53 0.0451655 1.57535 0
M  V30 33766 C 3137.48 -0.949168 2.12352 0
M  V30 33767 C 3138.47 -1.32626 1.05389 0
M  V30 33768 O 3139.68 -1.30661 1.23805 0
M  V30 33769 H 3136.05 -0.323934 0.678654 0
M  V30 33770 H 3138.02 -0.461666 2.94807 0
M  V30 33771 C 3136.77 -2.21683 2.67866 0
M  V30 33772 H 3136.09 -1.93544 3.49829 0
M  V30 33773 H 3137.53 -2.8943 3.09849 0
M  V30 33774 C 3135.99 -2.95745 1.61358 0
M  V30 33775 O 3136.52 -3.8846 1.02282 0
M  V30 33776 N 3134.73 -2.58367 1.33021 0
M  V30 33777 H 3134.28 -1.83048 1.81249 0
M  V30 33778 H 3134.23 -3.08229 0.619866 0
M  V30 33779 N 3138.01 -1.5594 -0.228159 0
M  V30 33780 C 3138.94 -1.86876 -1.30968 0
M  V30 33781 C 3139.92 -0.725522 -1.45516 0
M  V30 33782 O 3141.1 -0.973209 -1.61434 0
M  V30 33783 C 3138.23 -2.06997 -2.68086 0
M  V30 33784 C 3137.27 -3.29673 -2.70588 0
M  V30 33785 S 3138.11 -4.85791 -2.25316 0
M  V30 33786 C 3139.26 -5.0894 -3.64322 0
M  V30 33787 H 3139.5 -2.78317 -1.04531 0
M  V30 33788 H 3137.03 -1.48289 -0.430077 0
M  V30 33789 H 3138.99 -2.19273 -3.4703 0
M  V30 33790 H 3137.65 -1.16365 -2.9175 0
M  V30 33791 H 3136.84 -3.40776 -3.71332 0
M  V30 33792 H 3136.44 -3.1622 -1.99702 0
M  V30 33793 H 3138.74 -4.97433 -4.59964 0
M  V30 33794 H 3139.68 -6.10853 -3.5814 0
M  V30 33795 H 3140.09 -4.36702 -3.57704 0
M  V30 33796 N 3139.48 0.494597 -1.49638 0
M  V30 33797 C 3140.9 0.826337 -1.36542 0
M  V30 33798 C 3141.1 1.9742 -0.403421 0
M  V30 33799 O 3140.16 2.51976 0.16257 0
M  V30 33800 C 3141.47 1.16052 -2.77403 0
M  V30 33801 C 3143.02 1.26835 -2.8615 0
M  V30 33802 C 3143.49 1.63579 -4.27792 0
M  V30 33803 N 3144.98 1.70616 -4.30633 0
M  V30 33804 C 3145.72 2.00504 -5.37202 0
M  V30 33805 N 3145.21 2.28573 -6.54008 0
M  V30 33806 N 3147.01 2.01809 -5.24623 0
M  V30 33807 H 3139.16 -0.262227 -2.10775 0
M  V30 33808 H 3141.42 -0.0547401 -0.946418 0
M  V30 33809 H 3141.13 0.390373 -3.49527 0
M  V30 33810 H 3141 2.10243 -3.13173 0
M  V30 33811 H 3143.39 2.02921 -2.1426 0
M  V30 33812 H 3143.47 0.306795 -2.53954 0
M  V30 33813 H 3143.11 0.880419 -5.00211 0
M  V30 33814 H 3143.04 2.60846 -4.57457 0
M  V30 33815 H 3145.53 1.51059 -3.46395 0
M  V30 33816 H 3145.85 2.50585 -7.31045 0
M  V30 33817 H 3144.19 2.26015 -6.57223 0
M  V30 33818 H 3147.38 1.79362 -4.32374 0
M  V30 33819 H 3147.56 2.24768 -6.07769 0
M  V30 33820 N 3140.96 1.3882 0.746109 0
M  V30 33821 C 3142.37 1.31651 1.32382 0
M  V30 33822 C 3142.72 -0.0242741 1.96185 0
M  V30 33823 O 3141.85 -0.926375 1.95569 0
M  V30 33824 C 3142.44 2.38422 2.40708 0
M  V30 33825 C 3141 2.34808 2.94181 0
M  V30 33826 C 3140.15 2.20893 1.67635 0
M  V30 33827 H 3143.1 1.49069 0.54443 0
M  V30 33828 H 3143.12 2.04569 3.2083 0
M  V30 33829 H 3142.63 3.35994 1.94242 0
M  V30 33830 H 3140.74 1.4084 3.44956 0
M  V30 33831 H 3140.85 3.29237 3.48051 0
M  V30 33832 H 3139.21 1.67874 1.91547 0
M  V30 33833 H 3140 3.20418 1.23236 0
M  V30 33834 N 3142.44 -0.975103 1.23812 0
M  V30 33835 C 3143.39 -2.06841 1.02398 0
M  V30 33836 C 3144.36 -1.6599 -0.0603078 0
M  V30 33837 O 3145.54 -1.90574 0.0928522 0
M  V30 33838 C 3142.68 -3.39357 0.626941 0
M  V30 33839 C 3141.8 -3.93447 1.78392 0
M  V30 33840 C 3140.93 -5.14199 1.33316 0
M  V30 33841 C 3139.97 -5.60467 2.46055 0
M  V30 33842 N 3139.11 -6.72444 2.019 0
M  V30 33843 H 3143.95 -2.24493 1.95977 0
M  V30 33844 H 3141.48 -1.10038 0.976225 0
M  V30 33845 H 3143.44 -4.15486 0.377815 0
M  V30 33846 H 3142.07 -3.21653 -0.27185 0
M  V30 33847 H 3141.12 -3.14026 2.14691 0
M  V30 33848 H 3142.44 -4.2375 2.63129 0
M  V30 33849 H 3141.59 -5.97677 1.04247 0
M  V30 33850 H 3140.33 -4.85561 0.456228 0
M  V30 33851 H 3139.33 -4.75567 2.75892 0
M  V30 33852 H 3140.56 -5.91121 3.34294 0
M  V30 33853 H 3138.5 -6.45555 1.16594 0
M  V30 33854 H 3138.42 -7.02159 2.80194 0
M  V30 33855 H 3139.69 -7.59383 1.7595 0
M  V30 33856 N 3143.92 -1.05068 -1.17467 0
M  V30 33857 C 3144.83 -0.661262 -2.25088 0
M  V30 33858 C 3145.84 0.31709 -1.71086 0
M  V30 33859 O 3147.02 0.169498 -2.00685 0
M  V30 33860 C 3144.09 -0.0407024 -3.46676 0
M  V30 33861 C 3143.15 -1.06934 -4.15769 0
M  V30 33862 C 3142.38 -0.478301 -5.31552 0
M  V30 33863 O 3142.6 0.712615 -5.65931 0
M  V30 33864 O 3141.54 -1.21195 -5.89572 0
M  V30 33865 H 3145.36 -1.55815 -2.60683 0
M  V30 33866 H 3142.95 -0.822169 -1.24743 0
M  V30 33867 H 3144.83 0.304238 -4.203 0
M  V30 33868 H 3143.5 0.829854 -3.12882 0
M  V30 33869 H 3142.41 -1.46625 -3.44168 0
M  V30 33870 H 3143.74 -1.911 -4.53587 0
M  V30 33871 N 3145.4 1.33878 -0.831529 0
M  V30 33872 C 3146.33 2.31882 -0.274419 0
M  V30 33873 C 3147.31 1.58638 0.613844 0
M  V30 33874 O 3148.49 1.86572 0.538928 0
M  V30 33875 C 3145.62 3.42797 0.557438 0
M  V30 33876 C 3144.58 4.27358 -0.234412 0
M  V30 33877 C 3143.9 5.2982 0.720732 0
M  V30 33878 C 3145.2 5.01844 -1.4474 0
M  V30 33879 H 3146.9 2.78726 -1.09327 0
M  V30 33880 H 3144.44 1.34004 -0.52716 0
M  V30 33881 H 3146.4 4.10379 0.957429 0
M  V30 33882 H 3145.12 2.94623 1.40942 0
M  V30 33883 H 3143.78 3.6139 -0.615874 0
M  V30 33884 H 3143.43 4.77906 1.56891 0
M  V30 33885 H 3143.13 5.87276 0.195068 0
M  V30 33886 H 3144.65 6.0027 1.1184 0
M  V30 33887 H 3146.06 5.62234 -1.12097 0
M  V30 33888 H 3144.46 5.68915 -1.90933 0
M  V30 33889 H 3145.53 4.31041 -2.22107 0
M  V30 33890 N 3146.87 0.587281 1.46249 0
M  V30 33891 C 3148.12 0.0747207 2.02662 0
M  V30 33892 C 3148.45 -1.28366 1.45725 0
M  V30 33893 O 3147.73 -1.84215 0.624095 0
M  V30 33894 C 3148.01 0.0138741 3.60097 0
M  V30 33895 C 3147.86 1.40148 4.27409 0
M  V30 33896 C 3149.18 -0.684414 4.34746 0
M  V30 33897 H 3146.3 0.0286274 0.736444 0
M  V30 33898 H 3148.94 0.755358 1.7434 0
M  V30 33899 H 3147.09 -0.565763 3.84358 0
M  V30 33900 H 3148.77 2.02663 4.14398 0
M  V30 33901 H 3147.01 1.96792 3.86595 0
M  V30 33902 H 3147.68 1.31133 5.36198 0
M  V30 33903 H 3150.16 -0.19195 4.15657 0
M  V30 33904 H 3149.03 -0.696032 5.44469 0
M  V30 33905 H 3149.29 -1.74662 4.06135 0
M  V30 33906 N 3148.35 -1.54206 0.325309 0
M  V30 33907 C 3149.26 -2.28092 -0.548738 0
M  V30 33908 C 3150.28 -1.3251 -1.1277 0
M  V30 33909 O 3151.45 -1.65527 -1.14729 0
M  V30 33910 C 3148.52 -3.02565 -1.69279 0
M  V30 33911 C 3147.58 -4.13736 -1.14545 0
M  V30 33912 C 3146.81 -4.84649 -2.23498 0
M  V30 33913 O 3147.04 -4.55089 -3.43876 0
M  V30 33914 O 3145.97 -5.71517 -1.88818 0
M  V30 33915 H 3149.8 -3.03657 0.0513508 0
M  V30 33916 H 3147.38 -1.49123 0.0909421 0
M  V30 33917 H 3149.26 -3.49196 -2.35881 0
M  V30 33918 H 3147.94 -2.29874 -2.27902 0
M  V30 33919 H 3146.85 -3.7145 -0.444466 0
M  V30 33920 H 3148.18 -4.88476 -0.604324 0
M  V30 33921 N 3149.83 -0.0535194 -1.57509 0
M  V30 33922 C 3151.08 0.620657 -1.93069 0
M  V30 33923 C 3151.41 1.70356 -0.932343 0
M  V30 33924 O 3150.69 1.94456 0.0413051 0
M  V30 33925 C 3150.97 1.21457 -3.38999 0
M  V30 33926 C 3150.82 0.139571 -4.49583 0
M  V30 33927 C 3152.14 2.12552 -3.8537 0
M  V30 33928 H 3149.26 0.22415 -0.702087 0
M  V30 33929 H 3151.9 -0.115763 -1.89647 0
M  V30 33930 H 3150.05 1.8422 -3.42046 0
M  V30 33931 H 3151.72 -0.492492 -4.58664 0
M  V30 33932 H 3149.97 -0.532081 -4.30524 0
M  V30 33933 H 3150.64 0.595191 -5.48782 0
M  V30 33934 H 3153.11 1.59748 -3.84213 0
M  V30 33935 H 3151.99 2.5105 -4.88124 0
M  V30 33936 H 3152.25 3.02655 -3.22261 0
M  V30 33937 N 3151.31 1.56059 0.219886 0
M  V30 33938 C 3152.56 1.78347 0.942087 0
M  V30 33939 C 3152.87 0.622377 1.85434 0
M  V30 33940 O 3154.08 0.728932 2.61532 0
M  V30 33941 C 3152.53 3.15846 1.72538 0
M  V30 33942 C 3152.14 4.39684 0.859186 0
M  V30 33943 C 3153.89 3.47459 2.4387 0
M  V30 33944 C 3151.79 5.68208 1.63993 0
M  V30 33945 H 3150.72 0.664932 0.355502 0
M  V30 33946 H 3153.37 1.82451 0.195931 0
M  V30 33947 H 3151.76 3.05922 2.51451 0
M  V30 33948 H 3152.93 4.60668 0.110481 0
M  V30 33949 H 3151.24 4.156 0.257912 0
M  V30 33950 H 3153.84 4.40709 3.02787 0
M  V30 33951 H 3154.18 2.70036 3.16838 0
M  V30 33952 H 3154.72 3.58719 1.71946 0
M  V30 33953 H 3151.46 6.48528 0.953492 0
M  V30 33954 H 3150.98 5.51283 2.3632 0
M  V30 33955 H 3152.66 6.08442 2.20017 0
M  V30 33956 N 3152.79 -0.486655 1.49898 0
M  V30 33957 C 3153.73 -1.58655 1.67622 0
M  V30 33958 C 3154.7 -1.57831 0.517565 0
M  V30 33959 O 3155.89 -1.75599 0.746303 0
M  V30 33960 C 3153.03 -2.96725 1.76206 0
M  V30 33961 C 3152.14 -3.07456 3.03471 0
M  V30 33962 C 3151.28 -4.36346 3.02945 0
M  V30 33963 C 3150.32 -4.40763 4.24729 0
M  V30 33964 N 3149.45 -5.61101 4.22031 0
M  V30 33965 H 3154.29 -1.42848 2.61531 0
M  V30 33966 H 3151.83 -0.694784 1.29658 0
M  V30 33967 H 3153.79 -3.76771 1.79163 0
M  V30 33968 H 3152.42 -3.11202 0.857507 0
M  V30 33969 H 3151.47 -2.20382 3.10058 0
M  V30 33970 H 3152.78 -3.06579 3.9346 0
M  V30 33971 H 3151.94 -5.24726 3.04545 0
M  V30 33972 H 3150.68 -4.39809 2.10759 0
M  V30 33973 H 3149.68 -3.50782 4.23358 0
M  V30 33974 H 3150.91 -4.39004 5.18124 0
M  V30 33975 H 3148.85 -5.65379 3.3269 0
M  V30 33976 H 3148.77 -5.619 5.05771 0
M  V30 33977 H 3150.04 -6.51649 4.27755 0
M  V30 33978 N 3154.27 -1.39214 -0.738737 0
M  V30 33979 C 3155.21 -1.37635 -1.85271 0
M  V30 33980 C 3156.18 -0.236601 -1.64406 0
M  V30 33981 O 3157.37 -0.431136 -1.85865 0
M  V30 33982 C 3154.51 -1.22193 -3.22743 0
M  V30 33983 C 3153.62 -2.45681 -3.55338 0
M  V30 33984 C 3152.76 -2.22856 -4.82192 0
M  V30 33985 C 3151.79 -3.42038 -5.07619 0
M  V30 33986 N 3150.93 -3.18554 -6.25674 0
M  V30 33987 H 3155.77 -2.32862 -1.85955 0
M  V30 33988 H 3153.31 -1.15677 -0.908696 0
M  V30 33989 H 3155.27 -1.11253 -4.02093 0
M  V30 33990 H 3153.9 -0.305977 -3.21347 0
M  V30 33991 H 3152.95 -2.67238 -2.70717 0
M  V30 33992 H 3154.26 -3.34463 -3.70048 0
M  V30 33993 H 3153.41 -2.09136 -5.69515 0
M  V30 33994 H 3152.15 -1.31462 -4.69648 0
M  V30 33995 H 3151.16 -3.5626 -4.18759 0
M  V30 33996 H 3152.38 -4.34328 -5.2205 0
M  V30 33997 H 3150.33 -2.29821 -6.14425 0
M  V30 33998 H 3150.25 -4.00892 -6.40954 0
M  V30 33999 H 3151.51 -3.0852 -7.15846 0
M  V30 34000 N 3155.74 0.968523 -1.24328 0
M  V30 34001 C 3156.71 2.04452 -1.03595 0
M  V30 34002 C 3157.71 1.60799 0.00645263 0
M  V30 34003 O 3158.9 1.72615 -0.234434 0
M  V30 34004 C 3156.03 3.36101 -0.569979 0
M  V30 34005 H 3157.22 2.24279 -1.99096 0
M  V30 34006 H 3154.77 1.14364 -1.06539 0
M  V30 34007 H 3155.51 3.21967 0.388268 0
M  V30 34008 H 3155.29 3.6913 -1.32233 0
M  V30 34009 H 3156.78 4.15212 -0.445927 0
M  V30 34010 N 3157.22 1.0569 1.16908 0
M  V30 34011 C 3158.45 0.789372 1.90925 0
M  V30 34012 C 3158.86 -0.659338 1.7734 0
M  V30 34013 O 3158.2 -1.46258 1.11149 0
M  V30 34014 C 3158.26 1.09683 3.42359 0
M  V30 34015 C 3157.93 2.54273 3.79729 0
M  V30 34016 C 3158.93 3.52494 3.82157 0
M  V30 34017 C 3156.61 2.89414 4.10542 0
M  V30 34018 C 3158.6 4.83898 4.14876 0
M  V30 34019 C 3156.29 4.21019 4.42929 0
M  V30 34020 C 3157.29 5.18071 4.45074 0
M  V30 34021 O 3156.98 6.47315 4.76695 0
M  V30 34022 H 3156.71 0.286126 0.612461 0
M  V30 34023 H 3159.26 1.41213 1.49158 0
M  V30 34024 H 3157.49 0.416992 3.84445 0
M  V30 34025 H 3159.18 0.814526 3.97643 0
M  V30 34026 H 3159.95 3.26687 3.5847 0
M  V30 34027 H 3155.83 2.14532 4.08041 0
M  V30 34028 H 3159.37 5.59645 4.16465 0
M  V30 34029 H 3155.27 4.46587 4.6608 0
M  V30 34030 H 3156.04 6.52212 4.94532 0
M  V30 34031 N 3158.7 -1.33435 0.838617 0
M  V30 34032 C 3159.63 -2.27169 0.216691 0
M  V30 34033 C 3160.61 -1.49644 -0.636039 0
M  V30 34034 O 3161.79 -1.78818 -0.596357 0
M  V30 34035 C 3158.92 -3.31476 -0.695782 0
M  V30 34036 C 3157.97 -4.26422 0.0814557 0
M  V30 34037 S 3158.8 -5.15798 1.43918 0
M  V30 34038 C 3159.96 -6.23635 0.531997 0
M  V30 34039 H 3160.19 -2.7957 1.01133 0
M  V30 34040 H 3157.72 -1.40722 0.635357 0
M  V30 34041 H 3159.68 -3.92056 -1.21664 0
M  V30 34042 H 3158.34 -2.77891 -1.46408 0
M  V30 34043 H 3157.53 -5.0026 -0.612857 0
M  V30 34044 H 3157.14 -3.70177 0.533369 0
M  V30 34045 H 3159.43 -6.76961 -0.270252 0
M  V30 34046 H 3160.37 -6.97149 1.24053 0
M  V30 34047 H 3160.78 -5.64386 0.113456 0
M  V30 34048 N 3160.18 -0.595029 -1.45935 0
M  V30 34049 C 3161.11 0.169096 -2.28575 0
M  V30 34050 C 3162.12 0.843767 -1.39228 0
M  V30 34051 O 3163.31 0.711262 -1.63717 0
M  V30 34052 C 3160.41 1.2597 -3.14618 0
M  V30 34053 C 3159.58 0.674584 -4.32167 0
M  V30 34054 C 3158.64 1.65447 -4.99514 0
M  V30 34055 O 3157.67 1.18568 -5.56714 0
M  V30 34056 N 3158.87 2.98876 -4.97648 0
M  V30 34057 H 3161.64 -0.53996 -2.94796 0
M  V30 34058 H 3159.2 -0.433642 -1.55984 0
M  V30 34059 H 3161.19 1.91477 -3.56537 0
M  V30 34060 H 3159.76 1.87145 -2.5039 0
M  V30 34061 H 3158.98 -0.158253 -3.93882 0
M  V30 34062 H 3160.27 0.263663 -5.08116 0
M  V30 34063 H 3159.67 3.39575 -4.52444 0
M  V30 34064 H 3158.22 3.59839 -5.4347 0
M  V30 34065 N 3161.66 1.54031 -0.333483 0
M  V30 34066 C 3162.9 2.00348 0.265572 0
M  V30 34067 C 3163.22 1.22312 1.51871 0
M  V30 34068 O 3162.49 0.327583 1.93142 0
M  V30 34069 H 3161.07 0.740124 0.101122 0
M  V30 34070 H 3163.74 1.89579 -0.452318 0
M  V30 34071 H 3162.83 3.07821 0.515056 0
M  V30 34072 N 3163.13 0.0618717 1.57479 0
M  V30 34073 C 3164.04 -0.923788 2.15646 0
M  V30 34074 C 3165.06 -1.33411 1.11703 0
M  V30 34075 O 3166.24 -1.40884 1.43922 0
M  V30 34076 C 3163.3 -2.1766 2.69861 0
M  V30 34077 C 3162.36 -1.82363 3.88642 0
M  V30 34078 C 3161.59 -3.01672 4.40261 0
M  V30 34079 O 3161.82 -4.15381 3.90916 0
M  V30 34080 O 3160.75 -2.82064 5.31717 0
M  V30 34081 H 3164.58 -0.459042 3.00211 0
M  V30 34082 H 3162.16 -0.160639 1.48534 0
M  V30 34083 H 3164.04 -2.91145 3.04652 0
M  V30 34084 H 3162.72 -2.63252 1.88362 0
M  V30 34085 H 3161.63 -1.06161 3.58721 0
M  V30 34086 H 3162.96 -1.41562 4.71403 0
M  V30 34087 N 3164.61 -1.56173 -0.211607 0
M  V30 34088 C 3165.86 -1.79913 -0.935903 0
M  V30 34089 C 3166.19 -0.633188 -1.83588 0
M  V30 34090 O 3165.47 0.367099 -1.91004 0
M  V30 34091 C 3165.75 -3.13804 -1.76633 0
M  V30 34092 C 3165.6 -4.40863 -0.892181 0
M  V30 34093 C 3166.92 -3.44228 -2.74218 0
M  V30 34094 H 3164.04 -0.654505 -0.33881 0
M  V30 34095 H 3166.68 -1.889 -0.204187 0
M  V30 34096 H 3164.83 -3.06274 -2.39016 0
M  V30 34097 H 3166.5 -4.60423 -0.284326 0
M  V30 34098 H 3164.75 -4.33348 -0.198069 0
M  V30 34099 H 3165.42 -5.31007 -1.50783 0
M  V30 34100 H 3167.89 -3.5195 -2.21969 0
M  V30 34101 H 3166.77 -4.39063 -3.29416 0
M  V30 34102 H 3167.03 -2.66891 -3.52451 0
M  V30 34103 N 3166.09 0.478699 -1.50154 0
M  V30 34104 C 3167 1.60361 -1.71235 0
M  V30 34105 C 3168.02 1.635 -0.595298 0
M  V30 34106 O 3169.19 1.81509 -0.872715 0
M  V30 34107 C 3166.26 2.9662 -1.79492 0
M  V30 34108 C 3165.32 3.03931 -3.0319 0
M  V30 34109 C 3164.55 4.33691 -3.11044 0
M  V30 34110 O 3164.77 5.23765 -2.25889 0
M  V30 34111 O 3163.71 4.46436 -4.03706 0
M  V30 34112 H 3167.53 1.455 -2.66577 0
M  V30 34113 H 3165.12 0.657387 -1.3416 0
M  V30 34114 H 3167 3.77563 -1.87147 0
M  V30 34115 H 3165.68 3.11697 -0.873319 0
M  V30 34116 H 3164.58 2.22094 -3.0104 0
M  V30 34117 H 3165.92 2.93789 -3.94904 0
M  V30 34118 N 3167.57 1.39603 0.731343 0
M  V30 34119 C 3168.82 1.37026 1.49098 0
M  V30 34120 C 3169.14 -0.0326082 1.94473 0
M  V30 34121 O 3168.4 -1.01415 1.67372 0
M  V30 34122 C 3168.7 2.29212 2.7422 0
M  V30 34123 C 3168.36 3.76775 2.47693 0
M  V30 34124 C 3167.03 4.16981 2.40168 0
M  V30 34125 C 3169.38 4.7009 2.25089 0
M  V30 34126 C 3166.71 5.48559 2.08086 0
M  V30 34127 C 3169.06 6.0195 1.94523 0
M  V30 34128 C 3167.72 6.41216 1.85469 0
M  V30 34129 H 3166.99 0.501414 0.545586 0
M  V30 34130 H 3169.64 1.72138 0.839096 0
M  V30 34131 H 3167.94 1.87231 3.44168 0
M  V30 34132 H 3169.64 2.2451 3.3226 0
M  V30 34133 H 3166.23 3.44911 2.5443 0
M  V30 34134 H 3170.41 4.39857 2.29868 0
M  V30 34135 H 3165.67 5.77901 1.99601 0
M  V30 34136 H 3169.84 6.73782 1.76043 0
M  V30 34137 H 3167.47 7.43091 1.60376 0
M  V30 34138 N 3169.05 -0.961916 1.2484 0
M  V30 34139 C 3169.96 -2.09131 1.06308 0
M  V30 34140 C 3170.97 -1.74 0.00224534 0
M  V30 34141 O 3172.15 -2.00388 0.201646 0
M  V30 34142 C 3169.21 -3.40042 0.676177 0
M  V30 34143 C 3168.27 -3.89086 1.81414 0
M  V30 34144 C 3167.51 -5.13749 1.4456 0
M  V30 34145 O 3167.73 -5.69398 0.337994 0
M  V30 34146 O 3166.66 -5.57321 2.27326 0
M  V30 34147 H 3170.49 -2.27663 2.01005 0
M  V30 34148 H 3168.08 -1.07537 1.03712 0
M  V30 34149 H 3169.96 -4.18746 0.472198 0
M  V30 34150 H 3168.63 -3.22797 -0.24161 0
M  V30 34151 H 3167.54 -3.11418 2.07292 0
M  V30 34152 H 3168.87 -4.10817 2.71091 0
M  V30 34153 N 3170.52 -1.06308 -1.16346 0
M  V30 34154 C 3171.8 -0.693342 -1.82899 0
M  V30 34155 C 3172.18 0.825276 -1.943 0
M  V30 34156 O 3171.53 1.73562 -1.48622 0
M  V30 34157 C 3171.74 -1.39546 -3.19888 0
M  V30 34158 C 3173.09 -1.54075 -3.95659 0
M  V30 34159 O 3174.11 -1.35537 -3.29406 0
M  V30 34160 O 3172.97 -1.84488 -5.14418 0
M  V30 34161 H 3170.06 -0.245459 -0.789733 0
M  V30 34162 H 3172.61 -1.16336 -1.23547 0
M  V30 34163 H 3171.38 -2.43098 -3.06625 0
M  V30 34164 H 3171.01 -0.915521 -3.86916 0
M  V30 34165 N 3172 1.32989 -0.845682 0
M  V30 34166 C 3173.25 1.97167 -0.443809 0
M  V30 34167 C 3173.57 1.67294 1.00189 0
M  V30 34168 O 3172.84 0.975427 1.69889 0
M  V30 34169 H 3171.42 0.729416 -0.161124 0
M  V30 34170 H 3174.08 1.62231 -1.08014 0
M  V30 34171 H 3173.18 3.06636 -0.581467 0
M  V30 34172 N 3173.48 0.60276 1.45618 0
M  V30 34173 C 3174.39 -0.120861 2.34288 0
M  V30 34174 C 3175.41 -0.865388 1.50954 0
M  V30 34175 O 3176.58 -0.824062 1.83769 0
M  V30 34176 C 3173.65 -1.10882 3.28491 0
M  V30 34177 C 3172.71 -0.366778 4.2773 0
M  V30 34178 C 3171.94 -1.30767 5.17432 0
M  V30 34179 O 3172.16 -2.54526 5.10463 0
M  V30 34180 O 3171.1 -0.807359 5.96461 0
M  V30 34181 H 3174.92 0.607702 2.97558 0
M  V30 34182 H 3172.51 0.363045 1.44922 0
M  V30 34183 H 3174.39 -1.67796 3.86552 0
M  V30 34184 H 3173.07 -1.81849 2.67792 0
M  V30 34185 H 3171.97 0.244709 3.73299 0
M  V30 34186 H 3173.31 0.302313 4.91271 0
M  V30 34187 N 3174.96 -1.53852 0.341647 0
M  V30 34188 C 3175.91 -2.26449 -0.531372 0
M  V30 34189 C 3176.9 -1.28523 -1.10354 0
M  V30 34190 O 3178.11 -1.46238 -1.0495 0
M  V30 34191 H 3174.48 -0.727591 -0.190041 0
M  V30 34192 H 3176.45 -2.98222 0.102974 0
M  V30 34193 C 3175.2 -3.04888 -1.67149 0
M  V30 34194 H 3174.52 -3.80068 -1.24049 0
M  V30 34195 H 3175.96 -3.58901 -2.25756 0
M  V30 34196 C 3174.42 -2.14271 -2.5998 0
M  V30 34197 O 3174.95 -1.73753 -3.62178 0
M  V30 34198 N 3173.16 -1.79389 -2.28622 0
M  V30 34199 H 3172.71 -2.12536 -1.45555 0
M  V30 34200 H 3172.66 -1.1904 -2.90993 0
M  V30 34201 N 3176.44 -0.0702223 -1.57443 0
M  V30 34202 C 3177.68 0.598073 -1.93048 0
M  V30 34203 C 3178.01 1.70245 -0.950871 0
M  V30 34204 O 3177.28 1.959 0.00123733 0
M  V30 34205 H 3175.86 0.223911 -0.712652 0
M  V30 34206 H 3178.52 -0.127708 -1.94481 0
M  V30 34207 H 3177.61 1.0244 -2.94809 0
M  V30 34208 N 3177.91 1.56283 0.203321 0
M  V30 34209 C 3178.82 1.97082 1.27263 0
M  V30 34210 C 3179.84 0.877262 1.50267 0
M  V30 34211 O 3181.02 1.18234 1.63042 0
M  V30 34212 C 3178.08 2.295 2.59867 0
M  V30 34213 C 3177.14 3.5252 2.45006 0
M  V30 34214 C 3176.38 3.83382 3.71287 0
M  V30 34215 O 3176.6 3.15652 4.751 0
M  V30 34216 O 3175.53 4.76832 3.67307 0
M  V30 34217 H 3179.36 2.88247 0.95641 0
M  V30 34218 H 3176.94 1.43731 0.407663 0
M  V30 34219 H 3178.83 2.51464 3.38148 0
M  V30 34220 H 3177.5 1.41505 2.91132 0
M  V30 34221 H 3176.41 3.35814 1.64864 0
M  V30 34222 H 3177.74 4.40956 2.18675 0
M  V30 34223 N 3179.39 -0.470729 1.50406 0
M  V30 34224 C 3180.67 -1.23192 1.51931 0
M  V30 34225 C 3181.05 -2.0944 0.264196 0
M  V30 34226 O 3180.4 -2.15759 -0.752357 0
M  V30 34227 C 3180.61 -2.06264 2.81525 0
M  V30 34228 C 3181.96 -2.6444 3.32199 0
M  V30 34229 O 3182.98 -2.16506 2.82849 0
M  V30 34230 O 3181.84 -3.51779 4.18227 0
M  V30 34231 H 3178.93 -0.559049 0.609421 0
M  V30 34232 H 3181.48 -0.482521 1.62696 0
M  V30 34233 H 3180.25 -1.42709 3.64349 0
M  V30 34234 H 3179.87 -2.88337 2.73766 0
M  V30 34235 N 3180.87 -1.39989 -0.72393 0
M  V30 34236 C 3182.12 -1.37543 -1.48076 0
M  V30 34237 C 3182.44 0.0243015 -1.94985 0
M  V30 34238 O 3181.71 0.977572 -1.69766 0
M  V30 34239 H 3180.29 -0.506191 -0.549345 0
M  V30 34240 H 3182.95 -1.74963 -0.858715 0
M  V30 34241 H 3182.05 -2.04509 -2.35759 0
M  V30 34242 N 3182.35 0.955282 -1.25348 0
M  V30 34243 C 3183.31 2.03342 -1.05757 0
M  V30 34244 C 3184.31 1.60797 -0.0106026 0
M  V30 34245 O 3185.5 1.72357 -0.252729 0
M  V30 34246 C 3182.63 3.35478 -0.605595 0
M  V30 34247 H 3183.83 2.22154 -2.01463 0
M  V30 34248 H 3181.38 1.13228 -1.07746 0
M  V30 34249 H 3182.12 3.22361 0.354097 0
M  V30 34250 H 3181.9 3.67707 -1.36141 0
M  V30 34251 H 3183.39 4.14716 -0.48994 0
M  V30 34252 N 3183.83 1.06924 1.1578 0
M  V30 34253 C 3184.79 0.689693 2.18577 0
M  V30 34254 C 3185.79 -0.267844 1.58554 0
M  V30 34255 O 3186.98 -0.049379 1.7413 0
M  V30 34256 C 3184.11 0.0158519 3.40896 0
M  V30 34257 H 3185.31 1.59976 2.53669 0
M  V30 34258 H 3182.86 0.865237 1.30167 0
M  V30 34259 H 3183.59 -0.906657 3.11368 0
M  V30 34260 H 3183.38 0.704482 3.85719 0
M  V30 34261 H 3184.87 -0.235193 4.16937 0
M  V30 34262 N 3185.31 -1.32538 0.852723 0
M  V30 34263 C 3186.53 -2.02046 0.468192 0
M  V30 34264 C 3186.96 -1.63675 -0.926939 0
M  V30 34265 O 3186.31 -0.836406 -1.60854 0
M  V30 34266 C 3186.36 -3.55359 0.612582 0
M  V30 34267 O 3185.47 -4.10865 -0.355434 0
M  V30 34268 H 3184.81 -0.636708 0.188412 0
M  V30 34269 H 3187.34 -1.69128 1.15138 0
M  V30 34270 H 3187.35 -4.04932 0.499386 0
M  V30 34271 H 3186.02 -3.8263 1.62995 0
M  V30 34272 H 3184.6 -3.72371 -0.198638 0
M  V30 34273 N 3186.78 -0.610474 -1.45296 0
M  V30 34274 C 3188.19 -0.19152 -1.85715 0
M  V30 34275 C 3188.55 1.25227 -1.51039 0
M  V30 34276 O 3187.67 1.94992 -0.938457 0
M  V30 34277 C 3188.27 -0.340807 -3.37082 0
M  V30 34278 C 3186.82 0.0234771 -3.76393 0
M  V30 34279 C 3185.97 -0.663896 -2.69235 0
M  V30 34280 H 3188.92 -0.816972 -1.36056 0
M  V30 34281 H 3188.94 0.426167 -3.78106 0
M  V30 34282 H 3188.46 -1.39171 -3.62289 0
M  V30 34283 H 3186.56 1.07344 -3.56802 0
M  V30 34284 H 3186.67 -0.372186 -4.77652 0
M  V30 34285 H 3185.03 -0.101249 -2.54499 0
M  V30 34286 H 3185.82 -1.71699 -2.97278 0
M  V30 34287 N 3188.26 1.53669 -0.349801 0
M  V30 34288 C 3189.68 1.596 0.00188487 0
M  V30 34289 C 3189.88 1.36554 1.48173 0
M  V30 34290 O 3188.93 1.16289 2.24127 0
M  V30 34291 C 3190.25 2.97465 -0.4399 0
M  V30 34292 C 3191.79 3.10526 -0.392775 0
M  V30 34293 C 3192.27 4.50778 -0.810126 0
M  V30 34294 N 3193.76 4.56847 -0.764559 0
M  V30 34295 C 3194.5 5.63529 -1.05937 0
M  V30 34296 N 3193.99 6.78036 -1.42265 0
M  V30 34297 N 3195.78 5.53434 -0.983195 0
M  V30 34298 H 3187.94 1.66902 -1.31367 0
M  V30 34299 H 3190.2 0.78198 -0.535922 0
M  V30 34300 H 3189.9 3.19416 -1.47195 0
M  V30 34301 H 3189.78 3.76762 0.181668 0
M  V30 34302 H 3192.17 2.88294 0.63011 0
M  V30 34303 H 3192.25 2.33273 -1.04963 0
M  V30 34304 H 3191.89 4.73746 -1.83105 0
M  V30 34305 H 3191.82 5.26438 -0.130683 0
M  V30 34306 H 3194.31 3.74622 -0.496703 0
M  V30 34307 H 3194.62 7.55365 -1.63228 0
M  V30 34308 H 3192.97 6.79467 -1.46116 0
M  V30 34309 H 3196.16 4.62856 -0.698682 0
M  V30 34310 H 3196.33 6.36483 -1.21629 0
M  V30 34311 N 3189.74 0.0785709 1.57404 0
M  V30 34312 C 3190.69 -0.903911 2.14318 0
M  V30 34313 C 3191.68 -1.30361 1.08178 0
M  V30 34314 O 3192.89 -1.28006 1.26548 0
M  V30 34315 H 3189.26 -0.309465 0.685372 0
M  V30 34316 H 3191.23 -0.399029 2.9572 0
M  V30 34317 C 3189.98 -2.15951 2.72508 0
M  V30 34318 H 3189.31 -1.8608 3.53856 0
M  V30 34319 H 3190.75 -2.82792 3.15919 0
M  V30 34320 C 3189.2 -2.92256 1.67595 0
M  V30 34321 O 3189.73 -3.86203 1.10499 0
M  V30 34322 N 3187.94 -2.55488 1.38471 0
M  V30 34323 H 3187.49 -1.79162 1.85091 0
M  V30 34324 H 3187.45 -3.06845 0.685106 0
M  V30 34325 N 3191.22 -1.56389 -0.19503 0
M  V30 34326 C 3192.46 -1.80896 -0.916768 0
M  V30 34327 C 3192.8 -0.652624 -1.82906 0
M  V30 34328 O 3192.07 0.346819 -1.91383 0
M  V30 34329 C 3192.35 -3.1566 -1.73294 0
M  V30 34330 C 3192.21 -4.41784 -0.845372 0
M  V30 34331 C 3193.53 -3.47117 -2.70551 0
M  V30 34332 H 3190.65 -0.658062 -0.331849 0
M  V30 34333 H 3193.29 -1.89106 -0.18414 0
M  V30 34334 H 3191.44 -3.08792 -2.35754 0
M  V30 34335 H 3193.11 -4.60699 -0.235476 0
M  V30 34336 H 3191.35 -4.33533 -0.152095 0
M  V30 34337 H 3192.02 -5.32576 -1.45143 0
M  V30 34338 H 3194.5 -3.54285 -2.18223 0
M  V30 34339 H 3193.38 -4.42532 -3.24741 0
M  V30 34340 H 3193.64 -2.70614 -3.496 0
M  V30 34341 N 3192.7 0.462746 -1.50653 0
M  V30 34342 C 3193.94 1.21181 -1.61739 0
M  V30 34343 C 3194.26 1.92294 -0.323724 0
M  V30 34344 O 3193.53 1.84475 0.659237 0
M  V30 34345 H 3192.11 0.450295 -0.596023 0
M  V30 34346 H 3194.78 0.533018 -1.8747 0
M  V30 34347 H 3193.87 1.9552 -2.43266 0
M  V30 34348 N 3194.17 1.40371 0.716495 0
M  V30 34349 C 3195.12 1.37044 1.82217 0
M  V30 34350 C 3196.11 0.248144 1.58975 0
M  V30 34351 O 3197.3 0.487177 1.70163 0
M  V30 34352 C 3194.43 1.23451 3.20335 0
M  V30 34353 C 3193.52 2.40458 3.49343 0
M  V30 34354 N 3193.91 3.6594 3.49173 0
M  V30 34355 C 3192.2 2.33818 3.79796 0
M  V30 34356 C 3192.91 4.43423 3.76498 0
M  V30 34357 N 3191.88 3.73251 3.95202 0
M  V30 34358 H 3195.68 2.32006 1.80417 0
M  V30 34359 H 3193.2 1.3413 0.915579 0
M  V30 34360 H 3195.19 1.1915 3.99511 0
M  V30 34361 H 3193.85 0.294554 3.23361 0
M  V30 34362 H 3194.87 3.99113 3.30044 0
M  V30 34363 H 3191.54 1.48184 3.90318 0
M  V30 34364 H 3192.93 5.52274 3.82679 0
M  V30 34365 N 3195.65 -0.948621 1.25853 0
M  V30 34366 C 3196.6 -2.06754 1.06562 0
M  V30 34367 C 3197.59 -1.69399 -0.00525654 0
M  V30 34368 O 3198.8 -1.79367 0.150837 0
M  V30 34369 H 3195.18 -0.676843 0.327701 0
M  V30 34370 H 3197.15 -2.20178 2.01405 0
M  V30 34371 C 3195.9 -3.40427 0.707452 0
M  V30 34372 H 3195.22 -3.69642 1.52331 0
M  V30 34373 H 3196.66 -4.19557 0.612216 0
M  V30 34374 C 3195.12 -3.31748 -0.586912 0
M  V30 34375 O 3195.65 -3.67261 -1.62734 0
M  V30 34376 N 3193.85 -2.84859 -0.574778 0
M  V30 34377 H 3193.4 -2.56157 0.272281 0
M  V30 34378 H 3193.36 -2.79435 -1.44096 0
M  V30 34379 N 3197.13 -1.07536 -1.15212 0
M  V30 34380 C 3198.38 -0.794649 -1.85387 0
M  V30 34381 C 3198.69 0.681806 -1.83332 0
M  V30 34382 O 3199.9 1.07736 -2.49209 0
M  V30 34383 C 3198.35 -1.37147 -3.32744 0
M  V30 34384 C 3197.96 -2.87908 -3.43239 0
M  V30 34385 C 3199.71 -1.16886 -4.08091 0
M  V30 34386 C 3197.61 -3.38771 -4.84756 0
M  V30 34387 H 3196.54 -0.293589 -0.694494 0
M  V30 34388 H 3199.19 -1.29566 -1.29941 0
M  V30 34389 H 3197.58 -0.798189 -3.87872 0
M  V30 34390 H 3198.75 -3.51296 -2.98208 0
M  V30 34391 H 3197.07 -3.0698 -2.8134 0
M  V30 34392 H 3199.66 -1.52362 -5.12533 0
M  V30 34393 H 3200.01 -0.108031 -4.1616 0
M  V30 34394 H 3200.54 -1.7086 -3.59238 0
M  V30 34395 H 3197.28 -4.44388 -4.81871 0
M  V30 34396 H 3196.8 -2.80137 -5.30361 0
M  V30 34397 H 3198.48 -3.34837 -5.53618 0
M  V30 34398 N 3198.61 1.32084 -0.85974 0
M  V30 34399 C 3199.84 2.00969 -0.479063 0
M  V30 34400 C 3200.25 1.64753 0.930213 0
M  V30 34401 O 3199.59 0.867465 1.61928 0
M  V30 34402 C 3199.65 3.55355 -0.544372 0
M  V30 34403 C 3199.32 4.15014 -1.91344 0
M  V30 34404 C 3200.31 4.32869 -2.87959 0
M  V30 34405 C 3198 4.50973 -2.21197 0
M  V30 34406 C 3199.99 4.8586 -4.12576 0
M  V30 34407 C 3197.68 5.03668 -3.46066 0
M  V30 34408 C 3198.68 5.21061 -4.41571 0
M  V30 34409 O 3198.36 5.72628 -5.64228 0
M  V30 34410 H 3198.1 0.649858 -0.186173 0
M  V30 34411 H 3200.65 1.69523 -1.15979 0
M  V30 34412 H 3198.88 3.86217 0.193232 0
M  V30 34413 H 3200.57 4.05507 -0.178577 0
M  V30 34414 H 3201.34 4.05416 -2.66201 0
M  V30 34415 H 3197.21 4.36718 -1.47642 0
M  V30 34416 H 3200.76 4.99351 -4.87129 0
M  V30 34417 H 3196.66 5.30554 -3.67672 0
M  V30 34418 H 3197.42 5.91013 -5.66256 0
M  V30 34419 N 3200.09 0.618171 1.4497 0
M  V30 34420 C 3201.34 0.11504 2.01372 0
M  V30 34421 C 3201.65 -1.26597 1.49106 0
M  V30 34422 O 3202.85 -1.8624 1.97552 0
M  V30 34423 C 3201.31 0.154946 3.59566 0
M  V30 34424 C 3200.92 1.53646 4.20829 0
M  V30 34425 C 3202.66 -0.292393 4.23492 0
M  V30 34426 C 3200.57 1.53218 5.71208 0
M  V30 34427 H 3199.5 0.03924 0.752978 0
M  V30 34428 H 3202.15 0.775061 1.66328 0
M  V30 34429 H 3200.53 -0.571932 3.91848 0
M  V30 34430 H 3201.71 2.28589 4.00105 0
M  V30 34431 H 3200.02 1.92678 3.6914 0
M  V30 34432 H 3202.62 -0.314938 5.33772 0
M  V30 34433 H 3202.96 -1.31718 3.94913 0
M  V30 34434 H 3203.49 0.381563 3.95966 0
M  V30 34435 H 3200.23 2.53491 6.04502 0
M  V30 34436 H 3199.75 0.825491 5.94092 0
M  V30 34437 H 3201.43 1.26043 6.34604 0
M  V30 34438 N 3201.56 -1.53481 0.357946 0
M  V30 34439 C 3202.49 -2.28425 -0.484191 0
M  V30 34440 C 3203.48 -1.3055 -1.09044 0
M  V30 34441 O 3204.66 -1.59411 -1.10913 0
M  V30 34442 C 3201.79 -3.0678 -1.62798 0
M  V30 34443 C 3200.74 -4.12279 -1.14935 0
M  V30 34444 C 3200.07 -4.78673 -2.38278 0
M  V30 34445 C 3201.37 -5.2175 -0.239535 0
M  V30 34446 H 3203.06 -2.99068 0.141032 0
M  V30 34447 H 3200.61 -1.43833 0.0692693 0
M  V30 34448 H 3202.56 -3.57953 -2.22368 0
M  V30 34449 H 3201.29 -2.33814 -2.28032 0
M  V30 34450 H 3199.95 -3.62041 -0.576378 0
M  V30 34451 H 3199.59 -4.02286 -3.01952 0
M  V30 34452 H 3199.29 -5.49958 -2.06929 0
M  V30 34453 H 3200.82 -5.32636 -2.98549 0
M  V30 34454 H 3202.23 -5.68472 -0.742497 0
M  V30 34455 H 3200.63 -6.00098 -0.0172692 0
M  V30 34456 H 3201.7 -4.79519 0.720417 0
M  V30 34457 N 3203.04 -0.0869173 -1.5736 0
M  V30 34458 C 3204.01 0.860402 -2.12438 0
M  V30 34459 C 3205.01 1.21632 -1.05177 0
M  V30 34460 O 3206.2 1.1471 -1.311 0
M  V30 34461 C 3203.33 2.15895 -2.63822 0
M  V30 34462 H 3204.52 0.382293 -2.97453 0
M  V30 34463 H 3202.07 0.161981 -1.55458 0
M  V30 34464 H 3202.81 2.68209 -1.82303 0
M  V30 34465 H 3202.59 1.91353 -3.42237 0
M  V30 34466 H 3204.08 2.8368 -3.06457 0
M  V30 34467 N 3204.52 1.5649 0.186734 0
M  V30 34468 C 3205.47 1.91612 1.23566 0
M  V30 34469 C 3206.45 0.782711 1.40579 0
M  V30 34470 O 3207.65 1.04569 1.42809 0
M  V30 34471 C 3204.78 2.26633 2.57861 0
M  V30 34472 C 3203.86 3.46451 2.44607 0
M  V30 34473 N 3204.25 4.64128 2.01044 0
M  V30 34474 C 3202.55 3.50754 2.75477 0
M  V30 34475 C 3203.25 5.4628 1.99882 0
M  V30 34476 N 3202.23 4.86909 2.41703 0
M  V30 34477 H 3206.03 2.80091 0.89031 0
M  V30 34478 H 3203.54 1.5752 0.395117 0
M  V30 34479 H 3205.54 2.49983 3.33637 0
M  V30 34480 H 3204.2 1.39486 2.93213 0
M  V30 34481 H 3205.21 4.88637 1.71621 0
M  V30 34482 H 3201.89 2.74045 3.14969 0
M  V30 34483 H 3203.28 6.5055 1.6803 0
M  V30 34484 N 3206 -0.45475 1.50897 0
M  V30 34485 C 3206.93 -1.56852 1.67123 0
M  V30 34486 C 3207.94 -1.53147 0.55225 0
M  V30 34487 O 3209.13 -1.58239 0.825997 0
M  V30 34488 C 3206.23 -2.95759 1.65469 0
M  V30 34489 C 3205.41 -3.24158 2.93668 0
M  V30 34490 C 3204.46 -4.42699 2.84436 0
M  V30 34491 O 3203.49 -4.42205 3.5839 0
M  V30 34492 N 3204.69 -5.45288 1.991 0
M  V30 34493 H 3207.46 -1.43344 2.63197 0
M  V30 34494 H 3205.02 -0.643431 1.48565 0
M  V30 34495 H 3207.01 -3.73054 1.56884 0
M  V30 34496 H 3205.58 -3.02952 0.770621 0
M  V30 34497 H 3204.8 -2.35322 3.16255 0
M  V30 34498 H 3206.09 -3.39951 3.78564 0
M  V30 34499 H 3205.49 -5.48519 1.38359 0
M  V30 34500 H 3204.04 -6.21504 1.96407 0
M  V30 34501 N 3207.48 -1.40749 -0.709041 0
M  V30 34502 C 3208.41 -1.44293 -1.8358 0
M  V30 34503 C 3209.39 -0.303096 -1.67378 0
M  V30 34504 O 3210.57 -0.512645 -1.87311 0
M  V30 34505 C 3207.7 -1.31121 -3.21597 0
M  V30 34506 C 3206.66 -2.42776 -3.52482 0
M  V30 34507 C 3205.98 -2.14677 -4.89712 0
M  V30 34508 C 3207.28 -3.8512 -3.52817 0
M  V30 34509 H 3208.98 -2.38591 -1.80871 0
M  V30 34510 H 3206.52 -1.1484 -0.868775 0
M  V30 34511 H 3208.48 -1.32216 -4.00121 0
M  V30 34512 H 3207.2 -0.333022 -3.24898 0
M  V30 34513 H 3205.86 -2.40942 -2.76301 0
M  V30 34514 H 3205.51 -1.15233 -4.89623 0
M  V30 34515 H 3205.21 -2.89487 -5.11342 0
M  V30 34516 H 3206.73 -2.17465 -5.70562 0
M  V30 34517 H 3208.14 -3.88742 -4.2137 0
M  V30 34518 H 3206.54 -4.59502 -3.85976 0
M  V30 34519 H 3207.61 -4.14235 -2.52066 0
M  V30 34520 N 3208.96 0.941933 -1.26354 0
M  V30 34521 C 3209.92 2.02209 -1.07908 0
M  V30 34522 C 3210.92 1.60776 -0.0276566 0
M  V30 34523 O 3212.11 1.72079 -0.270996 0
M  V30 34524 C 3209.24 3.34817 -0.641142 0
M  V30 34525 H 3210.43 2.20005 -2.03808 0
M  V30 34526 H 3207.99 1.12079 -1.08941 0
M  V30 34527 H 3208.72 3.22718 0.319887 0
M  V30 34528 H 3208.51 3.66242 -1.40033 0
M  V30 34529 H 3210 4.14173 -0.533899 0
M  V30 34530 N 3210.43 1.08146 1.1464 0
M  V30 34531 C 3211.85 0.808561 1.37603 0
M  V30 34532 C 3212.05 -0.583418 1.92869 0
M  V30 34533 O 3211.11 -1.3407 2.13966 0
M  V30 34534 C 3212.42 1.88904 2.33957 0
M  V30 34535 C 3213.97 1.91474 2.47602 0
M  V30 34536 C 3214.44 2.98629 3.47253 0
M  V30 34537 N 3215.93 2.97784 3.54795 0
M  V30 34538 C 3216.67 3.77339 4.31744 0
M  V30 34539 N 3216.16 4.66766 5.11958 0
M  V30 34540 N 3217.96 3.65652 4.26913 0
M  V30 34541 H 3210.11 1.97908 0.771119 0
M  V30 34542 H 3212.37 0.858695 0.401679 0
M  V30 34543 H 3212.08 2.88966 2.00479 0
M  V30 34544 H 3211.95 1.75606 3.3383 0
M  V30 34545 H 3214.34 0.920598 2.80373 0
M  V30 34546 H 3214.42 2.08851 1.47699 0
M  V30 34547 H 3214.06 3.98248 3.15216 0
M  V30 34548 H 3213.99 2.78498 4.4693 0
M  V30 34549 H 3216.48 2.32965 2.97549 0
M  V30 34550 H 3216.8 5.24082 5.67941 0
M  V30 34551 H 3215.14 4.7081 5.11236 0
M  V30 34552 H 3218.33 2.95159 3.63317 0
M  V30 34553 H 3218.51 4.27893 4.86633 0
M  V30 34554 N 3211.91 -1.31626 0.866732 0
M  V30 34555 C 3212.86 -2.26126 0.291751 0
M  V30 34556 C 3213.85 -1.5049 -0.569349 0
M  V30 34557 O 3215.04 -1.72024 -0.416756 0
M  V30 34558 C 3212.17 -3.39512 -0.508564 0
M  V30 34559 C 3211.25 -4.22521 0.365599 0
M  V30 34560 N 3211.64 -4.84344 1.45755 0
M  V30 34561 C 3209.94 -4.45722 0.157463 0
M  V30 34562 C 3210.64 -5.46371 1.99635 0
M  V30 34563 N 3209.62 -5.27979 1.2938 0
M  V30 34564 H 3213.42 -2.71459 1.12637 0
M  V30 34565 H 3210.93 -1.45855 0.714143 0
M  V30 34566 H 3212.93 -4.06234 -0.936985 0
M  V30 34567 H 3211.59 -2.95722 -1.34084 0
M  V30 34568 H 3212.6 -4.84094 1.84048 0
M  V30 34569 H 3209.28 -4.12579 -0.639121 0
M  V30 34570 H 3210.67 -6.05503 2.91232 0
M  V30 34571 N 3213.39 -0.62585 -1.4464 0
M  V30 34572 C 3214.34 0.0944812 -2.32408 0
M  V30 34573 C 3215.33 0.841172 -1.4704 0
M  V30 34574 O 3216.54 0.754669 -1.63416 0
M  V30 34575 H 3212.91 0.0493189 -0.750381 0
M  V30 34576 H 3214.88 -0.663914 -2.9092 0
M  V30 34577 C 3213.63 1.06609 -3.30953 0
M  V30 34578 H 3212.96 0.500952 -3.96649 0
M  V30 34579 H 3214.4 1.53969 -3.95056 0
M  V30 34580 C 3212.85 2.14873 -2.59483 0
M  V30 34581 O 3213.38 3.22881 -2.38979 0
M  V30 34582 N 3211.59 1.90661 -2.1931 0
M  V30 34583 H 3211.14 1.02831 -2.36186 0
M  V30 34584 H 3211.1 2.63299 -1.71816 0
M  V30 34585 N 3214.87 1.53289 -0.36608 0
M  V30 34586 C 3215.81 2.2575 0.480165 0
M  V30 34587 C 3216.78 1.26442 1.07711 0
M  V30 34588 O 3217.97 1.55224 1.10951 0
M  V30 34589 C 3215.11 3.05048 1.61369 0
M  V30 34590 C 3214.22 4.19248 1.04187 0
M  V30 34591 C 3213.36 4.85987 2.14454 0
M  V30 34592 C 3212.4 5.92218 1.5474 0
M  V30 34593 N 3211.53 6.52645 2.58841 0
M  V30 34594 H 3216.37 2.97651 -0.144252 0
M  V30 34595 H 3213.91 1.46866 -0.0829579 0
M  V30 34596 H 3215.87 3.49298 2.28138 0
M  V30 34597 H 3214.5 2.35401 2.20876 0
M  V30 34598 H 3213.55 3.7948 0.264448 0
M  V30 34599 H 3214.86 4.95586 0.565292 0
M  V30 34600 H 3214.02 5.33423 2.89042 0
M  V30 34601 H 3212.76 4.09122 2.65463 0
M  V30 34602 H 3211.76 5.44143 0.786663 0
M  V30 34603 H 3212.99 6.71003 1.04554 0
M  V30 34604 H 3210.93 5.78633 3.09063 0
M  V30 34605 H 3210.85 7.24524 2.15872 0
M  V30 34606 H 3212.12 7.0473 3.3313 0
M  V30 34607 N 3216.35 0.0952613 1.57312 0
M  V30 34608 C 3217.26 -0.877839 2.17557 0
M  V30 34609 C 3218.27 -1.31012 1.14508 0
M  V30 34610 O 3219.45 -1.378 1.46878 0
M  V30 34611 C 3216.51 -2.11887 2.74417 0
M  V30 34612 C 3215.57 -1.74078 3.92422 0
M  V30 34613 C 3214.81 -2.92265 4.46561 0
M  V30 34614 O 3215.03 -4.06995 3.99639 0
M  V30 34615 O 3213.96 -2.70722 5.37581 0
M  V30 34616 H 3217.79 -0.395259 3.01117 0
M  V30 34617 H 3215.37 -0.129097 1.48841 0
M  V30 34618 H 3217.26 -2.84617 3.10759 0
M  V30 34619 H 3215.93 -2.59197 1.93903 0
M  V30 34620 H 3214.84 -0.985283 3.60892 0
M  V30 34621 H 3216.17 -1.31531 4.743 0
M  V30 34622 N 3217.82 -1.56587 -0.178432 0
M  V30 34623 C 3218.75 -1.98886 -1.22338 0
M  V30 34624 C 3219.73 -0.863336 -1.46562 0
M  V30 34625 O 3220.92 -1.1289 -1.58017 0
M  V30 34626 C 3218.05 -2.34266 -2.56392 0
M  V30 34627 C 3217 -3.49712 -2.4675 0
M  V30 34628 C 3216.33 -3.70814 -3.85229 0
M  V30 34629 C 3217.63 -4.83385 -1.97829 0
M  V30 34630 H 3219.32 -2.86426 -0.871798 0
M  V30 34631 H 3216.87 -1.37802 -0.417924 0
M  V30 34632 H 3218.82 -2.62454 -3.29691 0
M  V30 34633 H 3217.55 -1.43627 -2.93324 0
M  V30 34634 H 3216.21 -3.21641 -1.75906 0
M  V30 34635 H 3215.85 -2.77477 -4.19542 0
M  V30 34636 H 3215.55 -4.48488 -3.79648 0
M  V30 34637 H 3217.08 -4.01395 -4.60124 0
M  V30 34638 H 3218.49 -5.10495 -2.60897 0
M  V30 34639 H 3216.89 -5.64646 -2.03213 0
M  V30 34640 H 3217.96 -4.75854 -0.932255 0
M  V30 34641 N 3219.3 0.446741 -1.51136 0
M  V30 34642 C 3220.23 1.55964 -1.67952 0
M  V30 34643 C 3221.25 1.52852 -0.560364 0
M  V30 34644 O 3222.44 1.57799 -0.834377 0
M  V30 34645 C 3219.54 2.94877 -1.67035 0
M  V30 34646 C 3218.71 3.22596 -2.95382 0
M  V30 34647 C 3217.77 4.41185 -2.8678 0
M  V30 34648 O 3216.79 4.40298 -3.6073 0
M  V30 34649 N 3218 5.44225 -2.01989 0
M  V30 34650 H 3220.76 1.41946 -2.63953 0
M  V30 34651 H 3218.32 0.635543 -1.48904 0
M  V30 34652 H 3220.31 3.72217 -1.58861 0
M  V30 34653 H 3218.88 3.0254 -0.786676 0
M  V30 34654 H 3218.1 2.33642 -3.17498 0
M  V30 34655 H 3219.39 3.37938 -3.80362 0
M  V30 34656 H 3218.79 5.47778 -1.41266 0
M  V30 34657 H 3217.35 6.20454 -1.997 0
M  V30 34658 N 3220.78 1.41123 0.701567 0
M  V30 34659 C 3222 1.43699 1.4955 0
M  V30 34660 C 3222.43 0.0422196 1.88053 0
M  V30 34661 O 3221.79 -0.953117 1.54225 0
M  V30 34662 C 3221.84 2.34626 2.7383 0
M  V30 34663 O 3220.94 1.79917 3.71084 0
M  V30 34664 H 3220.28 0.487941 0.450344 0
M  V30 34665 H 3222.81 1.85515 0.862853 0
M  V30 34666 H 3222.82 2.50296 3.22205 0
M  V30 34667 H 3221.5 3.35973 2.45143 0
M  V30 34668 H 3220.07 1.73667 3.29991 0
M  V30 34669 N 3222.26 -0.935219 1.26852 0
M  V30 34670 C 3223.19 -2.03507 1.03248 0
M  V30 34671 C 3224.17 -1.62539 -0.0447037 0
M  V30 34672 O 3225.35 -1.8824 0.0989236 0
M  V30 34673 C 3222.48 -3.3396 0.564685 0
M  V30 34674 C 3221.53 -3.93903 1.63531 0
M  V30 34675 S 3222.36 -4.27433 3.22585 0
M  V30 34676 C 3223.51 -5.60977 2.77589 0
M  V30 34677 H 3223.75 -2.23217 1.96371 0
M  V30 34678 H 3221.28 -1.07737 1.10599 0
M  V30 34679 H 3223.24 -4.09392 0.30146 0
M  V30 34680 H 3221.9 -3.12184 -0.346364 0
M  V30 34681 H 3221.09 -4.88018 1.25914 0
M  V30 34682 H 3220.69 -3.25027 1.85022 0
M  V30 34683 H 3222.99 -6.39948 2.22423 0
M  V30 34684 H 3223.93 -6.03486 3.70419 0
M  V30 34685 H 3224.34 -5.21139 2.16966 0
M  V30 34686 N 3223.74 -1.08752 -1.14065 0
M  V30 34687 C 3224.67 -0.742398 -2.21384 0
M  V30 34688 C 3225.65 0.276776 -1.67833 0
M  V30 34689 O 3226.83 0.146366 -1.93648 0
M  V30 34690 C 3223.96 -0.154705 -3.46955 0
M  V30 34691 C 3222.92 -1.10262 -4.13553 0
M  V30 34692 C 3222.24 -0.37697 -5.33369 0
M  V30 34693 C 3223.54 -2.44221 -4.61685 0
M  V30 34694 H 3225.24 -1.63968 -2.50509 0
M  V30 34695 H 3222.78 -0.789829 -1.20406 0
M  V30 34696 H 3224.74 0.0987679 -4.21284 0
M  V30 34697 H 3223.46 0.777733 -3.17205 0
M  V30 34698 H 3222.12 -1.34125 -3.41183 0
M  V30 34699 H 3221.77 0.559385 -4.9988 0
M  V30 34700 H 3221.47 -1.00894 -5.78873 0
M  V30 34701 H 3222.99 -0.131634 -6.10458 0
M  V30 34702 H 3224.4 -2.24605 -5.27471 0
M  V30 34703 H 3222.8 -3.03143 -5.17904 0
M  V30 34704 H 3223.87 -3.05489 -3.76569 0
M  V30 34705 N 3225.21 1.31165 -0.873701 0
M  V30 34706 C 3226.16 2.28424 -0.330328 0
M  V30 34707 C 3227.13 1.55894 0.573271 0
M  V30 34708 O 3228.32 1.8402 0.504111 0
M  V30 34709 C 3225.46 3.42035 0.458944 0
M  V30 34710 C 3224.57 4.29407 -0.472594 0
M  V30 34711 C 3223.7 5.30167 0.331168 0
M  V30 34712 C 3222.74 6.09186 -0.59656 0
M  V30 34713 N 3221.88 7.01891 0.171182 0
M  V30 34714 H 3226.72 2.74288 -1.1649 0
M  V30 34715 H 3224.26 1.34931 -0.585836 0
M  V30 34716 H 3226.22 4.06648 0.932361 0
M  V30 34717 H 3224.85 2.9727 1.25818 0
M  V30 34718 H 3223.9 3.65203 -1.06447 0
M  V30 34719 H 3225.21 4.84549 -1.1838 0
M  V30 34720 H 3224.36 6.00474 0.866932 0
M  V30 34721 H 3223.1 4.7569 1.07565 0
M  V30 34722 H 3222.11 5.37765 -1.14405 0
M  V30 34723 H 3223.33 6.65749 -1.33995 0
M  V30 34724 H 3221.28 6.49819 0.898406 0
M  V30 34725 H 3221.2 7.54471 -0.480614 0
M  V30 34726 H 3222.46 7.76457 0.688055 0
M  V30 34727 N 3226.69 0.633512 1.44307 0
M  V30 34728 C 3228.1 0.221042 1.85387 0
M  V30 34729 C 3228.45 -1.22808 1.53012 0
M  V30 34730 O 3227.58 -1.93475 0.969359 0
M  V30 34731 C 3228.17 0.39439 3.36497 0
M  V30 34732 C 3226.73 0.0364066 3.76382 0
M  V30 34733 C 3225.88 0.706645 2.68145 0
M  V30 34734 H 3228.83 0.838514 1.34739 0
M  V30 34735 H 3228.85 -0.36596 3.78736 0
M  V30 34736 H 3228.36 1.44917 3.60029 0
M  V30 34737 H 3226.47 -1.01654 3.58465 0
M  V30 34738 H 3226.58 0.448129 4.77 0
M  V30 34739 H 3224.94 0.141725 2.54305 0
M  V30 34740 H 3225.73 1.76406 2.94509 0
M  V30 34741 N 3228.17 -1.53093 0.374204 0
M  V30 34742 C 3229.42 -2.00981 -0.21236 0
M  V30 34743 C 3229.74 -1.26296 -1.48574 0
M  V30 34744 O 3229.01 -0.378676 -1.92205 0
M  V30 34745 H 3227.59 -0.742545 -0.0814632 0
M  V30 34746 H 3230.25 -1.88313 0.502423 0
M  V30 34747 H 3229.35 -3.09078 -0.433262 0
M  V30 34748 N 3229.65 -0.103603 -1.57259 0
M  V30 34749 C 3230.9 0.55699 -1.94273 0
M  V30 34750 C 3231.22 1.6819 -0.986768 0
M  V30 34751 O 3230.49 1.95859 -0.0403162 0
M  V30 34752 H 3229.07 0.208745 -0.717241 0
M  V30 34753 H 3231.73 -0.168932 -1.94167 0
M  V30 34754 H 3230.83 0.961638 -2.96916 0
M  V30 34755 N 3231.13 1.56679 0.170126 0
M  V30 34756 C 3232.06 1.93068 1.23521 0
M  V30 34757 C 3233.07 0.823904 1.40412 0
M  V30 34758 O 3234.26 1.10235 1.40394 0
M  V30 34759 C 3231.36 2.16932 2.60372 0
M  V30 34760 C 3230.53 3.48165 2.64764 0
M  V30 34761 C 3229.59 3.60843 3.82986 0
M  V30 34762 O 3228.62 4.33451 3.6893 0
M  V30 34763 N 3229.82 2.95782 4.99493 0
M  V30 34764 H 3232.59 2.85032 0.926122 0
M  V30 34765 H 3230.15 1.5785 0.359881 0
M  V30 34766 H 3232.14 2.22677 3.3793 0
M  V30 34767 H 3230.71 1.31347 2.83667 0
M  V30 34768 H 3229.93 3.54067 1.73292 0
M  V30 34769 H 3231.22 4.34518 2.6471 0
M  V30 34770 H 3230.61 2.36666 5.13815 0
M  V30 34771 H 3229.17 3.07121 5.74909 0
M  V30 34772 N 3232.6 -0.43872 1.5137 0
M  V30 34773 C 3233.85 -1.19003 1.64214 0
M  V30 34774 C 3234.18 -1.90897 0.35664 0
M  V30 34775 O 3233.46 -1.8354 -0.64369 0
M  V30 34776 C 3233.74 -2.20812 2.84454 0
M  V30 34777 C 3233.59 -1.5301 4.22975 0
M  V30 34778 C 3234.91 -3.21808 3.00213 0
M  V30 34779 H 3232.03 -0.431278 0.597636 0
M  V30 34780 H 3234.67 -0.479454 1.83851 0
M  V30 34781 H 3232.82 -2.81413 2.67841 0
M  V30 34782 H 3234.5 -0.957575 4.51252 0
M  V30 34783 H 3232.74 -0.832481 4.25737 0
M  V30 34784 H 3233.41 -2.27149 5.03098 0
M  V30 34785 H 3235.89 -2.7126 3.15527 0
M  V30 34786 H 3234.76 -3.90339 3.85911 0
M  V30 34787 H 3235.02 -3.87832 2.12223 0
M  V30 34788 N 3234.08 -1.41493 -0.694073 0
M  V30 34789 C 3235.36 -1.31421 -1.44872 0
M  V30 34790 C 3235.74 0.0575167 -2.11022 0
M  V30 34791 O 3235.09 1.07185 -2.01801 0
M  V30 34792 C 3235.3 -2.46867 -2.46693 0
M  V30 34793 C 3236.65 -2.88101 -3.11902 0
M  V30 34794 O 3237.67 -2.46618 -2.57018 0
M  V30 34795 O 3236.53 -3.5984 -4.11312 0
M  V30 34796 H 3233.62 -0.517274 -0.645257 0
M  V30 34797 H 3236.17 -1.53461 -0.724425 0
M  V30 34798 H 3234.94 -3.38396 -1.96479 0
M  V30 34799 H 3234.56 -2.26712 -3.2663 0
M  V30 34800 N 3235.56 0.928479 -1.27346 0
M  V30 34801 C 3236.81 1.67277 -1.13414 0
M  V30 34802 C 3237.13 1.92345 0.320664 0
M  V30 34803 O 3236.4 1.52917 1.22447 0
M  V30 34804 H 3234.98 0.619961 -0.416722 0
M  V30 34805 H 3237.64 1.1149 -1.59862 0
M  V30 34806 H 3236.74 2.64128 -1.66261 0
M  V30 34807 N 3237.04 1.09355 1.13486 0
M  V30 34808 C 3238.32 0.741591 1.80997 0
M  V30 34809 C 3238.7 -0.77347 1.9642 0
M  V30 34810 O 3238.04 -1.69561 1.53171 0
M  V30 34811 C 3238.25 1.47978 3.16075 0
M  V30 34812 C 3239.6 1.64511 3.91435 0
M  V30 34813 O 3240.63 1.44223 3.25696 0
M  V30 34814 O 3239.48 1.98063 5.09346 0
M  V30 34815 H 3236.58 0.266311 0.782948 0
M  V30 34816 H 3239.12 1.19571 1.20419 0
M  V30 34817 H 3237.9 2.51142 3.00072 0
M  V30 34818 H 3237.52 1.01778 3.84353 0
M  V30 34819 N 3238.52 -1.307 0.880644 0
M  V30 34820 C 3239.43 -2.32003 0.348075 0
M  V30 34821 C 3240.44 -1.65163 -0.547479 0
M  V30 34822 O 3241.62 -1.96498 -0.441638 0
M  V30 34823 C 3238.68 -3.43991 -0.432524 0
M  V30 34824 C 3237.75 -4.26468 0.492264 0
M  V30 34825 C 3236.98 -5.33109 -0.251176 0
M  V30 34826 O 3237.2 -5.50923 -1.47785 0
M  V30 34827 O 3236.14 -6.00593 0.396482 0
M  V30 34828 H 3239.96 -2.79499 1.18803 0
M  V30 34829 H 3237.55 -1.34791 0.644344 0
M  V30 34830 H 3239.43 -4.12223 -0.87466 0
M  V30 34831 H 3238.1 -2.98639 -1.24885 0
M  V30 34832 H 3237.01 -3.60951 0.983122 0
M  V30 34833 H 3238.34 -4.75413 1.27448 0
M  V30 34834 N 3240 -0.641156 -1.43969 0
M  V30 34835 C 3240.96 0.048184 -2.29149 0
M  V30 34836 C 3241.96 0.76247 -1.41573 0
M  V30 34837 O 3243.15 0.605542 -1.63337 0
M  V30 34838 C 3240.28 1.07891 -3.23377 0
M  V30 34839 H 3241.47 -0.701142 -2.91589 0
M  V30 34840 H 3239.03 -0.40178 -1.51048 0
M  V30 34841 H 3239.76 1.85787 -2.65807 0
M  V30 34842 H 3239.55 0.570528 -3.87927 0
M  V30 34843 H 3241.04 1.56069 -3.8734 0
M  V30 34844 N 3241.47 1.52892 -0.382318 0
M  V30 34845 C 3242.4 2.29166 0.447789 0
M  V30 34846 C 3243.38 1.32269 1.06953 0
M  V30 34847 O 3244.57 1.61156 1.08363 0
M  V30 34848 C 3241.7 3.09332 1.57896 0
M  V30 34849 C 3240.65 4.14055 1.08362 0
M  V30 34850 C 3239.98 4.82403 2.30633 0
M  V30 34851 C 3241.28 5.22065 0.156499 0
M  V30 34852 H 3242.97 2.98805 -0.188593 0
M  V30 34853 H 3240.52 1.43705 -0.0921432 0
M  V30 34854 H 3242.47 3.61445 2.16645 0
M  V30 34855 H 3241.2 2.37413 2.24283 0
M  V30 34856 H 3239.86 3.62912 0.518708 0
M  V30 34857 H 3239.5 4.07039 2.95513 0
M  V30 34858 H 3239.2 5.53181 1.98154 0
M  V30 34859 H 3240.73 5.37318 2.90037 0
M  V30 34860 H 3242.14 5.69581 0.651965 0
M  V30 34861 H 3240.54 6.00049 -0.0782033 0
M  V30 34862 H 3241.61 4.78312 -0.796613 0
M  V30 34863 N 3242.95 0.111941 1.57202 0
M  V30 34864 C 3243.86 -0.854715 2.18476 0
M  V30 34865 C 3244.88 -1.2979 1.15891 0
M  V30 34866 O 3246.05 -1.36234 1.48332 0
M  V30 34867 C 3243.12 -2.08965 2.76649 0
M  V30 34868 C 3242.18 -1.69906 3.94247 0
M  V30 34869 C 3241.41 -2.87512 4.49636 0
M  V30 34870 O 3241.64 -4.02734 4.03933 0
M  V30 34871 O 3240.57 -2.65005 5.40422 0
M  V30 34872 H 3244.4 -0.363299 3.01519 0
M  V30 34873 H 3241.98 -0.113303 1.4897 0
M  V30 34874 H 3243.86 -2.81305 3.1376 0
M  V30 34875 H 3242.54 -2.57126 1.96641 0
M  V30 34876 H 3241.44 -0.94695 3.61917 0
M  V30 34877 H 3242.78 -1.26493 4.75668 0
M  V30 34878 N 3244.43 -1.56767 -0.161814 0
M  V30 34879 C 3245.68 -1.82529 -0.876892 0
M  V30 34880 C 3246 -0.690524 -1.8183 0
M  V30 34881 O 3245.26 0.321556 -1.9304 0
M  V30 34882 C 3245.56 -3.14525 -1.69731 0
M  V30 34883 C 3245.22 -4.41745 -0.903997 0
M  V30 34884 C 3243.89 -4.76298 -0.685084 0
M  V30 34885 C 3246.24 -5.20036 -0.34819 0
M  V30 34886 C 3243.57 -5.86614 0.100583 0
M  V30 34887 C 3245.92 -6.31175 0.424438 0
M  V30 34888 C 3244.58 -6.64288 0.654065 0
M  V30 34889 H 3243.85 -0.667921 -0.320878 0
M  V30 34890 H 3246.5 -1.90978 -0.141304 0
M  V30 34891 H 3244.8 -3.01461 -2.50257 0
M  V30 34892 H 3246.5 -3.3167 -2.2538 0
M  V30 34893 H 3243.09 -4.14648 -1.08467 0
M  V30 34894 H 3247.28 -4.93728 -0.504634 0
M  V30 34895 H 3242.53 -6.10721 0.288136 0
M  V30 34896 H 3246.71 -6.9104 0.862325 0
M  V30 34897 H 3244.33 -7.49606 1.26473 0
M  V30 34898 N 3245.91 0.430686 -1.51601 0
M  V30 34899 C 3247.14 1.20008 -1.68171 0
M  V30 34900 C 3247.55 1.85315 -0.381439 0
M  V30 34901 O 3246.89 1.71794 0.650569 0
M  V30 34902 C 3246.95 2.32091 -2.74544 0
M  V30 34903 C 3246.61 1.87097 -4.16946 0
M  V30 34904 C 3247.61 1.37069 -5.01506 0
M  V30 34905 C 3245.3 1.94586 -4.63078 0
M  V30 34906 C 3247.29 0.951252 -6.30262 0
M  V30 34907 C 3244.98 1.52253 -5.91829 0
M  V30 34908 C 3245.98 1.02606 -6.75249 0
M  V30 34909 O 3245.66 0.608764 -8.01592 0
M  V30 34910 H 3245.4 0.367518 -0.567368 0
M  V30 34911 H 3247.95 0.515725 -1.9882 0
M  V30 34912 H 3246.18 3.03824 -2.39224 0
M  V30 34913 H 3247.87 2.93932 -2.79927 0
M  V30 34914 H 3248.63 1.30673 -4.67065 0
M  V30 34915 H 3244.51 2.32175 -3.98266 0
M  V30 34916 H 3248.06 0.56304 -6.95324 0
M  V30 34917 H 3243.95 1.58322 -6.25783 0
M  V30 34918 H 3244.72 0.734017 -8.15202 0
M  V30 34919 N 3247.39 1.4186 0.686559 0
M  V30 34920 C 3248.35 1.44129 1.78212 0
M  V30 34921 C 3249.35 0.330569 1.57365 0
M  V30 34922 O 3250.54 0.590866 1.63873 0
M  V30 34923 C 3247.67 1.26147 3.16701 0
M  V30 34924 H 3248.86 2.41664 1.7759 0
M  V30 34925 H 3246.42 1.28134 0.895062 0
M  V30 34926 H 3247.15 0.294879 3.22957 0
M  V30 34927 H 3246.94 2.06632 3.33235 0
M  V30 34928 H 3248.43 1.30591 3.96656 0
M  V30 34929 N 3248.86 -0.921712 1.27837 0
M  V30 34930 C 3249.81 -2.02312 1.11079 0
M  V30 34931 C 3250.78 -1.66097 0.0101487 0
M  V30 34932 O 3251.97 -1.90009 0.173598 0
M  V30 34933 C 3249.11 -3.36393 0.77031 0
M  V30 34934 C 3248.22 -3.85527 1.94919 0
M  V30 34935 C 3247.35 -5.08082 1.55005 0
M  V30 34936 C 3246.39 -5.49527 2.69605 0
M  V30 34937 N 3245.53 -6.63276 2.30239 0
M  V30 34938 H 3250.37 -2.15979 2.05322 0
M  V30 34939 H 3247.91 -1.05798 1.02202 0
M  V30 34940 H 3249.86 -4.13509 0.553697 0
M  V30 34941 H 3248.49 -3.22517 -0.135181 0
M  V30 34942 H 3247.55 -3.04637 2.27816 0
M  V30 34943 H 3248.86 -4.12209 2.80865 0
M  V30 34944 H 3248.01 -5.92717 1.29503 0
M  V30 34945 H 3246.75 -4.83189 0.661761 0
M  V30 34946 H 3245.76 -4.63437 2.95814 0
M  V30 34947 H 3246.98 -5.76411 3.59064 0
M  V30 34948 H 3244.93 -6.40029 1.43869 0
M  V30 34949 H 3244.84 -6.89643 3.09723 0
M  V30 34950 H 3246.11 -7.51237 2.08 0
M  V30 34951 N 3250.34 -1.09956 -1.12905 0
M  V30 34952 C 3251.29 -0.713242 -2.16557 0
M  V30 34953 C 3252.28 0.275122 -1.5853 0
M  V30 34954 O 3253.47 0.0846333 -1.76798 0
M  V30 34955 C 3250.6 -0.141284 -3.43009 0
M  V30 34956 C 3249.68 -1.15639 -4.0803 0
M  V30 34957 N 3250.07 -2.34539 -4.48135 0
M  V30 34958 C 3248.37 -0.995778 -4.34742 0
M  V30 34959 C 3249.07 -2.99156 -4.98879 0
M  V30 34960 N 3248.05 -2.26693 -4.94076 0
M  V30 34961 H 3251.85 -1.61842 -2.45325 0
M  V30 34962 H 3249.36 -0.976562 -1.29758 0
M  V30 34963 H 3251.36 0.153525 -4.16617 0
M  V30 34964 H 3250.02 0.758673 -3.15712 0
M  V30 34965 H 3251.03 -2.72096 -4.40663 0
M  V30 34966 H 3247.71 -0.150962 -4.17227 0
M  V30 34967 H 3249.1 -4.00267 -5.39663 0
M  V30 34968 N 3251.82 1.30231 -0.887563 0
M  V30 34969 C 3253.05 2.00198 -0.522342 0
M  V30 34970 C 3253.46 1.66515 0.889836 0
M  V30 34971 O 3252.82 0.903667 1.58556 0
M  V30 34972 C 3252.87 3.54842 -0.690614 0
M  V30 34973 O 3252.59 3.87326 -2.0472 0
M  V30 34974 C 3254.09 4.42079 -0.328727 0
M  V30 34975 H 3251.31 0.639986 -0.201639 0
M  V30 34976 H 3253.86 1.66054 -1.19357 0
M  V30 34977 H 3252.01 3.87343 -0.0667174 0
M  V30 34978 H 3252.43 4.82023 -2.0677 0
M  V30 34979 H 3253.9 5.49755 -0.497354 0
M  V30 34980 H 3254.38 4.33033 0.733426 0
M  V30 34981 H 3254.98 4.15029 -0.929055 0
M  V30 34982 N 3253.3 0.648782 1.43627 0
M  V30 34983 C 3254.26 -0.036031 2.29172 0
M  V30 34984 C 3255.26 -0.754951 1.41976 0
M  V30 34985 O 3256.45 -0.596871 1.63655 0
M  V30 34986 C 3253.58 -1.06174 3.23944 0
M  V30 34987 H 3254.78 0.716595 2.91213 0
M  V30 34988 H 3252.33 0.409785 1.50833 0
M  V30 34989 H 3253.06 -1.84375 2.66789 0
M  V30 34990 H 3252.85 -0.549948 3.88224 0
M  V30 34991 H 3254.34 -1.54012 3.88162 0
M  V30 34992 N 3254.78 -1.52688 0.390421 0
M  V30 34993 C 3255.71 -2.24133 -0.47928 0
M  V30 34994 C 3256.72 -1.26418 -1.02578 0
M  V30 34995 O 3257.91 -1.52486 -0.927916 0
M  V30 34996 C 3255.01 -2.94496 -1.67705 0
M  V30 34997 C 3254.18 -4.18927 -1.25773 0
M  V30 34998 C 3253.24 -4.72279 -2.32032 0
M  V30 34999 O 3252.27 -5.35339 -1.93393 0
M  V30 35000 N 3253.47 -4.52232 -3.63959 0
M  V30 35001 H 3256.24 -2.99405 0.132829 0
M  V30 35002 H 3253.8 -1.60441 0.216835 0
M  V30 35003 H 3255.79 -3.27089 -2.38317 0
M  V30 35004 H 3254.36 -2.22525 -2.19548 0
M  V30 35005 H 3253.58 -3.9236 -0.380459 0
M  V30 35006 H 3254.87 -4.99772 -0.954241 0
M  V30 35007 H 3254.26 -4.01899 -3.98112 0
M  V30 35008 H 3252.82 -4.89311 -4.30602 0
M  V30 35009 N 3256.25 -0.120276 -1.5714 0
M  V30 35010 C 3257.5 0.537236 -1.94414 0
M  V30 35011 C 3257.82 1.67749 -1.00597 0
M  V30 35012 O 3259.02 2.39785 -1.27341 0
M  V30 35013 C 3257.48 1.00708 -3.45523 0
M  V30 35014 C 3257.09 -0.104785 -4.47877 0
M  V30 35015 C 3258.83 1.63589 -3.91713 0
M  V30 35016 C 3256.74 0.381828 -5.90166 0
M  V30 35017 H 3255.67 0.204462 -0.725749 0
M  V30 35018 H 3258.32 -0.200334 -1.82403 0
M  V30 35019 H 3256.7 1.79911 -3.52772 0
M  V30 35020 H 3257.87 -0.881082 -4.52298 0
M  V30 35021 H 3256.19 -0.640336 -4.11447 0
M  V30 35022 H 3258.79 2.01113 -4.95437 0
M  V30 35023 H 3259.13 2.51478 -3.3176 0
M  V30 35024 H 3259.66 0.909251 -3.87269 0
M  V30 35025 H 3256.4 -0.461036 -6.53877 0
M  V30 35026 H 3255.92 1.12458 -5.89163 0
M  V30 35027 H 3257.6 0.842635 -6.41489 0
M  V30 35028 N 3257.73 1.56851 0.153498 0
M  V30 35029 C 3258.64 2.01031 1.20928 0
M  V30 35030 C 3259.66 0.924624 1.474 0
M  V30 35031 O 3260.83 1.23361 1.59198 0
M  V30 35032 C 3257.9 2.37651 2.52434 0
M  V30 35033 C 3256.96 3.60136 2.33667 0
M  V30 35034 C 3256.19 3.95 3.58902 0
M  V30 35035 O 3256.42 3.30607 4.64817 0
M  V30 35036 O 3255.35 4.88276 3.51951 0
M  V30 35037 H 3259.18 2.91144 0.864222 0
M  V30 35038 H 3256.76 1.44955 0.36173 0
M  V30 35039 H 3258.64 2.62094 3.29977 0
M  V30 35040 H 3257.32 1.50695 2.86483 0
M  V30 35041 H 3256.23 3.40889 1.54097 0
M  V30 35042 H 3257.56 4.4769 2.04536 0
M  V30 35043 N 3259.21 -0.42264 1.51827 0
M  V30 35044 C 3260.46 -1.16783 1.64452 0
M  V30 35045 C 3260.77 -1.91995 0.373826 0
M  V30 35046 O 3261.98 -2.68832 0.379668 0
M  V30 35047 C 3260.43 -2.12468 2.90492 0
M  V30 35048 C 3260.04 -1.42836 4.2462 0
M  V30 35049 C 3261.79 -2.87329 3.12477 0
M  V30 35050 C 3259.69 -2.3709 5.41795 0
M  V30 35051 H 3258.62 -0.439631 0.612569 0
M  V30 35052 H 3261.27 -0.433503 1.78306 0
M  V30 35053 H 3259.66 -2.89397 2.70306 0
M  V30 35054 H 3260.83 -0.71364 4.5524 0
M  V30 35055 H 3259.15 -0.800698 4.08629 0
M  V30 35056 H 3261.74 -3.57966 3.97196 0
M  V30 35057 H 3262.09 -3.49514 2.26154 0
M  V30 35058 H 3262.62 -2.17503 3.33072 0
M  V30 35059 H 3259.36 -1.79573 6.30424 0
M  V30 35060 H 3258.88 -3.06574 5.15531 0
M  V30 35061 H 3260.56 -2.97907 5.74335 0
M  V30 35062 N 3260.69 -1.42222 -0.679027 0
M  V30 35063 C 3261.93 -1.42677 -1.44122 0
M  V30 35064 C 3262.27 -0.0414721 -1.94156 0
M  V30 35065 O 3261.54 0.93358 -1.7063 0
M  V30 35066 C 3261.83 -2.44761 -2.64129 0
M  V30 35067 C 3261.68 -3.92464 -2.19755 0
M  V30 35068 C 3263 -2.43887 -3.66343 0
M  V30 35069 H 3260.12 -0.51955 -0.52272 0
M  V30 35070 H 3262.76 -1.73608 -0.772036 0
M  V30 35071 H 3260.91 -2.18515 -3.21222 0
M  V30 35072 H 3262.58 -4.29674 -1.67862 0
M  V30 35073 H 3260.82 -4.06534 -1.5137 0
M  V30 35074 H 3261.49 -4.59464 -3.05936 0
M  V30 35075 H 3263.97 -2.67217 -3.18958 0
M  V30 35076 H 3262.85 -3.17301 -4.47897 0
M  V30 35077 H 3263.11 -1.46333 -4.1718 0
M  V30 35078 N 3262.17 0.91492 -1.28324 0
M  V30 35079 C 3263.58 1.19311 -1.06005 0
M  V30 35080 C 3263.78 2.00522 0.198331 0
M  V30 35081 O 3262.84 2.35903 0.900322 0
M  V30 35082 C 3264.15 1.92883 -2.30687 0
M  V30 35083 C 3265.7 2.05771 -2.35854 0
M  V30 35084 C 3266.17 2.82751 -3.603 0
M  V30 35085 N 3267.67 2.90313 -3.60933 0
M  V30 35086 C 3268.4 3.50375 -4.539 0
M  V30 35087 N 3267.9 4.11724 -5.57185 0
M  V30 35088 N 3269.69 3.47902 -4.41498 0
M  V30 35089 H 3261.84 0.372698 -2.09105 0
M  V30 35090 H 3264.1 0.227536 -0.920289 0
M  V30 35091 H 3263.81 1.40637 -3.22357 0
M  V30 35092 H 3263.68 2.9344 -2.37009 0
M  V30 35093 H 3266.07 2.57198 -1.44682 0
M  V30 35094 H 3266.15 1.04395 -2.33528 0
M  V30 35095 H 3265.8 2.32003 -4.51815 0
M  V30 35096 H 3265.73 3.8444 -3.5988 0
M  V30 35097 H 3268.22 2.46724 -2.86244 0
M  V30 35098 H 3268.53 4.5553 -6.24269 0
M  V30 35099 H 3266.87 4.10232 -5.61012 0
M  V30 35100 H 3270.07 2.99183 -3.6001 0
M  V30 35101 H 3270.24 3.94418 -5.14139 0
M  V30 35102 N 3263.64 1.10553 1.1232 0
M  V30 35103 C 3264.57 0.777525 2.20174 0
M  V30 35104 C 3265.56 -0.25004 1.68252 0
M  V30 35105 O 3266.74 -0.11554 1.93856 0
M  V30 35106 C 3263.87 0.209883 3.46665 0
M  V30 35107 C 3262.82 1.16827 4.11747 0
M  V30 35108 C 3262.15 0.461777 5.32702 0
M  V30 35109 C 3263.45 2.51535 4.57742 0
M  V30 35110 H 3265.14 1.67933 2.47869 0
M  V30 35111 H 3262.69 0.808884 1.19135 0
M  V30 35112 H 3264.64 -0.0317327 4.21388 0
M  V30 35113 H 3263.37 -0.72717 3.18402 0
M  V30 35114 H 3262.03 1.39536 3.39006 0
M  V30 35115 H 3261.67 -0.479787 5.00707 0
M  V30 35116 H 3261.37 1.1009 5.77195 0
M  V30 35117 H 3262.9 0.228736 6.10171 0
M  V30 35118 H 3264.31 2.32968 5.23831 0
M  V30 35119 H 3262.71 3.11344 5.13016 0
M  V30 35120 H 3263.78 3.11442 3.71661 0
M  V30 35121 N 3265.12 -1.29758 0.894457 0
M  V30 35122 C 3266.4 -1.90647 0.437399 0
M  V30 35123 C 3266.78 -1.81228 -1.08258 0
M  V30 35124 O 3266.13 -1.2356 -1.92211 0
M  V30 35125 C 3266.34 -3.35931 0.946106 0
M  V30 35126 C 3267.69 -4.12976 0.986694 0
M  V30 35127 O 3268.71 -3.44814 0.893416 0
M  V30 35128 O 3267.57 -5.34774 1.12601 0
M  V30 35129 H 3264.66 -0.815832 0.13545 0
M  V30 35130 H 3267.21 -1.3826 0.98398 0
M  V30 35131 H 3265.98 -3.36917 1.99004 0
M  V30 35132 H 3265.6 -3.95787 0.379234 0
M  V30 35133 N 3266.6 -0.65639 -1.4328 0
M  V30 35134 C 3268.02 -0.32424 -1.56272 0
M  V30 35135 C 3268.22 1.17147 -1.63948 0
M  V30 35136 O 3267.27 1.9564 -1.59628 0
M  V30 35137 C 3268.59 -1.03838 -2.82202 0
M  V30 35138 C 3270.13 -1.01894 -2.9595 0
M  V30 35139 C 3270.61 -1.71404 -4.24717 0
M  V30 35140 N 3272.1 -1.68183 -4.31588 0
M  V30 35141 C 3272.83 -2.18839 -5.29997 0
M  V30 35142 N 3272.33 -2.77796 -6.34666 0
M  V30 35143 N 3274.12 -2.0932 -5.21672 0
M  V30 35144 H 3266.27 -1.62697 -1.36541 0
M  V30 35145 H 3268.54 -0.684386 -0.655987 0
M  V30 35146 H 3268.24 -2.09351 -2.82604 0
M  V30 35147 H 3268.12 -0.591943 -3.72526 0
M  V30 35148 H 3270.5 0.0277913 -2.95087 0
M  V30 35149 H 3270.59 -1.5041 -2.06907 0
M  V30 35150 H 3270.23 -2.76036 -4.26341 0
M  V30 35151 H 3270.16 -1.20351 -5.12663 0
M  V30 35152 H 3272.65 -1.25163 -3.56571 0
M  V30 35153 H 3272.96 -3.14117 -7.06081 0
M  V30 35154 H 3271.31 -2.81858 -6.3528 0
M  V30 35155 H 3274.5 -1.62963 -4.38818 0
M  V30 35156 H 3274.67 -2.49106 -5.98206 0
M  V30 35157 N 3268.08 1.52478 -0.398513 0
M  V30 35158 C 3269.31 2.06111 0.180521 0
M  V30 35159 C 3269.72 1.26948 1.39749 0
M  V30 35160 O 3269.08 0.318529 1.79699 0
M  V30 35161 C 3269.13 3.57421 0.541511 0
M  V30 35162 O 3268.85 4.33588 -0.627119 0
M  V30 35163 C 3270.35 4.27433 1.17542 0
M  V30 35164 H 3267.57 0.670532 0.0250637 0
M  V30 35165 H 3270.12 1.965 -0.566402 0
M  V30 35166 H 3268.27 3.67075 1.23833 0
M  V30 35167 H 3268.69 5.23471 -0.328325 0
M  V30 35168 H 3270.16 5.34516 1.3783 0
M  V30 35169 H 3270.64 3.83232 2.14546 0
M  V30 35170 H 3271.24 4.2212 0.519105 0
M  V30 35171 N 3269.56 0.128608 1.57074 0
M  V30 35172 C 3270.49 -0.855556 2.11555 0
M  V30 35173 C 3271.47 -1.25457 1.03437 0
M  V30 35174 O 3272.65 -1.35393 1.31153 0
M  V30 35175 C 3269.78 -2.14628 2.62016 0
M  V30 35176 C 3268.83 -1.8946 3.82109 0
M  V30 35177 S 3269.66 -1.10218 5.24034 0
M  V30 35178 C 3270.81 -2.4045 5.77871 0
M  V30 35179 H 3271.05 -0.392196 2.94702 0
M  V30 35180 H 3268.58 -0.0853475 1.54164 0
M  V30 35181 H 3270.54 -2.88785 2.91742 0
M  V30 35182 H 3269.2 -2.58081 1.79033 0
M  V30 35183 H 3268.39 -2.85122 4.15597 0
M  V30 35184 H 3267.99 -1.23421 3.53049 0
M  V30 35185 H 3270.29 -3.36228 5.88181 0
M  V30 35186 H 3271.23 -2.11493 6.75778 0
M  V30 35187 H 3271.64 -2.50257 5.05996 0
M  V30 35188 N 3271.04 -1.5693 -0.145178 0
M  V30 35189 C 3271.95 -2.0167 -1.19861 0
M  V30 35190 C 3272.96 -0.932428 -1.46907 0
M  V30 35191 O 3274.14 -1.24204 -1.58541 0
M  V30 35192 C 3271.2 -2.38987 -2.5117 0
M  V30 35193 C 3270.26 -3.6137 -2.31754 0
M  V30 35194 C 3269.5 -3.96898 -3.56802 0
M  V30 35195 O 3269.72 -3.33067 -4.63058 0
M  V30 35196 O 3268.65 -4.90136 -3.49357 0
M  V30 35197 H 3272.48 -2.91598 -0.84877 0
M  V30 35198 H 3270.06 -1.45145 -0.354037 0
M  V30 35199 H 3271.95 -2.63841 -3.28582 0
M  V30 35200 H 3270.62 -1.52212 -2.8568 0
M  V30 35201 H 3269.53 -3.41701 -1.52287 0
M  V30 35202 H 3270.86 -4.48768 -2.02159 0
M  V30 35203 N 3272.51 0.414582 -1.52049 0
M  V30 35204 C 3273.45 1.52366 -1.71222 0
M  V30 35205 C 3274.46 1.51629 -0.59266 0
M  V30 35206 O 3275.65 1.55993 -0.867661 0
M  V30 35207 C 3272.75 2.91268 -1.73253 0
M  V30 35208 C 3271.92 3.16258 -3.02159 0
M  V30 35209 C 3270.98 4.35002 -2.96073 0
M  V30 35210 O 3270.01 4.32547 -3.69988 0
M  V30 35211 N 3271.21 5.39818 -2.13487 0
M  V30 35212 H 3273.97 1.36316 -2.66905 0
M  V30 35213 H 3271.53 0.603815 -1.50219 0
M  V30 35214 H 3273.53 3.68763 -1.6672 0
M  V30 35215 H 3272.1 3.00803 -0.850672 0
M  V30 35216 H 3271.32 2.26855 -3.22383 0
M  V30 35217 H 3272.6 3.29794 -3.87445 0
M  V30 35218 H 3272 5.44658 -1.52854 0
M  V30 35219 H 3270.56 6.16078 -2.12816 0
M  V30 35220 N 3273.99 1.4258 0.671475 0
M  V30 35221 C 3275.24 1.42518 1.42729 0
M  V30 35222 C 3275.55 0.0462751 1.95545 0
M  V30 35223 O 3276.76 -0.0769321 2.71391 0
M  V30 35224 C 3275.22 2.5071 2.58211 0
M  V30 35225 C 3274.82 3.94622 2.12079 0
M  V30 35226 C 3276.57 2.59819 3.357 0
M  V30 35227 C 3274.47 4.94315 3.24663 0
M  V30 35228 H 3273.4 0.530091 0.536209 0
M  V30 35229 H 3276.06 1.685 0.726625 0
M  V30 35230 H 3274.44 2.17898 3.30661 0
M  V30 35231 H 3275.61 4.36804 1.4676 0
M  V30 35232 H 3273.93 3.89393 1.47519 0
M  V30 35233 H 3276.52 3.31479 4.19554 0
M  V30 35234 H 3276.87 1.64283 3.82514 0
M  V30 35235 H 3277.4 2.91841 2.70321 0
M  V30 35236 H 3274.14 5.9134 2.82837 0
M  V30 35237 H 3273.66 4.56762 3.88753 0
M  V30 35238 H 3275.34 5.16185 3.90079 0
M  V30 35239 N 3275.47 -0.908102 1.28807 0
M  V30 35240 C 3276.72 -1.66025 1.16463 0
M  V30 35241 C 3277.05 -1.92097 -0.284991 0
M  V30 35242 O 3276.32 -1.5254 -1.20673 0
M  V30 35243 C 3276.61 -3.01463 1.96957 0
M  V30 35244 C 3276.46 -2.82509 3.50012 0
M  V30 35245 C 3277.78 -4.0208 1.78939 0
M  V30 35246 H 3274.9 -0.602507 0.424446 0
M  V30 35247 H 3277.54 -1.05247 1.58187 0
M  V30 35248 H 3275.69 -3.53341 1.61501 0
M  V30 35249 H 3277.36 -2.37598 3.95405 0
M  V30 35250 H 3275.6 -2.17456 3.7536 0
M  V30 35251 H 3276.28 -3.78713 4.01597 0
M  V30 35252 H 3278.75 -3.59284 2.09891 0
M  V30 35253 H 3277.63 -4.94799 2.37623 0
M  V30 35254 H 3277.89 -4.35823 0.742362 0
M  V30 35255 N 3276.95 -1.11147 -1.11732 0
M  V30 35256 C 3278.19 -0.858445 -1.83404 0
M  V30 35257 C 3278.52 0.615942 -1.8449 0
M  V30 35258 O 3277.78 1.47055 -1.29125 0
M  V30 35259 C 3278.08 -1.36135 -3.30457 0
M  V30 35260 C 3277.74 -2.84844 -3.49535 0
M  V30 35261 C 3276.4 -3.25451 -3.5445 0
M  V30 35262 C 3278.76 -3.80637 -3.56041 0
M  V30 35263 C 3276.08 -4.60587 -3.63423 0
M  V30 35264 C 3278.44 -5.15585 -3.66544 0
M  V30 35265 C 3277.1 -5.55756 -3.69718 0
M  V30 35266 H 3276.37 -0.314127 -0.671122 0
M  V30 35267 H 3279.02 -1.38935 -1.31793 0
M  V30 35268 H 3277.32 -0.750615 -3.84543 0
M  V30 35269 H 3279.02 -1.14195 -3.84396 0
M  V30 35270 H 3275.61 -2.52429 -3.46378 0
M  V30 35271 H 3279.79 -3.50366 -3.51507 0
M  V30 35272 H 3275.05 -4.91122 -3.64155 0
M  V30 35273 H 3279.22 -5.8965 -3.70522 0
M  V30 35274 H 3276.85 -6.60461 -3.76424 0
M  V30 35275 N 3278.43 1.29282 -0.901326 0
M  V30 35276 C 3279.84 1.77581 -0.576349 0
M  V30 35277 C 3280.19 1.73922 0.908048 0
M  V30 35278 O 3279.31 1.32614 1.71004 0
M  V30 35279 C 3279.91 3.22461 -1.03944 0
M  V30 35280 C 3278.47 3.68532 -0.765597 0
M  V30 35281 C 3277.61 2.49352 -1.21322 0
M  V30 35282 H 3280.56 1.15921 -1.08388 0
M  V30 35283 H 3280.59 3.78643 -0.375433 0
M  V30 35284 H 3280.1 3.25092 -2.11983 0
M  V30 35285 H 3278.2 3.71373 0.30211 0
M  V30 35286 H 3278.31 4.59255 -1.36462 0
M  V30 35287 H 3276.68 2.4673 -0.632184 0
M  V30 35288 H 3277.46 2.5471 -2.30169 0
M  V30 35289 N 3279.9 0.663979 1.4293 0
M  V30 35290 C 3281.15 0.182043 2.01981 0
M  V30 35291 C 3281.48 -1.20461 1.52325 0
M  V30 35292 O 3280.76 -1.80648 0.720866 0
M  V30 35293 C 3281.04 0.204734 3.59518 0
M  V30 35294 C 3280.89 1.62607 4.19379 0
M  V30 35295 C 3282.21 -0.453003 4.37762 0
M  V30 35296 H 3279.33 0.0676244 0.733891 0
M  V30 35297 H 3281.97 0.84671 1.70091 0
M  V30 35298 H 3280.12 -0.361227 3.86817 0
M  V30 35299 H 3281.8 2.24344 4.03072 0
M  V30 35300 H 3280.04 2.17008 3.7562 0
M  V30 35301 H 3280.71 1.59371 5.28493 0
M  V30 35302 H 3283.19 0.0286505 4.1609 0
M  V30 35303 H 3282.06 -0.406442 5.47393 0
M  V30 35304 H 3282.32 -1.52888 4.14823 0
M  V30 35305 N 3281.38 -1.52265 0.406593 0
M  V30 35306 C 3282.79 -1.86592 -0.0635742 0
M  V30 35307 C 3283.14 -1.32547 -1.44657 0
M  V30 35308 O 3282.27 -0.663728 -2.0597 0
M  V30 35309 C 3282.86 -3.3858 -0.122138 0
M  V30 35310 C 3281.42 -3.72555 -0.536636 0
M  V30 35311 C 3280.57 -2.75774 0.29047 0
M  V30 35312 H 3283.52 -1.45928 0.623764 0
M  V30 35313 H 3283.54 -3.6876 -0.937899 0
M  V30 35314 H 3283.05 -3.77885 0.884561 0
M  V30 35315 H 3281.15 -3.38827 -1.55007 0
M  V30 35316 H 3281.27 -4.78265 -0.282783 0
M  V30 35317 H 3279.63 -2.53501 -0.246819 0
M  V30 35318 H 3280.41 -3.17919 1.29547 0
M  V30 35319 N 3282.86 -0.136936 -1.57004 0
M  V30 35320 C 3284.09 0.527173 -2.00588 0
M  V30 35321 C 3284.51 1.58281 -1.01631 0
M  V30 35322 O 3283.87 1.81298 0.00943748 0
M  V30 35323 C 3283.92 1.11378 -3.42969 0
M  V30 35324 O 3283.02 2.22892 -3.46977 0
M  V30 35325 H 3282.36 0.129965 -0.651157 0
M  V30 35326 H 3284.89 -0.230703 -2.03295 0
M  V30 35327 H 3284.9 1.44492 -3.81557 0
M  V30 35328 H 3283.58 0.340663 -4.14502 0
M  V30 35329 H 3282.15 1.91082 -3.20222 0
M  V30 35330 N 3284.34 1.57005 0.136853 0
M  V30 35331 C 3285.59 1.8309 0.846225 0
M  V30 35332 C 3285.9 0.719797 1.81874 0
M  V30 35333 O 3287.11 0.86654 2.573 0
M  V30 35334 C 3285.56 3.24548 1.55553 0
M  V30 35335 C 3285.17 4.4362 0.624911 0
M  V30 35336 C 3286.91 3.59897 2.25109 0
M  V30 35337 C 3284.82 5.76102 1.33643 0
M  V30 35338 H 3283.75 0.682841 0.319756 0
M  V30 35339 H 3286.4 1.83233 0.0989419 0
M  V30 35340 H 3284.78 3.18821 2.34881 0
M  V30 35341 H 3285.96 4.60606 -0.133864 0
M  V30 35342 H 3284.27 4.16383 0.0372484 0
M  V30 35343 H 3286.87 4.56139 2.79 0
M  V30 35344 H 3287.21 2.86451 3.02079 0
M  V30 35345 H 3287.75 3.67329 1.52689 0
M  V30 35346 H 3284.49 6.52671 0.608381 0
M  V30 35347 H 3284.01 5.63035 2.06766 0
M  V30 35348 H 3285.68 6.19249 1.87456 0
M  V30 35349 N 3285.82 -0.406513 1.52267 0
M  V30 35350 C 3287.06 -1.16236 1.68132 0
M  V30 35351 C 3287.42 -1.87705 0.403824 0
M  V30 35352 O 3288.62 -2.65197 0.438612 0
M  V30 35353 C 3286.89 -2.12832 2.87119 0
M  V30 35354 S 3288.45 -2.96489 3.2348 0
M  V30 35355 H 3285.27 -0.393733 0.592027 0
M  V30 35356 H 3287.87 -0.449291 1.90267 0
M  V30 35357 H 3286.58 -1.59019 3.7834 0
M  V30 35358 H 3286.11 -2.88674 2.67265 0
M  V30 35359 H 3288.12 -4.14806 2.72306 0
M  V30 35360 N 3287.29 -1.42934 -0.663904 0
M  V30 35361 C 3288.2 -1.49687 -1.80641 0
M  V30 35362 C 3289.22 -0.38475 -1.69693 0
M  V30 35363 O 3290.4 -0.63729 -1.91051 0
M  V30 35364 C 3287.46 -1.40726 -3.16855 0
M  V30 35365 C 3286.52 -2.6252 -3.39679 0
M  V30 35366 C 3285.76 -2.53977 -4.69395 0
M  V30 35367 O 3285.98 -1.58161 -5.48034 0
M  V30 35368 O 3284.91 -3.44297 -4.93703 0
M  V30 35369 H 3288.74 -2.46141 -1.77899 0
M  V30 35370 H 3286.32 -1.24817 -0.821037 0
M  V30 35371 H 3288.21 -1.38131 -3.98118 0
M  V30 35372 H 3286.88 -0.47401 -3.20211 0
M  V30 35373 H 3285.79 -2.70688 -2.58222 0
M  V30 35374 H 3287.12 -3.5478 -3.41162 0
M  V30 35375 N 3288.77 0.901258 -1.29287 0
M  V30 35376 C 3290.02 1.6516 -1.17168 0
M  V30 35377 C 3290.35 1.92515 0.27715 0
M  V30 35378 O 3289.6 1.53275 1.21677 0
M  V30 35379 C 3289.9 3.00892 -1.9287 0
M  V30 35380 C 3289.57 2.93151 -3.42598 0
M  V30 35381 C 3288.23 2.90747 -3.83432 0
M  V30 35382 C 3290.58 2.82473 -4.38016 0
M  V30 35383 C 3287.91 2.75483 -5.18002 0
M  V30 35384 C 3290.26 2.68749 -5.72675 0
M  V30 35385 C 3288.93 2.6471 -6.12768 0
M  V30 35386 H 3288.2 0.604364 -0.428748 0
M  V30 35387 H 3290.84 1.04911 -1.60206 0
M  V30 35388 H 3289.15 3.64999 -1.42418 0
M  V30 35389 H 3290.84 3.57878 -1.80899 0
M  V30 35390 H 3287.43 2.95823 -3.1014 0
M  V30 35391 H 3291.62 2.83409 -4.07422 0
M  V30 35392 H 3286.87 2.70759 -5.48178 0
M  V30 35393 H 3291.05 2.59458 -6.46262 0
M  V30 35394 H 3288.68 2.5264 -7.16992 0
M  V30 35395 N 3290.25 1.11738 1.11141 0
M  V30 35396 C 3291.18 0.800833 2.19337 0
M  V30 35397 C 3292.16 -0.23218 1.68508 0
M  V30 35398 O 3293.35 -0.0949722 1.93968 0
M  V30 35399 C 3290.48 0.24664 3.46423 0
M  V30 35400 C 3289.43 1.21188 4.10484 0
M  V30 35401 C 3288.76 0.518251 5.32183 0
M  V30 35402 C 3290.06 2.56376 4.55048 0
M  V30 35403 H 3291.75 1.70552 2.46074 0
M  V30 35404 H 3289.3 0.821475 1.1827 0
M  V30 35405 H 3291.25 0.0129629 4.21398 0
M  V30 35406 H 3289.97 -0.693358 3.19155 0
M  V30 35407 H 3288.63 1.43124 3.37507 0
M  V30 35408 H 3288.28 -0.426654 5.01187 0
M  V30 35409 H 3287.98 1.16206 5.75995 0
M  V30 35410 H 3289.5 0.29344 6.09894 0
M  V30 35411 H 3290.92 2.38511 5.21331 0
M  V30 35412 H 3289.32 3.16767 5.09685 0
M  V30 35413 H 3290.39 3.15366 3.68337 0
M  V30 35414 N 3291.73 -1.28802 0.90817 0
M  V30 35415 C 3292.96 -1.99342 0.554125 0
M  V30 35416 C 3293.37 -1.6791 -0.863233 0
M  V30 35417 O 3292.73 -0.928778 -1.57099 0
M  V30 35418 C 3292.78 -3.53698 0.746978 0
M  V30 35419 O 3292.5 -3.8402 2.10856 0
M  V30 35420 C 3294 -4.41501 0.399017 0
M  V30 35421 H 3291.22 -0.636698 0.211795 0
M  V30 35422 H 3293.77 -1.64134 1.21984 0
M  V30 35423 H 3291.92 -3.87187 0.128332 0
M  V30 35424 H 3292.33 -4.78673 2.14413 0
M  V30 35425 H 3293.81 -5.48894 0.584752 0
M  V30 35426 H 3294.29 -4.34145 -0.664441 0
M  V30 35427 H 3294.89 -4.13498 0.994965 0
M  V30 35428 N 3293.21 -0.67155 -1.42576 0
M  V30 35429 C 3294.15 0.00879619 -2.30798 0
M  V30 35430 C 3295.12 0.796051 -1.45781 0
M  V30 35431 O 3296.31 0.768957 -1.74619 0
M  V30 35432 C 3293.45 0.956393 -3.31583 0
M  V30 35433 C 3292.56 0.163305 -4.31691 0
M  V30 35434 C 3291.7 1.10636 -5.19551 0
M  V30 35435 C 3290.74 0.304768 -6.11341 0
M  V30 35436 N 3289.87 1.20036 -6.91763 0
M  V30 35437 H 3294.71 -0.749352 -2.88425 0
M  V30 35438 H 3292.25 -0.381276 -1.42073 0
M  V30 35439 H 3294.21 1.51959 -3.88541 0
M  V30 35440 H 3292.84 1.68121 -2.75564 0
M  V30 35441 H 3291.89 -0.516462 -3.76878 0
M  V30 35442 H 3293.2 -0.459187 -4.96682 0
M  V30 35443 H 3292.36 1.73959 -5.81226 0
M  V30 35444 H 3291.09 1.76274 -4.54729 0
M  V30 35445 H 3290.1 -0.341694 -5.48737 0
M  V30 35446 H 3291.32 -0.347471 -6.7821 0
M  V30 35447 H 3289.27 1.8432 -6.29573 0
M  V30 35448 H 3289.19 0.632871 -7.53346 0
M  V30 35449 H 3290.46 1.82116 -7.57927 0
M  V30 35450 N 3294.68 1.52047 -0.414663 0
M  V30 35451 C 3295.59 2.30903 0.41482 0
M  V30 35452 C 3296.61 1.3886 1.04852 0
M  V30 35453 O 3297.79 1.71934 1.04883 0
M  V30 35454 C 3294.85 3.1192 1.5135 0
M  V30 35455 C 3293.91 4.19711 0.902285 0
M  V30 35456 C 3293.15 4.96855 1.94861 0
M  V30 35457 O 3293.37 4.74363 3.16758 0
M  V30 35458 O 3292.3 5.81553 1.55176 0
M  V30 35459 H 3296.13 3.02841 -0.228304 0
M  V30 35460 H 3293.71 1.48339 -0.17773 0
M  V30 35461 H 3295.6 3.62355 2.15121 0
M  V30 35462 H 3294.27 2.42771 2.14112 0
M  V30 35463 H 3293.18 3.7341 0.227144 0
M  V30 35464 H 3294.51 4.91168 0.318501 0
M  V30 35465 N 3296.16 0.145261 1.56929 0
M  V30 35466 C 3297.39 -0.516528 2.00865 0
M  V30 35467 C 3297.81 -1.5774 1.02469 0
M  V30 35468 O 3297.17 -1.813 0.000177307 0
M  V30 35469 C 3297.22 -1.09557 3.43554 0
M  V30 35470 O 3296.32 -2.21049 3.48154 0
M  V30 35471 H 3295.66 -0.12651 0.651837 0
M  V30 35472 H 3298.19 0.241481 2.0317 0
M  V30 35473 H 3298.2 -1.42466 3.82318 0
M  V30 35474 H 3296.88 -0.318677 4.14677 0
M  V30 35475 H 3295.46 -1.89381 3.21231 0
M  V30 35476 N 3297.64 -1.57075 -0.128525 0
M  V30 35477 C 3298.59 -1.99642 -1.15808 0
M  V30 35478 C 3299.56 -0.866985 -1.41678 0
M  V30 35479 O 3300.74 -1.13048 -1.53703 0
M  V30 35480 C 3297.88 -2.39779 -2.48194 0
M  V30 35481 C 3297 -3.66096 -2.29341 0
M  V30 35482 C 3296.13 -3.95254 -3.54891 0
M  V30 35483 C 3295.17 -5.14784 -3.31155 0
M  V30 35484 N 3294.31 -5.3986 -4.48882 0
M  V30 35485 H 3299.15 -2.8739 -0.788086 0
M  V30 35486 H 3296.68 -1.42169 -0.377657 0
M  V30 35487 H 3298.64 -2.61083 -3.2541 0
M  V30 35488 H 3297.27 -1.55085 -2.83105 0
M  V30 35489 H 3296.32 -3.52462 -1.43089 0
M  V30 35490 H 3297.64 -4.53466 -2.07773 0
M  V30 35491 H 3296.79 -4.17156 -4.40529 0
M  V30 35492 H 3295.53 -3.06341 -3.79481 0
M  V30 35493 H 3294.53 -4.92737 -2.43906 0
M  V30 35494 H 3295.76 -6.05266 -3.07944 0
M  V30 35495 H 3293.71 -4.53904 -4.73611 0
M  V30 35496 H 3293.62 -6.21535 -4.30383 0
M  V30 35497 H 3294.89 -5.66274 -5.35681 0
M  V30 35498 N 3299.12 0.398432 -1.5248 0
M  V30 35499 C 3300.05 1.49276 -1.79552 0
M  V30 35500 C 3301.03 1.57313 -0.647032 0
M  V30 35501 O 3302.22 1.72415 -0.893691 0
M  V30 35502 C 3299.35 2.8699 -1.95587 0
M  V30 35503 C 3298.3 2.93797 -3.11235 0
M  V30 35504 C 3297.63 4.33869 -3.12509 0
M  V30 35505 C 3298.93 2.64304 -4.50489 0
M  V30 35506 H 3300.62 1.26872 -2.7119 0
M  V30 35507 H 3298.17 0.608901 -1.30493 0
M  V30 35508 H 3300.12 3.63542 -2.13108 0
M  V30 35509 H 3298.84 3.10711 -1.0063 0
M  V30 35510 H 3297.5 2.19691 -2.93481 0
M  V30 35511 H 3297.15 4.54615 -2.15253 0
M  V30 35512 H 3296.85 4.39346 -3.9019 0
M  V30 35513 H 3298.37 5.12341 -3.32173 0
M  V30 35514 H 3299.79 3.30576 -4.68393 0
M  V30 35515 H 3298.18 2.81144 -5.30168 0
M  V30 35516 H 3299.25 1.59688 -4.57851 0
M  V30 35517 N 3300.6 1.43284 0.656314 0
M  V30 35518 C 3302.01 1.26616 0.971623 0
M  V30 35519 C 3302.21 0.183647 2.00661 0
M  V30 35520 O 3301.27 -0.43896 2.48655 0
M  V30 35521 C 3302.58 2.62942 1.45883 0
M  V30 35522 C 3304.13 2.70449 1.57564 0
M  V30 35523 C 3304.61 4.07185 2.09677 0
M  V30 35524 N 3306.1 4.09234 2.16984 0
M  V30 35525 C 3306.83 5.11865 2.58421 0
M  V30 35526 N 3306.33 6.24872 2.99177 0
M  V30 35527 N 3308.12 4.9922 2.58334 0
M  V30 35528 H 3300.27 2.12381 -0.0286104 0
M  V30 35529 H 3302.53 0.946692 0.0497751 0
M  V30 35530 H 3302.24 3.43105 0.772762 0
M  V30 35531 H 3302.11 2.88126 2.4344 0
M  V30 35532 H 3304.5 1.9062 2.25273 0
M  V30 35533 H 3304.58 2.49033 0.584485 0
M  V30 35534 H 3304.23 4.87479 1.42571 0
M  V30 35535 H 3304.16 4.25963 3.09618 0
M  V30 35536 H 3306.65 3.27661 1.88272 0
M  V30 35537 H 3306.96 6.99018 3.29536 0
M  V30 35538 H 3305.31 6.28349 2.96989 0
M  V30 35539 H 3308.5 4.10002 2.25868 0
M  V30 35540 H 3308.67 5.79333 2.90305 0
M  V30 35541 N 3302.08 -0.894389 1.29763 0
M  V30 35542 C 3303.32 -1.64004 1.17412 0
M  V30 35543 C 3303.64 -1.93695 -0.272321 0
M  V30 35544 O 3304.84 -2.66528 -0.517222 0
M  V30 35545 C 3303.3 -2.95542 2.05385 0
M  V30 35546 C 3302.91 -2.73426 3.54883 0
M  V30 35547 C 3304.65 -3.73482 2.01772 0
M  V30 35548 C 3302.56 -4.00723 4.34942 0
M  V30 35549 H 3301.49 -0.615271 0.435841 0
M  V30 35550 H 3304.14 -0.990956 1.54442 0
M  V30 35551 H 3302.52 -3.61692 1.61228 0
M  V30 35552 H 3303.7 -2.15836 4.07126 0
M  V30 35553 H 3302.01 -2.08876 3.60222 0
M  V30 35554 H 3304.61 -4.67872 2.58843 0
M  V30 35555 H 3304.95 -4.04137 0.998947 0
M  V30 35556 H 3305.48 -3.1418 2.43999 0
M  V30 35557 H 3302.22 -3.75232 5.37477 0
M  V30 35558 H 3301.74 -4.57853 3.87466 0
M  V30 35559 H 3303.42 -4.68825 4.45884 0
M  V30 35560 N 3303.55 -1.12326 -1.10547 0
M  V30 35561 C 3304.78 -0.899345 -1.85998 0
M  V30 35562 C 3305.19 0.554822 -1.80882 0
M  V30 35563 O 3304.53 1.39529 -1.19488 0
M  V30 35564 C 3304.6 -1.29457 -3.35382 0
M  V30 35565 C 3304.26 -2.7598 -3.64258 0
M  V30 35566 C 3305.26 -3.74175 -3.60955 0
M  V30 35567 C 3302.94 -3.12857 -3.9297 0
M  V30 35568 C 3304.94 -5.07263 -3.85957 0
M  V30 35569 C 3302.62 -4.46127 -4.17629 0
M  V30 35570 C 3303.62 -5.43139 -4.14112 0
M  V30 35571 O 3303.31 -6.74007 -4.38144 0
M  V30 35572 H 3303.04 -0.321347 -0.594737 0
M  V30 35573 H 3305.6 -1.49669 -1.40671 0
M  V30 35574 H 3303.83 -0.640425 -3.8136 0
M  V30 35575 H 3305.51 -1.04498 -3.92218 0
M  V30 35576 H 3306.28 -3.47031 -3.38813 0
M  V30 35577 H 3302.16 -2.37957 -3.94839 0
M  V30 35578 H 3305.7 -5.82974 -3.83128 0
M  V30 35579 H 3301.6 -4.73001 -4.3925 0
M  V30 35580 H 3302.37 -6.79935 -4.55665 0
M  V30 35581 N 3305.03 1.28319 -0.914988 0
M  V30 35582 C 3306.26 1.98756 -0.56387 0
M  V30 35583 C 3306.67 1.6855 0.859498 0
M  V30 35584 O 3306.01 0.935364 1.58103 0
M  V30 35585 C 3306.07 3.52726 -0.694601 0
M  V30 35586 C 3305.74 4.06525 -2.08774 0
M  V30 35587 C 3306.74 4.20266 -3.06059 0
M  V30 35588 C 3304.42 4.41186 -2.40126 0
M  V30 35589 C 3306.41 4.67924 -4.32812 0
M  V30 35590 C 3304.1 4.88537 -3.67117 0
M  V30 35591 C 3305.1 5.01863 -4.63273 0
M  V30 35592 O 3304.79 5.48181 -5.88007 0
M  V30 35593 H 3304.52 0.641377 -0.213568 0
M  V30 35594 H 3307.07 1.64451 -1.23065 0
M  V30 35595 H 3305.3 3.86689 0.0292506 0
M  V30 35596 H 3306.99 4.04385 -0.350406 0
M  V30 35597 H 3307.76 3.93761 -2.83157 0
M  V30 35598 H 3303.64 4.30063 -1.66032 0
M  V30 35599 H 3307.18 4.78241 -5.0787 0
M  V30 35600 H 3303.08 5.14483 -3.89844 0
M  V30 35601 H 3303.85 5.66464 -5.90814 0
M  V30 35602 N 3306.51 0.679102 1.42218 0
M  V30 35603 C 3307.74 0.211685 2.05814 0
M  V30 35604 C 3308.15 -1.13281 1.51039 0
M  V30 35605 O 3307.51 -1.70459 0.651924 0
M  V30 35606 C 3307.56 0.142727 3.61218 0
M  V30 35607 O 3307.28 1.4341 4.13963 0
M  V30 35608 C 3308.78 -0.347668 4.41935 0
M  V30 35609 H 3306 0.101926 0.663213 0
M  V30 35610 H 3308.55 0.92705 1.8228 0
M  V30 35611 H 3306.7 -0.523353 3.83849 0
M  V30 35612 H 3307.12 1.31029 5.0787 0
M  V30 35613 H 3308.59 -0.344819 5.50922 0
M  V30 35614 H 3309.07 -1.38369 4.16834 0
M  V30 35615 H 3309.67 0.286826 4.24332 0
M  V30 35616 N 3307.99 -1.51825 0.42272 0
M  V30 35617 C 3309.22 -2.06372 -0.147708 0
M  V30 35618 C 3309.63 -1.29155 -1.37712 0
M  V30 35619 O 3308.99 -0.347077 -1.79169 0
M  V30 35620 C 3309.04 -3.58237 -0.484579 0
M  V30 35621 O 3308.76 -4.32536 0.69602 0
M  V30 35622 C 3310.26 -4.29249 -1.10727 0
M  V30 35623 H 3307.48 -0.670846 -0.0143929 0
M  V30 35624 H 3310.02 -1.95574 0.597592 0
M  V30 35625 H 3308.18 -3.68999 -1.17977 0
M  V30 35626 H 3308.59 -5.22883 0.411563 0
M  V30 35627 H 3310.07 -5.36641 -1.29308 0
M  V30 35628 H 3310.54 -3.86597 -2.08422 0
M  V30 35629 H 3311.15 -4.22893 -0.451884 0
M  V30 35630 N 3309.47 -0.153581 -1.5685 0
M  V30 35631 C 3310.38 0.796489 -2.20665 0
M  V30 35632 C 3311.39 1.26671 -1.19291 0
M  V30 35633 O 3312.57 1.32253 -1.51891 0
M  V30 35634 C 3309.63 2.01556 -2.82092 0
M  V30 35635 C 3308.69 1.59394 -3.98613 0
M  V30 35636 C 3307.93 2.7549 -4.57101 0
M  V30 35637 O 3308.15 3.91883 -4.14469 0
M  V30 35638 O 3307.08 2.50584 -5.47258 0
M  V30 35639 H 3310.91 0.283229 -3.02376 0
M  V30 35640 H 3308.49 0.0737665 -1.49218 0
M  V30 35641 H 3310.38 2.72887 -3.21108 0
M  V30 35642 H 3309.05 2.51822 -2.0339 0
M  V30 35643 H 3307.96 0.850661 -3.643 0
M  V30 35644 H 3309.29 1.13837 -4.78855 0
M  V30 35645 N 3310.94 1.57141 0.120193 0
M  V30 35646 C 3312.36 1.52408 0.473691 0
M  V30 35647 C 3312.56 0.866386 1.81923 0
M  V30 35648 O 3311.62 0.448217 2.4849 0
M  V30 35649 C 3312.93 2.97172 0.459285 0
M  V30 35650 C 3314.48 3.08255 0.542921 0
M  V30 35651 C 3314.95 4.54577 0.558916 0
M  V30 35652 N 3316.44 4.59027 0.620388 0
M  V30 35653 C 3317.18 5.69656 0.654192 0
M  V30 35654 N 3316.67 6.89784 0.645714 0
M  V30 35655 N 3318.47 5.57761 0.69711 0
M  V30 35656 H 3310.62 1.98282 -0.761455 0
M  V30 35657 H 3312.88 0.905474 -0.280752 0
M  V30 35658 H 3312.59 3.48656 -0.461715 0
M  V30 35659 H 3312.46 3.54546 1.28752 0
M  V30 35660 H 3314.85 2.56774 1.45434 0
M  V30 35661 H 3314.93 2.53878 -0.312981 0
M  V30 35662 H 3314.57 5.06703 -0.348456 0
M  V30 35663 H 3314.5 5.06765 1.43168 0
M  V30 35664 H 3316.99 3.72558 0.633153 0
M  V30 35665 H 3317.31 7.69854 0.674098 0
M  V30 35666 H 3315.65 6.9229 0.613157 0
M  V30 35667 H 3318.84 4.6282 0.701089 0
M  V30 35668 H 3319.02 6.43988 0.719987 0
M  V30 35669 N 3312.42 -0.39034 1.5269 0
M  V30 35670 C 3313.7 -1.14965 1.58248 0
M  V30 35671 C 3314.08 -2.07745 0.374844 0
M  V30 35672 O 3313.43 -2.19443 -0.636931 0
M  V30 35673 C 3313.64 -1.91051 2.92063 0
M  V30 35674 C 3314.99 -2.4646 3.4575 0
M  V30 35675 O 3316.01 -2.01209 2.93928 0
M  V30 35676 O 3314.87 -3.29115 4.36286 0
M  V30 35677 H 3311.96 -0.525959 0.638198 0
M  V30 35678 H 3314.51 -0.395601 1.65025 0
M  V30 35679 H 3313.28 -1.23195 3.71401 0
M  V30 35680 H 3312.9 -2.7342 2.88665 0
M  V30 35681 N 3313.9 -1.4363 -0.648706 0
M  V30 35682 C 3314.81 -1.51594 -1.79043 0
M  V30 35683 C 3315.83 -0.402727 -1.69275 0
M  V30 35684 O 3317 -0.657517 -1.90365 0
M  V30 35685 C 3314.07 -1.44078 -3.15345 0
M  V30 35686 C 3313.13 -2.66108 -3.36876 0
M  V30 35687 C 3312.36 -2.58941 -4.66675 0
M  V30 35688 O 3312.58 -1.63965 -5.46326 0
M  V30 35689 O 3311.52 -3.49514 -4.90024 0
M  V30 35690 H 3315.34 -2.48014 -1.75278 0
M  V30 35691 H 3312.93 -1.25681 -0.807752 0
M  V30 35692 H 3314.81 -1.42346 -3.9663 0
M  V30 35693 H 3313.49 -0.507946 -3.1969 0
M  V30 35694 H 3312.39 -2.73412 -2.55337 0
M  V30 35695 H 3313.73 -3.58379 -3.3738 0
M  V30 35696 N 3315.38 0.887495 -1.30236 0
M  V30 35697 C 3316.31 1.99851 -1.12215 0
M  V30 35698 C 3317.32 1.62666 -0.0661215 0
M  V30 35699 O 3318.51 1.75754 -0.311884 0
M  V30 35700 C 3315.61 3.3183 -0.688649 0
M  V30 35701 C 3314.79 3.97467 -1.82588 0
M  V30 35702 C 3313.84 5.07745 -1.38135 0
M  V30 35703 O 3312.87 5.29514 -2.08814 0
M  V30 35704 N 3314.07 5.79922 -0.25897 0
M  V30 35705 H 3316.84 2.1586 -2.07905 0
M  V30 35706 H 3314.4 1.06043 -1.22338 0
M  V30 35707 H 3316.39 4.02965 -0.374323 0
M  V30 35708 H 3314.96 3.12103 0.176131 0
M  V30 35709 H 3314.18 3.19537 -2.30846 0
M  V30 35710 H 3315.47 4.38061 -2.58806 0
M  V30 35711 H 3314.87 5.64736 0.330032 0
M  V30 35712 H 3313.42 6.518 -0.0040827 0
M  V30 35713 N 3316.86 1.12911 1.0995 0
M  V30 35714 C 3318.1 0.885761 1.81655 0
M  V30 35715 C 3318.43 -0.58988 1.85864 0
M  V30 35716 O 3317.7 -1.42872 1.34031 0
M  V30 35717 H 3316.28 0.324706 0.672737 0
M  V30 35718 H 3318.94 1.42458 1.3301 0
M  V30 35719 H 3318.03 1.27172 2.85015 0
M  V30 35720 N 3318.33 -1.27832 0.92178 0
M  V30 35721 C 3319.56 -1.9928 0.574635 0
M  V30 35722 C 3319.98 -1.68358 -0.838875 0
M  V30 35723 O 3319.34 -0.920495 -1.56194 0
M  V30 35724 C 3319.39 -3.51612 0.800088 0
M  V30 35725 O 3318.49 -4.12172 -0.137143 0
M  V30 35726 H 3317.84 -0.625825 0.221898 0
M  V30 35727 H 3320.37 -1.62787 1.23941 0
M  V30 35728 H 3320.38 -4.01716 0.71333 0
M  V30 35729 H 3319.05 -3.73452 1.83048 0
M  V30 35730 H 3317.63 -3.729 -0.000973171 0
M  V30 35731 N 3319.81 -0.686634 -1.41856 0
M  V30 35732 C 3320.76 -0.0156836 -2.30795 0
M  V30 35733 C 3321.73 0.780544 -1.46618 0
M  V30 35734 O 3322.91 0.750393 -1.75424 0
M  V30 35735 C 3320.05 0.921171 -3.32578 0
M  V30 35736 C 3319.17 0.11751 -4.3184 0
M  V30 35737 C 3318.3 1.05119 -5.20695 0
M  V30 35738 C 3317.34 0.23991 -6.1163 0
M  V30 35739 N 3316.48 1.12692 -6.92997 0
M  V30 35740 H 3321.32 -0.779901 -2.87614 0
M  V30 35741 H 3318.86 -0.396323 -1.4166 0
M  V30 35742 H 3320.81 1.47829 -3.90131 0
M  V30 35743 H 3319.44 1.65189 -2.77331 0
M  V30 35744 H 3318.5 -0.556406 -3.76309 0
M  V30 35745 H 3319.81 -0.511841 -4.96167 0
M  V30 35746 H 3318.96 1.67784 -5.83038 0
M  V30 35747 H 3317.7 1.71441 -4.56573 0
M  V30 35748 H 3316.71 -0.399875 -5.48344 0
M  V30 35749 H 3317.93 -0.419385 -6.77804 0
M  V30 35750 H 3315.88 1.77633 -6.31492 0
M  V30 35751 H 3315.79 0.552933 -7.53975 0
M  V30 35752 H 3317.06 1.74067 -7.59816 0
M  V30 35753 N 3321.29 1.51599 -0.430766 0
M  V30 35754 C 3322.54 2.01218 0.139361 0
M  V30 35755 C 3322.85 1.31984 1.44359 0
M  V30 35756 O 3324.06 1.72537 2.09627 0
M  V30 35757 C 3322.51 3.58657 0.298906 0
M  V30 35758 C 3322.12 4.36822 -0.994501 0
M  V30 35759 C 3323.87 4.16443 0.823157 0
M  V30 35760 C 3321.77 5.85951 -0.800958 0
M  V30 35761 H 3320.7 0.751928 0.0558566 0
M  V30 35762 H 3323.35 1.74762 -0.559523 0
M  V30 35763 H 3321.74 3.81532 1.06064 0
M  V30 35764 H 3322.91 4.25697 -1.76405 0
M  V30 35765 H 3321.23 3.90457 -1.44679 0
M  V30 35766 H 3323.82 5.25561 0.984342 0
M  V30 35767 H 3324.17 3.75191 1.80382 0
M  V30 35768 H 3324.7 3.97619 0.119912 0
M  V30 35769 H 3321.44 6.31603 -1.7538 0
M  V30 35770 H 3320.96 5.99758 -0.0710847 0
M  V30 35771 H 3322.64 6.45422 -0.451573 0
M  V30 35772 N 3322.77 0.161897 1.56766 0
M  V30 35773 C 3323.72 -0.789035 2.18808 0
M  V30 35774 C 3324.71 -1.24443 1.14936 0
M  V30 35775 O 3325.92 -1.21118 1.33156 0
M  V30 35776 H 3322.29 -0.2727 0.700813 0
M  V30 35777 H 3324.26 -0.241713 2.97419 0
M  V30 35778 C 3323.01 -2.01202 2.83572 0
M  V30 35779 H 3322.33 -1.67062 3.63222 0
M  V30 35780 H 3323.77 -2.65648 3.30465 0
M  V30 35781 C 3322.23 -2.82961 1.82851 0
M  V30 35782 O 3322.76 -3.79803 1.30816 0
M  V30 35783 N 3320.97 -2.47789 1.5182 0
M  V30 35784 H 3320.52 -1.69099 1.94327 0
M  V30 35785 H 3320.47 -3.02782 0.846795 0
M  V30 35786 N 3324.25 -1.57203 -0.111858 0
M  V30 35787 C 3325.52 -1.76209 -0.849094 0
M  V30 35788 C 3325.9 -0.739225 -1.97734 0
M  V30 35789 O 3325.25 0.235483 -2.27283 0
M  V30 35790 C 3325.46 -3.21445 -1.35918 0
M  V30 35791 C 3326.81 -3.84151 -1.80868 0
M  V30 35792 O 3327.83 -3.25092 -1.45581 0
M  V30 35793 O 3326.69 -4.87974 -2.46057 0
M  V30 35794 H 3323.79 -0.721745 -0.403748 0
M  V30 35795 H 3326.33 -1.69434 -0.0950428 0
M  V30 35796 H 3325.1 -3.87415 -0.550045 0
M  V30 35797 H 3324.73 -3.32788 -2.17574 0
M  V30 35798 N 3325.72 0.382237 -1.52894 0
M  V30 35799 C 3326.97 1.1266 -1.68268 0
M  V30 35800 C 3327.3 1.89777 -0.426007 0
M  V30 35801 O 3326.55 1.86539 0.591747 0
M  V30 35802 C 3326.85 2.12571 -2.87312 0
M  V30 35803 C 3326.52 1.5206 -4.24486 0
M  V30 35804 C 3325.18 1.35283 -4.61792 0
M  V30 35805 C 3327.53 1.08129 -5.0986 0
M  V30 35806 C 3324.86 0.731346 -5.82124 0
M  V30 35807 C 3327.21 0.473875 -6.30823 0
M  V30 35808 C 3325.88 0.293467 -6.66855 0
M  V30 35809 H 3325.15 0.412251 -0.615736 0
M  V30 35810 H 3327.79 0.410392 -1.87051 0
M  V30 35811 H 3326.1 2.90435 -2.62973 0
M  V30 35812 H 3327.8 2.70087 -2.96402 0
M  V30 35813 H 3324.39 1.66107 -3.95103 0
M  V30 35814 H 3328.57 1.19889 -4.81602 0
M  V30 35815 H 3323.83 0.579831 -6.08644 0
M  V30 35816 H 3328 0.125201 -6.96287 0
M  V30 35817 H 3325.63 -0.190187 -7.59962 0
M  V30 35818 N 3327.2 1.43972 0.64108 0
M  V30 35819 C 3328.45 1.46231 1.40081 0
M  V30 35820 C 3328.78 0.0911352 1.94286 0
M  V30 35821 O 3328.03 -0.905657 1.73483 0
M  V30 35822 C 3328.33 2.46188 2.59088 0
M  V30 35823 C 3328 3.91764 2.2323 0
M  V30 35824 C 3326.66 4.3141 2.13163 0
M  V30 35825 C 3329.01 4.83453 1.94738 0
M  V30 35826 C 3326.34 5.60682 1.72778 0
M  V30 35827 C 3328.69 6.13102 1.55848 0
M  V30 35828 C 3327.36 6.51713 1.44315 0
M  V30 35829 H 3326.63 0.535097 0.512594 0
M  V30 35830 H 3329.27 1.77126 0.727924 0
M  V30 35831 H 3327.58 2.0874 3.31564 0
M  V30 35832 H 3329.28 2.45186 3.17309 0
M  V30 35833 H 3325.87 3.60393 2.3198 0
M  V30 35834 H 3330.05 4.53585 2.0143 0
M  V30 35835 H 3325.31 5.89425 1.62445 0
M  V30 35836 H 3329.48 6.83614 1.32836 0
M  V30 35837 H 3327.11 7.51786 1.12793 0
M  V30 35838 N 3328.68 -0.880575 1.30704 0
M  V30 35839 C 3329.61 -2.00283 1.20037 0
M  V30 35840 C 3330.59 -1.69862 0.0899913 0
M  V30 35841 O 3331.78 -1.92275 0.27278 0
M  V30 35842 C 3328.91 -3.35544 0.89596 0
M  V30 35843 C 3327.86 -3.80239 1.96475 0
M  V30 35844 C 3327.19 -5.1284 1.51325 0
M  V30 35845 C 3328.49 -3.9849 3.37644 0
M  V30 35846 H 3330.18 -2.09466 2.13926 0
M  V30 35847 H 3327.73 -1.00642 1.02991 0
M  V30 35848 H 3329.68 -4.13582 0.807971 0
M  V30 35849 H 3328.4 -3.26505 -0.0786062 0
M  V30 35850 H 3327.06 -3.04433 2.04245 0
M  V30 35851 H 3326.71 -5.00233 0.526828 0
M  V30 35852 H 3326.41 -5.43715 2.22817 0
M  V30 35853 H 3327.94 -5.93398 1.43913 0
M  V30 35854 H 3329.35 -4.66953 3.32608 0
M  V30 35855 H 3327.75 -4.40748 4.07261 0
M  V30 35856 H 3328.82 -3.02204 3.7921 0
M  V30 35857 N 3330.16 -1.13492 -1.09349 0
M  V30 35858 C 3331.58 -0.873292 -1.33588 0
M  V30 35859 C 3331.78 0.490733 -1.95433 0
M  V30 35860 O 3330.83 1.23708 -2.20119 0
M  V30 35861 C 3332.14 -1.99851 -2.24677 0
M  V30 35862 C 3333.69 -2.0307 -2.38184 0
M  V30 35863 C 3334.17 -3.14857 -3.3261 0
M  V30 35864 N 3335.66 -3.14372 -3.40183 0
M  V30 35865 C 3336.39 -3.97508 -4.13249 0
M  V30 35866 N 3335.89 -4.90661 -4.89105 0
M  V30 35867 N 3337.68 -3.85604 -4.08981 0
M  V30 35868 H 3329.83 -2.01362 -0.675817 0
M  V30 35869 H 3332.1 -0.876882 -0.360252 0
M  V30 35870 H 3331.8 -2.98202 -1.86464 0
M  V30 35871 H 3331.68 -1.91333 -3.25071 0
M  V30 35872 H 3334.06 -1.05332 -2.75661 0
M  V30 35873 H 3334.14 -2.1566 -1.37566 0
M  V30 35874 H 3333.79 -4.12834 -2.95856 0
M  V30 35875 H 3333.72 -2.99504 -4.33134 0
M  V30 35876 H 3336.21 -2.46897 -2.86095 0
M  V30 35877 H 3336.52 -5.50583 -5.4229 0
M  V30 35878 H 3334.87 -4.94666 -4.88191 0
M  V30 35879 H 3338.06 -3.12157 -3.48821 0
M  V30 35880 H 3338.23 -4.50624 -4.65663 0
M  V30 35881 N 3331.64 1.27341 -0.928546 0
M  V30 35882 C 3332.86 1.98973 -0.585195 0
M  V30 35883 C 3333.29 1.68801 0.829935 0
M  V30 35884 O 3332.65 0.928765 1.55704 0
M  V30 35885 C 3332.69 3.51183 -0.818724 0
M  V30 35886 O 3331.8 4.12239 0.115283 0
M  V30 35887 H 3331.14 0.62464 -0.225214 0
M  V30 35888 H 3333.67 1.62128 -1.24803 0
M  V30 35889 H 3333.68 4.01332 -0.734624 0
M  V30 35890 H 3332.35 3.72476 -1.85026 0
M  V30 35891 H 3330.93 3.72895 -0.0188026 0
M  V30 35892 N 3333.12 0.694147 1.4149 0
M  V30 35893 C 3334.03 0.0283827 2.34583 0
M  V30 35894 C 3335.04 -0.767635 1.56152 0
M  V30 35895 O 3336.22 -0.705523 1.88638 0
M  V30 35896 C 3333.28 -0.897667 3.34877 0
M  V30 35897 C 3332.34 -0.0940151 4.29197 0
M  V30 35898 C 3331.58 -0.975959 5.24701 0
M  V30 35899 O 3331.8 -2.21547 5.25617 0
M  V30 35900 O 3330.73 -0.426398 6.00388 0
M  V30 35901 H 3334.56 0.795708 2.93091 0
M  V30 35902 H 3332.14 0.454475 1.4232 0
M  V30 35903 H 3334.03 -1.42873 3.96441 0
M  V30 35904 H 3332.7 -1.64451 2.78815 0
M  V30 35905 H 3331.61 0.481618 3.70987 0
M  V30 35906 H 3332.94 0.614131 4.88354 0
M  V30 35907 N 3334.59 -1.51368 0.438799 0
M  V30 35908 C 3335.87 -1.94702 -0.187186 0
M  V30 35909 C 3336.25 -1.37754 -1.59959 0
M  V30 35910 O 3335.6 -0.56521 -2.21399 0
M  V30 35911 C 3335.81 -3.48617 -0.163429 0
M  V30 35912 C 3337.16 -4.23 -0.368281 0
M  V30 35913 O 3338.18 -3.55381 -0.241479 0
M  V30 35914 O 3337.04 -5.42962 -0.62082 0
M  V30 35915 H 3334.13 -0.816849 -0.12918 0
M  V30 35916 H 3336.68 -1.62263 0.496883 0
M  V30 35917 H 3335.45 -3.82527 0.823949 0
M  V30 35918 H 3335.07 -3.87503 -0.890346 0
M  V30 35919 N 3336.07 -0.170208 -1.56678 0
M  V30 35920 C 3337 0.756174 -2.20917 0
M  V30 35921 C 3337.98 1.23995 -1.16445 0
M  V30 35922 O 3339.17 1.29331 -1.4487 0
M  V30 35923 C 3336.3 1.98612 -2.84905 0
M  V30 35924 C 3335.25 1.63824 -3.95406 0
M  V30 35925 C 3334.58 2.94275 -4.46438 0
M  V30 35926 C 3335.88 0.867104 -5.15052 0
M  V30 35927 H 3337.57 0.220723 -2.98585 0
M  V30 35928 H 3335.12 0.104723 -1.43619 0
M  V30 35929 H 3337.07 2.6392 -3.28518 0
M  V30 35930 H 3335.79 2.54569 -2.04603 0
M  V30 35931 H 3334.45 1.00885 -3.52445 0
M  V30 35932 H 3334.1 3.48269 -3.62929 0
M  V30 35933 H 3333.8 2.71752 -5.20984 0
M  V30 35934 H 3335.33 3.60614 -4.92737 0
M  V30 35935 H 3336.74 1.42275 -5.55365 0
M  V30 35936 H 3335.14 0.74096 -5.95508 0
M  V30 35937 H 3336.21 -0.136778 -4.84707 0
M  V30 35938 N 3337.55 1.5726 0.10352 0
M  V30 35939 C 3338.8 1.85658 0.808544 0
M  V30 35940 C 3339.12 0.757533 1.79142 0
M  V30 35941 O 3338.38 -0.249688 1.94101 0
M  V30 35942 C 3338.68 3.20608 1.5794 0
M  V30 35943 C 3338.34 4.44796 0.739424 0
M  V30 35944 C 3337.01 4.78513 0.507837 0
M  V30 35945 C 3339.36 5.2097 0.154942 0
M  V30 35946 C 3336.69 5.85836 -0.318232 0
M  V30 35947 C 3339.04 6.29164 -0.658402 0
M  V30 35948 C 3337.7 6.61403 -0.90016 0
M  V30 35949 H 3336.97 0.67937 0.295867 0
M  V30 35950 H 3339.62 1.91371 0.0703267 0
M  V30 35951 H 3337.92 3.10541 2.38896 0
M  V30 35952 H 3339.62 3.39806 2.12915 0
M  V30 35953 H 3336.21 4.18388 0.930029 0
M  V30 35954 H 3340.4 4.95261 0.321043 0
M  V30 35955 H 3335.65 6.0923 -0.514603 0
M  V30 35956 H 3339.83 6.87364 -1.11821 0
M  V30 35957 H 3337.45 7.44395 -1.54207 0
M  V30 35958 N 3339.03 -0.374123 1.53095 0
M  V30 35959 C 3339.98 -1.47821 1.79588 0
M  V30 35960 C 3340.97 -1.55821 0.66454 0
M  V30 35961 O 3342.18 -1.5881 0.847318 0
M  V30 35962 H 3338.55 -0.492272 0.568482 0
M  V30 35963 H 3340.52 -1.22676 2.72017 0
M  V30 35964 C 3339.27 -2.84768 1.99505 0
M  V30 35965 H 3338.59 -2.79368 2.85996 0
M  V30 35966 H 3340.03 -3.61222 2.22024 0
M  V30 35967 C 3338.49 -3.27942 0.771731 0
M  V30 35968 O 3339.02 -4.01676 -0.0437031 0
M  V30 35969 N 3337.23 -2.84389 0.597597 0
M  V30 35970 H 3336.78 -2.24552 1.26231 0
M  V30 35971 H 3336.73 -3.13633 -0.219523 0
M  V30 35972 N 3340.51 -1.4431 -0.633436 0
M  V30 35973 C 3341.42 -1.53485 -1.77425 0
M  V30 35974 C 3342.43 -0.420658 -1.68839 0
M  V30 35975 O 3343.61 -0.677671 -1.89656 0
M  V30 35976 C 3340.67 -1.47415 -3.13799 0
M  V30 35977 C 3339.73 -2.69666 -3.34034 0
M  V30 35978 C 3338.97 -2.63876 -4.63902 0
M  V30 35979 O 3339.19 -1.6975 -5.44556 0
M  V30 35980 O 3338.12 -3.54692 -4.86289 0
M  V30 35981 H 3341.95 -2.4986 -1.72638 0
M  V30 35982 H 3339.53 -1.26531 -0.794376 0
M  V30 35983 H 3341.42 -1.46544 -3.95098 0
M  V30 35984 H 3340.09 -0.541825 -3.19133 0
M  V30 35985 H 3339 -2.76105 -2.52422 0
M  V30 35986 H 3340.33 -3.61937 -3.3356 0
M  V30 35987 N 3341.98 0.873632 -1.3117 0
M  V30 35988 C 3342.92 1.98349 -1.1284 0
M  V30 35989 C 3343.9 1.62567 -0.0328965 0
M  V30 35990 O 3345.08 1.87554 -0.188623 0
M  V30 35991 C 3342.21 3.30885 -0.723378 0
M  V30 35992 C 3341.25 3.85652 -1.82139 0
M  V30 35993 S 3342.09 4.11556 -3.42611 0
M  V30 35994 C 3343.24 5.47094 -3.04037 0
M  V30 35995 H 3343.47 2.13594 -2.06797 0
M  V30 35996 H 3341.01 1.02338 -1.15613 0
M  V30 35997 H 3342.97 4.07487 -0.496443 0
M  V30 35998 H 3341.63 3.13481 0.197022 0
M  V30 35999 H 3340.82 4.81455 -1.49054 0
M  V30 36000 H 3340.42 3.15829 -2.00319 0
M  V30 36001 H 3342.71 6.28608 -2.52703 0
M  V30 36002 H 3343.66 5.85126 -3.9879 0
M  V30 36003 H 3344.06 5.10194 -2.41583 0
M  V30 36004 N 3343.46 1.1407 1.08746 0
M  V30 36005 C 3344.41 0.820019 2.17666 0
M  V30 36006 C 3345.4 -0.200624 1.68208 0
M  V30 36007 O 3346.61 -0.0570698 1.7991 0
M  V30 36008 H 3342.99 0.24744 0.710125 0
M  V30 36009 H 3344.96 1.74663 2.41941 0
M  V30 36010 C 3343.71 0.310046 3.46315 0
M  V30 36011 H 3343.03 1.08676 3.84746 0
M  V30 36012 H 3344.47 0.124169 4.23818 0
M  V30 36013 C 3342.93 -0.965667 3.22764 0
M  V30 36014 O 3343.46 -2.04012 3.46038 0
M  V30 36015 N 3341.66 -0.899527 2.76327 0
M  V30 36016 H 3341.21 -0.0250145 2.57588 0
M  V30 36017 H 3341.17 -1.75367 2.60948 0
M  V30 36018 N 3344.94 -1.26847 0.935286 0
M  V30 36019 C 3346.19 -1.94652 0.590091 0
M  V30 36020 C 3346.54 -1.72087 -0.860451 0
M  V30 36021 O 3345.83 -1.04382 -1.6067 0
M  V30 36022 C 3346.03 -3.4687 0.861159 0
M  V30 36023 C 3345.86 -3.84237 2.3365 0
M  V30 36024 C 3344.63 -4.07298 2.99059 0
M  V30 36025 C 3346.83 -3.93244 3.31457 0
M  V30 36026 N 3344.81 -4.31503 4.36667 0
M  V30 36027 C 3346.18 -4.21913 4.54301 0
M  V30 36028 C 3348.23 -3.75848 3.26562 0
M  V30 36029 C 3346.94 -4.34996 5.72862 0
M  V30 36030 C 3348.96 -3.9016 4.44442 0
M  V30 36031 C 3348.32 -4.19223 5.66067 0
M  V30 36032 H 3344.42 -0.735299 0.266195 0
M  V30 36033 H 3347.01 -1.53051 1.20347 0
M  V30 36034 H 3345.18 -3.87412 0.276871 0
M  V30 36035 H 3346.91 -4.01869 0.477827 0
M  V30 36036 H 3343.67 -4.02427 2.49699 0
M  V30 36037 H 3344.09 -4.47649 5.07877 0
M  V30 36038 H 3348.73 -3.52413 2.33592 0
M  V30 36039 H 3346.45 -4.57255 6.66291 0
M  V30 36040 H 3350.04 -3.78111 4.4218 0
M  V30 36041 H 3348.92 -4.30056 6.5576 0
M  V30 36042 N 3346.42 -0.701641 -1.4112 0
M  V30 36043 C 3347.35 -0.00092113 -2.292 0
M  V30 36044 C 3348.36 0.738167 -1.45103 0
M  V30 36045 O 3349.55 0.587861 -1.68542 0
M  V30 36046 C 3346.65 1.02286 -3.23096 0
M  V30 36047 C 3345.83 0.352155 -4.3598 0
M  V30 36048 C 3344.88 1.27938 -5.1041 0
M  V30 36049 O 3343.91 0.769461 -5.63975 0
M  V30 36050 N 3345.11 2.61138 -5.18447 0
M  V30 36051 H 3347.88 -0.757145 -2.89978 0
M  V30 36052 H 3345.44 -0.548153 -1.52338 0
M  V30 36053 H 3347.43 1.64502 -3.69758 0
M  V30 36054 H 3346 1.68056 -2.63583 0
M  V30 36055 H 3345.22 -0.449989 -3.91623 0
M  V30 36056 H 3346.51 -0.113971 -5.08672 0
M  V30 36057 H 3345.91 3.05078 -4.76386 0
M  V30 36058 H 3344.46 3.18534 -5.68664 0
M  V30 36059 N 3347.9 1.51133 -0.446821 0
M  V30 36060 C 3348.84 2.27978 0.359825 0
M  V30 36061 C 3349.81 1.31974 1.00857 0
M  V30 36062 O 3351 1.60887 1.02567 0
M  V30 36063 C 3348.14 3.13173 1.44972 0
M  V30 36064 C 3347.25 4.24182 0.818169 0
M  V30 36065 C 3346.39 4.96671 1.88391 0
M  V30 36066 C 3345.43 5.99588 1.2313 0
M  V30 36067 N 3344.56 6.65448 2.23882 0
M  V30 36068 H 3349.4 2.96468 -0.301827 0
M  V30 36069 H 3346.94 1.4622 -0.160692 0
M  V30 36070 H 3348.9 3.609 2.09302 0
M  V30 36071 H 3347.53 2.46778 2.08087 0
M  V30 36072 H 3346.58 3.80348 0.0629221 0
M  V30 36073 H 3347.89 4.97886 0.301798 0
M  V30 36074 H 3347.05 5.47994 2.6036 0
M  V30 36075 H 3345.78 4.22618 2.43403 0
M  V30 36076 H 3344.79 5.47548 0.497119 0
M  V30 36077 H 3346.01 6.75602 0.688386 0
M  V30 36078 H 3343.96 5.94202 2.77956 0
M  V30 36079 H 3343.88 7.34949 1.77163 0
M  V30 36080 H 3345.15 7.21398 2.95305 0
M  V30 36081 N 3349.37 0.178515 1.56586 0
M  V30 36082 C 3350.32 -0.748951 2.1831 0
M  V30 36083 C 3351.29 -1.22176 1.12527 0
M  V30 36084 O 3352.48 -1.28863 1.40709 0
M  V30 36085 C 3349.62 -1.96985 2.83357 0
M  V30 36086 C 3348.73 -1.53994 4.03621 0
M  V30 36087 C 3347.86 -2.71506 4.56572 0
M  V30 36088 C 3346.9 -2.25041 5.6923 0
M  V30 36089 N 3346.04 -3.35671 6.1666 0
M  V30 36090 H 3350.88 -0.215818 2.97217 0
M  V30 36091 H 3348.42 -0.0947924 1.46794 0
M  V30 36092 H 3350.38 -2.68603 3.1923 0
M  V30 36093 H 3349.01 -2.47657 2.07041 0
M  V30 36094 H 3348.06 -0.720233 3.73519 0
M  V30 36095 H 3349.37 -1.15892 4.8515 0
M  V30 36096 H 3348.52 -3.51271 4.94665 0
M  V30 36097 H 3347.26 -3.12872 3.74115 0
M  V30 36098 H 3346.27 -1.43725 5.30682 0
M  V30 36099 H 3347.49 -1.84725 6.53493 0
M  V30 36100 H 3345.44 -3.76599 5.3713 0
M  V30 36101 H 3345.36 -3.01685 6.93197 0
M  V30 36102 H 3346.62 -4.157 6.59404 0
M  V30 36103 N 3350.85 -1.57312 -0.0951784 0
M  V30 36104 C 3351.78 -2.05091 -1.11624 0
M  V30 36105 C 3352.76 -0.939812 -1.4178 0
M  V30 36106 O 3353.95 -1.21107 -1.51811 0
M  V30 36107 C 3351.08 -2.47527 -2.43613 0
M  V30 36108 C 3350.03 -3.623 -2.27866 0
M  V30 36109 C 3349.36 -3.90713 -3.65031 0
M  V30 36110 C 3350.66 -4.93192 -1.71928 0
M  V30 36111 H 3352.35 -2.90645 -0.718744 0
M  V30 36112 H 3349.9 -1.39824 -0.34429 0
M  V30 36113 H 3351.85 -2.79561 -3.15315 0
M  V30 36114 H 3350.58 -1.58973 -2.85298 0
M  V30 36115 H 3349.23 -3.30513 -1.58609 0
M  V30 36116 H 3348.88 -2.99326 -4.04244 0
M  V30 36117 H 3348.58 -4.67982 -3.5534 0
M  V30 36118 H 3350.11 -4.25221 -4.382 0
M  V30 36119 H 3351.52 -5.23607 -2.3347 0
M  V30 36120 H 3349.92 -5.74624 -1.72996 0
M  V30 36121 H 3350.99 -4.80127 -0.678705 0
M  V30 36122 N 3352.33 0.365999 -1.53291 0
M  V30 36123 C 3353.75 0.707644 -1.43054 0
M  V30 36124 C 3353.95 1.93291 -0.569284 0
M  V30 36125 O 3353 2.52447 -0.0515658 0
M  V30 36126 C 3354.32 0.921242 -2.86241 0
M  V30 36127 C 3355.86 1.02128 -2.9587 0
M  V30 36128 C 3356.34 1.26735 -4.40116 0
M  V30 36129 N 3357.83 1.33506 -4.43543 0
M  V30 36130 C 3358.56 1.54255 -5.52262 0
M  V30 36131 N 3358.06 1.72323 -6.71027 0
M  V30 36132 N 3359.85 1.56621 -5.39839 0
M  V30 36133 H 3352 -0.439917 -2.07794 0
M  V30 36134 H 3354.27 -0.134753 -0.938374 0
M  V30 36135 H 3353.97 0.0927424 -3.51578 0
M  V30 36136 H 3353.85 1.82945 -3.29865 0
M  V30 36137 H 3356.23 1.84032 -2.30686 0
M  V30 36138 H 3356.32 0.0904648 -2.5564 0
M  V30 36139 H 3355.96 0.45332 -5.05873 0
M  V30 36140 H 3355.89 2.21137 -4.77918 0
M  V30 36141 H 3358.38 1.21158 -3.57951 0
M  V30 36142 H 3358.69 1.87727 -7.49652 0
M  V30 36143 H 3357.04 1.69502 -6.74013 0
M  V30 36144 H 3360.23 1.42072 -4.46019 0
M  V30 36145 H 3360.4 1.7245 -6.24632 0
M  V30 36146 N 3353.81 1.44644 0.625774 0
M  V30 36147 C 3354.77 1.51558 1.71939 0
M  V30 36148 C 3355.77 0.397015 1.55822 0
M  V30 36149 O 3356.96 0.659838 1.6122 0
M  V30 36150 C 3354.09 1.39466 3.11066 0
M  V30 36151 H 3355.29 2.48979 1.67181 0
M  V30 36152 H 3352.84 1.31815 0.839911 0
M  V30 36153 H 3353.57 0.431591 3.21415 0
M  V30 36154 H 3353.36 2.2058 3.24171 0
M  V30 36155 H 3354.85 1.47297 3.9076 0
M  V30 36156 N 3355.29 -0.866663 1.31631 0
M  V30 36157 C 3356.22 -1.9804 1.15381 0
M  V30 36158 C 3357.23 -1.6254 0.0919919 0
M  V30 36159 O 3358.42 -1.75236 0.339805 0
M  V30 36160 C 3355.52 -3.30692 0.741353 0
M  V30 36161 C 3354.69 -3.94512 1.88889 0
M  V30 36162 C 3353.75 -5.05483 1.46195 0
M  V30 36163 O 3352.78 -5.26125 2.17212 0
M  V30 36164 N 3353.98 -5.79437 0.351198 0
M  V30 36165 H 3356.75 -2.12526 2.11313 0
M  V30 36166 H 3354.31 -1.04083 1.24009 0
M  V30 36167 H 3356.3 -4.02319 0.438384 0
M  V30 36168 H 3354.87 -3.12344 -0.126455 0
M  V30 36169 H 3354.09 -3.15824 2.359 0
M  V30 36170 H 3355.38 -4.33888 2.65742 0
M  V30 36171 H 3354.77 -5.6519 -0.240146 0
M  V30 36172 H 3353.33 -6.51711 0.107778 0
M  V30 36173 N 3356.77 -1.14645 -1.0814 0
M  V30 36174 C 3358.18 -0.927015 -1.6206 0
M  V30 36175 C 3358.53 0.533545 -1.88806 0
M  V30 36176 O 3357.65 1.40302 -1.64756 0
M  V30 36177 C 3358.25 -1.67635 -2.94422 0
M  V30 36178 C 3356.81 -1.50241 -3.45115 0
M  V30 36179 C 3355.95 -1.69709 -2.19304 0
M  V30 36180 H 3358.9 -1.29786 -0.913303 0
M  V30 36181 H 3358.93 -1.14114 -3.62985 0
M  V30 36182 H 3358.44 -2.73932 -2.74923 0
M  V30 36183 H 3356.54 -0.463032 -3.69712 0
M  V30 36184 H 3356.65 -2.27416 -4.21686 0
M  V30 36185 H 3355.02 -1.12295 -2.28609 0
M  V30 36186 H 3355.8 -2.77355 -2.0231 0
M  V30 36187 N 3358.24 1.26349 -0.942 0
M  V30 36188 C 3359.49 1.94001 -0.590879 0
M  V30 36189 C 3359.82 1.73723 0.867974 0
M  V30 36190 O 3359.1 1.07475 1.62109 0
M  V30 36191 C 3359.38 3.47751 -0.934962 0
M  V30 36192 C 3359.23 3.7731 -2.44862 0
M  V30 36193 C 3360.55 4.37783 -0.450965 0
M  V30 36194 H 3357.67 0.704593 -0.216142 0
M  V30 36195 H 3360.31 1.49203 -1.17637 0
M  V30 36196 H 3358.46 3.86038 -0.436716 0
M  V30 36197 H 3360.14 3.48733 -3.01965 0
M  V30 36198 H 3358.38 3.23358 -2.89175 0
M  V30 36199 H 3359.05 4.84783 -2.63988 0
M  V30 36200 H 3361.53 4.06727 -0.878178 0
M  V30 36201 H 3360.4 5.4415 -0.720535 0
M  V30 36202 H 3360.66 4.37309 0.649085 0
M  V30 36203 N 3359.72 0.709115 1.40746 0
M  V30 36204 C 3360.65 0.0670173 2.33404 0
M  V30 36205 C 3361.63 -0.752556 1.52547 0
M  V30 36206 O 3362.82 -0.702791 1.81037 0
M  V30 36207 C 3359.95 -0.860226 3.36478 0
M  V30 36208 C 3358.9 -0.146753 4.27748 0
M  V30 36209 C 3358.23 -1.18927 5.21306 0
M  V30 36210 C 3359.53 0.995154 5.12732 0
M  V30 36211 H 3361.22 0.840938 2.87348 0
M  V30 36212 H 3358.77 0.405841 1.38163 0
M  V30 36213 H 3360.72 -1.31876 4.00233 0
M  V30 36214 H 3359.44 -1.66597 2.80915 0
M  V30 36215 H 3358.1 0.29189 3.65436 0
M  V30 36216 H 3357.75 -1.9879 4.62051 0
M  V30 36217 H 3357.45 -0.716815 5.83211 0
M  V30 36218 H 3358.98 -1.64804 5.87939 0
M  V30 36219 H 3360.39 0.616281 5.69978 0
M  V30 36220 H 3358.79 1.39557 5.83647 0
M  V30 36221 H 3359.86 1.82875 4.49093 0
M  V30 36222 N 3361.2 -1.50894 0.454829 0
M  V30 36223 C 3362.43 -2.06339 -0.103749 0
M  V30 36224 C 3362.84 -1.32056 -1.35491 0
M  V30 36225 O 3362.18 -0.378552 -1.79757 0
M  V30 36226 C 3362.24 -3.56361 -0.474013 0
M  V30 36227 C 3361.91 -4.5202 0.672815 0
M  V30 36228 C 3362.9 -4.96253 1.55012 0
M  V30 36229 C 3360.59 -4.94909 0.858522 0
M  V30 36230 C 3362.58 -5.82065 2.59768 0
M  V30 36231 C 3360.27 -5.80507 1.90933 0
M  V30 36232 C 3361.27 -6.23984 2.77728 0
M  V30 36233 O 3360.96 -7.07879 3.81002 0
M  V30 36234 H 3360.69 -0.675991 -0.00354122 0
M  V30 36235 H 3363.24 -1.95245 0.63785 0
M  V30 36236 H 3361.47 -3.653 -1.26857 0
M  V30 36237 H 3363.16 -3.94243 -0.965775 0
M  V30 36238 H 3363.93 -4.638 1.41826 0
M  V30 36239 H 3359.81 -4.60598 0.192464 0
M  V30 36240 H 3363.35 -6.15922 3.27546 0
M  V30 36241 H 3359.25 -6.12373 2.04132 0
M  V30 36242 H 3360.01 -7.26095 3.77793 0
M  V30 36243 N 3362.68 -0.186817 -1.56489 0
M  V30 36244 C 3363.92 0.44821 -1.984 0
M  V30 36245 C 3364.28 1.59807 -1.07142 0
M  V30 36246 O 3363.57 1.9126 -0.114153 0
M  V30 36247 C 3363.77 0.964254 -3.44147 0
M  V30 36248 C 3363.59 -0.134071 -4.495 0
M  V30 36249 C 3362.36 -0.588939 -5.01856 0
M  V30 36250 C 3364.56 -0.94006 -5.05636 0
M  V30 36251 N 3362.54 -1.66595 -5.90863 0
M  V30 36252 C 3363.92 -1.86665 -5.91233 0
M  V30 36253 C 3365.97 -0.983405 -4.88092 0
M  V30 36254 C 3364.67 -2.83297 -6.61162 0
M  V30 36255 C 3366.7 -1.93774 -5.58754 0
M  V30 36256 C 3366.06 -2.85178 -6.44091 0
M  V30 36257 H 3362.16 0.13167 -0.770835 0
M  V30 36258 H 3364.74 -0.290605 -1.92519 0
M  V30 36259 H 3362.92 1.67254 -3.50544 0
M  V30 36260 H 3364.65 1.5692 -3.73039 0
M  V30 36261 H 3361.4 -0.183795 -4.73243 0
M  V30 36262 H 3361.83 -2.20541 -6.40071 0
M  V30 36263 H 3366.47 -0.290732 -4.21799 0
M  V30 36264 H 3364.19 -3.53545 -7.26658 0
M  V30 36265 H 3367.77 -1.97758 -5.47159 0
M  V30 36266 H 3366.65 -3.5782 -6.97807 0
M  V30 36267 N 3364.16 1.57361 0.0868344 0
M  V30 36268 C 3365.4 1.88334 0.794325 0
M  V30 36269 C 3365.76 0.778814 1.75495 0
M  V30 36270 O 3366.96 0.971196 2.50642 0
M  V30 36271 C 3365.23 3.24547 1.4968 0
M  V30 36272 S 3366.79 3.77234 2.24143 0
M  V30 36273 H 3363.61 0.659983 0.264468 0
M  V30 36274 H 3366.21 1.95433 0.0510703 0
M  V30 36275 H 3364.91 4.02849 0.783643 0
M  V30 36276 H 3364.45 3.20608 2.27979 0
M  V30 36277 H 3366.46 3.51313 3.5042 0
M  V30 36278 N 3365.63 -0.357865 1.53483 0
M  V30 36279 C 3366.6 -1.42163 1.79784 0
M  V30 36280 C 3367.6 -1.46247 0.668467 0
M  V30 36281 O 3368.79 -1.46872 0.936703 0
M  V30 36282 C 3365.92 -2.81217 1.92691 0
M  V30 36283 H 3367.11 -1.20112 2.74797 0
M  V30 36284 H 3364.66 -0.591443 1.44678 0
M  V30 36285 H 3365.4 -3.08571 0.997723 0
M  V30 36286 H 3365.18 -2.7965 2.74842 0
M  V30 36287 H 3366.67 -3.58238 2.14605 0
M  V30 36288 N 3367.11 -1.44974 -0.618094 0
M  V30 36289 C 3368.53 -1.29148 -0.937711 0
M  V30 36290 C 3368.73 -0.236785 -2.00104 0
M  V30 36291 O 3367.78 0.372879 -2.49732 0
M  V30 36292 C 3369.1 -2.66718 -1.38861 0
M  V30 36293 C 3370.64 -2.74531 -1.50338 0
M  V30 36294 C 3371.12 -4.12601 -1.98807 0
M  V30 36295 N 3372.61 -4.14843 -2.06057 0
M  V30 36296 C 3373.35 -5.18537 -2.44759 0
M  V30 36297 N 3372.84 -6.32584 -2.82505 0
M  V30 36298 N 3374.63 -5.05893 -2.45007 0
M  V30 36299 H 3366.79 -2.1223 0.0849093 0
M  V30 36300 H 3369.05 -0.947679 -0.0246577 0
M  V30 36301 H 3368.75 -3.45034 -0.681522 0
M  V30 36302 H 3368.63 -2.9448 -2.35715 0
M  V30 36303 H 3371.02 -1.96525 -2.2014 0
M  V30 36304 H 3371.1 -2.50495 -0.518253 0
M  V30 36305 H 3370.74 -4.91088 -1.29596 0
M  V30 36306 H 3370.67 -4.34022 -2.98215 0
M  V30 36307 H 3373.16 -3.32538 -1.79519 0
M  V30 36308 H 3373.47 -7.07509 -3.10887 0
M  V30 36309 H 3371.82 -6.36002 -2.80225 0
M  V30 36310 H 3375.01 -4.15846 -2.14918 0
M  V30 36311 H 3375.18 -5.86826 -2.74843 0
M  V30 36312 N 3368.59 0.85967 -1.32089 0
M  V30 36313 C 3369.54 1.98922 -1.20552 0
M  V30 36314 C 3370.53 1.69033 -0.111451 0
M  V30 36315 O 3371.74 1.77902 -0.274041 0
M  V30 36316 H 3368.11 0.65266 -0.373549 0
M  V30 36317 H 3370.08 2.05781 -2.16094 0
M  V30 36318 C 3368.83 3.34745 -0.940284 0
M  V30 36319 H 3368.16 3.5827 -1.77433 0
M  V30 36320 H 3369.6 4.14343 -0.899785 0
M  V30 36321 C 3368.05 3.35003 0.356983 0
M  V30 36322 O 3368.58 3.77599 1.37048 0
M  V30 36323 N 3366.79 2.88142 0.377179 0
M  V30 36324 H 3366.34 2.53673 -0.448095 0
M  V30 36325 H 3366.3 2.88697 1.24504 0
M  V30 36326 N 3370.07 1.15217 1.0753 0
M  V30 36327 C 3371 0.790838 2.14058 0
M  V30 36328 C 3371.98 -0.231894 1.60938 0
M  V30 36329 O 3373.16 -0.118873 1.88125 0
M  V30 36330 C 3370.29 0.175692 3.38244 0
M  V30 36331 C 3369.34 1.17003 4.10137 0
M  V30 36332 S 3370.17 2.71127 4.61791 0
M  V30 36333 C 3371.32 2.11027 5.89253 0
M  V30 36334 H 3371.56 1.69312 2.44378 0
M  V30 36335 H 3369.09 0.974329 1.19776 0
M  V30 36336 H 3371.05 -0.172787 4.10136 0
M  V30 36337 H 3369.71 -0.704158 3.06105 0
M  V30 36338 H 3368.9 0.687802 4.99285 0
M  V30 36339 H 3368.5 1.46295 3.442 0
M  V30 36340 H 3370.8 1.4712 6.61333 0
M  V30 36341 H 3371.74 2.98334 6.42186 0
M  V30 36342 H 3372.15 1.55404 5.42688 0
M  V30 36343 N 3371.55 -1.25848 0.948687 0
M  V30 36344 C 3372.77 -1.98017 0.616776 0
M  V30 36345 C 3373.2 -1.701 -0.802975 0
M  V30 36346 O 3372.55 -0.953419 -1.54206 0
M  V30 36347 C 3372.6 -3.49836 0.874491 0
M  V30 36348 O 3371.71 -4.1237 -0.0496843 0
M  V30 36349 H 3371.05 -0.620978 0.235123 0
M  V30 36350 H 3373.58 -1.60122 1.27367 0
M  V30 36351 H 3373.59 -4.00112 0.79838 0
M  V30 36352 H 3372.26 -3.69485 1.90929 0
M  V30 36353 H 3370.84 -3.72818 0.0781247 0
M  V30 36354 N 3373.02 -0.716569 -1.40368 0
M  V30 36355 C 3374.27 -0.256501 -2.00869 0
M  V30 36356 C 3374.6 1.15058 -1.56818 0
M  V30 36357 O 3373.85 1.79496 -0.779728 0
M  V30 36358 C 3374.15 -0.285645 -3.56257 0
M  V30 36359 C 3373.82 -1.64316 -4.19894 0
M  V30 36360 C 3372.48 -2.01476 -4.36991 0
M  V30 36361 C 3374.83 -2.53532 -4.5538 0
M  V30 36362 C 3372.16 -3.27395 -4.86856 0
M  V30 36363 C 3374.51 -3.78804 -5.06646 0
M  V30 36364 C 3373.18 -4.1608 -5.21952 0
M  V30 36365 H 3372.45 -0.0938604 -0.735031 0
M  V30 36366 H 3375.09 -0.919794 -1.67964 0
M  V30 36367 H 3373.4 0.461219 -3.89076 0
M  V30 36368 H 3375.1 0.0881791 -4.00903 0
M  V30 36369 H 3371.69 -1.3442 -4.06976 0
M  V30 36370 H 3375.87 -2.26098 -4.41807 0
M  V30 36371 H 3371.13 -3.56244 -4.96891 0
M  V30 36372 H 3375.3 -4.48105 -5.33081 0
M  V30 36373 H 3372.93 -5.1372 -5.60353 0
M  V30 36374 N 3374.5 1.50651 -0.462825 0
M  V30 36375 C 3375.75 2.03213 0.0873035 0
M  V30 36376 C 3376.1 1.33917 1.38145 0
M  V30 36377 O 3375.4 0.453318 1.8616 0
M  V30 36378 C 3375.59 3.55824 0.335231 0
M  V30 36379 C 3375.42 4.39908 -0.93333 0
M  V30 36380 C 3374.19 4.83315 -1.47426 0
M  V30 36381 C 3376.39 4.80774 -1.82649 0
M  V30 36382 N 3374.37 5.51695 -2.6927 0
M  V30 36383 C 3375.74 5.4848 -2.89085 0
M  V30 36384 C 3377.8 4.62739 -1.83786 0
M  V30 36385 C 3376.5 6.0006 -3.96636 0
M  V30 36386 C 3378.52 5.15254 -2.90289 0
M  V30 36387 C 3377.89 5.82927 -3.95443 0
M  V30 36388 H 3373.99 0.78196 -0.0078705 0
M  V30 36389 H 3376.57 1.84253 -0.629189 0
M  V30 36390 H 3374.74 3.74747 1.02076 0
M  V30 36391 H 3376.47 3.9504 0.87897 0
M  V30 36392 H 3373.23 4.62384 -1.02459 0
M  V30 36393 H 3373.65 5.90496 -3.31125 0
M  V30 36394 H 3378.29 4.09858 -1.03809 0
M  V30 36395 H 3376.01 6.51983 -4.77435 0
M  V30 36396 H 3379.6 5.03135 -2.92142 0
M  V30 36397 H 3378.48 6.22831 -4.76498 0
M  V30 36398 N 3375.98 0.195113 1.56388 0
M  V30 36399 C 3377.21 -0.452363 2.02407 0
M  V30 36400 C 3377.63 -1.544 1.07435 0
M  V30 36401 O 3376.99 -1.81208 0.0578564 0
M  V30 36402 C 3377.04 -0.985717 3.46866 0
M  V30 36403 O 3376.14 -2.09861 3.5501 0
M  V30 36404 H 3375.48 -0.105708 0.655532 0
M  V30 36405 H 3378.01 0.305995 2.02299 0
M  V30 36406 H 3378.02 -1.30231 3.86657 0
M  V30 36407 H 3376.7 -0.186589 4.15481 0
M  V30 36408 H 3375.27 -1.79065 3.27093 0
M  V30 36409 N 3377.46 -1.57404 -0.0784879 0
M  V30 36410 C 3378.68 -1.91523 -0.795838 0
M  V30 36411 C 3379.11 -0.790922 -1.70664 0
M  V30 36412 O 3378.47 0.256629 -1.79475 0
M  V30 36413 C 3378.51 -3.24572 -1.57116 0
M  V30 36414 O 3377.62 -3.13333 -2.68135 0
M  V30 36415 H 3376.96 -0.627345 -0.217564 0
M  V30 36416 H 3379.49 -2.04542 -0.0487364 0
M  V30 36417 H 3379.5 -3.58284 -1.95184 0
M  V30 36418 H 3378.17 -4.05982 -0.902838 0
M  V30 36419 H 3376.75 -2.91167 -2.32973 0
M  V30 36420 N 3378.94 0.34972 -1.53671 0
M  V30 36421 C 3380.19 1.08804 -1.69837 0
M  V30 36422 C 3380.5 1.89992 -0.465003 0
M  V30 36423 O 3381.7 2.66715 -0.507499 0
M  V30 36424 C 3380.16 1.98366 -3.00298 0
M  V30 36425 C 3379.77 1.22414 -4.30951 0
M  V30 36426 C 3381.51 2.72093 -3.2583 0
M  V30 36427 C 3379.42 2.10971 -5.5249 0
M  V30 36428 H 3378.35 0.409904 -0.632847 0
M  V30 36429 H 3381 0.347937 -1.80171 0
M  V30 36430 H 3379.38 2.76171 -2.83805 0
M  V30 36431 H 3380.56 0.495626 -4.58127 0
M  V30 36432 H 3378.87 0.604824 -4.11984 0
M  V30 36433 H 3381.47 3.38607 -4.13823 0
M  V30 36434 H 3381.81 3.38326 -2.42572 0
M  V30 36435 H 3382.34 2.01364 -3.4307 0
M  V30 36436 H 3379.08 1.4929 -6.38273 0
M  V30 36437 H 3378.6 2.81628 -5.29571 0
M  V30 36438 H 3380.28 2.70166 -5.87894 0
M  V30 36439 N 3380.41 1.45299 0.610397 0
M  V30 36440 C 3381.64 1.52919 1.40109 0
M  V30 36441 C 3382.06 0.161729 1.87403 0
M  V30 36442 O 3381.42 -0.853107 1.59974 0
M  V30 36443 C 3381.47 2.51566 2.58354 0
M  V30 36444 O 3380.57 2.03152 3.58891 0
M  V30 36445 H 3379.92 0.515594 0.418401 0
M  V30 36446 H 3382.45 1.90627 0.743126 0
M  V30 36447 H 3382.46 2.7028 3.05635 0
M  V30 36448 H 3381.13 3.50883 2.2328 0
M  V30 36449 H 3379.71 1.94301 3.18279 0
M  V30 36450 N 3381.89 -0.852653 1.32543 0
M  V30 36451 C 3383.14 -1.60698 1.23217 0
M  V30 36452 C 3383.47 -1.93411 -0.205508 0
M  V30 36453 O 3382.72 -1.57685 -1.15905 0
M  V30 36454 C 3383.02 -2.93526 2.03905 0
M  V30 36455 C 3382.69 -2.80234 3.53242 0
M  V30 36456 C 3381.35 -2.76316 3.93958 0
M  V30 36457 C 3383.7 -2.66022 4.48198 0
M  V30 36458 C 3381.03 -2.56068 5.2787 0
M  V30 36459 C 3383.38 -2.47309 5.82255 0
M  V30 36460 C 3382.05 -2.41785 6.22171 0
M  V30 36461 H 3381.32 -0.588035 0.450883 0
M  V30 36462 H 3383.96 -0.988926 1.63989 0
M  V30 36463 H 3382.27 -3.59462 1.55867 0
M  V30 36464 H 3383.96 -3.50917 1.94057 0
M  V30 36465 H 3380.55 -2.84109 3.20905 0
M  V30 36466 H 3384.74 -2.68092 4.1766 0
M  V30 36467 H 3379.99 -2.50228 5.5785 0
M  V30 36468 H 3384.17 -2.35293 6.55446 0
M  V30 36469 H 3381.8 -2.25855 7.25874 0
M  V30 36470 N 3383.37 -1.15786 -1.06918 0
M  V30 36471 C 3384.32 -0.854544 -2.16334 0
M  V30 36472 C 3385.31 0.173838 -1.68506 0
M  V30 36473 O 3386.52 0.0284405 -1.79978 0
M  V30 36474 H 3382.89 -0.258706 -0.706099 0
M  V30 36475 H 3384.86 -1.7849 -2.39132 0
M  V30 36476 C 3383.61 -0.365103 -3.45778 0
M  V30 36477 H 3382.94 -1.14783 -3.82969 0
M  V30 36478 H 3384.38 -0.191579 -4.23567 0
M  V30 36479 C 3382.84 0.914196 -3.24259 0
M  V30 36480 O 3383.37 1.98481 -3.4924 0
M  V30 36481 N 3381.57 0.855452 -2.77724 0
M  V30 36482 H 3381.12 -0.0159686 -2.57595 0
M  V30 36483 H 3381.08 1.71193 -2.63705 0
M  V30 36484 N 3384.85 1.25343 -0.955348 0
M  V30 36485 C 3385.78 2.28211 -0.494186 0
M  V30 36486 C 3386.76 1.63766 0.459846 0
M  V30 36487 O 3387.94 1.9086 0.358645 0
M  V30 36488 C 3385.07 3.4655 0.228167 0
M  V30 36489 C 3384.03 4.23178 -0.640676 0
M  V30 36490 C 3383.35 5.34278 0.212459 0
M  V30 36491 C 3384.65 4.85764 -1.91914 0
M  V30 36492 H 3386.35 2.67036 -1.35395 0
M  V30 36493 H 3383.89 1.28369 -0.652484 0
M  V30 36494 H 3385.85 4.17637 0.561921 0
M  V30 36495 H 3384.57 3.06716 1.12219 0
M  V30 36496 H 3383.23 3.53874 -0.957525 0
M  V30 36497 H 3382.88 4.90684 1.10626 0
M  V30 36498 H 3382.58 5.86462 -0.365576 0
M  V30 36499 H 3384.1 6.08197 0.541164 0
M  V30 36500 H 3385.52 5.4899 -1.65175 0
M  V30 36501 H 3383.91 5.48127 -2.44289 0
M  V30 36502 H 3384.98 4.07909 -2.6218 0
M  V30 36503 N 3386.33 0.724003 1.39986 0
M  V30 36504 C 3387.29 0.0854986 2.2904 0
M  V30 36505 C 3388.29 -0.678631 1.45778 0
M  V30 36506 O 3389.48 -0.509282 1.66589 0
M  V30 36507 C 3386.61 -0.888532 3.29117 0
M  V30 36508 H 3387.81 0.869954 2.87005 0
M  V30 36509 H 3385.36 0.489162 1.48448 0
M  V30 36510 H 3386.09 -1.69974 2.76187 0
M  V30 36511 H 3385.88 -0.343385 3.90593 0
M  V30 36512 H 3387.37 -1.3322 3.9578 0
M  V30 36513 N 3387.81 -1.50403 0.470808 0
M  V30 36514 C 3389.05 -2.02624 -0.0844053 0
M  V30 36515 C 3389.38 -1.35212 -1.39396 0
M  V30 36516 O 3388.66 -0.477741 -1.88541 0
M  V30 36517 C 3388.94 -3.59098 -0.2685 0
M  V30 36518 C 3388.8 -4.37082 1.06205 0
M  V30 36519 C 3390.11 -4.28041 -1.02317 0
M  V30 36520 H 3387.23 -0.736421 -0.0292011 0
M  V30 36521 H 3389.88 -1.79725 0.616343 0
M  V30 36522 H 3388.03 -3.78739 -0.865374 0
M  V30 36523 H 3389.7 -4.29012 1.69549 0
M  V30 36524 H 3387.94 -4.00834 1.65875 0
M  V30 36525 H 3388.61 -5.44829 0.886891 0
M  V30 36526 H 3391.09 -4.12873 -0.517252 0
M  V30 36527 H 3389.96 -5.37336 -1.12078 0
M  V30 36528 H 3390.22 -3.91191 -2.05967 0
M  V30 36529 N 3389.28 -0.203404 -1.56282 0
M  V30 36530 C 3390.21 0.709144 -2.22471 0
M  V30 36531 C 3391.19 1.21497 -1.19049 0
M  V30 36532 O 3392.38 1.26229 -1.4758 0
M  V30 36533 C 3389.51 1.92524 -2.89053 0
M  V30 36534 C 3388.46 1.554 -3.98792 0
M  V30 36535 C 3387.79 2.84739 -4.52579 0
M  V30 36536 C 3389.09 0.757659 -5.16775 0
M  V30 36537 H 3390.78 0.157339 -2.98986 0
M  V30 36538 H 3388.33 0.074236 -1.43809 0
M  V30 36539 H 3390.28 2.56892 -3.34043 0
M  V30 36540 H 3389.01 2.50171 -2.09957 0
M  V30 36541 H 3387.67 0.933866 -3.54506 0
M  V30 36542 H 3387.31 3.40493 -3.70235 0
M  V30 36543 H 3387.01 2.6064 -5.26631 0
M  V30 36544 H 3388.54 3.50081 -5.00276 0
M  V30 36545 H 3389.95 1.30463 -5.58258 0
M  V30 36546 H 3388.35 0.614478 -5.96946 0
M  V30 36547 H 3389.42 -0.239561 -4.84308 0
M  V30 36548 N 3390.76 1.57444 0.0701393 0
M  V30 36549 C 3391.69 1.99102 1.11505 0
M  V30 36550 C 3392.67 0.868219 1.3748 0
M  V30 36551 O 3393.86 1.13066 1.50825 0
M  V30 36552 C 3390.98 2.32914 2.45904 0
M  V30 36553 C 3390.03 3.5522 2.36053 0
M  V30 36554 S 3390.86 5.05992 1.75307 0
M  V30 36555 C 3392.02 5.43006 3.11279 0
M  V30 36556 H 3392.25 2.87421 0.760046 0
M  V30 36557 H 3389.78 1.51863 0.278729 0
M  V30 36558 H 3391.74 2.53069 3.23212 0
M  V30 36559 H 3390.4 1.45122 2.78565 0
M  V30 36560 H 3389.6 3.76401 3.3517 0
M  V30 36561 H 3389.2 3.34704 1.6688 0
M  V30 36562 H 3391.49 5.41178 4.07593 0
M  V30 36563 H 3392.43 6.4378 2.94877 0
M  V30 36564 H 3392.84 4.70469 3.11961 0
M  V30 36565 N 3392.24 -0.341566 1.53854 0
M  V30 36566 C 3393.19 -1.43978 1.82683 0
M  V30 36567 C 3394.18 -1.54376 0.697442 0
M  V30 36568 O 3395.39 -1.56977 0.880813 0
M  V30 36569 H 3391.76 -0.480103 0.578796 0
M  V30 36570 H 3393.73 -1.16879 2.74558 0
M  V30 36571 C 3392.48 -2.80472 2.05501 0
M  V30 36572 H 3391.81 -2.73239 2.91857 0
M  V30 36573 H 3393.25 -3.56431 2.29636 0
M  V30 36574 C 3391.7 -3.26231 0.841118 0
M  V30 36575 O 3392.23 -4.01679 0.0415082 0
M  V30 36576 N 3390.44 -2.83057 0.657786 0
M  V30 36577 H 3389.99 -2.21824 1.30966 0
M  V30 36578 H 3389.95 -3.14028 -0.152948 0
M  V30 36579 N 3393.72 -1.45621 -0.602683 0
M  V30 36580 C 3394.65 -1.57513 -1.72371 0
M  V30 36581 C 3395.63 -0.426418 -1.64668 0
M  V30 36582 O 3396.81 -0.650176 -1.82993 0
M  V30 36583 C 3393.94 -1.54615 -3.10984 0
M  V30 36584 C 3392.9 -2.68254 -3.33502 0
M  V30 36585 C 3392.22 -2.50411 -4.72439 0
M  V30 36586 C 3393.52 -4.1023 -3.23278 0
M  V30 36587 H 3395.22 -2.51351 -1.62675 0
M  V30 36588 H 3392.76 -1.20968 -0.781196 0
M  V30 36589 H 3394.72 -1.61532 -3.89211 0
M  V30 36590 H 3393.44 -0.573106 -3.21532 0
M  V30 36591 H 3392.1 -2.60774 -2.57668 0
M  V30 36592 H 3391.75 -1.51234 -4.79726 0
M  V30 36593 H 3391.45 -3.2662 -4.8846 0
M  V30 36594 H 3392.97 -2.59189 -5.52859 0
M  V30 36595 H 3394.39 -4.18927 -3.91373 0
M  V30 36596 H 3392.78 -4.86867 -3.50828 0
M  V30 36597 H 3393.85 -4.31792 -2.20644 0
M  V30 36598 N 3395.2 0.845612 -1.32993 0
M  V30 36599 C 3396.13 1.9703 -1.25305 0
M  V30 36600 C 3397.11 1.69563 -0.134996 0
M  V30 36601 O 3398.29 1.91484 -0.323663 0
M  V30 36602 C 3395.42 3.33051 -0.984609 0
M  V30 36603 C 3394.38 3.74896 -2.06487 0
M  V30 36604 C 3393.7 5.08648 -1.64869 0
M  V30 36605 C 3395 3.89397 -3.4809 0
M  V30 36606 H 3396.7 2.03721 -2.19404 0
M  V30 36607 H 3394.24 0.978765 -1.05623 0
M  V30 36608 H 3396.19 4.11294 -0.917341 0
M  V30 36609 H 3394.92 3.26599 -0.00798856 0
M  V30 36610 H 3393.58 2.98911 -2.12245 0
M  V30 36611 H 3393.23 4.98661 -0.659271 0
M  V30 36612 H 3392.93 5.37617 -2.37154 0
M  V30 36613 H 3394.45 5.89374 -1.59595 0
M  V30 36614 H 3395.86 4.5797 -3.44871 0
M  V30 36615 H 3394.26 4.29795 -4.18803 0
M  V30 36616 H 3395.33 2.92044 -3.87089 0
M  V30 36617 N 3396.67 1.16351 1.06302 0
M  V30 36618 C 3397.92 0.946372 1.79365 0
M  V30 36619 C 3398.25 -0.524536 1.86982 0
M  V30 36620 O 3397.53 -1.38914 1.36136 0
M  V30 36621 C 3397.81 1.57442 3.23858 0
M  V30 36622 C 3397.66 3.11666 3.24321 0
M  V30 36623 C 3398.98 1.26902 4.21407 0
M  V30 36624 H 3396.1 0.345226 0.651144 0
M  V30 36625 H 3398.74 1.4368 1.24322 0
M  V30 36626 H 3396.89 1.15738 3.7086 0
M  V30 36627 H 3398.57 3.62351 2.85481 0
M  V30 36628 H 3396.81 3.45001 2.62977 0
M  V30 36629 H 3397.48 3.50731 4.26254 0
M  V30 36630 H 3399.96 1.62995 3.82847 0
M  V30 36631 H 3398.83 1.73448 5.20775 0
M  V30 36632 H 3399.09 0.187846 4.41701 0
M  V30 36633 N 3398.15 -1.24835 0.961982 0
M  V30 36634 C 3399.11 -2.23847 0.492482 0
M  V30 36635 C 3400.11 -1.55542 -0.407853 0
M  V30 36636 O 3401.3 -1.73 -0.204113 0
M  V30 36637 C 3398.44 -3.39685 -0.287519 0
M  V30 36638 H 3399.63 -2.66896 1.36771 0
M  V30 36639 H 3397.18 -1.37349 0.745991 0
M  V30 36640 H 3397.92 -3.02067 -1.1801 0
M  V30 36641 H 3397.7 -3.90458 0.3585 0
M  V30 36642 H 3399.19 -4.13191 -0.605224 0
M  V30 36643 N 3399.63 -0.731417 -1.396 0
M  V30 36644 C 3400.88 -0.277792 -2.00586 0
M  V30 36645 C 3401.2 1.13389 -1.58029 0
M  V30 36646 O 3400.46 1.78659 -0.798722 0
M  V30 36647 C 3400.76 -0.323415 -3.55934 0
M  V30 36648 C 3400.42 -1.68761 -4.18128 0
M  V30 36649 C 3399.09 -2.061 -4.34829 0
M  V30 36650 C 3401.44 -2.58347 -4.52666 0
M  V30 36651 C 3398.77 -3.32541 -4.83356 0
M  V30 36652 C 3401.12 -3.84157 -5.026 0
M  V30 36653 C 3399.78 -4.21593 -5.17509 0
M  V30 36654 H 3399.05 -0.101651 -0.733995 0
M  V30 36655 H 3401.7 -0.937557 -1.66979 0
M  V30 36656 H 3400 0.419926 -3.89543 0
M  V30 36657 H 3401.7 0.045653 -4.00974 0
M  V30 36658 H 3398.29 -1.38729 -4.05527 0
M  V30 36659 H 3402.48 -2.30771 -4.39384 0
M  V30 36660 H 3397.73 -3.61494 -4.93084 0
M  V30 36661 H 3401.91 -4.53734 -5.28298 0
M  V30 36662 H 3399.53 -5.19635 -5.54873 0
M  V30 36663 N 3401.11 1.50152 -0.478778 0
M  V30 36664 C 3402.36 2.02366 0.0735495 0
M  V30 36665 C 3402.68 1.36021 1.39027 0
M  V30 36666 O 3401.94 0.477469 1.89786 0
M  V30 36667 C 3402.24 3.5616 0.297472 0
M  V30 36668 C 3401.9 4.41025 -0.938496 0
M  V30 36669 C 3400.57 4.63937 -1.27735 0
M  V30 36670 C 3402.92 4.90546 -1.76107 0
M  V30 36671 C 3400.25 5.33615 -2.43869 0
M  V30 36672 C 3402.6 5.61501 -2.91376 0
M  V30 36673 C 3401.26 5.82664 -3.25667 0
M  V30 36674 H 3400.53 0.740511 0.0269137 0
M  V30 36675 H 3403.18 1.80686 -0.634422 0
M  V30 36676 H 3401.48 3.76397 1.08776 0
M  V30 36677 H 3403.18 3.94133 0.738921 0
M  V30 36678 H 3399.77 4.23417 -0.664516 0
M  V30 36679 H 3403.95 4.72693 -1.51245 0
M  V30 36680 H 3399.21 5.48207 -2.70702 0
M  V30 36681 H 3403.38 5.98853 -3.55455 0
M  V30 36682 H 3401.01 6.36432 -4.15763 0
M  V30 36683 N 3402.59 0.211689 1.56172 0
M  V30 36684 C 3403.82 -0.427187 2.02135 0
M  V30 36685 C 3404.22 -1.54585 1.09087 0
M  V30 36686 O 3403.57 -1.83475 0.0909383 0
M  V30 36687 C 3403.63 -1.02894 3.44461 0
M  V30 36688 C 3403.29 -0.046944 4.56976 0
M  V30 36689 C 3404.29 0.749815 5.14465 0
M  V30 36690 C 3401.98 0.0689516 5.02253 0
M  V30 36691 C 3403.97 1.64927 6.15693 0
M  V30 36692 C 3401.66 0.97195 6.03321 0
M  V30 36693 C 3402.65 1.76066 6.59916 0
M  V30 36694 O 3402.34 2.6485 7.59019 0
M  V30 36695 H 3402.07 -0.109882 0.66701 0
M  V30 36696 H 3404.63 0.322631 2.0285 0
M  V30 36697 H 3402.86 -1.82766 3.40784 0
M  V30 36698 H 3404.55 -1.57419 3.74131 0
M  V30 36699 H 3405.31 0.670673 4.8034 0
M  V30 36700 H 3401.19 -0.534809 4.57887 0
M  V30 36701 H 3404.74 2.26533 6.59794 0
M  V30 36702 H 3400.63 1.05215 6.36867 0
M  V30 36703 H 3401.4 2.58815 7.76503 0
M  V30 36704 N 3404.06 -1.57479 -0.0617887 0
M  V30 36705 C 3405.48 -1.76369 -0.61243 0
M  V30 36706 C 3405.83 -0.838497 -1.7738 0
M  V30 36707 O 3404.95 -0.0250591 -2.16385 0
M  V30 36708 C 3405.55 -3.19831 -1.11776 0
M  V30 36709 C 3404.11 -3.40031 -1.61418 0
M  V30 36710 C 3403.25 -2.72033 -0.537902 0
M  V30 36711 H 3406.2 -1.57846 0.16441 0
M  V30 36712 H 3406.22 -3.24541 -1.98628 0
M  V30 36713 H 3405.74 -3.87144 -0.272285 0
M  V30 36714 H 3403.84 -2.77847 -2.48258 0
M  V30 36715 H 3403.95 -4.4852 -1.68423 0
M  V30 36716 H 3402.31 -2.34869 -0.985314 0
M  V30 36717 H 3403.1 -3.42008 0.297555 0
M  V30 36718 N 3405.54 0.333401 -1.54033 0
M  V30 36719 C 3406.79 1.07249 -1.71767 0
M  V30 36720 C 3407.12 1.88326 -0.486168 0
M  V30 36721 O 3406.37 1.88327 0.532102 0
M  V30 36722 C 3406.67 2.03323 -2.9393 0
M  V30 36723 C 3406.34 1.38478 -4.29109 0
M  V30 36724 C 3405 1.20523 -4.65862 0
M  V30 36725 C 3407.35 0.918534 -5.13042 0
M  V30 36726 C 3404.68 0.545778 -5.84156 0
M  V30 36727 C 3407.03 0.272944 -6.32011 0
M  V30 36728 C 3405.7 0.0811642 -6.67451 0
M  V30 36729 H 3404.97 0.392453 -0.628539 0
M  V30 36730 H 3407.61 0.350676 -1.88262 0
M  V30 36731 H 3405.92 2.81921 -2.7208 0
M  V30 36732 H 3407.61 2.60521 -3.04844 0
M  V30 36733 H 3404.2 1.53453 -4.00188 0
M  V30 36734 H 3408.39 1.04507 -4.85172 0
M  V30 36735 H 3403.64 0.385902 -6.10181 0
M  V30 36736 H 3407.82 -0.0963805 -6.96333 0
M  V30 36737 H 3405.45 -0.431867 -7.58972 0
M  V30 36738 N 3407.02 1.45939 0.594952 0
M  V30 36739 C 3407.97 1.55573 1.70486 0
M  V30 36740 C 3408.94 0.400779 1.61192 0
M  V30 36741 O 3410.12 0.615914 1.80586 0
M  V30 36742 C 3407.26 1.54039 3.08814 0
M  V30 36743 C 3406.38 2.80179 3.28822 0
M  V30 36744 C 3405.51 2.7023 4.57328 0
M  V30 36745 C 3404.55 3.91365 4.70638 0
M  V30 36746 N 3403.69 3.79876 5.90456 0
M  V30 36747 H 3408.53 2.50386 1.61588 0
M  V30 36748 H 3406.06 1.24231 0.787725 0
M  V30 36749 H 3408.02 1.51135 3.88862 0
M  V30 36750 H 3406.65 0.627673 3.16639 0
M  V30 36751 H 3405.7 2.93115 2.42462 0
M  V30 36752 H 3407.02 3.69991 3.34527 0
M  V30 36753 H 3406.17 2.65364 5.45589 0
M  V30 36754 H 3404.91 1.78038 4.54042 0
M  V30 36755 H 3403.91 3.96577 3.80798 0
M  V30 36756 H 3405.14 4.84639 4.75712 0
M  V30 36757 H 3403.08 2.90461 5.88191 0
M  V30 36758 H 3403 4.63333 5.97376 0
M  V30 36759 H 3404.27 3.78964 6.8118 0
M  V30 36760 N 3408.5 -0.838547 1.3344 0
M  V30 36761 C 3409.75 -1.59067 1.24668 0
M  V30 36762 C 3410.07 -1.94097 -0.187399 0
M  V30 36763 O 3409.34 -1.60989 -1.11622 0
M  V30 36764 H 3407.92 -0.589781 0.45844 0
M  V30 36765 H 3410.58 -1.00213 1.67163 0
M  V30 36766 H 3409.68 -2.52048 1.84061 0
M  V30 36767 N 3409.98 -1.16914 -1.05683 0
M  V30 36768 C 3411.22 -0.95587 -1.7886 0
M  V30 36769 C 3411.56 0.514612 -1.87258 0
M  V30 36770 O 3410.83 1.3819 -1.36871 0
M  V30 36771 C 3411.11 -1.59157 -3.23019 0
M  V30 36772 C 3410.97 -3.13382 -3.22664 0
M  V30 36773 C 3412.29 -1.29135 -4.20728 0
M  V30 36774 H 3409.4 -0.348674 -0.649304 0
M  V30 36775 H 3412.05 -1.44337 -1.23559 0
M  V30 36776 H 3410.2 -1.17703 -3.70241 0
M  V30 36777 H 3411.87 -3.6386 -2.83556 0
M  V30 36778 H 3410.11 -3.46391 -2.61143 0
M  V30 36779 H 3410.78 -3.52986 -4.24388 0
M  V30 36780 H 3413.26 -1.65024 -3.81977 0
M  V30 36781 H 3412.13 -1.76208 -5.19848 0
M  V30 36782 H 3412.4 -0.211268 -4.41595 0
M  V30 36783 N 3411.45 1.24323 -0.968589 0
M  V30 36784 C 3412.87 1.44611 -0.675265 0
M  V30 36785 C 3413.07 1.86511 0.762608 0
M  V30 36786 O 3412.13 2.00377 1.5364 0
M  V30 36787 C 3413.44 2.5072 -1.66012 0
M  V30 36788 C 3414.99 2.64547 -1.67284 0
M  V30 36789 C 3415.46 3.73854 -2.64569 0
M  V30 36790 N 3416.95 3.81283 -2.63017 0
M  V30 36791 C 3417.69 4.65388 -3.34965 0
M  V30 36792 N 3417.18 5.53674 -4.16434 0
M  V30 36793 N 3418.98 4.59477 -3.23786 0
M  V30 36794 H 3411.13 0.954224 -1.89759 0
M  V30 36795 H 3413.39 0.480827 -0.817013 0
M  V30 36796 H 3413.1 2.26823 -2.68783 0
M  V30 36797 H 3412.97 3.48895 -1.43359 0
M  V30 36798 H 3415.36 2.87802 -0.652235 0
M  V30 36799 H 3415.44 1.66726 -1.94 0
M  V30 36800 H 3415.08 3.51349 -3.66765 0
M  V30 36801 H 3415.01 4.7119 -2.35133 0
M  V30 36802 H 3417.5 3.18183 -2.03883 0
M  V30 36803 H 3417.82 6.1481 -4.68218 0
M  V30 36804 H 3416.16 5.53336 -4.20528 0
M  V30 36805 H 3419.35 3.89519 -2.596 0
M  V30 36806 H 3419.53 5.24797 -3.80121 0
M  V30 36807 N 3412.93 0.73881 1.3921 0
M  V30 36808 C 3414.18 0.287855 2.0004 0
M  V30 36809 C 3414.5 -1.12997 1.58923 0
M  V30 36810 O 3413.77 -1.77014 0.839224 0
M  V30 36811 H 3412.35 0.103438 0.739804 0
M  V30 36812 H 3415.01 0.949617 1.70201 0
M  V30 36813 H 3414.11 0.339262 3.10251 0
M  V30 36814 N 3414.41 -1.49895 0.486734 0
M  V30 36815 C 3415.66 -2.02003 -0.0626924 0
M  V30 36816 C 3415.98 -1.36969 -1.38797 0
M  V30 36817 O 3415.25 -0.520206 -1.88867 0
M  V30 36818 H 3413.83 -0.746542 -0.0261587 0
M  V30 36819 H 3416.49 -1.84067 0.640724 0
M  V30 36820 H 3415.59 -3.1144 -0.202801 0
M  V30 36821 N 3415.89 -0.219968 -1.56057 0
M  V30 36822 C 3417.12 0.417066 -2.02653 0
M  V30 36823 C 3417.53 1.5346 -1.0998 0
M  V30 36824 O 3416.89 1.82173 -0.10912 0
M  V30 36825 C 3416.94 0.950183 -3.48789 0
M  V30 36826 O 3416.66 -0.122787 -4.37928 0
M  V30 36827 C 3418.16 1.66062 -4.11021 0
M  V30 36828 H 3415.38 0.102242 -0.663165 0
M  V30 36829 H 3417.93 -0.335958 -2.01722 0
M  V30 36830 H 3416.08 1.65349 -3.50341 0
M  V30 36831 H 3416.5 0.277693 -5.23764 0
M  V30 36832 H 3417.97 1.98566 -5.15049 0
M  V30 36833 H 3418.45 2.5732 -3.55926 0
M  V30 36834 H 3419.05 1.00256 -4.13315 0
M  V30 36835 N 3417.37 1.57509 0.0534363 0
M  V30 36836 C 3418.3 2.07979 1.06147 0
M  V30 36837 C 3419.28 0.977072 1.39238 0
M  V30 36838 O 3420.46 1.2509 1.48547 0
M  V30 36839 C 3417.59 2.53899 2.36965 0
M  V30 36840 C 3416.55 3.68214 2.1818 0
M  V30 36841 C 3415.87 4.00254 3.54544 0
M  V30 36842 C 3417.17 4.97577 1.58791 0
M  V30 36843 H 3418.87 2.92448 0.641432 0
M  V30 36844 H 3416.41 1.40687 0.307098 0
M  V30 36845 H 3418.37 2.87823 3.07792 0
M  V30 36846 H 3417.09 1.66481 2.80983 0
M  V30 36847 H 3415.75 3.34602 1.4979 0
M  V30 36848 H 3415.4 3.09939 3.96165 0
M  V30 36849 H 3415.1 4.77238 3.42808 0
M  V30 36850 H 3416.62 4.3669 4.26772 0
M  V30 36851 H 3418.04 5.29613 2.19506 0
M  V30 36852 H 3416.43 5.79008 1.577 0
M  V30 36853 H 3417.5 4.81757 0.551169 0
M  V30 36854 N 3418.85 -0.325228 1.54208 0
M  V30 36855 C 3419.76 -1.42323 1.86497 0
M  V30 36856 C 3420.77 -1.56682 0.756746 0
M  V30 36857 O 3421.95 -1.7181 1.05087 0
M  V30 36858 C 3419.01 -2.7706 2.08419 0
M  V30 36859 C 3418.07 -2.71891 3.32225 0
M  V30 36860 C 3417.31 -4.00202 3.53092 0
M  V30 36861 O 3417.53 -4.98386 2.7743 0
M  V30 36862 O 3416.46 -4.03562 4.46566 0
M  V30 36863 H 3420.29 -1.17946 2.79861 0
M  V30 36864 H 3417.87 -0.519099 1.40092 0
M  V30 36865 H 3419.76 -3.56823 2.24177 0
M  V30 36866 H 3418.43 -3.01331 1.18243 0
M  V30 36867 H 3417.34 -1.90685 3.21854 0
M  V30 36868 H 3418.67 -2.52575 4.22453 0
M  V30 36869 N 3420.32 -1.46252 -0.587204 0
M  V30 36870 C 3421.73 -1.45548 -1.16931 0
M  V30 36871 C 3422.09 -0.193913 -1.95239 0
M  V30 36872 O 3421.21 0.703284 -2.04653 0
M  V30 36873 C 3421.81 -2.63697 -2.12719 0
M  V30 36874 C 3420.36 -2.66048 -2.66262 0
M  V30 36875 C 3419.51 -2.38156 -1.42046 0
M  V30 36876 H 3422.46 -1.54196 -0.375384 0
M  V30 36877 H 3422.48 -2.38959 -2.96106 0
M  V30 36878 H 3422 -3.555 -1.55696 0
M  V30 36879 H 3420.1 -1.78306 -3.27166 0
M  V30 36880 H 3420.21 -3.6588 -3.09304 0
M  V30 36881 H 3418.57 -1.88122 -1.71704 0
M  V30 36882 H 3419.36 -3.32129 -0.868616 0
M  V30 36883 N 3421.8 0.831459 -1.33883 0
M  V30 36884 C 3422.75 1.93047 -1.21314 0
M  V30 36885 C 3423.74 1.60494 -0.114227 0
M  V30 36886 O 3424.93 1.73644 -0.343058 0
M  V30 36887 C 3422.06 3.29543 -0.962092 0
M  V30 36888 C 3421.14 3.68242 -2.10378 0
M  V30 36889 N 3421.53 3.78573 -3.35434 0
M  V30 36890 C 3419.83 3.98032 -2.01213 0
M  V30 36891 C 3420.53 4.12288 -4.10358 0
M  V30 36892 N 3419.51 4.25053 -3.38867 0
M  V30 36893 H 3423.31 1.99201 -2.16093 0
M  V30 36894 H 3420.82 1.02462 -1.25997 0
M  V30 36895 H 3422.82 4.08081 -0.852967 0
M  V30 36896 H 3421.48 3.24692 -0.0228993 0
M  V30 36897 H 3422.49 3.62288 -3.70091 0
M  V30 36898 H 3419.17 4.0135 -1.14998 0
M  V30 36899 H 3420.56 4.27557 -5.1831 0
M  V30 36900 N 3423.28 1.17472 1.05062 0
M  V30 36901 C 3424.53 0.975346 1.7849 0
M  V30 36902 C 3424.88 -0.490701 1.86037 0
M  V30 36903 O 3424.17 -1.35954 1.35008 0
M  V30 36904 C 3424.37 1.5517 3.21958 0
M  V30 36905 C 3424.2 3.07226 3.28393 0
M  V30 36906 C 3422.97 3.75967 3.37604 0
M  V30 36907 C 3425.16 4.0481 3.17227 0
M  V30 36908 N 3423.15 5.15618 3.33184 0
M  V30 36909 C 3424.52 5.30921 3.20192 0
M  V30 36910 C 3426.57 3.96464 3.01198 0
M  V30 36911 C 3425.28 6.49654 3.08776 0
M  V30 36912 C 3427.3 5.14782 2.91124 0
M  V30 36913 C 3426.66 6.39779 2.94724 0
M  V30 36914 H 3422.76 0.410812 0.6654 0
M  V30 36915 H 3425.35 1.49079 1.25234 0
M  V30 36916 H 3423.52 1.06257 3.73583 0
M  V30 36917 H 3425.25 1.28882 3.83629 0
M  V30 36918 H 3422 3.26654 3.4292 0
M  V30 36919 H 3422.43 5.88625 3.3444 0
M  V30 36920 H 3427.07 3.00667 2.97253 0
M  V30 36921 H 3424.79 7.4566 3.11476 0
M  V30 36922 H 3428.37 5.10106 2.79791 0
M  V30 36923 H 3427.25 7.29794 2.87003 0
M  V30 36924 N 3424.76 -1.23807 0.975168 0
M  V30 36925 C 3425.98 -1.96664 0.658639 0
M  V30 36926 C 3426.41 -1.71765 -0.766714 0
M  V30 36927 O 3425.77 -0.985914 -1.52149 0
M  V30 36928 C 3425.81 -3.47902 0.948499 0
M  V30 36929 O 3424.92 -4.12383 0.0377966 0
M  V30 36930 H 3424.26 -0.615851 0.248242 0
M  V30 36931 H 3426.79 -1.57384 1.30734 0
M  V30 36932 H 3426.8 -3.98329 0.88307 0
M  V30 36933 H 3425.47 -3.65352 1.98723 0
M  V30 36934 H 3424.05 -3.72569 0.157187 0
M  V30 36935 N 3426.24 -0.746182 -1.38816 0
M  V30 36936 C 3427.48 -0.29846 -1.99884 0
M  V30 36937 C 3427.8 1.12153 -1.5952 0
M  V30 36938 O 3427.07 1.76566 -0.848599 0
M  V30 36939 H 3425.65 -0.10736 -0.739245 0
M  V30 36940 H 3428.32 -0.95863 -1.69695 0
M  V30 36941 H 3427.41 -0.355711 -3.10066 0
M  V30 36942 N 3427.71 1.49635 -0.494676 0
M  V30 36943 C 3428.64 2.31856 0.276566 0
M  V30 36944 C 3429.62 1.39838 0.968474 0
M  V30 36945 O 3430.81 1.6875 0.9611 0
M  V30 36946 C 3427.94 3.20192 1.34516 0
M  V30 36947 C 3426.89 4.20953 0.773497 0
M  V30 36948 C 3426.22 4.98182 1.94214 0
M  V30 36949 C 3427.52 5.21788 -0.231188 0
M  V30 36950 H 3429.21 2.96583 -0.40972 0
M  V30 36951 H 3426.76 1.42625 -0.198486 0
M  V30 36952 H 3428.71 3.7652 1.89237 0
M  V30 36953 H 3427.44 2.53395 2.06054 0
M  V30 36954 H 3426.1 3.6576 0.24808 0
M  V30 36955 H 3425.74 4.27838 2.64506 0
M  V30 36956 H 3425.44 5.66355 1.56574 0
M  V30 36957 H 3426.97 5.57352 2.49381 0
M  V30 36958 H 3428.38 5.72848 0.227667 0
M  V30 36959 H 3426.78 5.97816 -0.52309 0
M  V30 36960 H 3427.85 4.71085 -1.14922 0
M  V30 36961 N 3429.19 0.228241 1.55939 0
M  V30 36962 C 3430.12 -0.673661 2.23571 0
M  V30 36963 C 3431.1 -1.19587 1.20966 0
M  V30 36964 O 3432.29 -1.23865 1.4957 0
M  V30 36965 C 3429.42 -1.87901 2.9208 0
M  V30 36966 C 3428.37 -1.49036 4.01214 0
M  V30 36967 C 3427.7 -2.77503 4.57052 0
M  V30 36968 C 3429 -0.675349 5.17915 0
M  V30 36969 H 3430.69 -0.109753 2.99199 0
M  V30 36970 H 3428.24 -0.0513479 1.43908 0
M  V30 36971 H 3430.19 -2.51545 3.38087 0
M  V30 36972 H 3428.91 -2.468 2.1391 0
M  V30 36973 H 3427.57 -0.877349 3.55947 0
M  V30 36974 H 3427.22 -3.3456 3.75605 0
M  V30 36975 H 3426.92 -2.52229 5.30711 0
M  V30 36976 H 3428.45 -3.42078 5.05782 0
M  V30 36977 H 3429.86 -1.21565 5.60263 0
M  V30 36978 H 3428.26 -0.519431 5.97848 0
M  V30 36979 H 3429.33 0.31658 4.83865 0
M  V30 36980 N 3430.67 -1.57536 -0.0450825 0
M  V30 36981 C 3431.92 -1.89664 -0.734785 0
M  V30 36982 C 3432.27 -0.825051 -1.73812 0
M  V30 36983 O 3431.56 0.168034 -1.90862 0
M  V30 36984 C 3431.76 -3.26249 -1.45932 0
M  V30 36985 C 3431.59 -4.46593 -0.527672 0
M  V30 36986 C 3430.36 -5.05063 -0.154646 0
M  V30 36987 C 3432.56 -5.1396 0.187115 0
M  V30 36988 N 3430.54 -6.08925 0.779937 0
M  V30 36989 C 3431.91 -6.12239 0.97792 0
M  V30 36990 C 3433.96 -4.97243 0.255761 0
M  V30 36991 C 3432.67 -6.95604 1.83103 0
M  V30 36992 C 3434.69 -5.81157 1.09594 0
M  V30 36993 C 3434.05 -6.78995 1.87472 0
M  V30 36994 H 3430.15 -0.743132 -0.243473 0
M  V30 36995 H 3432.74 -1.94699 0.00465425 0
M  V30 36996 H 3430.91 -3.22172 -2.16932 0
M  V30 36997 H 3432.64 -3.45942 -2.10015 0
M  V30 36998 H 3429.4 -4.70809 -0.513364 0
M  V30 36999 H 3429.82 -6.65524 1.24126 0
M  V30 37000 H 3434.46 -4.21494 -0.332019 0
M  V30 37001 H 3432.18 -7.70709 2.42968 0
M  V30 37002 H 3435.77 -5.70273 1.15238 0
M  V30 37003 H 3434.65 -7.42799 2.51435 0
M  V30 37004 N 3432.15 0.317045 -1.54378 0
M  V30 37005 C 3433.38 1.07359 -1.76866 0
M  V30 37006 C 3433.79 1.81487 -0.520386 0
M  V30 37007 O 3433.15 1.75253 0.509182 0
M  V30 37008 C 3433.2 2.06663 -2.96602 0
M  V30 37009 O 3432.92 1.35544 -4.16604 0
M  V30 37010 C 3434.42 2.94483 -3.31353 0
M  V30 37011 H 3431.64 0.319073 -0.590283 0
M  V30 37012 H 3434.19 0.361192 -2.01285 0
M  V30 37013 H 3432.34 2.73427 -2.74438 0
M  V30 37014 H 3432.75 2.021 -4.84 0
M  V30 37015 H 3434.23 3.60044 -4.18417 0
M  V30 37016 H 3434.71 3.6193 -2.48803 0
M  V30 37017 H 3435.31 2.33271 -3.55619 0
M  V30 37018 N 3433.63 1.46561 0.57944 0
M  V30 37019 C 3434.59 1.56951 1.6703 0
M  V30 37020 C 3435.59 0.446388 1.5448 0
M  V30 37021 O 3436.78 0.710795 1.59039 0
M  V30 37022 C 3433.91 1.49292 3.06472 0
M  V30 37023 H 3435.1 2.54172 1.59175 0
M  V30 37024 H 3432.66 1.3442 0.79755 0
M  V30 37025 H 3433.39 0.533628 3.1988 0
M  V30 37026 H 3433.18 2.30782 3.16989 0
M  V30 37027 H 3434.67 1.59654 3.85876 0
M  V30 37028 N 3435.1 -0.824347 1.34322 0
M  V30 37029 C 3436.04 -1.94025 1.20123 0
M  V30 37030 C 3437.02 -1.62333 0.0932094 0
M  V30 37031 O 3438.2 -1.86725 0.258102 0
M  V30 37032 C 3435.33 -3.27972 0.845686 0
M  V30 37033 C 3434.37 -3.78627 1.96327 0
M  V30 37034 S 3435.21 -3.98556 3.57649 0
M  V30 37035 C 3436.36 -5.35433 3.24133 0
M  V30 37036 H 3436.59 -2.05771 2.14582 0
M  V30 37037 H 3434.13 -0.979762 1.19332 0
M  V30 37038 H 3436.09 -4.05364 0.647337 0
M  V30 37039 H 3434.75 -3.13997 -0.0805397 0
M  V30 37040 H 3433.94 -4.75591 1.66821 0
M  V30 37041 H 3433.54 -3.08177 2.11903 0
M  V30 37042 H 3435.83 -6.18796 2.75859 0
M  V30 37043 H 3436.78 -5.69922 4.20232 0
M  V30 37044 H 3437.18 -5.00876 2.60352 0
M  V30 37045 N 3436.58 -1.18028 -1.04437 0
M  V30 37046 C 3437.51 -0.927351 -2.14295 0
M  V30 37047 C 3438.49 0.13354 -1.69575 0
M  V30 37048 O 3439.68 -0.018278 -1.94191 0
M  V30 37049 C 3436.81 -0.448195 -3.44396 0
M  V30 37050 C 3435.76 -1.44914 -4.02721 0
M  V30 37051 C 3435.09 -0.827647 -5.28256 0
M  V30 37052 C 3436.39 -2.8247 -4.39326 0
M  V30 37053 H 3438.08 -1.84609 -2.35711 0
M  V30 37054 H 3435.63 -0.889032 -1.13279 0
M  V30 37055 H 3437.58 -0.258628 -4.20606 0
M  V30 37056 H 3436.31 0.506102 -3.22655 0
M  V30 37057 H 3434.96 -1.62558 -3.28588 0
M  V30 37058 H 3434.61 0.133721 -5.02822 0
M  V30 37059 H 3434.31 -1.4959 -5.6824 0
M  V30 37060 H 3435.84 -0.648527 -6.07146 0
M  V30 37061 H 3437.25 -2.685 -5.06538 0
M  V30 37062 H 3435.65 -3.45945 -4.90349 0
M  V30 37063 H 3436.72 -3.36305 -3.49324 0
M  V30 37064 N 3438.06 1.23288 -0.98172 0
M  V30 37065 C 3439.31 1.91046 -0.646852 0
M  V30 37066 C 3439.62 1.77422 0.823448 0
M  V30 37067 O 3440.83 2.39995 1.26943 0
M  V30 37068 C 3439.28 3.42473 -1.10636 0
M  V30 37069 C 3438.89 3.64756 -2.6011 0
M  V30 37070 C 3440.64 4.15999 -0.8453 0
M  V30 37071 C 3438.54 5.09825 -2.99721 0
M  V30 37072 H 3437.47 0.715374 -0.238234 0
M  V30 37073 H 3440.12 1.397 -1.1898 0
M  V30 37074 H 3438.51 3.92936 -0.491623 0
M  V30 37075 H 3439.68 3.24833 -3.26834 0
M  V30 37076 H 3438 3.04542 -2.83977 0
M  V30 37077 H 3440.59 5.22901 -1.11708 0
M  V30 37078 H 3440.94 4.15726 0.218588 0
M  V30 37079 H 3441.47 3.71528 -1.42168 0
M  V30 37080 H 3438.21 5.15229 -4.05239 0
M  V30 37081 H 3437.73 5.50693 -2.37693 0
M  V30 37082 H 3439.41 5.78167 -2.904 0
M  V30 37083 N 3439.54 0.753533 1.38418 0
M  V30 37084 C 3440.76 0.31921 2.04929 0
M  V30 37085 C 3441.19 -1.04413 1.56459 0
M  V30 37086 O 3440.55 -1.66539 0.716557 0
M  V30 37087 C 3440.59 0.351117 3.58887 0
M  V30 37088 O 3439.7 -0.654892 4.07167 0
M  V30 37089 H 3439.04 0.141354 0.64878 0
M  V30 37090 H 3441.57 1.02464 1.77094 0
M  V30 37091 H 3441.58 0.201978 4.075 0
M  V30 37092 H 3440.25 1.34582 3.93523 0
M  V30 37093 H 3438.83 -0.47037 3.69922 0
M  V30 37094 N 3441.02 -1.49371 0.502605 0
M  V30 37095 C 3441.95 -2.32 -0.264266 0
M  V30 37096 C 3442.93 -1.40349 -0.961045 0
M  V30 37097 O 3444.11 -1.69257 -0.952137 0
M  V30 37098 C 3441.24 -3.20901 -1.32816 0
M  V30 37099 C 3440.2 -4.21357 -0.751162 0
M  V30 37100 C 3439.52 -4.99205 -1.91569 0
M  V30 37101 C 3440.82 -5.21658 0.258856 0
M  V30 37102 H 3442.52 -2.96362 0.425443 0
M  V30 37103 H 3440.06 -1.42518 0.206047 0
M  V30 37104 H 3442.02 -3.77518 -1.87238 0
M  V30 37105 H 3440.74 -2.54484 -2.04708 0
M  V30 37106 H 3439.4 -3.65886 -0.228679 0
M  V30 37107 H 3439.05 -4.29235 -2.62233 0
M  V30 37108 H 3438.75 -5.67178 -1.53568 0
M  V30 37109 H 3440.27 -5.58667 -2.46422 0
M  V30 37110 H 3441.68 -5.7296 -0.197285 0
M  V30 37111 H 3440.08 -5.9753 0.554786 0
M  V30 37112 H 3441.15 -4.70469 1.17418 0
M  V30 37113 N 3442.49 -0.236508 -1.55815 0
M  V30 37114 C 3443.46 0.654002 -2.19671 0
M  V30 37115 C 3444.46 1.11054 -1.16292 0
M  V30 37116 O 3445.65 1.01692 -1.41436 0
M  V30 37117 C 3442.78 1.89766 -2.83199 0
M  V30 37118 H 3443.97 0.0970384 -2.99743 0
M  V30 37119 H 3441.53 0.0130706 -1.56295 0
M  V30 37120 H 3442.26 2.49612 -2.07037 0
M  V30 37121 H 3442.05 1.57862 -3.58918 0
M  V30 37122 H 3443.54 2.53179 -3.321 0
M  V30 37123 N 3443.97 1.57557 0.0367273 0
M  V30 37124 C 3445.22 1.88101 0.728074 0
M  V30 37125 C 3445.53 0.834005 1.76929 0
M  V30 37126 O 3446.74 1.02842 2.51268 0
M  V30 37127 C 3445.2 3.33783 1.34599 0
M  V30 37128 C 3444.8 4.46696 0.34152 0
M  V30 37129 C 3446.55 3.73485 2.01765 0
M  V30 37130 C 3444.46 5.83435 0.967341 0
M  V30 37131 H 3443.39 0.701794 0.275683 0
M  V30 37132 H 3446.04 1.83491 -0.0177877 0
M  V30 37133 H 3444.42 3.33113 2.1413 0
M  V30 37134 H 3445.59 4.58822 -0.426521 0
M  V30 37135 H 3443.91 4.15777 -0.227631 0
M  V30 37136 H 3446.5 4.72959 2.49426 0
M  V30 37137 H 3446.85 3.05082 2.8325 0
M  V30 37138 H 3447.38 3.76296 1.2902 0
M  V30 37139 H 3444.12 6.55219 0.192075 0
M  V30 37140 H 3443.64 5.75044 1.7054 0
M  V30 37141 H 3445.32 6.29917 1.47694 0
M  V30 37142 N 3445.45 -0.308854 1.54544 0
M  V30 37143 C 3446.7 -1.04658 1.73708 0
M  V30 37144 C 3447.03 -1.87188 0.517143 0
M  V30 37145 O 3446.31 -1.88335 -0.485823 0
M  V30 37146 C 3446.59 -1.9591 3.02144 0
M  V30 37147 C 3446.44 -1.16613 4.34421 0
M  V30 37148 C 3447.76 -2.95207 3.26406 0
M  V30 37149 H 3444.88 -0.379076 0.632037 0
M  V30 37150 H 3447.52 -0.321914 1.87253 0
M  V30 37151 H 3445.67 -2.57701 2.90728 0
M  V30 37152 H 3447.34 -0.571691 4.57744 0
M  V30 37153 H 3445.59 -0.468672 4.31261 0
M  V30 37154 H 3446.26 -1.83694 5.20539 0
M  V30 37155 H 3448.73 -2.43543 3.37381 0
M  V30 37156 H 3447.61 -3.56228 4.17604 0
M  V30 37157 H 3447.87 -3.68451 2.44329 0
M  V30 37158 N 3446.93 -1.46867 -0.571659 0
M  V30 37159 C 3448.18 -1.52012 -1.32572 0
M  V30 37160 C 3448.49 -0.180872 -1.94762 0
M  V30 37161 O 3449.7 -0.110206 -2.71276 0
M  V30 37162 C 3448.15 -2.67902 -2.40326 0
M  V30 37163 C 3447.76 -4.08294 -1.84391 0
M  V30 37164 C 3449.51 -2.82327 -3.17004 0
M  V30 37165 C 3447.41 -5.15507 -2.8984 0
M  V30 37166 H 3446.34 -0.56577 -0.498418 0
M  V30 37167 H 3448.99 -1.73106 -0.608823 0
M  V30 37168 H 3447.38 -2.40159 -3.14865 0
M  V30 37169 H 3448.55 -4.45877 -1.16321 0
M  V30 37170 H 3446.86 -3.9863 -1.20344 0
M  V30 37171 H 3449.46 -3.59594 -3.95722 0
M  V30 37172 H 3449.8 -1.90243 -3.70288 0
M  V30 37173 H 3450.34 -3.0977 -2.49575 0
M  V30 37174 H 3447.08 -6.0942 -2.41429 0
M  V30 37175 H 3446.6 -4.82457 -3.56364 0
M  V30 37176 H 3448.28 -5.41831 -3.53593 0
M  V30 37177 N 3448.41 0.817212 -1.34757 0
M  V30 37178 C 3449.37 1.91003 -1.2669 0
M  V30 37179 C 3450.37 1.59781 -0.180773 0
M  V30 37180 O 3451.56 1.68713 -0.433777 0
M  V30 37181 C 3448.69 3.27181 -0.95735 0
M  V30 37182 H 3449.89 1.99578 -2.2385 0
M  V30 37183 H 3447.44 1.01185 -1.19127 0
M  V30 37184 H 3448.17 3.24298 0.0108347 0
M  V30 37185 H 3447.96 3.51227 -1.74304 0
M  V30 37186 H 3449.45 4.07199 -0.926233 0
M  V30 37187 N 3449.89 1.1858 1.0381 0
M  V30 37188 C 3450.82 0.938703 2.138 0
M  V30 37189 C 3451.8 -0.124546 1.69643 0
M  V30 37190 O 3452.98 0.0285762 1.94179 0
M  V30 37191 C 3450.11 0.466453 3.44153 0
M  V30 37192 C 3449.07 1.47048 4.01946 0
M  V30 37193 C 3448.39 0.855651 5.27809 0
M  V30 37194 C 3449.69 2.84796 4.37822 0
M  V30 37195 H 3451.39 1.85856 2.34729 0
M  V30 37196 H 3448.93 0.895027 1.12806 0
M  V30 37197 H 3450.88 0.28093 4.20463 0
M  V30 37198 H 3449.61 -0.488984 3.22919 0
M  V30 37199 H 3448.27 1.64299 3.27722 0
M  V30 37200 H 3447.92 -0.107054 5.02886 0
M  V30 37201 H 3447.62 1.52602 5.67438 0
M  V30 37202 H 3449.14 0.680716 6.06794 0
M  V30 37203 H 3450.55 2.71182 5.05107 0
M  V30 37204 H 3448.95 3.4854 4.88508 0
M  V30 37205 H 3450.02 3.38153 3.47535 0
M  V30 37206 N 3451.36 -1.22766 0.988245 0
M  V30 37207 C 3452.77 -1.73189 0.697311 0
M  V30 37208 C 3453.13 -1.79764 -0.786079 0
M  V30 37209 O 3452.25 -1.4408 -1.61462 0
M  V30 37210 C 3452.85 -3.14535 1.25911 0
M  V30 37211 C 3451.4 -3.62382 1.01765 0
M  V30 37212 C 3450.55 -2.40402 1.38211 0
M  V30 37213 H 3453.5 -1.08179 1.16116 0
M  V30 37214 H 3453.52 -3.75158 0.635381 0
M  V30 37215 H 3453.04 -3.09717 2.33874 0
M  V30 37216 H 3451.14 -3.72572 -0.0455615 0
M  V30 37217 H 3451.25 -4.48763 1.67775 0
M  V30 37218 H 3449.61 -2.41789 0.800649 0
M  V30 37219 H 3450.4 -2.38249 2.47169 0
M  V30 37220 N 3452.84 -0.760864 -1.38017 0
M  V30 37221 C 3453.79 -0.138001 -2.30387 0
M  V30 37222 C 3454.76 0.701728 -1.50549 0
M  V30 37223 O 3455.94 0.656349 -1.79156 0
M  V30 37224 C 3453.08 0.743583 -3.36994 0
M  V30 37225 C 3452.2 -0.111565 -4.31856 0
M  V30 37226 C 3451.33 0.773703 -5.25535 0
M  V30 37227 C 3450.37 -0.0846387 -6.12041 0
M  V30 37228 N 3449.51 0.757995 -6.97996 0
M  V30 37229 H 3454.35 -0.931262 -2.83075 0
M  V30 37230 H 3451.88 -0.470857 -1.3936 0
M  V30 37231 H 3453.84 1.26941 -3.97419 0
M  V30 37232 H 3452.47 1.50256 -2.85698 0
M  V30 37233 H 3451.52 -0.755097 -3.7283 0
M  V30 37234 H 3452.84 -0.774128 -4.92756 0
M  V30 37235 H 3451.99 1.36643 -5.91112 0
M  V30 37236 H 3450.73 1.46998 -4.65019 0
M  V30 37237 H 3449.73 -0.689978 -5.45453 0
M  V30 37238 H 3450.96 -0.778085 -6.74628 0
M  V30 37239 H 3448.91 1.43909 -6.40021 0
M  V30 37240 H 3448.82 0.15249 -7.55846 0
M  V30 37241 H 3450.09 1.33546 -7.67975 0
M  V30 37242 N 3454.32 1.49102 -0.510519 0
M  V30 37243 C 3455.73 1.86586 -0.0651159 0
M  V30 37244 C 3456.08 1.42197 1.35183 0
M  V30 37245 O 3455.21 0.80404 2.00908 0
M  V30 37246 C 3455.8 3.38617 -0.111392 0
M  V30 37247 C 3454.36 3.75367 0.278716 0
M  V30 37248 C 3453.51 2.73118 -0.479755 0
M  V30 37249 H 3456.46 1.41284 -0.722809 0
M  V30 37250 H 3456.48 3.74345 0.68164 0
M  V30 37251 H 3455.99 3.70894 -1.14278 0
M  V30 37252 H 3454.09 3.487 1.31298 0
M  V30 37253 H 3454.21 4.79077 -0.0473552 0
M  V30 37254 H 3452.57 2.54599 0.0716011 0
M  V30 37255 H 3453.35 3.08239 -1.5114 0
M  V30 37256 N 3455.8 0.244768 1.55688 0
M  V30 37257 C 3456.75 -0.669558 2.17947 0
M  V30 37258 C 3457.73 -1.14076 1.1347 0
M  V30 37259 O 3458.92 -1.09088 1.39387 0
M  V30 37260 C 3456.05 -1.86716 2.88084 0
M  V30 37261 C 3455.14 -1.41456 3.99814 0
M  V30 37262 N 3455.53 -0.676043 5.01262 0
M  V30 37263 C 3453.83 -1.70001 4.1233 0
M  V30 37264 C 3454.53 -0.442011 5.80018 0
M  V30 37265 N 3453.5 -1.00559 5.34218 0
M  V30 37266 H 3457.31 -0.0971436 2.93739 0
M  V30 37267 H 3454.82 0.0469931 1.62332 0
M  V30 37268 H 3456.82 -2.53316 3.31114 0
M  V30 37269 H 3455.48 -2.44382 2.13794 0
M  V30 37270 H 3456.49 -0.326368 5.16871 0
M  V30 37271 H 3453.17 -2.28821 3.4921 0
M  V30 37272 H 3454.56 0.147408 6.71738 0
M  V30 37273 N 3457.28 -1.57574 -0.0283712 0
M  V30 37274 C 3458.52 -1.8893 -0.717623 0
M  V30 37275 C 3458.84 -0.842548 -1.75858 0
M  V30 37276 O 3458.11 0.123739 -1.95509 0
M  V30 37277 H 3456.69 -0.697255 -0.268038 0
M  V30 37278 H 3459.36 -1.94899 0.00584117 0
M  V30 37279 H 3458.45 -2.87826 -1.20675 0
M  V30 37280 N 3458.75 0.300654 -1.54706 0
M  V30 37281 C 3460 1.03346 -1.73212 0
M  V30 37282 C 3460.32 1.88417 -0.525213 0
M  V30 37283 O 3461.52 2.64965 -0.592095 0
M  V30 37284 C 3459.98 1.88712 -3.06457 0
M  V30 37285 C 3459.59 1.08642 -4.34627 0
M  V30 37286 C 3461.33 2.6159 -3.34322 0
M  V30 37287 C 3459.24 1.93287 -5.58922 0
M  V30 37288 H 3458.17 0.389562 -0.645567 0
M  V30 37289 H 3460.82 0.290441 -1.81187 0
M  V30 37290 H 3459.2 2.67002 -2.92448 0
M  V30 37291 H 3460.37 0.349626 -4.59472 0
M  V30 37292 H 3458.69 0.473448 -4.137 0
M  V30 37293 H 3461.29 3.25271 -4.24386 0
M  V30 37294 H 3461.63 3.30437 -2.53213 0
M  V30 37295 H 3462.16 1.90348 -3.49303 0
M  V30 37296 H 3458.9 1.28908 -6.427 0
M  V30 37297 H 3458.42 2.64638 -5.38263 0
M  V30 37298 H 3460.1 2.51326 -5.96192 0
M  V30 37299 N 3460.23 1.47168 0.563863 0
M  V30 37300 C 3461.65 1.32539 0.889133 0
M  V30 37301 C 3461.85 0.310889 1.99087 0
M  V30 37302 O 3460.9 -0.279936 2.50943 0
M  V30 37303 C 3462.22 2.71687 1.28866 0
M  V30 37304 C 3463.77 2.79922 1.40046 0
M  V30 37305 C 3464.24 4.19695 1.83357 0
M  V30 37306 N 3465.73 4.22205 1.90519 0
M  V30 37307 C 3466.47 5.27264 2.25345 0
M  V30 37308 N 3465.96 6.42633 2.58832 0
M  V30 37309 N 3467.76 5.14638 2.26062 0
M  V30 37310 H 3459.91 2.11769 -0.163619 0
M  V30 37311 H 3462.17 0.947941 -0.0105317 0
M  V30 37312 H 3461.88 3.47325 0.552996 0
M  V30 37313 H 3461.75 3.03025 2.24623 0
M  V30 37314 H 3464.14 2.0456 2.12695 0
M  V30 37315 H 3464.22 2.52246 0.424927 0
M  V30 37316 H 3463.86 4.95559 1.1128 0
M  V30 37317 H 3463.79 4.44791 2.81901 0
M  V30 37318 H 3466.28 3.38971 1.67053 0
M  V30 37319 H 3466.6 7.1856 2.84414 0
M  V30 37320 H 3464.94 6.45964 2.56428 0
M  V30 37321 H 3468.13 4.23536 1.99336 0
M  V30 37322 H 3468.3 5.96623 2.52874 0
M  V30 37323 N 3461.71 -0.810054 1.35188 0
M  V30 37324 C 3462.67 -1.90329 1.27701 0
M  V30 37325 C 3463.67 -1.59683 0.189244 0
M  V30 37326 O 3464.86 -1.6848 0.442718 0
M  V30 37327 C 3462 -3.26669 0.974688 0
M  V30 37328 H 3463.19 -1.98388 2.24905 0
M  V30 37329 H 3460.74 -1.00552 1.19662 0
M  V30 37330 H 3461.48 -3.24299 0.0063638 0
M  V30 37331 H 3461.26 -3.50298 1.76164 0
M  V30 37332 H 3462.75 -4.06702 0.947814 0
M  V30 37333 N 3463.19 -1.19129 -1.0318 0
M  V30 37334 C 3464.12 -0.950028 -2.133 0
M  V30 37335 C 3465.1 0.115547 -1.69707 0
M  V30 37336 O 3466.28 -0.0388736 -1.94161 0
M  V30 37337 C 3463.41 -0.484697 -3.43901 0
M  V30 37338 C 3462.37 -1.49177 -4.01161 0
M  V30 37339 C 3461.69 -0.883629 -5.27348 0
M  V30 37340 C 3462.99 -2.87114 -4.36306 0
M  V30 37341 H 3464.69 -1.87099 -2.3374 0
M  V30 37342 H 3462.23 -0.900997 -1.1233 0
M  V30 37343 H 3464.19 -0.303224 -4.20308 0
M  V30 37344 H 3462.91 0.471852 -3.23174 0
M  V30 37345 H 3461.57 -1.66034 -3.26846 0
M  V30 37346 H 3461.22 0.0803828 -5.02936 0
M  V30 37347 H 3460.92 -1.55609 -5.66621 0
M  V30 37348 H 3462.44 -0.712886 -6.06424 0
M  V30 37349 H 3463.86 -2.73857 -5.03662 0
M  V30 37350 H 3462.25 -3.51126 -4.86652 0
M  V30 37351 H 3463.32 -3.39991 -3.45737 0
M  V30 37352 N 3464.67 1.2224 -0.994741 0
M  V30 37353 C 3465.92 1.9035 -0.667079 0
M  V30 37354 C 3466.23 1.78286 0.804583 0
M  V30 37355 O 3467.43 2.41328 1.24391 0
M  V30 37356 C 3465.89 3.4128 -1.14262 0
M  V30 37357 C 3465.5 3.61977 -2.63964 0
M  V30 37358 C 3467.24 4.15079 -0.889375 0
M  V30 37359 C 3465.15 5.06617 -3.05112 0
M  V30 37360 H 3464.08 0.712807 -0.245808 0
M  V30 37361 H 3466.73 1.3843 -1.20455 0
M  V30 37362 H 3465.11 3.92393 -0.533272 0
M  V30 37363 H 3466.29 3.21348 -3.30261 0
M  V30 37364 H 3464.6 3.01513 -2.87191 0
M  V30 37365 H 3467.2 5.21687 -1.17248 0
M  V30 37366 H 3467.54 4.15934 0.174483 0
M  V30 37367 H 3468.07 3.69999 -1.46101 0
M  V30 37368 H 3464.81 5.10902 -4.10681 0
M  V30 37369 H 3464.33 5.48141 -2.4352 0
M  V30 37370 H 3466.01 5.75054 -2.96516 0
M  V30 37371 N 3466.14 0.768172 1.37611 0
M  V30 37372 C 3467.11 0.158323 2.28653 0
M  V30 37373 C 3468.11 -0.63191 1.47863 0
M  V30 37374 O 3469.3 -0.456025 1.68125 0
M  V30 37375 C 3466.43 -0.783377 3.31777 0
M  V30 37376 H 3467.62 0.960822 2.84092 0
M  V30 37377 H 3465.18 0.536142 1.46817 0
M  V30 37378 H 3465.91 -1.61101 2.81455 0
M  V30 37379 H 3465.7 -0.218947 3.91488 0
M  V30 37380 H 3467.19 -1.20561 3.99818 0
M  V30 37381 N 3467.62 -1.48829 0.518419 0
M  V30 37382 C 3468.85 -2.07392 -0.0182766 0
M  V30 37383 C 3469.27 -1.37398 -1.28465 0
M  V30 37384 O 3468.63 -0.436208 -1.75974 0
M  V30 37385 C 3468.68 -3.59819 -0.237148 0
M  V30 37386 O 3467.78 -3.91098 -1.30828 0
M  V30 37387 H 3467.12 -0.66313 0.0339737 0
M  V30 37388 H 3469.65 -1.91399 0.723027 0
M  V30 37389 H 3469.66 -4.0536 -0.463353 0
M  V30 37390 H 3468.34 -4.1017 0.687997 0
M  V30 37391 H 3466.92 -3.57349 -1.06565 0
M  V30 37392 N 3469.1 -0.253021 -1.55556 0
M  V30 37393 C 3470.33 0.373986 -2.03492 0
M  V30 37394 C 3470.74 1.51092 -1.1321 0
M  V30 37395 O 3470.1 1.81901 -0.147737 0
M  V30 37396 C 3470.15 0.875986 -3.50726 0
M  V30 37397 O 3469.87 -0.215651 -4.37569 0
M  V30 37398 C 3471.37 1.57306 -4.14451 0
M  V30 37399 H 3468.59 0.0881527 -0.665184 0
M  V30 37400 H 3471.14 -0.378671 -2.00964 0
M  V30 37401 H 3469.29 1.5788 -3.53769 0
M  V30 37402 H 3469.71 0.166532 -5.24236 0
M  V30 37403 H 3471.18 1.87596 -5.19145 0
M  V30 37404 H 3471.66 2.49712 -3.61304 0
M  V30 37405 H 3472.26 0.914662 -4.15348 0
M  V30 37406 N 3470.58 1.57587 0.0200142 0
M  V30 37407 C 3471.83 1.88863 0.708082 0
M  V30 37408 C 3472.14 0.852724 1.76034 0
M  V30 37409 O 3473.35 1.05501 2.50163 0
M  V30 37410 C 3471.8 3.35192 1.31051 0
M  V30 37411 C 3471.41 4.47033 0.294123 0
M  V30 37412 C 3473.15 3.75604 1.97793 0
M  V30 37413 C 3471.06 5.84428 0.905405 0
M  V30 37414 H 3469.99 0.704679 0.268224 0
M  V30 37415 H 3472.64 1.83462 -0.0372485 0
M  V30 37416 H 3471.02 3.35366 2.10584 0
M  V30 37417 H 3472.2 4.58344 -0.475162 0
M  V30 37418 H 3470.51 4.15513 -0.271717 0
M  V30 37419 H 3473.11 4.75578 2.44396 0
M  V30 37420 H 3473.45 3.08069 2.79998 0
M  V30 37421 H 3473.99 3.77643 1.25021 0
M  V30 37422 H 3470.73 6.55385 0.12257 0
M  V30 37423 H 3470.25 5.76821 1.64432 0
M  V30 37424 H 3471.92 6.31448 1.41005 0
M  V30 37425 N 3472.06 -0.292445 1.54863 0
M  V30 37426 C 3472.99 -1.36553 1.89409 0
M  V30 37427 C 3473.97 -1.52482 0.753864 0
M  V30 37428 O 3475.15 -1.65849 1.01034 0
M  V30 37429 C 3472.28 -2.72834 2.14893 0
M  V30 37430 C 3471.24 -2.71659 3.30734 0
M  V30 37431 C 3470.56 -4.1131 3.41655 0
M  V30 37432 C 3471.86 -2.32643 4.67627 0
M  V30 37433 H 3473.56 -1.07889 2.79285 0
M  V30 37434 H 3471.1 -0.517561 1.34377 0
M  V30 37435 H 3473.06 -3.47998 2.37646 0
M  V30 37436 H 3471.78 -3.0304 1.21795 0
M  V30 37437 H 3470.44 -1.98952 3.07918 0
M  V30 37438 H 3470.09 -4.38707 2.46059 0
M  V30 37439 H 3469.79 -4.11423 4.19529 0
M  V30 37440 H 3471.31 -4.88241 3.66678 0
M  V30 37441 H 3472.72 -2.97524 4.90053 0
M  V30 37442 H 3471.12 -2.43953 5.48276 0
M  V30 37443 H 3472.19 -1.27769 4.67764 0
M  V30 37444 N 3473.53 -1.47465 -0.55605 0
M  V30 37445 C 3474.95 -1.33009 -0.882091 0
M  V30 37446 C 3475.15 -0.321442 -1.9892 0
M  V30 37447 O 3474.21 0.266624 -2.51088 0
M  V30 37448 C 3475.52 -2.72367 -1.27423 0
M  V30 37449 C 3477.07 -2.8066 -1.38559 0
M  V30 37450 C 3477.54 -4.20662 -1.81128 0
M  V30 37451 N 3479.03 -4.23209 -1.88277 0
M  V30 37452 C 3479.77 -5.28451 -2.22546 0
M  V30 37453 N 3479.26 -6.43997 -2.55421 0
M  V30 37454 N 3481.06 -5.1583 -2.2333 0
M  V30 37455 H 3473.21 -2.11679 0.174847 0
M  V30 37456 H 3475.47 -0.947872 0.0155588 0
M  V30 37457 H 3475.18 -3.47614 -0.534569 0
M  V30 37458 H 3475.05 -3.04212 -2.23013 0
M  V30 37459 H 3477.44 -2.05686 -2.11607 0
M  V30 37460 H 3477.52 -2.52468 -0.411543 0
M  V30 37461 H 3477.16 -4.96143 -1.0865 0
M  V30 37462 H 3477.09 -4.4628 -2.79538 0
M  V30 37463 H 3479.58 -3.39853 -1.65253 0
M  V30 37464 H 3479.9 -7.20058 -2.806 0
M  V30 37465 H 3478.24 -6.47315 -2.52998 0
M  V30 37466 H 3481.43 -4.24587 -1.97087 0
M  V30 37467 H 3481.61 -5.97955 -2.49707 0
M  V30 37468 N 3475.01 0.802873 -1.35616 0
M  V30 37469 C 3475.94 1.92944 -1.3151 0
M  V30 37470 C 3476.92 1.69048 -0.188872 0
M  V30 37471 O 3478.11 1.90357 -0.384418 0
M  V30 37472 C 3475.24 3.2975 -1.09007 0
M  V30 37473 C 3474.19 3.68137 -2.1831 0
M  V30 37474 C 3473.52 5.03145 -1.80967 0
M  V30 37475 C 3474.82 3.78126 -3.60303 0
M  V30 37476 H 3476.51 1.96638 -2.25774 0
M  V30 37477 H 3474.06 0.944666 -1.08683 0
M  V30 37478 H 3476.01 4.08167 -1.04773 0
M  V30 37479 H 3474.74 3.26408 -0.11189 0
M  V30 37480 H 3473.4 2.92007 -2.21647 0
M  V30 37481 H 3473.04 4.96311 -0.817582 0
M  V30 37482 H 3472.74 5.298 -2.54138 0
M  V30 37483 H 3474.27 5.83998 -1.78265 0
M  V30 37484 H 3475.68 4.46766 -3.59267 0
M  V30 37485 H 3474.08 4.16254 -4.32265 0
M  V30 37486 H 3475.15 2.79581 -3.96185 0
M  V30 37487 N 3476.49 1.19674 1.02547 0
M  V30 37488 C 3477.74 0.995762 1.75407 0
M  V30 37489 C 3478.05 -0.473829 1.89774 0
M  V30 37490 O 3479.26 -0.793717 2.59639 0
M  V30 37491 C 3477.72 1.73278 3.1544 0
M  V30 37492 C 3477.32 3.24271 3.09115 0
M  V30 37493 C 3479.07 1.61516 3.92572 0
M  V30 37494 C 3476.97 3.90548 4.44102 0
M  V30 37495 H 3475.9 0.368955 0.657562 0
M  V30 37496 H 3478.56 1.43205 1.14737 0
M  V30 37497 H 3476.94 1.22432 3.76598 0
M  V30 37498 H 3478.11 3.82262 2.57318 0
M  V30 37499 H 3476.43 3.36346 2.45479 0
M  V30 37500 H 3479.02 2.08381 4.92424 0
M  V30 37501 H 3479.37 0.569876 4.12381 0
M  V30 37502 H 3479.9 2.09727 3.38023 0
M  V30 37503 H 3476.64 4.95189 4.29497 0
M  V30 37504 H 3476.16 3.37346 4.95942 0
M  V30 37505 H 3477.84 3.94291 5.12975 0
M  V30 37506 N 3477.97 -1.21711 1.00121 0
M  V30 37507 C 3479.22 -1.90679 0.681757 0
M  V30 37508 C 3479.54 -1.77863 -0.78709 0
M  V30 37509 O 3478.8 -1.1469 -1.58571 0
M  V30 37510 C 3479.1 -3.41818 1.04382 0
M  V30 37511 C 3478.76 -3.74827 2.5063 0
M  V30 37512 C 3477.43 -3.83547 2.90594 0
M  V30 37513 C 3479.78 -3.90333 3.45384 0
M  V30 37514 C 3477.11 -4.05217 4.24283 0
M  V30 37515 C 3479.46 -4.13509 4.78741 0
M  V30 37516 C 3478.12 -4.20455 5.18434 0
M  V30 37517 H 3477.39 -0.697742 0.249472 0
M  V30 37518 H 3480.04 -1.44301 1.25894 0
M  V30 37519 H 3478.34 -3.89906 0.384825 0
M  V30 37520 H 3480.04 -3.93448 0.774558 0
M  V30 37521 H 3476.63 -3.68628 2.18657 0
M  V30 37522 H 3480.82 -3.82966 3.15675 0
M  V30 37523 H 3476.07 -4.08825 4.54612 0
M  V30 37524 H 3480.25 -4.24449 5.52101 0
M  V30 37525 H 3477.87 -4.36999 6.22042 0
M  V30 37526 N 3479.45 -0.775459 -1.37202 0
M  V30 37527 C 3480.67 -0.351772 -2.04395 0
M  V30 37528 C 3481.1 1.01911 -1.58101 0
M  V30 37529 O 3480.46 1.65378 -0.742961 0
M  V30 37530 C 3480.5 -0.408168 -3.58282 0
M  V30 37531 O 3479.61 0.590032 -4.08157 0
M  V30 37532 H 3478.95 -0.151658 -0.646449 0
M  V30 37533 H 3481.48 -1.05268 -1.75441 0
M  V30 37534 H 3481.49 -0.266783 -4.07127 0
M  V30 37535 H 3480.16 -1.40826 -3.91332 0
M  V30 37536 H 3478.74 0.411459 -3.70623 0
M  V30 37537 N 3480.93 1.48552 -0.526305 0
M  V30 37538 C 3482.17 2.02798 0.00914443 0
M  V30 37539 C 3482.5 1.40293 1.34282 0
M  V30 37540 O 3481.78 0.547387 1.86638 0
M  V30 37541 C 3482.06 3.59847 0.135039 0
M  V30 37542 C 3481.92 4.32839 -1.22354 0
M  V30 37543 C 3483.23 4.31544 0.863597 0
M  V30 37544 H 3480.35 0.736998 0.00184921 0
M  V30 37545 H 3483 1.77314 -0.682622 0
M  V30 37546 H 3481.15 3.8169 0.724212 0
M  V30 37547 H 3482.82 4.22423 -1.85354 0
M  V30 37548 H 3481.06 3.94401 -1.80638 0
M  V30 37549 H 3481.73 5.41162 -1.08849 0
M  V30 37550 H 3484.21 4.14508 0.363661 0
M  V30 37551 H 3483.08 5.41125 0.920575 0
M  V30 37552 H 3483.34 3.98565 1.91306 0
M  V30 37553 N 3482.4 0.261267 1.55419 0
M  V30 37554 C 3483.65 -0.358742 1.98891 0
M  V30 37555 C 3483.97 -1.57411 1.15095 0
M  V30 37556 O 3483.24 -1.9446 0.237129 0
M  V30 37557 H 3481.82 -0.135537 0.734601 0
M  V30 37558 H 3484.48 0.36339 1.91482 0
M  V30 37559 H 3483.58 -0.658088 3.05083 0
M  V30 37560 N 3483.88 -1.57596 -0.0116567 0
M  V30 37561 C 3484.81 -2.1072 -1.00595 0
M  V30 37562 C 3485.79 -1.01364 -1.36599 0
M  V30 37563 O 3486.98 -1.28984 -1.45178 0
M  V30 37564 C 3484.11 -2.60093 -2.3015 0
M  V30 37565 C 3483.06 -3.73869 -2.08341 0
M  V30 37566 C 3482.39 -4.09513 -3.43807 0
M  V30 37567 C 3483.69 -5.01612 -1.45543 0
M  V30 37568 H 3485.38 -2.94046 -0.563669 0
M  V30 37569 H 3482.93 -1.41452 -0.269689 0
M  V30 37570 H 3484.88 -2.95882 -3.00053 0
M  V30 37571 H 3483.6 -1.73873 -2.7647 0
M  V30 37572 H 3482.26 -3.38456 -1.40866 0
M  V30 37573 H 3481.91 -3.20333 -3.87809 0
M  V30 37574 H 3481.61 -4.8616 -3.30034 0
M  V30 37575 H 3483.14 -4.47851 -4.15044 0
M  V30 37576 H 3484.55 -5.35247 -2.05387 0
M  V30 37577 H 3482.95 -5.82986 -1.42294 0
M  V30 37578 H 3484.02 -4.83049 -0.423246 0
M  V30 37579 N 3485.36 0.284228 -1.55016 0
M  V30 37580 C 3486.29 1.37307 -1.8352 0
M  V30 37581 C 3487.3 1.46061 -0.719034 0
M  V30 37582 O 3488.49 1.48079 -0.996745 0
M  V30 37583 C 3485.59 2.75536 -1.97314 0
M  V30 37584 C 3484.77 2.89512 -3.27875 0
M  V30 37585 C 3483.83 4.08345 -3.31875 0
M  V30 37586 O 3482.85 3.99634 -4.05316 0
M  V30 37587 N 3484.05 5.19783 -2.58469 0
M  V30 37588 H 3486.82 1.13205 -2.77497 0
M  V30 37589 H 3484.38 0.474332 -1.54796 0
M  V30 37590 H 3486.37 3.53307 -1.97373 0
M  V30 37591 H 3484.94 2.92511 -1.10254 0
M  V30 37592 H 3484.16 1.98716 -3.40449 0
M  V30 37593 H 3485.45 2.95772 -4.14001 0
M  V30 37594 H 3484.85 5.29744 -1.98464 0
M  V30 37595 H 3483.4 5.95826 -2.64263 0
M  V30 37596 N 3486.84 1.47758 0.548222 0
M  V30 37597 C 3488.25 1.48597 1.1303 0
M  V30 37598 C 3488.6 0.24561 1.94657 0
M  V30 37599 O 3487.72 -0.648776 2.06446 0
M  V30 37600 C 3488.32 2.69244 2.05653 0
M  V30 37601 C 3486.88 2.73014 2.59115 0
M  V30 37602 C 3486.03 2.41838 1.35682 0
M  V30 37603 H 3488.98 1.55138 0.33437 0
M  V30 37604 H 3489 2.46725 2.89667 0
M  V30 37605 H 3488.51 3.59503 1.46216 0
M  V30 37606 H 3486.61 1.86917 3.22324 0
M  V30 37607 H 3486.72 3.73952 2.99494 0
M  V30 37608 H 3485.09 1.92609 1.66655 0
M  V30 37609 H 3485.87 3.34316 0.780253 0
M  V30 37610 N 3488.32 -0.79567 1.3604 0
M  V30 37611 C 3489.54 -1.58436 1.33062 0
M  V30 37612 C 3489.96 -1.88588 -0.0895164 0
M  V30 37613 O 3489.32 -1.49645 -1.04463 0
M  V30 37614 C 3489.37 -2.90911 2.14599 0
M  V30 37615 O 3489.09 -2.62062 3.51077 0
M  V30 37616 C 3490.59 -3.85239 2.19331 0
M  V30 37617 H 3487.81 -0.491617 0.456677 0
M  V30 37618 H 3490.35 -0.988003 1.7905 0
M  V30 37619 H 3488.51 -3.47033 1.72183 0
M  V30 37620 H 3488.92 -3.46725 3.93551 0
M  V30 37621 H 3490.4 -4.75271 2.80752 0
M  V30 37622 H 3490.87 -4.22629 1.19504 0
M  V30 37623 H 3491.48 -3.35051 2.61956 0
M  V30 37624 N 3489.79 -1.20217 -1.0191 0
M  V30 37625 C 3490.72 -0.972598 -2.1228 0
M  V30 37626 C 3491.71 0.097541 -1.6982 0
M  V30 37627 O 3492.89 -0.0594648 -1.94109 0
M  V30 37628 C 3490.02 -0.521145 -3.43368 0
M  V30 37629 C 3488.97 -1.53424 -3.99556 0
M  V30 37630 C 3488.3 -0.939512 -5.26381 0
M  V30 37631 C 3489.6 -2.91726 -4.33236 0
M  V30 37632 H 3491.29 -1.89567 -2.31743 0
M  V30 37633 H 3488.84 -0.91286 -1.11368 0
M  V30 37634 H 3490.79 -0.347786 -4.19962 0
M  V30 37635 H 3489.52 0.437549 -3.23656 0
M  V30 37636 H 3488.18 -1.69492 -3.25066 0
M  V30 37637 H 3487.82 0.0270352 -5.02993 0
M  V30 37638 H 3487.52 -1.6161 -5.64939 0
M  V30 37639 H 3489.05 -0.777166 -6.05634 0
M  V30 37640 H 3490.46 -2.79184 -5.00729 0
M  V30 37641 H 3488.86 -3.56268 -4.82901 0
M  V30 37642 H 3489.93 -3.43639 -3.42112 0
M  V30 37643 N 3491.27 1.21178 -1.00765 0
M  V30 37644 C 3492.52 1.90314 -0.691859 0
M  V30 37645 C 3492.85 1.78278 0.777646 0
M  V30 37646 O 3492.1 1.15529 1.5796 0
M  V30 37647 C 3492.4 3.41259 -1.06193 0
M  V30 37648 C 3492.07 3.73493 -2.52614 0
M  V30 37649 C 3490.73 3.82001 -2.92624 0
M  V30 37650 C 3493.08 3.88496 -3.47449 0
M  V30 37651 C 3490.41 4.02962 -4.26426 0
M  V30 37652 C 3492.76 4.10964 -4.80927 0
M  V30 37653 C 3491.43 4.177 -5.20657 0
M  V30 37654 H 3490.7 0.69641 -0.253169 0
M  V30 37655 H 3493.34 1.43632 -1.26658 0
M  V30 37656 H 3491.65 3.89696 -0.405497 0
M  V30 37657 H 3493.34 3.93032 -0.795412 0
M  V30 37658 H 3489.93 3.67464 -2.20609 0
M  V30 37659 H 3494.12 3.81286 -3.17702 0
M  V30 37660 H 3489.37 4.06408 -4.56774 0
M  V30 37661 H 3493.55 4.21515 -5.54344 0
M  V30 37662 H 3491.18 4.33694 -6.2435 0
M  V30 37663 N 3492.75 0.782725 1.36789 0
M  V30 37664 C 3493.68 0.190645 2.3272 0
M  V30 37665 C 3494.66 -0.670636 1.56322 0
M  V30 37666 O 3495.85 -0.605839 1.84508 0
M  V30 37667 C 3492.98 -0.680657 3.40565 0
M  V30 37668 C 3491.93 0.0801932 4.27925 0
M  V30 37669 C 3491.26 -0.911269 5.26878 0
M  V30 37670 C 3492.56 1.26554 5.06736 0
M  V30 37671 H 3494.25 0.992073 2.82486 0
M  V30 37672 H 3491.8 0.478508 1.35817 0
M  V30 37673 H 3493.75 -1.10475 4.06661 0
M  V30 37674 H 3492.47 -1.51472 2.89351 0
M  V30 37675 H 3491.13 0.485189 3.63375 0
M  V30 37676 H 3490.78 -1.74018 4.71939 0
M  V30 37677 H 3490.48 -0.406659 5.86191 0
M  V30 37678 H 3492 -1.33407 5.95848 0
M  V30 37679 H 3493.42 0.917547 5.6591 0
M  V30 37680 H 3491.82 1.70299 5.75429 0
M  V30 37681 H 3492.89 2.06423 4.38768 0
M  V30 37682 N 3494.23 -1.48271 0.534176 0
M  V30 37683 C 3495.16 -2.32508 -0.214996 0
M  V30 37684 C 3496.14 -1.42356 -0.931058 0
M  V30 37685 O 3497.32 -1.71239 -0.916021 0
M  V30 37686 C 3494.45 -3.23646 -1.25979 0
M  V30 37687 C 3493.41 -4.22855 -0.661617 0
M  V30 37688 C 3492.73 -5.03156 -1.80937 0
M  V30 37689 C 3494.03 -5.20992 0.369449 0
M  V30 37690 H 3495.73 -2.95393 0.48821 0
M  V30 37691 H 3493.27 -1.42049 0.236231 0
M  V30 37692 H 3495.23 -3.81405 -1.79188 0
M  V30 37693 H 3493.95 -2.58769 -1.99264 0
M  V30 37694 H 3492.61 -3.66289 -0.151018 0
M  V30 37695 H 3492.26 -4.34701 -2.5307 0
M  V30 37696 H 3491.96 -5.70307 -1.41503 0
M  V30 37697 H 3493.48 -5.63768 -2.34516 0
M  V30 37698 H 3494.9 -5.7325 -0.0757069 0
M  V30 37699 H 3493.29 -5.96219 0.681406 0
M  V30 37700 H 3494.36 -4.67872 1.27371 0
M  V30 37701 N 3495.71 -0.269505 -1.55279 0
M  V30 37702 C 3496.95 0.348189 -1.99078 0
M  V30 37703 C 3497.28 1.56798 -1.15928 0
M  V30 37704 O 3496.55 1.94331 -0.247438 0
M  V30 37705 H 3495.13 0.13164 -0.735309 0
M  V30 37706 H 3497.79 -0.37354 -1.91287 0
M  V30 37707 H 3496.88 0.6419 -3.05428 0
M  V30 37708 N 3497.18 1.576 0.00329885 0
M  V30 37709 C 3498.15 2.07164 0.980592 0
M  V30 37710 C 3499.15 0.980424 1.27453 0
M  V30 37711 O 3500.34 1.24319 1.22027 0
M  V30 37712 C 3497.47 2.51032 2.30642 0
M  V30 37713 H 3498.66 2.94777 0.55193 0
M  V30 37714 H 3496.22 1.54276 0.250701 0
M  V30 37715 H 3496.95 1.66652 2.78204 0
M  V30 37716 H 3496.74 3.30723 2.10629 0
M  V30 37717 H 3498.23 2.89716 3.00756 0
M  V30 37718 N 3498.66 -0.276003 1.55164 0
M  V30 37719 C 3499.91 -1.008 1.75629 0
M  V30 37720 C 3500.24 -1.86392 0.555729 0
M  V30 37721 O 3499.49 -1.90172 -0.461839 0
M  V30 37722 C 3499.79 -1.92273 3.01273 0
M  V30 37723 C 3499.46 -1.22457 4.33953 0
M  V30 37724 C 3498.12 -1.0315 4.70014 0
M  V30 37725 C 3500.47 -0.727489 5.16098 0
M  V30 37726 C 3497.8 -0.328596 5.85779 0
M  V30 37727 C 3500.15 -0.0381889 6.32588 0
M  V30 37728 C 3498.82 0.166612 6.67292 0
M  V30 37729 H 3498.09 -0.368855 0.642672 0
M  V30 37730 H 3500.73 -0.280562 1.89434 0
M  V30 37731 H 3499.04 -2.71629 2.82356 0
M  V30 37732 H 3500.73 -2.49027 3.14303 0
M  V30 37733 H 3497.32 -1.38494 4.05607 0
M  V30 37734 H 3501.51 -0.864279 4.88717 0
M  V30 37735 H 3496.76 -0.159171 6.11193 0
M  V30 37736 H 3500.94 0.354754 6.95496 0
M  V30 37737 H 3498.57 0.713257 7.56847 0
M  V30 37738 N 3500.14 -1.48046 -0.540378 0
M  V30 37739 C 3501.09 -1.62224 -1.66692 0
M  V30 37740 C 3502.08 -0.488972 -1.62189 0
M  V30 37741 O 3503.29 -0.667349 -1.67172 0
M  V30 37742 H 3499.66 -0.510838 -0.551859 0
M  V30 37743 H 3501.63 -2.56859 -1.51875 0
M  V30 37744 C 3500.38 -1.66945 -3.04999 0
M  V30 37745 H 3499.71 -2.53504 -3.09153 0
M  V30 37746 H 3501.15 -1.80911 -3.83467 0
M  V30 37747 C 3499.61 -0.406039 -3.34444 0
M  V30 37748 O 3500.14 0.485606 -3.98754 0
M  V30 37749 N 3498.34 -0.280907 -2.89239 0
M  V30 37750 H 3497.89 -1.00745 -2.37083 0
M  V30 37751 H 3497.85 0.563439 -3.0931 0
M  V30 37752 N 3501.62 0.788444 -1.3646 0
M  V30 37753 C 3502.86 1.54865 -1.30938 0
M  V30 37754 C 3503.2 1.93883 0.110882 0
M  V30 37755 O 3502.47 1.62785 1.06449 0
M  V30 37756 C 3502.76 2.82506 -2.23299 0
M  V30 37757 C 3502.61 2.49849 -3.74026 0
M  V30 37758 C 3503.93 3.84337 -2.14413 0
M  V30 37759 H 3501.05 0.561846 -0.476968 0
M  V30 37760 H 3503.69 0.905776 -1.6702 0
M  V30 37761 H 3501.84 3.37365 -1.92658 0
M  V30 37762 H 3503.51 2.01033 -4.15191 0
M  V30 37763 H 3501.75 1.82778 -3.93414 0
M  V30 37764 H 3502.42 3.41018 -4.34063 0
M  V30 37765 H 3504.9 3.38927 -2.41387 0
M  V30 37766 H 3503.78 4.71396 -2.81207 0
M  V30 37767 H 3504.04 4.27369 -1.13173 0
M  V30 37768 N 3503.1 1.20755 1.01271 0
M  V30 37769 C 3504.34 1.03142 1.76468 0
M  V30 37770 C 3504.7 -0.428498 1.87157 0
M  V30 37771 O 3505.9 -0.724928 2.5884 0
M  V30 37772 C 3504.17 1.70068 3.14343 0
M  V30 37773 S 3505.73 1.67609 4.05528 0
M  V30 37774 H 3502.55 0.369767 0.607284 0
M  V30 37775 H 3505.15 1.53374 1.21229 0
M  V30 37776 H 3503.86 2.75492 3.04192 0
M  V30 37777 H 3503.39 1.19983 3.74657 0
M  V30 37778 H 3505.4 0.71171 4.91069 0
M  V30 37779 N 3504.58 -1.20642 1.01406 0
M  V30 37780 C 3505.52 -2.2537 0.575427 0
M  V30 37781 C 3506.52 -1.64977 -0.384569 0
M  V30 37782 O 3507.72 -1.78188 -0.254769 0
M  V30 37783 H 3504.1 -0.733048 0.167765 0
M  V30 37784 H 3506.07 -2.59698 1.46968 0
M  V30 37785 C 3504.82 -3.47623 -0.0730645 0
M  V30 37786 H 3504.14 -3.94371 0.656621 0
M  V30 37787 H 3505.58 -4.22609 -0.343129 0
M  V30 37788 C 3504.04 -3.10172 -1.3151 0
M  V30 37789 O 3504.57 -3.21477 -2.40864 0
M  V30 37790 N 3502.78 -2.64746 -1.19824 0
M  V30 37791 H 3502.32 -2.55747 -0.308418 0
M  V30 37792 H 3502.28 -2.40058 -2.03026 0
M  V30 37793 N 3506.05 -0.789968 -1.36372 0
M  V30 37794 C 3507 -0.186838 -2.30043 0
M  V30 37795 C 3507.97 0.669636 -1.52004 0
M  V30 37796 O 3509.16 0.6182 -1.80507 0
M  V30 37797 C 3506.3 0.671934 -3.38495 0
M  V30 37798 C 3505.41 -0.203143 -4.31522 0
M  V30 37799 C 3504.54 0.662056 -5.27058 0
M  V30 37800 C 3503.58 -0.214443 -6.11724 0
M  V30 37801 N 3502.72 0.609769 -6.99447 0
M  V30 37802 H 3507.56 -0.991097 -2.81036 0
M  V30 37803 H 3505.1 -0.500312 -1.3833 0
M  V30 37804 H 3507.05 1.18483 -4.00022 0
M  V30 37805 H 3505.68 1.44162 -2.8882 0
M  V30 37806 H 3504.74 -0.83401 -3.71145 0
M  V30 37807 H 3506.05 -0.878475 -4.91003 0
M  V30 37808 H 3505.2 1.24074 -5.93878 0
M  V30 37809 H 3503.94 1.37101 -4.68033 0
M  V30 37810 H 3502.95 -0.805522 -5.43867 0
M  V30 37811 H 3504.17 -0.921008 -6.72826 0
M  V30 37812 H 3502.12 1.30301 -6.42929 0
M  V30 37813 H 3502.03 -0.00787075 -7.56 0
M  V30 37814 H 3503.3 1.17226 -7.70635 0
M  V30 37815 N 3507.53 1.47986 -0.542031 0
M  V30 37816 C 3508.78 2.01697 -0.0102815 0
M  V30 37817 C 3509.09 1.42329 1.34171 0
M  V30 37818 O 3510.3 1.87611 1.96251 0
M  V30 37819 C 3508.76 3.59886 0.0320399 0
M  V30 37820 C 3508.36 4.28242 -1.31579 0
M  V30 37821 C 3510.11 4.21401 0.511982 0
M  V30 37822 C 3508.01 5.78395 -1.2334 0
M  V30 37823 H 3506.94 0.754 -7.34631e-05 0
M  V30 37824 H 3509.6 1.7013 -0.687616 0
M  V30 37825 H 3507.98 3.88348 0.774705 0
M  V30 37826 H 3509.15 4.11439 -2.07497 0
M  V30 37827 H 3507.47 3.7865 -1.73243 0
M  V30 37828 H 3510.06 5.31415 0.591781 0
M  V30 37829 H 3510.41 3.87537 1.52054 0
M  V30 37830 H 3510.94 3.97413 -0.175363 0
M  V30 37831 H 3507.68 6.16853 -2.21748 0
M  V30 37832 H 3507.2 5.97578 -0.515775 0
M  V30 37833 H 3508.88 6.40294 -0.929087 0
M  V30 37834 N 3509.01 0.277736 1.55133 0
M  V30 37835 C 3510.26 -0.338947 1.98832 0
M  V30 37836 C 3510.57 -1.56779 1.1696 0
M  V30 37837 O 3511.78 -2.25759 1.50815 0
M  V30 37838 C 3510.23 -0.654403 3.53901 0
M  V30 37839 C 3509.84 0.554781 4.44552 0
M  V30 37840 C 3511.59 -1.23357 4.06181 0
M  V30 37841 C 3509.49 0.213767 5.91014 0
M  V30 37842 H 3508.42 -0.130421 0.742635 0
M  V30 37843 H 3511.07 0.3828 1.79463 0
M  V30 37844 H 3509.46 -1.43512 3.6908 0
M  V30 37845 H 3510.63 1.33159 4.41141 0
M  V30 37846 H 3508.94 1.05097 4.02919 0
M  V30 37847 H 3511.54 -1.50256 5.13154 0
M  V30 37848 H 3511.88 -2.1683 3.55374 0
M  V30 37849 H 3512.42 -0.515078 3.94451 0
M  V30 37850 H 3509.16 1.11644 6.45922 0
M  V30 37851 H 3508.68 -0.526224 5.97487 0
M  V30 37852 H 3510.36 -0.193077 6.46712 0
M  V30 37853 N 3510.49 -1.57599 0.00505908 0
M  V30 37854 C 3511.73 -1.90787 -0.678727 0
M  V30 37855 C 3512.06 -0.87914 -1.73497 0
M  V30 37856 O 3511.32 0.115383 -1.9536 0
M  V30 37857 C 3511.62 -3.30727 -1.35479 0
M  V30 37858 C 3511.28 -4.48833 -0.431257 0
M  V30 37859 C 3509.94 -4.80874 -0.176993 0
M  V30 37860 C 3512.3 -5.20799 0.204311 0
M  V30 37861 C 3509.62 -5.82252 0.721046 0
M  V30 37862 C 3511.98 -6.23134 1.09026 0
M  V30 37863 C 3510.64 -6.5363 1.35365 0
M  V30 37864 H 3509.91 -0.698138 -0.248364 0
M  V30 37865 H 3512.56 -1.91401 0.0616716 0
M  V30 37866 H 3510.86 -3.26261 -2.16936 0
M  V30 37867 H 3512.56 -3.53666 -1.89 0
M  V30 37868 H 3509.15 -4.23801 -0.639602 0
M  V30 37869 H 3513.33 -4.96296 0.0208946 0
M  V30 37870 H 3508.59 -6.04238 0.933066 0
M  V30 37871 H 3512.76 -6.78028 1.58906 0
M  V30 37872 H 3510.39 -7.32004 2.0512 0
M  V30 37873 N 3511.97 0.267771 -1.55309 0
M  V30 37874 C 3512.9 1.33522 -1.91557 0
M  V30 37875 C 3513.88 1.51264 -0.778028 0
M  V30 37876 O 3515.06 1.6422 -1.0366 0
M  V30 37877 C 3512.19 2.69381 -2.19206 0
M  V30 37878 C 3511.15 2.66363 -3.35014 0
M  V30 37879 C 3510.47 4.05823 -3.48155 0
M  V30 37880 C 3511.77 2.25174 -4.71268 0
M  V30 37881 H 3513.47 1.03432 -2.80966 0
M  V30 37882 H 3511.01 0.496117 -1.35184 0
M  V30 37883 H 3512.96 3.44173 -2.43152 0
M  V30 37884 H 3511.69 3.01064 -1.26601 0
M  V30 37885 H 3510.35 1.94028 -3.11044 0
M  V30 37886 H 3510 4.34737 -2.53007 0
M  V30 37887 H 3509.7 4.04697 -4.26021 0
M  V30 37888 H 3511.22 4.82346 -3.74399 0
M  V30 37889 H 3512.63 2.8969 -4.94724 0
M  V30 37890 H 3511.03 2.352 -5.52088 0
M  V30 37891 H 3512.1 1.20311 -4.69738 0
M  V30 37892 N 3513.44 1.48331 0.532519 0
M  V30 37893 C 3514.38 1.57232 1.65389 0
M  V30 37894 C 3515.35 0.422912 1.57004 0
M  V30 37895 O 3516.54 0.634163 1.77512 0
M  V30 37896 C 3513.67 1.49794 3.03775 0
M  V30 37897 C 3512.71 2.69544 3.30527 0
M  V30 37898 S 3513.54 4.31536 3.17076 0
M  V30 37899 C 3514.7 4.26692 4.57913 0
M  V30 37900 H 3514.93 2.52098 1.57588 0
M  V30 37901 H 3512.47 1.36832 0.715283 0
M  V30 37902 H 3514.42 1.4619 3.83587 0
M  V30 37903 H 3513.09 0.5627 3.09019 0
M  V30 37904 H 3512.28 2.60472 4.31475 0
M  V30 37905 H 3511.88 2.70398 2.58381 0
M  V30 37906 H 3514.17 3.96469 5.4938 0
M  V30 37907 H 3515.12 5.2781 4.7204 0
M  V30 37908 H 3515.52 3.57196 4.37117 0
M  V30 37909 N 3514.92 -0.781196 1.36876 0
M  V30 37910 C 3516.15 -1.57531 1.34903 0
M  V30 37911 C 3516.57 -1.87986 -0.0654918 0
M  V30 37912 O 3515.93 -1.48516 -1.03983 0
M  V30 37913 C 3515.98 -2.86811 2.18567 0
M  V30 37914 O 3515.08 -3.80775 1.58381 0
M  V30 37915 H 3514.42 -0.477535 0.461363 0
M  V30 37916 H 3516.95 -0.967629 1.80272 0
M  V30 37917 H 3516.96 -3.36004 2.31442 0
M  V30 37918 H 3515.64 -2.63972 3.2139 0
M  V30 37919 H 3514.21 -3.39391 1.54493 0
M  V30 37920 N 3516.4 -1.21291 -1.0063 0
M  V30 37921 C 3517.65 -1.02935 -1.74387 0
M  V30 37922 C 3517.97 0.437294 -1.8952 0
M  V30 37923 O 3517.23 1.34078 -1.42554 0
M  V30 37924 C 3517.53 -1.67012 -3.15977 0
M  V30 37925 C 3517.19 -3.16862 -3.20794 0
M  V30 37926 C 3515.86 -3.57754 -3.21816 0
M  V30 37927 C 3518.21 -4.12839 -3.1814 0
M  V30 37928 C 3515.54 -4.9313 -3.17868 0
M  V30 37929 C 3517.89 -5.48174 -3.15733 0
M  V30 37930 C 3516.55 -5.88465 -3.15064 0
M  V30 37931 H 3515.82 -0.376664 -0.638126 0
M  V30 37932 H 3518.47 -1.50864 -1.1795 0
M  V30 37933 H 3516.77 -1.11372 -3.75637 0
M  V30 37934 H 3518.47 -1.50314 -3.71762 0
M  V30 37935 H 3515.06 -2.84294 -3.20741 0
M  V30 37936 H 3519.25 -3.82275 -3.16512 0
M  V30 37937 H 3514.5 -5.23595 -3.15687 0
M  V30 37938 H 3518.68 -6.22281 -3.12633 0
M  V30 37939 H 3516.3 -6.93333 -3.11759 0
M  V30 37940 N 3517.88 1.20103 -1.02045 0
M  V30 37941 C 3519.12 1.89851 -0.713061 0
M  V30 37942 C 3519.46 1.78892 0.755735 0
M  V30 37943 O 3518.73 1.17567 1.54946 0
M  V30 37944 C 3519.01 3.41101 -1.15423 0
M  V30 37945 C 3518.87 3.60974 -2.68362 0
M  V30 37946 C 3520.19 4.34029 -0.728466 0
M  V30 37947 H 3517.31 0.689421 -0.260514 0
M  V30 37948 H 3519.95 1.4142 -1.26887 0
M  V30 37949 H 3518.1 3.82479 -0.681337 0
M  V30 37950 H 3519.77 3.28823 -3.23532 0
M  V30 37951 H 3518.01 3.04313 -3.09154 0
M  V30 37952 H 3518.68 4.67013 -2.94284 0
M  V30 37953 H 3521.16 4.00319 -1.13506 0
M  V30 37954 H 3520.04 5.38466 -1.06514 0
M  V30 37955 H 3520.3 4.40552 0.369658 0
M  V30 37956 N 3519.36 0.797189 1.35951 0
M  V30 37957 C 3520.6 0.37244 1.98639 0
M  V30 37958 C 3520.93 -1.06155 1.63573 0
M  V30 37959 O 3520.2 -1.73295 0.913546 0
M  V30 37960 H 3518.78 0.134723 0.734751 0
M  V30 37961 H 3521.44 1.02095 1.6602 0
M  V30 37962 H 3520.53 0.470545 3.08532 0
M  V30 37963 N 3520.83 -1.47696 0.549872 0
M  V30 37964 C 3521.78 -2.31603 -0.215078 0
M  V30 37965 C 3522.78 -1.42472 -0.916416 0
M  V30 37966 O 3523.98 -1.59275 -0.838537 0
M  V30 37967 H 3520.36 -0.746806 -0.088231 0
M  V30 37968 H 3522.33 -2.93976 0.511899 0
M  V30 37969 C 3521.08 -3.24968 -1.23656 0
M  V30 37970 H 3520.4 -3.93511 -0.706315 0
M  V30 37971 H 3521.84 -3.86525 -1.74283 0
M  V30 37972 C 3520.3 -2.47971 -2.28062 0
M  V30 37973 O 3520.83 -2.21884 -3.34858 0
M  V30 37974 N 3519.04 -2.0911 -2.01795 0
M  V30 37975 H 3518.58 -2.30525 -1.14961 0
M  V30 37976 H 3518.54 -1.57907 -2.71869 0
M  V30 37977 N 3522.31 -0.285959 -1.54984 0
M  V30 37978 C 3523.55 0.32876 -2.01739 0
M  V30 37979 C 3523.92 1.52236 -1.16997 0
M  V30 37980 O 3525.12 2.20744 -1.53381 0
M  V30 37981 C 3523.39 0.690919 -3.50658 0
M  V30 37982 S 3524.95 1.29063 -4.1939 0
M  V30 37983 H 3521.77 0.101709 -0.703688 0
M  V30 37984 H 3524.37 -0.410325 -1.91145 0
M  V30 37985 H 3523.07 -0.186491 -4.09976 0
M  V30 37986 H 3522.6 1.46118 -3.65257 0
M  V30 37987 H 3524.62 2.57893 -4.23917 0
M  V30 37988 N 3523.79 1.57594 -0.0134169 0
M  V30 37989 C 3525.04 1.90766 0.667279 0
M  V30 37990 C 3525.36 0.888877 1.73563 0
M  V30 37991 O 3524.63 -0.0718602 1.95768 0
M  V30 37992 H 3523.21 0.704116 0.249458 0
M  V30 37993 H 3525.87 1.94815 -0.0575132 0
M  V30 37994 H 3524.97 2.90924 1.13002 0
M  V30 37995 N 3525.27 -0.259531 1.55448 0
M  V30 37996 C 3526.5 -1.0072 1.80729 0
M  V30 37997 C 3526.91 -1.7943 0.587385 0
M  V30 37998 O 3526.27 -1.77022 -0.443788 0
M  V30 37999 C 3526.32 -1.95512 3.04068 0
M  V30 38000 O 3526.04 -1.19989 4.21348 0
M  V30 38001 C 3527.54 -2.81982 3.42054 0
M  V30 38002 H 3524.76 -0.296945 0.601718 0
M  V30 38003 H 3527.31 -0.286237 2.02487 0
M  V30 38004 H 3525.46 -2.63053 2.84397 0
M  V30 38005 H 3525.87 -1.83997 4.91167 0
M  V30 38006 H 3527.35 -3.44266 4.31491 0
M  V30 38007 H 3527.83 -3.52447 2.62065 0
M  V30 38008 H 3528.43 -2.19912 3.64031 0
M  V30 38009 N 3526.75 -1.48611 -0.524645 0
M  V30 38010 C 3527.99 -1.569 -1.28018 0
M  V30 38011 C 3528.32 -0.245237 -1.92948 0
M  V30 38012 O 3527.58 0.764935 -1.80131 0
M  V30 38013 C 3527.88 -2.65998 -2.38705 0
M  V30 38014 C 3527.54 -4.08264 -1.91393 0
M  V30 38015 C 3526.2 -4.46985 -1.78207 0
M  V30 38016 C 3528.56 -4.97399 -1.55704 0
M  V30 38017 C 3525.88 -5.72639 -1.27677 0
M  V30 38018 C 3528.24 -6.23548 -1.06634 0
M  V30 38019 C 3526.9 -6.6112 -0.920702 0
M  V30 38020 H 3526.17 -0.574138 -0.468451 0
M  V30 38021 H 3528.82 -1.8235 -0.584869 0
M  V30 38022 H 3527.12 -2.34428 -3.13928 0
M  V30 38023 H 3528.82 -2.69625 -2.96822 0
M  V30 38024 H 3525.41 -3.77688 -2.02607 0
M  V30 38025 H 3529.59 -4.68158 -1.64749 0
M  V30 38026 H 3524.85 -6.0047 -1.15092 0
M  V30 38027 H 3529.02 -6.92008 -0.780926 0
M  V30 38028 H 3526.65 -7.58371 -0.526958 0
M  V30 38029 N 3528.22 0.773926 -1.37289 0
M  V30 38030 C 3529.45 1.56299 -1.35566 0
M  V30 38031 C 3529.87 1.88706 0.0595024 0
M  V30 38032 O 3529.22 1.51288 1.02069 0
M  V30 38033 C 3529.28 2.8746 -2.192 0
M  V30 38034 O 3529 2.56444 -3.55201 0
M  V30 38035 C 3530.5 3.817 -2.25432 0
M  V30 38036 H 3527.72 0.48429 -0.46444 0
M  V30 38037 H 3530.26 0.959393 -1.80599 0
M  V30 38038 H 3528.42 3.4425 -1.77682 0
M  V30 38039 H 3528.83 3.4042 -3.99017 0
M  V30 38040 H 3530.3 4.70744 -2.88278 0
M  V30 38041 H 3530.78 4.20675 -1.26212 0
M  V30 38042 H 3531.39 3.30841 -2.67253 0
M  V30 38043 N 3529.7 1.21823 0.99985 0
M  V30 38044 C 3531.12 0.976686 1.26226 0
M  V30 38045 C 3531.32 -0.33388 1.98715 0
M  V30 38046 O 3530.37 -1.05825 2.29254 0
M  V30 38047 C 3531.69 2.17073 2.08086 0
M  V30 38048 C 3533.24 2.21355 2.21294 0
M  V30 38049 C 3533.71 3.40292 3.06538 0
M  V30 38050 N 3535.2 3.40411 3.14126 0
M  V30 38051 C 3535.94 4.2909 3.80354 0
M  V30 38052 N 3535.43 5.27976 4.48568 0
M  V30 38053 N 3537.23 4.16885 3.77046 0
M  V30 38054 H 3529.38 2.06095 0.513667 0
M  V30 38055 H 3531.64 0.902737 0.289432 0
M  V30 38056 H 3531.35 3.12076 1.62177 0
M  V30 38057 H 3531.22 2.1656 3.08839 0
M  V30 38058 H 3533.61 1.26904 2.66419 0
M  V30 38059 H 3533.69 2.2591 1.19994 0
M  V30 38060 H 3533.33 4.35039 2.62114 0
M  V30 38061 H 3533.26 3.32976 4.07964 0
M  V30 38062 H 3535.75 2.6885 2.65571 0
M  V30 38063 H 3536.07 5.91935 4.96823 0
M  V30 38064 H 3534.41 5.31896 4.47339 0
M  V30 38065 H 3537.6 3.38889 3.22912 0
M  V30 38066 H 3537.77 4.86203 4.28382 0
M  V30 38067 N 3531.18 -1.1956 1.0268 0
M  V30 38068 C 3532.43 -1.88816 0.720623 0
M  V30 38069 C 3532.75 -1.79878 -0.752911 0
M  V30 38070 O 3532.02 -1.20787 -1.54231 0
M  V30 38071 H 3530.6 -0.698959 0.263562 0
M  V30 38072 H 3533.26 -1.45158 1.30059 0
M  V30 38073 H 3532.36 -2.952 1.01308 0
M  V30 38074 N 3532.66 -0.804387 -1.35526 0
M  V30 38075 C 3533.89 -0.395553 -2.02778 0
M  V30 38076 C 3534.3 0.997543 -1.60766 0
M  V30 38077 O 3533.64 1.65377 -0.799766 0
M  V30 38078 C 3533.7 -0.396967 -3.57302 0
M  V30 38079 C 3533.37 -1.7402 -4.22571 0
M  V30 38080 C 3534.36 -2.69813 -4.44406 0
M  V30 38081 C 3532.05 -2.0236 -4.59734 0
M  V30 38082 C 3534.04 -3.92133 -5.02505 0
M  V30 38083 C 3531.73 -3.24943 -5.17547 0
M  V30 38084 C 3532.73 -4.19647 -5.38874 0
M  V30 38085 O 3532.41 -5.40067 -5.95469 0
M  V30 38086 H 3532.15 -0.159142 -0.657001 0
M  V30 38087 H 3534.7 -1.0887 -1.74174 0
M  V30 38088 H 3532.93 0.352768 -3.85088 0
M  V30 38089 H 3534.62 -0.0107468 -4.05899 0
M  V30 38090 H 3535.39 -2.49209 -4.16077 0
M  V30 38091 H 3531.26 -1.29458 -4.4245 0
M  V30 38092 H 3534.81 -4.66064 -5.19066 0
M  V30 38093 H 3530.71 -3.45419 -5.45304 0
M  V30 38094 H 3531.47 -5.41334 -6.13922 0
M  V30 38095 N 3534.14 1.47403 -0.557697 0
M  V30 38096 C 3535.55 1.58111 -0.217501 0
M  V30 38097 C 3535.75 1.55624 1.27997 0
M  V30 38098 O 3534.81 1.45991 2.06016 0
M  V30 38099 C 3536.12 2.88595 -0.844586 0
M  V30 38100 C 3537.67 3.0218 -0.81586 0
M  V30 38101 C 3538.15 4.35365 -1.42202 0
M  V30 38102 N 3539.64 4.42002 -1.38523 0
M  V30 38103 C 3540.37 5.4362 -1.82387 0
M  V30 38104 N 3539.87 6.52046 -2.3411 0
M  V30 38105 N 3541.66 5.34668 -1.73455 0
M  V30 38106 H 3533.81 1.47262 -1.53061 0
M  V30 38107 H 3536.07 0.700896 -0.638317 0
M  V30 38108 H 3535.78 2.96153 -1.89701 0
M  V30 38109 H 3535.65 3.75683 -0.33791 0
M  V30 38110 H 3538.04 2.94219 0.227874 0
M  V30 38111 H 3538.12 2.16632 -1.3603 0
M  V30 38112 H 3537.77 4.44082 -2.46483 0
M  V30 38113 H 3537.7 5.19645 -0.853024 0
M  V30 38114 H 3540.19 3.64239 -1.0069 0
M  V30 38115 H 3540.5 7.25761 -2.65502 0
M  V30 38116 H 3538.85 6.52935 -2.38121 0
M  V30 38117 H 3542.04 4.4886 -1.32824 0
M  V30 38118 H 3542.21 6.13724 -2.07958 0
M  V30 38119 N 3535.62 0.294175 1.5483 0
M  V30 38120 C 3536.58 -0.572022 2.21947 0
M  V30 38121 C 3537.58 -1.06661 1.20333 0
M  V30 38122 O 3538.77 -0.963731 1.45113 0
M  V30 38123 C 3535.9 -1.79125 2.90047 0
M  V30 38124 H 3537.09 0.0142761 2.99897 0
M  V30 38125 H 3534.65 0.0449461 1.56235 0
M  V30 38126 H 3535.38 -2.41756 2.16159 0
M  V30 38127 H 3535.17 -1.44432 3.64529 0
M  V30 38128 H 3536.66 -2.40678 3.41268 0
M  V30 38129 N 3537.09 -1.57585 0.0217743 0
M  V30 38130 C 3538.03 -2.05265 -0.997075 0
M  V30 38131 C 3539 -0.946896 -1.32184 0
M  V30 38132 O 3540.19 -1.21667 -1.43977 0
M  V30 38133 C 3537.32 -2.46855 -2.31906 0
M  V30 38134 C 3536.36 -3.68378 -2.14941 0
M  V30 38135 S 3537.19 -5.15352 -1.45508 0
M  V30 38136 C 3538.35 -5.60231 -2.79091 0
M  V30 38137 H 3538.58 -2.91363 -0.591178 0
M  V30 38138 H 3536.12 -1.5323 -0.189714 0
M  V30 38139 H 3538.07 -2.71483 -3.07908 0
M  V30 38140 H 3536.74 -1.61116 -2.6963 0
M  V30 38141 H 3535.93 -3.95302 -3.12654 0
M  V30 38142 H 3535.53 -3.43865 -1.47082 0
M  V30 38143 H 3537.82 -5.64022 -3.75347 0
M  V30 38144 H 3538.77 -6.59878 -2.56841 0
M  V30 38145 H 3539.17 -4.87856 -2.84001 0
M  V30 38146 N 3538.57 0.251283 -1.55584 0
M  V30 38147 C 3539.82 0.981387 -1.77473 0
M  V30 38148 C 3540.15 1.85139 -0.586261 0
M  V30 38149 O 3539.43 1.90008 0.415589 0
M  V30 38150 C 3539.71 1.84562 -3.09207 0
M  V30 38151 C 3539.56 1.00409 -4.3845 0
M  V30 38152 C 3540.88 2.82889 -3.37137 0
M  V30 38153 H 3538 0.355357 -0.64567 0
M  V30 38154 H 3540.64 0.252195 -1.88319 0
M  V30 38155 H 3538.79 2.46733 -3.00092 0
M  V30 38156 H 3540.46 0.401409 -4.5955 0
M  V30 38157 H 3538.71 0.308289 -4.32703 0
M  V30 38158 H 3539.38 1.64248 -5.26998 0
M  V30 38159 H 3541.85 2.30854 -3.46187 0
M  V30 38160 H 3540.73 3.40484 -4.30537 0
M  V30 38161 H 3540.99 3.59129 -2.57835 0
M  V30 38162 N 3540.05 1.48887 0.516757 0
M  V30 38163 C 3540.98 1.67295 1.62894 0
M  V30 38164 C 3541.96 0.521699 1.61902 0
M  V30 38165 O 3543.15 0.75576 1.78891 0
M  V30 38166 C 3540.28 1.72484 3.01441 0
M  V30 38167 C 3539.23 2.87242 3.17295 0
M  V30 38168 C 3538.56 2.7753 4.57035 0
M  V30 38169 C 3539.86 4.2838 2.98811 0
M  V30 38170 H 3541.55 2.60408 1.47744 0
M  V30 38171 H 3539.1 1.25317 0.709339 0
M  V30 38172 H 3541.05 1.83949 3.79132 0
M  V30 38173 H 3539.77 0.759594 3.17644 0
M  V30 38174 H 3538.43 2.75353 2.42025 0
M  V30 38175 H 3538.08 1.78947 4.70093 0
M  V30 38176 H 3537.78 3.54543 4.68586 0
M  V30 38177 H 3539.3 2.90981 5.36808 0
M  V30 38178 H 3540.72 4.41033 3.66283 0
M  V30 38179 H 3539.11 5.06493 3.21846 0
M  V30 38180 H 3540.18 4.43921 1.95094 0
M  V30 38181 N 3541.53 -0.766635 1.37697 0
M  V30 38182 C 3542.8 -1.51503 1.23718 0
M  V30 38183 C 3543.18 -2.10438 -0.167054 0
M  V30 38184 O 3542.53 -1.95961 -1.17523 0
M  V30 38185 C 3542.74 -2.59184 2.33719 0
M  V30 38186 C 3544.09 -3.26447 2.7151 0
M  V30 38187 O 3545.11 -2.69482 2.32934 0
M  V30 38188 O 3543.97 -4.29448 3.37989 0
M  V30 38189 H 3541.07 -0.671255 0.483058 0
M  V30 38190 H 3543.61 -0.803162 1.4949 0
M  V30 38191 H 3542.39 -2.13791 3.27733 0
M  V30 38192 H 3542.01 -3.37966 2.09439 0
M  V30 38193 N 3543.01 -1.22351 -0.993375 0
M  V30 38194 C 3544.25 -1.04934 -1.73542 0
M  V30 38195 C 3544.58 0.414628 -1.89722 0
M  V30 38196 O 3543.86 1.30741 -1.44004 0
M  V30 38197 C 3544.14 -1.76056 -3.14128 0
M  V30 38198 C 3544 -3.30045 -3.05599 0
M  V30 38199 C 3545.31 -1.51256 -4.13291 0
M  V30 38200 H 3542.43 -0.382602 -0.629908 0
M  V30 38201 H 3545.08 -1.50684 -1.15734 0
M  V30 38202 H 3543.23 -1.37163 -3.63481 0
M  V30 38203 H 3544.9 -3.78379 -2.6387 0
M  V30 38204 H 3543.14 -3.59747 -2.42415 0
M  V30 38205 H 3543.81 -3.74986 -4.0508 0
M  V30 38206 H 3546.29 -1.85039 -3.72692 0
M  V30 38207 H 3545.16 -2.03516 -5.09777 0
M  V30 38208 H 3545.42 -0.445051 -4.39854 0
M  V30 38209 N 3544.48 1.19014 -1.03313 0
M  V30 38210 C 3545.39 2.26045 -0.627774 0
M  V30 38211 C 3546.41 1.70597 0.342453 0
M  V30 38212 O 3547.59 2.00412 0.199272 0
M  V30 38213 C 3544.65 3.46698 0.0107665 0
M  V30 38214 C 3543.71 4.1731 -1.0075 0
M  V30 38215 C 3542.94 5.32204 -0.399339 0
M  V30 38216 O 3543.17 5.64811 0.796549 0
M  V30 38217 O 3542.1 5.91306 -1.12429 0
M  V30 38218 H 3545.93 2.62967 -1.51928 0
M  V30 38219 H 3543.51 1.25949 -0.80356 0
M  V30 38220 H 3545.39 4.19802 0.366598 0
M  V30 38221 H 3544.07 3.11616 0.87621 0
M  V30 38222 H 3542.98 3.46307 -1.415 0
M  V30 38223 H 3544.31 4.56374 -1.84346 0
M  V30 38224 N 3545.96 0.811563 1.35098 0
M  V30 38225 C 3547.21 0.394266 1.98625 0
M  V30 38226 C 3547.54 -1.03982 1.64371 0
M  V30 38227 O 3546.79 -1.73698 0.901527 0
M  V30 38228 C 3547.09 0.530384 3.53443 0
M  V30 38229 C 3546.76 1.92852 4.07577 0
M  V30 38230 C 3545.42 2.31101 4.22073 0
M  V30 38231 C 3547.77 2.84299 4.36833 0
M  V30 38232 C 3545.1 3.60156 4.63146 0
M  V30 38233 C 3547.45 4.12806 4.79347 0
M  V30 38234 C 3546.11 4.51048 4.92049 0
M  V30 38235 H 3545.38 0.144272 0.726819 0
M  V30 38236 H 3548.03 1.03332 1.61229 0
M  V30 38237 H 3546.34 -0.192097 3.91329 0
M  V30 38238 H 3548.03 0.188204 4.00558 0
M  V30 38239 H 3544.62 1.62136 3.96749 0
M  V30 38240 H 3548.81 2.55996 4.25182 0
M  V30 38241 H 3544.06 3.89627 4.7117 0
M  V30 38242 H 3548.24 4.83763 5.00945 0
M  V30 38243 H 3545.86 5.51101 5.23633 0
M  V30 38244 N 3547.44 -1.47105 0.565506 0
M  V30 38245 C 3548.37 -2.32912 -0.165629 0
M  V30 38246 C 3549.35 -1.44299 -0.900653 0
M  V30 38247 O 3550.54 -1.73143 -0.879493 0
M  V30 38248 C 3547.67 -3.26245 -1.19086 0
M  V30 38249 C 3546.62 -4.24164 -0.571774 0
M  V30 38250 C 3545.95 -5.06881 -1.70224 0
M  V30 38251 C 3547.25 -5.20091 0.479876 0
M  V30 38252 H 3548.94 -2.94291 0.550757 0
M  V30 38253 H 3546.49 -1.41516 0.266309 0
M  V30 38254 H 3548.44 -3.8512 -1.71058 0
M  V30 38255 H 3547.16 -2.62938 -1.9373 0
M  V30 38256 H 3545.82 -3.66527 -0.0732886 0
M  V30 38257 H 3545.47 -4.39971 -2.43792 0
M  V30 38258 H 3545.17 -5.73181 -1.29374 0
M  V30 38259 H 3546.69 -5.68616 -2.22505 0
M  V30 38260 H 3548.11 -5.73282 0.045905 0
M  V30 38261 H 3546.5 -5.94639 0.807719 0
M  V30 38262 H 3547.57 -4.65065 1.37267 0
M  V30 38263 N 3548.92 -0.302382 -1.54672 0
M  V30 38264 C 3550.15 0.308609 -2.04282 0
M  V30 38265 C 3550.56 1.47962 -1.17914 0
M  V30 38266 O 3549.9 1.82632 -0.197755 0
M  V30 38267 C 3549.96 0.826356 -3.49874 0
M  V30 38268 C 3549.63 -0.219566 -4.56472 0
M  V30 38269 C 3550.62 -1.04849 -5.09218 0
M  V30 38270 C 3548.31 -0.361662 -5.00996 0
M  V30 38271 C 3550.3 -2.00543 -6.0503 0
M  V30 38272 C 3547.99 -1.32205 -5.96628 0
M  V30 38273 C 3548.99 -2.14242 -6.48529 0
M  V30 38274 O 3548.67 -3.08652 -7.42286 0
M  V30 38275 H 3548.41 0.0708069 -0.672281 0
M  V30 38276 H 3550.96 -0.44035 -2.00624 0
M  V30 38277 H 3549.19 1.62586 -3.5086 0
M  V30 38278 H 3550.88 1.35338 -3.82673 0
M  V30 38279 H 3551.65 -0.949584 -4.75613 0
M  V30 38280 H 3547.52 0.266938 -4.60227 0
M  V30 38281 H 3551.07 -2.64615 -6.45465 0
M  V30 38282 H 3546.97 -1.42167 -6.2965 0
M  V30 38283 H 3547.73 -3.03647 -7.60093 0
M  V30 38284 N 3550.4 1.57571 -0.0301311 0
M  V30 38285 C 3551.35 2.06778 0.960568 0
M  V30 38286 C 3552.33 0.968506 1.28486 0
M  V30 38287 O 3553.52 1.23205 1.27081 0
M  V30 38288 C 3550.65 2.59924 2.24264 0
M  V30 38289 C 3549.74 3.76784 1.94666 0
M  V30 38290 N 3550.13 4.87356 1.35342 0
M  V30 38291 C 3548.43 3.85289 2.24652 0
M  V30 38292 C 3549.13 5.68569 1.22899 0
M  V30 38293 N 3548.1 5.1551 1.72484 0
M  V30 38294 H 3551.91 2.89669 0.49688 0
M  V30 38295 H 3549.42 1.61456 0.174858 0
M  V30 38296 H 3551.42 2.93469 2.96111 0
M  V30 38297 H 3550.08 1.78463 2.71258 0
M  V30 38298 H 3551.09 5.07589 1.0283 0
M  V30 38299 H 3547.76 3.14736 2.74312 0
M  V30 38300 H 3549.15 6.67471 0.770183 0
M  V30 38301 N 3551.87 -0.243029 1.55715 0
M  V30 38302 C 3552.8 -1.30458 1.93657 0
M  V30 38303 C 3553.79 -1.50007 0.801994 0
M  V30 38304 O 3554.97 -1.6255 1.06259 0
M  V30 38305 C 3552.1 -2.65859 2.23464 0
M  V30 38306 C 3551.05 -2.61 3.3921 0
M  V30 38307 C 3550.38 -4.00232 3.54568 0
M  V30 38308 C 3551.68 -2.17648 4.74791 0
M  V30 38309 H 3553.37 -0.98949 2.82576 0
M  V30 38310 H 3550.92 -0.474548 1.35956 0
M  V30 38311 H 3552.87 -3.40261 2.48597 0
M  V30 38312 H 3551.6 -2.99012 1.31375 0
M  V30 38313 H 3550.26 -1.89055 3.14092 0
M  V30 38314 H 3549.9 -4.30657 2.59892 0
M  V30 38315 H 3549.6 -3.97868 4.32406 0
M  V30 38316 H 3551.13 -4.76328 3.82026 0
M  V30 38317 H 3552.54 -2.81783 4.99271 0
M  V30 38318 H 3550.94 -2.26387 5.5576 0
M  V30 38319 H 3552.01 -1.12822 4.71592 0
M  V30 38320 N 3553.35 -1.49159 -0.508854 0
M  V30 38321 C 3554.28 -1.68157 -1.62005 0
M  V30 38322 C 3555.26 -0.530278 -1.61623 0
M  V30 38323 O 3556.45 -0.765236 -1.78487 0
M  V30 38324 C 3553.58 -1.7408 -3.00522 0
M  V30 38325 C 3552.53 -2.8892 -3.15767 0
M  V30 38326 C 3551.86 -2.7995 -4.55557 0
M  V30 38327 C 3553.16 -4.29959 -2.96535 0
M  V30 38328 H 3554.85 -2.61187 -1.46361 0
M  V30 38329 H 3552.4 -1.25692 -0.702683 0
M  V30 38330 H 3554.35 -1.85957 -3.78151 0
M  V30 38331 H 3553.08 -0.776428 -3.17237 0
M  V30 38332 H 3551.73 -2.76633 -2.40562 0
M  V30 38333 H 3551.38 -1.81437 -4.69137 0
M  V30 38334 H 3551.08 -3.57023 -4.667 0
M  V30 38335 H 3552.61 -2.93824 -5.35257 0
M  V30 38336 H 3554.02 -4.42969 -3.63939 0
M  V30 38337 H 3552.42 -5.08193 -3.19155 0
M  V30 38338 H 3553.49 -4.4495 -1.92737 0
M  V30 38339 N 3554.83 0.759322 -1.38102 0
M  V30 38340 C 3556.06 1.54628 -1.37017 0
M  V30 38341 C 3556.47 1.8915 0.043351 0
M  V30 38342 O 3555.81 1.52857 1.01885 0
M  V30 38343 C 3555.87 2.8769 -2.1558 0
M  V30 38344 C 3555.54 2.75737 -3.64442 0
M  V30 38345 C 3556.53 2.45921 -4.5806 0
M  V30 38346 C 3554.22 2.93369 -4.07725 0
M  V30 38347 C 3556.21 2.33884 -5.92939 0
M  V30 38348 C 3553.9 2.80952 -5.42687 0
M  V30 38349 C 3554.9 2.51251 -6.35108 0
M  V30 38350 O 3554.59 2.38882 -7.67587 0
M  V30 38351 H 3554.32 0.485268 -0.470629 0
M  V30 38352 H 3556.87 0.947968 -1.82216 0
M  V30 38353 H 3555.1 3.49689 -1.6509 0
M  V30 38354 H 3556.79 3.49165 -2.06974 0
M  V30 38355 H 3557.56 2.31973 -4.25927 0
M  V30 38356 H 3553.44 3.15485 -3.3614 0
M  V30 38357 H 3556.98 2.10623 -6.65044 0
M  V30 38358 H 3552.88 2.94472 -5.74418 0
M  V30 38359 H 3553.65 2.54138 -7.78046 0
M  V30 38360 N 3556.31 1.22876 0.986873 0
M  V30 38361 C 3557.24 1.02854 2.09627 0
M  V30 38362 C 3558.22 -0.0524819 1.70019 0
M  V30 38363 O 3559.4 0.110908 1.93883 0
M  V30 38364 C 3556.53 0.612 3.41865 0
M  V30 38365 C 3555.49 1.63963 3.95348 0
M  V30 38366 C 3554.81 1.07874 5.23705 0
M  V30 38367 C 3556.11 3.0311 4.25349 0
M  V30 38368 H 3557.81 1.95645 2.26635 0
M  V30 38369 H 3555.35 0.942067 1.08909 0
M  V30 38370 H 3557.31 0.45901 4.18893 0
M  V30 38371 H 3556.03 -0.351583 3.24702 0
M  V30 38372 H 3554.69 1.7805 3.20458 0
M  V30 38373 H 3554.34 0.106334 5.02888 0
M  V30 38374 H 3554.04 1.76532 5.60455 0
M  V30 38375 H 3555.56 0.937466 6.03361 0
M  V30 38376 H 3556.98 2.92362 4.93151 0
M  V30 38377 H 3555.37 3.68946 4.73285 0
M  V30 38378 H 3556.44 3.52589 3.3288 0
M  V30 38379 N 3557.79 -1.18464 1.03942 0
M  V30 38380 C 3559.03 -1.88692 0.743174 0
M  V30 38381 C 3559.37 -1.80071 -0.727179 0
M  V30 38382 O 3558.64 -1.20017 -1.53056 0
M  V30 38383 C 3558.92 -3.39221 1.20835 0
M  V30 38384 C 3558.78 -3.56659 2.7407 0
M  V30 38385 C 3560.1 -4.32815 0.797424 0
M  V30 38386 H 3557.21 -0.685189 0.271449 0
M  V30 38387 H 3559.86 -1.39383 1.29121 0
M  V30 38388 H 3558.01 -3.81346 0.7421 0
M  V30 38389 H 3559.68 -3.23634 3.28723 0
M  V30 38390 H 3557.92 -2.99356 3.13956 0
M  V30 38391 H 3558.59 -4.62272 3.01677 0
M  V30 38392 H 3561.07 -3.98463 1.19861 0
M  V30 38393 H 3559.94 -5.36704 1.15067 0
M  V30 38394 H 3560.21 -4.41084 -0.299524 0
M  V30 38395 N 3559.26 -0.818716 -1.34665 0
M  V30 38396 C 3560.51 -0.401218 -1.97669 0
M  V30 38397 C 3560.83 1.04024 -1.65646 0
M  V30 38398 O 3562.03 1.56144 -2.22107 0
M  V30 38399 C 3560.49 -0.66646 -3.53675 0
M  V30 38400 C 3560.1 -2.12126 -3.94597 0
M  V30 38401 C 3561.84 -0.314919 -4.2333 0
M  V30 38402 C 3559.75 -2.33161 -5.43498 0
M  V30 38403 H 3558.68 -0.146288 -0.739673 0
M  V30 38404 H 3561.33 -1.00448 -1.53566 0
M  V30 38405 H 3559.71 0.00691346 -3.95999 0
M  V30 38406 H 3560.88 -2.83344 -3.63391 0
M  V30 38407 H 3559.2 -2.43383 -3.37867 0
M  V30 38408 H 3561.8 -0.449974 -5.32803 0
M  V30 38409 H 3562.14 0.740163 -4.09667 0
M  V30 38410 H 3562.67 -0.942699 -3.86469 0
M  V30 38411 H 3559.41 -3.37159 -5.62142 0
M  V30 38412 H 3558.93 -1.66481 -5.76233 0
M  V30 38413 H 3560.61 -2.15311 -6.10123 0
M  V30 38414 N 3560.74 1.46803 -0.573299 0
M  V30 38415 C 3561.98 2.04318 -0.0578589 0
M  V30 38416 C 3562.35 1.43624 1.27421 0
M  V30 38417 O 3563.55 1.92283 1.87832 0
M  V30 38418 C 3561.82 3.57396 0.0167602 0
M  V30 38419 S 3563.38 4.36211 0.475991 0
M  V30 38420 H 3560.2 0.710238 -0.032915 0
M  V30 38421 H 3562.8 1.79967 -0.763672 0
M  V30 38422 H 3561.5 3.9909 -0.956827 0
M  V30 38423 H 3561.03 3.86269 0.745634 0
M  V30 38424 H 3563.05 4.64968 1.7326 0
M  V30 38425 N 3562.22 0.31058 1.54509 0
M  V30 38426 C 3563.18 -0.54845 2.22541 0
M  V30 38427 C 3564.18 -1.05379 1.21458 0
M  V30 38428 O 3565.37 -0.948286 1.46127 0
M  V30 38429 C 3562.51 -1.76038 2.9193 0
M  V30 38430 H 3563.7 0.0460833 2.99865 0
M  V30 38431 H 3561.25 0.0615145 1.56179 0
M  V30 38432 H 3561.99 -2.3945 2.18711 0
M  V30 38433 H 3561.77 -1.40558 3.66041 0
M  V30 38434 H 3563.26 -2.37045 3.43801 0
M  V30 38435 N 3563.7 -1.57553 0.0384871 0
M  V30 38436 C 3564.63 -2.06311 -0.975248 0
M  V30 38437 C 3565.61 -0.960863 -1.31172 0
M  V30 38438 O 3566.79 -1.23188 -1.42678 0
M  V30 38439 C 3563.92 -2.49301 -2.29274 0
M  V30 38440 C 3562.97 -3.70637 -2.11022 0
M  V30 38441 S 3563.8 -5.16866 -1.40034 0
M  V30 38442 C 3564.96 -5.6316 -2.73133 0
M  V30 38443 H 3565.19 -2.91974 -0.560242 0
M  V30 38444 H 3562.72 -1.53423 -0.173452 0
M  V30 38445 H 3564.68 -2.74733 -3.05011 0
M  V30 38446 H 3563.34 -1.63967 -2.67906 0
M  V30 38447 H 3562.53 -3.98595 -3.08444 0
M  V30 38448 H 3562.14 -3.45405 -1.43427 0
M  V30 38449 H 3564.43 -5.67971 -3.69344 0
M  V30 38450 H 3565.37 -6.62565 -2.49828 0
M  V30 38451 H 3565.78 -4.90841 -2.7881 0
M  V30 38452 N 3565.18 0.234767 -1.55842 0
M  V30 38453 C 3566.43 0.959186 -1.77888 0
M  V30 38454 C 3566.75 1.85389 -0.604653 0
M  V30 38455 O 3566.02 1.92198 0.379059 0
M  V30 38456 H 3564.6 0.357161 -0.656083 0
M  V30 38457 H 3567.26 0.249797 -1.93293 0
M  V30 38458 H 3566.35 1.57378 -2.69515 0
M  V30 38459 N 3566.66 1.49427 0.500936 0
M  V30 38460 C 3567.59 1.69013 1.61111 0
M  V30 38461 C 3568.57 0.538842 1.6134 0
M  V30 38462 O 3569.75 0.774691 1.78079 0
M  V30 38463 C 3566.88 1.75671 2.99595 0
M  V30 38464 C 3565.84 2.90591 3.14231 0
M  V30 38465 C 3565.16 2.82362 4.54066 0
M  V30 38466 C 3566.46 4.31525 2.9425 0
M  V30 38467 H 3568.16 2.6196 1.44974 0
M  V30 38468 H 3565.7 1.26062 0.696007 0
M  V30 38469 H 3567.65 1.8796 3.77159 0
M  V30 38470 H 3566.38 0.793241 3.16821 0
M  V30 38471 H 3565.04 2.77905 2.39091 0
M  V30 38472 H 3564.69 1.83922 4.68168 0
M  V30 38473 H 3564.39 3.59493 4.648 0
M  V30 38474 H 3565.91 2.96658 5.33691 0
M  V30 38475 H 3567.32 4.44893 3.61584 0
M  V30 38476 H 3565.72 5.09878 3.16455 0
M  V30 38477 H 3566.79 4.45966 1.90375 0
M  V30 38478 N 3568.13 -0.751987 1.38502 0
M  V30 38479 C 3569.38 -1.51115 1.34798 0
M  V30 38480 C 3569.71 -1.94403 -0.0614742 0
M  V30 38481 O 3568.96 -1.65848 -1.03889 0
M  V30 38482 C 3569.26 -2.77592 2.25116 0
M  V30 38483 C 3568.93 -2.53259 3.73056 0
M  V30 38484 C 3567.59 -2.46332 4.13369 0
M  V30 38485 C 3569.94 -2.32043 4.66696 0
M  V30 38486 C 3567.27 -2.16206 5.4541 0
M  V30 38487 C 3569.62 -2.03438 5.98996 0
M  V30 38488 C 3568.29 -1.94968 6.38392 0
M  V30 38489 H 3567.56 -0.55297 0.49326 0
M  V30 38490 H 3570.2 -0.864558 1.70873 0
M  V30 38491 H 3568.51 -3.4691 1.82102 0
M  V30 38492 H 3570.21 -3.35556 2.19552 0
M  V30 38493 H 3566.8 -2.59522 3.41096 0
M  V30 38494 H 3570.98 -2.36373 4.36396 0
M  V30 38495 H 3566.24 -2.08158 5.74874 0
M  V30 38496 H 3570.41 -1.86026 6.71094 0
M  V30 38497 H 3568.04 -1.71389 7.40628 0
M  V30 38498 N 3569.61 -1.23398 -0.980343 0
M  V30 38499 C 3570.86 -1.06768 -1.72419 0
M  V30 38500 C 3571.19 0.394482 -1.90151 0
M  V30 38501 O 3570.47 1.29206 -1.45382 0
M  V30 38502 C 3570.75 -1.79378 -3.12243 0
M  V30 38503 C 3570.6 -3.33268 -3.02081 0
M  V30 38504 C 3571.92 -1.55631 -4.11664 0
M  V30 38505 H 3569.04 -0.389262 -0.625815 0
M  V30 38506 H 3571.68 -1.51903 -1.14129 0
M  V30 38507 H 3569.83 -1.41011 -3.62006 0
M  V30 38508 H 3571.5 -3.81156 -2.59842 0
M  V30 38509 H 3569.75 -3.62297 -2.38585 0
M  V30 38510 H 3570.42 -3.79261 -4.0108 0
M  V30 38511 H 3572.89 -1.88982 -3.70709 0
M  V30 38512 H 3571.77 -2.08911 -5.0759 0
M  V30 38513 H 3572.03 -0.491678 -4.39357 0
M  V30 38514 N 3571.09 1.17911 -1.04569 0
M  V30 38515 C 3572.04 2.19648 -0.611446 0
M  V30 38516 C 3573.02 1.57074 0.348774 0
M  V30 38517 O 3574.22 1.7621 0.167014 0
M  V30 38518 C 3571.34 3.43295 0.0188776 0
M  V30 38519 C 3570.43 4.1298 -0.964793 0
M  V30 38520 N 3570.82 4.58588 -2.13379 0
M  V30 38521 C 3569.12 4.38913 -0.791894 0
M  V30 38522 C 3569.82 5.12291 -2.75558 0
M  V30 38523 N 3568.8 5.04113 -2.03399 0
M  V30 38524 H 3572.6 2.52608 -1.50222 0
M  V30 38525 H 3570.11 1.34172 -0.914969 0
M  V30 38526 H 3572.11 4.15448 0.347702 0
M  V30 38527 H 3570.77 3.11829 0.905122 0
M  V30 38528 H 3571.78 4.52876 -2.51244 0
M  V30 38529 H 3568.46 4.17477 0.043832 0
M  V30 38530 H 3569.85 5.57747 -3.74657 0
M  V30 38531 N 3572.57 0.825847 1.34229 0
M  V30 38532 C 3573.48 0.251844 2.33244 0
M  V30 38533 C 3574.49 -0.615306 1.62757 0
M  V30 38534 O 3575.67 -0.522513 1.94504 0
M  V30 38535 C 3572.73 -0.574396 3.41909 0
M  V30 38536 C 3571.8 0.315497 4.28139 0
M  V30 38537 C 3571.03 -0.471403 5.31614 0
M  V30 38538 O 3571.25 -1.7044 5.4434 0
M  V30 38539 O 3570.19 0.147796 6.01719 0
M  V30 38540 H 3574.01 1.07144 2.84172 0
M  V30 38541 H 3571.6 0.588056 1.3734 0
M  V30 38542 H 3573.48 -1.04437 4.08254 0
M  V30 38543 H 3572.15 -1.37127 2.9322 0
M  V30 38544 H 3571.06 0.833027 3.64707 0
M  V30 38545 H 3572.39 1.0768 4.80277 0
M  V30 38546 N 3574.05 -1.46497 0.581077 0
M  V30 38547 C 3575.29 -2.02392 0.0660312 0
M  V30 38548 C 3575.62 -1.45275 -1.29327 0
M  V30 38549 O 3574.88 -0.607074 -1.86046 0
M  V30 38550 C 3575.17 -3.57363 -0.0514146 0
M  V30 38551 C 3574.84 -4.33512 1.24008 0
M  V30 38552 C 3573.5 -4.54035 1.59391 0
M  V30 38553 C 3575.85 -4.77249 2.09481 0
M  V30 38554 C 3573.18 -5.15547 2.8005 0
M  V30 38555 C 3575.53 -5.40094 3.29364 0
M  V30 38556 C 3574.2 -5.58845 3.65032 0
M  V30 38557 H 3573.47 -0.740606 0.0241625 0
M  V30 38558 H 3576.12 -1.75886 0.757385 0
M  V30 38559 H 3574.42 -3.82997 -0.825887 0
M  V30 38560 H 3576.12 -3.98287 -0.465656 0
M  V30 38561 H 3572.71 -4.17834 0.95462 0
M  V30 38562 H 3576.89 -4.61151 1.83449 0
M  V30 38563 H 3572.15 -5.28256 3.07823 0
M  V30 38564 H 3576.32 -5.72943 3.95865 0
M  V30 38565 H 3573.95 -6.06279 4.58617 0
M  V30 38566 N 3575.52 -0.31877 -1.54343 0
M  V30 38567 C 3576.77 0.285241 -2.00481 0
M  V30 38568 C 3577.1 1.52518 -1.207 0
M  V30 38569 O 3576.35 1.93745 -0.275927 0
M  V30 38570 C 3576.65 0.669119 -3.51081 0
M  V30 38571 C 3576.32 -0.471096 -4.48432 0
M  V30 38572 C 3574.98 -0.784069 -4.74769 0
M  V30 38573 C 3577.33 -1.23724 -5.06302 0
M  V30 38574 C 3574.66 -1.86599 -5.56235 0
M  V30 38575 C 3577.01 -2.30921 -5.88947 0
M  V30 38576 C 3575.68 -2.62805 -6.13588 0
M  V30 38577 H 3574.95 0.104377 -0.733612 0
M  V30 38578 H 3577.59 -0.441554 -1.8634 0
M  V30 38579 H 3575.9 1.47627 -3.62924 0
M  V30 38580 H 3577.6 1.14794 -3.84218 0
M  V30 38581 H 3574.19 -0.217079 -4.2805 0
M  V30 38582 H 3578.37 -1.0087 -4.85941 0
M  V30 38583 H 3573.63 -2.11754 -5.73559 0
M  V30 38584 H 3577.8 -2.90733 -6.32809 0
M  V30 38585 H 3575.43 -3.46769 -6.76502 0
M  V30 38586 N 3577 1.5753 -0.0468419 0
M  V30 38587 C 3578.23 1.96545 0.636689 0
M  V30 38588 C 3578.64 0.922843 1.65167 0
M  V30 38589 O 3577.98 -0.101859 1.83417 0
M  V30 38590 C 3578.04 3.31779 1.38429 0
M  V30 38591 C 3577.71 4.53967 0.525634 0
M  V30 38592 C 3578.71 5.1949 -0.206483 0
M  V30 38593 C 3576.39 5.00209 0.457831 0
M  V30 38594 C 3578.38 6.29588 -0.99489 0
M  V30 38595 C 3576.07 6.10185 -0.334266 0
M  V30 38596 C 3577.07 6.74735 -1.05932 0
M  V30 38597 O 3576.76 7.82597 -1.8384 0
M  V30 38598 H 3576.49 0.651819 0.179185 0
M  V30 38599 H 3579.04 2.05115 -0.10825 0
M  V30 38600 H 3577.27 3.19751 2.17476 0
M  V30 38601 H 3578.96 3.55572 1.95764 0
M  V30 38602 H 3579.73 4.84724 -0.163542 0
M  V30 38603 H 3575.61 4.4976 1.01177 0
M  V30 38604 H 3579.15 6.79903 -1.56133 0
M  V30 38605 H 3575.05 6.44387 -0.378861 0
M  V30 38606 H 3575.82 7.99353 -1.76005 0
M  V30 38607 N 3578.48 -0.226499 1.55964 0
M  V30 38608 C 3579.71 -0.972814 1.8317 0
M  V30 38609 C 3580.13 -1.77359 0.626543 0
M  V30 38610 O 3579.49 -1.76257 -0.424649 0
M  V30 38611 C 3579.54 -1.87009 3.08318 0
M  V30 38612 O 3578.64 -2.96474 2.86665 0
M  V30 38613 H 3577.98 -0.275726 0.604046 0
M  V30 38614 H 3580.51 -0.24131 2.03172 0
M  V30 38615 H 3580.52 -2.28085 3.38292 0
M  V30 38616 H 3579.2 -1.28148 3.95665 0
M  V30 38617 H 3577.77 -2.59379 2.67912 0
M  V30 38618 N 3579.96 -1.4969 -0.493005 0
M  V30 38619 C 3580.89 -1.69866 -1.60212 0
M  V30 38620 C 3581.87 -0.547391 -1.61052 0
M  V30 38621 O 3583.05 -0.784124 -1.77666 0
M  V30 38622 C 3580.18 -1.77258 -2.98659 0
M  V30 38623 C 3579.14 -2.92253 -3.12685 0
M  V30 38624 C 3578.46 -2.84766 -4.52562 0
M  V30 38625 C 3579.76 -4.3308 -2.91958 0
M  V30 38626 H 3581.46 -2.62725 -1.43582 0
M  V30 38627 H 3579 -1.2643 -0.689312 0
M  V30 38628 H 3580.96 -1.89957 -3.76157 0
M  V30 38629 H 3579.68 -0.810032 -3.16395 0
M  V30 38630 H 3578.34 -2.79169 -2.37614 0
M  V30 38631 H 3577.99 -1.86403 -4.67186 0
M  V30 38632 H 3577.69 -3.61953 -4.62887 0
M  V30 38633 H 3579.21 -2.99484 -5.3211 0
M  V30 38634 H 3580.63 -4.46804 -3.5922 0
M  V30 38635 H 3579.02 -5.11549 -3.13747 0
M  V30 38636 H 3580.09 -4.46969 -1.88007 0
M  V30 38637 N 3581.44 0.744631 -1.38899 0
M  V30 38638 C 3582.37 1.87193 -1.39575 0
M  V30 38639 C 3583.35 1.68095 -0.260402 0
M  V30 38640 O 3584.53 1.88555 -0.464809 0
M  V30 38641 C 3581.66 3.2483 -1.22895 0
M  V30 38642 C 3580.62 3.58546 -2.33727 0
M  V30 38643 C 3579.94 4.95017 -2.02145 0
M  V30 38644 C 3581.24 3.62504 -3.76016 0
M  V30 38645 H 3582.94 1.86885 -2.33911 0
M  V30 38646 H 3580.48 0.89772 -1.12592 0
M  V30 38647 H 3582.44 4.03356 -1.2199 0
M  V30 38648 H 3581.16 3.2564 -0.25023 0
M  V30 38649 H 3579.82 2.82344 -2.33833 0
M  V30 38650 H 3579.47 4.92397 -1.02735 0
M  V30 38651 H 3579.17 5.18544 -2.7638 0
M  V30 38652 H 3580.69 5.75912 -2.02874 0
M  V30 38653 H 3582.1 4.31127 -3.77892 0
M  V30 38654 H 3580.5 3.97545 -4.49531 0
M  V30 38655 H 3581.57 2.62526 -4.07686 0
M  V30 38656 N 3582.91 1.23916 0.973785 0
M  V30 38657 C 3583.84 1.05071 2.08524 0
M  V30 38658 C 3584.83 -0.0344462 1.70065 0
M  V30 38659 O 3586.01 0.131466 1.93755 0
M  V30 38660 C 3583.14 0.648225 3.41197 0
M  V30 38661 C 3582.09 1.68147 3.93587 0
M  V30 38662 C 3581.42 1.13423 5.22532 0
M  V30 38663 C 3582.72 3.07604 4.2211 0
M  V30 38664 H 3584.41 1.98038 2.24547 0
M  V30 38665 H 3581.96 0.953565 1.07903 0
M  V30 38666 H 3583.91 0.503413 4.18382 0
M  V30 38667 H 3582.64 -0.317124 3.25057 0
M  V30 38668 H 3581.3 1.81439 3.18552 0
M  V30 38669 H 3580.94 0.159666 5.02747 0
M  V30 38670 H 3580.64 1.82466 5.58552 0
M  V30 38671 H 3582.17 1.00141 6.02332 0
M  V30 38672 H 3583.58 2.97576 4.90022 0
M  V30 38673 H 3581.98 3.73945 4.69346 0
M  V30 38674 H 3583.05 3.56099 3.29122 0
M  V30 38675 N 3584.39 -1.17355 1.05193 0
M  V30 38676 C 3585.64 -1.87615 0.762017 0
M  V30 38677 C 3585.97 -1.81041 -0.710944 0
M  V30 38678 O 3585.22 -1.21312 -1.53564 0
M  V30 38679 C 3585.52 -3.37083 1.18785 0
M  V30 38680 C 3585.19 -3.6386 2.66302 0
M  V30 38681 C 3583.85 -3.70877 3.066 0
M  V30 38682 C 3586.2 -3.75333 3.61628 0
M  V30 38683 C 3583.53 -3.86857 4.41088 0
M  V30 38684 C 3585.88 -3.92832 4.95849 0
M  V30 38685 C 3584.55 -3.98088 5.358 0
M  V30 38686 H 3583.82 -0.686534 0.278842 0
M  V30 38687 H 3586.46 -1.38832 1.31901 0
M  V30 38688 H 3584.77 -3.87923 0.54985 0
M  V30 38689 H 3586.46 -3.89809 0.940736 0
M  V30 38690 H 3583.05 -3.59023 2.34095 0
M  V30 38691 H 3587.24 -3.69232 3.31634 0
M  V30 38692 H 3582.49 -3.89175 4.71543 0
M  V30 38693 H 3586.67 -4.00651 5.69607 0
M  V30 38694 H 3584.3 -4.10223 6.40016 0
M  V30 38695 N 3585.87 -0.832954 -1.3379 0
M  V30 38696 C 3587.15 -0.347989 -1.9248 0
M  V30 38697 C 3587.53 1.16594 -1.7598 0
M  V30 38698 O 3586.88 1.97766 -1.14459 0
M  V30 38699 C 3587.09 -0.78837 -3.39979 0
M  V30 38700 C 3588.43 -0.792973 -4.1713 0
M  V30 38701 O 3589.46 -0.731594 -3.48606 0
M  V30 38702 O 3588.32 -0.875317 -5.39445 0
M  V30 38703 H 3585.41 -0.0972453 -0.821263 0
M  V30 38704 H 3587.96 -0.918412 -1.427 0
M  V30 38705 H 3586.73 -1.83071 -3.45833 0
M  V30 38706 H 3586.35 -0.194193 -3.97125 0
M  V30 38707 N 3587.35 1.46186 -0.588837 0
M  V30 38708 C 3588.28 2.33146 0.128554 0
M  V30 38709 C 3589.26 1.45714 0.877582 0
M  V30 38710 O 3590.44 1.7452 0.851836 0
M  V30 38711 C 3587.57 3.28098 1.13881 0
M  V30 38712 C 3586.53 4.2502 0.504221 0
M  V30 38713 C 3585.85 5.09525 1.62138 0
M  V30 38714 C 3587.15 5.19262 -0.562557 0
M  V30 38715 H 3588.85 2.93377 -0.597507 0
M  V30 38716 H 3586.39 1.41074 -0.288789 0
M  V30 38717 H 3588.35 3.87792 1.64909 0
M  V30 38718 H 3587.07 2.65987 1.89522 0
M  V30 38719 H 3585.73 3.66597 0.0149681 0
M  V30 38720 H 3585.38 4.43794 2.36762 0
M  V30 38721 H 3585.08 5.75166 1.20239 0
M  V30 38722 H 3586.6 5.72084 2.13431 0
M  V30 38723 H 3588.02 5.73136 -0.137103 0
M  V30 38724 H 3586.41 5.93279 -0.902219 0
M  V30 38725 H 3587.48 4.62823 -1.44648 0
M  V30 38726 N 3588.83 0.32695 1.54171 0
M  V30 38727 C 3590.07 -0.275012 2.00927 0
M  V30 38728 C 3590.41 -1.5152 1.21472 0
M  V30 38729 O 3589.68 -1.92205 0.297905 0
M  V30 38730 C 3589.96 -0.605771 3.54968 0
M  V30 38731 C 3589.82 0.645357 4.45146 0
M  V30 38732 C 3591.14 -1.42206 4.16492 0
M  V30 38733 H 3588.25 -0.0984822 0.73039 0
M  V30 38734 H 3590.9 0.4442 1.84735 0
M  V30 38735 H 3589.05 -1.2185 3.68897 0
M  V30 38736 H 3590.72 1.28357 4.43082 0
M  V30 38737 H 3588.96 1.27357 4.14684 0
M  V30 38738 H 3589.63 0.369417 5.50762 0
M  V30 38739 H 3592.11 -0.9041 4.06159 0
M  V30 38740 H 3590.98 -1.62225 5.2438 0
M  V30 38741 H 3591.25 -2.41921 3.70036 0
M  V30 38742 N 3590.3 -1.57503 0.0551955 0
M  V30 38743 C 3591.53 -1.9688 -0.626256 0
M  V30 38744 C 3591.94 -0.931589 -1.64676 0
M  V30 38745 O 3591.29 0.0921309 -1.83469 0
M  V30 38746 C 3591.35 -3.32509 -1.36668 0
M  V30 38747 C 3591.01 -4.54239 -0.501552 0
M  V30 38748 C 3592.01 -5.19373 0.23403 0
M  V30 38749 C 3589.69 -5.00445 -0.431297 0
M  V30 38750 C 3591.69 -6.29051 1.02826 0
M  V30 38751 C 3589.37 -6.09999 0.366621 0
M  V30 38752 C 3590.37 -6.74164 1.09509 0
M  V30 38753 O 3590.06 -7.81611 1.87987 0
M  V30 38754 H 3589.79 -0.652761 -0.175726 0
M  V30 38755 H 3592.35 -2.05054 0.119126 0
M  V30 38756 H 3590.58 -3.209 -2.15777 0
M  V30 38757 H 3592.27 -3.56605 -1.93875 0
M  V30 38758 H 3593.03 -4.84631 0.189246 0
M  V30 38759 H 3588.91 -4.5029 -0.987901 0
M  V30 38760 H 3592.45 -6.79066 1.59736 0
M  V30 38761 H 3588.35 -6.44177 0.413029 0
M  V30 38762 H 3589.12 -7.98408 1.80242 0
M  V30 38763 N 3591.78 0.218225 -1.56082 0
M  V30 38764 C 3593.2 0.568072 -1.49148 0
M  V30 38765 C 3593.4 1.86985 -0.750926 0
M  V30 38766 O 3592.45 2.50807 -0.291948 0
M  V30 38767 C 3593.77 0.644221 -2.93718 0
M  V30 38768 C 3595.32 0.734623 -3.04257 0
M  V30 38769 C 3595.79 0.842088 -4.50192 0
M  V30 38770 N 3597.28 0.906222 -4.54249 0
M  V30 38771 C 3598.02 1.00914 -5.6445 0
M  V30 38772 N 3597.51 1.0758 -6.84396 0
M  V30 38773 N 3599.31 1.04454 -5.5231 0
M  V30 38774 H 3591.46 -0.635971 -2.02655 0
M  V30 38775 H 3593.72 -0.223579 -0.921258 0
M  V30 38776 H 3593.43 -0.242782 -3.50861 0
M  V30 38777 H 3593.3 1.50672 -3.458 0
M  V30 38778 H 3595.69 1.61207 -2.47177 0
M  V30 38779 H 3595.77 -0.153608 -2.55338 0
M  V30 38780 H 3595.41 -0.0309107 -5.07891 0
M  V30 38781 H 3595.34 1.74578 -4.9682 0
M  V30 38782 H 3597.83 0.86489 -3.6787 0
M  V30 38783 H 3598.15 1.1542 -7.64132 0
M  V30 38784 H 3596.49 1.04488 -6.87101 0
M  V30 38785 H 3599.68 0.989137 -4.5753 0
M  V30 38786 H 3599.85 1.12129 -6.38225 0
M  V30 38787 N 3593.26 1.4995 0.485059 0
M  V30 38788 C 3594.17 1.70554 1.61086 0
M  V30 38789 C 3595.19 0.588362 1.63751 0
M  V30 38790 O 3596.36 0.865012 1.81878 0
M  V30 38791 C 3593.43 1.78233 2.97379 0
M  V30 38792 C 3592.49 3.01899 3.05214 0
M  V30 38793 C 3591.72 3.09202 4.35005 0
M  V30 38794 O 3591.95 2.23667 5.24718 0
M  V30 38795 O 3590.88 4.0181 4.48144 0
M  V30 38796 H 3594.71 2.65958 1.46629 0
M  V30 38797 H 3592.29 1.3388 0.663068 0
M  V30 38798 H 3594.17 1.85545 3.78353 0
M  V30 38799 H 3592.85 0.860098 3.12064 0
M  V30 38800 H 3591.75 3.00096 2.23368 0
M  V30 38801 H 3593.09 3.93655 2.9546 0
M  V30 38802 N 3594.74 -0.737255 1.39292 0
M  V30 38803 C 3595.65 -1.88172 1.40101 0
M  V30 38804 C 3596.67 -1.71462 0.296083 0
M  V30 38805 O 3597.84 -1.94104 0.537187 0
M  V30 38806 C 3594.91 -3.23737 1.24077 0
M  V30 38807 C 3593.97 -3.52857 2.44521 0
M  V30 38808 C 3593.2 -4.81954 2.29251 0
M  V30 38809 O 3593.42 -5.5551 1.2948 0
M  V30 38810 O 3592.36 -5.10921 3.18187 0
M  V30 38811 H 3596.18 -1.90445 2.36568 0
M  V30 38812 H 3593.77 -0.884765 1.20384 0
M  V30 38813 H 3595.65 -4.04756 1.17264 0
M  V30 38814 H 3594.33 -3.22241 0.307037 0
M  V30 38815 H 3593.23 -2.71934 2.5691 0
M  V30 38816 H 3594.57 -3.59131 3.3658 0
M  V30 38817 N 3596.22 -1.24431 -0.967199 0
M  V30 38818 C 3597.45 -1.11136 -1.74518 0
M  V30 38819 C 3597.86 0.336055 -1.85785 0
M  V30 38820 O 3597.22 1.23185 -1.34654 0
M  V30 38821 C 3597.27 -1.74596 -3.16541 0
M  V30 38822 O 3596.99 -3.13678 -3.05839 0
M  V30 38823 C 3598.49 -1.66917 -4.10674 0
M  V30 38824 H 3595.71 -0.388263 -0.54726 0
M  V30 38825 H 3598.25 -1.64547 -1.21427 0
M  V30 38826 H 3596.41 -1.25187 -3.66616 0
M  V30 38827 H 3596.82 -3.44683 -3.9534 0
M  V30 38828 H 3598.3 -2.16001 -5.07984 0
M  V30 38829 H 3598.77 -0.630488 -4.34651 0
M  V30 38830 H 3599.38 -2.15756 -3.6651 0
M  V30 38831 N 3597.7 1.16795 -1.05814 0
M  V30 38832 C 3598.63 2.23201 -0.685817 0
M  V30 38833 C 3599.61 1.67074 0.319399 0
M  V30 38834 O 3600.79 1.93212 0.195601 0
M  V30 38835 C 3597.92 3.47237 -0.0663568 0
M  V30 38836 C 3596.88 4.16225 -0.997016 0
M  V30 38837 C 3596.2 5.34156 -0.241109 0
M  V30 38838 C 3597.5 4.67751 -2.32392 0
M  V30 38839 H 3599.2 2.54601 -1.5754 0
M  V30 38840 H 3596.74 1.22377 -0.75893 0
M  V30 38841 H 3598.69 4.20896 0.20595 0
M  V30 38842 H 3597.42 3.15123 0.858208 0
M  V30 38843 H 3596.08 3.44486 -1.25399 0
M  V30 38844 H 3595.73 4.98294 0.68642 0
M  V30 38845 H 3595.43 5.81253 -0.86129 0
M  V30 38846 H 3596.95 6.10595 0.0237666 0
M  V30 38847 H 3598.36 5.33016 -2.11108 0
M  V30 38848 H 3596.76 5.25451 -2.89864 0
M  V30 38849 H 3597.83 3.84222 -2.95807 0
M  V30 38850 N 3599.17 0.840037 1.33346 0
M  V30 38851 C 3600.1 0.289179 2.31702 0
M  V30 38852 C 3601.08 -0.603731 1.59025 0
M  V30 38853 O 3602.27 -0.527038 1.86912 0
M  V30 38854 C 3599.4 -0.535599 3.43145 0
M  V30 38855 C 3598.35 0.261619 4.272 0
M  V30 38856 C 3597.68 -0.686982 5.30268 0
M  V30 38857 C 3598.98 1.47933 5.00912 0
M  V30 38858 H 3600.67 1.11099 2.78024 0
M  V30 38859 H 3598.22 0.535682 1.33665 0
M  V30 38860 H 3600.17 -0.931279 4.10981 0
M  V30 38861 H 3598.9 -1.39063 2.95515 0
M  V30 38862 H 3597.56 0.638872 3.6099 0
M  V30 38863 H 3597.2 -1.53845 4.78895 0
M  V30 38864 H 3596.9 -0.15767 5.87388 0
M  V30 38865 H 3598.43 -1.08015 6.0097 0
M  V30 38866 H 3599.84 1.15674 5.61509 0
M  V30 38867 H 3598.24 1.94551 5.67688 0
M  V30 38868 H 3599.31 2.24847 4.29618 0
M  V30 38869 N 3600.65 -1.45872 0.596582 0
M  V30 38870 C 3601.6 -2.32171 -0.141287 0
M  V30 38871 C 3602.59 -1.45315 -0.870626 0
M  V30 38872 O 3603.8 -1.61862 -0.78744 0
M  V30 38873 H 3600.17 -0.749235 -0.0644273 0
M  V30 38874 H 3602.15 -2.92199 0.605166 0
M  V30 38875 C 3600.89 -3.28738 -1.13255 0
M  V30 38876 H 3600.22 -3.95559 -0.580765 0
M  V30 38877 H 3601.66 -3.91874 -1.61898 0
M  V30 38878 C 3600.12 -2.55101 -2.20057 0
M  V30 38879 O 3600.65 -2.32425 -3.2763 0
M  V30 38880 N 3598.85 -2.15424 -1.95041 0
M  V30 38881 H 3598.4 -2.34066 -1.07568 0
M  V30 38882 H 3598.36 -1.66476 -2.66708 0
M  V30 38883 N 3602.13 -0.335122 -1.53996 0
M  V30 38884 C 3603.38 0.264353 -2.0107 0
M  V30 38885 C 3603.71 1.50874 -1.22274 0
M  V30 38886 O 3602.98 1.92044 -0.308094 0
M  V30 38887 C 3603.27 0.586937 -3.55284 0
M  V30 38888 C 3603.12 -0.668955 -4.44798 0
M  V30 38889 C 3604.44 1.39995 -4.1724 0
M  V30 38890 H 3601.56 0.0946073 -0.730902 0
M  V30 38891 H 3604.2 -0.453991 -1.84496 0
M  V30 38892 H 3602.35 1.19892 -3.69538 0
M  V30 38893 H 3604.02 -1.30705 -4.42395 0
M  V30 38894 H 3602.26 -1.29554 -4.14003 0
M  V30 38895 H 3602.94 -0.39862 -5.50559 0
M  V30 38896 H 3605.41 0.882548 -4.06633 0
M  V30 38897 H 3604.29 1.59442 -5.25233 0
M  V30 38898 H 3604.55 2.39956 -3.71314 0
M  V30 38899 N 3603.61 1.57472 -0.0635475 0
M  V30 38900 C 3604.86 1.9235 0.606975 0
M  V30 38901 C 3605.17 0.944836 1.71266 0
M  V30 38902 O 3606.38 1.18613 2.44219 0
M  V30 38903 C 3604.83 3.41668 1.13099 0
M  V30 38904 C 3604.44 4.47964 0.0567468 0
M  V30 38905 C 3606.18 3.8556 1.77605 0
M  V30 38906 C 3604.09 5.88406 0.59434 0
M  V30 38907 H 3603.02 0.717906 0.230493 0
M  V30 38908 H 3605.67 1.83007 -0.134445 0
M  V30 38909 H 3604.05 3.46057 1.92511 0
M  V30 38910 H 3605.23 4.5518 -0.717452 0
M  V30 38911 H 3603.54 4.13488 -0.491589 0
M  V30 38912 H 3606.14 4.87865 2.18843 0
M  V30 38913 H 3606.48 3.22478 2.63274 0
M  V30 38914 H 3607.02 3.8374 1.04827 0
M  V30 38915 H 3603.75 6.55114 -0.225008 0
M  V30 38916 H 3603.27 5.84726 1.33625 0
M  V30 38917 H 3604.95 6.38035 1.07335 0
M  V30 38918 N 3605.09 -0.209945 1.56195 0
M  V30 38919 C 3606.03 -1.26022 1.93357 0
M  V30 38920 C 3607 -1.4599 0.79222 0
M  V30 38921 O 3608.19 -1.59368 1.04912 0
M  V30 38922 C 3605.33 -2.60314 2.26562 0
M  V30 38923 C 3604.44 -2.48049 3.53689 0
M  V30 38924 C 3603.58 -3.74943 3.76286 0
M  V30 38925 C 3602.61 -3.57448 4.96888 0
M  V30 38926 N 3601.75 -4.76319 5.15814 0
M  V30 38927 H 3606.59 -0.936307 2.82909 0
M  V30 38928 H 3604.13 -0.450997 1.40016 0
M  V30 38929 H 3606.09 -3.38532 2.43827 0
M  V30 38930 H 3604.72 -2.90779 1.4017 0
M  V30 38931 H 3603.77 -1.61205 3.44554 0
M  V30 38932 H 3605.08 -2.31048 4.42061 0
M  V30 38933 H 3604.23 -4.61603 3.9371 0
M  V30 38934 H 3602.97 -3.94882 2.86216 0
M  V30 38935 H 3601.98 -2.69172 4.79402 0
M  V30 38936 H 3603.2 -3.38969 5.88453 0
M  V30 38937 H 3601.15 -4.9655 4.28689 0
M  V30 38938 H 3601.07 -4.62088 5.9834 0
M  V30 38939 H 3602.33 -5.64373 5.37684 0
M  V30 38940 N 3606.56 -1.50205 -0.4771 0
M  V30 38941 C 3607.79 -1.64912 -1.25772 0
M  V30 38942 C 3608.21 -0.329798 -1.85186 0
M  V30 38943 O 3607.57 0.705611 -1.67005 0
M  V30 38944 C 3607.62 -2.73805 -2.34656 0
M  V30 38945 O 3606.72 -2.3464 -3.39143 0
M  V30 38946 H 3606.06 -0.55117 -0.370281 0
M  V30 38947 H 3608.59 -1.96544 -0.568479 0
M  V30 38948 H 3608.6 -2.967 -2.80059 0
M  V30 38949 H 3607.28 -3.69561 -1.90782 0
M  V30 38950 H 3605.86 -2.22168 -2.99493 0
M  V30 38951 N 3608.04 0.729857 -1.39681 0
M  V30 38952 C 3609.29 1.49172 -1.37388 0
M  V30 38953 C 3609.62 1.94179 0.0285497 0
M  V30 38954 O 3608.9 1.67153 0.994487 0
M  V30 38955 C 3609.18 2.72781 -2.3508 0
M  V30 38956 C 3609.03 2.3376 -3.84286 0
M  V30 38957 C 3610.35 3.74897 -2.30522 0
M  V30 38958 H 3607.47 0.541111 -0.500368 0
M  V30 38959 H 3610.11 0.834122 -1.70711 0
M  V30 38960 H 3608.26 3.2889 -2.06793 0
M  V30 38961 H 3609.93 1.83243 -4.23344 0
M  V30 38962 H 3608.18 1.65928 -4.00812 0
M  V30 38963 H 3608.85 3.22301 -4.48136 0
M  V30 38964 H 3611.32 3.28384 -2.55544 0
M  V30 38965 H 3610.2 4.59045 -3.00947 0
M  V30 38966 H 3610.46 4.22184 -1.31198 0
M  V30 38967 N 3609.52 1.24942 0.960587 0
M  V30 38968 C 3610.75 1.1206 1.73926 0
M  V30 38969 C 3611.16 -0.326197 1.85961 0
M  V30 38970 O 3610.52 -1.2247 1.35305 0
M  V30 38971 C 3610.57 1.76272 3.15611 0
M  V30 38972 O 3610.29 3.15296 3.04171 0
M  V30 38973 C 3611.79 1.69093 4.09784 0
M  V30 38974 H 3609.01 0.391159 0.545193 0
M  V30 38975 H 3611.56 1.65188 1.20553 0
M  V30 38976 H 3609.71 1.27129 3.65947 0
M  V30 38977 H 3610.13 3.46775 3.93507 0
M  V30 38978 H 3611.6 2.18692 5.06831 0
M  V30 38979 H 3612.08 0.653529 4.34311 0
M  V30 38980 H 3612.68 2.17696 3.65361 0
M  V30 38981 N 3611 -1.16233 1.06432 0
M  V30 38982 C 3612.41 -1.38788 0.788045 0
M  V30 38983 C 3612.61 -1.91982 -0.611985 0
M  V30 38984 O 3611.67 -2.11952 -1.37231 0
M  V30 38985 C 3612.98 -2.36735 1.8541 0
M  V30 38986 C 3614.53 -2.50417 1.87777 0
M  V30 38987 C 3615.01 -3.51648 2.93441 0
M  V30 38988 N 3616.5 -3.59176 2.92484 0
M  V30 38989 C 3617.23 -4.37298 3.70888 0
M  V30 38990 N 3616.73 -5.18831 4.59115 0
M  V30 38991 N 3618.52 -4.32294 3.59274 0
M  V30 38992 H 3610.67 -0.800414 1.96741 0
M  V30 38993 H 3612.94 -0.414382 0.852638 0
M  V30 38994 H 3612.64 -2.04746 2.85958 0
M  V30 38995 H 3612.52 -3.364 1.70631 0
M  V30 38996 H 3614.9 -2.81709 0.878874 0
M  V30 38997 H 3614.98 -1.50783 2.06635 0
M  V30 38998 H 3614.63 -3.21093 3.93525 0
M  V30 38999 H 3614.56 -4.51015 2.71832 0
M  V30 39000 H 3617.05 -3.00975 2.28523 0
M  V30 39001 H 3617.36 -5.75659 5.15593 0
M  V30 39002 H 3615.71 -5.18169 4.63169 0
M  V30 39003 H 3618.9 -3.67658 2.89733 0
M  V30 39004 H 3619.07 -4.92931 4.20622 0
M  V30 39005 N 3612.48 -0.847097 -1.32899 0
M  V30 39006 C 3613.42 -0.274911 -2.3097 0
M  V30 39007 C 3614.42 0.597597 -1.58509 0
M  V30 39008 O 3615.62 0.486242 -1.73308 0
M  V30 39009 H 3612 -0.0701851 -0.748718 0
M  V30 39010 H 3613.97 -1.11643 -2.76728 0
M  V30 39011 C 3612.72 0.528302 -3.43663 0
M  V30 39012 H 3612.04 -0.133777 -3.99576 0
M  V30 39013 H 3613.48 0.89437 -4.1446 0
M  V30 39014 C 3611.94 1.7105 -2.90247 0
M  V30 39015 O 3612.47 2.80942 -2.87114 0
M  V30 39016 N 3610.68 1.53508 -2.46746 0
M  V30 39017 H 3610.22 0.641137 -2.49494 0
M  V30 39018 H 3610.18 2.32754 -2.1136 0
M  V30 39019 N 3613.95 1.45554 -0.604309 0
M  V30 39020 C 3615.2 2.01862 -0.0980277 0
M  V30 39021 C 3615.52 1.47565 1.27473 0
M  V30 39022 O 3614.79 0.668644 1.84136 0
M  V30 39023 H 3613.37 0.74626 -0.0332481 0
M  V30 39024 H 3616.04 1.78394 -0.784967 0
M  V30 39025 H 3615.13 3.12067 -0.0453265 0
M  V30 39026 N 3615.43 0.343284 1.53816 0
M  V30 39027 C 3616.85 -0.00865043 1.59598 0
M  V30 39028 C 3617.05 -1.4875 1.35925 0
M  V30 39029 O 3616.1 -2.24618 1.15338 0
M  V30 39030 C 3617.42 0.427287 2.97649 0
M  V30 39031 C 3618.97 0.379608 3.1069 0
M  V30 39032 C 3619.44 0.79101 4.51118 0
M  V30 39033 N 3620.93 0.745186 4.57167 0
M  V30 39034 C 3621.67 1.03547 5.63973 0
M  V30 39035 N 3621.16 1.39389 6.78633 0
M  V30 39036 N 3622.96 0.959725 5.53846 0
M  V30 39037 H 3615.11 1.30658 1.67458 0
M  V30 39038 H 3617.37 0.532602 0.784244 0
M  V30 39039 H 3617.08 1.45839 3.20037 0
M  V30 39040 H 3616.95 -0.197638 3.76682 0
M  V30 39041 H 3619.34 -0.642325 2.88025 0
M  V30 39042 H 3619.42 1.03973 2.33716 0
M  V30 39043 H 3619.06 1.81095 4.74518 0
M  V30 39044 H 3618.99 0.108366 5.26488 0
M  V30 39045 H 3621.48 0.480818 3.74829 0
M  V30 39046 H 3621.8 1.60024 7.5605 0
M  V30 39047 H 3620.14 1.43234 6.8008 0
M  V30 39048 H 3623.33 0.679055 4.63148 0
M  V30 39049 H 3623.5 1.1893 6.36993 0
M  V30 39050 N 3616.91 -1.57436 0.0718977 0
M  V30 39051 C 3618.14 -1.98237 -0.609666 0
M  V30 39052 C 3618.56 -0.949987 -1.62348 0
M  V30 39053 O 3617.92 0.0843963 -1.81103 0
M  V30 39054 C 3617.97 -3.3807 -1.25464 0
M  V30 39055 O 3617.07 -3.37463 -2.37049 0
M  V30 39056 H 3616.41 -0.645226 -0.156779 0
M  V30 39057 H 3618.94 -2.04075 0.146442 0
M  V30 39058 H 3618.95 -3.75256 -1.60146 0
M  V30 39059 H 3617.63 -4.12739 -0.51177 0
M  V30 39060 H 3616.2 -3.12047 -2.0416 0
M  V30 39061 N 3618.39 0.201658 -1.56305 0
M  V30 39062 C 3619.64 0.921209 -1.79434 0
M  V30 39063 C 3619.95 1.84695 -0.643976 0
M  V30 39064 O 3621.16 2.60663 -0.759404 0
M  V30 39065 C 3619.61 1.68841 -3.17838 0
M  V30 39066 C 3619.22 0.807815 -4.40657 0
M  V30 39067 C 3620.96 2.39798 -3.50281 0
M  V30 39068 C 3618.87 1.5735 -5.70083 0
M  V30 39069 H 3617.8 0.347718 -0.669035 0
M  V30 39070 H 3620.45 0.174625 -1.82667 0
M  V30 39071 H 3618.83 2.47863 -3.08836 0
M  V30 39072 H 3620.01 0.0567113 -4.60765 0
M  V30 39073 H 3618.32 0.209392 -4.15873 0
M  V30 39074 H 3620.92 2.97623 -4.44212 0
M  V30 39075 H 3621.26 3.13665 -2.73715 0
M  V30 39076 H 3621.8 1.67748 -3.60701 0
M  V30 39077 H 3618.54 0.877741 -6.49597 0
M  V30 39078 H 3618.06 2.29871 -5.54003 0
M  V30 39079 H 3619.73 2.12902 -6.10968 0
M  V30 39080 N 3619.87 1.50456 0.469128 0
M  V30 39081 C 3621.12 1.60783 1.21785 0
M  V30 39082 C 3621.43 0.31461 1.93053 0
M  V30 39083 O 3622.63 0.296821 2.69873 0
M  V30 39084 C 3621.09 2.83821 2.213 0
M  V30 39085 C 3620.7 4.20027 1.55826 0
M  V30 39086 C 3622.44 3.03494 2.96802 0
M  V30 39087 C 3620.35 5.34248 2.53639 0
M  V30 39088 H 3619.28 0.59876 0.45826 0
M  V30 39089 H 3621.93 1.76889 0.488128 0
M  V30 39090 H 3620.31 2.61279 2.97573 0
M  V30 39091 H 3621.49 4.52831 0.853292 0
M  V30 39092 H 3619.8 4.05974 0.925975 0
M  V30 39093 H 3622.4 3.86 3.70011 0
M  V30 39094 H 3622.74 2.15299 3.56303 0
M  V30 39095 H 3623.27 3.26227 2.27642 0
M  V30 39096 H 3620.01 6.24603 1.98874 0
M  V30 39097 H 3619.53 5.0586 3.22282 0
M  V30 39098 H 3621.21 5.64902 3.15428 0
M  V30 39099 N 3621.34 -0.722439 1.40066 0
M  V30 39100 C 3622.27 -1.84949 1.42535 0
M  V30 39101 C 3623.26 -1.67659 0.287111 0
M  V30 39102 O 3624.44 -1.87792 0.494748 0
M  V30 39103 C 3621.57 -3.22833 1.28047 0
M  V30 39104 C 3620.52 -3.54783 2.39402 0
M  V30 39105 C 3619.85 -4.91738 2.09994 0
M  V30 39106 C 3621.15 -3.56476 3.81735 0
M  V30 39107 H 3622.84 -1.8314 2.36855 0
M  V30 39108 H 3620.39 -0.879694 1.14006 0
M  V30 39109 H 3622.34 -4.01365 1.28392 0
M  V30 39110 H 3621.07 -3.25201 0.302005 0
M  V30 39111 H 3619.73 -2.78588 2.38295 0
M  V30 39112 H 3619.37 -4.907 1.10556 0
M  V30 39113 H 3619.07 -5.14081 2.84595 0
M  V30 39114 H 3620.6 -5.72611 2.12011 0
M  V30 39115 H 3622.01 -4.2506 3.84703 0
M  V30 39116 H 3620.41 -3.90343 4.55798 0
M  V30 39117 H 3621.48 -2.56007 4.11811 0
M  V30 39118 N 3622.82 -1.2545 -0.953947 0
M  V30 39119 C 3624.05 -1.12981 -1.73329 0
M  V30 39120 C 3624.47 0.316331 -1.86131 0
M  V30 39121 O 3623.82 1.2175 -1.35953 0
M  V30 39122 C 3623.87 -1.77944 -3.14672 0
M  V30 39123 O 3623.6 -3.16905 -3.02495 0
M  V30 39124 C 3625.1 -1.71264 -4.08881 0
M  V30 39125 H 3622.32 -0.394045 -0.543111 0
M  V30 39126 H 3624.86 -1.65825 -1.19675 0
M  V30 39127 H 3623.02 -1.29068 -3.65267 0
M  V30 39128 H 3623.43 -3.48857 -3.91662 0
M  V30 39129 H 3624.9 -2.21377 -5.05664 0
M  V30 39130 H 3625.38 -0.676553 -4.33958 0
M  V30 39131 H 3625.99 -2.19631 -3.64201 0
M  V30 39132 N 3624.3 1.15667 -1.07047 0
M  V30 39133 C 3625.26 2.18503 -0.692019 0
M  V30 39134 C 3626.26 1.58582 0.266157 0
M  V30 39135 O 3627.45 1.74135 0.047526 0
M  V30 39136 C 3624.59 3.40894 -0.0194796 0
M  V30 39137 H 3625.78 2.53498 -1.60245 0
M  V30 39138 H 3623.33 1.30074 -0.866621 0
M  V30 39139 H 3624.07 3.11465 0.903343 0
M  V30 39140 H 3623.85 3.85644 -0.708587 0
M  V30 39141 H 3625.34 4.16962 0.230756 0
M  V30 39142 N 3625.78 0.854133 1.32447 0
M  V30 39143 C 3627.03 0.457935 1.97562 0
M  V30 39144 C 3627.36 -0.983805 1.67436 0
M  V30 39145 O 3626.63 -1.69025 0.962322 0
M  V30 39146 C 3626.92 0.696943 3.53291 0
M  V30 39147 C 3626.77 2.18706 3.93049 0
M  V30 39148 C 3628.09 0.152994 4.39834 0
M  V30 39149 H 3625.21 0.167855 0.717631 0
M  V30 39150 H 3627.85 1.07246 1.56838 0
M  V30 39151 H 3626 0.173875 3.88111 0
M  V30 39152 H 3627.67 2.77617 3.68411 0
M  V30 39153 H 3625.91 2.66576 3.42227 0
M  V30 39154 H 3626.59 2.30499 5.01572 0
M  V30 39155 H 3629.06 0.600288 4.11747 0
M  V30 39156 H 3627.94 0.349799 5.47784 0
M  V30 39157 H 3628.2 -0.9442 4.319 0
M  V30 39158 N 3627.26 -1.45231 0.61202 0
M  V30 39159 C 3628.19 -2.33321 -0.0914459 0
M  V30 39160 C 3629.17 -1.47091 -0.85429 0
M  V30 39161 O 3630.35 -1.75854 -0.823963 0
M  V30 39162 C 3627.48 -3.29868 -1.08647 0
M  V30 39163 C 3626.44 -4.25768 -0.436541 0
M  V30 39164 C 3625.76 -5.1204 -1.54012 0
M  V30 39165 C 3627.06 -5.18301 0.645096 0
M  V30 39166 H 3628.76 -2.9239 0.644105 0
M  V30 39167 H 3626.3 -1.40597 0.311196 0
M  V30 39168 H 3628.26 -3.90367 -1.58719 0
M  V30 39169 H 3626.98 -2.68968 -1.85267 0
M  V30 39170 H 3625.64 -3.66574 0.0433562 0
M  V30 39171 H 3625.29 -4.47504 -2.29671 0
M  V30 39172 H 3624.99 -5.77006 -1.11073 0
M  V30 39173 H 3626.51 -5.75407 -2.04302 0
M  V30 39174 H 3627.93 -5.72845 0.228267 0
M  V30 39175 H 3626.32 -5.91769 0.996491 0
M  V30 39176 H 3627.39 -4.60463 1.51993 0
M  V30 39177 N 3628.74 -0.351436 -1.53632 0
M  V30 39178 C 3629.7 0.489254 -2.23917 0
M  V30 39179 C 3630.7 1.02121 -1.24209 0
M  V30 39180 O 3631.89 0.909209 -1.4859 0
M  V30 39181 C 3629.02 1.68236 -2.96495 0
M  V30 39182 H 3630.21 -0.125571 -2.99637 0
M  V30 39183 H 3627.77 -0.102901 -1.55961 0
M  V30 39184 H 3628.5 2.33567 -2.24982 0
M  V30 39185 H 3628.29 1.30803 -3.69639 0
M  V30 39186 H 3629.78 2.27847 -3.49965 0
M  V30 39187 N 3630.21 1.57396 -0.0802459 0
M  V30 39188 C 3631.14 2.16226 0.881388 0
M  V30 39189 C 3632.12 1.09156 1.30457 0
M  V30 39190 O 3633.31 1.37229 1.37411 0
M  V30 39191 C 3630.44 2.73069 2.14594 0
M  V30 39192 C 3629.39 3.8538 1.86189 0
M  V30 39193 C 3628.72 4.28861 3.19346 0
M  V30 39194 C 3630.02 5.09244 1.1605 0
M  V30 39195 H 3631.71 2.96832 0.391273 0
M  V30 39196 H 3629.26 1.42784 0.18676 0
M  V30 39197 H 3631.21 3.12873 2.82292 0
M  V30 39198 H 3629.94 1.89696 2.65863 0
M  V30 39199 H 3628.6 3.46093 1.20894 0
M  V30 39200 H 3628.24 3.42399 3.68473 0
M  V30 39201 H 3627.94 5.04575 3.01128 0
M  V30 39202 H 3629.47 4.71288 3.88227 0
M  V30 39203 H 3630.88 5.46311 1.73831 0
M  V30 39204 H 3629.28 5.9029 1.08062 0
M  V30 39205 H 3630.35 4.84695 0.140895 0
M  V30 39206 N 3631.69 -0.193366 1.56409 0
M  V30 39207 C 3632.94 -0.91168 1.7992 0
M  V30 39208 C 3633.25 -1.84351 0.653761 0
M  V30 39209 O 3634.46 -2.60257 0.773217 0
M  V30 39210 C 3632.92 -1.67153 3.18729 0
M  V30 39211 C 3632.52 -0.784434 4.41079 0
M  V30 39212 C 3634.27 -2.37937 3.51548 0
M  V30 39213 C 3632.17 -1.54325 5.7091 0
M  V30 39214 H 3631.1 -0.344165 0.67087 0
M  V30 39215 H 3633.76 -0.164935 1.82757 0
M  V30 39216 H 3632.14 -2.46222 3.10146 0
M  V30 39217 H 3633.31 -0.032275 4.60789 0
M  V30 39218 H 3631.63 -0.187334 4.15978 0
M  V30 39219 H 3634.22 -2.95263 4.45785 0
M  V30 39220 H 3634.57 -3.12209 2.75375 0
M  V30 39221 H 3635.1 -1.65833 3.61586 0
M  V30 39222 H 3631.84 -0.843279 6.50053 0
M  V30 39223 H 3631.36 -2.26929 5.55214 0
M  V30 39224 H 3633.04 -2.09658 6.12089 0
M  V30 39225 N 3633.17 -1.50702 -0.461142 0
M  V30 39226 C 3634.1 -1.73226 -1.56573 0
M  V30 39227 C 3635.08 -0.581429 -1.59854 0
M  V30 39228 O 3636.27 -0.821633 -1.75963 0
M  V30 39229 C 3633.4 -1.83553 -2.94832 0
M  V30 39230 C 3632.35 -2.9882 -3.06416 0
M  V30 39231 C 3631.68 -2.94301 -4.4642 0
M  V30 39232 C 3632.98 -4.39175 -2.82706 0
M  V30 39233 H 3634.67 -2.65712 -1.37977 0
M  V30 39234 H 3632.22 -1.27863 -0.662339 0
M  V30 39235 H 3634.17 -1.97893 -3.72043 0
M  V30 39236 H 3632.89 -0.876962 -3.14606 0
M  V30 39237 H 3631.55 -2.84146 -2.31639 0
M  V30 39238 H 3631.2 -1.9627 -4.63127 0
M  V30 39239 H 3630.9 -3.7169 -4.55105 0
M  V30 39240 H 3632.42 -3.10704 -5.25638 0
M  V30 39241 H 3633.84 -4.54323 -3.49662 0
M  V30 39242 H 3632.23 -5.18089 -3.02826 0
M  V30 39243 H 3633.3 -4.50856 -1.78484 0
M  V30 39244 N 3634.65 0.715001 -1.40447 0
M  V30 39245 C 3635.89 1.47707 -1.38962 0
M  V30 39246 C 3636.23 1.94198 0.00795285 0
M  V30 39247 O 3635.5 1.68199 0.976702 0
M  V30 39248 C 3635.78 2.70272 -2.3796 0
M  V30 39249 C 3635.64 2.29671 -3.86744 0
M  V30 39250 C 3636.96 3.72431 -2.34485 0
M  V30 39251 H 3634.08 0.535773 -0.506079 0
M  V30 39252 H 3636.72 0.815968 -1.71587 0
M  V30 39253 H 3634.87 3.26679 -2.1027 0
M  V30 39254 H 3636.54 1.78742 -4.25263 0
M  V30 39255 H 3634.78 1.61667 -4.0255 0
M  V30 39256 H 3635.45 3.1753 -4.51529 0
M  V30 39257 H 3637.93 3.25655 -2.59013 0
M  V30 39258 H 3636.81 4.55827 -3.05799 0
M  V30 39259 H 3637.07 4.20769 -1.35668 0
M  V30 39260 N 3636.13 1.25954 0.947281 0
M  V30 39261 C 3637.36 1.13733 1.72477 0
M  V30 39262 C 3637.76 -0.310838 1.86629 0
M  V30 39263 O 3637.11 -1.22509 1.36884 0
M  V30 39264 C 3637.17 1.72657 3.15325 0
M  V30 39265 C 3636.83 3.21711 3.24578 0
M  V30 39266 C 3637.83 4.18608 3.08324 0
M  V30 39267 C 3635.51 3.6206 3.48164 0
M  V30 39268 C 3637.51 5.53832 3.15513 0
M  V30 39269 C 3635.2 4.9742 3.54989 0
M  V30 39270 C 3636.19 5.93115 3.38679 0
M  V30 39271 O 3635.88 7.26011 3.452 0
M  V30 39272 H 3635.61 0.397147 0.547037 0
M  V30 39273 H 3638.17 1.66951 1.19651 0
M  V30 39274 H 3636.4 1.13894 3.69547 0
M  V30 39275 H 3638.09 1.55429 3.74962 0
M  V30 39276 H 3638.85 3.88774 2.89965 0
M  V30 39277 H 3634.73 2.88064 3.59917 0
M  V30 39278 H 3638.28 6.28505 3.027 0
M  V30 39279 H 3634.17 5.26916 3.72867 0
M  V30 39280 H 3634.94 7.34204 3.61783 0
M  V30 39281 N 3637.6 -1.15097 1.07659 0
M  V30 39282 C 3638.53 -2.22082 0.72124 0
M  V30 39283 C 3639.52 -1.67561 -0.292778 0
M  V30 39284 O 3640.7 -1.93499 -0.164838 0
M  V30 39285 C 3637.83 -3.47087 0.121591 0
M  V30 39286 C 3636.78 -4.14587 1.06311 0
M  V30 39287 C 3636.11 -5.33705 0.326058 0
M  V30 39288 C 3637.41 -4.63995 2.39804 0
M  V30 39289 H 3639.1 -2.52062 1.6157 0
M  V30 39290 H 3636.65 -1.21155 0.778303 0
M  V30 39291 H 3638.6 -4.21171 -0.138963 0
M  V30 39292 H 3637.33 -3.16448 -0.807966 0
M  V30 39293 H 3635.99 -3.42447 1.30864 0
M  V30 39294 H 3635.63 -4.99323 -0.607059 0
M  V30 39295 H 3635.33 -5.7981 0.953654 0
M  V30 39296 H 3636.86 -6.10556 0.0733768 0
M  V30 39297 H 3638.27 -5.2959 2.19561 0
M  V30 39298 H 3636.67 -5.20773 2.98187 0
M  V30 39299 H 3637.74 -3.79467 3.01882 0
M  V30 39300 N 3639.08 -0.861145 -1.31993 0
M  V30 39301 C 3640.33 -0.467713 -1.97025 0
M  V30 39302 C 3640.66 0.978099 -1.68117 0
M  V30 39303 O 3639.91 1.70232 -0.965372 0
M  V30 39304 C 3640.21 -0.661197 -3.51231 0
M  V30 39305 C 3639.88 -2.07846 -4.00139 0
M  V30 39306 C 3638.54 -2.46607 -4.13205 0
M  V30 39307 C 3640.89 -3.00316 -4.25981 0
M  V30 39308 C 3638.22 -3.77097 -4.4946 0
M  V30 39309 C 3640.57 -4.30312 -4.63696 0
M  V30 39310 C 3639.24 -4.68999 -4.74969 0
M  V30 39311 H 3638.51 -0.171148 -0.720964 0
M  V30 39312 H 3641.15 -1.09244 -1.57283 0
M  V30 39313 H 3639.46 0.0467258 -3.91772 0
M  V30 39314 H 3641.15 -0.336739 -3.99584 0
M  V30 39315 H 3637.74 -1.76749 -3.90458 0
M  V30 39316 H 3641.93 -2.716 -4.15388 0
M  V30 39317 H 3637.18 -4.06846 -4.56384 0
M  V30 39318 H 3641.36 -5.02022 -4.82646 0
M  V30 39319 H 3638.99 -5.70156 -5.02818 0
M  V30 39320 N 3640.56 1.44905 -0.619713 0
M  V30 39321 C 3641.79 2.07025 -0.124635 0
M  V30 39322 C 3642.21 1.45921 1.18695 0
M  V30 39323 O 3641.57 0.556396 1.72551 0
M  V30 39324 C 3641.62 3.60598 -0.0112872 0
M  V30 39325 O 3640.72 3.99182 1.03575 0
M  V30 39326 H 3640.06 0.659215 -0.0795747 0
M  V30 39327 H 3642.59 1.85963 -0.85316 0
M  V30 39328 H 3642.6 4.07589 0.183008 0
M  V30 39329 H 3641.28 4.04456 -0.96892 0
M  V30 39330 H 3639.85 3.63841 0.816944 0
M  V30 39331 N 3642.04 0.359579 1.53443 0
M  V30 39332 C 3643.29 -0.233074 2.00349 0
M  V30 39333 C 3643.6 -1.50359 1.25107 0
M  V30 39334 O 3644.81 -2.17447 1.6257 0
M  V30 39335 C 3643.26 -0.465888 3.56872 0
M  V30 39336 C 3642.87 0.789648 4.40986 0
M  V30 39337 C 3644.61 -1.01652 4.12149 0
M  V30 39338 C 3642.52 0.52675 5.89049 0
M  V30 39339 H 3641.45 -0.090872 0.748504 0
M  V30 39340 H 3644.1 0.477391 1.77181 0
M  V30 39341 H 3642.48 -1.23746 3.76169 0
M  V30 39342 H 3643.66 1.56355 4.33462 0
M  V30 39343 H 3641.97 1.26307 3.96781 0
M  V30 39344 H 3644.57 -1.22844 5.20397 0
M  V30 39345 H 3644.91 -1.97687 3.66368 0
M  V30 39346 H 3645.45 -0.305264 3.96627 0
M  V30 39347 H 3642.19 1.45726 6.39096 0
M  V30 39348 H 3641.71 -0.20877 5.99437 0
M  V30 39349 H 3643.38 0.150003 6.46826 0
M  V30 39350 N 3643.52 -1.57351 0.0885919 0
M  V30 39351 C 3644.76 -1.94404 -0.577496 0
M  V30 39352 C 3645.1 -0.970059 -1.68236 0
M  V30 39353 O 3644.37 -0.00202103 -1.945 0
M  V30 39354 C 3644.65 -3.4162 -1.13876 0
M  V30 39355 C 3644.51 -4.49783 -0.0393895 0
M  V30 39356 C 3645.83 -3.90009 -2.03915 0
M  V30 39357 H 3642.94 -0.706905 -0.208456 0
M  V30 39358 H 3645.59 -1.89342 0.157979 0
M  V30 39359 H 3643.74 -3.46065 -1.76555 0
M  V30 39360 H 3645.41 -4.57453 0.594538 0
M  V30 39361 H 3643.65 -4.29232 0.62785 0
M  V30 39362 H 3644.32 -5.49971 -0.4728 0
M  V30 39363 H 3646.8 -3.87676 -1.5115 0
M  V30 39364 H 3645.67 -4.93595 -2.40114 0
M  V30 39365 H 3645.94 -3.28923 -2.95402 0
M  V30 39366 N 3644.99 0.185069 -1.5651 0
M  V30 39367 C 3646.24 0.902107 -1.80849 0
M  V30 39368 C 3646.56 1.83371 -0.663327 0
M  V30 39369 O 3645.83 1.93306 0.31772 0
M  V30 39370 H 3644.41 0.336107 -0.667114 0
M  V30 39371 H 3647.08 0.188176 -1.93989 0
M  V30 39372 H 3646.17 1.48724 -2.74386 0
M  V30 39373 N 3646.47 1.50945 0.453144 0
M  V30 39374 C 3647.7 1.66371 1.22491 0
M  V30 39375 C 3648.11 0.353886 1.85861 0
M  V30 39376 O 3647.45 -0.676001 1.7081 0
M  V30 39377 C 3647.52 2.71068 2.36141 0
M  V30 39378 C 3647.18 4.14122 1.93266 0
M  V30 39379 C 3648.18 4.99416 1.44499 0
M  V30 39380 C 3645.86 4.60139 2.01439 0
M  V30 39381 C 3647.86 6.2878 1.04471 0
M  V30 39382 C 3645.54 5.89504 1.61022 0
M  V30 39383 C 3646.54 6.73651 1.12619 0
M  V30 39384 O 3646.23 8.006 0.727694 0
M  V30 39385 H 3645.96 0.56185 0.3759 0
M  V30 39386 H 3648.51 1.98033 0.545183 0
M  V30 39387 H 3646.74 2.34687 3.07341 0
M  V30 39388 H 3648.43 2.75532 2.98055 0
M  V30 39389 H 3649.2 4.65074 1.37592 0
M  V30 39390 H 3645.08 3.94776 2.38062 0
M  V30 39391 H 3648.62 6.94412 0.6662 0
M  V30 39392 H 3644.52 6.23364 1.67595 0
M  V30 39393 H 3645.29 8.14023 0.854954 0
M  V30 39394 N 3647.95 -0.707543 1.40825 0
M  V30 39395 C 3648.88 -1.83426 1.44489 0
M  V30 39396 C 3649.86 -1.67345 0.304878 0
M  V30 39397 O 3651.05 -1.87257 0.514638 0
M  V30 39398 C 3648.18 -3.21457 1.31464 0
M  V30 39399 C 3647.13 -3.52224 2.43151 0
M  V30 39400 C 3646.46 -4.89483 2.15198 0
M  V30 39401 C 3647.76 -3.52407 3.85495 0
M  V30 39402 H 3649.45 -1.80617 2.38784 0
M  V30 39403 H 3647 -0.867552 1.14933 0
M  V30 39404 H 3648.95 -3.9998 1.32642 0
M  V30 39405 H 3647.67 -3.24862 0.336479 0
M  V30 39406 H 3646.33 -2.76045 2.41236 0
M  V30 39407 H 3645.98 -4.895 1.15754 0
M  V30 39408 H 3645.68 -5.11034 2.90031 0
M  V30 39409 H 3647.2 -5.70331 2.18072 0
M  V30 39410 H 3648.62 -4.20956 3.8919 0
M  V30 39411 H 3647.02 -3.85487 4.59913 0
M  V30 39412 H 3648.09 -2.51625 4.14503 0
M  V30 39413 N 3649.43 -1.26454 -0.940588 0
M  V30 39414 C 3650.68 -1.12034 -1.68685 0
M  V30 39415 C 3651 0.336218 -1.91572 0
M  V30 39416 O 3650.26 1.26333 -1.49461 0
M  V30 39417 C 3650.56 -1.83527 -3.0668 0
M  V30 39418 C 3650.22 -3.33421 -3.03547 0
M  V30 39419 C 3648.89 -3.7431 -3.024 0
M  V30 39420 C 3651.24 -4.29123 -2.95809 0
M  V30 39421 C 3648.57 -5.09286 -2.91281 0
M  V30 39422 C 3650.92 -5.6414 -2.86232 0
M  V30 39423 C 3649.58 -6.04338 -2.83428 0
M  V30 39424 H 3648.85 -0.409961 -0.617263 0
M  V30 39425 H 3651.5 -1.56904 -1.09788 0
M  V30 39426 H 3649.8 -1.31127 -3.69206 0
M  V30 39427 H 3651.5 -1.69809 -3.63271 0
M  V30 39428 H 3648.09 -3.00896 -3.0522 0
M  V30 39429 H 3652.27 -3.98515 -2.95803 0
M  V30 39430 H 3647.53 -5.39593 -2.87488 0
M  V30 39431 H 3651.7 -6.37978 -2.79208 0
M  V30 39432 H 3649.33 -7.08884 -2.74568 0
M  V30 39433 N 3650.91 1.14525 -1.08268 0
M  V30 39434 C 3652.15 1.85529 -0.811492 0
M  V30 39435 C 3652.48 1.82862 0.662694 0
M  V30 39436 O 3651.74 1.25341 1.50293 0
M  V30 39437 C 3652.04 3.33815 -1.27681 0
M  V30 39438 C 3651.7 3.56671 -2.75856 0
M  V30 39439 C 3650.36 3.62618 -3.16325 0
M  V30 39440 C 3652.72 3.65613 -3.71452 0
M  V30 39441 C 3650.04 3.75027 -4.51189 0
M  V30 39442 C 3652.4 3.79547 -5.0609 0
M  V30 39443 C 3651.06 3.83742 -5.46167 0
M  V30 39444 H 3650.33 0.678899 -0.296946 0
M  V30 39445 H 3652.98 1.35286 -1.35536 0
M  V30 39446 H 3651.28 3.86328 -0.652508 0
M  V30 39447 H 3652.98 3.87178 -1.04376 0
M  V30 39448 H 3649.57 3.5269 -2.43532 0
M  V30 39449 H 3653.75 3.6031 -3.41307 0
M  V30 39450 H 3649.01 3.76536 -4.81695 0
M  V30 39451 H 3653.18 3.85408 -5.80029 0
M  V30 39452 H 3650.81 3.9311 -6.50668 0
M  V30 39453 N 3652.39 0.868133 1.31534 0
M  V30 39454 C 3653.33 0.320642 2.28562 0
M  V30 39455 C 3654.3 -0.579874 1.55649 0
M  V30 39456 O 3655.49 -0.511907 1.83805 0
M  V30 39457 C 3652.63 -0.473439 3.41837 0
M  V30 39458 C 3651.74 0.454387 4.29604 0
M  V30 39459 C 3650.88 -0.353639 5.30022 0
M  V30 39460 C 3649.91 0.570731 6.09433 0
M  V30 39461 N 3649.05 -0.200934 7.01812 0
M  V30 39462 H 3653.89 1.15326 2.7478 0
M  V30 39463 H 3651.43 0.580111 1.35178 0
M  V30 39464 H 3653.39 -0.949591 4.06249 0
M  V30 39465 H 3652.02 -1.27077 2.96734 0
M  V30 39466 H 3651.07 1.04898 3.65651 0
M  V30 39467 H 3652.38 1.16325 4.85046 0
M  V30 39468 H 3651.53 -0.892379 6.00101 0
M  V30 39469 H 3650.27 -1.0958 4.7523 0
M  V30 39470 H 3649.28 1.12124 5.38245 0
M  V30 39471 H 3650.5 1.31172 6.66311 0
M  V30 39472 H 3648.45 -0.925944 6.49432 0
M  V30 39473 H 3648.37 0.448627 7.54668 0
M  V30 39474 H 3649.63 -0.720964 7.76159 0
M  V30 39475 N 3653.86 -1.44574 0.627389 0
M  V30 39476 C 3655.14 -1.95503 0.0614736 0
M  V30 39477 C 3655.52 -1.56944 -1.41179 0
M  V30 39478 O 3654.87 -0.841671 -2.12434 0
M  V30 39479 C 3655.08 -3.47872 0.28041 0
M  V30 39480 C 3656.43 -4.24253 0.171633 0
M  V30 39481 O 3657.45 -3.55571 0.211577 0
M  V30 39482 O 3656.31 -5.46451 0.0734112 0
M  V30 39483 H 3653.4 -0.826639 -0.024448 0
M  V30 39484 H 3655.95 -1.54643 0.698832 0
M  V30 39485 H 3654.72 -3.68974 1.30284 0
M  V30 39486 H 3654.34 -3.9567 -0.391267 0
M  V30 39487 N 3655.34 -0.367711 -1.5325 0
M  V30 39488 C 3656.62 0.277808 -1.93617 0
M  V30 39489 C 3657 1.66211 -1.30143 0
M  V30 39490 O 3656.35 2.23795 -0.461316 0
M  V30 39491 C 3656.56 0.325876 -3.47475 0
M  V30 39492 C 3657.9 0.565202 -4.20821 0
M  V30 39493 O 3658.93 0.406995 -3.53867 0
M  V30 39494 O 3657.79 0.873427 -5.39475 0
M  V30 39495 H 3654.88 0.167144 -0.809933 0
M  V30 39496 H 3657.43 -0.42065 -1.64404 0
M  V30 39497 H 3656.2 -0.644609 -3.85954 0
M  V30 39498 H 3655.82 1.07014 -3.82928 0
M  V30 39499 N 3656.82 1.57302 -0.0969353 0
M  V30 39500 C 3658.07 1.94419 0.566339 0
M  V30 39501 C 3658.39 0.978799 1.68077 0
M  V30 39502 O 3657.65 -0.001287 1.957 0
M  V30 39503 C 3657.95 3.38063 1.15966 0
M  V30 39504 C 3657.61 4.50584 0.16884 0
M  V30 39505 C 3656.28 4.81088 -0.103671 0
M  V30 39506 C 3658.63 5.18722 -0.507604 0
M  V30 39507 C 3655.96 5.77058 -1.05929 0
M  V30 39508 C 3658.31 6.15718 -1.45171 0
M  V30 39509 C 3656.97 6.44626 -1.73243 0
M  V30 39510 H 3656.24 0.711431 0.207238 0
M  V30 39511 H 3658.89 1.90716 -0.173159 0
M  V30 39512 H 3657.19 3.38354 1.97545 0
M  V30 39513 H 3658.89 3.64084 1.68059 0
M  V30 39514 H 3655.48 4.26809 0.391426 0
M  V30 39515 H 3659.67 4.9533 -0.310214 0
M  V30 39516 H 3654.92 5.9777 -1.28377 0
M  V30 39517 H 3659.1 6.6761 -1.98167 0
M  V30 39518 H 3656.72 7.188 -2.47449 0
M  V30 39519 N 3658.3 -0.176766 1.56606 0
M  V30 39520 C 3659.55 -0.892546 1.80877 0
M  V30 39521 C 3659.86 -1.83647 0.673277 0
M  V30 39522 O 3661.07 -2.59422 0.800778 0
M  V30 39523 C 3659.52 -1.63763 3.20484 0
M  V30 39524 C 3659.13 -0.737608 4.41886 0
M  V30 39525 C 3660.87 -2.34195 3.54052 0
M  V30 39526 C 3658.78 -1.48261 5.72514 0
M  V30 39527 H 3657.71 -0.33703 0.674482 0
M  V30 39528 H 3660.36 -0.145542 1.82922 0
M  V30 39529 H 3658.74 -2.42919 3.1274 0
M  V30 39530 H 3659.92 0.0165996 4.60797 0
M  V30 39531 H 3658.23 -0.143204 4.16154 0
M  V30 39532 H 3660.83 -2.90518 4.48891 0
M  V30 39533 H 3661.17 -3.09271 2.78671 0
M  V30 39534 H 3661.71 -1.61988 3.63324 0
M  V30 39535 H 3658.44 -0.774285 6.50911 0
M  V30 39536 H 3657.96 -2.21028 5.5759 0
M  V30 39537 H 3659.64 -2.03155 6.14278 0
M  V30 39538 N 3659.78 -1.51183 -0.445132 0
M  V30 39539 C 3660.71 -1.74877 -1.54727 0
M  V30 39540 C 3661.69 -0.598351 -1.59229 0
M  V30 39541 O 3662.87 -0.84025 -1.75081 0
M  V30 39542 C 3660 -1.86669 -2.92868 0
M  V30 39543 C 3658.96 -3.02053 -3.03229 0
M  V30 39544 C 3658.28 -2.9902 -4.43274 0
M  V30 39545 C 3659.58 -4.42149 -2.78032 0
M  V30 39546 H 3661.28 -2.6716 -1.35151 0
M  V30 39547 H 3658.82 -1.28559 -0.648741 0
M  V30 39548 H 3660.77 -2.01828 -3.69923 0
M  V30 39549 H 3659.5 -0.910281 -3.13658 0
M  V30 39550 H 3658.16 -2.86587 -2.28612 0
M  V30 39551 H 3657.81 -2.01171 -4.6102 0
M  V30 39552 H 3657.51 -3.76496 -4.51137 0
M  V30 39553 H 3659.03 -3.16261 -5.22313 0
M  V30 39554 H 3660.44 -4.58006 -3.44823 0
M  V30 39555 H 3658.84 -5.21272 -2.97314 0
M  V30 39556 H 3659.91 -4.52724 -1.73692 0
M  V30 39557 N 3661.25 0.700065 -1.41198 0
M  V30 39558 C 3662.16 1.84392 -1.45041 0
M  V30 39559 C 3663.18 1.70617 -0.34144 0
M  V30 39560 O 3664.36 1.92611 -0.588462 0
M  V30 39561 C 3661.42 3.20334 -1.32616 0
M  V30 39562 C 3660.48 3.4625 -2.5379 0
M  V30 39563 C 3659.71 4.75706 -2.41949 0
M  V30 39564 O 3659.94 5.51881 -1.44163 0
M  V30 39565 O 3658.87 5.02306 -3.31621 0
M  V30 39566 H 3662.7 1.84106 -2.41534 0
M  V30 39567 H 3660.28 0.852536 -1.22687 0
M  V30 39568 H 3662.16 4.01504 -1.27954 0
M  V30 39569 H 3660.84 3.21313 -0.392365 0
M  V30 39570 H 3659.75 2.65027 -2.64029 0
M  V30 39571 H 3661.08 3.50081 -3.45983 0
M  V30 39572 N 3662.73 1.26951 0.933869 0
M  V30 39573 C 3663.98 1.13094 1.68338 0
M  V30 39574 C 3664.31 -0.323637 1.91484 0
M  V30 39575 O 3663.59 -1.23721 1.50078 0
M  V30 39576 C 3663.87 1.90843 3.0537 0
M  V30 39577 C 3663.72 3.44249 2.89504 0
M  V30 39578 C 3665.04 1.70802 4.05604 0
M  V30 39579 H 3662.16 0.41222 0.610937 0
M  V30 39580 H 3664.8 1.56034 1.08413 0
M  V30 39581 H 3662.95 1.54349 3.56523 0
M  V30 39582 H 3664.62 3.90537 2.45516 0
M  V30 39583 H 3662.87 3.70903 2.24975 0
M  V30 39584 H 3663.54 3.93886 3.86728 0
M  V30 39585 H 3666.01 2.0261 3.6344 0
M  V30 39586 H 3664.89 2.27606 4.99486 0
M  V30 39587 H 3665.15 0.654404 4.3723 0
M  V30 39588 N 3664.21 -1.13949 1.08873 0
M  V30 39589 C 3665.49 -1.81309 0.733912 0
M  V30 39590 C 3665.87 -1.9609 -0.78179 0
M  V30 39591 O 3665.21 -1.52451 -1.70208 0
M  V30 39592 C 3665.42 -3.167 1.46637 0
M  V30 39593 C 3666.77 -3.92129 1.6285 0
M  V30 39594 O 3667.8 -3.26305 1.42841 0
M  V30 39595 O 3666.66 -5.10181 1.95902 0
M  V30 39596 H 3663.75 -0.78407 0.26299 0
M  V30 39597 H 3666.3 -1.20925 1.1906 0
M  V30 39598 H 3665.07 -3.01134 2.49868 0
M  V30 39599 H 3664.69 -3.84781 1.00148 0
M  V30 39600 N 3665.69 -0.875096 -1.31072 0
M  V30 39601 C 3667.1 -0.567723 -1.49161 0
M  V30 39602 C 3667.3 0.896937 -1.80436 0
M  V30 39603 O 3666.36 1.6788 -1.88607 0
M  V30 39604 C 3667.67 -1.47236 -2.62187 0
M  V30 39605 C 3669.22 -1.47494 -2.7607 0
M  V30 39606 C 3669.7 -2.36526 -3.92198 0
M  V30 39607 N 3671.19 -2.34435 -3.99493 0
M  V30 39608 C 3671.92 -3.00041 -4.88634 0
M  V30 39609 N 3671.42 -3.74837 -5.8264 0
M  V30 39610 N 3673.21 -2.89324 -4.81921 0
M  V30 39611 H 3665.36 -1.82274 -1.09041 0
M  V30 39612 H 3667.62 -0.779669 -0.539277 0
M  V30 39613 H 3667.33 -2.51479 -2.45868 0
M  V30 39614 H 3667.2 -1.17465 -3.58444 0
M  V30 39615 H 3669.59 -0.440059 -2.918 0
M  V30 39616 H 3669.67 -1.8129 -1.80465 0
M  V30 39617 H 3669.32 -3.40094 -3.77225 0
M  V30 39618 H 3669.25 -2.00052 -4.87121 0
M  V30 39619 H 3671.74 -1.80073 -3.32238 0
M  V30 39620 H 3672.05 -4.22012 -6.47399 0
M  V30 39621 H 3670.4 -3.78945 -5.82603 0
M  V30 39622 H 3673.59 -2.30425 -4.07458 0
M  V30 39623 H 3673.76 -3.40732 -5.51186 0
M  V30 39624 N 3667.17 1.44239 -0.635047 0
M  V30 39625 C 3668.1 2.33437 0.054315 0
M  V30 39626 C 3669.08 1.48432 0.83078 0
M  V30 39627 O 3670.26 1.77142 0.795882 0
M  V30 39628 C 3667.39 3.31555 1.03385 0
M  V30 39629 C 3666.35 4.26409 0.368749 0
M  V30 39630 C 3665.67 5.14425 1.45846 0
M  V30 39631 C 3666.97 5.17209 -0.727472 0
M  V30 39632 H 3668.67 2.91328 -0.69054 0
M  V30 39633 H 3666.21 1.40084 -0.333524 0
M  V30 39634 H 3668.17 3.92843 1.52488 0
M  V30 39635 H 3666.89 2.71881 1.80964 0
M  V30 39636 H 3665.55 3.66459 -0.10167 0
M  V30 39637 H 3665.2 4.51102 2.22523 0
M  V30 39638 H 3664.9 5.78701 1.0188 0
M  V30 39639 H 3666.42 5.78584 1.95122 0
M  V30 39640 H 3667.83 5.7241 -0.319373 0
M  V30 39641 H 3666.23 5.90108 -1.09051 0
M  V30 39642 H 3667.3 4.57987 -1.593 0
M  V30 39643 N 3668.64 0.375833 1.53053 0
M  V30 39644 C 3670.06 -0.101155 1.86426 0
M  V30 39645 C 3670.41 -1.47298 1.29606 0
M  V30 39646 O 3669.53 -2.07265 0.622095 0
M  V30 39647 C 3670.13 -0.190329 3.38265 0
M  V30 39648 C 3668.69 -0.611588 3.71398 0
M  V30 39649 C 3667.83 0.234849 2.76304 0
M  V30 39650 H 3670.78 0.594237 1.47155 0
M  V30 39651 H 3670.8 -1.012 3.66795 0
M  V30 39652 H 3670.32 0.808247 3.79591 0
M  V30 39653 H 3668.42 -1.61802 3.35635 0
M  V30 39654 H 3668.53 -0.379084 4.77598 0
M  V30 39655 H 3666.89 -0.297843 2.52953 0
M  V30 39656 H 3667.68 1.23115 3.20464 0
M  V30 39657 N 3670.12 -1.57248 0.105276 0
M  V30 39658 C 3671.07 -2.15821 -0.867405 0
M  V30 39659 C 3672.06 -1.10375 -1.28506 0
M  V30 39660 O 3673.27 -1.28703 -1.2584 0
M  V30 39661 H 3669.65 -0.690526 -0.297788 0
M  V30 39662 H 3671.62 -2.96355 -0.348779 0
M  V30 39663 C 3670.37 -2.76134 -2.11294 0
M  V30 39664 H 3669.69 -3.56963 -1.80048 0
M  V30 39665 H 3671.13 -3.20673 -2.77389 0
M  V30 39666 C 3669.59 -1.72532 -2.89369 0
M  V30 39667 O 3670.12 -1.17038 -3.84272 0
M  V30 39668 N 3668.32 -1.42788 -2.53101 0
M  V30 39669 H 3667.87 -1.88105 -1.75995 0
M  V30 39670 H 3667.83 -0.737089 -3.05638 0
M  V30 39671 N 3671.6 0.168458 -1.56697 0
M  V30 39672 C 3672.51 1.22841 -1.99868 0
M  V30 39673 C 3673.53 1.48275 -0.910517 0
M  V30 39674 O 3674.7 1.60368 -1.21837 0
M  V30 39675 C 3671.77 2.5469 -2.35232 0
M  V30 39676 C 3670.83 2.37093 -3.5789 0
M  V30 39677 C 3670.06 3.62654 -3.91558 0
M  V30 39678 O 3670.28 4.67951 -3.26156 0
M  V30 39679 O 3669.22 3.56595 -4.84896 0
M  V30 39680 H 3673.04 0.891964 -2.90306 0
M  V30 39681 H 3670.63 0.375545 -1.44603 0
M  V30 39682 H 3672.51 3.32463 -2.58934 0
M  V30 39683 H 3671.19 2.87908 -1.47955 0
M  V30 39684 H 3670.09 1.57342 -3.39403 0
M  V30 39685 H 3671.43 2.08798 -4.45717 0
M  V30 39686 N 3673.08 1.51417 0.437109 0
M  V30 39687 C 3674.31 1.67905 1.20895 0
M  V30 39688 C 3674.72 0.376491 1.85008 0
M  V30 39689 O 3674.08 -0.645021 1.70721 0
M  V30 39690 C 3674.13 2.79486 2.29281 0
M  V30 39691 O 3673.85 4.04695 1.67791 0
M  V30 39692 C 3675.35 3.07244 3.19556 0
M  V30 39693 H 3672.57 0.563449 0.364371 0
M  V30 39694 H 3675.12 1.97833 0.517896 0
M  V30 39695 H 3673.27 2.52155 2.94103 0
M  V30 39696 H 3673.68 4.66665 2.39425 0
M  V30 39697 H 3675.16 3.889 3.91741 0
M  V30 39698 H 3675.64 2.19661 3.80323 0
M  V30 39699 H 3676.24 3.36234 2.60435 0
M  V30 39700 N 3674.56 -0.692567 1.41567 0
M  V30 39701 C 3675.52 -1.78821 1.43372 0
M  V30 39702 C 3676.52 -1.57504 0.323895 0
M  V30 39703 O 3677.71 -1.64122 0.583914 0
M  V30 39704 C 3674.84 -3.17233 1.24803 0
M  V30 39705 H 3676.03 -1.78613 2.40909 0
M  V30 39706 H 3673.59 -0.900486 1.27753 0
M  V30 39707 H 3674.32 -3.23079 0.281186 0
M  V30 39708 H 3674.11 -3.34108 2.05218 0
M  V30 39709 H 3675.6 -3.97206 1.28909 0
M  V30 39710 N 3676.03 -1.27445 -0.927123 0
M  V30 39711 C 3677.28 -1.13985 -1.67736 0
M  V30 39712 C 3677.61 0.313477 -1.91653 0
M  V30 39713 O 3676.89 1.22924 -1.50732 0
M  V30 39714 C 3677.17 -1.9246 -3.04354 0
M  V30 39715 C 3677.02 -3.4578 -2.87674 0
M  V30 39716 C 3678.34 -1.72951 -4.04692 0
M  V30 39717 H 3675.46 -0.415454 -0.608742 0
M  V30 39718 H 3678.1 -1.56607 -1.07584 0
M  V30 39719 H 3676.25 -1.56238 -3.55699 0
M  V30 39720 H 3677.93 -3.91834 -2.43442 0
M  V30 39721 H 3676.17 -3.72091 -2.23004 0
M  V30 39722 H 3676.84 -3.95931 -3.84633 0
M  V30 39723 H 3679.32 -2.04535 -3.6236 0
M  V30 39724 H 3678.19 -2.30252 -4.98272 0
M  V30 39725 H 3678.45 -0.677582 -4.36877 0
M  V30 39726 N 3677.51 1.1337 -1.09476 0
M  V30 39727 C 3678.92 1.66208 -0.850408 0
M  V30 39728 C 3679.27 1.86112 0.621039 0
M  V30 39729 O 3678.4 1.58031 1.47835 0
M  V30 39730 C 3678.99 3.01921 -1.53718 0
M  V30 39731 C 3677.55 3.51748 -1.33978 0
M  V30 39732 C 3676.7 2.26982 -1.59294 0
M  V30 39733 H 3679.65 0.972852 -1.25385 0
M  V30 39734 H 3679.67 3.67913 -0.970568 0
M  V30 39735 H 3679.18 2.87402 -2.60809 0
M  V30 39736 H 3677.29 3.71469 -0.290063 0
M  V30 39737 H 3677.4 4.31835 -2.07497 0
M  V30 39738 H 3675.76 2.33598 -1.01509 0
M  V30 39739 H 3676.55 2.15028 -2.67615 0
M  V30 39740 N 3678.99 0.882035 1.30606 0
M  V30 39741 C 3679.9 0.350544 2.31966 0
M  V30 39742 C 3680.92 -0.545721 1.65221 0
M  V30 39743 O 3682.09 -0.439547 1.96545 0
M  V30 39744 C 3679.16 -0.428864 3.44037 0
M  V30 39745 C 3678.22 0.496802 4.26416 0
M  V30 39746 C 3677.45 -0.245503 5.33135 0
M  V30 39747 O 3677.67 -1.47199 5.5108 0
M  V30 39748 O 3676.61 0.402873 6.0055 0
M  V30 39749 H 3680.43 1.191 2.79372 0
M  V30 39750 H 3678.02 0.645778 1.34722 0
M  V30 39751 H 3679.9 -0.870273 4.12316 0
M  V30 39752 H 3678.58 -1.24567 2.98772 0
M  V30 39753 H 3677.48 0.986962 3.60846 0
M  V30 39754 H 3678.82 1.27954 4.75278 0
M  V30 39755 N 3680.47 -1.439 0.642688 0
M  V30 39756 C 3681.7 -2.06286 0.159238 0
M  V30 39757 C 3682.11 -1.48107 -1.17088 0
M  V30 39758 O 3681.47 -0.608332 -1.72063 0
M  V30 39759 C 3681.52 -3.61464 0.0507526 0
M  V30 39760 O 3681.24 -4.17478 1.32828 0
M  V30 39761 C 3682.74 -4.40907 -0.460025 0
M  V30 39762 H 3679.96 -0.665593 0.0850147 0
M  V30 39763 H 3682.51 -1.8458 0.88036 0
M  V30 39764 H 3680.66 -3.82392 -0.62087 0
M  V30 39765 H 3681.07 -5.1104 1.18062 0
M  V30 39766 H 3682.55 -5.49866 -0.484914 0
M  V30 39767 H 3683.03 -4.13178 -1.48933 0
M  V30 39768 H 3683.63 -4.24924 0.178743 0
M  V30 39769 N 3681.95 -0.383945 -1.52852 0
M  V30 39770 C 3683.2 0.199559 -2.01112 0
M  V30 39771 C 3683.52 1.47767 -1.2724 0
M  V30 39772 O 3682.79 1.9196 -0.390907 0
M  V30 39773 H 3681.37 0.0767335 -0.743048 0
M  V30 39774 H 3684.03 -0.514403 -1.87989 0
M  V30 39775 H 3683.12 0.413573 -3.09348 0
M  V30 39776 N 3683.43 1.5719 -0.113614 0
M  V30 39777 C 3684.34 2.18567 0.852389 0
M  V30 39778 C 3685.35 1.16029 1.29666 0
M  V30 39779 O 3686.53 1.48476 1.36076 0
M  V30 39780 C 3683.59 2.76871 2.0867 0
M  V30 39781 C 3682.65 3.94427 1.69487 0
M  V30 39782 C 3681.89 4.49941 2.87034 0
M  V30 39783 O 3682.11 4.04361 4.02304 0
M  V30 39784 O 3681.04 5.40704 2.6443 0
M  V30 39785 H 3684.87 3.01558 0.360091 0
M  V30 39786 H 3682.45 1.48982 0.111718 0
M  V30 39787 H 3684.34 3.14059 2.80971 0
M  V30 39788 H 3683.01 1.96915 2.56917 0
M  V30 39789 H 3681.92 3.62017 0.943098 0
M  V30 39790 H 3683.25 4.75803 1.25987 0
M  V30 39791 N 3684.9 -0.160146 1.56784 0
M  V30 39792 C 3686.13 -0.89425 1.87131 0
M  V30 39793 C 3686.55 -1.74542 0.701203 0
M  V30 39794 O 3685.91 -1.77899 -0.349511 0
M  V30 39795 C 3685.96 -1.73763 3.15973 0
M  V30 39796 O 3685.06 -2.84049 2.98982 0
M  V30 39797 H 3684.4 -0.249858 0.615197 0
M  V30 39798 H 3686.93 -0.15492 2.04013 0
M  V30 39799 H 3686.94 -2.13531 3.47661 0
M  V30 39800 H 3685.62 -1.11251 4.00744 0
M  V30 39801 H 3684.2 -2.47783 2.78672 0
M  V30 39802 N 3686.38 -1.51647 -0.429072 0
M  V30 39803 C 3687.31 -1.76508 -1.52863 0
M  V30 39804 C 3688.29 -0.615205 -1.58585 0
M  V30 39805 O 3689.48 -0.858772 -1.7418 0
M  V30 39806 C 3686.61 -1.89765 -2.90872 0
M  V30 39807 C 3685.56 -3.05252 -3.00008 0
M  V30 39808 C 3684.89 -3.03704 -4.40077 0
M  V30 39809 C 3686.19 -4.45073 -2.73327 0
M  V30 39810 H 3687.88 -2.68579 -1.3231 0
M  V30 39811 H 3685.43 -1.2924 -0.635069 0
M  V30 39812 H 3687.38 -2.05741 -3.67762 0
M  V30 39813 H 3686.1 -0.943497 -3.12675 0
M  V30 39814 H 3684.76 -2.88995 -2.2556 0
M  V30 39815 H 3684.41 -2.0605 -4.5886 0
M  V30 39816 H 3684.11 -3.8126 -4.47118 0
M  V30 39817 H 3685.64 -3.21784 -5.18929 0
M  V30 39818 H 3687.05 -4.61638 -3.39946 0
M  V30 39819 H 3685.45 -5.24396 -2.91768 0
M  V30 39820 H 3686.52 -4.54541 -1.68881 0
M  V30 39821 N 3687.86 0.685049 -1.41932 0
M  V30 39822 C 3688.82 1.78058 -1.44318 0
M  V30 39823 C 3689.82 1.5733 -0.332243 0
M  V30 39824 O 3691.01 1.6381 -0.592609 0
M  V30 39825 C 3688.14 3.16567 -1.26484 0
M  V30 39826 H 3689.34 1.77333 -2.41853 0
M  V30 39827 H 3686.89 0.893698 -1.28229 0
M  V30 39828 H 3687.63 3.22925 -0.298316 0
M  V30 39829 H 3687.41 3.33015 -2.06987 0
M  V30 39830 H 3688.9 3.96516 -1.31013 0
M  V30 39831 N 3689.34 1.27935 0.920351 0
M  V30 39832 C 3690.56 1.1765 1.70802 0
M  V30 39833 C 3690.99 -0.262156 1.86264 0
M  V30 39834 O 3690.35 -1.18976 1.368 0
M  V30 39835 C 3690.39 1.87304 3.08139 0
M  V30 39836 O 3689.5 1.176 3.95277 0
M  V30 39837 H 3688.84 0.408773 0.52326 0
M  V30 39838 H 3691.37 1.69138 1.15124 0
M  V30 39839 H 3691.38 1.94952 3.5841 0
M  V30 39840 H 3690.05 2.91954 2.96202 0
M  V30 39841 H 3688.63 1.18071 3.53714 0
M  V30 39842 N 3690.82 -1.12788 1.10076 0
M  V30 39843 C 3691.73 -2.22 0.758497 0
M  V30 39844 C 3692.74 -1.72303 -0.242408 0
M  V30 39845 O 3693.92 -2.01233 -0.082087 0
M  V30 39846 C 3690.98 -3.46171 0.191387 0
M  V30 39847 C 3690.04 -4.10726 1.24909 0
M  V30 39848 C 3689.28 -5.2897 0.70895 0
M  V30 39849 O 3689.5 -5.68494 -0.465893 0
M  V30 39850 O 3688.43 -5.83746 1.46713 0
M  V30 39851 H 3692.26 -2.53662 1.67001 0
M  V30 39852 H 3689.84 -1.2105 0.875626 0
M  V30 39853 H 3691.73 -4.21226 -0.121218 0
M  V30 39854 H 3690.4 -3.16194 -0.693039 0
M  V30 39855 H 3689.31 -3.37468 1.6145 0
M  V30 39856 H 3690.64 -4.4485 2.1064 0
M  V30 39857 N 3692.29 -0.888949 -1.30136 0
M  V30 39858 C 3693.54 -0.509399 -1.95988 0
M  V30 39859 C 3693.87 0.942219 -1.70154 0
M  V30 39860 O 3693.12 1.68146 -1.00126 0
M  V30 39861 C 3693.42 -0.735549 -3.49749 0
M  V30 39862 C 3693.09 -2.16286 -3.9564 0
M  V30 39863 C 3691.75 -2.55316 -4.07881 0
M  V30 39864 C 3694.1 -3.09284 -4.19515 0
M  V30 39865 C 3691.43 -3.86546 -4.4136 0
M  V30 39866 C 3693.78 -4.40051 -4.54464 0
M  V30 39867 C 3692.45 -4.78969 -4.64914 0
M  V30 39868 H 3691.72 -0.186402 -0.717172 0
M  V30 39869 H 3694.36 -1.12556 -1.5493 0
M  V30 39870 H 3692.67 -0.0363854 -3.91783 0
M  V30 39871 H 3694.37 -0.421421 -3.98779 0
M  V30 39872 H 3690.96 -1.84992 -3.86621 0
M  V30 39873 H 3695.14 -2.8035 -4.09534 0
M  V30 39874 H 3690.4 -4.16435 -4.47652 0
M  V30 39875 H 3694.57 -5.12147 -4.71888 0
M  V30 39876 H 3692.2 -5.80693 -4.90611 0
M  V30 39877 N 3693.77 1.43557 -0.65031 0
M  V30 39878 C 3694.7 2.33481 0.0295529 0
M  V30 39879 C 3695.68 1.49305 0.814991 0
M  V30 39880 O 3696.87 1.77976 0.777049 0
M  V30 39881 C 3694 3.32633 0.998625 0
M  V30 39882 C 3692.95 4.26776 0.323502 0
M  V30 39883 C 3692.28 5.15943 1.40382 0
M  V30 39884 C 3693.58 5.16408 -0.782288 0
M  V30 39885 H 3695.27 2.90579 -0.7214 0
M  V30 39886 H 3692.82 1.39723 -0.348363 0
M  V30 39887 H 3694.77 3.94438 1.48313 0
M  V30 39888 H 3693.49 2.73786 1.7807 0
M  V30 39889 H 3692.15 3.66331 -0.140532 0
M  V30 39890 H 3691.8 4.53436 2.17726 0
M  V30 39891 H 3691.5 5.79749 0.95736 0
M  V30 39892 H 3693.03 5.80621 1.88975 0
M  V30 39893 H 3694.44 5.72039 -0.380067 0
M  V30 39894 H 3692.84 5.88919 -1.15304 0
M  V30 39895 H 3693.91 4.56271 -1.64148 0
M  V30 39896 N 3695.25 0.392045 1.52646 0
M  V30 39897 C 3696.5 -0.189264 2.01614 0
M  V30 39898 C 3696.82 -1.46585 1.2784 0
M  V30 39899 O 3696.08 -1.92208 0.368051 0
M  V30 39900 C 3696.38 -0.500852 3.53873 0
M  V30 39901 C 3696.04 0.684512 4.45674 0
M  V30 39902 C 3694.71 1.00969 4.70488 0
M  V30 39903 C 3697.06 1.47739 4.99823 0
M  V30 39904 C 3694.39 2.12925 5.46699 0
M  V30 39905 C 3696.74 2.58757 5.77258 0
M  V30 39906 C 3695.4 2.91781 6.0035 0
M  V30 39907 H 3694.67 -0.0692567 0.737756 0
M  V30 39908 H 3697.32 0.529956 1.84021 0
M  V30 39909 H 3695.62 -1.30143 3.69554 0
M  V30 39910 H 3697.32 -0.963313 3.89257 0
M  V30 39911 H 3693.91 0.42106 4.26527 0
M  V30 39912 H 3698.1 1.2394 4.80575 0
M  V30 39913 H 3693.35 2.38878 5.62803 0
M  V30 39914 H 3697.53 3.20594 6.18217 0
M  V30 39915 H 3695.15 3.78651 6.59187 0
M  V30 39916 N 3696.73 -1.57127 0.121948 0
M  V30 39917 C 3697.95 -2.00076 -0.54629 0
M  V30 39918 C 3698.38 -1.00116 -1.59243 0
M  V30 39919 O 3697.74 0.0267369 -1.8128 0
M  V30 39920 C 3697.78 -3.4189 -1.14645 0
M  V30 39921 O 3696.89 -3.44834 -2.26193 0
M  V30 39922 H 3696.23 -0.649887 -0.136172 0
M  V30 39923 H 3698.76 -2.03506 0.211293 0
M  V30 39924 H 3698.77 -3.80161 -1.48126 0
M  V30 39925 H 3697.44 -4.14159 -0.380201 0
M  V30 39926 H 3696.02 -3.18384 -1.94129 0
M  V30 39927 N 3698.21 0.151829 -1.56867 0
M  V30 39928 C 3699.48 0.893663 -1.73991 0
M  V30 39929 C 3699.86 1.99551 -0.688663 0
M  V30 39930 O 3699.21 2.2661 0.293249 0
M  V30 39931 C 3699.42 1.44055 -3.17882 0
M  V30 39932 C 3700.77 1.90585 -3.79424 0
M  V30 39933 O 3701.79 1.53807 -3.21281 0
M  V30 39934 O 3700.65 2.58396 -4.81554 0
M  V30 39935 H 3697.75 0.421986 -0.711236 0
M  V30 39936 H 3700.29 0.138132 -1.69137 0
M  V30 39937 H 3699.06 0.648461 -3.85889 0
M  V30 39938 H 3698.69 2.25972 -3.27143 0
M  V30 39939 N 3699.68 1.51872 0.421024 0
M  V30 39940 C 3700.93 1.65591 1.17079 0
M  V30 39941 C 3701.26 0.378895 1.90468 0
M  V30 39942 O 3700.54 -0.622226 1.84279 0
M  V30 39943 C 3700.82 2.87011 2.17478 0
M  V30 39944 C 3700.67 4.24732 1.48064 0
M  V30 39945 C 3701.99 3.03948 3.18282 0
M  V30 39946 H 3699.11 0.602628 0.424274 0
M  V30 39947 H 3701.75 1.84398 0.457965 0
M  V30 39948 H 3699.9 2.71107 2.78268 0
M  V30 39949 H 3701.58 4.52339 0.904846 0
M  V30 39950 H 3699.82 4.2668 0.782739 0
M  V30 39951 H 3700.49 5.05714 2.21263 0
M  V30 39952 H 3702.97 3.18671 2.67559 0
M  V30 39953 H 3701.84 3.9044 3.85808 0
M  V30 39954 H 3702.1 2.16735 3.85329 0
M  V30 39955 N 3701.16 -0.677513 1.42294 0
M  V30 39956 C 3702.4 -1.44962 1.44102 0
M  V30 39957 C 3702.77 -1.91922 0.0545612 0
M  V30 39958 O 3703.97 -2.68748 -0.0526246 0
M  V30 39959 C 3702.24 -2.61647 2.43466 0
M  V30 39960 S 3703.8 -3.50534 2.63954 0
M  V30 39961 H 3700.62 -0.495144 0.510249 0
M  V30 39962 H 3703.22 -0.788907 1.78876 0
M  V30 39963 H 3701.92 -2.25381 3.42975 0
M  V30 39964 H 3701.45 -3.32593 2.10108 0
M  V30 39965 H 3703.47 -4.57527 1.9205 0
M  V30 39966 N 3702.64 -1.28421 -0.913554 0
M  V30 39967 C 3704.06 -1.06132 -1.19198 0
M  V30 39968 C 3704.26 0.196197 -2.00543 0
M  V30 39969 O 3703.31 0.897811 -2.35999 0
M  V30 39970 C 3704.63 -2.30892 -1.92638 0
M  V30 39971 C 3706.17 -2.36073 -2.0552 0
M  V30 39972 C 3706.65 -3.606 -2.82368 0
M  V30 39973 N 3708.14 -3.61241 -2.89929 0
M  V30 39974 C 3708.87 -4.54273 -3.49891 0
M  V30 39975 N 3708.37 -5.57623 -4.11131 0
M  V30 39976 N 3710.16 -4.41868 -3.47432 0
M  V30 39977 H 3702.31 -2.09144 -0.370473 0
M  V30 39978 H 3704.58 -0.92053 -0.226556 0
M  V30 39979 H 3704.28 -3.22507 -1.40294 0
M  V30 39980 H 3704.16 -2.37321 -2.93187 0
M  V30 39981 H 3706.54 -1.44956 -2.57044 0
M  V30 39982 H 3706.63 -2.33639 -1.04146 0
M  V30 39983 H 3706.27 -4.52062 -2.31523 0
M  V30 39984 H 3706.2 -3.60289 -3.84057 0
M  V30 39985 H 3708.69 -2.86506 -2.46419 0
M  V30 39986 H 3709 -6.24754 -4.54866 0
M  V30 39987 H 3707.35 -5.61449 -4.09635 0
M  V30 39988 H 3710.54 -3.60328 -2.98799 0
M  V30 39989 H 3710.71 -5.14558 -3.93871 0
M  V30 39990 N 3704.12 1.12202 -1.10672 0
M  V30 39991 C 3705.36 1.84038 -0.851923 0
M  V30 39992 C 3705.7 1.84005 0.620956 0
M  V30 39993 O 3704.97 1.28737 1.45798 0
M  V30 39994 C 3705.26 3.31599 -1.40407 0
M  V30 39995 C 3705.11 3.40073 -2.94398 0
M  V30 39996 C 3706.43 4.2743 -1.04841 0
M  V30 39997 H 3703.55 0.668197 -0.310936 0
M  V30 39998 H 3706.19 1.31618 -1.37028 0
M  V30 39999 H 3704.34 3.76371 -0.963174 0
M  V30 40000 H 3706.01 3.03918 -3.47032 0
M  V30 40001 H 3704.25 2.80543 -3.30875 0
M  V30 40002 H 3704.92 4.43897 -3.28115 0
M  V30 40003 H 3707.4 3.90797 -1.42888 0
M  V30 40004 H 3706.28 5.29082 -1.46162 0
M  V30 40005 H 3706.54 4.4208 0.0418495 0
M  V30 40006 N 3705.6 0.895838 1.29663 0
M  V30 40007 C 3706.51 0.375127 2.31581 0
M  V30 40008 C 3707.52 -0.528166 1.6579 0
M  V30 40009 O 3708.7 -0.418676 1.97 0
M  V30 40010 C 3705.76 -0.39235 3.44473 0
M  V30 40011 C 3704.82 0.542001 4.25865 0
M  V30 40012 C 3704.06 -0.188943 5.33365 0
M  V30 40013 O 3704.28 -1.41346 5.5261 0
M  V30 40014 O 3703.21 0.466547 6.00089 0
M  V30 40015 H 3707.04 1.22057 2.78093 0
M  V30 40016 H 3704.63 0.66003 1.3403 0
M  V30 40017 H 3706.51 -0.826493 4.13216 0
M  V30 40018 H 3705.18 -1.21391 3.00076 0
M  V30 40019 H 3704.09 1.02518 3.59779 0
M  V30 40020 H 3705.42 1.32987 4.73894 0
M  V30 40021 N 3707.07 -1.43211 0.657914 0
M  V30 40022 C 3708.3 -2.06622 0.17948 0
M  V30 40023 C 3708.72 -1.49017 -1.14785 0
M  V30 40024 O 3708.08 -0.60195 -1.71015 0
M  V30 40025 C 3708.13 -3.60442 0.106889 0
M  V30 40026 O 3707.23 -4.01787 -0.929549 0
M  V30 40027 H 3706.58 -0.656873 0.0970246 0
M  V30 40028 H 3709.11 -1.83636 0.902165 0
M  V30 40029 H 3709.12 -4.07931 -0.0748783 0
M  V30 40030 H 3707.79 -4.01745 1.07581 0
M  V30 40031 H 3706.37 -3.65879 -0.72019 0
M  V30 40032 N 3708.55 -0.400135 -1.52436 0
M  V30 40033 C 3709.8 0.178217 -2.01313 0
M  V30 40034 C 3710.12 1.46409 -1.288 0
M  V30 40035 O 3709.39 1.91535 -0.411245 0
M  V30 40036 H 3707.97 0.0688482 -0.74382 0
M  V30 40037 H 3710.63 -0.534313 -1.87433 0
M  V30 40038 H 3709.73 0.380739 -3.09769 0
M  V30 40039 N 3710.03 1.57061 -0.13028 0
M  V30 40040 C 3710.94 2.19459 0.829159 0
M  V30 40041 C 3711.96 1.17397 1.28428 0
M  V30 40042 O 3713.13 1.49911 1.34494 0
M  V30 40043 C 3710.2 2.79069 2.05722 0
M  V30 40044 C 3709.26 3.96203 1.65294 0
M  V30 40045 C 3708.49 4.52961 2.82245 0
M  V30 40046 O 3708.71 4.08605 3.97992 0
M  V30 40047 O 3707.65 5.43478 2.5868 0
M  V30 40048 H 3711.47 3.01923 0.328086 0
M  V30 40049 H 3709.06 1.49092 0.0959099 0
M  V30 40050 H 3710.94 3.17022 2.77624 0
M  V30 40051 H 3709.62 1.99629 2.54814 0
M  V30 40052 H 3708.52 3.62997 0.904648 0
M  V30 40053 H 3709.86 4.77112 1.20933 0
M  V30 40054 N 3711.51 -0.143508 1.56945 0
M  V30 40055 C 3712.46 -1.19625 1.99481 0
M  V30 40056 C 3713.45 -1.44275 0.887759 0
M  V30 40057 O 3714.66 -1.44526 1.07295 0
M  V30 40058 H 3711.03 -0.40275 0.635056 0
M  V30 40059 H 3713 -0.810826 2.87173 0
M  V30 40060 C 3711.75 -2.52118 2.3944 0
M  V30 40061 H 3711.08 -2.33982 3.2418 0
M  V30 40062 H 3712.52 -3.24399 2.73022 0
M  V30 40063 C 3710.97 -3.12916 1.24842 0
M  V30 40064 O 3711.5 -3.97903 0.551043 0
M  V30 40065 N 3709.71 -2.72418 1.01176 0
M  V30 40066 H 3709.26 -2.03405 1.58063 0
M  V30 40067 H 3709.22 -3.13429 0.246901 0
M  V30 40068 N 3712.99 -1.52093 -0.412964 0
M  V30 40069 C 3714.23 -1.67638 -1.16948 0
M  V30 40070 C 3714.59 -0.395863 -1.87875 0
M  V30 40071 O 3715.79 -0.427367 -2.65381 0
M  V30 40072 C 3714.06 -2.86214 -2.14047 0
M  V30 40073 S 3715.62 -3.22221 -2.97858 0
M  V30 40074 H 3712.44 -0.590352 -0.396239 0
M  V30 40075 H 3715.04 -1.90075 -0.457353 0
M  V30 40076 H 3713.75 -3.77662 -1.60621 0
M  V30 40077 H 3713.28 -2.66039 -2.89805 0
M  V30 40078 H 3715.29 -2.70545 -4.15957 0
M  V30 40079 N 3714.47 0.669957 -1.42651 0
M  V30 40080 C 3715.69 1.46312 -1.46995 0
M  V30 40081 C 3716.12 1.87912 -0.0840986 0
M  V30 40082 O 3715.47 1.5631 0.918527 0
M  V30 40083 C 3715.52 2.68536 -2.40668 0
M  V30 40084 O 3714.63 3.66985 -1.88138 0
M  V30 40085 H 3713.97 0.439363 -0.497852 0
M  V30 40086 H 3716.5 0.821315 -1.87392 0
M  V30 40087 H 3716.51 3.1655 -2.57411 0
M  V30 40088 H 3715.18 2.37598 -3.4135 0
M  V30 40089 H 3713.76 3.26041 -1.80974 0
M  V30 40090 N 3715.94 1.28904 0.90673 0
M  V30 40091 C 3717.17 1.19455 1.69545 0
M  V30 40092 C 3717.59 -0.242386 1.86532 0
M  V30 40093 O 3716.95 -1.17519 1.38054 0
M  V30 40094 C 3717 1.90561 3.06135 0
M  V30 40095 O 3716.1 1.21786 3.94007 0
M  V30 40096 H 3715.44 0.414299 0.518895 0
M  V30 40097 H 3717.97 1.70349 1.13324 0
M  V30 40098 H 3717.98 1.98742 3.56322 0
M  V30 40099 H 3716.66 2.95079 2.93089 0
M  V30 40100 H 3715.24 1.21816 3.52442 0
M  V30 40101 N 3717.42 -1.11614 1.11266 0
M  V30 40102 C 3718.83 -1.64834 0.876742 0
M  V30 40103 C 3719.18 -1.87076 -0.591351 0
M  V30 40104 O 3718.31 -1.60363 -1.45302 0
M  V30 40105 C 3718.9 -2.99437 1.58502 0
M  V30 40106 C 3717.46 -3.49572 1.39558 0
M  V30 40107 C 3716.61 -2.24419 1.62885 0
M  V30 40108 H 3719.56 -0.952782 1.26916 0
M  V30 40109 H 3719.58 -3.66323 1.02898 0
M  V30 40110 H 3719.09 -2.83217 2.65349 0
M  V30 40111 H 3717.19 -3.70961 0.349124 0
M  V30 40112 H 3717.31 -4.28479 2.14341 0
M  V30 40113 H 3715.67 -2.31954 1.05212 0
M  V30 40114 H 3716.45 -2.10743 2.71002 0
M  V30 40115 N 3718.9 -0.902701 -1.29186 0
M  V30 40116 C 3719.86 -0.387525 -2.259 0
M  V30 40117 C 3720.86 0.479967 -1.5347 0
M  V30 40118 O 3722.05 0.284592 -1.7186 0
M  V30 40119 C 3719.18 0.445663 -3.37974 0
M  V30 40120 H 3720.38 -1.24172 -2.72986 0
M  V30 40121 H 3717.93 -0.681108 -1.40679 0
M  V30 40122 H 3718.67 1.31972 -2.96233 0
M  V30 40123 H 3718.45 -0.175968 -3.91705 0
M  V30 40124 H 3719.94 0.797312 -4.09918 0
M  V30 40125 N 3720.38 1.4286 -0.6655 0
M  V30 40126 C 3721.79 1.84849 -0.262283 0
M  V30 40127 C 3722.14 1.55709 1.19369 0
M  V30 40128 O 3721.26 1.01222 1.91267 0
M  V30 40129 C 3721.86 3.35535 -0.469248 0
M  V30 40130 C 3720.42 3.76208 -0.120238 0
M  V30 40131 C 3719.57 2.66505 -0.7662 0
M  V30 40132 H 3722.52 1.32838 -0.868319 0
M  V30 40133 H 3722.54 3.79457 0.281504 0
M  V30 40134 H 3722.05 3.56711 -1.52901 0
M  V30 40135 H 3720.15 3.6064 0.936442 0
M  V30 40136 H 3720.26 4.75883 -0.554271 0
M  V30 40137 H 3718.63 2.53927 -0.198337 0
M  V30 40138 H 3719.41 2.90507 -1.82923 0
M  V30 40139 N 3721.86 0.408213 1.52221 0
M  V30 40140 C 3723.27 0.0590482 1.59491 0
M  V30 40141 C 3723.47 -1.42851 1.42112 0
M  V30 40142 O 3722.53 -2.19524 1.24761 0
M  V30 40143 C 3723.84 0.553145 2.95569 0
M  V30 40144 C 3725.39 0.511041 3.088 0
M  V30 40145 C 3725.86 0.981632 4.47357 0
M  V30 40146 N 3727.35 0.938415 4.53595 0
M  V30 40147 C 3728.09 1.27374 5.59074 0
M  V30 40148 N 3727.59 1.68047 6.7211 0
M  V30 40149 N 3729.38 1.19377 5.49277 0
M  V30 40150 H 3721.53 1.37643 1.61765 0
M  V30 40151 H 3723.79 0.565385 0.760949 0
M  V30 40152 H 3723.5 1.59282 3.13564 0
M  V30 40153 H 3723.37 -0.0376966 3.77181 0
M  V30 40154 H 3725.76 -0.519586 2.9049 0
M  V30 40155 H 3725.84 1.13792 2.29096 0
M  V30 40156 H 3725.48 2.01058 4.6641 0
M  V30 40157 H 3725.41 0.33157 5.25555 0
M  V30 40158 H 3727.91 0.639363 3.72452 0
M  V30 40159 H 3728.22 1.91947 7.48583 0
M  V30 40160 H 3726.56 1.7195 6.73393 0
M  V30 40161 H 3729.75 0.874881 4.59852 0
M  V30 40162 H 3729.93 1.4584 6.31375 0
M  V30 40163 N 3723.33 -1.56989 0.138607 0
M  V30 40164 C 3724.24 -2.19895 -0.817509 0
M  V30 40165 C 3725.26 -1.18077 -1.27804 0
M  V30 40166 O 3726.44 -1.50622 -1.33697 0
M  V30 40167 C 3723.5 -2.80156 -2.04239 0
M  V30 40168 C 3722.56 -3.97074 -1.6319 0
M  V30 40169 C 3721.79 -4.54451 -2.79839 0
M  V30 40170 O 3722.02 -4.1071 -3.9582 0
M  V30 40171 O 3720.95 -5.44842 -2.55794 0
M  V30 40172 H 3724.78 -3.02092 -0.31207 0
M  V30 40173 H 3722.36 -1.49141 -0.0880018 0
M  V30 40174 H 3724.24 -3.1849 -2.75939 0
M  V30 40175 H 3722.92 -2.00977 -2.53751 0
M  V30 40176 H 3721.83 -3.63472 -0.885385 0
M  V30 40177 H 3723.16 -4.77747 -1.18401 0
M  V30 40178 N 3724.81 0.135183 -1.57019 0
M  V30 40179 C 3725.72 1.18574 -2.02429 0
M  V30 40180 C 3726.74 1.46311 -0.941763 0
M  V30 40181 O 3727.91 1.57747 -1.25211 0
M  V30 40182 C 3724.98 2.49643 -2.40581 0
M  V30 40183 C 3724.04 2.29448 -3.62839 0
M  V30 40184 C 3723.27 3.54267 -3.99162 0
M  V30 40185 O 3723.5 4.60927 -3.36009 0
M  V30 40186 O 3722.43 3.46229 -4.92351 0
M  V30 40187 H 3726.26 0.830185 -2.92133 0
M  V30 40188 H 3723.84 0.344788 -1.45367 0
M  V30 40189 H 3725.72 3.26895 -2.65927 0
M  V30 40190 H 3724.4 2.84705 -1.54028 0
M  V30 40191 H 3723.3 1.50108 -3.42664 0
M  V30 40192 H 3724.64 1.99297 -4.50046 0
M  V30 40193 N 3726.29 1.5231 0.404892 0
M  V30 40194 C 3727.22 1.78917 1.50036 0
M  V30 40195 C 3728.2 0.640357 1.57586 0
M  V30 40196 O 3729.39 0.886374 1.72792 0
M  V30 40197 C 3726.52 1.94369 2.87816 0
M  V30 40198 C 3725.47 3.09986 2.95114 0
M  V30 40199 C 3724.8 3.10667 4.3519 0
M  V30 40200 C 3726.1 4.49365 2.66211 0
M  V30 40201 H 3727.79 2.70649 1.2802 0
M  V30 40202 H 3725.34 1.30234 0.614427 0
M  V30 40203 H 3727.29 2.11565 3.64442 0
M  V30 40204 H 3726.01 0.993122 3.11134 0
M  V30 40205 H 3724.67 2.92547 2.20934 0
M  V30 40206 H 3724.32 2.13324 4.55524 0
M  V30 40207 H 3724.02 3.88325 4.40996 0
M  V30 40208 H 3725.54 3.29999 5.13744 0
M  V30 40209 H 3726.96 4.66988 3.32559 0
M  V30 40210 H 3725.36 5.28972 2.83388 0
M  V30 40211 H 3726.43 4.5717 1.61628 0
M  V30 40212 N 3727.77 -0.662382 1.43004 0
M  V30 40213 C 3729.01 -1.42447 1.44349 0
M  V30 40214 C 3729.35 -1.94094 0.0641281 0
M  V30 40215 O 3728.62 -1.71708 -0.913603 0
M  V30 40216 C 3728.91 -2.61255 2.47827 0
M  V30 40217 C 3728.76 -2.15159 3.95002 0
M  V30 40218 C 3730.08 -3.63472 2.48146 0
M  V30 40219 H 3727.2 -0.516621 0.525615 0
M  V30 40220 H 3729.84 -0.751723 1.74497 0
M  V30 40221 H 3727.99 -3.1865 2.22249 0
M  V30 40222 H 3729.66 -1.62836 4.31604 0
M  V30 40223 H 3727.9 -1.46615 4.08272 0
M  V30 40224 H 3728.57 -3.00553 4.63003 0
M  V30 40225 H 3731.05 -3.15818 2.70921 0
M  V30 40226 H 3729.93 -4.44163 3.22506 0
M  V30 40227 H 3730.19 -4.15444 1.51191 0
M  V30 40228 N 3729.25 -1.29383 -0.899882 0
M  V30 40229 C 3730.66 -1.15657 -1.46561 0
M  V30 40230 C 3731.01 0.248341 -1.94622 0
M  V30 40231 O 3730.13 1.14383 -1.837 0
M  V30 40232 C 3730.73 -2.09349 -2.66381 0
M  V30 40233 C 3729.29 -1.99646 -3.1909 0
M  V30 40234 C 3728.43 -2.00286 -1.91783 0
M  V30 40235 H 3731.39 -1.4187 -0.711239 0
M  V30 40236 H 3731.41 -1.6656 -3.42108 0
M  V30 40237 H 3730.92 -3.11592 -2.31371 0
M  V30 40238 H 3729.02 -1.00491 -3.58793 0
M  V30 40239 H 3729.13 -2.873 -3.834 0
M  V30 40240 H 3727.5 -1.44881 -2.09479 0
M  V30 40241 H 3728.28 -3.04233 -1.5905 0
M  V30 40242 N 3730.72 1.11022 -1.11856 0
M  V30 40243 C 3731.69 2.15372 -0.784071 0
M  V30 40244 C 3732.69 1.59568 0.198657 0
M  V30 40245 O 3733.88 1.7418 -0.0263735 0
M  V30 40246 C 3731.01 3.40505 -0.164047 0
M  V30 40247 H 3732.2 2.46474 -1.70853 0
M  V30 40248 H 3729.76 1.26282 -0.92101 0
M  V30 40249 H 3730.49 3.15016 0.770428 0
M  V30 40250 H 3730.28 3.82292 -0.871514 0
M  V30 40251 H 3731.77 4.17565 0.0537005 0
M  V30 40252 N 3732.2 0.90954 1.28706 0
M  V30 40253 C 3733.11 0.399668 2.31171 0
M  V30 40254 C 3734.13 -0.510552 1.66341 0
M  V30 40255 O 3735.3 -0.397758 1.97433 0
M  V30 40256 C 3732.37 -0.355792 3.4487 0
M  V30 40257 C 3731.43 0.587139 4.25266 0
M  V30 40258 C 3730.66 -0.132362 5.33536 0
M  V30 40259 O 3730.89 -1.35477 5.54078 0
M  V30 40260 O 3729.82 0.530168 5.99561 0
M  V30 40261 H 3733.65 1.25 2.76783 0
M  V30 40262 H 3731.23 0.674209 1.33322 0
M  V30 40263 H 3733.11 -0.782619 4.14069 0
M  V30 40264 H 3731.79 -1.18202 3.01347 0
M  V30 40265 H 3730.7 1.06328 3.58671 0
M  V30 40266 H 3732.03 1.38006 4.72456 0
M  V30 40267 N 3733.68 -1.42505 0.673067 0
M  V30 40268 C 3734.59 -2.34599 -0.00644449 0
M  V30 40269 C 3735.61 -1.54995 -0.790731 0
M  V30 40270 O 3736.78 -1.8757 -0.733449 0
M  V30 40271 C 3733.85 -3.33508 -0.947281 0
M  V30 40272 C 3732.91 -4.2901 -0.157719 0
M  V30 40273 C 3732.14 -5.23194 -1.05374 0
M  V30 40274 O 3732.36 -5.2227 -2.29325 0
M  V30 40275 O 3731.3 -5.99689 -0.515479 0
M  V30 40276 H 3735.12 -2.9424 0.75211 0
M  V30 40277 H 3732.71 -1.42979 0.433297 0
M  V30 40278 H 3734.59 -3.94276 -1.48743 0
M  V30 40279 H 3733.27 -2.76343 -1.68572 0
M  V30 40280 H 3732.17 -3.71661 0.426491 0
M  V30 40281 H 3733.51 -4.89212 0.541566 0
M  V30 40282 N 3735.16 -0.41628 -1.52003 0
M  V30 40283 C 3736.39 0.156455 -2.06308 0
M  V30 40284 C 3736.8 1.38258 -1.2857 0
M  V30 40285 O 3736.16 1.79315 -0.339479 0
M  V30 40286 C 3736.21 0.499761 -3.58029 0
M  V30 40287 O 3735.93 -0.677678 -4.32827 0
M  V30 40288 C 3737.43 1.12545 -4.28775 0
M  V30 40289 H 3734.65 0.0172366 -0.670779 0
M  V30 40290 H 3737.2 -0.589296 -1.95825 0
M  V30 40291 H 3735.35 1.19541 -3.68495 0
M  V30 40292 H 3735.76 -0.389394 -5.23053 0
M  V30 40293 H 3737.24 1.31582 -5.36088 0
M  V30 40294 H 3737.72 2.10059 -3.8571 0
M  V30 40295 H 3738.32 0.469807 -4.22697 0
M  V30 40296 N 3736.64 1.56914 -0.146931 0
M  V30 40297 C 3737.55 2.20326 0.805836 0
M  V30 40298 C 3738.56 1.18753 1.27176 0
M  V30 40299 O 3739.74 1.51329 1.32896 0
M  V30 40300 C 3736.8 2.81235 2.0275 0
M  V30 40301 C 3735.86 3.97933 1.61082 0
M  V30 40302 C 3735.1 4.55929 2.77425 0
M  V30 40303 O 3735.32 4.12804 3.93636 0
M  V30 40304 O 3734.25 5.46191 2.52901 0
M  V30 40305 H 3738.08 3.02254 0.296045 0
M  V30 40306 H 3735.67 1.49185 0.0800913 0
M  V30 40307 H 3737.55 3.19949 2.74246 0
M  V30 40308 H 3736.22 2.0232 2.52682 0
M  V30 40309 H 3735.13 3.63936 0.866096 0
M  V30 40310 H 3736.46 4.78368 1.15866 0
M  V30 40311 N 3738.11 -0.126854 1.57089 0
M  V30 40312 C 3739.05 -1.1815 1.96401 0
M  V30 40313 C 3740.06 -1.38087 0.862312 0
M  V30 40314 O 3741.25 -1.37301 1.14064 0
M  V30 40315 C 3738.35 -2.54291 2.2403 0
M  V30 40316 C 3737.52 -2.55062 3.55334 0
M  V30 40317 C 3736.58 -3.7289 3.71268 0
M  V30 40318 O 3735.61 -3.56836 4.4346 0
M  V30 40319 N 3736.81 -4.91146 3.09444 0
M  V30 40320 H 3739.57 -0.847166 2.87477 0
M  V30 40321 H 3737.13 -0.316214 1.58782 0
M  V30 40322 H 3739.13 -3.31661 2.31912 0
M  V30 40323 H 3737.7 -2.79937 1.39119 0
M  V30 40324 H 3736.92 -1.63462 3.58711 0
M  V30 40325 H 3738.2 -2.52626 4.41653 0
M  V30 40326 H 3737.6 -5.07093 2.50745 0
M  V30 40327 H 3736.16 -5.66221 3.22858 0
M  V30 40328 N 3739.59 -1.52523 -0.396809 0
M  V30 40329 C 3740.87 -1.57759 -1.15635 0
M  V30 40330 C 3741.25 -0.366034 -2.07902 0
M  V30 40331 O 3740.6 0.646227 -2.19172 0
M  V30 40332 C 3740.81 -2.9125 -1.92287 0
M  V30 40333 C 3742.16 -3.44702 -2.47923 0
M  V30 40334 O 3743.18 -2.93072 -2.02453 0
M  V30 40335 O 3742.04 -4.34887 -3.30961 0
M  V30 40336 H 3739.13 -0.635963 -0.528659 0
M  V30 40337 H 3741.68 -1.64855 -0.402593 0
M  V30 40338 H 3740.45 -3.70875 -1.24768 0
M  V30 40339 H 3740.07 -2.87503 -2.74641 0
M  V30 40340 N 3741.07 0.654789 -1.43354 0
M  V30 40341 C 3742.02 1.76773 -1.48391 0
M  V30 40342 C 3742.99 1.62712 -0.333783 0
M  V30 40343 O 3744.17 1.82978 -0.540715 0
M  V30 40344 C 3741.31 3.14919 -1.41137 0
M  V30 40345 C 3740.43 3.40126 -2.66342 0
M  V30 40346 C 3739.56 4.68111 -2.51088 0
M  V30 40347 C 3738.6 4.86418 -3.71569 0
M  V30 40348 N 3737.74 6.05659 -3.55135 0
M  V30 40349 H 3742.58 1.71803 -2.4349 0
M  V30 40350 H 3740.11 0.838421 -1.20867 0
M  V30 40351 H 3742.07 3.94779 -1.34927 0
M  V30 40352 H 3740.7 3.18963 -0.496205 0
M  V30 40353 H 3739.75 2.54375 -2.82838 0
M  V30 40354 H 3741.07 3.4954 -3.55841 0
M  V30 40355 H 3740.22 5.56095 -2.42577 0
M  V30 40356 H 3738.96 4.61015 -1.59111 0
M  V30 40357 H 3737.96 3.96871 -3.80491 0
M  V30 40358 H 3739.19 4.95345 -4.64553 0
M  V30 40359 H 3737.14 5.99698 -2.65891 0
M  V30 40360 H 3737.05 6.16024 -4.38235 0
M  V30 40361 H 3738.32 6.96268 -3.50473 0
M  V30 40362 N 3742.55 1.29858 0.893007 0
M  V30 40363 C 3743.46 1.1746 2.03077 0
M  V30 40364 C 3744.48 0.0963246 1.73733 0
M  V30 40365 O 3745.65 0.309702 1.99005 0
M  V30 40366 C 3742.72 0.85905 3.35889 0
M  V30 40367 C 3741.78 2.02186 3.78707 0
M  V30 40368 C 3741.01 1.72127 5.05181 0
M  V30 40369 O 3741.23 0.645376 5.66737 0
M  V30 40370 O 3740.17 2.57128 5.44214 0
M  V30 40371 H 3743.99 2.13021 2.16462 0
M  V30 40372 H 3741.58 1.09374 1.01772 0
M  V30 40373 H 3743.46 0.697925 4.1558 0
M  V30 40374 H 3742.14 -0.0667187 3.23631 0
M  V30 40375 H 3741.04 2.23827 2.99754 0
M  V30 40376 H 3742.38 2.92907 3.95558 0
M  V30 40377 N 3744.03 -1.10427 1.12443 0
M  V30 40378 C 3744.98 -2.14914 0.761304 0
M  V30 40379 C 3745.96 -1.59104 -0.23974 0
M  V30 40380 O 3747.15 -1.76942 -0.0452299 0
M  V30 40381 C 3744.28 -3.42609 0.217656 0
M  V30 40382 C 3743.37 -4.05353 1.24699 0
M  V30 40383 N 3743.76 -4.42799 2.44463 0
M  V30 40384 C 3742.06 -4.32416 1.09237 0
M  V30 40385 C 3742.76 -4.92092 3.10194 0
M  V30 40386 N 3741.73 -4.88904 2.37643 0
M  V30 40387 H 3745.54 -2.41659 1.67266 0
M  V30 40388 H 3743.05 -1.2755 1.00522 0
M  V30 40389 H 3745.05 -4.16856 -0.0606835 0
M  V30 40390 H 3743.71 -3.17324 -0.688159 0
M  V30 40391 H 3744.72 -4.34493 2.81845 0
M  V30 40392 H 3741.4 -4.16787 0.243863 0
M  V30 40393 H 3742.79 -5.30613 4.12189 0
M  V30 40394 N 3745.51 -0.916353 -1.28221 0
M  V30 40395 C 3746.73 -0.566807 -1.98985 0
M  V30 40396 C 3747.15 0.852524 -1.68456 0
M  V30 40397 O 3746.51 1.56504 -0.938762 0
M  V30 40398 C 3746.56 -0.769485 -3.53215 0
M  V30 40399 O 3746.28 -2.13297 -3.8267 0
M  V30 40400 C 3747.78 -0.427121 -4.41238 0
M  V30 40401 H 3745 -0.215845 -0.635336 0
M  V30 40402 H 3747.54 -1.23027 -1.63354 0
M  V30 40403 H 3745.7 -0.152983 -3.87098 0
M  V30 40404 H 3746.11 -2.17456 -4.77298 0
M  V30 40405 H 3747.59 -0.619691 -5.48511 0
M  V30 40406 H 3748.06 0.636784 -4.34559 0
M  V30 40407 H 3748.67 -1.02127 -4.12856 0
M  V30 40408 N 3746.98 1.42146 -0.680615 0
M  V30 40409 C 3748.22 2.03326 -0.209258 0
M  V30 40410 C 3748.59 1.5268 1.16416 0
M  V30 40411 O 3749.79 2.05686 1.73051 0
M  V30 40412 C 3748.06 3.56536 -0.248394 0
M  V30 40413 S 3749.62 4.3854 0.151109 0
M  V30 40414 H 3746.44 0.705839 -0.085508 0
M  V30 40415 H 3749.04 1.73807 -0.895064 0
M  V30 40416 H 3747.74 3.90893 -1.25023 0
M  V30 40417 H 3747.27 3.90736 0.457055 0
M  V30 40418 H 3749.29 4.76539 1.38293 0
M  V30 40419 N 3748.46 0.424336 1.5178 0
M  V30 40420 C 3749.37 -0.400109 2.31163 0
M  V30 40421 C 3750.39 -1.03966 1.39524 0
M  V30 40422 O 3751.56 -1.03787 1.72599 0
M  V30 40423 C 3748.63 -1.49361 3.12877 0
M  V30 40424 C 3747.69 -0.875542 4.20277 0
M  V30 40425 C 3746.92 -1.91694 4.98086 0
M  V30 40426 O 3747.15 -3.13731 4.76371 0
M  V30 40427 O 3746.08 -1.5147 5.82529 0
M  V30 40428 H 3749.91 0.247582 3.02689 0
M  V30 40429 H 3747.49 0.187172 1.48223 0
M  V30 40430 H 3749.37 -2.12809 3.63717 0
M  V30 40431 H 3748.05 -2.12562 2.44129 0
M  V30 40432 H 3746.95 -0.203363 3.73547 0
M  V30 40433 H 3748.29 -0.28722 4.91361 0
M  V30 40434 N 3749.94 -1.56833 0.15525 0
M  V30 40435 C 3751.17 -2.00755 -0.500506 0
M  V30 40436 C 3751.58 -1.0354 -1.57876 0
M  V30 40437 O 3750.94 -0.0336971 -1.82469 0
M  V30 40438 C 3750.99 -3.44562 -1.09359 0
M  V30 40439 O 3750.71 -4.38061 -0.0584018 0
M  V30 40440 C 3752.21 -4.03803 -1.82916 0
M  V30 40441 H 3749.43 -0.65837 -0.129577 0
M  V30 40442 H 3751.98 -2.02938 0.252259 0
M  V30 40443 H 3750.13 -3.43204 -1.79694 0
M  V30 40444 H 3750.55 -5.22168 -0.494033 0
M  V30 40445 H 3752.02 -5.06398 -2.19694 0
M  V30 40446 H 3752.5 -3.44981 -2.71817 0
M  V30 40447 H 3753.1 -4.08815 -1.17261 0
M  V30 40448 N 3751.42 0.118521 -1.57154 0
M  V30 40449 C 3752.35 1.14656 -2.03411 0
M  V30 40450 C 3753.33 1.43159 -0.918661 0
M  V30 40451 O 3754.51 1.53592 -1.1884 0
M  V30 40452 C 3751.64 2.47261 -2.43884 0
M  V30 40453 C 3750.6 2.33219 -3.58877 0
M  V30 40454 C 3749.92 3.70791 -3.85251 0
M  V30 40455 C 3751.22 1.7923 -4.90585 0
M  V30 40456 H 3752.92 0.761811 -2.89546 0
M  V30 40457 H 3750.46 0.365009 -1.39297 0
M  V30 40458 H 3752.42 3.1943 -2.74849 0
M  V30 40459 H 3751.14 2.87627 -1.5472 0
M  V30 40460 H 3749.8 1.63498 -3.28122 0
M  V30 40461 H 3749.45 4.08643 -2.93292 0
M  V30 40462 H 3749.15 3.62249 -4.62655 0
M  V30 40463 H 3750.67 4.44464 -4.18669 0
M  V30 40464 H 3752.09 2.41217 -5.20084 0
M  V30 40465 H 3750.48 1.81508 -5.71992 0
M  V30 40466 H 3751.55 0.749905 -4.79066 0
M  V30 40467 N 3752.9 1.52731 0.388715 0
M  V30 40468 C 3753.83 1.80499 1.4813 0
M  V30 40469 C 3754.81 0.657035 1.56898 0
M  V30 40470 O 3755.99 0.904651 1.71842 0
M  V30 40471 C 3753.12 1.9741 2.85738 0
M  V30 40472 C 3752.08 3.13099 2.9181 0
M  V30 40473 C 3751.4 3.15265 4.3187 0
M  V30 40474 C 3752.7 4.52163 2.6143 0
M  V30 40475 H 3754.4 2.71992 1.25143 0
M  V30 40476 H 3751.94 1.30878 0.60058 0
M  V30 40477 H 3753.89 2.15419 3.62178 0
M  V30 40478 H 3752.62 1.02607 3.10064 0
M  V30 40479 H 3751.28 2.94874 2.17818 0
M  V30 40480 H 3750.93 2.18143 4.53236 0
M  V30 40481 H 3750.63 3.9298 4.36853 0
M  V30 40482 H 3752.15 3.35429 5.10215 0
M  V30 40483 H 3753.56 4.70489 3.27587 0
M  V30 40484 H 3751.96 5.31948 2.77762 0
M  V30 40485 H 3753.03 4.58859 1.5677 0
M  V30 40486 N 3754.37 -0.647178 1.43699 0
M  V30 40487 C 3755.31 -1.77207 1.4378 0
M  V30 40488 C 3756.28 -1.59836 0.298512 0
M  V30 40489 O 3757.47 -1.81938 0.493034 0
M  V30 40490 C 3754.6 -3.14585 1.25516 0
M  V30 40491 C 3753.64 -3.50643 2.42799 0
M  V30 40492 S 3754.47 -3.49934 4.05347 0
M  V30 40493 C 3755.63 -4.89958 3.89476 0
M  V30 40494 H 3755.86 -1.76869 2.38966 0
M  V30 40495 H 3753.4 -0.820364 1.30803 0
M  V30 40496 H 3755.35 -3.93868 1.15665 0
M  V30 40497 H 3754.02 -3.12479 0.318684 0
M  V30 40498 H 3753.21 -4.50569 2.2584 0
M  V30 40499 H 3752.81 -2.78786 2.49307 0
M  V30 40500 H 3755.1 -5.78774 3.52175 0
M  V30 40501 H 3756.05 -5.1197 4.89176 0
M  V30 40502 H 3756.45 -4.63777 3.21825 0
M  V30 40503 N 3755.85 -1.3033 -0.886108 0
M  V30 40504 C 3757.09 -1.2037 -1.65198 0
M  V30 40505 C 3757.46 0.23806 -1.90518 0
M  V30 40506 O 3758.66 0.460879 -2.64819 0
M  V30 40507 C 3756.93 -2.00826 -2.95641 0
M  V30 40508 S 3758.49 -2.07552 -3.86611 0
M  V30 40509 H 3755.31 -0.428979 -0.567008 0
M  V30 40510 H 3757.91 -1.64791 -1.05186 0
M  V30 40511 H 3756.61 -3.04693 -2.74937 0
M  V30 40512 H 3756.14 -1.57062 -3.60687 0
M  V30 40513 H 3758.16 -1.20207 -4.81419 0
M  V30 40514 N 3757.33 1.0983 -1.13028 0
M  V30 40515 C 3758.58 1.8129 -0.884124 0
M  V30 40516 C 3758.89 1.8644 0.591576 0
M  V30 40517 O 3760.1 2.54167 0.954527 0
M  V30 40518 C 3758.55 3.25659 -1.53213 0
M  V30 40519 C 3758.16 3.28788 -3.04306 0
M  V30 40520 C 3759.91 4.01904 -1.36651 0
M  V30 40521 C 3757.81 4.67655 -3.62012 0
M  V30 40522 H 3756.74 0.679348 -0.327113 0
M  V30 40523 H 3759.39 1.23467 -1.3575 0
M  V30 40524 H 3757.78 3.83518 -0.986421 0
M  V30 40525 H 3758.95 2.80719 -3.65423 0
M  V30 40526 H 3757.27 2.66032 -3.20337 0
M  V30 40527 H 3759.86 5.04491 -1.77179 0
M  V30 40528 H 3760.21 4.15138 -0.310882 0
M  V30 40529 H 3760.74 3.50476 -1.88178 0
M  V30 40530 H 3757.48 4.59623 -4.67362 0
M  V30 40531 H 3757 5.16067 -3.05672 0
M  V30 40532 H 3758.68 5.36628 -3.61441 0
M  V30 40533 N 3758.81 0.92314 1.27734 0
M  V30 40534 C 3760.05 0.562015 1.94857 0
M  V30 40535 C 3760.39 -0.893668 1.72416 0
M  V30 40536 O 3759.66 -1.63687 1.05057 0
M  V30 40537 C 3759.95 0.883235 3.491 0
M  V30 40538 C 3759.8 2.39234 3.80903 0
M  V30 40539 C 3761.12 0.385926 4.38405 0
M  V30 40540 H 3758.24 0.205659 0.707724 0
M  V30 40541 H 3760.88 1.15409 1.50933 0
M  V30 40542 H 3759.03 0.37936 3.86643 0
M  V30 40543 H 3760.7 2.96755 3.53177 0
M  V30 40544 H 3758.94 2.84342 3.27615 0
M  V30 40545 H 3759.61 2.56762 4.88648 0
M  V30 40546 H 3762.09 0.817702 4.07986 0
M  V30 40547 H 3760.97 0.639676 5.4516 0
M  V30 40548 H 3761.23 -0.713932 4.36297 0
M  V30 40549 N 3760.29 -1.41783 0.688143 0
M  V30 40550 C 3761.51 -2.05675 0.224786 0
M  V30 40551 C 3761.93 -1.51757 -1.12317 0
M  V30 40552 O 3761.29 -0.662765 -1.7004 0
M  V30 40553 C 3761.34 -3.6112 0.165724 0
M  V30 40554 O 3761.06 -4.13041 1.46043 0
M  V30 40555 C 3762.56 -4.42147 -0.319521 0
M  V30 40556 H 3759.78 -0.662551 0.106147 0
M  V30 40557 H 3762.32 -1.81686 0.938637 0
M  V30 40558 H 3760.48 -3.84174 -0.498901 0
M  V30 40559 H 3760.89 -5.07025 1.34261 0
M  V30 40560 H 3762.37 -5.5113 -0.309733 0
M  V30 40561 H 3762.84 -4.17707 -1.35712 0
M  V30 40562 H 3763.45 -4.2414 0.313839 0
M  V30 40563 N 3761.76 -0.432379 -1.51553 0
M  V30 40564 C 3763.01 0.135945 -2.02344 0
M  V30 40565 C 3763.34 1.42792 -1.31621 0
M  V30 40566 O 3762.62 1.89696 -0.429603 0
M  V30 40567 C 3762.9 0.359802 -3.58298 0
M  V30 40568 C 3762.75 -0.950476 -4.39643 0
M  V30 40569 C 3764.07 1.13177 -4.25299 0
M  V30 40570 H 3761.19 0.0479332 -0.73544 0
M  V30 40571 H 3763.83 -0.570405 -1.81236 0
M  V30 40572 H 3761.98 0.961481 -3.76414 0
M  V30 40573 H 3763.66 -1.58576 -4.33188 0
M  V30 40574 H 3761.9 -1.55621 -4.04925 0
M  V30 40575 H 3762.57 -0.747948 -5.46909 0
M  V30 40576 H 3765.05 0.622158 -4.11422 0
M  V30 40577 H 3763.92 1.25716 -5.3431 0
M  V30 40578 H 3764.18 2.15856 -3.85822 0
M  V30 40579 N 3763.24 1.56749 -0.163565 0
M  V30 40580 C 3764.17 2.20594 0.765532 0
M  V30 40581 C 3765.15 1.15918 1.24487 0
M  V30 40582 O 3766.34 1.4432 1.29944 0
M  V30 40583 C 3763.47 2.8406 1.99818 0
M  V30 40584 C 3762.42 3.94708 1.65499 0
M  V30 40585 C 3761.75 4.45186 2.96164 0
M  V30 40586 C 3763.05 5.1468 0.88893 0
M  V30 40587 H 3764.74 2.98489 0.233378 0
M  V30 40588 H 3762.29 1.43573 0.11081 0
M  V30 40589 H 3764.24 3.27397 2.6531 0
M  V30 40590 H 3762.97 2.03522 2.55434 0
M  V30 40591 H 3761.62 3.52015 1.02378 0
M  V30 40592 H 3761.27 3.61449 3.49805 0
M  V30 40593 H 3760.97 5.19827 2.73958 0
M  V30 40594 H 3762.5 4.91204 3.62699 0
M  V30 40595 H 3763.91 5.54757 1.44628 0
M  V30 40596 H 3762.31 5.95189 0.766198 0
M  V30 40597 H 3763.38 4.84761 -0.11623 0
M  V30 40598 N 3764.72 -0.110185 1.57214 0
M  V30 40599 C 3765.95 -0.834263 1.89881 0
M  V30 40600 C 3766.37 -1.72222 0.756377 0
M  V30 40601 O 3765.73 -1.78921 -0.292736 0
M  V30 40602 C 3765.78 -1.63623 3.21341 0
M  V30 40603 O 3764.88 -2.74393 3.07867 0
M  V30 40604 H 3764.22 -0.23016 0.622834 0
M  V30 40605 H 3766.75 -0.0899367 2.04402 0
M  V30 40606 H 3766.76 -2.02363 3.54279 0
M  V30 40607 H 3765.44 -0.98445 4.04081 0
M  V30 40608 H 3764.01 -2.38792 2.86414 0
M  V30 40609 N 3766.2 -1.52935 -0.38061 0
M  V30 40610 C 3767.15 -1.7469 -1.46518 0
M  V30 40611 C 3768.13 -0.601114 -1.4925 0
M  V30 40612 O 3769.32 -0.859252 -1.54745 0
M  V30 40613 C 3766.45 -1.92673 -2.84134 0
M  V30 40614 C 3765.54 -3.13209 -2.85939 0
M  V30 40615 N 3765.93 -4.35403 -2.57405 0
M  V30 40616 C 3764.23 -3.13625 -3.17105 0
M  V30 40617 C 3764.93 -5.17058 -2.66507 0
M  V30 40618 N 3763.91 -4.52931 -3.0059 0
M  V30 40619 H 3767.71 -2.66787 -1.23297 0
M  V30 40620 H 3765.22 -1.51356 -0.588649 0
M  V30 40621 H 3767.22 -2.06382 -3.62232 0
M  V30 40622 H 3765.88 -1.01795 -3.08331 0
M  V30 40623 H 3766.89 -4.63393 -2.31273 0
M  V30 40624 H 3763.57 -2.32586 -3.46713 0
M  V30 40625 H 3764.96 -6.24488 -2.4792 0
M  V30 40626 N 3767.68 0.639548 -1.4404 0
M  V30 40627 C 3768.92 1.39649 -1.46091 0
M  V30 40628 C 3769.25 1.94785 -0.0914945 0
M  V30 40629 O 3768.52 1.7527 0.875066 0
M  V30 40630 H 3767.1 0.518326 -0.53791 0
M  V30 40631 H 3769.76 0.753334 -1.79752 0
M  V30 40632 H 3768.85 2.23203 -2.18144 0
M  V30 40633 N 3769.15 1.30798 0.879184 0
M  V30 40634 C 3770.08 1.2025 2.00156 0
M  V30 40635 C 3771.07 0.0917989 1.69852 0
M  V30 40636 O 3772.25 0.274826 1.92246 0
M  V30 40637 C 3769.38 0.899531 3.35449 0
M  V30 40638 C 3768.33 1.96879 3.8003 0
M  V30 40639 C 3767.66 1.5187 5.12679 0
M  V30 40640 C 3768.96 3.38068 3.9813 0
M  V30 40641 H 3770.65 2.14148 2.09239 0
M  V30 40642 H 3768.2 1.03098 1.00533 0
M  V30 40643 H 3770.15 0.812372 4.13495 0
M  V30 40644 H 3768.88 -0.0751316 3.26514 0
M  V30 40645 H 3767.54 2.04569 3.04216 0
M  V30 40646 H 3767.18 0.532151 5.00177 0
M  V30 40647 H 3766.88 2.23395 5.43478 0
M  V30 40648 H 3768.41 1.44544 5.93245 0
M  V30 40649 H 3769.82 3.33105 4.66599 0
M  V30 40650 H 3768.22 4.0773 4.40314 0
M  V30 40651 H 3769.29 3.79532 3.01801 0
M  V30 40652 N 3770.63 -1.09229 1.13608 0
M  V30 40653 C 3772.05 -1.33495 0.874713 0
M  V30 40654 C 3772.25 -1.95485 -0.488653 0
M  V30 40655 O 3771.31 -2.20251 -1.23474 0
M  V30 40656 C 3772.62 -2.24465 2.0009 0
M  V30 40657 C 3774.17 -2.37968 2.03323 0
M  V30 40658 C 3774.64 -3.32274 3.15211 0
M  V30 40659 N 3776.13 -3.39848 3.14734 0
M  V30 40660 C 3776.87 -4.12826 3.97948 0
M  V30 40661 N 3776.36 -4.88583 4.91181 0
M  V30 40662 N 3778.16 -4.08571 3.86039 0
M  V30 40663 H 3770.31 -0.673674 2.01433 0
M  V30 40664 H 3772.57 -0.359319 0.877265 0
M  V30 40665 H 3772.28 -1.86146 2.984 0
M  V30 40666 H 3772.15 -3.24868 1.91679 0
M  V30 40667 H 3774.54 -2.75549 1.05625 0
M  V30 40668 H 3774.62 -1.37336 2.15806 0
M  V30 40669 H 3774.26 -2.95416 4.13149 0
M  V30 40670 H 3774.19 -4.32815 2.99965 0
M  V30 40671 H 3776.68 -2.85832 2.47201 0
M  V30 40672 H 3777 -5.41704 5.51159 0
M  V30 40673 H 3775.34 -4.87664 4.95185 0
M  V30 40674 H 3778.53 -3.48488 3.12528 0
M  V30 40675 H 3778.71 -4.65183 4.51119 0
M  V30 40676 N 3772.11 -0.929901 -1.27242 0
M  V30 40677 C 3773.34 -0.587312 -1.98911 0
M  V30 40678 C 3773.76 0.828138 -1.68889 0
M  V30 40679 O 3773.12 1.55605 -0.930422 0
M  V30 40680 C 3773.17 -0.822461 -3.51095 0
M  V30 40681 O 3772.27 0.110896 -4.12251 0
M  V30 40682 H 3771.61 -0.225878 -0.6244 0
M  V30 40683 H 3774.14 -1.24975 -1.61995 0
M  V30 40684 H 3774.15 -0.738895 -4.01253 0
M  V30 40685 H 3772.83 -1.85423 -3.72278 0
M  V30 40686 H 3771.4 -0.0227709 -3.72893 0
M  V30 40687 N 3773.59 1.41416 -0.695653 0
M  V30 40688 C 3774.84 2.0083 -0.226206 0
M  V30 40689 C 3775.16 1.55373 1.17831 0
M  V30 40690 O 3774.43 0.784394 1.79511 0
M  V30 40691 H 3773.01 0.742635 -0.0806402 0
M  V30 40692 H 3775.67 1.7304 -0.89683 0
M  V30 40693 H 3774.77 3.11147 -0.243698 0
M  V30 40694 N 3775.07 0.44041 1.51321 0
M  V30 40695 C 3776.32 -0.12478 2.01714 0
M  V30 40696 C 3776.64 -1.42943 1.32636 0
M  V30 40697 O 3775.91 -1.90377 0.461882 0
M  V30 40698 H 3774.49 -0.0491029 0.745384 0
M  V30 40699 H 3777.15 0.58382 1.8595 0
M  V30 40700 H 3776.24 -0.298475 3.10669 0
M  V30 40701 N 3776.55 -1.5666 0.171876 0
M  V30 40702 C 3777.79 -1.96511 -0.472 0
M  V30 40703 C 3778.11 -1.05896 -1.63741 0
M  V30 40704 O 3777.38 -0.125431 -1.95498 0
M  V30 40705 H 3775.96 -0.725638 -0.177364 0
M  V30 40706 H 3778.63 -1.93248 0.253189 0
M  V30 40707 H 3777.72 -3.00816 -0.83164 0
M  V30 40708 N 3778.02 0.101846 -1.57271 0
M  V30 40709 C 3779.27 0.807763 -1.86019 0
M  V30 40710 C 3779.6 1.78709 -0.760055 0
M  V30 40711 O 3778.88 1.93104 0.232593 0
M  V30 40712 C 3779.16 1.5425 -3.25391 0
M  V30 40713 C 3779.01 0.581615 -4.46024 0
M  V30 40714 C 3780.33 2.49467 -3.62566 0
M  V30 40715 H 3777.45 0.292198 -0.676601 0
M  V30 40716 H 3780.09 0.0715527 -1.89865 0
M  V30 40717 H 3778.24 2.17007 -3.22243 0
M  V30 40718 H 3779.92 -0.038434 -4.61284 0
M  V30 40719 H 3778.16 -0.105541 -4.33672 0
M  V30 40720 H 3778.83 1.1327 -5.40253 0
M  V30 40721 H 3781.31 1.96806 -3.66615 0
M  V30 40722 H 3780.18 2.97897 -4.6103 0
M  V30 40723 H 3780.44 3.32918 -2.90891 0
M  V30 40724 N 3779.5 1.53135 0.372494 0
M  V30 40725 C 3780.75 1.68648 1.11366 0
M  V30 40726 C 3781.07 0.437309 1.90033 0
M  V30 40727 O 3780.34 -0.54856 1.88063 0
M  V30 40728 H 3778.92 0.621703 0.414118 0
M  V30 40729 H 3781.58 1.90303 0.420786 0
M  V30 40730 H 3780.68 2.54444 1.80734 0
M  V30 40731 N 3780.98 -0.6319 1.44377 0
M  V30 40732 C 3782.26 -1.39022 1.37595 0
M  V30 40733 C 3782.64 -2.11072 0.0342827 0
M  V30 40734 O 3781.98 -2.0627 -0.9831 0
M  V30 40735 C 3782.19 -2.35727 2.57359 0
M  V30 40736 C 3783.54 -2.99082 3.01389 0
M  V30 40737 O 3784.57 -2.46053 2.57559 0
M  V30 40738 O 3783.43 -3.95278 3.77382 0
M  V30 40739 H 3780.52 -0.622157 0.544839 0
M  V30 40740 H 3783.07 -0.65702 1.56465 0
M  V30 40741 H 3781.84 -1.81581 3.46618 0
M  V30 40742 H 3781.46 -3.16465 2.40698 0
M  V30 40743 N 3782.46 -1.31262 -0.872235 0
M  V30 40744 C 3783.7 -1.20997 -1.6275 0
M  V30 40745 C 3784.04 0.231908 -1.9281 0
M  V30 40746 O 3783.31 1.1642 -1.5581 0
M  V30 40747 C 3783.59 -2.05195 -2.95917 0
M  V30 40748 C 3783.45 -3.5767 -2.72749 0
M  V30 40749 C 3784.77 -1.8996 -3.96993 0
M  V30 40750 H 3781.89 -0.440899 -0.590573 0
M  V30 40751 H 3784.53 -1.61029 -1.00845 0
M  V30 40752 H 3782.68 -1.71184 -3.48753 0
M  V30 40753 H 3784.35 -4.01807 -2.26604 0
M  V30 40754 H 3782.59 -3.81214 -2.07022 0
M  V30 40755 H 3783.26 -4.11888 -3.67494 0
M  V30 40756 H 3785.74 -2.1972 -3.53359 0
M  V30 40757 H 3784.62 -2.51178 -4.88058 0
M  V30 40758 H 3784.88 -0.862267 -4.3361 0
M  V30 40759 N 3783.94 1.08625 -1.14186 0
M  V30 40760 C 3784.87 2.17499 -0.849493 0
M  V30 40761 C 3785.85 1.68983 0.194587 0
M  V30 40762 O 3787.03 1.94131 0.0517416 0
M  V30 40763 C 3784.16 3.45788 -0.323746 0
M  V30 40764 C 3783.12 4.07683 -1.30302 0
M  V30 40765 C 3782.44 5.30896 -0.636669 0
M  V30 40766 C 3783.74 4.49224 -2.66449 0
M  V30 40767 H 3785.44 2.42214 -1.75991 0
M  V30 40768 H 3782.98 1.16411 -0.847616 0
M  V30 40769 H 3784.93 4.21265 -0.106828 0
M  V30 40770 H 3783.66 3.20621 0.622093 0
M  V30 40771 H 3782.32 3.34235 -1.50607 0
M  V30 40772 H 3781.97 5.02013 0.314906 0
M  V30 40773 H 3781.67 5.73263 -1.29008 0
M  V30 40774 H 3783.19 6.0909 -0.429224 0
M  V30 40775 H 3784.6 5.15888 -2.50064 0
M  V30 40776 H 3783 5.02502 -3.28042 0
M  V30 40777 H 3784.07 3.61221 -3.23493 0
M  V30 40778 N 3785.41 0.936635 1.26747 0
M  V30 40779 C 3786.83 0.638243 1.46283 0
M  V30 40780 C 3787.03 -0.809827 1.8451 0
M  V30 40781 O 3786.09 -1.5869 1.96402 0
M  V30 40782 C 3787.4 1.59577 2.54864 0
M  V30 40783 C 3788.95 1.60497 2.68718 0
M  V30 40784 C 3789.42 2.54969 3.80466 0
M  V30 40785 N 3790.91 2.53228 3.87853 0
M  V30 40786 C 3791.65 3.23013 4.73762 0
M  V30 40787 N 3791.14 4.02208 5.64093 0
M  V30 40788 N 3792.94 3.11987 4.67568 0
M  V30 40789 H 3785.09 1.87269 1.00221 0
M  V30 40790 H 3787.35 0.804511 0.501464 0
M  V30 40791 H 3787.06 2.62924 2.3359 0
M  V30 40792 H 3786.93 1.34433 3.52431 0
M  V30 40793 H 3789.32 0.57878 2.89369 0
M  V30 40794 H 3789.4 1.89694 1.7161 0
M  V30 40795 H 3789.04 3.57704 3.60569 0
M  V30 40796 H 3788.97 2.23065 4.77022 0
M  V30 40797 H 3791.46 1.95719 3.23268 0
M  V30 40798 H 3791.78 4.5242 6.26527 0
M  V30 40799 H 3790.12 4.0631 5.63859 0
M  V30 40800 H 3793.31 2.49603 3.96 0
M  V30 40801 H 3793.49 3.66642 5.34301 0
M  V30 40802 N 3786.89 -1.41045 0.703143 0
M  V30 40803 C 3787.84 -2.30761 0.0426172 0
M  V30 40804 C 3788.81 -1.47519 -0.76338 0
M  V30 40805 O 3789.99 -1.76288 -0.729869 0
M  V30 40806 C 3787.13 -3.33631 -0.882295 0
M  V30 40807 C 3786.25 -4.31948 -0.0671039 0
M  V30 40808 C 3785.38 -5.21886 -0.990351 0
M  V30 40809 C 3784.42 -6.11868 -0.168514 0
M  V30 40810 N 3783.56 -6.94265 -1.04597 0
M  V30 40811 H 3788.4 -2.86684 0.813414 0
M  V30 40812 H 3785.94 -1.41188 0.412829 0
M  V30 40813 H 3787.89 -3.9183 -1.43266 0
M  V30 40814 H 3786.52 -2.7924 -1.61941 0
M  V30 40815 H 3785.58 -3.75634 0.600285 0
M  V30 40816 H 3786.89 -4.95536 0.569711 0
M  V30 40817 H 3786.04 -5.84956 -1.60969 0
M  V30 40818 H 3784.78 -4.58543 -1.66101 0
M  V30 40819 H 3783.79 -5.4784 0.463842 0
M  V30 40820 H 3785.01 -6.77268 0.498459 0
M  V30 40821 H 3782.96 -6.33522 -1.70251 0
M  V30 40822 H 3782.87 -7.54569 -0.464903 0
M  V30 40823 H 3784.14 -7.61796 -1.65188 0
M  V30 40824 N 3788.37 -0.448429 -1.51086 0
M  V30 40825 C 3789.78 0.0120936 -1.86696 0
M  V30 40826 C 3790.13 1.40947 -1.36486 0
M  V30 40827 O 3789.26 2.04061 -0.720276 0
M  V30 40828 C 3789.85 0.0287218 -3.38788 0
M  V30 40829 C 3788.41 0.433692 -3.73893 0
M  V30 40830 C 3787.56 -0.36641 -2.74869 0
M  V30 40831 H 3790.51 -0.663769 -1.44152 0
M  V30 40832 H 3790.53 0.83585 -3.71206 0
M  V30 40833 H 3790.04 -0.988434 -3.75302 0
M  V30 40834 H 3788.14 1.45604 -3.42973 0
M  V30 40835 H 3788.26 0.150784 -4.78863 0
M  V30 40836 H 3786.62 0.176817 -2.54086 0
M  V30 40837 H 3787.4 -1.38265 -3.14226 0
M  V30 40838 N 3789.85 1.56567 -0.180181 0
M  V30 40839 C 3791.07 2.01966 0.471657 0
M  V30 40840 C 3791.5 1.05957 1.55418 0
M  V30 40841 O 3790.86 0.0405626 1.81255 0
M  V30 40842 C 3790.9 3.4591 1.01877 0
M  V30 40843 O 3790.01 3.52992 2.13239 0
M  V30 40844 H 3789.35 0.654493 0.111958 0
M  V30 40845 H 3791.88 2.02582 -0.286678 0
M  V30 40846 H 3791.89 3.85397 1.33915 0
M  V30 40847 H 3790.56 4.15284 0.226226 0
M  V30 40848 H 3789.14 3.2537 1.82178 0
M  V30 40849 N 3791.33 -0.0935042 1.57322 0
M  V30 40850 C 3792.27 -1.11332 2.02173 0
M  V30 40851 C 3793.24 -1.39711 0.89833 0
M  V30 40852 O 3794.43 -1.51147 1.16444 0
M  V30 40853 C 3791.57 -2.42791 2.45248 0
M  V30 40854 C 3790.68 -2.2113 3.71114 0
M  V30 40855 C 3789.82 -3.45998 4.03062 0
M  V30 40856 C 3788.86 -3.19605 5.22033 0
M  V30 40857 N 3787.99 -4.36745 5.49726 0
M  V30 40858 H 3792.83 -0.723873 2.89075 0
M  V30 40859 H 3790.37 -0.345894 1.42975 0
M  V30 40860 H 3792.33 -3.19513 2.68267 0
M  V30 40861 H 3790.96 -2.7958 1.61353 0
M  V30 40862 H 3790.01 -1.35202 3.55562 0
M  V30 40863 H 3791.32 -1.9762 4.57982 0
M  V30 40864 H 3790.48 -4.31127 4.26866 0
M  V30 40865 H 3789.21 -3.72563 3.14719 0
M  V30 40866 H 3788.22 -2.3287 4.98048 0
M  V30 40867 H 3789.44 -2.94385 6.11976 0
M  V30 40868 H 3787.39 -4.63383 4.64341 0
M  V30 40869 H 3787.31 -4.16432 6.30968 0
M  V30 40870 H 3788.58 -5.22934 5.78066 0
M  V30 40871 N 3792.8 -1.5333 -0.364368 0
M  V30 40872 C 3793.71 -1.82815 -1.47023 0
M  V30 40873 C 3794.73 -0.716626 -1.58557 0
M  V30 40874 O 3795.91 -1.00681 -1.74429 0
M  V30 40875 C 3792.97 -2.013 -2.82275 0
M  V30 40876 C 3792.03 -3.25198 -2.80258 0
M  V30 40877 C 3791.27 -3.42792 -4.09059 0
M  V30 40878 O 3791.49 -2.64657 -5.05285 0
M  V30 40879 O 3790.42 -4.36151 -4.14796 0
M  V30 40880 H 3794.25 -2.76769 -1.25031 0
M  V30 40881 H 3791.83 -1.38725 -0.554583 0
M  V30 40882 H 3793.72 -2.15024 -3.62412 0
M  V30 40883 H 3792.39 -1.10536 -3.04242 0
M  V30 40884 H 3791.3 -3.16897 -1.98815 0
M  V30 40885 H 3792.63 -4.15889 -2.63244 0
M  V30 40886 N 3794.28 0.624234 -1.4471 0
M  V30 40887 C 3795.19 1.76444 -1.54611 0
M  V30 40888 C 3796.21 1.68567 -0.4314 0
M  V30 40889 O 3797.38 1.89221 -0.689733 0
M  V30 40890 C 3794.45 3.12854 -1.4941 0
M  V30 40891 C 3793.51 3.3231 -2.71787 0
M  V30 40892 C 3792.74 4.62212 -2.66825 0
M  V30 40893 O 3792.97 5.43464 -1.73214 0
M  V30 40894 O 3791.9 4.84021 -3.57781 0
M  V30 40895 H 3795.73 1.71044 -2.50954 0
M  V30 40896 H 3793.31 0.786304 -1.27034 0
M  V30 40897 H 3795.19 3.94157 -1.49057 0
M  V30 40898 H 3793.87 3.18782 -0.562135 0
M  V30 40899 H 3792.78 2.50659 -2.77706 0
M  V30 40900 H 3794.11 3.31249 -3.64054 0
M  V30 40901 N 3795.76 1.31723 0.865262 0
M  V30 40902 C 3797.17 1.19503 1.43443 0
M  V30 40903 C 3797.52 -0.196653 1.95212 0
M  V30 40904 O 3796.65 -1.09472 1.86668 0
M  V30 40905 C 3797.24 2.16338 2.60736 0
M  V30 40906 C 3795.8 2.08036 3.13684 0
M  V30 40907 C 3794.95 2.05301 1.86405 0
M  V30 40908 H 3797.9 1.43706 0.673375 0
M  V30 40909 H 3797.92 1.75572 3.37572 0
M  V30 40910 H 3797.43 3.17616 2.23028 0
M  V30 40911 H 3795.53 1.09969 3.56002 0
M  V30 40912 H 3795.65 2.97364 3.75648 0
M  V30 40913 H 3794.01 1.50384 2.05564 0
M  V30 40914 H 3794.79 3.08343 1.50928 0
M  V30 40915 N 3797.24 -1.08018 1.14761 0
M  V30 40916 C 3798.17 -2.17046 0.861016 0
M  V30 40917 C 3799.15 -1.69084 -0.185623 0
M  V30 40918 O 3800.33 -1.94156 -0.0414456 0
M  V30 40919 C 3797.46 -3.45611 0.342079 0
M  V30 40920 C 3796.42 -4.06986 1.32462 0
M  V30 40921 C 3795.74 -5.30551 0.664814 0
M  V30 40922 C 3797.04 -4.47805 2.68827 0
M  V30 40923 H 3798.74 -2.41277 1.77273 0
M  V30 40924 H 3796.28 -1.1596 0.853778 0
M  V30 40925 H 3798.24 -4.21202 0.129167 0
M  V30 40926 H 3796.96 -3.20946 -0.605081 0
M  V30 40927 H 3795.62 -3.33432 1.52377 0
M  V30 40928 H 3795.27 -5.02173 -0.288279 0
M  V30 40929 H 3794.97 -5.72571 1.32046 0
M  V30 40930 H 3796.49 -6.08853 0.461519 0
M  V30 40931 H 3797.91 -5.14555 2.52797 0
M  V30 40932 H 3796.3 -5.00755 3.30702 0
M  V30 40933 H 3797.37 -3.595 3.25404 0
M  V30 40934 N 3798.72 -0.943344 -1.26249 0
M  V30 40935 C 3799.96 -0.592066 -1.93651 0
M  V30 40936 C 3800.29 0.869203 -1.73997 0
M  V30 40937 O 3799.55 1.63748 -1.07168 0
M  V30 40938 C 3799.85 -0.883228 -3.46315 0
M  V30 40939 C 3799.51 -2.32872 -3.8611 0
M  V30 40940 C 3798.17 -2.72386 -3.96685 0
M  V30 40941 C 3800.53 -3.26799 -4.06019 0
M  V30 40942 C 3797.85 -4.04918 -4.24568 0
M  V30 40943 C 3800.21 -4.58931 -4.35391 0
M  V30 40944 C 3798.87 -4.98256 -4.44181 0
M  V30 40945 H 3798.14 -0.216652 -0.70862 0
M  V30 40946 H 3800.79 -1.19026 -1.50017 0
M  V30 40947 H 3799.09 -0.202521 -3.91276 0
M  V30 40948 H 3800.79 -0.590177 -3.96633 0
M  V30 40949 H 3797.38 -2.01223 -3.78427 0
M  V30 40950 H 3801.56 -2.97467 -3.97275 0
M  V30 40951 H 3796.82 -4.35047 -4.29586 0
M  V30 40952 H 3800.99 -5.317 -4.49742 0
M  V30 40953 H 3798.62 -6.00979 -4.65541 0
M  V30 40954 N 3800.2 1.4067 -0.710613 0
M  V30 40955 C 3801.16 2.29112 -0.0636391 0
M  V30 40956 C 3802.16 1.45124 0.692511 0
M  V30 40957 O 3803.35 1.66096 0.525155 0
M  V30 40958 C 3800.48 3.28254 0.919897 0
M  V30 40959 H 3801.67 2.87822 -0.842527 0
M  V30 40960 H 3799.23 1.48908 -0.474974 0
M  V30 40961 H 3799.96 2.74553 1.72602 0
M  V30 40962 H 3799.75 3.90248 0.380641 0
M  V30 40963 H 3801.24 3.94491 1.36991 0
M  V30 40964 N 3801.67 0.456435 1.50846 0
M  V30 40965 C 3802.64 -0.33384 2.26756 0
M  V30 40966 C 3803.64 -0.933224 1.30949 0
M  V30 40967 O 3804.83 -0.804689 1.545 0
M  V30 40968 C 3801.96 -1.47412 3.0738 0
M  V30 40969 H 3803.15 0.331686 2.9806 0
M  V30 40970 H 3800.7 0.210095 1.54882 0
M  V30 40971 H 3801.44 -2.17513 2.40538 0
M  V30 40972 H 3801.22 -1.05029 3.77771 0
M  V30 40973 H 3802.71 -2.03197 3.6483 0
M  V30 40974 N 3803.15 -1.56469 0.188482 0
M  V30 40975 C 3804.57 -1.58719 -0.16746 0
M  V30 40976 C 3804.77 -1.20444 -1.61541 0
M  V30 40977 O 3803.82 -0.924082 -2.34983 0
M  V30 40978 C 3805.14 -3.00424 0.128907 0
M  V30 40979 C 3806.68 -3.12925 0.0684851 0
M  V30 40980 C 3807.16 -4.56751 0.338072 0
M  V30 40981 N 3808.65 -4.62313 0.286454 0
M  V30 40982 C 3809.39 -5.71479 0.468987 0
M  V30 40983 N 3808.88 -6.89137 0.71151 0
M  V30 40984 N 3810.67 -5.60648 0.403701 0
M  V30 40985 H 3802.83 -1.79631 1.13342 0
M  V30 40986 H 3805.09 -0.833361 0.451899 0
M  V30 40987 H 3804.79 -3.32964 1.13261 0
M  V30 40988 H 3804.67 -3.72844 -0.571579 0
M  V30 40989 H 3807.06 -2.80201 -0.925815 0
M  V30 40990 H 3807.14 -2.42904 0.801946 0
M  V30 40991 H 3806.78 -4.90186 1.32966 0
M  V30 40992 H 3806.71 -5.24953 -0.416201 0
M  V30 40993 H 3809.2 -3.77753 0.105352 0
M  V30 40994 H 3809.51 -7.68224 0.839778 0
M  V30 40995 H 3807.86 -6.9096 0.748326 0
M  V30 40996 H 3811.05 -4.67607 0.214698 0
M  V30 40997 H 3811.22 -6.45667 0.549375 0
M  V30 40998 N 3804.63 0.0851597 -1.5737 0
M  V30 40999 C 3805.88 0.787987 -1.86865 0
M  V30 41000 C 3806.21 1.77893 -0.778967 0
M  V30 41001 O 3805.48 1.9334 0.212099 0
M  V30 41002 C 3805.77 1.5079 -3.27008 0
M  V30 41003 C 3805.62 0.534275 -4.46616 0
M  V30 41004 C 3806.94 2.45608 -3.65191 0
M  V30 41005 H 3804.06 0.285005 -0.679662 0
M  V30 41006 H 3806.7 0.0514109 -1.8993 0
M  V30 41007 H 3804.85 2.13577 -3.24526 0
M  V30 41008 H 3806.52 -0.0873572 -4.61217 0
M  V30 41009 H 3804.76 -0.151532 -4.33535 0
M  V30 41010 H 3805.44 1.07534 -5.41424 0
M  V30 41011 H 3807.91 1.92907 -3.68682 0
M  V30 41012 H 3806.79 2.92991 -4.64163 0
M  V30 41013 H 3807.05 3.29814 -2.94406 0
M  V30 41014 N 3806.11 1.53521 0.356231 0
M  V30 41015 C 3807.36 1.69374 1.09523 0
M  V30 41016 C 3807.67 0.456945 1.90188 0
M  V30 41017 O 3808.88 0.496188 2.66927 0
M  V30 41018 C 3807.33 2.99454 1.99637 0
M  V30 41019 C 3806.94 4.30428 1.2424 0
M  V30 41020 C 3808.68 3.24674 2.73472 0
M  V30 41021 C 3806.59 5.51591 2.13311 0
M  V30 41022 H 3805.52 0.631104 0.412583 0
M  V30 41023 H 3808.17 1.80022 0.355571 0
M  V30 41024 H 3806.55 2.82632 2.77372 0
M  V30 41025 H 3807.73 4.57913 0.515042 0
M  V30 41026 H 3806.04 4.11724 0.622282 0
M  V30 41027 H 3808.64 4.12383 3.40359 0
M  V30 41028 H 3808.98 2.41136 3.39351 0
M  V30 41029 H 3809.52 3.42214 2.02817 0
M  V30 41030 H 3806.25 6.37635 1.51994 0
M  V30 41031 H 3805.77 5.28373 2.83871 0
M  V30 41032 H 3807.45 5.86743 2.72656 0
M  V30 41033 N 3807.59 -0.616551 1.45039 0
M  V30 41034 C 3808.82 -1.40061 1.51876 0
M  V30 41035 C 3809.22 -1.88627 0.147138 0
M  V30 41036 O 3808.57 -1.6233 -0.859921 0
M  V30 41037 C 3808.63 -2.64545 2.43426 0
M  V30 41038 C 3808.29 -2.37678 3.90331 0
M  V30 41039 C 3809.29 -1.98597 4.80474 0
M  V30 41040 C 3806.97 -2.50867 4.35168 0
M  V30 41041 C 3808.97 -1.73053 6.13459 0
M  V30 41042 C 3806.66 -2.24937 5.68196 0
M  V30 41043 C 3807.65 -1.8609 6.5716 0
M  V30 41044 O 3807.34 -1.60458 7.87724 0
M  V30 41045 H 3807.07 -0.435465 0.517056 0
M  V30 41046 H 3809.63 -0.759866 1.90828 0
M  V30 41047 H 3807.86 -3.31308 1.99429 0
M  V30 41048 H 3809.55 -3.26574 2.41048 0
M  V30 41049 H 3810.31 -1.87951 4.47101 0
M  V30 41050 H 3806.19 -2.80072 3.6617 0
M  V30 41051 H 3809.74 -1.42657 6.82858 0
M  V30 41052 H 3805.63 -2.35197 6.01126 0
M  V30 41053 H 3806.4 -1.74584 7.99664 0
M  V30 41054 N 3809.06 -1.3218 -0.858264 0
M  V30 41055 C 3810.34 -1.13157 -1.59546 0
M  V30 41056 C 3810.72 0.309402 -2.0882 0
M  V30 41057 O 3810.07 1.30543 -1.87538 0
M  V30 41058 C 3810.28 -2.15602 -2.74439 0
M  V30 41059 C 3811.63 -2.48743 -3.4411 0
M  V30 41060 O 3812.65 -2.14119 -2.8466 0
M  V30 41061 O 3811.51 -3.08082 -4.51384 0
M  V30 41062 H 3808.6 -0.436417 -0.702474 0
M  V30 41063 H 3811.15 -1.43699 -0.902706 0
M  V30 41064 H 3809.92 -3.12478 -2.35528 0
M  V30 41065 H 3809.54 -1.86034 -3.51393 0
M  V30 41066 N 3810.54 1.07407 -1.15332 0
M  V30 41067 C 3811.47 2.16586 -0.872514 0
M  V30 41068 C 3812.45 1.6918 0.176653 0
M  V30 41069 O 3813.64 1.94175 0.0311485 0
M  V30 41070 C 3810.77 3.45425 -0.360403 0
M  V30 41071 C 3809.72 4.06278 -1.34618 0
M  V30 41072 C 3809.05 5.30191 -0.692941 0
M  V30 41073 C 3810.35 4.46373 -2.71198 0
M  V30 41074 H 3812.04 2.40333 -1.7855 0
M  V30 41075 H 3809.59 1.15505 -0.859915 0
M  V30 41076 H 3811.54 4.21128 -0.151503 0
M  V30 41077 H 3810.26 3.21262 0.588052 0
M  V30 41078 H 3808.92 3.32619 -1.54143 0
M  V30 41079 H 3808.57 5.02319 0.261643 0
M  V30 41080 H 3808.27 5.71863 -1.35081 0
M  V30 41081 H 3809.8 6.086 -0.493802 0
M  V30 41082 H 3811.21 5.13207 -2.55522 0
M  V30 41083 H 3809.61 4.98994 -3.33353 0
M  V30 41084 H 3810.68 3.57769 -3.27306 0
M  V30 41085 N 3812.02 0.950026 1.25747 0
M  V30 41086 C 3812.95 0.484507 2.28418 0
M  V30 41087 C 3813.93 -0.466784 1.6357 0
M  V30 41088 O 3815.12 -0.366733 1.90706 0
M  V30 41089 C 3812.25 -0.242855 3.4645 0
M  V30 41090 C 3811.2 0.622731 4.23445 0
M  V30 41091 C 3810.53 -0.235105 5.34183 0
M  V30 41092 C 3811.83 1.89853 4.86573 0
M  V30 41093 H 3813.52 1.34262 2.67608 0
M  V30 41094 H 3811.07 0.647037 1.28645 0
M  V30 41095 H 3813.02 -0.57962 4.17395 0
M  V30 41096 H 3811.74 -1.13518 3.06237 0
M  V30 41097 H 3810.4 0.942515 3.54277 0
M  V30 41098 H 3810.05 -1.12705 4.90211 0
M  V30 41099 H 3809.75 0.340712 5.86611 0
M  V30 41100 H 3811.27 -0.566941 6.07962 0
M  V30 41101 H 3812.69 1.62846 5.49685 0
M  V30 41102 H 3811.08 2.41963 5.49157 0
M  V30 41103 H 3812.15 2.60448 4.09017 0
M  V30 41104 N 3813.5 -1.40291 0.718063 0
M  V30 41105 C 3814.74 -2.00842 0.258639 0
M  V30 41106 C 3815.07 -1.5694 -1.14891 0
M  V30 41107 O 3814.33 -0.781638 -1.79413 0
M  V30 41108 C 3814.63 -3.56226 0.289436 0
M  V30 41109 C 3814.29 -4.19719 1.64763 0
M  V30 41110 C 3812.95 -4.36776 2.01941 0
M  V30 41111 C 3815.31 -4.5511 2.54016 0
M  V30 41112 C 3812.63 -4.86508 3.27913 0
M  V30 41113 C 3814.99 -5.06243 3.79343 0
M  V30 41114 C 3813.65 -5.21509 4.16635 0
M  V30 41115 H 3812.92 -0.734931 0.0946426 0
M  V30 41116 H 3815.57 -1.67866 0.921581 0
M  V30 41117 H 3813.87 -3.89125 -0.457078 0
M  V30 41118 H 3815.57 -4.00912 -0.0839128 0
M  V30 41119 H 3812.16 -4.06833 1.34853 0
M  V30 41120 H 3816.34 -4.41566 2.26568 0
M  V30 41121 H 3811.6 -4.96511 3.56772 0
M  V30 41122 H 3815.77 -5.32604 4.48672 0
M  V30 41123 H 3813.4 -5.59806 5.14316 0
M  V30 41124 N 3814.98 -0.464428 -1.50602 0
M  V30 41125 C 3816.22 0.0928564 -2.02287 0
M  V30 41126 C 3816.55 1.40319 -1.34688 0
M  V30 41127 O 3815.81 1.90233 -0.459337 0
M  V30 41128 C 3816.11 0.331444 -3.5586 0
M  V30 41129 C 3815.77 -0.89637 -4.419 0
M  V30 41130 C 3814.43 -1.23302 -4.65134 0
M  V30 41131 C 3816.79 -1.71418 -4.92205 0
M  V30 41132 C 3814.11 -2.38766 -5.35917 0
M  V30 41133 C 3816.47 -2.86004 -5.64255 0
M  V30 41134 C 3815.13 -3.20092 -5.85745 0
M  V30 41135 H 3814.4 0.0339786 -0.740221 0
M  V30 41136 H 3817.05 -0.617152 -1.81283 0
M  V30 41137 H 3815.35 1.12363 -3.75342 0
M  V30 41138 H 3817.05 0.776497 -3.9341 0
M  V30 41139 H 3813.64 -0.624082 -4.24032 0
M  V30 41140 H 3817.82 -1.46728 -4.74115 0
M  V30 41141 H 3813.08 -2.65458 -5.50765 0
M  V30 41142 H 3817.25 -3.49725 -6.02217 0
M  V30 41143 H 3814.88 -4.09671 -6.4037 0
M  V30 41144 N 3816.45 1.56367 -0.196777 0
M  V30 41145 C 3817.7 1.97627 0.441549 0
M  V30 41146 C 3818.03 1.08371 1.61512 0
M  V30 41147 O 3817.28 0.123173 1.95312 0
M  V30 41148 C 3817.58 3.44754 0.942322 0
M  V30 41149 C 3817.25 4.50745 -0.118056 0
M  V30 41150 C 3815.91 4.79455 -0.409416 0
M  V30 41151 C 3818.26 5.14444 -0.836465 0
M  V30 41152 C 3815.59 5.69153 -1.42413 0
M  V30 41153 C 3817.94 6.05239 -1.84034 0
M  V30 41154 C 3816.61 6.32304 -2.13888 0
M  V30 41155 H 3815.88 0.72317 0.161574 0
M  V30 41156 H 3818.52 1.89228 -0.294096 0
M  V30 41157 H 3816.83 3.50232 1.75627 0
M  V30 41158 H 3818.53 3.74035 1.44565 0
M  V30 41159 H 3815.12 4.28434 0.119199 0
M  V30 41160 H 3819.3 4.92354 -0.624597 0
M  V30 41161 H 3814.56 5.88396 -1.66133 0
M  V30 41162 H 3818.73 6.53656 -2.40223 0
M  V30 41163 H 3816.36 7.01608 -2.92661 0
M  V30 41164 N 3817.93 -0.0768128 1.57413 0
M  V30 41165 C 3818.87 -1.12348 1.98628 0
M  V30 41166 C 3819.84 -1.37847 0.862383 0
M  V30 41167 O 3821.03 -1.51303 1.12426 0
M  V30 41168 C 3818.15 -2.46889 2.3187 0
M  V30 41169 C 3817.2 -2.37557 3.54216 0
M  V30 41170 S 3818.03 -1.7745 5.05244 0
M  V30 41171 C 3819.19 -3.13578 5.41682 0
M  V30 41172 H 3819.42 -0.772223 2.87096 0
M  V30 41173 H 3816.96 -0.285164 1.51744 0
M  V30 41174 H 3818.91 -3.24282 2.51697 0
M  V30 41175 H 3817.57 -2.79178 1.4394 0
M  V30 41176 H 3816.77 -3.36762 3.74976 0
M  V30 41177 H 3816.37 -1.68298 3.33994 0
M  V30 41178 H 3818.66 -4.09883 5.39446 0
M  V30 41179 H 3819.6 -2.97603 6.42525 0
M  V30 41180 H 3820.01 -3.13952 4.69142 0
M  V30 41181 N 3819.41 -1.53708 -0.348084 0
M  V30 41182 C 3820.66 -1.70989 -1.09045 0
M  V30 41183 C 3820.99 -0.469338 -1.88443 0
M  V30 41184 O 3820.26 0.533596 -1.87037 0
M  V30 41185 C 3820.55 -2.97061 -2.03536 0
M  V30 41186 C 3820.4 -4.31313 -1.27631 0
M  V30 41187 C 3821.72 -3.18787 -3.03418 0
M  V30 41188 H 3818.84 -0.622185 -0.395038 0
M  V30 41189 H 3821.48 -1.86373 -0.369465 0
M  V30 41190 H 3819.63 -2.84075 -2.65016 0
M  V30 41191 H 3821.3 -4.56141 -0.687999 0
M  V30 41192 H 3819.55 -4.29928 -0.578273 0
M  V30 41193 H 3820.22 -5.15695 -1.96882 0
M  V30 41194 H 3822.69 -3.31074 -2.52051 0
M  V30 41195 H 3821.57 -4.08403 -3.6674 0
M  V30 41196 H 3821.83 -2.34873 -3.74549 0
M  V30 41197 N 3820.89 0.608851 -1.45364 0
M  V30 41198 C 3822.14 1.36397 -1.48589 0
M  V30 41199 C 3822.45 1.95159 -0.131248 0
M  V30 41200 O 3823.66 2.71469 -0.0411322 0
M  V30 41201 C 3822.11 2.47066 -2.61699 0
M  V30 41202 C 3821.72 1.94722 -4.03469 0
M  V30 41203 C 3823.46 3.24087 -2.74168 0
M  V30 41204 C 3821.37 3.02865 -5.07963 0
M  V30 41205 H 3820.3 0.512655 -0.552902 0
M  V30 41206 H 3822.95 0.65268 -1.715 0
M  V30 41207 H 3821.33 3.20875 -2.32068 0
M  V30 41208 H 3822.51 1.27631 -4.42772 0
M  V30 41209 H 3820.82 1.3045 -3.95439 0
M  V30 41210 H 3823.42 4.04746 -3.49407 0
M  V30 41211 H 3823.76 3.7501 -1.80758 0
M  V30 41212 H 3824.3 2.57377 -3.03318 0
M  V30 41213 H 3821.04 2.5686 -6.03078 0
M  V30 41214 H 3820.56 3.68527 -4.73231 0
M  V30 41215 H 3822.23 3.67268 -5.32657 0
M  V30 41216 N 3822.37 1.32633 0.851242 0
M  V30 41217 C 3823.62 1.22741 1.60055 0
M  V30 41218 C 3823.93 -0.208491 1.94486 0
M  V30 41219 O 3825.13 -0.429314 2.68084 0
M  V30 41220 C 3823.59 2.1499 2.8863 0
M  V30 41221 C 3823.2 3.63681 2.61611 0
M  V30 41222 C 3824.94 2.13942 3.66646 0
M  V30 41223 C 3822.85 4.47882 3.86207 0
M  V30 41224 H 3821.78 0.455834 0.600609 0
M  V30 41225 H 3824.43 1.57617 0.939643 0
M  V30 41226 H 3822.81 1.73033 3.56196 0
M  V30 41227 H 3823.99 4.14002 2.02334 0
M  V30 41228 H 3822.3 3.66895 1.96919 0
M  V30 41229 H 3824.9 2.74086 4.59109 0
M  V30 41230 H 3825.24 1.13128 4.00634 0
M  V30 41231 H 3825.77 2.54197 3.05988 0
M  V30 41232 H 3822.51 5.49523 3.57358 0
M  V30 41233 H 3822.03 4.0231 4.44867 0
M  V30 41234 H 3823.71 4.61057 4.53912 0
M  V30 41235 N 3823.84 -1.06794 1.159 0
M  V30 41236 C 3825.09 -1.78882 0.931879 0
M  V30 41237 C 3825.41 -1.87943 -0.541937 0
M  V30 41238 O 3826.61 -2.56609 -0.886803 0
M  V30 41239 C 3825.07 -3.21482 1.61794 0
M  V30 41240 C 3824.68 -3.20605 3.12916 0
M  V30 41241 C 3826.42 -3.9814 1.47259 0
M  V30 41242 C 3824.33 -4.57893 3.74283 0
M  V30 41243 H 3823.26 -0.670436 0.34501 0
M  V30 41244 H 3825.91 -1.19825 1.38976 0
M  V30 41245 H 3824.29 -3.80767 1.08776 0
M  V30 41246 H 3825.46 -2.70931 3.72737 0
M  V30 41247 H 3823.78 -2.57445 3.27278 0
M  V30 41248 H 3826.38 -4.99616 1.90493 0
M  V30 41249 H 3826.72 -4.14167 0.420839 0
M  V30 41250 H 3827.25 -3.45364 1.97405 0
M  V30 41251 H 3823.99 -4.4707 4.79384 0
M  V30 41252 H 3823.51 -5.07781 3.19247 0
M  V30 41253 H 3825.19 -5.26856 3.75542 0
M  V30 41254 N 3825.32 -0.956681 -1.25241 0
M  V30 41255 C 3826.57 -0.61348 -1.93298 0
M  V30 41256 C 3826.9 0.84764 -1.74725 0
M  V30 41257 O 3826.18 1.60844 -1.0936 0
M  V30 41258 C 3826.46 -0.975482 -3.46636 0
M  V30 41259 C 3826.31 -2.49248 -3.74427 0
M  V30 41260 C 3827.63 -0.502025 -4.37227 0
M  V30 41261 H 3824.75 -0.224351 -0.702023 0
M  V30 41262 H 3827.39 -1.1937 -1.4782 0
M  V30 41263 H 3825.54 -0.481738 -3.85502 0
M  V30 41264 H 3827.21 -3.06015 -3.45185 0
M  V30 41265 H 3825.46 -2.92929 -3.19961 0
M  V30 41266 H 3826.13 -2.69628 -4.81669 0
M  V30 41267 H 3828.6 -0.925585 -4.05675 0
M  V30 41268 H 3827.48 -0.783991 -5.43272 0
M  V30 41269 H 3827.74 0.598005 -4.38037 0
M  V30 41270 N 3826.8 1.39908 -0.725493 0
M  V30 41271 C 3827.73 2.3331 -0.094252 0
M  V30 41272 C 3828.71 1.53415 0.734701 0
M  V30 41273 O 3829.9 1.81845 0.681615 0
M  V30 41274 C 3827.03 3.37459 0.820899 0
M  V30 41275 C 3825.98 4.2789 0.0968231 0
M  V30 41276 C 3825.31 5.22659 1.12835 0
M  V30 41277 C 3826.61 5.11536 -1.05492 0
M  V30 41278 H 3828.3 2.86347 -0.874416 0
M  V30 41279 H 3825.85 1.3768 -0.421938 0
M  V30 41280 H 3827.8 4.01745 1.27196 0
M  V30 41281 H 3826.52 2.8284 1.63307 0
M  V30 41282 H 3825.18 3.65071 -0.334518 0
M  V30 41283 H 3824.83 4.6434 1.93384 0
M  V30 41284 H 3824.53 5.84008 0.648702 0
M  V30 41285 H 3826.05 5.89822 1.57932 0
M  V30 41286 H 3827.47 5.6922 -0.682757 0
M  V30 41287 H 3825.87 5.81979 -1.46359 0
M  V30 41288 H 3826.94 4.46929 -1.88103 0
M  V30 41289 N 3828.28 0.472408 1.50353 0
M  V30 41290 C 3829.23 -0.335095 2.30174 0
M  V30 41291 C 3830.22 -0.989186 1.37519 0
M  V30 41292 O 3831.43 -0.92014 1.54704 0
M  V30 41293 H 3827.8 -0.126905 0.741215 0
M  V30 41294 H 3829.77 0.358502 2.96239 0
M  V30 41295 C 3828.52 -1.4037 3.18106 0
M  V30 41296 H 3827.84 -0.909772 3.89311 0
M  V30 41297 H 3829.28 -1.94126 3.7695 0
M  V30 41298 C 3827.74 -2.40635 2.35789 0
M  V30 41299 O 3828.27 -3.45932 2.04191 0
M  V30 41300 N 3826.48 -2.12385 1.98345 0
M  V30 41301 H 3826.03 -1.2678 2.24242 0
M  V30 41302 H 3825.98 -2.79704 1.43571 0
M  V30 41303 N 3829.76 -1.5626 0.205067 0
M  V30 41304 C 3830.69 -2.22546 -0.706776 0
M  V30 41305 C 3831.67 -1.19178 -1.2137 0
M  V30 41306 O 3832.85 -1.47715 -1.26072 0
M  V30 41307 C 3829.98 -2.89258 -1.92216 0
M  V30 41308 C 3828.94 -3.98957 -1.54975 0
M  V30 41309 C 3828.26 -4.52882 -2.84257 0
M  V30 41310 C 3829.56 -5.16856 -0.752159 0
M  V30 41311 H 3831.26 -2.99003 -0.154157 0
M  V30 41312 H 3828.8 -1.43816 -0.0727056 0
M  V30 41313 H 3830.76 -3.34316 -2.56536 0
M  V30 41314 H 3829.48 -2.10223 -2.49948 0
M  V30 41315 H 3828.14 -3.54605 -0.930093 0
M  V30 41316 H 3827.79 -3.70597 -3.40099 0
M  V30 41317 H 3827.49 -5.26908 -2.6008 0
M  V30 41318 H 3829.01 -5.00648 -3.49548 0
M  V30 41319 H 3830.43 -5.58397 -1.29868 0
M  V30 41320 H 3828.82 -5.97011 -0.608125 0
M  V30 41321 H 3829.89 -4.84282 0.244715 0
M  V30 41322 N 3831.24 0.0684638 -1.57451 0
M  V30 41323 C 3832.48 0.765823 -1.86596 0
M  V30 41324 C 3832.8 1.78573 -0.798189 0
M  V30 41325 O 3834 2.53289 -0.977586 0
M  V30 41326 C 3832.46 1.41296 -3.31004 0
M  V30 41327 C 3832.07 0.431449 -4.45918 0
M  V30 41328 C 3833.81 2.09249 -3.69344 0
M  V30 41329 C 3831.72 1.08469 -5.81368 0
M  V30 41330 H 3830.65 0.289766 -0.696097 0
M  V30 41331 H 3833.3 0.0191849 -1.8349 0
M  V30 41332 H 3831.68 2.20798 -3.28732 0
M  V30 41333 H 3832.86 -0.333993 -4.59588 0
M  V30 41334 H 3831.17 -0.143816 -4.16152 0
M  V30 41335 H 3833.77 2.58905 -4.67838 0
M  V30 41336 H 3834.11 2.89339 -2.99314 0
M  V30 41337 H 3834.64 1.36575 -3.7362 0
M  V30 41338 H 3831.38 0.324046 -6.54699 0
M  V30 41339 H 3830.9 1.82092 -5.71492 0
M  V30 41340 H 3832.58 1.60356 -6.26813 0
M  V30 41341 N 3832.71 1.5389 0.339928 0
M  V30 41342 C 3833.96 1.71311 1.07976 0
M  V30 41343 C 3834.29 0.47818 1.8853 0
M  V30 41344 O 3833.54 -0.54008 1.881 0
M  V30 41345 C 3833.84 2.93065 2.04567 0
M  V30 41346 C 3833.51 4.28518 1.40296 0
M  V30 41347 C 3832.17 4.65347 1.22497 0
M  V30 41348 C 3834.52 5.12648 0.940274 0
M  V30 41349 C 3831.85 5.83919 0.570536 0
M  V30 41350 C 3834.2 6.3189 0.299733 0
M  V30 41351 C 3832.87 6.6741 0.109457 0
M  V30 41352 H 3832.14 0.62687 0.395114 0
M  V30 41353 H 3834.78 1.88111 0.358653 0
M  V30 41354 H 3833.09 2.70883 2.83072 0
M  V30 41355 H 3834.79 3.03737 2.6181 0
M  V30 41356 H 3831.38 3.99534 1.55148 0
M  V30 41357 H 3835.56 4.84725 1.06562 0
M  V30 41358 H 3830.82 6.10012 0.411765 0
M  V30 41359 H 3834.99 6.96368 -0.0668615 0
M  V30 41360 H 3832.62 7.59149 -0.39969 0
M  V30 41361 N 3834.19 -0.601133 1.45685 0
M  V30 41362 C 3835.44 -1.35727 1.49742 0
M  V30 41363 C 3835.76 -1.94474 0.143106 0
M  V30 41364 O 3835.03 -1.77528 -0.828289 0
M  V30 41365 H 3833.61 -0.503882 0.551463 0
M  V30 41366 H 3836.27 -0.705411 1.81686 0
M  V30 41367 H 3835.37 -2.17341 2.23985 0
M  V30 41368 N 3835.67 -1.33083 -0.844196 0
M  V30 41369 C 3836.92 -1.24422 -1.60147 0
M  V30 41370 C 3837.25 0.190958 -1.93259 0
M  V30 41371 O 3836.52 1.13089 -1.58244 0
M  V30 41372 C 3836.81 -2.11426 -2.91498 0
M  V30 41373 C 3836.66 -3.63375 -2.65101 0
M  V30 41374 C 3837.98 -1.98338 -3.92874 0
M  V30 41375 H 3835.1 -0.453327 -0.581088 0
M  V30 41376 H 3837.74 -1.63132 -0.974064 0
M  V30 41377 H 3835.89 -1.78543 -3.45043 0
M  V30 41378 H 3837.56 -4.06523 -2.1803 0
M  V30 41379 H 3835.8 -3.8552 -1.98889 0
M  V30 41380 H 3836.48 -4.19591 -3.58675 0
M  V30 41381 H 3838.95 -2.27165 -3.48619 0
M  V30 41382 H 3837.83 -2.61474 -4.82621 0
M  V30 41383 H 3838.09 -0.954048 -4.31683 0
M  V30 41384 N 3837.15 1.06178 -1.16464 0
M  V30 41385 C 3838.4 1.78386 -0.941353 0
M  V30 41386 C 3838.71 1.88227 0.531962 0
M  V30 41387 O 3839.92 2.57075 0.873182 0
M  V30 41388 C 3838.37 3.2062 -1.63496 0
M  V30 41389 C 3837.98 3.18941 -3.14612 0
M  V30 41390 C 3839.72 3.97353 -1.49368 0
M  V30 41391 C 3837.63 4.55902 -3.76706 0
M  V30 41392 H 3836.56 0.668597 -0.34856 0
M  V30 41393 H 3839.21 1.19086 -1.39609 0
M  V30 41394 H 3837.59 3.80185 -1.10793 0
M  V30 41395 H 3838.77 2.68951 -3.74168 0
M  V30 41396 H 3837.08 2.55706 -3.28639 0
M  V30 41397 H 3839.68 4.98599 -1.9314 0
M  V30 41398 H 3840.02 4.13938 -0.442797 0
M  V30 41399 H 3840.56 3.44312 -1.99233 0
M  V30 41400 H 3837.29 4.44521 -4.81748 0
M  V30 41401 H 3836.81 5.06081 -3.21936 0
M  V30 41402 H 3838.49 5.24857 -3.7833 0
M  V30 41403 N 3838.63 0.96331 1.24732 0
M  V30 41404 C 3839.87 0.61842 1.91986 0
M  V30 41405 C 3840.19 -0.849695 1.7618 0
M  V30 41406 O 3841.39 -1.30492 2.38084 0
M  V30 41407 C 3839.85 1.0554 3.44077 0
M  V30 41408 C 3839.46 2.54666 3.68577 0
M  V30 41409 C 3841.2 0.783452 4.17208 0
M  V30 41410 C 3839.11 2.9212 5.14218 0
M  V30 41411 H 3838.04 0.227588 0.718832 0
M  V30 41412 H 3840.69 1.16893 1.41451 0
M  V30 41413 H 3839.07 0.433237 3.93623 0
M  V30 41414 H 3840.25 3.21975 3.29649 0
M  V30 41415 H 3838.56 2.79425 3.08724 0
M  V30 41416 H 3841.16 1.03934 5.24502 0
M  V30 41417 H 3841.5 -0.280279 4.15355 0
M  V30 41418 H 3842.03 1.36637 3.73597 0
M  V30 41419 H 3838.77 3.97546 5.21188 0
M  V30 41420 H 3838.29 2.29491 5.5416 0
M  V30 41421 H 3839.97 2.81785 5.82414 0
M  V30 41422 N 3840.1 -1.39522 0.732902 0
M  V30 41423 C 3841.38 -1.94509 0.206324 0
M  V30 41424 C 3841.76 -1.66984 -1.29149 0
M  V30 41425 O 3841.11 -0.996931 -2.05605 0
M  V30 41426 C 3841.32 -3.44833 0.53768 0
M  V30 41427 C 3842.67 -4.21811 0.485861 0
M  V30 41428 O 3843.69 -3.53022 0.474748 0
M  V30 41429 O 3842.55 -5.44401 0.478553 0
M  V30 41430 H 3839.64 -0.826175 0.0369373 0
M  V30 41431 H 3842.19 -1.49033 0.811617 0
M  V30 41432 H 3840.96 -3.58293 1.57295 0
M  V30 41433 H 3840.58 -3.97482 -0.0966902 0
M  V30 41434 N 3841.58 -0.480375 -1.501 0
M  V30 41435 C 3842.81 0.0688116 -2.06786 0
M  V30 41436 C 3843.22 1.3268 -1.34318 0
M  V30 41437 O 3842.58 1.77714 -0.415227 0
M  V30 41438 C 3842.63 0.347459 -3.59826 0
M  V30 41439 O 3842.35 -0.860645 -4.29563 0
M  V30 41440 C 3843.85 0.942584 -4.33163 0
M  V30 41441 H 3841.07 -0.011229 -0.670906 0
M  V30 41442 H 3843.62 -0.671822 -1.9315 0
M  V30 41443 H 3841.77 1.03804 -3.73234 0
M  V30 41444 H 3842.19 -0.610888 -5.2093 0
M  V30 41445 H 3843.66 1.08726 -5.41186 0
M  V30 41446 H 3844.14 1.93511 -3.94272 0
M  V30 41447 H 3844.74 0.290104 -4.24309 0
M  V30 41448 N 3843.06 1.56149 -0.213351 0
M  V30 41449 C 3844.31 1.98085 0.420563 0
M  V30 41450 C 3844.63 1.10078 1.60353 0
M  V30 41451 O 3843.89 0.143882 1.9517 0
M  V30 41452 C 3844.19 3.45734 0.905703 0
M  V30 41453 C 3843.85 4.50595 -0.165857 0
M  V30 41454 C 3842.52 4.78994 -0.460245 0
M  V30 41455 C 3844.87 5.13528 -0.890981 0
M  V30 41456 C 3842.2 5.67611 -1.48442 0
M  V30 41457 C 3844.55 6.03253 -1.90443 0
M  V30 41458 C 3843.21 6.3 -2.20583 0
M  V30 41459 H 3842.48 0.724843 0.153895 0
M  V30 41460 H 3845.13 1.88906 -0.31415 0
M  V30 41461 H 3843.43 3.52075 1.71903 0
M  V30 41462 H 3845.13 3.75547 1.40589 0
M  V30 41463 H 3841.72 4.28537 0.0737508 0
M  V30 41464 H 3845.91 4.91664 -0.676782 0
M  V30 41465 H 3841.16 5.86601 -1.72364 0
M  V30 41466 H 3845.34 6.51071 -2.47142 0
M  V30 41467 H 3842.96 6.98464 -3.00086 0
M  V30 41468 N 3844.54 -0.0601128 1.57485 0
M  V30 41469 C 3845.5 -1.05464 2.03494 0
M  V30 41470 C 3846.5 -1.30905 0.933839 0
M  V30 41471 O 3847.69 -1.26429 1.19839 0
M  V30 41472 C 3844.82 -2.39542 2.42554 0
M  V30 41473 H 3846.02 -0.657841 2.92596 0
M  V30 41474 H 3843.57 -0.306156 1.53272 0
M  V30 41475 H 3844.3 -2.84032 1.56514 0
M  V30 41476 H 3844.09 -2.22415 3.22915 0
M  V30 41477 H 3845.58 -3.11005 2.78685 0
M  V30 41478 N 3846.02 -1.54068 -0.331762 0
M  V30 41479 C 3847.29 -1.62522 -1.0884 0
M  V30 41480 C 3847.67 -0.453883 -2.06163 0
M  V30 41481 O 3847.02 0.552688 -2.21715 0
M  V30 41482 C 3847.23 -2.99144 -1.79761 0
M  V30 41483 C 3848.58 -3.54907 -2.3308 0
M  V30 41484 O 3849.6 -3.01395 -1.89841 0
M  V30 41485 O 3848.46 -4.48533 -3.12218 0
M  V30 41486 H 3845.56 -0.657813 -0.50121 0
M  V30 41487 H 3848.1 -1.66415 -0.33231 0
M  V30 41488 H 3846.87 -3.75834 -1.08926 0
M  V30 41489 H 3846.5 -2.98893 -2.622 0
M  V30 41490 N 3847.49 0.593399 -1.46002 0
M  V30 41491 C 3848.42 1.71365 -1.58608 0
M  V30 41492 C 3849.41 1.64394 -0.436895 0
M  V30 41493 O 3850.59 1.82575 -0.661814 0
M  V30 41494 C 3847.72 3.09994 -1.56593 0
M  V30 41495 C 3846.67 3.31788 -2.70372 0
M  V30 41496 C 3846 4.70835 -2.53414 0
M  V30 41497 C 3847.3 3.2066 -4.1228 0
M  V30 41498 H 3848.99 1.61071 -2.52381 0
M  V30 41499 H 3846.54 0.773477 -1.21463 0
M  V30 41500 H 3848.49 3.88175 -1.64007 0
M  V30 41501 H 3847.22 3.21161 -0.593568 0
M  V30 41502 H 3845.88 2.56002 -2.62409 0
M  V30 41503 H 3845.52 4.78753 -1.54286 0
M  V30 41504 H 3845.22 4.86371 -3.29723 0
M  V30 41505 H 3846.75 5.51198 -2.62704 0
M  V30 41506 H 3848.16 3.88698 -4.21411 0
M  V30 41507 H 3846.56 3.47721 -4.89091 0
M  V30 41508 H 3847.63 2.17891 -4.33188 0
M  V30 41509 N 3848.97 1.33529 0.837127 0
M  V30 41510 C 3850.39 1.12901 1.12807 0
M  V30 41511 C 3850.59 -0.0789408 2.01345 0
M  V30 41512 O 3849.64 -0.75869 2.40832 0
M  V30 41513 C 3850.96 2.41731 1.78848 0
M  V30 41514 C 3852.51 2.47654 1.91406 0
M  V30 41515 C 3852.98 3.7645 2.60863 0
M  V30 41516 N 3854.47 3.77531 2.68375 0
M  V30 41517 C 3855.21 4.739 3.22811 0
M  V30 41518 N 3854.7 5.80644 3.77921 0
M  V30 41519 N 3856.5 4.61373 3.21079 0
M  V30 41520 H 3848.65 2.10948 0.247905 0
M  V30 41521 H 3850.91 0.932173 0.172501 0
M  V30 41522 H 3850.62 3.30138 1.21252 0
M  V30 41523 H 3850.49 2.54011 2.78852 0
M  V30 41524 H 3852.88 1.59696 2.48156 0
M  V30 41525 H 3852.96 2.39314 0.90347 0
M  V30 41526 H 3852.6 4.64791 2.04772 0
M  V30 41527 H 3852.53 3.82067 3.62398 0
M  V30 41528 H 3855.02 3.00386 2.29296 0
M  V30 41529 H 3855.34 6.50211 4.17667 0
M  V30 41530 H 3853.68 5.84376 3.76204 0
M  V30 41531 H 3856.87 3.77136 2.77283 0
M  V30 41532 H 3857.04 5.36646 3.63201 0
M  V30 41533 N 3850.45 -1.05559 1.17026 0
M  V30 41534 C 3851.68 -1.82715 0.981326 0
M  V30 41535 C 3852.1 -1.82246 -0.465604 0
M  V30 41536 O 3851.46 -1.22872 -1.33312 0
M  V30 41537 C 3851.51 -3.26885 1.52245 0
M  V30 41538 O 3850.61 -4.0582 0.733732 0
M  V30 41539 H 3849.95 -0.565078 0.348687 0
M  V30 41540 H 3852.48 -1.33043 1.55437 0
M  V30 41541 H 3852.49 -3.77692 1.54313 0
M  V30 41542 H 3851.17 -3.26541 2.57573 0
M  V30 41543 H 3849.74 -3.64562 0.784165 0
M  V30 41544 N 3851.93 -0.969911 -1.2422 0
M  V30 41545 C 3852.84 -0.509508 -2.29 0
M  V30 41546 C 3853.85 0.430608 -1.68588 0
M  V30 41547 O 3855.03 0.303107 -1.99106 0
M  V30 41548 C 3852.1 0.190845 -3.46174 0
M  V30 41549 C 3851.16 -0.789371 -4.2198 0
M  V30 41550 C 3850.39 -0.122346 -5.3356 0
M  V30 41551 O 3850.61 1.08887 -5.59911 0
M  V30 41552 O 3849.55 -0.815622 -5.96348 0
M  V30 41553 H 3853.37 -1.38063 -2.70504 0
M  V30 41554 H 3850.96 -0.737051 -1.29954 0
M  V30 41555 H 3852.84 0.58417 -4.17331 0
M  V30 41556 H 3851.51 1.0369 -3.06643 0
M  V30 41557 H 3850.42 -1.2332 -3.5319 0
M  V30 41558 H 3851.75 -1.60391 -4.65334 0
M  V30 41559 N 3853.41 1.39131 -0.740291 0
M  V30 41560 C 3854.35 2.30567 -0.103784 0
M  V30 41561 C 3855.32 1.49491 0.723999 0
M  V30 41562 O 3856.51 1.78161 0.682873 0
M  V30 41563 C 3853.65 3.35853 0.793528 0
M  V30 41564 C 3852.76 4.31974 -0.047443 0
M  V30 41565 C 3851.9 5.24329 0.851634 0
M  V30 41566 C 3850.94 6.121 0.00622874 0
M  V30 41567 N 3850.07 6.96794 0.86153 0
M  V30 41568 H 3854.91 2.84426 -0.889137 0
M  V30 41569 H 3852.45 1.40044 -0.450117 0
M  V30 41570 H 3854.41 3.95491 1.32827 0
M  V30 41571 H 3853.04 2.83436 1.5448 0
M  V30 41572 H 3852.09 3.7391 -0.699667 0
M  V30 41573 H 3853.4 4.93851 -0.700893 0
M  V30 41574 H 3852.56 5.89019 1.45403 0
M  V30 41575 H 3851.29 4.62786 1.53885 0
M  V30 41576 H 3850.3 5.46418 -0.608929 0
M  V30 41577 H 3851.52 6.75709 -0.67785 0
M  V30 41578 H 3849.47 6.37814 1.53394 0
M  V30 41579 H 3849.39 7.55537 0.264679 0
M  V30 41580 H 3850.66 7.65908 1.44932 0
M  V30 41581 N 3854.88 0.488329 1.49844 0
M  V30 41582 C 3855.82 -0.333357 2.26763 0
M  V30 41583 C 3856.83 -0.941895 1.32786 0
M  V30 41584 O 3858.02 -0.82738 1.58167 0
M  V30 41585 C 3855.12 -1.48313 3.04724 0
M  V30 41586 C 3854.29 -0.984228 4.26183 0
M  V30 41587 C 3853.35 -2.01009 4.86294 0
M  V30 41588 O 3852.38 -1.58374 5.46723 0
M  V30 41589 N 3853.58 -3.33957 4.74819 0
M  V30 41590 H 3856.34 0.326142 2.9792 0
M  V30 41591 H 3853.9 0.32012 1.58704 0
M  V30 41592 H 3855.9 -2.1667 3.41813 0
M  V30 41593 H 3854.47 -2.04701 2.36255 0
M  V30 41594 H 3853.69 -0.12597 3.93999 0
M  V30 41595 H 3854.97 -0.629101 5.04896 0
M  V30 41596 H 3854.37 -3.71293 4.268 0
M  V30 41597 H 3852.93 -3.98063 5.16129 0
M  V30 41598 N 3856.36 -1.56034 0.221629 0
M  V30 41599 C 3857.31 -2.20293 -0.688463 0
M  V30 41600 C 3858.28 -1.15853 -1.19026 0
M  V30 41601 O 3859.46 -1.44209 -1.24934 0
M  V30 41602 C 3856.6 -2.88681 -1.89096 0
M  V30 41603 C 3855.72 -4.07714 -1.42805 0
M  V30 41604 C 3854.85 -4.63886 -2.58812 0
M  V30 41605 C 3853.89 -5.7522 -2.09258 0
M  V30 41606 N 3853.03 -6.25682 -3.18538 0
M  V30 41607 H 3857.87 -2.977 -0.133772 0
M  V30 41608 H 3855.41 -1.47 -0.0542749 0
M  V30 41609 H 3857.36 -3.26516 -2.59698 0
M  V30 41610 H 3855.99 -2.13792 -2.41853 0
M  V30 41611 H 3855.05 -3.75364 -0.616953 0
M  V30 41612 H 3856.36 -4.88161 -1.02469 0
M  V30 41613 H 3855.51 -5.04164 -3.37496 0
M  V30 41614 H 3854.25 -3.82601 -3.02436 0
M  V30 41615 H 3853.26 -5.34444 -1.29035 0
M  V30 41616 H 3854.48 -6.58339 -1.66633 0
M  V30 41617 H 3852.43 -5.47311 -3.61644 0
M  V30 41618 H 3852.34 -7.01253 -2.82454 0
M  V30 41619 H 3853.61 -6.70617 -3.97357 0
M  V30 41620 N 3857.84 0.0517601 -1.57515 0
M  V30 41621 C 3858.79 1.05933 -2.05053 0
M  V30 41622 C 3859.76 1.3728 -0.935056 0
M  V30 41623 O 3860.94 1.48007 -1.20411 0
M  V30 41624 C 3858.08 2.36204 -2.51599 0
M  V30 41625 C 3857.2 2.11212 -3.76847 0
M  V30 41626 C 3856.33 3.3519 -4.12093 0
M  V30 41627 C 3855.37 3.05652 -5.30324 0
M  V30 41628 N 3854.51 4.22016 -5.61112 0
M  V30 41629 H 3859.35 0.646975 -2.90892 0
M  V30 41630 H 3856.88 0.307865 -1.43842 0
M  V30 41631 H 3858.84 3.12288 -2.76644 0
M  V30 41632 H 3857.47 2.75204 -1.68709 0
M  V30 41633 H 3856.52 1.25728 -3.59022 0
M  V30 41634 H 3857.84 1.85408 -4.63061 0
M  V30 41635 H 3856.99 4.19658 -4.38146 0
M  V30 41636 H 3855.73 3.64088 -3.24486 0
M  V30 41637 H 3854.73 2.19583 -5.04047 0
M  V30 41638 H 3855.96 2.78056 -6.19566 0
M  V30 41639 H 3853.9 4.50908 -4.76464 0
M  V30 41640 H 3853.82 3.99556 -6.41787 0
M  V30 41641 H 3855.09 5.07423 -5.91728 0
M  V30 41642 N 3859.32 1.54242 0.323587 0
M  V30 41643 C 3860.23 1.86649 1.42125 0
M  V30 41644 C 3861.25 0.758413 1.56602 0
M  V30 41645 O 3862.42 1.0527 1.71698 0
M  V30 41646 C 3859.49 2.08714 2.76838 0
M  V30 41647 C 3858.55 3.32515 2.71537 0
M  V30 41648 C 3857.78 3.53517 3.99826 0
M  V30 41649 O 3858 2.7796 4.98091 0
M  V30 41650 O 3856.94 4.46995 4.03087 0
M  V30 41651 H 3860.76 2.79987 1.17649 0
M  V30 41652 H 3858.35 1.40147 0.517608 0
M  V30 41653 H 3860.23 2.24557 3.56584 0
M  V30 41654 H 3858.91 1.18564 3.01205 0
M  V30 41655 H 3857.81 3.22057 1.90343 0
M  V30 41656 H 3859.15 4.22722 2.52125 0
M  V30 41657 N 3860.8 -0.585648 1.46314 0
M  V30 41658 C 3861.71 -1.72283 1.59235 0
M  V30 41659 C 3862.72 -1.67364 0.475941 0
M  V30 41660 O 3863.9 -1.87326 0.73966 0
M  V30 41661 C 3860.96 -3.08783 1.57652 0
M  V30 41662 C 3860.03 -3.24988 2.80502 0
M  V30 41663 C 3859.26 -4.54975 2.78986 0
M  V30 41664 O 3859.48 -5.3868 1.87562 0
M  V30 41665 O 3858.42 -4.74365 3.70488 0
M  V30 41666 H 3862.24 -1.6433 2.554 0
M  V30 41667 H 3859.83 -0.752346 1.29074 0
M  V30 41668 H 3861.71 -3.90067 1.59455 0
M  V30 41669 H 3860.38 -3.17179 0.646456 0
M  V30 41670 H 3859.29 -2.43208 2.84255 0
M  V30 41671 H 3860.62 -3.2148 3.72708 0
M  V30 41672 N 3862.28 -1.33971 -0.830033 0
M  V30 41673 C 3863.52 -1.25271 -1.58082 0
M  V30 41674 C 3863.84 0.177523 -1.94793 0
M  V30 41675 O 3865.04 0.38661 -2.68733 0
M  V30 41676 C 3863.5 -2.19555 -2.85173 0
M  V30 41677 C 3863.11 -3.67797 -2.55792 0
M  V30 41678 C 3864.85 -2.19748 -3.63196 0
M  V30 41679 C 3862.76 -4.53969 -3.79033 0
M  V30 41680 H 3861.69 -0.465332 -0.593281 0
M  V30 41681 H 3864.34 -1.59091 -0.914449 0
M  V30 41682 H 3862.72 -1.78678 -3.53398 0
M  V30 41683 H 3863.9 -4.17168 -1.95722 0
M  V30 41684 H 3862.21 -3.69981 -1.91057 0
M  V30 41685 H 3864.81 -2.81355 -4.5469 0
M  V30 41686 H 3865.15 -1.19487 -3.98784 0
M  V30 41687 H 3865.68 -2.59033 -3.01905 0
M  V30 41688 H 3862.42 -5.55139 -3.4857 0
M  V30 41689 H 3861.94 -4.09337 -4.3841 0
M  V30 41690 H 3863.62 -4.6822 -4.46519 0
M  V30 41691 N 3863.75 1.04937 -1.17584 0
M  V30 41692 C 3864.68 2.14686 -0.918259 0
M  V30 41693 C 3865.66 1.69517 0.140728 0
M  V30 41694 O 3866.85 1.94197 -0.0100459 0
M  V30 41695 C 3863.98 3.44583 -0.433592 0
M  V30 41696 C 3862.93 4.03331 -1.43206 0
M  V30 41697 C 3862.26 5.28602 -0.805247 0
M  V30 41698 C 3863.56 4.4052 -2.80606 0
M  V30 41699 H 3865.25 2.36492 -1.83608 0
M  V30 41700 H 3862.8 1.13655 -0.884222 0
M  V30 41701 H 3864.75 4.20711 -0.240796 0
M  V30 41702 H 3863.48 3.22437 0.519775 0
M  V30 41703 H 3862.14 3.29275 -1.61164 0
M  V30 41704 H 3861.78 5.02761 0.155035 0
M  V30 41705 H 3861.48 5.68869 -1.4718 0
M  V30 41706 H 3863.01 6.07416 -0.622784 0
M  V30 41707 H 3864.42 5.07672 -2.6635 0
M  V30 41708 H 3862.82 4.91811 -3.43863 0
M  V30 41709 H 3863.89 3.50746 -3.34821 0
M  V30 41710 N 3865.23 0.976485 1.23703 0
M  V30 41711 C 3866.18 0.513195 2.25022 0
M  V30 41712 C 3867.15 -0.445875 1.60004 0
M  V30 41713 O 3868.33 -0.35429 1.87482 0
M  V30 41714 C 3865.47 -0.182027 3.4462 0
M  V30 41715 C 3864.59 0.816843 4.24207 0
M  V30 41716 C 3863.72 0.0968289 5.31112 0
M  V30 41717 C 3862.76 1.08518 6.02404 0
M  V30 41718 N 3861.9 0.394578 7.0099 0
M  V30 41719 H 3866.74 1.38199 2.64017 0
M  V30 41720 H 3864.27 0.692588 1.29775 0
M  V30 41721 H 3866.23 -0.601876 4.12836 0
M  V30 41722 H 3864.86 -1.01472 3.06436 0
M  V30 41723 H 3863.91 1.3551 3.55445 0
M  V30 41724 H 3865.23 1.57014 4.73443 0
M  V30 41725 H 3864.38 -0.38058 6.05505 0
M  V30 41726 H 3863.12 -0.689102 4.82807 0
M  V30 41727 H 3862.12 1.57337 5.26806 0
M  V30 41728 H 3863.35 1.8717 6.52797 0
M  V30 41729 H 3861.3 -0.372216 6.54943 0
M  V30 41730 H 3861.21 1.0866 7.4815 0
M  V30 41731 H 3862.48 -0.0605717 7.79476 0
M  V30 41732 N 3866.71 -1.38737 0.747659 0
M  V30 41733 C 3867.94 -2.04537 0.311817 0
M  V30 41734 C 3868.35 -1.56385 -1.05779 0
M  V30 41735 O 3867.71 -0.734288 -1.67076 0
M  V30 41736 C 3867.76 -3.60092 0.318738 0
M  V30 41737 O 3867.48 -4.06475 1.6343 0
M  V30 41738 C 3868.98 -4.43104 -0.131704 0
M  V30 41739 H 3866.2 -0.657453 0.134152 0
M  V30 41740 H 3868.75 -1.77542 1.01485 0
M  V30 41741 H 3866.9 -3.85944 -0.33551 0
M  V30 41742 H 3867.32 -5.00874 1.55644 0
M  V30 41743 H 3868.79 -5.51948 -0.0757008 0
M  V30 41744 H 3869.27 -4.23087 -1.17874 0
M  V30 41745 H 3869.87 -4.22428 0.493449 0
M  V30 41746 N 3868.19 -0.496268 -1.49583 0
M  V30 41747 C 3869.42 0.0468754 -2.06847 0
M  V30 41748 C 3869.83 1.31248 -1.35718 0
M  V30 41749 O 3869.19 1.77263 -0.434052 0
M  V30 41750 C 3869.24 0.309275 -3.60175 0
M  V30 41751 O 3868.96 -0.906157 -4.28626 0
M  V30 41752 C 3870.46 0.896588 -4.34138 0
M  V30 41753 H 3867.68 -0.0183442 -0.670749 0
M  V30 41754 H 3870.22 -0.69227 -1.92426 0
M  V30 41755 H 3868.38 0.998393 -3.74314 0
M  V30 41756 H 3868.79 -0.666105 -5.20253 0
M  V30 41757 H 3870.27 1.0298 -5.42309 0
M  V30 41758 H 3870.74 1.89318 -3.96302 0
M  V30 41759 H 3871.35 0.245084 -4.24593 0
M  V30 41760 N 3869.67 1.55914 -0.2299 0
M  V30 41761 C 3870.91 2.00422 0.401275 0
M  V30 41762 C 3871.27 1.11433 1.56354 0
M  V30 41763 O 3872.47 1.45323 2.2613 0
M  V30 41764 C 3870.74 3.47939 0.816885 0
M  V30 41765 S 3872.3 4.14465 1.44099 0
M  V30 41766 H 3869.12 0.699564 0.127011 0
M  V30 41767 H 3871.72 1.925 -0.341148 0
M  V30 41768 H 3870.42 4.10382 -0.0385701 0
M  V30 41769 H 3869.96 3.59752 1.59191 0
M  V30 41770 H 3871.97 4.14344 2.73008 0
M  V30 41771 N 3871.14 -0.043406 1.5754 0
M  V30 41772 C 3872.39 -0.737074 1.88609 0
M  V30 41773 C 3872.72 -1.76119 0.825373 0
M  V30 41774 O 3871.97 -1.94912 -0.175403 0
M  V30 41775 C 3872.27 -1.45585 3.26404 0
M  V30 41776 C 3871.94 -0.569071 4.47295 0
M  V30 41777 C 3870.6 -0.324781 4.80103 0
M  V30 41778 C 3872.95 0.0440651 5.21181 0
M  V30 41779 C 3870.28 0.541659 5.84194 0
M  V30 41780 C 3872.63 0.898123 6.26192 0
M  V30 41781 C 3871.3 1.15201 6.57484 0
M  V30 41782 H 3870.57 -0.269715 0.69017 0
M  V30 41783 H 3873.21 0.00278565 1.915 0
M  V30 41784 H 3871.52 -2.26866 3.19435 0
M  V30 41785 H 3873.22 -1.99786 3.47687 0
M  V30 41786 H 3869.81 -0.76962 4.21633 0
M  V30 41787 H 3873.99 -0.131729 4.96125 0
M  V30 41788 H 3869.25 0.746818 6.06822 0
M  V30 41789 H 3873.42 1.37981 6.82594 0
M  V30 41790 H 3871.05 1.82514 7.37965 0
M  V30 41791 N 3872.62 -1.54412 -0.315402 0
M  V30 41792 C 3873.87 -1.72218 -1.04994 0
M  V30 41793 C 3874.18 -0.50721 -1.88909 0
M  V30 41794 O 3875.39 -0.566785 -2.65518 0
M  V30 41795 C 3873.85 -3.04642 -1.91628 0
M  V30 41796 C 3873.45 -4.33571 -1.12784 0
M  V30 41797 C 3875.2 -3.31811 -2.64768 0
M  V30 41798 C 3873.1 -5.57052 -1.98611 0
M  V30 41799 H 3872.03 -0.641821 -0.395705 0
M  V30 41800 H 3874.69 -1.80902 -0.307717 0
M  V30 41801 H 3873.07 -2.89887 -2.69781 0
M  V30 41802 H 3874.24 -4.59117 -0.393454 0
M  V30 41803 H 3872.56 -4.13229 -0.512902 0
M  V30 41804 H 3875.15 -4.21262 -3.29305 0
M  V30 41805 H 3875.5 -2.50048 -3.32839 0
M  V30 41806 H 3876.03 -3.47471 -1.93672 0
M  V30 41807 H 3872.77 -6.4144 -1.35035 0
M  V30 41808 H 3872.29 -5.35713 -2.69762 0
M  V30 41809 H 3873.97 -5.93766 -2.57003 0
M  V30 41810 N 3874.1 0.57788 -1.46623 0
M  V30 41811 C 3875.34 1.34691 -1.53746 0
M  V30 41812 C 3875.7 1.91091 -0.186643 0
M  V30 41813 O 3876.91 2.68473 -0.132636 0
M  V30 41814 C 3875.18 2.44253 -2.60912 0
M  V30 41815 S 3876.74 3.31518 -2.87474 0
M  V30 41816 H 3873.55 0.458817 -0.543146 0
M  V30 41817 H 3876.16 0.66381 -1.83885 0
M  V30 41818 H 3874.86 2.01219 -3.57686 0
M  V30 41819 H 3874.39 3.17329 -2.3252 0
M  V30 41820 H 3876.41 4.4321 -2.23112 0
M  V30 41821 N 3875.58 1.34409 0.822917 0
M  V30 41822 C 3876.83 1.26516 1.57601 0
M  V30 41823 C 3877.15 -0.164735 1.94303 0
M  V30 41824 O 3876.42 -1.09736 1.6228 0
M  V30 41825 H 3875 0.465292 0.584391 0
M  V30 41826 H 3877.66 1.68321 0.982553 0
M  V30 41827 H 3876.76 1.8699 2.49882 0
M  V30 41828 N 3877.06 -1.04312 1.18139 0
M  V30 41829 C 3877.99 -2.14196 0.929631 0
M  V30 41830 C 3878.97 -1.69589 -0.131736 0
M  V30 41831 O 3880.15 -1.94189 0.0203446 0
M  V30 41832 C 3877.28 -3.44348 0.451859 0
M  V30 41833 C 3876.24 -4.02566 1.45343 0
M  V30 41834 C 3875.56 -5.28167 0.833269 0
M  V30 41835 C 3876.86 -4.39026 2.82938 0
M  V30 41836 H 3878.56 -2.35515 1.8486 0
M  V30 41837 H 3876.1 -1.13185 0.890237 0
M  V30 41838 H 3878.06 -4.20578 0.263104 0
M  V30 41839 H 3876.78 -3.22709 -0.502668 0
M  V30 41840 H 3875.44 -3.28415 1.62908 0
M  V30 41841 H 3875.09 -5.02836 -0.12837 0
M  V30 41842 H 3874.79 -5.6808 1.50195 0
M  V30 41843 H 3876.31 -6.07077 0.654987 0
M  V30 41844 H 3877.72 -5.06252 2.69039 0
M  V30 41845 H 3876.12 -4.89981 3.46466 0
M  V30 41846 H 3877.19 -3.48966 3.36676 0
M  V30 41847 N 3878.53 -0.983032 -1.23184 0
M  V30 41848 C 3879.44 -0.533768 -2.28447 0
M  V30 41849 C 3880.46 0.412702 -1.69035 0
M  V30 41850 O 3881.64 0.281972 -1.99416 0
M  V30 41851 C 3878.7 0.154118 -3.46357 0
M  V30 41852 C 3877.76 -0.834083 -4.21119 0
M  V30 41853 C 3877 -0.17893 -5.334 0
M  V30 41854 O 3877.22 1.02942 -5.61034 0
M  V30 41855 O 3876.15 -0.878827 -5.9545 0
M  V30 41856 H 3879.98 -1.40924 -2.69024 0
M  V30 41857 H 3877.56 -0.750793 -1.29164 0
M  V30 41858 H 3879.45 0.539874 -4.17927 0
M  V30 41859 H 3878.12 1.00431 -3.07726 0
M  V30 41860 H 3877.03 -1.27059 -3.51862 0
M  V30 41861 H 3878.36 -1.65317 -4.63607 0
M  V30 41862 N 3880.01 1.38338 -0.755006 0
M  V30 41863 C 3881.43 1.53621 -0.432757 0
M  V30 41864 C 3881.63 1.7174 1.05392 0
M  V30 41865 O 3880.68 1.72922 1.83995 0
M  V30 41866 C 3882 2.74247 -1.23324 0
M  V30 41867 C 3883.55 2.88098 -1.22346 0
M  V30 41868 C 3884.02 4.11687 -2.00693 0
M  V30 41869 N 3885.51 4.18767 -1.97961 0
M  V30 41870 C 3886.25 5.13391 -2.55376 0
M  V30 41871 N 3885.74 6.1368 -3.2151 0
M  V30 41872 N 3887.54 5.05752 -2.45298 0
M  V30 41873 H 3879.69 1.24826 -1.71849 0
M  V30 41874 H 3881.95 0.606508 -0.728596 0
M  V30 41875 H 3881.66 2.67268 -2.28606 0
M  V30 41876 H 3881.53 3.67473 -0.851074 0
M  V30 41877 H 3883.92 2.94559 -0.178689 0
M  V30 41878 H 3884 1.95879 -1.64515 0
M  V30 41879 H 3883.64 4.05988 -3.05182 0
M  V30 41880 H 3883.57 5.02988 -1.55917 0
M  V30 41881 H 3886.06 3.46942 -1.49798 0
M  V30 41882 H 3886.38 6.82379 -3.62737 0
M  V30 41883 H 3884.72 6.14008 -3.25606 0
M  V30 41884 H 3887.91 4.26343 -1.93258 0
M  V30 41885 H 3888.08 5.79316 -2.9034 0
M  V30 41886 N 3881.49 0.504194 1.49317 0
M  V30 41887 C 3882.77 -0.102359 1.95332 0
M  V30 41888 C 3883.15 -1.53819 1.44579 0
M  V30 41889 O 3882.5 -2.18733 0.660933 0
M  V30 41890 C 3882.71 -0.011708 3.48998 0
M  V30 41891 C 3884.05 -0.184027 4.24201 0
M  V30 41892 O 3885.08 -0.086743 3.56094 0
M  V30 41893 O 3883.94 -0.384172 5.45148 0
M  V30 41894 H 3881.03 -0.0935437 0.821693 0
M  V30 41895 H 3883.58 0.56696 1.59949 0
M  V30 41896 H 3882.35 0.989479 3.78583 0
M  V30 41897 H 3881.97 -0.721031 3.91008 0
M  V30 41898 N 3882.97 -1.5579 0.238166 0
M  V30 41899 C 3883.92 -2.2101 -0.665059 0
M  V30 41900 C 3884.89 -1.17109 -1.17791 0
M  V30 41901 O 3886.07 -1.45526 -1.23397 0
M  V30 41902 C 3883.21 -2.90671 -1.86023 0
M  V30 41903 C 3882.32 -4.09206 -1.38473 0
M  V30 41904 C 3881.46 -4.66605 -2.53877 0
M  V30 41905 C 3880.5 -5.77407 -2.03145 0
M  V30 41906 N 3879.63 -6.29025 -3.11884 0
M  V30 41907 H 3884.47 -2.97825 -0.102189 0
M  V30 41908 H 3882.01 -1.47049 -0.0386805 0
M  V30 41909 H 3883.97 -3.29252 -2.5622 0
M  V30 41910 H 3882.6 -2.16345 -2.39572 0
M  V30 41911 H 3881.65 -3.75997 -0.577106 0
M  V30 41912 H 3882.96 -4.89221 -0.97286 0
M  V30 41913 H 3882.12 -5.07715 -3.3213 0
M  V30 41914 H 3880.86 -3.85787 -2.98361 0
M  V30 41915 H 3879.86 -5.35782 -1.2336 0
M  V30 41916 H 3881.09 -6.60069 -1.59641 0
M  V30 41917 H 3879.03 -5.51116 -3.55818 0
M  V30 41918 H 3878.95 -7.04209 -2.75001 0
M  V30 41919 H 3880.22 -6.74794 -3.90222 0
M  V30 41920 N 3884.45 0.0350506 -1.57561 0
M  V30 41921 C 3885.69 0.727062 -1.88998 0
M  V30 41922 C 3886.02 1.75679 -0.834702 0
M  V30 41923 O 3885.28 1.95003 0.165064 0
M  V30 41924 C 3885.58 1.43852 -3.27172 0
M  V30 41925 C 3885.24 0.545342 -4.4759 0
M  V30 41926 C 3883.9 0.299316 -4.80268 0
M  V30 41927 C 3886.26 -0.071704 -5.21151 0
M  V30 41928 C 3883.58 -0.572633 -5.83899 0
M  V30 41929 C 3885.94 -0.931319 -6.25707 0
M  V30 41930 C 3884.6 -1.18686 -6.56864 0
M  V30 41931 H 3883.87 0.266051 -0.691591 0
M  V30 41932 H 3886.52 -0.0129413 -1.91496 0
M  V30 41933 H 3884.82 2.25169 -3.20634 0
M  V30 41934 H 3886.52 1.9794 -3.48742 0
M  V30 41935 H 3883.11 0.747249 -4.22036 0
M  V30 41936 H 3887.29 0.105417 -4.96188 0
M  V30 41937 H 3882.55 -0.778989 -6.06417 0
M  V30 41938 H 3886.72 -1.41599 -6.81852 0
M  V30 41939 H 3884.35 -1.86425 -7.36987 0
M  V30 41940 N 3885.92 1.54577 0.307209 0
M  V30 41941 C 3887.2 1.64233 1.0624 0
M  V30 41942 C 3887.58 0.486625 2.05415 0
M  V30 41943 O 3886.93 -0.517345 2.22566 0
M  V30 41944 C 3887.14 3.01966 1.74979 0
M  V30 41945 C 3888.49 3.5857 2.27404 0
M  V30 41946 O 3889.51 3.04377 1.85022 0
M  V30 41947 O 3888.37 4.53443 3.05043 0
M  V30 41948 H 3885.46 0.665703 0.490681 0
M  V30 41949 H 3888.01 1.66922 0.305793 0
M  V30 41950 H 3886.78 3.77519 1.02933 0
M  V30 41951 H 3886.41 3.03026 2.57412 0
M  V30 41952 N 3887.4 -0.570096 1.46927 0
M  V30 41953 C 3888.35 -1.69926 1.58833 0
M  V30 41954 C 3889.34 -1.63142 0.456195 0
M  V30 41955 O 3890.55 -1.68483 0.633532 0
M  V30 41956 H 3886.93 -0.56204 0.499615 0
M  V30 41957 H 3888.9 -1.57019 2.53747 0
M  V30 41958 C 3887.65 -3.08301 1.60766 0
M  V30 41959 H 3886.97 -3.14198 2.47224 0
M  V30 41960 H 3888.41 -3.87034 1.73149 0
M  V30 41961 C 3886.87 -3.35194 0.338574 0
M  V30 41962 O 3887.4 -3.97695 -0.565847 0
M  V30 41963 N 3885.6 -2.89746 0.222576 0
M  V30 41964 H 3885.15 -2.39064 0.959477 0
M  V30 41965 H 3885.11 -3.08112 -0.625643 0
M  V30 41966 N 3888.88 -1.34844 -0.815777 0
M  V30 41967 C 3889.83 -1.27009 -1.9271 0
M  V30 41968 C 3890.8 -0.143867 -1.65476 0
M  V30 41969 O 3891.98 -0.32604 -1.87994 0
M  V30 41970 C 3889.12 -1.03869 -3.29098 0
M  V30 41971 C 3888.24 -2.2533 -3.68579 0
M  V30 41972 C 3887.37 -1.95415 -4.9395 0
M  V30 41973 C 3886.41 -3.12981 -5.26032 0
M  V30 41974 N 3885.55 -2.82902 -6.42581 0
M  V30 41975 H 3890.39 -2.22047 -1.98743 0
M  V30 41976 H 3887.92 -1.10389 -0.972245 0
M  V30 41977 H 3889.88 -0.884881 -4.07708 0
M  V30 41978 H 3888.51 -0.124967 -3.22558 0
M  V30 41979 H 3887.56 -2.51608 -2.85303 0
M  V30 41980 H 3888.88 -3.13147 -3.88253 0
M  V30 41981 H 3888.03 -1.76812 -5.80364 0
M  V30 41982 H 3886.77 -1.0487 -4.76291 0
M  V30 41983 H 3885.77 -3.32172 -4.38111 0
M  V30 41984 H 3887 -4.04314 -5.45625 0
M  V30 41985 H 3884.95 -1.94941 -6.26366 0
M  V30 41986 H 3884.86 -3.64251 -6.62463 0
M  V30 41987 H 3886.13 -2.67818 -7.32048 0
M  V30 41988 N 3890.36 1.03684 -1.1869 0
M  V30 41989 C 3891.59 1.80593 -1.00964 0
M  V30 41990 C 3892 1.83557 0.441848 0
M  V30 41991 O 3891.36 1.27382 1.30691 0
M  V30 41992 C 3891.41 3.26016 -1.56191 0
M  V30 41993 O 3891.13 3.23293 -2.95658 0
M  V30 41994 C 3892.63 4.19556 -1.43136 0
M  V30 41995 H 3889.85 0.568587 -0.356301 0
M  V30 41996 H 3892.4 1.30647 -1.57326 0
M  V30 41997 H 3890.55 3.7318 -1.03996 0
M  V30 41998 H 3890.97 4.14422 -3.21488 0
M  V30 41999 H 3892.44 5.19515 -1.8657 0
M  V30 42000 H 3892.92 4.37547 -0.380658 0
M  V30 42001 H 3893.52 3.78259 -1.94423 0
M  V30 42002 N 3891.84 0.989551 1.22661 0
M  V30 42003 C 3893.08 0.664514 1.91604 0
M  V30 42004 C 3893.42 -0.801017 1.76911 0
M  V30 42005 O 3892.69 -1.57888 1.13586 0
M  V30 42006 C 3892.97 1.06704 3.43928 0
M  V30 42007 C 3892.83 2.59088 3.67687 0
M  V30 42008 C 3894.15 0.617772 4.35743 0
M  V30 42009 H 3891.27 0.242885 0.695828 0
M  V30 42010 H 3893.91 1.23247 1.44603 0
M  V30 42011 H 3892.06 0.583778 3.84089 0
M  V30 42012 H 3893.73 3.15059 3.3695 0
M  V30 42013 H 3891.97 3.01309 3.12082 0
M  V30 42014 H 3892.64 2.82304 4.74351 0
M  V30 42015 H 3895.12 1.03282 4.03078 0
M  V30 42016 H 3894 0.927754 5.41003 0
M  V30 42017 H 3894.26 -0.481657 4.39468 0
M  V30 42018 N 3893.32 -1.37936 0.762332 0
M  V30 42019 C 3894.54 -2.04195 0.333494 0
M  V30 42020 C 3894.96 -1.57498 -1.04115 0
M  V30 42021 O 3894.32 -0.751968 -1.66288 0
M  V30 42022 C 3894.37 -3.59734 0.356913 0
M  V30 42023 O 3894.09 -4.04719 1.67732 0
M  V30 42024 C 3895.59 -4.43219 -0.0846997 0
M  V30 42025 H 3892.81 -0.655993 0.141118 0
M  V30 42026 H 3895.35 -1.76455 1.03363 0
M  V30 42027 H 3893.51 -3.86279 -0.294557 0
M  V30 42028 H 3893.92 -4.99195 1.60948 0
M  V30 42029 H 3895.4 -5.51997 -0.017155 0
M  V30 42030 H 3895.87 -4.24313 -1.1338 0
M  V30 42031 H 3896.48 -4.21881 0.538225 0
M  V30 42032 N 3894.79 -0.512106 -1.49048 0
M  V30 42033 C 3896.04 0.0284533 -2.0248 0
M  V30 42034 C 3896.37 1.35963 -1.39084 0
M  V30 42035 O 3895.62 1.88675 -0.519626 0
M  V30 42036 C 3895.92 0.218062 -3.56734 0
M  V30 42037 C 3895.59 -1.0365 -4.38825 0
M  V30 42038 C 3894.25 -1.38038 -4.60976 0
M  V30 42039 C 3896.6 -1.8699 -4.86502 0
M  V30 42040 C 3893.93 -2.55695 -5.2805 0
M  V30 42041 C 3896.28 -3.03811 -5.54871 0
M  V30 42042 C 3894.95 -3.38565 -5.75265 0
M  V30 42043 H 3894.22 0.0104118 -0.740927 0
M  V30 42044 H 3896.86 -0.674513 -1.79228 0
M  V30 42045 H 3895.17 1.00365 -3.78727 0
M  V30 42046 H 3896.87 0.650943 -3.95681 0
M  V30 42047 H 3893.46 -0.758669 -4.21832 0
M  V30 42048 H 3897.64 -1.61737 -4.69207 0
M  V30 42049 H 3892.9 -2.82846 -5.42041 0
M  V30 42050 H 3897.07 -3.68707 -5.90786 0
M  V30 42051 H 3894.7 -4.29836 -6.27013 0
M  V30 42052 N 3896.27 1.55662 -0.246424 0
M  V30 42053 C 3897.18 2.25005 0.664086 0
M  V30 42054 C 3898.2 1.26601 1.19366 0
M  V30 42055 O 3899.37 1.59475 1.23003 0
M  V30 42056 C 3896.44 2.9356 1.84454 0
M  V30 42057 C 3895.5 4.07372 1.35449 0
M  V30 42058 C 3894.73 4.72649 2.47868 0
M  V30 42059 O 3894.96 4.37002 3.66586 0
M  V30 42060 O 3893.89 5.61169 2.17654 0
M  V30 42061 H 3897.72 3.03525 0.103223 0
M  V30 42062 H 3895.3 1.49393 -0.014947 0
M  V30 42063 H 3897.18 3.36742 2.53343 0
M  V30 42064 H 3895.86 2.1798 2.39304 0
M  V30 42065 H 3894.76 3.68708 0.632893 0
M  V30 42066 H 3896.1 4.84768 0.852089 0
M  V30 42067 N 3897.75 -0.0266943 1.57577 0
M  V30 42068 C 3898.66 -1.04348 2.10116 0
M  V30 42069 C 3899.68 -1.39476 1.04032 0
M  V30 42070 O 3900.85 -1.48747 1.3578 0
M  V30 42071 C 3897.92 -2.32477 2.57207 0
M  V30 42072 C 3896.98 -2.03908 3.77783 0
M  V30 42073 C 3896.21 -3.25928 4.22619 0
M  V30 42074 O 3896.43 -4.36686 3.66963 0
M  V30 42075 O 3895.37 -3.11489 5.15032 0
M  V30 42076 H 3899.19 -0.626969 2.97158 0
M  V30 42077 H 3896.78 -0.243829 1.47397 0
M  V30 42078 H 3898.66 -3.078 2.87815 0
M  V30 42079 H 3897.34 -2.73418 1.73275 0
M  V30 42080 H 3896.24 -1.26146 3.5219 0
M  V30 42081 H 3897.58 -1.67821 4.62706 0
M  V30 42082 N 3899.23 -1.54738 -0.299007 0
M  V30 42083 C 3900.18 -1.82211 -1.37052 0
M  V30 42084 C 3901.16 -0.679382 -1.45853 0
M  V30 42085 O 3902.35 -0.94007 -1.49972 0
M  V30 42086 C 3899.48 -2.07464 -2.73521 0
M  V30 42087 C 3898.57 -3.27925 -2.68934 0
M  V30 42088 N 3898.96 -4.48436 -2.33964 0
M  V30 42089 C 3897.26 -3.29993 -3.00034 0
M  V30 42090 C 3897.96 -5.30458 -2.38724 0
M  V30 42091 N 3896.93 -4.68228 -2.76159 0
M  V30 42092 H 3900.74 -2.72947 -1.08981 0
M  V30 42093 H 3898.25 -1.54264 -0.507591 0
M  V30 42094 H 3900.25 -2.25293 -3.50783 0
M  V30 42095 H 3898.91 -1.17996 -3.02501 0
M  V30 42096 H 3899.92 -4.75001 -2.06384 0
M  V30 42097 H 3896.6 -2.50638 -3.33897 0
M  V30 42098 H 3897.99 -6.36752 -2.14469 0
M  V30 42099 N 3900.71 0.562296 -1.47228 0
M  V30 42100 C 3901.95 1.31601 -1.52853 0
M  V30 42101 C 3902.27 1.94643 -0.19327 0
M  V30 42102 O 3903.47 2.71201 -0.127477 0
M  V30 42103 C 3901.93 2.38616 -2.69426 0
M  V30 42104 C 3901.54 1.81787 -4.0946 0
M  V30 42105 C 3903.28 3.152 -2.8434 0
M  V30 42106 C 3901.19 2.86551 -5.17342 0
M  V30 42107 H 3900.12 0.494806 -0.568932 0
M  V30 42108 H 3902.77 0.597788 -1.7349 0
M  V30 42109 H 3901.15 3.13329 -2.42159 0
M  V30 42110 H 3902.33 1.1348 -4.46608 0
M  V30 42111 H 3900.64 1.17804 -3.99389 0
M  V30 42112 H 3903.24 3.93425 -3.62107 0
M  V30 42113 H 3903.58 3.69069 -1.92597 0
M  V30 42114 H 3904.11 2.47597 -3.11353 0
M  V30 42115 H 3900.85 2.37544 -6.10945 0
M  V30 42116 H 3900.37 3.53285 -4.84716 0
M  V30 42117 H 3902.05 3.50136 -5.44071 0
M  V30 42118 N 3902.18 1.35274 0.808615 0
M  V30 42119 C 3903.13 1.28029 1.92034 0
M  V30 42120 C 3904.1 0.15264 1.65397 0
M  V30 42121 O 3905.29 0.336005 1.87818 0
M  V30 42122 C 3902.43 1.05613 3.28542 0
M  V30 42123 C 3901.54 2.27282 3.67378 0
M  V30 42124 C 3900.67 1.98032 4.92906 0
M  V30 42125 C 3899.71 3.15766 5.24365 0
M  V30 42126 N 3898.85 2.86306 6.41072 0
M  V30 42127 H 3903.69 2.23098 1.97563 0
M  V30 42128 H 3901.23 1.10903 0.966378 0
M  V30 42129 H 3903.18 0.90649 4.07233 0
M  V30 42130 H 3901.81 0.142072 3.22487 0
M  V30 42131 H 3900.87 2.53117 2.83964 0
M  V30 42132 H 3902.18 3.15201 3.86587 0
M  V30 42133 H 3901.33 1.79887 5.79418 0
M  V30 42134 H 3900.07 1.07395 4.75729 0
M  V30 42135 H 3899.08 3.34491 4.36344 0
M  V30 42136 H 3900.3 4.07202 5.43473 0
M  V30 42137 H 3898.25 1.9826 6.25323 0
M  V30 42138 H 3898.16 3.67759 6.60522 0
M  V30 42139 H 3899.43 2.71697 7.30617 0
M  V30 42140 N 3903.66 -1.03053 1.19239 0
M  V30 42141 C 3904.57 -2.14773 0.943914 0
M  V30 42142 C 3905.59 -1.73738 -0.0955079 0
M  V30 42143 O 3906.76 -2.01204 0.088754 0
M  V30 42144 C 3903.83 -3.43304 0.48408 0
M  V30 42145 C 3902.89 -3.98663 1.59269 0
M  V30 42146 C 3902.12 -5.21059 1.1547 0
M  V30 42147 O 3902.35 -5.70397 0.0175844 0
M  V30 42148 O 3901.28 -5.69211 1.95658 0
M  V30 42149 H 3905.11 -2.38596 1.87898 0
M  V30 42150 H 3902.69 -1.13194 0.975066 0
M  V30 42151 H 3904.57 -4.20737 0.236209 0
M  V30 42152 H 3903.25 -3.2093 -0.422569 0
M  V30 42153 H 3902.16 -3.22571 1.89469 0
M  V30 42154 H 3903.49 -4.25398 2.47584 0
M  V30 42155 N 3905.14 -0.996042 -1.22134 0
M  V30 42156 C 3906.05 -0.557967 -2.27868 0
M  V30 42157 C 3907.07 0.394751 -1.69463 0
M  V30 42158 O 3908.24 0.260805 -1.99704 0
M  V30 42159 C 3905.31 0.117373 -3.46501 0
M  V30 42160 C 3904.37 -0.878701 -4.20211 0
M  V30 42161 C 3903.6 -0.235494 -5.3318 0
M  V30 42162 O 3903.82 0.969855 -5.62094 0
M  V30 42163 O 3902.76 -0.941933 -5.94484 0
M  V30 42164 H 3906.58 -1.4377 -2.67514 0
M  V30 42165 H 3904.17 -0.76445 -1.28361 0
M  V30 42166 H 3906.05 0.495517 -4.18477 0
M  V30 42167 H 3904.73 0.971619 -3.08774 0
M  V30 42168 H 3903.63 -1.30784 -3.50495 0
M  V30 42169 H 3904.97 -1.70225 -4.61827 0
M  V30 42170 N 3906.62 1.37529 -0.769636 0
M  V30 42171 C 3907.57 2.2764 -0.128058 0
M  V30 42172 C 3908.55 1.45996 0.676304 0
M  V30 42173 O 3909.74 1.68574 0.539624 0
M  V30 42174 C 3906.87 3.34965 0.751877 0
M  V30 42175 C 3905.96 4.24057 -0.060201 0
M  V30 42176 N 3906.35 4.93587 -1.10477 0
M  V30 42177 C 3904.65 4.45698 0.164111 0
M  V30 42178 C 3905.35 5.59335 -1.59747 0
M  V30 42179 N 3904.33 5.35929 -0.910006 0
M  V30 42180 H 3908.13 2.7887 -0.927846 0
M  V30 42181 H 3905.64 1.50622 -0.607191 0
M  V30 42182 H 3907.64 3.98427 1.22726 0
M  V30 42183 H 3906.3 2.85292 1.55043 0
M  V30 42184 H 3907.31 4.96097 -1.48688 0
M  V30 42185 H 3903.99 4.06901 0.934743 0
M  V30 42186 H 3905.38 6.24913 -2.46846 0
M  V30 42187 N 3908.1 0.520003 1.48774 0
M  V30 42188 C 3909.04 -0.261697 2.31123 0
M  V30 42189 C 3910.04 -0.944935 1.40596 0
M  V30 42190 O 3911.24 -0.870457 1.57553 0
M  V30 42191 H 3907.62 -0.103259 0.744877 0
M  V30 42192 H 3909.59 0.452566 2.94948 0
M  V30 42193 C 3908.34 -1.30178 3.22411 0
M  V30 42194 H 3907.66 -0.785455 3.92008 0
M  V30 42195 H 3909.1 -1.82035 3.82935 0
M  V30 42196 C 3907.56 -2.33011 2.43326 0
M  V30 42197 O 3908.09 -3.39261 2.15093 0
M  V30 42198 N 3906.3 -2.05968 2.05002 0
M  V30 42199 H 3905.84 -1.19582 2.28162 0
M  V30 42200 H 3905.8 -2.74995 1.52397 0
M  V30 42201 N 3909.57 -1.55529 0.254676 0
M  V30 42202 C 3910.51 -2.17757 -0.682421 0
M  V30 42203 C 3911.49 -1.13204 -1.1672 0
M  V30 42204 O 3912.67 -1.41629 -1.24392 0
M  V30 42205 C 3909.8 -2.78448 -1.92832 0
M  V30 42206 C 3908.84 -3.96124 -1.58076 0
M  V30 42207 S 3909.68 -5.31208 -0.676622 0
M  V30 42208 C 3910.83 -5.95357 -1.93135 0
M  V30 42209 H 3911.06 -2.96903 -0.153612 0
M  V30 42210 H 3908.6 -1.54351 0.0390716 0
M  V30 42211 H 3910.56 -3.14049 -2.64355 0
M  V30 42212 H 3909.22 -1.99234 -2.42826 0
M  V30 42213 H 3908.41 -4.37207 -2.5073 0
M  V30 42214 H 3908.01 -3.61841 -0.945902 0
M  V30 42215 H 3910.3 -6.13346 -2.87772 0
M  V30 42216 H 3911.25 -6.90615 -1.56388 0
M  V30 42217 H 3911.65 -5.24505 -2.08699 0
M  V30 42218 N 3911.05 0.0183372 -1.57589 0
M  V30 42219 C 3912.3 0.702487 -1.90884 0
M  V30 42220 C 3912.65 1.72387 -0.854433 0
M  V30 42221 O 3911.95 1.91119 0.135614 0
M  V30 42222 C 3912.14 1.40374 -3.28679 0
M  V30 42223 C 3911.97 0.451795 -4.47425 0
M  V30 42224 C 3910.74 0.0688983 -5.05253 0
M  V30 42225 C 3912.94 -0.274323 -5.13568 0
M  V30 42226 N 3910.92 -0.883178 -6.07514 0
M  V30 42227 C 3912.29 -1.0817 -6.10491 0
M  V30 42228 C 3914.35 -0.340122 -4.96737 0
M  V30 42229 C 3913.05 -1.94884 -6.92396 0
M  V30 42230 C 3915.07 -1.19442 -5.79213 0
M  V30 42231 C 3914.44 -1.98969 -6.75715 0
M  V30 42232 H 3910.54 0.230825 -0.747157 0
M  V30 42233 H 3913.12 -0.0377002 -1.94663 0
M  V30 42234 H 3911.29 2.11433 -3.25808 0
M  V30 42235 H 3913.02 2.04113 -3.49457 0
M  V30 42236 H 3909.78 0.433379 -4.71613 0
M  V30 42237 H 3910.2 -1.35404 -6.63321 0
M  V30 42238 H 3914.84 0.26043 -4.21997 0
M  V30 42239 H 3912.56 -2.56014 -7.66474 0
M  V30 42240 H 3916.15 -1.24901 -5.68235 0
M  V30 42241 H 3915.03 -2.64006 -7.38424 0
M  V30 42242 N 3912.53 1.54894 0.290797 0
M  V30 42243 C 3913.48 1.82935 1.36084 0
M  V30 42244 C 3914.46 0.687108 1.45491 0
M  V30 42245 O 3915.66 0.948011 1.49472 0
M  V30 42246 C 3912.79 2.08911 2.72417 0
M  V30 42247 C 3911.87 3.29347 2.67192 0
M  V30 42248 N 3912.26 4.4967 2.31582 0
M  V30 42249 C 3910.56 3.3158 2.9828 0
M  V30 42250 C 3911.26 5.31716 2.35908 0
M  V30 42251 N 3910.24 4.69686 2.73672 0
M  V30 42252 H 3914.04 2.73521 1.07532 0
M  V30 42253 H 3911.55 1.54531 0.499403 0
M  V30 42254 H 3913.55 2.2715 3.49583 0
M  V30 42255 H 3912.21 1.19598 3.01871 0
M  V30 42256 H 3913.22 4.76089 2.03862 0
M  V30 42257 H 3909.9 2.52405 3.32563 0
M  V30 42258 H 3911.29 6.3788 2.11089 0
M  V30 42259 N 3914.01 -0.55448 1.47524 0
M  V30 42260 C 3915.24 -1.33494 1.5768 0
M  V30 42261 C 3915.65 -1.87833 0.227009 0
M  V30 42262 O 3914.99 -1.65831 -0.790298 0
M  V30 42263 C 3915.05 -2.53982 2.54427 0
M  V30 42264 C 3914.72 -2.20909 4.0006 0
M  V30 42265 C 3915.71 -1.7804 4.88465 0
M  V30 42266 C 3913.4 -2.32185 4.45416 0
M  V30 42267 C 3915.39 -1.46878 6.20246 0
M  V30 42268 C 3913.08 -2.00635 5.77225 0
M  V30 42269 C 3914.08 -1.5805 6.64461 0
M  V30 42270 O 3913.76 -1.26903 7.9382 0
M  V30 42271 H 3913.5 -0.413143 0.53506 0
M  V30 42272 H 3916.05 -0.678245 1.93879 0
M  V30 42273 H 3914.28 -3.22552 2.13301 0
M  V30 42274 H 3915.97 -3.16057 2.54682 0
M  V30 42275 H 3916.74 -1.68819 4.5467 0
M  V30 42276 H 3912.61 -2.64289 3.7772 0
M  V30 42277 H 3916.16 -1.13566 6.88294 0
M  V30 42278 H 3912.06 -2.09489 6.10561 0
M  V30 42279 H 3912.82 -1.40511 8.06349 0
M  V30 42280 N 3915.49 -1.35701 -0.80143 0
M  V30 42281 C 3916.42 -1.31715 -1.92804 0
M  V30 42282 C 3917.4 -0.190671 -1.69028 0
M  V30 42283 O 3918.58 -0.386443 -1.90316 0
M  V30 42284 C 3915.71 -1.09358 -3.29633 0
M  V30 42285 C 3914.67 -2.18701 -3.67904 0
M  V30 42286 C 3913.99 -1.81503 -5.02952 0
M  V30 42287 C 3915.29 -3.60705 -3.77743 0
M  V30 42288 H 3916.99 -2.25983 -1.96397 0
M  V30 42289 H 3914.53 -1.08784 -0.943509 0
M  V30 42290 H 3916.49 -1.05207 -4.08056 0
M  V30 42291 H 3915.21 -0.115363 -3.26396 0
M  V30 42292 H 3913.87 -2.21958 -2.91771 0
M  V30 42293 H 3913.52 -0.822864 -4.96224 0
M  V30 42294 H 3913.22 -2.54702 -5.29529 0
M  V30 42295 H 3914.74 -1.78886 -5.83808 0
M  V30 42296 H 3916.15 -3.59742 -4.46384 0
M  V30 42297 H 3914.55 -4.32708 -4.15793 0
M  V30 42298 H 3915.62 -3.96482 -2.7916 0
M  V30 42299 N 3916.96 1.02419 -1.19783 0
M  V30 42300 C 3918.2 1.77445 -1.01453 0
M  V30 42301 C 3918.57 1.8674 0.446338 0
M  V30 42302 O 3919.77 2.58137 0.749594 0
M  V30 42303 C 3918.04 3.15952 -1.67061 0
M  V30 42304 S 3919.6 4.07109 -1.63732 0
M  V30 42305 H 3916.42 0.610784 -0.363955 0
M  V30 42306 H 3919.02 1.22687 -1.52211 0
M  V30 42307 H 3917.72 3.06807 -2.72576 0
M  V30 42308 H 3917.25 3.75784 -1.16403 0
M  V30 42309 H 3919.27 4.91726 -0.664818 0
M  V30 42310 N 3918.44 1.0025 1.21604 0
M  V30 42311 C 3919.69 0.683786 1.90606 0
M  V30 42312 C 3920.02 -0.785197 1.77946 0
M  V30 42313 O 3919.27 -1.58449 1.14859 0
M  V30 42314 C 3919.57 1.04745 3.41706 0
M  V30 42315 C 3919.24 2.51029 3.7456 0
M  V30 42316 C 3917.9 2.91002 3.83238 0
M  V30 42317 C 3920.25 3.45799 3.89965 0
M  V30 42318 C 3917.58 4.24714 4.04766 0
M  V30 42319 C 3919.93 4.79181 4.12999 0
M  V30 42320 C 3918.6 5.18881 4.19903 0
M  V30 42321 H 3917.87 0.250215 0.697477 0
M  V30 42322 H 3920.51 1.26048 1.44167 0
M  V30 42323 H 3918.82 0.388974 3.89864 0
M  V30 42324 H 3920.52 0.778744 3.93366 0
M  V30 42325 H 3917.11 2.19049 3.68396 0
M  V30 42326 H 3921.29 3.16083 3.8263 0
M  V30 42327 H 3916.55 4.55047 4.08341 0
M  V30 42328 H 3920.72 5.52553 4.23862 0
M  V30 42329 H 3918.35 6.22506 4.36337 0
M  V30 42330 N 3919.92 -1.37119 0.776919 0
M  V30 42331 C 3921.17 -1.9881 0.340244 0
M  V30 42332 C 3921.48 -1.62368 -1.09068 0
M  V30 42333 O 3922.69 -2.172 -1.629 0
M  V30 42334 C 3921.15 -3.55558 0.557387 0
M  V30 42335 C 3920.75 -4.00933 1.99891 0
M  V30 42336 C 3922.5 -4.24098 0.184594 0
M  V30 42337 C 3920.4 -5.50411 2.16338 0
M  V30 42338 H 3919.33 -0.743821 0.123473 0
M  V30 42339 H 3921.99 -1.56582 0.956781 0
M  V30 42340 H 3920.37 -3.95791 -0.128682 0
M  V30 42341 H 3921.54 -3.71932 2.72036 0
M  V30 42342 H 3919.86 -3.45191 2.32878 0
M  V30 42343 H 3922.45 -5.33935 0.285921 0
M  V30 42344 H 3922.8 -4.07198 -0.865788 0
M  V30 42345 H 3923.33 -3.89185 0.823412 0
M  V30 42346 H 3920.07 -5.72244 3.19713 0
M  V30 42347 H 3919.59 -5.8108 1.48683 0
M  V30 42348 H 3921.27 -6.16455 1.96448 0
M  V30 42349 N 3921.4 -0.527886 -1.48496 0
M  V30 42350 C 3922.65 0.00698632 -2.02799 0
M  V30 42351 C 3922.98 1.34132 -1.40436 0
M  V30 42352 O 3922.25 1.8658 -0.549373 0
M  V30 42353 C 3922.54 0.131209 -3.59861 0
M  V30 42354 C 3922.39 -1.22815 -4.32708 0
M  V30 42355 C 3923.71 0.859004 -4.31635 0
M  V30 42356 H 3920.83 0.00106492 -0.736999 0
M  V30 42357 H 3923.47 -0.684509 -1.77241 0
M  V30 42358 H 3921.62 0.720149 -3.81767 0
M  V30 42359 H 3923.29 -1.85804 -4.22226 0
M  V30 42360 H 3921.53 -1.81057 -3.94209 0
M  V30 42361 H 3922.21 -1.09425 -5.41045 0
M  V30 42362 H 3924.68 0.35925 -4.14546 0
M  V30 42363 H 3923.56 0.914816 -5.41223 0
M  V30 42364 H 3923.82 1.90882 -3.98769 0
M  V30 42365 N 3922.88 1.55391 -0.26292 0
M  V30 42366 C 3923.81 2.25016 0.623692 0
M  V30 42367 C 3924.79 1.236 1.16863 0
M  V30 42368 O 3925.97 1.52292 1.20502 0
M  V30 42369 C 3923.1 2.96193 1.81348 0
M  V30 42370 C 3922.06 4.04434 1.40062 0
M  V30 42371 C 3921.38 4.6312 2.67253 0
M  V30 42372 C 3922.68 5.19291 0.559813 0
M  V30 42373 H 3924.38 2.99369 0.043078 0
M  V30 42374 H 3921.92 1.43987 0.019279 0
M  V30 42375 H 3923.88 3.43607 2.43952 0
M  V30 42376 H 3922.6 2.19355 2.41973 0
M  V30 42377 H 3921.26 3.57813 0.797842 0
M  V30 42378 H 3920.91 3.82964 3.2611 0
M  V30 42379 H 3920.61 5.36198 2.40345 0
M  V30 42380 H 3922.13 5.13276 3.30726 0
M  V30 42381 H 3923.55 5.62832 1.09054 0
M  V30 42382 H 3921.94 5.98856 0.386129 0
M  V30 42383 H 3923.01 4.8304 -0.424284 0
M  V30 42384 N 3924.36 -0.00997961 1.57597 0
M  V30 42385 C 3925.6 -0.697934 1.90412 0
M  V30 42386 C 3925.93 -1.73973 0.862955 0
M  V30 42387 O 3925.21 -1.94132 -0.119612 0
M  V30 42388 C 3925.49 -1.35016 3.3383 0
M  V30 42389 C 3925.35 -0.320581 4.48656 0
M  V30 42390 C 3926.66 -2.27904 3.76494 0
M  V30 42391 H 3923.78 -0.252253 0.692486 0
M  V30 42392 H 3926.43 0.0392659 1.89959 0
M  V30 42393 H 3924.58 -1.9785 3.34347 0
M  V30 42394 H 3926.25 0.30731 4.60275 0
M  V30 42395 H 3924.49 0.358204 4.32319 0
M  V30 42396 H 3925.16 -0.815795 5.45938 0
M  V30 42397 H 3927.64 -1.75097 3.77466 0
M  V30 42398 H 3926.51 -2.70511 4.77614 0
M  V30 42399 H 3926.77 -3.15392 3.09807 0
M  V30 42400 N 3925.83 -1.55046 -0.282578 0
M  V30 42401 C 3926.78 -1.87268 -1.34905 0
M  V30 42402 C 3927.75 -0.723256 -1.49527 0
M  V30 42403 O 3928.94 -0.973631 -1.64089 0
M  V30 42404 C 3926.08 -2.14173 -2.706 0
M  V30 42405 C 3925.19 -3.41733 -2.64278 0
M  V30 42406 C 3924.32 -3.58386 -3.92088 0
M  V30 42407 C 3923.36 -4.79672 -3.80238 0
M  V30 42408 N 3922.5 -4.93033 -4.99862 0
M  V30 42409 H 3927.34 -2.78233 -1.06726 0
M  V30 42410 H 3924.88 -1.3776 -0.515821 0
M  V30 42411 H 3926.83 -2.2777 -3.49538 0
M  V30 42412 H 3925.46 -1.26453 -2.97001 0
M  V30 42413 H 3924.52 -3.36659 -1.77102 0
M  V30 42414 H 3925.83 -4.30802 -2.51418 0
M  V30 42415 H 3924.98 -3.71748 -4.79467 0
M  V30 42416 H 3923.72 -2.67484 -4.07804 0
M  V30 42417 H 3922.73 -4.66324 -2.91243 0
M  V30 42418 H 3923.95 -5.72 -3.6605 0
M  V30 42419 H 3921.9 -4.05059 -5.16007 0
M  V30 42420 H 3921.81 -5.76133 -4.89497 0
M  V30 42421 H 3923.08 -5.10771 -5.8884 0
M  V30 42422 N 3927.31 0.546649 -1.47816 0
M  V30 42423 C 3928.56 1.30526 -1.55212 0
M  V30 42424 C 3928.89 1.92971 -0.218162 0
M  V30 42425 O 3928.17 1.78425 0.774266 0
M  V30 42426 C 3928.45 2.40735 -2.67804 0
M  V30 42427 C 3928.3 1.8309 -4.1085 0
M  V30 42428 C 3929.62 3.42603 -2.76244 0
M  V30 42429 H 3926.74 0.473219 -0.565007 0
M  V30 42430 H 3929.38 0.610682 -1.79919 0
M  V30 42431 H 3927.53 2.99981 -2.46868 0
M  V30 42432 H 3929.2 1.28023 -4.43179 0
M  V30 42433 H 3927.45 1.13708 -4.18632 0
M  V30 42434 H 3928.12 2.6281 -4.85423 0
M  V30 42435 H 3930.59 2.9329 -2.95161 0
M  V30 42436 H 3929.47 4.17131 -3.56782 0
M  V30 42437 H 3929.73 4.02116 -1.83726 0
M  V30 42438 N 3928.79 1.36124 0.794222 0
M  V30 42439 C 3929.74 1.30059 1.90665 0
M  V30 42440 C 3930.71 0.170174 1.65226 0
M  V30 42441 O 3931.89 0.355907 1.87451 0
M  V30 42442 C 3929.03 1.09092 3.27403 0
M  V30 42443 C 3928.14 2.31166 3.64947 0
M  V30 42444 C 3927.28 2.03249 4.90778 0
M  V30 42445 C 3926.32 3.2131 5.20986 0
M  V30 42446 N 3925.46 2.93089 6.37999 0
M  V30 42447 H 3930.3 2.25181 1.95186 0
M  V30 42448 H 3927.83 1.11922 0.95456 0
M  V30 42449 H 3929.79 0.949631 4.06248 0
M  V30 42450 H 3928.42 0.176268 3.22318 0
M  V30 42451 H 3927.47 2.56115 2.81264 0
M  V30 42452 H 3928.78 3.19284 3.83222 0
M  V30 42453 H 3927.94 1.86022 5.77478 0
M  V30 42454 H 3926.68 1.12435 4.74563 0
M  V30 42455 H 3925.68 3.391 4.32771 0
M  V30 42456 H 3926.91 4.12943 5.39124 0
M  V30 42457 H 3924.85 2.04881 6.23185 0
M  V30 42458 H 3924.77 3.74744 6.56584 0
M  V30 42459 H 3926.04 2.79431 7.27694 0
M  V30 42460 N 3930.27 -1.01782 1.20325 0
M  V30 42461 C 3931.54 -1.72521 0.921734 0
M  V30 42462 C 3931.92 -2.03265 -0.569803 0
M  V30 42463 O 3931.27 -1.69614 -1.53112 0
M  V30 42464 C 3931.48 -2.99396 1.7934 0
M  V30 42465 C 3932.83 -3.72685 2.03448 0
M  V30 42466 O 3933.85 -3.09349 1.76583 0
M  V30 42467 O 3932.71 -4.86575 2.48812 0
M  V30 42468 H 3929.81 -0.751822 0.344519 0
M  V30 42469 H 3932.35 -1.07641 1.31192 0
M  V30 42470 H 3931.13 -2.72989 2.80344 0
M  V30 42471 H 3930.75 -3.72016 1.40321 0
M  V30 42472 N 3931.75 -1.00894 -1.21071 0
M  V30 42473 C 3932.97 -0.712623 -1.94773 0
M  V30 42474 C 3933.4 0.719055 -1.73814 0
M  V30 42475 O 3932.75 1.49373 -1.0275 0
M  V30 42476 C 3932.8 -1.04408 -3.45154 0
M  V30 42477 O 3931.91 -0.151505 -4.12122 0
M  V30 42478 H 3931.25 -0.265131 -0.608771 0
M  V30 42479 H 3933.78 -1.35025 -1.53719 0
M  V30 42480 H 3933.79 -0.992581 -3.95742 0
M  V30 42481 H 3932.46 -2.08723 -3.59733 0
M  V30 42482 H 3931.04 -0.259871 -3.71993 0
M  V30 42483 N 3933.22 1.36705 -0.78418 0
M  V30 42484 C 3934.45 2.03638 -0.365937 0
M  V30 42485 C 3934.87 1.59134 1.01596 0
M  V30 42486 O 3934.22 0.778327 1.65071 0
M  V30 42487 C 3934.28 3.5912 -0.414098 0
M  V30 42488 O 3934 4.02 -1.74149 0
M  V30 42489 C 3935.5 4.43298 0.0141767 0
M  V30 42490 H 3932.72 0.653665 -0.151537 0
M  V30 42491 H 3935.26 1.74788 -1.06157 0
M  V30 42492 H 3933.42 3.86698 0.233066 0
M  V30 42493 H 3933.83 4.96572 -1.6887 0
M  V30 42494 H 3935.3 5.51955 -0.0706651 0
M  V30 42495 H 3935.78 4.26063 1.06615 0
M  V30 42496 H 3936.39 4.20971 -0.605275 0
M  V30 42497 N 3934.7 0.535753 1.48214 0
M  V30 42498 C 3935.61 -0.227536 2.33494 0
M  V30 42499 C 3936.63 -0.933301 1.46852 0
M  V30 42500 O 3937.8 -0.906977 1.79822 0
M  V30 42501 C 3934.87 -1.25741 3.23095 0
M  V30 42502 C 3933.93 -0.561379 4.25614 0
M  V30 42503 C 3933.16 -1.54219 5.10933 0
M  V30 42504 O 3933.39 -2.77531 4.9833 0
M  V30 42505 O 3932.32 -1.07842 5.9216 0
M  V30 42506 H 3936.15 0.471428 3.00019 0
M  V30 42507 H 3933.73 0.296605 1.46426 0
M  V30 42508 H 3935.61 -1.85243 3.78501 0
M  V30 42509 H 3934.29 -1.93868 2.59224 0
M  V30 42510 H 3933.2 0.0742851 3.74026 0
M  V30 42511 H 3934.53 0.0780514 4.92138 0
M  V30 42512 N 3936.18 -1.5525 0.271158 0
M  V30 42513 C 3937.41 -2.03619 -0.349705 0
M  V30 42514 C 3937.82 -1.14909 -1.50308 0
M  V30 42515 O 3937.16 -0.160919 -1.82994 0
M  V30 42516 C 3937.22 -3.48138 -0.896679 0
M  V30 42517 C 3936.89 -4.56822 0.127553 0
M  V30 42518 C 3937.88 -5.11227 0.945679 0
M  V30 42519 C 3935.57 -5.01623 0.26065 0
M  V30 42520 C 3937.56 -6.08948 1.88313 0
M  V30 42521 C 3935.25 -5.99171 1.20158 0
M  V30 42522 C 3936.25 -6.52714 2.01132 0
M  V30 42523 O 3935.94 -7.48354 2.93634 0
M  V30 42524 H 3935.67 -0.670718 -0.0843374 0
M  V30 42525 H 3938.22 -2.01471 0.399839 0
M  V30 42526 H 3936.45 -3.47513 -1.69622 0
M  V30 42527 H 3938.14 -3.79868 -1.43021 0
M  V30 42528 H 3938.91 -4.7743 0.853567 0
M  V30 42529 H 3934.79 -4.59595 -0.359608 0
M  V30 42530 H 3938.33 -6.50665 2.51557 0
M  V30 42531 H 3934.23 -6.32386 1.29452 0
M  V30 42532 H 3935 -7.66056 2.88271 0
M  V30 42533 N 3937.66 0.00162173 -1.576 0
M  V30 42534 C 3938.89 0.697838 -1.94776 0
M  V30 42535 C 3939.3 1.67398 -0.873124 0
M  V30 42536 O 3938.66 1.81898 0.148087 0
M  V30 42537 C 3938.71 1.43112 -3.31966 0
M  V30 42538 O 3938.43 0.494126 -4.35304 0
M  V30 42539 C 3939.93 2.22199 -3.83592 0
M  V30 42540 H 3937.15 0.194463 -0.642203 0
M  V30 42541 H 3939.7 -0.049016 -2.04441 0
M  V30 42542 H 3937.85 2.12962 -3.23614 0
M  V30 42543 H 3938.26 1.01131 -5.14658 0
M  V30 42544 H 3939.74 2.69006 -4.82016 0
M  V30 42545 H 3940.22 3.04804 -3.16213 0
M  V30 42546 H 3940.82 1.57369 -3.95114 0
M  V30 42547 N 3939.14 1.55194 0.274352 0
M  V30 42548 C 3940.38 1.75389 1.00415 0
M  V30 42549 C 3940.71 0.557277 1.86867 0
M  V30 42550 O 3939.98 -0.427849 1.91171 0
M  V30 42551 H 3938.56 0.646781 0.373742 0
M  V30 42552 H 3941.22 1.92594 0.298908 0
M  V30 42553 H 3940.31 2.65423 1.64186 0
M  V30 42554 N 3940.61 -0.538802 1.48104 0
M  V30 42555 C 3942.03 -1.12082 1.49313 0
M  V30 42556 C 3942.38 -1.94496 0.257999 0
M  V30 42557 O 3941.5 -2.06855 -0.635618 0
M  V30 42558 C 3942.1 -2.03934 2.70548 0
M  V30 42559 C 3940.66 -2.57371 2.74658 0
M  V30 42560 C 3939.8 -1.3414 2.42697 0
M  V30 42561 H 3942.75 -0.324485 1.55347 0
M  V30 42562 H 3942.77 -2.8809 2.48565 0
M  V30 42563 H 3942.29 -1.43924 3.60427 0
M  V30 42564 H 3940.39 -3.21127 1.88966 0
M  V30 42565 H 3940.5 -2.97107 3.75851 0
M  V30 42566 H 3938.86 -1.65426 1.93666 0
M  V30 42567 H 3939.65 -0.75895 3.34806 0
M  V30 42568 N 3942.09 -1.36544 -0.786992 0
M  V30 42569 C 3943 -1.33226 -1.93101 0
M  V30 42570 C 3944.02 -0.234077 -1.72418 0
M  V30 42571 O 3945.19 -0.466862 -1.95914 0
M  V30 42572 C 3942.26 -1.12325 -3.28 0
M  V30 42573 C 3941.32 -2.31641 -3.61443 0
M  V30 42574 C 3940.55 -2.11727 -4.89905 0
M  V30 42575 O 3940.78 -1.09369 -5.59816 0
M  V30 42576 O 3939.71 -2.99561 -5.2206 0
M  V30 42577 H 3943.54 -2.29549 -1.98849 0
M  V30 42578 H 3941.12 -1.17116 -0.927589 0
M  V30 42579 H 3943 -1.02596 -4.0872 0
M  V30 42580 H 3941.68 -0.190666 -3.23138 0
M  V30 42581 H 3940.59 -2.46939 -2.81019 0
M  V30 42582 H 3941.92 -3.23414 -3.71031 0
M  V30 42583 N 3943.57 1.01143 -1.20863 0
M  V30 42584 C 3944.8 1.78947 -1.04846 0
M  V30 42585 C 3945.22 1.83849 0.397644 0
M  V30 42586 O 3944.58 1.27735 1.2866 0
M  V30 42587 C 3944.63 3.21009 -1.64272 0
M  V30 42588 O 3943.73 4.02818 -0.883844 0
M  V30 42589 H 3943.07 0.551747 -0.36942 0
M  V30 42590 H 3945.6 1.27183 -1.60268 0
M  V30 42591 H 3945.61 3.71705 -1.68224 0
M  V30 42592 H 3944.29 3.16756 -2.69515 0
M  V30 42593 H 3942.86 3.614 -0.918929 0
M  V30 42594 N 3945.05 1.01535 1.20534 0
M  V30 42595 C 3946.28 0.722089 1.9357 0
M  V30 42596 C 3946.69 -0.72098 1.74924 0
M  V30 42597 O 3946.03 -1.50058 1.05964 0
M  V30 42598 C 3946.09 0.976381 3.45987 0
M  V30 42599 C 3945.76 2.40832 3.88393 0
M  V30 42600 C 3946.75 3.38908 3.94256 0
M  V30 42601 C 3944.44 2.74873 4.20417 0
M  V30 42602 C 3946.43 4.69086 4.31552 0
M  V30 42603 C 3944.12 4.05264 4.57388 0
M  V30 42604 C 3945.12 5.02182 4.62928 0
M  V30 42605 O 3944.8 6.3024 4.99051 0
M  V30 42606 H 3944.54 0.264522 0.622097 0
M  V30 42607 H 3947.09 1.35908 1.54007 0
M  V30 42608 H 3945.32 0.282229 3.85669 0
M  V30 42609 H 3947.01 0.674903 4.0025 0
M  V30 42610 H 3947.78 3.13945 3.6968 0
M  V30 42611 H 3943.65 2.00124 4.15297 0
M  V30 42612 H 3947.2 5.44731 4.35791 0
M  V30 42613 H 3943.1 4.30007 4.81419 0
M  V30 42614 H 3943.86 6.3451 5.17048 0
M  V30 42615 N 3946.53 -1.36288 0.791419 0
M  V30 42616 C 3947.77 -1.99483 0.365277 0
M  V30 42617 C 3948.11 -1.62665 -1.06084 0
M  V30 42618 O 3947.38 -0.882427 -1.73331 0
M  V30 42619 C 3947.66 -3.56158 0.531379 0
M  V30 42620 C 3947.52 -4.02823 2.00133 0
M  V30 42621 C 3948.84 -4.40069 -0.0523475 0
M  V30 42622 H 3945.95 -0.72468 0.134196 0
M  V30 42623 H 3948.6 -1.6167 0.998131 0
M  V30 42624 H 3946.75 -3.88499 -0.00736101 0
M  V30 42625 H 3948.42 -3.8096 2.60129 0
M  V30 42626 H 3946.66 -3.5429 2.50322 0
M  V30 42627 H 3947.33 -5.11778 2.06851 0
M  V30 42628 H 3949.81 -4.14099 0.407562 0
M  V30 42629 H 3948.68 -5.4882 0.0938863 0
M  V30 42630 H 3948.95 -4.27025 -1.14465 0
M  V30 42631 N 3948.01 -0.543606 -1.47928 0
M  V30 42632 C 3948.97 0.201067 -2.28316 0
M  V30 42633 C 3949.97 0.855289 -1.36167 0
M  V30 42634 O 3951.16 0.713242 -1.58929 0
M  V30 42635 C 3948.29 1.2924 -3.15452 0
M  V30 42636 H 3949.48 -0.5049 -2.95619 0
M  V30 42637 H 3947.04 -0.300038 -1.53393 0
M  V30 42638 H 3947.77 2.03119 -2.5281 0
M  V30 42639 H 3947.56 0.828253 -3.83252 0
M  V30 42640 H 3949.05 1.81581 -3.76056 0
M  V30 42641 N 3949.48 1.55104 -0.279387 0
M  V30 42642 C 3950.39 2.26363 0.61621 0
M  V30 42643 C 3951.41 1.29104 1.16654 0
M  V30 42644 O 3952.59 1.62048 1.19593 0
M  V30 42645 C 3949.65 2.97406 1.78186 0
M  V30 42646 C 3948.71 4.10154 1.26777 0
M  V30 42647 C 3947.94 4.778 2.37787 0
M  V30 42648 O 3948.17 4.44679 3.57234 0
M  V30 42649 O 3947.1 5.65659 2.05701 0
M  V30 42650 H 3950.93 3.03675 0.0388181 0
M  V30 42651 H 3948.51 1.49327 -0.046632 0
M  V30 42652 H 3950.39 3.4204 2.46144 0
M  V30 42653 H 3949.07 2.23007 2.34626 0
M  V30 42654 H 3947.98 3.69967 0.554543 0
M  V30 42655 H 3949.31 4.86467 0.749071 0
M  V30 42656 N 3950.96 0.0067362 1.57599 0
M  V30 42657 C 3951.89 -1.01662 2.04304 0
M  V30 42658 C 3952.87 -1.33082 0.93424 0
M  V30 42659 O 3954.06 -1.45131 1.20288 0
M  V30 42660 C 3951.18 -2.34251 2.44631 0
M  V30 42661 C 3950.23 -2.18446 3.66311 0
M  V30 42662 S 3951.06 -1.50419 5.1394 0
M  V30 42663 C 3952.22 -2.84424 5.57543 0
M  V30 42664 H 3952.45 -0.618954 2.90786 0
M  V30 42665 H 3949.98 -0.204327 1.53042 0
M  V30 42666 H 3951.94 -3.10484 2.68532 0
M  V30 42667 H 3950.6 -2.71155 1.58536 0
M  V30 42668 H 3949.8 -3.16412 3.923 0
M  V30 42669 H 3949.4 -1.50357 3.42445 0
M  V30 42670 H 3951.69 -3.80712 5.60414 0
M  V30 42671 H 3952.63 -2.63126 6.57397 0
M  V30 42672 H 3953.04 -2.88643 4.85124 0
M  V30 42673 N 3952.44 -1.55337 -0.266118 0
M  V30 42674 C 3953.69 -1.75471 -0.994618 0
M  V30 42675 C 3954 -0.567053 -1.872 0
M  V30 42676 O 3955.21 -0.65097 -2.6358 0
M  V30 42677 C 3953.66 -3.10584 -1.81839 0
M  V30 42678 C 3953.27 -4.3694 -0.989336 0
M  V30 42679 C 3955.02 -3.40066 -2.54078 0
M  V30 42680 C 3952.92 -5.63089 -1.80789 0
M  V30 42681 H 3951.85 -0.654085 -0.375086 0
M  V30 42682 H 3954.5 -1.81789 -0.250008 0
M  V30 42683 H 3952.89 -2.98323 -2.60422 0
M  V30 42684 H 3954.06 -4.60137 -0.24719 0
M  V30 42685 H 3952.37 -4.14652 -0.381177 0
M  V30 42686 H 3954.97 -4.31526 -3.15737 0
M  V30 42687 H 3955.31 -2.60511 -3.24715 0
M  V30 42688 H 3955.85 -3.53456 -1.8252 0
M  V30 42689 H 3952.59 -6.45412 -1.1456 0
M  V30 42690 H 3952.11 -5.44024 -2.52582 0
M  V30 42691 H 3953.79 -6.01642 -2.37983 0
M  V30 42692 N 3953.92 0.53094 -1.48387 0
M  V30 42693 C 3954.86 1.63561 -1.62838 0
M  V30 42694 C 3955.83 1.59297 -0.470481 0
M  V30 42695 O 3957.02 1.77737 -0.693844 0
M  V30 42696 C 3954.16 3.01825 -1.67319 0
M  V30 42697 C 3953.27 3.1633 -2.9421 0
M  V30 42698 C 3952.41 4.45147 -2.89858 0
M  V30 42699 C 3951.45 4.53177 -4.11457 0
M  V30 42700 N 3950.58 5.73382 -4.05188 0
M  V30 42701 H 3955.42 1.50549 -2.57175 0
M  V30 42702 H 3952.96 0.732969 -1.27538 0
M  V30 42703 H 3954.92 3.81924 -1.67899 0
M  V30 42704 H 3953.55 3.1361 -0.764743 0
M  V30 42705 H 3952.6 2.29489 -3.03379 0
M  V30 42706 H 3953.91 3.18125 -3.84185 0
M  V30 42707 H 3953.07 5.33536 -2.88833 0
M  V30 42708 H 3951.81 4.45872 -1.9761 0
M  V30 42709 H 3950.81 3.63196 -4.12757 0
M  V30 42710 H 3952.04 4.54192 -5.04863 0
M  V30 42711 H 3949.98 5.75006 -3.15759 0
M  V30 42712 H 3949.9 5.76667 -4.88867 0
M  V30 42713 H 3951.17 6.6406 -4.08221 0
M  V30 42714 N 3955.4 1.36959 0.779739 0
M  V30 42715 C 3956.31 1.34248 1.92392 0
M  V30 42716 C 3957.32 0.243218 1.72292 0
M  V30 42717 O 3958.5 0.477245 1.95664 0
M  V30 42718 C 3955.56 1.14063 3.274 0
M  V30 42719 C 3954.62 2.33555 3.60209 0
M  V30 42720 C 3953.86 2.14322 4.88776 0
M  V30 42721 O 3954.08 1.12337 5.59229 0
M  V30 42722 O 3953.01 3.02325 5.20464 0
M  V30 42723 H 3956.84 2.306 1.97629 0
M  V30 42724 H 3954.42 1.17606 0.921365 0
M  V30 42725 H 3956.31 1.04762 4.0817 0
M  V30 42726 H 3954.98 0.2078 3.23032 0
M  V30 42727 H 3953.89 2.48426 2.79706 0
M  V30 42728 H 3955.22 3.25377 3.69311 0
M  V30 42729 N 3956.87 -1.00501 1.21398 0
M  V30 42730 C 3958.29 -1.26639 0.971327 0
M  V30 42731 C 3958.49 -1.98571 -0.342301 0
M  V30 42732 O 3957.55 -2.28803 -1.06796 0
M  V30 42733 C 3958.86 -2.09004 2.16189 0
M  V30 42734 C 3960.41 -2.2223 2.20415 0
M  V30 42735 C 3960.88 -3.07978 3.38989 0
M  V30 42736 N 3962.37 -3.15566 3.39076 0
M  V30 42737 C 3963.11 -3.8217 4.27474 0
M  V30 42738 N 3962.6 -4.50802 5.2607 0
M  V30 42739 N 3964.4 -3.7881 4.15282 0
M  V30 42740 H 3956.55 -0.522399 2.05876 0
M  V30 42741 H 3958.81 -0.293256 0.901502 0
M  V30 42742 H 3958.52 -1.63499 3.11386 0
M  V30 42743 H 3958.39 -3.09754 2.15249 0
M  V30 42744 H 3960.78 -2.66955 1.25774 0
M  V30 42745 H 3960.86 -1.2095 2.25399 0
M  V30 42746 H 3960.5 -2.63956 4.33924 0
M  V30 42747 H 3960.43 -4.09372 3.31244 0
M  V30 42748 H 3962.92 -2.66708 2.67722 0
M  V30 42749 H 3963.24 -4.99328 5.89823 0
M  V30 42750 H 3961.58 -4.49589 5.29995 0
M  V30 42751 H 3964.77 -3.24346 3.37517 0
M  V30 42752 H 3964.95 -4.30439 4.84382 0
M  V30 42753 N 3958.35 -1.02172 -1.19994 0
M  V30 42754 C 3959.3 -0.589766 -2.24999 0
M  V30 42755 C 3960.29 0.374057 -1.65219 0
M  V30 42756 O 3961.5 0.243418 -1.78347 0
M  V30 42757 H 3957.87 -0.172429 -0.731965 0
M  V30 42758 H 3959.85 -1.48619 -2.58757 0
M  V30 42759 C 3958.59 0.0509285 -3.47663 0
M  V30 42760 H 3957.92 -0.681719 -3.93945 0
M  V30 42761 H 3959.36 0.316213 -4.22819 0
M  V30 42762 C 3957.82 1.29532 -3.11003 0
M  V30 42763 O 3958.35 2.38812 -3.23004 0
M  V30 42764 N 3956.55 1.18136 -2.65504 0
M  V30 42765 H 3956.1 0.292127 -2.55938 0
M  V30 42766 H 3956.06 2.01494 -2.41346 0
M  V30 42767 N 3959.83 1.35866 -0.798635 0
M  V30 42768 C 3960.76 2.32482 -0.217792 0
M  V30 42769 C 3961.74 1.57094 0.652347 0
M  V30 42770 O 3962.93 1.85203 0.584265 0
M  V30 42771 C 3960.06 3.41336 0.640865 0
M  V30 42772 C 3959.01 4.27802 -0.130129 0
M  V30 42773 C 3958.34 5.27905 0.849718 0
M  V30 42774 C 3959.64 5.05224 -1.3246 0
M  V30 42775 H 3961.33 2.81309 -1.02497 0
M  V30 42776 H 3958.88 1.35249 -0.494325 0
M  V30 42777 H 3960.83 4.07923 1.05722 0
M  V30 42778 H 3959.55 2.91099 1.48085 0
M  V30 42779 H 3958.21 3.62784 -0.527564 0
M  V30 42780 H 3957.86 4.73938 1.68498 0
M  V30 42781 H 3957.56 5.86626 0.33822 0
M  V30 42782 H 3959.08 5.97364 1.26444 0
M  V30 42783 H 3960.5 5.648 -0.983529 0
M  V30 42784 H 3958.89 5.73402 -1.77003 0
M  V30 42785 H 3959.96 4.36329 -2.1153 0
M  V30 42786 N 3961.31 0.551443 1.47638 0
M  V30 42787 C 3962.58 -0.0401639 1.95559 0
M  V30 42788 C 3962.96 -1.49141 1.49399 0
M  V30 42789 O 3962.31 -2.16519 0.730186 0
M  V30 42790 C 3962.52 0.099329 3.48859 0
M  V30 42791 C 3963.87 -0.0489771 4.24572 0
M  V30 42792 O 3964.89 0.0265896 3.5619 0
M  V30 42793 O 3963.75 -0.210542 5.46094 0
M  V30 42794 H 3960.85 -0.0673549 0.824253 0
M  V30 42795 H 3963.39 0.617559 1.58064 0
M  V30 42796 H 3962.17 1.10942 3.75243 0
M  V30 42797 H 3961.79 -0.59627 3.93104 0
M  V30 42798 N 3962.79 -1.54953 0.287609 0
M  V30 42799 C 3964.03 -2.00883 -0.31899 0
M  V30 42800 C 3964.39 -1.17251 -1.52545 0
M  V30 42801 O 3963.68 -0.237579 -1.90121 0
M  V30 42802 C 3963.87 -3.49661 -0.739718 0
M  V30 42803 C 3963.7 -4.47693 0.424429 0
M  V30 42804 C 3962.47 -4.96998 0.912198 0
M  V30 42805 C 3964.67 -4.98499 1.26503 0
M  V30 42806 N 3962.65 -5.78855 2.04451 0
M  V30 42807 C 3964.02 -5.77926 2.24503 0
M  V30 42808 C 3966.08 -4.80712 1.29694 0
M  V30 42809 C 3964.78 -6.41461 3.25454 0
M  V30 42810 C 3966.81 -5.45055 2.29496 0
M  V30 42811 C 3966.17 -6.24304 3.26227 0
M  V30 42812 H 3962.27 -0.777736 -0.0815539 0
M  V30 42813 H 3964.85 -1.90237 0.414477 0
M  V30 42814 H 3963.02 -3.60624 -1.44238 0
M  V30 42815 H 3964.76 -3.82405 -1.32471 0
M  V30 42816 H 3961.51 -4.71065 0.489401 0
M  V30 42817 H 3961.94 -6.24472 2.61465 0
M  V30 42818 H 3966.58 -4.19037 0.562852 0
M  V30 42819 H 3964.3 -7.02278 3.99789 0
M  V30 42820 H 3967.88 -5.33227 2.32722 0
M  V30 42821 H 3966.76 -6.73211 4.0219 0
M  V30 42822 N 3964.26 -0.0150939 -1.57593 0
M  V30 42823 C 3965.51 0.666565 -1.91215 0
M  V30 42824 C 3965.84 1.72934 -0.89017 0
M  V30 42825 O 3965.09 1.95429 0.102942 0
M  V30 42826 C 3965.39 1.33371 -3.31583 0
M  V30 42827 C 3965.06 0.402669 -4.49098 0
M  V30 42828 C 3963.72 0.14637 -4.80977 0
M  V30 42829 C 3966.07 -0.237468 -5.20659 0
M  V30 42830 C 3963.4 -0.758106 -5.81781 0
M  V30 42831 C 3965.75 -1.12991 -6.22427 0
M  V30 42832 C 3964.42 -1.39524 -6.52755 0
M  V30 42833 H 3963.69 0.243914 -0.699705 0
M  V30 42834 H 3966.33 -0.0738576 -1.91358 0
M  V30 42835 H 3964.64 2.14854 -3.27635 0
M  V30 42836 H 3966.34 1.86745 -3.54863 0
M  V30 42837 H 3962.93 0.612603 -4.24199 0
M  V30 42838 H 3967.11 -0.0524953 -4.96272 0
M  V30 42839 H 3962.37 -0.971521 -6.03632 0
M  V30 42840 H 3966.54 -1.6322 -6.77002 0
M  V30 42841 H 3964.17 -2.09777 -7.30683 0
M  V30 42842 N 3965.74 1.55476 0.257876 0
M  V30 42843 C 3967.15 1.67346 0.827791 0
M  V30 42844 C 3967.5 0.610527 1.86459 0
M  V30 42845 O 3966.63 -0.245237 2.15006 0
M  V30 42846 C 3967.22 3.03377 1.50824 0
M  V30 42847 C 3965.78 3.17223 2.02599 0
M  V30 42848 C 3964.93 2.63191 0.873257 0
M  V30 42849 H 3967.88 1.58664 0.0339055 0
M  V30 42850 H 3967.9 2.9721 2.37585 0
M  V30 42851 H 3967.41 3.80717 0.753402 0
M  V30 42852 H 3965.52 2.44685 2.80998 0
M  V30 42853 H 3965.63 4.23989 2.23092 0
M  V30 42854 H 3963.99 2.20733 1.27078 0
M  V30 42855 H 3964.78 3.43047 0.131679 0
M  V30 42856 N 3967.22 -0.523064 1.48667 0
M  V30 42857 C 3968.64 -0.852244 1.34941 0
M  V30 42858 C 3968.84 -1.98154 0.365673 0
M  V30 42859 O 3967.89 -2.5162 -0.210627 0
M  V30 42860 C 3969.21 -1.21324 2.75138 0
M  V30 42861 C 3970.75 -1.32273 2.83677 0
M  V30 42862 C 3971.23 -1.71713 4.24592 0
M  V30 42863 N 3972.72 -1.78803 4.27298 0
M  V30 42864 C 3973.45 -2.10719 5.33278 0
M  V30 42865 N 3972.95 -2.41012 6.49527 0
M  V30 42866 N 3974.74 -2.11784 5.20676 0
M  V30 42867 H 3966.89 0.221956 2.11237 0
M  V30 42868 H 3969.16 0.0366691 0.947291 0
M  V30 42869 H 3968.86 -0.457004 3.48718 0
M  V30 42870 H 3968.74 -2.16181 3.09104 0
M  V30 42871 H 3971.12 -2.06973 2.10348 0
M  V30 42872 H 3971.21 -0.355203 2.53322 0
M  V30 42873 H 3970.85 -0.975717 4.9844 0
M  V30 42874 H 3970.78 -2.69528 4.52396 0
M  V30 42875 H 3973.27 -1.57642 3.43449 0
M  V30 42876 H 3973.58 -2.6449 7.2613 0
M  V30 42877 H 3971.93 -2.38516 6.5279 0
M  V30 42878 H 3975.12 -1.8758 4.28872 0
M  V30 42879 H 3975.29 -2.36325 6.03369 0
M  V30 42880 N 3968.7 -1.37371 -0.772465 0
M  V30 42881 C 3969.63 -1.27443 -1.89297 0
M  V30 42882 C 3970.61 -0.155116 -1.61858 0
M  V30 42883 O 3971.79 -0.329201 -1.85603 0
M  V30 42884 C 3968.92 -0.970282 -3.24505 0
M  V30 42885 C 3967.97 -2.10639 -3.70855 0
M  V30 42886 S 3968.8 -3.72605 -3.84612 0
M  V30 42887 C 3969.96 -3.44338 -5.22668 0
M  V30 42888 H 3970.19 -2.22282 -1.97429 0
M  V30 42889 H 3967.72 -1.22985 -0.93349 0
M  V30 42890 H 3969.68 -0.801624 -4.02597 0
M  V30 42891 H 3968.34 -0.039396 -3.14075 0
M  V30 42892 H 3967.53 -1.84856 -4.68876 0
M  V30 42893 H 3967.14 -2.23514 -2.99863 0
M  V30 42894 H 3969.43 -2.99282 -6.07813 0
M  V30 42895 H 3970.37 -4.41684 -5.53463 0
M  V30 42896 H 3970.78 -2.79284 -4.90572 0
M  V30 42897 N 3970.18 0.998553 -1.21929 0
M  V30 42898 C 3971.59 1.26122 -0.978029 0
M  V30 42899 C 3971.79 1.9875 0.331765 0
M  V30 42900 O 3970.85 2.29366 1.05581 0
M  V30 42901 C 3972.16 2.07854 -2.17295 0
M  V30 42902 C 3973.71 2.21058 -2.2159 0
M  V30 42903 C 3974.18 3.06175 -3.40618 0
M  V30 42904 N 3975.68 3.13763 -3.40745 0
M  V30 42905 C 3976.41 3.79897 -4.29495 0
M  V30 42906 N 3975.91 4.48006 -5.28453 0
M  V30 42907 N 3977.7 3.76602 -4.17286 0
M  V30 42908 H 3969.85 0.511474 -2.0615 0
M  V30 42909 H 3972.11 0.288471 -0.903044 0
M  V30 42910 H 3971.82 1.61845 -3.12248 0
M  V30 42911 H 3971.69 3.08609 -2.16888 0
M  V30 42912 H 3974.08 2.66284 -1.27188 0
M  V30 42913 H 3974.16 1.19753 -2.26037 0
M  V30 42914 H 3973.81 2.61651 -4.35317 0
M  V30 42915 H 3973.74 4.07609 -3.3341 0
M  V30 42916 H 3976.23 2.65285 -2.69133 0
M  V30 42917 H 3976.54 4.96193 -5.92463 0
M  V30 42918 H 3974.88 4.46772 -5.32372 0
M  V30 42919 H 3978.08 3.22551 -3.39232 0
M  V30 42920 H 3978.25 4.27864 -4.86658 0
M  V30 42921 N 3971.65 1.02807 1.1945 0
M  V30 42922 C 3972.62 0.612796 2.20856 0
M  V30 42923 C 3973.62 -0.323154 1.57519 0
M  V30 42924 O 3974.81 -0.110272 1.73851 0
M  V30 42925 C 3971.94 -0.103429 3.40743 0
M  V30 42926 H 3973.13 1.51002 2.59111 0
M  V30 42927 H 3970.69 0.819165 1.33114 0
M  V30 42928 H 3971.42 -1.01504 3.08006 0
M  V30 42929 H 3971.21 0.569098 3.87948 0
M  V30 42930 H 3972.7 -0.380924 4.15859 0
M  V30 42931 N 3973.13 -1.35441 0.805829 0
M  V30 42932 C 3974.07 -2.2763 0.16123 0
M  V30 42933 C 3975.04 -1.48048 -0.672341 0
M  V30 42934 O 3976.23 -1.7731 -0.639785 0
M  V30 42935 C 3973.35 -3.29681 -0.776407 0
M  V30 42936 C 3972.4 -4.26494 -0.022554 0
M  V30 42937 S 3973.23 -5.19154 1.31297 0
M  V30 42938 C 3974.39 -6.24747 0.379762 0
M  V30 42939 H 3974.62 -2.81953 0.942856 0
M  V30 42940 H 3972.16 -1.42229 0.600852 0
M  V30 42941 H 3974.11 -3.88973 -1.31188 0
M  V30 42942 H 3972.77 -2.74238 -1.53141 0
M  V30 42943 H 3971.97 -4.98617 -0.734666 0
M  V30 42944 H 3971.57 -3.71368 0.44294 0
M  V30 42945 H 3973.86 -6.761 -0.435253 0
M  V30 42946 H 3974.8 -6.99967 1.07016 0
M  V30 42947 H 3975.21 -5.64495 -0.0242068 0
M  V30 42948 N 3974.61 -0.559265 -1.47343 0
M  V30 42949 C 3975.84 -0.0389228 -2.07363 0
M  V30 42950 C 3976.26 1.24628 -1.40889 0
M  V30 42951 O 3975.62 1.74704 -0.48457 0
M  V30 42952 C 3975.67 0.137831 -3.60336 0
M  V30 42953 O 3974.77 1.19993 -3.94557 0
M  V30 42954 H 3974.11 -0.052248 -0.661941 0
M  V30 42955 H 3976.64 -0.775534 -1.89332 0
M  V30 42956 H 3976.65 0.35139 -4.06484 0
M  V30 42957 H 3975.33 -0.800848 -4.08117 0
M  V30 42958 H 3973.9 0.966694 -3.60152 0
M  V30 42959 N 3976.09 1.54799 -0.295822 0
M  V30 42960 C 3977.02 2.26289 0.575823 0
M  V30 42961 C 3978 1.26051 1.14215 0
M  V30 42962 O 3979.18 1.54814 1.17245 0
M  V30 42963 C 3976.31 2.99973 1.75025 0
M  V30 42964 C 3975.27 4.07314 1.31452 0
M  V30 42965 C 3974.59 4.68685 2.57369 0
M  V30 42966 C 3975.89 5.20362 0.449538 0
M  V30 42967 H 3977.59 2.99393 -0.0204323 0
M  V30 42968 H 3975.13 1.43996 -0.0112671 0
M  V30 42969 H 3977.09 3.48704 2.36608 0
M  V30 42970 H 3975.81 2.24438 2.37266 0
M  V30 42971 H 3974.47 3.59425 0.721765 0
M  V30 42972 H 3974.12 3.89795 3.17913 0
M  V30 42973 H 3973.82 5.41175 2.28917 0
M  V30 42974 H 3975.34 5.20176 3.19765 0
M  V30 42975 H 3976.76 5.65019 0.970914 0
M  V30 42976 H 3975.15 5.99541 0.259016 0
M  V30 42977 H 3976.22 4.82032 -0.526649 0
M  V30 42978 N 3977.57 0.0234513 1.57583 0
M  V30 42979 C 3978.81 -0.657388 1.9185 0
M  V30 42980 C 3979.15 -1.72104 0.899663 0
M  V30 42981 O 3978.42 -1.94342 -0.0784068 0
M  V30 42982 C 3978.7 -1.27905 3.36619 0
M  V30 42983 C 3978.56 -0.225342 4.49235 0
M  V30 42984 C 3979.88 -2.19867 3.81243 0
M  V30 42985 H 3977 -0.237508 0.697681 0
M  V30 42986 H 3979.64 0.0795502 1.89833 0
M  V30 42987 H 3977.79 -1.90714 3.38468 0
M  V30 42988 H 3979.46 0.404872 4.5952 0
M  V30 42989 H 3977.7 0.449825 4.31461 0
M  V30 42990 H 3978.37 -0.69981 5.47546 0
M  V30 42991 H 3980.85 -1.67051 3.81095 0
M  V30 42992 H 3979.73 -2.60319 4.83244 0
M  V30 42993 H 3979.99 -3.0875 3.16427 0
M  V30 42994 N 3979.05 -1.5561 -0.249627 0
M  V30 42995 C 3980.27 -1.81705 -0.999899 0
M  V30 42996 C 3980.7 -0.600145 -1.78269 0
M  V30 42997 O 3980.05 0.450768 -1.75607 0
M  V30 42998 C 3980.1 -3.05508 -1.91565 0
M  V30 42999 O 3979.21 -2.82232 -3.00697 0
M  V30 43000 H 3978.55 -0.599886 -0.284663 0
M  V30 43001 H 3981.08 -2.02791 -0.271444 0
M  V30 43002 H 3981.09 -3.34869 -2.33082 0
M  V30 43003 H 3979.76 -3.93719 -1.34007 0
M  V30 43004 H 3978.34 -2.64032 -2.63328 0
M  V30 43005 N 3980.52 0.515172 -1.48942 0
M  V30 43006 C 3981.75 1.29928 -1.61658 0
M  V30 43007 C 3982.17 1.85966 -0.282562 0
M  V30 43008 O 3981.53 1.65156 0.747885 0
M  V30 43009 C 3981.58 2.41548 -2.67744 0
M  V30 43010 O 3980.68 3.45005 -2.25933 0
M  V30 43011 H 3980.02 0.384188 -0.541568 0
M  V30 43012 H 3982.55 0.618315 -1.95033 0
M  V30 43013 H 3982.56 2.87519 -2.89476 0
M  V30 43014 H 3981.24 2.00125 -3.64586 0
M  V30 43015 H 3979.82 3.0505 -2.14474 0
M  V30 43016 N 3982 1.37779 0.765169 0
M  V30 43017 C 3983.28 1.23879 1.51372 0
M  V30 43018 C 3983.66 -0.164815 2.10456 0
M  V30 43019 O 3983.01 -1.17314 1.96086 0
M  V30 43020 C 3983.22 2.33995 2.58935 0
M  V30 43021 C 3984.56 2.71857 3.26157 0
M  V30 43022 O 3985.59 2.3322 2.69234 0
M  V30 43023 O 3984.45 3.38445 4.29089 0
M  V30 43024 H 3981.54 0.483772 0.670741 0
M  V30 43025 H 3984.09 1.49576 0.801571 0
M  V30 43026 H 3982.86 3.2796 2.13443 0
M  V30 43027 H 3982.48 2.09798 3.37743 0
M  V30 43028 N 3983.48 -0.992073 1.22457 0
M  V30 43029 C 3984.7 -1.77256 1.0768 0
M  V30 43030 C 3985.13 -1.84458 -0.368345 0
M  V30 43031 O 3984.49 -1.29766 -1.26612 0
M  V30 43032 C 3984.54 -3.18355 1.69358 0
M  V30 43033 O 3983.64 -4.0136 0.947817 0
M  V30 43034 H 3982.98 -0.5458 0.378151 0
M  V30 43035 H 3985.51 -1.24617 1.62271 0
M  V30 43036 H 3985.52 -3.68982 1.74116 0
M  V30 43037 H 3984.2 -3.12428 2.7452 0
M  V30 43038 H 3982.77 -3.59893 0.976308 0
M  V30 43039 N 3984.96 -1.03439 -1.18904 0
M  V30 43040 C 3985.87 -0.630179 -2.25978 0
M  V30 43041 C 3986.88 0.340638 -1.70633 0
M  V30 43042 O 3988.06 0.197139 -2.00433 0
M  V30 43043 C 3985.12 0.00707701 -3.46699 0
M  V30 43044 C 3984.19 -1.01194 -4.17203 0
M  V30 43045 C 3983.42 -0.405002 -5.32161 0
M  V30 43046 O 3983.64 0.790538 -5.64895 0
M  V30 43047 O 3982.58 -1.13059 -5.91186 0
M  V30 43048 H 3986.4 -1.52208 -2.62805 0
M  V30 43049 H 3983.99 -0.8049 -1.25864 0
M  V30 43050 H 3985.87 0.362131 -4.19841 0
M  V30 43051 H 3984.54 0.872894 -3.11709 0
M  V30 43052 H 3983.45 -1.41868 -3.46156 0
M  V30 43053 H 3984.78 -1.84831 -4.56178 0
M  V30 43054 N 3986.44 1.35011 -0.813001 0
M  V30 43055 C 3987.68 1.9819 -0.395597 0
M  V30 43056 C 3988 1.64801 1.04239 0
M  V30 43057 O 3987.27 0.933708 1.72217 0
M  V30 43058 H 3985.85 0.733128 -0.143289 0
M  V30 43059 H 3988.52 1.64817 -1.04026 0
M  V30 43060 H 3987.61 3.07962 -0.50652 0
M  V30 43061 N 3987.91 0.567071 1.47044 0
M  V30 43062 C 3988.82 -0.177957 2.33924 0
M  V30 43063 C 3989.84 -0.901941 1.48799 0
M  V30 43064 O 3991.02 -0.86863 1.81705 0
M  V30 43065 C 3988.08 -1.18859 3.25689 0
M  V30 43066 C 3987.14 -0.470974 4.26709 0
M  V30 43067 C 3986.37 -1.43346 5.14089 0
M  V30 43068 O 3986.6 -2.66898 5.04105 0
M  V30 43069 O 3985.53 -0.952569 5.94315 0
M  V30 43070 H 3989.36 0.53496 2.98951 0
M  V30 43071 H 3986.94 0.327597 1.45764 0
M  V30 43072 H 3988.82 -1.77173 3.82345 0
M  V30 43073 H 3987.5 -1.88326 2.63278 0
M  V30 43074 H 3986.41 0.153605 3.73785 0
M  V30 43075 H 3987.74 0.182424 4.91862 0
M  V30 43076 N 3989.39 -1.5464 0.304027 0
M  V30 43077 C 3990.32 -2.21086 -0.604436 0
M  V30 43078 C 3991.34 -1.20456 -1.09518 0
M  V30 43079 O 3992.53 -1.47032 -1.01211 0
M  V30 43080 C 3989.63 -2.8461 -1.83985 0
M  V30 43081 C 3988.8 -4.112 -1.49109 0
M  V30 43082 C 3987.86 -4.58498 -2.58197 0
M  V30 43083 O 3986.88 -5.23629 -2.23162 0
M  V30 43084 N 3988.09 -4.31071 -3.8879 0
M  V30 43085 H 3990.85 -2.99679 -0.0355804 0
M  V30 43086 H 3988.41 -1.61406 0.12636 0
M  V30 43087 H 3990.4 -3.13184 -2.56316 0
M  V30 43088 H 3988.97 -2.0984 -2.31702 0
M  V30 43089 H 3988.19 -3.89603 -0.600278 0
M  V30 43090 H 3989.48 -4.93622 -1.2335 0
M  V30 43091 H 3988.88 -3.78899 -4.20062 0
M  V30 43092 H 3987.44 -4.64348 -4.57411 0
M  V30 43093 N 3990.87 -0.0318079 -1.57568 0
M  V30 43094 C 3991.82 0.967137 -2.1154 0
M  V30 43095 C 3992.81 1.33515 -1.0426 0
M  V30 43096 O 3994.02 1.31706 -1.22692 0
M  V30 43097 H 3990.39 0.329676 -0.675883 0
M  V30 43098 H 3992.36 0.486643 -2.94405 0
M  V30 43099 C 3991.11 2.23946 -2.65977 0
M  V30 43100 H 3990.44 1.96503 -3.48176 0
M  V30 43101 H 3991.88 2.92046 -3.07384 0
M  V30 43102 C 3990.33 2.97102 -1.58845 0
M  V30 43103 O 3990.86 3.89313 -0.989853 0
M  V30 43104 N 3989.07 2.59486 -1.30826 0
M  V30 43105 H 3988.62 1.84578 -1.7969 0
M  V30 43106 H 3988.58 3.08743 -0.593712 0
M  V30 43107 N 3992.35 1.55741 0.241371 0
M  V30 43108 C 3993.26 1.9392 1.32031 0
M  V30 43109 C 3994.27 0.840358 1.52361 0
M  V30 43110 O 3995.45 1.14223 1.65876 0
M  V30 43111 C 3992.52 2.23095 2.65386 0
M  V30 43112 C 3991.58 3.46441 2.5353 0
M  V30 43113 C 3990.81 3.74214 3.80525 0
M  V30 43114 O 3991.03 3.03972 4.82656 0
M  V30 43115 O 3989.97 4.67733 3.78826 0
M  V30 43116 H 3993.79 2.85829 1.02642 0
M  V30 43117 H 3991.38 1.42694 0.442591 0
M  V30 43118 H 3993.26 2.43143 3.44179 0
M  V30 43119 H 3991.93 1.34363 2.94497 0
M  V30 43120 H 3990.84 3.31693 1.73004 0
M  V30 43121 H 3992.17 4.35492 2.29363 0
M  V30 43122 N 3993.83 -0.507266 1.49213 0
M  V30 43123 C 3994.76 -1.61826 1.68329 0
M  V30 43124 C 3995.74 -1.61567 0.531998 0
M  V30 43125 O 3996.92 -1.78406 0.767135 0
M  V30 43126 C 3994.05 -3.00337 1.744 0
M  V30 43127 C 3993.01 -3.1546 2.89256 0
M  V30 43128 C 3992.33 -4.55259 2.80434 0
M  V30 43129 C 3993.63 -2.96077 4.30274 0
M  V30 43130 H 3995.33 -1.46083 2.61343 0
M  V30 43131 H 3992.87 -0.701345 1.25766 0
M  V30 43132 H 3994.83 -3.77953 1.86359 0
M  V30 43133 H 3993.55 -3.17154 0.779804 0
M  V30 43134 H 3992.21 -2.40267 2.76888 0
M  V30 43135 H 3991.86 -4.68944 1.81936 0
M  V30 43136 H 3991.56 -4.66319 3.57519 0
M  V30 43137 H 3993.08 -5.34944 2.94393 0
M  V30 43138 H 3994.49 -3.63467 4.43356 0
M  V30 43139 H 3992.89 -3.18614 5.08532 0
M  V30 43140 H 3993.96 -1.92264 4.45155 0
M  V30 43141 N 3995.3 -1.38182 -0.757851 0
M  V30 43142 C 3996.72 -1.19286 -1.06033 0
M  V30 43143 C 3996.92 -0.0385836 -2.01463 0
M  V30 43144 O 3995.98 0.616987 -2.44846 0
M  V30 43145 C 3997.29 -2.51747 -1.6445 0
M  V30 43146 C 3998.84 -2.58392 -1.76642 0
M  V30 43147 C 3999.31 -3.91018 -2.38471 0
M  V30 43148 N 4000.8 -3.92535 -2.45907 0
M  V30 43149 C 4001.54 -4.91914 -2.94632 0
M  V30 43150 N 4001.03 -6.0169 -3.43425 0
M  V30 43151 N 4002.83 -4.79308 -2.93633 0
M  V30 43152 H 3994.98 -2.12035 -0.124495 0
M  V30 43153 H 3997.24 -0.940645 -0.11786 0
M  V30 43154 H 3996.95 -3.36645 -1.01798 0
M  V30 43155 H 3996.82 -2.69836 -2.63568 0
M  V30 43156 H 3999.21 -1.73892 -2.38423 0
M  V30 43157 H 3999.29 -2.44174 -0.762407 0
M  V30 43158 H 3998.93 -4.75939 -1.77325 0
M  V30 43159 H 3998.86 -4.02546 -3.39506 0
M  V30 43160 H 4001.35 -3.13244 -2.11393 0
M  V30 43161 H 4001.67 -6.73456 -3.79047 0
M  V30 43162 H 4000.01 -6.05316 -3.41493 0
M  V30 43163 H 4003.2 -3.92661 -2.54823 0
M  V30 43164 H 4003.38 -5.56909 -3.31295 0
M  V30 43165 N 3996.78 0.985565 -1.22981 0
M  V30 43166 C 3997.73 2.09826 -1.00378 0
M  V30 43167 C 3998.72 1.69309 0.0555436 0
M  V30 43168 O 3999.93 1.79736 -0.0975225 0
M  V30 43169 H 3996.31 0.686273 -0.307464 0
M  V30 43170 H 3998.28 2.26061 -1.9478 0
M  V30 43171 C 3997.03 3.42377 -0.606078 0
M  V30 43172 H 3996.35 3.74001 -1.4129 0
M  V30 43173 H 3997.79 4.21189 -0.487392 0
M  V30 43174 C 3996.25 3.2986 0.685139 0
M  V30 43175 O 3996.78 3.62268 1.73565 0
M  V30 43176 N 3994.98 2.83027 0.659091 0
M  V30 43177 H 3994.53 2.56852 -0.196116 0
M  V30 43178 H 3994.49 2.75034 1.52328 0
M  V30 43179 N 3998.26 1.04068 1.18353 0
M  V30 43180 C 3999.19 0.652607 2.24195 0
M  V30 43181 C 4000.17 -0.344166 1.66582 0
M  V30 43182 O 4001.36 -0.224262 1.92901 0
M  V30 43183 C 3998.49 0.0148019 3.47297 0
M  V30 43184 C 3997.44 0.935117 4.1766 0
M  V30 43185 C 3996.77 0.161786 5.34455 0
M  V30 43186 C 3998.07 2.25423 4.71149 0
M  V30 43187 H 3999.76 1.53743 2.56912 0
M  V30 43188 H 3997.31 0.740679 1.23491 0
M  V30 43189 H 3999.26 -0.26841 4.20544 0
M  V30 43190 H 3997.98 -0.904894 3.13814 0
M  V30 43191 H 3996.64 1.20271 3.4631 0
M  V30 43192 H 3996.29 -0.760317 4.9722 0
M  V30 43193 H 3995.99 0.774908 5.82468 0
M  V30 43194 H 3997.51 -0.114407 6.10493 0
M  V30 43195 H 3998.93 2.03172 5.36091 0
M  V30 43196 H 3997.33 2.82032 5.29696 0
M  V30 43197 H 3998.4 2.90071 3.8857 0
M  V30 43198 N 3999.74 -1.34578 0.820149 0
M  V30 43199 C 4000.67 -2.28347 0.197596 0
M  V30 43200 C 4001.68 -1.50902 -0.61093 0
M  V30 43201 O 4002.87 -1.72965 -0.441065 0
M  V30 43202 C 3999.97 -3.30681 -0.741834 0
M  V30 43203 C 3999.15 -4.37394 0.0232623 0
M  V30 43204 C 3998.2 -5.19506 -0.836679 0
M  V30 43205 O 3997.23 -5.68498 -0.282672 0
M  V30 43206 N 3998.43 -5.38943 -2.15687 0
M  V30 43207 H 4001.2 -2.82412 1.00318 0
M  V30 43208 H 3998.76 -1.47072 0.676853 0
M  V30 43209 H 4000.75 -3.8251 -1.32166 0
M  V30 43210 H 3999.32 -2.77031 -1.44818 0
M  V30 43211 H 3998.54 -3.86317 0.784384 0
M  V30 43212 H 3999.83 -5.05818 0.550047 0
M  V30 43213 H 3999.23 -5.00808 -2.63074 0
M  V30 43214 H 3997.78 -5.93901 -2.68562 0
M  V30 43215 N 4001.22 -0.574861 -1.46742 0
M  V30 43216 C 4002.13 0.165549 -2.34015 0
M  V30 43217 C 4003.14 0.894037 -1.49275 0
M  V30 43218 O 4004.32 0.858981 -1.82163 0
M  V30 43219 C 4001.38 1.17131 -3.26315 0
M  V30 43220 C 4000.44 0.448338 -4.26952 0
M  V30 43221 C 3999.68 1.40618 -5.14842 0
M  V30 43222 O 3999.9 2.64221 -5.05513 0
M  V30 43223 O 3998.83 0.921038 -5.94811 0
M  V30 43224 H 4002.66 -0.550807 -2.98663 0
M  V30 43225 H 4000.25 -0.335323 -1.45588 0
M  V30 43226 H 4002.13 1.75143 -3.83279 0
M  V30 43227 H 4000.8 1.86927 -2.64273 0
M  V30 43228 H 3999.71 -0.173425 -3.73698 0
M  V30 43229 H 4001.04 -0.208506 -4.91758 0
M  V30 43230 N 4002.69 1.54476 -0.312224 0
M  V30 43231 C 4003.64 2.23932 0.558855 0
M  V30 43232 C 4004.61 1.22596 1.12069 0
M  V30 43233 O 4005.8 1.51247 1.16314 0
M  V30 43234 C 4002.94 2.99215 1.71943 0
M  V30 43235 C 4002.05 4.15346 1.18791 0
M  V30 43236 C 4001.18 4.78186 2.31326 0
M  V30 43237 C 4000.22 5.86441 1.75365 0
M  V30 43238 N 3999.36 6.43189 2.81517 0
M  V30 43239 H 4004.2 2.97973 -0.0400232 0
M  V30 43240 H 4001.74 1.47066 -0.0315226 0
M  V30 43241 H 4003.7 3.41102 2.40219 0
M  V30 43242 H 4002.33 2.27529 2.28977 0
M  V30 43243 H 4001.38 3.78322 0.397056 0
M  V30 43244 H 4002.69 4.93305 0.738339 0
M  V30 43245 H 4001.84 5.22983 3.07528 0
M  V30 43246 H 4000.58 3.99583 2.79615 0
M  V30 43247 H 3999.59 5.41058 0.976563 0
M  V30 43248 H 4000.81 6.66934 1.27967 0
M  V30 43249 H 3998.76 5.67465 3.29119 0
M  V30 43250 H 3998.68 7.16528 2.41089 0
M  V30 43251 H 3999.94 6.92643 3.57583 0
M  V30 43252 N 4004.17 0.0401637 1.57549 0
M  V30 43253 C 4005.1 -0.936131 2.13913 0
M  V30 43254 C 4006.08 -1.33192 1.05801 0
M  V30 43255 O 4007.27 -1.40859 1.33688 0
M  V30 43256 C 4004.4 -2.21474 2.67519 0
M  V30 43257 C 4003.35 -1.95936 3.80517 0
M  V30 43258 C 4002.68 -3.30157 4.20595 0
M  V30 43259 C 4003.98 -1.28972 5.06126 0
M  V30 43260 H 4005.67 -0.466688 2.9574 0
M  V30 43261 H 4003.22 -0.223037 1.42262 0
M  V30 43262 H 4005.17 -2.90163 3.05587 0
M  V30 43263 H 4003.9 -2.70604 1.82868 0
M  V30 43264 H 4002.55 -1.29663 3.42904 0
M  V30 43265 H 4002.2 -3.77067 3.3291 0
M  V30 43266 H 4001.9 -3.13872 4.96748 0
M  V30 43267 H 4003.43 -4.00095 4.61255 0
M  V30 43268 H 4004.84 -1.87678 5.4171 0
M  V30 43269 H 4003.24 -1.23049 5.87349 0
M  V30 43270 H 4004.31 -0.264201 4.8418 0
M  V30 43271 N 4005.65 -1.55866 -0.233109 0
M  V30 43272 C 4006.56 -1.94617 -1.31001 0
M  V30 43273 C 4007.58 -0.848426 -1.51914 0
M  V30 43274 O 4008.75 -1.15101 -1.65268 0
M  V30 43275 C 4005.82 -2.24499 -2.64199 0
M  V30 43276 C 4004.88 -3.4778 -2.51689 0
M  V30 43277 C 4004.11 -3.76227 -3.78535 0
M  V30 43278 O 4004.33 -3.06528 -4.81037 0
M  V30 43279 O 4003.27 -4.69736 -3.7634 0
M  V30 43280 H 4007.09 -2.8637 -1.01124 0
M  V30 43281 H 4004.68 -1.42926 -0.435018 0
M  V30 43282 H 4006.56 -2.44965 -3.42885 0
M  V30 43283 H 4005.24 -1.35923 -2.9378 0
M  V30 43284 H 4004.14 -3.32606 -1.71242 0
M  V30 43285 H 4005.48 -4.36702 -2.2705 0
M  V30 43286 N 4007.13 0.499346 -1.4948 0
M  V30 43287 C 4008.35 1.28206 -1.63027 0
M  V30 43288 C 4008.78 1.85655 -0.30227 0
M  V30 43289 O 4008.14 1.6594 0.730326 0
M  V30 43290 C 4008.19 2.38694 -2.70291 0
M  V30 43291 O 4007.29 3.42589 -2.29579 0
M  V30 43292 H 4006.63 0.378422 -0.545612 0
M  V30 43293 H 4009.16 0.597594 -1.95678 0
M  V30 43294 H 4009.17 2.84433 -2.9251 0
M  V30 43295 H 4007.85 1.96247 -3.66688 0
M  V30 43296 H 4006.42 3.02758 -2.17698 0
M  V30 43297 N 4008.61 1.38582 0.750513 0
M  V30 43298 C 4009.84 1.38199 1.53976 0
M  V30 43299 C 4010.25 -0.0274645 1.8878 0
M  V30 43300 O 4009.61 -0.994867 1.52999 0
M  V30 43301 C 4009.66 2.24048 2.83699 0
M  V30 43302 O 4009.38 3.59503 2.50378 0
M  V30 43303 C 4010.88 2.31878 3.77819 0
M  V30 43304 H 4008.1 0.472593 0.476337 0
M  V30 43305 H 4010.64 1.82201 0.928602 0
M  V30 43306 H 4008.8 1.835 3.41184 0
M  V30 43307 H 4009.21 4.04738 3.33598 0
M  V30 43308 H 4010.69 2.96226 4.65783 0
M  V30 43309 H 4011.16 1.33334 4.18472 0
M  V30 43310 H 4011.77 2.7283 3.26257 0
M  V30 43311 N 4010.09 -0.979029 1.23502 0
M  V30 43312 C 4011.02 -2.06995 0.960642 0
M  V30 43313 C 4012 -1.62283 -0.101544 0
M  V30 43314 O 4013.18 -1.88471 0.0330027 0
M  V30 43315 C 4010.31 -3.35731 0.447496 0
M  V30 43316 C 4009.35 -3.99384 1.4965 0
M  V30 43317 S 4010.19 -4.38458 3.07432 0
M  V30 43318 C 4011.34 -5.70346 2.57792 0
M  V30 43319 H 4011.58 -2.29951 1.88441 0
M  V30 43320 H 4009.11 -1.11541 1.06762 0
M  V30 43321 H 4011.07 -4.10196 0.15804 0
M  V30 43322 H 4009.73 -3.10781 -0.455377 0
M  V30 43323 H 4008.92 -4.92125 1.08762 0
M  V30 43324 H 4008.52 -3.31302 1.73537 0
M  V30 43325 H 4010.81 -6.47339 1.99897 0
M  V30 43326 H 4011.76 -6.16077 3.49078 0
M  V30 43327 H 4012.17 -5.28411 1.98599 0
M  V30 43328 N 4011.56 -1.04695 -1.178 0
M  V30 43329 C 4012.51 -0.643517 -2.21647 0
M  V30 43330 C 4013.48 0.35183 -1.62331 0
M  V30 43331 O 4014.67 0.24438 -1.89228 0
M  V30 43332 C 4011.81 -0.0192057 -3.45095 0
M  V30 43333 C 4010.92 -1.06278 -4.18723 0
M  V30 43334 C 4010.05 -0.406318 -5.29644 0
M  V30 43335 C 4009.09 -1.43455 -5.95052 0
M  V30 43336 N 4008.23 -0.802604 -6.97497 0
M  V30 43337 H 4013.07 -1.53357 -2.55511 0
M  V30 43338 H 4010.61 -0.767073 -1.25517 0
M  V30 43339 H 4012.56 0.360157 -4.15643 0
M  V30 43340 H 4011.19 0.834331 -3.11831 0
M  V30 43341 H 4010.25 -1.56003 -3.4694 0
M  V30 43342 H 4011.56 -1.8435 -4.63483 0
M  V30 43343 H 4010.71 0.0269053 -6.06694 0
M  V30 43344 H 4009.45 0.406439 -4.86003 0
M  V30 43345 H 4008.46 -1.87784 -5.16737 0
M  V30 43346 H 4009.68 -2.24912 -6.40774 0
M  V30 43347 H 4007.63 -0.0102683 -6.55999 0
M  V30 43348 H 4007.54 -1.52094 -7.40543 0
M  V30 43349 H 4008.81 -0.393988 -7.78504 0
M  V30 43350 N 4013.04 1.34141 -0.827275 0
M  V30 43351 C 4013.97 2.31968 -0.267056 0
M  V30 43352 C 4014.95 1.58442 0.618878 0
M  V30 43353 O 4016.14 1.864 0.544849 0
M  V30 43354 C 4013.27 3.42618 0.568319 0
M  V30 43355 C 4012.22 4.2743 -0.220842 0
M  V30 43356 C 4011.55 5.29589 0.73755 0
M  V30 43357 C 4012.85 5.02301 -1.43146 0
M  V30 43358 H 4014.54 2.79071 -1.08441 0
M  V30 43359 H 4012.09 1.34171 -0.522903 0
M  V30 43360 H 4014.04 4.10073 0.970453 0
M  V30 43361 H 4012.76 2.94174 1.41877 0
M  V30 43362 H 4011.42 3.61583 -0.604397 0
M  V30 43363 H 4011.07 4.77406 1.58408 0
M  V30 43364 H 4010.77 5.87211 0.213712 0
M  V30 43365 H 4012.3 5.99912 1.13745 0
M  V30 43366 H 4013.71 5.62587 -1.10311 0
M  V30 43367 H 4012.11 5.69519 -1.89125 0
M  V30 43368 H 4013.18 4.31744 -2.20737 0
M  V30 43369 N 4014.52 0.582635 1.46435 0
M  V30 43370 C 4015.77 0.068286 2.02685 0
M  V30 43371 C 4016.1 -1.28828 1.45317 0
M  V30 43372 O 4015.37 -1.84413 0.618243 0
M  V30 43373 C 4015.66 0.00244126 3.601 0
M  V30 43374 C 4015.51 1.3879 4.27852 0
M  V30 43375 C 4016.83 -0.698214 4.34526 0
M  V30 43376 H 4013.95 0.0262891 0.736531 0
M  V30 43377 H 4016.59 0.749819 1.74579 0
M  V30 43378 H 4014.74 -0.577963 3.84177 0
M  V30 43379 H 4016.41 2.01346 4.15039 0
M  V30 43380 H 4014.65 1.95563 3.87217 0
M  V30 43381 H 4015.33 1.2943 5.36611 0
M  V30 43382 H 4017.8 -0.205146 4.15594 0
M  V30 43383 H 4016.68 -0.713315 5.44245 0
M  V30 43384 H 4016.94 -1.7595 4.05578 0
M  V30 43385 N 4016 -1.54309 0.320412 0
M  V30 43386 C 4017.23 -2.04925 -0.285161 0
M  V30 43387 C 4017.64 -1.19672 -1.46027 0
M  V30 43388 O 4017 -0.226681 -1.81087 0
M  V30 43389 C 4017.05 -3.54203 -0.722673 0
M  V30 43390 O 4016.77 -4.36218 0.405687 0
M  V30 43391 C 4018.27 -4.20898 -1.39138 0
M  V30 43392 H 4015.49 -0.668388 -0.0591494 0
M  V30 43393 H 4018.03 -1.99127 0.465685 0
M  V30 43394 H 4016.19 -3.60299 -1.4235 0
M  V30 43395 H 4016.6 -5.24464 0.0615448 0
M  V30 43396 H 4018.08 -5.2681 -1.64848 0
M  V30 43397 H 4018.55 -3.71819 -2.33768 0
M  V30 43398 H 4019.16 -4.18932 -0.733218 0
M  V30 43399 N 4017.48 -0.0485183 -1.57525 0
M  V30 43400 C 4018.42 0.944646 -2.12554 0
M  V30 43401 C 4019.42 1.32401 -1.05671 0
M  V30 43402 O 4020.62 1.30398 -1.24082 0
M  V30 43403 H 4017 0.322488 -0.679342 0
M  V30 43404 H 4018.97 0.45539 -2.94905 0
M  V30 43405 C 4017.72 2.21112 -2.68337 0
M  V30 43406 H 4017.04 1.92799 -3.50241 0
M  V30 43407 H 4018.48 2.88769 -3.10464 0
M  V30 43408 C 4016.94 2.95401 -1.61987 0
M  V30 43409 O 4017.47 3.88241 -1.03109 0
M  V30 43410 N 4015.68 2.58084 -1.33571 0
M  V30 43411 H 4015.22 1.82662 -1.81638 0
M  V30 43412 H 4015.18 3.08096 -0.626425 0
M  V30 43413 N 4018.95 1.55988 0.224839 0
M  V30 43414 C 4019.88 1.95166 1.28189 0
M  V30 43415 C 4020.86 0.819446 1.49061 0
M  V30 43416 O 4022.05 1.08149 1.61299 0
M  V30 43417 C 4019.18 2.26551 2.63233 0
M  V30 43418 C 4018.13 3.42233 2.57023 0
M  V30 43419 C 4017.46 3.59214 3.96067 0
M  V30 43420 C 4018.76 4.77299 2.12092 0
M  V30 43421 H 4020.45 2.83712 0.956445 0
M  V30 43422 H 4018 1.36501 0.458649 0
M  V30 43423 H 4019.95 2.52551 3.37337 0
M  V30 43424 H 4018.68 1.34855 2.97459 0
M  V30 43425 H 4017.34 3.16277 1.85377 0
M  V30 43426 H 4016.98 2.649 4.27594 0
M  V30 43427 H 4016.68 4.3702 3.92794 0
M  V30 43428 H 4018.21 3.87559 4.71838 0
M  V30 43429 H 4019.62 5.02525 2.75937 0
M  V30 43430 H 4018.02 5.58364 2.19886 0
M  V30 43431 H 4019.09 4.72877 1.07311 0
M  V30 43432 N 4020.43 -0.491412 1.49743 0
M  V30 43433 C 4021.66 -1.2734 1.63705 0
M  V30 43434 C 4022.08 -1.85493 0.312112 0
M  V30 43435 O 4021.44 -1.66325 -0.721515 0
M  V30 43436 C 4021.49 -2.37258 2.71553 0
M  V30 43437 O 4020.59 -3.41367 2.31393 0
M  V30 43438 H 4019.93 -0.375523 0.547611 0
M  V30 43439 H 4022.46 -0.587208 1.95992 0
M  V30 43440 H 4022.47 -2.82878 2.94014 0
M  V30 43441 H 4021.15 -1.94299 3.67723 0
M  V30 43442 H 4019.72 -3.01599 2.193 0
M  V30 43443 N 4021.91 -1.38978 -0.743153 0
M  V30 43444 C 4023.16 -1.35489 -1.49957 0
M  V30 43445 C 4023.48 0.0511701 -1.94933 0
M  V30 43446 O 4022.75 1.00087 -1.68402 0
M  V30 43447 H 4021.33 -0.498572 -0.556269 0
M  V30 43448 H 4023.99 -1.73763 -0.882746 0
M  V30 43449 H 4023.09 -2.01241 -2.38555 0
M  V30 43450 N 4023.39 0.972465 -1.2402 0
M  V30 43451 C 4024.32 2.06897 -0.986221 0
M  V30 43452 C 4025.33 1.62744 0.0426288 0
M  V30 43453 O 4026.52 1.77444 -0.193847 0
M  V30 43454 C 4023.62 3.35687 -0.465569 0
M  V30 43455 C 4022.8 4.08771 -1.55644 0
M  V30 43456 C 4021.85 5.15835 -1.03927 0
M  V30 43457 O 4020.88 5.42274 -1.72995 0
M  V30 43458 N 4022.08 5.80357 0.128789 0
M  V30 43459 H 4024.85 2.29259 -1.93029 0
M  V30 43460 H 4022.41 1.13974 -1.14985 0
M  V30 43461 H 4024.4 4.04565 -0.10445 0
M  V30 43462 H 4022.97 3.10231 0.384112 0
M  V30 43463 H 4022.19 3.34236 -2.08997 0
M  V30 43464 H 4023.48 4.54362 -2.28981 0
M  V30 43465 H 4022.88 5.61273 0.706339 0
M  V30 43466 H 4021.43 6.50373 0.431097 0
M  V30 43467 N 4024.87 1.05318 1.17243 0
M  V30 43468 C 4025.8 0.676349 2.2349 0
M  V30 43469 C 4026.78 -0.326478 1.66938 0
M  V30 43470 O 4027.96 -0.203789 1.93128 0
M  V30 43471 C 4025.09 0.0516366 3.47262 0
M  V30 43472 C 4024.05 0.979363 4.16644 0
M  V30 43473 C 4023.37 0.218463 5.34254 0
M  V30 43474 C 4024.67 2.30407 4.68732 0
M  V30 43475 H 4026.37 1.56459 2.55266 0
M  V30 43476 H 4023.91 0.753736 1.22698 0
M  V30 43477 H 4025.87 -0.223791 4.20805 0
M  V30 43478 H 4024.59 -0.871559 3.14756 0
M  V30 43479 H 4023.25 1.23938 3.45015 0
M  V30 43480 H 4022.9 -0.707537 4.97999 0
M  V30 43481 H 4022.6 0.836643 5.81613 0
M  V30 43482 H 4024.12 -0.0496501 6.1058 0
M  V30 43483 H 4025.53 2.08847 5.33906 0
M  V30 43484 H 4023.93 2.87634 5.26675 0
M  V30 43485 H 4025 2.94176 3.85472 0
M  V30 43486 N 4026.34 -1.33701 0.834377 0
M  V30 43487 C 4027.57 -2.02672 0.440304 0
M  V30 43488 C 4027.99 -1.62382 -0.949407 0
M  V30 43489 O 4027.35 -0.814159 -1.61991 0
M  V30 43490 C 4027.4 -3.56169 0.563552 0
M  V30 43491 O 4026.5 -4.10337 -0.412021 0
M  V30 43492 H 4025.85 -0.639244 0.17962 0
M  V30 43493 H 4028.38 -1.70699 1.12797 0
M  V30 43494 H 4028.39 -4.05582 0.443535 0
M  V30 43495 H 4027.06 -3.84839 1.57707 0
M  V30 43496 H 4025.64 -3.72061 -0.249936 0
M  V30 43497 N 4027.82 -0.590393 -1.46124 0
M  V30 43498 C 4028.73 0.14072 -2.34178 0
M  V30 43499 C 4029.75 0.878155 -1.50215 0
M  V30 43500 O 4030.92 0.839612 -1.83064 0
M  V30 43501 C 4027.99 1.13663 -3.27539 0
M  V30 43502 C 4027.05 0.403028 -4.27404 0
M  V30 43503 C 4026.28 1.35149 -5.16304 0
M  V30 43504 O 4026.51 2.58844 -5.08287 0
M  V30 43505 O 4025.44 0.857898 -5.95755 0
M  V30 43506 H 4029.27 -0.582453 -2.98062 0
M  V30 43507 H 4026.85 -0.350745 -1.45224 0
M  V30 43508 H 4028.73 1.71068 -3.85115 0
M  V30 43509 H 4027.41 1.84113 -2.6624 0
M  V30 43510 H 4026.32 -0.213051 -3.73493 0
M  V30 43511 H 4027.65 -0.260652 -4.91509 0
M  V30 43512 N 4029.3 1.54136 -0.328591 0
M  V30 43513 C 4030.23 2.27459 0.527694 0
M  V30 43514 C 4031.21 1.28446 1.11516 0
M  V30 43515 O 4032.4 1.57266 1.13935 0
M  V30 43516 C 4029.53 3.03618 1.68622 0
M  V30 43517 C 4028.48 4.1001 1.22782 0
M  V30 43518 C 4027.81 4.74038 2.4737 0
M  V30 43519 C 4029.11 5.21198 0.33906 0
M  V30 43520 H 4030.8 2.99282 -0.0839334 0
M  V30 43521 H 4028.35 1.43939 -0.0418082 0
M  V30 43522 H 4030.3 3.53644 2.29159 0
M  V30 43523 H 4029.02 2.2942 2.32452 0
M  V30 43524 H 4027.68 3.60875 0.645364 0
M  V30 43525 H 4027.33 3.96451 3.09574 0
M  V30 43526 H 4027.03 5.45909 2.17387 0
M  V30 43527 H 4028.55 5.26842 3.08659 0
M  V30 43528 H 4029.97 5.66951 0.850847 0
M  V30 43529 H 4028.37 5.99955 0.131786 0
M  V30 43530 H 4029.44 4.80806 -0.628776 0
M  V30 43531 N 4030.78 0.0568716 1.57497 0
M  V30 43532 C 4031.73 -0.915556 2.11864 0
M  V30 43533 C 4032.7 -1.30513 1.0274 0
M  V30 43534 O 4033.88 -1.3936 1.3032 0
M  V30 43535 C 4031.02 -2.1831 2.67273 0
M  V30 43536 C 4030.13 -1.84751 3.90501 0
M  V30 43537 C 4029.27 -3.06006 4.34205 0
M  V30 43538 C 4028.31 -2.68393 5.50119 0
M  V30 43539 N 4027.44 -3.8236 5.88851 0
M  V30 43540 H 4032.28 -0.445049 2.94658 0
M  V30 43541 H 4029.82 -0.208044 1.45621 0
M  V30 43542 H 4031.78 -2.92489 2.97499 0
M  V30 43543 H 4030.41 -2.62928 1.87266 0
M  V30 43544 H 4029.46 -1.00697 3.6683 0
M  V30 43545 H 4030.77 -1.53068 4.74733 0
M  V30 43546 H 4029.93 -3.88478 4.66015 0
M  V30 43547 H 4028.67 -3.4087 3.48796 0
M  V30 43548 H 4027.67 -1.84339 5.17976 0
M  V30 43549 H 4028.9 -2.34715 6.37249 0
M  V30 43550 H 4026.84 -4.17015 5.06394 0
M  V30 43551 H 4026.76 -3.54396 6.67787 0
M  V30 43552 H 4028.03 -4.65455 6.25277 0
M  V30 43553 N 4032.26 -1.56105 -0.216564 0
M  V30 43554 C 4033.53 -1.70147 -0.964844 0
M  V30 43555 C 4033.91 -0.60556 -2.02228 0
M  V30 43556 O 4033.26 0.386702 -2.25204 0
M  V30 43557 C 4033.47 -3.11654 -1.57076 0
M  V30 43558 C 4034.82 -3.71218 -2.06112 0
M  V30 43559 O 4035.84 -3.14647 -1.66961 0
M  V30 43560 O 4034.7 -4.70457 -2.78087 0
M  V30 43561 H 4031.8 -0.693179 -0.451034 0
M  V30 43562 H 4034.34 -1.68421 -0.207952 0
M  V30 43563 H 4033.11 -3.82878 -0.807473 0
M  V30 43564 H 4032.74 -3.17519 -2.39306 0
M  V30 43565 N 4033.73 0.483463 -1.50001 0
M  V30 43566 C 4034.67 1.60013 -1.64099 0
M  V30 43567 C 4035.68 1.54173 -0.522924 0
M  V30 43568 O 4036.87 1.59786 -0.795649 0
M  V30 43569 C 4033.97 2.98863 -1.59795 0
M  V30 43570 C 4033.14 3.29703 -2.87428 0
M  V30 43571 C 4032.2 4.48047 -2.75936 0
M  V30 43572 O 4031.23 4.48964 -3.49886 0
M  V30 43573 N 4032.43 5.48989 -1.88658 0
M  V30 43574 H 4035.19 1.48341 -2.60413 0
M  V30 43575 H 4032.75 0.671665 -1.4731 0
M  V30 43576 H 4034.75 3.7598 -1.49737 0
M  V30 43577 H 4033.32 3.04368 -0.712666 0
M  V30 43578 H 4032.54 2.41315 -3.11706 0
M  V30 43579 H 4033.82 3.47113 -3.72008 0
M  V30 43580 H 4033.22 5.5106 -1.27867 0
M  V30 43581 H 4031.78 6.25139 -1.84511 0
M  V30 43582 N 4035.21 1.39371 0.735772 0
M  V30 43583 C 4036.15 1.32417 1.85852 0
M  V30 43584 C 4037.12 0.197976 1.6139 0
M  V30 43585 O 4038.31 0.378295 1.84665 0
M  V30 43586 C 4035.43 1.05598 3.21818 0
M  V30 43587 C 4034.48 2.20397 3.6514 0
M  V30 43588 S 4035.31 3.82671 3.74597 0
M  V30 43589 C 4036.47 3.58075 5.13355 0
M  V30 43590 H 4036.7 2.27438 1.91466 0
M  V30 43591 H 4034.24 1.25417 0.900555 0
M  V30 43592 H 4036.19 0.908084 4.0033 0
M  V30 43593 H 4034.85 0.122654 3.1386 0
M  V30 43594 H 4034.05 1.97222 4.6381 0
M  V30 43595 H 4033.65 2.31386 2.93831 0
M  V30 43596 H 4035.94 3.15292 5.99664 0
M  V30 43597 H 4036.88 4.56203 5.41558 0
M  V30 43598 H 4037.29 2.92193 4.82994 0
M  V30 43599 N 4036.69 -0.965875 1.24534 0
M  V30 43600 C 4037.92 -1.74399 1.11321 0
M  V30 43601 C 4038.33 -1.85821 -0.334078 0
M  V30 43602 O 4037.69 -1.34785 -1.23042 0
M  V30 43603 C 4037.74 -3.16355 1.74933 0
M  V30 43604 O 4037.46 -3.05505 3.14004 0
M  V30 43605 C 4038.96 -4.10497 1.67354 0
M  V30 43606 H 4036.18 -0.546846 0.388845 0
M  V30 43607 H 4038.73 -1.21252 1.64676 0
M  V30 43608 H 4036.88 -3.66482 1.25577 0
M  V30 43609 H 4037.3 -3.94973 3.45104 0
M  V30 43610 H 4038.77 -5.07753 2.16542 0
M  V30 43611 H 4039.25 -4.34584 0.635113 0
M  V30 43612 H 4039.85 -3.6628 2.16146 0
M  V30 43613 N 4038.17 -1.05938 -1.16683 0
M  V30 43614 C 4039.08 -0.677971 -2.2459 0
M  V30 43615 C 4040.1 0.304367 -1.71317 0
M  V30 43616 O 4041.27 0.15458 -2.00806 0
M  V30 43617 C 4038.34 -0.0664646 -3.46636 0
M  V30 43618 C 4037.4 -1.10021 -4.14962 0
M  V30 43619 C 4036.63 -0.51779 -5.31182 0
M  V30 43620 O 4036.85 0.670538 -5.66445 0
M  V30 43621 O 4035.79 -1.25573 -5.88655 0
M  V30 43622 H 4039.61 -1.57748 -2.59517 0
M  V30 43623 H 4037.2 -0.831417 -1.24128 0
M  V30 43624 H 4039.08 0.272995 -4.20515 0
M  V30 43625 H 4037.76 0.806579 -3.1349 0
M  V30 43626 H 4036.66 -1.49179 -3.43069 0
M  V30 43627 H 4038 -1.94466 -4.52155 0
M  V30 43628 N 4039.65 1.33256 -0.841456 0
M  V30 43629 C 4040.58 2.28003 -0.233899 0
M  V30 43630 C 4041.59 1.51855 0.586845 0
M  V30 43631 O 4042.78 1.73645 0.413492 0
M  V30 43632 C 4039.88 3.31819 0.689132 0
M  V30 43633 C 4039.05 4.37301 -0.092845 0
M  V30 43634 C 4038.11 5.20771 0.753924 0
M  V30 43635 O 4037.14 5.68875 0.192193 0
M  V30 43636 N 4038.34 5.42306 2.07085 0
M  V30 43637 H 4041.11 2.8078 -1.04799 0
M  V30 43638 H 4038.67 1.45977 -0.700166 0
M  V30 43639 H 4040.66 3.84565 1.26064 0
M  V30 43640 H 4039.23 2.793 1.40393 0
M  V30 43641 H 4038.45 3.85021 -0.845745 0
M  V30 43642 H 4039.74 5.04879 -0.630448 0
M  V30 43643 H 4039.14 5.0493 2.55073 0
M  V30 43644 H 4037.69 5.98098 2.59079 0
M  V30 43645 N 4041.13 0.598134 1.45809 0
M  V30 43646 C 4042.54 0.26102 1.57451 0
M  V30 43647 C 4042.74 -1.23657 1.59095 0
M  V30 43648 O 4041.8 -2.01912 1.51617 0
M  V30 43649 C 4043.11 0.923851 2.86156 0
M  V30 43650 C 4044.66 0.898882 2.99815 0
M  V30 43651 C 4045.13 1.54154 4.31278 0
M  V30 43652 N 4046.62 1.50659 4.38014 0
M  V30 43653 C 4047.36 1.97309 5.38383 0
M  V30 43654 N 4046.86 2.52002 6.45342 0
M  V30 43655 N 4048.65 1.88134 5.29681 0
M  V30 43656 H 4040.8 1.57064 1.42985 0
M  V30 43657 H 4043.06 0.657403 0.683027 0
M  V30 43658 H 4042.77 1.97796 2.90809 0
M  V30 43659 H 4042.64 0.441383 3.74609 0
M  V30 43660 H 4045.03 -0.14665 2.94735 0
M  V30 43661 H 4045.11 1.41952 2.12798 0
M  V30 43662 H 4044.75 2.58636 4.37116 0
M  V30 43663 H 4044.68 0.996002 5.17095 0
M  V30 43664 H 4047.18 1.10696 3.61324 0
M  V30 43665 H 4047.49 2.85416 7.18163 0
M  V30 43666 H 4045.83 2.56036 6.4612 0
M  V30 43667 H 4049.02 1.45152 4.45027 0
M  V30 43668 H 4049.2 2.24804 6.07756 0
M  V30 43669 N 4042.6 -1.5396 0.33676 0
M  V30 43670 C 4043.55 -2.24793 -0.523159 0
M  V30 43671 C 4044.52 -1.24363 -1.10104 0
M  V30 43672 O 4045.71 -1.53079 -1.13893 0
M  V30 43673 C 4042.85 -3.01913 -1.67161 0
M  V30 43674 C 4041.96 -4.17184 -1.12169 0
M  V30 43675 C 4041.09 -4.81806 -2.23689 0
M  V30 43676 C 4040.13 -5.89157 -1.66013 0
M  V30 43677 N 4039.27 -6.47587 -2.71249 0
M  V30 43678 H 4044.11 -2.97872 0.087423 0
M  V30 43679 H 4041.65 -1.46997 0.0549156 0
M  V30 43680 H 4043.6 -3.4488 -2.34762 0
M  V30 43681 H 4042.23 -2.31143 -2.25328 0
M  V30 43682 H 4041.29 -3.78906 -0.336818 0
M  V30 43683 H 4042.6 -4.94417 -0.659765 0
M  V30 43684 H 4041.75 -5.27809 -2.99169 0
M  V30 43685 H 4040.49 -4.03981 -2.73222 0
M  V30 43686 H 4039.5 -5.42543 -0.890362 0
M  V30 43687 H 4040.72 -6.68886 -1.1734 0
M  V30 43688 H 4038.67 -5.7263 -3.20049 0
M  V30 43689 H 4038.58 -7.20273 -2.29659 0
M  V30 43690 H 4039.85 -6.98245 -3.46518 0
M  V30 43691 N 4044.08 -0.0652232 -1.57465 0
M  V30 43692 C 4045.01 0.933756 -2.09317 0
M  V30 43693 C 4046.03 1.26569 -1.02392 0
M  V30 43694 O 4047.22 1.22402 -1.29923 0
M  V30 43695 C 4044.32 2.25143 -2.53306 0
M  V30 43696 C 4043.49 2.09932 -3.83728 0
M  V30 43697 C 4042.55 3.24946 -4.1388 0
M  V30 43698 O 4041.57 3.00228 -4.83582 0
M  V30 43699 N 4042.78 4.49846 -3.66904 0
M  V30 43700 H 4045.54 0.49109 -2.95649 0
M  V30 43701 H 4043.1 0.12067 -1.6145 0
M  V30 43702 H 4045.09 3.00979 -2.70543 0
M  V30 43703 H 4043.66 2.6093 -1.72146 0
M  V30 43704 H 4042.88 1.18602 -3.75935 0
M  V30 43705 H 4044.17 1.97012 -4.69109 0
M  V30 43706 H 4043.57 4.72817 -3.10582 0
M  V30 43707 H 4042.13 5.22731 -3.89353 0
M  V30 43708 N 4045.56 1.56218 0.208282 0
M  V30 43709 C 4046.51 1.93491 1.25816 0
M  V30 43710 C 4047.48 0.793773 1.45906 0
M  V30 43711 O 4048.66 1.05081 1.59256 0
M  V30 43712 C 4045.8 2.26839 2.60073 0
M  V30 43713 C 4044.91 3.53953 2.47672 0
M  V30 43714 C 4044.05 3.76685 3.74542 0
M  V30 43715 C 4043.09 4.97268 3.56919 0
M  V30 43716 N 4042.23 5.16321 4.7577 0
M  V30 43717 H 4047.07 2.83008 0.933296 0
M  V30 43718 H 4044.6 1.40064 0.449507 0
M  V30 43719 H 4046.56 2.44187 3.38273 0
M  V30 43720 H 4045.19 1.40479 2.90629 0
M  V30 43721 H 4044.24 3.44725 1.60838 0
M  V30 43722 H 4045.55 4.42307 2.30577 0
M  V30 43723 H 4044.71 3.94201 4.61184 0
M  V30 43724 H 4043.45 2.86636 3.94577 0
M  V30 43725 H 4042.45 4.79688 2.68662 0
M  V30 43726 H 4043.68 5.88813 3.38342 0
M  V30 43727 H 4041.62 4.29217 4.96093 0
M  V30 43728 H 4041.54 5.98831 4.61451 0
M  V30 43729 H 4042.81 5.38284 5.638 0
M  V30 43730 N 4047.04 -0.475502 1.50256 0
M  V30 43731 C 4047.97 -1.59141 1.64945 0
M  V30 43732 C 4048.98 -1.53894 0.531092 0
M  V30 43733 O 4050.17 -1.59362 0.804112 0
M  V30 43734 C 4047.27 -2.98011 1.61378 0
M  V30 43735 C 4046.44 -3.28174 2.89172 0
M  V30 43736 C 4045.5 -4.46577 2.78308 0
M  V30 43737 O 4044.53 -4.47102 3.52262 0
M  V30 43738 N 4045.73 -5.4798 1.91566 0
M  V30 43739 H 4048.5 -1.46958 2.61196 0
M  V30 43740 H 4046.06 -0.663843 1.47664 0
M  V30 43741 H 4048.05 -3.75181 1.51728 0
M  V30 43742 H 4046.62 -3.03986 0.728798 0
M  V30 43743 H 4045.84 -2.39658 3.12982 0
M  V30 43744 H 4047.13 -3.45135 3.73844 0
M  V30 43745 H 4046.53 -5.50374 1.30787 0
M  V30 43746 H 4045.08 -6.24152 1.87824 0
M  V30 43747 N 4048.52 -1.39759 -0.72837 0
M  V30 43748 C 4049.93 -1.21508 -1.03479 0
M  V30 43749 C 4050.13 -0.0813082 -2.01336 0
M  V30 43750 O 4049.19 0.564913 -2.461 0
M  V30 43751 C 4050.5 -2.55179 -1.59073 0
M  V30 43752 C 4052.05 -2.62081 -1.71121 0
M  V30 43753 C 4052.52 -3.95989 -2.30124 0
M  V30 43754 N 4054.01 -3.97663 -2.37525 0
M  V30 43755 C 4054.75 -4.98053 -2.84131 0
M  V30 43756 N 4054.25 -6.0884 -3.30585 0
M  V30 43757 N 4056.04 -4.85428 -2.834 0
M  V30 43758 H 4048.19 -2.12251 -0.079491 0
M  V30 43759 H 4050.45 -0.942933 -0.0978806 0
M  V30 43760 H 4050.16 -3.38729 -0.946342 0
M  V30 43761 H 4050.03 -2.75366 -2.57785 0
M  V30 43762 H 4052.42 -1.7891 -2.34681 0
M  V30 43763 H 4052.5 -2.45736 -0.710442 0
M  V30 43764 H 4052.14 -4.79593 -1.6719 0
M  V30 43765 H 4052.07 -4.09657 -3.30891 0
M  V30 43766 H 4054.57 -3.17657 -2.04701 0
M  V30 43767 H 4054.88 -6.81345 -3.64677 0
M  V30 43768 H 4053.22 -6.12423 -3.28577 0
M  V30 43769 H 4056.41 -3.97978 -2.46437 0
M  V30 43770 H 4056.59 -5.63811 -3.19407 0
M  V30 43771 N 4049.99 0.959257 -1.25044 0
M  V30 43772 C 4051.24 1.69766 -1.08915 0
M  V30 43773 C 4051.56 1.92059 0.370524 0
M  V30 43774 O 4052.76 2.63551 0.652168 0
M  V30 43775 C 4051.22 3.0561 -1.90081 0
M  V30 43776 C 4050.83 2.9113 -3.40511 0
M  V30 43777 C 4052.57 3.83264 -1.82507 0
M  V30 43778 C 4050.48 4.22335 -4.13989 0
M  V30 43779 H 4049.41 0.636651 -0.40397 0
M  V30 43780 H 4052.06 1.06826 -1.492 0
M  V30 43781 H 4050.44 3.69428 -1.42616 0
M  V30 43782 H 4051.61 2.36272 -3.95616 0
M  V30 43783 H 4049.93 2.26934 -3.49127 0
M  V30 43784 H 4052.53 4.80437 -2.34701 0
M  V30 43785 H 4052.87 4.08696 -0.792019 0
M  V30 43786 H 4053.4 3.26188 -2.27697 0
M  V30 43787 H 4050.14 4.02094 -5.17688 0
M  V30 43788 H 4049.66 4.76976 -3.63668 0
M  V30 43789 H 4051.34 4.90905 -4.21451 0
M  V30 43790 N 4051.47 1.06556 1.16119 0
M  V30 43791 C 4052.72 0.782312 1.86345 0
M  V30 43792 C 4053.04 -0.693363 1.82257 0
M  V30 43793 O 4052.31 -1.50176 1.25793 0
M  V30 43794 H 4050.89 0.2864 0.689916 0
M  V30 43795 H 4053.55 1.34761 1.40803 0
M  V30 43796 H 4052.65 1.10959 2.9171 0
M  V30 43797 N 4052.95 -1.32808 0.848511 0
M  V30 43798 C 4053.88 -2.31514 0.303926 0
M  V30 43799 C 4054.86 -1.59407 -0.593593 0
M  V30 43800 O 4056.05 -1.87243 -0.515126 0
M  V30 43801 C 4053.18 -3.43479 -0.513739 0
M  V30 43802 C 4052.13 -4.27024 0.288815 0
M  V30 43803 C 4051.46 -5.30695 -0.653204 0
M  V30 43804 C 4052.76 -4.9996 1.51119 0
M  V30 43805 H 4054.45 -2.77311 1.12867 0
M  V30 43806 H 4052 -1.33322 0.544182 0
M  V30 43807 H 4053.95 -4.11565 -0.905091 0
M  V30 43808 H 4052.67 -2.96394 -1.37179 0
M  V30 43809 H 4051.33 -3.60576 0.661845 0
M  V30 43810 H 4050.98 -4.79865 -1.50792 0
M  V30 43811 H 4050.68 -5.87477 -0.120265 0
M  V30 43812 H 4052.2 -6.01646 -1.04186 0
M  V30 43813 H 4053.62 -5.60761 1.19247 0
M  V30 43814 H 4052.02 -5.66438 1.98162 0
M  V30 43815 H 4053.09 -4.28178 2.27578 0
M  V30 43816 N 4054.43 -0.605858 -1.45489 0
M  V30 43817 C 4055.36 0.101336 -2.3328 0
M  V30 43818 C 4056.34 0.860517 -1.46728 0
M  V30 43819 O 4057.52 0.83141 -1.75503 0
M  V30 43820 C 4054.65 1.10044 -3.29405 0
M  V30 43821 C 4053.61 0.454585 -4.25579 0
M  V30 43822 C 4052.93 1.56181 -5.11382 0
M  V30 43823 C 4054.23 -0.623119 -5.1857 0
M  V30 43824 H 4055.93 -0.631704 -2.9266 0
M  V30 43825 H 4053.47 -0.305233 -1.40728 0
M  V30 43826 H 4055.43 1.60372 -3.89691 0
M  V30 43827 H 4054.15 1.86405 -2.6818 0
M  V30 43828 H 4052.81 -0.0278164 -3.66589 0
M  V30 43829 H 4052.46 2.31566 -4.46527 0
M  V30 43830 H 4052.16 1.13518 -5.7653 0
M  V30 43831 H 4053.68 2.0674 -5.74535 0
M  V30 43832 H 4055.1 -0.203981 -5.72937 0
M  V30 43833 H 4053.49 -0.971396 -5.92186 0
M  V30 43834 H 4054.56 -1.5004 -4.61103 0
M  V30 43835 N 4055.91 1.53779 -0.34492 0
M  V30 43836 C 4057.15 2.00539 0.250676 0
M  V30 43837 C 4057.48 1.23438 1.50957 0
M  V30 43838 O 4056.75 0.341927 1.92893 0
M  V30 43839 H 4055.33 0.740855 0.0956188 0
M  V30 43840 H 4057.99 1.89237 -0.466394 0
M  V30 43841 H 4057.08 3.08195 0.492166 0
M  V30 43842 N 4057.38 0.0735731 1.57428 0
M  V30 43843 C 4058.33 -0.903179 2.09348 0
M  V30 43844 C 4059.32 -1.25767 1.00357 0
M  V30 43845 O 4060.51 -1.23635 1.26663 0
M  V30 43846 C 4057.64 -2.1701 2.6601 0
M  V30 43847 C 4056.73 -1.84201 3.82009 0
M  V30 43848 N 4057.12 -1.2185 4.90903 0
M  V30 43849 C 4055.41 -2.13941 3.91338 0
M  V30 43850 C 4056.12 -1.07173 5.71742 0
M  V30 43851 N 4055.09 -1.58202 5.2007 0
M  V30 43852 H 4058.89 -0.416809 2.90929 0
M  V30 43853 H 4056.41 -0.130266 1.61877 0
M  V30 43854 H 4058.4 -2.87905 3.01523 0
M  V30 43855 H 4057.06 -2.66233 1.85876 0
M  V30 43856 H 4058.08 -0.887931 5.10232 0
M  V30 43857 H 4054.75 -2.65529 3.22181 0
M  V30 43858 H 4056.14 -0.585821 6.69341 0
M  V30 43859 N 4058.86 -1.56326 -0.199995 0
M  V30 43860 C 4060.27 -1.70302 -0.765111 0
M  V30 43861 C 4060.62 -0.67931 -1.84065 0
M  V30 43862 O 4059.75 0.16527 -2.15768 0
M  V30 43863 C 4060.34 -3.08766 -1.39461 0
M  V30 43864 C 4058.9 -3.24524 -1.90686 0
M  V30 43865 C 4058.05 -2.66251 -0.774974 0
M  V30 43866 H 4061 -1.5868 0.0250049 0
M  V30 43867 H 4061.02 -3.05823 -2.26391 0
M  V30 43868 H 4060.53 -3.83251 -0.611582 0
M  V30 43869 H 4058.64 -2.54946 -2.71723 0
M  V30 43870 H 4058.75 -4.31977 -2.07202 0
M  V30 43871 H 4057.11 -2.25298 -1.18798 0
M  V30 43872 H 4057.9 -3.433 -0.00426816 0
M  V30 43873 N 4060.34 0.467527 -1.50506 0
M  V30 43874 C 4061.75 1.0483 -1.54491 0
M  V30 43875 C 4062.1 1.93044 -0.350502 0
M  V30 43876 O 4061.23 2.09652 0.536201 0
M  V30 43877 C 4061.82 1.90794 -2.7997 0
M  V30 43878 C 4060.38 2.43974 -2.86625 0
M  V30 43879 C 4059.53 1.22407 -2.48821 0
M  V30 43880 H 4062.48 0.249997 -1.56719 0
M  V30 43881 H 4062.5 2.75902 -2.62027 0
M  V30 43882 H 4062.01 1.26564 -3.66883 0
M  V30 43883 H 4060.11 3.11746 -2.04072 0
M  V30 43884 H 4060.23 2.78837 -3.89598 0
M  V30 43885 H 4058.59 1.55997 -2.01338 0
M  V30 43886 H 4059.37 0.598345 -3.38045 0
M  V30 43887 N 4061.82 1.40143 0.720948 0
M  V30 43888 C 4062.77 1.36465 1.82651 0
M  V30 43889 C 4063.75 0.243096 1.59053 0
M  V30 43890 O 4064.94 0.481772 1.70317 0
M  V30 43891 C 4062.07 1.22433 3.20726 0
M  V30 43892 C 4061.16 2.39348 3.50105 0
M  V30 43893 N 4061.55 3.64829 3.50333 0
M  V30 43894 C 4059.85 2.32611 3.80537 0
M  V30 43895 C 4060.55 4.42225 3.77904 0
M  V30 43896 N 4059.53 3.71994 3.96385 0
M  V30 43897 H 4063.33 2.31432 1.81153 0
M  V30 43898 H 4060.84 1.33839 0.919833 0
M  V30 43899 H 4062.84 1.17881 3.99887 0
M  V30 43900 H 4061.5 0.284286 3.23453 0
M  V30 43901 H 4062.51 3.98063 3.3131 0
M  V30 43902 H 4059.19 1.46944 3.90786 0
M  V30 43903 H 4060.58 5.51056 3.84431 0
M  V30 43904 N 4063.3 -0.952612 1.25551 0
M  V30 43905 C 4064.23 -2.04911 1.00433 0
M  V30 43906 C 4065.21 -1.62461 -0.0670989 0
M  V30 43907 O 4066.39 -1.88359 0.0729728 0
M  V30 43908 C 4063.52 -3.34706 0.518608 0
M  V30 43909 C 4062.56 -3.96119 1.58087 0
M  V30 43910 S 4063.4 -4.31838 3.16664 0
M  V30 43911 C 4064.55 -5.64749 2.69831 0
M  V30 43912 H 4064.79 -2.25902 1.93276 0
M  V30 43913 H 4062.32 -1.09251 1.09103 0
M  V30 43914 H 4064.28 -4.09768 0.245013 0
M  V30 43915 H 4062.94 -3.11677 -0.389353 0
M  V30 43916 H 4062.13 -4.89707 1.19176 0
M  V30 43917 H 4061.73 -3.27546 1.80526 0
M  V30 43918 H 4064.03 -6.42953 2.13583 0
M  V30 43919 H 4064.97 -6.08534 3.62067 0
M  V30 43920 H 4065.38 -5.2408 2.09763 0
M  V30 43921 N 4064.77 -1.0717 -1.15553 0
M  V30 43922 C 4065.72 -0.684665 -2.22295 0
M  V30 43923 C 4066.72 0.303645 -1.66656 0
M  V30 43924 O 4067.92 0.167556 -1.79218 0
M  V30 43925 H 4064.3 -0.203319 -0.723993 0
M  V30 43926 H 4066.27 -1.5946 -2.5222 0
M  V30 43927 C 4065.02 -0.0965729 -3.47566 0
M  V30 43928 H 4064.34 -0.848191 -3.90699 0
M  V30 43929 H 4065.78 0.136596 -4.2378 0
M  V30 43930 C 4064.24 1.16225 -3.16217 0
M  V30 43931 O 4064.77 2.24897 -3.32842 0
M  V30 43932 N 4062.98 1.06769 -2.70275 0
M  V30 43933 H 4062.52 0.183312 -2.56947 0
M  V30 43934 H 4062.48 1.91076 -2.49674 0
M  V30 43935 N 4066.25 1.32356 -0.855542 0
M  V30 43936 C 4067.5 1.97513 -0.460037 0
M  V30 43937 C 4067.83 1.67541 0.982023 0
M  V30 43938 O 4067.11 0.96412 1.68923 0
M  V30 43939 C 4067.39 3.53217 -0.700702 0
M  V30 43940 C 4067.24 3.92816 -2.19125 0
M  V30 43941 C 4068.56 4.39817 -0.157675 0
M  V30 43942 H 4065.68 0.717452 -0.168618 0
M  V30 43943 H 4068.32 1.56724 -1.07413 0
M  V30 43944 H 4066.47 3.88092 -0.178005 0
M  V30 43945 H 4068.15 3.68115 -2.78009 0
M  V30 43946 H 4066.39 3.41943 -2.6694 0
M  V30 43947 H 4067.06 5.01326 -2.31033 0
M  V30 43948 H 4069.54 4.11683 -0.604669 0
M  V30 43949 H 4068.41 5.47747 -0.355628 0
M  V30 43950 H 4068.67 4.32 0.939603 0
M  V30 43951 N 4067.73 0.613565 1.45166 0
M  V30 43952 C 4068.68 -0.114182 2.3232 0
M  V30 43953 C 4069.67 -0.853608 1.46321 0
M  V30 43954 O 4070.88 -0.768497 1.6277 0
M  V30 43955 H 4067.25 -0.055679 0.749936 0
M  V30 43956 H 4069.23 0.639226 2.91473 0
M  V30 43957 C 4067.97 -1.09411 3.30037 0
M  V30 43958 H 4067.3 -0.534562 3.9621 0
M  V30 43959 H 4068.74 -1.57313 3.93737 0
M  V30 43960 C 4067.2 -2.17065 2.57652 0
M  V30 43961 O 4067.73 -3.24895 2.36233 0
M  V30 43962 N 4065.93 -1.92513 2.17686 0
M  V30 43963 H 4065.48 -1.04829 2.35305 0
M  V30 43964 H 4065.44 -2.64747 1.69578 0
M  V30 43965 N 4069.21 -1.53594 0.353071 0
M  V30 43966 C 4070.62 -1.86255 -0.128819 0
M  V30 43967 C 4070.97 -1.27405 -1.49206 0
M  V30 43968 O 4070.1 -0.591258 -2.08166 0
M  V30 43969 C 4070.69 -3.37945 -0.240524 0
M  V30 43970 C 4069.25 -3.70449 -0.666655 0
M  V30 43971 C 4068.4 -2.76622 0.193806 0
M  V30 43972 H 4071.35 -1.48021 0.572326 0
M  V30 43973 H 4071.37 -3.65252 -1.06634 0
M  V30 43974 H 4070.88 -3.80749 0.751807 0
M  V30 43975 H 4068.98 -3.33196 -1.66767 0
M  V30 43976 H 4069.1 -4.76983 -0.449942 0
M  V30 43977 H 4067.46 -2.52483 -0.335361 0
M  V30 43978 H 4068.24 -3.22257 1.18345 0
M  V30 43979 N 4070.69 -0.0819208 -1.57387 0
M  V30 43980 C 4071.62 0.911502 -2.10296 0
M  V30 43981 C 4072.63 1.25476 -1.03729 0
M  V30 43982 O 4073.82 1.21017 -1.31214 0
M  V30 43983 C 4070.92 2.22444 -2.5568 0
M  V30 43984 C 4070.09 2.0585 -3.85933 0
M  V30 43985 C 4069.15 3.20538 -4.17303 0
M  V30 43986 O 4068.18 2.95082 -4.8674 0
M  V30 43987 N 4069.38 4.4593 -3.71655 0
M  V30 43988 H 4072.15 0.459705 -2.96153 0
M  V30 43989 H 4069.71 0.103539 -1.61569 0
M  V30 43990 H 4071.7 2.98093 -2.7372 0
M  V30 43991 H 4070.27 2.59089 -1.74904 0
M  V30 43992 H 4069.49 1.14608 -3.77172 0
M  V30 43993 H 4070.78 1.92025 -4.71173 0
M  V30 43994 H 4070.18 4.69496 -3.15579 0
M  V30 43995 H 4068.73 5.18572 -3.94875 0
M  V30 43996 N 4072.17 1.5643 0.191702 0
M  V30 43997 C 4073.1 1.91347 1.2617 0
M  V30 43998 C 4074.11 0.804475 1.41535 0
M  V30 43999 O 4075.3 1.08289 1.419 0
M  V30 44000 C 4072.4 2.13324 2.63337 0
M  V30 44001 C 4071.57 3.44483 2.69537 0
M  V30 44002 C 4070.63 3.55531 3.87923 0
M  V30 44003 O 4069.66 4.28325 3.74868 0
M  V30 44004 N 4070.86 2.8887 5.03522 0
M  V30 44005 H 4073.62 2.83728 0.965314 0
M  V30 44006 H 4071.19 1.57339 0.3816 0
M  V30 44007 H 4073.18 2.17999 3.40967 0
M  V30 44008 H 4071.75 1.27425 2.8545 0
M  V30 44009 H 4070.97 3.51645 1.78155 0
M  V30 44010 H 4072.26 4.30829 2.70673 0
M  V30 44011 H 4071.65 2.29562 5.17028 0
M  V30 44012 H 4070.21 2.99169 5.79087 0
M  V30 44013 N 4073.64 -0.459538 1.50751 0
M  V30 44014 C 4075.05 -1.0401 1.55045 0
M  V30 44015 C 4075.41 -1.92855 0.360735 0
M  V30 44016 O 4074.53 -2.09933 -0.525075 0
M  V30 44017 C 4075.13 -1.89306 2.80978 0
M  V30 44018 C 4073.68 -2.4245 2.87915 0
M  V30 44019 C 4072.83 -1.21086 2.49466 0
M  V30 44020 H 4075.78 -0.241682 1.56849 0
M  V30 44021 H 4075.8 -2.74509 2.63486 0
M  V30 44022 H 4075.32 -1.24616 3.67549 0
M  V30 44023 H 4073.42 -3.10659 2.05722 0
M  V30 44024 H 4073.53 -2.76767 3.91072 0
M  V30 44025 H 4071.89 -1.54927 2.02162 0
M  V30 44026 H 4072.68 -0.580409 3.38358 0
M  V30 44027 N 4075.12 -1.40523 -0.713506 0
M  V30 44028 C 4076.08 -1.40702 -1.8093 0
M  V30 44029 C 4077.08 -0.300477 -1.57968 0
M  V30 44030 O 4078.27 -0.559485 -1.64971 0
M  V30 44031 C 4075.41 -1.2008 -3.19051 0
M  V30 44032 H 4076.6 -2.38231 -1.8217 0
M  V30 44033 H 4074.15 -1.26403 -0.919352 0
M  V30 44034 H 4074.89 -0.233194 -3.23461 0
M  V30 44035 H 4074.67 -2.00235 -3.37117 0
M  V30 44036 H 4076.16 -1.22998 -3.99076 0
M  V30 44037 O 4076.64 0.85517 -1.37 0
M  V30 44038 H 4077.33 1.49542 -1.23113 0
M  V30 END ATOM
M  V30 BEGIN BOND
M  V30 END BOND
M  V30 END CTAB
M  END
$$$$
