drugbank_target|Q14627 Interleukin-13 receptor subunit alpha-2 (DB05078)
 OpenBabel12092120143D

  0  0  0     0  0            999 V3000
M  V30 BEGIN CTAB
M  V30 COUNTS 6141 6235 0 0 0
M  V30 BEGIN ATOM
M  V30 1 H -0.908 1.98254 -0.117106 0
M  V30 2 N 0 1.576 0 0
M  V30 3 C 0.933 2.03868 1.02534 0
M  V30 4 C 1.911 0.928543 1.3348 0
M  V30 5 O 3.095 1.19667 1.45644 0
M  V30 6 C 0.222 2.43627 2.35294 0
M  V30 7 C -0.732 3.65373 2.2001 0
M  V30 8 S 0.101 5.13292 1.52614 0
M  V30 9 C 1.257 5.56322 2.86805 0
M  V30 10 H 1.49 2.90518 0.631377 0
M  V30 11 H -0.977 1.52953 0.210867 0
M  V30 12 H 0.981 2.67203 3.11629 0
M  V30 13 H -0.358 1.57376 2.7183 0
M  V30 14 H -1.165 3.90944 3.18086 0
M  V30 15 H -1.563 3.418 1.51819 0
M  V30 16 H 0.729 5.58782 3.83104 0
M  V30 17 H 1.672 6.56266 2.65933 0
M  V30 18 H 2.08 4.83886 2.90714 0
M  V30 19 N 1.4781 -0.272755 1.55222 0
M  V30 20 C 2.4411 -1.32041 1.87344 0
M  V30 21 C 3.4411 -1.42342 0.74803 0
M  V30 22 O 4.6311 -1.41488 1.0162 0
M  V30 23 C 1.7631 -2.70173 2.07893 0
M  V30 24 H 2.9561 -1.04789 2.80997 0
M  V30 25 H 0.5091 -0.51083 1.47717 0
M  V30 26 H 1.2441 -3.02605 1.16622 0
M  V30 27 H 1.0291 -2.64082 2.89833 0
M  V30 28 H 2.5191 -3.45869 2.34017 0
M  V30 29 N 2.9562 -1.48159 -0.537278 0
M  V30 30 C 4.2032 -1.55804 -1.29349 0
M  V30 31 C 4.5312 -0.228802 -1.9315 0
M  V30 32 O 3.7862 0.780242 -1.79473 0
M  V30 33 C 4.0852 -2.63956 -2.40961 0
M  V30 34 C 3.7512 -4.0662 -1.94861 0
M  V30 35 C 2.4132 -4.45452 -1.82006 0
M  V30 36 C 4.7652 -4.96055 -1.59933 0
M  V30 37 C 2.0932 -5.71531 -1.32547 0
M  V30 38 C 4.4452 -6.22617 -1.11939 0
M  V30 39 C 3.1092 -6.60312 -0.976951 0
M  V30 40 H 2.3792 -0.570129 -0.473322 0
M  V30 41 H 5.0262 -1.81845 -0.600372 0
M  V30 42 H 3.3312 -2.31747 -3.15912 0
M  V30 43 H 5.0282 -2.67089 -2.99107 0
M  V30 44 H 1.6182 -3.75949 -2.05815 0
M  V30 45 H 5.8022 -4.66738 -1.68728 0
M  V30 46 H 1.0582 -5.99468 -1.202 0
M  V30 47 H 5.2322 -6.91318 -0.839811 0
M  V30 48 H 2.8592 -7.57895 -0.591501 0
M  V30 49 N 4.4343 0.785586 -1.36625 0
M  V30 50 C 5.6803 1.54591 -1.31261 0
M  V30 51 C 6.0133 1.93906 0.106823 0
M  V30 52 O 5.2883 1.63007 1.06108 0
M  V30 53 C 5.5713 2.82038 -2.23889 0
M  V30 54 C 5.4243 2.49066 -3.74548 0
M  V30 55 C 6.7433 3.83887 -2.15217 0
M  V30 56 H 3.8623 0.560846 -0.478143 0
M  V30 57 H 6.5043 0.902278 -1.67209 0
M  V30 58 H 4.6543 3.36961 -1.93363 0
M  V30 59 H 6.3263 2.00164 -4.15611 0
M  V30 60 H 4.5693 1.81954 -3.93796 0
M  V30 61 H 5.2403 3.40109 -4.34776 0
M  V30 62 H 7.7163 3.38421 -2.42096 0
M  V30 63 H 6.5923 4.70806 -2.82193 0
M  V30 64 H 6.8533 4.27131 -1.14068 0
M  V30 65 N 5.9124 1.20967 1.01018 0
M  V30 66 C 7.1524 1.03511 1.76252 0
M  V30 67 C 7.5164 -0.42458 1.87247 0
M  V30 68 O 8.7174 -0.719508 2.58991 0
M  V30 69 C 6.9884 1.70726 3.13986 0
M  V30 70 S 8.5474 1.68458 4.05176 0
M  V30 71 H 5.3654 0.371037 0.606508 0
M  V30 72 H 7.9674 1.53628 1.20908 0
M  V30 73 H 6.6714 2.76128 3.03614 0
M  V30 74 H 6.2024 1.20767 3.74405 0
M  V30 75 H 8.2174 0.721987 4.90919 0
M  V30 76 N 7.3905 -1.2043 1.01659 0
M  V30 77 C 8.3205 -2.25466 0.607226 0
M  V30 78 C 9.3015 -1.65853 -0.377716 0
M  V30 79 O 10.4865 -1.92409 -0.263149 0
M  V30 80 C 7.6165 -3.47256 -0.0552949 0
M  V30 81 C 6.5705 -4.19462 0.850632 0
M  V30 82 C 5.8965 -5.34673 0.0538859 0
M  V30 83 C 7.1965 -4.75603 2.15868 0
M  V30 84 H 8.8905 -2.59962 1.48526 0
M  V30 85 H 6.4365 -1.2496 0.715605 0
M  V30 86 H 8.3895 -4.19917 -0.353233 0
M  V30 87 H 7.1135 -3.11924 -0.968045 0
M  V30 88 H 5.7725 -3.48667 1.13257 0
M  V30 89 H 5.4205 -4.95585 -0.860514 0
M  V30 90 H 5.1205 -5.83913 0.657192 0
M  V30 91 H 6.6445 -6.10138 -0.237598 0
M  V30 92 H 8.0585 -5.40083 1.92311 0
M  V30 93 H 6.4555 -5.3528 2.71284 0
M  V30 94 H 7.5255 -3.94346 2.82169 0
M  V30 95 N 8.8686 -0.792821 -1.36206 0
M  V30 96 C 9.8316 -0.199459 -2.2833 0
M  V30 97 C 10.8316 0.605189 -1.48977 0
M  V30 98 O 12.0216 0.425685 -1.68919 0
M  V30 99 C 9.1536 0.723523 -3.33134 0
M  V30 100 H 10.3466 -1.01181 -2.82316 0
M  V30 101 H 7.8996 -0.562485 -1.45828 0
M  V30 102 H 8.6346 1.56008 -2.84309 0
M  V30 103 H 8.4196 0.148436 -3.91819 0
M  V30 104 H 9.9096 1.13344 -4.01924 0
M  V30 105 N 10.3467 1.47872 -0.545128 0
M  V30 106 C 11.5957 2.01695 -0.0145033 0
M  V30 107 C 11.9087 1.42609 1.33873 0
M  V30 108 O 13.1147 1.88021 1.95858 0
M  V30 109 C 11.5707 3.59892 0.0245068 0
M  V30 110 C 11.1787 4.27966 -1.32475 0
M  V30 111 C 12.9227 4.21507 0.50316 0
M  V30 112 C 10.8297 5.78136 -1.2455 0
M  V30 113 H 9.7597 0.753998 -0.00165172 0
M  V30 114 H 12.4107 1.69985 -0.691175 0
M  V30 115 H 10.7927 3.88509 0.766575 0
M  V30 116 H 11.9667 4.11003 -2.08357 0
M  V30 117 H 10.2817 3.78286 -1.74036 0
M  V30 118 H 12.8787 5.31538 0.580656 0
M  V30 119 H 13.2217 3.87855 1.51243 0
M  V30 120 H 13.7547 3.97376 -0.183681 0
M  V30 121 H 10.4937 6.16388 -2.23039 0
M  V30 122 H 10.0137 5.97469 -0.528282 0
M  V30 123 H 11.6927 6.40099 -0.942488 0
M  V30 124 N 11.8248 0.280983 1.55075 0
M  V30 125 C 13.0728 -0.333455 1.9933 0
M  V30 126 C 13.3938 -1.55937 1.17085 0
M  V30 127 O 12.6638 -1.94143 0.261805 0
M  V30 128 H 11.2438 -0.126197 0.736263 0
M  V30 129 H 13.9058 0.387678 1.91005 0
M  V30 130 H 13.0018 -0.619292 3.05894 0
M  V30 131 N 13.3029 -1.57598 0.00835791 0
M  V30 132 C 14.5429 -1.92788 -0.679136 0
M  V30 133 C 14.9069 -0.883378 -1.70471 0
M  V30 134 O 16.1079 -1.12079 -2.44319 0
M  V30 135 C 14.3789 -3.32994 -1.29807 0
M  V30 136 S 15.9379 -3.90082 -2.00952 0
M  V30 137 H 12.7559 -0.67475 -0.224127 0
M  V30 138 H 15.3579 -1.95385 0.0670497 0
M  V30 139 H 14.0619 -4.06846 -0.538922 0
M  V30 140 H 13.5929 -3.33791 -2.082 0
M  V30 141 H 15.6079 -3.71834 -3.28563 0
M  V30 142 N 14.781 0.264519 -1.55364 0
M  V30 143 C 15.711 1.33121 -1.91836 0
M  V30 144 C 16.692 1.51101 -0.781192 0
M  V30 145 O 17.877 1.64003 -1.04003 0
M  V30 146 C 15.007 2.68921 -2.19769 0
M  V30 147 C 13.961 2.65661 -3.35571 0
M  V30 148 C 13.287 4.05093 -3.49004 0
M  V30 149 C 14.587 2.24187 -4.71739 0
M  V30 150 H 16.281 1.02844 -2.81182 0
M  V30 151 H 13.827 0.493286 -1.35287 0
M  V30 152 H 15.78 3.43663 -2.43872 0
M  V30 153 H 14.504 3.00799 -1.27231 0
M  V30 154 H 13.163 1.93377 -3.1145 0
M  V30 155 H 12.811 4.34206 -2.53917 0
M  V30 156 H 12.511 4.03804 -4.26868 0
M  V30 157 H 14.035 4.81561 -3.75408 0
M  V30 158 H 15.449 2.88654 -4.9533 0
M  V30 159 H 13.846 2.34044 -5.52579 0
M  V30 160 H 14.916 1.19327 -4.69988 0
M  V30 161 N 16.2591 1.48442 0.529413 0
M  V30 162 C 17.4891 1.59919 1.30804 0
M  V30 163 C 17.8971 0.258792 1.87422 0
M  V30 164 O 17.2401 -0.762096 1.67146 0
M  V30 165 C 17.3021 2.58693 2.49636 0
M  V30 166 C 16.9661 4.03745 2.14101 0
M  V30 167 C 17.9631 4.9141 1.6974 0
M  V30 168 C 15.6481 4.49285 2.24607 0
M  V30 169 C 17.6421 6.22645 1.36351 0
M  V30 170 C 15.3291 5.8054 1.9083 0
M  V30 171 C 16.3271 6.67043 1.46773 0
M  V30 172 O 16.0151 7.95856 1.1344 0
M  V30 173 H 15.7471 0.541981 0.404021 0
M  V30 174 H 18.3011 1.95 0.645309 0
M  V30 175 H 16.5311 2.18734 3.18892 0
M  V30 176 H 18.2201 2.59999 3.11698 0
M  V30 177 H 18.9861 4.57465 1.61094 0
M  V30 178 H 14.8651 3.82142 2.57854 0
M  V30 179 H 18.4091 6.90119 1.01891 0
M  V30 180 H 14.3061 6.14022 1.99117 0
M  V30 181 H 15.0741 8.08613 1.26832 0
M  V30 182 N 17.7372 -0.778329 1.37039 0
M  V30 183 C 18.9652 -1.56734 1.35063 0
M  V30 184 C 19.3802 -1.88686 -0.0655597 0
M  V30 185 O 18.7372 -1.5096 -1.02554 0
M  V30 186 C 18.7882 -2.88163 2.18276 0
M  V30 187 O 18.5092 -2.57583 3.54376 0
M  V30 188 C 20.0102 -3.82422 2.24206 0
M  V30 189 H 17.2302 -0.485778 0.462883 0
M  V30 190 H 19.7742 -0.965185 1.8029 0
M  V30 191 H 17.9292 -3.44818 1.76576 0
M  V30 192 H 18.3432 -3.41699 3.97922 0
M  V30 193 H 19.8172 -4.71667 2.86765 0
M  V30 194 H 20.2942 -4.21078 1.24861 0
M  V30 195 H 20.9002 -3.31697 2.6619 0
M  V30 196 N 19.2153 -1.21501 -1.00376 0
M  V30 197 C 20.4623 -1.03299 -1.74171 0
M  V30 198 C 20.7903 0.433326 -1.89612 0
M  V30 199 O 20.0453 1.33779 -1.42834 0
M  V30 200 C 20.3443 -1.67673 -3.15627 0
M  V30 201 C 20.0103 -3.17533 -3.2013 0
M  V30 202 C 18.6723 -3.58427 -3.21067 0
M  V30 203 C 21.0243 -4.13504 -3.17275 0
M  V30 204 C 18.3523 -4.93794 -3.16835 0
M  V30 205 C 20.7043 -5.48834 -3.14585 0
M  V30 206 C 19.3683 -5.89123 -3.13831 0
M  V30 207 H 18.6383 -0.377999 -0.637336 0
M  V30 208 H 21.2853 -1.51111 -1.17634 0
M  V30 209 H 19.5903 -1.12158 -3.75404 0
M  V30 210 H 21.2873 -1.51091 -3.71446 0
M  V30 211 H 17.8773 -2.84965 -3.20145 0
M  V30 212 H 22.0613 -3.82936 -3.15711 0
M  V30 213 H 17.3173 -5.24255 -3.1459 0
M  V30 214 H 21.4913 -6.22934 -3.1133 0
M  V30 215 H 19.1183 -6.93984 -3.10307 0
M  V30 216 N 20.6934 1.19889 -1.02296 0
M  V30 217 C 21.6234 2.25141 -0.619174 0
M  V30 218 C 22.6044 1.66051 0.368915 0
M  V30 219 O 23.7894 1.92546 0.252941 0
M  V30 220 C 20.9194 3.4728 0.0368783 0
M  V30 221 C 19.8734 4.19005 -0.872865 0
M  V30 222 C 19.1994 5.34637 -0.0822402 0
M  V30 223 C 20.4994 4.74452 -2.18387 0
M  V30 224 H 22.1934 2.59171 -1.49903 0
M  V30 225 H 19.7394 1.24579 -0.722222 0
M  V30 226 H 21.6924 4.20098 0.330958 0
M  V30 227 H 20.4164 3.12433 0.95149 0
M  V30 228 H 19.0754 3.48061 -1.15105 0
M  V30 229 H 18.7234 4.96034 0.83422 0
M  V30 230 H 18.4234 5.83557 -0.688149 0
M  V30 231 H 19.9474 6.10255 0.205238 0
M  V30 232 H 21.3614 5.39055 -1.95172 0
M  V30 233 H 19.7584 5.33834 -2.74119 0
M  V30 234 H 20.8284 3.92844 -2.84257 0
M  V30 235 N 22.1715 0.800033 1.35784 0
M  V30 236 C 23.4205 0.37387 1.98205 0
M  V30 237 C 23.7335 -1.06302 1.64193 0
M  V30 238 O 24.9395 -1.59198 2.19928 0
M  V30 239 C 23.3955 0.617532 3.54562 0
M  V30 240 C 23.0035 2.06654 3.9749 0
M  V30 241 C 24.7475 0.256401 4.23725 0
M  V30 242 C 22.6545 2.2563 5.46667 0
M  V30 243 H 21.5845 0.136055 0.741623 0
M  V30 244 H 24.2355 0.983166 1.54939 0
M  V30 245 H 22.6175 -0.0616248 3.95952 0
M  V30 246 H 23.7915 2.78296 3.67271 0
M  V30 247 H 22.1065 2.38691 3.41197 0
M  V30 248 H 24.7035 0.376318 5.33374 0
M  V30 249 H 25.0465 -0.796692 4.08606 0
M  V30 250 H 25.5795 0.889214 3.87734 0
M  V30 251 H 22.3185 3.2936 5.66747 0
M  V30 252 H 21.8385 1.58504 5.78478 0
M  V30 253 H 23.5175 2.06861 6.1304 0
M  V30 254 N 23.6496 -1.47581 0.552962 0
M  V30 255 C 24.8746 -2.07378 0.0300593 0
M  V30 256 C 25.2996 -1.40355 -1.25229 0
M  V30 257 O 24.6576 -0.477099 -1.7491 0
M  V30 258 C 24.7056 -3.60274 -0.153231 0
M  V30 259 O 23.8096 -3.94041 -1.21678 0
M  V30 260 H 23.1506 -0.662158 0.0494182 0
M  V30 261 H 25.6806 -1.89662 0.767434 0
M  V30 262 H 25.6906 -4.0633 -0.368761 0
M  V30 263 H 24.3656 -4.08455 0.783397 0
M  V30 264 H 22.9426 -3.59735 -0.982079 0
M  V30 265 N 25.1277 -0.289203 -1.54924 0
M  V30 266 C 26.3557 0.326463 -2.04308 0
M  V30 267 C 26.7707 1.48413 -1.16701 0
M  V30 268 O 26.1277 1.81507 -0.190087 0
M  V30 269 C 26.1787 0.794014 -3.52672 0
M  V30 270 O 25.8997 -0.317564 -4.36948 0
M  V30 271 C 27.4007 1.47605 -4.18004 0
M  V30 272 H 24.6207 0.0726272 -0.667058 0
M  V30 273 H 27.1647 -0.425401 -2.00026 0
M  V30 274 H 25.3197 1.49593 -3.57352 0
M  V30 275 H 25.7337 0.0443186 -5.24481 0
M  V30 276 H 27.2077 1.75447 -5.23376 0
M  V30 277 H 27.6847 2.41224 -3.67025 0
M  V30 278 H 28.2907 0.81762 -4.17367 0
M  V30 279 N 26.6058 1.57591 -0.0167156 0
M  V30 280 C 27.8338 1.95575 0.675128 0
M  V30 281 C 28.2488 0.892542 1.6637 0
M  V30 282 O 27.6058 -0.126912 1.82058 0
M  V30 283 C 27.6568 3.33608 1.39239 0
M  V30 284 O 27.3778 4.3585 0.443444 0
M  V30 285 C 28.8788 3.86151 2.17721 0
M  V30 286 H 26.0988 0.644423 0.186978 0
M  V30 287 H 28.6428 2.0437 -0.0728 0
M  V30 288 H 26.7978 3.2607 2.09182 0
M  V30 289 H 27.2118 5.158 0.951358 0
M  V30 290 H 28.6858 4.85114 2.63379 0
M  V30 291 H 29.1628 3.19738 3.01105 0
M  V30 292 H 29.7688 3.96918 1.52761 0
M  V30 293 N 28.0839 -0.256276 1.55502 0
M  V30 294 C 29.3309 -0.985619 1.76895 0
M  V30 295 C 29.6589 -1.85671 0.579355 0
M  V30 296 O 28.9139 -1.90744 -0.437651 0
M  V30 297 C 29.2129 -1.88432 3.03691 0
M  V30 298 C 28.8789 -1.16936 4.35473 0
M  V30 299 C 27.5409 -0.97173 4.71286 0
M  V30 300 C 29.8929 -0.661889 5.1698 0
M  V30 301 C 27.2209 -0.254179 5.86149 0
M  V30 302 C 29.5729 0.042149 6.32586 0
M  V30 303 C 28.2369 0.25134 6.67027 0
M  V30 304 H 27.5069 -0.360663 0.647304 0
M  V30 305 H 30.1539 -0.256483 1.89775 0
M  V30 306 H 28.4589 -2.68021 2.85783 0
M  V30 307 H 30.1559 -2.45015 3.1744 0
M  V30 308 H 26.7459 -1.33332 4.07333 0
M  V30 309 H 30.9299 -0.802145 4.89775 0
M  V30 310 H 26.1859 -0.0815408 6.11346 0
M  V30 311 H 30.3599 0.443049 6.94989 0
M  V30 312 H 27.9869 0.809314 7.5588 0
M  V30 313 N 29.562 -1.4872 -0.521534 0
M  V30 314 C 30.81 -1.56857 -1.27437 0
M  V30 315 C 31.131 -0.247982 -1.93417 0
M  V30 316 O 30.401 0.731151 -1.81744 0
M  V30 317 H 28.981 -0.577885 -0.473347 0
M  V30 318 H 31.643 -1.85233 -0.606205 0
M  V30 319 H 30.739 -2.35402 -2.0492 0
M  V30 320 N 31.0401 0.771051 -1.3745 0
M  V30 321 C 32.2801 1.54264 -1.34096 0
M  V30 322 C 32.6441 1.91858 0.0737639 0
M  V30 323 O 33.8451 2.67797 0.23203 0
M  V30 324 C 32.1161 2.77326 -2.25445 0
M  V30 325 S 33.6751 3.67383 -2.39948 0
M  V30 326 H 30.4931 0.528122 -0.476034 0
M  V30 327 H 33.0951 0.906633 -1.73206 0
M  V30 328 H 31.7991 2.47788 -3.27153 0
M  V30 329 H 31.3301 3.45886 -1.87421 0
M  V30 330 H 33.3451 4.69334 -1.61059 0
M  V30 331 N 32.5182 1.22032 0.997298 0
M  V30 332 C 33.7462 1.06841 1.7718 0
M  V30 333 C 34.1612 -0.381325 1.84909 0
M  V30 334 O 33.5182 -1.26437 1.31605 0
M  V30 335 C 33.5692 1.66814 3.20711 0
M  V30 336 O 33.2902 3.06116 3.13408 0
M  V30 337 C 34.7912 1.56838 4.14628 0
M  V30 338 H 32.0112 0.374782 0.556578 0
M  V30 339 H 34.5552 1.61532 1.2541 0
M  V30 340 H 32.7102 1.16196 3.69564 0
M  V30 341 H 33.1242 3.34926 4.0364 0
M  V30 342 H 34.5982 2.03532 5.13107 0
M  V30 343 H 35.0752 0.524155 4.36061 0
M  V30 344 H 35.6812 2.06741 3.7167 0
M  V30 345 N 33.9963 -1.19345 1.0293 0
M  V30 346 C 35.2213 -1.93538 0.745511 0
M  V30 347 C 35.6463 -1.75007 -0.689511 0
M  V30 348 O 35.0043 -1.05265 -1.47611 0
M  V30 349 C 35.0523 -3.43336 1.10239 0
M  V30 350 O 34.1563 -4.11806 0.221289 0
M  V30 351 H 33.4973 -0.604193 0.275404 0
M  V30 352 H 36.0273 -1.5141 1.37609 0
M  V30 353 H 36.0373 -3.94004 1.05947 0
M  V30 354 H 34.7123 -3.56146 2.14786 0
M  V30 355 H 33.2893 -3.715 0.322842 0
M  V30 356 N 35.4744 -0.807222 -1.35358 0
M  V30 357 C 36.6994 -0.399309 -2.0352 0
M  V30 358 C 37.1244 0.981986 -1.60433 0
M  V30 359 O 36.4824 1.63601 -0.781299 0
M  V30 360 C 36.5304 -0.491552 -3.57234 0
M  V30 361 O 35.6344 0.494754 -4.09421 0
M  V30 362 H 34.9754 -0.166682 -0.642739 0
M  V30 363 H 37.5054 -1.09328 -1.72941 0
M  V30 364 H 37.5154 -0.361588 -4.06395 0
M  V30 365 H 36.1904 -1.49907 -3.87944 0
M  V30 366 H 34.7674 0.324977 -3.71481 0
M  V30 367 N 36.9525 1.47285 -0.560781 0
M  V30 368 C 38.1775 2.07359 -0.0410566 0
M  V30 369 C 38.6025 1.41017 1.24483 0
M  V30 370 O 37.9605 0.486368 1.74654 0
M  V30 371 C 38.0085 3.6035 0.134123 0
M  V30 372 O 37.1125 3.94681 1.19587 0
M  V30 373 H 36.4535 0.661887 -0.0529291 0
M  V30 374 H 38.9835 1.89252 -0.777482 0
M  V30 375 H 38.9935 4.0652 0.347207 0
M  V30 376 H 37.6685 4.08034 -0.805047 0
M  V30 377 H 36.2455 3.60251 0.962987 0
M  V30 378 N 38.4306 0.297415 1.54768 0
M  V30 379 C 39.7076 -0.365847 1.92148 0
M  V30 380 C 40.0876 -1.71975 1.22424 0
M  V30 381 O 39.4356 -2.25666 0.358739 0
M  V30 382 C 39.6456 -0.484056 3.45627 0
M  V30 383 C 40.9936 -0.756594 4.17805 0
M  V30 384 O 42.0176 -0.568007 3.51642 0
M  V30 385 O 40.8766 -1.11863 5.34929 0
M  V30 386 H 37.9706 -0.203919 0.801465 0
M  V30 387 H 40.5166 0.34521 1.66152 0
M  V30 388 H 39.2886 0.467865 3.88493 0
M  V30 389 H 38.9116 -1.24372 3.77647 0
M  V30 390 N 39.9087 -1.5758 0.0250728 0
M  V30 391 C 41.1367 -1.9593 -0.664747 0
M  V30 392 C 41.5517 -0.901352 -1.65895 0
M  V30 393 O 40.9087 0.117255 -1.82123 0
M  V30 394 C 40.9597 -3.34342 -1.37468 0
M  V30 395 O 40.6807 -4.36079 -0.420324 0
M  V30 396 C 42.1817 -3.873 -2.1567 0
M  V30 397 H 39.4017 -0.645405 -0.183557 0
M  V30 398 H 41.9457 -2.04329 0.0836372 0
M  V30 399 H 40.1007 -3.27175 -2.0745 0
M  V30 400 H 40.5147 -5.16297 -0.923991 0
M  V30 401 H 41.9887 -4.86504 -2.60803 0
M  V30 402 H 42.4657 -3.21331 -2.99405 0
M  V30 403 H 43.0717 -3.97723 -1.50654 0
M  V30 404 N 41.3868 0.248026 -1.55636 0
M  V30 405 C 42.2968 1.32859 -1.93354 0
M  V30 406 C 43.3128 1.52719 -0.833838 0
M  V30 407 O 44.4888 1.66363 -1.13513 0
M  V30 408 C 41.5538 2.66337 -2.21958 0
M  V30 409 C 40.6148 2.55008 -3.45354 0
M  V30 410 C 39.8478 3.82121 -3.72584 0
M  V30 411 O 40.0708 4.83951 -3.01907 0
M  V30 412 O 39.0048 3.80822 -4.6611 0
M  V30 413 H 42.8308 1.03862 -2.85388 0
M  V30 414 H 40.4158 0.448686 -1.42503 0
M  V30 415 H 42.2978 3.45216 -2.4167 0
M  V30 416 H 40.9728 2.95068 -1.33103 0
M  V30 417 H 39.8798 1.7442 -3.30951 0
M  V30 418 H 41.2128 2.31222 -4.34508 0
M  V30 419 N 42.8649 1.48995 0.513639 0
M  V30 420 C 44.1139 1.57093 1.2651 0
M  V30 421 C 44.4269 0.257091 1.93903 0
M  V30 422 O 45.6329 0.216478 2.70636 0
M  V30 423 C 44.0889 2.77118 2.29638 0
M  V30 424 C 43.6969 4.15209 1.68241 0
M  V30 425 C 45.4409 2.94538 3.05692 0
M  V30 426 C 43.3479 5.26474 2.69406 0
M  V30 427 H 42.2779 0.584876 0.475854 0
M  V30 428 H 44.9289 1.7536 0.540487 0
M  V30 429 H 43.3109 2.52319 3.05207 0
M  V30 430 H 44.4849 4.50094 0.987505 0
M  V30 431 H 42.7999 4.03042 1.04623 0
M  V30 432 H 45.3969 3.74832 3.8132 0
M  V30 433 H 45.7399 2.04614 3.62545 0
M  V30 434 H 46.2729 3.19316 2.37238 0
M  V30 435 H 43.0119 6.18417 2.17351 0
M  V30 436 H 42.5319 4.96058 3.37175 0
M  V30 437 H 44.2109 5.55277 3.32078 0
M  V30 438 N 44.343 -0.763751 1.37857 0
M  V30 439 C 45.29 -1.87726 1.34267 0
M  V30 440 C 46.26 -1.64807 0.206879 0
M  V30 441 O 47.445 -1.86613 0.397508 0
M  V30 442 C 44.585 -3.24896 1.16346 0
M  V30 443 C 43.698 -3.59716 2.39225 0
M  V30 444 C 42.833 -4.86137 2.14114 0
M  V30 445 C 41.872 -5.13711 3.32817 0
M  V30 446 N 41.009 -6.31323 3.07206 0
M  V30 447 H 45.849 -1.90129 2.29466 0
M  V30 448 H 43.386 -0.929433 1.14017 0
M  V30 449 H 45.344 -4.04036 1.03975 0
M  V30 450 H 43.974 -3.21847 0.247909 0
M  V30 451 H 43.026 -2.75498 2.62307 0
M  V30 452 H 44.338 -3.76027 3.27728 0
M  V30 453 H 43.492 -5.73198 1.9882 0
M  V30 454 H 42.231 -4.71945 1.22961 0
M  V30 455 H 41.236 -4.25123 3.48641 0
M  V30 456 H 42.461 -5.29807 4.24832 0
M  V30 457 H 40.407 -6.18474 2.1869 0
M  V30 458 H 40.324 -6.48087 3.89254 0
M  V30 459 H 41.592 -7.213 2.95546 0
M  V30 460 N 45.8211 -1.22559 -0.990812 0
M  V30 461 C 47.0671 -1.05297 -1.73322 0
M  V30 462 C 47.4001 0.410655 -1.89808 0
M  V30 463 O 46.6751 1.30439 -1.44277 0
M  V30 464 C 46.9581 -1.76713 -3.13759 0
M  V30 465 C 46.8111 -3.30684 -3.04907 0
M  V30 466 C 48.1301 -1.52121 -4.12974 0
M  V30 467 H 45.2491 -0.38392 -0.629106 0
M  V30 468 H 47.8911 -1.50926 -1.15418 0
M  V30 469 H 46.0411 -1.37924 -3.63193 0
M  V30 470 H 47.7131 -3.7893 -2.63077 0
M  V30 471 H 45.9561 -3.60253 -2.41661 0
M  V30 472 H 46.6271 -3.75833 -4.04294 0
M  V30 473 H 49.1031 -1.85819 -3.72304 0
M  V30 474 H 47.9791 -2.04582 -5.0935 0
M  V30 475 H 48.2401 -0.454257 -4.3976 0
M  V30 476 N 47.2992 1.18797 -1.03562 0
M  V30 477 C 48.2472 2.24297 -0.615905 0
M  V30 478 C 49.2412 1.65643 0.354808 0
M  V30 479 O 50.4472 1.78618 0.22265 0
M  V30 480 H 46.8222 0.729909 -0.180934 0
M  V30 481 H 48.7932 2.5701 -1.5162 0
M  V30 482 C 47.5422 3.47698 0.0104735 0
M  V30 483 H 46.8652 3.93125 -0.727509 0
M  V30 484 H 48.3052 4.23159 0.266995 0
M  V30 485 C 46.7642 3.12489 1.25905 0
M  V30 486 O 47.2942 3.25761 2.35038 0
M  V30 487 N 45.5002 2.6686 1.15039 0
M  V30 488 H 45.0472 2.56261 0.262328 0
M  V30 489 H 45.0052 2.43674 1.98672 0
M  V30 490 N 48.7773 0.814389 1.34928 0
M  V30 491 C 50.1883 0.458364 1.80986 0
M  V30 492 C 50.5393 -1.02042 1.67577 0
M  V30 493 O 49.6643 -1.79352 1.21086 0
M  V30 494 C 50.2593 0.825212 3.28597 0
M  V30 495 C 48.8183 0.521677 3.72767 0
M  V30 496 C 47.9653 1.04668 2.56788 0
M  V30 497 H 50.9163 1.00533 1.22795 0
M  V30 498 H 50.9373 0.12571 3.80292 0
M  V30 499 H 50.4493 1.90154 3.38324 0
M  V30 500 H 48.5503 -0.545589 3.68584 0
M  V30 501 H 48.6633 1.05977 4.67232 0
M  V30 502 H 47.0273 0.468622 2.50352 0
M  V30 503 H 47.8103 2.12927 2.6929 0
M  V30 504 N 50.2554 -1.46986 0.568584 0
M  V30 505 C 51.6664 -1.86188 0.138219 0
M  V30 506 C 52.0174 -1.47388 -1.29504 0
M  V30 507 O 51.1424 -0.88219 -1.97602 0
M  V30 508 C 51.7374 -3.3792 0.244065 0
M  V30 509 C 50.2964 -3.76171 -0.131335 0
M  V30 510 C 49.4434 -2.71027 0.586465 0
M  V30 511 H 52.3944 -1.38342 0.777645 0
M  V30 512 H 52.4154 -3.76729 -0.534351 0
M  V30 513 H 51.9274 -3.66128 1.28731 0
M  V30 514 H 50.0284 -3.5358 -1.17526 0
M  V30 515 H 50.1414 -4.78523 0.235146 0
M  V30 516 H 48.5054 -2.54684 0.0282722 0
M  V30 517 H 49.2884 -3.02077 1.63109 0
M  V30 518 N 51.7335 -0.305618 -1.54608 0
M  V30 519 C 52.6655 0.602161 -2.21149 0
M  V30 520 C 53.6785 1.09394 -1.20569 0
M  V30 521 O 54.8675 1.0106 -1.47136 0
M  V30 522 C 51.9675 1.83692 -2.84799 0
M  V30 523 C 51.1405 1.48686 -4.11353 0
M  V30 524 C 50.1995 2.57725 -4.58764 0
M  V30 525 O 49.2255 2.22623 -5.23858 0
M  V30 526 N 50.4275 3.88346 -4.31471 0
M  V30 527 H 53.1925 0.0324966 -2.99682 0
M  V30 528 H 50.7535 -0.128021 -1.61393 0
M  V30 529 H 52.7455 2.55994 -3.13448 0
M  V30 530 H 51.3155 2.31486 -2.10078 0
M  V30 531 H 50.5355 0.596269 -3.89664 0
M  V30 532 H 51.8235 1.22842 -4.93748 0
M  V30 533 H 51.2215 4.19671 -3.79331 0
M  V30 534 H 49.7785 4.56932 -4.64818 0
M  V30 535 N 53.2116 1.57565 -0.0334293 0
M  V30 536 C 54.4886 1.83282 0.683163 0
M  V30 537 C 54.8686 0.91823 1.90084 0
M  V30 538 O 54.2166 -0.025113 2.28486 0
M  V30 539 C 54.4266 3.32599 1.0573 0
M  V30 540 C 55.7746 3.99179 1.44711 0
M  V30 541 O 56.7986 3.3712 1.15015 0
M  V30 542 O 55.6576 5.08565 2.0006 0
M  V30 543 H 52.7516 0.755869 0.335546 0
M  V30 544 H 55.2976 1.69589 -0.0614402 0
M  V30 545 H 54.0696 3.90834 0.190828 0
M  V30 546 H 53.6926 3.51415 1.85993 0
M  V30 547 N 54.6897 -0.239769 1.55765 0
M  V30 548 C 55.9367 -0.966801 1.7793 0
M  V30 549 C 56.2647 -1.85046 0.599015 0
M  V30 550 O 55.5197 -1.91197 -0.417395 0
M  V30 551 C 55.8187 -1.852 3.05672 0
M  V30 552 C 55.4847 -1.1231 4.36689 0
M  V30 553 C 54.1467 -0.921689 4.72291 0
M  V30 554 C 56.4987 -0.607019 5.17653 0
M  V30 555 C 53.8267 -0.191996 5.86386 0
M  V30 556 C 56.1787 0.109241 6.32506 0
M  V30 557 C 54.8427 0.322073 6.66723 0
M  V30 558 H 54.1127 -0.353778 0.651093 0
M  V30 559 H 56.7597 -0.23634 1.90036 0
M  V30 560 H 55.0647 -2.64975 2.8861 0
M  V30 561 H 56.7617 -2.41635 3.20021 0
M  V30 562 H 53.3517 -1.29004 4.08725 0
M  V30 563 H 57.5357 -0.750153 4.90598 0
M  V30 564 H 52.7917 -0.0166949 6.11398 0
M  V30 565 H 56.9657 0.516737 6.9448 0
M  V30 566 H 54.5927 0.88944 7.54979 0
M  V30 567 N 56.1678 -1.49265 -0.50573 0
M  V30 568 C 57.0778 -1.68312 -1.63427 0
M  V30 569 C 58.0938 -0.565682 -1.64548 0
M  V30 570 O 59.2698 -0.839801 -1.83055 0
M  V30 571 C 56.3348 -1.74107 -2.99813 0
M  V30 572 C 55.3958 -2.97653 -3.09356 0
M  V30 573 C 54.6288 -3.03163 -4.39236 0
M  V30 574 O 54.8518 -2.16396 -5.27758 0
M  V30 575 O 53.7858 -3.9558 -4.53652 0
M  V30 576 H 57.6118 -2.63907 -1.50289 0
M  V30 577 H 55.1968 -1.32951 -0.681502 0
M  V30 578 H 57.0788 -1.803 -3.80881 0
M  V30 579 H 55.7538 -0.816901 -3.13223 0
M  V30 580 H 54.6608 -2.96981 -2.27493 0
M  V30 581 H 55.9938 -3.89535 -3.00871 0
M  V30 582 N 57.6459 0.756429 -1.3826 0
M  V30 583 C 58.8949 1.51082 -1.3363 0
M  V30 584 C 59.2079 1.95467 0.0720068 0
M  V30 585 O 60.4139 2.7043 0.240834 0
M  V30 586 C 58.8699 2.72893 -2.34644 0
M  V30 587 C 58.4779 2.35544 -3.81081 0
M  V30 588 C 60.2219 3.50791 -2.39052 0
M  V30 589 C 58.1289 3.53948 -4.73787 0
M  V30 590 H 57.0589 0.56727 -0.49671 0
M  V30 591 H 59.7099 0.827147 -1.638 0
M  V30 592 H 58.0919 3.43227 -1.97513 0
M  V30 593 H 59.2659 1.72894 -4.27135 0
M  V30 594 H 57.5809 1.70786 -3.79764 0
M  V30 595 H 60.1779 4.38823 -3.05513 0
M  V30 596 H 60.5209 3.91745 -1.40861 0
M  V30 597 H 61.0539 2.87467 -2.74968 0
M  V30 598 H 57.7929 3.18064 -5.73163 0
M  V30 599 H 57.3129 4.15651 -4.32428 0
M  V30 600 H 58.9919 4.20566 -4.91663 0
M  V30 601 N 59.124 1.23083 0.984299 0
M  V30 602 C 60.37 1.06214 1.72761 0
M  V30 603 C 60.703 -0.400584 1.90024 0
M  V30 604 O 59.978 -1.29672 1.44967 0
M  V30 605 C 60.261 1.78375 3.12817 0
M  V30 606 C 60.114 3.32296 3.03149 0
M  V30 607 C 61.433 1.54309 4.12161 0
M  V30 608 H 58.552 0.387251 0.627061 0
M  V30 609 H 61.194 1.51536 1.14616 0
M  V30 610 H 59.344 1.39848 3.62457 0
M  V30 611 H 61.016 3.8032 2.61064 0
M  V30 612 H 59.259 3.6153 2.39747 0
M  V30 613 H 59.93 3.77972 4.02295 0
M  V30 614 H 62.406 1.87791 3.71314 0
M  V30 615 H 61.282 2.07281 5.08258 0
M  V30 616 H 61.543 0.477572 4.39513 0
M  V30 617 N 60.6021 -1.18246 1.0419 0
M  V30 618 C 61.8791 -1.84121 0.660208 0
M  V30 619 C 62.2591 -1.92778 -0.860221 0
M  V30 620 O 61.6071 -1.45464 -1.76217 0
M  V30 621 C 61.8171 -3.22355 1.33747 0
M  V30 622 C 63.1651 -3.98376 1.46906 0
M  V30 623 O 64.1891 -3.31799 1.29568 0
M  V30 624 O 63.0481 -5.17665 1.75171 0
M  V30 625 H 60.1421 -0.794036 0.231161 0
M  V30 626 H 62.6881 -1.25628 1.14087 0
M  V30 627 H 61.4601 -3.10964 2.37522 0
M  V30 628 H 61.0831 -3.88506 0.845515 0
M  V30 629 N 62.0802 -0.821533 -1.34494 0
M  V30 630 C 63.4912 -0.467956 -1.8074 0
M  V30 631 C 63.8422 1.01151 -1.68116 0
M  V30 632 O 62.9672 1.78707 -1.22036 0
M  V30 633 C 63.5622 -0.842627 -3.28154 0
M  V30 634 C 62.1212 -0.541439 -3.72485 0
M  V30 635 C 61.2682 -1.06028 -2.56229 0
M  V30 636 H 64.2192 -1.01183 -1.22261 0
M  V30 637 H 64.2402 -0.145876 -3.8022 0
M  V30 638 H 63.7522 -1.91945 -3.37311 0
M  V30 639 H 61.8532 0.526034 -3.68868 0
M  V30 640 H 61.9662 -1.08453 -4.66663 0
M  V30 641 H 60.3302 -0.481892 -2.501 0
M  V30 642 H 61.1132 -2.14352 -2.68157 0
M  V30 643 N 63.5583 1.46682 -0.576371 0
M  V30 644 C 64.8063 2.02013 -0.0594163 0
M  V30 645 C 65.1273 1.45101 1.30271 0
M  V30 646 O 64.3973 0.633317 1.8538 0
M  V30 647 H 62.9773 0.746759 -0.0189745 0
M  V30 648 H 65.6393 1.79862 -0.750717 0
M  V30 649 H 64.7353 3.12097 0.014345 0
M  V30 650 N 65.0364 0.313813 1.54444 0
M  V30 651 C 66.2664 -0.293491 2.04505 0
M  V30 652 C 66.6744 -1.47086 1.19005 0
M  V30 653 O 66.0174 -1.82481 0.211257 0
M  V30 654 C 66.0794 -0.800455 3.50475 0
M  V30 655 C 65.7434 0.253322 4.56297 0
M  V30 656 C 66.7404 1.08612 5.08428 0
M  V30 657 C 64.4254 0.398708 5.00715 0
M  V30 658 C 66.4194 2.05013 6.0353 0
M  V30 659 C 64.1064 1.36614 5.95634 0
M  V30 660 C 65.1044 2.19033 6.46926 0
M  V30 661 O 64.7924 3.14134 7.39983 0
M  V30 662 H 64.5244 -0.0658325 0.672787 0
M  V30 663 H 67.0784 0.455177 2.00293 0
M  V30 664 H 65.3084 -1.59987 3.52053 0
M  V30 665 H 66.9974 -1.32504 3.83663 0
M  V30 666 H 67.7634 0.984736 4.74898 0
M  V30 667 H 63.6424 -0.23289 4.60411 0
M  V30 668 H 67.1864 2.69382 6.4349 0
M  V30 669 H 63.0834 1.4682 6.28581 0
M  V30 670 H 63.8514 3.0926 7.57826 0
M  V30 671 N 66.5145 -1.57545 0.0417849 0
M  V30 672 C 67.4445 -2.14009 -0.933929 0
M  V30 673 C 68.4255 -1.05938 -1.33083 0
M  V30 674 O 69.6105 -1.33833 -1.40721 0
M  V30 675 C 66.7405 -2.67747 -2.21199 0
M  V30 676 C 65.6945 -3.80718 -1.95544 0
M  V30 677 C 65.0205 -4.20935 -3.29724 0
M  V30 678 C 66.3205 -5.06258 -1.28452 0
M  V30 679 H 68.0145 -2.95788 -0.463645 0
M  V30 680 H 65.5605 -1.42285 -0.221573 0
M  V30 681 H 67.5135 -3.05886 -2.89848 0
M  V30 682 H 66.2375 -1.83147 -2.70416 0
M  V30 683 H 64.8965 -3.43037 -1.2931 0
M  V30 684 H 64.5445 -3.33298 -3.76724 0
M  V30 685 H 64.2445 -4.9707 -3.13361 0
M  V30 686 H 65.7685 -4.61666 -3.9962 0
M  V30 687 H 67.1825 -5.41903 -1.8712 0
M  V30 688 H 65.5795 -5.87475 -1.22445 0
M  V30 689 H 66.6495 -4.84207 -0.259219 0
M  V30 690 N 67.9926 0.231505 -1.5589 0
M  V30 691 C 69.2406 0.955461 -1.78088 0
M  V30 692 C 69.5616 1.85262 -0.608533 0
M  V30 693 O 68.8316 1.92277 0.375035 0
M  V30 694 H 67.4116 0.355787 -0.656829 0
M  V30 695 H 70.0736 0.245751 -1.93344 0
M  V30 696 H 69.1696 1.56814 -2.69844 0
M  V30 697 N 69.4707 1.49531 0.497807 0
M  V30 698 C 70.7007 1.62657 1.27382 0
M  V30 699 C 71.1087 0.298488 1.86831 0
M  V30 700 O 70.4517 -0.72647 1.68725 0
M  V30 701 C 70.5137 2.6393 2.44093 0
M  V30 702 C 70.1777 4.08195 2.05489 0
M  V30 703 C 71.1747 4.949 1.59279 0
M  V30 704 C 68.8597 4.53948 2.15026 0
M  V30 705 C 70.8537 6.25397 1.23113 0
M  V30 706 C 68.5407 5.84458 1.78473 0
M  V30 707 C 69.5387 6.70006 1.32591 0
M  V30 708 O 69.2267 7.98083 0.965327 0
M  V30 709 H 68.9587 0.550429 0.392434 0
M  V30 710 H 71.5127 1.96325 0.603801 0
M  V30 711 H 69.7427 2.25449 3.14181 0
M  V30 712 H 71.4317 2.66552 3.06113 0
M  V30 713 H 72.1977 4.60779 1.51354 0
M  V30 714 H 68.0767 3.87525 2.4969 0
M  V30 715 H 71.6207 6.92125 0.872299 0
M  V30 716 H 67.5177 6.18107 1.86048 0
M  V30 717 H 68.2857 8.11122 1.09652 0
M  V30 718 N 70.9488 -0.749086 1.3866 0
M  V30 719 C 71.8788 -1.8764 1.38973 0
M  V30 720 C 72.8598 -1.68178 0.255004 0
M  V30 721 O 74.0448 -1.88704 0.458754 0
M  V30 722 C 71.1748 -3.25222 1.21851 0
M  V30 723 C 70.1288 -3.59295 2.32575 0
M  V30 724 C 69.4548 -4.95663 2.00555 0
M  V30 725 C 70.7548 -3.63709 3.7485 0
M  V30 726 H 72.4488 -1.87635 2.3331 0
M  V30 727 H 69.9948 -0.901329 1.12303 0
M  V30 728 H 71.9478 -4.03746 1.20695 0
M  V30 729 H 70.6718 -3.25719 0.239775 0
M  V30 730 H 69.3308 -2.83093 2.32925 0
M  V30 731 H 68.9788 -4.92724 1.01154 0
M  V30 732 H 68.6788 -5.19429 2.74714 0
M  V30 733 H 70.2028 -5.7656 2.01024 0
M  V30 734 H 71.6168 -4.32338 3.76506 0
M  V30 735 H 70.0138 -3.98986 4.48252 0
M  V30 736 H 71.0838 -2.63834 4.06841 0
M  V30 737 N 72.4269 -1.23603 -0.977757 0
M  V30 738 C 73.6569 -1.09487 -1.75203 0
M  V30 739 C 74.0649 0.356321 -1.85814 0
M  V30 740 O 73.4079 1.25816 -1.33851 0
M  V30 741 C 73.4699 -1.64905 -3.19447 0
M  V30 742 C 73.1339 -3.13688 -3.32338 0
M  V30 743 C 74.1309 -4.10953 -3.18455 0
M  V30 744 C 71.8159 -3.53449 -3.56902 0
M  V30 745 C 73.8099 -5.45962 -3.28944 0
M  V30 746 C 71.4969 -4.88602 -3.6703 0
M  V30 747 C 72.4949 -5.84668 -3.53062 0
M  V30 748 O 72.1829 -7.17365 -3.62826 0
M  V30 749 H 71.9149 -0.38367 -0.556573 0
M  V30 750 H 74.4689 -1.6398 -1.23693 0
M  V30 751 H 72.6989 -1.04835 -3.72218 0
M  V30 752 H 74.3879 -1.46226 -3.78646 0
M  V30 753 H 75.1539 -3.81577 -2.99372 0
M  V30 754 H 71.0329 -2.79188 -3.66844 0
M  V30 755 H 74.5769 -6.20925 -3.17958 0
M  V30 756 H 70.4739 -5.17653 -3.85623 0
M  V30 757 H 71.2419 -7.2515 -3.79605 0
M  V30 758 N 73.905 1.17692 -1.04816 0
M  V30 759 C 74.835 2.23777 -0.666791 0
M  V30 760 C 75.816 1.66796 0.33361 0
M  V30 761 O 77.001 1.93039 0.212042 0
M  V30 762 C 74.131 3.47281 -0.0367933 0
M  V30 763 C 73.085 4.17059 -0.961546 0
M  V30 764 C 72.411 5.34342 -0.195626 0
M  V30 765 C 73.711 4.69713 -2.28402 0
M  V30 766 H 75.405 2.55933 -1.55367 0
M  V30 767 H 72.951 1.23019 -0.748484 0
M  V30 768 H 74.904 4.20706 0.241775 0
M  V30 769 H 73.628 3.14381 0.885004 0
M  V30 770 H 72.287 3.45541 -1.22462 0
M  V30 771 H 71.935 4.97692 0.728816 0
M  V30 772 H 71.635 5.81966 -0.811775 0
M  V30 773 H 73.159 6.10553 0.0757473 0
M  V30 774 H 74.573 5.34794 -2.06563 0
M  V30 775 H 72.97 5.279 -2.8538 0
M  V30 776 H 74.04 3.86726 -2.92525 0
M  V30 777 N 75.3831 0.828654 1.34056 0
M  V30 778 C 76.3151 0.212052 2.28217 0
M  V30 779 C 77.3281 -0.601362 1.51286 0
M  V30 780 O 78.5171 -0.430104 1.73241 0
M  V30 781 C 75.6171 -0.72088 3.31144 0
M  V30 782 C 74.7901 0.0509587 4.3737 0
M  V30 783 C 73.8491 -0.803766 5.20025 0
M  V30 784 O 72.8751 -0.246667 5.68665 0
M  V30 785 N 74.0771 -2.1227 5.40298 0
M  V30 786 H 76.8421 1.02105 2.81771 0
M  V30 787 H 74.4031 0.686153 1.46641 0
M  V30 788 H 76.3951 -1.29742 3.8334 0
M  V30 789 H 74.9651 -1.43061 2.77943 0
M  V30 790 H 74.1851 0.808831 3.85813 0
M  V30 791 H 75.4731 0.582065 5.0546 0
M  V30 792 H 74.8711 -2.59898 5.02464 0
M  V30 793 H 73.4281 -2.64796 5.95589 0
M  V30 794 N 76.8612 -1.46375 0.584142 0
M  V30 795 C 78.1072 -2.03248 0.0787103 0
M  V30 796 C 78.4622 -1.44737 -1.26763 0
M  V30 797 O 77.7552 -0.603625 -1.81843 0
M  V30 798 C 77.9492 -3.57373 -0.0439342 0
M  V30 799 C 77.7782 -4.30831 1.28897 0
M  V30 800 C 76.5482 -4.69683 1.8635 0
M  V30 801 C 78.7462 -4.64278 2.21248 0
M  V30 802 N 76.7282 -5.27898 3.13365 0
M  V30 803 C 78.0992 -5.23078 3.32851 0
M  V30 804 C 80.1542 -4.46209 2.20911 0
M  V30 805 C 78.8572 -5.65715 4.44251 0
M  V30 806 C 80.8832 -4.89864 3.31341 0
M  V30 807 C 80.2452 -5.48736 4.41665 0
M  V30 808 H 76.3442 -0.778714 0.0716144 0
M  V30 809 H 78.9282 -1.78509 0.777355 0
M  V30 810 H 77.0992 -3.81823 -0.711749 0
M  V30 811 H 78.8312 -4.00892 -0.553881 0
M  V30 812 H 75.5862 -4.52488 1.39826 0
M  V30 813 H 76.0102 -5.61525 3.78178 0
M  V30 814 H 80.6522 -4.00027 1.36888 0
M  V30 815 H 78.3702 -6.10875 5.29015 0
M  V30 816 H 81.9562 -4.77634 3.322 0
M  V30 817 H 80.8362 -5.81898 5.25704 0
M  V30 818 N 78.3393 -0.321999 -1.54275 0
M  V30 819 C 79.2713 0.578671 -2.21775 0
M  V30 820 C 80.2843 1.08109 -1.21722 0
M  V30 821 O 81.4733 0.994938 -1.482 0
M  V30 822 C 78.5733 1.80661 -2.86731 0
M  V30 823 C 77.7463 1.44314 -4.12907 0
M  V30 824 C 76.8053 2.52845 -4.61472 0
M  V30 825 O 75.8313 2.17054 -5.2619 0
M  V30 826 N 77.0333 3.83748 -4.35566 0
M  V30 827 H 79.7983 0.000709447 -2.997 0
M  V30 828 H 77.3593 -0.145132 -1.61248 0
M  V30 829 H 79.3513 2.52655 -3.16145 0
M  V30 830 H 77.9213 2.29245 -2.12521 0
M  V30 831 H 77.1413 0.554906 -3.90275 0
M  V30 832 H 78.4293 1.17598 -4.95023 0
M  V30 833 H 77.8273 4.15625 -3.83761 0
M  V30 834 H 76.3843 4.51977 -4.69638 0
M  V30 835 N 79.8174 1.5752 -0.0501392 0
M  V30 836 C 81.2284 1.80271 0.485705 0
M  V30 837 C 81.5794 0.96228 1.70981 0
M  V30 838 O 80.7044 0.178578 2.15662 0
M  V30 839 C 81.2994 3.26957 0.887938 0
M  V30 840 C 79.8584 3.5063 1.36877 0
M  V30 841 C 79.0054 2.75165 0.343468 0
M  V30 842 H 81.9564 1.56281 -0.276028 0
M  V30 843 H 81.9774 3.37821 1.75093 0
M  V30 844 H 81.4894 3.881 -0.0031809 0
M  V30 845 H 79.5904 2.94766 2.27911 0
M  V30 846 H 79.7034 4.59343 1.36164 0
M  V30 847 H 78.0674 2.4127 0.816128 0
M  V30 848 H 78.8504 3.39034 -0.539548 0
M  V30 849 N 81.2955 -0.223234 1.56011 0
M  V30 850 C 82.7065 -0.790368 1.69145 0
M  V30 851 C 83.0575 -1.85055 0.651845 0
M  V30 852 O 82.1825 -2.15498 -0.197359 0
M  V30 853 C 82.7775 -1.4404 3.06656 0
M  V30 854 C 81.3365 -1.95494 3.2165 0
M  V30 855 C 80.4835 -0.814506 2.65068 0
M  V30 856 H 83.4345 0.00139011 1.587 0
M  V30 857 H 83.4555 -2.30916 3.0242 0
M  V30 858 H 82.9675 -0.668543 3.82298 0
M  V30 859 H 81.0685 -2.75487 2.50874 0
M  V30 860 H 81.1815 -2.13607 4.28846 0
M  V30 861 H 79.5455 -1.22137 2.23505 0
M  V30 862 H 80.3285 -0.0553515 3.43255 0
M  V30 863 N 82.7736 -1.49793 -0.48987 0
M  V30 864 C 83.7036 -1.70201 -1.59856 0
M  V30 865 C 84.6846 -0.55076 -1.60937 0
M  V30 866 O 85.8696 -0.787841 -1.77501 0
M  V30 867 C 82.9996 -1.77882 -2.98287 0
M  V30 868 C 81.9536 -2.92907 -3.12073 0
M  V30 869 C 81.2796 -2.85712 -4.51965 0
M  V30 870 C 82.5796 -4.3369 -2.91051 0
M  V30 871 H 84.2736 -2.63025 -1.43032 0
M  V30 872 H 81.8196 -1.26574 -0.686664 0
M  V30 873 H 83.7726 -1.90744 -3.75759 0
M  V30 874 H 82.4966 -0.816653 -3.16225 0
M  V30 875 H 81.1556 -2.79665 -2.37029 0
M  V30 876 H 80.8036 -1.8738 -4.66795 0
M  V30 877 H 80.5036 -3.62921 -4.62128 0
M  V30 878 H 82.0276 -3.00598 -5.31482 0
M  V30 879 H 83.4416 -4.47555 -3.58284 0
M  V30 880 H 81.8386 -5.12205 -3.12675 0
M  V30 881 H 82.9086 -4.47362 -1.87071 0
M  V30 882 N 84.2517 0.741722 -1.39055 0
M  V30 883 C 85.4767 1.53607 -1.39354 0
M  V30 884 C 85.9017 1.88096 0.0116905 0
M  V30 885 O 85.2597 1.5143 0.996924 0
M  V30 886 C 85.3077 2.80441 -2.26682 0
M  V30 887 O 84.4117 3.76088 -1.69208 0
M  V30 888 H 83.7527 0.464142 -0.474835 0
M  V30 889 H 86.2827 0.915665 -1.82967 0
M  V30 890 H 86.2927 3.29246 -2.40959 0
M  V30 891 H 84.9677 2.5467 -3.2881 0
M  V30 892 H 83.5447 3.34833 -1.64138 0
M  V30 893 N 85.7298 1.2412 0.971189 0
M  V30 894 C 86.6598 1.05508 2.08304 0
M  V30 895 C 87.6408 -0.0308864 1.70072 0
M  V30 896 O 88.8258 0.135521 1.93727 0
M  V30 897 C 85.9558 0.655365 3.4106 0
M  V30 898 C 84.9098 1.68971 3.93234 0
M  V30 899 C 84.2358 1.14516 5.22293 0
M  V30 900 C 85.5358 3.08487 4.21465 0
M  V30 901 H 87.2298 1.98507 2.24132 0
M  V30 902 H 84.7758 0.955821 1.07704 0
M  V30 903 H 86.7288 0.51217 4.18276 0
M  V30 904 H 85.4528 -0.31032 3.25122 0
M  V30 905 H 84.1118 1.82106 3.18171 0
M  V30 906 H 83.7598 0.170189 5.02712 0
M  V30 907 H 83.4598 1.83635 5.58168 0
M  V30 908 H 84.9838 1.01401 6.02121 0
M  V30 909 H 86.3978 2.98601 4.89398 0
M  V30 910 H 84.7948 3.74926 4.68562 0
M  V30 911 H 85.8648 3.56787 3.28376 0
M  V30 912 N 87.2079 -1.17134 1.05439 0
M  V30 913 C 88.4849 -1.83411 0.679699 0
M  V30 914 C 88.8649 -1.9368 -0.839726 0
M  V30 915 O 88.2129 -1.47325 -1.74664 0
M  V30 916 C 88.4229 -3.20918 1.37159 0
M  V30 917 C 89.7709 -3.96796 1.51123 0
M  V30 918 O 90.7949 -3.30406 1.3308 0
M  V30 919 O 89.6539 -5.15778 1.80651 0
M  V30 920 H 86.7479 -0.79154 0.239569 0
M  V30 921 H 89.2939 -1.24411 1.15413 0
M  V30 922 H 88.0659 -3.08428 2.40807 0
M  V30 923 H 87.6889 -3.87587 0.886674 0
M  V30 924 N 88.686 -0.835752 -1.33615 0
M  V30 925 C 89.636 -0.238856 -2.26745 0
M  V30 926 C 90.62 0.604343 -1.49119 0
M  V30 927 O 91.812 0.456822 -1.71003 0
M  V30 928 C 88.941 0.587725 -3.38232 0
M  V30 929 C 88.027 -0.266811 -4.2326 0
M  V30 930 N 88.418 -1.34403 -4.87616 0
M  V30 931 C 86.716 -0.0533131 -4.45968 0
M  V30 932 C 87.417 -1.86819 -5.50884 0
M  V30 933 N 86.393 -1.17013 -5.30857 0
M  V30 934 H 90.195 -1.06266 -2.74016 0
M  V30 935 H 87.709 -0.679881 -1.47483 0
M  V30 936 H 89.706 1.03161 -4.03935 0
M  V30 937 H 88.366 1.40954 -2.9251 0
M  V30 938 H 89.377 -1.7269 -4.88261 0
M  V30 939 H 86.054 0.735312 -4.10974 0
M  V30 940 H 87.444 -2.7701 -6.1214 0
M  V30 941 N 90.1641 1.46063 -0.591896 0
M  V30 942 C 91.4111 2.02338 -0.0809991 0
M  V30 943 C 91.7391 1.46228 1.28249 0
M  V30 944 O 90.9941 0.620818 1.85592 0
M  V30 945 C 91.2931 3.57391 0.0249813 0
M  V30 946 C 90.9591 4.32583 -1.27211 0
M  V30 947 C 89.6211 4.52844 -1.62745 0
M  V30 948 C 91.9731 4.75687 -2.13005 0
M  V30 949 C 89.3011 5.13462 -2.83855 0
M  V30 950 C 91.6531 5.37644 -3.3335 0
M  V30 951 C 90.3171 5.5613 -3.69155 0
M  V30 952 H 89.5871 0.740407 -0.0296397 0
M  V30 953 H 92.2341 1.75321 -0.770374 0
M  V30 954 H 90.5391 3.83597 0.797537 0
M  V30 955 H 92.2361 3.98621 0.436184 0
M  V30 956 H 88.8261 4.17116 -0.985499 0
M  V30 957 H 93.0101 4.59782 -1.86855 0
M  V30 958 H 88.2661 5.25965 -3.11722 0
M  V30 959 H 92.4401 5.7 -4.00092 0
M  V30 960 H 90.0671 6.0287 -4.63089 0
M  V30 961 N 91.6422 0.330177 1.54103 0
M  V30 962 C 92.5892 -0.532762 2.24567 0
M  V30 963 C 93.5592 -1.10635 1.23892 0
M  V30 964 O 94.7442 -1.14546 1.5259 0
M  V30 965 C 91.8842 -1.6845 3.01195 0
M  V30 966 C 90.9972 -1.13951 4.167 0
M  V30 967 C 90.1322 -2.25746 4.80845 0
M  V30 968 C 89.1712 -1.6853 5.88442 0
M  V30 969 N 88.3082 -2.74014 6.46421 0
M  V30 970 H 93.1482 0.0746905 2.97906 0
M  V30 971 H 90.6852 0.048632 1.4702 0
M  V30 972 H 92.6432 -2.36234 3.43874 0
M  V30 973 H 91.2732 -2.26314 2.30178 0
M  V30 974 H 90.3252 -0.35301 3.78758 0
M  V30 975 H 91.6372 -0.680892 4.94131 0
M  V30 976 H 90.7912 -3.01422 5.26526 0
M  V30 977 H 89.5302 -2.74947 4.0281 0
M  V30 978 H 88.5352 -0.913543 5.42157 0
M  V30 979 H 89.7602 -1.20198 6.68378 0
M  V30 980 H 87.7062 -3.22494 5.71256 0
M  V30 981 H 87.6232 -2.32735 7.19285 0
M  V30 982 H 88.8912 -3.49499 6.96757 0
M  V30 983 N 93.1203 -1.57491 0.0584922 0
M  V30 984 C 94.0303 -2.15448 -0.928414 0
M  V30 985 C 95.0463 -1.11416 -1.3365 0
M  V30 986 O 96.2223 -1.4362 -1.41193 0
M  V30 987 C 93.2873 -2.69393 -2.18239 0
M  V30 988 C 92.3483 -3.88249 -1.83196 0
M  V30 989 C 91.5813 -4.39613 -3.02616 0
M  V30 990 O 91.8043 -3.90023 -4.16219 0
M  V30 991 O 90.7383 -5.31111 -2.83204 0
M  V30 992 H 94.5643 -3.00112 -0.465483 0
M  V30 993 H 92.1493 -1.48499 -0.163826 0
M  V30 994 H 94.0313 -3.04026 -2.91798 0
M  V30 995 H 92.7063 -1.87796 -2.63656 0
M  V30 996 H 91.6133 -3.58492 -1.06931 0
M  V30 997 H 92.9463 -4.71098 -1.42573 0
M  V30 998 N 94.5984 0.214957 -1.56127 0
M  V30 999 C 95.8384 0.945364 -1.81224 0
M  V30 1000 C 96.2024 1.81265 -0.633005 0
M  V30 1001 O 97.4034 2.57731 -0.763423 0
M  V30 1002 C 95.6744 1.75665 -3.1125 0
M  V30 1003 S 97.2334 2.54179 -3.57685 0
M  V30 1004 H 94.0514 0.317443 -0.6362 0
M  V30 1005 H 96.6534 0.210381 -1.94365 0
M  V30 1006 H 95.3574 1.10977 -3.9511 0
M  V30 1007 H 94.8884 2.53381 -3.00934 0
M  V30 1008 H 96.9034 3.7792 -3.21545 0
M  V30 1009 N 96.0765 1.50051 0.48192 0
M  V30 1010 C 97.3045 1.64237 1.25832 0
M  V30 1011 C 97.7195 0.321336 1.86045 0
M  V30 1012 O 97.0765 -0.695478 1.68729 0
M  V30 1013 C 97.1275 2.72548 2.37487 0
M  V30 1014 O 96.8485 3.99529 1.79745 0
M  V30 1015 C 98.3495 2.9761 3.28547 0
M  V30 1016 H 95.5695 0.55237 0.380957 0
M  V30 1017 H 98.1135 1.96207 0.576467 0
M  V30 1018 H 96.2685 2.43303 3.01467 0
M  V30 1019 H 96.6825 4.59342 2.5319 0
M  V30 1020 H 98.1565 3.77084 4.03127 0
M  V30 1021 H 98.6335 2.0826 3.86684 0
M  V30 1022 H 99.2395 3.28345 2.70314 0
M  V30 1023 N 97.5546 -0.734337 1.39446 0
M  V30 1024 C 98.8006 -1.49613 1.36908 0
M  V30 1025 C 99.1336 -1.94169 -0.0347829 0
M  V30 1026 O 98.4086 -1.66833 -0.999847 0
M  V30 1027 C 98.6916 -2.73534 2.34203 0
M  V30 1028 C 98.5446 -2.34993 3.83534 0
M  V30 1029 C 99.8636 -3.75635 2.29317 0
M  V30 1030 H 96.9826 -0.542714 0.498629 0
M  V30 1031 H 99.6246 -0.839597 1.70443 0
M  V30 1032 H 97.7746 -3.29553 2.05736 0
M  V30 1033 H 99.4466 -1.84601 4.22753 0
M  V30 1034 H 97.6896 -1.67213 4.00278 0
M  V30 1035 H 98.3606 -3.23738 4.47099 0
M  V30 1036 H 100.837 -3.29203 2.54489 0
M  V30 1037 H 99.7126 -4.60008 2.99472 0
M  V30 1038 H 99.9736 -4.22603 1.29842 0
M  V30 1039 N 99.0327 -1.24633 -0.964593 0
M  V30 1040 C 99.9427 -1.05859 -2.09359 0
M  V30 1041 C 100.959 0.00148855 -1.74 0
M  V30 1042 O 102.135 -0.197346 -2.00431 0
M  V30 1043 C 99.1997 -0.668879 -3.40187 0
M  V30 1044 C 98.2607 -1.80578 -3.89474 0
M  V30 1045 C 97.4937 -1.43457 -5.14058 0
M  V30 1046 O 97.7167 -0.325775 -5.69469 0
M  V30 1047 O 96.6507 -2.2613 -5.57807 0
M  V30 1048 H 100.477 -2.00516 -2.28094 0
M  V30 1049 H 98.0617 -1.03481 -1.0776 0
M  V30 1050 H 99.9437 -0.463211 -4.18846 0
M  V30 1051 H 98.6187 0.248536 -3.22744 0
M  V30 1052 H 97.5257 -2.06623 -3.11862 0
M  V30 1053 H 98.8587 -2.70208 -4.11398 0
M  V30 1054 N 100.511 1.16574 -1.06058 0
M  V30 1055 C 101.741 1.90675 -0.795397 0
M  V30 1056 C 102.149 1.77547 0.653735 0
M  V30 1057 O 101.492 1.11611 1.45907 0
M  V30 1058 C 101.554 3.42011 -1.10764 0
M  V30 1059 C 101.218 3.78924 -2.55471 0
M  V30 1060 C 102.215 3.81042 -3.53699 0
M  V30 1061 C 99.8998 4.09626 -2.90708 0
M  V30 1062 C 101.894 4.13346 -4.85205 0
M  V30 1063 C 99.5808 4.41597 -4.22416 0
M  V30 1064 C 100.579 4.43436 -5.19474 0
M  V30 1065 O 100.267 4.74649 -6.48817 0
M  V30 1066 H 99.9988 0.611554 -0.288058 0
M  V30 1067 H 102.553 1.48711 -1.41683 0
M  V30 1068 H 100.783 3.84312 -0.429128 0
M  V30 1069 H 102.472 3.97384 -0.827077 0
M  V30 1070 H 103.238 3.57437 -3.27817 0
M  V30 1071 H 99.1168 4.07361 -2.15819 0
M  V30 1072 H 102.661 4.14696 -5.60957 0
M  V30 1073 H 98.5578 4.64667 -4.48056 0
M  V30 1074 H 99.3258 4.9247 -6.5377 0
M  V30 1075 N 101.989 0.842826 1.3317 0
M  V30 1076 C 102.899 0.281444 2.32906 0
M  V30 1077 C 103.915 -0.594587 1.63526 0
M  V30 1078 O 105.091 -0.49777 1.95152 0
M  V30 1079 C 102.156 -0.530929 3.42611 0
M  V30 1080 C 101.217 0.369843 4.27704 0
M  V30 1081 C 100.45 -0.403853 5.3217 0
M  V30 1082 O 100.673 -1.63513 5.46461 0
M  V30 1083 O 99.6069 0.224199 6.01482 0
M  V30 1084 H 103.433 1.10744 2.82789 0
M  V30 1085 H 101.018 0.60545 1.36582 0
M  V30 1086 H 102.9 -0.992437 4.09547 0
M  V30 1087 H 101.575 -1.33392 2.94938 0
M  V30 1088 H 100.482 0.879275 3.6362 0
M  V30 1089 H 101.815 1.13771 4.78871 0
M  V30 1090 N 103.467 -1.45747 0.599634 0
M  V30 1091 C 104.397 -2.33235 -0.111306 0
M  V30 1092 C 105.378 -1.46359 -0.866781 0
M  V30 1093 O 106.563 -1.75146 -0.838904 0
M  V30 1094 C 103.693 -3.28932 -1.11451 0
M  V30 1095 C 102.647 -4.25381 -0.472772 0
M  V30 1096 C 101.973 -5.1071 -1.58365 0
M  V30 1097 C 103.273 -5.18831 0.600948 0
M  V30 1098 H 104.967 -2.92927 0.61919 0
M  V30 1099 H 102.513 -1.40857 0.299215 0
M  V30 1100 H 104.466 -3.89002 -1.62036 0
M  V30 1101 H 103.19 -2.67381 -1.8755 0
M  V30 1102 H 101.849 -3.66598 0.0121472 0
M  V30 1103 H 101.497 -4.45533 -2.33473 0
M  V30 1104 H 101.197 -5.7604 -1.15982 0
M  V30 1105 H 102.721 -5.73647 -2.09194 0
M  V30 1106 H 104.135 -5.73019 0.179491 0
M  V30 1107 H 102.532 -5.92595 0.946076 0
M  V30 1108 H 103.602 -4.6174 1.48068 0
M  V30 1109 N 104.945 -0.338344 -1.53925 0
M  V30 1110 C 105.892 0.520845 -2.24846 0
M  V30 1111 C 106.862 1.09976 -1.24477 0
M  V30 1112 O 108.047 1.13735 -1.53196 0
M  V30 1113 C 105.187 1.6685 -3.02084 0
M  V30 1114 C 104.3 1.11739 -4.17299 0
M  V30 1115 C 103.435 2.23193 -4.82036 0
M  V30 1116 C 102.474 1.65407 -5.89328 0
M  V30 1117 N 101.611 2.70582 -6.47866 0
M  V30 1118 H 106.451 -0.0904881 -2.97863 0
M  V30 1119 H 103.988 -0.0564282 -1.46992 0
M  V30 1120 H 105.946 2.34407 -3.45122 0
M  V30 1121 H 104.576 2.2509 -2.31375 0
M  V30 1122 H 103.628 0.332919 -3.7894 0
M  V30 1123 H 104.94 0.654677 -4.94485 0
M  V30 1124 H 104.094 2.98626 -5.28117 0
M  V30 1125 H 102.833 2.72807 -4.04262 0
M  V30 1126 H 101.838 0.884779 -5.42634 0
M  V30 1127 H 103.063 1.16652 -6.69006 0
M  V30 1128 H 101.009 3.1946 -5.72959 0
M  V30 1129 H 100.926 2.28917 -7.20509 0
M  V30 1130 H 102.194 3.45799 -6.98601 0
M  V30 1131 N 106.423 1.57458 -0.0668435 0
M  V30 1132 C 107.653 1.97337 0.611677 0
M  V30 1133 C 108.061 0.943744 1.63982 0
M  V30 1134 O 107.404 -0.0785584 1.83532 0
M  V30 1135 C 107.466 3.33511 1.34205 0
M  V30 1136 C 107.13 4.54598 0.467941 0
M  V30 1137 C 108.127 5.19186 -0.272439 0
M  V30 1138 C 105.812 5.0075 0.39427 0
M  V30 1139 C 107.806 6.28274 -1.07476 0
M  V30 1140 C 105.493 6.09711 -0.411729 0
M  V30 1141 C 106.491 6.73335 -1.14492 0
M  V30 1142 O 106.179 7.80199 -1.93763 0
M  V30 1143 H 105.911 0.654042 0.170893 0
M  V30 1144 H 108.465 2.04961 -0.134289 0
M  V30 1145 H 106.695 3.22487 2.13398 0
M  V30 1146 H 108.384 3.58029 1.91233 0
M  V30 1147 H 109.15 4.84477 -0.225086 0
M  V30 1148 H 105.029 4.51009 0.954569 0
M  V30 1149 H 108.573 6.77866 -1.64755 0
M  V30 1150 H 104.47 6.43854 -0.460664 0
M  V30 1151 H 105.238 7.97053 -1.86142 0
M  V30 1152 N 107.901 -0.206675 1.56239 0
M  V30 1153 C 109.317 -0.557025 1.49564 0
M  V30 1154 C 109.517 -1.86424 0.764735 0
M  V30 1155 O 108.573 -2.50584 0.310491 0
M  V30 1156 C 109.886 -0.622478 2.94186 0
M  V30 1157 C 111.434 -0.712099 3.04792 0
M  V30 1158 C 111.909 -0.808767 4.50803 0
M  V30 1159 N 113.4 -0.8726 4.54907 0
M  V30 1160 C 114.135 -0.967365 5.65181 0
M  V30 1161 N 113.631 -1.02515 6.85173 0
M  V30 1162 N 115.424 -1.00366 5.53067 0
M  V30 1163 H 107.575 0.650943 2.02179 0
M  V30 1164 H 109.838 0.230387 0.919579 0
M  V30 1165 H 109.544 0.268727 3.50672 0
M  V30 1166 H 109.418 -1.4811 3.46905 0
M  V30 1167 H 111.805 -1.59374 2.48363 0
M  V30 1168 H 111.886 0.172489 2.55218 0
M  V30 1169 H 111.53 0.0684754 5.07854 0
M  V30 1170 H 111.46 -1.70899 4.98098 0
M  V30 1171 H 113.951 -0.837657 3.68499 0
M  V30 1172 H 114.264 -1.09765 7.64965 0
M  V30 1173 H 112.609 -0.994026 6.87855 0
M  V30 1174 H 115.8 -0.95527 4.58249 0
M  V30 1175 H 115.973 -1.07405 6.39037 0
M  V30 1176 N 109.379 -1.50304 -0.473955 0
M  V30 1177 C 110.327 -1.69482 -1.59307 0
M  V30 1178 C 111.321 -0.560669 -1.59853 0
M  V30 1179 O 112.527 -0.741087 -1.64036 0
M  V30 1180 H 108.902 -0.534892 -0.528578 0
M  V30 1181 H 110.873 -2.63364 -1.40293 0
M  V30 1182 C 109.622 -1.80354 -2.97267 0
M  V30 1183 H 108.945 -2.67012 -2.97564 0
M  V30 1184 H 110.385 -1.97798 -3.75036 0
M  V30 1185 C 108.844 -0.55448 -3.32306 0
M  V30 1186 O 109.374 0.307661 -4.0052 0
M  V30 1187 N 107.58 -0.409354 -2.87702 0
M  V30 1188 H 107.127 -1.11196 -2.32364 0
M  V30 1189 H 107.085 0.425223 -3.11511 0
M  V30 1190 N 110.857 0.726932 -1.39834 0
M  V30 1191 C 112.106 1.48214 -1.36805 0
M  V30 1192 C 112.419 1.95576 0.0305291 0
M  V30 1193 O 113.625 2.7088 0.183417 0
M  V30 1194 C 112.081 2.67854 -2.40379 0
M  V30 1195 C 111.689 2.27408 -3.85992 0
M  V30 1196 C 113.433 3.45641 -2.46439 0
M  V30 1197 C 111.34 3.43819 -4.81189 0
M  V30 1198 H 110.27 0.556606 -0.508631 0
M  V30 1199 H 112.921 0.792216 -1.65518 0
M  V30 1200 H 111.303 3.3896 -2.04749 0
M  V30 1201 H 112.477 1.63795 -4.30706 0
M  V30 1202 H 110.792 1.62692 -3.83302 0
M  V30 1203 H 113.389 4.32244 -3.14753 0
M  V30 1204 H 113.732 3.88669 -1.49139 0
M  V30 1205 H 114.265 2.8157 -2.81004 0
M  V30 1206 H 111.004 3.05834 -5.79781 0
M  V30 1207 H 110.524 4.06385 -4.41148 0
M  V30 1208 H 112.203 4.10043 -5.00474 0
M  V30 1209 N 112.336 1.25143 0.95797 0
M  V30 1210 C 113.584 1.09476 1.69881 0
M  V30 1211 C 113.905 -0.365502 1.91544 0
M  V30 1212 O 113.175 -1.25985 1.50015 0
M  V30 1213 H 111.755 0.402128 0.629525 0
M  V30 1214 H 114.417 1.57214 1.15194 0
M  V30 1215 H 113.513 1.60046 2.6794 0
M  V30 1216 N 113.814 -1.1601 1.06675 0
M  V30 1217 C 115.039 -1.91068 0.806706 0
M  V30 1218 C 115.464 -1.77112 -0.633485 0
M  V30 1219 O 114.822 -1.09908 -1.44187 0
M  V30 1220 C 114.87 -3.39655 1.21106 0
M  V30 1221 O 113.974 -4.10893 0.352189 0
M  V30 1222 H 113.315 -0.595125 0.294486 0
M  V30 1223 H 115.845 -1.46955 1.42356 0
M  V30 1224 H 115.855 -3.90434 1.18428 0
M  V30 1225 H 114.53 -3.49132 2.26008 0
M  V30 1226 H 113.107 -3.70285 0.440868 0
M  V30 1227 N 115.292 -0.849877 -1.32721 0
M  V30 1228 C 116.202 -0.293791 -2.32753 0
M  V30 1229 C 117.218 0.585906 -1.63839 0
M  V30 1230 O 118.394 0.487413 -1.95413 0
M  V30 1231 C 115.459 0.512752 -3.42887 0
M  V30 1232 C 114.52 -0.39252 -4.27502 0
M  V30 1233 C 113.753 0.375625 -5.32377 0
M  V30 1234 O 113.976 1.60613 -5.4732 0
M  V30 1235 O 112.91 -0.256094 -6.01355 0
M  V30 1236 H 116.736 -1.12242 -2.82197 0
M  V30 1237 H 114.321 -0.612685 -1.36259 0
M  V30 1238 H 116.203 0.970704 -4.10067 0
M  V30 1239 H 114.878 1.31826 -2.95641 0
M  V30 1240 H 113.785 -0.898547 -3.63149 0
M  V30 1241 H 115.118 -1.16309 -4.7826 0
M  V30 1242 N 116.77 1.45427 -0.607355 0
M  V30 1243 C 117.998 2.06614 -0.108814 0
M  V30 1244 C 118.413 1.45204 1.2067 0
M  V30 1245 O 117.77 0.566132 1.73497 0
M  V30 1246 C 117.821 3.61481 0.0375347 0
M  V30 1247 O 117.542 4.20598 -1.22593 0
M  V30 1248 C 119.043 4.39652 0.567561 0
M  V30 1249 H 116.263 0.66747 -0.0687351 0
M  V30 1250 H 118.807 1.86675 -0.835022 0
M  V30 1251 H 116.962 3.80762 0.714068 0
M  V30 1252 H 117.376 5.1377 -1.05547 0
M  V30 1253 H 118.85 5.48518 0.61905 0
M  V30 1254 H 119.327 4.09417 1.58978 0
M  V30 1255 H 119.933 4.25234 -0.0749202 0
M  V30 1256 N 118.248 0.346503 1.53744 0
M  V30 1257 C 119.494 -0.242135 2.01954 0
M  V30 1258 C 119.849 -1.47962 1.22984 0
M  V30 1259 O 119.142 -1.89077 0.309924 0
M  V30 1260 C 119.336 -0.605809 3.52228 0
M  V30 1261 C 119.165 0.594882 4.45748 0
M  V30 1262 C 117.935 1.1011 4.93157 0
M  V30 1263 C 120.133 1.45425 4.93311 0
M  V30 1264 N 118.115 2.26381 5.70636 0
M  V30 1265 C 119.486 2.46383 5.68942 0
M  V30 1266 C 121.541 1.47935 4.75415 0
M  V30 1267 C 120.244 3.49684 6.28581 0
M  V30 1268 C 122.27 2.50119 5.35905 0
M  V30 1269 C 121.632 3.49803 6.11406 0
M  V30 1270 H 117.731 -0.0518296 0.780281 0
M  V30 1271 H 120.315 0.486736 1.88518 0
M  V30 1272 H 118.486 -1.30378 3.65864 0
M  V30 1273 H 120.218 -1.17789 3.87179 0
M  V30 1274 H 116.973 0.668721 4.68855 0
M  V30 1275 H 117.397 2.85094 6.14044 0
M  V30 1276 H 122.039 0.722274 4.16585 0
M  V30 1277 H 119.757 4.26285 6.86518 0
M  V30 1278 H 123.343 2.52892 5.23963 0
M  V30 1279 H 122.223 4.27576 6.5738 0
M  V30 1280 N 119.726 -1.57421 0.075193 0
M  V30 1281 C 120.673 -2.12915 -0.890843 0
M  V30 1282 C 121.643 -1.04252 -1.29309 0
M  V30 1283 O 122.828 -1.31933 -1.37834 0
M  V30 1284 C 119.968 -2.69795 -2.15186 0
M  V30 1285 C 119.081 -3.92624 -1.80194 0
M  V30 1286 C 118.216 -4.37736 -3.00933 0
M  V30 1287 C 117.255 -5.53205 -2.61974 0
M  V30 1288 N 116.392 -5.9326 -3.75483 0
M  V30 1289 H 121.232 -2.95156 -0.410735 0
M  V30 1290 H 118.769 -1.45854 -0.191086 0
M  V30 1291 H 120.727 -3.00883 -2.89008 0
M  V30 1292 H 119.357 -1.90313 -2.60731 0
M  V30 1293 H 118.409 -3.67977 -0.964218 0
M  V30 1294 H 119.721 -4.76482 -1.47534 0
M  V30 1295 H 118.875 -4.70503 -3.8303 0
M  V30 1296 H 117.614 -3.52739 -3.36789 0
M  V30 1297 H 116.619 -5.20086 -1.783 0
M  V30 1298 H 117.844 -6.39936 -2.27284 0
M  V30 1299 H 115.79 -5.11212 -4.11094 0
M  V30 1300 H 115.707 -6.71865 -3.46602 0
M  V30 1301 H 116.975 -6.30651 -4.58148 0
M  V30 1302 N 121.204 0.198386 -1.56346 0
M  V30 1303 C 122.432 0.935572 -1.84539 0
M  V30 1304 C 122.847 1.76989 -0.657281 0
M  V30 1305 O 122.204 1.78626 0.374043 0
M  V30 1306 C 122.255 1.8344 -3.11499 0
M  V30 1307 O 121.976 1.03377 -4.25728 0
M  V30 1308 C 123.477 2.68355 -3.52846 0
M  V30 1309 H 120.697 0.273126 -0.612897 0
M  V30 1310 H 123.241 0.20663 -2.03453 0
M  V30 1311 H 121.396 2.51701 -2.94492 0
M  V30 1312 H 121.81 1.64599 -4.98003 0
M  V30 1313 H 123.284 3.27085 -4.44657 0
M  V30 1314 H 123.761 3.41901 -2.75681 0
M  V30 1315 H 124.367 2.05471 -3.72373 0
M  V30 1316 N 122.682 1.50554 0.465978 0
M  V30 1317 C 123.931 1.61038 1.21448 0
M  V30 1318 C 124.244 0.31865 1.92987 0
M  V30 1319 O 125.45 0.302469 2.6981 0
M  V30 1320 C 123.906 2.84283 2.20706 0
M  V30 1321 C 123.514 4.20352 1.54946 0
M  V30 1322 C 125.258 3.04115 2.96166 0
M  V30 1323 C 123.165 5.34778 2.5252 0
M  V30 1324 H 122.095 0.599718 0.457005 0
M  V30 1325 H 124.746 1.7699 0.484424 0
M  V30 1326 H 123.128 2.61901 2.97025 0
M  V30 1327 H 124.302 4.53008 0.843811 0
M  V30 1328 H 122.617 4.06167 0.917475 0
M  V30 1329 H 125.214 3.86774 3.69202 0
M  V30 1330 H 125.557 2.16045 3.55852 0
M  V30 1331 H 126.09 3.26702 2.26959 0
M  V30 1332 H 122.829 6.25018 1.97566 0
M  V30 1333 H 122.349 5.06534 3.21222 0
M  V30 1334 H 124.028 5.65561 3.14245 0
M  V30 1335 N 124.16 -0.719506 1.40217 0
M  V30 1336 C 125.409 -1.47486 1.37589 0
M  V30 1337 C 125.722 -1.9559 -0.0201568 0
M  V30 1338 O 126.928 -2.70973 -0.169049 0
M  V30 1339 C 125.384 -2.66575 2.41796 0
M  V30 1340 C 124.992 -2.25358 3.87192 0
M  V30 1341 C 126.736 -3.4433 2.48269 0
M  V30 1342 C 124.643 -3.41262 4.83005 0
M  V30 1343 H 123.573 -0.553901 0.511576 0
M  V30 1344 H 126.224 -0.783427 1.65936 0
M  V30 1345 H 124.606 -3.3787 2.06543 0
M  V30 1346 H 125.78 -1.61509 4.31569 0
M  V30 1347 H 124.095 -1.60657 3.84159 0
M  V30 1348 H 126.692 -4.30569 3.17041 0
M  V30 1349 H 127.035 -3.87872 1.51198 0
M  V30 1350 H 127.568 -2.80076 2.82493 0
M  V30 1351 H 124.307 -3.02755 5.81394 0
M  V30 1352 H 123.827 -4.0404 4.43297 0
M  V30 1353 H 125.506 -4.07383 5.02641 0
M  V30 1354 N 125.638 -1.25649 -0.95132 0
M  V30 1355 C 126.866 -1.13343 -1.73092 0
M  V30 1356 C 127.281 0.312434 -1.86197 0
M  V30 1357 O 126.638 1.21465 -1.36207 0
M  V30 1358 C 126.689 -1.78602 -3.14299 0
M  V30 1359 O 126.41 -3.17537 -3.01831 0
M  V30 1360 C 127.911 -1.72119 -4.08522 0
M  V30 1361 H 125.131 -0.395181 -0.542285 0
M  V30 1362 H 127.675 -1.66076 -1.19328 0
M  V30 1363 H 125.83 -1.29832 -3.64996 0
M  V30 1364 H 126.244 -3.49676 -3.90931 0
M  V30 1365 H 127.718 -2.22435 -5.052 0
M  V30 1366 H 128.195 -0.685635 -4.33815 0
M  V30 1367 H 128.801 -2.20393 -3.63741 0
M  V30 1368 N 127.117 1.15442 -1.07289 0
M  V30 1369 C 128.064 2.20161 -0.692653 0
M  V30 1370 C 129.034 1.63073 0.31564 0
M  V30 1371 O 130.219 1.89725 0.202235 0
M  V30 1372 C 127.359 3.44967 -0.0959509 0
M  V30 1373 C 126.472 4.16256 -1.15564 0
M  V30 1374 C 125.607 5.28609 -0.524011 0
M  V30 1375 C 124.646 5.91715 -1.56653 0
M  V30 1376 N 123.783 6.9554 -0.957531 0
M  V30 1377 H 128.623 2.52037 -1.59002 0
M  V30 1378 H 126.16 1.2378 -0.794798 0
M  V30 1379 H 128.118 4.16341 0.267628 0
M  V30 1380 H 126.748 3.1361 0.764772 0
M  V30 1381 H 125.8 3.43385 -1.6368 0
M  V30 1382 H 127.112 4.59268 -1.94613 0
M  V30 1383 H 126.266 6.06604 -0.108032 0
M  V30 1384 H 125.005 4.86787 0.29825 0
M  V30 1385 H 124.01 5.12433 -1.9923 0
M  V30 1386 H 125.235 6.35614 -2.39107 0
M  V30 1387 H 123.181 6.55814 -0.156162 0
M  V30 1388 H 123.098 7.36977 -1.68526 0
M  V30 1389 H 124.366 7.77435 -0.567032 0
M  V30 1390 N 128.595 0.856903 1.32268 0
M  V30 1391 C 129.543 0.291987 2.3076 0
M  V30 1392 C 130.537 -0.585857 1.58947 0
M  V30 1393 O 131.743 -0.47341 1.73663 0
M  V30 1394 H 128.118 0.075721 0.748178 0
M  V30 1395 H 130.089 1.13687 2.75895 0
M  V30 1396 C 128.838 -0.502869 3.44044 0
M  V30 1397 H 128.161 0.163328 3.99466 0
M  V30 1398 H 129.601 -0.863691 4.1511 0
M  V30 1399 C 128.06 -1.68898 2.91505 0
M  V30 1400 O 128.59 -2.78811 2.89184 0
M  V30 1401 N 126.796 -1.51679 2.47875 0
M  V30 1402 H 126.343 -0.622666 2.49961 0
M  V30 1403 H 126.301 -2.31184 2.13076 0
M  V30 1404 N 130.073 -1.45103 0.615059 0
M  V30 1405 C 131.003 -2.33339 -0.0865619 0
M  V30 1406 C 131.984 -1.4727 -0.851209 0
M  V30 1407 O 133.169 -1.76026 -0.820281 0
M  V30 1408 C 130.299 -3.30095 -1.07956 0
M  V30 1409 C 129.253 -4.25858 -0.427628 0
M  V30 1410 C 128.579 -5.12361 -1.5294 0
M  V30 1411 C 129.879 -5.18165 0.655944 0
M  V30 1412 H 131.573 -2.92254 0.650224 0
M  V30 1413 H 129.119 -1.40532 0.314138 0
M  V30 1414 H 131.072 -3.90698 -1.57901 0
M  V30 1415 H 129.796 -2.69355 -1.84703 0
M  V30 1416 H 128.455 -3.66564 0.0510292 0
M  V30 1417 H 128.103 -4.47984 -2.28734 0
M  V30 1418 H 127.803 -5.77238 -1.09865 0
M  V30 1419 H 129.327 -5.75833 -2.03098 0
M  V30 1420 H 130.741 -5.72796 0.240257 0
M  V30 1421 H 129.138 -5.91559 1.00888 0
M  V30 1422 H 130.208 -4.60144 1.52957 0
M  V30 1423 N 131.551 -0.354651 -1.53558 0
M  V30 1424 C 132.501 0.513179 -2.2215 0
M  V30 1425 C 133.485 1.05734 -1.21281 0
M  V30 1426 O 134.677 0.989202 -1.46778 0
M  V30 1427 C 131.806 1.65798 -3.00609 0
M  V30 1428 C 130.892 1.12722 -4.08845 0
M  V30 1429 N 131.283 0.318563 -5.04796 0
M  V30 1430 C 129.581 1.40307 -4.23356 0
M  V30 1431 C 130.282 0.0292224 -5.81693 0
M  V30 1432 N 129.258 0.623891 -5.40008 0
M  V30 1433 H 133.06 -0.111586 -2.93688 0
M  V30 1434 H 130.574 -0.162091 -1.61589 0
M  V30 1435 H 132.571 2.29176 -3.48258 0
M  V30 1436 H 131.231 2.28591 -2.306 0
M  V30 1437 H 132.242 -0.0413091 -5.17884 0
M  V30 1438 H 128.919 2.03458 -3.6457 0
M  V30 1439 H 130.309 -0.623808 -6.68998 0
M  V30 1440 N 133.029 1.57378 -0.0835403 0
M  V30 1441 C 134.259 1.97975 0.590713 0
M  V30 1442 C 134.667 0.961083 1.62972 0
M  V30 1443 O 134.01 -0.0590879 1.83605 0
M  V30 1444 C 134.072 3.34915 1.3066 0
M  V30 1445 C 133.736 4.55069 0.419698 0
M  V30 1446 C 134.733 5.18868 -0.32749 0
M  V30 1447 C 132.418 5.0114 0.341137 0
M  V30 1448 C 134.412 6.27098 -1.14134 0
M  V30 1449 C 132.099 6.0924 -0.476374 0
M  V30 1450 C 133.097 6.72083 -1.21627 0
M  V30 1451 O 132.785 7.781 -2.02028 0
M  V30 1452 H 132.517 0.655818 0.163947 0
M  V30 1453 H 135.071 2.04807 -0.156021 0
M  V30 1454 H 133.301 3.24733 2.09966 0
M  V30 1455 H 134.99 3.60037 1.87424 0
M  V30 1456 H 135.756 4.84211 -0.276459 0
M  V30 1457 H 131.635 4.51996 0.90668 0
M  V30 1458 H 135.179 6.7608 -1.71935 0
M  V30 1459 H 131.076 6.43329 -0.528927 0
M  V30 1460 H 131.844 7.95034 -1.94586 0
M  V30 1461 N 134.507 -0.190092 1.56449 0
M  V30 1462 C 135.454 -1.23557 1.94942 0
M  V30 1463 C 136.424 -1.44972 0.810696 0
M  V30 1464 O 137.609 -1.58023 1.06927 0
M  V30 1465 C 134.749 -2.57416 2.2985 0
M  V30 1466 C 133.862 -2.43537 3.5681 0
M  V30 1467 C 132.997 -3.70134 3.81017 0
M  V30 1468 C 132.036 -3.51109 5.01387 0
M  V30 1469 N 131.173 -4.6973 5.21822 0
M  V30 1470 H 136.013 -0.900304 2.84075 0
M  V30 1471 H 133.55 -0.43318 1.40577 0
M  V30 1472 H 135.508 -3.35409 2.48106 0
M  V30 1473 H 134.138 -2.88975 1.43852 0
M  V30 1474 H 133.19 -1.56816 3.46573 0
M  V30 1475 H 134.502 -2.25415 4.4496 0
M  V30 1476 H 133.656 -4.56566 3.9954 0
M  V30 1477 H 132.395 -3.91215 2.91207 0
M  V30 1478 H 131.4 -2.63063 4.82782 0
M  V30 1479 H 132.625 -3.31468 5.9271 0
M  V30 1480 H 130.571 -4.91065 4.34961 0
M  V30 1481 H 130.488 -4.54452 6.0416 0
M  V30 1482 H 131.756 -5.57499 5.44808 0
M  V30 1483 N 135.985 -1.50799 -0.457987 0
M  V30 1484 C 137.262 -1.52968 -1.21902 0
M  V30 1485 C 137.642 -0.281906 -2.09209 0
M  V30 1486 O 136.99 0.734076 -2.16388 0
M  V30 1487 C 137.2 -2.8326 -2.03875 0
M  V30 1488 C 138.548 -3.34425 -2.6162 0
M  V30 1489 O 139.572 -2.8467 -2.14106 0
M  V30 1490 O 138.431 -4.21188 -3.48228 0
M  V30 1491 H 135.525 -0.614129 -0.553873 0
M  V30 1492 H 138.071 -1.63098 -0.468739 0
M  V30 1493 H 136.843 -3.65543 -1.39621 0
M  V30 1494 H 136.466 -2.76195 -2.8601 0
M  V30 1495 N 137.463 0.71206 -1.40597 0
M  V30 1496 C 138.711 1.46907 -1.38791 0
M  V30 1497 C 139.032 1.94998 0.00780391 0
M  V30 1498 O 138.302 1.70587 0.963174 0
M  V30 1499 H 136.882 0.545043 -0.51082 0
M  V30 1500 H 139.544 0.843882 -1.75683 0
M  V30 1501 H 138.64 2.34021 -2.06496 0
M  V30 1502 N 138.941 1.26152 0.944643 0
M  V30 1503 C 140.188 1.11492 1.69044 0
M  V30 1504 C 140.516 -0.342366 1.91463 0
M  V30 1505 O 139.771 -1.26812 1.49054 0
M  V30 1506 C 140.07 1.82541 3.07268 0
M  V30 1507 C 139.736 3.32445 3.04616 0
M  V30 1508 C 138.398 3.73337 3.036 0
M  V30 1509 C 140.75 4.28171 2.97185 0
M  V30 1510 C 138.078 5.08348 2.92915 0
M  V30 1511 C 140.43 5.63218 2.88041 0
M  V30 1512 C 139.094 6.03426 2.85366 0
M  V30 1513 H 138.364 0.407977 0.618576 0
M  V30 1514 H 141.011 1.56551 1.10291 0
M  V30 1515 H 139.316 1.29941 3.69625 0
M  V30 1516 H 141.013 1.68642 3.63815 0
M  V30 1517 H 137.603 2.99915 3.06185 0
M  V30 1518 H 141.787 3.97563 2.97081 0
M  V30 1519 H 137.043 5.38667 2.89219 0
M  V30 1520 H 141.217 6.37078 2.81254 0
M  V30 1521 H 138.844 7.07999 2.76842 0
M  V30 1522 N 140.419 -1.14872 1.07899 0
M  V30 1523 C 141.696 -1.81928 0.71845 0
M  V30 1524 C 142.076 -1.95417 -0.798455 0
M  V30 1525 O 141.424 -1.50997 -1.715 0
M  V30 1526 C 141.634 -3.17937 1.43935 0
M  V30 1527 C 142.982 -3.93501 1.59506 0
M  V30 1528 O 144.006 -3.27509 1.40058 0
M  V30 1529 O 142.865 -5.1183 1.91551 0
M  V30 1530 H 139.959 -0.78628 0.256305 0
M  V30 1531 H 142.505 -1.21934 1.18026 0
M  V30 1532 H 141.277 -3.0325 2.47295 0
M  V30 1533 H 140.9 -3.85619 0.968687 0
M  V30 1534 N 141.898 -0.863906 -1.31812 0
M  V30 1535 C 142.828 -0.330843 -2.31144 0
M  V30 1536 C 143.809 0.575005 -1.60087 0
M  V30 1537 O 144.994 0.493304 -1.8783 0
M  V30 1538 C 142.124 0.47374 -3.44054 0
M  V30 1539 C 141.078 -0.338481 -4.26659 0
M  V30 1540 C 140.404 0.591412 -5.31419 0
M  V30 1541 C 141.704 -1.56926 -4.98168 0
M  V30 1542 H 143.398 -1.16086 -2.75979 0
M  V30 1543 H 140.944 -0.559657 -1.32679 0
M  V30 1544 H 142.897 0.857143 -4.12591 0
M  V30 1545 H 141.621 1.33721 -2.9797 0
M  V30 1546 H 140.28 -0.703754 -3.59782 0
M  V30 1547 H 139.928 1.45199 -4.81587 0
M  V30 1548 H 139.628 0.0519022 -5.87577 0
M  V30 1549 H 141.152 0.97179 -6.02817 0
M  V30 1550 H 142.566 -1.25764 -5.59336 0
M  V30 1551 H 140.963 -2.04739 -5.64094 0
M  V30 1552 H 142.033 -2.32544 -4.25501 0
M  V30 1553 N 143.376 1.44774 -0.622745 0
M  V30 1554 C 144.324 2.32387 0.0994683 0
M  V30 1555 C 145.318 1.46859 0.844326 0
M  V30 1556 O 146.524 1.63254 0.758174 0
M  V30 1557 H 142.899 0.750273 0.0509291 0
M  V30 1558 H 144.87 2.91062 -0.65767 0
M  V30 1559 C 143.619 3.30723 1.07319 0
M  V30 1560 H 142.942 3.96541 0.509462 0
M  V30 1561 H 144.382 3.94725 1.54817 0
M  V30 1562 C 142.841 2.59021 2.15429 0
M  V30 1563 O 143.371 2.38286 3.23393 0
M  V30 1564 N 141.577 2.189 1.91131 0
M  V30 1565 H 141.124 2.35964 1.03337 0
M  V30 1566 H 141.082 1.71251 2.63668 0
M  V30 1567 N 144.854 0.36279 1.53368 0
M  V30 1568 C 145.801 -0.485008 2.25646 0
M  V30 1569 C 146.771 -1.07982 1.2621 0
M  V30 1570 O 147.956 -1.11284 1.54986 0
M  V30 1571 C 145.096 -1.62023 3.04701 0
M  V30 1572 C 144.209 -1.05086 4.19024 0
M  V30 1573 C 143.344 -2.15496 4.85525 0
M  V30 1574 C 142.383 -1.5601 5.91884 0
M  V30 1575 N 141.52 -2.60241 6.52088 0
M  V30 1576 H 146.36 0.137864 2.97681 0
M  V30 1577 H 143.897 0.0798061 1.46883 0
M  V30 1578 H 145.855 -2.28887 3.48807 0
M  V30 1579 H 144.485 -2.2138 2.34927 0
M  V30 1580 H 143.537 -0.27259 3.79422 0
M  V30 1581 H 144.849 -0.575926 4.95464 0
M  V30 1582 H 144.003 -2.90186 5.32801 0
M  V30 1583 H 142.742 -2.66341 4.08551 0
M  V30 1584 H 141.747 -0.798338 5.43973 0
M  V30 1585 H 142.972 -1.05994 6.70777 0
M  V30 1586 H 140.918 -3.10304 5.77968 0
M  V30 1587 H 140.835 -2.17426 7.24059 0
M  V30 1588 H 142.103 -3.34641 7.04014 0
M  V30 1589 N 146.332 -1.57332 0.0918853 0
M  V30 1590 C 147.58 -1.93853 -0.571446 0
M  V30 1591 C 147.901 -0.974212 -1.6892 0
M  V30 1592 O 147.171 -0.0257254 -1.95883 0
M  V30 1593 H 145.751 -0.715666 -0.214082 0
M  V30 1594 H 148.413 -1.94287 0.154464 0
M  V30 1595 H 147.509 -2.96191 -0.983729 0
M  V30 1596 N 147.81 0.181792 -1.56548 0
M  V30 1597 C 149.059 0.898348 -1.8059 0
M  V30 1598 C 149.372 1.83862 -0.667379 0
M  V30 1599 O 150.578 2.59678 -0.792446 0
M  V30 1600 C 149.034 1.64791 -3.19956 0
M  V30 1601 C 148.642 0.751789 -4.41647 0
M  V30 1602 C 150.386 2.35331 -3.53298 0
M  V30 1603 C 148.293 1.50098 -5.72035 0
M  V30 1604 H 147.223 0.339194 -0.673397 0
M  V30 1605 H 149.874 0.151413 -1.82874 0
M  V30 1606 H 148.256 2.43921 -3.11959 0
M  V30 1607 H 149.43 -0.0018076 -4.608 0
M  V30 1608 H 147.745 0.156562 -4.16106 0
M  V30 1609 H 150.342 2.91958 -4.47956 0
M  V30 1610 H 150.685 3.10164 -2.77676 0
M  V30 1611 H 151.218 1.63154 -3.62803 0
M  V30 1612 H 147.957 0.795175 -6.50659 0
M  V30 1613 H 147.477 2.22817 -5.56878 0
M  V30 1614 H 149.156 2.05125 -6.13622 0
M  V30 1615 N 149.288 1.51039 0.449983 0
M  V30 1616 C 150.198 1.74261 1.57067 0
M  V30 1617 C 151.214 0.626363 1.62335 0
M  V30 1618 O 152.39 0.907162 1.79812 0
M  V30 1619 C 149.455 1.85114 2.93144 0
M  V30 1620 C 148.516 3.0893 2.98095 0
M  V30 1621 C 147.749 3.19256 4.27681 0
M  V30 1622 O 147.972 2.35835 5.19363 0
M  V30 1623 O 146.906 4.12144 4.38658 0
M  V30 1624 H 150.732 2.69303 1.40391 0
M  V30 1625 H 148.317 1.35389 0.631688 0
M  V30 1626 H 150.199 1.94311 3.73926 0
M  V30 1627 H 148.874 0.932588 3.09975 0
M  V30 1628 H 147.781 3.0522 2.16314 0
M  V30 1629 H 149.114 4.00433 2.86206 0
M  V30 1630 N 150.766 -0.704594 1.40972 0
M  V30 1631 C 151.729 -1.80035 1.41845 0
M  V30 1632 C 152.729 -1.57774 0.310474 0
M  V30 1633 O 153.919 -1.64613 0.56992 0
M  V30 1634 C 151.051 -3.18284 1.22098 0
M  V30 1635 H 152.244 -1.80658 2.3938 0
M  V30 1636 H 149.797 -0.911329 1.26982 0
M  V30 1637 H 150.532 -3.23306 0.253672 0
M  V30 1638 H 150.317 -3.35843 2.02366 0
M  V30 1639 H 151.807 -3.98289 1.25522 0
M  V30 1640 N 152.244 -1.26651 -0.937939 0
M  V30 1641 C 153.191 -1.0849 -2.03712 0
M  V30 1642 C 154.161 0.011033 -1.66096 0
M  V30 1643 O 155.346 -0.149353 -1.90215 0
M  V30 1644 C 152.486 -0.72735 -3.37348 0
M  V30 1645 C 151.599 -1.89986 -3.87981 0
M  V30 1646 C 150.734 -1.48513 -5.10017 0
M  V30 1647 C 149.773 -2.62575 -5.5292 0
M  V30 1648 N 148.91 -2.21762 -6.66158 0
M  V30 1649 H 153.75 -2.02551 -2.18579 0
M  V30 1650 H 151.287 -1.00844 -1.07093 0
M  V30 1651 H 153.245 -0.50092 -4.14182 0
M  V30 1652 H 151.875 0.176298 -3.22318 0
M  V30 1653 H 150.927 -2.23913 -3.07518 0
M  V30 1654 H 152.239 -2.75586 -4.15757 0
M  V30 1655 H 151.393 -1.21934 -5.94321 0
M  V30 1656 H 150.132 -0.60009 -4.83994 0
M  V30 1657 H 149.137 -2.8988 -4.67172 0
M  V30 1658 H 150.362 -3.51685 -5.80943 0
M  V30 1659 H 148.308 -1.35696 -6.41812 0
M  V30 1660 H 148.225 -3.00903 -6.93537 0
M  V30 1661 H 149.493 -1.98403 -7.53828 0
M  V30 1662 N 153.722 1.14298 -1.08507 0
M  V30 1663 C 154.971 1.84708 -0.810305 0
M  V30 1664 C 155.284 1.83903 0.666271 0
M  V30 1665 O 156.49 2.50112 1.05624 0
M  V30 1666 C 154.946 3.31572 -1.39957 0
M  V30 1667 C 154.554 3.40791 -2.90801 0
M  V30 1668 C 156.298 4.07087 -1.20334 0
M  V30 1669 C 154.205 4.81872 -3.4286 0
M  V30 1670 H 153.135 0.691985 -0.299454 0
M  V30 1671 H 155.786 1.28841 -1.30661 0
M  V30 1672 H 154.168 3.87183 -0.830976 0
M  V30 1673 H 155.342 2.95225 -3.53806 0
M  V30 1674 H 153.657 2.78732 -3.0935 0
M  V30 1675 H 156.254 5.11225 -1.56693 0
M  V30 1676 H 156.597 4.16054 -0.143237 0
M  V30 1677 H 157.13 3.57779 -1.73893 0
M  V30 1678 H 153.869 4.78094 -4.48449 0
M  V30 1679 H 153.389 5.27972 -2.84615 0
M  V30 1680 H 155.068 5.50765 -3.39509 0
M  V30 1681 N 155.201 0.870884 1.31352 0
M  V30 1682 C 156.151 0.298889 2.26032 0
M  V30 1683 C 157.135 -0.564595 1.50669 0
M  V30 1684 O 158.327 -0.411323 1.72154 0
M  V30 1685 C 155.456 -0.497842 3.39671 0
M  V30 1686 C 154.542 0.378937 4.22404 0
M  V30 1687 N 154.933 1.47284 4.83881 0
M  V30 1688 C 153.231 0.171535 4.4567 0
M  V30 1689 C 153.932 2.01359 5.45738 0
M  V30 1690 N 152.908 1.31047 5.27568 0
M  V30 1691 H 156.71 1.13494 2.71102 0
M  V30 1692 H 154.224 0.718745 1.45629 0
M  V30 1693 H 156.221 -0.924155 4.06528 0
M  V30 1694 H 154.881 -1.33149 2.96144 0
M  V30 1695 H 155.892 1.85575 4.8351 0
M  V30 1696 H 152.569 -0.626091 4.12779 0
M  V30 1697 H 153.959 2.93143 6.0458 0
M  V30 1698 N 156.679 -1.44442 0.630414 0
M  V30 1699 C 157.907 -2.06414 0.141671 0
M  V30 1700 C 158.322 -1.47105 -1.18345 0
M  V30 1701 O 157.679 -0.593662 -1.72574 0
M  V30 1702 C 157.73 -3.61494 0.0199784 0
M  V30 1703 O 157.451 -4.18594 1.29269 0
M  V30 1704 C 158.952 -4.40499 -0.497544 0
M  V30 1705 H 156.172 -0.666292 0.0793452 0
M  V30 1706 H 158.716 -1.85323 0.864614 0
M  V30 1707 H 156.871 -3.8185 -0.653402 0
M  V30 1708 H 157.285 -5.12026 1.13707 0
M  V30 1709 H 158.759 -5.49433 -0.531708 0
M  V30 1710 H 159.236 -4.11895 -1.52445 0
M  V30 1711 H 159.842 -4.25061 0.142562 0
M  V30 1712 N 158.157 -0.370918 -1.53173 0
M  V30 1713 C 159.087 0.464847 -2.28826 0
M  V30 1714 C 160.068 1.07936 -1.31468 0
M  V30 1715 O 161.253 1.0956 -1.60344 0
M  V30 1716 C 158.383 1.60196 -3.08147 0
M  V30 1717 C 157.337 1.11443 -4.13237 0
M  V30 1718 C 156.663 2.3422 -4.80672 0
M  V30 1719 C 157.963 0.195384 -5.21934 0
M  V30 1720 H 159.657 -0.166329 -2.98938 0
M  V30 1721 H 157.203 -0.0814359 -1.4377 0
M  V30 1722 H 159.156 2.19332 -3.59822 0
M  V30 1723 H 157.88 2.26045 -2.35735 0
M  V30 1724 H 156.539 0.545727 -3.62515 0
M  V30 1725 H 156.187 2.98537 -4.04827 0
M  V30 1726 H 155.887 2.02269 -5.51689 0
M  V30 1727 H 157.411 2.94032 -5.35143 0
M  V30 1728 H 158.825 0.694375 -5.69079 0
M  V30 1729 H 157.222 -0.0335027 -6.00091 0
M  V30 1730 H 158.292 -0.760961 -4.78892 0
M  V30 1731 N 159.635 1.57281 -0.100228 0
M  V30 1732 C 160.565 2.17328 0.853857 0
M  V30 1733 C 161.546 1.10804 1.2906 0
M  V30 1734 O 162.731 1.38963 1.35657 0
M  V30 1735 C 159.861 2.75772 2.11109 0
M  V30 1736 C 158.815 3.87713 1.81279 0
M  V30 1737 C 158.141 4.32882 3.13874 0
M  V30 1738 C 159.441 5.10677 1.09574 0
M  V30 1739 H 161.135 2.97305 0.353545 0
M  V30 1740 H 158.681 1.43009 0.168612 0
M  V30 1741 H 160.634 3.16433 2.78296 0
M  V30 1742 H 159.358 1.93057 2.63432 0
M  V30 1743 H 158.017 3.476 1.16489 0
M  V30 1744 H 157.665 3.47051 3.64095 0
M  V30 1745 H 157.365 5.08358 2.94696 0
M  V30 1746 H 158.889 4.7618 3.82211 0
M  V30 1747 H 160.303 5.48474 1.66879 0
M  V30 1748 H 158.7 5.91615 1.00557 0
M  V30 1749 H 159.77 4.84835 0.0793299 0
M  V30 1750 N 161.113 -0.173488 1.56642 0
M  V30 1751 C 162.524 -0.736155 1.71574 0
M  V30 1752 C 162.875 -1.82888 0.710389 0
M  V30 1753 O 162 -2.16017 -0.1287 0
M  V30 1754 C 162.595 -1.34211 3.11083 0
M  V30 1755 C 161.154 -1.85162 3.27707 0
M  V30 1756 C 160.301 -0.729765 2.67525 0
M  V30 1757 H 163.252 0.0518786 1.58615 0
M  V30 1758 H 163.273 -2.21178 3.09613 0
M  V30 1759 H 162.785 -0.546579 3.84232 0
M  V30 1760 H 160.886 -2.67366 2.59512 0
M  V30 1761 H 160.999 -1.99855 4.35425 0
M  V30 1762 H 159.363 -1.14965 2.27278 0
M  V30 1763 H 160.146 0.0538806 3.43258 0
M  V30 1764 N 162.591 -1.51276 -0.441967 0
M  V30 1765 C 163.837 -1.6492 -1.1905 0
M  V30 1766 C 164.192 -0.358731 -1.89026 0
M  V30 1767 O 163.485 0.645193 -1.8041 0
M  V30 1768 C 163.679 -2.78746 -2.23686 0
M  V30 1769 C 163.508 -4.18737 -1.63979 0
M  V30 1770 C 162.278 -4.84739 -1.42674 0
M  V30 1771 C 164.476 -5.01988 -1.11858 0
M  V30 1772 N 162.458 -6.08858 -0.785159 0
M  V30 1773 C 163.829 -6.17071 -0.601989 0
M  V30 1774 C 165.884 -4.87551 -1.0099 0
M  V30 1775 C 164.587 -7.19299 0.0126012 0
M  V30 1776 C 166.613 -5.89983 -0.409206 0
M  V30 1777 C 165.975 -7.04333 0.0968651 0
M  V30 1778 H 162.074 -0.657416 -0.423471 0
M  V30 1779 H 164.658 -1.8849 -0.48782 0
M  V30 1780 H 162.829 -2.56848 -2.91348 0
M  V30 1781 H 164.561 -2.81595 -2.90666 0
M  V30 1782 H 161.316 -4.42528 -1.68719 0
M  V30 1783 H 161.74 -6.75282 -0.481942 0
M  V30 1784 H 166.382 -3.99401 -1.38703 0
M  V30 1785 H 164.1 -8.071 0.401879 0
M  V30 1786 H 167.686 -5.8088 -0.327079 0
M  V30 1787 H 166.566 -7.82238 0.554373 0
M  V30 1788 N 164.069 0.697108 -1.41344 0
M  V30 1789 C 165.001 1.8224 -1.39001 0
M  V30 1790 C 166.014 1.60152 -0.292428 0
M  V30 1791 O 167.203 1.69684 -0.554048 0
M  V30 1792 C 164.303 3.18976 -1.14489 0
M  V30 1793 C 163.476 3.68105 -2.36258 0
M  V30 1794 C 162.535 4.83506 -2.07625 0
M  V30 1795 O 161.561 4.95201 -2.8065 0
M  V30 1796 N 162.763 5.70637 -1.06555 0
M  V30 1797 H 165.528 1.84742 -2.35988 0
M  V30 1798 H 163.089 0.87937 -1.35936 0
M  V30 1799 H 165.081 3.93801 -0.932885 0
M  V30 1800 H 163.651 3.11508 -0.261043 0
M  V30 1801 H 162.871 2.84204 -2.7317 0
M  V30 1802 H 164.159 3.97667 -3.17393 0
M  V30 1803 H 163.557 5.63817 -0.461125 0
M  V30 1804 H 162.114 6.45368 -0.913444 0
M  V30 1805 N 165.547 1.27147 0.931209 0
M  V30 1806 C 166.787 1.14511 1.69312 0
M  V30 1807 C 167.151 -0.304638 1.89568 0
M  V30 1808 O 168.352 -0.553343 2.63043 0
M  V30 1809 C 166.623 1.90349 3.02493 0
M  V30 1810 S 168.182 1.93884 3.93642 0
M  V30 1811 H 165 0.408858 0.581684 0
M  V30 1812 H 167.602 1.61006 1.10893 0
M  V30 1813 H 166.306 2.94877 2.85439 0
M  V30 1814 H 165.837 1.44333 3.65966 0
M  V30 1815 H 167.852 1.03273 4.85334 0
M  V30 1816 N 167.025 -1.13721 1.09112 0
M  V30 1817 C 168.253 -1.88773 0.846899 0
M  V30 1818 C 168.668 -1.7896 -0.601572 0
M  V30 1819 O 168.025 -1.15394 -1.41388 0
M  V30 1820 C 168.076 -3.3849 1.26913 0
M  V30 1821 O 167.797 -3.48043 2.66079 0
M  V30 1822 C 169.298 -4.30518 1.05682 0
M  V30 1823 H 166.518 -0.59772 0.304914 0
M  V30 1824 H 169.062 -1.43977 1.45227 0
M  V30 1825 H 167.217 -3.80881 0.707723 0
M  V30 1826 H 167.631 -4.4109 2.83795 0
M  V30 1827 H 169.105 -5.3391 1.40156 0
M  V30 1828 H 169.582 -4.392 -0.00563416 0
M  V30 1829 H 170.188 -3.93893 1.60402 0
M  V30 1830 N 168.503 -0.877838 -1.30888 0
M  V30 1831 C 169.451 -0.328662 -2.30266 0
M  V30 1832 C 170.445 0.560496 -1.59859 0
M  V30 1833 O 171.651 0.445722 -1.74394 0
M  V30 1834 H 168.026 -0.0876142 -0.746879 0
M  V30 1835 H 169.997 -1.18061 -2.74051 0
M  V30 1836 C 168.746 0.448071 -3.44801 0
M  V30 1837 H 168.069 -0.226859 -3.99156 0
M  V30 1838 H 169.509 0.797541 -4.16432 0
M  V30 1839 C 167.968 1.64239 -2.94155 0
M  V30 1840 O 168.498 2.74175 -2.93583 0
M  V30 1841 N 166.704 1.47716 -2.50256 0
M  V30 1842 H 166.251 0.582821 -2.5092 0
M  V30 1843 H 166.209 2.27765 -2.16727 0
M  V30 1844 N 169.982 1.44106 -0.638065 0
M  V30 1845 C 171.23 2.01579 -0.145043 0
M  V30 1846 C 171.551 1.50496 1.24 0
M  V30 1847 O 170.821 0.711374 1.82527 0
M  V30 1848 H 169.401 0.745282 -0.05063 0
M  V30 1849 H 172.063 1.76516 -0.826327 0
M  V30 1850 H 171.159 3.11877 -0.118039 0
M  V30 1851 N 171.46 0.379036 1.52974 0
M  V30 1852 C 172.685 -0.209353 2.06341 0
M  V30 1853 C 173.11 -1.40583 1.24972 0
M  V30 1854 O 172.468 -1.79246 0.272155 0
M  V30 1855 C 172.516 -0.567786 3.56102 0
M  V30 1856 O 171.62 -1.66318 3.77375 0
M  V30 1857 H 170.961 -0.0272919 0.663439 0
M  V30 1858 H 173.491 0.543536 1.97248 0
M  V30 1859 H 173.501 -0.835003 3.99364 0
M  V30 1860 H 172.176 0.307013 4.14765 0
M  V30 1861 H 170.753 -1.39048 3.46006 0
M  V30 1862 N 172.938 -1.57226 0.108567 0
M  V30 1863 C 173.848 -2.18292 -0.859401 0
M  V30 1864 C 174.864 -1.15612 -1.30038 0
M  V30 1865 O 176.04 -1.48039 -1.36552 0
M  V30 1866 C 173.105 -2.762 -2.09558 0
M  V30 1867 C 172.166 -3.93881 -1.70752 0
M  V30 1868 C 171.399 -4.49018 -2.88477 0
M  V30 1869 O 171.622 -4.03068 -4.036 0
M  V30 1870 O 170.556 -5.39852 -2.66164 0
M  V30 1871 H 174.382 -3.01441 -0.369769 0
M  V30 1872 H 171.967 -1.48945 -0.1165 0
M  V30 1873 H 173.849 -3.13156 -2.81978 0
M  V30 1874 H 172.524 -1.96089 -2.57548 0
M  V30 1875 H 171.431 -3.61713 -0.954714 0
M  V30 1876 H 172.764 -4.75396 -1.27513 0
M  V30 1877 N 174.416 0.165178 -1.56732 0
M  V30 1878 C 175.662 0.882112 -1.82611 0
M  V30 1879 C 175.995 1.81628 -0.687378 0
M  V30 1880 O 175.27 1.92009 0.310267 0
M  V30 1881 C 175.553 1.67245 -3.18906 0
M  V30 1882 C 175.406 0.760987 -4.43316 0
M  V30 1883 C 176.725 2.63884 -3.52212 0
M  V30 1884 H 173.844 0.319242 -0.664269 0
M  V30 1885 H 176.486 0.148052 -1.89422 0
M  V30 1886 H 174.636 2.29824 -3.1323 0
M  V30 1887 H 176.308 0.147596 -4.61064 0
M  V30 1888 H 174.551 0.0694102 -4.33744 0
M  V30 1889 H 175.222 1.34962 -5.35247 0
M  V30 1890 H 177.698 2.11429 -3.58381 0
M  V30 1891 H 176.574 3.16245 -4.48643 0
M  V30 1892 H 176.835 3.44377 -2.77231 0
M  V30 1893 N 175.894 1.51508 0.433938 0
M  V30 1894 C 176.826 1.69266 1.54537 0
M  V30 1895 C 177.839 0.573276 1.52373 0
M  V30 1896 O 179.028 0.847698 1.57087 0
M  V30 1897 C 176.128 1.69524 2.93453 0
M  V30 1898 C 175.301 2.98101 3.20085 0
M  V30 1899 C 174.36 2.90502 4.38742 0
M  V30 1900 O 173.386 3.64442 4.3723 0
M  V30 1901 N 174.588 2.06586 5.42496 0
M  V30 1902 H 177.353 2.65145 1.39708 0
M  V30 1903 H 174.914 1.49437 0.622922 0
M  V30 1904 H 176.906 1.62004 3.70859 0
M  V30 1905 H 175.476 0.812245 3.01863 0
M  V30 1906 H 174.696 3.19464 2.30947 0
M  V30 1907 H 175.984 3.83207 3.34708 0
M  V30 1908 H 175.382 1.45896 5.46563 0
M  V30 1909 H 173.939 2.04943 6.18742 0
M  V30 1910 N 177.372 -0.689602 1.41712 0
M  V30 1911 C 178.597 -1.48329 1.44959 0
M  V30 1912 C 179.022 -1.8801 0.0581283 0
M  V30 1913 O 178.38 -1.55026 -0.940035 0
M  V30 1914 C 178.428 -2.71835 2.36935 0
M  V30 1915 O 177.532 -3.69549 1.8305 0
M  V30 1916 H 176.873 -0.446199 0.491734 0
M  V30 1917 H 179.403 -0.847127 1.86239 0
M  V30 1918 H 179.413 -3.20076 2.53013 0
M  V30 1919 H 178.088 -2.42291 3.38035 0
M  V30 1920 H 176.665 -3.2851 1.76452 0
M  V30 1921 N 178.85 -1.27639 -0.924453 0
M  V30 1922 C 180.075 -1.17101 -1.71179 0
M  V30 1923 C 180.5 0.268134 -1.86179 0
M  V30 1924 O 179.858 1.19415 -1.36418 0
M  V30 1925 C 179.906 -1.86313 -3.08739 0
M  V30 1926 O 179.01 -1.16331 -3.95652 0
M  V30 1927 H 178.351 -0.407091 -0.524569 0
M  V30 1928 H 180.881 -1.68767 -1.15666 0
M  V30 1929 H 180.891 -1.938 -3.59034 0
M  V30 1930 H 179.566 -2.91001 -2.97138 0
M  V30 1931 H 178.143 -1.16935 -3.54091 0
M  V30 1932 N 180.328 1.1314 -1.09713 0
M  V30 1933 C 181.574 1.84967 -0.846104 0
M  V30 1934 C 181.929 1.82082 0.621601 0
M  V30 1935 O 181.222 1.2501 1.452 0
M  V30 1936 C 181.416 3.32167 -1.3191 0
M  V30 1937 C 181.245 3.49386 -2.83125 0
M  V30 1938 C 180.015 3.63456 -3.51038 0
M  V30 1939 C 182.213 3.45179 -3.81256 0
M  V30 1940 N 180.195 3.68966 -4.9065 0
M  V30 1941 C 181.566 3.57094 -5.06837 0
M  V30 1942 C 183.621 3.28598 -3.74069 0
M  V30 1943 C 182.324 3.5414 -6.26081 0
M  V30 1944 C 184.35 3.26953 -4.92804 0
M  V30 1945 C 183.712 3.39422 -6.17229 0
M  V30 1946 H 179.811 0.692899 -0.362512 0
M  V30 1947 H 182.395 1.35506 -1.39808 0
M  V30 1948 H 180.566 3.80186 -0.794535 0
M  V30 1949 H 182.298 3.91815 -1.01308 0
M  V30 1950 H 179.053 3.65256 -3.01471 0
M  V30 1951 H 179.477 3.75404 -5.63383 0
M  V30 1952 H 184.119 3.17858 -2.78794 0
M  V30 1953 H 181.837 3.63653 -7.21653 0
M  V30 1954 H 185.423 3.15316 -4.88945 0
M  V30 1955 H 184.303 3.38114 -7.07565 0
M  V30 1956 N 181.806 0.884767 1.30421 0
M  V30 1957 C 182.769 0.356277 2.26414 0
M  V30 1958 C 183.769 -0.501124 1.52792 0
M  V30 1959 O 184.959 -0.30831 1.7145 0
M  V30 1960 C 182.091 -0.492316 3.37326 0
M  V30 1961 H 183.284 1.20389 2.74675 0
M  V30 1962 H 180.837 0.661607 1.41607 0
M  V30 1963 H 181.572 -1.36052 2.94381 0
M  V30 1964 H 181.357 0.121832 3.91911 0
M  V30 1965 H 182.847 -0.853871 4.08777 0
M  V30 1966 N 183.284 -1.43765 0.645699 0
M  V30 1967 C 184.194 -2.34544 -0.0512957 0
M  V30 1968 C 185.21 -1.53455 -0.82022 0
M  V30 1969 O 186.386 -1.86133 -0.769176 0
M  V30 1970 C 183.451 -3.31636 -1.01087 0
M  V30 1971 C 182.512 -4.2863 -0.239712 0
M  V30 1972 C 181.745 -5.21084 -1.15358 0
M  V30 1973 O 181.968 -5.1779 -2.39269 0
M  V30 1974 O 180.902 -5.98593 -0.630038 0
M  V30 1975 H 184.728 -2.95624 0.695718 0
M  V30 1976 H 182.313 -1.43781 0.405882 0
M  V30 1977 H 184.195 -3.9136 -1.56254 0
M  V30 1978 H 182.87 -2.73069 -1.73824 0
M  V30 1979 H 181.777 -3.72408 0.355356 0
M  V30 1980 H 183.11 -4.90157 0.447936 0
M  V30 1981 N 184.763 -0.387143 -1.52771 0
M  V30 1982 C 185.991 0.195869 -2.05971 0
M  V30 1983 C 186.406 1.40691 -1.25903 0
M  V30 1984 O 185.763 1.79931 -0.305134 0
M  V30 1985 C 185.814 0.56812 -3.57008 0
M  V30 1986 O 185.535 -0.594803 -4.34043 0
M  V30 1987 C 187.036 1.20723 -4.26545 0
M  V30 1988 H 184.256 0.0300578 -0.670326 0
M  V30 1989 H 186.8 -0.551749 -1.96916 0
M  V30 1990 H 184.955 1.26564 -3.66143 0
M  V30 1991 H 185.369 -0.289322 -5.23701 0
M  V30 1992 H 186.843 1.41807 -5.33474 0
M  V30 1993 H 187.32 2.17395 -3.81623 0
M  V30 1994 H 187.926 0.550535 -4.21722 0
M  V30 1995 N 186.241 1.57166 -0.116904 0
M  V30 1996 C 187.469 1.99473 0.549383 0
M  V30 1997 C 187.884 0.996541 1.60357 0
M  V30 1998 O 187.241 -0.0108731 1.82497 0
M  V30 1999 C 187.292 3.41788 1.17741 0
M  V30 2000 O 187.013 4.37788 0.165362 0
M  V30 2001 C 188.514 3.99216 1.92722 0
M  V30 2002 H 185.734 0.655009 0.145616 0
M  V30 2003 H 188.278 2.03494 -0.202625 0
M  V30 2004 H 186.433 3.38713 1.88021 0
M  V30 2005 H 186.847 5.20806 0.621403 0
M  V30 2006 H 188.321 5.00882 2.31995 0
M  V30 2007 H 188.798 3.3824 2.80161 0
M  V30 2008 H 189.404 4.0583 1.27209 0
M  V30 2009 N 187.719 -0.156864 1.56817 0
M  V30 2010 C 188.949 -0.885031 1.86684 0
M  V30 2011 C 189.357 -1.75696 0.701954 0
M  V30 2012 O 188.7 -1.80569 -0.337732 0
M  V30 2013 C 188.762 -1.80092 3.11138 0
M  V30 2014 C 188.426 -1.10714 4.43386 0
M  V30 2015 C 189.423 -0.465714 5.1781 0
M  V30 2016 C 187.108 -1.09959 4.90117 0
M  V30 2017 C 189.102 0.174002 6.37162 0
M  V30 2018 C 186.789 -0.456055 6.09396 0
M  V30 2019 C 187.787 0.179622 6.82764 0
M  V30 2020 O 187.475 0.812975 7.99779 0
M  V30 2021 H 187.207 -0.261813 0.623242 0
M  V30 2022 H 189.761 -0.157383 2.04796 0
M  V30 2023 H 187.991 -2.56926 2.89009 0
M  V30 2024 H 189.68 -2.40018 3.27332 0
M  V30 2025 H 190.446 -0.463427 4.82781 0
M  V30 2026 H 186.325 -1.58378 4.3294 0
M  V30 2027 H 189.869 0.670765 6.94368 0
M  V30 2028 H 185.766 -0.455975 6.43888 0
M  V30 2029 H 186.534 0.71366 8.15383 0
M  V30 2030 N 189.197 -1.51736 -0.425897 0
M  V30 2031 C 190.443 -1.66174 -1.17294 0
M  V30 2032 C 190.798 -0.37876 -1.88635 0
M  V30 2033 O 190.091 0.626021 -1.81084 0
M  V30 2034 C 190.285 -2.81103 -2.20717 0
M  V30 2035 C 190.114 -4.20453 -1.59529 0
M  V30 2036 C 188.884 -4.86225 -1.37525 0
M  V30 2037 C 191.082 -5.03146 -1.06528 0
M  V30 2038 N 189.064 -6.09657 -0.720537 0
M  V30 2039 C 190.435 -6.17674 -0.536506 0
M  V30 2040 C 192.49 -4.88594 -0.958127 0
M  V30 2041 C 191.193 -7.19245 0.0888917 0
M  V30 2042 C 193.219 -5.90383 -0.346608 0
M  V30 2043 C 192.581 -7.04191 0.171564 0
M  V30 2044 H 188.68 -0.661871 -0.416475 0
M  V30 2045 H 191.264 -1.88997 -0.467801 0
M  V30 2046 H 189.435 -2.59924 -2.88607 0
M  V30 2047 H 191.167 -2.84662 -2.87663 0
M  V30 2048 H 187.922 -4.44293 -1.64015 0
M  V30 2049 H 188.346 -6.75756 -0.410292 0
M  V30 2050 H 192.988 -4.0085 -1.34459 0
M  V30 2051 H 190.706 -8.06628 0.48746 0
M  V30 2052 H 194.292 -5.81194 -0.265451 0
M  V30 2053 H 193.172 -7.81606 0.637309 0
M  V30 2054 N 190.675 0.682077 -1.42076 0
M  V30 2055 C 191.924 1.43786 -1.41451 0
M  V30 2056 C 192.237 1.95574 -0.0317074 0
M  V30 2057 O 193.443 2.71326 0.0971462 0
M  V30 2058 C 191.899 2.60071 -2.48779 0
M  V30 2059 C 191.507 2.15013 -3.93031 0
M  V30 2060 C 193.251 3.37626 -2.57311 0
M  V30 2061 C 191.158 3.28336 -4.91883 0
M  V30 2062 H 190.088 0.540143 -0.526082 0
M  V30 2063 H 192.739 0.739157 -1.67955 0
M  V30 2064 H 191.121 3.32275 -2.15429 0
M  V30 2065 H 192.295 1.5001 -4.35699 0
M  V30 2066 H 190.61 1.50416 -3.88284 0
M  V30 2067 H 193.207 4.22012 -3.28345 0
M  V30 2068 H 193.55 3.83727 -1.61429 0
M  V30 2069 H 194.083 2.72488 -2.89819 0
M  V30 2070 H 190.822 2.87234 -5.89217 0
M  V30 2071 H 190.342 3.92145 -4.53853 0
M  V30 2072 H 192.021 3.93913 -5.13265 0
M  V30 2073 N 192.153 1.28127 0.917671 0
M  V30 2074 C 193.378 1.18007 1.70555 0
M  V30 2075 C 193.803 -0.258257 1.86319 0
M  V30 2076 O 193.161 -1.1869 1.37049 0
M  V30 2077 C 193.209 1.87948 3.07746 0
M  V30 2078 O 192.313 1.18427 3.9503 0
M  V30 2079 H 191.654 0.409867 0.522403 0
M  V30 2080 H 194.184 1.69379 1.1477 0
M  V30 2081 H 194.194 1.95701 3.58001 0
M  V30 2082 H 192.869 2.92573 2.95591 0
M  V30 2083 H 191.446 1.18811 3.53466 0
M  V30 2084 N 193.631 -1.12557 1.10312 0
M  V30 2085 C 195.042 -1.65574 0.862678 0
M  V30 2086 C 195.393 -1.86566 -0.607256 0
M  V30 2087 O 194.518 -1.59121 -1.46662 0
M  V30 2088 C 195.113 -3.00776 1.55947 0
M  V30 2089 C 193.672 -3.50748 1.36576 0
M  V30 2090 C 192.819 -2.25797 1.60968 0
M  V30 2091 H 195.77 -0.963552 1.26101 0
M  V30 2092 H 195.791 -3.67185 0.997753 0
M  V30 2093 H 195.303 -2.85465 2.62928 0
M  V30 2094 H 193.404 -3.71245 0.317531 0
M  V30 2095 H 193.517 -4.30289 2.10686 0
M  V30 2096 H 191.881 -2.32841 1.03234 0
M  V30 2097 H 192.664 -2.13043 2.69198 0
M  V30 2098 N 195.109 -0.891671 -1.2995 0
M  V30 2099 C 196.041 -0.320695 -2.26945 0
M  V30 2100 C 197.054 0.528497 -1.53983 0
M  V30 2101 O 198.243 0.346959 -1.75096 0
M  V30 2102 C 195.343 0.562066 -3.34207 0
M  V30 2103 C 194.516 -0.259576 -4.36629 0
M  V30 2104 C 193.575 0.554739 -5.23268 0
M  V30 2105 O 192.601 -0.0249311 -5.69195 0
M  V30 2106 N 193.803 1.8625 -5.4981 0
M  V30 2107 H 196.568 -1.15432 -2.76578 0
M  V30 2108 H 194.129 -0.755336 -1.432 0
M  V30 2109 H 196.121 1.11304 -3.89093 0
M  V30 2110 H 194.691 1.29637 -2.84452 0
M  V30 2111 H 193.911 -0.991986 -3.81514 0
M  V30 2112 H 195.199 -0.822564 -5.02107 0
M  V30 2113 H 194.597 2.35628 -5.14292 0
M  V30 2114 H 193.154 2.36078 -6.07545 0
M  V30 2115 N 196.587 1.43421 -0.653314 0
M  V30 2116 C 197.835 2.01414 -0.166415 0
M  V30 2117 C 198.156 1.51803 1.22397 0
M  V30 2118 O 197.426 0.730693 1.81763 0
M  V30 2119 H 196.006 0.744703 -0.0585319 0
M  V30 2120 H 198.668 1.75629 -0.845003 0
M  V30 2121 H 197.764 3.11734 -0.151111 0
M  V30 2122 N 198.065 0.39524 1.52563 0
M  V30 2123 C 199.314 -0.186321 2.00838 0
M  V30 2124 C 199.627 -1.47402 1.28577 0
M  V30 2125 O 200.833 -2.13599 1.67593 0
M  V30 2126 C 199.289 -0.382595 3.57861 0
M  V30 2127 C 198.897 0.892202 4.39026 0
M  V30 2128 C 200.641 -0.9202 4.14406 0
M  V30 2129 C 198.548 0.66388 5.87662 0
M  V30 2130 H 197.478 -0.0734041 0.750418 0
M  V30 2131 H 200.129 0.518552 1.76021 0
M  V30 2132 H 198.511 -1.14946 3.7895 0
M  V30 2133 H 199.685 1.66414 4.29701 0
M  V30 2134 H 198 1.35519 3.9373 0
M  V30 2135 H 200.597 -1.10683 5.23119 0
M  V30 2136 H 200.94 -1.89096 3.70875 0
M  V30 2137 H 201.473 -0.212751 3.97231 0
M  V30 2138 H 198.212 1.6058 6.35527 0
M  V30 2139 H 197.732 -0.0690193 5.9976 0
M  V30 2140 H 199.411 0.300699 6.46301 0
M  V30 2141 N 199.544 -1.57102 0.125237 0
M  V30 2142 C 200.955 -1.82384 -0.399142 0
M  V30 2143 C 201.306 -1.04276 -1.66195 0
M  V30 2144 O 200.431 -0.281269 -2.14564 0
M  V30 2145 C 201.026 -3.30821 -0.730932 0
M  V30 2146 C 199.585 -3.56762 -1.19992 0
M  V30 2147 C 198.732 -2.7649 -0.211792 0
M  V30 2148 H 201.683 -1.54786 0.350277 0
M  V30 2149 H 201.704 -3.4579 -1.58775 0
M  V30 2150 H 201.216 -3.87643 0.188345 0
M  V30 2151 H 199.317 -3.05305 -2.13588 0
M  V30 2152 H 199.43 -4.65317 -1.14093 0
M  V30 2153 H 197.794 -2.4489 -0.700085 0
M  V30 2154 H 198.577 -3.36073 0.700691 0
M  V30 2155 N 201.022 0.148545 -1.56898 0
M  V30 2156 C 201.932 1.20293 -2.01412 0
M  V30 2157 C 202.948 1.47107 -0.929273 0
M  V30 2158 O 204.124 1.58807 -1.23863 0
M  V30 2159 C 201.189 2.51682 -2.38447 0
M  V30 2160 C 200.25 2.32529 -3.60872 0
M  V30 2161 C 199.483 3.57653 -3.96132 0
M  V30 2162 O 199.706 4.63771 -3.32073 0
M  V30 2163 O 198.64 3.50408 -4.89385 0
M  V30 2164 H 202.466 0.855025 -2.91416 0
M  V30 2165 H 200.051 0.357151 -1.45068 0
M  V30 2166 H 201.933 3.29147 -2.63135 0
M  V30 2167 H 200.608 2.86006 -1.51599 0
M  V30 2168 H 199.515 1.53019 -3.41373 0
M  V30 2169 H 200.848 2.03121 -4.48333 0
M  V30 2170 N 202.5 1.5196 0.417844 0
M  V30 2171 C 203.728 1.69426 1.18753 0
M  V30 2172 C 204.143 0.399955 1.84515 0
M  V30 2173 O 203.5 -0.623288 1.71527 0
M  V30 2174 C 203.551 2.82375 2.25714 0
M  V30 2175 O 203.272 4.06793 1.62638 0
M  V30 2176 C 204.773 3.11277 3.15628 0
M  V30 2177 H 201.993 0.568031 0.357186 0
M  V30 2178 H 204.537 1.98475 0.49273 0
M  V30 2179 H 202.692 2.5587 2.90877 0
M  V30 2180 H 203.106 4.69667 2.3348 0
M  V30 2181 H 204.58 3.93843 3.86771 0
M  V30 2182 H 205.057 2.24473 3.77503 0
M  V30 2183 H 205.663 3.39515 2.56144 0
M  V30 2184 N 203.978 -0.674533 1.42435 0
M  V30 2185 C 204.925 -1.78807 1.45934 0
M  V30 2186 C 205.895 -1.63157 0.311271 0
M  V30 2187 O 207.08 -1.83707 0.515383 0
M  V30 2188 C 204.22 -3.16839 1.36773 0
M  V30 2189 C 203.333 -3.43774 2.61617 0
M  V30 2190 C 202.468 -4.71536 2.44597 0
M  V30 2191 C 201.507 -4.91505 3.64814 0
M  V30 2192 N 200.644 -6.10508 3.46734 0
M  V30 2193 H 205.484 -1.75151 2.41093 0
M  V30 2194 H 203.021 -0.85504 1.19697 0
M  V30 2195 H 204.979 -3.96606 1.29459 0
M  V30 2196 H 203.609 -3.19619 0.452089 0
M  V30 2197 H 202.661 -2.58259 2.79297 0
M  V30 2198 H 203.973 -3.54423 3.50978 0
M  V30 2199 H 203.127 -5.59393 2.3487 0
M  V30 2200 H 201.866 -4.6317 1.52726 0
M  V30 2201 H 200.871 -4.0209 3.74972 0
M  V30 2202 H 202.096 -5.01716 4.57665 0
M  V30 2203 H 200.042 -6.03315 2.5758 0
M  V30 2204 H 199.959 -6.2202 4.29682 0
M  V30 2205 H 201.227 -7.01044 3.40819 0
M  V30 2206 N 205.456 -1.28612 -0.910864 0
M  V30 2207 C 206.702 -1.16106 -1.66274 0
M  V30 2208 C 207.035 0.289113 -1.92036 0
M  V30 2209 O 206.31 1.21 -1.52281 0
M  V30 2210 C 206.593 -1.96309 -3.01885 0
M  V30 2211 C 206.446 -3.49405 -2.8326 0
M  V30 2212 C 207.765 -1.78076 -4.02463 0
M  V30 2213 H 204.884 -0.423152 -0.603417 0
M  V30 2214 H 207.526 -1.57961 -1.05586 0
M  V30 2215 H 205.676 -1.60742 -3.53687 0
M  V30 2216 H 207.348 -3.94894 -2.38446 0
M  V30 2217 H 205.591 -3.74893 -2.18261 0
M  V30 2218 H 206.262 -4.00784 -3.79574 0
M  V30 2219 H 208.738 -2.0912 -3.59733 0
M  V30 2220 H 207.614 -2.36561 -4.95308 0
M  V30 2221 H 207.875 -0.733008 -4.35981 0
M  V30 2222 N 206.934 1.1197 -1.10907 0
M  V30 2223 C 207.866 2.17592 -0.720175 0
M  V30 2224 C 208.879 1.60938 0.245495 0
M  V30 2225 O 210.068 1.78476 0.0292245 0
M  V30 2226 C 207.168 3.38873 -0.0427917 0
M  V30 2227 C 206.341 4.25006 -1.03388 0
M  V30 2228 C 205.4 5.24774 -0.387075 0
M  V30 2229 O 204.426 5.59631 -1.03934 0
M  V30 2230 N 205.628 5.74208 0.852407 0
M  V30 2231 H 208.393 2.51567 -1.62893 0
M  V30 2232 H 205.954 1.27439 -0.998543 0
M  V30 2233 H 207.946 4.02703 0.401501 0
M  V30 2234 H 206.516 3.03007 0.768456 0
M  V30 2235 H 205.736 3.57716 -1.65629 0
M  V30 2236 H 207.024 4.79397 -1.70458 0
M  V30 2237 H 206.422 5.48062 1.40161 0
M  V30 2238 H 204.979 6.39901 1.23977 0
M  V30 2239 N 208.412 0.89855 1.29475 0
M  V30 2240 C 209.689 0.443416 1.90508 0
M  V30 2241 C 210.069 -1.07685 1.81569 0
M  V30 2242 O 209.417 -1.9182 1.24166 0
M  V30 2243 C 209.627 0.956708 3.35631 0
M  V30 2244 C 210.975 0.999728 4.12663 0
M  V30 2245 O 211.999 0.904299 3.4453 0
M  V30 2246 O 210.858 1.14289 5.34416 0
M  V30 2247 H 207.952 0.138025 0.815401 0
M  V30 2248 H 210.498 0.98834 1.37949 0
M  V30 2249 H 209.27 2.00067 3.36287 0
M  V30 2250 H 208.893 0.391728 3.95666 0
M  V30 2251 N 209.89 -1.43072 0.660911 0
M  V30 2252 C 210.823 -2.28074 -0.0758862 0
M  V30 2253 C 211.801 -1.40271 -0.822362 0
M  V30 2254 O 212.985 -1.69713 -0.820352 0
M  V30 2255 C 210.112 -3.19843 -1.11437 0
M  V30 2256 C 209.158 -4.23957 -0.465069 0
M  V30 2257 S 209.991 -5.29978 0.767078 0
M  V30 2258 C 211.147 -6.25314 -0.270682 0
M  V30 2259 H 211.38 -2.90216 0.645139 0
M  V30 2260 H 208.913 -1.47697 0.449995 0
M  V30 2261 H 210.871 -3.73257 -1.70849 0
M  V30 2262 H 209.532 -2.56863 -1.80776 0
M  V30 2263 H 208.725 -4.88299 -1.24819 0
M  V30 2264 H 208.327 -3.73959 0.0551242 0
M  V30 2265 H 210.619 -6.67932 -1.13459 0
M  V30 2266 H 211.562 -7.07293 0.337916 0
M  V30 2267 H 211.97 -5.61195 -0.609937 0
M  V30 2268 N 211.368 -0.403325 -1.52352 0
M  V30 2269 C 212.645 0.232611 -1.94212 0
M  V30 2270 C 213.025 1.63133 -1.33981 0
M  V30 2271 O 212.373 2.22659 -0.513344 0
M  V30 2272 C 212.583 0.244811 -3.4814 0
M  V30 2273 C 213.931 0.46698 -4.22024 0
M  V30 2274 O 214.955 0.324419 -3.5472 0
M  V30 2275 O 213.814 0.74747 -5.41364 0
M  V30 2276 H 210.908 0.148223 -0.813609 0
M  V30 2277 H 213.454 -0.458848 -1.63379 0
M  V30 2278 H 212.226 -0.734378 -3.84347 0
M  V30 2279 H 211.849 0.980611 -3.85318 0
M  V30 2280 N 212.846 1.57033 -0.133567 0
M  V30 2281 C 214.086 1.97575 0.523789 0
M  V30 2282 C 214.45 1.01605 1.62912 0
M  V30 2283 O 215.651 1.3114 2.3464 0
M  V30 2284 C 213.922 3.42256 1.02935 0
M  V30 2285 S 215.481 4.04817 1.69319 0
M  V30 2286 H 212.299 0.690427 0.169799 0
M  V30 2287 H 214.901 1.94234 -0.222101 0
M  V30 2288 H 213.605 4.09842 0.213917 0
M  V30 2289 H 213.136 3.4928 1.81017 0
M  V30 2290 H 215.151 3.96767 2.97977 0
M  V30 2291 N 214.325 -0.140222 1.56975 0
M  V30 2292 C 215.571 -0.852949 1.83991 0
M  V30 2293 C 215.904 -1.80512 0.716187 0
M  V30 2294 O 215.179 -1.92479 -0.279681 0
M  V30 2295 C 215.462 -1.6215 3.21527 0
M  V30 2296 C 215.315 -0.690363 4.4447 0
M  V30 2297 C 216.634 -2.58247 3.56366 0
M  V30 2298 H 213.753 -0.308634 0.669264 0
M  V30 2299 H 216.395 -0.117898 1.89634 0
M  V30 2300 H 214.545 -2.24812 3.16847 0
M  V30 2301 H 216.217 -0.0742264 4.6124 0
M  V30 2302 H 214.46 -0.000396433 4.338 0
M  V30 2303 H 215.131 -1.2643 5.37326 0
M  V30 2304 H 217.607 -2.05701 3.61699 0
M  V30 2305 H 216.483 -3.09067 4.53617 0
M  V30 2306 H 216.744 -3.39923 2.82674 0
M  V30 2307 N 215.803 -1.52179 -0.40978 0
M  V30 2308 C 217.033 -1.69807 -1.17682 0
M  V30 2309 C 217.441 -0.406908 -1.84773 0
M  V30 2310 O 216.784 0.626863 -1.72673 0
M  V30 2311 C 216.846 -2.77712 -2.2829 0
M  V30 2312 C 216.51 -4.19481 -1.81341 0
M  V30 2313 C 217.507 -5.03345 -1.30154 0
M  V30 2314 C 215.192 -4.65713 -1.88194 0
M  V30 2315 C 217.186 -6.31511 -0.864416 0
M  V30 2316 C 214.873 -5.93869 -1.44093 0
M  V30 2317 C 215.871 -6.76597 -0.933023 0
M  V30 2318 O 215.559 -8.02354 -0.49838 0
M  V30 2319 H 215.291 -0.572372 -0.359675 0
M  V30 2320 H 217.845 -1.99511 -0.488311 0
M  V30 2321 H 216.075 -2.43383 -3.00502 0
M  V30 2322 H 217.764 -2.83946 -2.90051 0
M  V30 2323 H 218.53 -4.68819 -1.24232 0
M  V30 2324 H 214.409 -4.01424 -2.26671 0
M  V30 2325 H 217.953 -6.96033 -0.467286 0
M  V30 2326 H 213.85 -6.27903 -1.49694 0
M  V30 2327 H 214.618 -8.16135 -0.621747 0
M  V30 2328 N 217.281 0.66697 -1.42791 0
M  V30 2329 C 218.511 1.45294 -1.46878 0
M  V30 2330 C 218.919 1.89027 -0.0809861 0
M  V30 2331 O 218.262 1.59219 0.916246 0
M  V30 2332 C 218.324 2.72908 -2.34012 0
M  V30 2333 C 217.988 2.51203 -3.81767 0
M  V30 2334 C 218.985 2.15302 -4.73224 0
M  V30 2335 C 216.67 2.65954 -4.26115 0
M  V30 2336 C 218.664 1.94431 -6.07022 0
M  V30 2337 C 216.351 2.44699 -5.59969 0
M  V30 2338 C 217.349 2.08992 -6.5024 0
M  V30 2339 O 217.037 1.87948 -7.81621 0
M  V30 2340 H 216.769 0.453306 -0.501487 0
M  V30 2341 H 219.323 0.826232 -1.88049 0
M  V30 2342 H 217.553 3.38089 -1.87703 0
M  V30 2343 H 219.242 3.34816 -2.29462 0
M  V30 2344 H 220.008 2.03495 -4.40244 0
M  V30 2345 H 215.887 2.92724 -3.56137 0
M  V30 2346 H 219.431 1.66484 -6.77443 0
M  V30 2347 H 215.328 2.56105 -5.9252 0
M  V30 2348 H 216.096 2.02483 -7.93059 0
M  V30 2349 N 218.759 1.29093 0.90403 0
M  V30 2350 C 219.707 1.13727 2.02901 0
M  V30 2351 C 220.701 0.0539853 1.69314 0
M  V30 2352 O 221.907 0.213469 1.7873 0
M  V30 2353 H 218.282 0.35117 0.664969 0
M  V30 2354 H 220.253 2.08982 2.13001 0
M  V30 2355 C 219.002 0.826066 3.37745 0
M  V30 2356 H 218.325 1.65164 3.64089 0
M  V30 2357 H 219.765 0.758559 4.17159 0
M  V30 2358 C 218.224 -0.470541 3.33598 0
M  V30 2359 O 218.754 -1.49792 3.72727 0
M  V30 2360 N 216.96 -0.474812 2.86695 0
M  V30 2361 H 216.507 0.361692 2.55048 0
M  V30 2362 H 216.465 -1.34236 2.84303 0
M  V30 2363 N 220.237 -1.11381 1.11499 0
M  V30 2364 C 221.483 -1.83597 0.875423 0
M  V30 2365 C 221.838 -1.83048 -0.592555 0
M  V30 2366 O 221.131 -1.27304 -1.43193 0
M  V30 2367 C 221.325 -3.30026 1.37177 0
M  V30 2368 C 221.154 -3.44837 2.88647 0
M  V30 2369 C 219.924 -3.57825 3.56776 0
M  V30 2370 C 222.122 -3.3907 3.86699 0
M  V30 2371 N 220.104 -3.61113 4.96458 0
M  V30 2372 C 221.475 -3.48986 5.12454 0
M  V30 2373 C 223.53 -3.22605 3.7925 0
M  V30 2374 C 222.233 -3.44135 6.31636 0
M  V30 2375 C 224.259 -3.19072 4.97943 0
M  V30 2376 C 223.621 -3.29559 6.22551 0
M  V30 2377 H 219.72 -0.687044 0.37349 0
M  V30 2378 H 222.304 -1.33265 1.41946 0
M  V30 2379 H 220.475 -3.78874 0.854919 0
M  V30 2380 H 222.207 -3.90153 1.07529 0
M  V30 2381 H 218.962 -3.60414 3.07244 0
M  V30 2382 H 219.386 -3.66394 5.69284 0
M  V30 2383 H 224.028 -3.13382 2.83816 0
M  V30 2384 H 221.746 -3.52126 7.27347 0
M  V30 2385 H 225.332 -3.07498 4.93899 0
M  V30 2386 H 224.212 -3.26815 7.12855 0
M  V30 2387 N 221.715 -0.905404 -1.28997 0
M  V30 2388 C 222.647 -0.344748 -2.26592 0
M  V30 2389 C 223.66 0.512135 -1.54535 0
M  V30 2390 O 224.849 0.328368 -1.75454 0
M  V30 2391 C 221.949 0.526587 -3.34784 0
M  V30 2392 C 221.122 -0.305871 -4.36329 0
M  V30 2393 C 220.181 0.499209 -5.23827 0
M  V30 2394 O 219.207 -0.0853004 -5.69136 0
M  V30 2395 N 220.409 1.80408 -5.51755 0
M  V30 2396 H 223.174 -1.18359 -2.75338 0
M  V30 2397 H 220.735 -0.770481 -1.42391 0
M  V30 2398 H 222.727 1.07171 -3.90252 0
M  V30 2399 H 221.297 1.26613 -2.85811 0
M  V30 2400 H 220.517 -1.0324 -3.80441 0
M  V30 2401 H 221.805 -0.875773 -5.01206 0
M  V30 2402 H 221.203 2.3016 -5.16762 0
M  V30 2403 H 219.76 2.29621 -6.10014 0
M  V30 2404 N 223.193 1.4272 -0.668489 0
M  V30 2405 C 224.423 2.05668 -0.196063 0
M  V30 2406 C 224.831 1.5028 1.14946 0
M  V30 2407 O 224.174 0.6348 1.72383 0
M  V30 2408 C 224.236 3.59469 -0.0468879 0
M  V30 2409 C 223.9 4.37518 -1.32012 0
M  V30 2410 C 224.897 4.68584 -2.25222 0
M  V30 2411 C 222.582 4.77266 -1.56596 0
M  V30 2412 C 224.576 5.38326 -3.41297 0
M  V30 2413 C 222.263 5.4675 -2.72962 0
M  V30 2414 C 223.261 5.77204 -3.65137 0
M  V30 2415 O 222.949 6.45264 -4.79468 0
M  V30 2416 H 222.681 0.669382 -0.0943599 0
M  V30 2417 H 225.235 1.83954 -0.913788 0
M  V30 2418 H 223.465 3.79817 0.726357 0
M  V30 2419 H 225.154 4.04071 0.384852 0
M  V30 2420 H 225.92 4.38382 -2.07477 0
M  V30 2421 H 221.799 4.52959 -0.857249 0
M  V30 2422 H 225.343 5.62014 -4.13263 0
M  V30 2423 H 221.24 5.76369 -2.90635 0
M  V30 2424 H 222.008 6.63753 -4.78931 0
M  V30 2425 N 224.671 0.411399 1.52136 0
M  V30 2426 C 225.601 -0.404015 2.29978 0
M  V30 2427 C 226.582 -1.04412 1.34284 0
M  V30 2428 O 227.767 -1.0527 1.63192 0
M  V30 2429 C 224.897 -1.5197 3.12286 0
M  V30 2430 C 223.851 -1.00448 4.16046 0
M  V30 2431 C 223.177 -2.21393 4.86712 0
M  V30 2432 C 224.477 -0.0569336 5.22269 0
M  V30 2433 H 226.171 0.245529 2.98392 0
M  V30 2434 H 223.717 0.119525 1.43503 0
M  V30 2435 H 225.67 -2.09715 3.6551 0
M  V30 2436 H 224.394 -2.19716 2.41646 0
M  V30 2437 H 223.053 -0.449421 3.63835 0
M  V30 2438 H 222.701 -2.87699 4.12599 0
M  V30 2439 H 222.401 -1.87571 5.56858 0
M  V30 2440 H 223.925 -2.7974 5.4275 0
M  V30 2441 H 225.339 -0.54325 5.7072 0
M  V30 2442 H 223.736 0.192594 5.99791 0
M  V30 2443 H 224.806 0.887663 4.76706 0
M  V30 2444 N 226.149 -1.5696 0.141893 0
M  V30 2445 C 227.079 -2.19516 -0.795936 0
M  V30 2446 C 228.06 -1.14187 -1.26077 0
M  V30 2447 O 229.245 -1.42511 -1.31925 0
M  V30 2448 C 226.375 -2.81272 -2.03723 0
M  V30 2449 C 225.329 -3.92384 -1.70936 0
M  V30 2450 C 224.655 -4.41052 -3.02287 0
M  V30 2451 C 225.955 -5.13403 -0.959954 0
M  V30 2452 H 227.649 -2.98138 -0.274596 0
M  V30 2453 H 225.195 -1.43406 -0.130636 0
M  V30 2454 H 227.148 -3.237 -2.69808 0
M  V30 2455 H 225.872 -1.99973 -2.58221 0
M  V30 2456 H 224.531 -3.50566 -1.07232 0
M  V30 2457 H 224.179 -3.56582 -3.54765 0
M  V30 2458 H 223.879 -5.15993 -2.81114 0
M  V30 2459 H 225.403 -4.86146 -3.69451 0
M  V30 2460 H 226.817 -5.52706 -1.52279 0
M  V30 2461 H 225.214 -5.94073 -0.848357 0
M  V30 2462 H 226.284 -4.84875 0.0492434 0
M  V30 2463 N 227.627 0.131896 -1.57047 0
M  V30 2464 C 228.867 0.847972 -1.85981 0
M  V30 2465 C 229.231 1.77655 -0.7282 0
M  V30 2466 O 230.432 2.53322 -0.898968 0
M  V30 2467 C 228.703 1.58919 -3.20124 0
M  V30 2468 S 230.262 2.34862 -3.70655 0
M  V30 2469 H 227.08 0.283273 -0.652133 0
M  V30 2470 H 229.682 0.107057 -1.95207 0
M  V30 2471 H 228.386 0.898771 -4.00438 0
M  V30 2472 H 227.917 2.37073 -3.13942 0
M  V30 2473 H 229.932 3.60344 -3.41126 0
M  V30 2474 N 229.106 1.52395 0.401703 0
M  V30 2475 C 230.331 1.70972 1.17403 0
M  V30 2476 C 230.756 0.421615 1.83314 0
M  V30 2477 O 230.114 -0.621564 1.70312 0
M  V30 2478 C 230.162 2.85151 2.20728 0
M  V30 2479 O 229.266 2.51238 3.27037 0
M  V30 2480 H 228.607 0.568927 0.342372 0
M  V30 2481 H 231.137 1.99131 0.469891 0
M  V30 2482 H 231.147 3.10279 2.64936 0
M  V30 2483 H 229.822 3.78603 1.7214 0
M  V30 2484 H 228.399 2.36808 2.88057 0
M  V30 2485 N 230.584 -0.659388 1.43143 0
M  V30 2486 C 231.83 -1.41984 1.45644 0
M  V30 2487 C 232.185 -1.92245 0.0771718 0
M  V30 2488 O 231.478 -1.68976 -0.903205 0
M  V30 2489 C 231.672 -2.62206 2.42864 0
M  V30 2490 C 231.501 -2.23711 3.90107 0
M  V30 2491 C 230.271 -2.12332 4.58523 0
M  V30 2492 C 232.469 -1.84384 4.80112 0
M  V30 2493 N 230.451 -1.67102 5.9072 0
M  V30 2494 C 231.822 -1.5019 6.01534 0
M  V30 2495 C 233.877 -1.71512 4.67427 0
M  V30 2496 C 232.58 -1.04414 7.11681 0
M  V30 2497 C 234.606 -1.27142 5.77572 0
M  V30 2498 C 233.968 -0.938808 6.98116 0
M  V30 2499 H 230.067 -0.515448 0.588079 0
M  V30 2500 H 232.651 -0.759409 1.79279 0
M  V30 2501 H 230.822 -3.25917 2.11265 0
M  V30 2502 H 232.554 -3.28877 2.35843 0
M  V30 2503 H 229.309 -2.31893 4.12944 0
M  V30 2504 H 229.733 -1.46866 6.60878 0
M  V30 2505 H 234.375 -1.95868 3.74694 0
M  V30 2506 H 232.093 -0.788061 8.04248 0
M  V30 2507 H 235.679 -1.17681 5.69774 0
M  V30 2508 H 234.559 -0.6007 7.81896 0
M  V30 2509 N 232.062 -1.29571 -0.897171 0
M  V30 2510 C 233.009 -1.14916 -2.00158 0
M  V30 2511 C 233.979 -0.0418149 -1.66047 0
M  V30 2512 O 235.164 -0.209793 -1.89643 0
M  V30 2513 C 232.304 -0.834307 -3.34863 0
M  V30 2514 C 231.417 -2.02234 -3.8174 0
M  V30 2515 C 230.552 -1.64664 -5.05034 0
M  V30 2516 C 229.591 -2.80033 -5.44286 0
M  V30 2517 N 228.728 -2.42843 -6.58765 0
M  V30 2518 H 233.568 -2.09403 -2.12025 0
M  V30 2519 H 231.105 -1.042 -1.0383 0
M  V30 2520 H 233.063 -0.632436 -4.12379 0
M  V30 2521 H 231.693 0.0736656 -3.22716 0
M  V30 2522 H 230.745 -2.33583 -3.00238 0
M  V30 2523 H 232.057 -2.88673 -4.06779 0
M  V30 2524 H 231.211 -1.4078 -5.9014 0
M  V30 2525 H 229.95 -0.753766 -4.8184 0
M  V30 2526 H 228.955 -3.04596 -4.57713 0
M  V30 2527 H 230.18 -3.69989 -5.6946 0
M  V30 2528 H 228.126 -1.56046 -6.3717 0
M  V30 2529 H 228.043 -3.22815 -6.83613 0
M  V30 2530 H 229.311 -2.22285 -7.47134 0
M  V30 2531 N 233.54 1.10788 -1.12088 0
M  V30 2532 C 234.951 1.64181 -0.88891 0
M  V30 2533 C 235.302 1.87508 0.577498 0
M  V30 2534 O 234.427 1.61434 1.44112 0
M  V30 2535 C 235.022 2.98257 -1.60712 0
M  V30 2536 C 233.581 3.4853 -1.42139 0
M  V30 2537 C 232.728 2.23208 -1.6454 0
M  V30 2538 H 235.679 0.943368 -1.27618 0
M  V30 2539 H 235.7 3.65552 -1.05604 0
M  V30 2540 H 235.212 2.81246 -2.67436 0
M  V30 2541 H 233.313 3.70692 -0.376552 0
M  V30 2542 H 233.426 4.26882 -2.17505 0
M  V30 2543 H 231.79 2.31169 -1.06925 0
M  V30 2544 H 232.573 2.08733 -2.72554 0
M  V30 2545 N 235.018 0.912232 1.28515 0
M  V30 2546 C 236.266 0.543523 1.94654 0
M  V30 2547 C 236.587 -0.9155 1.72173 0
M  V30 2548 O 235.857 -1.64708 1.06058 0
M  V30 2549 H 234.437 0.198017 0.720277 0
M  V30 2550 H 237.099 1.16126 1.56527 0
M  V30 2551 H 236.195 0.736684 3.03281 0
M  V30 2552 N 236.496 -1.42363 0.676048 0
M  V30 2553 C 237.745 -2.00745 0.196037 0
M  V30 2554 C 238.058 -1.54083 -1.20489 0
M  V30 2555 O 239.264 -2.04891 -1.78134 0
M  V30 2556 C 237.72 -3.58651 0.299616 0
M  V30 2557 C 237.328 -4.143 1.70468 0
M  V30 2558 C 239.072 -4.24326 -0.121619 0
M  V30 2559 C 236.979 -5.64574 1.76096 0
M  V30 2560 H 235.909 -0.750787 0.0695301 0
M  V30 2561 H 238.56 -1.63072 0.841412 0
M  V30 2562 H 236.942 -3.93833 -0.413673 0
M  V30 2563 H 238.116 -3.90575 2.44515 0
M  V30 2564 H 236.431 -3.61081 2.07387 0
M  V30 2565 H 239.028 -5.34607 -0.0997362 0
M  V30 2566 H 239.371 -3.99897 -1.15708 0
M  V30 2567 H 239.904 -3.94108 0.540706 0
M  V30 2568 H 236.643 -5.93804 2.77628 0
M  V30 2569 H 236.163 -5.90286 1.06406 0
M  V30 2570 H 237.842 -6.29013 1.51496 0
M  V30 2571 N 237.974 -0.419461 -1.51915 0
M  V30 2572 C 239.222 0.152637 -2.01523 0
M  V30 2573 C 239.543 1.44762 -1.30649 0
M  V30 2574 O 238.813 1.90997 -0.435535 0
M  V30 2575 H 237.393 0.0593966 -0.744635 0
M  V30 2576 H 240.055 -0.558073 -1.86739 0
M  V30 2577 H 239.151 0.341369 -3.10227 0
M  V30 2578 N 239.452 1.56882 -0.150215 0
M  V30 2579 C 240.698 1.96518 0.500834 0
M  V30 2580 C 241.031 1.03527 1.64304 0
M  V30 2581 O 240.306 0.0782751 1.94342 0
M  V30 2582 C 240.589 3.45822 1.00395 0
M  V30 2583 C 240.442 4.49591 -0.136983 0
M  V30 2584 C 241.761 3.97704 1.88467 0
M  V30 2585 H 238.88 0.714535 0.18058 0
M  V30 2586 H 241.522 1.88577 -0.232091 0
M  V30 2587 H 239.672 3.5272 1.62851 0
M  V30 2588 H 241.344 4.5477 -0.77343 0
M  V30 2589 H 239.587 4.26441 -0.795652 0
M  V30 2590 H 240.258 5.51402 0.256815 0
M  V30 2591 H 242.734 3.93304 1.35834 0
M  V30 2592 H 241.61 5.0263 2.20578 0
M  V30 2593 H 241.871 3.40252 2.82279 0
M  V30 2594 N 240.93 -0.123565 1.57115 0
M  V30 2595 C 241.86 -1.15309 2.03042 0
M  V30 2596 C 242.841 -1.43454 0.914061 0
M  V30 2597 O 244.026 -1.53973 1.18347 0
M  V30 2598 C 241.156 -2.48043 2.43089 0
M  V30 2599 C 240.11 -2.3437 3.58127 0
M  V30 2600 C 239.436 -3.72026 3.84059 0
M  V30 2601 C 240.736 -1.80804 4.90007 0
M  V30 2602 H 242.43 -0.771102 2.893 0
M  V30 2603 H 239.976 -0.369479 1.39179 0
M  V30 2604 H 241.929 -3.20311 2.73823 0
M  V30 2605 H 240.653 -2.88122 1.53796 0
M  V30 2606 H 239.312 -1.64551 3.27595 0
M  V30 2607 H 238.96 -4.09582 2.91979 0
M  V30 2608 H 238.66 -3.63732 4.6149 0
M  V30 2609 H 240.184 -4.45806 4.1724 0
M  V30 2610 H 241.598 -2.42886 5.19307 0
M  V30 2611 H 239.995 -1.83343 5.71407 0
M  V30 2612 H 241.065 -0.76528 4.78823 0
M  V30 2613 N 242.408 -1.52605 -0.393616 0
M  V30 2614 C 243.338 -1.80022 -1.48709 0
M  V30 2615 C 244.319 -0.651995 -1.57108 0
M  V30 2616 O 245.504 -0.89913 -1.72132 0
M  V30 2617 C 242.634 -1.96492 -2.86371 0
M  V30 2618 C 241.588 -3.12161 -2.92813 0
M  V30 2619 C 240.914 -3.13877 -4.3288 0
M  V30 2620 C 242.214 -4.51322 -2.6288 0
M  V30 2621 H 243.908 -2.71589 -1.26015 0
M  V30 2622 H 241.454 -1.30684 -0.604778 0
M  V30 2623 H 243.407 -2.14255 -3.62867 0
M  V30 2624 H 242.131 -1.01611 -3.10391 0
M  V30 2625 H 240.79 -2.94173 -2.18764 0
M  V30 2626 H 240.438 -2.16687 -4.53933 0
M  V30 2627 H 240.138 -3.91576 -4.38112 0
M  V30 2628 H 241.662 -3.33789 -5.1129 0
M  V30 2629 H 243.076 -4.69435 -3.29096 0
M  V30 2630 H 241.473 -5.31053 -2.79468 0
M  V30 2631 H 242.543 -4.58353 -1.58242 0
M  V30 2632 N 243.887 0.651787 -1.4349 0
M  V30 2633 C 245.164 1.40909 -1.35661 0
M  V30 2634 C 245.544 2.11099 -0.00511733 0
M  V30 2635 O 244.892 2.04892 1.0115 0
M  V30 2636 C 245.102 2.3926 -2.54078 0
M  V30 2637 C 246.45 3.03217 -2.97228 0
M  V30 2638 O 247.474 2.49588 -2.54135 0
M  V30 2639 O 246.333 4.00455 -3.71885 0
M  V30 2640 H 243.427 0.629625 -0.536191 0
M  V30 2641 H 245.973 0.678575 -1.55542 0
M  V30 2642 H 244.745 1.86352 -3.44076 0
M  V30 2643 H 244.368 3.1976 -2.36303 0
M  V30 2644 N 245.365 1.30045 0.890287 0
M  V30 2645 C 246.593 1.21472 1.67487 0
M  V30 2646 C 247.008 -0.223241 1.87476 0
M  V30 2647 O 246.365 -1.14828 1.41847 0
M  V30 2648 C 246.416 1.93394 3.05419 0
M  V30 2649 O 246.137 3.31576 2.86337 0
M  V30 2650 C 247.638 1.91414 3.99844 0
M  V30 2651 H 244.858 0.420604 0.522813 0
M  V30 2652 H 247.402 1.7158 1.11268 0
M  V30 2653 H 245.557 1.47099 3.58386 0
M  V30 2654 H 245.971 3.67929 3.73802 0
M  V30 2655 H 247.445 2.46285 4.94012 0
M  V30 2656 H 247.922 0.891833 4.3005 0
M  V30 2657 H 248.528 2.37496 3.52811 0
M  V30 2658 N 246.843 -1.10192 1.12674 0
M  V30 2659 C 247.791 -2.18694 0.792196 0
M  V30 2660 C 248.785 -1.67938 -0.222058 0
M  V30 2661 O 249.991 -1.79822 -0.0800074 0
M  V30 2662 H 246.366 -0.713223 0.238364 0
M  V30 2663 H 248.337 -2.44149 1.71564 0
M  V30 2664 C 247.086 -3.46682 0.265859 0
M  V30 2665 H 246.409 -3.86101 1.03761 0
M  V30 2666 H 247.849 -4.23942 0.0701128 0
M  V30 2667 C 246.308 -3.21506 -1.00675 0
M  V30 2668 O 246.838 -3.43408 -2.08408 0
M  V30 2669 N 245.044 -2.75158 -0.934692 0
M  V30 2670 H 244.591 -2.57535 -0.0578604 0
M  V30 2671 H 244.549 -2.58691 -1.7868 0
M  V30 2672 N 248.321 -0.919034 -1.28029 0
M  V30 2673 C 249.551 -0.570143 -1.98577 0
M  V30 2674 C 249.959 0.854172 -1.68821 0
M  V30 2675 O 249.302 1.57807 -0.940351 0
M  V30 2676 C 249.364 -0.705734 -3.52505 0
M  V30 2677 C 249.028 -2.10057 -4.05863 0
M  V30 2678 C 250.025 -3.07385 -4.19298 0
M  V30 2679 C 247.71 -2.41517 -4.40426 0
M  V30 2680 C 249.704 -4.34287 -4.66555 0
M  V30 2681 C 247.391 -3.68657 -4.87376 0
M  V30 2682 C 248.389 -4.64856 -5.00398 0
M  V30 2683 O 248.077 -5.89735 -5.46322 0
M  V30 2684 H 247.809 -0.215592 -0.6407 0
M  V30 2685 H 250.363 -1.23583 -1.64062 0
M  V30 2686 H 248.593 0.0170414 -3.86696 0
M  V30 2687 H 250.282 -0.363172 -4.04272 0
M  V30 2688 H 251.048 -2.84398 -3.92865 0
M  V30 2689 H 246.927 -1.67389 -4.29537 0
M  V30 2690 H 250.471 -5.09377 -4.76635 0
M  V30 2691 H 246.368 -3.91466 -5.13249 0
M  V30 2692 H 247.136 -5.92599 -5.64596 0
M  V30 2693 N 249.799 1.42003 -0.683588 0
M  V30 2694 C 250.747 2.326 0.000815408 0
M  V30 2695 C 251.741 1.50308 0.781278 0
M  V30 2696 O 252.947 1.66322 0.688251 0
M  V30 2697 H 249.322 0.751758 0.0190616 0
M  V30 2698 H 251.293 2.88011 -0.780528 0
M  V30 2699 C 250.042 3.34978 0.93195 0
M  V30 2700 H 249.365 3.98345 0.340817 0
M  V30 2701 H 250.805 4.00936 1.37936 0
M  V30 2702 C 249.264 2.67925 2.04249 0
M  V30 2703 O 249.794 2.51788 3.12995 0
M  V30 2704 N 248 2.2681 1.81675 0
M  V30 2705 H 247.547 2.40135 0.932363 0
M  V30 2706 H 247.505 1.8228 2.56167 0
M  V30 2707 N 251.277 0.427512 1.51691 0
M  V30 2708 C 252.207 -0.3796 2.30394 0
M  V30 2709 C 253.188 -1.02982 1.35384 0
M  V30 2710 O 254.373 -1.03534 1.643 0
M  V30 2711 C 251.503 -1.48649 3.1388 0
M  V30 2712 C 250.457 -0.960294 4.17088 0
M  V30 2713 C 249.783 -2.16219 4.89033 0
M  V30 2714 C 251.083 -0.00153679 5.223 0
M  V30 2715 H 252.777 0.277164 2.98114 0
M  V30 2716 H 250.323 0.134739 1.43368 0
M  V30 2717 H 252.276 -2.05826 3.67714 0
M  V30 2718 H 251 -2.1714 2.43962 0
M  V30 2719 H 249.659 -0.410806 3.64291 0
M  V30 2720 H 249.307 -2.83307 4.15628 0
M  V30 2721 H 249.007 -1.81654 5.58816 0
M  V30 2722 H 250.531 -2.73968 5.45687 0
M  V30 2723 H 251.945 -0.482687 5.71264 0
M  V30 2724 H 250.342 0.256199 5.99553 0
M  V30 2725 H 251.412 0.938174 4.75738 0
M  V30 2726 N 252.755 -1.56801 0.158532 0
M  V30 2727 C 254.002 -1.9649 -0.489679 0
M  V30 2728 C 254.33 -1.04394 -1.6411 0
M  V30 2729 O 253.585 -0.0754401 -1.95555 0
M  V30 2730 C 253.884 -3.4235 -1.02623 0
M  V30 2731 C 253.55 -4.50899 0.00794526 0
M  V30 2732 C 252.212 -4.80312 0.292207 0
M  V30 2733 C 254.564 -5.16333 0.710584 0
M  V30 2734 C 251.892 -5.72461 1.28472 0
M  V30 2735 C 254.244 -6.09553 1.69199 0
M  V30 2736 C 252.908 -6.37339 1.98383 0
M  V30 2737 H 252.178 -0.719009 -0.179186 0
M  V30 2738 H 254.825 -1.8989 0.247798 0
M  V30 2739 H 253.13 -3.45838 -1.84128 0
M  V30 2740 H 254.827 -3.70393 -1.53656 0
M  V30 2741 H 251.417 -4.28015 -0.22379 0
M  V30 2742 H 255.601 -4.93732 0.504174 0
M  V30 2743 H 250.857 -5.92278 1.51714 0
M  V30 2744 H 255.031 -6.59327 2.24189 0
M  V30 2745 H 252.658 -7.08546 2.7544 0
M  V30 2746 N 254.233 0.115231 -1.57178 0
M  V30 2747 C 255.463 0.835224 -1.88964 0
M  V30 2748 C 255.871 1.73774 -0.74829 0
M  V30 2749 O 255.214 1.81401 0.289739 0
M  V30 2750 C 255.276 1.7178 -3.15804 0
M  V30 2751 C 254.94 0.989198 -4.46166 0
M  V30 2752 C 255.937 0.328263 -5.18863 0
M  V30 2753 C 253.622 0.969256 -4.9286 0
M  V30 2754 C 255.616 -0.342873 -6.36477 0
M  V30 2755 C 253.303 0.294324 -6.10391 0
M  V30 2756 C 254.301 -0.360582 -6.82048 0
M  V30 2757 O 253.989 -1.02474 -7.97342 0
M  V30 2758 H 253.721 0.245197 -0.629964 0
M  V30 2759 H 256.275 0.10303 -2.05141 0
M  V30 2760 H 254.505 2.49173 -2.95719 0
M  V30 2761 H 256.194 2.31255 -3.33581 0
M  V30 2762 H 256.96 0.335263 -4.8384 0
M  V30 2763 H 252.839 1.46844 -4.36987 0
M  V30 2764 H 256.383 -0.854629 -6.92345 0
M  V30 2765 H 252.28 0.285099 -6.4487 0
M  V30 2766 H 253.048 -0.929594 -8.13204 0
M  V30 2767 N 255.711 1.52812 0.385517 0
M  V30 2768 C 256.957 1.69225 1.12847 0
M  V30 2769 C 257.312 0.42864 1.87564 0
M  V30 2770 O 256.605 -0.57779 1.8268 0
M  V30 2771 C 256.799 2.86856 2.13187 0
M  V30 2772 C 256.628 4.24535 1.48325 0
M  V30 2773 C 255.398 4.89701 1.24585 0
M  V30 2774 C 257.596 5.05794 0.931501 0
M  V30 2775 N 255.578 6.11353 0.558644 0
M  V30 2776 C 256.949 6.1888 0.372552 0
M  V30 2777 C 259.004 4.90963 0.828248 0
M  V30 2778 C 257.707 7.18757 -0.279556 0
M  V30 2779 C 259.733 5.91095 0.189956 0
M  V30 2780 C 259.095 7.03489 -0.358207 0
M  V30 2781 H 255.194 0.67268 0.39878 0
M  V30 2782 H 257.778 1.9017 0.417528 0
M  V30 2783 H 255.949 2.67484 2.81614 0
M  V30 2784 H 257.681 2.92188 2.80014 0
M  V30 2785 H 254.436 4.48485 1.52178 0
M  V30 2786 H 254.86 6.76606 0.230983 0
M  V30 2787 H 259.502 4.04274 1.23784 0
M  V30 2788 H 257.22 8.05052 -0.701152 0
M  V30 2789 H 260.806 5.81694 0.111264 0
M  V30 2790 H 259.686 7.79642 -0.844314 0
M  V30 2791 N 257.189 -0.644168 1.43834 0
M  V30 2792 C 258.419 -1.42939 1.49171 0
M  V30 2793 C 258.827 -1.88874 0.111048 0
M  V30 2794 O 258.17 -1.60656 -0.8908 0
M  V30 2795 C 258.232 -2.69151 2.38324 0
M  V30 2796 C 257.896 -2.45097 3.85715 0
M  V30 2797 C 258.893 -2.07747 4.76589 0
M  V30 2798 C 256.578 -2.59141 4.30292 0
M  V30 2799 C 258.572 -1.8475 6.10038 0
M  V30 2800 C 256.259 -2.35759 5.63792 0
M  V30 2801 C 257.257 -1.9862 6.53482 0
M  V30 2802 O 256.945 -1.75489 7.84512 0
M  V30 2803 H 256.677 -0.445271 0.508635 0
M  V30 2804 H 259.231 -0.79621 1.8934 0
M  V30 2805 H 257.461 -3.3506 1.93058 0
M  V30 2806 H 259.15 -3.31123 2.3476 0
M  V30 2807 H 259.916 -1.96465 4.43426 0
M  V30 2808 H 255.795 -2.87022 3.60749 0
M  V30 2809 H 259.339 -1.55686 6.80006 0
M  V30 2810 H 255.236 -2.46646 5.9652 0
M  V30 2811 H 256.004 -1.89841 7.9618 0
M  V30 2812 N 258.668 -1.30515 -0.883378 0
M  V30 2813 C 259.578 -1.18959 -2.02203 0
M  V30 2814 C 260.594 -0.109172 -1.73657 0
M  V30 2815 O 261.77 -0.324413 -1.9877 0
M  V30 2816 C 258.835 -0.883871 -3.35244 0
M  V30 2817 C 257.896 -2.04982 -3.77201 0
M  V30 2818 C 257.129 -1.75859 -5.03894 0
M  V30 2819 O 257.352 -0.687276 -5.66244 0
M  V30 2820 O 256.286 -2.61146 -5.42297 0
M  V30 2821 H 260.112 -2.14616 -2.1488 0
M  V30 2822 H 257.697 -1.10124 -1.0096 0
M  V30 2823 H 259.579 -0.728644 -4.15053 0
M  V30 2824 H 258.254 0.0427798 -3.23672 0
M  V30 2825 H 257.161 -2.26038 -2.9809 0
M  V30 2826 H 258.494 -2.95825 -3.93381 0
M  V30 2827 N 260.146 1.09593 -1.13257 0
M  V30 2828 C 261.394 1.81375 -0.891492 0
M  V30 2829 C 261.715 1.86049 0.584009 0
M  V30 2830 O 260.985 1.34481 1.42449 0
M  V30 2831 H 259.565 0.671708 -0.326828 0
M  V30 2832 H 262.227 1.3256 -1.42877 0
M  V30 2833 H 261.323 2.84612 -1.28071 0
M  V30 2834 N 261.624 0.925811 1.2754 0
M  V30 2835 C 262.554 0.440748 2.29303 0
M  V30 2836 C 263.535 -0.497971 1.62648 0
M  V30 2837 O 264.72 -0.403126 1.8997 0
M  V30 2838 C 261.85 -0.309048 3.45922 0
M  V30 2839 C 260.804 0.54166 4.24559 0
M  V30 2840 C 260.13 -0.337191 5.33636 0
M  V30 2841 C 261.43 1.80516 4.90114 0
M  V30 2842 H 263.124 1.29121 2.70126 0
M  V30 2843 H 260.67 0.622323 1.29858 0
M  V30 2844 H 262.623 -0.659315 4.1621 0
M  V30 2845 H 261.347 -1.19352 3.04011 0
M  V30 2846 H 260.006 0.874609 3.56014 0
M  V30 2847 H 259.654 -1.22056 4.87966 0
M  V30 2848 H 259.354 0.228497 5.87156 0
M  V30 2849 H 260.878 -0.683072 6.06767 0
M  V30 2850 H 262.292 1.52307 5.52698 0
M  V30 2851 H 260.689 2.3142 5.53683 0
M  V30 2852 H 261.759 2.52581 4.13921 0
M  V30 2853 N 263.102 -1.41638 0.69111 0
M  V30 2854 C 264.379 -1.95036 0.148421 0
M  V30 2855 C 264.759 -1.63072 -1.34055 0
M  V30 2856 O 264.107 -0.93538 -2.08478 0
M  V30 2857 C 264.317 -3.46279 0.434951 0
M  V30 2858 C 265.665 -4.23069 0.360275 0
M  V30 2859 O 266.689 -3.54277 0.369613 0
M  V30 2860 O 265.548 -5.45583 0.316534 0
M  V30 2861 H 262.642 -0.826908 0.0123654 0
M  V30 2862 H 265.188 -1.5138 0.766963 0
M  V30 2863 H 263.96 -3.6281 1.46576 0
M  V30 2864 H 263.583 -3.97019 -0.214787 0
M  V30 2865 N 264.58 -0.43555 -1.51462 0
M  V30 2866 C 265.53 0.394701 -2.24558 0
M  V30 2867 C 266.514 0.99157 -1.26715 0
M  V30 2868 O 267.706 0.910007 -1.51815 0
M  V30 2869 C 264.835 1.4963 -3.08975 0
M  V30 2870 C 263.921 0.908912 -4.14246 0
M  V30 2871 N 264.312 0.0505335 -5.05775 0
M  V30 2872 C 262.61 1.17668 -4.30198 0
M  V30 2873 C 263.311 -0.279161 -5.8103 0
M  V30 2874 N 262.287 0.336767 -5.42556 0
M  V30 2875 H 266.089 -0.267106 -2.92684 0
M  V30 2876 H 263.603 -0.247518 -1.60503 0
M  V30 2877 H 265.6 2.10394 -3.59917 0
M  V30 2878 H 264.26 2.16046 -2.42393 0
M  V30 2879 H 265.271 -0.31577 -5.16936 0
M  V30 2880 H 261.948 1.83847 -3.74842 0
M  V30 2881 H 263.338 -0.977553 -6.64751 0
M  V30 2882 N 266.058 1.56714 -0.166846 0
M  V30 2883 C 267.021 2.16539 0.751232 0
M  V30 2884 C 268.021 1.11228 1.16125 0
M  V30 2885 O 269.211 1.36765 1.07894 0
M  V30 2886 C 266.343 2.74462 2.02196 0
M  V30 2887 H 267.536 2.99013 0.230499 0
M  V30 2888 H 265.089 1.56081 0.0826982 0
M  V30 2889 H 265.824 1.95709 2.58589 0
M  V30 2890 H 265.609 3.51527 1.73698 0
M  V30 2891 H 267.099 3.20489 2.67725 0
M  V30 2892 N 267.536 -0.106894 1.57237 0
M  V30 2893 C 268.466 -1.13148 2.04254 0
M  V30 2894 C 269.447 -1.42476 0.929224 0
M  V30 2895 O 270.632 -1.52709 1.19973 0
M  V30 2896 C 267.762 -2.4545 2.45706 0
M  V30 2897 C 266.716 -2.30558 3.60592 0
M  V30 2898 C 266.042 -3.67931 3.87983 0
M  V30 2899 C 267.342 -1.75597 4.91897 0
M  V30 2900 H 269.036 -0.740374 2.90101 0
M  V30 2901 H 266.582 -0.354696 1.39563 0
M  V30 2902 H 268.535 -3.17389 2.77205 0
M  V30 2903 H 267.259 -2.86475 1.56843 0
M  V30 2904 H 265.918 -1.61067 3.29322 0
M  V30 2905 H 265.566 -4.06462 2.96306 0
M  V30 2906 H 265.266 -3.58817 4.65322 0
M  V30 2907 H 266.79 -4.41356 4.21945 0
M  V30 2908 H 268.204 -2.37364 5.21854 0
M  V30 2909 H 266.601 -1.77272 5.73319 0
M  V30 2910 H 267.671 -0.714451 4.79608 0
M  V30 2911 N 269.014 -1.53014 -0.377408 0
M  V30 2912 C 269.946 -1.74884 -1.48149 0
M  V30 2913 C 270.959 -0.629433 -1.5014 0
M  V30 2914 O 272.148 -0.905416 -1.53833 0
M  V30 2915 C 269.248 -1.80299 -2.86959 0
M  V30 2916 C 268.421 -3.09776 -3.08801 0
M  V30 2917 C 267.48 -3.06586 -4.27658 0
M  V30 2918 O 266.506 -3.80419 -4.23403 0
M  V30 2919 N 267.708 -2.26578 -5.34455 0
M  V30 2920 H 270.473 -2.70147 -1.29771 0
M  V30 2921 H 268.034 -1.51646 -0.56703 0
M  V30 2922 H 270.026 -1.75657 -3.64591 0
M  V30 2923 H 268.596 -0.92372 -2.98641 0
M  V30 2924 H 267.816 -3.27815 -2.18931 0
M  V30 2925 H 269.104 -3.95366 -3.20255 0
M  V30 2926 H 268.502 -1.66081 -5.40771 0
M  V30 2927 H 267.059 -2.27766 -6.10709 0
M  V30 2928 N 270.492 0.636531 -1.44174 0
M  V30 2929 C 271.732 1.40781 -1.48189 0
M  V30 2930 C 272.096 1.91688 -0.10944 0
M  V30 2931 O 273.297 2.68789 -0.0242741 0
M  V30 2932 C 271.568 2.54575 -2.50851 0
M  V30 2933 S 273.127 3.4284 -2.73873 0
M  V30 2934 H 269.945 0.480345 -0.524204 0
M  V30 2935 H 272.547 0.737416 -1.81059 0
M  V30 2936 H 271.251 2.15478 -3.49281 0
M  V30 2937 H 270.782 3.26447 -2.19536 0
M  V30 2938 H 272.797 4.51846 -2.05059 0
M  V30 2939 N 271.97 1.30982 0.876444 0
M  V30 2940 C 273.216 1.20474 1.63138 0
M  V30 2941 C 273.549 -0.238096 1.92735 0
M  V30 2942 O 272.824 -1.1692 1.55435 0
M  V30 2943 C 273.107 2.04244 2.96574 0
M  V30 2944 C 272.96 3.56793 2.73896 0
M  V30 2945 C 274.279 1.88684 3.97601 0
M  V30 2946 H 271.398 0.439001 0.591985 0
M  V30 2947 H 274.04 1.60704 1.01361 0
M  V30 2948 H 272.19 1.70063 3.493 0
M  V30 2949 H 273.862 4.01077 2.27892 0
M  V30 2950 H 272.105 3.80548 2.08245 0
M  V30 2951 H 272.776 4.10706 3.68815 0
M  V30 2952 H 275.252 2.18584 3.54062 0
M  V30 2953 H 274.128 2.4961 4.88862 0
M  V30 2954 H 274.389 0.848343 4.33884 0
M  V30 2955 N 273.449 -1.08991 1.13837 0
M  V30 2956 C 274.726 -1.77863 0.813876 0
M  V30 2957 C 275.106 -1.99375 -0.693746 0
M  V30 2958 O 274.454 -1.59875 -1.63255 0
M  V30 2959 C 274.664 -3.0986 1.60586 0
M  V30 2960 C 276.012 -3.84493 1.8014 0
M  V30 2961 O 277.036 -3.19624 1.57222 0
M  V30 2962 O 275.895 -5.00957 2.18413 0
M  V30 2963 H 272.989 -0.771589 0.297624 0
M  V30 2964 H 275.535 -1.15507 1.24323 0
M  V30 2965 H 274.307 -2.89715 2.63022 0
M  V30 2966 H 273.93 -3.79942 1.17173 0
M  V30 2967 N 274.927 -0.932562 -1.27047 0
M  V30 2968 C 276.157 -0.591173 -1.97961 0
M  V30 2969 C 276.565 0.836219 -1.69717 0
M  V30 2970 O 275.908 1.56801 -0.957036 0
M  V30 2971 C 275.97 -0.743082 -3.51736 0
M  V30 2972 C 275.634 -2.1435 -4.03613 0
M  V30 2973 C 276.631 -3.11815 -4.16014 0
M  V30 2974 C 274.316 -2.46175 -4.37839 0
M  V30 2975 C 276.31 -4.39211 -4.61923 0
M  V30 2976 C 273.997 -3.73806 -4.83438 0
M  V30 2977 C 274.995 -4.70137 -4.95439 0
M  V30 2978 O 274.683 -5.95496 -5.40037 0
M  V30 2979 H 274.415 -0.222375 -0.638377 0
M  V30 2980 H 276.969 -1.25317 -1.62742 0
M  V30 2981 H 275.199 -0.0239739 -3.86693 0
M  V30 2982 H 276.888 -0.40603 -4.03864 0
M  V30 2983 H 277.654 -2.88549 -3.89826 0
M  V30 2984 H 273.533 -1.71936 -4.27737 0
M  V30 2985 H 277.077 -5.14404 -4.71205 0
M  V30 2986 H 272.974 -3.96888 -5.09068 0
M  V30 2987 H 273.742 -5.98554 -5.58279 0
M  V30 2988 N 276.405 1.4127 -0.698611 0
M  V30 2989 C 277.654 2.00408 -0.227949 0
M  V30 2990 C 277.967 1.55981 1.18023 0
M  V30 2991 O 279.173 2.07699 1.74852 0
M  V30 2992 C 277.629 3.58129 -0.356636 0
M  V30 2993 C 277.237 4.11536 -1.77037 0
M  V30 2994 C 278.981 4.24466 0.0540969 0
M  V30 2995 C 276.888 5.61701 -1.85055 0
M  V30 2996 H 275.818 0.749586 -0.0814657 0
M  V30 2997 H 278.469 1.61713 -0.867249 0
M  V30 2998 H 276.851 3.94442 0.350965 0
M  V30 2999 H 278.025 3.86636 -2.50698 0
M  V30 3000 H 276.34 3.57736 -2.13105 0
M  V30 3001 H 278.937 5.34698 0.0146723 0
M  V30 3002 H 279.28 4.01687 1.09332 0
M  V30 3003 H 279.813 3.93198 -0.603337 0
M  V30 3004 H 276.552 5.89312 -2.8704 0
M  V30 3005 H 276.072 5.88519 -1.15783 0
M  V30 3006 H 277.751 6.26524 -1.61484 0
M  V30 3007 N 277.883 0.443576 1.51229 0
M  V30 3008 C 278.83 -0.364716 2.279 0
M  V30 3009 C 279.8 -1.0114 1.31757 0
M  V30 3010 O 280.985 -1.02912 1.60667 0
M  V30 3011 C 278.125 -1.45644 3.12861 0
M  V30 3012 C 277.238 -0.827269 4.24005 0
M  V30 3013 C 276.373 -1.89456 4.96266 0
M  V30 3014 C 275.412 -1.24416 5.99322 0
M  V30 3015 N 274.549 -2.25309 6.64966 0
M  V30 3016 H 279.389 0.295464 2.96532 0
M  V30 3017 H 276.926 0.157554 1.46254 0
M  V30 3018 H 278.884 -2.10076 3.6045 0
M  V30 3019 H 277.514 -2.08616 2.46331 0
M  V30 3020 H 276.566 -0.0710839 3.80334 0
M  V30 3021 H 277.878 -0.312481 4.9782 0
M  V30 3022 H 277.032 -2.61535 5.47434 0
M  V30 3023 H 275.771 -2.4431 4.22095 0
M  V30 3024 H 274.776 -0.508868 5.4744 0
M  V30 3025 H 276.001 -0.702882 6.75453 0
M  V30 3026 H 273.947 -2.79231 5.93604 0
M  V30 3027 H 273.864 -1.78739 7.34567 0
M  V30 3028 H 275.132 -2.96853 7.20763 0
M  V30 3029 N 279.361 -1.56624 0.175154 0
M  V30 3030 C 280.324 -2.16934 -0.739738 0
M  V30 3031 C 281.324 -1.11842 -1.15533 0
M  V30 3032 O 282.514 -1.37335 -1.07167 0
M  V30 3033 C 279.646 -2.75531 -2.00738 0
M  V30 3034 H 280.839 -2.99131 -0.214639 0
M  V30 3035 H 278.392 -1.56123 -0.0744197 0
M  V30 3036 H 279.127 -1.97078 -2.57548 0
M  V30 3037 H 278.912 -3.52444 -1.71831 0
M  V30 3038 H 280.402 -3.21904 -2.66021 0
M  V30 3039 N 280.839 0.0985539 -1.57292 0
M  V30 3040 C 282.116 0.834155 -1.76921 0
M  V30 3041 C 282.496 1.97101 -0.755928 0
M  V30 3042 O 281.844 2.27474 0.216245 0
M  V30 3043 C 282.054 1.33194 -3.22584 0
M  V30 3044 C 283.402 1.77611 -3.85668 0
M  V30 3045 O 284.426 1.42825 -3.26312 0
M  V30 3046 O 283.285 2.4192 -4.90038 0
M  V30 3047 H 280.379 0.397628 -0.725135 0
M  V30 3048 H 282.925 0.0807044 -1.69508 0
M  V30 3049 H 281.697 0.517248 -3.87866 0
M  V30 3050 H 281.32 2.1475 -3.34616 0
M  V30 3051 N 282.317 1.53212 0.369288 0
M  V30 3052 C 283.565 1.68881 1.11012 0
M  V30 3053 C 283.886 0.441285 1.89941 0
M  V30 3054 O 283.156 -0.544623 1.88177 0
M  V30 3055 H 281.736 0.622569 0.412816 0
M  V30 3056 H 284.398 1.90391 0.416802 0
M  V30 3057 H 283.494 2.54822 1.80201 0
M  V30 3058 N 283.795 -0.628877 1.44509 0
M  V30 3059 C 284.727 -1.754 1.47538 0
M  V30 3060 C 285.74 -1.58575 0.368506 0
M  V30 3061 O 286.929 -1.66847 0.634376 0
M  V30 3062 C 284.029 -3.1315 1.29577 0
M  V30 3063 C 283.202 -3.56413 2.53551 0
M  V30 3064 C 282.261 -4.7305 2.30457 0
M  V30 3065 O 281.287 -4.81247 3.03957 0
M  V30 3066 N 282.489 -5.64903 1.3366 0
M  V30 3067 H 285.254 -1.73272 2.44534 0
M  V30 3068 H 282.815 -0.813512 1.39977 0
M  V30 3069 H 284.807 -3.88902 1.11971 0
M  V30 3070 H 283.377 -3.09908 0.409371 0
M  V30 3071 H 282.597 -2.70847 2.86419 0
M  V30 3072 H 283.885 -3.82071 3.36005 0
M  V30 3073 H 283.283 -5.60975 0.729604 0
M  V30 3074 H 281.84 -6.40275 1.22032 0
M  V30 3075 N 285.273 -1.31445 -0.869486 0
M  V30 3076 C 286.221 -1.19067 -1.99814 0
M  V30 3077 C 287.215 -0.0988569 -1.69111 0
M  V30 3078 O 288.421 -0.260781 -1.78101 0
M  V30 3079 H 284.796 -0.368677 -0.655425 0
M  V30 3080 H 286.767 -2.14555 -2.07385 0
M  V30 3081 C 285.516 -0.915323 -3.35436 0
M  V30 3082 H 284.839 -1.74759 -3.59582 0
M  V30 3083 H 286.279 -0.868895 -4.15001 0
M  V30 3084 C 284.738 0.381928 -3.34728 0
M  V30 3085 O 285.268 1.39857 -3.76567 0
M  V30 3086 N 283.474 0.398633 -2.87853 0
M  V30 3087 H 283.021 -0.429186 -2.54 0
M  V30 3088 H 282.979 1.26651 -2.87762 0
M  V30 3089 N 286.751 1.08385 -1.14413 0
M  V30 3090 C 288 1.80153 -0.907076 0
M  V30 3091 C 288.313 1.87176 0.567851 0
M  V30 3092 O 289.519 2.55359 0.922172 0
M  V30 3093 C 287.975 3.23687 -1.57336 0
M  V30 3094 C 287.583 3.24897 -3.08457 0
M  V30 3095 C 289.327 4.00136 -1.41744 0
M  V30 3096 C 287.234 4.6302 -3.67921 0
M  V30 3097 H 286.164 0.675139 -0.335714 0
M  V30 3098 H 288.815 1.21733 -1.37307 0
M  V30 3099 H 287.197 3.82234 -1.03505 0
M  V30 3100 H 288.371 2.76055 -3.68958 0
M  V30 3101 H 286.686 2.61943 -3.2369 0
M  V30 3102 H 289.283 5.02201 -1.83572 0
M  V30 3103 H 289.626 4.14709 -0.363576 0
M  V30 3104 H 290.159 3.48058 -1.92614 0
M  V30 3105 H 286.898 4.5365 -4.73161 0
M  V30 3106 H 286.418 5.12143 -3.12201 0
M  V30 3107 H 288.097 5.31994 -3.68227 0
M  V30 3108 N 288.23 0.939286 1.26551 0
M  V30 3109 C 289.478 0.58469 1.93457 0
M  V30 3110 C 289.799 -0.878774 1.74076 0
M  V30 3111 O 289.069 -1.62421 1.09528 0
M  V30 3112 H 287.649 0.21325 0.715914 0
M  V30 3113 H 290.311 1.1942 1.54029 0
M  V30 3114 H 289.407 0.800849 3.0165 0
M  V30 3115 N 289.708 -1.40897 0.706093 0
M  V30 3116 C 290.948 -2.02916 0.245827 0
M  V30 3117 C 291.312 -1.54751 -1.13649 0
M  V30 3118 O 292.513 -2.08768 -1.69321 0
M  V30 3119 C 290.784 -3.56031 0.312537 0
M  V30 3120 S 292.343 -4.38741 -0.0721388 0
M  V30 3121 H 289.161 -0.704186 0.0982007 0
M  V30 3122 H 291.763 -1.72168 0.926207 0
M  V30 3123 H 290.467 -3.88579 1.32039 0
M  V30 3124 H 289.998 -3.91495 -0.386641 0
M  V30 3125 H 292.013 -4.78952 -1.29692 0
M  V30 3126 N 291.186 -0.45159 -1.50991 0
M  V30 3127 C 292.602 -0.104647 -1.59257 0
M  V30 3128 C 292.802 1.38728 -1.4614 0
M  V30 3129 O 291.858 2.15866 -1.30989 0
M  V30 3130 C 293.171 -0.637468 -2.93865 0
M  V30 3131 C 294.719 -0.599166 -3.07212 0
M  V30 3132 C 295.194 -1.1092 -4.44366 0
M  V30 3133 N 296.685 -1.06778 -4.50725 0
M  V30 3134 C 297.42 -1.43314 -5.55201 0
M  V30 3135 N 296.916 -1.87204 -6.67028 0
M  V30 3136 N 298.709 -1.3504 -5.45638 0
M  V30 3137 H 290.86 -1.42214 -1.57762 0
M  V30 3138 H 293.123 -0.586921 -0.744465 0
M  V30 3139 H 292.829 -1.68187 -3.08879 0
M  V30 3140 H 292.703 -0.0702139 -3.77135 0
M  V30 3141 H 295.09 0.436277 -2.91857 0
M  V30 3142 H 295.171 -1.20299 -2.25747 0
M  V30 3143 H 294.815 -2.14318 -4.60467 0
M  V30 3144 H 294.745 -0.481773 -5.24392 0
M  V30 3145 H 297.236 -0.745643 -3.70471 0
M  V30 3146 H 297.549 -2.13282 -7.42786 0
M  V30 3147 H 295.894 -1.91142 -6.68199 0
M  V30 3148 H 299.085 -1.00607 -4.57161 0
M  V30 3149 H 299.258 -1.63841 -6.26945 0
M  V30 3150 N 292.664 1.56529 -0.183458 0
M  V30 3151 C 293.911 1.97244 0.458357 0
M  V30 3152 C 294.239 1.06992 1.62428 0
M  V30 3153 O 293.494 0.106542 1.9541 0
M  V30 3154 C 293.793 3.43939 0.971637 0
M  V30 3155 C 293.459 4.5083 -0.0796784 0
M  V30 3156 C 292.121 4.79786 -0.368584 0
M  V30 3157 C 294.473 5.15138 -0.792638 0
M  V30 3158 C 291.801 5.70345 -1.37563 0
M  V30 3159 C 294.153 6.06784 -1.78875 0
M  V30 3160 C 292.817 6.34102 -2.08497 0
M  V30 3161 H 292.087 0.721768 0.167725 0
M  V30 3162 H 294.734 1.89472 -0.277976 0
M  V30 3163 H 293.039 3.48724 1.78602 0
M  V30 3164 H 294.736 3.72791 1.47744 0
M  V30 3165 H 291.326 4.28317 0.155668 0
M  V30 3166 H 295.51 4.92868 -0.582659 0
M  V30 3167 H 290.766 5.89789 -1.61118 0
M  V30 3168 H 294.94 6.55677 -2.3465 0
M  V30 3169 H 292.567 7.04074 -2.86678 0
M  V30 3170 N 294.142 -0.090211 1.57342 0
M  V30 3171 C 295.553 -0.644173 1.75235 0
M  V30 3172 C 295.904 -1.78865 0.806335 0
M  V30 3173 O 295.029 -2.16395 -0.0140128 0
M  V30 3174 C 295.624 -1.17532 3.1776 0
M  V30 3175 C 294.183 -1.67531 3.37061 0
M  V30 3176 C 293.33 -0.58693 2.71017 0
M  V30 3177 H 296.281 0.135884 1.58117 0
M  V30 3178 H 296.302 -2.04455 3.20902 0
M  V30 3179 H 295.814 -0.342138 3.86589 0
M  V30 3180 H 293.915 -2.53234 2.73319 0
M  V30 3181 H 294.028 -1.76493 4.45406 0
M  V30 3182 H 292.392 -1.02756 2.33052 0
M  V30 3183 H 293.175 0.235758 3.4249 0
M  V30 3184 N 295.62 -1.53406 -0.361157 0
M  V30 3185 C 296.85 -1.73465 -1.1222 0
M  V30 3186 C 297.258 -0.465486 -1.83384 0
M  V30 3187 O 296.601 0.571611 -1.7458 0
M  V30 3188 C 296.663 -2.84834 -2.19339 0
M  V30 3189 C 296.327 -4.25038 -1.67903 0
M  V30 3190 C 297.324 -5.07231 -1.14074 0
M  V30 3191 C 295.009 -4.71464 -1.73282 0
M  V30 3192 C 297.003 -6.33942 -0.663068 0
M  V30 3193 C 294.69 -5.98153 -1.25127 0
M  V30 3194 C 295.688 -6.79223 -0.717296 0
M  V30 3195 O 295.376 -8.03533 -0.242865 0
M  V30 3196 H 295.108 -0.583526 -0.341283 0
M  V30 3197 H 297.662 -2.00964 -0.424591 0
M  V30 3198 H 295.892 -2.5282 -2.92607 0
M  V30 3199 H 297.581 -2.9303 -2.80871 0
M  V30 3200 H 298.347 -4.72534 -1.09254 0
M  V30 3201 H 294.226 -4.08432 -2.13786 0
M  V30 3202 H 297.77 -6.97167 -0.245612 0
M  V30 3203 H 293.667 -6.32347 -1.29642 0
M  V30 3204 H 294.435 -8.177 -0.361786 0
M  V30 3205 N 297.098 0.621204 -1.44841 0
M  V30 3206 C 298.028 1.74366 -1.55303 0
M  V30 3207 C 299.009 1.65199 -0.405385 0
M  V30 3208 O 300.194 1.83807 -0.626787 0
M  V30 3209 C 297.324 3.12931 -1.50637 0
M  V30 3210 C 296.278 3.36896 -2.63979 0
M  V30 3211 C 295.604 4.75594 -2.44366 0
M  V30 3212 C 296.904 3.28483 -4.06074 0
M  V30 3213 H 298.598 1.65867 -2.49256 0
M  V30 3214 H 296.144 0.796558 -1.19962 0
M  V30 3215 H 298.097 3.9124 -1.56555 0
M  V30 3216 H 296.821 3.22237 -0.532057 0
M  V30 3217 H 295.48 2.60972 -2.57467 0
M  V30 3218 H 295.128 4.81616 -1.45105 0
M  V30 3219 H 294.828 4.92586 -3.20364 0
M  V30 3220 H 296.352 5.5612 -2.52117 0
M  V30 3221 H 297.766 3.96684 -4.13902 0
M  V30 3222 H 296.163 3.57008 -4.82354 0
M  V30 3223 H 297.233 2.26133 -4.28943 0
M  V30 3224 N 298.576 1.31904 0.862503 0
M  V30 3225 C 299.486 1.22161 2.00285 0
M  V30 3226 C 300.502 0.136785 1.73462 0
M  V30 3227 O 301.678 0.355994 1.98229 0
M  V30 3228 C 298.743 0.937093 3.33796 0
M  V30 3229 C 297.804 2.10957 3.73893 0
M  V30 3230 C 297.037 1.83853 5.01033 0
M  V30 3231 O 297.26 0.777274 5.65079 0
M  V30 3232 O 296.194 2.69741 5.38074 0
M  V30 3233 H 300.02 2.18008 2.11439 0
M  V30 3234 H 297.605 1.11716 0.991957 0
M  V30 3235 H 299.487 0.794583 4.13841 0
M  V30 3236 H 298.162 0.00871894 3.23699 0
M  V30 3237 H 297.069 2.30752 2.94456 0
M  V30 3238 H 298.402 3.02046 3.88625 0
M  V30 3239 N 300.054 -1.07777 1.14986 0
M  V30 3240 C 301.017 -2.13041 0.845358 0
M  V30 3241 C 302.017 -1.60071 -0.152931 0
M  V30 3242 O 303.207 -1.74033 0.0761879 0
M  V30 3243 C 300.339 -3.39896 0.261383 0
M  V30 3244 H 301.532 -2.41485 1.77834 0
M  V30 3245 H 299.085 -1.23595 0.956757 0
M  V30 3246 H 299.82 -3.17091 -0.68 0
M  V30 3247 H 299.605 -3.79642 0.980514 0
M  V30 3248 H 301.095 -4.17548 0.0657687 0
M  V30 3249 N 301.532 -0.945985 -1.26051 0
M  V30 3250 C 302.757 -0.612525 -1.98149 0
M  V30 3251 C 303.182 0.806623 -1.69927 0
M  V30 3252 O 302.54 1.54411 -0.950108 0
M  V30 3253 C 302.588 -0.866981 -3.50023 0
M  V30 3254 O 301.692 0.0585333 -4.12358 0
M  V30 3255 H 301.033 -0.23379 -0.621481 0
M  V30 3256 H 303.563 -1.27023 -1.60395 0
M  V30 3257 H 303.573 -0.789792 -4.00283 0
M  V30 3258 H 302.248 -1.90135 -3.69894 0
M  V30 3259 H 300.825 -0.0701241 -3.72834 0
M  V30 3260 N 303.011 1.40521 -0.713556 0
M  V30 3261 C 304.288 1.94775 -0.17943 0
M  V30 3262 C 304.668 1.65184 1.31444 0
M  V30 3263 O 304.016 0.968429 2.06963 0
M  V30 3264 C 304.226 3.45543 -0.489986 0
M  V30 3265 C 305.574 4.22442 -0.427536 0
M  V30 3266 O 306.598 3.53644 -0.425929 0
M  V30 3267 O 305.457 5.4501 -0.403292 0
M  V30 3268 H 302.551 0.826606 -0.0255192 0
M  V30 3269 H 305.097 1.5014 -0.790949 0
M  V30 3270 H 303.869 3.60432 -1.5233 0
M  V30 3271 H 303.492 3.97311 0.151598 0
M  V30 3272 N 304.489 0.459591 1.5075 0
M  V30 3273 C 305.719 -0.0972338 2.06371 0
M  V30 3274 C 306.127 -1.35074 1.32483 0
M  V30 3275 O 305.47 -1.79637 0.384226 0
M  V30 3276 C 305.532 -0.462759 3.56509 0
M  V30 3277 C 305.196 0.687084 4.51805 0
M  V30 3278 C 306.193 1.56578 4.95761 0
M  V30 3279 C 303.878 0.874144 4.94635 0
M  V30 3280 C 305.872 2.61604 5.81242 0
M  V30 3281 C 303.559 1.92765 5.79901 0
M  V30 3282 C 304.557 2.79697 6.23104 0
M  V30 3283 O 304.245 3.83235 7.06673 0
M  V30 3284 H 303.977 -0.00140687 0.675999 0
M  V30 3285 H 306.531 0.644011 1.95043 0
M  V30 3286 H 304.761 -1.25703 3.65699 0
M  V30 3287 H 306.45 -0.953323 3.94546 0
M  V30 3288 H 307.216 1.4329 4.6335 0
M  V30 3289 H 303.095 0.207006 4.60535 0
M  V30 3290 H 306.639 3.29489 6.14884 0
M  V30 3291 H 302.536 2.06064 6.11725 0
M  V30 3292 H 303.304 3.80084 7.24899 0
M  V30 3293 N 305.967 -1.56429 0.191757 0
M  V30 3294 C 306.914 -2.18936 -0.730454 0
M  V30 3295 C 307.884 -1.13557 -1.21219 0
M  V30 3296 O 309.069 -1.41794 -1.27668 0
M  V30 3297 C 306.209 -2.85013 -1.9458 0
M  V30 3298 C 305.322 -4.04909 -1.50574 0
M  V30 3299 C 304.457 -4.58853 -2.67634 0
M  V30 3300 C 303.496 -5.71114 -2.20217 0
M  V30 3301 N 302.633 -6.19478 -3.30442 0
M  V30 3302 H 307.473 -2.97389 -0.190664 0
M  V30 3303 H 305.01 -1.46869 -0.0823694 0
M  V30 3304 H 306.968 -3.21492 -2.65893 0
M  V30 3305 H 305.598 -2.09129 -2.45896 0
M  V30 3306 H 304.65 -3.74115 -0.688605 0
M  V30 3307 H 305.962 -4.86113 -1.11784 0
M  V30 3308 H 305.116 -4.97619 -3.47074 0
M  V30 3309 H 303.855 -3.76749 -3.09696 0
M  V30 3310 H 302.86 -5.31879 -1.3923 0
M  V30 3311 H 304.085 -6.55033 -1.79189 0
M  V30 3312 H 302.031 -5.40297 -3.72041 0
M  V30 3313 H 301.948 -6.95725 -2.9581 0
M  V30 3314 H 303.216 -6.62898 -4.10106 0
M  V30 3315 N 307.445 0.0818655 -1.57387 0
M  V30 3316 C 308.722 0.815343 -1.77796 0
M  V30 3317 C 309.102 1.96289 -0.77679 0
M  V30 3318 O 308.45 2.27691 0.192106 0
M  V30 3319 C 308.66 1.29765 -3.23978 0
M  V30 3320 C 310.008 1.7351 -3.8753 0
M  V30 3321 O 311.032 1.39356 -3.27808 0
M  V30 3322 O 309.891 2.36708 -4.92576 0
M  V30 3323 H 306.985 0.389914 -0.729312 0
M  V30 3324 H 309.531 0.0627213 -1.69584 0
M  V30 3325 H 308.303 0.47608 -3.88393 0
M  V30 3326 H 307.926 2.11189 -3.36875 0
M  V30 3327 N 308.923 1.53595 0.353017 0
M  V30 3328 C 310.17 1.70385 1.09431 0
M  V30 3329 C 310.498 0.462113 1.88931 0
M  V30 3330 O 309.753 -0.556074 1.87633 0
M  V30 3331 C 310.052 2.91313 2.07054 0
M  V30 3332 C 309.718 4.27308 1.43939 0
M  V30 3333 C 308.38 4.64287 1.26454 0
M  V30 3334 C 310.732 5.11829 0.983883 0
M  V30 3335 C 308.06 5.83412 0.620226 0
M  V30 3336 C 310.412 6.31611 0.353516 0
M  V30 3337 C 309.076 6.67293 0.166272 0
M  V30 3338 H 308.346 0.623484 0.400436 0
M  V30 3339 H 310.993 1.87799 0.374655 0
M  V30 3340 H 309.298 2.68463 2.85368 0
M  V30 3341 H 310.995 3.01497 2.64387 0
M  V30 3342 H 307.585 3.98198 1.58543 0
M  V30 3343 H 311.769 4.838 1.10685 0
M  V30 3344 H 307.025 6.09639 0.463681 0
M  V30 3345 H 311.199 6.964 -0.00757555 0
M  V30 3346 H 308.826 7.59461 -0.335047 0
M  V30 3347 N 310.401 -0.613514 1.45168 0
M  V30 3348 C 311.631 -1.39743 1.52169 0
M  V30 3349 C 312.039 -1.88596 0.151086 0
M  V30 3350 O 311.382 -1.6251 -0.856521 0
M  V30 3351 C 311.444 -2.64035 2.43979 0
M  V30 3352 C 311.108 -2.36861 3.90827 0
M  V30 3353 C 312.105 -1.97591 4.80889 0
M  V30 3354 C 309.79 -2.49956 4.35692 0
M  V30 3355 C 311.784 -1.71768 6.1382 0
M  V30 3356 C 309.471 -2.23747 5.68665 0
M  V30 3357 C 310.469 -1.84714 6.57548 0
M  V30 3358 O 310.157 -1.58809 7.88058 0
M  V30 3359 H 309.889 -0.434382 0.517966 0
M  V30 3360 H 312.443 -0.75587 1.90986 0
M  V30 3361 H 310.673 -3.3089 2.00122 0
M  V30 3362 H 312.362 -3.26069 2.41731 0
M  V30 3363 H 313.128 -1.87015 4.47493 0
M  V30 3364 H 309.007 -2.79305 3.66756 0
M  V30 3365 H 312.551 -1.41227 6.83155 0
M  V30 3366 H 308.448 -2.33938 6.01617 0
M  V30 3367 H 309.216 -1.7291 8.00028 0
M  V30 3368 N 311.879 -1.3236 -0.855495 0
M  V30 3369 C 313.128 -1.22226 -1.60448 0
M  V30 3370 C 313.441 0.214733 -1.94418 0
M  V30 3371 O 314.647 0.437917 -2.67945 0
M  V30 3372 C 313.103 -2.14063 -2.89318 0
M  V30 3373 C 312.711 -3.62839 -2.62777 0
M  V30 3374 C 314.455 -2.12764 -3.67331 0
M  V30 3375 C 312.362 -4.4664 -3.87643 0
M  V30 3376 H 311.292 -0.453904 -0.602069 0
M  V30 3377 H 313.943 -1.57314 -0.944698 0
M  V30 3378 H 312.325 -1.71889 -3.5675 0
M  V30 3379 H 313.499 -4.1335 -2.03662 0
M  V30 3380 H 311.814 -3.66261 -1.98096 0
M  V30 3381 H 314.411 -2.72611 -4.59987 0
M  V30 3382 H 314.754 -1.11841 -4.00995 0
M  V30 3383 H 315.287 -2.53214 -3.06802 0
M  V30 3384 H 312.026 -5.48373 -3.5912 0
M  V30 3385 H 311.546 -4.0088 -4.46156 0
M  V30 3386 H 313.225 -4.59597 -4.55389 0
M  V30 3387 N 313.357 1.07166 -1.15556 0
M  V30 3388 C 314.597 1.81391 -0.94216 0
M  V30 3389 C 314.961 1.84788 0.521272 0
M  V30 3390 O 316.162 2.54904 0.85307 0
M  V30 3391 C 314.433 3.22431 -1.54185 0
M  V30 3392 S 315.992 4.13379 -1.47183 0
M  V30 3393 H 312.81 0.624963 -0.339031 0
M  V30 3394 H 315.412 1.28725 -1.4714 0
M  V30 3395 H 314.116 3.17548 -2.59984 0
M  V30 3396 H 313.647 3.80172 -1.01156 0
M  V30 3397 H 315.662 4.94007 -0.466004 0
M  V30 3398 N 314.835 0.952656 1.25548 0
M  V30 3399 C 316.081 0.607272 1.93494 0
M  V30 3400 C 316.414 -0.853245 1.74452 0
M  V30 3401 O 315.689 -1.61194 1.08843 0
M  V30 3402 C 315.972 0.96435 3.46947 0
M  V30 3403 C 315.825 2.48045 3.75225 0
M  V30 3404 C 317.144 0.487987 4.37386 0
M  V30 3405 H 314.263 0.222096 0.702739 0
M  V30 3406 H 316.905 1.18895 1.48203 0
M  V30 3407 H 315.055 0.469361 3.85654 0
M  V30 3408 H 316.727 3.04905 3.46166 0
M  V30 3409 H 314.97 2.919 3.209 0
M  V30 3410 H 315.641 2.6808 4.82532 0
M  V30 3411 H 318.117 0.912558 4.0597 0
M  V30 3412 H 316.993 0.766547 5.43521 0
M  V30 3413 H 317.254 -0.612063 4.37843 0
M  V30 3414 N 316.313 -1.40141 0.720998 0
M  V30 3415 C 317.261 -2.3252 0.0608547 0
M  V30 3416 C 318.255 -1.52326 -0.741152 0
M  V30 3417 O 319.461 -1.68089 -0.643911 0
M  V30 3418 H 315.836 -0.751999 0.000876664 0
M  V30 3419 H 317.807 -2.8584 0.856614 0
M  V30 3420 C 316.556 -3.37331 -0.842809 0
M  V30 3421 H 315.879 -3.99108 -0.235084 0
M  V30 3422 H 317.319 -4.04452 -1.27257 0
M  V30 3423 C 315.778 -2.73246 -1.97074 0
M  V30 3424 O 316.308 -2.59998 -3.06209 0
M  V30 3425 N 314.514 -2.31547 -1.75597 0
M  V30 3426 H 314.061 -2.42522 -0.868368 0
M  V30 3427 H 314.019 -1.89007 -2.51244 0
M  V30 3428 N 317.792 -0.46758 -1.50504 0
M  V30 3429 C 319.04 0.0884469 -2.01906 0
M  V30 3430 C 319.361 1.40532 -1.35188 0
M  V30 3431 O 318.631 1.89515 -0.496079 0
M  V30 3432 H 317.211 0.0356765 -0.746148 0
M  V30 3433 H 319.873 -0.6172 -1.84869 0
M  V30 3434 H 318.969 0.2425 -3.11156 0
M  V30 3435 N 319.27 1.56325 -0.20005 0
M  V30 3436 C 320.495 2.02548 0.44597 0
M  V30 3437 C 320.92 1.07922 1.5406 0
M  V30 3438 O 320.278 0.0635775 1.81188 0
M  V30 3439 C 320.326 3.47175 0.974761 0
M  V30 3440 O 319.43 3.55671 2.08739 0
M  V30 3441 H 318.771 0.655862 0.103638 0
M  V30 3442 H 321.301 2.02201 -0.312381 0
M  V30 3443 H 321.311 3.87067 1.2901 0
M  V30 3444 H 319.986 4.15538 0.17347 0
M  V30 3445 H 318.563 3.27657 1.78032 0
M  V30 3446 N 320.748 -0.0735177 1.57428 0
M  V30 3447 C 321.973 -0.789787 1.91774 0
M  V30 3448 C 322.398 -1.70413 0.796306 0
M  V30 3449 O 321.756 -1.79555 -0.250961 0
M  V30 3450 C 321.804 -1.5609 3.25067 0
M  V30 3451 O 320.908 -2.67144 3.14178 0
M  V30 3452 H 320.249 -0.215582 0.628029 0
M  V30 3453 H 322.779 -0.0422781 2.04556 0
M  V30 3454 H 322.789 -1.94052 3.58898 0
M  V30 3455 H 321.464 -0.890015 4.06265 0
M  V30 3456 H 320.041 -2.32052 2.91901 0
M  V30 3457 N 322.226 -1.5378 -0.344866 0
M  V30 3458 C 323.136 -1.84667 -1.4469 0
M  V30 3459 C 324.152 -0.736704 -1.57635 0
M  V30 3460 O 325.328 -1.02888 -1.73136 0
M  V30 3461 C 322.393 -2.04869 -2.79696 0
M  V30 3462 C 321.454 -3.28731 -2.76106 0
M  V30 3463 C 320.687 -3.4796 -4.04673 0
M  V30 3464 O 320.91 -2.71052 -5.01883 0
M  V30 3465 O 319.844 -4.41383 -4.09224 0
M  V30 3466 H 323.67 -2.78334 -1.21506 0
M  V30 3467 H 321.255 -1.39418 -0.536921 0
M  V30 3468 H 323.137 -2.19609 -3.59652 0
M  V30 3469 H 321.812 -1.14391 -3.02814 0
M  V30 3470 H 320.719 -3.19396 -1.94774 0
M  V30 3471 H 322.052 -4.19198 -2.57941 0
M  V30 3472 N 323.704 0.605807 -1.45491 0
M  V30 3473 C 324.652 1.73754 -1.54636 0
M  V30 3474 C 325.646 1.64207 -0.416219 0
M  V30 3475 O 326.852 1.69979 -0.592199 0
M  V30 3476 H 323.227 0.574073 -0.485741 0
M  V30 3477 H 325.198 1.63169 -2.49837 0
M  V30 3478 C 323.947 3.12135 -1.53189 0
M  V30 3479 H 323.27 3.20141 -2.39478 0
M  V30 3480 H 324.71 3.91147 -1.63645 0
M  V30 3481 C 323.169 3.35921 -0.256616 0
M  V30 3482 O 323.699 3.96194 0.662798 0
M  V30 3483 N 321.905 2.90204 -0.151751 0
M  V30 3484 H 321.452 2.41336 -0.90081 0
M  V30 3485 H 321.41 3.06492 0.700699 0
M  V30 3486 N 325.182 1.32811 0.848464 0
M  V30 3487 C 326.129 1.22265 1.95755 0
M  V30 3488 C 327.099 0.103413 1.65778 0
M  V30 3489 O 328.284 0.280033 1.88734 0
M  V30 3490 C 325.424 0.958014 3.31536 0
M  V30 3491 C 324.537 2.16262 3.73971 0
M  V30 3492 C 323.672 1.83295 4.98575 0
M  V30 3493 C 322.711 3.00041 5.33518 0
M  V30 3494 N 321.848 2.67125 6.49299 0
M  V30 3495 H 326.688 2.17128 2.04107 0
M  V30 3496 H 324.225 1.07982 0.998913 0
M  V30 3497 H 326.183 0.785052 4.09747 0
M  V30 3498 H 324.813 0.046159 3.22767 0
M  V30 3499 H 323.865 2.44565 2.91362 0
M  V30 3500 H 325.177 3.03572 3.95785 0
M  V30 3501 H 324.331 1.62586 5.84509 0
M  V30 3502 H 323.07 0.932078 4.7871 0
M  V30 3503 H 322.075 3.21374 4.46093 0
M  V30 3504 H 323.3 3.90869 5.55336 0
M  V30 3505 H 321.246 1.79586 6.3094 0
M  V30 3506 H 321.163 3.47965 6.71161 0
M  V30 3507 H 322.431 2.49861 7.3837 0
M  V30 3508 N 326.66 -1.06551 1.16123 0
M  V30 3509 C 328.071 -1.60768 0.949232 0
M  V30 3510 C 328.422 -1.89523 -0.507508 0
M  V30 3511 O 327.547 -1.66671 -1.38021 0
M  V30 3512 C 328.142 -2.92086 1.71671 0
M  V30 3513 C 326.701 -3.43015 1.54977 0
M  V30 3514 C 325.848 -2.16947 1.72711 0
M  V30 3515 H 328.799 -0.895354 1.31031 0
M  V30 3516 H 328.82 -3.6138 1.19099 0
M  V30 3517 H 328.332 -2.71127 2.7769 0
M  V30 3518 H 326.433 -3.69039 0.513873 0
M  V30 3519 H 326.546 -4.18516 2.33198 0
M  V30 3520 H 324.91 -2.27041 1.15431 0
M  V30 3521 H 325.693 -1.98473 2.80113 0
M  V30 3522 N 328.138 -0.959301 -1.25041 0
M  V30 3523 C 329.387 -0.612254 -1.92183 0
M  V30 3524 C 329.7 0.855347 -1.75907 0
M  V30 3525 O 330.906 1.31256 -2.37664 0
M  V30 3526 C 329.362 -1.04435 -3.44414 0
M  V30 3527 C 328.97 -2.53482 -3.69393 0
M  V30 3528 C 330.714 -0.770055 -4.17457 0
M  V30 3529 C 328.621 -2.90468 -5.15153 0
M  V30 3530 H 327.551 -0.225279 -0.719559 0
M  V30 3531 H 330.202 -1.16438 -1.41825 0
M  V30 3532 H 328.584 -0.4206 -3.9376 0
M  V30 3533 H 329.758 -3.20916 -3.30681 0
M  V30 3534 H 328.073 -2.78432 -3.0962 0
M  V30 3535 H 330.67 -1.02249 -5.24832 0
M  V30 3536 H 331.013 0.293611 -4.15263 0
M  V30 3537 H 331.546 -1.35437 -3.74034 0
M  V30 3538 H 328.285 -3.95871 -5.22462 0
M  V30 3539 H 327.805 -2.27711 -5.54894 0
M  V30 3540 H 329.484 -2.79914 -5.83315 0
M  V30 3541 N 329.616 1.39756 -0.72842 0
M  V30 3542 C 331.032 1.5442 -0.403308 0
M  V30 3543 C 331.232 1.69694 1.08656 0
M  V30 3544 O 330.288 1.69373 1.87267 0
M  V30 3545 C 331.601 2.76555 -1.18058 0
M  V30 3546 C 333.149 2.90384 -1.16815 0
M  V30 3547 C 333.624 4.15449 -1.92785 0
M  V30 3548 N 335.115 4.22475 -1.89918 0
M  V30 3549 C 335.85 5.1818 -2.45514 0
M  V30 3550 N 335.346 6.19714 -3.09719 0
M  V30 3551 N 337.139 5.1035 -2.35584 0
M  V30 3552 H 329.29 1.28089 -1.69431 0
M  V30 3553 H 331.553 0.620327 -0.716867 0
M  V30 3554 H 331.259 2.7159 -2.23455 0
M  V30 3555 H 331.133 3.69033 -0.780662 0
M  V30 3556 H 333.52 2.94846 -0.12234 0
M  V30 3557 H 333.601 1.98988 -1.6074 0
M  V30 3558 H 333.245 4.11749 -2.97364 0
M  V30 3559 H 333.175 5.05877 -1.46272 0
M  V30 3560 H 335.666 3.49743 -1.43138 0
M  V30 3561 H 335.979 6.8919 -3.49625 0
M  V30 3562 H 334.324 6.20121 -3.13807 0
M  V30 3563 H 337.515 4.2996 -1.85072 0
M  V30 3564 H 337.688 5.84761 -2.79211 0
M  V30 3565 N 331.094 0.475555 1.50254 0
M  V30 3566 C 332.319 -0.0777042 2.07254 0
M  V30 3567 C 332.744 -1.3235 1.3366 0
M  V30 3568 O 332.102 -1.77152 0.385597 0
M  V30 3569 C 332.15 -0.340169 3.58992 0
M  V30 3570 O 331.254 -1.41982 3.87188 0
M  V30 3571 H 330.595 0.0149556 0.663832 0
M  V30 3572 H 333.125 0.667878 1.93392 0
M  V30 3573 H 333.135 -0.579332 4.03866 0
M  V30 3574 H 331.81 0.570167 4.11973 0
M  V30 3575 H 330.387 -1.16762 3.54148 0
M  V30 3576 N 332.573 -1.56217 0.208337 0
M  V30 3577 C 333.798 -2.02782 -0.435222 0
M  V30 3578 C 334.223 -1.08738 -1.53485 0
M  V30 3579 O 333.581 -0.0731855 -1.81152 0
M  V30 3580 C 333.629 -3.47687 -0.956335 0
M  V30 3581 O 332.733 -3.56773 -2.06849 0
M  V30 3582 H 332.074 -0.656403 -0.100158 0
M  V30 3583 H 334.604 -2.02033 0.3231 0
M  V30 3584 H 334.614 -3.87745 -1.26955 0
M  V30 3585 H 333.289 -4.15624 -0.15143 0
M  V30 3586 H 331.866 -3.28597 -1.76292 0
M  V30 3587 N 334.051 0.0651679 -1.57465 0
M  V30 3588 C 335.281 0.774683 -1.91526 0
M  V30 3589 C 335.689 1.71305 -0.803196 0
M  V30 3590 O 335.032 1.82231 0.231881 0
M  V30 3591 C 335.094 1.61645 -3.21109 0
M  V30 3592 C 334.758 0.846753 -4.49087 0
M  V30 3593 C 335.755 0.163024 -5.19644 0
M  V30 3594 C 333.44 0.811966 -4.95694 0
M  V30 3595 C 335.434 -0.54519 -6.35064 0
M  V30 3596 C 333.121 0.0999836 -6.11018 0
M  V30 3597 C 334.119 -0.577388 -6.80555 0
M  V30 3598 O 333.807 -1.27789 -7.93678 0
M  V30 3599 H 333.539 0.225031 -0.637446 0
M  V30 3600 H 336.093 0.0377134 -2.05365 0
M  V30 3601 H 334.323 2.39638 -3.03497 0
M  V30 3602 H 336.012 2.20525 -3.40769 0
M  V30 3603 H 336.778 0.181163 -4.84662 0
M  V30 3604 H 332.657 1.32867 -4.41438 0
M  V30 3605 H 336.201 -1.07446 -6.89276 0
M  V30 3606 H 332.098 0.0797945 -6.45451 0
M  V30 3607 H 332.866 -1.18784 -8.09835 0
M  V30 3608 N 335.529 1.53961 0.336706 0
M  V30 3609 C 336.776 1.71536 1.07618 0
M  V30 3610 C 337.104 0.482125 1.8843 0
M  V30 3611 O 336.359 -0.536142 1.88213 0
M  V30 3612 C 336.658 2.93493 2.03953 0
M  V30 3613 C 336.324 4.28811 1.39399 0
M  V30 3614 C 334.986 4.65602 1.21523 0
M  V30 3615 C 337.338 5.12844 0.929541 0
M  V30 3616 C 334.666 5.84037 0.558312 0
M  V30 3617 C 337.018 6.31951 0.286505 0
M  V30 3618 C 335.682 6.67432 0.0954869 0
M  V30 3619 H 334.952 0.627696 0.393801 0
M  V30 3620 H 337.599 1.88186 0.354715 0
M  V30 3621 H 335.904 2.71475 2.82504 0
M  V30 3622 H 337.601 3.04285 2.61174 0
M  V30 3623 H 334.191 3.99858 1.54311 0
M  V30 3624 H 338.375 4.84947 1.05548 0
M  V30 3625 H 333.631 6.10097 0.398995 0
M  V30 3626 H 337.805 6.96352 -0.0814376 0
M  V30 3627 H 335.432 7.59063 -0.415579 0
M  V30 3628 N 337.007 -0.598083 1.45811 0
M  V30 3629 C 338.235 -1.38322 1.53866 0
M  V30 3630 C 338.65 -1.87992 0.174479 0
M  V30 3631 O 338.007 -1.62756 -0.825627 0
M  V30 3632 C 338.058 -2.58125 2.53089 0
M  V30 3633 O 337.779 -2.10516 3.84206 0
M  V30 3634 C 339.28 -3.50869 2.70935 0
M  V30 3635 H 336.5 -0.423093 0.520801 0
M  V30 3636 H 339.044 -0.728527 1.91083 0
M  V30 3637 H 337.199 -3.19615 2.18917 0
M  V30 3638 H 337.613 -2.88425 4.38077 0
M  V30 3639 H 339.087 -4.31451 3.44317 0
M  V30 3640 H 339.564 -4.01822 1.77301 0
M  V30 3641 H 340.17 -2.95225 3.06141 0
M  V30 3642 N 338.485 -1.33259 -0.841409 0
M  V30 3643 C 339.732 -1.24572 -1.5965 0
M  V30 3644 C 340.06 0.189137 -1.93578 0
M  V30 3645 O 339.315 1.14566 -1.5866 0
M  V30 3646 C 339.614 -2.06381 -2.9179 0
M  V30 3647 C 339.28 -3.556 -2.77235 0
M  V30 3648 C 337.942 -3.96282 -2.72973 0
M  V30 3649 C 340.294 -4.50433 -2.62221 0
M  V30 3650 C 337.622 -5.30017 -2.51592 0
M  V30 3651 C 339.974 -5.84327 -2.42374 0
M  V30 3652 C 338.638 -6.24194 -2.36512 0
M  V30 3653 H 337.908 -0.455842 -0.5842 0
M  V30 3654 H 340.555 -1.6482 -0.975016 0
M  V30 3655 H 338.86 -1.58903 -3.5813 0
M  V30 3656 H 340.557 -1.97019 -3.49263 0
M  V30 3657 H 337.147 -3.23298 -2.81384 0
M  V30 3658 H 341.331 -4.19914 -2.64549 0
M  V30 3659 H 336.587 -5.59947 -2.45499 0
M  V30 3660 H 340.761 -6.57414 -2.29739 0
M  V30 3661 H 338.388 -7.27759 -2.19706 0
M  V30 3662 N 339.963 1.05934 -1.16686 0
M  V30 3663 C 340.895 2.13468 -0.834503 0
M  V30 3664 C 341.908 1.62013 0.15984 0
M  V30 3665 O 343.097 1.7838 -0.0654228 0
M  V30 3666 C 340.197 3.3817 -0.222361 0
M  V30 3667 C 339.37 4.18928 -1.25771 0
M  V30 3668 C 338.429 5.21985 -0.664703 0
M  V30 3669 O 337.455 5.53334 -1.33453 0
M  V30 3670 N 338.657 5.77919 0.546834 0
M  V30 3671 H 341.422 2.42578 -1.75999 0
M  V30 3672 H 338.983 1.21967 -1.06469 0
M  V30 3673 H 340.975 4.04266 0.187472 0
M  V30 3674 H 339.545 3.06655 0.606758 0
M  V30 3675 H 338.765 3.48433 -1.84358 0
M  V30 3676 H 340.053 4.69687 -1.95631 0
M  V30 3677 H 339.451 5.54721 1.10912 0
M  V30 3678 H 338.008 6.45573 0.898829 0
M  V30 3679 N 341.441 0.965919 1.2453 0
M  V30 3680 C 342.371 0.513476 2.27784 0
M  V30 3681 C 343.352 -0.445974 1.6415 0
M  V30 3682 O 344.537 -0.342485 1.91156 0
M  V30 3683 C 341.667 -0.198839 3.4673 0
M  V30 3684 C 340.621 0.676456 4.2262 0
M  V30 3685 C 339.947 -0.167248 5.34438 0
M  V30 3686 C 341.247 1.96017 4.84123 0
M  V30 3687 H 342.941 1.3765 2.65881 0
M  V30 3688 H 340.487 0.663321 1.27813 0
M  V30 3689 H 342.44 -0.526567 4.18097 0
M  V30 3690 H 341.164 -1.0962 3.07654 0
M  V30 3691 H 339.823 0.98743 3.53052 0
M  V30 3692 H 339.471 -1.0647 4.91603 0
M  V30 3693 H 339.171 0.415181 5.86131 0
M  V30 3694 H 340.695 -0.489688 6.08633 0
M  V30 3695 H 342.109 1.69814 5.47573 0
M  V30 3696 H 340.506 2.48918 5.4604 0
M  V30 3697 H 341.576 2.65622 4.05676 0
M  V30 3698 N 342.919 -1.39368 0.735821 0
M  V30 3699 C 343.851 -2.2913 0.0567723 0
M  V30 3700 C 344.864 -1.46859 -0.702589 0
M  V30 3701 O 346.053 -1.69925 -0.546616 0
M  V30 3702 C 343.153 -3.25492 -0.943823 0
M  V30 3703 C 342.326 -4.36709 -0.24581 0
M  V30 3704 C 341.385 -5.13376 -1.15463 0
M  V30 3705 O 340.411 -5.65683 -0.631803 0
M  V30 3706 N 341.613 -5.24656 -2.48427 0
M  V30 3707 H 344.378 -2.88047 0.827582 0
M  V30 3708 H 341.939 -1.50957 0.585112 0
M  V30 3709 H 343.931 -3.73657 -1.55443 0
M  V30 3710 H 342.501 -2.676 -1.61583 0
M  V30 3711 H 341.721 -3.9041 0.545286 0
M  V30 3712 H 343.009 -5.08244 0.237891 0
M  V30 3713 H 342.407 -4.83679 -2.93379 0
M  V30 3714 H 340.964 -5.76258 -3.04582 0
M  V30 3715 N 344.397 -0.483516 -1.5 0
M  V30 3716 C 345.345 0.318061 -2.30415 0
M  V30 3717 C 346.339 0.978988 -1.38247 0
M  V30 3718 O 347.545 0.908673 -1.55381 0
M  V30 3719 H 343.92 0.121419 -0.742133 0
M  V30 3720 H 345.891 -0.380403 -2.95965 0
M  V30 3721 C 344.64 1.38013 -3.19136 0
M  V30 3722 H 343.963 0.880952 -3.89973 0
M  V30 3723 H 345.403 1.91332 -3.78375 0
M  V30 3724 C 343.862 2.38884 -2.37563 0
M  V30 3725 O 344.392 3.44412 -2.06744 0
M  V30 3726 N 342.598 2.10912 -1.99911 0
M  V30 3727 H 342.145 1.25118 -2.25174 0
M  V30 3728 H 342.103 2.78635 -1.45636 0
M  V30 3729 N 345.875 1.56104 -0.216619 0
M  V30 3730 C 347.124 1.97348 0.416744 0
M  V30 3731 C 347.437 1.10715 1.6125 0
M  V30 3732 O 348.643 1.41836 2.31506 0
M  V30 3733 C 347.099 3.51059 0.792835 0
M  V30 3734 C 346.707 4.46387 -0.379828 0
M  V30 3735 C 348.451 4.01026 1.39208 0
M  V30 3736 C 346.358 5.91397 0.0184223 0
M  V30 3737 H 345.288 0.736942 0.159475 0
M  V30 3738 H 347.939 1.80827 -0.31205 0
M  V30 3739 H 346.321 3.63162 1.57891 0
M  V30 3740 H 347.495 4.46029 -1.15737 0
M  V30 3741 H 345.81 4.06734 -0.891979 0
M  V30 3742 H 348.407 5.0686 1.70286 0
M  V30 3743 H 348.75 3.46587 2.30614 0
M  V30 3744 H 349.283 3.92125 0.669537 0
M  V30 3745 H 346.022 6.49807 -0.862002 0
M  V30 3746 H 345.542 5.94961 0.760384 0
M  V30 3747 H 347.221 6.45455 0.446818 0
M  V30 3748 N 347.353 -0.0568162 1.57498 0
M  V30 3749 C 348.599 -0.75422 1.88253 0
M  V30 3750 C 348.932 -1.76461 0.810865 0
M  V30 3751 O 348.207 -1.93691 -0.177259 0
M  V30 3752 C 348.49 -1.44878 3.2967 0
M  V30 3753 C 348.343 -0.453789 4.47505 0
M  V30 3754 C 349.662 -2.38994 3.69554 0
M  V30 3755 H 346.781 -0.272724 0.684683 0
M  V30 3756 H 349.423 -0.0172113 1.89992 0
M  V30 3757 H 347.573 -2.077 3.28318 0
M  V30 3758 H 349.245 0.170371 4.60985 0
M  V30 3759 H 347.488 0.229552 4.33192 0
M  V30 3760 H 348.159 -0.977699 5.43273 0
M  V30 3761 H 350.635 -1.86239 3.72095 0
M  V30 3762 H 349.511 -2.84587 4.69363 0
M  V30 3763 H 349.772 -3.24461 3.00296 0
M  V30 3764 N 348.832 -1.54138 -0.328536 0
M  V30 3765 C 349.779 -1.83176 -1.40411 0
M  V30 3766 C 350.749 -0.678494 -1.5161 0
M  V30 3767 O 351.934 -0.92443 -1.6691 0
M  V30 3768 C 349.074 -2.06035 -2.76846 0
M  V30 3769 C 348.187 -3.33727 -2.74318 0
M  V30 3770 C 347.322 -3.46574 -4.02567 0
M  V30 3771 C 346.361 -4.68159 -3.94327 0
M  V30 3772 N 345.498 -4.77959 -5.14296 0
M  V30 3773 H 350.338 -2.74938 -1.14948 0
M  V30 3774 H 347.875 -1.36166 -0.556538 0
M  V30 3775 H 349.833 -2.1728 -3.56153 0
M  V30 3776 H 348.463 -1.1757 -3.00628 0
M  V30 3777 H 347.515 -3.31246 -1.8703 0
M  V30 3778 H 348.827 -4.23139 -2.64111 0
M  V30 3779 H 347.981 -3.57333 -4.90304 0
M  V30 3780 H 346.72 -2.55245 -4.15574 0
M  V30 3781 H 345.725 -4.57461 -3.04974 0
M  V30 3782 H 346.95 -5.60868 -3.82889 0
M  V30 3783 H 344.896 -3.89544 -5.27818 0
M  V30 3784 H 344.813 -5.6133 -5.06404 0
M  V30 3785 H 346.081 -4.93044 -6.03761 0
M  V30 3786 N 350.31 0.590341 -1.46126 0
M  V30 3787 C 351.721 1.17243 -1.45296 0
M  V30 3788 C 352.072 1.95281 -0.189723 0
M  V30 3789 O 351.197 2.04502 0.707674 0
M  V30 3790 C 351.792 2.13284 -2.6324 0
M  V30 3791 C 350.351 2.66832 -2.65476 0
M  V30 3792 C 349.498 1.42557 -2.3785 0
M  V30 3793 H 352.449 0.378692 -1.54116 0
M  V30 3794 H 352.47 2.96619 -2.38323 0
M  V30 3795 H 351.982 1.56459 -3.55165 0
M  V30 3796 H 350.083 3.27548 -1.77603 0
M  V30 3797 H 350.196 3.10088 -3.65215 0
M  V30 3798 H 348.56 1.72107 -1.87753 0
M  V30 3799 H 349.343 0.875741 -3.31942 0
M  V30 3800 N 351.788 1.33704 0.83433 0
M  V30 3801 C 352.718 1.26967 1.95963 0
M  V30 3802 C 353.699 0.149337 1.69443 0
M  V30 3803 O 354.884 0.339852 1.91203 0
M  V30 3804 C 352.014 1.01275 3.32206 0
M  V30 3805 C 350.968 2.09652 3.73136 0
M  V30 3806 C 350.294 1.69166 5.07235 0
M  V30 3807 C 351.594 3.51372 3.86439 0
M  V30 3808 H 353.288 2.2112 2.01857 0
M  V30 3809 H 350.834 1.06447 0.969793 0
M  V30 3810 H 352.787 0.952106 4.10503 0
M  V30 3811 H 351.511 0.0356203 3.26581 0
M  V30 3812 H 350.17 2.14766 2.97104 0
M  V30 3813 H 349.818 0.701437 4.98085 0
M  V30 3814 H 349.518 2.41694 5.35591 0
M  V30 3815 H 351.042 1.64576 5.88003 0
M  V30 3816 H 352.456 3.48734 4.55036 0
M  V30 3817 H 350.853 4.22425 4.26236 0
M  V30 3818 H 351.923 3.89546 2.88759 0
M  V30 3819 N 353.266 -1.05314 1.17247 0
M  V30 3820 C 354.677 -1.59753 0.96623 0
M  V30 3821 C 355.028 -1.9005 -0.487378 0
M  V30 3822 O 354.153 -1.68126 -1.36245 0
M  V30 3823 C 354.748 -2.90249 1.74759 0
M  V30 3824 C 353.307 -3.41352 1.58606 0
M  V30 3825 C 352.454 -2.15103 1.75002 0
M  V30 3826 H 355.405 -0.881406 1.31973 0
M  V30 3827 H 355.426 -3.60097 1.22925 0
M  V30 3828 H 354.938 -2.68166 2.8055 0
M  V30 3829 H 353.039 -3.68474 0.552985 0
M  V30 3830 H 353.152 -4.16019 2.37624 0
M  V30 3831 H 351.516 -2.25804 1.17833 0
M  V30 3832 H 352.299 -1.95491 2.82202 0
M  V30 3833 N 354.744 -0.972509 -1.24016 0
M  V30 3834 C 356.155 -0.67517 -1.74064 0
M  V30 3835 C 356.506 0.808939 -1.78747 0
M  V30 3836 O 355.631 1.63286 -1.42009 0
M  V30 3837 C 356.226 -1.21889 -3.16115 0
M  V30 3838 C 354.785 -0.971358 -3.6365 0
M  V30 3839 C 353.932 -1.35134 -2.42145 0
M  V30 3840 H 356.883 -1.14727 -1.09651 0
M  V30 3841 H 356.904 -0.587489 -3.75937 0
M  V30 3842 H 356.416 -2.29906 -3.12674 0
M  V30 3843 H 354.517 0.0930686 -3.72484 0
M  V30 3844 H 354.63 -1.62039 -4.50866 0
M  V30 3845 H 352.994 -0.769751 -2.4279 0
M  V30 3846 H 353.777 -2.4411 -2.41381 0
M  V30 3847 N 356.222 1.38976 -0.743202 0
M  V30 3848 C 357.468 2.0064 -0.295189 0
M  V30 3849 C 357.801 1.5885 1.11716 0
M  V30 3850 O 357.076 0.821181 1.76315 0
M  V30 3851 C 357.359 3.578 -0.406318 0
M  V30 3852 C 357.212 4.09586 -1.85903 0
M  V30 3853 C 358.531 4.39616 0.206439 0
M  V30 3854 H 355.65 0.728935 -0.108733 0
M  V30 3855 H 358.292 1.65067 -0.940897 0
M  V30 3856 H 356.442 3.88235 0.143419 0
M  V30 3857 H 358.114 3.89837 -2.46627 0
M  V30 3858 H 356.357 3.6284 -2.3776 0
M  V30 3859 H 357.028 5.18708 -1.888 0
M  V30 3860 H 359.504 4.15273 -0.262283 0
M  V30 3861 H 358.38 5.48812 0.0983819 0
M  V30 3862 H 358.641 4.22754 1.2935 0
M  V30 3863 N 357.7 0.491464 1.49741 0
M  V30 3864 C 358.93 -0.0534375 2.06531 0
M  V30 3865 C 359.338 -1.32233 1.35318 0
M  V30 3866 O 358.681 -1.78781 0.422243 0
M  V30 3867 C 358.743 -0.387034 3.57411 0
M  V30 3868 C 358.407 0.782764 4.50246 0
M  V30 3869 C 359.404 1.67059 4.92329 0
M  V30 3870 C 357.089 0.978866 4.9267 0
M  V30 3871 C 359.083 2.73874 5.75562 0
M  V30 3872 C 356.77 2.05022 5.75682 0
M  V30 3873 C 357.768 2.92851 6.17031 0
M  V30 3874 O 357.456 3.98138 6.98385 0
M  V30 3875 H 357.188 0.0129324 0.675876 0
M  V30 3876 H 359.742 0.685238 1.93633 0
M  V30 3877 H 357.972 -1.17918 3.68283 0
M  V30 3878 H 359.661 -0.869419 3.96479 0
M  V30 3879 H 360.427 1.53086 4.60206 0
M  V30 3880 H 356.306 0.304646 4.59992 0
M  V30 3881 H 359.85 3.42458 6.07757 0
M  V30 3882 H 355.747 2.18993 6.07217 0
M  V30 3883 H 356.515 3.95374 7.16674 0
M  V30 3884 N 359.178 -1.55987 0.224894 0
M  V30 3885 C 360.108 -2.23426 -0.678457 0
M  V30 3886 C 361.089 -1.20709 -1.19847 0
M  V30 3887 O 362.274 -1.49304 -1.24186 0
M  V30 3888 C 359.404 -2.91676 -1.88527 0
M  V30 3889 C 358.358 -4.00893 -1.49896 0
M  V30 3890 C 357.684 -4.56455 -2.78483 0
M  V30 3891 C 358.984 -5.17769 -0.686461 0
M  V30 3892 H 360.678 -2.99175 -0.116173 0
M  V30 3893 H 358.224 -1.43897 -0.054436 0
M  V30 3894 H 360.177 -3.37547 -2.5227 0
M  V30 3895 H 358.901 -2.1338 -2.47258 0
M  V30 3896 H 357.56 -3.55758 -0.884985 0
M  V30 3897 H 357.208 -3.74886 -3.35365 0
M  V30 3898 H 356.908 -5.30169 -2.53368 0
M  V30 3899 H 358.432 -5.05047 -3.43162 0
M  V30 3900 H 359.846 -5.60001 -1.22767 0
M  V30 3901 H 358.243 -5.97735 -0.532259 0
M  V30 3902 H 359.313 -4.83932 0.306196 0
M  V30 3903 N 360.656 0.0484629 -1.57525 0
M  V30 3904 C 361.884 0.755421 -1.92616 0
M  V30 3905 C 362.299 1.69919 -0.822984 0
M  V30 3906 O 361.656 1.81378 0.202085 0
M  V30 3907 C 361.707 1.52915 -3.27566 0
M  V30 3908 O 361.428 0.62329 -4.33644 0
M  V30 3909 C 362.929 2.33502 -3.76818 0
M  V30 3910 H 360.149 0.213465 -0.63614 0
M  V30 3911 H 362.693 0.0117698 -2.04497 0
M  V30 3912 H 360.848 2.22486 -3.17142 0
M  V30 3913 H 361.262 1.16383 -5.11425 0
M  V30 3914 H 362.736 2.83214 -4.73808 0
M  V30 3915 H 363.213 3.14068 -3.07014 0
M  V30 3916 H 363.819 1.69043 -3.90262 0
M  V30 3917 N 362.134 1.5431 0.320358 0
M  V30 3918 C 363.381 1.72668 1.05792 0
M  V30 3919 C 363.709 0.502084 1.87908 0
M  V30 3920 O 362.964 -0.516149 1.88771 0
M  V30 3921 C 363.263 2.95639 2.00828 0
M  V30 3922 C 362.929 4.30265 1.34843 0
M  V30 3923 C 361.591 4.66865 1.16578 0
M  V30 3924 C 363.943 5.13801 0.875095 0
M  V30 3925 C 361.271 5.84597 0.496336 0
M  V30 3926 C 363.623 6.32219 0.219463 0
M  V30 3927 C 362.287 6.67495 0.0246915 0
M  V30 3928 H 361.557 0.631837 0.387121 0
M  V30 3929 H 364.204 1.88552 0.334735 0
M  V30 3930 H 362.509 2.74456 2.79609 0
M  V30 3931 H 364.206 3.07038 2.57932 0
M  V30 3932 H 360.796 4.01472 1.50061 0
M  V30 3933 H 364.98 4.86039 1.00398 0
M  V30 3934 H 360.236 6.10486 0.334264 0
M  V30 3935 H 364.41 6.96227 -0.155291 0
M  V30 3936 H 362.037 7.5858 -0.496065 0
M  V30 3937 N 363.613 -0.582584 1.46437 0
M  V30 3938 C 364.841 -1.36682 1.55324 0
M  V30 3939 C 365.256 -1.87796 0.194409 0
M  V30 3940 O 364.613 -1.63623 -0.808318 0
M  V30 3941 C 364.664 -2.55426 2.55812 0
M  V30 3942 O 364.385 -2.0643 3.86417 0
M  V30 3943 C 365.886 -3.47976 2.74641 0
M  V30 3944 H 363.106 -0.417545 0.525259 0
M  V30 3945 H 365.65 -0.708219 1.91845 0
M  V30 3946 H 363.805 -3.17275 2.22295 0
M  V30 3947 H 364.219 -2.83762 4.41111 0
M  V30 3948 H 365.693 -4.27775 3.48874 0
M  V30 3949 H 366.17 -3.99919 1.81553 0
M  V30 3950 H 366.776 -2.91962 3.09255 0
M  V30 3951 N 365.091 -1.34144 -0.827227 0
M  V30 3952 C 366.507 -1.13732 -1.11969 0
M  V30 3953 C 366.707 0.0640463 -2.01398 0
M  V30 3954 O 365.763 0.740856 -2.41387 0
M  V30 3955 C 367.076 -2.43047 -1.77055 0
M  V30 3956 C 368.624 -2.49063 -1.89569 0
M  V30 3957 C 369.099 -3.78369 -2.58072 0
M  V30 3958 N 370.59 -3.79505 -2.65575 0
M  V30 3959 C 371.325 -4.76274 -3.19297 0
M  V30 3960 N 370.821 -5.83424 -3.73616 0
M  V30 3961 N 372.614 -4.63735 -3.17658 0
M  V30 3962 H 364.765 -2.11126 -0.232296 0
M  V30 3963 H 367.028 -0.933424 -0.165602 0
M  V30 3964 H 366.734 -3.31025 -1.18807 0
M  V30 3965 H 366.608 -2.56066 -2.76966 0
M  V30 3966 H 368.995 -1.61527 -2.46968 0
M  V30 3967 H 369.076 -2.39975 -0.885745 0
M  V30 3968 H 368.72 -4.66293 -2.01329 0
M  V30 3969 H 368.65 -3.84737 -3.59562 0
M  V30 3970 H 371.141 -3.02074 -2.27068 0
M  V30 3971 H 371.454 -6.53282 -4.12846 0
M  V30 3972 H 369.799 -5.87143 -3.71871 0
M  V30 3973 H 372.99 -3.79177 -2.74486 0
M  V30 3974 H 373.163 -5.39318 -3.59221 0
M  V30 3975 N 366.569 1.04691 -1.17803 0
M  V30 3976 C 367.479 2.16057 -0.914151 0
M  V30 3977 C 368.495 1.73589 0.119503 0
M  V30 3978 O 369.671 2.01308 -0.0609468 0
M  V30 3979 C 366.736 3.4394 -0.436603 0
M  V30 3980 C 365.797 4.00825 -1.53746 0
M  V30 3981 C 365.03 5.22604 -1.0826 0
M  V30 3982 O 365.253 5.70367 0.0612244 0
M  V30 3983 O 364.187 5.7186 -1.87775 0
M  V30 3984 H 368.013 2.41169 -1.84584 0
M  V30 3985 H 365.598 1.1453 -0.959334 0
M  V30 3986 H 367.48 4.21024 -0.178057 0
M  V30 3987 H 366.155 3.20316 0.466869 0
M  V30 3988 H 365.062 3.25158 -1.84995 0
M  V30 3989 H 366.395 4.28778 -2.41683 0
M  V30 3990 N 368.047 0.979072 1.23499 0
M  V30 3991 C 369.272 0.664845 1.96455 0
M  V30 3992 C 369.697 -0.761287 1.72006 0
M  V30 3993 O 369.055 -1.51837 0.990713 0
M  V30 3994 C 369.103 0.959479 3.47601 0
M  V30 3995 O 368.207 0.0508168 4.12369 0
M  V30 3996 H 367.548 0.250185 0.615064 0
M  V30 3997 H 370.078 1.31231 1.5697 0
M  V30 3998 H 370.088 0.895642 3.98048 0
M  V30 3999 H 368.763 1.99876 3.64723 0
M  V30 4000 H 367.34 0.16895 3.72517 0
M  V30 4001 N 369.525 -1.3858 0.750561 0
M  V30 4002 C 370.75 -2.04997 0.314812 0
M  V30 4003 C 371.175 -1.56235 -1.04749 0
M  V30 4004 O 370.533 -0.712981 -1.66692 0
M  V30 4005 C 370.581 -3.58961 0.343415 0
M  V30 4006 O 369.685 -4.07025 -0.663628 0
M  V30 4007 H 369.026 -0.649081 0.139962 0
M  V30 4008 H 371.556 -1.77313 1.02084 0
M  V30 4009 H 371.566 -4.07542 0.193233 0
M  V30 4010 H 370.241 -3.93811 1.33738 0
M  V30 4011 H 368.818 -3.6982 -0.478307 0
M  V30 4012 N 371.003 -0.499398 -1.49478 0
M  V30 4013 C 372.243 0.0440751 -2.04352 0
M  V30 4014 C 372.607 1.34423 -1.37093 0
M  V30 4015 O 373.808 1.97184 -1.82679 0
M  V30 4016 C 372.079 0.194918 -3.56868 0
M  V30 4017 S 373.638 0.69287 -4.33295 0
M  V30 4018 H 370.456 0.00253458 -0.710995 0
M  V30 4019 H 373.058 -0.673 -1.83551 0
M  V30 4020 H 371.762 -0.756672 -4.03364 0
M  V30 4021 H 371.293 0.93728 -3.82071 0
M  V30 4022 H 373.308 1.96226 -4.55752 0
M  V30 4023 N 372.481 1.55866 -0.233164 0
M  V30 4024 C 373.391 2.24431 0.683217 0
M  V30 4025 C 374.407 1.2558 1.2044 0
M  V30 4026 O 375.583 1.58422 1.24356 0
M  V30 4027 C 372.648 2.91979 1.86947 0
M  V30 4028 C 371.709 4.06204 1.38912 0
M  V30 4029 C 370.942 4.70522 2.51883 0
M  V30 4030 O 371.165 4.33865 3.70293 0
M  V30 4031 O 370.099 5.59296 2.22423 0
M  V30 4032 H 373.925 3.03426 0.129059 0
M  V30 4033 H 371.51 1.494 -0.0022283 0
M  V30 4034 H 373.392 3.34573 2.56201 0
M  V30 4035 H 372.067 2.15935 2.41151 0
M  V30 4036 H 370.974 3.68155 0.664259 0
M  V30 4037 H 372.307 4.84025 0.893328 0
M  V30 4038 N 373.959 -0.0401083 1.57549 0
M  V30 4039 C 375.208 -0.732108 1.87944 0
M  V30 4040 C 375.521 -1.77107 0.830206 0
M  V30 4041 O 376.727 -2.51488 1.02302 0
M  V30 4042 C 375.183 -1.35315 3.33494 0
M  V30 4043 C 374.791 -0.351105 4.46622 0
M  V30 4044 C 376.535 -2.02566 3.73051 0
M  V30 4045 C 374.442 -0.979859 5.83226 0
M  V30 4046 H 373.372 -0.277188 0.701201 0
M  V30 4047 H 376.023 0.0138501 1.83495 0
M  V30 4048 H 374.405 -2.14844 3.32653 0
M  V30 4049 H 375.579 0.416674 4.58912 0
M  V30 4050 H 373.894 0.218708 4.15825 0
M  V30 4051 H 376.491 -2.50441 4.72423 0
M  V30 4052 H 376.834 -2.83904 3.04474 0
M  V30 4053 H 377.367 -1.29827 3.76018 0
M  V30 4054 H 374.106 -0.206135 6.55176 0
M  V30 4055 H 373.626 -1.71774 5.74677 0
M  V30 4056 H 375.305 -1.49046 6.29599 0
M  V30 4057 N 375.437 -1.54477 -0.31217 0
M  V30 4058 C 376.384 -1.84655 -1.38461 0
M  V30 4059 C 377.354 -0.694536 -1.50882 0
M  V30 4060 O 378.539 -0.942081 -1.6592 0
M  V30 4061 C 375.679 -2.0896 -2.74645 0
M  V30 4062 C 374.792 -3.36618 -2.70763 0
M  V30 4063 C 373.927 -3.50824 -3.98868 0
M  V30 4064 C 372.966 -4.72315 -3.89339 0
M  V30 4065 N 372.103 -4.83387 -5.09197 0
M  V30 4066 H 376.943 -2.76142 -1.12026 0
M  V30 4067 H 374.48 -1.36748 -0.542065 0
M  V30 4068 H 376.438 -2.21045 -3.53829 0
M  V30 4069 H 375.068 -1.20752 -2.99364 0
M  V30 4070 H 374.12 -3.33211 -1.83506 0
M  V30 4071 H 375.432 -4.25917 -2.59608 0
M  V30 4072 H 374.586 -3.62513 -4.86486 0
M  V30 4073 H 373.325 -2.59638 -4.12843 0
M  V30 4074 H 372.33 -4.6067 -3.00105 0
M  V30 4075 H 373.555 -5.64897 -3.76919 0
M  V30 4076 H 371.501 -3.9512 -5.23657 0
M  V30 4077 H 371.418 -5.66669 -5.00422 0
M  V30 4078 H 372.686 -4.9942 -5.98498 0
M  V30 4079 N 376.915 0.57481 -1.46744 0
M  V30 4080 C 377.845 1.69337 -1.60771 0
M  V30 4081 C 378.826 1.63825 -0.457736 0
M  V30 4082 O 380.011 1.8172 -0.684947 0
M  V30 4083 C 377.141 3.0798 -1.60517 0
M  V30 4084 C 376.095 3.28327 -2.74564 0
M  V30 4085 C 375.421 4.67578 -2.59373 0
M  V30 4086 C 376.721 3.15398 -4.16319 0
M  V30 4087 H 378.415 1.57853 -2.54407 0
M  V30 4088 H 375.961 0.75799 -1.22436 0
M  V30 4089 H 377.914 3.86061 -1.68923 0
M  V30 4090 H 376.638 3.20381 -0.634305 0
M  V30 4091 H 375.297 2.52649 -2.65639 0
M  V30 4092 H 374.945 4.76755 -1.60353 0
M  V30 4093 H 374.645 4.82144 -3.35873 0
M  V30 4094 H 376.169 5.47817 -2.69682 0
M  V30 4095 H 377.583 3.83315 -4.26313 0
M  V30 4096 H 375.98 3.41482 -4.93468 0
M  V30 4097 H 377.05 2.12372 -4.3592 0
M  V30 4098 N 378.394 1.34581 0.820102 0
M  V30 4099 C 379.341 1.2639 1.93117 0
M  V30 4100 C 380.311 0.138554 1.65521 0
M  V30 4101 O 381.496 0.320004 1.88097 0
M  V30 4102 C 378.636 1.02812 3.29429 0
M  V30 4103 C 377.749 2.24146 3.693 0
M  V30 4104 C 376.884 1.93829 4.94574 0
M  V30 4105 C 375.923 3.1129 5.27034 0
M  V30 4106 N 375.06 2.80838 6.43486 0
M  V30 4107 H 379.9 2.21408 1.99455 0
M  V30 4108 H 377.437 1.10077 0.975784 0
M  V30 4109 H 379.395 0.871788 4.0799 0
M  V30 4110 H 378.025 0.114612 3.22596 0
M  V30 4111 H 377.077 2.50691 2.86109 0
M  V30 4112 H 378.389 3.11899 3.89257 0
M  V30 4113 H 377.543 1.74948 5.80929 0
M  V30 4114 H 376.282 1.03341 4.76626 0
M  V30 4115 H 375.287 3.30764 4.39175 0
M  V30 4116 H 376.512 4.02561 5.4692 0
M  V30 4117 H 374.458 1.92929 6.26988 0
M  V30 4118 H 374.375 3.62123 6.63629 0
M  V30 4119 H 375.643 2.65467 7.32903 0
M  V30 4120 N 379.872 -1.04064 1.18357 0
M  V30 4121 C 381.118 -1.77658 0.990412 0
M  V30 4122 C 381.473 -1.86446 -0.474944 0
M  V30 4123 O 380.766 -1.36153 -1.34807 0
M  V30 4124 C 380.96 -3.20634 1.57888 0
M  V30 4125 C 380.789 -3.25782 3.09994 0
M  V30 4126 C 379.559 -3.34411 3.7881 0
M  V30 4127 C 381.757 -3.13791 4.0748 0
M  V30 4128 N 379.739 -3.28809 5.18418 0
M  V30 4129 C 381.11 -3.15689 5.33611 0
M  V30 4130 C 383.165 -2.97833 3.98998 0
M  V30 4131 C 381.868 -3.03268 6.52243 0
M  V30 4132 C 383.894 -2.86759 5.17227 0
M  V30 4133 C 383.256 -2.893 6.4225 0
M  V30 4134 H 379.355 -0.661901 0.416427 0
M  V30 4135 H 381.939 -1.23968 1.50133 0
M  V30 4136 H 380.11 -3.7267 1.09414 0
M  V30 4137 H 381.842 -3.82525 1.32124 0
M  V30 4138 H 378.597 -3.40144 3.29543 0
M  V30 4139 H 379.021 -3.29448 5.91433 0
M  V30 4140 H 383.663 -2.94698 3.03171 0
M  V30 4141 H 381.381 -3.05156 7.48268 0
M  V30 4142 H 384.967 -2.75465 5.12455 0
M  V30 4143 H 383.847 -2.80818 7.32196 0
M  V30 4144 N 381.35 -0.985608 -1.22978 0
M  V30 4145 C 382.575 -0.675254 -1.961 0
M  V30 4146 C 383 0.752154 -1.72407 0
M  V30 4147 O 382.358 1.5131 -0.998751 0
M  V30 4148 C 382.406 -0.977899 -3.47087 0
M  V30 4149 O 381.51 -0.072685 -4.12336 0
M  V30 4150 H 380.851 -0.253443 -0.613728 0
M  V30 4151 H 383.381 -1.32061 -1.56272 0
M  V30 4152 H 383.391 -0.916739 -3.97567 0
M  V30 4153 H 382.066 -2.01807 -3.63657 0
M  V30 4154 H 380.643 -0.188703 -3.72422 0
M  V30 4155 N 382.828 1.3818 -0.7579 0
M  V30 4156 C 384.077 1.99261 -0.312744 0
M  V30 4157 C 384.39 1.60846 1.11301 0
M  V30 4158 O 385.596 2.14929 1.65885 0
M  V30 4159 C 384.052 3.56294 -0.50821 0
M  V30 4160 C 383.66 4.03657 -1.94333 0
M  V30 4161 C 385.404 4.24313 -0.125982 0
M  V30 4162 C 383.311 5.53347 -2.08712 0
M  V30 4163 H 382.241 0.745456 -0.113185 0
M  V30 4164 H 384.892 1.57889 -0.935056 0
M  V30 4165 H 383.274 3.95575 0.183353 0
M  V30 4166 H 384.448 3.75655 -2.66871 0
M  V30 4167 H 382.763 3.48376 -2.28086 0
M  V30 4168 H 385.36 5.34279 -0.212125 0
M  V30 4169 H 385.703 4.05962 0.921964 0
M  V30 4170 H 386.236 3.90285 -0.769563 0
M  V30 4171 H 382.975 5.76607 -3.11777 0
M  V30 4172 H 382.495 5.83078 -1.4064 0
M  V30 4173 H 384.174 6.19111 -1.87912 0
M  V30 4174 N 384.306 0.507319 1.49211 0
M  V30 4175 C 385.717 0.0611118 1.866 0
M  V30 4176 C 386.068 -1.35488 1.41907 0
M  V30 4177 O 385.193 -2.0108 0.799726 0
M  V30 4178 C 385.788 0.104125 3.3864 0
M  V30 4179 C 384.347 -0.28677 3.75306 0
M  V30 4180 C 383.494 0.473893 2.73221 0
M  V30 4181 H 386.445 0.719775 1.41439 0
M  V30 4182 H 386.466 -0.689672 3.74198 0
M  V30 4183 H 385.978 1.13482 3.71138 0
M  V30 4184 H 384.079 -1.32046 3.48417 0
M  V30 4185 H 384.192 0.0370745 4.79086 0
M  V30 4186 H 382.556 -0.0770644 2.54583 0
M  V30 4187 H 383.339 1.50478 3.08563 0
M  V30 4188 N 385.784 -1.5574 0.241426 0
M  V30 4189 C 386.714 -2.24133 -0.654722 0
M  V30 4190 C 387.695 -1.21974 -1.1856 0
M  V30 4191 O 388.88 -1.50612 -1.22595 0
M  V30 4192 C 386.01 -2.93659 -1.85423 0
M  V30 4193 C 384.964 -4.0246 -1.45636 0
M  V30 4194 C 384.29 -4.59383 -2.73626 0
M  V30 4195 C 385.59 -5.18468 -0.631506 0
M  V30 4196 H 387.284 -2.99281 -0.0844353 0
M  V30 4197 H 384.83 -1.43947 -0.0391707 0
M  V30 4198 H 386.783 -3.40203 -2.48676 0
M  V30 4199 H 385.507 -2.15991 -2.44981 0
M  V30 4200 H 384.166 -3.56676 -0.847202 0
M  V30 4201 H 383.814 -3.78422 -3.3137 0
M  V30 4202 H 383.514 -5.32826 -2.4773 0
M  V30 4203 H 385.038 -5.08658 -3.37786 0
M  V30 4204 H 386.452 -5.61272 -1.1682 0
M  V30 4205 H 384.849 -5.98266 -0.468831 0
M  V30 4206 H 385.919 -4.8358 0.357506 0
M  V30 4207 N 387.262 0.0317525 -1.57568 0
M  V30 4208 C 388.51 0.721676 -1.88776 0
M  V30 4209 C 388.831 1.76039 -0.838772 0
M  V30 4210 O 388.101 1.95482 0.127935 0
M  V30 4211 H 386.681 0.269534 -0.696678 0
M  V30 4212 H 389.343 -0.00165879 -1.949 0
M  V30 4213 H 388.439 1.21293 -2.87566 0
M  V30 4214 N 388.74 1.54641 0.303973 0
M  V30 4215 C 390.151 1.64811 0.877163 0
M  V30 4216 C 390.502 0.554838 1.88191 0
M  V30 4217 O 389.627 -0.309033 2.14182 0
M  V30 4218 C 390.222 2.9876 1.59775 0
M  V30 4219 C 388.781 3.11061 2.11938 0
M  V30 4220 C 387.928 2.60479 0.951097 0
M  V30 4221 H 390.879 1.58493 0.0810486 0
M  V30 4222 H 390.9 2.90017 2.46314 0
M  V30 4223 H 390.412 3.7831 0.866226 0
M  V30 4224 H 388.513 2.36225 2.88146 0
M  V30 4225 H 388.626 4.17171 2.35595 0
M  V30 4226 H 386.99 2.16859 1.33583 0
M  V30 4227 H 387.773 3.42504 0.233581 0
M  V30 4228 N 390.218 -0.567019 1.47046 0
M  V30 4229 C 391.467 -1.32091 1.5243 0
M  V30 4230 C 391.78 -1.94704 0.187021 0
M  V30 4231 O 392.986 -2.7124 0.118771 0
M  V30 4232 C 391.442 -2.39479 2.68659 0
M  V30 4233 C 391.05 -1.831 4.08874 0
M  V30 4234 C 392.794 -3.16111 2.83327 0
M  V30 4235 C 390.701 -2.8821 5.16419 0
M  V30 4236 H 389.631 -0.496629 0.56734 0
M  V30 4237 H 392.282 -0.603354 1.73297 0
M  V30 4238 H 390.664 -3.14105 2.41152 0
M  V30 4239 H 391.838 -1.14913 4.46242 0
M  V30 4240 H 390.153 -1.19085 3.99008 0
M  V30 4241 H 392.75 -3.94585 3.60842 0
M  V30 4242 H 393.093 -3.69686 1.91411 0
M  V30 4243 H 393.626 -2.48595 3.10556 0
M  V30 4244 H 390.365 -2.39504 6.10179 0
M  V30 4245 H 389.885 -3.54839 4.8358 0
M  V30 4246 H 391.564 -3.51881 5.42945 0
M  V30 4247 N 391.696 -1.35014 -0.812953 0
M  V30 4248 C 393.107 -1.25035 -1.38648 0
M  V30 4249 C 393.458 0.119967 -1.95833 0
M  V30 4250 O 392.583 1.02069 -1.90816 0
M  V30 4251 C 393.178 -2.26394 -2.52054 0
M  V30 4252 C 391.737 -2.20175 -3.05287 0
M  V30 4253 C 390.884 -2.12451 -1.78213 0
M  V30 4254 H 393.835 -1.46235 -0.616516 0
M  V30 4255 H 393.856 -1.88672 -3.30429 0
M  V30 4256 H 393.368 -3.26116 -2.10404 0
M  V30 4257 H 391.469 -1.23841 -3.51417 0
M  V30 4258 H 391.582 -3.11863 -3.63701 0
M  V30 4259 H 389.946 -1.58328 -1.9951 0
M  V30 4260 H 390.729 -3.14024 -1.38723 0
M  V30 4261 N 393.175 1.03435 -1.18907 0
M  V30 4262 C 394.138 2.09756 -0.923844 0
M  V30 4263 C 395.138 1.60528 0.093416 0
M  V30 4264 O 396.328 1.73631 -0.140727 0
M  V30 4265 C 393.46 3.38692 -0.387354 0
M  V30 4266 H 394.653 2.34719 -1.86674 0
M  V30 4267 H 392.206 1.19959 -1.00197 0
M  V30 4268 H 392.941 3.19396 0.561845 0
M  V30 4269 H 392.726 3.75742 -1.12074 0
M  V30 4270 H 394.216 4.17016 -0.220694 0
M  V30 4271 N 394.653 0.992116 1.22453 0
M  V30 4272 C 396.069 0.702713 1.43297 0
M  V30 4273 C 396.269 -0.726909 1.87932 0
M  V30 4274 O 395.325 -1.49792 2.0327 0
M  V30 4275 C 396.638 1.70762 2.47509 0
M  V30 4276 C 398.186 1.72298 2.61309 0
M  V30 4277 C 398.661 2.71649 3.68742 0
M  V30 4278 N 400.152 2.70239 3.76199 0
M  V30 4279 C 400.887 3.43778 4.58917 0
M  V30 4280 N 400.383 4.26914 5.45633 0
M  V30 4281 N 402.176 3.32487 4.5322 0
M  V30 4282 H 394.327 1.91543 0.917871 0
M  V30 4283 H 396.59 0.826031 0.465162 0
M  V30 4284 H 396.296 2.73059 2.21657 0
M  V30 4285 H 396.17 1.49985 3.46099 0
M  V30 4286 H 398.557 0.706989 2.86506 0
M  V30 4287 H 398.638 1.97143 1.62997 0
M  V30 4288 H 398.282 3.73397 3.44292 0
M  V30 4289 H 398.212 2.44074 4.66622 0
M  V30 4290 H 400.703 2.09912 3.14237 0
M  V30 4291 H 401.016 4.79855 6.05771 0
M  V30 4292 H 399.361 4.31002 5.45218 0
M  V30 4293 H 402.552 2.6698 3.84499 0
M  V30 4294 H 402.725 3.90058 5.17454 0
M  V30 4295 N 396.131 -1.37776 0.765217 0
M  V30 4296 C 397.371 -2.01691 0.331669 0
M  V30 4297 C 397.735 -1.59432 -1.06983 0
M  V30 4298 O 398.936 -2.15761 -1.60314 0
M  V30 4299 C 397.207 -3.54385 0.463261 0
M  V30 4300 S 398.766 -4.38652 0.114011 0
M  V30 4301 H 395.584 -0.699387 0.127979 0
M  V30 4302 H 398.186 -1.68084 0.998396 0
M  V30 4303 H 396.89 -3.82629 1.48401 0
M  V30 4304 H 396.421 -3.92783 -0.220246 0
M  V30 4305 H 398.436 -4.84021 -1.09261 0
M  V30 4306 N 397.609 -0.515225 -1.4894 0
M  V30 4307 C 398.856 0.024215 -2.02486 0
M  V30 4308 C 399.184 1.35671 -1.39368 0
M  V30 4309 O 398.439 1.88566 -0.523574 0
M  V30 4310 C 398.738 0.210595 -3.56779 0
M  V30 4311 C 398.404 -1.04569 -4.38607 0
M  V30 4312 C 397.066 -1.39002 -4.60686 0
M  V30 4313 C 399.418 -1.88008 -4.86109 0
M  V30 4314 C 396.746 -2.568 -5.27514 0
M  V30 4315 C 399.098 -3.04972 -5.54234 0
M  V30 4316 C 397.762 -3.39768 -5.74555 0
M  V30 4317 H 397.032 0.00886088 -0.740947 0
M  V30 4318 H 399.679 -0.678263 -1.79086 0
M  V30 4319 H 397.984 0.99572 -3.78936 0
M  V30 4320 H 399.681 0.642659 -3.95817 0
M  V30 4321 H 396.271 -0.767497 -4.21672 0
M  V30 4322 H 400.455 -1.62719 -4.68867 0
M  V30 4323 H 395.711 -2.8398 -5.41447 0
M  V30 4324 H 399.885 -3.69943 -5.90013 0
M  V30 4325 H 397.512 -4.31148 -6.26112 0
M  V30 4326 N 399.087 1.5561 -0.249682 0
M  V30 4327 C 400.364 1.90932 0.424761 0
M  V30 4328 C 400.744 1.17078 1.75658 0
M  V30 4329 O 400.092 0.289176 2.26663 0
M  V30 4330 C 400.302 3.43975 0.590109 0
M  V30 4331 C 401.65 4.15281 0.884714 0
M  V30 4332 O 402.674 3.49729 0.67587 0
M  V30 4333 O 401.533 5.31236 1.28259 0
M  V30 4334 H 398.627 0.794815 0.228468 0
M  V30 4335 H 401.173 1.67135 -0.293954 0
M  V30 4336 H 399.945 3.89748 -0.34818 0
M  V30 4337 H 399.568 3.73644 1.35926 0
M  V30 4338 N 400.565 -0.0233959 1.57583 0
M  V30 4339 C 401.795 -0.723631 1.93513 0
M  V30 4340 C 402.203 -1.69115 0.848333 0
M  V30 4341 O 401.546 -1.82781 -0.183484 0
M  V30 4342 C 401.608 -1.53075 3.25282 0
M  V30 4343 C 401.272 -0.727388 4.51174 0
M  V30 4344 C 402.269 -0.0251924 5.19894 0
M  V30 4345 C 399.954 -0.680256 4.97672 0
M  V30 4346 C 401.948 0.713374 6.33395 0
M  V30 4347 C 399.635 0.0620523 6.11068 0
M  V30 4348 C 400.633 0.757622 6.78785 0
M  V30 4349 O 400.321 1.48787 7.90011 0
M  V30 4350 H 400.053 -0.208051 0.643188 0
M  V30 4351 H 402.607 0.0167489 2.05393 0
M  V30 4352 H 400.837 -2.31508 3.09744 0
M  V30 4353 H 402.526 -2.11413 3.46496 0
M  V30 4354 H 403.292 -0.0526003 4.84971 0
M  V30 4355 H 399.171 -1.21116 4.44805 0
M  V30 4356 H 402.715 1.25683 6.86185 0
M  V30 4357 H 398.612 0.0913634 6.45435 0
M  V30 4358 H 399.38 1.40213 8.06401 0
M  V30 4359 N 402.043 -1.548 -0.295768 0
M  V30 4360 C 402.953 -1.89177 -1.38742 0
M  V30 4361 C 403.969 -0.786481 -1.55211 0
M  V30 4362 O 405.145 -1.08344 -1.69775 0
M  V30 4363 C 402.21 -2.13663 -2.73036 0
M  V30 4364 C 401.271 -3.37349 -2.65508 0
M  V30 4365 C 400.504 -3.60658 -3.93398 0
M  V30 4366 O 400.727 -2.86882 -4.93006 0
M  V30 4367 O 399.661 -4.54179 -3.94975 0
M  V30 4368 H 403.487 -2.82059 -1.12589 0
M  V30 4369 H 401.072 -1.41056 -0.492295 0
M  V30 4370 H 402.954 -2.3094 -3.52484 0
M  V30 4371 H 401.629 -1.23967 -2.99022 0
M  V30 4372 H 400.536 -3.25431 -1.84514 0
M  V30 4373 H 401.869 -4.27192 -2.44474 0
M  V30 4374 N 403.521 0.559213 -1.47345 0
M  V30 4375 C 404.77 1.31281 -1.53128 0
M  V30 4376 C 405.083 1.94602 -0.197344 0
M  V30 4377 O 406.289 2.71173 -0.133154 0
M  V30 4378 C 404.745 2.38051 -2.69925 0
M  V30 4379 C 404.353 1.8093 -4.0984 0
M  V30 4380 C 406.097 3.14604 -2.84999 0
M  V30 4381 C 404.004 2.85468 -5.1794 0
M  V30 4382 H 402.934 0.493614 -0.569966 0
M  V30 4383 H 405.585 0.594155 -1.73615 0
M  V30 4384 H 403.967 3.12822 -2.42814 0
M  V30 4385 H 405.141 1.12544 -4.46845 0
M  V30 4386 H 403.456 1.16967 -3.99634 0
M  V30 4387 H 406.053 3.92666 -3.62929 0
M  V30 4388 H 406.396 3.68665 -1.93369 0
M  V30 4389 H 406.929 2.46945 -3.1187 0
M  V30 4390 H 403.668 2.36264 -6.1144 0
M  V30 4391 H 403.188 3.52269 -4.85455 0
M  V30 4392 H 404.867 3.48996 -5.44803 0
M  V30 4393 N 404.999 1.35443 0.805782 0
M  V30 4394 C 405.909 1.30546 1.94923 0
M  V30 4395 C 406.925 0.210233 1.72725 0
M  V30 4396 O 408.101 0.43975 1.9654 0
M  V30 4397 C 405.166 1.07782 3.29521 0
M  V30 4398 C 404.227 2.26625 3.64609 0
M  V30 4399 C 403.46 2.04938 4.92784 0
M  V30 4400 O 403.683 1.01624 5.61274 0
M  V30 4401 O 402.617 2.9232 5.26149 0
M  V30 4402 H 406.443 2.26779 2.02002 0
M  V30 4403 H 404.028 1.15823 0.943682 0
M  V30 4404 H 405.91 0.969392 4.10098 0
M  V30 4405 H 404.585 0.146003 3.23371 0
M  V30 4406 H 403.492 2.43033 2.84404 0
M  V30 4407 H 404.825 3.18257 3.75464 0
M  V30 4408 N 406.477 -1.02803 1.19454 0
M  V30 4409 C 407.726 -1.7562 0.991996 0
M  V30 4410 C 408.039 -1.89672 -0.477901 0
M  V30 4411 O 409.245 -2.59468 -0.799287 0
M  V30 4412 C 407.701 -3.15812 1.72601 0
M  V30 4413 C 407.309 -3.0981 3.23607 0
M  V30 4414 C 409.053 -3.92918 1.60674 0
M  V30 4415 C 406.96 -4.44939 3.89594 0
M  V30 4416 H 405.89 -0.658352 0.367543 0
M  V30 4417 H 408.541 -1.15044 1.42959 0
M  V30 4418 H 406.923 -3.7686 1.21624 0
M  V30 4419 H 408.097 -2.58138 3.81709 0
M  V30 4420 H 406.412 -2.46201 3.35819 0
M  V30 4421 H 409.009 -4.9287 2.07323 0
M  V30 4422 H 409.352 -4.12502 0.561025 0
M  V30 4423 H 409.885 -3.38472 2.09001 0
M  V30 4424 H 406.624 -4.30559 4.94267 0
M  V30 4425 H 406.144 -4.96664 3.36281 0
M  V30 4426 H 407.823 -5.1382 3.93189 0
M  V30 4427 N 407.956 -0.998596 -1.21925 0
M  V30 4428 C 409.372 -0.710303 -1.42923 0
M  V30 4429 C 409.572 0.716933 -1.88314 0
M  V30 4430 O 408.628 1.48712 -2.04062 0
M  V30 4431 C 409.941 -1.72072 -2.466 0
M  V30 4432 C 411.489 -1.73681 -2.60392 0
M  V30 4433 C 411.964 -2.73601 -3.67296 0
M  V30 4434 N 413.455 -2.7223 -3.7476 0
M  V30 4435 C 414.19 -3.46206 -4.57087 0
M  V30 4436 N 413.686 -4.29802 -5.43362 0
M  V30 4437 N 415.479 -3.34886 -4.51451 0
M  V30 4438 H 407.63 -1.92028 -0.9077 0
M  V30 4439 H 409.893 -0.828487 -0.460775 0
M  V30 4440 H 409.599 -2.74231 -2.20206 0
M  V30 4441 H 409.473 -1.51818 -3.45299 0
M  V30 4442 H 411.86 -0.722173 -2.86127 0
M  V30 4443 H 411.941 -1.98005 -1.61949 0
M  V30 4444 H 411.585 -3.75217 -3.42307 0
M  V30 4445 H 411.515 -2.46545 -4.65321 0
M  V30 4446 H 414.006 -2.11576 -3.1312 0
M  V30 4447 H 414.319 -4.83061 -6.03218 0
M  V30 4448 H 412.664 -4.33887 -5.42925 0
M  V30 4449 H 415.855 -2.69015 -3.83078 0
M  V30 4450 H 416.028 -3.92796 -5.15379 0
M  V30 4451 N 409.434 1.37368 -0.772513 0
M  V30 4452 C 410.344 2.34053 -0.160081 0
M  V30 4453 C 411.36 1.60216 0.678728 0
M  V30 4454 O 412.536 1.92303 0.59847 0
M  V30 4455 C 409.601 3.3939 0.708182 0
M  V30 4456 C 408.662 4.29048 -0.147172 0
M  V30 4457 C 407.895 5.29354 0.679744 0
M  V30 4458 O 408.118 5.3723 1.91678 0
M  V30 4459 O 407.052 6.01835 0.0885444 0
M  V30 4460 H 410.878 2.88159 -0.959053 0
M  V30 4461 H 408.463 1.39543 -0.533685 0
M  V30 4462 H 410.345 4.03839 1.20384 0
M  V30 4463 H 409.02 2.8761 1.48533 0
M  V30 4464 H 407.927 3.67697 -0.689205 0
M  V30 4465 H 409.26 4.84134 -0.887423 0
M  V30 4466 N 410.912 0.523116 1.48665 0
M  V30 4467 C 412.189 -0.0775449 1.95446 0
M  V30 4468 C 412.569 -1.5197 1.4652 0
M  V30 4469 O 411.917 -2.17876 0.688657 0
M  V30 4470 C 412.127 0.0326135 3.48985 0
M  V30 4471 C 413.475 -0.130141 4.24401 0
M  V30 4472 O 414.499 -0.0415142 3.56176 0
M  V30 4473 O 413.358 -0.31491 5.45592 0
M  V30 4474 H 410.452 -0.0831012 0.822814 0
M  V30 4475 H 412.998 0.587227 1.59216 0
M  V30 4476 H 411.77 1.03748 3.77296 0
M  V30 4477 H 411.393 -0.671317 3.91892 0
M  V30 4478 N 412.39 -1.55475 0.257931 0
M  V30 4479 C 413.667 -1.91155 -0.414629 0
M  V30 4480 C 414.047 -1.18008 -1.75035 0
M  V30 4481 O 413.395 -0.301193 -2.26506 0
M  V30 4482 C 413.605 -3.44283 -0.571859 0
M  V30 4483 C 414.953 -4.15744 -0.862678 0
M  V30 4484 O 415.977 -3.50083 -0.657314 0
M  V30 4485 O 414.836 -5.31909 -1.2544 0
M  V30 4486 H 411.93 -0.796016 -0.22425 0
M  V30 4487 H 414.476 -1.66976 0.302814 0
M  V30 4488 H 413.248 -3.89558 0.368844 0
M  V30 4489 H 412.871 -3.7436 -1.33943 0
M  V30 4490 N 413.868 0.0150385 -1.57593 0
M  V30 4491 C 415.096 0.714395 -1.94175 0
M  V30 4492 C 415.511 1.68135 -0.858841 0
M  V30 4493 O 414.868 1.81766 0.163567 0
M  V30 4494 C 414.919 1.45933 -3.30735 0
M  V30 4495 O 414.64 0.531167 -4.34868 0
M  V30 4496 C 416.141 2.25456 -3.81686 0
M  V30 4497 H 413.361 0.199923 -0.640525 0
M  V30 4498 H 415.905 -0.0316096 -2.04476 0
M  V30 4499 H 414.06 2.15709 -3.21789 0
M  V30 4500 H 414.474 1.05509 -5.13778 0
M  V30 4501 H 415.948 2.731 -4.79709 0
M  V30 4502 H 416.425 3.07485 -3.13607 0
M  V30 4503 H 417.031 1.60727 -3.9376 0
M  V30 4504 N 415.346 1.54954 0.287554 0
M  V30 4505 C 416.574 1.78881 1.03967 0
M  V30 4506 C 416.989 0.554894 1.80462 0
M  V30 4507 O 416.346 -0.475676 1.76192 0
M  V30 4508 C 416.397 3.00488 2.0097 0
M  V30 4509 O 416.118 4.19113 1.27577 0
M  V30 4510 C 417.619 3.36907 2.88112 0
M  V30 4511 H 414.839 0.596259 0.307761 0
M  V30 4512 H 417.383 2.01937 0.322749 0
M  V30 4513 H 415.538 2.79601 2.68145 0
M  V30 4514 H 415.952 4.87765 1.92835 0
M  V30 4515 H 417.426 4.25205 3.52001 0
M  V30 4516 H 417.903 2.55659 3.57121 0
M  V30 4517 H 418.509 3.60001 2.26449 0
M  V30 4518 N 416.824 -0.551391 1.4764 0
M  V30 4519 C 417.754 -1.66757 1.63445 0
M  V30 4520 C 418.735 -1.63077 0.483742 0
M  V30 4521 O 419.92 -1.80607 0.71377 0
M  V30 4522 C 417.05 -3.05387 1.65396 0
M  V30 4523 C 416.004 -3.23918 2.79752 0
M  V30 4524 C 415.33 -4.63393 2.66779 0
M  V30 4525 C 416.63 -3.08735 4.21284 0
M  V30 4526 H 418.324 -1.53786 2.56886 0
M  V30 4527 H 415.87 -0.738415 1.23626 0
M  V30 4528 H 417.823 -3.83325 1.75043 0
M  V30 4529 H 416.547 -3.19332 0.685195 0
M  V30 4530 H 415.206 -2.48391 2.69625 0
M  V30 4531 H 414.854 -4.74144 1.67918 0
M  V30 4532 H 414.554 -4.7674 3.43501 0
M  V30 4533 H 416.078 -5.43458 2.78364 0
M  V30 4534 H 417.492 -3.76484 4.32357 0
M  V30 4535 H 415.889 -3.33588 4.98838 0
M  V30 4536 H 416.959 -2.0541 4.39243 0
M  V30 4537 N 418.302 -1.35869 -0.798587 0
M  V30 4538 C 419.548 -1.2978 -1.55836 0
M  V30 4539 C 419.881 0.125322 -1.93795 0
M  V30 4540 O 419.156 1.07658 -1.61987 0
M  V30 4541 C 419.439 -2.21188 -2.84162 0
M  V30 4542 C 419.292 -3.72155 -2.52628 0
M  V30 4543 C 420.611 -2.11545 -3.85923 0
M  V30 4544 H 417.73 -0.472769 -0.565383 0
M  V30 4545 H 420.372 -1.66341 -0.918192 0
M  V30 4546 H 418.522 -1.90139 -3.38791 0
M  V30 4547 H 420.194 -4.13682 -2.04121 0
M  V30 4548 H 418.437 -3.92042 -1.85704 0
M  V30 4549 H 419.108 -4.31511 -3.44242 0
M  V30 4550 H 421.584 -2.38855 -3.40716 0
M  V30 4551 H 420.46 -2.77688 -4.73477 0
M  V30 4552 H 420.721 -1.09987 -4.282 0
M  V30 4553 N 419.78 1.02168 -1.19998 0
M  V30 4554 C 421.008 1.79296 -1.03249 0
M  V30 4555 C 421.423 1.84103 0.418502 0
M  V30 4556 O 420.78 1.29031 1.29063 0
M  V30 4557 C 420.831 3.24007 -1.60319 0
M  V30 4558 O 420.552 3.19512 -2.99739 0
M  V30 4559 C 422.053 4.17704 -1.48453 0
M  V30 4560 H 419.273 0.564016 -0.363493 0
M  V30 4561 H 421.817 1.28639 -1.58973 0
M  V30 4562 H 419.972 3.7183 -1.08727 0
M  V30 4563 H 420.386 4.10306 -3.26725 0
M  V30 4564 H 421.86 5.17104 -1.93153 0
M  V30 4565 H 422.337 4.37029 -0.436193 0
M  V30 4566 H 422.943 3.7576 -1.99211 0
M  V30 4567 N 421.258 1.00505 1.21394 0
M  V30 4568 C 422.221 0.570459 2.21987 0
M  V30 4569 C 423.221 -0.353211 1.56873 0
M  V30 4570 O 424.411 -0.14349 1.73608 0
M  V30 4571 C 421.543 -0.168555 3.40483 0
M  V30 4572 H 422.736 1.46021 2.6195 0
M  V30 4573 H 420.289 0.793565 1.34656 0
M  V30 4574 H 421.024 -1.07374 3.06009 0
M  V30 4575 H 420.809 0.494823 3.88965 0
M  V30 4576 H 422.299 -0.460362 4.15055 0
M  V30 4577 N 422.737 -1.36956 0.779787 0
M  V30 4578 C 423.965 -2.03755 0.359398 0
M  V30 4579 C 424.38 -1.58807 -1.02106 0
M  V30 4580 O 423.737 -0.773024 -1.6532 0
M  V30 4581 C 423.788 -3.59251 0.402568 0
M  V30 4582 O 423.509 -4.02557 1.72858 0
M  V30 4583 C 425.01 -4.43291 -0.0284068 0
M  V30 4584 H 422.23 -0.654148 0.149437 0
M  V30 4585 H 424.774 -1.75128 1.05595 0
M  V30 4586 H 422.929 -3.86621 -0.245478 0
M  V30 4587 H 423.343 -4.97111 1.67275 0
M  V30 4588 H 424.817 -5.51975 0.0529466 0
M  V30 4589 H 425.294 -4.25719 -1.07982 0
M  V30 4590 H 425.9 -4.21163 0.591758 0
M  V30 4591 N 424.215 -0.530993 -1.48385 0
M  V30 4592 C 425.461 0.00274135 -2.028 0
M  V30 4593 C 425.794 1.33838 -1.40716 0
M  V30 4594 O 425.069 1.86465 -0.553277 0
M  V30 4595 C 425.352 0.123676 -3.59888 0
M  V30 4596 C 425.205 -1.2372 -4.3245 0
M  V30 4597 C 426.524 0.849967 -4.31814 0
M  V30 4598 H 423.643 -0.000477758 -0.737 0
M  V30 4599 H 426.285 -0.688217 -1.77098 0
M  V30 4600 H 424.435 0.712157 -3.81917 0
M  V30 4601 H 426.107 -1.86687 -4.21836 0
M  V30 4602 H 424.35 -1.81882 -3.93829 0
M  V30 4603 H 425.021 -1.10557 -5.40815 0
M  V30 4604 H 427.497 0.350572 -4.14621 0
M  V30 4605 H 426.373 0.903486 -5.41413 0
M  V30 4606 H 426.634 1.90047 -3.99167 0
M  V30 4607 N 425.693 1.55336 -0.266172 0
M  V30 4608 C 426.603 2.2583 0.635458 0
M  V30 4609 C 427.619 1.28106 1.17749 0
M  V30 4610 O 428.795 1.61024 1.20968 0
M  V30 4611 C 425.86 2.95879 1.80712 0
M  V30 4612 C 424.921 4.09059 1.30265 0
M  V30 4613 C 424.154 4.75759 2.41846 0
M  V30 4614 O 424.377 4.41622 3.61007 0
M  V30 4615 O 423.311 5.63888 2.1051 0
M  V30 4616 H 427.137 3.03631 0.0646693 0
M  V30 4617 H 424.722 1.49361 -0.0339177 0
M  V30 4618 H 426.604 3.39932 2.49047 0
M  V30 4619 H 425.279 2.21002 2.36516 0
M  V30 4620 H 424.186 3.69482 0.586019 0
M  V30 4621 H 425.519 4.85811 0.790458 0
M  V30 4622 N 427.171 -0.0066808 1.57599 0
M  V30 4623 C 428.119 -1.01851 2.09115 0
M  V30 4624 C 429.113 -1.36021 1.00969 0
M  V30 4625 O 430.319 -1.34663 1.19439 0
M  V30 4626 H 426.694 -0.346083 0.667631 0
M  V30 4627 H 428.665 -0.558394 2.93129 0
M  V30 4628 C 427.414 -2.30374 2.60429 0
M  V30 4629 H 426.737 -2.04947 3.43273 0
M  V30 4630 H 428.177 -2.99466 3.00161 0
M  V30 4631 C 426.636 -3.00893 1.51542 0
M  V30 4632 O 427.166 -3.91614 0.894484 0
M  V30 4633 N 425.372 -2.62603 1.2445 0
M  V30 4634 H 424.919 -1.88911 1.75129 0
M  V30 4635 H 424.877 -3.10101 0.518137 0
M  V30 4636 N 428.649 -1.55105 -0.279332 0
M  V30 4637 C 429.559 -1.90638 -1.36727 0
M  V30 4638 C 430.575 -0.802899 -1.54368 0
M  V30 4639 O 431.751 -1.10138 -1.68616 0
M  V30 4640 C 428.816 -2.16547 -2.70755 0
M  V30 4641 C 427.877 -3.40146 -2.61915 0
M  V30 4642 C 427.11 -3.6481 -3.8955 0
M  V30 4643 O 427.333 -2.92095 -4.89935 0
M  V30 4644 O 426.267 -4.58343 -3.90135 0
M  V30 4645 H 430.093 -2.83237 -1.09591 0
M  V30 4646 H 427.678 -1.4157 -0.477306 0
M  V30 4647 H 429.56 -2.34665 -3.50014 0
M  V30 4648 H 428.235 -1.27131 -2.9769 0
M  V30 4649 H 427.142 -3.2737 -1.81052 0
M  V30 4650 H 428.475 -4.29761 -2.3993 0
M  V30 4651 N 430.127 0.543554 -1.4793 0
M  V30 4652 C 431.355 1.32516 -1.58894 0
M  V30 4653 C 431.77 1.87215 -0.244131 0
M  V30 4654 O 431.127 1.65709 0.764652 0
M  V30 4655 C 431.178 2.48554 -2.62494 0
M  V30 4656 O 430.899 1.96112 -3.91755 0
M  V30 4657 C 432.4 3.40572 -2.8377 0
M  V30 4658 H 429.62 0.403472 -0.536145 0
M  V30 4659 H 432.164 0.657106 -1.93655 0
M  V30 4660 H 430.319 3.1127 -2.30629 0
M  V30 4661 H 430.733 2.71967 -4.4848 0
M  V30 4662 H 432.207 4.18375 -3.60093 0
M  V30 4663 H 432.684 3.94965 -1.92092 0
M  V30 4664 H 433.29 2.8366 -3.16887 0
M  V30 4665 N 431.605 1.3629 0.791371 0
M  V30 4666 C 432.835 1.33368 1.57786 0
M  V30 4667 C 433.243 -0.0875188 1.88997 0
M  V30 4668 O 432.586 -1.05427 1.50435 0
M  V30 4669 C 432.648 2.08802 2.92646 0
M  V30 4670 C 432.312 3.57903 2.84174 0
M  V30 4671 C 433.309 4.52191 2.56553 0
M  V30 4672 C 430.994 4.00762 3.02812 0
M  V30 4673 C 432.988 5.87315 2.47669 0
M  V30 4674 C 430.675 5.35977 2.93551 0
M  V30 4675 C 431.673 6.29066 2.66017 0
M  V30 4676 O 431.361 7.61798 2.56746 0
M  V30 4677 H 431.093 0.459166 0.496128 0
M  V30 4678 H 433.647 1.79952 0.990269 0
M  V30 4679 H 431.877 1.56878 3.53449 0
M  V30 4680 H 433.566 1.98762 3.53904 0
M  V30 4681 H 434.332 4.20393 2.41858 0
M  V30 4682 H 430.211 3.2868 3.2325 0
M  V30 4683 H 433.755 6.59943 2.26099 0
M  V30 4684 H 429.652 5.67384 3.07808 0
M  V30 4685 H 430.42 7.71898 2.72242 0
M  V30 4686 N 433.083 -1.0153 1.20538 0
M  V30 4687 C 434.311 -1.78746 1.04199 0
M  V30 4688 C 434.726 -1.84323 -0.408733 0
M  V30 4689 O 434.083 -1.29714 -1.28377 0
M  V30 4690 C 434.134 -3.23152 1.62035 0
M  V30 4691 O 433.855 -3.17918 3.0143 0
M  V30 4692 C 435.356 -4.16911 1.50666 0
M  V30 4693 H 432.576 -0.56208 0.366479 0
M  V30 4694 H 435.12 -1.27794 1.59653 0
M  V30 4695 H 433.275 -3.71248 1.10697 0
M  V30 4696 H 433.689 -4.08567 3.28897 0
M  V30 4697 H 435.163 -5.16072 1.95892 0
M  V30 4698 H 435.64 -4.36791 0.459363 0
M  V30 4699 H 436.246 -3.74698 2.01201 0
M  V30 4700 N 434.561 -1.01147 -1.20859 0
M  V30 4701 C 435.491 -0.597663 -2.25722 0
M  V30 4702 C 436.472 0.384744 -1.65692 0
M  V30 4703 O 437.657 0.271303 -1.92296 0
M  V30 4704 C 434.787 0.0700149 -3.47229 0
M  V30 4705 C 433.741 -0.832843 -4.19819 0
M  V30 4706 C 433.067 -0.0312202 -5.34691 0
M  V30 4707 C 434.367 -2.1385 -4.76514 0
M  V30 4708 H 436.061 -1.47423 -2.60589 0
M  V30 4709 H 433.607 -0.710301 -1.25263 0
M  V30 4710 H 435.56 0.37103 -4.19763 0
M  V30 4711 H 434.284 0.981259 -3.11511 0
M  V30 4712 H 432.943 -1.11778 -3.49144 0
M  V30 4713 H 432.591 0.881515 -4.95215 0
M  V30 4714 H 432.291 -0.632434 -5.84187 0
M  V30 4715 H 433.815 0.26346 -6.10031 0
M  V30 4716 H 435.229 -1.9002 -5.40893 0
M  V30 4717 H 433.626 -2.69012 -5.36426 0
M  V30 4718 H 434.696 -2.80495 -3.95538 0
M  V30 4719 N 436.039 1.36541 -0.78704 0
M  V30 4720 C 436.986 2.30082 -0.181901 0
M  V30 4721 C 437.956 1.5186 0.672896 0
M  V30 4722 O 439.141 1.80374 0.622072 0
M  V30 4723 C 436.281 3.3835 0.679197 0
M  V30 4724 C 435.394 4.31565 -0.193882 0
M  V30 4725 C 434.529 5.26915 0.673364 0
M  V30 4726 C 433.568 6.11769 -0.201315 0
M  V30 4727 N 432.705 6.99315 0.624777 0
M  V30 4728 H 437.545 2.81248 -0.985064 0
M  V30 4729 H 435.082 1.38437 -0.497342 0
M  V30 4730 H 437.04 3.99767 1.19341 0
M  V30 4731 H 435.67 2.8851 1.44781 0
M  V30 4732 H 434.722 3.71323 -0.826044 0
M  V30 4733 H 436.034 4.91191 -0.867937 0
M  V30 4734 H 435.188 5.9361 1.25348 0
M  V30 4735 H 433.927 4.67737 1.38105 0
M  V30 4736 H 432.932 5.44039 -0.793849 0
M  V30 4737 H 434.157 6.73022 -0.906568 0
M  V30 4738 H 432.103 6.42648 1.3168 0
M  V30 4739 H 432.02 7.56 0.00835237 0
M  V30 4740 H 433.288 7.70382 1.18879 0
M  V30 4741 N 437.518 0.538854 1.48102 0
M  V30 4742 C 438.746 0.0123136 2.06896 0
M  V30 4743 C 439.161 -1.27312 1.39417 0
M  V30 4744 O 438.518 -1.75949 0.484582 0
M  V30 4745 C 438.569 -0.206118 3.60912 0
M  V30 4746 O 438.29 1.0284 4.25859 0
M  V30 4747 C 439.791 -0.772033 4.36526 0
M  V30 4748 H 437.011 0.0375239 0.66995 0
M  V30 4749 H 439.555 0.747032 1.90367 0
M  V30 4750 H 437.71 -0.89091 3.77017 0
M  V30 4751 H 438.124 0.814654 5.18135 0
M  V30 4752 H 439.598 -0.874251 5.45033 0
M  V30 4753 H 440.075 -1.77904 4.01555 0
M  V30 4754 H 440.681 -0.123526 4.25121 0
M  V30 4755 N 438.996 -1.55193 0.274407 0
M  V30 4756 C 440.224 -2.03987 -0.345943 0
M  V30 4757 C 440.639 -1.15279 -1.4952 0
M  V30 4758 O 439.996 -0.172759 -1.8168 0
M  V30 4759 C 440.047 -3.51898 -0.827631 0
M  V30 4760 O 439.768 -4.37231 0.275855 0
M  V30 4761 C 441.269 -4.16577 -1.51587 0
M  V30 4762 H 438.489 -0.666335 -0.0789892 0
M  V30 4763 H 441.033 -2.00423 0.406294 0
M  V30 4764 H 439.188 -3.55909 -1.52996 0
M  V30 4765 H 439.602 -5.24415 -0.0943638 0
M  V30 4766 H 441.076 -5.21678 -1.80433 0
M  V30 4767 H 441.553 -3.64707 -2.44716 0
M  V30 4768 H 442.159 -4.16568 -0.857409 0
M  V30 4769 N 440.474 -0.00167713 -1.576 0
M  V30 4770 C 441.422 1.0074 -2.09652 0
M  V30 4771 C 442.416 1.35483 -1.01689 0
M  V30 4772 O 443.622 1.34028 -1.20152 0
M  V30 4773 H 439.997 0.342537 -0.669457 0
M  V30 4774 H 441.968 0.542841 -2.93421 0
M  V30 4775 C 440.717 2.2899 -2.61647 0
M  V30 4776 H 440.04 2.03124 -3.44355 0
M  V30 4777 H 441.48 2.9787 -3.01744 0
M  V30 4778 C 439.939 3.00085 -1.53136 0
M  V30 4779 O 440.469 3.91135 -0.91524 0
M  V30 4780 N 438.675 2.6194 -1.25841 0
M  V30 4781 H 438.222 1.8798 -1.76129 0
M  V30 4782 H 438.18 3.09822 -0.534576 0
M  V30 4783 N 441.952 1.55251 0.271103 0
M  V30 4784 C 442.862 1.9136 1.35714 0
M  V30 4785 C 443.878 0.811075 1.5394 0
M  V30 4786 O 445.054 1.11031 1.6803 0
M  V30 4787 C 442.119 2.1798 2.69603 0
M  V30 4788 C 441.18 3.4153 2.60107 0
M  V30 4789 C 440.413 3.66871 3.8761 0
M  V30 4790 O 440.636 2.94689 4.8838 0
M  V30 4791 O 439.57 4.60405 3.87699 0
M  V30 4792 H 443.396 2.83815 1.08088 0
M  V30 4793 H 440.981 1.41821 0.469792 0
M  V30 4794 H 442.863 2.36518 3.48765 0
M  V30 4795 H 441.538 1.28708 2.97012 0
M  V30 4796 H 440.445 3.28325 1.79314 0
M  V30 4797 H 441.778 4.31027 2.37647 0
M  V30 4798 N 443.43 -0.535701 1.48216 0
M  V30 4799 C 444.658 -1.31671 1.59594 0
M  V30 4800 C 445.073 -1.87083 0.254056 0
M  V30 4801 O 444.43 -1.66112 -0.755854 0
M  V30 4802 C 444.481 -2.47158 2.63809 0
M  V30 4803 O 444.202 -1.94032 3.92789 0
M  V30 4804 C 445.703 -3.39062 2.85573 0
M  V30 4805 H 442.923 -0.400623 0.538277 0
M  V30 4806 H 445.467 -0.646827 1.94001 0
M  V30 4807 H 443.622 -3.10043 2.32276 0
M  V30 4808 H 444.036 -2.69585 4.49916 0
M  V30 4809 H 445.51 -4.16459 3.62306 0
M  V30 4810 H 445.987 -3.93941 1.94184 0
M  V30 4811 H 446.593 -2.81975 3.18387 0
M  V30 4812 N 444.908 -1.36708 -0.784132 0
M  V30 4813 C 446.324 -1.17237 -1.08294 0
M  V30 4814 C 446.524 -5.93947e-05 -2.015 0
M  V30 4815 O 445.58 0.663686 -2.43622 0
M  V30 4816 C 446.893 -2.48557 -1.69233 0
M  V30 4817 C 448.441 -2.54968 -1.8155 0
M  V30 4818 C 448.916 -3.86388 -2.45904 0
M  V30 4819 N 450.407 -3.87762 -2.53367 0
M  V30 4820 C 451.142 -4.86191 -3.03983 0
M  V30 4821 N 450.638 -5.95015 -3.54866 0
M  V30 4822 N 452.431 -4.73606 -3.02743 0
M  V30 4823 H 444.582 -2.11758 -0.16501 0
M  V30 4824 H 446.845 -0.93822 -0.135822 0
M  V30 4825 H 446.551 -3.34638 -1.08215 0
M  V30 4826 H 446.425 -2.64748 -2.68679 0
M  V30 4827 H 448.812 -1.69302 -2.41704 0
M  V30 4828 H 448.893 -2.42672 -0.80895 0
M  V30 4829 H 448.537 -4.72462 -1.86392 0
M  V30 4830 H 448.467 -3.95982 -3.4714 0
M  V30 4831 H 450.958 -3.09145 -2.17343 0
M  V30 4832 H 451.271 -6.66086 -3.91854 0
M  V30 4833 H 449.616 -5.98676 -3.53003 0
M  V30 4834 H 452.807 -3.87717 -2.62284 0
M  V30 4835 H 452.98 -5.50473 -3.41881 0
M  V30 4836 N 446.386 1.0089 -1.21074 0
M  V30 4837 C 447.318 2.09737 -0.924291 0
M  V30 4838 C 448.331 1.62546 0.0909809 0
M  V30 4839 O 449.52 1.77942 -0.141021 0
M  V30 4840 C 446.62 3.36922 -0.36559 0
M  V30 4841 C 445.793 4.13216 -1.43426 0
M  V30 4842 C 444.852 5.18696 -0.885496 0
M  V30 4843 O 443.878 5.47176 -1.56801 0
M  V30 4844 N 445.08 5.79718 0.301227 0
M  V30 4845 H 447.845 2.34895 -1.8613 0
M  V30 4846 H 445.406 1.17341 -1.11546 0
M  V30 4847 H 447.398 4.04697 0.0158407 0
M  V30 4848 H 445.968 3.08952 0.476149 0
M  V30 4849 H 445.188 3.40301 -1.9897 0
M  V30 4850 H 446.476 4.60967 -2.15376 0
M  V30 4851 H 445.874 5.58926 0.872849 0
M  V30 4852 H 444.431 6.48804 0.624211 0
M  V30 4853 N 447.864 1.01787 1.20321 0
M  V30 4854 C 448.794 0.609625 2.25401 0
M  V30 4855 C 449.775 -0.375951 1.65893 0
M  V30 4856 O 450.96 -0.261101 1.92437 0
M  V30 4857 C 448.09 -0.0515995 3.47262 0
M  V30 4858 C 447.044 0.855095 4.19371 0
M  V30 4859 C 446.37 0.0595757 5.34667 0
M  V30 4860 C 447.67 2.16374 4.75373 0
M  V30 4861 H 449.364 1.48803 2.59804 0
M  V30 4862 H 446.91 0.716934 1.24884 0
M  V30 4863 H 448.863 -0.348764 4.19954 0
M  V30 4864 H 447.587 -0.964726 3.12027 0
M  V30 4865 H 446.246 1.13628 3.48546 0
M  V30 4866 H 445.894 -0.85524 4.95676 0
M  V30 4867 H 445.594 0.663406 5.83843 0
M  V30 4868 H 447.118 -0.231105 6.10162 0
M  V30 4869 H 448.532 1.92885 5.39878 0
M  V30 4870 H 446.929 2.71853 5.34991 0
M  V30 4871 H 447.999 2.82589 3.94045 0
M  V30 4872 N 449.342 -1.36122 0.79427 0
M  V30 4873 C 450.582 -2.00942 0.374376 0
M  V30 4874 C 450.946 -1.61666 -1.03577 0
M  V30 4875 O 452.147 -2.19113 -1.55701 0
M  V30 4876 C 450.418 -3.53323 0.538327 0
M  V30 4877 S 451.977 -4.38311 0.20703 0
M  V30 4878 H 448.795 -0.696515 0.142785 0
M  V30 4879 H 451.397 -1.65929 1.03382 0
M  V30 4880 H 450.101 -3.79395 1.56484 0
M  V30 4881 H 449.632 -3.93162 -0.136882 0
M  V30 4882 H 451.647 -4.8623 -0.989695 0
M  V30 4883 N 450.82 -0.546701 -1.47814 0
M  V30 4884 C 452.067 -0.0187407 -2.02491 0
M  V30 4885 C 452.395 1.32685 -1.42215 0
M  V30 4886 O 451.65 1.87413 -0.563454 0
M  V30 4887 C 451.949 0.134869 -3.57145 0
M  V30 4888 C 451.615 -1.13849 -4.3629 0
M  V30 4889 C 450.277 -1.48743 -4.57634 0
M  V30 4890 C 452.629 -1.98277 -4.82012 0
M  V30 4891 C 449.957 -2.67932 -5.21948 0
M  V30 4892 C 452.309 -3.16659 -5.4764 0
M  V30 4893 C 450.973 -3.51879 -5.67219 0
M  V30 4894 H 450.243 -0.0068577 -0.740968 0
M  V30 4895 H 452.89 -0.716097 -1.77607 0
M  V30 4896 H 451.195 0.915118 -3.80963 0
M  V30 4897 H 452.892 0.558556 -3.97091 0
M  V30 4898 H 449.482 -0.856767 -4.19949 0
M  V30 4899 H 453.666 -1.72628 -4.6531 0
M  V30 4900 H 448.922 -2.95401 -5.35302 0
M  V30 4901 H 453.096 -3.82374 -5.82033 0
M  V30 4902 H 450.723 -4.44331 -6.16825 0
M  V30 4903 N 452.299 1.55045 -0.282633 0
M  V30 4904 C 453.545 2.00056 0.332481 0
M  V30 4905 C 453.878 1.1708 1.54939 0
M  V30 4906 O 453.153 0.2427 1.9298 0
M  V30 4907 C 453.436 3.53086 0.70725 0
M  V30 4908 C 453.289 4.46813 -0.517521 0
M  V30 4909 C 454.608 4.12245 1.54084 0
M  V30 4910 H 451.727 0.727268 0.119373 0
M  V30 4911 H 454.369 1.85932 -0.391076 0
M  V30 4912 H 452.519 3.65253 1.32372 0
M  V30 4913 H 454.191 4.46579 -1.15607 0
M  V30 4914 H 452.434 4.18163 -1.1542 0
M  V30 4915 H 453.105 5.51595 -0.211426 0
M  V30 4916 H 455.581 4.03401 1.02013 0
M  V30 4917 H 454.457 5.19515 1.77186 0
M  V30 4918 H 454.718 3.62951 2.52427 0
M  V30 4919 N 453.777 0.010035 1.57597 0
M  V30 4920 C 455.023 -0.673697 1.91283 0
M  V30 4921 C 455.356 -1.72863 0.884979 0
M  V30 4922 O 454.631 -1.94268 -0.0949487 0
M  V30 4923 C 454.914 -1.30766 3.35518 0
M  V30 4924 C 454.767 -0.263578 4.49027 0
M  V30 4925 C 456.086 -2.23105 3.79358 0
M  V30 4926 H 453.205 -0.243439 0.695634 0
M  V30 4927 H 455.847 0.0633864 1.89894 0
M  V30 4928 H 453.997 -1.93588 3.36832 0
M  V30 4929 H 455.669 0.365738 4.59848 0
M  V30 4930 H 453.912 0.413077 4.31829 0
M  V30 4931 H 454.583 -0.746398 5.4693 0
M  V30 4932 H 457.059 -1.70289 3.79659 0
M  V30 4933 H 455.935 -2.64424 4.81011 0
M  V30 4934 H 456.196 -3.11433 3.13787 0
M  V30 4935 N 455.255 -1.55392 -0.262866 0
M  V30 4936 C 456.671 -1.47459 -0.610582 0
M  V30 4937 C 456.871 -0.697031 -1.8906 0
M  V30 4938 O 455.927 -0.219952 -2.5154 0
M  V30 4939 C 457.24 -2.91751 -0.728131 0
M  V30 4940 C 458.788 -3.02027 -0.821517 0
M  V30 4941 C 459.263 -4.47594 -0.97076 0
M  V30 4942 N 460.754 -4.51465 -1.03603 0
M  V30 4943 C 461.489 -5.61326 -1.17049 0
M  V30 4944 N 460.985 -6.81032 -1.2715 0
M  V30 4945 N 462.778 -5.49089 -1.20239 0
M  V30 4946 H 454.929 -2.04395 0.577632 0
M  V30 4947 H 457.192 -0.927287 0.197086 0
M  V30 4948 H 456.898 -3.51413 0.142132 0
M  V30 4949 H 456.772 -3.4134 -1.6052 0
M  V30 4950 H 459.159 -2.42456 -1.68224 0
M  V30 4951 H 459.24 -2.55674 0.0803688 0
M  V30 4952 H 458.884 -5.07771 -0.114655 0
M  V30 4953 H 458.814 -4.91613 -1.88745 0
M  V30 4954 H 461.305 -3.6524 -0.96996 0
M  V30 4955 H 461.618 -7.60511 -1.37271 0
M  V30 4956 H 459.963 -6.83824 -1.24136 0
M  V30 4957 H 463.154 -4.54507 -1.11985 0
M  V30 4958 H 463.327 -6.34749 -1.30373 0
M  V30 4959 N 456.733 0.527833 -1.48498 0
M  V30 4960 C 457.958 1.313 -1.60546 0
M  V30 4961 C 458.383 1.86199 -0.26672 0
M  V30 4962 O 457.741 1.64513 0.761918 0
M  V30 4963 C 457.789 2.43818 -2.65678 0
M  V30 4964 O 456.893 3.46916 -2.22987 0
M  V30 4965 H 456.234 0.388784 -0.538277 0
M  V30 4966 H 458.764 0.634896 -1.945 0
M  V30 4967 H 458.774 2.89973 -2.87018 0
M  V30 4968 H 457.449 2.03222 -3.62869 0
M  V30 4969 H 456.026 3.06864 -2.11869 0
M  V30 4970 N 458.211 1.37122 0.776871 0
M  V30 4971 C 459.158 1.3247 1.88998 0
M  V30 4972 C 460.128 0.191143 1.64997 0
M  V30 4973 O 461.313 0.379683 1.86984 0
M  V30 4974 C 458.453 1.13241 3.25992 0
M  V30 4975 C 457.566 2.35782 3.61982 0
M  V30 4976 C 456.701 2.09465 4.88158 0
M  V30 4977 C 455.74 3.279 5.16864 0
M  V30 4978 N 454.877 3.01167 6.34226 0
M  V30 4979 H 459.717 2.27642 1.9231 0
M  V30 4980 H 457.254 1.13125 0.94027 0
M  V30 4981 H 459.212 1.00115 4.0501 0
M  V30 4982 H 457.842 0.217186 3.22069 0
M  V30 4983 H 456.894 2.59666 2.77989 0
M  V30 4984 H 458.206 3.24125 3.79137 0
M  V30 4985 H 457.36 1.93341 5.75069 0
M  V30 4986 H 456.099 1.18452 4.73097 0
M  V30 4987 H 455.104 3.44569 4.2843 0
M  V30 4988 H 456.329 4.19757 5.33836 0
M  V30 4989 H 454.275 2.12779 6.20533 0
M  V30 4990 H 454.192 3.83052 6.51772 0
M  V30 4991 H 455.46 2.88649 7.24087 0
M  V30 4992 N 459.689 -1.00246 1.21608 0
M  V30 4993 C 460.935 -1.74319 1.03638 0
M  V30 4994 C 461.268 -1.89408 -0.428749 0
M  V30 4995 O 460.543 -1.43026 -1.3181 0
M  V30 4996 C 460.826 -3.15431 1.73711 0
M  V30 4997 C 460.679 -3.08049 3.27759 0
M  V30 4998 C 461.998 -4.14407 1.48173 0
M  V30 4999 H 459.117 -0.632741 0.377899 0
M  V30 5000 H 461.759 -1.16853 1.49818 0
M  V30 5001 H 459.909 -3.64493 1.34452 0
M  V30 5002 H 461.581 -2.66681 3.76403 0
M  V30 5003 H 459.824 -2.45088 3.57931 0
M  V30 5004 H 460.495 -4.07862 3.71958 0
M  V30 5005 H 462.971 -3.74061 1.82258 0
M  V30 5006 H 461.847 -5.11279 1.99713 0
M  V30 5007 H 462.108 -4.40174 0.412273 0
M  V30 5008 N 461.167 -1.02423 -1.1978 0
M  V30 5009 C 462.115 -0.594474 -2.24875 0
M  V30 5010 C 463.109 0.370598 -1.65296 0
M  V30 5011 O 464.315 0.239684 -1.78397 0
M  V30 5012 H 460.69 -0.173961 -0.731602 0
M  V30 5013 H 462.661 -1.4916 -2.58445 0
M  V30 5014 C 461.41 0.0436512 -3.47673 0
M  V30 5015 H 460.733 -0.689963 -3.93801 0
M  V30 5016 H 462.173 0.307362 -4.22884 0
M  V30 5017 C 460.632 1.28881 -3.11274 0
M  V30 5018 O 461.162 2.38135 -3.23503 0
M  V30 5019 N 459.368 1.1758 -2.6575 0
M  V30 5020 H 458.915 0.286769 -2.55999 0
M  V30 5021 H 458.873 2.00988 -2.41767 0
M  V30 5022 N 462.645 1.35699 -0.801477 0
M  V30 5023 C 463.894 1.98165 -0.375979 0
M  V30 5024 C 464.207 1.64306 1.06127 0
M  V30 5025 O 465.413 2.20097 1.58964 0
M  V30 5026 C 463.869 3.54497 -0.621305 0
M  V30 5027 C 463.477 3.9727 -2.07076 0
M  V30 5028 C 465.221 4.23697 -0.26091 0
M  V30 5029 C 463.128 5.46427 -2.26211 0
M  V30 5030 H 462.058 0.741478 -0.136844 0
M  V30 5031 H 464.709 1.54834 -0.984814 0
M  V30 5032 H 463.091 3.95958 0.0574112 0
M  V30 5033 H 464.265 3.66974 -2.78687 0
M  V30 5034 H 462.58 3.40943 -2.39054 0
M  V30 5035 H 465.177 5.33334 -0.381994 0
M  V30 5036 H 465.52 4.0869 0.792344 0
M  V30 5037 H 466.053 3.87639 -0.893339 0
M  V30 5038 H 462.792 5.66396 -3.29963 0
M  V30 5039 H 462.312 5.78309 -1.59119 0
M  V30 5040 H 463.991 6.12819 -2.07513 0
M  V30 5041 N 464.123 0.554532 1.47522 0
M  V30 5042 C 465.353 0.0342074 2.06572 0
M  V30 5043 C 465.761 -1.26375 1.40805 0
M  V30 5044 O 465.104 -1.7683 0.49769 0
M  V30 5045 C 465.166 -0.235096 3.5873 0
M  V30 5046 C 464.83 0.973024 4.46521 0
M  V30 5047 C 465.827 1.8779 4.848 0
M  V30 5048 C 463.512 1.18694 4.88075 0
M  V30 5049 C 465.506 2.98039 5.63428 0
M  V30 5050 C 463.193 2.29254 5.66468 0
M  V30 5051 C 464.191 3.18757 6.04055 0
M  V30 5052 O 463.879 4.27401 6.8087 0
M  V30 5053 H 463.611 0.041587 0.67472 0
M  V30 5054 H 466.165 0.766748 1.90552 0
M  V30 5055 H 464.395 -1.02191 3.72953 0
M  V30 5056 H 466.084 -0.700477 3.9981 0
M  V30 5057 H 466.85 1.72467 4.53299 0
M  V30 5058 H 462.729 0.49947 4.58286 0
M  V30 5059 H 466.273 3.67926 5.92685 0
M  V30 5060 H 462.17 2.4455 5.97382 0
M  V30 5061 H 462.938 4.25415 6.9926 0
M  V30 5062 N 465.601 -1.54893 0.290851 0
M  V30 5063 C 466.841 -2.01842 -0.322388 0
M  V30 5064 C 467.205 -1.17477 -1.51865 0
M  V30 5065 O 468.406 -1.54077 -2.20258 0
M  V30 5066 C 466.677 -3.50874 -0.679844 0
M  V30 5067 S 468.236 -4.19796 -1.27739 0
M  V30 5068 H 465.054 -0.704005 -0.0994866 0
M  V30 5069 H 467.656 -1.91015 0.416358 0
M  V30 5070 H 466.36 -4.09915 0.199435 0
M  V30 5071 H 465.891 -3.65717 -1.44964 0
M  V30 5072 H 467.906 -4.24729 -2.56554 0
M  V30 5073 N 467.08 -0.0183926 -1.57589 0
M  V30 5074 C 468.305 0.676634 -1.96052 0
M  V30 5075 C 468.73 1.6548 -0.894307 0
M  V30 5076 O 468.088 1.80712 0.145849 0
M  V30 5077 C 468.136 1.36872 -3.33614 0
M  V30 5078 O 467.24 2.48372 -3.29219 0
M  V30 5079 H 466.581 0.1786 -0.63953 0
M  V30 5080 H 469.111 -0.077056 -2.04455 0
M  V30 5081 H 469.121 1.72797 -3.69601 0
M  V30 5082 H 467.796 0.651636 -4.10763 0
M  V30 5083 H 466.373 2.14639 -3.04934 0
M  V30 5084 N 468.558 1.5553 0.254621 0
M  V30 5085 C 469.835 1.6774 1.00611 0
M  V30 5086 C 470.215 0.555993 2.03647 0
M  V30 5087 O 469.563 -0.441583 2.24193 0
M  V30 5088 C 469.773 3.07725 1.6464 0
M  V30 5089 C 471.121 3.66074 2.15116 0
M  V30 5090 O 472.145 3.10476 1.74595 0
M  V30 5091 O 471.004 4.63526 2.89493 0
M  V30 5092 H 468.098 0.681958 0.467828 0
M  V30 5093 H 470.644 1.67863 0.24902 0
M  V30 5094 H 469.416 3.80792 0.900734 0
M  V30 5095 H 469.039 3.1158 2.46989 0
M  V30 5096 N 470.036 -0.519951 1.48776 0
M  V30 5097 C 471.313 -1.28123 1.47797 0
M  V30 5098 C 471.693 -2.10196 0.195157 0
M  V30 5099 O 471.041 -2.13167 -0.822925 0
M  V30 5100 C 471.251 -2.15413 2.74587 0
M  V30 5101 C 472.599 -2.75225 3.23321 0
M  V30 5102 O 473.623 -2.25694 2.75574 0
M  V30 5103 O 472.482 -3.65346 4.06429 0
M  V30 5104 H 469.576 -0.578793 0.590701 0
M  V30 5105 H 472.122 -0.535779 1.6102 0
M  V30 5106 H 470.894 -1.54617 3.59457 0
M  V30 5107 H 470.517 -2.97186 2.64132 0
M  V30 5108 N 471.514 -1.37532 -0.769588 0
M  V30 5109 C 472.762 -1.32597 -1.5252 0
M  V30 5110 C 473.083 0.0884294 -1.94799 0
M  V30 5111 O 472.353 1.03289 -1.66458 0
M  V30 5112 H 470.933 -0.487846 -0.565699 0
M  V30 5113 H 473.595 -1.72044 -0.915806 0
M  V30 5114 H 472.691 -1.96643 -2.42359 0
M  V30 5115 N 472.992 0.995999 -1.22138 0
M  V30 5116 C 474.241 1.72928 -1.03821 0
M  V30 5117 C 474.554 1.90872 0.427444 0
M  V30 5118 O 475.76 2.61496 0.730212 0
M  V30 5119 C 474.216 3.11124 -1.80913 0
M  V30 5120 C 473.824 3.01122 -3.31707 0
M  V30 5121 C 475.568 3.8852 -1.71035 0
M  V30 5122 C 473.475 4.34453 -4.01253 0
M  V30 5123 H 472.405 0.648376 -0.384869 0
M  V30 5124 H 475.056 1.11213 -1.45959 0
M  V30 5125 H 473.438 3.73503 -1.31573 0
M  V30 5126 H 474.612 2.47926 -3.88419 0
M  V30 5127 H 472.927 2.3721 -3.42228 0
M  V30 5128 H 475.524 4.872 -2.20318 0
M  V30 5129 H 475.867 4.1087 -0.670196 0
M  V30 5130 H 476.4 3.32812 -2.17902 0
M  V30 5131 H 473.139 4.17303 -5.05508 0
M  V30 5132 H 472.659 4.87574 -3.49331 0
M  V30 5133 H 474.338 5.03215 -4.06674 0
M  V30 5134 N 474.47 1.03057 1.19235 0
M  V30 5135 C 475.716 0.738841 1.89506 0
M  V30 5136 C 476.071 -0.724807 1.78225 0
M  V30 5137 O 475.364 -1.52118 1.16494 0
M  V30 5138 C 475.558 1.1268 3.39172 0
M  V30 5139 C 475.387 2.62662 3.65019 0
M  V30 5140 C 474.157 3.29658 3.82954 0
M  V30 5141 C 476.355 3.60873 3.66436 0
M  V30 5142 N 474.337 4.68726 3.96446 0
M  V30 5143 C 475.708 4.85566 3.8552 0
M  V30 5144 C 477.763 3.54647 3.49471 0
M  V30 5145 C 476.466 6.04783 3.89397 0
M  V30 5146 C 478.492 4.73281 3.54625 0
M  V30 5147 C 477.854 5.96789 3.74196 0
M  V30 5148 H 473.953 0.322256 0.712513 0
M  V30 5149 H 476.537 1.31822 1.43287 0
M  V30 5150 H 474.708 0.575612 3.84111 0
M  V30 5151 H 476.44 0.787145 3.96971 0
M  V30 5152 H 473.195 2.8007 3.81913 0
M  V30 5153 H 473.619 5.40971 4.07037 0
M  V30 5154 H 478.261 2.60143 3.33295 0
M  V30 5155 H 475.979 6.99654 4.04364 0
M  V30 5156 H 479.565 4.70094 3.42787 0
M  V30 5157 H 478.445 6.87051 3.78061 0
M  V30 5158 N 475.948 -1.35272 0.808662 0
M  V30 5159 C 477.173 -2.03477 0.401475 0
M  V30 5160 C 477.598 -1.60537 -0.980279 0
M  V30 5161 O 476.956 -0.78304 -1.63518 0
M  V30 5162 C 477.004 -3.57181 0.495354 0
M  V30 5163 O 476.108 -4.09474 -0.490397 0
M  V30 5164 H 475.449 -0.642561 0.167366 0
M  V30 5165 H 477.979 -1.72824 1.09512 0
M  V30 5166 H 477.989 -4.06356 0.365912 0
M  V30 5167 H 476.664 -3.87784 1.5032 0
M  V30 5168 H 475.241 -3.71516 -0.321023 0
M  V30 5169 N 477.426 -0.562348 -1.47226 0
M  V30 5170 C 478.336 0.185466 -2.33866 0
M  V30 5171 C 479.352 0.906713 -1.48508 0
M  V30 5172 O 480.528 0.874458 -1.81425 0
M  V30 5173 C 477.593 1.19904 -3.25306 0
M  V30 5174 C 476.654 0.484669 -4.26555 0
M  V30 5175 C 475.887 1.44996 -5.13626 0
M  V30 5176 O 476.11 2.68515 -5.03245 0
M  V30 5177 O 475.044 0.971642 -5.94006 0
M  V30 5178 H 478.87 -0.525361 -2.99121 0
M  V30 5179 H 476.455 -0.322916 -1.45868 0
M  V30 5180 H 478.337 1.78399 -3.81774 0
M  V30 5181 H 477.012 1.8917 -2.62672 0
M  V30 5182 H 475.919 -0.141605 -3.73832 0
M  V30 5183 H 477.252 -0.166634 -4.91918 0
M  V30 5184 N 478.904 1.54736 -0.299062 0
M  V30 5185 C 480.15 2.01114 0.304123 0
M  V30 5186 C 480.505 1.18376 1.51674 0
M  V30 5187 O 479.798 0.251635 1.8994 0
M  V30 5188 C 479.992 3.50199 0.713835 0
M  V30 5189 C 479.821 4.47366 -0.457531 0
M  V30 5190 C 478.591 4.9631 -0.948933 0
M  V30 5191 C 480.789 4.9755 -1.30186 0
M  V30 5192 N 478.771 5.77327 -2.08726 0
M  V30 5193 C 480.142 5.7625 -2.28771 0
M  V30 5194 C 482.197 4.79739 -1.33246 0
M  V30 5195 C 480.9 6.39036 -3.3019 0
M  V30 5196 C 482.926 5.43343 -2.33521 0
M  V30 5197 C 482.288 6.21874 -3.30836 0
M  V30 5198 H 478.387 0.778318 0.0757992 0
M  V30 5199 H 480.971 1.89925 -0.428536 0
M  V30 5200 H 479.142 3.61681 1.41567 0
M  V30 5201 H 480.874 3.83374 1.29639 0
M  V30 5202 H 477.629 4.7069 -0.52423 0
M  V30 5203 H 478.053 6.22521 -2.66077 0
M  V30 5204 H 482.695 4.18609 -0.59383 0
M  V30 5205 H 480.413 6.99302 -4.04973 0
M  V30 5206 H 483.999 5.31492 -2.3666 0
M  V30 5207 H 482.879 6.70217 -4.07159 0
M  V30 5208 N 480.382 0.0267497 1.57577 0
M  V30 5209 C 481.607 -0.666227 1.96408 0
M  V30 5210 C 482.032 -1.65004 0.903071 0
M  V30 5211 O 481.39 -1.80787 -0.136263 0
M  V30 5212 C 481.438 -1.35101 3.34335 0
M  V30 5213 O 480.542 -2.46623 3.30531 0
M  V30 5214 H 479.883 -0.175206 0.640468 0
M  V30 5215 H 482.413 0.0878977 2.04411 0
M  V30 5216 H 482.423 -1.70834 3.70513 0
M  V30 5217 H 481.098 -0.629844 4.11103 0
M  V30 5218 H 479.675 -2.13019 3.06068 0
M  V30 5219 N 481.861 -1.55662 -0.24637 0
M  V30 5220 C 483.138 -1.68272 -0.997198 0
M  V30 5221 C 483.518 -0.566785 -2.03349 0
M  V30 5222 O 482.866 0.429688 -2.24424 0
M  V30 5223 C 483.076 -3.08594 -1.63006 0
M  V30 5224 C 484.424 -3.6721 -2.13171 0
M  V30 5225 O 485.448 -3.11397 -1.72946 0
M  V30 5226 O 484.307 -4.65054 -2.87031 0
M  V30 5227 H 481.401 -0.684429 -0.464205 0
M  V30 5228 H 483.947 -1.67993 -0.240114 0
M  V30 5229 H 482.719 -3.81264 -0.880527 0
M  V30 5230 H 482.342 -3.12886 -2.45333 0
M  V30 5231 N 483.339 0.512053 -1.4905 0
M  V30 5232 C 484.286 1.6148 -1.64902 0
M  V30 5233 C 485.256 1.58687 -0.490673 0
M  V30 5234 O 486.441 1.76842 -0.71636 0
M  V30 5235 C 483.581 2.99676 -1.71139 0
M  V30 5236 C 482.694 3.12568 -2.98203 0
M  V30 5237 C 481.829 4.4143 -2.95487 0
M  V30 5238 C 480.868 4.47916 -4.17179 0
M  V30 5239 N 480.005 5.68191 -4.12437 0
M  V30 5240 H 484.845 1.47271 -2.59066 0
M  V30 5241 H 482.382 0.716713 -1.28459 0
M  V30 5242 H 484.34 3.79761 -1.72736 0
M  V30 5243 H 482.97 3.12614 -0.804508 0
M  V30 5244 H 482.022 2.25618 -3.06269 0
M  V30 5245 H 483.334 3.1322 -3.88194 0
M  V30 5246 H 482.488 5.29825 -2.95585 0
M  V30 5247 H 481.227 4.43326 -2.03256 0
M  V30 5248 H 480.232 3.57925 -4.17337 0
M  V30 5249 H 481.457 4.47744 -5.1059 0
M  V30 5250 H 479.403 5.7095 -3.23036 0
M  V30 5251 H 479.32 5.70413 -4.96151 0
M  V30 5252 H 480.588 6.58823 -4.16621 0
M  V30 5253 N 484.817 1.37938 0.762283 0
M  V30 5254 C 485.749 1.30349 1.88525 0
M  V30 5255 C 486.762 0.217402 1.61342 0
M  V30 5256 O 487.951 0.474291 1.72084 0
M  V30 5257 C 485.051 0.994844 3.23969 0
M  V30 5258 C 484.224 2.18829 3.78725 0
M  V30 5259 C 483.283 1.84844 4.92665 0
M  V30 5260 O 482.309 2.57244 5.07754 0
M  V30 5261 N 483.511 0.798201 5.74986 0
M  V30 5262 H 486.276 2.27114 1.95549 0
M  V30 5263 H 483.837 1.31686 0.941825 0
M  V30 5264 H 485.829 0.748168 3.97724 0
M  V30 5265 H 484.399 0.115446 3.12387 0
M  V30 5266 H 483.619 2.59615 2.96637 0
M  V30 5267 H 484.907 2.98497 4.1204 0
M  V30 5268 H 484.305 0.197611 5.65355 0
M  V30 5269 H 482.862 0.611396 6.48926 0
M  V30 5270 N 486.295 -0.989507 1.22664 0
M  V30 5271 C 487.535 -1.7447 1.06488 0
M  V30 5272 C 487.899 -1.8794 -0.392737 0
M  V30 5273 O 489.1 -2.60175 -0.675446 0
M  V30 5274 C 487.371 -3.11043 1.76031 0
M  V30 5275 S 488.93 -4.02258 1.7531 0
M  V30 5276 H 485.748 -0.600123 0.381278 0
M  V30 5277 H 488.35 -1.18283 1.55658 0
M  V30 5278 H 487.054 -2.98884 2.81241 0
M  V30 5279 H 486.585 -3.72301 1.27105 0
M  V30 5280 H 488.6 -4.89623 0.805208 0
M  V30 5281 N 487.773 -1.03688 -1.18687 0
M  V30 5282 C 489.019 -0.74888 -1.89112 0
M  V30 5283 C 489.374 0.715345 -1.78607 0
M  V30 5284 O 488.667 1.51498 -1.17299 0
M  V30 5285 C 488.861 -1.14477 -3.3857 0
M  V30 5286 C 488.69 -2.64594 -3.63621 0
M  V30 5287 C 487.46 -3.31685 -3.812 0
M  V30 5288 C 489.658 -3.62811 -3.64517 0
M  V30 5289 N 487.64 -4.70822 -3.93955 0
M  V30 5290 C 489.011 -4.87603 -3.8294 0
M  V30 5291 C 491.066 -3.56495 -3.47585 0
M  V30 5292 C 489.769 -6.0684 -3.86184 0
M  V30 5293 C 491.795 -4.75155 -3.52111 0
M  V30 5294 C 491.157 -5.98765 -3.71026 0
M  V30 5295 H 487.256 -0.32603 -0.710794 0
M  V30 5296 H 489.84 -1.3258 -1.42586 0
M  V30 5297 H 488.011 -0.595974 -3.838 0
M  V30 5298 H 489.743 -0.808187 -3.96548 0
M  V30 5299 H 486.498 -2.82091 -3.80423 0
M  V30 5300 H 486.922 -5.43122 -4.04163 0
M  V30 5301 H 491.564 -2.61907 -3.31911 0
M  V30 5302 H 489.282 -7.01788 -4.00648 0
M  V30 5303 H 492.868 -4.71905 -3.40289 0
M  V30 5304 H 491.748 -6.89047 -3.74412 0
M  V30 5305 N 489.251 1.34841 -0.815825 0
M  V30 5306 C 490.161 2.33425 -0.234462 0
M  V30 5307 C 491.177 1.62295 0.627413 0
M  V30 5308 O 492.353 1.94109 0.536987 0
M  V30 5309 C 489.418 3.41471 0.599849 0
M  V30 5310 C 488.479 4.28362 -0.283596 0
M  V30 5311 C 487.712 5.31248 0.51099 0
M  V30 5312 O 487.935 5.43056 1.7449 0
M  V30 5313 O 486.869 6.01812 -0.10297 0
M  V30 5314 H 490.695 2.84962 -1.05024 0
M  V30 5315 H 488.28 1.37774 -0.577809 0
M  V30 5316 H 490.162 4.07464 1.07475 0
M  V30 5317 H 488.837 2.9219 1.39308 0
M  V30 5318 H 487.744 3.65318 -0.805836 0
M  V30 5319 H 489.077 4.81066 -1.041 0
M  V30 5320 N 490.729 0.570148 1.46925 0
M  V30 5321 C 491.977 0.0508523 2.02036 0
M  V30 5322 C 492.298 -1.30885 1.44548 0
M  V30 5323 O 491.568 -1.85647 0.625453 0
M  V30 5324 H 490.148 0.0158088 0.746833 0
M  V30 5325 H 492.81 0.743086 1.80178 0
M  V30 5326 H 491.906 -0.027575 3.12088 0
M  V30 5327 N 492.207 -1.54576 0.307264 0
M  V30 5328 C 493.117 -2.27435 -0.57536 0
M  V30 5329 C 494.133 -1.31183 -1.14311 0
M  V30 5330 O 495.309 -1.64175 -1.16656 0
M  V30 5331 C 492.374 -3.00566 -1.72803 0
M  V30 5332 C 491.435 -4.12369 -1.19373 0
M  V30 5333 C 490.668 -4.82003 -2.29147 0
M  V30 5334 O 490.891 -4.51038 -3.49171 0
M  V30 5335 O 489.825 -5.69271 -1.95485 0
M  V30 5336 H 493.651 -3.03696 0.0158558 0
M  V30 5337 H 491.236 -1.49219 0.0735064 0
M  V30 5338 H 493.118 -3.46416 -2.39946 0
M  V30 5339 H 491.793 -2.27195 -2.30574 0
M  V30 5340 H 490.7 -3.70905 -0.487851 0
M  V30 5341 H 492.033 -4.87736 -0.661376 0
M  V30 5342 N 493.685 -0.035106 -1.57561 0
M  V30 5343 C 494.962 0.681212 -1.83354 0
M  V30 5344 C 495.342 1.89986 -0.920252 0
M  V30 5345 O 494.69 2.28489 0.0226815 0
M  V30 5346 C 494.9 1.05376 -3.32712 0
M  V30 5347 C 496.248 1.44286 -3.99333 0
M  V30 5348 O 497.272 1.14656 -3.37242 0
M  V30 5349 O 496.131 1.99518 -5.08778 0
M  V30 5350 H 493.225 0.334741 -0.756226 0
M  V30 5351 H 495.771 -0.0632448 -1.69582 0
M  V30 5352 H 494.543 0.186668 -3.90854 0
M  V30 5353 H 494.166 1.85619 -3.51613 0
M  V30 5354 N 495.163 1.55791 0.238111 0
M  V30 5355 C 496.093 1.94068 1.29846 0
M  V30 5356 C 497.074 0.806726 1.49753 0
M  V30 5357 O 498.259 1.06772 1.62214 0
M  V30 5358 C 495.389 2.24302 2.65153 0
M  V30 5359 C 494.343 3.40032 2.59927 0
M  V30 5360 C 493.669 3.55829 3.99111 0
M  V30 5361 C 494.969 4.75476 2.16148 0
M  V30 5362 H 496.663 2.82887 0.980563 0
M  V30 5363 H 494.209 1.36105 0.470253 0
M  V30 5364 H 496.162 2.4967 3.39475 0
M  V30 5365 H 494.886 1.32318 2.98596 0
M  V30 5366 H 493.545 3.14687 1.88063 0
M  V30 5367 H 493.193 2.6125 4.29834 0
M  V30 5368 H 492.893 4.3366 3.96501 0
M  V30 5369 H 494.417 3.83528 4.7512 0
M  V30 5370 H 495.831 5.00158 2.80205 0
M  V30 5371 H 494.228 5.56472 2.24631 0
M  V30 5372 H 495.298 4.71946 1.11333 0
M  V30 5373 N 496.642 -0.504142 1.49319 0
M  V30 5374 C 497.867 -1.28729 1.62615 0
M  V30 5375 C 498.292 -1.85752 0.296309 0
M  V30 5376 O 497.65 -1.65704 -0.735649 0
M  V30 5377 C 497.698 -2.39561 2.69524 0
M  V30 5378 O 496.802 -3.43324 2.28478 0
M  V30 5379 H 496.143 -0.380172 0.544395 0
M  V30 5380 H 498.673 -0.603872 1.95485 0
M  V30 5381 H 498.683 -2.8537 2.91595 0
M  V30 5382 H 497.358 -1.97423 3.66056 0
M  V30 5383 H 495.935 -3.03455 2.16725 0
M  V30 5384 N 498.12 -1.38341 -0.754957 0
M  V30 5385 C 499.067 -1.3546 -1.86867 0
M  V30 5386 C 500.037 -0.217369 -1.64672 0
M  V30 5387 O 501.222 -0.409383 -1.86356 0
M  V30 5388 C 498.362 -1.18413 -3.24149 0
M  V30 5389 C 497.475 -2.41511 -3.58185 0
M  V30 5390 C 496.61 -2.17205 -4.84763 0
M  V30 5391 C 495.649 -3.36081 -5.11582 0
M  V30 5392 N 494.786 -3.11219 -6.29354 0
M  V30 5393 H 499.626 -2.30672 -1.88664 0
M  V30 5394 H 497.163 -1.14607 -0.922154 0
M  V30 5395 H 499.121 -1.06545 -4.03366 0
M  V30 5396 H 497.751 -0.268397 -3.21682 0
M  V30 5397 H 496.803 -2.64056 -2.73822 0
M  V30 5398 H 498.115 -3.30115 -3.73932 0
M  V30 5399 H 497.269 -2.02465 -5.7192 0
M  V30 5400 H 496.008 -1.25964 -4.71152 0
M  V30 5401 H 495.013 -3.51341 -4.22894 0
M  V30 5402 H 496.238 -4.28196 -5.27091 0
M  V30 5403 H 494.184 -2.22624 -6.17069 0
M  V30 5404 H 494.101 -3.93373 -6.45596 0
M  V30 5405 H 495.369 -3.00132 -7.19403 0
M  V30 5406 N 499.598 0.982988 -1.23187 0
M  V30 5407 C 500.545 2.07491 -1.01075 0
M  V30 5408 C 501.515 1.65949 0.070905 0
M  V30 5409 O 502.7 1.90629 -0.0806822 0
M  V30 5410 C 499.84 3.39751 -0.605261 0
M  V30 5411 C 498.953 3.94578 -1.75876 0
M  V30 5412 C 498.088 5.15039 -1.3003 0
M  V30 5413 C 497.127 5.62027 -2.42472 0
M  V30 5414 N 496.264 6.73719 -1.97602 0
M  V30 5415 H 501.104 2.25739 -1.9454 0
M  V30 5416 H 498.641 1.10659 -0.969179 0
M  V30 5417 H 500.599 4.15719 -0.351279 0
M  V30 5418 H 499.229 3.21473 0.292382 0
M  V30 5419 H 498.281 3.1539 -2.12681 0
M  V30 5420 H 499.593 4.25422 -2.60418 0
M  V30 5421 H 498.747 5.9833 -1.00429 0
M  V30 5422 H 497.486 4.85843 -0.425216 0
M  V30 5423 H 496.491 4.77318 -2.7285 0
M  V30 5424 H 497.716 5.93244 -3.30512 0
M  V30 5425 H 495.662 6.46287 -1.1247 0
M  V30 5426 H 495.579 7.03934 -2.75705 0
M  V30 5427 H 496.847 7.6049 -1.71098 0
M  V30 5428 N 501.076 1.04316 1.18135 0
M  V30 5429 C 502.304 0.768117 1.92113 0
M  V30 5430 C 502.719 -0.675057 1.76319 0
M  V30 5431 O 502.076 -1.46038 1.09449 0
M  V30 5432 C 502.127 1.12808 3.43448 0
M  V30 5433 O 501.848 2.5146 3.58747 0
M  V30 5434 C 503.349 0.8779 4.3452 0
M  V30 5435 H 500.569 0.279937 0.609817 0
M  V30 5436 H 503.113 1.39149 1.49859 0
M  V30 5437 H 501.268 0.549623 3.83481 0
M  V30 5438 H 501.682 2.65313 4.52448 0
M  V30 5439 H 503.156 1.17959 5.39249 0
M  V30 5440 H 503.633 -0.187239 4.38801 0
M  V30 5441 H 504.239 1.43977 4.00188 0
M  V30 5442 N 502.554 -1.34406 0.822964 0
M  V30 5443 C 503.484 -2.32052 0.259608 0
M  V30 5444 C 504.465 -1.58243 -0.623961 0
M  V30 5445 O 505.65 -1.86224 -0.55083 0
M  V30 5446 C 502.78 -3.42434 -0.579314 0
M  V30 5447 C 501.734 -4.27499 0.20712 0
M  V30 5448 C 501.06 -5.29349 -0.754547 0
M  V30 5449 C 502.36 -5.02758 1.41533 0
M  V30 5450 H 504.054 -2.79418 1.07545 0
M  V30 5451 H 501.6 -1.34338 0.518593 0
M  V30 5452 H 503.553 -4.0976 -0.983612 0
M  V30 5453 H 502.277 -2.93717 -1.4282 0
M  V30 5454 H 500.936 -3.61776 0.592787 0
M  V30 5455 H 500.584 -4.76895 -1.59939 0
M  V30 5456 H 500.284 -5.8714 -0.232561 0
M  V30 5457 H 501.808 -5.99544 -1.1567 0
M  V30 5458 H 503.222 -5.62938 1.08504 0
M  V30 5459 H 501.619 -5.70123 1.87296 0
M  V30 5460 H 502.689 -4.32451 2.1935 0
M  V30 5461 N 504.032 -0.577932 -1.46621 0
M  V30 5462 C 504.962 0.145917 -2.33044 0
M  V30 5463 C 505.943 0.888412 -1.45056 0
M  V30 5464 O 507.128 0.864812 -1.73881 0
M  V30 5465 C 504.258 1.16322 -3.27241 0
M  V30 5466 C 503.212 0.535868 -4.24632 0
M  V30 5467 C 502.538 1.65929 -5.08303 0
M  V30 5468 C 503.838 -0.523861 -5.19666 0
M  V30 5469 H 505.532 -0.575636 -2.93814 0
M  V30 5470 H 503.078 -0.278272 -1.41286 0
M  V30 5471 H 505.031 1.67793 -3.86553 0
M  V30 5472 H 503.755 1.91498 -2.64567 0
M  V30 5473 H 502.414 0.0422759 -3.66576 0
M  V30 5474 H 502.062 2.40061 -4.42018 0
M  V30 5475 H 501.762 1.2452 -5.74255 0
M  V30 5476 H 503.286 2.17686 -5.70478 0
M  V30 5477 H 504.7 -0.0944059 -5.73222 0
M  V30 5478 H 503.097 -0.858 -5.93935 0
M  V30 5479 H 504.167 -1.41197 -4.63887 0
M  V30 5480 N 505.51 1.54411 -0.315457 0
M  V30 5481 C 506.926 1.59556 0.037464 0
M  V30 5482 C 507.126 1.33217 1.5118 0
M  V30 5483 O 506.182 1.11264 2.26664 0
M  V30 5484 C 507.495 2.98372 -0.373477 0
M  V30 5485 C 509.043 3.11324 -0.323452 0
M  V30 5486 C 509.518 4.52472 -0.709433 0
M  V30 5487 N 511.009 4.58437 -0.662524 0
M  V30 5488 C 511.744 5.65751 -0.933474 0
M  V30 5489 N 511.24 6.81039 -1.27114 0
M  V30 5490 N 513.033 5.55489 -0.859573 0
M  V30 5491 H 505.184 1.6979 -1.27614 0
M  V30 5492 H 507.447 0.793732 -0.518356 0
M  V30 5493 H 507.153 3.22618 -1.40037 0
M  V30 5494 H 507.027 3.76264 0.265615 0
M  V30 5495 H 509.414 2.86818 0.694223 0
M  V30 5496 H 509.495 2.35555 -0.997367 0
M  V30 5497 H 509.139 4.7771 -1.72498 0
M  V30 5498 H 509.069 5.26598 -0.0132923 0
M  V30 5499 H 511.56 3.75636 -0.413065 0
M  V30 5500 H 511.873 7.58816 -1.46348 0
M  V30 5501 H 510.218 6.82555 -1.30932 0
M  V30 5502 H 513.409 4.64299 -0.595324 0
M  V30 5503 H 513.582 6.39036 -1.0741 0
M  V30 5504 N 506.988 0.0434614 1.5754 0
M  V30 5505 C 508.235 -0.632035 1.92384 0
M  V30 5506 C 508.563 -1.71304 0.921157 0
M  V30 5507 O 507.818 -1.95583 -0.067744 0
M  V30 5508 C 508.117 -1.2738 3.3393 0
M  V30 5509 C 507.783 -0.321757 4.49751 0
M  V30 5510 C 506.445 -0.0597611 4.81163 0
M  V30 5511 C 508.797 0.331158 5.20147 0
M  V30 5512 C 506.125 0.862715 5.80322 0
M  V30 5513 C 508.477 1.24178 6.20292 0
M  V30 5514 C 507.141 1.51252 6.50138 0
M  V30 5515 H 506.411 -0.231278 0.703983 0
M  V30 5516 H 509.058 0.108294 1.91194 0
M  V30 5517 H 507.363 -2.08921 3.3145 0
M  V30 5518 H 509.06 -1.80326 3.58167 0
M  V30 5519 H 505.65 -0.53614 4.25233 0
M  V30 5520 H 509.834 0.141826 4.96097 0
M  V30 5521 H 505.09 1.08003 6.01785 0
M  V30 5522 H 509.264 1.75381 6.73954 0
M  V30 5523 H 506.891 2.22897 7.26788 0
M  V30 5524 N 508.466 -1.55915 -0.229846 0
M  V30 5525 C 509.712 -1.79718 -0.952517 0
M  V30 5526 C 510.067 -0.61514 -1.82301 0
M  V30 5527 O 509.36 0.391098 -1.87566 0
M  V30 5528 C 509.554 -3.06845 -1.8325 0
M  V30 5529 C 509.383 -4.37302 -1.04868 0
M  V30 5530 C 508.153 -4.99749 -0.746932 0
M  V30 5531 C 510.351 -5.12599 -0.417989 0
M  V30 5532 N 508.333 -6.13871 0.0591596 0
M  V30 5533 C 509.704 -6.19488 0.251879 0
M  V30 5534 C 511.759 -4.96804 -0.33018 0
M  V30 5535 C 510.462 -7.12299 1.00115 0
M  V30 5536 C 512.488 -5.90007 0.4056 0
M  V30 5537 C 511.85 -6.96317 1.06404 0
M  V30 5538 H 507.949 -0.709382 -0.329091 0
M  V30 5539 H 510.533 -1.93406 -0.224114 0
M  V30 5540 H 508.704 -2.94456 -2.53279 0
M  V30 5541 H 510.436 -3.18874 -2.49202 0
M  V30 5542 H 507.191 -4.61518 -1.06292 0
M  V30 5543 H 507.615 -6.75497 0.450798 0
M  V30 5544 H 512.257 -4.14675 -0.824898 0
M  V30 5545 H 509.975 -7.93916 1.50741 0
M  V30 5546 H 513.561 -5.79862 0.474436 0
M  V30 5547 H 512.441 -7.67194 1.62429 0
M  V30 5548 N 509.944 0.496216 -1.49584 0
M  V30 5549 C 510.874 1.60576 -1.69521 0
M  V30 5550 C 511.855 1.61169 -0.543933 0
M  V30 5551 O 513.04 1.77834 -0.78031 0
M  V30 5552 C 510.17 2.99038 -1.76616 0
M  V30 5553 C 509.124 3.13312 -2.91581 0
M  V30 5554 C 508.45 4.53172 -2.83794 0
M  V30 5555 C 509.75 2.92886 -4.32452 0
M  V30 5556 H 511.444 1.44146 -2.62416 0
M  V30 5557 H 508.99 0.692024 -1.26282 0
M  V30 5558 H 510.943 3.76564 -1.8915 0
M  V30 5559 H 509.667 3.16568 -0.80324 0
M  V30 5560 H 508.326 2.38213 -2.78658 0
M  V30 5561 H 507.974 4.67585 -1.854 0
M  V30 5562 H 507.674 4.63662 -3.60958 0
M  V30 5563 H 509.198 5.32752 -2.98342 0
M  V30 5564 H 510.612 3.60178 -4.46032 0
M  V30 5565 H 509.009 3.14844 -5.10875 0
M  V30 5566 H 510.079 1.88966 -4.46565 0
M  V30 5567 N 511.423 1.38739 0.74761 0
M  V30 5568 C 512.834 1.31507 1.32524 0
M  V30 5569 C 513.185 -0.0263963 1.96182 0
M  V30 5570 O 512.31 -0.92849 1.95469 0
M  V30 5571 C 512.905 2.38162 2.40966 0
M  V30 5572 C 511.464 2.34489 2.94434 0
M  V30 5573 C 510.611 2.20712 1.67873 0
M  V30 5574 H 513.562 1.4901 0.546043 0
M  V30 5575 H 513.583 2.04222 3.21051 0
M  V30 5576 H 513.095 3.35783 1.94605 0
M  V30 5577 H 511.196 1.40467 3.45108 0
M  V30 5578 H 511.309 3.28861 3.48407 0
M  V30 5579 H 509.673 1.67667 1.91729 0
M  V30 5580 H 510.456 3.20285 1.23582 0
M  V30 5581 N 512.901 -0.976442 1.23707 0
M  V30 5582 C 514.148 -1.71827 1.07153 0
M  V30 5583 C 514.476 -1.9053 -0.390982 0
M  V30 5584 O 513.731 -1.45779 -1.30564 0
M  V30 5585 C 514.03 -3.11814 1.74662 0
M  V30 5586 C 513.696 -3.12978 3.24585 0
M  V30 5587 C 512.358 -3.13003 3.6549 0
M  V30 5588 C 514.71 -3.07986 4.20469 0
M  V30 5589 C 512.038 -3.05757 5.00729 0
M  V30 5590 C 514.39 -3.02282 5.55705 0
M  V30 5591 C 513.054 -3.00631 5.95968 0
M  V30 5592 H 512.324 -0.628758 0.392102 0
M  V30 5593 H 514.971 -1.14239 1.53693 0
M  V30 5594 H 513.276 -3.72812 1.20492 0
M  V30 5595 H 514.973 -3.67989 1.59328 0
M  V30 5596 H 511.563 -3.13718 2.92026 0
M  V30 5597 H 515.747 -3.07103 3.89874 0
M  V30 5598 H 511.003 -3.02834 5.31132 0
M  V30 5599 H 515.177 -2.97376 6.29714 0
M  V30 5600 H 512.804 -2.94771 7.00724 0
M  V30 5601 N 514.379 -1.04941 -1.1758 0
M  V30 5602 C 515.627 -0.756492 -1.87408 0
M  V30 5603 C 515.948 0.718478 -1.81281 0
M  V30 5604 O 515.218 1.519 -1.23706 0
M  V30 5605 H 513.798 -0.276841 -0.693807 0
M  V30 5606 H 516.46 -1.32803 -1.42652 0
M  V30 5607 H 515.556 -1.06918 -2.93215 0
M  V30 5608 N 515.857 1.33968 -0.830081 0
M  V30 5609 C 517.104 1.98063 -0.421566 0
M  V30 5610 C 517.432 1.65787 1.0171 0
M  V30 5611 O 516.687 0.925348 1.72441 0
M  V30 5612 C 516.986 3.52679 -0.57898 0
M  V30 5613 C 516.652 4.04884 -1.98443 0
M  V30 5614 C 515.314 4.18852 -2.36888 0
M  V30 5615 C 517.666 4.32879 -2.90285 0
M  V30 5616 C 514.994 4.58145 -3.66497 0
M  V30 5617 C 517.346 4.7362 -4.19364 0
M  V30 5618 C 516.01 4.85794 -4.57778 0
M  V30 5619 H 515.28 0.724765 -0.154262 0
M  V30 5620 H 517.927 1.59792 -1.05541 0
M  V30 5621 H 516.232 3.91556 0.138219 0
M  V30 5622 H 517.929 4.00261 -0.243317 0
M  V30 5623 H 514.519 3.9448 -1.67581 0
M  V30 5624 H 518.703 4.21619 -2.61823 0
M  V30 5625 H 513.959 4.65762 -3.96075 0
M  V30 5626 H 518.133 4.9424 -4.90612 0
M  V30 5627 H 515.76 5.15998 -5.58256 0
M  V30 5628 N 517.335 0.585699 1.46312 0
M  V30 5629 C 518.584 0.0701192 2.01578 0
M  V30 5630 C 518.897 -1.29889 1.46247 0
M  V30 5631 O 520.103 -1.90598 1.93351 0
M  V30 5632 C 518.559 0.0747499 3.59822 0
M  V30 5633 C 518.167 1.44226 4.24149 0
M  V30 5634 C 519.911 -0.38673 4.22735 0
M  V30 5635 C 517.818 1.40446 5.74481 0
M  V30 5636 H 516.748 0.0224441 0.753666 0
M  V30 5637 H 519.399 0.737789 1.68015 0
M  V30 5638 H 517.781 -0.659144 3.90476 0
M  V30 5639 H 518.955 2.19612 4.05101 0
M  V30 5640 H 517.27 1.84401 3.73343 0
M  V30 5641 H 519.867 -0.433853 5.32937 0
M  V30 5642 H 520.21 -1.40489 3.91878 0
M  V30 5643 H 520.743 0.293195 3.96718 0
M  V30 5644 H 517.482 2.39952 6.10003 0
M  V30 5645 H 517.002 0.692845 5.95785 0
M  V30 5646 H 518.681 1.11865 6.37256 0
M  V30 5647 N 518.813 -1.54241 0.323641 0
M  V30 5648 C 519.743 -2.27289 -0.534993 0
M  V30 5649 C 520.724 -1.28087 -1.11927 0
M  V30 5650 O 521.909 -1.56899 -1.14439 0
M  V30 5651 C 519.039 -3.03075 -1.69596 0
M  V30 5652 C 517.993 -4.09614 -1.24098 0
M  V30 5653 C 517.319 -4.73242 -2.4889 0
M  V30 5654 C 518.619 -5.21087 -0.355789 0
M  V30 5655 H 520.313 -2.99308 0.0743257 0
M  V30 5656 H 517.859 -1.43952 0.0371874 0
M  V30 5657 H 519.812 -3.52907 -2.30293 0
M  V30 5658 H 518.536 -2.28673 -2.33187 0
M  V30 5659 H 517.195 -3.60666 -0.656945 0
M  V30 5660 H 516.843 -3.95455 -3.10845 0
M  V30 5661 H 516.543 -5.45209 -2.19138 0
M  V30 5662 H 518.067 -5.25848 -3.10348 0
M  V30 5663 H 519.481 -5.66675 -0.869042 0
M  V30 5664 H 517.878 -5.9991 -0.151045 0
M  V30 5665 H 518.948 -4.81005 0.613339 0
M  V30 5666 N 520.291 -0.0518155 -1.57515 0
M  V30 5667 C 521.54 0.621286 -1.91893 0
M  V30 5668 C 521.853 1.71966 -0.932052 0
M  V30 5669 O 523.059 2.45096 -1.16791 0
M  V30 5670 C 521.515 1.15641 -3.40816 0
M  V30 5671 C 521.123 0.0901146 -4.47909 0
M  V30 5672 C 522.867 1.80472 -3.84227 0
M  V30 5673 C 520.774 0.638154 -5.87947 0
M  V30 5674 H 519.704 0.235835 -0.716169 0
M  V30 5675 H 522.355 -0.120809 -1.83102 0
M  V30 5676 H 520.737 1.95084 -3.44613 0
M  V30 5677 H 521.911 -0.683525 -4.55702 0
M  V30 5678 H 520.226 -0.460774 -4.13843 0
M  V30 5679 H 522.823 2.22471 -4.86221 0
M  V30 5680 H 523.166 2.65669 -3.20508 0
M  V30 5681 H 523.699 1.07683 -3.82948 0
M  V30 5682 H 520.438 -0.176202 -6.55263 0
M  V30 5683 H 519.958 1.37976 -5.83714 0
M  V30 5684 H 521.637 1.12085 -6.37217 0
M  V30 5685 N 521.769 1.56035 0.221574 0
M  V30 5686 C 522.699 1.95434 1.2778 0
M  V30 5687 C 523.68 0.822564 1.48889 0
M  V30 5688 O 524.865 1.08486 1.61072 0
M  V30 5689 C 521.995 2.27102 2.62759 0
M  V30 5690 C 520.949 3.4277 2.56306 0
M  V30 5691 C 520.275 3.60043 3.95314 0
M  V30 5692 C 521.575 4.77742 2.11093 0
M  V30 5693 H 523.269 2.83912 0.950504 0
M  V30 5694 H 520.815 1.36596 0.455791 0
M  V30 5695 H 522.768 2.53256 3.36807 0
M  V30 5696 H 521.492 1.35478 2.97176 0
M  V30 5697 H 520.151 3.16664 1.84715 0
M  V30 5698 H 519.799 2.65794 4.27039 0
M  V30 5699 H 519.499 4.37841 3.91879 0
M  V30 5700 H 521.023 3.88545 4.71025 0
M  V30 5701 H 522.437 5.03102 2.74885 0
M  V30 5702 H 520.834 5.58823 2.18716 0
M  V30 5703 H 521.904 4.731 1.06321 0
M  V30 5704 N 523.247 -0.488276 1.49845 0
M  V30 5705 C 524.493 -1.24341 1.6021 0
M  V30 5706 C 524.826 -1.91967 0.293651 0
M  V30 5707 O 524.101 -1.81323 -0.703718 0
M  V30 5708 C 524.384 -2.3005 2.77036 0
M  V30 5709 C 524.237 -1.66842 4.17713 0
M  V30 5710 C 525.556 -3.31509 2.89464 0
M  V30 5711 H 522.675 -0.450704 0.583125 0
M  V30 5712 H 525.317 -0.539673 1.82174 0
M  V30 5713 H 523.467 -2.90071 2.58439 0
M  V30 5714 H 525.139 -1.1055 4.47858 0
M  V30 5715 H 523.382 -0.972079 4.22768 0
M  V30 5716 H 524.053 -2.43576 4.95353 0
M  V30 5717 H 526.529 -2.81493 3.06433 0
M  V30 5718 H 525.405 -4.02822 3.72861 0
M  V30 5719 H 525.666 -3.94603 1.99351 0
M  V30 5720 N 524.725 -1.39134 -0.740242 0
M  V30 5721 C 525.974 -1.35384 -1.49512 0
M  V30 5722 C 526.287 0.04919 -1.95538 0
M  V30 5723 O 527.493 0.209257 -2.70692 0
M  V30 5724 C 525.949 -2.37812 -2.70136 0
M  V30 5725 C 525.557 -3.83804 -2.31081 0
M  V30 5726 C 527.301 -2.4313 -3.47977 0
M  V30 5727 C 525.208 -4.77886 -3.48395 0
M  V30 5728 H 524.138 -0.503297 -0.561434 0
M  V30 5729 H 526.789 -1.64754 -0.807974 0
M  V30 5730 H 525.171 -2.01505 -3.40899 0
M  V30 5731 H 526.345 -4.29123 -1.67898 0
M  V30 5732 H 524.66 -3.81732 -1.66343 0
M  V30 5733 H 527.257 -3.10614 -4.35228 0
M  V30 5734 H 527.6 -1.45423 -3.90074 0
M  V30 5735 H 528.133 -2.78304 -2.84239 0
M  V30 5736 H 524.872 -5.76836 -3.11353 0
M  V30 5737 H 524.392 -4.3725 -4.10576 0
M  V30 5738 H 526.071 -4.96538 -4.148 0
M  V30 5739 N 526.204 0.969867 -1.24223 0
M  V30 5740 C 527.451 1.71256 -1.08063 0
M  V30 5741 C 527.779 1.90734 0.380872 0
M  V30 5742 O 527.034 1.46469 1.29789 0
M  V30 5743 C 527.333 3.10883 -1.76314 0
M  V30 5744 C 526.999 3.11252 -3.26241 0
M  V30 5745 C 525.661 3.1106 -3.67144 0
M  V30 5746 C 528.013 3.05751 -4.22097 0
M  V30 5747 C 525.341 3.03097 -5.02344 0
M  V30 5748 C 527.693 2.9933 -5.57301 0
M  V30 5749 C 526.357 2.97466 -5.97554 0
M  V30 5750 H 525.627 0.62667 -0.395431 0
M  V30 5751 H 528.274 1.13422 -1.54297 0
M  V30 5752 H 526.579 3.72168 -1.22468 0
M  V30 5753 H 528.276 3.67138 -1.61277 0
M  V30 5754 H 524.866 3.12165 -2.93685 0
M  V30 5755 H 529.05 3.05031 -3.91497 0
M  V30 5756 H 524.306 3.00013 -5.32731 0
M  V30 5757 H 528.48 2.94033 -6.31283 0
M  V30 5758 H 526.107 2.91051 -7.02277 0
M  V30 5759 N 527.682 1.05563 1.17022 0
M  V30 5760 C 528.928 0.769074 1.87652 0
M  V30 5761 C 529.261 -0.702326 1.81055 0
M  V30 5762 O 528.536 -1.5139 1.22112 0
M  V30 5763 C 528.819 1.25492 3.37526 0
M  V30 5764 C 528.672 2.78953 3.52853 0
M  V30 5765 C 529.991 0.856919 4.31677 0
M  V30 5766 H 527.11 0.280854 0.681388 0
M  V30 5767 H 529.752 1.31027 1.37593 0
M  V30 5768 H 527.902 0.794516 3.80289 0
M  V30 5769 H 529.574 3.33146 3.19079 0
M  V30 5770 H 527.817 3.18046 2.95007 0
M  V30 5771 H 528.488 3.08011 4.58076 0
M  V30 5772 H 530.964 1.25334 3.96775 0
M  V30 5773 H 529.84 1.22443 5.35069 0
M  V30 5774 H 530.101 -0.238787 4.41455 0
M  V30 5775 N 529.16 -1.33526 0.837174 0
M  V30 5776 C 530.388 -2.02047 0.445494 0
M  V30 5777 C 530.803 -1.62995 -0.952788 0
M  V30 5778 O 530.16 -0.842447 -1.61892 0
M  V30 5779 C 530.211 -3.57221 0.554577 0
M  V30 5780 O 529.932 -3.94863 1.89776 0
M  V30 5781 C 531.433 -4.43012 0.159634 0
M  V30 5782 H 528.653 -0.647221 0.177048 0
M  V30 5783 H 531.197 -1.70492 1.12928 0
M  V30 5784 H 529.352 -3.87315 -0.0812781 0
M  V30 5785 H 529.766 -4.89569 1.88208 0
M  V30 5786 H 531.24 -5.51253 0.28701 0
M  V30 5787 H 531.717 -4.29916 -0.898289 0
M  V30 5788 H 532.323 -4.18274 0.769855 0
M  V30 5789 N 530.638 -0.59345 -1.46 0
M  V30 5790 C 531.886 -0.082988 -2.0193 0
M  V30 5791 C 532.207 1.28569 -1.46612 0
M  V30 5792 O 531.477 1.84629 -0.654909 0
M  V30 5793 H 530.057 -0.0276882 -0.746487 0
M  V30 5794 H 532.719 -0.771657 -1.78973 0
M  V30 5795 H 531.815 -0.022079 -3.12092 0
M  V30 5796 N 532.116 1.54067 -0.331816 0
M  V30 5797 C 533.046 2.27569 0.522932 0
M  V30 5798 C 534.027 1.28679 1.11247 0
M  V30 5799 O 535.212 1.57504 1.13605 0
M  V30 5800 C 532.342 3.0397 1.67987 0
M  V30 5801 C 531.296 4.10267 1.21924 0
M  V30 5802 C 530.622 4.74555 2.46377 0
M  V30 5803 C 531.922 5.21268 0.32815 0
M  V30 5804 H 533.616 2.99264 -0.0901977 0
M  V30 5805 H 531.162 1.4393 -0.044821 0
M  V30 5806 H 533.115 3.54123 2.28418 0
M  V30 5807 H 531.839 2.29906 2.31971 0
M  V30 5808 H 530.498 3.61009 0.637809 0
M  V30 5809 H 530.146 3.97098 3.08743 0
M  V30 5810 H 529.846 5.46363 2.16243 0
M  V30 5811 H 531.37 5.27487 3.07555 0
M  V30 5812 H 532.784 5.67128 0.838978 0
M  V30 5813 H 531.181 5.99982 0.119228 0
M  V30 5814 H 532.251 4.80673 -0.638839 0
M  V30 5815 N 533.594 0.0601682 1.57485 0
M  V30 5816 C 534.524 -0.90889 2.15085 0
M  V30 5817 C 535.505 -1.31838 1.07484 0
M  V30 5818 O 536.69 -1.3915 1.35466 0
M  V30 5819 C 533.82 -2.18059 2.7031 0
M  V30 5820 C 532.774 -1.91088 3.82974 0
M  V30 5821 C 532.1 -3.24789 4.24754 0
M  V30 5822 C 533.4 -1.22535 5.07723 0
M  V30 5823 H 535.094 -0.429093 2.96309 0
M  V30 5824 H 532.64 -0.204952 1.42534 0
M  V30 5825 H 534.593 -2.86258 3.09248 0
M  V30 5826 H 533.317 -2.6826 1.8629 0
M  V30 5827 H 531.976 -1.25297 3.44523 0
M  V30 5828 H 531.624 -3.72809 3.37672 0
M  V30 5829 H 531.324 -3.07538 5.00694 0
M  V30 5830 H 532.848 -3.94205 4.66299 0
M  V30 5831 H 534.262 -1.80783 5.4405 0
M  V30 5832 H 532.659 -1.1558 5.88864 0
M  V30 5833 H 533.729 -0.202692 4.84476 0
M  V30 5834 N 535.072 -1.5615 -0.213296 0
M  V30 5835 C 536.002 -1.96109 -1.26742 0
M  V30 5836 C 536.983 -0.830448 -1.48451 0
M  V30 5837 O 538.168 -1.09339 -1.60495 0
M  V30 5838 C 535.298 -2.28492 -2.61551 0
M  V30 5839 C 534.252 -3.44124 -2.54485 0
M  V30 5840 C 533.578 -3.62134 -3.93399 0
M  V30 5841 C 534.878 -4.78855 -2.08556 0
M  V30 5842 H 536.572 -2.84412 -0.935434 0
M  V30 5843 H 534.118 -1.36836 -0.44854 0
M  V30 5844 H 536.071 -2.55039 -3.3546 0
M  V30 5845 H 534.795 -1.37052 -2.96453 0
M  V30 5846 H 533.454 -3.17639 -1.83033 0
M  V30 5847 H 533.102 -2.68055 -4.25623 0
M  V30 5848 H 532.802 -4.39913 -3.89551 0
M  V30 5849 H 534.326 -3.91038 -4.68958 0
M  V30 5850 H 535.74 -5.04552 -2.72213 0
M  V30 5851 H 534.137 -5.59975 -2.1575 0
M  V30 5852 H 535.207 -4.73657 -1.03811 0
M  V30 5853 N 536.55 0.480323 -1.50102 0
M  V30 5854 C 537.966 0.813295 -1.37323 0
M  V30 5855 C 538.166 1.97027 -0.422206 0
M  V30 5856 O 537.222 2.5212 0.138563 0
M  V30 5857 C 538.535 1.13404 -2.78496 0
M  V30 5858 C 540.083 1.24104 -2.87345 0
M  V30 5859 C 540.558 1.59497 -4.29331 0
M  V30 5860 N 542.049 1.66507 -4.32238 0
M  V30 5861 C 542.784 1.95378 -5.39087 0
M  V30 5862 N 542.28 2.22333 -6.56155 0
M  V30 5863 N 544.073 1.96803 -5.26522 0
M  V30 5864 H 536.224 -0.282291 -2.10516 0
M  V30 5865 H 538.487 -0.063752 -0.945854 0
M  V30 5866 H 538.193 0.357064 -3.49883 0
M  V30 5867 H 538.067 2.07251 -3.15162 0
M  V30 5868 H 540.454 2.00871 -2.16183 0
M  V30 5869 H 540.535 0.282593 -2.54234 0
M  V30 5870 H 540.179 0.832736 -5.01027 0
M  V30 5871 H 540.109 2.56477 -4.59921 0
M  V30 5872 H 542.6 1.47753 -3.47818 0
M  V30 5873 H 542.913 2.43611 -7.33399 0
M  V30 5874 H 541.258 2.19745 -6.59346 0
M  V30 5875 H 544.449 1.75235 -4.34062 0
M  V30 5876 H 544.622 2.18969 -6.09883 0
M  V30 5877 N 538.028 1.39524 0.732853 0
M  V30 5878 C 538.975 1.38416 1.84688 0
M  V30 5879 C 539.945 0.243539 1.64305 0
M  V30 5880 O 541.13 0.438979 1.85681 0
M  V30 5881 C 538.27 1.23555 3.22224 0
M  V30 5882 C 537.383 2.47179 3.54298 0
M  V30 5883 C 536.518 2.2489 4.81246 0
M  V30 5884 C 535.557 3.44178 5.0617 0
M  V30 5885 N 534.694 3.21192 6.24323 0
M  V30 5886 H 539.534 2.33645 1.84971 0
M  V30 5887 H 537.071 1.16059 0.903804 0
M  V30 5888 H 539.029 1.12949 4.0162 0
M  V30 5889 H 537.659 0.31954 3.21215 0
M  V30 5890 H 536.711 2.68379 2.69587 0
M  V30 5891 H 538.023 3.36022 3.68633 0
M  V30 5892 H 537.177 2.11538 5.68627 0
M  V30 5893 H 535.916 1.33443 4.69089 0
M  V30 5894 H 534.921 3.58025 4.17251 0
M  V30 5895 H 536.146 4.36528 5.20212 0
M  V30 5896 H 534.092 2.32413 6.1345 0
M  V30 5897 H 534.009 4.03594 6.39256 0
M  V30 5898 H 535.277 3.1154 7.14537 0
M  V30 5899 N 539.506 -0.963266 1.24736 0
M  V30 5900 C 540.917 -1.52145 1.08207 0
M  V30 5901 C 541.268 -1.93142 -0.345061 0
M  V30 5902 O 540.393 -1.77769 -1.23399 0
M  V30 5903 C 540.988 -2.76486 1.95808 0
M  V30 5904 C 539.547 -3.28646 1.8349 0
M  V30 5905 C 538.694 -2.01529 1.90476 0
M  V30 5906 H 541.645 -0.781083 1.38148 0
M  V30 5907 H 541.666 -3.49986 1.49297 0
M  V30 5908 H 541.178 -2.46617 2.99669 0
M  V30 5909 H 539.279 -3.63357 0.824787 0
M  V30 5910 H 539.392 -3.97246 2.67829 0
M  V30 5911 H 537.756 -2.16442 1.34258 0
M  V30 5912 H 538.539 -1.7402 2.95926 0
M  V30 5913 N 540.985 -1.06182 -1.16461 0
M  V30 5914 C 541.933 -0.665716 -2.2287 0
M  V30 5915 C 542.927 0.317822 -1.66392 0
M  V30 5916 O 544.133 0.182807 -1.79069 0
M  V30 5917 H 540.508 -0.197148 -0.725697 0
M  V30 5918 H 542.479 -1.57307 -2.53569 0
M  V30 5919 C 541.228 -0.0669803 -3.47635 0
M  V30 5920 H 540.551 -0.814899 -3.91407 0
M  V30 5921 H 541.991 0.172669 -4.23648 0
M  V30 5922 C 540.45 1.18913 -3.15216 0
M  V30 5923 O 540.98 2.27723 -3.30916 0
M  V30 5924 N 539.186 1.09066 -2.69357 0
M  V30 5925 H 538.733 0.20518 -2.56782 0
M  V30 5926 H 538.691 1.93195 -2.48039 0
M  V30 5927 N 542.463 1.3308 -0.844243 0
M  V30 5928 C 543.691 2.01808 -0.456203 0
M  V30 5929 C 544.106 1.63498 0.944131 0
M  V30 5930 O 543.463 0.85102 1.61443 0
M  V30 5931 C 543.514 3.56922 -0.573513 0
M  V30 5932 O 543.235 3.93851 -1.91868 0
M  V30 5933 C 544.736 4.42922 -0.183125 0
M  V30 5934 H 541.956 0.646273 -0.180477 0
M  V30 5935 H 544.5 1.69891 -1.1383 0
M  V30 5936 H 542.655 3.87352 0.0607367 0
M  V30 5937 H 543.069 4.88564 -1.90802 0
M  V30 5938 H 544.543 5.51093 -0.316241 0
M  V30 5939 H 545.02 4.30386 0.875477 0
M  V30 5940 H 545.626 4.1786 -0.792027 0
M  V30 5941 N 543.941 0.601185 1.45683 0
M  V30 5942 C 545.171 0.0999093 2.06358 0
M  V30 5943 C 545.579 -1.21831 1.44754 0
M  V30 5944 O 544.922 -1.75157 0.553695 0
M  V30 5945 C 544.984 -0.12085 3.59297 0
M  V30 5946 C 544.648 1.11459 4.432 0
M  V30 5947 C 545.645 2.03118 4.7858 0
M  V30 5948 C 543.33 1.34162 4.84051 0
M  V30 5949 C 545.324 3.15814 5.53661 0
M  V30 5950 C 543.011 2.4716 5.58888 0
M  V30 5951 C 544.009 3.37814 5.93608 0
M  V30 5952 O 543.697 4.48846 6.66928 0
M  V30 5953 H 543.429 0.0630316 0.673055 0
M  V30 5954 H 545.983 0.826982 1.88016 0
M  V30 5955 H 544.213 -0.902744 3.76015 0
M  V30 5956 H 545.902 -0.572925 4.01836 0
M  V30 5957 H 546.668 1.86801 4.47583 0
M  V30 5958 H 542.547 0.645018 4.56465 0
M  V30 5959 H 546.091 3.86596 5.8068 0
M  V30 5960 H 541.988 2.63432 5.89299 0
M  V30 5961 H 542.756 4.47446 6.85371 0
M  V30 5962 N 545.419 -1.53889 0.339982 0
M  V30 5963 C 546.83 -1.86139 -0.144671 0
M  V30 5964 C 547.181 -1.2613 -1.50285 0
M  V30 5965 O 546.306 -0.573515 -2.08662 0
M  V30 5966 C 546.901 -3.37728 -0.269285 0
M  V30 5967 C 545.46 -3.69868 -0.698168 0
M  V30 5968 C 544.607 -2.76777 0.170249 0
M  V30 5969 H 547.558 -1.48503 0.559704 0
M  V30 5970 H 547.579 -3.64331 -1.0974 0
M  V30 5971 H 547.091 -3.81375 0.719366 0
M  V30 5972 H 545.192 -3.31764 -1.69597 0
M  V30 5973 H 545.305 -4.76582 -0.490533 0
M  V30 5974 H 543.669 -2.52188 -0.356844 0
M  V30 5975 H 544.452 -3.23253 1.15597 0
M  V30 5976 N 546.897 -0.0685191 -1.57451 0
M  V30 5977 C 547.844 0.899861 -2.12535 0
M  V30 5978 C 548.814 1.29749 -1.03703 0
M  V30 5979 O 549.999 1.38392 -1.31348 0
M  V30 5980 C 547.139 2.16328 -2.6888 0
M  V30 5981 C 546.252 1.81857 -3.91857 0
M  V30 5982 C 545.387 3.02786 -4.36457 0
M  V30 5983 C 544.426 2.64317 -5.5209 0
M  V30 5984 N 543.563 3.77994 -5.91663 0
M  V30 5985 H 548.403 0.423243 -2.94979 0
M  V30 5986 H 545.94 0.197268 -1.45771 0
M  V30 5987 H 547.898 2.90281 -2.99655 0
M  V30 5988 H 546.528 2.61536 -1.89206 0
M  V30 5989 H 545.58 0.979808 -3.67565 0
M  V30 5990 H 546.892 1.49553 -4.75852 0
M  V30 5991 H 546.046 3.85021 -4.68875 0
M  V30 5992 H 544.785 3.38281 -3.51308 0
M  V30 5993 H 543.79 1.80503 -5.19325 0
M  V30 5994 H 545.015 2.29995 -6.38967 0
M  V30 5995 H 542.961 4.13258 -5.09464 0
M  V30 5996 H 542.878 3.49447 -6.7039 0
M  V30 5997 H 544.146 4.60818 -6.28703 0
M  V30 5998 N 548.375 1.56261 0.205012 0
M  V30 5999 C 549.308 1.88797 1.28183 0
M  V30 6000 C 550.286 0.747018 1.44424 0
M  V30 6001 O 551.47 0.997039 1.59973 0
M  V30 6002 C 548.597 2.10949 2.64987 0
M  V30 6003 C 547.643 3.33649 2.6567 0
M  V30 6004 S 548.476 4.89078 2.18088 0
M  V30 6005 C 549.632 5.14286 3.56736 0
M  V30 6006 H 549.865 2.79837 1.00393 0
M  V30 6007 H 547.398 1.48911 0.408042 0
M  V30 6008 H 549.356 2.24395 3.4374 0
M  V30 6009 H 548.017 1.20678 2.89993 0
M  V30 6010 H 547.21 3.46245 3.66239 0
M  V30 6011 H 546.812 3.19146 1.94992 0
M  V30 6012 H 549.104 5.04198 4.52537 0
M  V30 6013 H 550.047 6.16096 3.49043 0
M  V30 6014 H 550.455 4.41957 3.51189 0
M  V30 6015 N 549.853 -0.472356 1.50355 0
M  V30 6016 C 551.102 -1.2213 1.60522 0
M  V30 6017 C 551.415 -1.9312 0.310466 0
M  V30 6018 O 552.621 -2.69936 0.291029 0
M  V30 6019 C 551.077 -2.21909 2.83345 0
M  V30 6020 C 550.685 -1.56727 4.19691 0
M  V30 6021 C 552.429 -2.97453 3.02856 0
M  V30 6022 C 550.336 -2.54785 5.33703 0
M  V30 6023 H 549.266 -0.459543 0.597776 0
M  V30 6024 H 551.917 -0.491922 1.76783 0
M  V30 6025 H 550.299 -2.98133 2.60639 0
M  V30 6026 H 551.473 -0.863007 4.52646 0
M  V30 6027 H 549.788 -0.934685 4.05774 0
M  V30 6028 H 552.385 -3.70838 3.85205 0
M  V30 6029 H 552.728 -3.56764 2.14534 0
M  V30 6030 H 553.261 -2.28342 3.25737 0
M  V30 6031 H 550 -2.00214 6.24175 0
M  V30 6032 H 549.52 -3.23367 5.05167 0
M  V30 6033 H 551.199 -3.16639 5.64224 0
M  V30 6034 N 551.331 -1.39911 -0.725443 0
M  V30 6035 C 552.742 -1.33599 -1.30415 0
M  V30 6036 C 553.093 -0.00481792 -1.96199 0
M  V30 6037 O 552.218 0.897275 -1.96921 0
M  V30 6038 C 552.813 -2.41965 -2.37146 0
M  V30 6039 C 551.372 -2.39144 -2.90667 0
M  V30 6040 C 550.519 -2.23355 -1.64341 0
M  V30 6041 H 553.47 -1.4986 -0.522267 0
M  V30 6042 H 553.491 -2.09304 -3.17761 0
M  V30 6043 H 553.003 -3.38837 -1.89238 0
M  V30 6044 H 551.104 -1.4594 -3.4283 0
M  V30 6045 H 551.217 -3.34362 -3.43131 0
M  V30 6046 H 549.581 -1.70696 -1.89037 0
M  V30 6047 H 550.364 -3.2221 -1.18471 0
M  V30 6048 N 552.809 0.956637 -1.25245 0
M  V30 6049 C 553.719 2.0868 -1.0719 0
M  V30 6050 C 554.735 1.73997 -0.00959074 0
M  V30 6051 O 555.911 2.00301 -0.210104 0
M  V30 6052 C 552.976 3.39754 -0.690526 0
M  V30 6053 C 552.037 3.88316 -1.83055 0
M  V30 6054 C 551.27 5.13134 -1.46728 0
M  V30 6055 O 551.493 5.6925 -0.362029 0
M  V30 6056 O 550.427 5.56356 -2.29677 0
M  V30 6057 H 554.253 2.26813 -2.01965 0
M  V30 6058 H 551.838 1.07098 -1.04165 0
M  V30 6059 H 553.72 4.18543 -0.489871 0
M  V30 6060 H 552.395 3.22896 0.227981 0
M  V30 6061 H 551.302 3.1054 -2.08604 0
M  V30 6062 H 552.635 4.09669 -2.72822 0
M  V30 6063 N 554.287 1.06798 1.15896 0
M  V30 6064 C 555.534 0.787767 1.86549 0
M  V30 6065 C 555.862 -0.685959 1.82002 0
M  V30 6066 O 555.117 -1.5188 1.23414 0
M  V30 6067 C 555.416 1.23414 3.35416 0
M  V30 6068 C 555.082 2.71285 3.6016 0
M  V30 6069 C 553.744 3.11676 3.66622 0
M  V30 6070 C 556.096 3.6676 3.7032 0
M  V30 6071 C 553.424 4.4637 3.8075 0
M  V30 6072 C 555.776 5.01209 3.8597 0
M  V30 6073 C 554.44 5.41229 3.90676 0
M  V30 6074 H 553.71 0.288264 0.682631 0
M  V30 6075 H 556.357 1.338 1.37003 0
M  V30 6076 H 554.662 0.60319 3.87129 0
M  V30 6077 H 556.359 0.994298 3.88477 0
M  V30 6078 H 552.949 2.39015 3.55767 0
M  V30 6079 H 557.133 3.36685 3.64633 0
M  V30 6080 H 552.389 4.76855 3.82648 0
M  V30 6081 H 556.563 5.75067 3.92773 0
M  V30 6082 H 554.19 6.45602 4.01375 0
M  V30 6083 N 555.766 -1.3263 0.851289 0
M  V30 6084 C 557.013 -1.97368 0.453023 0
M  V30 6085 C 557.341 -1.67384 -0.990596 0
M  V30 6086 O 556.596 -0.952665 -1.70947 0
M  V30 6087 C 556.895 -3.51713 0.635015 0
M  V30 6088 C 556.561 -4.01676 2.04859 0
M  V30 6089 C 555.223 -4.15031 2.43522 0
M  V30 6090 C 557.575 -4.28206 2.97135 0
M  V30 6091 C 554.903 -4.52257 3.73739 0
M  V30 6092 C 557.255 -4.66889 4.26846 0
M  V30 6093 C 555.919 -4.7845 4.65448 0
M  V30 6094 H 555.189 -0.722219 0.165773 0
M  V30 6095 H 557.836 -1.58092 1.0807 0
M  V30 6096 H 556.141 -3.91726 -0.0759081 0
M  V30 6097 H 557.838 -3.99823 0.306964 0
M  V30 6098 H 554.428 -3.91764 1.73836 0
M  V30 6099 H 558.612 -4.174 2.68498 0
M  V30 6100 H 553.868 -4.59402 4.03435 0
M  V30 6101 H 558.042 -4.86372 4.98413 0
M  V30 6102 H 555.669 -5.07052 5.66395 0
M  V30 6103 N 557.244 -0.608902 -1.45362 0
M  V30 6104 C 558.484 -0.10763 -2.04116 0
M  V30 6105 C 558.848 1.23883 -1.46686 0
M  V30 6106 O 560.049 1.83091 -1.96803 0
M  V30 6107 C 558.32 -0.0703351 -3.57331 0
M  V30 6108 S 559.879 0.369554 -4.37241 0
M  V30 6109 H 556.697 -0.0502123 -0.709225 0
M  V30 6110 H 559.299 -0.8073 -1.78053 0
M  V30 6111 H 558.003 -1.05379 -3.9664 0
M  V30 6112 H 557.534 0.651287 -3.87971 0
M  V30 6113 H 559.549 1.61878 -4.69052 0
M  V30 6114 N 558.722 1.53707 -0.348139 0
M  V30 6115 C 559.999 1.93247 0.302475 0
M  V30 6116 C 560.379 1.28012 1.67857 0
M  V30 6117 O 559.727 0.43274 2.24365 0
M  V30 6118 C 559.937 3.47031 0.370159 0
M  V30 6119 C 561.285 4.20066 0.61882 0
M  V30 6120 O 562.309 3.53319 0.452087 0
M  V30 6121 O 561.168 5.38318 0.94215 0
M  V30 6122 H 558.262 0.807736 0.177458 0
M  V30 6123 H 560.808 1.64927 -0.399651 0
M  V30 6124 H 559.58 3.86745 -0.59534 0
M  V30 6125 H 559.203 3.81532 1.11888 0
M  V30 6126 N 560.2 0.0768682 1.57412 0
M  V30 6127 C 561.428 -0.59997 1.9801 0
M  V30 6128 C 561.843 -1.62842 0.955408 0
M  V30 6129 O 561.2 -1.8241 -0.057314 0
M  V30 6130 C 561.251 -1.26401 3.38681 0
M  V30 6131 O 560.972 -0.276723 4.37225 0
M  V30 6132 C 562.473 -2.0282 3.94182 0
M  V30 6133 H 559.693 -0.162239 0.651091 0
M  V30 6134 H 562.237 0.150771 2.03943 0
M  V30 6135 H 560.392 -1.96581 3.33819 0
M  V30 6136 H 560.806 -0.753744 5.19056 0
M  V30 6137 H 562.28 -2.44667 4.94815 0
M  V30 6138 H 562.757 -2.88678 3.31001 0
M  V30 6139 H 563.363 -1.37496 4.02461 0
M  V30 6140 O 561.717 -1.61375 -0.0636308 0
M  V30 6141 H 562.408 -1.81049 -0.688533 0
M  V30 END ATOM
M  V30 BEGIN BOND
M  V30 END BOND
M  V30 END CTAB
M  END
$$$$
