drugbank_target|Q146M9 Putative inward rectifier potassium channel (DB02451)
 OpenBabel12092120433D

  0  0  0     0  0            999 V3000
M  V30 BEGIN CTAB
M  V30 COUNTS 5098 5166 0 0 0
M  V30 BEGIN ATOM
M  V30 1 H -0.908 1.98254 -0.117106 0
M  V30 2 N 0 1.576 0 0
M  V30 3 C 0.933 2.03868 1.02534 0
M  V30 4 C 1.911 0.928543 1.3348 0
M  V30 5 O 3.095 1.19667 1.45644 0
M  V30 6 C 0.222 2.43627 2.35294 0
M  V30 7 C -0.732 3.65373 2.2001 0
M  V30 8 S 0.101 5.13292 1.52614 0
M  V30 9 C 1.257 5.56322 2.86805 0
M  V30 10 H 1.49 2.90518 0.631377 0
M  V30 11 H -0.977 1.52953 0.210867 0
M  V30 12 H 0.981 2.67203 3.11629 0
M  V30 13 H -0.358 1.57376 2.7183 0
M  V30 14 H -1.165 3.90944 3.18086 0
M  V30 15 H -1.563 3.418 1.51819 0
M  V30 16 H 0.729 5.58782 3.83104 0
M  V30 17 H 1.672 6.56266 2.65933 0
M  V30 18 H 2.08 4.83886 2.90714 0
M  V30 19 N 1.4781 -0.272755 1.55222 0
M  V30 20 C 2.4411 -1.32041 1.87344 0
M  V30 21 C 3.4411 -1.42342 0.74803 0
M  V30 22 O 4.6311 -1.41488 1.0162 0
M  V30 23 C 1.7631 -2.70173 2.07893 0
M  V30 24 H 2.9561 -1.04789 2.80997 0
M  V30 25 H 0.5091 -0.51083 1.47717 0
M  V30 26 H 1.2441 -3.02605 1.16622 0
M  V30 27 H 1.0291 -2.64082 2.89833 0
M  V30 28 H 2.5191 -3.45869 2.34017 0
M  V30 29 N 2.9562 -1.48159 -0.537278 0
M  V30 30 C 4.1842 -1.59454 -1.31841 0
M  V30 31 C 4.5992 -0.252065 -1.8711 0
M  V30 32 O 3.9562 0.757621 -1.66031 0
M  V30 33 C 4.0072 -2.63546 -2.47439 0
M  V30 34 O 3.7282 -3.92583 -1.94449 0
M  V30 35 C 5.2292 -2.85212 -3.39366 0
M  V30 36 H 2.4492 -0.53785 -0.401196 0
M  V30 37 H 4.9932 -1.93932 -0.648891 0
M  V30 38 H 3.1482 -2.31946 -3.1029 0
M  V30 39 H 3.5622 -4.49629 -2.70063 0
M  V30 40 H 5.0362 -3.61863 -4.16844 0
M  V30 41 H 5.5132 -1.93765 -3.94147 0
M  V30 42 H 6.1192 -3.18086 -2.82314 0
M  V30 43 N 4.4343 0.785586 -1.36625 0
M  V30 44 C 5.3813 1.89838 -1.31264 0
M  V30 45 C 6.3513 1.65115 -0.180633 0
M  V30 46 O 7.5363 1.87222 -0.36777 0
M  V30 47 C 4.6763 3.26706 -1.11163 0
M  V30 48 C 3.7893 3.63476 -2.33472 0
M  V30 49 C 2.9243 4.89481 -2.06353 0
M  V30 50 C 1.9633 5.18941 -3.24602 0
M  V30 51 N 1.1003 6.36131 -2.97123 0
M  V30 52 H 5.9403 1.93756 -2.26413 0
M  V30 53 H 3.4773 0.947454 -1.12524 0
M  V30 54 H 5.4353 4.05639 -0.975337 0
M  V30 55 H 4.0653 3.222 -0.196674 0
M  V30 56 H 3.1173 2.79636 -2.57891 0
M  V30 57 H 4.4293 3.81193 -3.21704 0
M  V30 58 H 3.5833 5.76288 -1.89675 0
M  V30 59 H 2.3223 4.73841 -1.15437 0
M  V30 60 H 1.3273 4.30615 -3.41834 0
M  V30 61 H 2.5523 5.36498 -4.16349 0
M  V30 62 H 0.4983 6.21875 -2.08823 0
M  V30 63 H 0.4153 6.54198 -3.78894 0
M  V30 64 H 1.6833 7.2591 -2.84033 0
M  V30 65 N 5.9124 1.20967 1.01018 0
M  V30 66 C 7.3234 1.02319 1.56165 0
M  V30 67 C 7.6744 -0.418546 1.91684 0
M  V30 68 O 6.7994 -1.30096 1.72928 0
M  V30 69 C 7.3944 1.85109 2.8376 0
M  V30 70 C 5.9534 1.70809 3.35412 0
M  V30 71 C 5.1004 1.82643 2.08655 0
M  V30 72 H 8.0514 1.35065 0.833255 0
M  V30 73 H 8.0724 1.35827 3.55431 0
M  V30 74 H 7.5844 2.90035 2.57878 0
M  V30 75 H 5.6854 0.685464 3.66241 0
M  V30 76 H 5.7984 2.52467 4.07182 0
M  V30 77 H 4.1624 1.25896 2.21409 0
M  V30 78 H 4.9454 2.89066 1.85191 0
M  V30 79 N 7.3905 -1.2043 1.01659 0
M  V30 80 C 8.6185 -1.93777 0.725132 0
M  V30 81 C 9.0335 -1.74772 -0.714166 0
M  V30 82 O 8.3905 -1.06169 -1.4844 0
M  V30 83 C 8.4415 -3.45876 1.05129 0
M  V30 84 O 8.1625 -3.6426 2.43406 0
M  V30 85 C 9.6635 -4.36368 0.780891 0
M  V30 86 H 6.8835 -0.615901 0.266284 0
M  V30 87 H 9.4275 -1.52922 1.35776 0
M  V30 88 H 7.5825 -3.8461 0.464065 0
M  V30 89 H 7.9965 -4.58246 2.55169 0
M  V30 90 H 9.4705 -5.41743 1.05918 0
M  V30 91 H 9.9475 -4.38275 -0.284937 0
M  V30 92 H 10.5535 -4.03296 1.35027 0
M  V30 93 N 8.8686 -0.792821 -1.36206 0
M  V30 94 C 10.1456 -0.290627 -1.93429 0
M  V30 95 C 10.5256 1.21773 -1.72437 0
M  V30 96 O 9.8736 2.0108 -1.08531 0
M  V30 97 C 10.0836 -0.686973 -3.42172 0
M  V30 98 C 11.4316 -0.668643 -4.19302 0
M  V30 99 O 12.4556 -0.627658 -3.50626 0
M  V30 100 O 11.3146 -0.714597 -5.41808 0
M  V30 101 H 8.4086 -0.0727927 -0.82379 0
M  V30 102 H 10.9546 -0.875593 -1.45367 0
M  V30 103 H 9.7266 -1.72711 -3.51122 0
M  V30 104 H 9.3496 -0.0760733 -3.97527 0
M  V30 105 N 10.3467 1.47872 -0.545128 0
M  V30 106 C 11.7627 1.5829 -0.204032 0
M  V30 107 C 11.9627 1.54529 1.29317 0
M  V30 108 O 11.0187 1.44232 2.07252 0
M  V30 109 C 12.3317 2.89304 -0.819987 0
M  V30 110 C 13.8797 3.02864 -0.790105 0
M  V30 111 C 14.3547 4.3656 -1.38491 0
M  V30 112 N 15.8457 4.43165 -1.34755 0
M  V30 113 C 16.5807 5.45153 -1.77753 0
M  V30 114 N 16.0767 6.54016 -2.2855 0
M  V30 115 N 17.8697 5.36125 -1.68897 0
M  V30 116 H 10.0207 1.4856 -1.51802 0
M  V30 117 H 12.2837 0.706305 -0.632327 0
M  V30 118 H 11.9897 2.97757 -1.87173 0
M  V30 119 H 11.8637 3.75957 -0.305915 0
M  V30 120 H 14.2507 2.94014 0.252913 0
M  V30 121 H 14.3317 2.17782 -1.34181 0
M  V30 122 H 13.9757 4.46164 -2.42693 0
M  V30 123 H 13.9057 5.20353 -0.808754 0
M  V30 124 H 16.3967 3.65083 -0.975855 0
M  V30 125 H 16.7097 7.27994 -2.59314 0
M  V30 126 H 15.0547 6.54938 -2.32553 0
M  V30 127 H 18.2457 4.49975 -1.28998 0
M  V30 128 H 18.4187 6.15472 -2.02726 0
M  V30 129 N 11.8248 0.280983 1.55075 0
M  V30 130 C 13.2358 -0.215629 1.85451 0
M  V30 131 C 13.5868 -1.54991 1.203 0
M  V30 132 O 12.7118 -2.10699 0.493435 0
M  V30 133 C 13.3068 -0.398026 3.36454 0
M  V30 134 C 11.8658 -0.838866 3.66933 0
M  V30 135 C 11.0128 0.064458 2.77225 0
M  V30 136 H 13.9638 0.502601 1.50531 0
M  V30 137 H 13.9848 -1.23569 3.59876 0
M  V30 138 H 13.4968 0.573241 3.83843 0
M  V30 139 H 11.5978 -1.8214 3.25048 0
M  V30 140 H 11.7108 -0.672123 4.74362 0
M  V30 141 H 10.0748 -0.452863 2.50642 0
M  V30 142 H 10.8578 1.03172 3.2743 0
M  V30 143 N 13.3029 -1.57598 0.00835791 0
M  V30 144 C 14.5279 -1.95617 -0.689103 0
M  V30 145 C 14.9529 -0.883753 -1.66046 0
M  V30 146 O 14.3109 0.157352 -1.80616 0
M  V30 147 C 14.3589 -3.32736 -1.38994 0
M  V30 148 O 13.4629 -3.27631 -2.50463 0
M  V30 149 H 12.8039 -0.638379 -0.182668 0
M  V30 150 H 15.3339 -2.045 0.064036 0
M  V30 151 H 15.3439 -3.68494 -1.75147 0
M  V30 152 H 14.0189 -4.1034 -0.677778 0
M  V30 153 H 12.5959 -3.03561 -2.16576 0
M  V30 154 N 14.781 0.264519 -1.55364 0
M  V30 155 C 15.744 1.31046 -1.88042 0
M  V30 156 C 16.744 1.41943 -0.755569 0
M  V30 157 O 17.934 1.40947 -1.02369 0
M  V30 158 C 15.066 2.69067 -2.09323 0
M  V30 159 H 16.259 1.03297 -2.81549 0
M  V30 160 H 13.812 0.502989 -1.47986 0
M  V30 161 H 14.547 3.01982 -1.18226 0
M  V30 162 H 14.332 2.62542 -2.91229 0
M  V30 163 H 15.822 3.44623 -2.35848 0
M  V30 164 N 16.2591 1.48442 0.529413 0
M  V30 165 C 17.5061 1.56488 1.28521 0
M  V30 166 C 17.8341 0.239042 1.93025 0
M  V30 167 O 17.0891 -0.770713 1.79885 0
M  V30 168 C 17.3881 2.6523 2.39558 0
M  V30 169 C 17.0541 4.07648 1.92702 0
M  V30 170 C 15.7161 4.46411 1.79641 0
M  V30 171 C 18.0681 4.96896 1.573 0
M  V30 172 C 15.3961 5.72226 1.29514 0
M  V30 173 C 17.7481 6.23202 1.08636 0
M  V30 174 C 16.4121 6.60821 0.941919 0
M  V30 175 H 15.6821 0.572631 0.470292 0
M  V30 176 H 18.3291 1.82161 0.59072 0
M  V30 177 H 16.6341 2.33419 3.14679 0
M  V30 178 H 18.3311 2.68671 2.97686 0
M  V30 179 H 14.9211 3.77036 2.03819 0
M  V30 180 H 19.1051 4.67626 1.66251 0
M  V30 181 H 14.3611 6.00097 1.17019 0
M  V30 182 H 18.5351 6.91753 0.803136 0
M  V30 183 H 16.1621 7.58198 0.5513 0
M  V30 184 N 17.7372 -0.778329 1.37039 0
M  V30 185 C 18.9852 -1.53361 1.31623 0
M  V30 186 C 19.3062 -1.94739 -0.100831 0
M  V30 187 O 18.5762 -1.65797 -1.04347 0
M  V30 188 H 17.1562 -0.568794 0.484234 0
M  V30 189 H 19.8182 -0.926742 1.71457 0
M  V30 190 H 18.9142 -2.43606 1.95096 0
M  V30 191 N 19.2153 -1.21501 -1.00376 0
M  V30 192 C 20.1633 -0.972442 -2.11297 0
M  V30 193 C 21.1573 0.080731 -1.69208 0
M  V30 194 O 22.3633 -0.0707666 -1.79861 0
M  V30 195 H 18.7383 -0.297218 -0.690772 0
M  V30 196 H 20.7093 -1.91394 -2.28934 0
M  V30 197 C 19.4583 -0.555065 -3.43241 0
M  V30 198 H 18.7813 -1.35709 -3.76062 0
M  V30 199 H 20.2213 -0.424664 -4.21868 0
M  V30 200 C 18.6803 0.734147 -3.28804 0
M  V30 201 O 19.2103 1.78937 -3.59645 0
M  V30 202 N 17.4163 0.701133 -2.82015 0
M  V30 203 H 16.9633 -0.157874 -2.57116 0
M  V30 204 H 16.9213 1.56403 -2.72737 0
M  V30 205 N 20.6934 1.19889 -1.02296 0
M  V30 206 C 21.9414 1.89046 -0.714558 0
M  V30 207 C 22.2624 1.79636 0.758681 0
M  V30 208 O 21.5324 1.20292 1.54618 0
M  V30 209 H 20.1124 0.699802 -0.261317 0
M  V30 210 H 22.7744 1.45574 -1.29592 0
M  V30 211 H 21.8704 2.95524 -1.0036 0
M  V30 212 N 22.1715 0.800033 1.35784 0
M  V30 213 C 23.0815 0.207204 2.33683 0
M  V30 214 C 24.0975 -0.64631 1.61551 0
M  V30 215 O 25.2735 -0.559604 1.93469 0
M  V30 216 C 22.3385 -0.639659 3.40748 0
M  V30 217 C 21.3995 0.233585 4.28664 0
M  V30 218 C 20.6325 -0.572954 5.30616 0
M  V30 219 O 20.8555 -1.80816 5.40982 0
M  V30 220 O 19.7895 0.0327285 6.01891 0
M  V30 221 H 23.6155 1.01692 2.86169 0
M  V30 222 H 21.2005 0.561691 1.38439 0
M  V30 223 H 23.0825 -1.12223 4.06182 0
M  V30 224 H 21.7575 -1.42708 2.90544 0
M  V30 225 H 20.6645 0.763147 3.66233 0
M  V30 226 H 21.9975 0.984784 4.82248 0
M  V30 227 N 23.6496 -1.47581 0.552962 0
M  V30 228 C 24.6126 -2.28439 -0.186605 0
M  V30 229 C 25.6126 -1.36706 -0.84665 0
M  V30 230 O 26.8026 -1.59378 -0.703164 0
M  V30 231 C 23.9346 -3.16264 -1.2724 0
M  V30 232 H 25.1276 -2.95294 0.523609 0
M  V30 233 H 22.6806 -1.532 0.309745 0
M  V30 234 H 23.4156 -2.54091 -2.01514 0
M  V30 235 H 23.2006 -3.83769 -0.803968 0
M  V30 236 H 24.6906 -3.77198 -1.79196 0
M  V30 237 N 25.1277 -0.289203 -1.54924 0
M  V30 238 C 26.5437 0.0645403 -1.59469 0
M  V30 239 C 26.7437 1.53419 -1.30632 0
M  V30 240 O 25.7997 2.2852 -1.074 0
M  V30 241 C 27.1127 -0.32278 -2.98963 0
M  V30 242 C 28.6607 -0.270564 -3.11828 0
M  V30 243 C 29.1357 -0.632532 -4.53611 0
M  V30 244 N 30.6267 -0.584617 -4.59496 0
M  V30 245 C 31.3617 -0.837314 -5.67254 0
M  V30 246 N 30.8577 -1.15536 -6.83098 0
M  V30 247 N 32.6507 -0.765166 -5.56868 0
M  V30 248 H 24.8017 -1.24714 -1.71931 0
M  V30 249 H 27.0647 -0.504809 -0.802416 0
M  V30 250 H 26.7707 -1.34541 -3.24948 0
M  V30 251 H 26.6447 0.32944 -3.75759 0
M  V30 252 H 29.0317 0.742805 -2.85598 0
M  V30 253 H 29.1127 -0.957242 -2.37214 0
M  V30 254 H 28.7567 -1.64365 -4.80569 0
M  V30 255 H 28.6867 0.07609 -5.26545 0
M  V30 256 H 31.1777 -0.349248 -3.76283 0
M  V30 257 H 31.4907 -1.33447 -7.61191 0
M  V30 258 H 29.8357 -1.19328 -6.84679 0
M  V30 259 H 33.0267 -0.516432 -4.65243 0
M  V30 260 H 33.1997 -0.965477 -6.40767 0
M  V30 261 N 26.6058 1.57591 -0.0167156 0
M  V30 262 C 27.5688 2.08393 0.954204 0
M  V30 263 C 28.5688 0.996531 1.26198 0
M  V30 264 O 29.7588 1.25858 1.20438 0
M  V30 265 C 26.8908 2.5394 2.27436 0
M  V30 266 H 28.0838 2.95455 0.514451 0
M  V30 267 H 25.6368 1.54582 0.231089 0
M  V30 268 H 26.3718 1.70171 2.76066 0
M  V30 269 H 26.1568 3.33371 2.06412 0
M  V30 270 H 27.6468 2.93512 2.97053 0
M  V30 271 N 28.0839 -0.256276 1.55502 0
M  V30 272 C 29.4949 -0.826068 1.67431 0
M  V30 273 C 29.8459 -1.86396 0.612446 0
M  V30 274 O 28.9709 -2.15031 -0.243025 0
M  V30 275 C 29.5659 -1.50512 3.03532 0
M  V30 276 C 28.1249 -2.02273 3.17431 0
M  V30 277 C 27.2719 -0.870548 2.63281 0
M  V30 278 H 30.2229 -0.0322728 1.58667 0
M  V30 279 H 30.2439 -2.37279 2.97454 0
M  V30 280 H 29.7559 -0.749484 3.80794 0
M  V30 281 H 27.8569 -2.80746 2.44974 0
M  V30 282 H 27.9699 -2.22655 4.24219 0
M  V30 283 H 26.3339 -1.26851 2.20864 0
M  V30 284 H 27.1169 -0.128149 3.43061 0
M  V30 285 N 29.562 -1.4872 -0.521534 0
M  V30 286 C 30.79 -1.60843 -1.30142 0
M  V30 287 C 31.205 -0.271897 -1.86832 0
M  V30 288 O 30.562 0.739969 -1.66825 0
M  V30 289 C 30.613 -2.66155 -2.4463 0
M  V30 290 O 30.334 -3.94623 -1.90275 0
M  V30 291 C 31.835 -2.88795 -3.36322 0
M  V30 292 H 29.055 -0.542075 -0.395468 0
M  V30 293 H 31.599 -1.94609 -0.628285 0
M  V30 294 H 29.754 -2.35224 -3.07812 0
M  V30 295 H 30.168 -4.52468 -2.65279 0
M  V30 296 H 31.642 -3.66264 -4.12983 0
M  V30 297 H 32.119 -1.97934 -3.9207 0
M  V30 298 H 32.725 -3.21063 -2.78924 0
M  V30 299 N 31.0401 0.771051 -1.3745 0
M  V30 300 C 32.4561 1.07171 -1.18265 0
M  V30 301 C 32.6561 2.01491 -0.019287 0
M  V30 302 O 31.7121 2.44244 0.640408 0
M  V30 303 C 33.0251 1.66854 -2.50161 0
M  V30 304 C 34.5731 1.79109 -2.56689 0
M  V30 305 C 35.0481 2.42205 -3.88717 0
M  V30 306 N 36.5391 2.49655 -3.90162 0
M  V30 307 C 37.2741 2.9933 -4.8907 0
M  V30 308 N 36.7701 3.49172 -5.98374 0
M  V30 309 N 38.5631 2.9821 -4.76474 0
M  V30 310 H 30.7141 0.144796 -2.11906 0
M  V30 311 H 32.9771 0.126863 -0.939473 0
M  V30 312 H 32.6831 1.05017 -3.35655 0
M  V30 313 H 32.5571 2.6614 -2.673 0
M  V30 314 H 34.9441 2.40077 -1.71601 0
M  V30 315 H 35.0251 0.785757 -2.43433 0
M  V30 316 H 34.6691 1.81875 -4.74219 0
M  V30 317 H 34.5991 3.43345 -3.99276 0
M  V30 318 H 37.0901 2.14383 -3.11205 0
M  V30 319 H 37.4031 3.8548 -6.69795 0
M  V30 320 H 35.7481 3.47275 -6.02018 0
M  V30 321 H 38.9391 2.58572 -3.90203 0
M  V30 322 H 39.1121 3.36613 -5.53711 0
M  V30 323 N 32.5182 1.22032 0.997298 0
M  V30 324 C 33.9342 0.979326 1.26021 0
M  V30 325 C 34.1342 -0.32972 1.98784 0
M  V30 326 O 33.1902 -1.05345 2.29475 0
M  V30 327 C 34.5032 2.17509 2.07631 0
M  V30 328 C 36.0512 2.21817 2.2083 0
M  V30 329 C 36.5262 3.40933 3.05825 0
M  V30 330 N 38.0172 3.41067 3.13412 0
M  V30 331 C 38.7522 4.29885 3.79455 0
M  V30 332 N 38.2482 5.28914 4.47462 0
M  V30 333 N 40.0412 4.17673 3.76173 0
M  V30 334 H 32.1922 2.06202 0.509352 0
M  V30 335 H 34.4552 0.90334 0.287541 0
M  V30 336 H 34.1612 3.12415 1.61524 0
M  V30 337 H 34.0352 2.17206 3.08385 0
M  V30 338 H 36.4222 1.27462 2.66153 0
M  V30 339 H 36.5032 2.2616 1.1952 0
M  V30 340 H 36.1472 4.35586 2.61203 0
M  V30 341 H 36.0772 3.33829 4.07266 0
M  V30 342 H 38.5682 2.69406 2.65007 0
M  V30 343 H 38.8812 5.92973 4.95583 0
M  V30 344 H 37.2262 5.32831 4.46224 0
M  V30 345 H 40.4172 3.39564 3.22202 0
M  V30 346 H 40.5902 4.87098 4.27363 0
M  V30 347 N 33.9963 -1.19345 1.0293 0
M  V30 348 C 35.4073 -1.70725 0.755633 0
M  V30 349 C 35.7583 -1.82326 -0.724676 0
M  V30 350 O 34.8833 -1.49471 -1.56484 0
M  V30 351 C 35.4783 -3.10084 1.36503 0
M  V30 352 C 34.0373 -3.58723 1.13994 0
M  V30 353 C 33.1843 -2.35577 1.46283 0
M  V30 354 H 36.1353 -1.0418 1.19718 0
M  V30 355 H 36.1563 -3.72787 0.762217 0
M  V30 356 H 35.6683 -3.01609 2.44241 0
M  V30 357 H 33.7693 -3.72512 0.0807901 0
M  V30 358 H 33.8823 -4.42816 1.82894 0
M  V30 359 H 32.2463 -2.38935 0.88217 0
M  V30 360 H 33.0293 -2.29731 2.55105 0
M  V30 361 N 35.4744 -0.807222 -1.35358 0
M  V30 362 C 36.8904 -0.491038 -1.51858 0
M  V30 363 C 37.0904 0.987648 -1.75635 0
M  V30 364 O 36.1464 1.77265 -1.79815 0
M  V30 365 C 37.4594 -1.33695 -2.69344 0
M  V30 366 C 39.0074 -1.33246 -2.83222 0
M  V30 367 C 39.4824 -2.1625 -4.03733 0
M  V30 368 N 40.9734 -2.1379 -4.10911 0
M  V30 369 C 41.7084 -2.74772 -5.03277 0
M  V30 370 N 41.2044 -3.44684 -6.0097 0
M  V30 371 N 42.9974 -2.6441 -4.96028 0
M  V30 372 H 35.1484 -1.76485 -1.18181 0
M  V30 373 H 37.4114 -0.751199 -0.578276 0
M  V30 374 H 37.1174 -2.38634 -2.58354 0
M  V30 375 H 36.9914 -0.990618 -3.6396 0
M  V30 376 H 39.3784 -0.290911 -2.93663 0
M  V30 377 H 39.4594 -1.71866 -1.89461 0
M  V30 378 H 39.1034 -3.20445 -3.94052 0
M  V30 379 H 39.0334 -1.74989 -4.96675 0
M  V30 380 H 41.5244 -1.62923 -3.40976 0
M  V30 381 H 41.8374 -3.88501 -6.68047 0
M  V30 382 H 40.1824 -3.48788 -6.01142 0
M  V30 383 H 43.3734 -2.0938 -4.18662 0
M  V30 384 H 43.5464 -3.12225 -5.6782 0
M  V30 385 N 36.9525 1.47285 -0.560781 0
M  V30 386 C 38.2005 2.02064 -0.0379868 0
M  V30 387 C 38.5215 1.43711 1.31803 0
M  V30 388 O 37.7915 0.61362 1.86042 0
M  V30 389 H 36.3715 0.746918 -0.0110531 0
M  V30 390 H 39.0335 1.80648 -0.731598 0
M  V30 391 H 38.1295 3.12064 0.0474463 0
M  V30 392 N 38.4306 0.297415 1.54768 0
M  V30 393 C 39.6556 -0.318435 2.04941 0
M  V30 394 C 40.0806 -1.4701 1.17345 0
M  V30 395 O 39.4386 -1.80436 0.176758 0
M  V30 396 C 39.4866 -0.755749 3.52592 0
M  V30 397 O 38.5906 -1.86088 3.68028 0
M  V30 398 H 37.9316 -0.062421 0.661059 0
M  V30 399 H 40.4616 0.438215 1.99852 0
M  V30 400 H 40.4716 -1.04552 3.94376 0
M  V30 401 H 39.1466 0.0867233 4.1581 0
M  V30 402 H 37.7236 -1.57193 3.38149 0
M  V30 403 N 39.9087 -1.5758 0.0250728 0
M  V30 404 C 41.3247 -1.56124 -0.331282 0
M  V30 405 C 41.5247 -1.03029 -1.73169 0
M  V30 406 O 40.5807 -0.675215 -2.43305 0
M  V30 407 C 41.8937 -3.00139 -0.183584 0
M  V30 408 C 43.4417 -3.11946 -0.256654 0
M  V30 409 C 43.9167 -4.57793 -0.137792 0
M  V30 410 N 45.4077 -4.6279 -0.194904 0
M  V30 411 C 46.1427 -5.7326 -0.126655 0
M  V30 412 N 45.6387 -6.928 -0.00755288 0
M  V30 413 N 47.4317 -5.61811 -0.180348 0
M  V30 414 H 39.5827 -1.90424 0.94087 0
M  V30 415 H 41.8457 -0.875761 0.362968 0
M  V30 416 H 41.5517 -3.4292 0.780927 0
M  V30 417 H 41.4257 -3.64899 -0.955448 0
M  V30 418 H 43.8127 -2.69079 -1.21162 0
M  V30 419 H 43.8937 -2.49915 0.545517 0
M  V30 420 H 43.5377 -5.01339 0.813739 0
M  V30 421 H 43.4677 -5.17798 -0.958775 0
M  V30 422 H 45.9587 -3.76807 -0.287267 0
M  V30 423 H 46.2717 -7.72791 0.0379428 0
M  V30 424 H 44.6167 -6.94995 0.0271731 0
M  V30 425 H 47.8077 -4.6731 -0.271767 0
M  V30 426 H 47.9807 -6.47882 -0.123697 0
M  V30 427 N 41.3868 0.248026 -1.55636 0
M  V30 428 C 42.2968 1.32859 -1.93354 0
M  V30 429 C 43.3128 1.52719 -0.833838 0
M  V30 430 O 44.4888 1.66363 -1.13513 0
M  V30 431 C 41.5538 2.66337 -2.21958 0
M  V30 432 C 40.6148 2.55008 -3.45354 0
M  V30 433 C 39.8478 3.82121 -3.72584 0
M  V30 434 O 40.0708 4.83951 -3.01907 0
M  V30 435 O 39.0048 3.80822 -4.6611 0
M  V30 436 H 42.8308 1.03862 -2.85388 0
M  V30 437 H 40.4158 0.448686 -1.42503 0
M  V30 438 H 42.2978 3.45216 -2.4167 0
M  V30 439 H 40.9728 2.95068 -1.33103 0
M  V30 440 H 39.8798 1.7442 -3.30951 0
M  V30 441 H 41.2128 2.31222 -4.34508 0
M  V30 442 N 42.8649 1.48995 0.513639 0
M  V30 443 C 43.7949 1.67636 1.62544 0
M  V30 444 C 44.7759 0.525087 1.61793 0
M  V30 445 O 45.9609 0.759502 1.78732 0
M  V30 446 C 43.0909 1.73114 3.01079 0
M  V30 447 C 42.0449 2.87905 3.16693 0
M  V30 448 C 41.3709 2.78486 4.56453 0
M  V30 449 C 42.6709 4.29005 2.97913 0
M  V30 450 H 44.3649 2.60716 1.47198 0
M  V30 451 H 41.9109 1.25465 0.706714 0
M  V30 452 H 43.8639 1.84742 3.78746 0
M  V30 453 H 42.5879 0.766241 3.17484 0
M  V30 454 H 41.2469 2.75859 2.41448 0
M  V30 455 H 40.8949 1.7993 4.69717 0
M  V30 456 H 40.5949 3.55523 4.67843 0
M  V30 457 H 42.1189 2.92104 5.36197 0
M  V30 458 H 43.5329 4.41798 3.65359 0
M  V30 459 H 41.9299 5.07166 3.20785 0
M  V30 460 H 42.9999 4.44329 1.94165 0
M  V30 461 N 44.343 -0.763751 1.37857 0
M  V30 462 C 45.759 -1.06542 1.18832 0
M  V30 463 C 45.959 -2.01478 0.0299722 0
M  V30 464 O 45.015 -2.4458 -0.627447 0
M  V30 465 C 46.328 -1.65525 2.51042 0
M  V30 466 C 47.876 -1.77745 2.57635 0
M  V30 467 C 48.351 -2.4014 3.89996 0
M  V30 468 N 49.842 -2.47582 3.91481 0
M  V30 469 C 50.577 -2.96732 4.9065 0
M  V30 470 N 50.073 -3.45993 6.00217 0
M  V30 471 N 51.866 -2.95679 4.78048 0
M  V30 472 H 44.017 -0.133556 2.1198 0
M  V30 473 H 46.28 -0.121879 0.940133 0
M  V30 474 H 45.986 -1.03236 3.36207 0
M  V30 475 H 45.86 -2.64719 2.68707 0
M  V30 476 H 48.247 -2.39164 1.72872 0
M  V30 477 H 48.328 -0.772836 2.43846 0
M  V30 478 H 47.972 -1.79358 4.75177 0
M  V30 479 H 47.902 -3.41223 4.01092 0
M  V30 480 H 50.393 -2.1273 3.12337 0
M  V30 481 H 50.706 -3.81922 6.7183 0
M  V30 482 H 49.051 -3.44077 6.03851 0
M  V30 483 H 52.242 -2.56499 3.91568 0
M  V30 484 H 52.415 -3.33672 5.55488 0
M  V30 485 N 45.8211 -1.22559 -0.990812 0
M  V30 486 C 46.7511 -1.0218 -2.09956 0
M  V30 487 C 47.7321 0.0579394 -1.70001 0
M  V30 488 O 48.9171 -0.104684 -1.93918 0
M  V30 489 C 46.0471 -0.601023 -3.4206 0
M  V30 490 C 45.0011 -1.62694 -3.95872 0
M  V30 491 C 44.3271 -1.06193 -5.24049 0
M  V30 492 C 45.6271 -3.01743 -4.2632 0
M  V30 493 H 47.3211 -1.94916 -2.27262 0
M  V30 494 H 44.8671 -0.938566 -1.09211 0
M  V30 495 H 46.8201 -0.445561 -4.19038 0
M  V30 496 H 45.5441 0.362005 -3.24588 0
M  V30 497 H 44.2031 -1.77021 -3.21028 0
M  V30 498 H 43.8511 -0.0901903 -5.02919 0
M  V30 499 H 43.5511 -1.74732 -5.61019 0
M  V30 500 H 45.0751 -0.918092 -6.03658 0
M  V30 501 H 46.4891 -2.90777 -4.94087 0
M  V30 502 H 44.8861 -3.67425 -4.74467 0
M  V30 503 H 45.9561 -3.51518 -3.34011 0
M  V30 504 N 47.2992 1.18797 -1.03562 0
M  V30 505 C 48.5762 1.84469 -0.650434 0
M  V30 506 C 48.9562 1.92319 0.870433 0
M  V30 507 O 48.3042 1.44528 1.76986 0
M  V30 508 C 48.5142 3.2306 -1.32036 0
M  V30 509 C 49.8622 3.9915 -1.44792 0
M  V30 510 O 50.8862 3.32481 -1.27806 0
M  V30 511 O 49.7452 5.18587 -1.72423 0
M  V30 512 H 46.8392 0.795251 -0.226946 0
M  V30 513 H 49.3852 1.26231 -1.13419 0
M  V30 514 H 48.1572 3.1222 -2.3587 0
M  V30 515 H 47.7802 3.88949 -0.8249 0
M  V30 516 N 48.7773 0.814389 1.34928 0
M  V30 517 C 50.0543 0.321363 1.92942 0
M  V30 518 C 50.4343 -1.19014 1.74353 0
M  V30 519 O 49.7823 -1.99328 1.11716 0
M  V30 520 C 49.9923 0.741323 3.41036 0
M  V30 521 C 51.3403 0.735266 4.18185 0
M  V30 522 O 52.3643 0.68336 3.49584 0
M  V30 523 O 51.2233 0.800703 5.40602 0
M  V30 524 H 48.3173 0.0858893 0.822528 0
M  V30 525 H 50.8633 0.898609 1.43955 0
M  V30 526 H 49.6353 1.78276 3.4833 0
M  V30 527 H 49.2583 0.139307 3.97356 0
M  V30 528 N 50.2554 -1.46986 0.568584 0
M  V30 529 C 51.6714 -1.57946 0.229189 0
M  V30 530 C 51.8714 -1.56567 -1.26843 0
M  V30 531 O 50.9274 -1.47511 -2.04931 0
M  V30 532 C 52.2404 -2.87963 0.865909 0
M  V30 533 C 53.7884 -3.01568 0.838188 0
M  V30 534 C 54.2634 -4.34301 1.45419 0
M  V30 535 N 55.7544 -4.40965 1.41788 0
M  V30 536 C 56.4894 -5.42256 1.86403 0
M  V30 537 N 55.9854 -6.50297 2.38926 0
M  V30 538 N 57.7784 -5.3337 1.77405 0
M  V30 539 H 49.9294 -1.46126 1.54146 0
M  V30 540 H 52.1924 -0.696156 0.643484 0
M  V30 541 H 51.8984 -2.94742 1.91886 0
M  V30 542 H 51.7724 -3.75423 0.365687 0
M  V30 543 H 54.1594 -2.94379 -0.206106 0
M  V30 544 H 54.2404 -2.1562 1.37629 0
M  V30 545 H 53.8844 -4.42247 2.49761 0
M  V30 546 H 53.8144 -5.19 0.891435 0
M  V30 547 H 56.3054 -3.63484 1.03381 0
M  V30 548 H 56.6184 -7.23777 2.70863 0
M  V30 549 H 54.9634 -6.51155 2.42944 0
M  V30 550 H 58.1544 -4.47865 1.3614 0
M  V30 551 H 58.3274 -6.12169 2.12492 0
M  V30 552 N 51.7335 -0.305618 -1.54608 0
M  V30 553 C 52.9795 0.302746 -2.00528 0
M  V30 554 C 53.3125 1.53184 -1.19367 0
M  V30 555 O 52.5875 1.92598 -0.271321 0
M  V30 556 C 52.8705 0.654756 -3.54097 0
M  V30 557 C 52.7235 -0.583793 -4.45995 0
M  V30 558 C 54.0425 1.47947 -4.14487 0
M  V30 559 H 51.1615 0.108564 -0.72896 0
M  V30 560 H 53.8035 -0.418634 -1.85331 0
M  V30 561 H 51.9535 1.26935 -3.67178 0
M  V30 562 H 53.6255 -1.22224 -4.44814 0
M  V30 563 H 51.8685 -1.21615 -4.16404 0
M  V30 564 H 52.5395 -0.293287 -5.5122 0
M  V30 565 H 55.0155 0.96013 -4.04871 0
M  V30 566 H 53.8915 1.69454 -5.22088 0
M  V30 567 H 54.1525 2.47011 -3.66658 0
M  V30 568 N 53.2116 1.57565 -0.0334293 0
M  V30 569 C 54.4606 1.91155 0.643639 0
M  V30 570 C 54.7736 0.91192 1.73042 0
M  V30 571 O 55.9796 1.13923 2.46442 0
M  V30 572 C 54.4356 3.39443 1.1961 0
M  V30 573 C 54.0436 4.47774 0.142381 0
M  V30 574 C 55.7876 3.82094 1.84944 0
M  V30 575 C 53.6946 5.87162 0.706727 0
M  V30 576 H 52.6246 0.713368 0.244176 0
M  V30 577 H 55.2756 1.8323 -0.0994323 0
M  V30 578 H 53.6576 3.42313 1.99092 0
M  V30 579 H 54.8316 4.56469 -0.630296 0
M  V30 580 H 53.1466 4.14352 -0.412446 0
M  V30 581 H 55.7436 4.83591 2.2813 0
M  V30 582 H 56.0866 3.17386 2.69392 0
M  V30 583 H 56.6196 3.81665 1.12145 0
M  V30 584 H 53.3586 6.55424 -0.0997178 0
M  V30 585 H 52.8786 5.82064 1.44779 0
M  V30 586 H 54.5576 6.35866 1.19514 0
M  V30 587 N 54.6897 -0.239769 1.55765 0
M  V30 588 C 55.9387 -0.964754 1.77131 0
M  V30 589 C 56.2517 -1.86213 0.59868 0
M  V30 590 O 57.4577 -2.6244 0.695522 0
M  V30 591 C 55.9137 -1.76552 3.1362 0
M  V30 592 C 55.5217 -0.915185 4.38553 0
M  V30 593 C 57.2657 -2.48281 3.44321 0
M  V30 594 C 55.1727 -1.71225 5.66071 0
M  V30 595 H 54.1027 -0.363953 0.660344 0
M  V30 596 H 56.7537 -0.219181 1.82186 0
M  V30 597 H 55.1357 -2.55331 3.02691 0
M  V30 598 H 56.3097 -0.169217 4.60489 0
M  V30 599 H 54.6247 -0.310889 4.15238 0
M  V30 600 H 57.2217 -3.08382 4.36812 0
M  V30 601 H 57.5647 -3.20256 2.65973 0
M  V30 602 H 58.0977 -1.76507 3.56497 0
M  V30 603 H 54.8367 -1.03612 6.4726 0
M  V30 604 H 54.3567 -2.43331 5.48224 0
M  V30 605 H 56.0357 -2.27758 6.05587 0
M  V30 606 N 56.1678 -1.49265 -0.50573 0
M  V30 607 C 57.1308 -1.65075 -1.59006 0
M  V30 608 C 58.1308 -0.522768 -1.52065 0
M  V30 609 O 59.3208 -0.789117 -1.55302 0
M  V30 610 C 56.4528 -1.64369 -2.98656 0
M  V30 611 H 57.6458 -2.61784 -1.46319 0
M  V30 612 H 55.1988 -1.38226 -0.729616 0
M  V30 613 H 55.9338 -0.692272 -3.16825 0
M  V30 614 H 55.7188 -2.46282 -3.05103 0
M  V30 615 H 57.2088 -1.78674 -3.77446 0
M  V30 616 N 57.6459 0.756429 -1.3826 0
M  V30 617 C 58.5959 1.86069 -1.31766 0
M  V30 618 C 59.5799 1.59621 -0.202483 0
M  V30 619 O 60.7719 1.7149 -0.438211 0
M  V30 620 C 57.9009 3.23742 -1.1422 0
M  V30 621 C 56.9869 3.56091 -2.30348 0
M  V30 622 N 57.3779 3.59517 -3.55783 0
M  V30 623 C 55.6759 3.86341 -2.22838 0
M  V30 624 C 56.3769 3.89052 -4.32451 0
M  V30 625 N 55.3529 4.05736 -3.61772 0
M  V30 626 H 59.1549 1.86992 -2.26741 0
M  V30 627 H 56.6689 0.953643 -1.31451 0
M  V30 628 H 58.6659 4.02761 -1.07652 0
M  V30 629 H 57.3259 3.24073 -0.201763 0
M  V30 630 H 58.3369 3.41347 -3.89491 0
M  V30 631 H 55.0139 3.94404 -1.36937 0
M  V30 632 H 56.4039 3.98349 -5.4108 0
M  V30 633 N 59.124 1.23083 0.984299 0
M  V30 634 C 60.372 1.05848 1.72165 0
M  V30 635 C 60.693 -0.406049 1.90726 0
M  V30 636 O 59.963 -1.29139 1.47309 0
M  V30 637 H 58.543 0.388685 0.637913 0
M  V30 638 H 61.205 1.54736 1.18503 0
M  V30 639 H 60.301 1.54327 2.71274 0
M  V30 640 N 60.6021 -1.18246 1.0419 0
M  V30 641 C 61.8481 -1.88536 0.747122 0
M  V30 642 C 62.1811 -1.80223 -0.723409 0
M  V30 643 O 61.4561 -1.20337 -1.52804 0
M  V30 644 C 61.7391 -3.38968 1.21544 0
M  V30 645 C 61.5921 -3.56084 2.74816 0
M  V30 646 C 62.9111 -4.32648 0.806482 0
M  V30 647 H 60.0301 -0.684619 0.272883 0
M  V30 648 H 62.6721 -1.39113 1.29413 0
M  V30 649 H 60.8221 -3.8119 0.750081 0
M  V30 650 H 62.4941 -3.22946 3.29399 0
M  V30 651 H 60.7371 -2.98699 3.14582 0
M  V30 652 H 61.4081 -4.61639 3.02644 0
M  V30 653 H 63.8841 -3.98211 1.20695 0
M  V30 654 H 62.7601 -5.36462 1.1619 0
M  V30 655 H 63.0211 -4.41146 -0.29029 0
M  V30 656 N 62.0802 -0.821533 -1.34494 0
M  V30 657 C 63.4912 -0.467956 -1.8074 0
M  V30 658 C 63.8422 1.01151 -1.68116 0
M  V30 659 O 62.9672 1.78707 -1.22036 0
M  V30 660 C 63.5622 -0.842627 -3.28154 0
M  V30 661 C 62.1212 -0.541439 -3.72485 0
M  V30 662 C 61.2682 -1.06028 -2.56229 0
M  V30 663 H 64.2192 -1.01183 -1.22261 0
M  V30 664 H 64.2402 -0.145876 -3.8022 0
M  V30 665 H 63.7522 -1.91945 -3.37311 0
M  V30 666 H 61.8532 0.526034 -3.68868 0
M  V30 667 H 61.9662 -1.08453 -4.66663 0
M  V30 668 H 60.3302 -0.481892 -2.501 0
M  V30 669 H 61.1132 -2.14352 -2.68157 0
M  V30 670 N 63.5583 1.46682 -0.576371 0
M  V30 671 C 64.7863 2.06798 -0.0649635 0
M  V30 672 C 65.2013 1.42612 1.23723 0
M  V30 673 O 64.5583 0.529203 1.74659 0
M  V30 674 C 64.6093 3.6132 0.114202 0
M  V30 675 O 64.3303 4.23104 -1.13644 0
M  V30 676 C 65.8313 4.38349 0.66069 0
M  V30 677 H 63.0513 0.668778 -0.0545616 0
M  V30 678 H 65.5953 1.88404 -0.795237 0
M  V30 679 H 63.7503 3.79162 0.794673 0
M  V30 680 H 64.1643 5.15894 -0.946253 0
M  V30 681 H 65.6383 5.47081 0.73526 0
M  V30 682 H 66.1153 4.05953 1.67627 0
M  V30 683 H 66.7213 4.25297 0.0152951 0
M  V30 684 N 65.0364 0.313813 1.54444 0
M  V30 685 C 66.4474 -0.176243 1.85866 0
M  V30 686 C 66.7984 -1.52405 1.23561 0
M  V30 687 O 65.9234 -2.09605 0.538016 0
M  V30 688 C 66.5184 -0.32657 3.37222 0
M  V30 689 C 65.0774 -0.760846 3.6863 0
M  V30 690 C 64.2244 0.123247 2.77026 0
M  V30 691 H 67.1754 0.534418 1.49431 0
M  V30 692 H 67.1964 -1.15908 3.62416 0
M  V30 693 H 66.7084 0.654531 3.82541 0
M  V30 694 H 64.8094 -1.75204 3.28838 0
M  V30 695 H 64.9224 -0.571353 4.75681 0
M  V30 696 H 63.2864 -0.399597 2.51546 0
M  V30 697 H 64.0694 1.10094 3.25168 0
M  V30 698 N 66.5145 -1.57545 0.0417849 0
M  V30 699 C 67.4445 -2.14009 -0.933929 0
M  V30 700 C 68.4255 -1.05938 -1.33083 0
M  V30 701 O 69.6105 -1.33833 -1.40721 0
M  V30 702 C 66.7405 -2.67747 -2.21199 0
M  V30 703 C 65.6945 -3.80718 -1.95544 0
M  V30 704 C 65.0205 -4.20935 -3.29724 0
M  V30 705 C 66.3205 -5.06258 -1.28452 0
M  V30 706 H 68.0145 -2.95788 -0.463645 0
M  V30 707 H 65.5605 -1.42285 -0.221573 0
M  V30 708 H 67.5135 -3.05886 -2.89848 0
M  V30 709 H 66.2375 -1.83147 -2.70416 0
M  V30 710 H 64.8965 -3.43037 -1.2931 0
M  V30 711 H 64.5445 -3.33298 -3.76724 0
M  V30 712 H 64.2445 -4.9707 -3.13361 0
M  V30 713 H 65.7685 -4.61666 -3.9962 0
M  V30 714 H 67.1825 -5.41903 -1.8712 0
M  V30 715 H 65.5795 -5.87475 -1.22445 0
M  V30 716 H 66.6495 -4.84207 -0.259219 0
M  V30 717 N 67.9926 0.231505 -1.5589 0
M  V30 718 C 69.2386 0.954429 -1.79617 0
M  V30 719 C 69.5936 1.82367 -0.613199 0
M  V30 720 O 68.8866 1.87524 0.393094 0
M  V30 721 C 69.0806 1.83577 -3.0665 0
M  V30 722 C 68.9096 1.05334 -4.3719 0
M  V30 723 C 67.6796 0.75225 -4.99669 0
M  V30 724 C 69.8776 0.423444 -5.12554 0
M  V30 725 N 67.8596 -0.052627 -6.13877 0
M  V30 726 C 69.2306 -0.245287 -6.19515 0
M  V30 727 C 71.2856 0.335466 -4.96769 0
M  V30 728 C 69.9886 -0.993566 -7.12405 0
M  V30 729 C 72.0146 -0.399321 -5.9005 0
M  V30 730 C 71.3766 -1.05663 -6.9643 0
M  V30 731 H 67.4756 0.329846 -0.709031 0
M  V30 732 H 70.0596 0.226172 -1.93382 0
M  V30 733 H 68.2306 2.53592 -2.94186 0
M  V30 734 H 69.9626 2.49541 -3.18608 0
M  V30 735 H 66.7176 1.06783 -4.61405 0
M  V30 736 H 67.1416 -0.443609 -6.75545 0
M  V30 737 H 71.7836 0.829311 -4.14587 0
M  V30 738 H 69.5016 -1.49896 -7.94076 0
M  V30 739 H 73.0876 -0.468265 -5.79913 0
M  V30 740 H 71.9676 -1.61612 -7.67366 0
M  V30 741 N 69.4707 1.49531 0.497807 0
M  V30 742 C 70.4027 1.62559 1.61578 0
M  V30 743 C 71.4157 0.508134 1.54667 0
M  V30 744 O 72.6047 0.780309 1.60541 0
M  V30 745 C 69.7047 1.56925 3.00379 0
M  V30 746 C 68.8777 2.84257 3.3244 0
M  V30 747 C 67.9367 2.71632 4.50669 0
M  V30 748 O 66.9627 3.4557 4.52294 0
M  V30 749 N 68.1647 1.83391 5.5077 0
M  V30 750 H 70.9297 2.58981 1.50828 0
M  V30 751 H 68.4907 1.4666 0.685743 0
M  V30 752 H 70.4827 1.46129 3.77397 0
M  V30 753 H 69.0527 0.683483 3.05037 0
M  V30 754 H 68.2727 3.09381 2.44289 0
M  V30 755 H 69.5607 3.68666 3.5066 0
M  V30 756 H 68.9587 1.22583 5.52259 0
M  V30 757 H 67.5157 1.78515 6.26878 0
M  V30 758 N 70.9488 -0.749086 1.3866 0
M  V30 759 C 72.2258 -1.4992 1.25632 0
M  V30 760 C 72.6058 -2.10633 -0.140317 0
M  V30 761 O 71.9538 -1.97437 -1.15025 0
M  V30 762 C 72.1638 -2.56195 2.36992 0
M  V30 763 C 73.5118 -3.22972 2.75634 0
M  V30 764 O 74.5358 -2.66502 2.36337 0
M  V30 765 O 73.3948 -4.25122 3.43415 0
M  V30 766 H 70.4888 -0.665067 0.491544 0
M  V30 767 H 73.0348 -0.784113 1.50498 0
M  V30 768 H 71.8068 -2.09612 3.30422 0
M  V30 769 H 71.4298 -3.35279 2.13714 0
M  V30 770 N 72.4269 -1.23603 -0.977757 0
M  V30 771 C 73.3569 -1.04401 -2.0886 0
M  V30 772 C 74.3379 0.0399052 -1.70053 0
M  V30 773 O 75.5229 -0.125246 -1.93796 0
M  V30 774 C 72.6529 -0.637269 -3.41403 0
M  V30 775 C 71.6069 -1.66883 -3.94124 0
M  V30 776 C 70.9329 -1.11745 -5.22893 0
M  V30 777 C 72.2329 -3.06247 -4.23096 0
M  V30 778 H 73.9269 -1.97316 -2.25182 0
M  V30 779 H 71.4729 -0.950096 -1.08209 0
M  V30 780 H 73.4259 -0.48998 -4.18542 0
M  V30 781 H 72.1499 0.327557 -3.24953 0
M  V30 782 H 70.8089 -1.80416 -3.19133 0
M  V30 783 H 70.4569 -0.143527 -5.02795 0
M  V30 784 H 70.1569 -1.80672 -5.59134 0
M  V30 785 H 71.6809 -0.982067 -6.02651 0
M  V30 786 H 73.0949 -2.96001 -4.90975 0
M  V30 787 H 71.4919 -3.72436 -4.70544 0
M  V30 788 H 72.5619 -3.55041 -3.30263 0
M  V30 789 N 73.905 1.17692 -1.04816 0
M  V30 790 C 75.135 1.91508 -0.775128 0
M  V30 791 C 75.543 1.76844 0.67253 0
M  V30 792 O 74.886 1.10057 1.47082 0
M  V30 793 C 74.948 3.43167 -1.0713 0
M  V30 794 C 74.612 3.81612 -2.51438 0
M  V30 795 C 75.609 3.84772 -3.49638 0
M  V30 796 C 73.294 4.12687 -2.86348 0
M  V30 797 C 75.288 4.18469 -4.80794 0
M  V30 798 C 72.975 4.46053 -4.17708 0
M  V30 799 C 73.973 4.48921 -5.14741 0
M  V30 800 O 73.661 4.81504 -6.43746 0
M  V30 801 H 73.393 0.614575 -0.281555 0
M  V30 802 H 75.947 1.50206 -1.40098 0
M  V30 803 H 74.177 3.84745 -0.388342 0
M  V30 804 H 75.866 3.98239 -0.784883 0
M  V30 805 H 76.632 3.60893 -3.24008 0
M  V30 806 H 72.511 4.09627 -2.11486 0
M  V30 807 H 76.055 4.20623 -5.56527 0
M  V30 808 H 71.952 4.69393 -4.43103 0
M  V30 809 H 72.72 4.99377 -6.4851 0
M  V30 810 N 75.3831 0.828654 1.34056 0
M  V30 811 C 76.3331 0.226828 2.26869 0
M  V30 812 C 77.3171 -0.612243 1.48796 0
M  V30 813 O 78.5091 -0.465884 1.70759 0
M  V30 814 C 75.6381 -0.605654 3.37915 0
M  V30 815 C 74.7241 0.244361 4.23395 0
M  V30 816 N 75.1151 1.31815 4.88322 0
M  V30 817 C 73.4131 0.0296616 4.4599 0
M  V30 818 C 74.1141 1.83895 5.51867 0
M  V30 819 N 73.0901 1.14196 5.3147 0
M  V30 820 H 76.8921 1.04811 2.74576 0
M  V30 821 H 74.4061 0.67205 1.47842 0
M  V30 822 H 76.4031 -1.05302 4.03382 0
M  V30 823 H 75.0631 -1.42504 2.91758 0
M  V30 824 H 76.0741 1.70099 4.8917 0
M  V30 825 H 72.7511 -0.757097 4.10578 0
M  V30 826 H 74.1411 2.7376 6.136 0
M  V30 827 N 76.8612 -1.46375 0.584142 0
M  V30 828 C 78.2772 -1.57694 0.245929 0
M  V30 829 C 78.4772 -1.57903 -1.25175 0
M  V30 830 O 77.5332 -1.49676 -2.03355 0
M  V30 831 C 78.8462 -2.87028 0.896402 0
M  V30 832 C 80.3942 -3.00662 0.870127 0
M  V30 833 C 80.8692 -4.32734 1.50017 0
M  V30 834 N 82.3602 -4.39436 1.46458 0
M  V30 835 C 83.0952 -5.40248 1.92144 0
M  V30 836 N 82.5912 -6.47726 2.4581 0
M  V30 837 N 84.3842 -5.31459 1.83052 0
M  V30 838 H 76.5352 -1.44483 1.55687 0
M  V30 839 H 78.7982 -0.689291 0.650831 0
M  V30 840 H 78.5042 -2.9269 1.95002 0
M  V30 841 H 78.3782 -3.75014 0.405486 0
M  V30 842 H 80.7652 -2.94581 -0.174871 0
M  V30 843 H 80.8462 -2.14148 1.39908 0
M  V30 844 H 80.4902 -4.39573 2.54437 0
M  V30 845 H 80.4202 -5.18025 0.946432 0
M  V30 846 H 82.9112 -3.62367 1.07231 0
M  V30 847 H 83.2242 -7.20863 2.78525 0
M  V30 848 H 81.5692 -6.48542 2.49836 0
M  V30 849 H 84.7602 -4.46396 1.40883 0
M  V30 850 H 84.9332 -6.09881 2.18973 0
M  V30 851 N 78.3393 -0.321999 -1.54275 0
M  V30 852 C 79.3023 0.531975 -2.22941 0
M  V30 853 C 80.3023 1.04478 -1.22234 0
M  V30 854 O 81.4923 0.937452 -1.46825 0
M  V30 855 C 78.6243 1.73874 -2.93224 0
M  V30 856 H 79.8173 -0.0682612 -2.99822 0
M  V30 857 H 77.3703 -0.0730644 -1.56129 0
M  V30 858 H 78.1053 2.37825 -2.20476 0
M  V30 859 H 77.8903 1.37847 -3.6707 0
M  V30 860 H 79.3803 2.34496 -3.45545 0
M  V30 861 N 79.8174 1.5752 -0.0501392 0
M  V30 862 C 80.7474 2.14502 0.922566 0
M  V30 863 C 81.7284 1.06642 1.3252 0
M  V30 864 O 82.9134 1.34577 1.4001 0
M  V30 865 C 80.0434 2.68916 2.19776 0
M  V30 866 C 78.9974 3.8175 1.93523 0
M  V30 867 C 78.3234 4.22677 3.27487 0
M  V30 868 C 79.6234 5.06932 1.25765 0
M  V30 869 H 81.3174 2.9603 0.447952 0
M  V30 870 H 78.8634 1.42401 0.214024 0
M  V30 871 H 80.8164 3.07419 2.88222 0
M  V30 872 H 79.5404 1.84578 2.69441 0
M  V30 873 H 78.1994 3.43718 1.27489 0
M  V30 874 H 77.8474 3.35291 3.74952 0
M  V30 875 H 77.5474 4.98725 3.1072 0
M  V30 876 H 79.0714 4.63779 3.97166 0
M  V30 877 H 80.4854 5.42888 1.84244 0
M  V30 878 H 78.8824 5.88116 1.19328 0
M  V30 879 H 79.9524 4.84337 0.233536 0
M  V30 880 N 81.2955 -0.223234 1.56011 0
M  V30 881 C 82.2585 -1.26014 1.9145 0
M  V30 882 C 83.2585 -1.3989 0.792937 0
M  V30 883 O 84.4485 -1.38184 1.0607 0
M  V30 884 C 81.5805 -2.63422 2.16383 0
M  V30 885 H 82.7735 -0.95796 2.84189 0
M  V30 886 H 80.3265 -0.463576 1.49267 0
M  V30 887 H 81.0615 -2.98741 1.2619 0
M  V30 888 H 80.8465 -2.54728 2.98088 0
M  V30 889 H 82.3365 -3.38249 2.44903 0
M  V30 890 N 82.7736 -1.49793 -0.48987 0
M  V30 891 C 84.0196 -1.60078 -1.24511 0
M  V30 892 C 84.3526 -0.291608 -1.91998 0
M  V30 893 O 83.6276 0.705647 -1.81248 0
M  V30 894 C 83.9106 -2.76791 -2.30345 0
M  V30 895 C 83.7636 -4.17535 -1.67286 0
M  V30 896 C 85.0826 -2.89111 -3.31817 0
M  V30 897 H 82.2016 -0.582645 -0.451324 0
M  V30 898 H 84.8436 -1.82117 -0.541612 0
M  V30 899 H 82.9936 -2.5813 -2.90346 0
M  V30 900 H 84.6656 -4.4774 -1.11026 0
M  V30 901 H 82.9086 -4.22665 -0.976577 0
M  V30 902 H 83.5796 -4.95094 -2.44103 0
M  V30 903 H 86.0556 -3.06133 -2.81819 0
M  V30 904 H 84.9316 -3.72433 -4.03219 0
M  V30 905 H 85.1926 -1.9893 -3.94815 0
M  V30 906 N 84.2517 0.741722 -1.39055 0
M  V30 907 C 85.6677 1.04638 -1.20512 0
M  V30 908 C 85.8677 2.01405 -0.0620218 0
M  V30 909 O 84.9237 2.45547 0.588457 0
M  V30 910 C 86.2367 1.6151 -2.53643 0
M  V30 911 C 87.7847 1.73623 -2.6043 0
M  V30 912 C 88.2597 2.33906 -3.93767 0
M  V30 913 N 89.7507 2.41323 -3.9537 0
M  V30 914 C 90.4857 2.88888 -4.95309 0
M  V30 915 N 89.9817 3.36401 -6.05645 0
M  V30 916 N 91.7747 2.88037 -4.82692 0
M  V30 917 H 83.9257 0.0998155 -2.12165 0
M  V30 918 H 86.1887 0.106907 -0.941953 0
M  V30 919 H 85.8947 0.978739 -3.37807 0
M  V30 920 H 85.7687 2.60411 -2.72885 0
M  V30 921 H 88.1557 2.36384 -1.76655 0
M  V30 922 H 88.2367 0.733945 -2.45045 0
M  V30 923 H 87.8807 1.71776 -4.7797 0
M  V30 924 H 87.8107 3.34799 -4.06469 0
M  V30 925 H 90.3017 2.07734 -3.15682 0
M  V30 926 H 90.6147 3.71186 -6.77821 0
M  V30 927 H 88.9597 3.34427 -6.09248 0
M  V30 928 H 92.1507 2.50237 -3.95599 0
M  V30 929 H 92.3237 3.24792 -5.60726 0
M  V30 930 N 85.7298 1.2412 0.971189 0
M  V30 931 C 86.9758 1.09048 1.71698 0
M  V30 932 C 87.3308 -0.367442 1.88859 0
M  V30 933 O 86.6238 -1.26792 1.43646 0
M  V30 934 C 86.8178 1.75983 3.11071 0
M  V30 935 C 86.6468 3.28133 3.07504 0
M  V30 936 C 85.4168 3.97331 3.1218 0
M  V30 937 C 87.6148 4.24773 2.89952 0
M  V30 938 N 85.5968 5.3639 2.98596 0
M  V30 939 C 86.9678 5.50806 2.84627 0
M  V30 940 C 89.0228 4.15392 2.74506 0
M  V30 941 C 87.7258 6.68533 2.65437 0
M  V30 942 C 89.7518 5.32793 2.56682 0
M  V30 943 C 89.1138 6.57756 2.52063 0
M  V30 944 H 85.2128 0.453632 0.636979 0
M  V30 945 H 87.7968 1.56983 1.15171 0
M  V30 946 H 85.9678 1.30566 3.65796 0
M  V30 947 H 87.6998 1.53803 3.74335 0
M  V30 948 H 84.4548 3.48473 3.20724 0
M  V30 949 H 84.8788 6.09321 2.95054 0
M  V30 950 H 89.5208 3.19543 2.76861 0
M  V30 951 H 87.2388 7.64509 2.61825 0
M  V30 952 H 90.8248 5.27383 2.4568 0
M  V30 953 H 89.7048 7.4707 2.38446 0
M  V30 954 N 87.2079 -1.17134 1.05439 0
M  V30 955 C 88.6189 -1.69084 0.791676 0
M  V30 956 C 88.9699 -1.83822 -0.685839 0
M  V30 957 O 88.0949 -1.52757 -1.53278 0
M  V30 958 C 88.6899 -3.07119 1.4305 0
M  V30 959 C 87.2489 -3.56225 1.21577 0
M  V30 960 C 86.3959 -2.32421 1.51247 0
M  V30 961 H 89.3469 -1.01617 1.219 0
M  V30 962 H 89.3679 -3.71087 0.84112 0
M  V30 963 H 88.8799 -2.9636 2.50584 0
M  V30 964 H 86.9809 -3.72257 0.159787 0
M  V30 965 H 87.0939 -4.38837 1.92246 0
M  V30 966 H 85.4579 -2.3701 0.932653 0
M  V30 967 H 86.2409 -2.24268 2.5992 0
M  V30 968 N 88.686 -0.835752 -1.33615 0
M  V30 969 C 89.914 -0.443344 -2.02094 0
M  V30 970 C 90.329 0.954522 -1.62894 0
M  V30 971 O 89.686 1.61982 -0.840723 0
M  V30 972 C 89.737 -0.550775 -3.5728 0
M  V30 973 O 89.458 -1.89356 -3.95065 0
M  V30 974 C 90.959 -0.154919 -4.43029 0
M  V30 975 H 88.179 -0.176359 -0.647409 0
M  V30 976 H 90.723 -1.12746 -1.70612 0
M  V30 977 H 88.878 0.0853997 -3.87306 0
M  V30 978 H 89.292 -1.87687 -4.89769 0
M  V30 979 H 90.766 -0.281144 -5.51284 0
M  V30 980 H 91.243 0.902863 -4.2982 0
M  V30 981 H 91.849 -0.765404 -4.18356 0
M  V30 982 N 90.1641 1.46063 -0.591896 0
M  V30 983 C 91.4111 2.02338 -0.0809991 0
M  V30 984 C 91.7391 1.46228 1.28249 0
M  V30 985 O 90.9941 0.620818 1.85592 0
M  V30 986 C 91.2931 3.57391 0.0249813 0
M  V30 987 C 90.9591 4.32583 -1.27211 0
M  V30 988 C 89.6211 4.52844 -1.62745 0
M  V30 989 C 91.9731 4.75687 -2.13005 0
M  V30 990 C 89.3011 5.13462 -2.83855 0
M  V30 991 C 91.6531 5.37644 -3.3335 0
M  V30 992 C 90.3171 5.5613 -3.69155 0
M  V30 993 H 89.5871 0.740407 -0.0296397 0
M  V30 994 H 92.2341 1.75321 -0.770374 0
M  V30 995 H 90.5391 3.83597 0.797537 0
M  V30 996 H 92.2361 3.98621 0.436184 0
M  V30 997 H 88.8261 4.17116 -0.985499 0
M  V30 998 H 93.0101 4.59782 -1.86855 0
M  V30 999 H 88.2661 5.25965 -3.11722 0
M  V30 1000 H 92.4401 5.7 -4.00092 0
M  V30 1001 H 90.0671 6.0287 -4.63089 0
M  V30 1002 N 91.6422 0.330177 1.54103 0
M  V30 1003 C 92.8892 -0.270405 2.00686 0
M  V30 1004 C 93.2172 -1.51621 1.21825 0
M  V30 1005 O 92.4722 -1.93536 0.29025 0
M  V30 1006 C 92.7712 -0.643134 3.51566 0
M  V30 1007 C 92.4372 0.504251 4.48072 0
M  V30 1008 C 91.0992 0.819163 4.74176 0
M  V30 1009 C 93.4512 1.27465 5.05373 0
M  V30 1010 C 90.7792 1.90708 5.5484 0
M  V30 1011 C 93.1312 2.35271 5.87223 0
M  V30 1012 C 91.7952 2.67336 6.11627 0
M  V30 1013 H 91.0652 -0.0989482 0.734364 0
M  V30 1014 H 93.7122 0.455324 1.86008 0
M  V30 1015 H 92.0172 -1.44938 3.64006 0
M  V30 1016 H 93.7142 -1.11949 3.85056 0
M  V30 1017 H 90.3042 0.248733 4.27878 0
M  V30 1018 H 94.4882 1.04462 4.85182 0
M  V30 1019 H 89.7442 2.15991 5.71977 0
M  V30 1020 H 93.9182 2.95405 6.30641 0
M  V30 1021 H 91.5452 3.51763 6.73919 0
M  V30 1022 N 93.1203 -1.57491 0.0584922 0
M  V30 1023 C 94.3663 -1.93264 -0.614558 0
M  V30 1024 C 94.6993 -0.937717 -1.7006 0
M  V30 1025 O 93.9743 0.0351652 -1.94468 0
M  V30 1026 C 94.2573 -3.3938 -1.20386 0
M  V30 1027 C 94.1103 -4.49625 -0.125375 0
M  V30 1028 C 95.4293 -3.86039 -2.11334 0
M  V30 1029 H 92.5483 -0.702791 -0.221933 0
M  V30 1030 H 95.1903 -1.8961 0.12175 0
M  V30 1031 H 93.3403 -3.42626 -1.83139 0
M  V30 1032 H 95.0123 -4.58506 0.506971 0
M  V30 1033 H 93.2553 -4.30354 0.545672 0
M  V30 1034 H 93.9263 -5.48967 -0.577861 0
M  V30 1035 H 96.4023 -3.84716 -1.58534 0
M  V30 1036 H 95.2783 -4.88914 -2.49507 0
M  V30 1037 H 95.5393 -3.23215 -3.01636 0
M  V30 1038 N 94.5984 0.214957 -1.56127 0
M  V30 1039 C 95.8234 0.95924 -1.83884 0
M  V30 1040 C 96.2484 1.7689 -0.639644 0
M  V30 1041 O 95.6064 1.76566 0.411601 0
M  V30 1042 C 95.6544 1.84723 -3.09693 0
M  V30 1043 O 94.7584 2.94346 -2.8885 0
M  V30 1044 H 94.0994 0.27125 -0.606069 0
M  V30 1045 H 96.6294 0.226276 -2.03345 0
M  V30 1046 H 96.6394 2.25576 -3.39969 0
M  V30 1047 H 95.3144 1.25218 -3.96602 0
M  V30 1048 H 93.8914 2.57391 -2.69823 0
M  V30 1049 N 96.0765 1.50051 0.48192 0
M  V30 1050 C 97.0065 1.71046 1.58951 0
M  V30 1051 C 97.9875 0.559288 1.60642 0
M  V30 1052 O 99.1725 0.797243 1.77081 0
M  V30 1053 C 96.3025 1.79462 2.97339 0
M  V30 1054 C 95.2565 2.94558 3.10515 0
M  V30 1055 C 94.5825 2.88105 4.50444 0
M  V30 1056 C 95.8825 4.35227 2.88747 0
M  V30 1057 H 97.5765 2.6378 1.41635 0
M  V30 1058 H 95.1225 1.26936 0.679942 0
M  V30 1059 H 97.0755 1.92734 3.74742 0
M  V30 1060 H 95.7995 0.833412 3.15788 0
M  V30 1061 H 94.4585 2.80918 2.35543 0
M  V30 1062 H 94.1065 1.89853 4.65795 0
M  V30 1063 H 93.8065 3.65366 4.60197 0
M  V30 1064 H 95.3305 3.03412 5.29881 0
M  V30 1065 H 96.7445 4.49449 3.55905 0
M  V30 1066 H 95.1415 5.13856 3.09955 0
M  V30 1067 H 96.2115 4.48347 1.84696 0
M  V30 1068 N 97.5546 -0.734337 1.39446 0
M  V30 1069 C 98.5176 -1.83004 1.37994 0
M  V30 1070 C 99.5176 -1.58397 0.276938 0
M  V30 1071 O 100.708 -1.65785 0.534875 0
M  V30 1072 C 97.8396 -3.20802 1.1532 0
M  V30 1073 H 99.0326 -1.85694 2.35494 0
M  V30 1074 H 96.5856 -0.938059 1.25021 0
M  V30 1075 H 97.3206 -3.23772 0.185036 0
M  V30 1076 H 97.1056 -3.4006 1.95197 0
M  V30 1077 H 98.5956 -4.00862 1.17046 0
M  V30 1078 N 99.0327 -1.24633 -0.964593 0
M  V30 1079 C 100.279 -1.08949 -1.71049 0
M  V30 1080 C 100.612 0.370302 -1.90637 0
M  V30 1081 O 99.8867 1.27349 -1.47011 0
M  V30 1082 C 100.17 -1.83329 -3.0994 0
M  V30 1083 C 100.023 -3.37077 -2.97824 0
M  V30 1084 C 101.342 -1.60846 -4.09654 0
M  V30 1085 H 98.4607 -0.397178 -0.620821 0
M  V30 1086 H 101.103 -1.5334 -1.12191 0
M  V30 1087 H 99.2527 -1.45597 -3.60186 0
M  V30 1088 H 100.925 -3.84425 -2.5498 0
M  V30 1089 H 99.1677 -3.65298 -2.33965 0
M  V30 1090 H 99.8387 -3.84324 -3.96231 0
M  V30 1091 H 102.315 -1.93674 -3.68279 0
M  V30 1092 H 101.191 -2.1534 -5.04896 0
M  V30 1093 H 101.452 -0.547434 -4.38698 0
M  V30 1094 N 100.511 1.16574 -1.06058 0
M  V30 1095 C 101.441 2.23057 -0.690488 0
M  V30 1096 C 102.422 1.67141 0.315901 0
M  V30 1097 O 103.607 1.93253 0.191556 0
M  V30 1098 C 100.737 3.47222 -0.073625 0
M  V30 1099 C 99.6908 4.16016 -1.00573 0
M  V30 1100 C 99.0168 5.34104 -0.252289 0
M  V30 1101 C 100.317 4.67264 -2.33371 0
M  V30 1102 H 102.011 2.54271 -1.58072 0
M  V30 1103 H 99.5568 1.22218 -0.76149 0
M  V30 1104 H 101.51 4.20939 0.19714 0
M  V30 1105 H 100.234 3.15302 0.85161 0
M  V30 1106 H 98.8928 3.44223 -1.2612 0
M  V30 1107 H 98.5408 4.98437 0.675988 0
M  V30 1108 H 98.2408 5.81072 -0.873455 0
M  V30 1109 H 99.7648 6.10599 0.0109857 0
M  V30 1110 H 101.179 5.32573 -2.12223 0
M  V30 1111 H 99.5758 5.24843 -2.90963 0
M  V30 1112 H 100.646 3.83602 -2.96611 0
M  V30 1113 N 101.989 0.842826 1.3317 0
M  V30 1114 C 103.236 0.440447 1.97652 0
M  V30 1115 C 103.564 -1.00123 1.6675 0
M  V30 1116 O 102.819 -1.7155 0.941761 0
M  V30 1117 C 103.118 0.612607 3.52111 0
M  V30 1118 C 102.784 2.02297 4.02972 0
M  V30 1119 C 101.446 2.40874 4.16573 0
M  V30 1120 C 103.798 2.94402 4.30089 0
M  V30 1121 C 101.126 3.70852 4.54627 0
M  V30 1122 C 103.478 4.23865 4.69597 0
M  V30 1123 C 102.142 4.62392 4.81404 0
M  V30 1124 H 101.412 0.161171 0.72326 0
M  V30 1125 H 104.059 1.07061 1.58777 0
M  V30 1126 H 102.364 -0.100849 3.9167 0
M  V30 1127 H 104.061 0.2815 4.00011 0
M  V30 1128 H 100.651 1.71338 3.92863 0
M  V30 1129 H 104.835 2.65835 4.19101 0
M  V30 1130 H 100.091 4.00501 4.61962 0
M  V30 1131 H 104.265 4.95306 4.89536 0
M  V30 1132 H 101.892 5.63154 5.10648 0
M  V30 1133 N 103.467 -1.45747 0.599634 0
M  V30 1134 C 104.397 -2.33235 -0.111306 0
M  V30 1135 C 105.378 -1.46359 -0.866781 0
M  V30 1136 O 106.563 -1.75146 -0.838904 0
M  V30 1137 C 103.693 -3.28932 -1.11451 0
M  V30 1138 C 102.647 -4.25381 -0.472772 0
M  V30 1139 C 101.973 -5.1071 -1.58365 0
M  V30 1140 C 103.273 -5.18831 0.600948 0
M  V30 1141 H 104.967 -2.92927 0.61919 0
M  V30 1142 H 102.513 -1.40857 0.299215 0
M  V30 1143 H 104.466 -3.89002 -1.62036 0
M  V30 1144 H 103.19 -2.67381 -1.8755 0
M  V30 1145 H 101.849 -3.66598 0.0121472 0
M  V30 1146 H 101.497 -4.45533 -2.33473 0
M  V30 1147 H 101.197 -5.7604 -1.15982 0
M  V30 1148 H 102.721 -5.73647 -2.09194 0
M  V30 1149 H 104.135 -5.73019 0.179491 0
M  V30 1150 H 102.532 -5.92595 0.946076 0
M  V30 1151 H 103.602 -4.6174 1.48068 0
M  V30 1152 N 104.945 -0.338344 -1.53925 0
M  V30 1153 C 105.875 0.51328 -2.27789 0
M  V30 1154 C 106.856 1.107 -1.29149 0
M  V30 1155 O 108.041 1.12937 -1.57984 0
M  V30 1156 C 105.171 1.66697 -3.04679 0
M  V30 1157 C 104.125 1.20183 -4.1078 0
M  V30 1158 C 103.451 2.44363 -4.75595 0
M  V30 1159 C 104.751 0.30605 -5.21403 0
M  V30 1160 H 106.445 -0.102883 -2.99223 0
M  V30 1161 H 103.991 -0.0509219 -1.4391 0
M  V30 1162 H 105.944 2.26915 -3.55088 0
M  V30 1163 H 104.668 2.30995 -2.30887 0
M  V30 1164 H 103.327 0.622499 -3.61276 0
M  V30 1165 H 102.975 3.07057 -3.98403 0
M  V30 1166 H 102.675 2.13925 -5.47275 0
M  V30 1167 H 104.199 3.05317 -5.28786 0
M  V30 1168 H 105.613 0.814929 -5.67478 0
M  V30 1169 H 104.01 0.0937929 -6.00027 0
M  V30 1170 H 105.08 -0.65921 -4.80398 0
M  V30 1171 N 106.423 1.57458 -0.0668435 0
M  V30 1172 C 107.353 2.15468 0.899764 0
M  V30 1173 C 108.334 1.08042 1.31381 0
M  V30 1174 O 109.519 1.36054 1.38574 0
M  V30 1175 C 106.649 2.71232 2.16911 0
M  V30 1176 C 105.603 3.83781 1.89463 0
M  V30 1177 C 104.929 4.26127 3.22986 0
M  V30 1178 C 106.229 5.08238 1.20381 0
M  V30 1179 H 107.923 2.96488 0.416529 0
M  V30 1180 H 105.469 1.4262 0.198908 0
M  V30 1181 H 107.422 3.10458 2.84945 0
M  V30 1182 H 106.146 1.87426 2.67468 0
M  V30 1183 H 104.805 3.45051 1.23836 0
M  V30 1184 H 104.453 3.39249 3.71374 0
M  V30 1185 H 104.153 5.01993 3.05413 0
M  V30 1186 H 105.677 4.67966 3.92225 0
M  V30 1187 H 107.091 5.44811 1.78475 0
M  V30 1188 H 105.488 5.89349 1.13083 0
M  V30 1189 H 106.558 4.84558 0.182153 0
M  V30 1190 N 107.901 -0.206675 1.56239 0
M  V30 1191 C 108.849 -1.27571 1.94495 0
M  V30 1192 C 109.843 -1.47737 0.828862 0
M  V30 1193 O 111.049 -1.48735 1.0138 0
M  V30 1194 H 107.424 -0.428029 0.6183 0
M  V30 1195 H 109.395 -0.925961 2.8367 0
M  V30 1196 C 108.144 -2.61568 2.29079 0
M  V30 1197 H 107.467 -2.46863 3.14482 0
M  V30 1198 H 108.907 -3.35144 2.5972 0
M  V30 1199 C 107.366 -3.17695 1.12123 0
M  V30 1200 O 107.896 -3.99801 0.390153 0
M  V30 1201 N 106.102 -2.76276 0.901097 0
M  V30 1202 H 105.649 -2.09613 1.49733 0
M  V30 1203 H 105.607 -3.1417 0.120319 0
M  V30 1204 N 109.379 -1.50304 -0.473955 0
M  V30 1205 C 110.607 -1.64902 -1.24959 0
M  V30 1206 C 111.022 -0.331198 -1.85872 0
M  V30 1207 O 110.379 0.68652 -1.69095 0
M  V30 1208 C 110.43 -2.73803 -2.36038 0
M  V30 1209 O 110.151 -4.00477 -1.77624 0
M  V30 1210 C 111.652 -2.99349 -3.26964 0
M  V30 1211 H 108.872 -0.554383 -0.378022 0
M  V30 1212 H 111.416 -1.9651 -0.566054 0
M  V30 1213 H 109.571 -2.44898 -3.00173 0
M  V30 1214 H 109.985 -4.60678 -2.5075 0
M  V30 1215 H 111.459 -3.79217 -4.01121 0
M  V30 1216 H 111.936 -2.10307 -3.85574 0
M  V30 1217 H 112.542 -3.29774 -2.68569 0
M  V30 1218 N 110.857 0.726932 -1.39834 0
M  V30 1219 C 111.82 1.82269 -1.38962 0
M  V30 1220 C 112.82 1.58248 -0.285334 0
M  V30 1221 O 114.01 1.65499 -0.54366 0
M  V30 1222 C 111.142 3.20186 -1.17019 0
M  V30 1223 H 112.335 1.84443 -2.36476 0
M  V30 1224 H 109.888 0.931416 -1.25516 0
M  V30 1225 H 110.623 3.23669 -0.202204 0
M  V30 1226 H 110.408 3.3902 -1.96998 0
M  V30 1227 H 111.898 4.00235 -1.1917 0
M  V30 1228 N 112.336 1.25143 0.95797 0
M  V30 1229 C 113.583 1.09692 1.70217 0
M  V30 1230 C 113.911 -0.362654 1.91089 0
M  V30 1231 O 113.166 -1.28386 1.47701 0
M  V30 1232 C 113.465 1.79272 3.09187 0
M  V30 1233 C 113.131 3.29196 3.08125 0
M  V30 1234 C 111.793 3.70096 3.07543 0
M  V30 1235 C 114.145 4.24995 3.0171 0
M  V30 1236 C 111.473 5.05213 2.9829 0
M  V30 1237 C 113.825 5.60132 2.93999 0
M  V30 1238 C 112.489 6.00365 2.9175 0
M  V30 1239 H 111.759 0.401393 0.622868 0
M  V30 1240 H 114.406 1.55372 1.11945 0
M  V30 1241 H 112.711 1.26014 3.70982 0
M  V30 1242 H 114.408 1.64773 3.65583 0
M  V30 1243 H 110.998 2.96651 3.09348 0
M  V30 1244 H 115.182 3.9439 3.01281 0
M  V30 1245 H 110.438 5.35569 2.94916 0
M  V30 1246 H 114.612 6.3406 2.87996 0
M  V30 1247 H 112.239 7.05023 2.84336 0
M  V30 1248 N 113.814 -1.1601 1.06675 0
M  V30 1249 C 114.777 -2.18724 0.685001 0
M  V30 1250 C 115.777 -1.58496 -0.271246 0
M  V30 1251 O 116.967 -1.74119 -0.0531156 0
M  V30 1252 C 114.099 -3.40899 0.00853648 0
M  V30 1253 H 115.292 -2.54011 1.59431 0
M  V30 1254 H 112.845 -1.30352 0.862441 0
M  V30 1255 H 113.58 -3.11173 -0.913337 0
M  V30 1256 H 113.365 -3.8587 0.696204 0
M  V30 1257 H 114.855 -4.16886 -0.24414 0
M  V30 1258 N 115.292 -0.849877 -1.32721 0
M  V30 1259 C 116.52 -0.464754 -2.01613 0
M  V30 1260 C 116.935 0.937191 -1.63897 0
M  V30 1261 O 116.292 1.61081 -0.857856 0
M  V30 1262 C 116.343 -0.588638 -3.56675 0
M  V30 1263 O 116.064 -1.93535 -3.93034 0
M  V30 1264 C 117.565 -0.2019 -4.4284 0
M  V30 1265 H 114.785 -0.183215 -0.645502 0
M  V30 1266 H 117.329 -1.1455 -1.69407 0
M  V30 1267 H 115.484 0.0443159 -3.87375 0
M  V30 1268 H 115.898 -1.92871 -4.87751 0
M  V30 1269 H 117.372 -0.339599 -5.50954 0
M  V30 1270 H 117.849 0.857224 -4.30753 0
M  V30 1271 H 118.455 -0.809733 -4.17521 0
M  V30 1272 N 116.77 1.45427 -0.607355 0
M  V30 1273 C 117.7 2.3329 0.0989352 0
M  V30 1274 C 118.681 1.46816 0.859007 0
M  V30 1275 O 119.866 1.75588 0.829604 0
M  V30 1276 C 116.996 3.29518 1.09705 0
M  V30 1277 C 115.95 4.25626 0.450206 0
M  V30 1278 C 115.276 5.11542 1.55655 0
M  V30 1279 C 116.576 5.18505 -0.628455 0
M  V30 1280 H 118.27 2.92595 -0.634716 0
M  V30 1281 H 115.816 1.40696 -0.306681 0
M  V30 1282 H 117.769 3.89855 1.59971 0
M  V30 1283 H 116.493 2.68372 1.86129 0
M  V30 1284 H 115.152 3.66586 -0.0315886 0
M  V30 1285 H 114.8 4.46765 2.31107 0
M  V30 1286 H 114.5 5.76647 1.12925 0
M  V30 1287 H 116.024 5.74748 2.06148 0
M  V30 1288 H 117.438 5.72916 -0.209877 0
M  V30 1289 H 115.835 5.92085 -0.977489 0
M  V30 1290 H 116.905 4.60948 -1.50514 0
M  V30 1291 N 118.248 0.346503 1.53744 0
M  V30 1292 C 119.478 -0.250047 2.05081 0
M  V30 1293 C 119.886 -1.44529 1.22098 0
M  V30 1294 O 119.229 -1.81992 0.249917 0
M  V30 1295 C 119.291 -0.725934 3.52094 0
M  V30 1296 C 118.955 0.350053 4.55657 0
M  V30 1297 C 119.952 1.19372 5.0601 0
M  V30 1298 C 117.637 0.504827 4.99757 0
M  V30 1299 C 119.631 2.17768 5.99046 0
M  V30 1300 C 117.318 1.49218 5.92602 0
M  V30 1301 C 118.316 2.32706 6.42135 0
M  V30 1302 O 118.004 3.2976 7.33153 0
M  V30 1303 H 117.736 -0.0515469 0.674032 0
M  V30 1304 H 120.29 0.497559 1.99282 0
M  V30 1305 H 118.52 -1.52483 3.55367 0
M  V30 1306 H 120.209 -1.24336 3.86388 0
M  V30 1307 H 120.975 1.08525 4.72702 0
M  V30 1308 H 116.854 -0.135178 4.60802 0
M  V30 1309 H 120.398 2.82971 6.37631 0
M  V30 1310 H 116.295 1.6012 6.25325 0
M  V30 1311 H 117.063 3.25265 7.51096 0
M  V30 1312 N 119.726 -1.57421 0.075193 0
M  V30 1313 C 120.659 -2.08528 -0.926904 0
M  V30 1314 C 121.637 -0.991171 -1.28898 0
M  V30 1315 O 122.821 -1.26479 -1.39769 0
M  V30 1316 C 119.948 -2.54576 -2.23402 0
M  V30 1317 C 118.994 -3.75454 -2.02327 0
M  V30 1318 S 119.827 -5.19989 -1.27951 0
M  V30 1319 C 120.983 -5.69372 -2.59935 0
M  V30 1320 H 121.216 -2.932 -0.492048 0
M  V30 1321 H 118.749 -1.53785 -0.137651 0
M  V30 1322 H 120.707 -2.81767 -2.98526 0
M  V30 1323 H 119.368 -1.70166 -2.64012 0
M  V30 1324 H 118.561 -4.05675 -2.99071 0
M  V30 1325 H 118.163 -3.48654 -1.35339 0
M  V30 1326 H 120.455 -5.76424 -3.56008 0
M  V30 1327 H 121.398 -6.68207 -2.34319 0
M  V30 1328 H 121.806 -4.97205 -2.67296 0
M  V30 1329 N 121.204 0.198386 -1.56346 0
M  V30 1330 C 122.134 1.24865 -1.9731 0
M  V30 1331 C 123.115 1.47651 -0.844576 0
M  V30 1332 O 124.3 1.59444 -1.10866 0
M  V30 1333 C 121.43 2.59358 -2.30977 0
M  V30 1334 C 120.384 2.5119 -3.46537 0
M  V30 1335 C 119.71 3.89926 -3.65871 0
M  V30 1336 C 121.01 2.03977 -4.80823 0
M  V30 1337 H 122.704 0.908252 -2.85291 0
M  V30 1338 H 120.25 0.435462 -1.37258 0
M  V30 1339 H 122.203 3.33011 -2.58228 0
M  V30 1340 H 120.927 2.95132 -1.39874 0
M  V30 1341 H 119.586 1.79993 -3.19371 0
M  V30 1342 H 119.234 4.23046 -2.72105 0
M  V30 1343 H 118.934 3.85336 -4.4361 0
M  V30 1344 H 120.458 4.65205 -3.95495 0
M  V30 1345 H 121.872 2.67386 -5.07127 0
M  V30 1346 H 120.269 2.10397 -5.62008 0
M  V30 1347 H 121.339 0.992861 -4.74626 0
M  V30 1348 N 122.682 1.50554 0.465978 0
M  V30 1349 C 123.93 1.61479 1.21528 0
M  V30 1350 C 124.251 0.319596 1.92363 0
M  V30 1351 O 123.521 -0.663194 1.84333 0
M  V30 1352 H 122.101 0.595055 0.451573 0
M  V30 1353 H 124.763 1.87355 0.53704 0
M  V30 1354 H 123.859 2.42846 1.96042 0
M  V30 1355 N 124.16 -0.719506 1.40217 0
M  V30 1356 C 125.385 -1.51371 1.4178 0
M  V30 1357 C 125.81 -1.88091 0.0182355 0
M  V30 1358 O 125.168 -1.52997 -0.972707 0
M  V30 1359 C 125.216 -2.768 2.31115 0
M  V30 1360 O 124.32 -3.73349 1.7517 0
M  V30 1361 H 123.661 -0.456529 0.482159 0
M  V30 1362 H 126.191 -0.88644 1.844 0
M  V30 1363 H 126.201 -3.25371 2.46167 0
M  V30 1364 H 124.876 -2.49407 3.3282 0
M  V30 1365 H 123.453 -3.32179 1.69444 0
M  V30 1366 N 125.638 -1.25649 -0.95132 0
M  V30 1367 C 126.601 -1.06399 -2.03007 0
M  V30 1368 C 127.601 -0.0156794 -1.60792 0
M  V30 1369 O 128.791 -0.25817 -1.72276 0
M  V30 1370 C 125.923 -0.616184 -3.35285 0
M  V30 1371 H 127.116 -2.02164 -2.21517 0
M  V30 1372 H 124.669 -1.08103 -1.12887 0
M  V30 1373 H 125.404 0.343917 -3.22471 0
M  V30 1374 H 125.189 -1.37301 -3.67275 0
M  V30 1375 H 126.679 -0.503032 -4.14559 0
M  V30 1376 N 127.117 1.15442 -1.07289 0
M  V30 1377 C 128.528 1.67803 -0.818475 0
M  V30 1378 C 128.879 1.8489 0.656507 0
M  V30 1379 O 128.004 1.55176 1.50829 0
M  V30 1380 C 128.599 3.04805 -1.47917 0
M  V30 1381 C 127.158 3.54245 -1.27229 0
M  V30 1382 C 126.305 2.29986 -1.54925 0
M  V30 1383 H 129.256 0.996646 -1.23502 0
M  V30 1384 H 129.277 3.69702 -0.90005 0
M  V30 1385 H 128.789 2.92336 -2.55267 0
M  V30 1386 H 126.89 3.71956 -0.21899 0
M  V30 1387 H 127.003 4.35723 -1.99203 0
M  V30 1388 H 125.367 2.35496 -0.970242 0
M  V30 1389 H 126.15 2.20105 -2.63455 0
M  V30 1390 N 128.595 0.856903 1.32268 0
M  V30 1391 C 129.844 0.457599 1.96441 0
M  V30 1392 C 130.157 -0.992426 1.68553 0
M  V30 1393 O 131.363 -1.49727 2.26482 0
M  V30 1394 C 129.819 0.767358 3.51624 0
M  V30 1395 C 129.427 2.23326 3.88367 0
M  V30 1396 C 131.171 0.435887 4.22256 0
M  V30 1397 C 129.078 2.48613 5.36606 0
M  V30 1398 H 128.008 0.167387 0.735185 0
M  V30 1399 H 130.659 1.048 1.5063 0
M  V30 1400 H 129.041 0.106367 3.95857 0
M  V30 1401 H 130.215 2.93623 3.55137 0
M  V30 1402 H 128.53 2.52948 3.30766 0
M  V30 1403 H 131.127 0.602202 5.31298 0
M  V30 1404 H 131.47 -0.622672 4.11617 0
M  V30 1405 H 132.003 1.05286 3.83614 0
M  V30 1406 H 128.742 3.53101 5.52268 0
M  V30 1407 H 128.262 1.82896 5.71235 0
M  V30 1408 H 129.941 2.32676 6.03714 0
M  V30 1409 N 130.073 -1.45103 0.615059 0
M  V30 1410 C 131.036 -2.29025 -0.0895485 0
M  V30 1411 C 132.036 -1.40174 -0.787906 0
M  V30 1412 O 133.226 -1.62217 -0.634933 0
M  V30 1413 C 130.358 -3.21376 -1.13711 0
M  V30 1414 H 131.551 -2.92807 0.648382 0
M  V30 1415 H 129.104 -1.51749 0.374444 0
M  V30 1416 H 129.839 -2.6241 -1.90556 0
M  V30 1417 H 129.624 -3.86834 -0.640475 0
M  V30 1418 H 131.114 -3.84459 -1.63036 0
M  V30 1419 N 131.551 -0.354651 -1.53558 0
M  V30 1420 C 132.499 0.512195 -2.26891 0
M  V30 1421 C 133.493 1.09263 -1.29452 0
M  V30 1422 O 134.699 1.03709 -1.47121 0
M  V30 1423 H 131.074 0.183878 -0.729173 0
M  V30 1424 H 133.045 -0.128202 -2.98124 0
M  V30 1425 C 131.794 1.64563 -3.06291 0
M  V30 1426 H 131.117 1.20829 -3.81104 0
M  V30 1427 H 132.557 2.22711 -3.60799 0
M  V30 1428 C 131.016 2.58158 -2.16462 0
M  V30 1429 O 131.546 3.60695 -1.76811 0
M  V30 1430 N 129.752 2.27096 -1.81317 0
M  V30 1431 H 129.299 1.43751 -2.1376 0
M  V30 1432 H 129.257 2.89975 -1.21498 0
M  V30 1433 N 133.029 1.57378 -0.0835403 0
M  V30 1434 C 133.961 2.10389 0.909338 0
M  V30 1435 C 134.974 1.03858 1.25369 0
M  V30 1436 O 136.163 1.31338 1.20882 0
M  V30 1437 C 133.263 2.55908 2.2218 0
M  V30 1438 C 132.436 3.86145 2.05453 0
M  V30 1439 C 131.495 4.17633 3.20108 0
M  V30 1440 O 130.521 4.87043 2.94581 0
M  V30 1441 N 131.723 3.72113 4.45547 0
M  V30 1442 H 134.488 2.962 0.456657 0
M  V30 1443 H 132.049 1.61579 0.101877 0
M  V30 1444 H 134.041 2.74027 2.97811 0
M  V30 1445 H 132.611 1.75171 2.58909 0
M  V30 1446 H 131.831 3.7729 1.1422 0
M  V30 1447 H 133.119 4.7137 1.91541 0
M  V30 1448 H 132.517 3.16062 4.69171 0
M  V30 1449 H 131.074 3.95409 5.18165 0
M  V30 1450 N 134.507 -0.190092 1.56449 0
M  V30 1451 C 135.754 -0.909705 1.80916 0
M  V30 1452 C 136.082 -1.83047 0.657583 0
M  V30 1453 O 135.337 -1.92428 -0.356356 0
M  V30 1454 C 135.636 -1.75382 3.1141 0
M  V30 1455 C 135.302 -0.983606 4.40041 0
M  V30 1456 C 133.964 -0.770967 4.74984 0
M  V30 1457 C 136.316 -0.442024 5.19322 0
M  V30 1458 C 133.644 -0.0053448 5.867 0
M  V30 1459 C 135.996 0.310412 6.31838 0
M  V30 1460 C 134.66 0.534023 6.6536 0
M  V30 1461 H 133.93 -0.332885 0.662019 0
M  V30 1462 H 136.577 -0.175762 1.90692 0
M  V30 1463 H 134.882 -2.55659 2.96893 0
M  V30 1464 H 136.579 -2.31331 3.27547 0
M  V30 1465 H 133.169 -1.15936 4.12622 0
M  V30 1466 H 137.353 -0.593693 4.92736 0
M  V30 1467 H 132.609 0.177825 6.11141 0
M  V30 1468 H 136.783 0.737419 6.92485 0
M  V30 1469 H 134.41 1.12918 7.51767 0
M  V30 1470 N 135.985 -1.50799 -0.457987 0
M  V30 1471 C 137.396 -1.55152 -1.0385 0
M  V30 1472 C 137.747 -0.362719 -1.92818 0
M  V30 1473 O 136.872 0.522915 -2.09987 0
M  V30 1474 C 137.467 -2.81173 -1.89017 0
M  V30 1475 C 136.026 -2.88164 -2.42154 0
M  V30 1476 C 135.173 -2.49591 -1.20829 0
M  V30 1477 H 138.124 -1.56874 -0.240068 0
M  V30 1478 H 138.145 -2.63769 -2.74238 0
M  V30 1479 H 137.657 -3.67677 -1.24238 0
M  V30 1480 H 135.758 -2.06042 -3.10447 0
M  V30 1481 H 135.871 -3.91356 -2.76364 0
M  V30 1482 H 134.235 -2.02322 -1.54719 0
M  V30 1483 H 135.018 -3.38418 -0.576927 0
M  V30 1484 N 137.463 0.71206 -1.40597 0
M  V30 1485 C 138.426 1.80785 -1.40888 0
M  V30 1486 C 139.426 1.57937 -0.302103 0
M  V30 1487 O 140.616 1.64913 -0.561182 0
M  V30 1488 C 137.748 3.18927 -1.20409 0
M  V30 1489 H 138.941 1.81924 -2.38419 0
M  V30 1490 H 136.494 0.91805 -1.26497 0
M  V30 1491 H 137.229 3.23436 -0.236522 0
M  V30 1492 H 137.014 3.36911 -2.00582 0
M  V30 1493 H 138.504 3.98949 -1.23408 0
M  V30 1494 N 138.941 1.26152 0.944643 0
M  V30 1495 C 140.189 1.11271 1.6871 0
M  V30 1496 C 140.51 -0.345166 1.91921 0
M  V30 1497 O 139.78 -1.24387 1.51343 0
M  V30 1498 H 138.36 0.408783 0.625224 0
M  V30 1499 H 141.022 1.58427 1.1352 0
M  V30 1500 H 140.118 1.62879 2.66227 0
M  V30 1501 N 140.419 -1.14872 1.07899 0
M  V30 1502 C 141.666 -1.85789 0.805532 0
M  V30 1503 C 141.994 -1.82649 -0.668561 0
M  V30 1504 O 141.249 -1.24858 -1.50695 0
M  V30 1505 C 141.548 -3.34223 1.26609 0
M  V30 1506 C 141.214 -3.57555 2.74709 0
M  V30 1507 C 139.876 -3.63631 3.1516 0
M  V30 1508 C 142.228 -3.66803 3.70277 0
M  V30 1509 C 139.556 -3.76473 4.49983 0
M  V30 1510 C 141.908 -3.8117 5.04869 0
M  V30 1511 C 140.572 -3.85494 5.44932 0
M  V30 1512 H 139.842 -0.679849 0.294765 0
M  V30 1513 H 142.489 -1.3572 1.35101 0
M  V30 1514 H 140.794 -3.86536 0.640103 0
M  V30 1515 H 142.491 -3.87511 1.03132 0
M  V30 1516 H 139.081 -3.5347 2.42398 0
M  V30 1517 H 143.265 -3.61404 3.40149 0
M  V30 1518 H 138.521 -3.7808 4.80484 0
M  V30 1519 H 142.695 -3.87268 5.78789 0
M  V30 1520 H 140.322 -3.95197 6.49403 0
M  V30 1521 N 141.898 -0.863906 -1.31812 0
M  V30 1522 C 143.146 -0.470904 -1.96537 0
M  V30 1523 C 143.467 0.978771 -1.68657 0
M  V30 1524 O 142.737 1.6853 -0.998717 0
M  V30 1525 H 141.317 -0.171148 -0.72713 0
M  V30 1526 H 143.979 -1.10236 -1.60729 0
M  V30 1527 H 143.075 -0.623616 -3.05806 0
M  V30 1528 N 143.376 1.44774 -0.622745 0
M  V30 1529 C 144.624 2.01721 -0.123655 0
M  V30 1530 C 144.945 1.49172 1.25589 0
M  V30 1531 O 144.215 0.691974 1.83272 0
M  V30 1532 H 142.795 0.745777 -0.0427225 0
M  V30 1533 H 145.457 1.77382 -0.807559 0
M  V30 1534 H 144.553 3.11984 -0.0849534 0
M  V30 1535 N 144.854 0.36279 1.53368 0
M  V30 1536 C 145.817 -0.472679 2.24273 0
M  V30 1537 C 146.817 -1.012 1.24961 0
M  V30 1538 O 148.007 -0.898194 1.49259 0
M  V30 1539 C 145.139 -1.66039 2.97731 0
M  V30 1540 H 146.332 0.14773 2.99536 0
M  V30 1541 H 143.885 0.114434 1.55881 0
M  V30 1542 H 144.62 -2.31896 2.26704 0
M  V30 1543 H 144.405 -1.28066 3.70596 0
M  V30 1544 H 145.895 -2.25252 3.51641 0
M  V30 1545 N 146.332 -1.57332 0.0918853 0
M  V30 1546 C 147.579 -1.94236 -0.572577 0
M  V30 1547 C 147.907 -0.973398 -1.6839 0
M  V30 1548 O 147.162 0.00756912 -1.95699 0
M  V30 1549 C 147.461 -3.37689 -1.17051 0
M  V30 1550 C 147.127 -4.50527 -0.183304 0
M  V30 1551 C 145.789 -4.81119 0.0882276 0
M  V30 1552 C 148.141 -5.18883 0.49095 0
M  V30 1553 C 145.469 -5.77395 1.04076 0
M  V30 1554 C 147.821 -6.1618 1.43193 0
M  V30 1555 C 146.485 -6.45179 1.71173 0
M  V30 1556 H 145.755 -0.710762 -0.209521 0
M  V30 1557 H 148.402 -1.9077 0.167036 0
M  V30 1558 H 146.707 -3.37718 -1.9863 0
M  V30 1559 H 148.404 -3.63543 -1.69227 0
M  V30 1560 H 144.994 -4.26681 -0.405124 0
M  V30 1561 H 149.178 -4.95427 0.294312 0
M  V30 1562 H 144.434 -5.98179 1.26457 0
M  V30 1563 H 148.608 -6.68243 1.96023 0
M  V30 1564 H 146.235 -7.1959 2.4514 0
M  V30 1565 N 147.81 0.181792 -1.56548 0
M  V30 1566 C 149.057 0.900097 -1.81396 0
M  V30 1567 C 149.385 1.82695 -0.667281 0
M  V30 1568 O 148.64 1.92614 0.346146 0
M  V30 1569 C 148.939 1.73728 -3.12335 0
M  V30 1570 C 148.605 0.960255 -4.40556 0
M  V30 1571 C 147.267 0.745766 -4.75386 0
M  V30 1572 C 149.619 0.414477 -5.19549 0
M  V30 1573 C 146.947 -0.0257694 -5.86694 0
M  V30 1574 C 149.299 -0.343916 -6.31664 0
M  V30 1575 C 147.963 -0.569301 -6.65068 0
M  V30 1576 H 147.233 0.329369 -0.663775 0
M  V30 1577 H 149.88 0.165647 -1.90782 0
M  V30 1578 H 148.185 2.54081 -2.98245 0
M  V30 1579 H 149.882 2.29591 -3.28769 0
M  V30 1580 H 146.472 1.13746 -4.13231 0
M  V30 1581 H 150.656 0.567554 -4.93044 0
M  V30 1582 H 145.912 -0.210233 -6.11038 0
M  V30 1583 H 150.086 -0.774133 -6.92084 0
M  V30 1584 H 147.713 -1.16903 -7.51158 0
M  V30 1585 N 149.288 1.51039 0.449983 0
M  V30 1586 C 150.535 1.63081 1.20045 0
M  V30 1587 C 150.863 0.341024 1.91487 0
M  V30 1588 O 150.118 -0.674276 1.83717 0
M  V30 1589 C 150.417 2.77556 2.25161 0
M  V30 1590 C 150.083 4.17289 1.70823 0
M  V30 1591 C 148.745 4.55305 1.55725 0
M  V30 1592 C 151.097 5.04536 1.3074 0
M  V30 1593 C 148.425 5.78287 0.989999 0
M  V30 1594 C 150.777 6.28085 0.754482 0
M  V30 1595 C 149.441 6.64885 0.590308 0
M  V30 1596 H 148.711 0.596755 0.439277 0
M  V30 1597 H 151.358 1.85037 0.49333 0
M  V30 1598 H 149.663 2.49771 3.01863 0
M  V30 1599 H 151.36 2.84073 2.83026 0
M  V30 1600 H 147.95 3.8731 1.83546 0
M  V30 1601 H 152.134 4.75782 1.41229 0
M  V30 1602 H 147.39 6.05456 0.850451 0
M  V30 1603 H 151.564 6.95038 0.435324 0
M  V30 1604 H 149.191 7.60055 0.14862 0
M  V30 1605 N 150.766 -0.704594 1.40972 0
M  V30 1606 C 151.991 -1.49858 1.43378 0
M  V30 1607 C 152.416 -1.88061 0.038184 0
M  V30 1608 O 151.774 -1.5402 -0.956425 0
M  V30 1609 C 151.822 -2.74333 2.34038 0
M  V30 1610 O 150.926 -3.7147 1.7912 0
M  V30 1611 H 150.267 -0.45139 0.486974 0
M  V30 1612 H 152.797 -0.866832 1.8533 0
M  V30 1613 H 152.807 -3.22741 2.49604 0
M  V30 1614 H 151.482 -2.45863 3.35446 0
M  V30 1615 H 150.059 -3.30363 1.72958 0
M  V30 1616 N 152.244 -1.26651 -0.937939 0
M  V30 1617 C 153.49 -1.12553 -1.687 0
M  V30 1618 C 153.823 0.329782 -1.91379 0
M  V30 1619 O 153.098 1.24202 -1.4968 0
M  V30 1620 C 153.381 -1.89862 -3.05981 0
M  V30 1621 C 153.234 -3.43318 -2.90607 0
M  V30 1622 C 154.553 -1.69499 -4.0615 0
M  V30 1623 H 151.672 -0.410257 -0.612257 0
M  V30 1624 H 154.314 -1.55685 -1.08913 0
M  V30 1625 H 152.464 -1.53204 -3.57017 0
M  V30 1626 H 154.136 -3.89747 -2.46769 0
M  V30 1627 H 152.379 -3.70179 -2.26164 0
M  V30 1628 H 153.05 -3.92642 -3.8799 0
M  V30 1629 H 155.526 -2.01442 -3.64088 0
M  V30 1630 H 154.402 -2.26002 -5.00214 0
M  V30 1631 H 154.663 -0.640365 -4.37438 0
M  V30 1632 N 153.722 1.14298 -1.08507 0
M  V30 1633 C 154.632 2.23027 -0.727753 0
M  V30 1634 C 155.648 1.71952 0.26619 0
M  V30 1635 O 156.824 2.011 0.109882 0
M  V30 1636 C 153.889 3.46403 -0.143541 0
M  V30 1637 C 152.95 4.12413 -1.19223 0
M  V30 1638 C 152.183 5.29899 -0.635798 0
M  V30 1639 O 152.406 5.67796 0.544393 0
M  V30 1640 O 151.34 5.85717 -1.38634 0
M  V30 1641 H 155.166 2.55945 -1.63481 0
M  V30 1642 H 152.751 1.22248 -0.858817 0
M  V30 1643 H 154.633 4.21018 0.179404 0
M  V30 1644 H 153.308 3.15206 0.736659 0
M  V30 1645 H 152.215 3.39667 -1.56772 0
M  V30 1646 H 153.548 4.47718 -2.04474 0
M  V30 1647 N 155.201 0.870884 1.31352 0
M  V30 1648 C 156.429 0.49677 2.00848 0
M  V30 1649 C 156.844 -0.910998 1.65367 0
M  V30 1650 O 156.201 -1.59696 0.883374 0
M  V30 1651 C 156.252 0.645308 3.55694 0
M  V30 1652 O 155.973 1.99764 3.89905 0
M  V30 1653 C 157.474 0.272326 4.42463 0
M  V30 1654 H 154.694 0.193462 0.642506 0
M  V30 1655 H 157.238 1.1723 1.67563 0
M  V30 1656 H 155.393 0.0173176 3.87396 0
M  V30 1657 H 155.807 2.00607 4.84621 0
M  V30 1658 H 157.281 0.427208 5.50344 0
M  V30 1659 H 157.758 -0.788587 4.32062 0
M  V30 1660 H 158.364 0.876054 4.1618 0
M  V30 1661 N 156.679 -1.44442 0.630414 0
M  V30 1662 C 157.609 -2.33418 -0.0618083 0
M  V30 1663 C 158.59 -1.48165 -0.835541 0
M  V30 1664 O 159.775 -1.76886 -0.801564 0
M  V30 1665 C 156.905 -3.31222 -1.04449 0
M  V30 1666 C 155.859 -4.26288 -0.382436 0
M  V30 1667 C 155.185 -5.13954 -1.47497 0
M  V30 1668 C 156.485 -5.1744 0.710865 0
M  V30 1669 H 158.179 -2.91548 0.681184 0
M  V30 1670 H 155.725 -1.40191 0.329026 0
M  V30 1671 H 157.678 -3.92351 -1.53748 0
M  V30 1672 H 156.402 -2.71299 -1.81836 0
M  V30 1673 H 155.061 -3.6649 0.0899054 0
M  V30 1674 H 154.709 -4.50385 -2.2397 0
M  V30 1675 H 154.409 -5.7837 -1.03737 0
M  V30 1676 H 155.933 -5.77955 -1.96979 0
M  V30 1677 H 157.347 -5.72509 0.300996 0
M  V30 1678 H 155.744 -5.90455 1.07156 0
M  V30 1679 H 156.814 -4.58496 1.57829 0
M  V30 1680 N 158.157 -0.370918 -1.53173 0
M  V30 1681 C 159.12 0.460778 -2.24521 0
M  V30 1682 C 160.12 1.00536 -1.25496 0
M  V30 1683 O 161.31 0.890266 -1.49733 0
M  V30 1684 C 158.442 1.64457 -2.98608 0
M  V30 1685 H 159.635 -0.163613 -2.99453 0
M  V30 1686 H 157.188 -0.122699 -1.55818 0
M  V30 1687 H 157.923 2.30691 -2.2793 0
M  V30 1688 H 157.708 1.26099 -3.7127 0
M  V30 1689 H 159.198 2.23384 -3.5283 0
M  V30 1690 N 159.635 1.57281 -0.100228 0
M  V30 1691 C 160.863 1.98879 0.570509 0
M  V30 1692 C 161.278 0.979476 1.61405 0
M  V30 1693 O 160.635 -0.0302288 1.82475 0
M  V30 1694 C 160.686 3.4052 1.2136 0
M  V30 1695 O 160.407 4.37588 0.211786 0
M  V30 1696 C 161.908 3.97149 1.96945 0
M  V30 1697 H 159.128 0.653428 0.152555 0
M  V30 1698 H 161.672 2.03697 -0.18103 0
M  V30 1699 H 159.827 3.367 1.91603 0
M  V30 1700 H 160.241 5.20118 0.676607 0
M  V30 1701 H 161.715 4.98393 2.37294 0
M  V30 1702 H 162.192 3.3525 2.83733 0
M  V30 1703 H 162.798 4.04458 1.31506 0
M  V30 1704 N 161.113 -0.173488 1.56642 0
M  V30 1705 C 162.359 -0.891784 1.8214 0
M  V30 1706 C 162.692 -1.8199 0.677736 0
M  V30 1707 O 161.967 -1.91842 -0.320446 0
M  V30 1708 C 162.25 -1.68933 3.18015 0
M  V30 1709 C 162.103 -0.784487 4.42906 0
M  V30 1710 C 163.422 -2.65748 3.50808 0
M  V30 1711 H 160.541 -0.322761 0.662567 0
M  V30 1712 H 163.183 -0.158095 1.89341 0
M  V30 1713 H 161.333 -2.31482 3.12007 0
M  V30 1714 H 163.005 -0.172046 4.60979 0
M  V30 1715 H 161.248 -0.0924117 4.33702 0
M  V30 1716 H 161.919 -1.37799 5.34524 0
M  V30 1717 H 164.395 -2.13327 3.57255 0
M  V30 1718 H 163.271 -3.18619 4.4696 0
M  V30 1719 H 163.532 -3.45842 2.75401 0
M  V30 1720 N 162.591 -1.51276 -0.441967 0
M  V30 1721 C 163.839 -1.63392 -1.18943 0
M  V30 1722 C 164.16 -0.350159 -1.9183 0
M  V30 1723 O 163.43 0.633784 -1.85364 0
M  V30 1724 H 162.01 -0.602164 -0.442049 0
M  V30 1725 H 164.672 -1.88186 -0.507165 0
M  V30 1726 H 163.768 -2.45934 -1.92154 0
M  V30 1727 N 164.069 0.697108 -1.41344 0
M  V30 1728 C 165.299 1.48377 -1.43763 0
M  V30 1729 C 165.707 1.89156 -0.0408726 0
M  V30 1730 O 165.05 1.57239 0.949812 0
M  V30 1731 C 165.112 2.7781 -2.2817 0
M  V30 1732 C 164.776 2.59244 -3.76353 0
M  V30 1733 C 165.773 2.25292 -4.68551 0
M  V30 1734 C 163.458 2.74933 -4.20378 0
M  V30 1735 C 165.452 2.07264 -6.02761 0
M  V30 1736 C 163.139 2.56521 -5.54653 0
M  V30 1737 C 164.137 2.22737 -6.4566 0
M  V30 1738 O 163.825 2.04485 -7.77458 0
M  V30 1739 H 163.557 0.463842 -0.491759 0
M  V30 1740 H 166.111 0.865934 -1.86255 0
M  V30 1741 H 164.341 3.41995 -1.8049 0
M  V30 1742 H 166.03 3.39608 -2.22309 0
M  V30 1743 H 166.796 2.12787 -4.35829 0
M  V30 1744 H 162.675 3.00213 -3.49848 0
M  V30 1745 H 166.219 1.80817 -6.73759 0
M  V30 1746 H 162.116 2.68616 -5.86955 0
M  V30 1747 H 162.884 2.1926 -7.88586 0
M  V30 1748 N 165.547 1.27147 0.931209 0
M  V30 1749 C 166.795 1.13055 1.6752 0
M  V30 1750 C 167.116 -0.324791 1.92276 0
M  V30 1751 O 166.386 -1.22775 1.52654 0
M  V30 1752 H 164.966 0.415391 0.620854 0
M  V30 1753 H 167.628 1.59623 1.11833 0
M  V30 1754 H 166.724 1.65694 2.64485 0
M  V30 1755 N 167.025 -1.13721 1.09112 0
M  V30 1756 C 168.302 -1.81155 0.737706 0
M  V30 1757 C 168.682 -1.96253 -0.777683 0
M  V30 1758 O 168.03 -1.52807 -1.69889 0
M  V30 1759 C 168.24 -3.16392 1.47299 0
M  V30 1760 C 169.588 -3.91787 1.63671 0
M  V30 1761 O 170.612 -3.26005 1.43524 0
M  V30 1762 O 169.471 -5.0977 1.96969 0
M  V30 1763 H 166.565 -0.783518 0.26463 0
M  V30 1764 H 169.111 -1.20676 1.19312 0
M  V30 1765 H 167.883 -3.0061 2.50498 0
M  V30 1766 H 167.506 -3.8457 1.00953 0
M  V30 1767 N 168.503 -0.877838 -1.30888 0
M  V30 1768 C 169.436 -0.283995 -2.26426 0
M  V30 1769 C 170.414 0.591361 -1.51465 0
M  V30 1770 O 171.598 0.54304 -1.80509 0
M  V30 1771 C 168.725 0.597129 -3.33395 0
M  V30 1772 C 167.771 -0.207937 -4.25993 0
M  V30 1773 S 168.604 -1.59158 -5.11301 0
M  V30 1774 C 169.76 -0.716791 -6.21782 0
M  V30 1775 H 169.993 -1.09383 -2.76446 0
M  V30 1776 H 167.526 -0.676828 -1.38775 0
M  V30 1777 H 169.484 1.09978 -3.95493 0
M  V30 1778 H 168.145 1.38099 -2.82113 0
M  V30 1779 H 167.338 0.464163 -5.01858 0
M  V30 1780 H 166.94 -0.642963 -3.68432 0
M  V30 1781 H 169.232 0.0692833 -6.77465 0
M  V30 1782 H 170.175 -1.44682 -6.93161 0
M  V30 1783 H 170.583 -0.280855 -5.63801 0
M  V30 1784 N 169.982 1.44106 -0.638065 0
M  V30 1785 C 170.932 2.27843 0.0847285 0
M  V30 1786 C 171.916 1.39055 0.809471 0
M  V30 1787 O 173.108 1.62808 0.694435 0
M  V30 1788 C 170.237 3.26497 1.06089 0
M  V30 1789 C 169.323 4.22772 0.33541 0
M  V30 1790 N 169.714 5.01737 -0.639787 0
M  V30 1791 C 168.012 4.42227 0.578921 0
M  V30 1792 C 168.713 5.71792 -1.06904 0
M  V30 1793 N 167.689 5.42079 -0.406395 0
M  V30 1794 H 171.491 2.86305 -0.663814 0
M  V30 1795 H 169.005 1.55627 -0.464122 0
M  V30 1796 H 171.002 3.8525 1.59337 0
M  V30 1797 H 169.662 2.69595 1.80966 0
M  V30 1798 H 170.673 5.07799 -1.01789 0
M  V30 1799 H 167.35 3.96415 1.31003 0
M  V30 1800 H 168.74 6.45205 -1.8751 0
M  V30 1801 N 171.46 0.379036 1.52974 0
M  V30 1802 C 172.871 -0.0972525 1.86447 0
M  V30 1803 C 173.222 -1.47027 1.29914 0
M  V30 1804 O 172.347 -2.07135 0.626433 0
M  V30 1805 C 172.942 -0.183248 3.38304 0
M  V30 1806 C 171.501 -0.603812 3.71525 0
M  V30 1807 C 170.648 0.240632 2.76254 0
M  V30 1808 H 173.599 0.597316 1.4703 0
M  V30 1809 H 173.62 -1.00432 3.67006 0
M  V30 1810 H 173.132 0.816191 3.79421 0
M  V30 1811 H 171.233 -1.61099 3.35973 0
M  V30 1812 H 171.346 -0.369086 4.77676 0
M  V30 1813 H 169.71 -0.292548 2.53014 0
M  V30 1814 H 170.493 1.23786 3.20206 0
M  V30 1815 N 172.938 -1.57226 0.108567 0
M  V30 1816 C 173.87 -2.11809 -0.875752 0
M  V30 1817 C 174.883 -1.05839 -1.23701 0
M  V30 1818 O 176.072 -1.33245 -1.18778 0
M  V30 1819 C 173.172 -2.59411 -2.18081 0
M  V30 1820 C 172.345 -3.89364 -1.99284 0
M  V30 1821 C 171.404 -4.22672 -3.13424 0
M  V30 1822 O 170.43 -4.91668 -2.86795 0
M  V30 1823 N 171.632 -3.79154 -4.3957 0
M  V30 1824 H 174.397 -2.9689 -0.409477 0
M  V30 1825 H 171.958 -1.61721 -0.076158 0
M  V30 1826 H 173.95 -2.7873 -2.93414 0
M  V30 1827 H 172.52 -1.79268 -2.5609 0
M  V30 1828 H 171.74 -3.79059 -1.08203 0
M  V30 1829 H 173.028 -4.74358 -1.84017 0
M  V30 1830 H 172.426 -3.23486 -4.64083 0
M  V30 1831 H 170.983 -4.03602 -5.11809 0
M  V30 1832 N 174.416 0.165178 -1.56732 0
M  V30 1833 C 175.644 0.896218 -1.86482 0
M  V30 1834 C 176.059 1.75555 -0.694675 0
M  V30 1835 O 175.416 1.79379 0.33607 0
M  V30 1836 C 175.467 1.76792 -3.1532 0
M  V30 1837 O 175.188 0.943239 -4.27825 0
M  V30 1838 C 176.689 2.6081 -3.58459 0
M  V30 1839 H 173.909 0.260064 -0.618553 0
M  V30 1840 H 176.453 0.163428 -2.03846 0
M  V30 1841 H 174.608 2.45398 -2.99764 0
M  V30 1842 H 175.022 1.53998 -5.01383 0
M  V30 1843 H 176.496 3.17579 -4.51495 0
M  V30 1844 H 176.973 3.35977 -2.82872 0
M  V30 1845 H 177.579 1.97526 -3.76648 0
M  V30 1846 N 175.894 1.51508 0.433938 0
M  V30 1847 C 177.14 1.64588 1.18484 0
M  V30 1848 C 177.473 0.362666 1.90784 0
M  V30 1849 O 176.748 -0.637892 1.83742 0
M  V30 1850 C 177.031 2.85149 2.19913 0
M  V30 1851 C 176.884 4.23456 1.51674 0
M  V30 1852 C 178.203 3.01227 3.20858 0
M  V30 1853 H 175.322 0.598994 0.429389 0
M  V30 1854 H 177.964 1.84002 0.473647 0
M  V30 1855 H 176.114 2.68729 2.80566 0
M  V30 1856 H 177.786 4.51552 0.943322 0
M  V30 1857 H 176.029 4.25998 0.819035 0
M  V30 1858 H 176.7 5.03812 2.2556 0
M  V30 1859 H 179.176 3.16382 2.70263 0
M  V30 1860 H 178.052 3.87141 3.89118 0
M  V30 1861 H 178.313 2.13447 3.8716 0
M  V30 1862 N 177.372 -0.689602 1.41712 0
M  V30 1863 C 178.602 -1.47613 1.44548 0
M  V30 1864 C 179.01 -1.89132 0.0509034 0
M  V30 1865 O 178.353 -1.57741 -0.94146 0
M  V30 1866 C 178.415 -2.76596 2.2964 0
M  V30 1867 C 178.079 -2.57245 3.77722 0
M  V30 1868 C 179.076 -2.22804 4.69739 0
M  V30 1869 C 176.761 -2.727 4.2183 0
M  V30 1870 C 178.755 -2.04064 6.03851 0
M  V30 1871 C 176.442 -2.53576 5.56006 0
M  V30 1872 C 177.44 -2.1931 6.46832 0
M  V30 1873 O 177.128 -2.00359 7.78532 0
M  V30 1874 H 176.86 -0.461227 0.494212 0
M  V30 1875 H 179.414 -0.856045 1.86711 0
M  V30 1876 H 177.644 -3.41033 1.82301 0
M  V30 1877 H 179.333 -3.38424 2.24107 0
M  V30 1878 H 180.099 -2.10473 4.36951 0
M  V30 1879 H 175.978 -2.98353 3.51435 0
M  V30 1880 H 179.522 -1.77241 6.74708 0
M  V30 1881 H 175.419 -2.65499 5.88371 0
M  V30 1882 H 176.187 -2.15075 7.89737 0
M  V30 1883 N 178.85 -1.27639 -0.924453 0
M  V30 1884 C 179.813 -1.10681 -2.00705 0
M  V30 1885 C 180.813 -0.0497823 -1.60723 0
M  V30 1886 O 182.003 -0.294654 -1.7169 0
M  V30 1887 C 179.135 -0.687164 -3.33902 0
M  V30 1888 H 180.328 -2.06817 -2.17179 0
M  V30 1889 H 177.881 -1.10473 -1.10569 0
M  V30 1890 H 178.616 0.275439 -3.23128 0
M  V30 1891 H 178.401 -1.45061 -3.6428 0
M  V30 1892 H 179.891 -0.590853 -4.13399 0
M  V30 1893 N 180.328 1.1314 -1.09713 0
M  V30 1894 C 181.278 2.16709 -0.708593 0
M  V30 1895 C 182.262 1.58471 0.278523 0
M  V30 1896 O 183.454 1.76779 0.088427 0
M  V30 1897 C 180.583 3.43039 -0.133923 0
M  V30 1898 C 179.669 4.08277 -1.14763 0
M  V30 1899 N 180.06 4.48637 -2.33577 0
M  V30 1900 C 178.358 4.34954 -0.986446 0
M  V30 1901 C 179.059 4.9952 -2.98085 0
M  V30 1902 N 178.035 4.94561 -2.25632 0
M  V30 1903 H 181.837 2.45672 -1.61315 0
M  V30 1904 H 179.351 1.29967 -0.973775 0
M  V30 1905 H 181.348 4.16583 0.162465 0
M  V30 1906 H 180.008 3.15549 0.765447 0
M  V30 1907 H 181.019 4.41246 -2.7115 0
M  V30 1908 H 177.696 4.17258 -0.142008 0
M  V30 1909 H 179.086 5.40521 -3.99108 0
M  V30 1910 N 181.806 0.884767 1.30421 0
M  V30 1911 C 183.052 0.513218 1.96819 0
M  V30 1912 C 183.407 -0.927347 1.68577 0
M  V30 1913 O 182.7 -1.64644 0.979941 0
M  V30 1914 C 182.894 0.724318 3.49983 0
M  V30 1915 C 182.723 2.18385 3.93113 0
M  V30 1916 C 181.493 2.82839 4.18725 0
M  V30 1917 C 183.691 3.15763 4.05953 0
M  V30 1918 N 181.673 4.1939 4.48314 0
M  V30 1919 C 183.044 4.37387 4.39423 0
M  V30 1920 C 185.099 3.11555 3.88379 0
M  V30 1921 C 183.802 5.55343 4.5715 0
M  V30 1922 C 185.828 4.28782 4.07308 0
M  V30 1923 C 185.19 5.49172 4.41123 0
M  V30 1924 H 181.289 0.237123 0.745182 0
M  V30 1925 H 183.873 1.14246 1.57658 0
M  V30 1926 H 182.044 0.124565 3.882 0
M  V30 1927 H 183.776 0.31969 4.03435 0
M  V30 1928 H 180.531 2.33708 4.11919 0
M  V30 1929 H 180.955 4.89911 4.67243 0
M  V30 1930 H 185.597 2.19576 3.61312 0
M  V30 1931 H 183.315 6.47826 4.8306 0
M  V30 1932 H 186.901 4.26995 3.95179 0
M  V30 1933 H 185.781 6.38371 4.55469 0
M  V30 1934 N 183.284 -1.43765 0.645699 0
M  V30 1935 C 184.533 -2.01116 0.153412 0
M  V30 1936 C 184.846 -1.51493 -1.23731 0
M  V30 1937 O 186.052 -2.01067 -1.8244 0
M  V30 1938 C 184.508 -3.59206 0.223473 0
M  V30 1939 C 184.116 -4.17823 1.61642 0
M  V30 1940 C 185.86 -4.23972 -0.211597 0
M  V30 1941 C 183.767 -5.68183 1.64081 0
M  V30 1942 H 182.697 -0.752093 0.0535891 0
M  V30 1943 H 185.348 -1.6482 0.806633 0
M  V30 1944 H 183.73 -3.92867 -0.497118 0
M  V30 1945 H 184.904 -3.95674 2.36176 0
M  V30 1946 H 183.219 -3.65399 1.99681 0
M  V30 1947 H 185.816 -5.34275 -0.213112 0
M  V30 1948 H 186.159 -3.97352 -1.24165 0
M  V30 1949 H 186.692 -3.95166 0.456988 0
M  V30 1950 H 183.431 -5.99559 2.64971 0
M  V30 1951 H 182.951 -5.9241 0.938611 0
M  V30 1952 H 184.63 -6.32085 1.3812 0
M  V30 1953 N 184.763 -0.387143 -1.52771 0
M  V30 1954 C 185.726 0.436939 -2.24997 0
M  V30 1955 C 186.726 0.991991 -1.26555 0
M  V30 1956 O 187.916 0.874335 -1.50669 0
M  V30 1957 C 185.048 1.61281 -3.00335 0
M  V30 1958 H 186.241 -0.195365 -2.99263 0
M  V30 1959 H 183.794 -0.139218 -1.55679 0
M  V30 1960 H 184.529 2.2826 -2.30364 0
M  V30 1961 H 184.314 1.22154 -3.72587 0
M  V30 1962 H 185.804 2.19629 -3.5518 0
M  V30 1963 N 186.241 1.57166 -0.116904 0
M  V30 1964 C 187.469 1.99473 0.549383 0
M  V30 1965 C 187.884 0.996541 1.60357 0
M  V30 1966 O 187.241 -0.0108731 1.82497 0
M  V30 1967 C 187.292 3.41788 1.17741 0
M  V30 1968 O 187.013 4.37788 0.165362 0
M  V30 1969 C 188.514 3.99216 1.92722 0
M  V30 1970 H 185.734 0.655009 0.145616 0
M  V30 1971 H 188.278 2.03494 -0.202625 0
M  V30 1972 H 186.433 3.38713 1.88021 0
M  V30 1973 H 186.847 5.20806 0.621403 0
M  V30 1974 H 188.321 5.00882 2.31995 0
M  V30 1975 H 188.798 3.3824 2.80161 0
M  V30 1976 H 189.404 4.0583 1.27209 0
M  V30 1977 N 187.719 -0.156864 1.56817 0
M  V30 1978 C 188.649 -1.19589 2.00551 0
M  V30 1979 C 189.63 -1.4536 0.883426 0
M  V30 1980 O 190.815 -1.56449 1.15054 0
M  V30 1981 C 187.945 -2.53143 2.37773 0
M  V30 1982 C 186.899 -2.41913 3.53075 0
M  V30 1983 C 186.225 -3.80088 3.76081 0
M  V30 1984 C 187.525 -1.91157 4.86062 0
M  V30 1985 H 189.219 -0.832293 2.87599 0
M  V30 1986 H 186.765 -0.398918 1.38364 0
M  V30 1987 H 188.718 -3.26047 2.66967 0
M  V30 1988 H 187.442 -2.91319 1.4765 0
M  V30 1989 H 186.101 -1.71462 3.24031 0
M  V30 1990 H 185.749 -4.15683 2.83225 0
M  V30 1991 H 185.449 -3.73439 4.53671 0
M  V30 1992 H 186.973 -4.54556 4.0769 0
M  V30 1993 H 188.387 -2.53846 5.14038 0
M  V30 1994 H 186.784 -1.95422 5.67389 0
M  V30 1995 H 187.854 -0.866673 4.77092 0
M  V30 1996 N 189.197 -1.51736 -0.425897 0
M  V30 1997 C 190.107 -1.76738 -1.54275 0
M  V30 1998 C 191.123 -0.65211 -1.61318 0
M  V30 1999 O 192.299 -0.935654 -1.78346 0
M  V30 2000 C 189.364 -1.89755 -2.90162 0
M  V30 2001 C 188.425 -3.13633 -2.93143 0
M  V30 2002 C 187.658 -3.2602 -4.22548 0
M  V30 2003 O 187.881 -2.44067 -5.15546 0
M  V30 2004 O 186.815 -4.19071 -4.32046 0
M  V30 2005 H 190.641 -2.71502 -1.36089 0
M  V30 2006 H 188.226 -1.36376 -0.610069 0
M  V30 2007 H 190.108 -2.00236 -3.70788 0
M  V30 2008 H 188.783 -0.981785 -3.08452 0
M  V30 2009 H 187.69 -3.08622 -2.11431 0
M  V30 2010 H 189.023 -4.04936 -2.798 0
M  V30 2011 N 190.675 0.682077 -1.42076 0
M  V30 2012 C 191.924 1.43786 -1.41451 0
M  V30 2013 C 192.237 1.95574 -0.0317074 0
M  V30 2014 O 193.443 2.71326 0.0971462 0
M  V30 2015 C 191.899 2.60071 -2.48779 0
M  V30 2016 C 191.507 2.15013 -3.93031 0
M  V30 2017 C 193.251 3.37626 -2.57311 0
M  V30 2018 C 191.158 3.28336 -4.91883 0
M  V30 2019 H 190.088 0.540143 -0.526082 0
M  V30 2020 H 192.739 0.739157 -1.67955 0
M  V30 2021 H 191.121 3.32275 -2.15429 0
M  V30 2022 H 192.295 1.5001 -4.35699 0
M  V30 2023 H 190.61 1.50416 -3.88284 0
M  V30 2024 H 193.207 4.22012 -3.28345 0
M  V30 2025 H 193.55 3.83727 -1.61429 0
M  V30 2026 H 194.083 2.72488 -2.89819 0
M  V30 2027 H 190.822 2.87234 -5.89217 0
M  V30 2028 H 190.342 3.92145 -4.53853 0
M  V30 2029 H 192.021 3.93913 -5.13265 0
M  V30 2030 N 192.153 1.28127 0.917671 0
M  V30 2031 C 193.4 1.15052 1.66641 0
M  V30 2032 C 193.728 -0.301677 1.92146 0
M  V30 2033 O 192.983 -1.23622 1.51711 0
M  V30 2034 C 193.282 1.89018 3.03327 0
M  V30 2035 C 192.948 3.38832 2.97496 0
M  V30 2036 C 191.61 3.79693 2.95613 0
M  V30 2037 C 193.962 4.34378 2.88036 0
M  V30 2038 C 191.29 5.14447 2.82066 0
M  V30 2039 C 193.642 5.69201 2.7603 0
M  V30 2040 C 192.306 6.09343 2.72502 0
M  V30 2041 H 191.576 0.421006 0.609783 0
M  V30 2042 H 194.223 1.58855 1.06945 0
M  V30 2043 H 192.528 1.37752 3.66785 0
M  V30 2044 H 194.225 1.76321 3.60156 0
M  V30 2045 H 190.815 3.06342 2.99754 0
M  V30 2046 H 194.999 4.03775 2.88581 0
M  V30 2047 H 190.255 5.44681 2.77728 0
M  V30 2048 H 194.429 6.42901 2.67678 0
M  V30 2049 H 192.056 7.13712 2.61762 0
M  V30 2050 N 193.631 -1.12557 1.10312 0
M  V30 2051 C 194.877 -1.84311 0.846011 0
M  V30 2052 C 195.21 -1.83805 -0.626859 0
M  V30 2053 O 194.485 -1.28268 -1.46211 0
M  V30 2054 C 194.768 -3.32048 1.39341 0
M  V30 2055 C 194.621 -3.41016 2.93305 0
M  V30 2056 C 195.94 -4.27764 1.03468 0
M  V30 2057 H 193.059 -0.669192 0.30879 0
M  V30 2058 H 195.701 -1.32057 1.36605 0
M  V30 2059 H 193.851 -3.76678 0.951087 0
M  V30 2060 H 195.523 -3.05031 3.46055 0
M  V30 2061 H 193.766 -2.81603 3.29973 0
M  V30 2062 H 194.437 -4.44948 3.26689 0
M  V30 2063 H 196.913 -3.91253 1.41633 0
M  V30 2064 H 195.789 -5.29549 1.44463 0
M  V30 2065 H 196.05 -4.42064 -0.0560404 0
M  V30 2066 N 195.109 -0.891671 -1.2995 0
M  V30 2067 C 196.357 -0.512486 -1.95494 0
M  V30 2068 C 196.678 0.942776 -1.70695 0
M  V30 2069 O 195.948 1.66374 -1.03424 0
M  V30 2070 H 194.528 -0.186533 -0.723336 0
M  V30 2071 H 197.19 -1.13621 -1.58355 0
M  V30 2072 H 196.286 -0.688342 -3.04415 0
M  V30 2073 N 196.587 1.43421 -0.653314 0
M  V30 2074 C 197.52 2.2803 0.0879804 0
M  V30 2075 C 198.498 1.39833 0.82979 0
M  V30 2076 O 199.682 1.69275 0.829341 0
M  V30 2077 C 196.809 3.19247 1.13132 0
M  V30 2078 C 195.855 4.23704 0.487546 0
M  V30 2079 S 196.688 5.30377 -0.738961 0
M  V30 2080 C 197.844 6.25162 0.30384 0
M  V30 2081 H 198.077 2.90554 -0.629739 0
M  V30 2082 H 195.61 1.47934 -0.442156 0
M  V30 2083 H 197.568 3.72346 1.72827 0
M  V30 2084 H 196.229 2.55901 1.82136 0
M  V30 2085 H 195.422 4.87631 1.27407 0
M  V30 2086 H 195.024 3.73983 -0.0352915 0
M  V30 2087 H 197.316 6.67321 1.17 0
M  V30 2088 H 198.259 7.07463 -0.300402 0
M  V30 2089 H 198.667 5.60864 0.63969 0
M  V30 2090 N 198.065 0.39524 1.52563 0
M  V30 2091 C 199.29 -0.187456 2.06551 0
M  V30 2092 C 199.715 -1.39249 1.26457 0
M  V30 2093 O 199.073 -1.78947 0.291151 0
M  V30 2094 C 199.121 -0.529985 3.56684 0
M  V30 2095 O 198.225 -1.62307 3.79118 0
M  V30 2096 H 197.566 -0.0202537 0.663691 0
M  V30 2097 H 200.096 0.564426 1.96661 0
M  V30 2098 H 200.106 -0.792598 4.00227 0
M  V30 2099 H 198.781 0.350987 4.14416 0
M  V30 2100 H 197.358 -1.3537 3.47461 0
M  V30 2101 N 199.544 -1.57102 0.125237 0
M  V30 2102 C 200.769 -2.0019 -0.542101 0
M  V30 2103 C 201.194 -1.00449 -1.59034 0
M  V30 2104 O 200.552 0.0229423 -1.81285 0
M  V30 2105 C 200.6 -3.42129 -1.13929 0
M  V30 2106 O 199.704 -3.45307 -2.2547 0
M  V30 2107 H 199.045 -0.650171 -0.134812 0
M  V30 2108 H 201.575 -2.03461 0.215553 0
M  V30 2109 H 201.585 -3.80471 -1.4733 0
M  V30 2110 H 200.26 -4.14237 -0.371531 0
M  V30 2111 H 198.837 -3.1879 -1.93462 0
M  V30 2112 N 201.022 0.148545 -1.56898 0
M  V30 2113 C 202.271 0.85984 -1.82454 0
M  V30 2114 C 202.584 1.82406 -0.706229 0
M  V30 2115 O 203.79 2.57938 -0.847349 0
M  V30 2116 C 202.246 1.57967 -3.2338 0
M  V30 2117 C 201.854 0.65794 -4.43142 0
M  V30 2118 C 203.598 2.27784 -3.58211 0
M  V30 2119 C 201.505 1.3793 -5.75091 0
M  V30 2120 H 200.435 0.324834 -0.68044 0
M  V30 2121 H 203.086 0.112588 -1.83154 0
M  V30 2122 H 201.468 2.37249 -3.17063 0
M  V30 2123 H 202.642 -0.0995497 -4.60692 0
M  V30 2124 H 200.957 0.0682643 -4.16344 0
M  V30 2125 H 203.554 2.8239 -4.54048 0
M  V30 2126 H 203.897 3.04204 -2.84193 0
M  V30 2127 H 204.43 1.55421 -3.66182 0
M  V30 2128 H 201.169 0.656982 -6.52199 0
M  V30 2129 H 200.689 2.10954 -5.61479 0
M  V30 2130 H 202.368 1.92063 -6.17835 0
M  V30 2131 N 202.5 1.5196 0.417844 0
M  V30 2132 C 203.463 1.74065 1.49111 0
M  V30 2133 C 204.463 0.610537 1.48758 0
M  V30 2134 O 205.653 0.87832 1.50437 0
M  V30 2135 C 202.785 1.81502 2.88565 0
M  V30 2136 H 203.978 2.69869 1.30807 0
M  V30 2137 H 201.531 1.42244 0.647785 0
M  V30 2138 H 202.266 0.875813 3.1225 0
M  V30 2139 H 202.051 2.63651 2.90225 0
M  V30 2140 H 203.541 2.00376 3.66387 0
M  V30 2141 N 203.978 -0.674533 1.42435 0
M  V30 2142 C 204.908 -1.80009 1.48724 0
M  V30 2143 C 205.889 -1.6659 0.343793 0
M  V30 2144 O 207.074 -1.86007 0.558137 0
M  V30 2145 C 204.204 -3.18306 1.38919 0
M  V30 2146 C 203.158 -3.46461 2.51294 0
M  V30 2147 C 202.484 -4.84335 2.26547 0
M  V30 2148 C 203.784 -3.43328 3.93603 0
M  V30 2149 H 205.478 -1.75004 2.42928 0
M  V30 2150 H 203.024 -0.840533 1.16923 0
M  V30 2151 H 204.977 -3.9678 1.41927 0
M  V30 2152 H 203.701 -3.2399 0.412094 0
M  V30 2153 H 202.36 -2.70348 2.47604 0
M  V30 2154 H 202.008 -4.86669 1.2713 0
M  V30 2155 H 201.708 -5.04136 3.01861 0
M  V30 2156 H 203.232 -5.65094 2.31304 0
M  V30 2157 H 204.646 -4.11772 3.98894 0
M  V30 2158 H 203.043 -3.74664 4.68771 0
M  V30 2159 H 204.113 -2.41897 4.20255 0
M  V30 2160 N 205.456 -1.28612 -0.910864 0
M  V30 2161 C 206.419 -1.12803 -1.9952 0
M  V30 2162 C 207.419 -0.0668264 -1.60661 0
M  V30 2163 O 208.609 -0.312847 -1.71368 0
M  V30 2164 C 205.741 -0.72254 -3.33155 0
M  V30 2165 H 206.934 -2.09109 -2.14973 0
M  V30 2166 H 204.487 -1.11639 -1.09391 0
M  V30 2167 H 205.222 0.241152 -3.23402 0
M  V30 2168 H 205.007 -1.48916 -3.62721 0
M  V30 2169 H 206.497 -0.634666 -4.12749 0
M  V30 2170 N 206.934 1.1197 -1.10907 0
M  V30 2171 C 208.162 1.87402 -0.876824 0
M  V30 2172 C 208.577 1.79894 0.573025 0
M  V30 2173 O 207.934 1.17629 1.39534 0
M  V30 2174 C 207.985 3.36428 -1.32282 0
M  V30 2175 O 207.706 3.43765 -2.71582 0
M  V30 2176 C 209.207 4.28783 -1.12518 0
M  V30 2177 H 206.427 0.592793 -0.314384 0
M  V30 2178 H 208.971 1.41649 -1.47499 0
M  V30 2179 H 207.126 3.79706 -0.768229 0
M  V30 2180 H 207.54 4.3652 -2.90776 0
M  V30 2181 H 209.014 5.31613 -1.48633 0
M  V30 2182 H 209.491 4.39153 -0.0642394 0
M  V30 2183 H 210.097 3.91291 -1.66648 0
M  V30 2184 N 208.412 0.89855 1.29475 0
M  V30 2185 C 209.66 0.522847 1.9522 0
M  V30 2186 C 209.981 -0.93371 1.71192 0
M  V30 2187 O 209.251 -1.65823 1.04305 0
M  V30 2188 H 207.831 0.190366 0.722336 0
M  V30 2189 H 210.493 1.14459 1.5775 0
M  V30 2190 H 209.589 0.704476 3.04045 0
M  V30 2191 N 209.89 -1.43072 0.660911 0
M  V30 2192 C 210.82 -2.33497 -0.0122829 0
M  V30 2193 C 211.801 -1.49903 -0.803925 0
M  V30 2194 O 212.986 -1.78546 -0.763864 0
M  V30 2195 C 210.116 -3.33363 -0.973994 0
M  V30 2196 C 209.07 -4.27003 -0.291928 0
M  V30 2197 C 208.396 -5.16967 -1.36562 0
M  V30 2198 C 209.696 -5.15816 0.820462 0
M  V30 2199 H 211.39 -2.90038 0.742873 0
M  V30 2200 H 208.936 -1.39461 0.358688 0
M  V30 2201 H 210.889 -3.95524 -1.45392 0
M  V30 2202 H 209.613 -2.75095 -1.7604 0
M  V30 2203 H 208.272 -3.66217 0.167623 0
M  V30 2204 H 207.92 -4.55034 -2.14366 0
M  V30 2205 H 207.62 -5.80441 -0.914454 0
M  V30 2206 H 209.144 -5.82003 -1.84675 0
M  V30 2207 H 210.558 -5.71742 0.422366 0
M  V30 2208 H 208.955 -5.8805 1.19656 0
M  V30 2209 H 210.025 -4.55045 1.67518 0
M  V30 2210 N 211.368 -0.403325 -1.52352 0
M  V30 2211 C 212.617 0.175668 -2.00934 0
M  V30 2212 C 212.93 1.46718 -1.29356 0
M  V30 2213 O 214.136 2.12708 -1.68724 0
M  V30 2214 C 212.592 0.363612 -3.58058 0
M  V30 2215 C 212.2 -0.915472 -4.38547 0
M  V30 2216 C 213.944 0.89821 -4.14888 0
M  V30 2217 C 211.851 -0.695035 -5.87302 0
M  V30 2218 H 210.781 0.0694234 -0.750797 0
M  V30 2219 H 213.432 -0.527879 -1.75743 0
M  V30 2220 H 211.814 1.12935 -3.79555 0
M  V30 2221 H 212.988 -1.68691 -4.28812 0
M  V30 2222 H 211.303 -1.37606 -3.93006 0
M  V30 2223 H 213.9 1.07907 -5.23699 0
M  V30 2224 H 214.243 1.87126 -3.71873 0
M  V30 2225 H 214.776 0.191681 -3.97338 0
M  V30 2226 H 211.515 -1.63948 -6.34666 0
M  V30 2227 H 211.035 0.0372116 -5.99788 0
M  V30 2228 H 212.714 -0.33497 -6.46132 0
M  V30 2229 N 212.846 1.57033 -0.133567 0
M  V30 2230 C 214.093 1.95686 0.520877 0
M  V30 2231 C 214.421 1.0177 1.6575 0
M  V30 2232 O 213.676 0.0443195 1.9565 0
M  V30 2233 C 213.975 3.40674 1.08057 0
M  V30 2234 C 213.641 4.50855 0.0637899 0
M  V30 2235 C 212.303 4.80716 -0.215757 0
M  V30 2236 C 214.655 5.17398 -0.62835 0
M  V30 2237 C 211.983 5.74433 -1.19348 0
M  V30 2238 C 214.335 6.12167 -1.5948 0
M  V30 2239 C 212.999 6.40414 -1.88218 0
M  V30 2240 H 212.269 0.716067 0.190602 0
M  V30 2241 H 214.916 1.9026 -0.217556 0
M  V30 2242 H 213.221 3.42865 1.89606 0
M  V30 2243 H 214.918 3.67902 1.59529 0
M  V30 2244 H 211.508 4.27605 0.291855 0
M  V30 2245 H 215.692 4.94472 -0.425562 0
M  V30 2246 H 210.948 5.94616 -1.42272 0
M  V30 2247 H 215.122 6.6281 -2.13671 0
M  V30 2248 H 212.749 7.12838 -2.64133 0
M  V30 2249 N 214.325 -0.140222 1.56975 0
M  V30 2250 C 215.288 -1.15689 1.97861 0
M  V30 2251 C 216.288 -1.3549 0.865974 0
M  V30 2252 O 217.478 -1.32367 1.13246 0
M  V30 2253 C 214.61 -2.51582 2.30042 0
M  V30 2254 H 215.803 -0.805971 2.88867 0
M  V30 2255 H 213.356 -0.383801 1.51515 0
M  V30 2256 H 214.091 -2.91632 1.41849 0
M  V30 2257 H 213.876 -2.38569 3.11171 0
M  V30 2258 H 215.366 -3.24792 2.62488 0
M  V30 2259 N 215.803 -1.52179 -0.40978 0
M  V30 2260 C 217.219 -1.40968 -0.74835 0
M  V30 2261 C 217.419 -0.513657 -1.94843 0
M  V30 2262 O 216.475 0.0208026 -2.52491 0
M  V30 2263 C 217.788 -2.83483 -1.0029 0
M  V30 2264 C 219.336 -2.92821 -1.10565 0
M  V30 2265 C 219.811 -4.36303 -1.39296 0
M  V30 2266 N 221.302 -4.39535 -1.46162 0
M  V30 2267 C 222.037 -5.47614 -1.70018 0
M  V30 2268 N 221.533 -6.65812 -1.91483 0
M  V30 2269 N 223.326 -5.35129 -1.72027 0
M  V30 2270 H 215.477 -2.0897 0.380186 0
M  V30 2271 H 217.74 -0.94185 0.107805 0
M  V30 2272 H 217.446 -3.51168 -0.193461 0
M  V30 2273 H 217.32 -3.24487 -1.92323 0
M  V30 2274 H 219.707 -2.25318 -1.90568 0
M  V30 2275 H 219.788 -2.55276 -0.16369 0
M  V30 2276 H 219.432 -5.04366 -0.598109 0
M  V30 2277 H 219.362 -4.71385 -2.34743 0
M  V30 2278 H 221.853 -3.54332 -1.31367 0
M  V30 2279 H 222.166 -7.43964 -2.09134 0
M  V30 2280 H 220.511 -6.68879 -1.88749 0
M  V30 2281 H 223.702 -4.41764 -1.54796 0
M  V30 2282 H 223.875 -6.19433 -1.9028 0
M  V30 2283 N 217.281 0.66697 -1.42791 0
M  V30 2284 C 218.528 1.42699 -1.43678 0
M  V30 2285 C 218.856 1.94419 -0.0560425 0
M  V30 2286 O 218.111 1.7182 0.936831 0
M  V30 2287 C 218.41 2.6349 -2.4147 0
M  V30 2288 C 218.076 2.30267 -3.8767 0
M  V30 2289 C 216.738 2.20918 -4.27491 0
M  V30 2290 C 219.09 2.03435 -4.79858 0
M  V30 2291 C 216.418 1.82873 -5.57471 0
M  V30 2292 C 218.77 1.66892 -6.10188 0
M  V30 2293 C 217.434 1.56058 -6.49001 0
M  V30 2294 H 216.704 0.522171 -0.525755 0
M  V30 2295 H 219.351 0.759785 -1.75783 0
M  V30 2296 H 217.656 3.35279 -2.0272 0
M  V30 2297 H 219.353 3.21684 -2.39417 0
M  V30 2298 H 215.943 2.38449 -3.56146 0
M  V30 2299 H 220.127 2.09586 -4.49875 0
M  V30 2300 H 215.383 1.7306 -5.86396 0
M  V30 2301 H 219.557 1.45157 -6.81104 0
M  V30 2302 H 217.184 1.26348 -7.49627 0
M  V30 2303 N 218.759 1.29093 0.90403 0
M  V30 2304 C 219.984 1.19809 1.69294 0
M  V30 2305 C 220.409 -0.238481 1.86582 0
M  V30 2306 O 219.767 -1.1723 1.383 0
M  V30 2307 C 219.815 1.91202 3.05736 0
M  V30 2308 O 218.919 1.22611 3.93752 0
M  V30 2309 H 218.26 0.415385 0.518027 0
M  V30 2310 H 220.79 1.70586 1.12967 0
M  V30 2311 H 220.8 1.99487 3.55906 0
M  V30 2312 H 219.475 2.95692 2.92471 0
M  V30 2313 H 218.052 1.22554 3.52186 0
M  V30 2314 N 220.237 -1.11381 1.11499 0
M  V30 2315 C 221.653 -1.35143 0.849031 0
M  V30 2316 C 221.853 -1.94515 -0.525938 0
M  V30 2317 O 220.909 -2.1785 -1.27662 0
M  V30 2318 C 222.222 -2.28249 1.95762 0
M  V30 2319 C 223.77 -2.41812 1.98736 0
M  V30 2320 C 224.245 -3.3824 3.088 0
M  V30 2321 N 225.736 -3.45803 3.08179 0
M  V30 2322 C 226.471 -4.20358 3.89982 0
M  V30 2323 N 225.967 -4.97884 4.8175 0
M  V30 2324 N 227.76 -4.15877 3.78157 0
M  V30 2325 H 219.911 -0.712062 2.00109 0
M  V30 2326 H 222.174 -0.376025 0.870235 0
M  V30 2327 H 221.88 -1.91817 2.94787 0
M  V30 2328 H 221.754 -3.28473 1.85433 0
M  V30 2329 H 224.141 -2.77518 1.00338 0
M  V30 2330 H 224.222 -1.41437 2.13141 0
M  V30 2331 H 223.866 -3.03261 4.07425 0
M  V30 2332 H 223.796 -4.38471 2.91635 0
M  V30 2333 H 226.287 -2.90506 2.41691 0
M  V30 2334 H 226.6 -5.52142 5.40702 0
M  V30 2335 H 224.945 -4.97043 4.85771 0
M  V30 2336 H 228.136 -3.544 3.05808 0
M  V30 2337 H 228.309 -4.73723 4.42143 0
M  V30 2338 N 221.715 -0.905404 -1.28997 0
M  V30 2339 C 223.126 -0.581953 -1.77398 0
M  V30 2340 C 223.477 0.902552 -1.74208 0
M  V30 2341 O 222.602 1.70584 -1.33154 0
M  V30 2342 C 223.197 -1.04961 -3.22131 0
M  V30 2343 C 221.756 -0.777229 -3.68288 0
M  V30 2344 C 220.903 -1.22109 -2.48967 0
M  V30 2345 H 223.854 -1.08754 -1.15578 0
M  V30 2346 H 223.875 -0.387387 -3.78523 0
M  V30 2347 H 223.387 -2.13008 -3.24421 0
M  V30 2348 H 221.488 0.290383 -3.71467 0
M  V30 2349 H 221.601 -1.37911 -4.58822 0
M  V30 2350 H 219.965 -0.639971 -2.46529 0
M  V30 2351 H 220.748 -2.30972 -2.53982 0
M  V30 2352 N 223.193 1.4272 -0.668489 0
M  V30 2353 C 224.143 2.27971 0.0363806 0
M  V30 2354 C 225.127 1.40741 0.779794 0
M  V30 2355 O 226.319 1.64245 0.659745 0
M  V30 2356 C 223.448 3.28673 0.991398 0
M  V30 2357 C 222.534 4.23388 0.245658 0
M  V30 2358 N 222.925 5.00267 -0.746069 0
M  V30 2359 C 221.223 4.43355 0.484988 0
M  V30 2360 C 221.924 5.69396 -1.19009 0
M  V30 2361 N 220.9 5.41095 -0.521287 0
M  V30 2362 H 224.702 2.84833 -0.724394 0
M  V30 2363 H 222.216 1.54607 -0.497028 0
M  V30 2364 H 224.213 3.88543 1.51129 0
M  V30 2365 H 222.873 2.73373 1.75207 0
M  V30 2366 H 223.884 5.05525 -1.12537 0
M  V30 2367 H 220.561 3.99104 1.22565 0
M  V30 2368 H 221.951 6.41083 -2.01153 0
M  V30 2369 N 224.671 0.411399 1.52136 0
M  V30 2370 C 225.634 -0.401089 2.25663 0
M  V30 2371 C 226.634 -0.971732 1.28117 0
M  V30 2372 O 227.824 -0.850254 1.52041 0
M  V30 2373 C 224.956 -1.56483 3.02863 0
M  V30 2374 H 226.149 0.24295 2.98914 0
M  V30 2375 H 223.702 0.163968 1.55438 0
M  V30 2376 H 224.437 -2.24567 2.33967 0
M  V30 2377 H 224.222 -1.16211 3.74483 0
M  V30 2378 H 225.712 -2.13951 3.58629 0
M  V30 2379 N 226.149 -1.5696 0.141893 0
M  V30 2380 C 227.096 -2.16501 -0.799737 0
M  V30 2381 C 228.066 -1.09643 -1.24771 0
M  V30 2382 O 229.251 -1.3766 -1.32115 0
M  V30 2383 C 226.391 -2.78679 -2.03549 0
M  V30 2384 C 225.504 -3.99914 -1.6338 0
M  V30 2385 C 224.639 -4.50106 -2.82096 0
M  V30 2386 C 223.678 -5.63819 -2.38275 0
M  V30 2387 N 222.815 -6.08651 -3.49983 0
M  V30 2388 H 227.655 -2.96632 -0.285179 0
M  V30 2389 H 225.192 -1.46533 -0.129053 0
M  V30 2390 H 227.15 -3.1287 -2.75986 0
M  V30 2391 H 225.78 -2.012 -2.52425 0
M  V30 2392 H 224.832 -3.71735 -0.807279 0
M  V30 2393 H 226.144 -4.82311 -1.27192 0
M  V30 2394 H 225.298 -4.86325 -3.62729 0
M  V30 2395 H 224.037 -3.66706 -3.21525 0
M  V30 2396 H 223.042 -5.2718 -1.56081 0
M  V30 2397 H 224.267 -6.49 -1.99938 0
M  V30 2398 H 222.213 -5.28188 -3.89042 0
M  V30 2399 H 222.13 -6.85961 -3.17794 0
M  V30 2400 H 223.398 -6.49515 -4.30988 0
M  V30 2401 N 227.627 0.131896 -1.57047 0
M  V30 2402 C 228.876 0.84044 -1.83356 0
M  V30 2403 C 229.189 1.81646 -0.725535 0
M  V30 2404 O 230.395 2.57025 -0.874659 0
M  V30 2405 C 228.851 1.54528 -3.25037 0
M  V30 2406 C 228.459 0.610902 -4.43815 0
M  V30 2407 C 230.203 2.23972 -3.60606 0
M  V30 2408 C 228.11 1.31823 -5.76521 0
M  V30 2409 H 227.04 0.317599 -0.683847 0
M  V30 2410 H 229.691 0.0931561 -1.83263 0
M  V30 2411 H 228.073 2.33873 -3.19561 0
M  V30 2412 H 229.247 -0.148407 -4.60561 0
M  V30 2413 H 227.562 0.0241016 -4.16393 0
M  V30 2414 H 230.159 2.77558 -4.57018 0
M  V30 2415 H 230.502 3.01173 -2.87403 0
M  V30 2416 H 231.035 1.51529 -3.6781 0
M  V30 2417 H 227.774 0.587771 -6.52859 0
M  V30 2418 H 227.294 2.04987 -5.63685 0
M  V30 2419 H 228.973 1.855 -6.19838 0
M  V30 2420 N 229.106 1.52395 0.401703 0
M  V30 2421 C 230.039 1.70999 1.51111 0
M  V30 2422 C 231.017 0.55765 1.52738 0
M  V30 2423 O 232.201 0.785912 1.71335 0
M  V30 2424 C 229.328 1.75607 2.8962 0
M  V30 2425 C 228.374 2.97227 3.05873 0
M  V30 2426 S 229.207 4.57439 2.78405 0
M  V30 2427 C 230.363 4.64844 4.19131 0
M  V30 2428 H 230.596 2.6483 1.35102 0
M  V30 2429 H 228.129 1.42527 0.593762 0
M  V30 2430 H 230.087 1.78947 3.69443 0
M  V30 2431 H 228.748 0.828914 3.02965 0
M  V30 2432 H 227.941 2.96955 4.07227 0
M  V30 2433 H 227.543 2.91813 2.33925 0
M  V30 2434 H 229.835 4.42677 5.12877 0
M  V30 2435 H 230.778 5.66807 4.24424 0
M  V30 2436 H 231.186 3.93804 4.04448 0
M  V30 2437 N 230.584 -0.659388 1.43143 0
M  V30 2438 C 231.831 -1.41935 1.44433 0
M  V30 2439 C 232.159 -1.94387 0.0663522 0
M  V30 2440 O 231.414 -1.72314 -0.927706 0
M  V30 2441 C 231.713 -2.62206 2.42864 0
M  V30 2442 C 231.379 -2.28208 3.88886 0
M  V30 2443 C 230.041 -2.18647 4.28657 0
M  V30 2444 C 232.393 -2.00887 4.8093 0
M  V30 2445 C 229.721 -1.79914 5.58433 0
M  V30 2446 C 232.073 -1.63653 6.11065 0
M  V30 2447 C 230.737 -1.52614 6.49819 0
M  V30 2448 H 230.007 -0.519376 0.528517 0
M  V30 2449 H 232.654 -0.750453 1.76183 0
M  V30 2450 H 230.959 -3.34199 2.04495 0
M  V30 2451 H 232.656 -3.2041 2.41119 0
M  V30 2452 H 229.246 -2.36557 3.57406 0
M  V30 2453 H 233.43 -2.07198 4.5098 0
M  V30 2454 H 228.686 -1.69948 5.87305 0
M  V30 2455 H 232.86 -1.41543 6.81864 0
M  V30 2456 H 230.487 -1.22371 7.50286 0
M  V30 2457 N 232.062 -1.29571 -0.897171 0
M  V30 2458 C 233.025 -1.14913 -1.98312 0
M  V30 2459 C 234.025 -0.0838629 -1.60581 0
M  V30 2460 O 235.215 -0.331006 -1.71026 0
M  V30 2461 C 232.347 -0.757835 -3.3237 0
M  V30 2462 H 233.54 -2.11377 -2.12743 0
M  V30 2463 H 231.093 -1.12793 -1.08201 0
M  V30 2464 H 231.828 0.206837 -3.2364 0
M  V30 2465 H 231.613 -1.52755 -3.61121 0
M  V30 2466 H 233.103 -0.678408 -4.12053 0
M  V30 2467 N 233.54 1.10788 -1.12088 0
M  V30 2468 C 234.956 1.34691 -0.856186 0
M  V30 2469 C 235.156 1.94791 0.515615 0
M  V30 2470 O 234.212 2.18524 1.26505 0
M  V30 2471 C 235.525 2.27208 -1.9697 0
M  V30 2472 C 237.073 2.40755 -2.00016 0
M  V30 2473 C 237.548 3.36598 -3.1059 0
M  V30 2474 N 239.039 3.44164 -3.10008 0
M  V30 2475 C 239.774 4.18284 -3.92206 0
M  V30 2476 N 239.27 4.95322 -4.84384 0
M  V30 2477 N 241.063 4.13865 -3.80357 0
M  V30 2478 H 233.214 0.70144 -2.00483 0
M  V30 2479 H 235.477 0.371405 -0.872217 0
M  V30 2480 H 235.183 1.90251 -2.958 0
M  V30 2481 H 235.057 3.27485 -1.87172 0
M  V30 2482 H 237.444 2.76982 -1.01808 0
M  V30 2483 H 237.525 1.40305 -2.13888 0
M  V30 2484 H 237.169 3.01096 -4.09028 0
M  V30 2485 H 237.099 4.36918 -2.93956 0
M  V30 2486 H 239.59 2.8922 -2.43228 0
M  V30 2487 H 239.903 5.49267 -5.43623 0
M  V30 2488 H 238.248 4.94459 -4.884 0
M  V30 2489 H 241.439 3.52773 -3.07683 0
M  V30 2490 H 241.612 4.71372 -4.44649 0
M  V30 2491 N 235.018 0.912232 1.28515 0
M  V30 2492 C 236.248 0.559604 1.98877 0
M  V30 2493 C 236.656 -0.863113 1.68366 0
M  V30 2494 O 235.999 -1.58304 0.931969 0
M  V30 2495 C 236.061 0.68703 3.52874 0
M  V30 2496 C 235.725 2.07901 4.06972 0
M  V30 2497 C 236.722 3.05157 4.20922 0
M  V30 2498 C 234.407 2.39178 4.417 0
M  V30 2499 C 236.401 4.31806 4.68852 0
M  V30 2500 C 234.088 3.66068 4.89324 0
M  V30 2501 C 235.086 4.62195 5.02856 0
M  V30 2502 O 234.774 5.86829 5.49442 0
M  V30 2503 H 234.506 0.212191 0.641834 0
M  V30 2504 H 237.06 1.22712 1.64715 0
M  V30 2505 H 235.29 -0.0375486 3.86682 0
M  V30 2506 H 236.979 0.341727 4.04459 0
M  V30 2507 H 237.745 2.82311 3.94367 0
M  V30 2508 H 233.624 1.65109 4.30418 0
M  V30 2509 H 237.168 5.06842 4.79329 0
M  V30 2510 H 233.065 3.88739 5.15318 0
M  V30 2511 H 233.833 5.89597 5.6773 0
M  V30 2512 N 236.496 -1.42363 0.676048 0
M  V30 2513 C 237.459 -2.29199 0.00766941 0
M  V30 2514 C 238.459 -1.43389 -0.727745 0
M  V30 2515 O 239.649 -1.64764 -0.56556 0
M  V30 2516 C 236.781 -3.2591 -0.999785 0
M  V30 2517 H 237.974 -2.89794 0.771988 0
M  V30 2518 H 235.527 -1.50024 0.438468 0
M  V30 2519 H 236.262 -2.70256 -1.79255 0
M  V30 2520 H 236.047 -3.89202 -0.475829 0
M  V30 2521 H 237.537 -3.91028 -1.46583 0
M  V30 2522 N 237.974 -0.419461 -1.51915 0
M  V30 2523 C 239.22 0.153166 -2.02221 0
M  V30 2524 C 239.553 1.43907 -1.30401 0
M  V30 2525 O 238.828 1.90055 -0.413438 0
M  V30 2526 C 239.111 0.390291 -3.57979 0
M  V30 2527 C 238.964 -0.913014 -4.40436 0
M  V30 2528 C 240.283 1.16794 -4.2432 0
M  V30 2529 H 237.402 0.0541924 -0.735005 0
M  V30 2530 H 240.044 -0.554955 -1.81715 0
M  V30 2531 H 238.194 0.993491 -3.75582 0
M  V30 2532 H 239.866 -1.54882 -4.34522 0
M  V30 2533 H 238.109 -1.52168 -4.06236 0
M  V30 2534 H 238.78 -0.701361 -5.47526 0
M  V30 2535 H 241.256 0.657161 -4.10878 0
M  V30 2536 H 240.132 1.3026 -5.3322 0
M  V30 2537 H 240.393 2.19132 -3.83971 0
M  V30 2538 N 239.452 1.56882 -0.150215 0
M  V30 2539 C 240.701 1.95403 0.500071 0
M  V30 2540 C 241.014 1.03777 1.658 0
M  V30 2541 O 242.22 1.31889 2.37313 0
M  V30 2542 C 240.676 3.4738 0.941018 0
M  V30 2543 C 240.284 4.47596 -0.190158 0
M  V30 2544 C 242.028 3.9476 1.56091 0
M  V30 2545 C 239.935 5.90787 0.269237 0
M  V30 2546 H 238.865 0.729515 0.190588 0
M  V30 2547 H 241.516 1.81988 -0.235074 0
M  V30 2548 H 239.898 3.56138 1.73152 0
M  V30 2549 H 241.072 4.50536 -0.967157 0
M  V30 2550 H 239.387 4.10151 -0.718666 0
M  V30 2551 H 241.984 4.99181 1.9163 0
M  V30 2552 H 242.327 3.36494 2.45107 0
M  V30 2553 H 242.86 3.88932 0.835249 0
M  V30 2554 H 239.599 6.52879 -0.585621 0
M  V30 2555 H 239.119 5.912 1.01204 0
M  V30 2556 H 240.798 6.42979 0.720176 0
M  V30 2557 N 240.93 -0.123565 1.57115 0
M  V30 2558 C 242.346 -0.476961 1.52306 0
M  V30 2559 C 242.546 -1.82109 0.86248 0
M  V30 2560 O 241.602 -2.48586 0.442884 0
M  V30 2561 C 242.915 -0.465661 2.97073 0
M  V30 2562 C 244.463 -0.549534 3.08138 0
M  V30 2563 C 244.938 -0.568669 4.54456 0
M  V30 2564 N 246.429 -0.630237 4.58892 0
M  V30 2565 C 247.164 -0.666415 5.69514 0
M  V30 2566 N 246.66 -0.660514 6.89644 0
M  V30 2567 N 248.453 -0.709077 5.5761 0
M  V30 2568 H 240.604 0.757198 1.98445 0
M  V30 2569 H 242.867 0.278808 0.906074 0
M  V30 2570 H 242.573 0.454232 3.48754 0
M  V30 2571 H 242.447 -1.29513 3.54269 0
M  V30 2572 H 244.834 -1.45985 2.56461 0
M  V30 2573 H 244.915 0.307532 2.53945 0
M  V30 2574 H 244.559 0.337581 5.06777 0
M  V30 2575 H 244.489 -1.44256 5.06456 0
M  V30 2576 H 246.98 -0.641146 3.72421 0
M  V30 2577 H 247.293 -0.690616 7.69708 0
M  V30 2578 H 245.638 -0.628012 6.92157 0
M  V30 2579 H 248.829 -0.711019 4.62668 0
M  V30 2580 H 249.002 -0.733804 6.43832 0
M  V30 2581 N 242.408 -1.52605 -0.393616 0
M  V30 2582 C 243.819 -1.59417 -0.971761 0
M  V30 2583 C 244.17 -0.444173 -1.91106 0
M  V30 2584 O 243.295 0.433382 -2.12016 0
M  V30 2585 C 243.89 -2.88936 -1.76921 0
M  V30 2586 C 242.449 -2.98175 -2.29714 0
M  V30 2587 C 241.596 -2.54491 -1.10135 0
M  V30 2588 H 244.547 -1.57751 -0.173317 0
M  V30 2589 H 244.568 -2.75163 -2.62804 0
M  V30 2590 H 244.08 -3.72616 -1.08532 0
M  V30 2591 H 242.181 -2.19024 -3.01429 0
M  V30 2592 H 242.294 -4.02726 -2.59517 0
M  V30 2593 H 240.658 -2.08702 -1.45999 0
M  V30 2594 H 241.441 -3.4056 -0.432874 0
M  V30 2595 N 243.887 0.651787 -1.4349 0
M  V30 2596 C 244.817 1.77621 -1.51569 0
M  V30 2597 C 245.798 1.66022 -0.370253 0
M  V30 2598 O 246.983 1.85095 -0.587658 0
M  V30 2599 C 244.113 3.16056 -1.43966 0
M  V30 2600 C 243.067 3.4242 -2.56774 0
M  V30 2601 C 242.393 4.8067 -2.34223 0
M  V30 2602 C 243.693 3.37023 -3.99015 0
M  V30 2603 H 245.387 1.71117 -2.45681 0
M  V30 2604 H 242.933 0.821825 -1.18246 0
M  V30 2605 H 244.886 3.94472 -1.48221 0
M  V30 2606 H 243.61 3.23293 -0.463586 0
M  V30 2607 H 242.269 2.66375 -2.51873 0
M  V30 2608 H 241.917 4.84585 -1.34856 0
M  V30 2609 H 241.617 4.9927 -3.09844 0
M  V30 2610 H 243.141 5.61342 -2.40265 0
M  V30 2611 H 244.555 4.05374 -4.05395 0
M  V30 2612 H 242.952 3.67159 -4.74673 0
M  V30 2613 H 244.022 2.3518 -4.2405 0
M  V30 2614 N 245.365 1.30045 0.890287 0
M  V30 2615 C 246.642 1.09227 1.62262 0
M  V30 2616 C 247.022 -0.360305 2.08002 0
M  V30 2617 O 246.37 -1.35084 1.84295 0
M  V30 2618 C 246.58 2.08835 2.79623 0
M  V30 2619 C 247.928 2.40266 3.50082 0
M  V30 2620 O 248.952 2.07104 2.89804 0
M  V30 2621 O 247.811 2.96967 4.58773 0
M  V30 2622 H 244.905 0.419132 0.712922 0
M  V30 2623 H 247.451 1.41451 0.937529 0
M  V30 2624 H 246.223 3.06633 2.43089 0
M  V30 2625 H 245.846 1.77397 3.55832 0
M  V30 2626 N 246.843 -1.10192 1.12674 0
M  V30 2627 C 248.091 -1.81845 0.881861 0
M  V30 2628 C 248.412 -1.85737 -0.593867 0
M  V30 2629 O 247.682 -1.33724 -1.4316 0
M  V30 2630 H 246.262 -0.673432 0.323261 0
M  V30 2631 H 248.924 -1.33316 1.42172 0
M  V30 2632 H 248.02 -2.85288 1.2656 0
M  V30 2633 N 248.321 -0.919034 -1.28029 0
M  V30 2634 C 249.737 -0.617972 -1.4715 0
M  V30 2635 C 249.937 0.835242 -1.83374 0
M  V30 2636 O 248.993 1.61388 -1.94191 0
M  V30 2637 C 250.306 -1.56041 -2.57044 0
M  V30 2638 C 251.854 -1.56769 -2.7091 0
M  V30 2639 C 252.329 -2.49688 -3.83953 0
M  V30 2640 N 253.82 -2.47845 -3.91314 0
M  V30 2641 C 254.555 -3.16437 -4.78179 0
M  V30 2642 N 254.051 -3.94376 -5.69596 0
M  V30 2643 N 255.844 -3.05498 -4.71834 0
M  V30 2644 H 247.995 -1.85866 -1.02798 0
M  V30 2645 H 250.258 -0.797506 -0.512531 0
M  V30 2646 H 249.964 -2.59671 -2.372 0
M  V30 2647 H 249.838 -1.29551 -3.54255 0
M  V30 2648 H 252.225 -0.538745 -2.90141 0
M  V30 2649 H 252.306 -1.87305 -1.74214 0
M  V30 2650 H 251.95 -3.52688 -3.65477 0
M  V30 2651 H 251.88 -2.16453 -4.80058 0
M  V30 2652 H 254.371 -1.91234 -3.25941 0
M  V30 2653 H 254.684 -4.43721 -6.32718 0
M  V30 2654 H 253.029 -3.98481 -5.69419 0
M  V30 2655 H 256.22 -2.44108 -3.99411 0
M  V30 2656 H 256.393 -3.59225 -5.39316 0
M  V30 2657 N 249.799 1.42003 -0.683588 0
M  V30 2658 C 250.732 2.28166 0.039592 0
M  V30 2659 C 251.71 1.41562 0.799942 0
M  V30 2660 O 252.894 1.70997 0.793248 0
M  V30 2661 C 250.021 3.21575 1.06335 0
M  V30 2662 C 249.067 4.24643 0.397562 0
M  V30 2663 S 249.9 5.2869 -0.851296 0
M  V30 2664 C 251.056 6.25666 0.171166 0
M  V30 2665 H 251.289 2.89153 -0.691229 0
M  V30 2666 H 248.822 1.46962 -0.473435 0
M  V30 2667 H 250.78 3.75928 1.6489 0
M  V30 2668 H 249.441 2.59707 1.76667 0
M  V30 2669 H 248.634 4.90223 1.17035 0
M  V30 2670 H 248.236 3.73824 -0.114611 0
M  V30 2671 H 250.528 6.69653 1.02819 0
M  V30 2672 H 251.471 7.06666 -0.450397 0
M  V30 2673 H 251.879 5.62095 0.520578 0
M  V30 2674 N 251.277 0.427512 1.51691 0
M  V30 2675 C 252.505 -0.141191 2.06418 0
M  V30 2676 C 252.92 -1.37303 1.29589 0
M  V30 2677 O 252.277 -1.79059 0.352732 0
M  V30 2678 C 252.328 -0.473266 3.58389 0
M  V30 2679 O 252.049 0.709673 4.32314 0
M  V30 2680 C 253.55 -1.09371 4.29596 0
M  V30 2681 H 250.77 -0.0122747 0.670888 0
M  V30 2682 H 253.314 0.603764 1.95384 0
M  V30 2683 H 251.469 -1.16812 3.69369 0
M  V30 2684 H 251.883 0.42807 5.2275 0
M  V30 2685 H 253.357 -1.27613 5.37046 0
M  V30 2686 H 253.834 -2.072 3.87253 0
M  V30 2687 H 254.44 -0.43853 4.23033 0
M  V30 2688 N 252.755 -1.56801 0.158532 0
M  V30 2689 C 253.685 -2.20347 -0.772609 0
M  V30 2690 C 254.666 -1.15518 -1.24859 0
M  V30 2691 O 255.851 -1.43902 -1.30406 0
M  V30 2692 C 252.981 -2.83417 -2.00729 0
M  V30 2693 C 251.935 -3.94174 -1.66765 0
M  V30 2694 C 251.261 -4.44233 -2.97592 0
M  V30 2695 C 252.561 -5.14392 -0.905447 0
M  V30 2696 H 254.255 -2.98413 -0.242959 0
M  V30 2697 H 251.801 -1.43537 -0.115419 0
M  V30 2698 H 253.754 -3.26543 -2.6636 0
M  V30 2699 H 252.478 -2.02701 -2.56086 0
M  V30 2700 H 251.137 -3.51684 -1.03508 0
M  V30 2701 H 250.785 -3.60325 -3.50963 0
M  V30 2702 H 250.485 -5.18945 -2.75626 0
M  V30 2703 H 252.009 -4.90037 -3.64274 0
M  V30 2704 H 253.423 -5.5429 -1.46408 0
M  V30 2705 H 251.82 -5.9494 -0.7853 0
M  V30 2706 H 252.89 -4.84795 0.100668 0
M  V30 2707 N 254.233 0.115231 -1.57178 0
M  V30 2708 C 255.166 1.17166 -1.95825 0
M  V30 2709 C 256.144 1.39912 -0.828463 0
M  V30 2710 O 257.328 1.54004 -1.08697 0
M  V30 2711 C 254.455 2.52478 -2.25771 0
M  V30 2712 C 253.501 2.46136 -3.48309 0
M  V30 2713 S 254.334 1.89736 -5.0076 0
M  V30 2714 C 255.49 3.26713 -5.33863 0
M  V30 2715 H 255.723 0.842103 -2.85124 0
M  V30 2716 H 253.256 0.322136 -1.51002 0
M  V30 2717 H 255.214 3.30332 -2.43702 0
M  V30 2718 H 253.875 2.82609 -1.37079 0
M  V30 2719 H 253.068 3.45819 -3.66641 0
M  V30 2720 H 252.67 1.76404 -3.29784 0
M  V30 2721 H 254.962 4.22935 -5.29275 0
M  V30 2722 H 255.905 3.13205 -6.35065 0
M  V30 2723 H 256.313 3.25316 -4.61335 0
M  V30 2724 N 255.711 1.52812 0.385517 0
M  V30 2725 C 256.957 1.68275 1.13188 0
M  V30 2726 C 257.29 0.423179 1.89533 0
M  V30 2727 O 256.565 -0.579113 1.85679 0
M  V30 2728 C 256.848 2.92001 2.1073 0
M  V30 2729 C 256.701 4.28067 1.38125 0
M  V30 2730 C 258.02 3.11283 3.11113 0
M  V30 2731 H 255.139 0.612352 0.410115 0
M  V30 2732 H 257.781 1.85415 0.414869 0
M  V30 2733 H 255.931 2.77519 2.71874 0
M  V30 2734 H 257.603 4.54324 0.799187 0
M  V30 2735 H 255.846 4.28388 0.683092 0
M  V30 2736 H 256.517 5.10733 2.09417 0
M  V30 2737 H 258.993 3.2482 2.6006 0
M  V30 2738 H 257.869 3.99325 3.76605 0
M  V30 2739 H 258.13 2.25656 3.80173 0
M  V30 2740 N 257.189 -0.644168 1.43834 0
M  V30 2741 C 258.605 -0.960875 1.27434 0
M  V30 2742 C 258.805 -2.00499 0.200618 0
M  V30 2743 O 257.861 -2.49018 -0.417906 0
M  V30 2744 C 259.174 -1.43653 2.64167 0
M  V30 2745 C 260.722 -1.55271 2.71772 0
M  V30 2746 C 261.197 -2.06224 4.08944 0
M  V30 2747 N 262.688 -2.13513 4.11055 0
M  V30 2748 C 263.423 -2.54081 5.14033 0
M  V30 2749 N 262.919 -2.9388 6.27381 0
M  V30 2750 N 264.712 -2.54101 5.01387 0
M  V30 2751 H 256.863 0.0465779 2.12349 0
M  V30 2752 H 259.126 -0.0417638 0.94708 0
M  V30 2753 H 258.832 -0.743706 3.43747 0
M  V30 2754 H 258.706 -2.40993 2.90176 0
M  V30 2755 H 261.093 -2.23653 1.92519 0
M  V30 2756 H 261.174 -0.563395 2.49519 0
M  V30 2757 H 260.818 -1.38441 4.88668 0
M  V30 2758 H 260.748 -3.06003 4.28567 0
M  V30 2759 H 263.239 -1.85493 3.29242 0
M  V30 2760 H 263.552 -3.2361 7.01781 0
M  V30 2761 H 261.897 -2.91663 6.30839 0
M  V30 2762 H 265.088 -2.22391 4.11898 0
M  V30 2763 H 265.261 -2.85394 5.81768 0
M  V30 2764 N 258.668 -1.30515 -0.883378 0
M  V30 2765 C 259.893 -1.22487 -1.67367 0
M  V30 2766 C 260.318 0.208767 -1.86938 0
M  V30 2767 O 259.676 1.15015 -1.40148 0
M  V30 2768 C 259.724 -1.96041 -3.02655 0
M  V30 2769 O 258.828 -1.28859 -3.91751 0
M  V30 2770 H 258.169 -0.423573 -0.511353 0
M  V30 2771 H 260.699 -1.72362 -1.10239 0
M  V30 2772 H 260.709 -2.05124 -3.52687 0
M  V30 2773 H 259.384 -3.00307 -2.8773 0
M  V30 2774 H 257.961 -1.28141 -3.50192 0
M  V30 2775 N 260.146 1.09593 -1.13257 0
M  V30 2776 C 261.109 2.14359 -0.811358 0
M  V30 2777 C 262.109 1.59808 0.178377 0
M  V30 2778 O 263.299 1.74132 -0.0484911 0
M  V30 2779 C 260.431 3.40269 -0.207276 0
M  V30 2780 H 261.624 2.44284 -1.73969 0
M  V30 2781 H 259.177 1.25102 -0.936973 0
M  V30 2782 H 259.912 3.15969 0.73036 0
M  V30 2783 H 259.697 3.81154 -0.919992 0
M  V30 2784 H 261.187 4.176 0.000667944 0
M  V30 2785 N 261.624 0.925811 1.2754 0
M  V30 2786 C 262.572 0.413897 2.28888 0
M  V30 2787 C 263.566 -0.500779 1.61829 0
M  V30 2788 O 264.772 -0.38069 1.75928 0
M  V30 2789 H 261.147 0.115274 0.743112 0
M  V30 2790 H 263.118 1.28151 2.69481 0
M  V30 2791 C 261.867 -0.319792 3.46226 0
M  V30 2792 H 261.19 0.374846 3.98039 0
M  V30 2793 H 262.63 -0.642435 4.19105 0
M  V30 2794 C 261.089 -1.53209 3.00048 0
M  V30 2795 O 261.619 -2.6309 3.03557 0
M  V30 2796 N 259.825 -1.38326 2.55566 0
M  V30 2797 H 259.372 -0.489292 2.5291 0
M  V30 2798 H 259.33 -2.19564 2.25031 0
M  V30 2799 N 263.102 -1.41638 0.69111 0
M  V30 2800 C 264.065 -2.29178 0.0319786 0
M  V30 2801 C 265.065 -1.44153 -0.712496 0
M  V30 2802 O 266.255 -1.65354 -0.548053 0
M  V30 2803 C 263.387 -3.26952 -0.965161 0
M  V30 2804 H 264.58 -2.88959 0.802681 0
M  V30 2805 H 262.133 -1.4955 0.454356 0
M  V30 2806 H 262.868 -2.72142 -1.76378 0
M  V30 2807 H 262.653 -3.89685 -0.434522 0
M  V30 2808 H 264.143 -3.92561 -1.42428 0
M  V30 2809 N 264.58 -0.43555 -1.51462 0
M  V30 2810 C 265.996 -0.0877501 -1.59359 0
M  V30 2811 C 266.196 1.4027 -1.4466 0
M  V30 2812 O 265.252 2.17243 -1.28693 0
M  V30 2813 C 266.565 -0.606264 -2.94525 0
M  V30 2814 C 268.113 -0.566548 -3.0783 0
M  V30 2815 C 268.588 -1.06201 -4.45517 0
M  V30 2816 N 270.079 -1.01992 -4.51832 0
M  V30 2817 C 270.814 -1.37417 -5.5669 0
M  V30 2818 N 270.31 -1.80119 -6.68976 0
M  V30 2819 N 272.103 -1.29245 -5.47039 0
M  V30 2820 H 264.254 -1.40533 -1.59261 0
M  V30 2821 H 266.517 -0.578992 -0.750648 0
M  V30 2822 H 266.223 -1.64901 -3.10645 0
M  V30 2823 H 266.097 -0.0302097 -3.77188 0
M  V30 2824 H 268.484 0.467208 -2.91378 0
M  V30 2825 H 268.565 -1.17898 -2.2701 0
M  V30 2826 H 268.209 -2.09422 -4.62715 0
M  V30 2827 H 268.139 -0.426127 -5.24873 0
M  V30 2828 H 270.63 -0.706308 -3.71241 0
M  V30 2829 H 270.943 -2.05392 -7.45006 0
M  V30 2830 H 269.288 -1.84044 -6.70189 0
M  V30 2831 H 272.479 -0.957522 -4.58202 0
M  V30 2832 H 272.652 -1.57182 -6.28648 0
M  V30 2833 N 266.058 1.56714 -0.166846 0
M  V30 2834 C 266.99 2.14914 0.796537 0
M  V30 2835 C 268.003 1.10357 1.19688 0
M  V30 2836 O 269.192 1.37561 1.13751 0
M  V30 2837 C 266.292 2.67326 2.08303 0
M  V30 2838 C 265.465 3.96493 1.84696 0
M  V30 2839 C 264.524 4.34014 2.97521 0
M  V30 2840 O 263.55 5.01973 2.6835 0
M  V30 2841 N 264.752 3.95208 4.25196 0
M  V30 2842 H 267.517 2.98205 0.299006 0
M  V30 2843 H 265.078 1.61892 0.0160839 0
M  V30 2844 H 267.07 2.89428 2.82867 0
M  V30 2845 H 265.64 1.88649 2.4926 0
M  V30 2846 H 264.86 3.82814 0.940602 0
M  V30 2847 H 266.148 4.8086 1.66285 0
M  V30 2848 H 265.546 3.40487 4.51758 0
M  V30 2849 H 264.103 4.2232 4.96477 0
M  V30 2850 N 267.536 -0.106894 1.57237 0
M  V30 2851 C 268.484 -1.14944 2.02215 0
M  V30 2852 C 269.478 -1.42167 0.92114 0
M  V30 2853 O 270.684 -1.41987 1.10634 0
M  V30 2854 H 267.059 -0.387841 0.64427 0
M  V30 2855 H 269.03 -0.743683 2.88984 0
M  V30 2856 C 267.779 -2.4647 2.4525 0
M  V30 2857 H 267.102 -2.26363 3.29545 0
M  V30 2858 H 268.542 -3.17948 2.80508 0
M  V30 2859 C 267.001 -3.09921 1.321 0
M  V30 2860 O 267.531 -3.9651 0.643622 0
M  V30 2861 N 265.737 -2.69986 1.07497 0
M  V30 2862 H 265.284 -1.99667 1.62761 0
M  V30 2863 H 265.242 -3.12769 0.319876 0
M  V30 2864 N 269.014 -1.53014 -0.377408 0
M  V30 2865 C 270.26 -1.68872 -1.12294 0
M  V30 2866 C 270.593 -0.433224 -1.89306 0
M  V30 2867 O 269.868 0.569258 -1.85983 0
M  V30 2868 C 270.151 -2.93115 -2.09179 0
M  V30 2869 C 270.004 -4.28794 -1.35853 0
M  V30 2870 C 271.323 -3.12928 -3.09458 0
M  V30 2871 H 268.442 -0.614518 -0.406862 0
M  V30 2872 H 271.084 -1.85633 -0.40503 0
M  V30 2873 H 269.234 -2.78956 -2.70399 0
M  V30 2874 H 270.906 -4.54742 -0.775082 0
M  V30 2875 H 269.149 -4.28744 -0.660364 0
M  V30 2876 H 269.82 -5.11837 -2.06706 0
M  V30 2877 H 272.296 -3.26194 -2.58334 0
M  V30 2878 H 271.172 -4.01316 -3.74482 0
M  V30 2879 H 271.433 -2.27669 -3.78971 0
M  V30 2880 N 270.492 0.636531 -1.44174 0
M  V30 2881 C 271.741 1.39213 -1.45954 0
M  V30 2882 C 272.054 1.95374 -0.0939119 0
M  V30 2883 O 273.26 2.71498 0.0107767 0
M  V30 2884 C 271.716 2.52025 -2.56927 0
M  V30 2885 C 271.324 2.024 -3.99673 0
M  V30 2886 C 273.068 3.29269 -2.67922 0
M  V30 2887 C 270.975 3.12521 -5.0208 0
M  V30 2888 H 269.905 0.523132 -0.542999 0
M  V30 2889 H 272.556 0.685349 -1.70221 0
M  V30 2890 H 270.938 3.25253 -2.25891 0
M  V30 2891 H 272.112 1.36073 -4.40251 0
M  V30 2892 H 270.427 1.37987 -3.92872 0
M  V30 2893 H 273.024 4.11352 -3.41605 0
M  V30 2894 H 273.367 3.78397 -1.73555 0
M  V30 2895 H 273.9 2.63129 -2.98342 0
M  V30 2896 H 270.639 2.68343 -5.98057 0
M  V30 2897 H 270.159 3.77507 -4.66099 0
M  V30 2898 H 271.838 3.77385 -5.25538 0
M  V30 2899 N 271.97 1.30982 0.876444 0
M  V30 2900 C 272.933 1.18054 1.96459 0
M  V30 2901 C 273.933 0.109399 1.60427 0
M  V30 2902 O 275.123 0.358173 1.70478 0
M  V30 2903 C 272.255 0.810616 3.31122 0
M  V30 2904 H 273.448 2.14735 2.09354 0
M  V30 2905 H 271.001 1.145 1.06392 0
M  V30 2906 H 271.736 -0.155322 3.23928 0
M  V30 2907 H 271.521 1.58481 3.58645 0
M  V30 2908 H 273.011 0.743876 4.10921 0
M  V30 2909 N 273.449 -1.08991 1.13837 0
M  V30 2910 C 274.359 -2.19301 0.833333 0
M  V30 2911 C 275.375 -1.73026 -0.183847 0
M  V30 2912 O 276.551 -2.01395 -0.0138092 0
M  V30 2913 C 273.616 -3.45323 0.308651 0
M  V30 2914 C 272.677 -4.06255 1.38764 0
M  V30 2915 C 271.91 -5.26262 0.887896 0
M  V30 2916 O 272.133 -5.69747 -0.27287 0
M  V30 2917 O 271.067 -5.78435 1.66421 0
M  V30 2918 H 274.893 -2.47854 1.75506 0
M  V30 2919 H 272.478 -1.18012 0.916166 0
M  V30 2920 H 274.36 -4.21394 0.0216739 0
M  V30 2921 H 273.035 -3.18362 -0.585431 0
M  V30 2922 H 271.942 -3.318 1.72799 0
M  V30 2923 H 273.275 -4.37452 2.25602 0
M  V30 2924 N 274.927 -0.932562 -1.27047 0
M  V30 2925 C 275.89 -0.440064 -2.24936 0
M  V30 2926 C 276.89 0.444071 -1.54547 0
M  V30 2927 O 278.08 0.244465 -1.72476 0
M  V30 2928 C 275.212 0.36678 -3.38921 0
M  V30 2929 H 276.405 -1.305 -2.70018 0
M  V30 2930 H 273.958 -0.713707 -1.39054 0
M  V30 2931 H 274.693 1.25033 -2.99228 0
M  V30 2932 H 274.478 -0.267204 -3.91188 0
M  V30 2933 H 275.968 0.701567 -4.11665 0
M  V30 2934 N 276.405 1.4127 -0.698611 0
M  V30 2935 C 277.355 2.27997 -0.0119836 0
M  V30 2936 C 278.339 1.42363 0.749765 0
M  V30 2937 O 279.531 1.65607 0.624758 0
M  V30 2938 C 276.66 3.30702 0.921458 0
M  V30 2939 C 275.746 4.23814 0.155796 0
M  V30 2940 N 276.137 4.98572 -0.852015 0
M  V30 2941 C 274.435 4.44284 0.390836 0
M  V30 2942 C 275.136 5.66744 -1.3106 0
M  V30 2943 N 274.112 5.39867 -0.635944 0
M  V30 2944 H 277.914 2.83232 -0.784649 0
M  V30 2945 H 275.428 1.53518 -0.529711 0
M  V30 2946 H 277.425 3.91661 1.42854 0
M  V30 2947 H 276.085 2.77028 1.69369 0
M  V30 2948 H 277.096 5.03024 -1.23235 0
M  V30 2949 H 273.773 4.01614 1.14071 0
M  V30 2950 H 275.163 6.36672 -2.14707 0
M  V30 2951 N 277.883 0.443576 1.51229 0
M  V30 2952 C 278.846 -0.353132 2.26463 0
M  V30 2953 C 279.846 -0.944338 1.3015 0
M  V30 2954 O 281.036 -0.817813 1.5381 0
M  V30 2955 C 278.168 -1.50023 3.06114 0
M  V30 2956 H 279.361 0.3063 2.98332 0
M  V30 2957 H 276.914 0.196902 1.55055 0
M  V30 2958 H 277.649 -2.19553 2.38677 0
M  V30 2959 H 277.434 -1.08241 3.76864 0
M  V30 2960 H 278.924 -2.06296 3.63087 0
M  V30 2961 N 279.361 -1.56624 0.175154 0
M  V30 2962 C 280.777 -1.58571 -0.180966 0
M  V30 2963 C 280.977 -1.19065 -1.6256 0
M  V30 2964 O 280.033 -0.904044 -2.35761 0
M  V30 2965 C 281.346 -3.00522 0.103326 0
M  V30 2966 C 282.894 -3.12972 0.0418426 0
M  V30 2967 C 283.369 -4.57022 0.299175 0
M  V30 2968 N 284.86 -4.62541 0.247086 0
M  V30 2969 C 285.595 -5.71857 0.420318 0
M  V30 2970 N 285.091 -6.89717 0.652816 0
M  V30 2971 N 286.884 -5.60972 0.355957 0
M  V30 2972 H 279.035 -1.80589 1.11809 0
M  V30 2973 H 281.298 -0.837178 0.444788 0
M  V30 2974 H 281.004 -3.33916 1.10422 0
M  V30 2975 H 280.878 -3.72344 -0.603299 0
M  V30 2976 H 283.265 -2.79403 -0.949636 0
M  V30 2977 H 283.346 -2.43578 0.781238 0
M  V30 2978 H 282.99 -4.913 1.28788 0
M  V30 2979 H 282.92 -5.24579 -0.460876 0
M  V30 2980 H 285.411 -3.77829 0.0731895 0
M  V30 2981 H 285.724 -7.68911 0.774347 0
M  V30 2982 H 284.069 -6.91572 0.689476 0
M  V30 2983 H 287.26 -4.67773 0.174882 0
M  V30 2984 H 287.433 -6.46111 0.494388 0
M  V30 2985 N 280.839 0.0985539 -1.57292 0
M  V30 2986 C 281.769 1.12064 -2.04851 0
M  V30 2987 C 282.75 1.41981 -0.936767 0
M  V30 2988 O 283.935 1.52071 -1.20781 0
M  V30 2989 C 281.065 2.44144 -2.47004 0
M  V30 2990 C 280.019 2.28643 -3.6181 0
M  V30 2991 C 279.345 3.65869 -3.89929 0
M  V30 2992 C 280.645 1.72986 -4.92822 0
M  V30 2993 H 282.339 0.724979 -2.9049 0
M  V30 2994 H 279.885 0.34729 -1.39749 0
M  V30 2995 H 281.838 3.15914 -2.78884 0
M  V30 2996 H 280.562 2.85639 -1.5836 0
M  V30 2997 H 279.221 1.59318 -3.30172 0
M  V30 2998 H 278.869 4.04885 -2.98458 0
M  V30 2999 H 278.569 3.56344 -4.67218 0
M  V30 3000 H 280.093 4.39112 -4.2428 0
M  V30 3001 H 281.507 2.34593 -5.23105 0
M  V30 3002 H 279.904 1.74229 -5.74251 0
M  V30 3003 H 280.974 0.689007 -4.7998 0
M  V30 3004 N 282.317 1.53212 0.369288 0
M  V30 3005 C 283.733 1.42902 0.710712 0
M  V30 3006 C 283.933 0.565135 1.93413 0
M  V30 3007 O 282.989 0.0461484 2.52458 0
M  V30 3008 C 284.302 2.86042 0.927382 0
M  V30 3009 C 285.85 2.9565 1.02762 0
M  V30 3010 C 286.325 4.39843 1.27679 0
M  V30 3011 N 287.816 4.43256 1.34457 0
M  V30 3012 C 288.551 5.51929 1.55439 0
M  V30 3013 N 288.047 6.70655 1.73762 0
M  V30 3014 N 289.84 5.39502 1.57779 0
M  V30 3015 H 281.991 2.07888 -0.435457 0
M  V30 3016 H 284.254 0.938661 -0.132739 0
M  V30 3017 H 283.96 3.51557 0.100287 0
M  V30 3018 H 283.834 3.29472 1.83653 0
M  V30 3019 H 286.221 2.30291 1.84527 0
M  V30 3020 H 286.302 2.5562 0.0959504 0
M  V30 3021 H 285.946 5.05774 0.464175 0
M  V30 3022 H 285.876 4.77443 2.22162 0
M  V30 3023 H 288.367 3.5769 1.21926 0
M  V30 3024 H 288.68 7.49248 1.89335 0
M  V30 3025 H 287.025 6.73648 1.70948 0
M  V30 3026 H 290.216 4.45713 1.43029 0
M  V30 3027 H 290.389 6.2426 1.7379 0
M  V30 3028 N 283.795 -0.628877 1.44509 0
M  V30 3029 C 284.725 -1.75187 1.54376 0
M  V30 3030 C 285.706 -1.65411 0.396618 0
M  V30 3031 O 286.891 -1.84137 0.617031 0
M  V30 3032 C 284.021 -3.13725 1.48976 0
M  V30 3033 C 282.975 -3.38291 2.62189 0
M  V30 3034 C 282.301 -4.76883 2.41841 0
M  V30 3035 C 283.601 -3.30632 4.04326 0
M  V30 3036 H 285.295 -1.67187 2.48373 0
M  V30 3037 H 282.841 -0.802909 1.19538 0
M  V30 3038 H 284.794 -3.92064 1.54478 0
M  V30 3039 H 283.518 -3.22515 0.514961 0
M  V30 3040 H 282.177 -2.62334 2.56079 0
M  V30 3041 H 281.825 -4.82378 1.42548 0
M  V30 3042 H 281.525 -4.94278 3.17747 0
M  V30 3043 H 283.049 -5.57449 2.49165 0
M  V30 3044 H 284.463 -3.98873 4.11793 0
M  V30 3045 H 282.86 -3.59561 4.80454 0
M  V30 3046 H 283.93 -2.28404 4.27738 0
M  V30 3047 N 285.273 -1.31445 -0.869486 0
M  V30 3048 C 286.203 -1.21727 -1.99261 0
M  V30 3049 C 287.184 -0.104359 -1.6978 0
M  V30 3050 O 288.369 -0.289038 -1.92037 0
M  V30 3051 C 285.499 -0.924317 -3.34774 0
M  V30 3052 C 284.453 -1.99685 -3.78563 0
M  V30 3053 C 283.779 -1.55658 -5.11541 0
M  V30 3054 C 285.079 -3.41003 -3.95619 0
M  V30 3055 H 286.773 -2.1569 -2.07649 0
M  V30 3056 H 284.319 -1.03839 -0.997675 0
M  V30 3057 H 286.272 -0.842934 -4.12883 0
M  V30 3058 H 284.996 0.0509793 -3.2656 0
M  V30 3059 H 283.655 -2.06813 -3.02694 0
M  V30 3060 H 283.303 -0.569132 -4.9977 0
M  V30 3061 H 283.003 -2.27409 -5.41811 0
M  V30 3062 H 284.527 -1.48928 -5.92159 0
M  V30 3063 H 285.941 -3.36547 -4.64122 0
M  V30 3064 H 284.338 -4.10975 -4.37286 0
M  V30 3065 H 285.408 -3.81754 -2.98985 0
M  V30 3066 N 286.751 1.08385 -1.14413 0
M  V30 3067 C 288.167 1.32844 -0.884563 0
M  V30 3068 C 288.367 1.95841 0.474181 0
M  V30 3069 O 287.423 2.21158 1.21842 0
M  V30 3070 C 288.736 2.22978 -2.01745 0
M  V30 3071 C 290.284 2.36458 -2.05077 0
M  V30 3072 C 290.759 3.29934 -3.1766 0
M  V30 3073 N 292.25 3.37511 -3.17239 0
M  V30 3074 C 292.985 4.09871 -4.0099 0
M  V30 3075 N 292.481 4.84936 -4.94781 0
M  V30 3076 N 294.274 4.05704 -3.89051 0
M  V30 3077 H 286.425 0.658756 -2.01926 0
M  V30 3078 H 288.688 0.352821 -0.879899 0
M  V30 3079 H 288.394 1.83934 -2.99769 0
M  V30 3080 H 288.268 3.23441 -1.94077 0
M  V30 3081 H 290.655 2.7476 -1.0766 0
M  V30 3082 H 290.736 1.35736 -2.16816 0
M  V30 3083 H 290.38 2.92352 -4.15322 0
M  V30 3084 H 290.31 4.30584 -3.03158 0
M  V30 3085 H 292.801 2.83996 -2.49308 0
M  V30 3086 H 293.114 5.37612 -5.55151 0
M  V30 3087 H 291.459 4.83988 -4.98779 0
M  V30 3088 H 294.65 3.46167 -3.15097 0
M  V30 3089 H 294.823 4.61834 -4.54547 0
M  V30 3090 N 288.23 0.939286 1.26551 0
M  V30 3091 C 289.162 0.404704 2.25599 0
M  V30 3092 C 290.175 -0.470983 1.55838 0
M  V30 3093 O 291.364 -0.281734 1.76263 0
M  V30 3094 C 288.464 -0.43764 3.36062 0
M  V30 3095 C 287.637 0.421449 4.35365 0
M  V30 3096 C 286.696 -0.36015 5.24966 0
M  V30 3097 O 285.722 0.236167 5.6871 0
M  V30 3098 N 286.924 -1.65715 5.56344 0
M  V30 3099 H 289.689 1.25618 2.72103 0
M  V30 3100 H 287.25 0.807963 1.40298 0
M  V30 3101 H 289.242 -0.967866 3.92956 0
M  V30 3102 H 287.812 -1.18991 2.89067 0
M  V30 3103 H 287.032 1.1329 3.7757 0
M  V30 3104 H 288.32 1.00835 4.98708 0
M  V30 3105 H 287.718 -2.16378 5.22682 0
M  V30 3106 H 286.275 -2.13366 6.15888 0
M  V30 3107 N 289.708 -1.40897 0.706093 0
M  V30 3108 C 290.618 -2.3455 0.0482286 0
M  V30 3109 C 291.634 -1.56796 -0.754396 0
M  V30 3110 O 292.81 -1.89228 -0.689538 0
M  V30 3111 C 289.875 -3.35625 -0.869303 0
M  V30 3112 C 288.936 -4.29261 -0.0576994 0
M  V30 3113 C 288.169 -5.25508 -0.931531 0
M  V30 3114 O 288.392 -5.27472 -2.17092 0
M  V30 3115 O 287.326 -6.00727 -0.375587 0
M  V30 3116 H 291.152 -2.92407 0.820476 0
M  V30 3117 H 288.737 -1.4193 0.4665 0
M  V30 3118 H 290.619 -3.97635 -1.39514 0
M  V30 3119 H 289.294 -2.80196 -1.62086 0
M  V30 3120 H 288.201 -3.70566 0.512988 0
M  V30 3121 H 289.534 -4.87817 0.655426 0
M  V30 3122 N 291.186 -0.45159 -1.50991 0
M  V30 3123 C 292.414 0.108334 -2.06616 0
M  V30 3124 C 292.829 1.35224 -1.31757 0
M  V30 3125 O 292.186 1.78475 -0.381174 0
M  V30 3126 C 292.237 0.41619 -3.59096 0
M  V30 3127 O 291.958 -0.778361 -4.3113 0
M  V30 3128 C 293.459 1.02523 -4.31282 0
M  V30 3129 H 290.679 0.00159995 -0.670998 0
M  V30 3130 H 293.223 -0.634771 -1.94399 0
M  V30 3131 H 291.378 1.10921 -3.71181 0
M  V30 3132 H 291.792 -0.511181 -5.22003 0
M  V30 3133 H 293.266 1.19053 -5.39009 0
M  V30 3134 H 293.743 2.01013 -3.905 0
M  V30 3135 H 294.349 0.371173 -4.23677 0
M  V30 3136 N 292.664 1.56529 -0.183458 0
M  V30 3137 C 293.892 2.01623 0.464285 0
M  V30 3138 C 294.307 1.06366 1.55986 0
M  V30 3139 O 293.664 0.0665398 1.82379 0
M  V30 3140 C 293.715 3.46475 1.03139 0
M  V30 3141 O 293.436 4.38095 -0.0204675 0
M  V30 3142 C 294.937 4.0703 1.75617 0
M  V30 3143 H 292.157 0.660596 0.117704 0
M  V30 3144 H 294.701 2.02451 -0.288751 0
M  V30 3145 H 292.856 3.46383 1.73486 0
M  V30 3146 H 293.27 5.22973 0.399952 0
M  V30 3147 H 294.744 5.10271 2.10542 0
M  V30 3148 H 295.221 3.49819 2.65563 0
M  V30 3149 H 295.827 4.1086 1.09882 0
M  V30 3150 N 294.142 -0.090211 1.57342 0
M  V30 3151 C 295.105 -1.09335 2.01441 0
M  V30 3152 C 296.105 -1.32666 0.908641 0
M  V30 3153 O 297.295 -1.28697 1.174 0
M  V30 3154 C 294.427 -2.44136 2.3793 0
M  V30 3155 H 295.62 -0.713662 2.91285 0
M  V30 3156 H 293.173 -0.335404 1.52659 0
M  V30 3157 H 293.908 -2.86972 1.51055 0
M  V30 3158 H 293.693 -2.28548 3.18603 0
M  V30 3159 H 295.183 -3.16277 2.72688 0
M  V30 3160 N 295.62 -1.53406 -0.361157 0
M  V30 3161 C 296.53 -1.83122 -1.4664 0
M  V30 3162 C 297.546 -0.719943 -1.58407 0
M  V30 3163 O 298.722 -1.01046 -1.74218 0
M  V30 3164 C 295.787 -2.01891 -2.81853 0
M  V30 3165 C 294.848 -3.25784 -2.79577 0
M  V30 3166 C 294.081 -3.43648 -4.0834 0
M  V30 3167 O 294.304 -2.65714 -5.0473 0
M  V30 3168 O 293.238 -4.37018 -4.13883 0
M  V30 3169 H 297.064 -2.7703 -1.24451 0
M  V30 3170 H 294.649 -1.38841 -0.551678 0
M  V30 3171 H 296.531 -2.15782 -3.61962 0
M  V30 3172 H 295.206 -1.11173 -3.0401 0
M  V30 3173 H 294.113 -3.17312 -1.98151 0
M  V30 3174 H 295.446 -4.16439 -2.62373 0
M  V30 3175 N 297.098 0.621204 -1.44841 0
M  V30 3176 C 298.346 1.37783 -1.47852 0
M  V30 3177 C 298.667 1.94653 -0.116224 0
M  V30 3178 O 297.937 1.76367 0.852737 0
M  V30 3179 H 296.517 0.511453 -0.544449 0
M  V30 3180 H 299.179 0.730446 -1.80694 0
M  V30 3181 H 298.275 2.20414 -2.20961 0
M  V30 3182 N 298.576 1.31904 0.862503 0
M  V30 3183 C 299.806 1.24817 1.64634 0
M  V30 3184 C 300.214 -0.187579 1.88268 0
M  V30 3185 O 299.557 -1.13253 1.44635 0
M  V30 3186 C 299.619 1.92996 3.03303 0
M  V30 3187 C 299.283 3.42336 3.02746 0
M  V30 3188 C 300.28 4.37956 2.80162 0
M  V30 3189 C 297.965 3.84147 3.2363 0
M  V30 3190 C 299.959 5.73361 2.78453 0
M  V30 3191 C 297.646 5.19663 3.21549 0
M  V30 3192 C 298.644 6.14081 2.98988 0
M  V30 3193 O 298.332 7.47118 2.96766 0
M  V30 3194 H 298.064 0.432222 0.519769 0
M  V30 3195 H 300.618 1.7445 1.08427 0
M  V30 3196 H 298.848 1.37922 3.61268 0
M  V30 3197 H 300.537 1.79723 3.63943 0
M  V30 3198 H 301.303 4.06981 2.63802 0
M  V30 3199 H 297.182 3.11083 3.40218 0
M  V30 3200 H 300.726 6.4703 2.60763 0
M  V30 3201 H 296.623 5.5027 3.37451 0
M  V30 3202 H 297.391 7.56382 3.12775 0
M  V30 3203 N 300.054 -1.07777 1.14986 0
M  V30 3204 C 301.282 -1.84018 0.945773 0
M  V30 3205 C 301.697 -1.81897 -0.505863 0
M  V30 3206 O 301.054 -1.22726 -1.35072 0
M  V30 3207 C 301.105 -3.31287 1.44677 0
M  V30 3208 O 300.826 -3.33449 2.84154 0
M  V30 3209 C 302.327 -4.24311 1.28355 0
M  V30 3210 H 299.547 -0.580716 0.336169 0
M  V30 3211 H 302.091 -1.36077 1.52654 0
M  V30 3212 H 300.246 -3.76594 0.908625 0
M  V30 3213 H 300.66 -4.25427 3.06777 0
M  V30 3214 H 302.134 -5.2573 1.68261 0
M  V30 3215 H 302.611 -4.38612 0.227184 0
M  V30 3216 H 303.217 -3.84836 1.81056 0
M  V30 3217 N 301.532 -0.945985 -1.26051 0
M  V30 3218 C 302.462 -0.477172 -2.28572 0
M  V30 3219 C 303.443 0.472032 -1.63419 0
M  V30 3220 O 304.628 0.372853 -1.90587 0
M  V30 3221 C 301.758 0.253975 -3.4637 0
M  V30 3222 C 300.712 -0.609135 -4.23643 0
M  V30 3223 C 300.038 0.252252 -5.34105 0
M  V30 3224 C 301.338 -1.8829 -4.8718 0
M  V30 3225 H 303.032 -1.33402 -2.68038 0
M  V30 3226 H 300.578 -0.642904 -1.28852 0
M  V30 3227 H 302.531 0.593016 -4.17207 0
M  V30 3228 H 301.255 1.145 -3.05871 0
M  V30 3229 H 299.914 -0.931138 -3.54578 0
M  V30 3230 H 299.562 1.14278 -4.89846 0
M  V30 3231 H 299.262 -0.32188 -5.86718 0
M  V30 3232 H 300.786 0.586454 -6.07777 0
M  V30 3233 H 302.2 -1.61081 -5.50205 0
M  V30 3234 H 300.597 -2.40199 -5.49931 0
M  V30 3235 H 301.667 -2.59134 -4.09851 0
M  V30 3236 N 303.011 1.40521 -0.713556 0
M  V30 3237 C 304.427 1.54839 -0.386907 0
M  V30 3238 C 304.627 1.68532 1.1045 0
M  V30 3239 O 303.683 1.67377 1.89053 0
M  V30 3240 C 304.996 2.77792 -1.15118 0
M  V30 3241 C 306.544 2.91607 -1.13729 0
M  V30 3242 C 307.019 4.1747 -1.88368 0
M  V30 3243 N 308.51 4.24466 -1.85427 0
M  V30 3244 C 309.245 5.20755 -2.40004 0
M  V30 3245 N 308.741 6.22965 -3.03129 0
M  V30 3246 N 310.534 5.1282 -2.30158 0
M  V30 3247 H 302.685 1.29879 -1.68063 0
M  V30 3248 H 304.948 0.627896 -0.710247 0
M  V30 3249 H 304.654 2.73944 -2.20561 0
M  V30 3250 H 304.528 3.6984 -0.741477 0
M  V30 3251 H 306.915 2.94959 -0.0910608 0
M  V30 3252 H 306.996 2.00682 -1.5862 0
M  V30 3253 H 306.64 4.1488 -2.9298 0
M  V30 3254 H 306.57 5.074 -1.40898 0
M  V30 3255 H 309.061 3.51241 -1.3942 0
M  V30 3256 H 309.374 6.92859 -3.42295 0
M  V30 3257 H 307.719 6.23415 -3.07212 0
M  V30 3258 H 310.91 4.31899 -1.80501 0
M  V30 3259 H 311.083 5.87689 -2.72993 0
M  V30 3260 N 304.489 0.459591 1.5075 0
M  V30 3261 C 305.436 -0.340524 2.28274 0
M  V30 3262 C 306.406 -0.997371 1.32822 0
M  V30 3263 O 307.591 -1.01202 1.61749 0
M  V30 3264 C 304.731 -1.42317 3.14388 0
M  V30 3265 C 303.844 -0.782251 4.24859 0
M  V30 3266 C 302.979 -1.84182 4.98247 0
M  V30 3267 C 302.018 -1.18053 6.00608 0
M  V30 3268 N 301.155 -2.18244 6.67319 0
M  V30 3269 H 305.995 0.326899 2.96202 0
M  V30 3270 H 303.532 0.173057 1.46078 0
M  V30 3271 H 305.49 -2.06241 3.62658 0
M  V30 3272 H 304.12 -2.05992 2.4853 0
M  V30 3273 H 303.172 -0.0307404 3.80388 0
M  V30 3274 H 304.484 -0.259663 4.98124 0
M  V30 3275 H 303.638 -2.55714 5.50177 0
M  V30 3276 H 302.377 -2.39819 4.24662 0
M  V30 3277 H 301.382 -0.450776 5.47949 0
M  V30 3278 H 302.607 -0.631202 6.7616 0
M  V30 3279 H 300.553 -2.72919 5.96533 0
M  V30 3280 H 300.47 -1.70938 7.36421 0
M  V30 3281 H 301.738 -2.89191 7.23871 0
M  V30 3282 N 305.967 -1.56429 0.191757 0
M  V30 3283 C 306.897 -2.21937 -0.725696 0
M  V30 3284 C 307.878 -1.1814 -1.2238 0
M  V30 3285 O 309.063 -1.46636 -1.27325 0
M  V30 3286 C 306.193 -2.87611 -1.94672 0
M  V30 3287 C 305.147 -3.97623 -1.58366 0
M  V30 3288 C 304.473 -4.50446 -2.88102 0
M  V30 3289 C 305.773 -5.16197 -0.796133 0
M  V30 3290 H 307.467 -2.98861 -0.179606 0
M  V30 3291 H 305.013 -1.43749 -0.0849464 0
M  V30 3292 H 306.966 -3.3212 -2.59373 0
M  V30 3293 H 305.69 -2.08087 -2.51728 0
M  V30 3294 H 304.349 -3.53801 -0.960247 0
M  V30 3295 H 303.997 -3.67688 -3.43241 0
M  V30 3296 H 303.697 -5.24675 -2.64556 0
M  V30 3297 H 305.221 -4.97654 -3.53798 0
M  V30 3298 H 306.635 -5.57271 -1.34618 0
M  V30 3299 H 305.032 -5.96471 -0.658928 0
M  V30 3300 H 306.102 -4.84473 0.203478 0
M  V30 3301 N 307.445 0.0818655 -1.57387 0
M  V30 3302 C 308.675 0.794954 -1.90694 0
M  V30 3303 C 309.083 1.72147 -0.784982 0
M  V30 3304 O 308.426 1.81974 0.251196 0
M  V30 3305 C 308.488 1.65042 -3.19376 0
M  V30 3306 C 308.152 0.894337 -4.48164 0
M  V30 3307 C 309.149 0.21813 -5.19442 0
M  V30 3308 C 306.834 0.864495 -4.94805 0
M  V30 3309 C 308.828 -0.477802 -6.35607 0
M  V30 3310 C 306.515 0.164785 -6.10878 0
M  V30 3311 C 307.513 -0.505173 -6.81129 0
M  V30 3312 O 307.201 -1.19363 -7.94989 0
M  V30 3313 H 306.933 0.231779 -0.635023 0
M  V30 3314 H 309.487 0.059493 -2.05314 0
M  V30 3315 H 307.717 2.42844 -3.00938 0
M  V30 3316 H 309.406 2.24127 -3.38411 0
M  V30 3317 H 310.172 0.232558 -4.84442 0
M  V30 3318 H 306.051 1.37542 -4.40004 0
M  V30 3319 H 309.595 -1.00129 -6.90377 0
M  V30 3320 H 305.492 0.148249 -6.4533 0
M  V30 3321 H 306.26 -1.10188 -8.11049 0
M  V30 3322 N 308.923 1.53595 0.353017 0
M  V30 3323 C 310.2 1.61002 1.11075 0
M  V30 3324 C 310.58 0.425356 2.0677 0
M  V30 3325 O 309.928 -0.583267 2.2093 0
M  V30 3326 C 310.138 2.96631 1.83877 0
M  V30 3327 C 311.486 3.51653 2.37961 0
M  V30 3328 O 312.51 2.98743 1.93987 0
M  V30 3329 O 311.369 4.44177 3.18386 0
M  V30 3330 H 308.463 0.650825 0.510251 0
M  V30 3331 H 311.009 1.6594 0.35527 0
M  V30 3332 H 309.781 3.74293 1.14108 0
M  V30 3333 H 309.404 2.95242 2.66304 0
M  V30 3334 N 310.401 -0.613514 1.45168 0
M  V30 3335 C 311.331 -1.7354 1.56225 0
M  V30 3336 C 312.312 -1.64981 0.41414 0
M  V30 3337 O 313.497 -1.83472 0.636526 0
M  V30 3338 C 310.627 -3.12128 1.52295 0
M  V30 3339 C 309.581 -3.35491 2.65762 0
M  V30 3340 C 308.907 -4.74291 2.46885 0
M  V30 3341 C 310.207 -3.26325 4.0781 0
M  V30 3342 H 311.901 -1.64543 2.50132 0
M  V30 3343 H 309.447 -0.790185 1.20383 0
M  V30 3344 H 311.4 -3.90404 1.58628 0
M  V30 3345 H 310.124 -3.2195 0.549139 0
M  V30 3346 H 308.783 -2.59603 2.58847 0
M  V30 3347 H 308.431 -4.80839 1.47657 0
M  V30 3348 H 308.131 -4.9088 3.22972 0
M  V30 3349 H 309.655 -5.54775 2.55063 0
M  V30 3350 H 311.069 -3.94483 4.16 0
M  V30 3351 H 309.466 -3.54445 4.8424 0
M  V30 3352 H 310.536 -2.23855 4.30136 0
M  V30 3353 N 311.879 -1.3236 -0.855495 0
M  V30 3354 C 313.107 -1.2587 -1.64208 0
M  V30 3355 C 313.522 0.173457 -1.88002 0
M  V30 3356 O 312.879 1.11027 -1.44842 0
M  V30 3357 C 312.93 -2.01424 -3.00184 0
M  V30 3358 O 312.651 -3.39051 -2.77445 0
M  V30 3359 C 314.152 -2.01948 -3.94629 0
M  V30 3360 H 311.372 -0.434318 -0.511477 0
M  V30 3361 H 313.916 -1.74469 -1.0668 0
M  V30 3362 H 312.071 -1.56549 -3.5436 0
M  V30 3363 H 312.485 -3.77711 -3.63916 0
M  V30 3364 H 313.959 -2.59297 -4.87308 0
M  V30 3365 H 314.436 -1.00554 -4.27534 0
M  V30 3366 H 315.042 -2.46767 -3.4639 0
M  V30 3367 N 313.357 1.07166 -1.15556 0
M  V30 3368 C 314.287 2.16403 -0.877046 0
M  V30 3369 C 315.268 1.69217 0.173111 0
M  V30 3370 O 316.453 1.94181 0.027084 0
M  V30 3371 C 313.583 3.45349 -0.367632 0
M  V30 3372 C 312.537 4.05995 -1.35468 0
M  V30 3373 C 311.863 5.30045 -0.704038 0
M  V30 3374 C 313.163 4.45804 -2.72132 0
M  V30 3375 H 314.857 2.39959 -1.79053 0
M  V30 3376 H 312.403 1.15325 -0.862331 0
M  V30 3377 H 314.356 4.21095 -0.160317 0
M  V30 3378 H 313.08 3.21385 0.581326 0
M  V30 3379 H 311.739 3.32296 -1.54839 0
M  V30 3380 H 311.387 5.02373 0.251128 0
M  V30 3381 H 311.087 5.71579 -1.36277 0
M  V30 3382 H 312.611 6.08495 -0.50654 0
M  V30 3383 H 314.025 5.12671 -2.56595 0
M  V30 3384 H 312.422 4.98296 -3.34397 0
M  V30 3385 H 313.492 3.57083 -3.28054 0
M  V30 3386 N 314.835 0.952656 1.25548 0
M  V30 3387 C 316.081 0.607272 1.93494 0
M  V30 3388 C 316.414 -0.853245 1.74452 0
M  V30 3389 O 315.689 -1.61194 1.08843 0
M  V30 3390 C 315.972 0.96435 3.46947 0
M  V30 3391 C 315.825 2.48045 3.75225 0
M  V30 3392 C 317.144 0.487987 4.37386 0
M  V30 3393 H 314.263 0.222096 0.702739 0
M  V30 3394 H 316.905 1.18895 1.48203 0
M  V30 3395 H 315.055 0.469361 3.85654 0
M  V30 3396 H 316.727 3.04905 3.46166 0
M  V30 3397 H 314.97 2.919 3.209 0
M  V30 3398 H 315.641 2.6808 4.82532 0
M  V30 3399 H 318.117 0.912558 4.0597 0
M  V30 3400 H 316.993 0.766547 5.43521 0
M  V30 3401 H 317.254 -0.612063 4.37843 0
M  V30 3402 N 316.313 -1.40141 0.720998 0
M  V30 3403 C 317.729 -1.54632 0.395113 0
M  V30 3404 C 317.929 -1.69115 -1.09555 0
M  V30 3405 O 316.985 -1.68377 -1.88163 0
M  V30 3406 C 318.298 -2.77177 1.1659 0
M  V30 3407 C 319.846 -2.91 1.15274 0
M  V30 3408 C 320.321 -4.16465 1.90579 0
M  V30 3409 N 321.812 -4.23476 1.87675 0
M  V30 3410 C 322.547 -5.19475 2.42762 0
M  V30 3411 N 322.043 -6.21348 3.06428 0
M  V30 3412 N 323.836 -5.11592 2.32874 0
M  V30 3413 H 315.987 -1.28986 1.68749 0
M  V30 3414 H 318.25 -0.62412 0.713567 0
M  V30 3415 H 317.956 -2.72771 2.22011 0
M  V30 3416 H 317.83 -3.69442 0.76108 0
M  V30 3417 H 320.217 -2.94907 0.106702 0
M  V30 3418 H 320.298 -1.99838 1.59682 0
M  V30 3419 H 319.942 -4.1332 2.95176 0
M  V30 3420 H 319.872 -5.06646 1.43587 0
M  V30 3421 H 322.363 -3.50497 1.41281 0
M  V30 3422 H 322.676 -6.91034 3.45965 0
M  V30 3423 H 321.021 -6.21777 3.10514 0
M  V30 3424 H 324.212 -4.30936 1.82789 0
M  V30 3425 H 324.385 -5.86233 2.76106 0
M  V30 3426 N 317.792 -0.46758 -1.50504 0
M  V30 3427 C 319.069 0.15003 -1.95024 0
M  V30 3428 C 319.449 1.57304 -1.40779 0
M  V30 3429 O 318.797 2.20281 -0.607319 0
M  V30 3430 C 319.007 0.0969324 -3.48865 0
M  V30 3431 C 320.355 0.287565 -4.23625 0
M  V30 3432 O 321.379 0.173678 -3.55776 0
M  V30 3433 O 320.238 0.517186 -5.44047 0
M  V30 3434 H 317.332 0.113582 -0.819163 0
M  V30 3435 H 319.878 -0.52773 -1.61286 0
M  V30 3436 H 318.65 -0.896732 -3.80886 0
M  V30 3437 H 318.273 0.816303 -3.8913 0
M  V30 3438 N 319.27 1.56325 -0.20005 0
M  V30 3439 C 320.202 2.16555 0.750771 0
M  V30 3440 C 321.215 1.12871 1.1732 0
M  V30 3441 O 322.404 1.39943 1.10807 0
M  V30 3442 C 319.504 2.71684 2.02586 0
M  V30 3443 C 318.677 4.00321 1.76244 0
M  V30 3444 C 317.736 4.40227 2.88248 0
M  V30 3445 O 316.762 5.07552 2.57642 0
M  V30 3446 N 317.964 4.04138 4.16717 0
M  V30 3447 H 320.729 2.98772 0.235685 0
M  V30 3448 H 318.29 1.6189 -0.0182594 0
M  V30 3449 H 320.282 2.95363 2.76664 0
M  V30 3450 H 318.852 1.93893 2.45202 0
M  V30 3451 H 318.072 3.84723 0.85919 0
M  V30 3452 H 319.36 4.84279 1.56048 0
M  V30 3453 H 318.758 3.49993 4.44434 0
M  V30 3454 H 317.315 4.32756 4.87407 0
M  V30 3455 N 320.748 -0.0735177 1.57428 0
M  V30 3456 C 321.698 -1.09442 2.00016 0
M  V30 3457 C 322.682 -1.34575 0.881947 0
M  V30 3458 O 323.874 -1.34905 1.14585 0
M  V30 3459 C 321.003 -2.40865 2.4462 0
M  V30 3460 C 320.089 -2.19014 3.63172 0
M  V30 3461 N 320.48 -1.67087 4.77405 0
M  V30 3462 C 318.778 -2.49494 3.69688 0
M  V30 3463 C 319.479 -1.6001 5.5926 0
M  V30 3464 N 318.455 -2.05999 5.03056 0
M  V30 3465 H 322.257 -0.686227 2.85776 0
M  V30 3466 H 319.771 -0.280617 1.59957 0
M  V30 3467 H 321.768 -3.14763 2.73368 0
M  V30 3468 H 320.428 -2.82403 1.60246 0
M  V30 3469 H 321.439 -1.35975 4.99731 0
M  V30 3470 H 318.116 -2.94409 2.96023 0
M  V30 3471 H 319.506 -1.2073 6.60964 0
M  V30 3472 N 322.226 -1.5378 -0.344866 0
M  V30 3473 C 323.637 -1.62428 -0.920552 0
M  V30 3474 C 323.988 -0.504747 -1.89596 0
M  V30 3475 O 323.113 0.365711 -2.13287 0
M  V30 3476 C 323.708 -2.94419 -1.67639 0
M  V30 3477 C 322.267 -3.05333 -2.20111 0
M  V30 3478 C 321.414 -2.57866 -1.01982 0
M  V30 3479 H 324.365 -1.58222 -0.123042 0
M  V30 3480 H 324.386 -2.83384 -2.53917 0
M  V30 3481 H 323.898 -3.7588 -0.966224 0
M  V30 3482 H 321.999 -2.28502 -2.94308 0
M  V30 3483 H 322.112 -4.10778 -2.46573 0
M  V30 3484 H 320.476 -2.13241 -1.39285 0
M  V30 3485 H 321.259 -3.41765 -0.324308 0
M  V30 3486 N 323.704 0.605807 -1.45491 0
M  V30 3487 C 324.95 1.36679 -1.49823 0
M  V30 3488 C 325.283 1.93693 -0.140175 0
M  V30 3489 O 324.558 1.75158 0.845581 0
M  V30 3490 C 324.841 2.51337 -2.57879 0
M  V30 3491 C 324.694 1.99508 -4.03134 0
M  V30 3492 C 326.013 3.53463 -2.62205 0
M  V30 3493 H 323.132 0.495617 -0.545466 0
M  V30 3494 H 325.774 0.682732 -1.7731 0
M  V30 3495 H 323.924 3.09691 -2.34571 0
M  V30 3496 H 325.596 1.45789 -4.37656 0
M  V30 3497 H 323.839 1.30496 -4.13707 0
M  V30 3498 H 324.51 2.82169 -4.74431 0
M  V30 3499 H 326.986 3.04953 -2.83095 0
M  V30 3500 H 325.862 4.31178 -3.39672 0
M  V30 3501 H 326.123 4.09197 -1.67363 0
M  V30 3502 N 325.182 1.32811 0.848464 0
M  V30 3503 C 326.429 1.23724 1.60308 0
M  V30 3504 C 326.757 -0.1994 1.93475 0
M  V30 3505 O 326.012 -1.15406 1.5805 0
M  V30 3506 C 326.311 2.04831 2.92881 0
M  V30 3507 C 325.977 3.54125 2.79117 0
M  V30 3508 C 324.639 3.94829 2.7507 0
M  V30 3509 C 326.991 4.49036 2.64606 0
M  V30 3510 C 324.319 5.28675 2.544 0
M  V30 3511 C 326.671 5.83033 2.4547 0
M  V30 3512 C 325.335 6.22931 2.39819 0
M  V30 3513 H 324.605 0.452737 0.586609 0
M  V30 3514 H 327.252 1.64301 0.983743 0
M  V30 3515 H 325.557 1.57001 3.58968 0
M  V30 3516 H 327.254 1.95164 3.50303 0
M  V30 3517 H 323.844 3.21801 2.83094 0
M  V30 3518 H 328.028 4.18505 2.66772 0
M  V30 3519 H 323.284 5.58637 2.48465 0
M  V30 3520 H 327.458 6.56186 2.33222 0
M  V30 3521 H 325.085 7.26584 2.23562 0
M  V30 3522 N 326.66 -1.06551 1.16123 0
M  V30 3523 C 327.607 -2.13961 0.865414 0
M  V30 3524 C 328.577 -1.65066 -0.185055 0
M  V30 3525 O 329.762 -1.90732 -0.05083 0
M  V30 3526 C 326.902 -3.43113 0.369776 0
M  V30 3527 C 326.015 -4.05756 1.48276 0
M  V30 3528 C 325.15 -5.22773 0.942414 0
M  V30 3529 C 324.189 -5.77395 2.03179 0
M  V30 3530 N 323.326 -6.85731 1.50721 0
M  V30 3531 H 328.166 -2.38605 1.78527 0
M  V30 3532 H 325.703 -1.17072 0.890646 0
M  V30 3533 H 327.661 -4.17151 0.0640643 0
M  V30 3534 H 326.291 -3.18695 -0.513143 0
M  V30 3535 H 325.343 -3.29292 1.9045 0
M  V30 3536 H 326.655 -4.42351 2.30493 0
M  V30 3537 H 325.809 -6.03827 0.589729 0
M  V30 3538 H 324.548 -4.87618 0.0895191 0
M  V30 3539 H 323.553 -4.94981 2.3932 0
M  V30 3540 H 324.778 -6.14603 2.8886 0
M  V30 3541 H 322.724 -6.52499 0.676811 0
M  V30 3542 H 322.641 -7.21254 2.26557 0
M  V30 3543 H 323.909 -7.7047 1.18303 0
M  V30 3544 N 328.138 -0.959301 -1.25041 0
M  V30 3545 C 329.068 -0.501388 -2.28053 0
M  V30 3546 C 330.049 0.454673 -1.63911 0
M  V30 3547 O 331.234 0.352618 -1.90972 0
M  V30 3548 C 328.364 0.217224 -3.4662 0
M  V30 3549 C 327.318 -0.654034 -4.22973 0
M  V30 3550 C 326.644 0.195589 -5.34342 0
M  V30 3551 C 327.944 -1.93447 -4.85155 0
M  V30 3552 H 329.638 -1.36238 -2.66608 0
M  V30 3553 H 327.184 -0.656534 -1.28163 0
M  V30 3554 H 329.137 0.548732 -4.17812 0
M  V30 3555 H 327.861 1.1125 -3.07068 0
M  V30 3556 H 326.52 -0.968693 -3.5357 0
M  V30 3557 H 326.168 1.09076 -4.91031 0
M  V30 3558 H 325.868 -0.384091 -5.86343 0
M  V30 3559 H 327.392 0.521958 -6.08365 0
M  V30 3560 H 328.806 -1.66908 -5.48466 0
M  V30 3561 H 327.203 -2.46018 -5.47353 0
M  V30 3562 H 328.273 -2.63466 -4.07079 0
M  V30 3563 N 329.616 1.39756 -0.72842 0
M  V30 3564 C 330.864 2.00248 -0.272946 0
M  V30 3565 C 331.185 1.58077 1.14178 0
M  V30 3566 O 330.455 0.826014 1.77634 0
M  V30 3567 H 329.035 0.740554 -0.0979247 0
M  V30 3568 H 331.697 1.70903 -0.936912 0
M  V30 3569 H 330.793 3.10495 -0.316142 0
M  V30 3570 N 331.094 0.475555 1.50254 0
M  V30 3571 C 332.34 -0.0701075 2.03279 0
M  V30 3572 C 332.695 -1.37007 1.35081 0
M  V30 3573 O 331.988 -1.8577 0.469052 0
M  V30 3574 C 332.182 -0.305114 3.56095 0
M  V30 3575 C 332.011 0.970515 4.39103 0
M  V30 3576 C 330.781 1.51509 4.82051 0
M  V30 3577 C 332.979 1.8671 4.79212 0
M  V30 3578 N 330.961 2.73928 5.49397 0
M  V30 3579 C 332.332 2.93715 5.46014 0
M  V30 3580 C 334.387 1.87695 4.61167 0
M  V30 3581 C 333.09 4.01699 5.96683 0
M  V30 3582 C 335.116 2.94637 5.12779 0
M  V30 3583 C 334.478 4.00361 5.79561 0
M  V30 3584 H 330.577 0.014486 0.781866 0
M  V30 3585 H 333.161 0.644755 1.83714 0
M  V30 3586 H 331.332 -0.989019 3.75597 0
M  V30 3587 H 333.064 -0.845516 3.95769 0
M  V30 3588 H 329.819 1.06367 4.61501 0
M  V30 3589 H 330.243 3.36109 5.87673 0
M  V30 3590 H 334.885 1.07273 4.08965 0
M  V30 3591 H 332.603 4.82934 6.4792 0
M  V30 3592 H 336.189 2.96388 5.00645 0
M  V30 3593 H 335.069 4.81751 6.18778 0
M  V30 3594 N 332.573 -1.56217 0.208337 0
M  V30 3595 C 333.801 -2.02337 -0.43215 0
M  V30 3596 C 334.216 -1.08834 -1.54275 0
M  V30 3597 O 333.573 -0.0955462 -1.8225 0
M  V30 3598 C 333.624 -3.48072 -0.976138 0
M  V30 3599 O 333.345 -4.38007 0.0901621 0
M  V30 3600 C 334.846 -4.09773 -1.69119 0
M  V30 3601 H 332.066 -0.662385 -0.10718 0
M  V30 3602 H 334.61 -2.01966 0.320923 0
M  V30 3603 H 332.765 -3.49099 -1.67954 0
M  V30 3604 H 333.179 -5.23543 -0.316701 0
M  V30 3605 H 334.653 -5.13556 -2.02397 0
M  V30 3606 H 335.13 -3.53999 -2.59964 0
M  V30 3607 H 335.736 -4.12556 -1.03332 0
M  V30 3608 N 334.051 0.0651679 -1.57465 0
M  V30 3609 C 335.297 0.764193 -1.87851 0
M  V30 3610 C 335.63 1.76889 -0.801495 0
M  V30 3611 O 334.905 1.93594 0.187528 0
M  V30 3612 C 335.188 1.46625 -3.28897 0
M  V30 3613 C 335.041 0.477515 -4.47258 0
M  V30 3614 C 336.36 2.4095 -3.68281 0
M  V30 3615 H 333.479 0.276351 -0.683227 0
M  V30 3616 H 336.121 0.0272868 -1.8998 0
M  V30 3617 H 334.271 2.09438 -3.27212 0
M  V30 3618 H 335.943 -0.145922 -4.61069 0
M  V30 3619 H 334.186 -0.206576 -4.33308 0
M  V30 3620 H 334.857 1.0065 -5.42746 0
M  V30 3621 H 337.333 1.88209 -3.71102 0
M  V30 3622 H 336.209 2.87072 -4.67847 0
M  V30 3623 H 336.47 3.26049 -2.98571 0
M  V30 3624 N 335.529 1.53961 0.336706 0
M  V30 3625 C 336.462 1.77255 1.43722 0
M  V30 3626 C 337.44 0.62193 1.50236 0
M  V30 3627 O 338.624 0.857874 1.67847 0
M  V30 3628 C 335.751 1.87733 2.81912 0
M  V30 3629 C 334.797 3.09933 2.92991 0
M  V30 3630 S 335.63 4.68836 2.58753 0
M  V30 3631 C 336.786 4.82202 3.99039 0
M  V30 3632 H 337.019 2.70322 1.23748 0
M  V30 3633 H 334.552 1.44917 0.532777 0
M  V30 3634 H 336.51 1.94455 3.61521 0
M  V30 3635 H 335.171 0.956666 2.99177 0
M  V30 3636 H 334.364 3.1396 3.94265 0
M  V30 3637 H 333.966 3.01472 2.21338 0
M  V30 3638 H 336.258 4.64032 4.9364 0
M  V30 3639 H 337.201 5.84298 4.00002 0
M  V30 3640 H 337.609 4.10604 3.87382 0
M  V30 3641 N 337.007 -0.598083 1.45811 0
M  V30 3642 C 337.957 -1.70272 1.51629 0
M  V30 3643 C 338.941 -1.56382 0.378629 0
M  V30 3644 O 340.133 -1.65557 0.626087 0
M  V30 3645 C 337.262 -3.09042 1.49493 0
M  V30 3646 C 336.348 -3.28284 2.68496 0
M  V30 3647 N 336.739 -3.17748 3.93535 0
M  V30 3648 C 335.037 -3.59182 2.64394 0
M  V30 3649 C 335.738 -3.38579 4.7301 0
M  V30 3650 N 334.714 -3.63016 4.04624 0
M  V30 3651 H 338.516 -1.60634 2.46118 0
M  V30 3652 H 336.03 -0.801642 1.41235 0
M  V30 3653 H 338.027 -3.88302 1.51747 0
M  V30 3654 H 336.687 -3.19823 0.560683 0
M  V30 3655 H 337.698 -2.95944 4.25014 0
M  V30 3656 H 334.375 -3.76742 1.79922 0
M  V30 3657 H 335.765 -3.35747 5.82 0
M  V30 3658 N 338.485 -1.33259 -0.841409 0
M  V30 3659 C 339.734 -1.23921 -1.59143 0
M  V30 3660 C 340.047 0.1941 -1.94635 0
M  V30 3661 O 341.253 0.409474 -2.68394 0
M  V30 3662 C 339.709 -2.17119 -2.87032 0
M  V30 3663 C 339.317 -3.65606 -2.58914 0
M  V30 3664 C 341.061 -2.16648 -3.65053 0
M  V30 3665 C 338.968 -4.50726 -3.82884 0
M  V30 3666 H 337.898 -0.460264 -0.597221 0
M  V30 3667 H 340.549 -1.58307 -0.927959 0
M  V30 3668 H 338.931 -1.75663 -3.54906 0
M  V30 3669 H 340.105 -4.15487 -1.99267 0
M  V30 3670 H 338.42 -3.68341 -1.942 0
M  V30 3671 H 341.017 -2.77474 -4.57069 0
M  V30 3672 H 341.36 -1.16088 -3.99787 0
M  V30 3673 H 341.893 -2.56453 -3.041 0
M  V30 3674 H 338.632 -5.52151 -3.53283 0
M  V30 3675 H 338.152 -4.0559 -4.41879 0
M  V30 3676 H 339.831 -4.64401 -4.50489 0
M  V30 3677 N 339.963 1.05934 -1.16686 0
M  V30 3678 C 341.209 1.79065 -0.95203 0
M  V30 3679 C 341.542 1.87147 0.518629 0
M  V30 3680 O 340.817 1.36574 1.38484 0
M  V30 3681 C 341.1 3.23359 -1.58464 0
M  V30 3682 C 340.953 3.23336 -3.12689 0
M  V30 3683 C 342.272 4.21004 -1.28232 0
M  V30 3684 H 339.391 0.65005 -0.34728 0
M  V30 3685 H 342.033 1.23868 -1.44072 0
M  V30 3686 H 340.183 3.70493 -1.16908 0
M  V30 3687 H 341.855 2.84336 -3.6325 0
M  V30 3688 H 340.098 2.61886 -3.4583 0
M  V30 3689 H 340.769 4.25144 -3.52075 0
M  V30 3690 H 343.245 3.8233 -1.64203 0
M  V30 3691 H 342.121 5.20225 -1.75092 0
M  V30 3692 H 342.382 4.41639 -0.201791 0
M  V30 3693 N 341.441 0.965919 1.2453 0
M  V30 3694 C 342.718 0.543777 1.87889 0
M  V30 3695 C 343.098 -0.97909 1.87021 0
M  V30 3696 O 342.446 -1.84969 1.3416 0
M  V30 3697 C 342.656 1.13327 3.30088 0
M  V30 3698 C 344.004 1.21707 4.06783 0
M  V30 3699 O 345.028 1.08566 3.39252 0
M  V30 3700 O 343.887 1.42456 5.27606 0
M  V30 3701 H 340.981 0.181054 0.806938 0
M  V30 3702 H 343.527 1.06007 1.32516 0
M  V30 3703 H 342.299 2.17612 3.25209 0
M  V30 3704 H 341.922 0.600911 3.93033 0
M  V30 3705 N 342.919 -1.39368 0.735821 0
M  V30 3706 C 343.829 -2.34395 0.0979693 0
M  V30 3707 C 344.845 -1.58361 -0.720968 0
M  V30 3708 O 346.021 -1.90648 -0.649245 0
M  V30 3709 C 343.086 -3.37393 -0.797916 0
M  V30 3710 C 342.147 -4.29287 0.0333662 0
M  V30 3711 C 341.38 -5.27365 -0.819854 0
M  V30 3712 O 341.603 -5.31959 -2.05855 0
M  V30 3713 O 340.537 -6.01389 -0.248079 0
M  V30 3714 H 344.363 -2.90601 0.882315 0
M  V30 3715 H 341.948 -1.40909 0.4965 0
M  V30 3716 H 343.83 -4.00505 -1.31048 0
M  V30 3717 H 342.505 -2.83571 -1.56106 0
M  V30 3718 H 341.412 -3.69395 0.591475 0
M  V30 3719 H 342.745 -4.86317 0.758752 0
M  V30 3720 N 344.397 -0.483516 -1.5 0
M  V30 3721 C 345.622 0.0667119 -2.07293 0
M  V30 3722 C 346.047 1.3164 -1.3436 0
M  V30 3723 O 345.405 1.76945 -0.394987 0
M  V30 3724 C 345.453 0.321126 -3.59167 0
M  V30 3725 O 344.557 1.39927 -3.87936 0
M  V30 3726 H 343.898 -0.0184758 -0.663743 0
M  V30 3727 H 346.428 -0.678125 -1.93035 0
M  V30 3728 H 346.438 0.557906 -4.04168 0
M  V30 3729 H 345.113 -0.592007 -4.11665 0
M  V30 3730 H 343.69 1.14882 -3.54763 0
M  V30 3731 N 345.875 1.56104 -0.216619 0
M  V30 3732 C 347.1 2.0301 0.424462 0
M  V30 3733 C 347.525 1.0955 1.52907 0
M  V30 3734 O 346.883 0.0827914 1.81111 0
M  V30 3735 C 346.931 3.4819 0.937883 0
M  V30 3736 O 346.035 3.57865 2.04955 0
M  V30 3737 H 345.376 0.656925 0.0966755 0
M  V30 3738 H 347.906 2.01859 -0.33381 0
M  V30 3739 H 347.916 3.88413 1.24897 0
M  V30 3740 H 346.591 4.15699 0.129387 0
M  V30 3741 H 345.168 3.29527 1.74546 0
M  V30 3742 N 347.353 -0.0568162 1.57498 0
M  V30 3743 C 348.764 -0.606858 1.76562 0
M  V30 3744 C 349.115 -1.77114 0.844094 0
M  V30 3745 O 348.24 -2.16376 0.0318911 0
M  V30 3746 C 348.835 -1.10766 3.20182 0
M  V30 3747 C 347.394 -1.60344 3.40539 0
M  V30 3748 C 346.541 -0.529311 2.72201 0
M  V30 3749 H 349.492 0.169393 1.57793 0
M  V30 3750 H 349.513 -1.97602 3.25167 0
M  V30 3751 H 349.025 -0.26006 3.87228 0
M  V30 3752 H 347.126 -2.47379 2.78629 0
M  V30 3753 H 347.239 -1.67006 4.4905 0
M  V30 3754 H 345.603 -0.977893 2.35179 0
M  V30 3755 H 346.386 0.308352 3.41912 0
M  V30 3756 N 348.832 -1.54138 -0.328536 0
M  V30 3757 C 349.762 -1.86167 -1.40939 0
M  V30 3758 C 350.743 -0.718044 -1.54202 0
M  V30 3759 O 351.928 -0.971328 -1.68163 0
M  V30 3760 C 349.058 -2.08461 -2.77779 0
M  V30 3761 C 348.012 -3.24299 -2.7931 0
M  V30 3762 C 347.338 -3.31955 -4.19178 0
M  V30 3763 C 348.638 -4.62065 -2.43502 0
M  V30 3764 H 350.332 -2.76689 -1.14383 0
M  V30 3765 H 347.878 -1.33132 -0.548806 0
M  V30 3766 H 349.831 -2.29453 -3.53454 0
M  V30 3767 H 348.555 -1.14684 -3.05802 0
M  V30 3768 H 347.214 -3.03187 -2.0609 0
M  V30 3769 H 346.862 -2.35745 -4.44335 0
M  V30 3770 H 346.562 -4.09805 -4.2111 0
M  V30 3771 H 348.086 -3.55175 -4.96672 0
M  V30 3772 H 349.5 -4.8297 -3.08889 0
M  V30 3773 H 347.897 -5.42429 -2.56693 0
M  V30 3774 H 348.967 -4.64652 -1.38659 0
M  V30 3775 N 350.31 0.590341 -1.46126 0
M  V30 3776 C 351.557 1.34882 -1.5104 0
M  V30 3777 C 351.885 1.93849 -0.159021 0
M  V30 3778 O 351.14 1.76544 0.844436 0
M  V30 3779 C 351.439 2.5032 -2.55097 0
M  V30 3780 C 351.105 2.09394 -3.99331 0
M  V30 3781 C 349.767 1.97947 -4.38601 0
M  V30 3782 C 352.119 1.77712 -4.89967 0
M  V30 3783 C 349.447 1.53065 -5.66381 0
M  V30 3784 C 351.799 1.34312 -6.18177 0
M  V30 3785 C 350.463 1.21436 -6.56361 0
M  V30 3786 H 349.733 0.493568 -0.552695 0
M  V30 3787 H 352.38 0.665539 -1.79563 0
M  V30 3788 H 350.685 3.24062 -2.20207 0
M  V30 3789 H 352.382 3.08541 -2.56132 0
M  V30 3790 H 348.972 2.19235 -3.68285 0
M  V30 3791 H 353.156 1.85445 -4.60352 0
M  V30 3792 H 348.412 1.41733 -5.94745 0
M  V30 3793 H 352.586 1.08849 -6.87841 0
M  V30 3794 H 350.213 0.864345 -7.5527 0
M  V30 3795 N 351.788 1.33704 0.83433 0
M  V30 3796 C 353.036 1.25169 1.58673 0
M  V30 3797 C 353.357 -0.18127 1.94156 0
M  V30 3798 O 352.627 -1.11113 1.6134 0
M  V30 3799 H 351.207 0.4603 0.58833 0
M  V30 3800 H 353.869 1.67478 0.996847 0
M  V30 3801 H 352.965 1.84856 2.51465 0
M  V30 3802 N 353.266 -1.05314 1.17247 0
M  V30 3803 C 354.176 -2.16538 0.90268 0
M  V30 3804 C 355.192 -1.73523 -0.128707 0
M  V30 3805 O 356.368 -2.01337 0.0502701 0
M  V30 3806 C 353.433 -3.44167 0.418356 0
M  V30 3807 C 352.494 -4.01635 1.51618 0
M  V30 3808 C 351.727 -5.23171 1.05487 0
M  V30 3809 O 351.95 -5.70327 -0.0914715 0
M  V30 3810 O 350.884 -5.72848 1.8474 0
M  V30 3811 H 354.71 -2.42145 1.83302 0
M  V30 3812 H 352.295 -1.15037 0.953246 0
M  V30 3813 H 354.177 -4.21112 0.155726 0
M  V30 3814 H 352.852 -3.20063 -0.48385 0
M  V30 3815 H 351.759 -3.26135 1.83268 0
M  V30 3816 H 353.092 -4.30053 2.39405 0
M  V30 3817 N 354.744 -0.972509 -1.24016 0
M  V30 3818 C 355.972 -0.654803 -1.96265 0
M  V30 3819 C 356.387 0.776708 -1.72083 0
M  V30 3820 O 355.744 1.52171 -1.00748 0
M  V30 3821 C 355.795 -0.92592 -3.49441 0
M  V30 3822 O 355.516 -2.30116 -3.72798 0
M  V30 3823 C 357.017 -0.623068 -4.38899 0
M  V30 3824 H 354.237 -0.243907 -0.6251 0
M  V30 3825 H 356.781 -1.30175 -1.57717 0
M  V30 3826 H 354.936 -0.325108 -3.86033 0
M  V30 3827 H 355.35 -2.38483 -4.67147 0
M  V30 3828 H 356.824 -0.863189 -5.45209 0
M  V30 3829 H 357.301 0.442754 -4.36963 0
M  V30 3830 H 357.907 -1.204 -4.07902 0
M  V30 3831 N 356.222 1.38976 -0.743202 0
M  V30 3832 C 357.185 2.28901 -0.117014 0
M  V30 3833 C 358.185 1.46698 0.658503 0
M  V30 3834 O 359.375 1.67274 0.486305 0
M  V30 3835 C 356.507 3.30309 0.84315 0
M  V30 3836 H 357.7 2.8578 -0.909373 0
M  V30 3837 H 355.253 1.47761 -0.509547 0
M  V30 3838 H 355.988 2.785 1.66157 0
M  V30 3839 H 355.773 3.91029 0.289594 0
M  V30 3840 H 357.263 3.97577 1.2776 0
M  V30 3841 N 357.7 0.491464 1.49741 0
M  V30 3842 C 358.61 -0.296835 2.32715 0
M  V30 3843 C 359.626 -0.976536 1.44013 0
M  V30 3844 O 360.802 -0.960023 1.77047 0
M  V30 3845 C 357.867 -1.35288 3.19215 0
M  V30 3846 C 356.928 -0.687632 4.23757 0
M  V30 3847 C 356.161 -1.69336 5.06123 0
M  V30 3848 O 356.384 -2.92219 4.89861 0
M  V30 3849 O 355.318 -1.25394 5.88693 0
M  V30 3850 H 359.144 0.382048 3.01287 0
M  V30 3851 H 356.729 0.252953 1.47243 0
M  V30 3852 H 358.611 -1.96411 3.72828 0
M  V30 3853 H 357.286 -2.01487 2.53347 0
M  V30 3854 H 356.193 -0.0369159 3.74082 0
M  V30 3855 H 357.526 -0.0682566 4.92153 0
M  V30 3856 N 359.178 -1.55987 0.224894 0
M  V30 3857 C 360.406 -2.02784 -0.410665 0
M  V30 3858 C 360.821 -1.10464 -1.53112 0
M  V30 3859 O 360.178 -0.114871 -1.82138 0
M  V30 3860 C 360.229 -3.49087 -0.939165 0
M  V30 3861 O 359.95 -4.37887 0.136614 0
M  V30 3862 C 361.451 -4.11543 -1.64763 0
M  V30 3863 H 358.671 -0.663484 -0.100148 0
M  V30 3864 H 361.215 -2.01614 0.342326 0
M  V30 3865 H 359.37 -3.50861 -1.64242 0
M  V30 3866 H 359.784 -5.23849 -0.261155 0
M  V30 3867 H 361.258 -5.15673 -1.96939 0
M  V30 3868 H 361.735 -3.56736 -2.56195 0
M  V30 3869 H 362.341 -4.13629 -0.989503 0
M  V30 3870 N 360.656 0.0484629 -1.57525 0
M  V30 3871 C 361.586 1.0549 -2.08313 0
M  V30 3872 C 362.567 1.38929 -0.981463 0
M  V30 3873 O 363.752 1.48151 -1.25558 0
M  V30 3874 C 360.882 2.36162 -2.54646 0
M  V30 3875 C 359.836 2.17016 -3.68901 0
M  V30 3876 C 359.162 3.53278 -4.01371 0
M  V30 3877 C 360.462 1.57219 -4.98076 0
M  V30 3878 H 362.156 0.632195 -2.92649 0
M  V30 3879 H 359.702 0.302654 -1.40784 0
M  V30 3880 H 361.655 3.06882 -2.88793 0
M  V30 3881 H 360.379 2.80456 -1.67368 0
M  V30 3882 H 359.038 1.48733 -3.35073 0
M  V30 3883 H 358.686 3.95185 -3.11188 0
M  V30 3884 H 358.386 3.41299 -4.78318 0
M  V30 3885 H 359.91 4.25391 -4.38035 0
M  V30 3886 H 361.324 2.17832 -5.30304 0
M  V30 3887 H 359.721 1.55871 -5.79503 0
M  V30 3888 H 360.791 0.535956 -4.81929 0
M  V30 3889 N 362.134 1.5431 0.320358 0
M  V30 3890 C 363.081 1.83918 1.39438 0
M  V30 3891 C 364.051 0.686525 1.51248 0
M  V30 3892 O 365.236 0.933269 1.66417 0
M  V30 3893 C 362.376 2.075 2.75749 0
M  V30 3894 C 361.489 3.35177 2.72544 0
M  V30 3895 C 360.624 3.48704 4.00723 0
M  V30 3896 C 359.663 4.70244 3.91838 0
M  V30 3897 N 358.8 4.80679 5.11754 0
M  V30 3898 H 363.64 2.75544 1.13489 0
M  V30 3899 H 361.177 1.36459 0.549309 0
M  V30 3900 H 363.135 2.19166 3.54996 0
M  V30 3901 H 361.765 1.19163 3 0
M  V30 3902 H 360.817 3.32233 1.85271 0
M  V30 3903 H 362.129 4.24534 2.61863 0
M  V30 3904 H 361.283 3.59928 4.88402 0
M  V30 3905 H 360.022 2.57445 4.14214 0
M  V30 3906 H 359.027 4.59072 3.02544 0
M  V30 3907 H 360.252 5.6289 3.7991 0
M  V30 3908 H 358.198 3.92337 5.25745 0
M  V30 3909 H 358.115 5.64007 5.0342 0
M  V30 3910 H 359.383 4.96239 6.01138 0
M  V30 3911 N 363.613 -0.582584 1.46437 0
M  V30 3912 C 364.545 -1.70618 1.53043 0
M  V30 3913 C 365.558 -1.57322 0.418769 0
M  V30 3914 O 366.747 -1.64744 0.687136 0
M  V30 3915 C 363.847 -3.08869 1.39474 0
M  V30 3916 C 363.02 -3.48166 2.64762 0
M  V30 3917 C 362.079 -4.65478 2.4539 0
M  V30 3918 O 361.105 -4.71333 3.19114 0
M  V30 3919 N 362.307 -5.60365 1.51564 0
M  V30 3920 H 365.072 -1.65405 2.49923 0
M  V30 3921 H 362.633 -0.768567 1.42494 0
M  V30 3922 H 364.625 -3.85143 1.24287 0
M  V30 3923 H 363.195 -3.08449 0.507758 0
M  V30 3924 H 362.415 -2.61598 2.9489 0
M  V30 3925 H 363.703 -3.71188 3.4799 0
M  V30 3926 H 363.101 -5.5837 0.907705 0
M  V30 3927 H 361.658 -6.36068 1.4234 0
M  V30 3928 N 365.091 -1.34144 -0.827227 0
M  V30 3929 C 366.507 -1.13732 -1.11969 0
M  V30 3930 C 366.707 0.0640463 -2.01398 0
M  V30 3931 O 365.763 0.740856 -2.41387 0
M  V30 3932 C 367.076 -2.43047 -1.77055 0
M  V30 3933 C 368.624 -2.49063 -1.89569 0
M  V30 3934 C 369.099 -3.78369 -2.58072 0
M  V30 3935 N 370.59 -3.79505 -2.65575 0
M  V30 3936 C 371.325 -4.76274 -3.19297 0
M  V30 3937 N 370.821 -5.83424 -3.73616 0
M  V30 3938 N 372.614 -4.63735 -3.17658 0
M  V30 3939 H 364.765 -2.11126 -0.232296 0
M  V30 3940 H 367.028 -0.933424 -0.165602 0
M  V30 3941 H 366.734 -3.31025 -1.18807 0
M  V30 3942 H 366.608 -2.56066 -2.76966 0
M  V30 3943 H 368.995 -1.61527 -2.46968 0
M  V30 3944 H 369.076 -2.39975 -0.885745 0
M  V30 3945 H 368.72 -4.66293 -2.01329 0
M  V30 3946 H 368.65 -3.84737 -3.59562 0
M  V30 3947 H 371.141 -3.02074 -2.27068 0
M  V30 3948 H 371.454 -6.53282 -4.12846 0
M  V30 3949 H 369.799 -5.87143 -3.71871 0
M  V30 3950 H 372.99 -3.79177 -2.74486 0
M  V30 3951 H 373.163 -5.39318 -3.59221 0
M  V30 3952 N 366.569 1.04691 -1.17803 0
M  V30 3953 C 367.846 1.7472 -0.879328 0
M  V30 3954 C 368.226 2.01812 0.619271 0
M  V30 3955 O 367.574 1.65824 1.57209 0
M  V30 3956 C 367.784 3.03686 -1.71976 0
M  V30 3957 C 369.132 3.77542 -1.94286 0
M  V30 3958 O 370.156 3.13569 -1.68976 0
M  V30 3959 O 369.015 4.92506 -2.36855 0
M  V30 3960 H 366.109 0.760011 -0.326056 0
M  V30 3961 H 368.655 1.10813 -1.28525 0
M  V30 3962 H 367.427 2.79754 -2.73594 0
M  V30 3963 H 367.05 3.75332 -1.31194 0
M  V30 3964 N 368.047 0.979072 1.23499 0
M  V30 3965 C 369.275 0.665202 1.95915 0
M  V30 3966 C 369.69 -0.767571 1.72493 0
M  V30 3967 O 369.047 -1.51635 1.01554 0
M  V30 3968 C 369.098 0.944438 3.48945 0
M  V30 3969 O 368.819 2.3209 3.71572 0
M  V30 3970 C 370.32 0.646336 4.38563 0
M  V30 3971 H 367.54 0.247218 0.623798 0
M  V30 3972 H 370.084 1.31009 1.57025 0
M  V30 3973 H 368.239 0.345575 3.85856 0
M  V30 3974 H 368.653 2.40957 4.65876 0
M  V30 3975 H 370.127 0.892091 5.44744 0
M  V30 3976 H 370.604 -0.419575 4.37191 0
M  V30 3977 H 371.21 1.22562 4.07258 0
M  V30 3978 N 369.525 -1.3858 0.750561 0
M  V30 3979 C 370.75 -2.04997 0.314812 0
M  V30 3980 C 371.175 -1.56235 -1.04749 0
M  V30 3981 O 370.533 -0.712981 -1.66692 0
M  V30 3982 C 370.581 -3.58961 0.343415 0
M  V30 3983 O 369.685 -4.07025 -0.663628 0
M  V30 3984 H 369.026 -0.649081 0.139962 0
M  V30 3985 H 371.556 -1.77313 1.02084 0
M  V30 3986 H 371.566 -4.07542 0.193233 0
M  V30 3987 H 370.241 -3.93811 1.33738 0
M  V30 3988 H 368.818 -3.6982 -0.478307 0
M  V30 3989 N 371.003 -0.499398 -1.49478 0
M  V30 3990 C 371.933 0.269244 -2.31943 0
M  V30 3991 C 372.914 0.964054 -1.40143 0
M  V30 3992 O 374.099 0.955767 -1.69052 0
M  V30 3993 C 371.229 1.33504 -3.20615 0
M  V30 3994 C 370.183 0.760202 -4.21195 0
M  V30 3995 C 369.509 1.9264 -4.98792 0
M  V30 3996 C 370.809 -0.247661 -5.21712 0
M  V30 3997 H 372.503 -0.419082 -2.96452 0
M  V30 3998 H 370.049 -0.202988 -1.42562 0
M  V30 3999 H 372.002 1.88048 -3.77115 0
M  V30 4000 H 370.726 2.05253 -2.54045 0
M  V30 4001 H 369.385 0.23653 -3.65836 0
M  V30 4002 H 369.033 2.63154 -4.28671 0
M  V30 4003 H 368.733 1.54785 -5.66847 0
M  V30 4004 H 370.257 2.4762 -5.58137 0
M  V30 4005 H 371.671 0.209579 -5.72917 0
M  V30 4006 H 370.068 -0.541962 -5.97648 0
M  V30 4007 H 371.138 -1.16409 -4.7072 0
M  V30 4008 N 372.481 1.55866 -0.233164 0
M  V30 4009 C 373.73 1.97779 0.39579 0
M  V30 4010 C 374.043 1.12419 1.60066 0
M  V30 4011 O 375.249 1.44283 2.29988 0
M  V30 4012 C 373.705 3.5188 0.755556 0
M  V30 4013 C 373.313 4.45959 -0.427152 0
M  V30 4014 C 375.057 4.02479 1.34946 0
M  V30 4015 C 372.964 5.91383 -0.0443043 0
M  V30 4016 H 371.894 0.738592 0.15165 0
M  V30 4017 H 374.545 1.80486 -0.331212 0
M  V30 4018 H 372.927 3.64816 1.5403 0
M  V30 4019 H 374.101 4.44776 -1.20462 0
M  V30 4020 H 372.416 4.05765 -0.935068 0
M  V30 4021 H 375.013 5.08637 1.649 0
M  V30 4022 H 375.356 3.49014 2.26925 0
M  V30 4023 H 375.889 3.92813 0.62791 0
M  V30 4024 H 372.628 6.48857 -0.930874 0
M  V30 4025 H 372.148 5.95734 0.697238 0
M  V30 4026 H 373.827 6.45893 0.378334 0
M  V30 4027 N 373.959 -0.0401083 1.57549 0
M  V30 4028 C 374.889 -1.04384 2.08869 0
M  V30 4029 C 375.87 -1.38407 0.988817 0
M  V30 4030 O 377.055 -1.47483 1.26342 0
M  V30 4031 C 374.185 -2.34808 2.55895 0
M  V30 4032 C 373.139 -2.15057 3.70047 0
M  V30 4033 C 372.465 -3.51145 4.03239 0
M  V30 4034 C 373.765 -1.54576 4.98902 0
M  V30 4035 H 375.459 -0.616666 2.92981 0
M  V30 4036 H 373.005 -0.295184 1.40942 0
M  V30 4037 H 374.958 -3.05346 2.90417 0
M  V30 4038 H 373.682 -2.79565 1.68853 0
M  V30 4039 H 372.341 -1.46954 3.35857 0
M  V30 4040 H 371.989 -3.93529 3.13279 0
M  V30 4041 H 371.689 -3.38758 4.80122 0
M  V30 4042 H 373.213 -4.23062 4.40285 0
M  V30 4043 H 374.627 -2.15017 5.31451 0
M  V30 4044 H 373.024 -1.52796 5.80322 0
M  V30 4045 H 374.094 -0.51039 4.82206 0
M  V30 4046 N 375.437 -1.54477 -0.31217 0
M  V30 4047 C 376.665 -1.77205 -1.068 0
M  V30 4048 C 377.08 -0.526114 -1.81321 0
M  V30 4049 O 376.437 0.503647 -1.75413 0
M  V30 4050 C 376.488 -2.97253 -2.05725 0
M  V30 4051 O 376.209 -4.1703 -1.34228 0
M  V30 4052 C 377.71 -3.32281 -2.93435 0
M  V30 4053 H 374.93 -0.591287 -0.317208 0
M  V30 4054 H 377.474 -2.01398 -0.354834 0
M  V30 4055 H 375.629 -2.753 -2.72559 0
M  V30 4056 H 376.043 -4.84636 -2.00571 0
M  V30 4057 H 377.517 -4.19551 -3.58721 0
M  V30 4058 H 377.994 -2.49945 -3.61143 0
M  V30 4059 H 378.6 -3.56353 -2.32147 0
M  V30 4060 N 376.915 0.57481 -1.46744 0
M  V30 4061 C 377.845 1.69337 -1.60771 0
M  V30 4062 C 378.826 1.63825 -0.457736 0
M  V30 4063 O 380.011 1.8172 -0.684947 0
M  V30 4064 C 377.141 3.0798 -1.60517 0
M  V30 4065 C 376.095 3.28327 -2.74564 0
M  V30 4066 C 375.421 4.67578 -2.59373 0
M  V30 4067 C 376.721 3.15398 -4.16319 0
M  V30 4068 H 378.415 1.57853 -2.54407 0
M  V30 4069 H 375.961 0.75799 -1.22436 0
M  V30 4070 H 377.914 3.86061 -1.68923 0
M  V30 4071 H 376.638 3.20381 -0.634305 0
M  V30 4072 H 375.297 2.52649 -2.65639 0
M  V30 4073 H 374.945 4.76755 -1.60353 0
M  V30 4074 H 374.645 4.82144 -3.35873 0
M  V30 4075 H 376.169 5.47817 -2.69682 0
M  V30 4076 H 377.583 3.83315 -4.26313 0
M  V30 4077 H 375.98 3.41482 -4.93468 0
M  V30 4078 H 377.05 2.12372 -4.3592 0
M  V30 4079 N 378.394 1.34581 0.820102 0
M  V30 4080 C 379.304 1.28471 1.96297 0
M  V30 4081 C 380.32 0.191902 1.72939 0
M  V30 4082 O 381.496 0.418879 1.96996 0
M  V30 4083 C 378.561 1.04281 3.30645 0
M  V30 4084 C 377.622 2.22745 3.66992 0
M  V30 4085 C 376.855 1.997 4.9493 0
M  V30 4086 O 377.078 0.956656 5.6232 0
M  V30 4087 O 376.012 2.86723 5.2922 0
M  V30 4088 H 379.838 2.24624 2.04396 0
M  V30 4089 H 377.423 1.14816 0.955913 0
M  V30 4090 H 379.305 0.925841 4.11104 0
M  V30 4091 H 377.98 0.111697 3.23507 0
M  V30 4092 H 376.887 2.40003 2.86966 0
M  V30 4093 H 378.22 3.14257 3.78819 0
M  V30 4094 N 379.872 -1.04064 1.18357 0
M  V30 4095 C 381.12 -1.76915 0.977013 0
M  V30 4096 C 381.441 -1.88624 -0.494577 0
M  V30 4097 O 380.711 -1.41125 -1.3587 0
M  V30 4098 H 379.291 -0.65535 0.358504 0
M  V30 4099 H 381.953 -1.25592 1.49039 0
M  V30 4100 H 381.049 -2.78178 1.41504 0
M  V30 4101 N 381.35 -0.985608 -1.22978 0
M  V30 4102 C 382.596 -0.65836 -1.91816 0
M  V30 4103 C 382.929 0.806692 -1.76653 0
M  V30 4104 O 382.204 1.58252 -1.13078 0
M  V30 4105 C 382.487 -1.056 -3.44268 0
M  V30 4106 C 382.34 -2.57906 -3.68516 0
M  V30 4107 C 383.659 -0.603781 -4.35939 0
M  V30 4108 H 380.778 -0.24065 -0.696604 0
M  V30 4109 H 383.42 -1.22783 -1.44998 0
M  V30 4110 H 381.57 -0.571445 -3.84274 0
M  V30 4111 H 383.242 -3.13976 -3.3796 0
M  V30 4112 H 381.485 -3.00305 -3.13048 0
M  V30 4113 H 382.156 -2.80779 -4.75255 0
M  V30 4114 H 384.632 -1.01987 -4.03408 0
M  V30 4115 H 383.508 -0.910383 -5.41298 0
M  V30 4116 H 383.769 0.495761 -4.39312 0
M  V30 4117 N 382.828 1.3818 -0.7579 0
M  V30 4118 C 384.105 1.94106 -0.241306 0
M  V30 4119 C 384.485 1.69282 1.26122 0
M  V30 4120 O 383.833 1.03378 2.03777 0
M  V30 4121 C 384.043 3.43809 -0.59967 0
M  V30 4122 C 385.391 4.20868 -0.561717 0
M  V30 4123 O 386.415 3.5211 -0.538222 0
M  V30 4124 O 385.274 5.43451 -0.576478 0
M  V30 4125 H 382.368 0.825376 -0.0518042 0
M  V30 4126 H 384.914 1.47548 -0.838315 0
M  V30 4127 H 383.686 3.55403 -1.6372 0
M  V30 4128 H 383.309 3.97592 0.0251197 0
M  V30 4129 N 384.306 0.507319 1.49211 0
M  V30 4130 C 385.216 -0.272136 2.33016 0
M  V30 4131 C 386.232 -0.961206 1.45041 0
M  V30 4132 O 387.408 -0.941191 1.78055 0
M  V30 4133 C 384.473 -1.31895 3.20631 0
M  V30 4134 C 383.534 -0.642648 4.24463 0
M  V30 4135 C 382.767 -1.63959 5.07891 0
M  V30 4136 O 382.99 -2.87007 4.92933 0
M  V30 4137 O 381.924 -1.19143 5.8999 0
M  V30 4138 H 385.75 0.413982 3.00865 0
M  V30 4139 H 383.335 0.268556 1.46966 0
M  V30 4140 H 385.217 -1.92446 3.7489 0
M  V30 4141 H 383.892 -1.98788 2.5547 0
M  V30 4142 H 382.799 0.00276252 3.741 0
M  V30 4143 H 384.132 -0.0160534 4.92197 0
M  V30 4144 N 385.784 -1.5574 0.241426 0
M  V30 4145 C 387.009 -2.0366 -0.392111 0
M  V30 4146 C 387.434 -1.11969 -1.51144 0
M  V30 4147 O 386.792 -0.111594 -1.80956 0
M  V30 4148 C 386.84 -3.49638 -0.882371 0
M  V30 4149 O 385.944 -3.6108 -1.99235 0
M  V30 4150 H 385.285 -0.658379 -0.0862122 0
M  V30 4151 H 387.815 -2.01302 0.365881 0
M  V30 4152 H 387.825 -3.90351 -1.18702 0
M  V30 4153 H 386.5 -4.15852 -0.0632361 0
M  V30 4154 H 385.077 -3.32262 -1.69282 0
M  V30 4155 N 387.262 0.0317525 -1.57568 0
M  V30 4156 C 388.49 0.734949 -1.93407 0
M  V30 4157 C 388.905 1.69036 -0.84096 0
M  V30 4158 O 388.262 1.81582 0.182836 0
M  V30 4159 C 388.313 1.49432 -3.29169 0
M  V30 4160 O 388.034 0.577261 -4.3428 0
M  V30 4161 C 389.535 2.29492 -3.79273 0
M  V30 4162 H 386.755 0.206706 -0.638368 0
M  V30 4163 H 389.299 -0.00992046 -2.04498 0
M  V30 4164 H 387.454 2.1911 -3.19483 0
M  V30 4165 H 387.868 1.10952 -5.1263 0
M  V30 4166 H 389.342 2.78172 -4.76785 0
M  V30 4167 H 389.819 3.10794 -3.10328 0
M  V30 4168 H 390.425 1.64894 -3.92033 0
M  V30 4169 N 388.74 1.54641 0.303973 0
M  V30 4170 C 389.703 1.84646 1.35789 0
M  V30 4171 C 390.703 0.7192 1.4382 0
M  V30 4172 O 391.893 0.987491 1.43507 0
M  V30 4173 C 389.025 2.02407 2.74307 0
M  V30 4174 H 390.218 2.78829 1.10429 0
M  V30 4175 H 387.771 1.46658 0.540487 0
M  V30 4176 H 388.506 1.10502 3.04893 0
M  V30 4177 H 388.291 2.84453 2.69868 0
M  V30 4178 H 389.781 2.27002 3.50514 0
M  V30 4179 N 390.218 -0.567019 1.47046 0
M  V30 4180 C 391.15 -1.68985 1.54844 0
M  V30 4181 C 392.163 -1.56869 0.435431 0
M  V30 4182 O 393.352 -1.64006 0.70457 0
M  V30 4183 C 390.452 -3.07373 1.42742 0
M  V30 4184 C 389.625 -3.45339 2.6844 0
M  V30 4185 C 388.684 -4.62849 2.50314 0
M  V30 4186 O 387.71 -4.67922 3.24095 0
M  V30 4187 N 388.912 -5.58726 1.57499 0
M  V30 4188 H 391.677 -1.62745 2.51663 0
M  V30 4189 H 389.238 -0.753411 1.43302 0
M  V30 4190 H 391.23 -3.83803 1.28365 0
M  V30 4191 H 389.8 -3.07893 0.540445 0
M  V30 4192 H 389.02 -2.58455 2.97648 0
M  V30 4193 H 390.308 -3.67476 3.51907 0
M  V30 4194 H 389.706 -5.57376 0.966876 0
M  V30 4195 H 388.263 -6.34523 1.49078 0
M  V30 4196 N 391.696 -1.35014 -0.812953 0
M  V30 4197 C 392.924 -1.31031 -1.6012 0
M  V30 4198 C 393.339 0.113558 -1.88458 0
M  V30 4199 O 392.696 1.06363 -1.48301 0
M  V30 4200 C 392.747 -2.10872 -2.93624 0
M  V30 4201 O 392.468 -3.47706 -2.66518 0
M  V30 4202 C 393.969 -2.14401 -3.88004 0
M  V30 4203 H 391.189 -0.45037 -0.497401 0
M  V30 4204 H 393.733 -1.77775 -1.01076 0
M  V30 4205 H 391.888 -1.67744 -3.492 0
M  V30 4206 H 392.302 -3.89097 -3.51715 0
M  V30 4207 H 393.776 -2.74669 -4.78812 0
M  V30 4208 H 394.253 -1.14105 -4.24119 0
M  V30 4209 H 394.859 -2.57662 -3.38364 0
M  V30 4210 N 393.175 1.03435 -1.18907 0
M  V30 4211 C 394.108 2.11162 -0.86521 0
M  V30 4212 C 395.086 1.6165 0.175473 0
M  V30 4213 O 396.27 1.88425 0.0530129 0
M  V30 4214 C 393.397 3.37423 -0.293868 0
M  V30 4215 C 392.443 4.05795 -1.31274 0
M  V30 4216 S 393.276 4.52027 -2.8711 0
M  V30 4217 C 394.432 5.81513 -2.31504 0
M  V30 4218 H 394.665 2.38308 -1.77754 0
M  V30 4219 H 392.198 1.16295 -1.01562 0
M  V30 4220 H 394.156 4.1049 0.0292572 0
M  V30 4221 H 392.817 3.0838 0.596682 0
M  V30 4222 H 392.01 4.96574 -0.86198 0
M  V30 4223 H 391.612 3.38874 -1.58242 0
M  V30 4224 H 393.904 6.55784 -1.70157 0
M  V30 4225 H 394.847 6.3136 -3.20608 0
M  V30 4226 H 395.255 5.36921 -1.74286 0
M  V30 4227 N 394.653 0.992116 1.22453 0
M  V30 4228 C 395.585 0.500024 2.23679 0
M  V30 4229 C 396.598 -0.404463 1.57696 0
M  V30 4230 O 397.787 -0.206722 1.77299 0
M  V30 4231 C 394.887 -0.294711 3.37616 0
M  V30 4232 C 394.06 0.605723 4.33186 0
M  V30 4233 C 393.119 -0.13717 5.26021 0
M  V30 4234 O 392.145 0.477164 5.67196 0
M  V30 4235 N 393.347 -1.4197 5.62872 0
M  V30 4236 H 396.112 1.37045 2.66531 0
M  V30 4237 H 393.673 0.866741 1.36745 0
M  V30 4238 H 395.665 -0.800329 3.96707 0
M  V30 4239 H 394.235 -1.06623 2.93854 0
M  V30 4240 H 393.455 1.29202 3.72425 0
M  V30 4241 H 394.743 1.21896 4.93983 0
M  V30 4242 H 394.141 -1.94015 5.31389 0
M  V30 4243 H 392.698 -1.87052 6.24383 0
M  V30 4244 N 396.131 -1.37776 0.765217 0
M  V30 4245 C 397.094 -2.28686 0.153416 0
M  V30 4246 C 398.094 -1.47727 -0.635081 0
M  V30 4247 O 399.284 -1.68027 -0.459632 0
M  V30 4248 C 396.416 -3.31608 -0.790495 0
M  V30 4249 H 397.609 -2.84297 0.954723 0
M  V30 4250 H 395.162 -1.46932 0.53299 0
M  V30 4251 H 395.897 -2.81109 -1.61705 0
M  V30 4252 H 395.682 -3.9144 -0.227348 0
M  V30 4253 H 397.172 -3.99559 -1.21419 0
M  V30 4254 N 397.609 -0.515225 -1.4894 0
M  V30 4255 C 399.025 -0.172099 -1.58669 0
M  V30 4256 C 399.225 1.32405 -1.51892 0
M  V30 4257 O 398.281 2.10116 -1.40027 0
M  V30 4258 C 399.594 -0.761533 -2.90897 0
M  V30 4259 C 401.142 -0.728926 -3.04394 0
M  V30 4260 C 401.617 -1.29667 -4.39261 0
M  V30 4261 N 403.108 -1.25799 -4.4579 0
M  V30 4262 C 403.843 -1.66733 -5.48623 0
M  V30 4263 N 403.339 -2.15327 -6.58488 0
M  V30 4264 N 405.132 -1.58061 -5.39419 0
M  V30 4265 H 397.283 -1.48778 -1.51588 0
M  V30 4266 H 399.546 -0.617968 -0.718901 0
M  V30 4267 H 399.252 -1.81136 -3.01468 0
M  V30 4268 H 399.126 -0.230106 -3.76497 0
M  V30 4269 H 401.513 0.312098 -2.93445 0
M  V30 4270 H 401.594 -1.29766 -2.20442 0
M  V30 4271 H 401.238 -2.33655 -4.50963 0
M  V30 4272 H 401.168 -0.703752 -5.21876 0
M  V30 4273 H 403.659 -0.902102 -3.66975 0
M  V30 4274 H 403.972 -2.44594 -7.33071 0
M  V30 4275 H 402.317 -2.19311 -6.59491 0
M  V30 4276 H 405.508 -1.19906 -4.52482 0
M  V30 4277 H 405.681 -1.90284 -6.19432 0
M  V30 4278 N 399.087 1.5561 -0.249682 0
M  V30 4279 C 400.037 2.18157 0.662673 0
M  V30 4280 C 401.021 1.1383 1.13717 0
M  V30 4281 O 402.213 1.39731 1.08648 0
M  V30 4282 C 399.342 2.88672 1.85805 0
M  V30 4283 C 398.428 4.00258 1.40193 0
M  V30 4284 N 398.819 5.01473 0.660213 0
M  V30 4285 C 397.117 4.12864 1.68698 0
M  V30 4286 C 397.818 5.80155 0.423695 0
M  V30 4287 N 396.794 5.34533 0.988721 0
M  V30 4288 H 400.596 2.93769 0.0878688 0
M  V30 4289 H 398.11 1.62316 -0.0521183 0
M  V30 4290 H 400.107 3.31912 2.5227 0
M  V30 4291 H 398.767 2.14564 2.43705 0
M  V30 4292 H 399.778 5.16971 0.310047 0
M  V30 4293 H 396.455 3.4993 2.27717 0
M  V30 4294 H 397.845 6.71688 -0.168616 0
M  V30 4295 N 400.565 -0.0233959 1.57583 0
M  V30 4296 C 401.495 -1.02162 2.09965 0
M  V30 4297 C 402.476 -1.3735 1.00344 0
M  V30 4298 O 403.661 -1.46135 1.27899 0
M  V30 4299 C 400.791 -2.32081 2.58371 0
M  V30 4300 C 399.745 -2.1112 3.72307 0
M  V30 4301 C 399.071 -3.46848 4.06941 0
M  V30 4302 C 400.371 -1.49276 5.00514 0
M  V30 4303 H 402.065 -0.585557 2.93618 0
M  V30 4304 H 399.611 -0.280218 1.41247 0
M  V30 4305 H 401.564 -3.02249 2.93639 0
M  V30 4306 H 400.288 -2.77758 1.71808 0
M  V30 4307 H 398.947 -1.43384 3.37397 0
M  V30 4308 H 398.595 -3.90184 3.17436 0
M  V30 4309 H 398.295 -3.33646 4.83688 0
M  V30 4310 H 399.819 -4.18369 4.44747 0
M  V30 4311 H 401.233 -2.09368 5.33702 0
M  V30 4312 H 399.63 -1.46632 5.8191 0
M  V30 4313 H 400.7 -0.459217 4.82721 0
M  V30 4314 N 402.043 -1.548 -0.295768 0
M  V30 4315 C 403.289 -1.75517 -1.02789 0
M  V30 4316 C 403.644 -0.537266 -1.84746 0
M  V30 4317 O 402.937 0.470299 -1.85738 0
M  V30 4318 C 403.131 -2.98797 -1.961 0
M  V30 4319 C 402.96 -4.3246 -1.23321 0
M  V30 4320 C 401.73 -4.96131 -0.95822 0
M  V30 4321 C 403.928 -5.10365 -0.635024 0
M  V30 4322 N 401.91 -6.1357 -0.201257 0
M  V30 4323 C 403.281 -6.19999 -0.0110937 0
M  V30 4324 C 405.336 -4.94957 -0.540594 0
M  V30 4325 C 404.039 -7.15904 0.698136 0
M  V30 4326 C 406.065 -5.91197 0.154992 0
M  V30 4327 C 405.427 -7.00203 0.767752 0
M  V30 4328 H 401.526 -0.694786 -0.358882 0
M  V30 4329 H 404.11 -1.92281 -0.305943 0
M  V30 4330 H 402.281 -2.83448 -2.6554 0
M  V30 4331 H 404.013 -3.08017 -2.62502 0
M  V30 4332 H 400.768 -4.56595 -1.25771 0
M  V30 4333 H 401.192 -6.76802 0.16389 0
M  V30 4334 H 405.834 -4.10803 -1.00003 0
M  V30 4335 H 403.552 -7.99595 1.16933 0
M  V30 4336 H 407.138 -5.81353 0.228069 0
M  V30 4337 H 406.018 -7.73393 1.29743 0
M  V30 4338 N 403.521 0.559213 -1.47345 0
M  V30 4339 C 404.746 1.34676 -1.57725 0
M  V30 4340 C 405.171 1.86723 -0.227164 0
M  V30 4341 O 404.529 1.6286 0.796642 0
M  V30 4342 C 404.577 2.49399 -2.60447 0
M  V30 4343 O 403.681 3.51567 -2.15578 0
M  V30 4344 H 403.022 0.400115 -0.52991 0
M  V30 4345 H 405.552 0.676009 -1.93109 0
M  V30 4346 H 405.562 2.95996 -2.80803 0
M  V30 4347 H 404.237 2.10873 -3.58477 0
M  V30 4348 H 402.814 3.11289 -2.05313 0
M  V30 4349 N 404.999 1.35443 0.805782 0
M  V30 4350 C 406.239 1.30127 1.57627 0
M  V30 4351 C 406.603 -0.122567 1.91608 0
M  V30 4352 O 407.804 -0.300107 2.67119 0
M  V30 4353 C 406.075 2.18314 2.82973 0
M  V30 4354 S 407.634 2.30521 3.7337 0
M  V30 4355 H 404.452 0.462439 0.540066 0
M  V30 4356 H 407.054 1.70843 0.95042 0
M  V30 4357 H 405.758 3.20741 2.56034 0
M  V30 4358 H 405.289 1.78558 3.50543 0
M  V30 4359 H 407.304 1.49062 4.73281 0
M  V30 4360 N 406.477 -1.02803 1.19454 0
M  V30 4361 C 407.754 -1.73299 0.907013 0
M  V30 4362 C 408.134 -2.02772 -0.587086 0
M  V30 4363 O 407.482 -1.68304 -1.54551 0
M  V30 4364 C 407.692 -3.00912 1.76785 0
M  V30 4365 C 409.04 -3.74403 2.00268 0
M  V30 4366 O 410.064 -3.10841 1.73943 0
M  V30 4367 O 408.923 -4.88675 2.4466 0
M  V30 4368 H 406.017 -0.754727 0.338106 0
M  V30 4369 H 408.563 -1.08754 1.30271 0
M  V30 4370 H 407.335 -2.75366 2.7801 0
M  V30 4371 H 406.958 -3.73197 1.37149 0
M  V30 4372 N 407.956 -0.998596 -1.21925 0
M  V30 4373 C 408.888 -0.511879 -2.23411 0
M  V30 4374 C 409.901 0.396094 -1.57908 0
M  V30 4375 O 411.09 0.197316 -1.77406 0
M  V30 4376 C 408.19 0.276802 -3.37768 0
M  V30 4377 C 407.363 -0.628687 -4.32858 0
M  V30 4378 C 406.422 0.109272 -5.26087 0
M  V30 4379 O 405.448 -0.507237 -5.66935 0
M  V30 4380 N 406.65 1.38983 -5.63617 0
M  V30 4381 H 409.415 -1.38457 -2.658 0
M  V30 4382 H 406.976 -0.873981 -1.36283 0
M  V30 4383 H 408.968 0.77928 -3.97126 0
M  V30 4384 H 407.538 1.05063 -2.94415 0
M  V30 4385 H 406.758 -1.31175 -3.71735 0
M  V30 4386 H 408.046 -1.24514 -4.93329 0
M  V30 4387 H 407.444 1.91194 -5.32411 0
M  V30 4388 H 406.001 1.83739 -6.25367 0
M  V30 4389 N 409.434 1.37368 -0.772513 0
M  V30 4390 C 410.683 1.98918 -0.333861 0
M  V30 4391 C 410.996 1.62017 1.09589 0
M  V30 4392 O 412.202 2.16676 1.63596 0
M  V30 4393 C 410.658 3.55735 -0.545971 0
M  V30 4394 C 410.266 4.01573 -1.98603 0
M  V30 4395 C 412.01 4.24156 -0.170979 0
M  V30 4396 C 409.917 5.51102 -2.1457 0
M  V30 4397 H 408.847 0.744214 -0.121085 0
M  V30 4398 H 411.498 1.56888 -0.95175 0
M  V30 4399 H 409.88 3.95748 0.141387 0
M  V30 4400 H 411.054 3.72803 -2.7084 0
M  V30 4401 H 409.369 3.45937 -2.31769 0
M  V30 4402 H 411.966 5.34024 -0.26878 0
M  V30 4403 H 412.309 4.06917 0.878855 0
M  V30 4404 H 412.842 3.89447 -0.810914 0
M  V30 4405 H 409.581 5.73268 -3.17875 0
M  V30 4406 H 409.101 5.81554 -1.46817 0
M  V30 4407 H 410.78 6.17083 -1.94468 0
M  V30 4408 N 410.912 0.523116 1.48665 0
M  V30 4409 C 412.328 0.180511 1.58576 0
M  V30 4410 C 412.528 -1.31597 1.52592 0
M  V30 4411 O 411.584 -2.0937 1.4114 0
M  V30 4412 C 412.897 0.776949 2.90489 0
M  V30 4413 C 414.445 0.745058 3.04003 0
M  V30 4414 C 414.92 1.31995 4.38567 0
M  V30 4415 N 416.411 1.28162 4.45117 0
M  V30 4416 C 417.146 1.6964 5.47731 0
M  V30 4417 N 416.642 2.18816 6.57337 0
M  V30 4418 N 418.435 1.6092 5.38573 0
M  V30 4419 H 410.586 1.4958 1.50797 0
M  V30 4420 H 412.849 0.621772 0.715614 0
M  V30 4421 H 412.555 1.82732 3.00503 0
M  V30 4422 H 412.429 0.25007 3.7637 0
M  V30 4423 H 414.816 -0.296532 2.93606 0
M  V30 4424 H 414.897 1.30933 2.1975 0
M  V30 4425 H 414.541 2.36043 4.49718 0
M  V30 4426 H 414.471 0.731418 5.21496 0
M  V30 4427 H 416.962 0.92155 3.66491 0
M  V30 4428 H 417.275 2.48478 7.31764 0
M  V30 4429 H 415.62 2.22805 6.58318 0
M  V30 4430 H 418.811 1.22304 4.5184 0
M  V30 4431 H 418.984 1.93567 6.18414 0
M  V30 4432 N 412.39 -1.55475 0.257931 0
M  V30 4433 C 413.636 -2.00237 -0.357338 0
M  V30 4434 C 413.991 -1.14313 -1.54759 0
M  V30 4435 O 413.284 -0.201187 -1.90541 0
M  V30 4436 C 413.478 -3.48183 -0.806433 0
M  V30 4437 C 413.307 -4.48422 0.338758 0
M  V30 4438 C 412.077 -4.98651 0.817011 0
M  V30 4439 C 414.275 -5.00827 1.16949 0
M  V30 4440 N 412.257 -5.82658 1.93346 0
M  V30 4441 C 413.628 -5.82113 2.13413 0
M  V30 4442 C 415.683 -4.83104 1.2048 0
M  V30 4443 C 414.386 -6.47566 3.13131 0
M  V30 4444 C 416.412 -5.49343 2.19034 0
M  V30 4445 C 415.774 -6.30427 3.14232 0
M  V30 4446 H 411.873 -0.776034 -0.0964083 0
M  V30 4447 H 414.457 -1.90995 0.37803 0
M  V30 4448 H 412.628 -3.57801 -1.51107 0
M  V30 4449 H 414.36 -3.79802 -1.39758 0
M  V30 4450 H 411.115 -4.71914 0.39925 0
M  V30 4451 H 411.539 -6.29356 2.49478 0
M  V30 4452 H 416.181 -4.20036 0.482634 0
M  V30 4453 H 413.899 -7.09793 3.8629 0
M  V30 4454 H 417.485 -5.37579 2.22485 0
M  V30 4455 H 416.365 -6.80777 3.89246 0
M  V30 4456 N 413.868 0.0150385 -1.57593 0
M  V30 4457 C 414.818 1.01943 -2.0394 0
M  V30 4458 C 415.802 1.31209 -0.931286 0
M  V30 4459 O 416.994 1.30559 -1.19513 0
M  V30 4460 C 414.123 2.31621 -2.53391 0
M  V30 4461 C 413.209 2.05384 -3.7105 0
M  V30 4462 N 413.6 1.49253 -4.83278 0
M  V30 4463 C 411.898 2.35601 -3.78693 0
M  V30 4464 C 412.599 1.39143 -5.64813 0
M  V30 4465 N 411.575 1.87187 -5.10355 0
M  V30 4466 H 415.377 0.57969 -2.88126 0
M  V30 4467 H 412.891 0.221056 -1.60888 0
M  V30 4468 H 414.888 3.044 -2.84862 0
M  V30 4469 H 413.548 2.76261 -1.70616 0
M  V30 4470 H 414.559 1.17334 -5.04433 0
M  V30 4471 H 411.236 2.8322 -3.06746 0
M  V30 4472 H 412.626 0.961153 -6.6499 0
M  V30 4473 N 415.346 1.54954 0.287554 0
M  V30 4474 C 416.576 1.78622 1.03816 0
M  V30 4475 C 416.984 0.552451 1.80955 0
M  V30 4476 O 416.327 -0.487665 1.77109 0
M  V30 4477 C 416.389 2.94975 2.055 0
M  V30 4478 C 416.053 4.32565 1.47433 0
M  V30 4479 C 417.05 5.12096 0.897436 0
M  V30 4480 C 414.735 4.79195 1.50591 0
M  V30 4481 C 416.729 6.36383 0.359851 0
M  V30 4482 C 414.416 6.03441 0.964459 0
M  V30 4483 C 415.414 6.81872 0.392413 0
M  V30 4484 O 415.102 8.03777 -0.140788 0
M  V30 4485 H 414.834 0.599144 0.313053 0
M  V30 4486 H 417.388 2.02761 0.328225 0
M  V30 4487 H 415.618 2.66493 2.80211 0
M  V30 4488 H 417.307 3.06097 2.6657 0
M  V30 4489 H 418.073 4.77209 0.865841 0
M  V30 4490 H 413.952 4.18167 1.94055 0
M  V30 4491 H 417.496 6.97545 -0.0872951 0
M  V30 4492 H 413.393 6.37813 0.993246 0
M  V30 4493 H 414.161 8.18495 -0.0287617 0
M  V30 4494 N 416.824 -0.551391 1.4764 0
M  V30 4495 C 418.24 -0.877887 1.33287 0
M  V30 4496 C 418.44 -1.98817 0.327721 0
M  V30 4497 O 417.496 -2.51171 -0.258695 0
M  V30 4498 C 418.809 -1.26563 2.72768 0
M  V30 4499 C 420.357 -1.37673 2.81097 0
M  V30 4500 C 420.832 -1.79799 4.21232 0
M  V30 4501 N 422.323 -1.8694 4.23802 0
M  V30 4502 C 423.058 -2.20876 5.29151 0
M  V30 4503 N 422.554 -2.53386 6.448 0
M  V30 4504 N 424.347 -2.217 5.16532 0
M  V30 4505 H 416.498 0.18153 2.11623 0
M  V30 4506 H 418.761 0.0185514 0.947818 0
M  V30 4507 H 418.467 -0.523591 3.47781 0
M  V30 4508 H 418.341 -2.22052 3.04915 0
M  V30 4509 H 420.728 -2.10956 2.06353 0
M  V30 4510 H 420.809 -0.40357 2.52596 0
M  V30 4511 H 420.453 -1.07083 4.96483 0
M  V30 4512 H 420.383 -2.78128 4.4716 0
M  V30 4513 H 422.874 -1.64179 3.40373 0
M  V30 4514 H 423.187 -2.78325 7.20941 0
M  V30 4515 H 421.532 -2.50953 6.48111 0
M  V30 4516 H 424.723 -1.95745 4.25207 0
M  V30 4517 H 424.896 -2.47818 5.98741 0
M  V30 4518 N 418.302 -1.35869 -0.798587 0
M  V30 4519 C 419.549 -1.29588 -1.55606 0
M  V30 4520 C 419.877 0.127456 -1.94082 0
M  V30 4521 O 419.132 1.09461 -1.62225 0
M  V30 4522 C 419.431 -2.1556 -2.85077 0
M  V30 4523 C 419.097 -3.6424 -2.65781 0
M  V30 4524 C 417.759 -4.04766 -2.60227 0
M  V30 4525 C 420.111 -4.58547 -2.47758 0
M  V30 4526 C 417.439 -5.37753 -2.34603 0
M  V30 4527 C 419.791 -5.91742 -2.23662 0
M  V30 4528 C 418.455 -6.31402 -2.16534 0
M  V30 4529 H 417.725 -0.474197 -0.569402 0
M  V30 4530 H 420.372 -1.67839 -0.922086 0
M  V30 4531 H 418.677 -1.70216 -3.52893 0
M  V30 4532 H 420.374 -2.08031 -3.42818 0
M  V30 4533 H 416.964 -3.32086 -2.70956 0
M  V30 4534 H 421.148 -4.28117 -2.51056 0
M  V30 4535 H 416.404 -5.67474 -2.2756 0
M  V30 4536 H 420.578 -6.6439 -2.08708 0
M  V30 4537 H 418.205 -7.34381 -1.96441 0
M  V30 4538 N 419.78 1.02168 -1.19998 0
M  V30 4539 C 421.026 1.75945 -1.00852 0
M  V30 4540 C 421.359 1.88702 0.458828 0
M  V30 4541 O 420.634 1.40911 1.34069 0
M  V30 4542 C 420.917 3.18154 -1.68671 0
M  V30 4543 C 420.77 3.13224 -3.22817 0
M  V30 4544 C 422.089 4.16711 -1.41561 0
M  V30 4545 H 419.208 0.638673 -0.367785 0
M  V30 4546 H 421.85 1.19222 -1.4794 0
M  V30 4547 H 420 3.66586 -1.28636 0
M  V30 4548 H 421.672 2.72635 -3.72112 0
M  V30 4549 H 419.915 2.50751 -3.53986 0
M  V30 4550 H 420.586 4.13728 -3.65422 0
M  V30 4551 H 423.062 3.76913 -1.76284 0
M  V30 4552 H 421.938 5.14391 -1.91553 0
M  V30 4553 H 422.199 4.40774 -0.342193 0
M  V30 4554 N 421.258 1.00505 1.21394 0
M  V30 4555 C 422.535 0.603277 1.86064 0
M  V30 4556 C 422.915 -0.919095 1.90042 0
M  V30 4557 O 422.263 -1.80607 1.39977 0
M  V30 4558 C 422.473 1.23772 3.26315 0
M  V30 4559 C 423.821 1.34586 4.02705 0
M  V30 4560 O 424.845 1.19304 3.35626 0
M  V30 4561 O 423.704 1.59169 5.22807 0
M  V30 4562 H 420.798 0.206634 0.800769 0
M  V30 4563 H 423.344 1.1017 1.29076 0
M  V30 4564 H 422.116 2.27848 3.18121 0
M  V30 4565 H 421.739 0.725648 3.90922 0
M  V30 4566 N 422.737 -1.36956 0.779787 0
M  V30 4567 C 423.986 -1.98738 0.344405 0
M  V30 4568 C 424.299 -1.62596 -1.08728 0
M  V30 4569 O 425.505 -2.1754 -1.62445 0
M  V30 4570 C 423.961 -3.5544 0.564829 0
M  V30 4571 C 423.569 -4.00514 2.0073 0
M  V30 4572 C 425.313 -4.24059 0.193471 0
M  V30 4573 C 423.22 -5.49957 2.17489 0
M  V30 4574 H 422.15 -0.743561 0.12503 0
M  V30 4575 H 424.801 -1.56381 0.960057 0
M  V30 4576 H 423.183 -3.95817 -0.120397 0
M  V30 4577 H 424.357 -3.71362 2.72814 0
M  V30 4578 H 422.672 -3.44703 2.336 0
M  V30 4579 H 425.269 -5.33874 0.297097 0
M  V30 4580 H 425.612 -4.07378 -0.857263 0
M  V30 4581 H 426.145 -3.89012 0.831556 0
M  V30 4582 H 422.884 -5.71574 3.2091 0
M  V30 4583 H 422.404 -5.80767 1.49899 0
M  V30 4584 H 424.083 -6.16043 1.97738 0
M  V30 4585 N 424.215 -0.530993 -1.48385 0
M  V30 4586 C 425.148 0.278511 -2.26494 0
M  V30 4587 C 426.126 0.943905 -1.32398 0
M  V30 4588 O 427.31 0.968098 -1.61741 0
M  V30 4589 C 424.437 1.39453 -3.08659 0
M  V30 4590 C 423.483 0.840434 -4.18137 0
M  V30 4591 S 424.316 -0.292496 -5.34701 0
M  V30 4592 C 425.472 0.825973 -6.20426 0
M  V30 4593 H 425.705 -0.384365 -2.94805 0
M  V30 4594 H 423.238 -0.316799 -1.51115 0
M  V30 4595 H 425.196 2.03382 -3.56575 0
M  V30 4596 H 423.857 2.02913 -2.3976 0
M  V30 4597 H 423.05 1.67769 -4.75257 0
M  V30 4598 H 422.652 0.277819 -3.72967 0
M  V30 4599 H 424.944 1.72438 -6.55188 0
M  V30 4600 H 425.887 0.292728 -7.07495 0
M  V30 4601 H 426.295 1.10683 -5.53543 0
M  V30 4602 N 425.693 1.55336 -0.266172 0
M  V30 4603 C 426.918 2.04258 0.359661 0
M  V30 4604 C 427.343 1.14359 1.49344 0
M  V30 4605 O 426.701 0.140369 1.80756 0
M  V30 4606 C 426.749 3.50997 0.826635 0
M  V30 4607 O 425.853 3.64204 1.93466 0
M  V30 4608 H 425.194 0.659668 0.075727 0
M  V30 4609 H 427.724 2.00694 -0.39786 0
M  V30 4610 H 427.734 3.9219 1.12477 0
M  V30 4611 H 426.409 4.159 -0.00293032 0
M  V30 4612 H 424.986 3.34913 1.63974 0
M  V30 4613 N 427.171 -0.0066808 1.57599 0
M  V30 4614 C 428.081 -1.01671 2.11424 0
M  V30 4615 C 429.097 -1.38143 1.05795 0
M  V30 4616 O 430.273 -1.47011 1.37658 0
M  V30 4617 C 427.338 -2.29192 2.60139 0
M  V30 4618 C 426.399 -1.99094 3.80342 0
M  V30 4619 C 425.632 -3.20535 4.26724 0
M  V30 4620 O 425.855 -4.3199 3.72479 0
M  V30 4621 O 424.789 -3.04924 5.18946 0
M  V30 4622 H 428.615 -0.589181 2.9793 0
M  V30 4623 H 426.2 -0.225091 1.47695 0
M  V30 4624 H 428.082 -3.0412 2.917 0
M  V30 4625 H 426.757 -2.71195 1.76733 0
M  V30 4626 H 425.664 -1.21663 3.53764 0
M  V30 4627 H 426.997 -1.61931 4.648 0
M  V30 4628 N 428.649 -1.55105 -0.279332 0
M  V30 4629 C 429.581 -1.83952 -1.36727 0
M  V30 4630 C 430.594 -0.723642 -1.45833 0
M  V30 4631 O 431.783 -1.00141 -1.47763 0
M  V30 4632 C 428.883 -1.98183 -2.74912 0
M  V30 4633 C 428.056 -3.28787 -2.88475 0
M  V30 4634 C 427.115 -3.33162 -4.07295 0
M  V30 4635 O 426.141 -4.06576 -3.98353 0
M  V30 4636 N 427.343 -2.60109 -5.18964 0
M  V30 4637 H 430.108 -2.77853 -1.12328 0
M  V30 4638 H 427.669 -1.54945 -0.469442 0
M  V30 4639 H 429.661 -1.98488 -3.52682 0
M  V30 4640 H 428.231 -1.11177 -2.92162 0
M  V30 4641 H 427.451 -3.41075 -1.97641 0
M  V30 4642 H 428.739 -4.14933 -2.94463 0
M  V30 4643 H 428.137 -2.00136 -5.29115 0
M  V30 4644 H 426.694 -2.66143 -5.94988 0
M  V30 4645 N 430.127 0.543554 -1.4793 0
M  V30 4646 C 431.404 1.30458 -1.4574 0
M  V30 4647 C 431.784 2.1048 -0.161692 0
M  V30 4648 O 431.132 2.11831 0.856734 0
M  V30 4649 C 431.342 2.19754 -2.71126 0
M  V30 4650 C 432.69 2.80334 -3.18901 0
M  V30 4651 O 433.714 2.30049 -2.71948 0
M  V30 4652 O 432.573 3.71766 -4.00565 0
M  V30 4653 H 429.667 0.588117 -0.581418 0
M  V30 4654 H 432.213 0.561328 -1.60147 0
M  V30 4655 H 430.985 1.60316 -3.56952 0
M  V30 4656 H 430.608 3.01351 -2.59371 0
M  V30 4657 N 431.605 1.3629 0.791371 0
M  V30 4658 C 432.853 1.30154 1.5461 0
M  V30 4659 C 433.174 -0.119409 1.94634 0
M  V30 4660 O 432.444 -1.05924 1.64794 0
M  V30 4661 H 431.024 0.478784 0.573389 0
M  V30 4662 H 433.686 1.70565 0.94306 0
M  V30 4663 H 432.782 1.92762 2.45457 0
M  V30 4664 N 433.083 -1.0153 1.20538 0
M  V30 4665 C 434.329 -1.75408 1.01783 0
M  V30 4666 C 434.662 -1.88943 -0.448814 0
M  V30 4667 O 433.937 -1.4162 -1.33319 0
M  V30 4668 C 434.22 -3.17255 1.70356 0
M  V30 4669 C 434.073 -3.11508 3.24473 0
M  V30 4670 C 435.392 -4.15955 1.43769 0
M  V30 4671 H 432.511 -0.636713 0.371167 0
M  V30 4672 H 435.153 -1.18436 1.4857 0
M  V30 4673 H 433.303 -3.65898 1.30578 0
M  V30 4674 H 434.975 -2.70658 3.73553 0
M  V30 4675 H 433.218 -2.4887 3.55311 0
M  V30 4676 H 433.889 -4.11784 3.67611 0
M  V30 4677 H 436.365 -3.75973 1.7828 0
M  V30 4678 H 435.241 -5.13368 1.94279 0
M  V30 4679 H 435.502 -4.40586 0.365564 0
M  V30 4680 N 434.561 -1.01147 -1.20859 0
M  V30 4681 C 435.786 -0.716698 -1.94623 0
M  V30 4682 C 436.211 0.715415 -1.73964 0
M  V30 4683 O 435.569 1.49157 -1.03062 0
M  V30 4684 C 435.617 -1.0513 -3.44935 0
M  V30 4685 O 434.721 -0.160131 -4.12089 0
M  V30 4686 H 434.062 -0.266404 -0.608214 0
M  V30 4687 H 436.592 -1.35346 -1.53436 0
M  V30 4688 H 436.602 -1.00086 -3.95533 0
M  V30 4689 H 435.277 -2.09475 -3.59295 0
M  V30 4690 H 433.854 -0.267657 -3.71938 0
M  V30 4691 N 436.039 1.36541 -0.78704 0
M  V30 4692 C 436.989 2.27459 -0.156957 0
M  V30 4693 C 437.973 1.46843 0.657709 0
M  V30 4694 O 439.165 1.69245 0.518173 0
M  V30 4695 C 436.294 3.35893 0.709278 0
M  V30 4696 C 435.38 4.23947 -0.114049 0
M  V30 4697 N 435.771 4.92145 -1.16736 0
M  V30 4698 C 434.069 4.4587 0.107497 0
M  V30 4699 C 434.77 5.57261 -1.66837 0
M  V30 4700 N 433.746 5.3473 -0.977992 0
M  V30 4701 H 437.548 2.77669 -0.963185 0
M  V30 4702 H 435.062 1.49839 -0.62627 0
M  V30 4703 H 437.059 3.99953 1.17656 0
M  V30 4704 H 435.719 2.87238 1.51408 0
M  V30 4705 H 436.73 4.94169 -1.54976 0
M  V30 4706 H 433.407 4.08056 0.882994 0
M  V30 4707 H 434.797 6.21728 -2.54762 0
M  V30 4708 N 437.518 0.538854 1.48102 0
M  V30 4709 C 438.767 0.0059532 2.01699 0
M  V30 4710 C 439.08 -1.34476 1.42041 0
M  V30 4711 O 440.286 -1.96653 1.87189 0
M  V30 4712 C 438.742 -0.0397627 3.59878 0
M  V30 4713 C 438.35 1.30659 4.28523 0
M  V30 4714 C 440.094 -0.521024 4.2129 0
M  V30 4715 C 438.001 1.22098 5.78659 0
M  V30 4716 H 436.931 -0.00154456 0.753998 0
M  V30 4717 H 439.582 0.683963 1.70277 0
M  V30 4718 H 437.964 -0.783037 3.88181 0
M  V30 4719 H 439.138 2.06613 4.11883 0
M  V30 4720 H 437.453 1.7243 3.79021 0
M  V30 4721 H 440.05 -0.603184 5.31287 0
M  V30 4722 H 440.393 -1.52885 3.8721 0
M  V30 4723 H 440.926 0.166834 3.9745 0
M  V30 4724 H 437.665 2.20424 6.17328 0
M  V30 4725 H 437.185 0.50295 5.97688 0
M  V30 4726 H 438.864 0.915345 6.40492 0
M  V30 4727 N 438.996 -1.55193 0.274407 0
M  V30 4728 C 440.273 -1.91584 -0.394331 0
M  V30 4729 C 440.653 -1.19858 -1.73774 0
M  V30 4730 O 440.001 -0.3252 -2.26174 0
M  V30 4731 C 440.211 -3.4487 -0.535311 0
M  V30 4732 C 441.559 -4.16636 -0.818534 0
M  V30 4733 O 442.583 -3.5076 -0.620146 0
M  V30 4734 O 441.442 -5.33209 -1.19792 0
M  V30 4735 H 438.536 -0.798349 -0.215794 0
M  V30 4736 H 441.082 -1.66646 0.320507 0
M  V30 4737 H 439.854 -3.89145 0.410141 0
M  V30 4738 H 439.477 -3.75759 -1.29964 0
M  V30 4739 N 440.474 -0.00167713 -1.576 0
M  V30 4740 C 441.704 0.692754 -1.94639 0
M  V30 4741 C 442.112 1.67744 -0.87513 0
M  V30 4742 O 441.455 1.8305 0.154382 0
M  V30 4743 C 441.517 1.47881 -3.27676 0
M  V30 4744 C 441.181 0.655518 -4.52274 0
M  V30 4745 C 442.178 -0.0575214 -5.19868 0
M  V30 4746 C 439.863 0.600994 -4.98692 0
M  V30 4747 C 441.857 -0.814052 -6.3218 0
M  V30 4748 C 439.544 -0.15926 -6.10892 0
M  V30 4749 C 440.542 -0.865515 -6.77494 0
M  V30 4750 O 440.23 -1.61336 -7.87544 0
M  V30 4751 H 439.962 0.197792 -0.646417 0
M  V30 4752 H 442.516 -0.049423 -2.05341 0
M  V30 4753 H 440.746 2.2655 -3.13388 0
M  V30 4754 H 442.435 2.05874 -3.49816 0
M  V30 4755 H 443.201 -0.0245611 -4.84994 0
M  V30 4756 H 439.08 1.14025 -4.46676 0
M  V30 4757 H 442.624 -1.36584 -6.84098 0
M  V30 4758 H 438.521 -0.194035 -6.45208 0
M  V30 4759 H 439.289 -1.53025 -8.04068 0
M  V30 4760 N 441.952 1.55251 0.271103 0
M  V30 4761 C 443.177 1.80306 1.02491 0
M  V30 4762 C 443.602 0.575457 1.79081 0
M  V30 4763 O 442.96 -0.474987 1.74967 0
M  V30 4764 C 443.008 3.02832 1.95768 0
M  V30 4765 O 442.112 2.78051 3.04568 0
M  V30 4766 H 441.453 0.595896 0.292923 0
M  V30 4767 H 443.983 2.02397 0.299436 0
M  V30 4768 H 443.993 3.31616 2.37686 0
M  V30 4769 H 442.668 3.9183 1.39434 0
M  V30 4770 H 441.245 2.60369 2.66951 0
M  V30 4771 N 443.43 -0.535701 1.48216 0
M  V30 4772 C 444.38 -1.63688 1.58714 0
M  V30 4773 C 445.364 -1.54635 0.444615 0
M  V30 4774 O 446.556 -1.62753 0.695742 0
M  V30 4775 C 443.685 -3.02423 1.62466 0
M  V30 4776 C 442.771 -3.16601 2.82178 0
M  V30 4777 N 443.162 -3.00771 4.06658 0
M  V30 4778 C 441.46 -3.47645 2.79391 0
M  V30 4779 C 442.161 -3.18213 4.86945 0
M  V30 4780 N 441.137 -3.45528 4.19656 0
M  V30 4781 H 444.939 -1.5005 2.5271 0
M  V30 4782 H 442.453 -0.741018 1.44508 0
M  V30 4783 H 444.45 -3.81517 1.6808 0
M  V30 4784 H 443.11 -3.17157 0.695826 0
M  V30 4785 H 444.121 -2.77652 4.37184 0
M  V30 4786 H 440.798 -3.68771 1.95739 0
M  V30 4787 H 442.188 -3.1076 5.95716 0
M  V30 4788 N 444.908 -1.36708 -0.784132 0
M  V30 4789 C 446.155 -1.31231 -1.54222 0
M  V30 4790 C 446.483 0.106864 -1.94206 0
M  V30 4791 O 445.738 1.07734 -1.63376 0
M  V30 4792 C 446.037 -2.18571 -2.82774 0
M  V30 4793 C 445.703 -3.67039 -2.61903 0
M  V30 4794 C 444.365 -4.07503 -2.55919 0
M  V30 4795 C 446.717 -4.61149 -2.4288 0
M  V30 4796 C 444.045 -5.40211 -2.28886 0
M  V30 4797 C 446.397 -5.94081 -2.17373 0
M  V30 4798 C 445.061 -6.33664 -2.09825 0
M  V30 4799 H 444.331 -0.48021 -0.56434 0
M  V30 4800 H 446.978 -1.68807 -0.904233 0
M  V30 4801 H 445.283 -1.73949 -3.51068 0
M  V30 4802 H 446.98 -2.11655 -3.40592 0
M  V30 4803 H 443.57 -3.34941 -2.67418 0
M  V30 4804 H 447.754 -4.30756 -2.46501 0
M  V30 4805 H 443.01 -5.69855 -2.21529 0
M  V30 4806 H 447.184 -6.66566 -2.01649 0
M  V30 4807 H 444.811 -7.36423 -1.88641 0
M  V30 4808 N 446.386 1.0089 -1.21074 0
M  V30 4809 C 447.663 1.71834 -0.934469 0
M  V30 4810 C 448.043 2.0368 0.554753 0
M  V30 4811 O 447.391 1.70742 1.51854 0
M  V30 4812 C 447.601 2.98061 -1.8155 0
M  V30 4813 C 448.949 3.7117 -2.06199 0
M  V30 4814 O 449.973 3.08034 -1.78867 0
M  V30 4815 O 448.832 4.84721 -2.52404 0
M  V30 4816 H 445.926 0.749253 -0.35007 0
M  V30 4817 H 448.472 1.06668 -1.31985 0
M  V30 4818 H 447.244 2.70908 -2.82355 0
M  V30 4819 H 446.867 3.70968 -1.43068 0
M  V30 4820 N 447.864 1.01787 1.20321 0
M  V30 4821 C 448.774 0.598898 2.26827 0
M  V30 4822 C 449.79 -0.36418 1.70146 0
M  V30 4823 O 450.966 -0.224812 2.00141 0
M  V30 4824 C 448.031 -0.0549769 3.46656 0
M  V30 4825 C 447.092 0.954205 4.18561 0
M  V30 4826 C 446.325 0.331439 5.3267 0
M  V30 4827 O 446.548 -0.86851 5.63749 0
M  V30 4828 O 445.482 1.0488 5.92692 0
M  V30 4829 H 449.308 1.48562 2.64883 0
M  V30 4830 H 446.893 0.787434 1.26964 0
M  V30 4831 H 448.775 -0.420102 4.19301 0
M  V30 4832 H 447.45 -0.915876 3.10473 0
M  V30 4833 H 446.357 1.37072 3.48083 0
M  V30 4834 H 447.69 1.78511 4.58688 0
M  V30 4835 N 449.342 -1.36122 0.79427 0
M  V30 4836 C 450.591 -1.98361 0.365464 0
M  V30 4837 C 450.904 -1.6374 -1.06997 0
M  V30 4838 O 452.11 -2.19251 -1.60129 0
M  V30 4839 C 450.566 -3.54821 0.602496 0
M  V30 4840 C 450.174 -3.98362 2.04967 0
M  V30 4841 C 451.918 -4.2383 0.238437 0
M  V30 4842 C 449.825 -5.47619 2.2331 0
M  V30 4843 H 448.755 -0.742193 0.13291 0
M  V30 4844 H 451.406 -1.55354 0.976589 0
M  V30 4845 H 449.788 -3.95922 -0.078409 0
M  V30 4846 H 450.962 -3.68447 2.76737 0
M  V30 4847 H 449.277 -3.42206 2.37243 0
M  V30 4848 H 451.874 -5.33529 0.353705 0
M  V30 4849 H 452.217 -4.08264 -0.814006 0
M  V30 4850 H 452.75 -3.88108 0.872769 0
M  V30 4851 H 449.489 -5.68138 3.26955 0
M  V30 4852 H 449.009 -5.79145 1.5605 0
M  V30 4853 H 450.688 -6.13911 2.0426 0
M  V30 4854 N 450.82 -0.546701 -1.47814 0
M  V30 4855 C 451.783 0.196287 -2.28358 0
M  V30 4856 C 452.783 0.852437 -1.36346 0
M  V30 4857 O 453.973 0.709913 -1.59078 0
M  V30 4858 C 451.105 1.28579 -3.15722 0
M  V30 4859 H 452.298 -0.511086 -2.95513 0
M  V30 4860 H 449.851 -0.303248 -1.5333 0
M  V30 4861 H 450.586 2.0259 -2.53235 0
M  V30 4862 H 450.371 0.820229 -3.83425 0
M  V30 4863 H 451.861 1.80793 -3.76435 0
M  V30 4864 N 452.299 1.55045 -0.282633 0
M  V30 4865 C 453.71 1.85473 0.213655 0
M  V30 4866 C 454.061 1.20465 1.54863 0
M  V30 4867 O 453.186 0.495676 2.10647 0
M  V30 4868 C 453.781 3.36496 0.394445 0
M  V30 4869 C 452.34 3.67022 0.834961 0
M  V30 4870 C 451.487 2.77218 -0.0674081 0
M  V30 4871 H 454.438 1.50478 -0.504202 0
M  V30 4872 H 454.459 3.60007 1.23186 0
M  V30 4873 H 453.971 3.83782 -0.577326 0
M  V30 4874 H 452.072 3.25241 1.81794 0
M  V30 4875 H 452.185 4.74433 0.667075 0
M  V30 4876 H 450.549 2.5069 0.450196 0
M  V30 4877 H 451.332 3.2732 -1.0352 0
M  V30 4878 N 453.777 0.010035 1.57597 0
M  V30 4879 C 454.707 -0.976857 2.12084 0
M  V30 4880 C 455.688 -1.35191 1.03235 0
M  V30 4881 O 456.873 -1.43389 1.3097 0
M  V30 4882 C 454.003 -2.26548 2.63236 0
M  V30 4883 C 452.957 -2.03175 3.76701 0
M  V30 4884 C 452.283 -3.38138 4.14206 0
M  V30 4885 C 453.583 -1.38625 5.03568 0
M  V30 4886 H 455.277 -0.523145 2.94794 0
M  V30 4887 H 452.823 -0.250195 1.4181 0
M  V30 4888 H 454.776 -2.95952 2.99984 0
M  V30 4889 H 453.5 -2.74051 1.77661 0
M  V30 4890 H 452.159 -1.36195 3.40362 0
M  V30 4891 H 451.807 -3.83363 3.25641 0
M  V30 4892 H 451.507 -3.23312 4.90656 0
M  V30 4893 H 453.031 -4.08841 4.53521 0
M  V30 4894 H 454.445 -1.98 5.38023 0
M  V30 4895 H 452.842 -1.34256 5.84889 0
M  V30 4896 H 453.912 -0.356722 4.83586 0
M  V30 4897 N 455.255 -1.55392 -0.262866 0
M  V30 4898 C 456.532 -1.67204 -1.01499 0
M  V30 4899 C 456.912 -0.545186 -2.03939 0
M  V30 4900 O 456.26 0.453467 -2.23955 0
M  V30 4901 C 456.47 -3.06847 -1.6627 0
M  V30 4902 C 457.818 -3.64928 -2.17054 0
M  V30 4903 O 458.842 -3.09545 -1.76239 0
M  V30 4904 O 457.701 -4.61984 -2.91947 0
M  V30 4905 H 454.795 -0.679467 -0.471438 0
M  V30 4906 H 457.341 -1.67729 -0.257918 0
M  V30 4907 H 456.113 -3.80309 -0.920915 0
M  V30 4908 H 455.736 -3.10266 -2.48638 0
M  V30 4909 N 456.733 0.527833 -1.48498 0
M  V30 4910 C 457.643 1.65907 -1.65867 0
M  V30 4911 C 458.659 1.6537 -0.541192 0
M  V30 4912 O 459.835 1.84282 -0.812534 0
M  V30 4913 C 456.9 3.02364 -1.69637 0
M  V30 4914 C 455.961 3.1374 -2.93028 0
M  V30 4915 C 455.194 4.43688 -2.96609 0
M  V30 4916 O 455.417 5.30913 -2.08538 0
M  V30 4917 O 454.351 4.59475 -3.88802 0
M  V30 4918 H 458.177 1.5419 -2.61647 0
M  V30 4919 H 455.762 0.701163 -1.31924 0
M  V30 4920 H 457.644 3.83515 -1.74625 0
M  V30 4921 H 456.319 3.14401 -0.770312 0
M  V30 4922 H 455.226 2.31877 -2.93571 0
M  V30 4923 H 456.559 3.06621 -3.85026 0
M  V30 4924 N 458.211 1.37122 0.776871 0
M  V30 4925 C 459.174 1.32301 1.8716 0
M  V30 4926 C 460.174 0.228099 1.59174 0
M  V30 4927 O 461.364 0.483642 1.67352 0
M  V30 4928 C 458.496 1.054 3.24197 0
M  V30 4929 H 459.689 2.29673 1.92848 0
M  V30 4930 H 457.242 1.22077 0.97606 0
M  V30 4931 H 457.977 0.0853872 3.24188 0
M  V30 4932 H 457.762 1.84648 3.45901 0
M  V30 4933 H 459.252 1.04664 4.04271 0
M  V30 4934 N 459.689 -1.00246 1.21608 0
M  V30 4935 C 461.1 -1.55511 1.03312 0
M  V30 4936 C 461.451 -1.91946 -0.406332 0
M  V30 4937 O 460.576 -1.73753 -1.28992 0
M  V30 4938 C 461.171 -2.82576 1.86913 0
M  V30 4939 C 459.73 -3.34318 1.72941 0
M  V30 4940 C 458.877 -2.07487 1.83968 0
M  V30 4941 H 461.828 -0.824638 1.35593 0
M  V30 4942 H 461.849 -3.54559 1.38087 0
M  V30 4943 H 461.361 -2.56026 2.91672 0
M  V30 4944 H 459.462 -3.65797 0.70877 0
M  V30 4945 H 459.575 -4.05566 2.55055 0
M  V30 4946 H 457.939 -2.20603 1.27304 0
M  V30 4947 H 458.722 -1.83346 2.9024 0
M  V30 4948 N 461.167 -1.02423 -1.1978 0
M  V30 4949 C 462.416 -0.713265 -1.88667 0
M  V30 4950 C 462.729 0.7609 -1.80193 0
M  V30 4951 O 463.935 1.18473 -2.44288 0
M  V30 4952 C 462.391 -1.22545 -3.38394 0
M  V30 4953 C 461.999 -2.72706 -3.55437 0
M  V30 4954 C 463.743 -0.990257 -4.12788 0
M  V30 4955 C 461.65 -3.17367 -4.99031 0
M  V30 4956 H 460.58 -0.263105 -0.706606 0
M  V30 4957 H 463.231 -1.23792 -1.35454 0
M  V30 4958 H 461.613 -0.628732 -3.90977 0
M  V30 4959 H 462.787 -3.37993 -3.13205 0
M  V30 4960 H 461.102 -2.94453 -2.94425 0
M  V30 4961 H 463.699 -1.29926 -5.18675 0
M  V30 4962 H 464.042 0.0730761 -4.16236 0
M  V30 4963 H 464.575 -1.55074 -3.66329 0
M  V30 4964 H 461.314 -4.23009 -5.00743 0
M  V30 4965 H 460.834 -2.56805 -5.42044 0
M  V30 4966 H 462.513 -3.10441 -5.67658 0
M  V30 4967 N 462.645 1.35699 -0.801477 0
M  V30 4968 C 463.608 2.28199 -0.213994 0
M  V30 4969 C 464.608 1.49359 0.595691 0
M  V30 4970 O 465.798 1.69186 0.414921 0
M  V30 4971 C 462.93 3.33587 0.702297 0
M  V30 4972 H 464.123 2.81666 -1.02976 0
M  V30 4973 H 461.676 1.45467 -0.571759 0
M  V30 4974 H 462.411 2.85297 1.54195 0
M  V30 4975 H 462.196 3.91906 0.123484 0
M  V30 4976 H 463.686 4.02638 1.10783 0
M  V30 4977 N 464.123 0.554532 1.47522 0
M  V30 4978 C 465.086 -0.184174 2.28459 0
M  V30 4979 C 466.086 -0.845195 1.36796 0
M  V30 4980 O 467.276 -0.701467 1.59452 0
M  V30 4981 C 464.408 -1.26903 3.16399 0
M  V30 4982 H 465.601 0.526751 2.95238 0
M  V30 4983 H 463.154 0.311375 1.53167 0
M  V30 4984 H 463.889 -2.01244 2.54306 0
M  V30 4985 H 463.674 -0.799883 3.83854 0
M  V30 4986 H 465.164 -1.78794 3.77389 0
M  V30 4987 N 465.601 -1.54893 0.290851 0
M  V30 4988 C 466.564 -2.21824 -0.576784 0
M  V30 4989 C 467.564 -1.20104 -1.06919 0
M  V30 4990 O 468.754 -1.44906 -0.966843 0
M  V30 4991 C 465.886 -2.89662 -1.79747 0
M  V30 4992 H 467.079 -2.99899 0.00784051 0
M  V30 4993 H 464.632 -1.56245 0.0415934 0
M  V30 4994 H 465.367 -2.15639 -2.42219 0
M  V30 4995 H 465.152 -3.64219 -1.45214 0
M  V30 4996 H 466.642 -3.4075 -2.4141 0
M  V30 4997 N 467.08 -0.0183926 -1.57589 0
M  V30 4998 C 468.496 0.337897 -1.55982 0
M  V30 4999 C 468.696 1.73604 -1.02294 0
M  V30 5000 O 467.752 2.43589 -0.664895 0
M  V30 5001 C 469.065 0.196305 -3.00059 0
M  V30 5002 C 470.613 0.269875 -3.11834 0
M  V30 5003 C 471.088 0.157197 -4.5773 0
M  V30 5004 N 472.579 0.214521 -4.62703 0
M  V30 5005 C 473.314 0.150955 -5.73201 0
M  V30 5006 N 472.81 0.0369212 -6.9279 0
M  V30 5007 N 474.603 0.204162 -5.61729 0
M  V30 5008 H 466.754 -0.93279 -1.90821 0
M  V30 5009 H 469.017 -0.359253 -0.877292 0
M  V30 5010 H 468.723 -0.766383 -3.43248 0
M  V30 5011 H 468.597 0.970908 -3.6449 0
M  V30 5012 H 470.984 1.22302 -2.68563 0
M  V30 5013 H 471.065 -0.534918 -2.50144 0
M  V30 5014 H 470.709 -0.792479 -5.01679 0
M  V30 5015 H 470.639 0.980717 -5.17387 0
M  V30 5016 H 473.13 0.303238 -3.76681 0
M  V30 5017 H 473.443 -0.00518321 -7.728 0
M  V30 5018 H 471.788 0.0022886 -6.95 0
M  V30 5019 H 474.979 0.291575 -4.67191 0
M  V30 5020 H 475.152 0.15116 -6.47824 0
M  V30 5021 N 468.558 1.5553 0.254621 0
M  V30 5022 C 469.521 1.88872 1.29846 0
M  V30 5023 C 470.521 0.764591 1.41459 0
M  V30 5024 O 471.711 1.03265 1.40293 0
M  V30 5025 C 468.843 2.11032 2.67728 0
M  V30 5026 H 470.036 2.82201 1.01502 0
M  V30 5027 H 467.589 1.48303 0.493556 0
M  V30 5028 H 468.324 1.20146 3.01223 0
M  V30 5029 H 468.109 2.92895 2.60682 0
M  V30 5030 H 469.599 2.38038 3.43115 0
M  V30 5031 N 470.036 -0.519951 1.48776 0
M  V30 5032 C 471.264 -1.29971 1.60982 0
M  V30 5033 C 471.679 -1.86803 0.273885 0
M  V30 5034 O 471.036 -1.66904 -0.738193 0
M  V30 5035 C 471.087 -2.44346 2.66415 0
M  V30 5036 O 470.808 -1.89855 3.94825 0
M  V30 5037 C 472.309 -3.36014 2.89153 0
M  V30 5038 H 469.529 -0.394891 0.542496 0
M  V30 5039 H 472.073 -0.626214 1.94676 0
M  V30 5040 H 470.228 -3.07562 2.35552 0
M  V30 5041 H 470.642 -2.64798 4.5275 0
M  V30 5042 H 472.116 -4.12593 3.66703 0
M  V30 5043 H 472.593 -3.91859 1.98351 0
M  V30 5044 H 473.199 -2.78582 3.21359 0
M  V30 5045 N 471.514 -1.37532 -0.769588 0
M  V30 5046 C 472.477 -1.33292 -1.86456 0
M  V30 5047 C 473.477 -0.236537 -1.59051 0
M  V30 5048 O 474.667 -0.492511 -1.67093 0
M  V30 5049 C 471.799 -1.07118 -3.23633 0
M  V30 5050 H 472.992 -2.30692 -1.91628 0
M  V30 5051 H 470.545 -1.22593 -0.969572 0
M  V30 5052 H 471.28 -0.102578 -3.24138 0
M  V30 5053 H 471.065 -1.86479 -3.44917 0
M  V30 5054 H 472.555 -1.06806 -4.03711 0
M  V30 5055 N 472.992 0.995999 -1.22138 0
M  V30 5056 C 474.403 1.54961 -1.04135 0
M  V30 5057 C 474.754 1.92159 0.396147 0
M  V30 5058 O 473.879 1.74435 1.28069 0
M  V30 5059 C 474.474 2.81581 -1.88408 0
M  V30 5060 C 473.033 3.33396 -1.74712 0
M  V30 5061 C 472.18 2.06509 -1.85066 0
M  V30 5062 H 475.131 0.817436 -1.36028 0
M  V30 5063 H 475.152 3.53822 -1.39966 0
M  V30 5064 H 474.664 2.54476 -2.93025 0
M  V30 5065 H 472.765 3.65416 -0.728159 0
M  V30 5066 H 472.878 4.04208 -2.57202 0
M  V30 5067 H 471.242 2.19925 -1.28472 0
M  V30 5068 H 472.025 1.81804 -2.91208 0
M  V30 5069 N 474.47 1.03057 1.19235 0
M  V30 5070 C 475.698 0.747697 1.92917 0
M  V30 5071 C 476.113 -0.69372 1.75593 0
M  V30 5072 O 475.47 -1.47191 1.07894 0
M  V30 5073 C 475.521 1.09159 3.44625 0
M  V30 5074 O 475.242 2.47641 3.61394 0
M  V30 5075 C 476.743 0.831763 4.35427 0
M  V30 5076 H 473.963 0.273453 0.612751 0
M  V30 5077 H 476.507 1.37552 1.51327 0
M  V30 5078 H 474.662 0.508919 3.84043 0
M  V30 5079 H 475.076 2.60499 4.55237 0
M  V30 5080 H 476.55 1.12233 5.4047 0
M  V30 5081 H 477.027 -0.233769 4.38577 0
M  V30 5082 H 477.633 1.39725 4.01693 0
M  V30 5083 N 475.948 -1.35272 0.808662 0
M  V30 5084 C 477.359 -1.81179 0.450688 0
M  V30 5085 C 477.71 -1.67143 -1.02751 0
M  V30 5086 O 476.835 -1.20325 -1.79864 0
M  V30 5087 C 477.43 -3.28943 0.811275 0
M  V30 5088 C 475.989 -3.72985 0.505871 0
M  V30 5089 C 475.136 -2.57229 1.03578 0
M  V30 5090 H 478.087 -1.2322 1.00012 0
M  V30 5091 H 478.108 -3.80342 0.109588 0
M  V30 5092 H 477.62 -3.39127 1.88718 0
M  V30 5093 H 475.721 -3.68349 -0.561209 0
M  V30 5094 H 475.834 -4.67677 1.03995 0
M  V30 5095 H 474.198 -2.50548 0.458005 0
M  V30 5096 H 474.981 -2.7019 2.11784 0
M  V30 5097 O 477.465 -0.703344 -1.4538 0
M  V30 5098 H 478.156 -0.244572 -1.9215 0
M  V30 END ATOM
M  V30 BEGIN BOND
M  V30 END BOND
M  V30 END CTAB
M  END
$$$$
