drugbank_target|Q14624 Inter-alpha-trypsin inhibitor heavy chain H4 (DB01593; DB14487; DB14533; DB14548)
 OpenBabel12092121083D

  0  0  0     0  0            999 V3000
M  V30 BEGIN CTAB
M  V30 COUNTS 14539 14691 0 0 0
M  V30 BEGIN ATOM
M  V30 1 H -0.908 1.98254 -0.117106 0
M  V30 2 N 0 1.576 0 0
M  V30 3 C 0.933 2.03868 1.02534 0
M  V30 4 C 1.911 0.928543 1.3348 0
M  V30 5 O 3.095 1.19667 1.45644 0
M  V30 6 C 0.222 2.43627 2.35294 0
M  V30 7 C -0.732 3.65373 2.2001 0
M  V30 8 S 0.101 5.13292 1.52614 0
M  V30 9 C 1.257 5.56322 2.86805 0
M  V30 10 H 1.49 2.90518 0.631377 0
M  V30 11 H -0.977 1.52953 0.210867 0
M  V30 12 H 0.981 2.67203 3.11629 0
M  V30 13 H -0.358 1.57376 2.7183 0
M  V30 14 H -1.165 3.90944 3.18086 0
M  V30 15 H -1.563 3.418 1.51819 0
M  V30 16 H 0.729 5.58782 3.83104 0
M  V30 17 H 1.672 6.56266 2.65933 0
M  V30 18 H 2.08 4.83886 2.90714 0
M  V30 19 N 1.4781 -0.272755 1.55222 0
M  V30 20 C 2.4251 -1.33716 1.88119 0
M  V30 21 C 3.3951 -1.49066 0.73271 0
M  V30 22 O 4.5801 -1.63469 0.984002 0
M  V30 23 C 1.7201 -2.69238 2.15882 0
M  V30 24 C 0.8331 -2.62108 3.43399 0
M  V30 25 C -0.0319 -3.89811 3.60861 0
M  V30 26 C -0.9929 -3.77193 4.8207 0
M  V30 27 N -1.8559 -4.9673 4.96189 0
M  V30 28 H 2.9841 -1.04962 2.78903 0
M  V30 29 H 0.5211 -0.507088 1.38083 0
M  V30 30 H 2.4791 -3.48089 2.29978 0
M  V30 31 H 1.1091 -2.96194 1.28331 0
M  V30 32 H 0.1611 -1.74967 3.37773 0
M  V30 33 H 1.4731 -2.48685 4.32386 0
M  V30 34 H 0.6271 -4.77103 3.74777 0
M  V30 35 H -0.6339 -4.06102 2.7006 0
M  V30 36 H -1.6289 -2.88284 4.68159 0
M  V30 37 H -0.4039 -3.62421 5.74307 0
M  V30 38 H -2.4579 -5.13431 4.08319 0
M  V30 39 H -2.5409 -4.85839 5.79221 0
M  V30 40 H -1.2729 -5.85594 5.1449 0
M  V30 41 N 2.9562 -1.48159 -0.537278 0
M  V30 42 C 4.3672 -1.49429 -1.11928 0
M  V30 43 C 4.7182 -0.26 -1.9447 0
M  V30 44 O 3.8432 0.633489 -2.0692 0
M  V30 45 C 4.4382 -2.70758 -2.03656 0
M  V30 46 C 2.9972 -2.74923 -2.57088 0
M  V30 47 C 2.1442 -2.42835 -1.3389 0
M  V30 48 H 5.0952 -1.55381 -0.322886 0
M  V30 49 H 5.1162 -2.48861 -2.87834 0
M  V30 50 H 4.6282 -3.60575 -1.43553 0
M  V30 51 H 2.7292 -1.89296 -3.20933 0
M  V30 52 H 2.8422 -3.76157 -2.9672 0
M  V30 53 H 1.2062 -1.93836 -1.65226 0
M  V30 54 H 1.9892 -3.34884 -0.755504 0
M  V30 55 N 4.4343 0.785586 -1.36625 0
M  V30 56 C 5.8453 1.36101 -1.27803 0
M  V30 57 C 6.1963 1.96035 0.0804875 0
M  V30 58 O 5.3213 1.92834 0.982042 0
M  V30 59 C 5.9163 2.47442 -2.31426 0
M  V30 60 C 4.4753 3.00789 -2.26281 0
M  V30 61 C 3.6223 1.73896 -2.15999 0
M  V30 62 H 6.5733 0.586928 -1.47448 0
M  V30 63 H 6.5943 3.2656 -1.95291 0
M  V30 64 H 6.1063 2.03791 -3.30289 0
M  V30 65 H 4.2073 3.48851 -1.30896 0
M  V30 66 H 4.3203 3.57343 -3.19128 0
M  V30 67 H 2.6843 1.9628 -1.62316 0
M  V30 68 H 3.4673 1.32368 -3.16755 0
M  V30 69 N 5.9124 1.20967 1.01018 0
M  V30 70 C 7.3284 0.965905 1.27053 0
M  V30 71 C 7.5284 -0.350785 1.98423 0
M  V30 72 O 6.5844 -1.07773 2.28344 0
M  V30 73 C 7.8974 2.15294 2.09926 0
M  V30 74 C 9.4454 2.19463 2.23171 0
M  V30 75 C 9.9204 3.3767 3.09424 0
M  V30 76 N 11.4114 3.37724 3.17012 0
M  V30 77 C 12.1464 4.25837 3.83993 0
M  V30 78 N 11.6424 5.24138 4.53047 0
M  V30 79 N 13.4354 4.1366 3.80581 0
M  V30 80 H 5.5864 2.0565 0.531194 0
M  V30 81 H 7.8494 0.90024 0.297106 0
M  V30 82 H 7.5554 3.10684 1.64828 0
M  V30 83 H 7.4294 2.13923 3.10672 0
M  V30 84 H 9.8164 1.24632 2.6749 0
M  V30 85 H 9.8974 2.2488 1.21912 0
M  V30 86 H 9.5414 4.32791 2.65808 0
M  V30 87 H 9.4714 3.29491 4.10784 0
M  V30 88 H 11.9624 2.6658 2.6785 0
M  V30 89 H 12.2754 5.87684 5.01844 0
M  V30 90 H 10.6204 5.28068 4.5185 0
M  V30 91 H 13.8114 3.36127 3.25785 0
M  V30 92 H 13.9844 4.82538 4.32505 0
M  V30 93 N 7.3905 -1.2043 1.01659 0
M  V30 94 C 8.8015 -1.71517 0.737482 0
M  V30 95 C 9.1525 -1.81547 -0.743973 0
M  V30 96 O 8.2775 -1.47803 -1.58061 0
M  V30 97 C 8.8725 -3.11515 1.33206 0
M  V30 98 C 7.4315 -3.59912 1.10183 0
M  V30 99 C 6.5785 -2.37116 1.43776 0
M  V30 100 H 9.5295 -1.05444 1.18606 0
M  V30 101 H 9.5505 -3.73575 0.722636 0
M  V30 102 H 9.0625 -3.04182 2.41028 0
M  V30 103 H 7.1635 -3.72577 0.0412756 0
M  V30 104 H 7.2765 -4.44731 1.78188 0
M  V30 105 H 5.6405 -2.39857 0.856778 0
M  V30 106 H 6.4235 -2.32424 2.52654 0
M  V30 107 N 8.8686 -0.792821 -1.36206 0
M  V30 108 C 10.1146 -0.36733 -1.99446 0
M  V30 109 C 10.4476 1.05917 -1.62774 0
M  V30 110 O 9.7226 1.7324 -0.88421 0
M  V30 111 C 10.0056 -0.535044 -3.56103 0
M  V30 112 C 9.8586 -2.00548 -4.02617 0
M  V30 113 C 11.1776 0.0478191 -4.40074 0
M  V30 114 H 8.2966 -0.134941 -0.724541 0
M  V30 115 H 10.9386 -0.999794 -1.61568 0
M  V30 116 H 9.0886 0.00336329 -3.885 0
M  V30 117 H 10.7606 -2.60521 -3.80692 0
M  V30 118 H 9.0036 -2.50686 -3.54032 0
M  V30 119 H 9.6746 -2.07377 -5.11565 0
M  V30 120 H 12.1506 -0.411822 -4.14057 0
M  V30 121 H 11.0266 -0.0995336 -5.4881 0
M  V30 122 H 11.2876 1.14025 -4.27142 0
M  V30 123 N 10.3467 1.47872 -0.545128 0
M  V30 124 C 11.7627 1.5829 -0.204032 0
M  V30 125 C 11.9627 1.54529 1.29317 0
M  V30 126 O 11.0187 1.44232 2.07252 0
M  V30 127 C 12.3317 2.89304 -0.819987 0
M  V30 128 C 13.8797 3.02864 -0.790105 0
M  V30 129 C 14.3547 4.3656 -1.38491 0
M  V30 130 N 15.8457 4.43165 -1.34755 0
M  V30 131 C 16.5807 5.45153 -1.77753 0
M  V30 132 N 16.0767 6.54016 -2.2855 0
M  V30 133 N 17.8697 5.36125 -1.68897 0
M  V30 134 H 10.0207 1.4856 -1.51802 0
M  V30 135 H 12.2837 0.706305 -0.632327 0
M  V30 136 H 11.9897 2.97757 -1.87173 0
M  V30 137 H 11.8637 3.75957 -0.305915 0
M  V30 138 H 14.2507 2.94014 0.252913 0
M  V30 139 H 14.3317 2.17782 -1.34181 0
M  V30 140 H 13.9757 4.46164 -2.42693 0
M  V30 141 H 13.9057 5.20353 -0.808754 0
M  V30 142 H 16.3967 3.65083 -0.975855 0
M  V30 143 H 16.7097 7.27994 -2.59314 0
M  V30 144 H 15.0547 6.54938 -2.32553 0
M  V30 145 H 18.2457 4.49975 -1.28998 0
M  V30 146 H 18.4187 6.15472 -2.02726 0
M  V30 147 N 11.8248 0.280983 1.55075 0
M  V30 148 C 13.0528 -0.337293 2.04132 0
M  V30 149 C 13.4678 -1.4903 1.15912 0
M  V30 150 O 12.8248 -1.81606 0.180459 0
M  V30 151 C 12.8758 -0.812706 3.52246 0
M  V30 152 O 12.5968 0.294387 4.3711 0
M  V30 153 C 14.0978 -1.4982 4.17216 0
M  V30 154 H 11.3178 -0.0761638 0.666663 0
M  V30 155 H 13.8618 0.414787 2.00249 0
M  V30 156 H 12.0168 -1.51486 3.56554 0
M  V30 157 H 12.4308 -0.0721325 5.2445 0
M  V30 158 H 13.9048 -1.7822 5.22438 0
M  V30 159 H 14.3818 -2.43168 3.65741 0
M  V30 160 H 14.9878 -0.839742 4.16927 0
M  V30 161 N 13.3029 -1.57598 0.00835791 0
M  V30 162 C 14.5429 -1.92788 -0.679136 0
M  V30 163 C 14.9069 -0.883378 -1.70471 0
M  V30 164 O 16.1079 -1.12079 -2.44319 0
M  V30 165 C 14.3789 -3.32994 -1.29807 0
M  V30 166 S 15.9379 -3.90082 -2.00952 0
M  V30 167 H 12.7559 -0.67475 -0.224127 0
M  V30 168 H 15.3579 -1.95385 0.0670497 0
M  V30 169 H 14.0619 -4.06846 -0.538922 0
M  V30 170 H 13.5929 -3.33791 -2.082 0
M  V30 171 H 15.6079 -3.71834 -3.28563 0
M  V30 172 N 14.781 0.264519 -1.55364 0
M  V30 173 C 16.006 1.01726 -1.80739 0
M  V30 174 C 16.431 1.78836 -0.583044 0
M  V30 175 O 15.789 1.75167 0.467566 0
M  V30 176 C 15.837 1.94482 -3.03659 0
M  V30 177 O 14.941 3.03386 -2.7934 0
M  V30 178 H 14.282 0.290395 -0.597132 0
M  V30 179 H 16.812 0.290854 -2.02522 0
M  V30 180 H 16.822 2.36278 -3.32621 0
M  V30 181 H 15.497 1.37772 -3.92418 0
M  V30 182 H 14.074 2.65844 -2.61498 0
M  V30 183 N 16.2591 1.48442 0.529413 0
M  V30 184 C 17.2061 1.63007 1.63394 0
M  V30 185 C 18.1761 0.47212 1.59249 0
M  V30 186 O 19.3611 0.695673 1.77666 0
M  V30 187 C 16.5011 1.6763 3.01653 0
M  V30 188 C 15.6141 2.94535 3.16027 0
M  V30 189 C 14.7491 2.90316 4.44849 0
M  V30 190 C 13.7881 4.11923 4.52754 0
M  V30 191 N 12.9251 4.05777 5.72965 0
M  V30 192 H 17.7651 2.5733 1.50285 0
M  V30 193 H 15.3021 1.27613 0.731656 0
M  V30 194 H 17.2601 1.68292 3.81751 0
M  V30 195 H 15.8901 0.76797 3.13532 0
M  V30 196 H 14.9421 3.03615 2.29177 0
M  V30 197 H 16.2541 3.84512 3.17729 0
M  V30 198 H 15.4081 2.89382 5.33238 0
M  V30 199 H 14.1471 1.98068 4.45668 0
M  V30 200 H 13.1521 4.13131 3.62771 0
M  V30 201 H 14.3771 5.0533 4.53672 0
M  V30 202 H 12.3231 3.16351 5.74681 0
M  V30 203 H 12.2401 4.8946 5.76164 0
M  V30 204 H 13.5081 4.08904 6.6364 0
M  V30 205 N 17.7372 -0.778329 1.37039 0
M  V30 206 C 18.9832 -1.53892 1.32079 0
M  V30 207 C 19.3162 -1.9396 -0.0965386 0
M  V30 208 O 18.5912 -1.63568 -1.05242 0
M  V30 209 C 18.8742 -2.80847 2.25382 0
M  V30 210 C 18.7272 -2.47076 3.75864 0
M  V30 211 C 20.0462 -3.82741 2.1725 0
M  V30 212 H 17.1652 -0.558303 0.48111 0
M  V30 213 H 19.8072 -0.893397 1.67685 0
M  V30 214 H 17.9572 -3.35931 1.95148 0
M  V30 215 H 19.6292 -1.97957 4.16666 0
M  V30 216 H 17.8722 -1.79863 3.94755 0
M  V30 217 H 18.5432 -3.37798 4.36574 0
M  V30 218 H 21.0192 -3.37133 2.43887 0
M  V30 219 H 19.8952 -4.69303 2.84686 0
M  V30 220 H 20.1562 -4.2652 1.16331 0
M  V30 221 N 19.2153 -1.21501 -1.00376 0
M  V30 222 C 20.1453 -0.999478 -2.11028 0
M  V30 223 C 21.1263 0.0759671 -1.6993 0
M  V30 224 O 22.3113 -0.0841106 -1.94018 0
M  V30 225 C 19.4413 -0.564709 -3.42678 0
M  V30 226 C 18.3953 -1.58486 -3.97576 0
M  V30 227 C 17.7213 -1.00628 -5.25146 0
M  V30 228 C 19.0213 -2.97204 -4.29496 0
M  V30 229 H 20.7153 -1.92495 -2.29317 0
M  V30 230 H 18.2613 -0.92693 -1.102 0
M  V30 231 H 20.2143 -0.401091 -4.19487 0
M  V30 232 H 18.9383 0.396411 -3.24185 0
M  V30 233 H 17.5973 -1.73606 -3.22888 0
M  V30 234 H 17.2453 -0.0368439 -5.02987 0
M  V30 235 H 16.9453 -1.68771 -5.62841 0
M  V30 236 H 18.4693 -0.854015 -6.04598 0
M  V30 237 H 19.8833 -2.8552 -4.97143 0
M  V30 238 H 18.2803 -3.62372 -4.78338 0
M  V30 239 H 19.3503 -3.47956 -3.3772 0
M  V30 240 N 20.6934 1.19889 -1.02296 0
M  V30 241 C 21.9394 1.89701 -0.717033 0
M  V30 242 C 22.2724 1.7905 0.751989 0
M  V30 243 O 21.5474 1.17891 1.547 0
M  V30 244 C 21.8304 3.40858 -1.16136 0
M  V30 245 C 21.6834 3.60411 -2.69117 0
M  V30 246 C 23.0024 4.33876 -0.737549 0
M  V30 247 H 20.1214 0.688874 -0.261957 0
M  V30 248 H 22.7634 1.41154 -1.27183 0
M  V30 249 H 20.9134 3.82335 -0.689342 0
M  V30 250 H 22.5854 3.28145 -3.2422 0
M  V30 251 H 20.8284 3.03665 -3.0979 0
M  V30 252 H 21.4994 4.66396 -2.95261 0
M  V30 253 H 23.9754 4.00081 -1.14344 0
M  V30 254 H 22.8514 5.38242 -1.0764 0
M  V30 255 H 23.1124 4.40628 0.360436 0
M  V30 256 N 22.1715 0.800033 1.35784 0
M  V30 257 C 23.1015 0.220184 2.3246 0
M  V30 258 C 24.0825 -0.65073 1.57161 0
M  V30 259 O 25.2675 -0.582359 1.85263 0
M  V30 260 C 22.3975 -0.637353 3.41402 0
M  V30 261 C 21.3515 0.134531 4.27789 0
M  V30 262 C 20.6775 -0.844285 5.27992 0
M  V30 263 C 21.9775 1.32979 5.05088 0
M  V30 264 H 23.6715 1.02787 2.81203 0
M  V30 265 H 21.2175 0.495717 1.35199 0
M  V30 266 H 23.1705 -1.05302 4.08031 0
M  V30 267 H 21.8945 -1.47785 2.91251 0
M  V30 268 H 20.5535 0.531296 3.6273 0
M  V30 269 H 20.2015 -1.68011 4.74111 0
M  V30 270 H 19.9015 -0.332184 5.8666 0
M  V30 271 H 21.4255 -1.2583 5.97494 0
M  V30 272 H 22.8395 0.98934 5.64699 0
M  V30 273 H 21.2365 1.77593 5.7322 0
M  V30 274 H 22.3065 2.11978 4.36111 0
M  V30 275 N 23.6496 -1.47581 0.552962 0
M  V30 276 C 24.5796 -2.32762 -0.185451 0
M  V30 277 C 25.5606 -1.43527 -0.912905 0
M  V30 278 O 26.7456 -1.72388 -0.894201 0
M  V30 279 C 23.8756 -3.25219 -1.21859 0
M  V30 280 C 22.8296 -4.23661 -0.607864 0
M  V30 281 C 22.1556 -5.05413 -1.74533 0
M  V30 282 C 23.4556 -5.20481 0.435582 0
M  V30 283 H 25.1496 -2.94749 0.525684 0
M  V30 284 H 22.6956 -1.41738 0.254251 0
M  V30 285 H 24.6486 -3.8365 -1.7433 0
M  V30 286 H 23.3726 -2.61279 -1.95961 0
M  V30 287 H 22.0316 -3.66451 -0.104489 0
M  V30 288 H 21.6796 -4.3788 -2.47529 0
M  V30 289 H 21.3796 -5.72059 -1.34249 0
M  V30 290 H 22.9036 -5.66701 -2.27338 0
M  V30 291 H 24.3176 -5.733 -0.00290157 0
M  V30 292 H 22.7146 -5.95305 0.757067 0
M  V30 293 H 23.7846 -4.66217 1.33303 0
M  V30 294 N 25.1277 -0.289203 -1.54924 0
M  V30 295 C 26.3527 0.329299 -2.04769 0
M  V30 296 C 26.7777 1.4763 -1.16564 0
M  V30 297 O 26.1357 1.80527 -0.167186 0
M  V30 298 C 26.1837 0.774438 -3.52186 0
M  V30 299 O 25.2877 1.88038 -3.67036 0
M  V30 300 H 24.6287 0.0659259 -0.660719 0
M  V30 301 H 27.1587 -0.42761 -2.00082 0
M  V30 302 H 27.1687 1.06642 -3.93816 0
M  V30 303 H 25.8437 -0.0646707 -4.1585 0
M  V30 304 H 24.4207 1.58985 -3.3731 0
M  V30 305 N 26.6058 1.57591 -0.0167156 0
M  V30 306 C 27.5358 2.12496 0.967858 0
M  V30 307 C 28.5168 1.03807 1.34752 0
M  V30 308 O 29.7018 1.31577 1.42833 0
M  V30 309 C 26.8318 2.64194 2.25431 0
M  V30 310 C 25.7858 3.77559 2.01576 0
M  V30 311 C 25.1118 4.15636 3.36379 0
M  V30 312 C 26.4118 5.04151 1.36489 0
M  V30 313 H 28.1058 2.95013 0.510643 0
M  V30 314 H 25.6518 1.41915 0.244181 0
M  V30 315 H 27.6048 3.01236 2.94678 0
M  V30 316 H 26.3288 1.78821 2.73296 0
M  V30 317 H 24.9878 3.40937 1.34751 0
M  V30 318 H 24.6358 3.27263 3.81979 0
M  V30 319 H 24.3358 4.92022 3.21229 0
M  V30 320 H 25.8598 4.5525 4.06915 0
M  V30 321 H 27.2738 5.38857 1.95718 0
M  V30 322 H 25.6708 5.85453 1.31776 0
M  V30 323 H 26.7408 4.83733 0.336219 0
M  V30 324 N 28.0839 -0.256276 1.55502 0
M  V30 325 C 29.0139 -1.32102 1.92539 0
M  V30 326 C 29.9949 -1.50684 0.789194 0
M  V30 327 O 31.1799 -1.63449 1.04872 0
M  V30 328 C 28.3099 -2.67752 2.21192 0
M  V30 329 C 27.2639 -2.63878 3.36975 0
M  V30 330 C 26.5899 -4.03236 3.51147 0
M  V30 331 C 27.8899 -2.21682 4.72921 0
M  V30 332 H 29.5839 -1.01351 2.81724 0
M  V30 333 H 27.1299 -0.486105 1.35547 0
M  V30 334 H 29.0829 -3.42365 2.45691 0
M  V30 335 H 27.8069 -3.0012 1.28824 0
M  V30 336 H 26.4659 -1.91722 3.12471 0
M  V30 337 H 26.1139 -4.32854 2.56216 0
M  V30 338 H 25.8139 -4.01535 4.29003 0
M  V30 339 H 27.3379 -4.79563 3.77957 0
M  V30 340 H 28.7519 -2.86023 4.96854 0
M  V30 341 H 27.1489 -2.3111 5.53812 0
M  V30 342 H 28.2189 -1.16833 4.70615 0
M  V30 343 N 29.562 -1.4872 -0.521534 0
M  V30 344 C 30.525 -1.63379 -1.60748 0
M  V30 345 C 31.525 -0.50661 -1.52611 0
M  V30 346 O 32.715 -0.772601 -1.5613 0
M  V30 347 C 29.847 -1.61192 -3.00383 0
M  V30 348 H 31.04 -2.60217 -1.49087 0
M  V30 349 H 28.593 -1.37444 -0.744235 0
M  V30 350 H 29.328 -0.65863 -3.17541 0
M  V30 351 H 29.113 -2.43032 -3.07698 0
M  V30 352 H 30.603 -1.7466 -3.7932 0
M  V30 353 N 31.0401 0.771051 -1.3745 0
M  V30 354 C 32.2891 1.52491 -1.3202 0
M  V30 355 C 32.6021 1.9538 0.0927347 0
M  V30 356 O 33.8081 2.70159 0.269503 0
M  V30 357 C 32.2641 2.75366 -2.31736 0
M  V30 358 C 31.8721 2.39573 -3.78562 0
M  V30 359 C 33.6161 3.53307 -2.35318 0
M  V30 360 C 31.5231 3.58954 -4.70007 0
M  V30 361 H 30.4531 0.572506 -0.490666 0
M  V30 362 H 33.1041 0.844474 -1.62914 0
M  V30 363 H 31.4861 3.45303 -1.93861 0
M  V30 364 H 32.6601 1.77415 -4.25277 0
M  V30 365 H 30.9751 1.74805 -3.77932 0
M  V30 366 H 33.5721 4.42039 -3.00842 0
M  V30 367 H 33.9151 3.93217 -1.36698 0
M  V30 368 H 34.4481 2.90367 -2.71904 0
M  V30 369 H 31.1871 3.24125 -5.69757 0
M  V30 370 H 30.7071 4.20214 -4.27996 0
M  V30 371 H 32.3861 4.25758 -4.87175 0
M  V30 372 N 32.5182 1.22032 0.997298 0
M  V30 373 C 33.4682 0.953838 2.07089 0
M  V30 374 C 34.4522 -0.0938669 1.60626 0
M  V30 375 O 35.6442 0.116078 1.76619 0
M  V30 376 C 32.7732 0.528726 3.39204 0
M  V30 377 C 31.8592 1.61092 3.92314 0
M  V30 378 N 32.2502 2.83768 4.18699 0
M  V30 379 C 30.5482 1.48158 4.20672 0
M  V30 380 C 31.2492 3.53715 4.61802 0
M  V30 381 N 30.2252 2.81174 4.65233 0
M  V30 382 H 34.0272 1.88577 2.25424 0
M  V30 383 H 31.5412 1.11719 1.17867 0
M  V30 384 H 33.5382 0.31915 4.15677 0
M  V30 385 H 32.1982 -0.39635 3.22272 0
M  V30 386 H 33.2092 3.20238 4.07023 0
M  V30 387 H 29.8862 0.622369 4.12835 0
M  V30 388 H 31.2762 4.58793 4.90875 0
M  V30 389 N 33.9963 -1.19345 1.0293 0
M  V30 390 C 34.9283 -2.22036 0.56857 0
M  V30 391 C 35.9413 -1.58865 -0.355779 0
M  V30 392 O 37.1303 -1.77851 -0.152103 0
M  V30 393 C 34.2303 -3.38363 -0.190752 0
M  V30 394 C 33.4033 -4.31118 0.738643 0
M  V30 395 C 32.4623 -5.26194 0.0246497 0
M  V30 396 O 31.4883 -5.65461 0.651354 0
M  V30 397 N 32.6903 -5.66971 -1.24594 0
M  V30 398 H 35.4553 -2.6219 1.45177 0
M  V30 399 H 33.0163 -1.34015 0.908381 0
M  V30 400 H 35.0083 -3.98981 -0.677961 0
M  V30 401 H 33.5783 -2.96994 -0.975366 0
M  V30 402 H 32.7983 -3.68276 1.40593 0
M  V30 403 H 34.0863 -4.90001 1.37029 0
M  V30 404 H 33.4843 -5.37104 -1.77583 0
M  V30 405 H 32.0413 -6.2984 -1.67764 0
M  V30 406 N 35.4744 -0.807222 -1.35358 0
M  V30 407 C 36.7024 -0.400377 -2.02989 0
M  V30 408 C 37.1174 0.988859 -1.60832 0
M  V30 409 O 36.4744 1.63729 -0.806175 0
M  V30 410 C 36.5254 -0.474867 -3.58368 0
M  V30 411 O 36.2464 -1.80933 -3.98992 0
M  V30 412 C 37.7474 -0.0609112 -4.43258 0
M  V30 413 H 34.9674 -0.162587 -0.651004 0
M  V30 414 H 37.5114 -1.09102 -1.72965 0
M  V30 415 H 35.6664 0.167534 -3.87038 0
M  V30 416 H 36.0804 -1.77256 -4.9364 0
M  V30 417 H 37.5544 -0.164145 -5.51756 0
M  V30 418 H 38.0314 0.993831 -4.27808 0
M  V30 419 H 38.6374 -0.676492 -4.19885 0
M  V30 420 N 36.9525 1.47285 -0.560781 0
M  V30 421 C 38.1805 2.06855 -0.0430262 0
M  V30 422 C 38.5955 1.41291 1.25229 0
M  V30 423 O 37.9525 0.510648 1.7521 0
M  V30 424 C 38.0035 3.61178 0.152518 0
M  V30 425 O 37.7245 4.24285 -1.0915 0
M  V30 426 C 39.2255 4.37624 0.707145 0
M  V30 427 H 36.4455 0.669319 -0.0474652 0
M  V30 428 H 38.9895 1.89237 -0.77521 0
M  V30 429 H 37.1445 3.78298 0.834843 0
M  V30 430 H 37.5585 5.16868 -0.891482 0
M  V30 431 H 39.0325 5.46271 0.793244 0
M  V30 432 H 39.5095 4.04152 1.71923 0
M  V30 433 H 40.1155 4.25257 0.0604027 0
M  V30 434 N 38.4306 0.297415 1.54768 0
M  V30 435 C 39.6586 -0.315623 2.04478 0
M  V30 436 C 40.0736 -1.47792 1.17486 0
M  V30 437 O 39.4306 -1.81404 0.19971 0
M  V30 438 C 39.4816 -0.7753 3.53088 0
M  V30 439 O 39.2026 0.340732 4.36773 0
M  V30 440 C 40.7036 -1.45386 4.18781 0
M  V30 441 H 37.9236 -0.0690887 0.667434 0
M  V30 442 H 40.4676 0.436003 1.99798 0
M  V30 443 H 38.6226 -1.47696 3.58141 0
M  V30 444 H 39.0366 -0.0165035 5.24497 0
M  V30 445 H 40.5106 -1.72669 5.24299 0
M  V30 446 H 40.9876 -2.39275 3.68299 0
M  V30 447 H 41.5936 -0.795475 4.17795 0
M  V30 448 N 39.9087 -1.5758 0.0250728 0
M  V30 449 C 40.8717 -2.08896 -0.943139 0
M  V30 450 C 41.8717 -1.00321 -1.25668 0
M  V30 451 O 43.0617 -1.26495 -1.19769 0
M  V30 452 C 40.1937 -2.55143 -2.26086 0
M  V30 453 H 41.3867 -2.95723 -0.498775 0
M  V30 454 H 38.9397 -1.54703 -0.222888 0
M  V30 455 H 39.6747 -1.71633 -2.75159 0
M  V30 456 H 39.4597 -3.34461 -2.04641 0
M  V30 457 H 40.9497 -2.95083 -2.95492 0
M  V30 458 N 41.3868 0.248026 -1.55636 0
M  V30 459 C 42.2968 1.32859 -1.93354 0
M  V30 460 C 43.3128 1.52719 -0.833838 0
M  V30 461 O 44.4888 1.66363 -1.13513 0
M  V30 462 C 41.5538 2.66337 -2.21958 0
M  V30 463 C 40.6148 2.55008 -3.45354 0
M  V30 464 C 39.8478 3.82121 -3.72584 0
M  V30 465 O 40.0708 4.83951 -3.01907 0
M  V30 466 O 39.0048 3.80822 -4.6611 0
M  V30 467 H 42.8308 1.03862 -2.85388 0
M  V30 468 H 40.4158 0.448686 -1.42503 0
M  V30 469 H 42.2978 3.45216 -2.4167 0
M  V30 470 H 40.9728 2.95068 -1.33103 0
M  V30 471 H 39.8798 1.7442 -3.30951 0
M  V30 472 H 41.2128 2.31222 -4.34508 0
M  V30 473 N 42.8649 1.48995 0.513639 0
M  V30 474 C 43.8119 1.6473 1.61656 0
M  V30 475 C 44.7819 0.488984 1.58739 0
M  V30 476 O 45.9669 0.714478 1.76918 0
M  V30 477 C 43.1069 1.7082 2.99858 0
M  V30 478 C 42.2199 2.9787 3.12885 0
M  V30 479 C 41.3549 2.95017 4.41744 0
M  V30 480 C 40.3939 4.16702 4.48359 0
M  V30 481 N 39.5309 4.11832 5.68629 0
M  V30 482 H 44.3709 2.58909 1.47547 0
M  V30 483 H 41.9079 1.28382 0.71808 0
M  V30 484 H 43.8659 1.72331 3.79944 0
M  V30 485 H 42.4959 0.801181 3.12699 0
M  V30 486 H 41.5479 3.06029 2.25944 0
M  V30 487 H 42.8599 3.8786 3.13633 0
M  V30 488 H 42.0139 2.95021 5.30139 0
M  V30 489 H 40.7529 2.02784 4.43542 0
M  V30 490 H 39.7579 4.16955 3.58369 0
M  V30 491 H 40.9829 5.10113 4.48287 0
M  V30 492 H 38.9289 3.22428 5.71293 0
M  V30 493 H 38.8459 4.95543 5.7094 0
M  V30 494 H 40.1139 4.1592 6.59266 0
M  V30 495 N 44.343 -0.763751 1.37857 0
M  V30 496 C 45.291 -1.89864 1.34367 0
M  V30 497 C 46.285 -1.67816 0.231143 0
M  V30 498 O 47.491 -1.75508 0.399617 0
M  V30 499 H 43.866 -0.624501 0.41893 0
M  V30 500 H 45.837 -1.89925 2.30155 0
M  V30 501 C 44.586 -3.27227 1.1755 0
M  V30 502 H 43.909 -3.44773 2.02414 0
M  V30 503 H 45.349 -4.06911 1.1916 0
M  V30 504 C 43.808 -3.36692 -0.118311 0
M  V30 505 O 44.338 -3.86374 -1.09902 0
M  V30 506 N 42.544 -2.90092 -0.171717 0
M  V30 507 H 42.091 -2.49853 0.627012 0
M  V30 508 H 42.049 -2.96806 -1.03699 0
M  V30 509 N 45.8211 -1.22559 -0.990812 0
M  V30 510 C 47.0691 -1.04933 -1.72724 0
M  V30 511 C 47.3901 0.416158 -1.90508 0
M  V30 512 O 46.6601 1.29918 -1.46622 0
M  V30 513 H 45.2401 -0.385296 -0.639965 0
M  V30 514 H 47.9021 -1.54105 -1.19322 0
M  V30 515 H 46.9981 -1.52886 -2.72089 0
M  V30 516 N 47.2992 1.18797 -1.03562 0
M  V30 517 C 48.5482 1.87978 -0.731235 0
M  V30 518 C 48.8612 1.80911 0.743671 0
M  V30 519 O 50.0672 2.45407 1.16137 0
M  V30 520 C 48.5232 3.3721 -1.25768 0
M  V30 521 C 48.1312 3.52818 -2.76085 0
M  V30 522 C 49.8752 4.11825 -1.0296 0
M  V30 523 C 47.7822 4.9598 -3.22114 0
M  V30 524 H 46.7122 0.704063 -0.269835 0
M  V30 525 H 49.3632 1.34266 -1.25079 0
M  V30 526 H 47.7452 3.90359 -0.666011 0
M  V30 527 H 48.9192 3.09965 -3.40966 0
M  V30 528 H 47.2342 2.91602 -2.97249 0
M  V30 529 H 49.8312 5.17411 -1.34869 0
M  V30 530 H 50.1742 4.16287 0.0333546 0
M  V30 531 H 50.7072 3.64833 -1.58562 0
M  V30 532 H 47.4462 4.96684 -4.27768 0
M  V30 533 H 46.9662 5.39569 -2.61965 0
M  V30 534 H 48.6452 5.6467 -3.15844 0
M  V30 535 N 48.7773 0.814389 1.34928 0
M  V30 536 C 50.0543 0.321363 1.92942 0
M  V30 537 C 50.4343 -1.19014 1.74353 0
M  V30 538 O 49.7823 -1.99328 1.11716 0
M  V30 539 C 49.9923 0.741323 3.41036 0
M  V30 540 C 51.3403 0.735266 4.18185 0
M  V30 541 O 52.3643 0.68336 3.49584 0
M  V30 542 O 51.2233 0.800703 5.40602 0
M  V30 543 H 48.3173 0.0858893 0.822528 0
M  V30 544 H 50.8633 0.898609 1.43955 0
M  V30 545 H 49.6353 1.78276 3.4833 0
M  V30 546 H 49.2583 0.139307 3.97356 0
M  V30 547 N 50.2554 -1.46986 0.568584 0
M  V30 548 C 51.5044 -2.01646 0.0465894 0
M  V30 549 C 51.8174 -1.44721 -1.31587 0
M  V30 550 O 53.0234 -1.91113 -1.92842 0
M  V30 551 C 51.4794 -3.59885 0.032752 0
M  V30 552 C 51.0874 -4.25804 1.39266 0
M  V30 553 C 52.8314 -4.22255 -0.436038 0
M  V30 554 C 50.7384 -5.76081 1.33732 0
M  V30 555 H 49.6684 -0.753876 0.013647 0
M  V30 556 H 52.3194 -1.68864 0.718131 0
M  V30 557 H 50.7014 -3.8968 -0.704669 0
M  V30 558 H 51.8754 -4.07637 2.1487 0
M  V30 559 H 50.1904 -3.7547 1.80032 0
M  V30 560 H 52.7874 -5.32394 -0.49602 0
M  V30 561 H 53.1304 -3.90212 -1.45053 0
M  V30 562 H 53.6634 -3.97033 0.246877 0
M  V30 563 H 50.4024 -6.12761 2.32817 0
M  V30 564 H 49.9224 -5.96553 0.623267 0
M  V30 565 H 51.6014 -6.38518 1.0442 0
M  V30 566 N 51.7335 -0.305618 -1.54608 0
M  V30 567 C 52.9635 0.304333 -2.04346 0
M  V30 568 C 53.3715 1.47715 -1.18224 0
M  V30 569 O 52.7145 1.82591 -0.201577 0
M  V30 570 C 52.7765 0.819031 -3.50046 0
M  V30 571 C 52.4405 -0.22912 -4.56425 0
M  V30 572 C 53.4375 -1.05914 -5.08997 0
M  V30 573 C 51.1225 -0.372148 -5.0092 0
M  V30 574 C 53.1165 -2.01809 -6.04609 0
M  V30 575 C 50.8035 -1.33454 -5.9635 0
M  V30 576 C 51.8015 -2.15599 -6.48079 0
M  V30 577 O 51.4895 -3.10205 -7.41639 0
M  V30 578 H 51.2215 0.0693996 -0.672428 0
M  V30 579 H 53.7755 -0.444548 -2.00532 0
M  V30 580 H 52.0055 1.61852 -3.51199 0
M  V30 581 H 53.6945 1.34537 -3.82955 0
M  V30 582 H 54.4605 -0.959538 -4.75413 0
M  V30 583 H 50.3395 0.257304 -4.60281 0
M  V30 584 H 53.8835 -2.65966 -6.44909 0
M  V30 585 H 49.7805 -1.43485 -6.29351 0
M  V30 586 H 50.5485 -3.05237 -7.59455 0
M  V30 587 N 53.2116 1.57565 -0.0334293 0
M  V30 588 C 54.4366 1.96689 0.657895 0
M  V30 589 C 54.8616 0.910057 1.64619 0
M  V30 590 O 54.2196 -0.128598 1.80843 0
M  V30 591 C 54.2676 3.34905 1.33683 0
M  V30 592 O 53.3716 3.31574 2.45219 0
M  V30 593 H 52.7126 0.641205 0.172489 0
M  V30 594 H 55.2426 2.04372 -0.0965621 0
M  V30 595 H 55.2526 3.71234 1.69262 0
M  V30 596 H 53.9276 4.11366 0.612411 0
M  V30 597 H 52.5046 3.06968 2.11719 0
M  V30 598 N 54.6897 -0.239769 1.55765 0
M  V30 599 C 55.6197 -1.30052 1.9393 0
M  V30 600 C 56.6007 -1.49839 0.805132 0
M  V30 601 O 57.7857 -1.62328 1.06599 0
M  V30 602 C 54.9157 -2.65391 2.2402 0
M  V30 603 C 53.8697 -2.60289 3.39755 0
M  V30 604 C 53.1957 -3.99489 3.55405 0
M  V30 605 C 54.4957 -2.16654 4.75246 0
M  V30 606 H 56.1897 -0.983573 2.82783 0
M  V30 607 H 53.7357 -0.471701 1.36055 0
M  V30 608 H 55.6887 -3.3974 2.49308 0
M  V30 609 H 54.4127 -2.98736 1.32 0
M  V30 610 H 53.0717 -1.88398 3.14487 0
M  V30 611 H 52.7197 -4.30112 2.60793 0
M  V30 612 H 52.4197 -3.96962 4.33238 0
M  V30 613 H 53.9437 -4.75528 3.83022 0
M  V30 614 H 55.3577 -2.80737 4.99859 0
M  V30 615 H 53.7547 -2.25223 5.56232 0
M  V30 616 H 54.8247 -1.11835 4.71827 0
M  V30 617 N 56.1678 -1.49265 -0.50573 0
M  V30 618 C 57.3958 -1.62215 -1.28429 0
M  V30 619 C 57.8108 -0.291697 -1.86533 0
M  V30 620 O 57.1678 0.722233 -1.67601 0
M  V30 621 C 57.2188 -2.68735 -2.41793 0
M  V30 622 O 56.9398 -3.96619 -1.86078 0
M  V30 623 C 58.4408 -2.92346 -3.3324 0
M  V30 624 H 55.6608 -0.546239 -0.389697 0
M  V30 625 H 58.2048 -1.95265 -0.607609 0
M  V30 626 H 56.3598 -2.38476 -3.053 0
M  V30 627 H 56.7738 -4.55256 -2.60465 0
M  V30 628 H 58.2478 -3.70623 -4.09075 0
M  V30 629 H 58.7248 -2.02081 -3.89948 0
M  V30 630 H 59.3308 -3.24003 -2.75503 0
M  V30 631 N 57.6459 0.756429 -1.3826 0
M  V30 632 C 58.8919 1.51772 -1.34511 0
M  V30 633 C 59.2249 1.94089 0.0656691 0
M  V30 634 O 58.4999 1.65221 1.02626 0
M  V30 635 C 58.7829 2.77226 -2.29821 0
M  V30 636 C 58.6359 2.41065 -3.79747 0
M  V30 637 C 59.9549 3.79236 -2.23312 0
M  V30 638 H 57.0739 0.550578 -0.489931 0
M  V30 639 H 59.7159 0.866607 -1.69086 0
M  V30 640 H 57.8659 3.32784 -2.00467 0
M  V30 641 H 59.5379 1.91303 -4.19763 0
M  V30 642 H 57.7809 1.7356 -3.97567 0
M  V30 643 H 58.4519 3.3081 -4.41892 0
M  V30 644 H 60.9279 3.3321 -2.49219 0
M  V30 645 H 59.8039 4.64714 -2.92116 0
M  V30 646 H 60.0649 4.24615 -1.23102 0
M  V30 647 N 59.124 1.23083 0.984299 0
M  V30 648 C 60.401 0.9689 1.69917 0
M  V30 649 C 60.781 -0.513604 2.04757 0
M  V30 650 O 60.129 -1.48383 1.73767 0
M  V30 651 C 60.339 1.87518 2.94343 0
M  V30 652 C 61.687 2.13636 3.6694 0
M  V30 653 O 62.711 1.85036 3.04368 0
M  V30 654 O 61.57 2.62119 4.79537 0
M  V30 655 H 58.664 0.365095 0.742048 0
M  V30 656 H 61.21 1.34107 1.03987 0
M  V30 657 H 59.982 2.87756 2.65164 0
M  V30 658 H 59.605 1.50514 3.6801 0
M  V30 659 N 60.6021 -1.18246 1.0419 0
M  V30 660 C 61.8271 -1.92736 0.765996 0
M  V30 661 C 62.2521 -1.75728 -0.67091 0
M  V30 662 O 61.6101 -1.06825 -1.46486 0
M  V30 663 C 61.6581 -3.42148 1.13875 0
M  V30 664 O 60.7621 -4.11548 0.264954 0
M  V30 665 H 60.1031 -0.601238 0.281797 0
M  V30 666 H 62.6331 -1.49942 1.39207 0
M  V30 667 H 62.6431 -3.92858 1.1012 0
M  V30 668 H 61.3181 -3.53848 2.18551 0
M  V30 669 H 59.8951 -3.71137 0.362226 0
M  V30 670 N 62.0802 -0.821533 -1.34494 0
M  V30 671 C 63.4962 -0.507117 -1.51329 0
M  V30 672 C 63.6962 0.968964 -1.76673 0
M  V30 673 O 62.7522 1.75348 -1.81685 0
M  V30 674 C 64.0652 -1.36544 -2.67911 0
M  V30 675 C 65.6132 -1.36242 -2.81793 0
M  V30 676 C 66.0882 -2.2052 -4.01416 0
M  V30 677 N 67.5792 -2.18136 -4.08621 0
M  V30 678 C 68.3142 -2.80095 -5.00334 0
M  V30 679 N 67.8102 -3.51039 -5.9728 0
M  V30 680 N 69.6032 -2.69656 -4.93196 0
M  V30 681 H 61.7542 -1.77729 -1.16302 0
M  V30 682 H 64.0172 -0.757291 -0.570276 0
M  V30 683 H 63.7232 -2.41361 -2.55808 0
M  V30 684 H 63.5972 -1.02917 -3.62888 0
M  V30 685 H 65.9842 -0.322041 -2.93338 0
M  V30 686 H 66.0652 -1.73866 -1.87628 0
M  V30 687 H 65.7092 -3.24607 -3.90631 0
M  V30 688 H 65.6392 -1.80247 -4.94791 0
M  V30 689 H 68.1302 -1.6653 -3.39229 0
M  V30 690 H 68.4432 -3.95565 -6.63889 0
M  V30 691 H 66.7882 -3.55145 -5.97409 0
M  V30 692 H 69.9792 -2.13808 -4.16418 0
M  V30 693 H 70.1522 -3.1823 -5.64476 0
M  V30 694 N 63.5583 1.46682 -0.576371 0
M  V30 695 C 64.8043 2.02712 -0.0596221 0
M  V30 696 C 65.1373 1.44765 1.29448 0
M  V30 697 O 64.4123 0.610355 1.84675 0
M  V30 698 C 64.6953 3.60098 0.0129503 0
M  V30 699 C 64.5483 4.28441 -1.3696 0
M  V30 700 C 65.8673 4.34224 0.71678 0
M  V30 701 H 62.9863 0.736637 -0.0231407 0
M  V30 702 H 65.6283 1.74898 -0.742351 0
M  V30 703 H 63.7783 3.83926 0.594378 0
M  V30 704 H 65.4503 4.15896 -1.9957 0
M  V30 705 H 63.6933 3.8805 -1.93907 0
M  V30 706 H 64.3643 5.3716 -1.27135 0
M  V30 707 H 66.8403 4.15503 0.222908 0
M  V30 708 H 65.7163 5.43936 0.73657 0
M  V30 709 H 65.9773 4.04823 1.77682 0
M  V30 710 N 65.0364 0.313813 1.54444 0
M  V30 711 C 66.2614 -0.296681 2.05267 0
M  V30 712 C 66.6864 -1.45757 1.18897 0
M  V30 713 O 66.0444 -1.80239 0.195886 0
M  V30 714 C 66.0924 -0.71831 3.53373 0
M  V30 715 O 65.1964 -1.82175 3.69981 0
M  V30 716 H 64.5374 -0.0554061 0.661684 0
M  V30 717 H 67.0674 0.459387 1.99376 0
M  V30 718 H 67.0774 -1.00364 3.95463 0
M  V30 719 H 65.7524 0.130821 4.15694 0
M  V30 720 H 64.3294 -1.53598 3.39797 0
M  V30 721 N 66.5145 -1.57545 0.0417849 0
M  V30 722 C 67.7395 -1.97035 -0.647455 0
M  V30 723 C 68.1645 -0.918775 -1.64135 0
M  V30 724 O 67.5225 0.119006 -1.80909 0
M  V30 725 C 67.5705 -3.35609 -1.31905 0
M  V30 726 O 66.6745 -3.3287 -2.43457 0
M  V30 727 H 66.0155 -0.64211 -0.169086 0
M  V30 728 H 68.5455 -2.04318 0.107399 0
M  V30 729 H 68.5555 -3.72126 -1.67291 0
M  V30 730 H 67.2305 -4.11685 -0.590586 0
M  V30 731 H 65.8075 -3.08087 -2.10088 0
M  V30 732 N 67.9926 0.231505 -1.5589 0
M  V30 733 C 69.4086 0.580748 -1.48659 0
M  V30 734 C 69.6086 1.87617 -0.73498 0
M  V30 735 O 68.6646 2.51046 -0.270586 0
M  V30 736 C 69.9776 0.669202 -2.93159 0
M  V30 737 C 71.5256 0.760499 -3.03621 0
M  V30 738 C 72.0006 0.880383 -4.49459 0
M  V30 739 N 73.4916 0.944861 -4.53461 0
M  V30 740 C 74.2266 1.05716 -5.63571 0
M  V30 741 N 73.7226 1.13403 -6.83456 0
M  V30 742 N 75.5156 1.09152 -5.514 0
M  V30 743 H 67.6666 -0.618695 -2.03189 0
M  V30 744 H 69.9296 -0.215728 -0.923128 0
M  V30 745 H 69.6356 -0.212904 -3.51055 0
M  V30 746 H 69.5096 1.5361 -3.44505 0
M  V30 747 H 71.8966 1.63305 -2.45796 0
M  V30 748 H 71.9776 -0.131864 -2.5546 0
M  V30 749 H 71.6216 0.0123284 -5.07899 0
M  V30 750 H 71.5516 1.78802 -4.95316 0
M  V30 751 H 74.0426 0.896176 -3.6712 0
M  V30 752 H 74.3556 1.21921 -7.63122 0
M  V30 753 H 72.7006 1.10333 -6.86186 0
M  V30 754 H 75.8916 1.02805 -4.56671 0
M  V30 755 H 76.0646 1.17558 -6.37247 0
M  V30 756 N 69.4707 1.49531 0.497807 0
M  V30 757 C 70.7177 1.59179 1.25173 0
M  V30 758 C 71.0457 0.279932 1.92475 0
M  V30 759 O 70.3007 -0.732383 1.81479 0
M  V30 760 C 70.5997 2.70252 2.33878 0
M  V30 761 C 70.2657 4.11644 1.84012 0
M  V30 762 C 68.9277 4.50121 1.70132 0
M  V30 763 C 71.2797 5.00121 1.46725 0
M  V30 764 C 68.6077 5.74845 1.17348 0
M  V30 765 C 70.9597 6.25366 0.95392 0
M  V30 766 C 69.6237 6.6267 0.801538 0
M  V30 767 H 68.8937 0.582478 0.45804 0
M  V30 768 H 71.5407 1.83373 0.551948 0
M  V30 769 H 69.8457 2.40041 3.09657 0
M  V30 770 H 71.5427 2.74925 2.9192 0
M  V30 771 H 68.1327 3.81274 1.95775 0
M  V30 772 H 72.3167 4.71048 1.56294 0
M  V30 773 H 67.5727 6.02444 1.04264 0
M  V30 774 H 71.7467 6.93301 0.656225 0
M  V30 775 H 69.3737 7.59197 0.390351 0
M  V30 776 N 70.9488 -0.749086 1.3866 0
M  V30 777 C 71.9118 -1.84457 1.36045 0
M  V30 778 C 72.9118 -1.58682 0.260122 0
M  V30 779 O 74.1018 -1.66343 0.517261 0
M  V30 780 C 71.2338 -3.22008 1.11911 0
M  V30 781 H 72.4268 -1.88182 2.33512 0
M  V30 782 H 69.9798 -0.951266 1.24019 0
M  V30 783 H 70.7148 -3.2395 0.150686 0
M  V30 784 H 70.4998 -3.42111 1.91579 0
M  V30 785 H 71.9898 -4.0208 1.12788 0
M  V30 786 N 72.4269 -1.23603 -0.977757 0
M  V30 787 C 73.3769 -0.986664 -2.05545 0
M  V30 788 C 74.3609 0.0683009 -1.60755 0
M  V30 789 O 75.5529 -0.144162 -1.76412 0
M  V30 790 C 72.6819 -0.582623 -3.3832 0
M  V30 791 C 71.7679 -1.67313 -3.89701 0
M  V30 792 N 72.1589 -2.90394 -4.14132 0
M  V30 793 C 70.4569 -1.54832 -4.18262 0
M  V30 794 C 71.1579 -3.61017 -4.56116 0
M  V30 795 N 70.1339 -2.8854 -4.60701 0
M  V30 796 H 73.9359 -1.92139 -2.22396 0
M  V30 797 H 71.4499 -1.1358 -1.16074 0
M  V30 798 H 73.4469 -0.38524 -4.15116 0
M  V30 799 H 72.1069 0.34503 -3.22862 0
M  V30 800 H 73.1179 -3.26673 -4.01877 0
M  V30 801 H 69.7949 -0.687969 -4.11793 0
M  V30 802 H 71.1849 -4.66544 -4.83514 0
M  V30 803 N 73.905 1.17692 -1.04816 0
M  V30 804 C 75.133 1.91786 -0.776254 0
M  V30 805 C 75.548 1.76604 0.667577 0
M  V30 806 O 74.905 1.10067 1.45573 0
M  V30 807 C 74.956 3.42967 -1.14263 0
M  V30 808 O 74.677 3.57678 -2.52978 0
M  V30 809 C 76.178 4.34144 -0.896311 0
M  V30 810 H 73.398 0.608624 -0.282519 0
M  V30 811 H 75.942 1.49268 -1.39783 0
M  V30 812 H 74.097 3.83245 -0.565874 0
M  V30 813 H 74.511 4.51319 -2.67229 0
M  V30 814 H 75.985 5.38744 -1.20244 0
M  V30 815 H 76.462 4.38876 0.168636 0
M  V30 816 H 77.068 3.99574 -1.45672 0
M  V30 817 N 75.3831 0.828654 1.34056 0
M  V30 818 C 76.6291 0.42008 1.98402 0
M  V30 819 C 76.9621 -1.01564 1.65525 0
M  V30 820 O 76.2371 -1.70834 0.929831 0
M  V30 821 C 76.5201 0.62927 3.54559 0
M  V30 822 C 76.3731 2.11152 3.97159 0
M  V30 823 C 77.6921 0.0688756 4.40046 0
M  V30 824 H 74.8111 0.154104 0.720709 0
M  V30 825 H 77.4531 1.04228 1.5886 0
M  V30 826 H 75.6031 0.0996418 3.88372 0
M  V30 827 H 77.2751 2.70522 3.73651 0
M  V30 828 H 75.5181 2.59985 3.47261 0
M  V30 829 H 76.1891 2.20868 5.05887 0
M  V30 830 H 78.6651 0.521458 4.1282 0
M  V30 831 H 77.5411 0.245006 5.48353 0
M  V30 832 H 77.8021 -1.0266 4.30015 0
M  V30 833 N 76.8612 -1.46375 0.584142 0
M  V30 834 C 78.1072 -2.02678 0.0703716 0
M  V30 835 C 78.4402 -1.4545 -1.28678 0
M  V30 836 O 77.7152 -0.62014 -1.84349 0
M  V30 837 C 77.9982 -3.60099 0.00614674 0
M  V30 838 C 77.8512 -4.27709 1.3923 0
M  V30 839 C 79.1702 -4.34598 -0.693742 0
M  V30 840 H 76.2892 -0.736504 0.027047 0
M  V30 841 H 78.9312 -1.74501 0.751615 0
M  V30 842 H 77.0812 -3.84236 -0.574009 0
M  V30 843 H 78.7532 -4.14832 2.01773 0
M  V30 844 H 76.9962 -3.87016 1.95962 0
M  V30 845 H 77.6672 -5.36478 1.29982 0
M  V30 846 H 80.1432 -4.15615 -0.200869 0
M  V30 847 H 79.0192 -5.44318 -0.707714 0
M  V30 848 H 79.2802 -4.05759 -1.75533 0
M  V30 849 N 78.3393 -0.321999 -1.54275 0
M  V30 850 C 79.5673 0.283052 -2.04955 0
M  V30 851 C 79.9823 1.45904 -1.19823 0
M  V30 852 O 79.3393 1.81063 -0.228545 0
M  V30 853 C 79.3903 0.719028 -3.54277 0
M  V30 854 O 79.1113 -0.410175 -4.36176 0
M  V30 855 C 80.6123 1.38705 -4.21041 0
M  V30 856 H 77.8323 0.0584616 -0.668448 0
M  V30 857 H 80.3763 -0.467734 -1.99079 0
M  V30 858 H 78.5313 1.41979 -3.60445 0
M  V30 859 H 78.9453 -0.0669416 -5.24457 0
M  V30 860 H 80.4193 1.64306 -5.2698 0
M  V30 861 H 80.8963 2.33385 -3.72059 0
M  V30 862 H 81.5023 0.728906 -4.19007 0
M  V30 863 N 79.8174 1.5752 -0.0501392 0
M  V30 864 C 81.0424 1.97376 0.636997 0
M  V30 865 C 81.4674 0.927466 1.63645 0
M  V30 866 O 80.8254 -0.10941 1.8097 0
M  V30 867 C 80.8734 3.36304 1.30123 0
M  V30 868 O 79.9774 3.34156 2.41689 0
M  V30 869 H 79.3184 0.642998 0.165679 0
M  V30 870 H 81.8484 2.04258 -0.118233 0
M  V30 871 H 81.8584 3.73008 1.65315 0
M  V30 872 H 80.5334 4.11993 0.568746 0
M  V30 873 H 79.1104 3.09196 2.08451 0
M  V30 874 N 81.2955 -0.223234 1.56011 0
M  V30 875 C 82.7115 -0.572856 1.48965 0
M  V30 876 C 82.9115 -1.87225 0.74492 0
M  V30 877 O 81.9675 -2.50899 0.283896 0
M  V30 878 C 83.2805 -0.653646 2.9351 0
M  V30 879 C 84.8285 -0.744386 3.0402 0
M  V30 880 C 85.3035 -0.856535 4.49919 0
M  V30 881 N 86.7945 -0.9208 4.53955 0
M  V30 882 C 87.5295 -1.02726 5.64123 0
M  V30 883 N 87.0255 -1.09777 6.84047 0
M  V30 884 N 88.8185 -1.06226 5.51971 0
M  V30 885 H 80.9695 0.629462 2.02858 0
M  V30 886 H 83.2325 0.220621 0.921971 0
M  V30 887 H 82.9385 0.231518 3.50937 0
M  V30 888 H 82.8125 -1.51781 3.45315 0
M  V30 889 H 85.1995 -1.61999 2.46658 0
M  V30 890 H 85.2805 0.14541 2.55386 0
M  V30 891 H 84.9245 0.0146069 5.07898 0
M  V30 892 H 84.8545 -1.76172 4.96257 0
M  V30 893 H 87.3455 -0.876694 3.6759 0
M  V30 894 H 87.6585 -1.17872 7.63758 0
M  V30 895 H 86.0035 -1.06693 6.86762 0
M  V30 896 H 89.1945 -1.00382 4.5721 0
M  V30 897 H 89.3675 -1.14177 6.37862 0
M  V30 898 N 82.7736 -1.49793 -0.48987 0
M  V30 899 C 84.0196 -1.60078 -1.24511 0
M  V30 900 C 84.3526 -0.291608 -1.91998 0
M  V30 901 O 83.6276 0.705647 -1.81248 0
M  V30 902 C 83.9106 -2.76791 -2.30345 0
M  V30 903 C 83.7636 -4.17535 -1.67286 0
M  V30 904 C 85.0826 -2.89111 -3.31817 0
M  V30 905 H 82.2016 -0.582645 -0.451324 0
M  V30 906 H 84.8436 -1.82117 -0.541612 0
M  V30 907 H 82.9936 -2.5813 -2.90346 0
M  V30 908 H 84.6656 -4.4774 -1.11026 0
M  V30 909 H 82.9086 -4.22665 -0.976577 0
M  V30 910 H 83.5796 -4.95094 -2.44103 0
M  V30 911 H 86.0556 -3.06133 -2.81819 0
M  V30 912 H 84.9316 -3.72433 -4.03219 0
M  V30 913 H 85.1926 -1.9893 -3.94815 0
M  V30 914 N 84.2517 0.741722 -1.39055 0
M  V30 915 C 85.4977 1.50336 -1.36113 0
M  V30 916 C 85.8307 1.94148 0.0450796 0
M  V30 917 O 85.1057 1.66301 1.00868 0
M  V30 918 C 85.3887 2.74773 -2.32749 0
M  V30 919 C 85.2417 2.37023 -3.82283 0
M  V30 920 C 86.5607 3.76846 -2.27322 0
M  V30 921 H 83.6797 0.545351 -0.495743 0
M  V30 922 H 86.3217 0.848624 -1.69995 0
M  V30 923 H 84.4717 3.30639 -2.03986 0
M  V30 924 H 86.1437 1.8684 -4.21768 0
M  V30 925 H 84.3867 1.69334 -3.99385 0
M  V30 926 H 85.0577 3.26104 -4.45376 0
M  V30 927 H 87.5337 3.30548 -2.5274 0
M  V30 928 H 86.4097 4.6159 -2.97028 0
M  V30 929 H 86.6707 4.23286 -1.27599 0
M  V30 930 N 85.7298 1.2412 0.971189 0
M  V30 931 C 86.6778 1.02812 2.08644 0
M  V30 932 C 87.6718 -0.0358403 1.69362 0
M  V30 933 O 88.8778 0.118429 1.7961 0
M  V30 934 H 85.2528 0.315428 0.682649 0
M  V30 935 H 87.2238 1.97397 2.23779 0
M  V30 936 C 85.9728 0.645874 3.41649 0
M  V30 937 H 85.2958 1.45632 3.72332 0
M  V30 938 H 86.7358 0.536366 4.20594 0
M  V30 939 C 85.1948 -0.646713 3.30635 0
M  V30 940 O 85.7248 -1.69338 3.64263 0
M  V30 941 N 83.9308 -0.626115 2.83775 0
M  V30 942 H 83.4778 0.225988 2.56607 0
M  V30 943 H 83.4358 -1.49117 2.76788 0
M  V30 944 N 87.2079 -1.17134 1.05439 0
M  V30 945 C 88.6239 -1.39454 0.776201 0
M  V30 946 C 88.8239 -1.91454 -0.628307 0
M  V30 947 O 87.8799 -2.10777 -1.39031 0
M  V30 948 C 89.1929 -2.38305 1.83388 0
M  V30 949 C 90.7409 -2.52006 1.85639 0
M  V30 950 C 91.2159 -3.54133 2.90437 0
M  V30 951 N 92.7069 -3.61653 2.89415 0
M  V30 952 C 93.4419 -4.4044 3.67152 0
M  V30 953 N 92.9379 -5.22721 4.54681 0
M  V30 954 N 94.7309 -4.35337 3.55581 0
M  V30 955 H 86.8819 -0.817134 1.96053 0
M  V30 956 H 89.1449 -0.421626 0.849079 0
M  V30 957 H 88.8509 -2.07173 2.84204 0
M  V30 958 H 88.7249 -3.37841 1.67761 0
M  V30 959 H 91.1119 -2.82447 0.85486 0
M  V30 960 H 91.1929 -1.52537 2.05344 0
M  V30 961 H 90.8369 -3.24431 3.90777 0
M  V30 962 H 90.7669 -4.53313 2.67983 0
M  V30 963 H 93.2579 -3.02909 2.25952 0
M  V30 964 H 93.5709 -5.80027 5.10674 0
M  V30 965 H 91.9159 -5.22093 4.58741 0
M  V30 966 H 95.1069 -3.70112 2.86592 0
M  V30 967 H 95.2799 -4.96494 4.1641 0
M  V30 968 N 88.686 -0.835752 -1.33615 0
M  V30 969 C 89.649 -0.272 -2.2758 0
M  V30 970 C 90.649 0.557487 -1.50827 0
M  V30 971 O 91.839 0.37173 -1.70188 0
M  V30 972 C 88.971 0.617173 -3.35267 0
M  V30 973 H 90.164 -1.10111 -2.78954 0
M  V30 974 H 87.717 -0.608594 -1.43965 0
M  V30 975 H 88.452 1.46884 -2.89129 0
M  V30 976 H 88.237 0.0237066 -3.92093 0
M  V30 977 H 89.727 1.005 -4.05326 0
M  V30 978 N 90.1641 1.46063 -0.591896 0
M  V30 979 C 91.1121 2.32124 0.148739 0
M  V30 980 C 92.1061 1.45035 0.875286 0
M  V30 981 O 93.3121 1.61609 0.792632 0
M  V30 982 H 89.6871 0.749024 0.066832 0
M  V30 983 H 91.6581 2.92392 -0.595783 0
M  V30 984 C 90.4071 3.28373 1.1431 0
M  V30 985 H 89.7301 3.95371 0.59346 0
M  V30 986 H 91.1701 3.91352 1.63155 0
M  V30 987 C 89.6291 2.54393 2.20875 0
M  V30 988 O 90.1591 2.31373 3.28374 0
M  V30 989 N 88.3651 2.14797 1.95731 0
M  V30 990 H 87.9121 2.33719 1.08319 0
M  V30 991 H 87.8701 1.65619 2.67241 0
M  V30 992 N 91.6422 0.330177 1.54103 0
M  V30 993 C 92.8702 -0.272179 2.05102 0
M  V30 994 C 93.2852 -1.45267 1.20595 0
M  V30 995 O 92.6422 -1.8094 0.238144 0
M  V30 996 C 92.6932 -0.70023 3.54653 0
M  V30 997 O 92.4142 0.433301 4.35952 0
M  V30 998 C 93.9152 -1.3647 4.21771 0
M  V30 999 H 91.1352 -0.0549159 0.668749 0
M  V30 1000 H 93.6792 0.478285 1.98828 0
M  V30 1001 H 91.8342 -1.40066 3.61193 0
M  V30 1002 H 92.2482 0.0947539 5.24414 0
M  V30 1003 H 93.7222 -1.61509 5.27843 0
M  V30 1004 H 94.1992 -2.31409 3.73292 0
M  V30 1005 H 94.8052 -0.706675 4.19388 0
M  V30 1006 N 93.1203 -1.57491 0.0584922 0
M  V30 1007 C 94.3663 -1.93264 -0.614558 0
M  V30 1008 C 94.6993 -0.937717 -1.7006 0
M  V30 1009 O 93.9743 0.0351652 -1.94468 0
M  V30 1010 C 94.2573 -3.3938 -1.20386 0
M  V30 1011 C 94.1103 -4.49625 -0.125375 0
M  V30 1012 C 95.4293 -3.86039 -2.11334 0
M  V30 1013 H 92.5483 -0.702791 -0.221933 0
M  V30 1014 H 95.1903 -1.8961 0.12175 0
M  V30 1015 H 93.3403 -3.42626 -1.83139 0
M  V30 1016 H 95.0123 -4.58506 0.506971 0
M  V30 1017 H 93.2553 -4.30354 0.545672 0
M  V30 1018 H 93.9263 -5.48967 -0.577861 0
M  V30 1019 H 96.4023 -3.84716 -1.58534 0
M  V30 1020 H 95.2783 -4.88914 -2.49507 0
M  V30 1021 H 95.5393 -3.23215 -3.01636 0
M  V30 1022 N 94.5984 0.214957 -1.56127 0
M  V30 1023 C 95.5304 1.29004 -1.89448 0
M  V30 1024 C 96.5434 1.42716 -0.783326 0
M  V30 1025 O 97.7324 1.43496 -1.06166 0
M  V30 1026 C 94.8324 2.66482 -2.09381 0
M  V30 1027 C 94.0054 2.74633 -3.40434 0
M  V30 1028 C 93.0644 3.9317 -3.49719 0
M  V30 1029 O 92.0904 3.812 -4.227 0
M  V30 1030 N 93.2924 5.07765 -2.81346 0
M  V30 1031 H 96.0574 1.00743 -2.82261 0
M  V30 1032 H 93.6184 0.40497 -1.56753 0
M  V30 1033 H 95.6104 3.44173 -2.12901 0
M  V30 1034 H 94.1804 2.87314 -1.23163 0
M  V30 1035 H 93.4004 1.83368 -3.48955 0
M  V30 1036 H 94.6884 2.77054 -4.26754 0
M  V30 1037 H 94.0864 5.20386 -2.21843 0
M  V30 1038 H 92.6434 5.83474 -2.90519 0
M  V30 1039 N 96.0765 1.50051 0.48192 0
M  V30 1040 C 96.9865 1.7089 1.60728 0
M  V30 1041 C 98.0025 0.591788 1.63627 0
M  V30 1042 O 99.1785 0.868817 1.81696 0
M  V30 1043 C 96.2435 1.78855 2.97005 0
M  V30 1044 C 95.3045 3.02537 3.04581 0
M  V30 1045 C 94.5375 3.10112 4.34357 0
M  V30 1046 O 94.7605 2.24765 5.24249 0
M  V30 1047 O 93.6945 4.02747 4.47301 0
M  V30 1048 H 97.5205 2.66264 1.46072 0
M  V30 1049 H 95.1055 1.34018 0.660264 0
M  V30 1050 H 96.9875 1.86336 3.77964 0
M  V30 1051 H 95.6625 0.866628 3.11883 0
M  V30 1052 H 94.5695 3.00563 2.22739 0
M  V30 1053 H 95.9025 3.94272 2.94636 0
M  V30 1054 N 97.5546 -0.734337 1.39446 0
M  V30 1055 C 98.5176 -1.83004 1.37994 0
M  V30 1056 C 99.5176 -1.58397 0.276938 0
M  V30 1057 O 100.708 -1.65785 0.534875 0
M  V30 1058 C 97.8396 -3.20802 1.1532 0
M  V30 1059 H 99.0326 -1.85694 2.35494 0
M  V30 1060 H 96.5856 -0.938059 1.25021 0
M  V30 1061 H 97.3206 -3.23772 0.185036 0
M  V30 1062 H 97.1056 -3.4006 1.95197 0
M  V30 1063 H 98.5956 -4.00862 1.17046 0
M  V30 1064 N 99.0327 -1.24633 -0.964593 0
M  V30 1065 C 100.261 -1.11501 -1.74285 0
M  V30 1066 C 100.676 0.332165 -1.85855 0
M  V30 1067 O 100.033 1.22903 -1.34911 0
M  V30 1068 C 100.084 -1.75258 -3.16175 0
M  V30 1069 O 99.8047 -3.14318 -3.05182 0
M  V30 1070 C 101.306 -1.67776 -4.10324 0
M  V30 1071 H 98.5257 -0.389407 -0.546446 0
M  V30 1072 H 101.07 -1.64801 -1.21083 0
M  V30 1073 H 99.2247 -1.25954 -3.66353 0
M  V30 1074 H 99.6387 -3.4551 -3.94618 0
M  V30 1075 H 101.113 -2.17064 -5.0753 0
M  V30 1076 H 101.59 -0.639584 -4.34518 0
M  V30 1077 H 102.196 -2.16522 -3.66058 0
M  V30 1078 N 100.511 1.16574 -1.06058 0
M  V30 1079 C 101.758 1.87047 -0.775873 0
M  V30 1080 C 102.086 1.81562 0.697534 0
M  V30 1081 O 101.341 1.22445 1.52662 0
M  V30 1082 C 101.64 3.36195 -1.21275 0
M  V30 1083 C 101.306 3.6188 -2.68986 0
M  V30 1084 C 99.9678 3.68599 -3.09335 0
M  V30 1085 C 102.32 3.72648 -3.64394 0
M  V30 1086 C 99.6478 3.83584 -4.43937 0
M  V30 1087 C 102 3.89154 -4.98741 0
M  V30 1088 C 100.664 3.94114 -5.3873 0
M  V30 1089 H 99.9338 0.684452 -0.283912 0
M  V30 1090 H 102.581 1.37853 -1.32925 0
M  V30 1091 H 100.886 3.87505 -0.578528 0
M  V30 1092 H 102.583 3.89103 -0.969542 0
M  V30 1093 H 99.1728 3.57281 -2.36744 0
M  V30 1094 H 103.357 3.66769 -3.34356 0
M  V30 1095 H 98.6128 3.85677 -4.74409 0
M  V30 1096 H 102.787 3.96427 -5.72554 0
M  V30 1097 H 100.414 4.05478 -6.43033 0
M  V30 1098 N 101.989 0.842826 1.3317 0
M  V30 1099 C 102.921 0.236245 2.27979 0
M  V30 1100 C 103.934 -0.585282 1.51915 0
M  V30 1101 O 105.123 -0.411705 1.73687 0
M  V30 1102 C 102.223 -0.685717 3.3189 0
M  V30 1103 C 101.396 0.0973448 4.37292 0
M  V30 1104 C 100.455 -0.748565 5.20848 0
M  V30 1105 O 99.4809 -0.186339 5.68895 0
M  V30 1106 N 100.683 -2.06527 5.42519 0
M  V30 1107 H 103.448 1.05088 2.80672 0
M  V30 1108 H 101.009 0.701667 1.45905 0
M  V30 1109 H 103.001 -1.25669 3.84694 0
M  V30 1110 H 101.571 -1.40105 2.79445 0
M  V30 1111 H 100.791 0.849706 3.84933 0
M  V30 1112 H 102.079 0.635643 5.04814 0
M  V30 1113 H 101.477 -2.54554 5.05192 0
M  V30 1114 H 100.034 -2.58464 5.98364 0
M  V30 1115 N 103.467 -1.45747 0.599634 0
M  V30 1116 C 104.4 -2.27547 -0.172552 0
M  V30 1117 C 105.378 -1.36657 -0.881116 0
M  V30 1118 O 106.562 -1.66081 -0.891595 0
M  V30 1119 C 103.689 -3.14829 -1.24903 0
M  V30 1120 C 102.735 -4.21603 -0.644465 0
M  V30 1121 S 103.568 -5.32754 0.541606 0
M  V30 1122 C 104.724 -6.23604 -0.535656 0
M  V30 1123 H 104.957 -2.92691 0.521468 0
M  V30 1124 H 102.49 -1.49473 0.386947 0
M  V30 1125 H 104.448 -3.65675 -1.86527 0
M  V30 1126 H 103.109 -2.48965 -1.91508 0
M  V30 1127 H 102.302 -4.82566 -1.45417 0
M  V30 1128 H 101.904 -3.73857 -0.103534 0
M  V30 1129 H 104.196 -6.62519 -1.41686 0
M  V30 1130 H 105.139 -7.0809 0.0376246 0
M  V30 1131 H 105.547 -5.58103 -0.84741 0
M  V30 1132 N 104.945 -0.338344 -1.53925 0
M  V30 1133 C 105.855 0.529421 -2.28548 0
M  V30 1134 C 106.871 1.11645 -1.3346 0
M  V30 1135 O 108.047 1.13325 -1.66492 0
M  V30 1136 C 105.112 1.66713 -3.03987 0
M  V30 1137 C 104.173 1.11041 -4.14691 0
M  V30 1138 C 103.406 2.19389 -4.86522 0
M  V30 1139 O 103.629 3.40013 -4.57982 0
M  V30 1140 O 102.563 1.83976 -5.73094 0
M  V30 1141 H 106.389 -0.0770399 -3.03602 0
M  V30 1142 H 103.974 -0.103555 -1.49041 0
M  V30 1143 H 105.856 2.32918 -3.5118 0
M  V30 1144 H 104.531 2.25949 -2.31794 0
M  V30 1145 H 103.438 0.413024 -3.71813 0
M  V30 1146 H 104.771 0.562975 -4.8897 0
M  V30 1147 N 106.423 1.57458 -0.0668435 0
M  V30 1148 C 107.353 2.15468 0.899764 0
M  V30 1149 C 108.334 1.08042 1.31381 0
M  V30 1150 O 109.519 1.36054 1.38574 0
M  V30 1151 C 106.649 2.71232 2.16911 0
M  V30 1152 C 105.603 3.83781 1.89463 0
M  V30 1153 C 104.929 4.26127 3.22986 0
M  V30 1154 C 106.229 5.08238 1.20381 0
M  V30 1155 H 107.923 2.96488 0.416529 0
M  V30 1156 H 105.469 1.4262 0.198908 0
M  V30 1157 H 107.422 3.10458 2.84945 0
M  V30 1158 H 106.146 1.87426 2.67468 0
M  V30 1159 H 104.805 3.45051 1.23836 0
M  V30 1160 H 104.453 3.39249 3.71374 0
M  V30 1161 H 104.153 5.01993 3.05413 0
M  V30 1162 H 105.677 4.67966 3.92225 0
M  V30 1163 H 107.091 5.44811 1.78475 0
M  V30 1164 H 105.488 5.89349 1.13083 0
M  V30 1165 H 106.558 4.84558 0.182153 0
M  V30 1166 N 107.901 -0.206675 1.56239 0
M  V30 1167 C 109.312 -0.772383 1.69974 0
M  V30 1168 C 109.663 -1.84353 0.671436 0
M  V30 1169 O 108.788 -2.15695 -0.174491 0
M  V30 1170 C 109.383 -1.40779 3.08167 0
M  V30 1171 C 107.942 -1.92072 3.23706 0
M  V30 1172 C 107.089 -0.786347 2.65917 0
M  V30 1173 H 110.04 0.0182223 1.5869 0
M  V30 1174 H 110.061 -2.27696 3.04852 0
M  V30 1175 H 109.573 -0.627958 3.82986 0
M  V30 1176 H 107.674 -2.7281 2.53782 0
M  V30 1177 H 107.787 -2.09046 4.31087 0
M  V30 1178 H 106.151 -1.1976 2.24788 0
M  V30 1179 H 106.934 -0.0189416 3.43295 0
M  V30 1180 N 109.379 -1.50304 -0.473955 0
M  V30 1181 C 110.326 -1.68959 -1.57231 0
M  V30 1182 C 111.296 -0.530899 -1.57387 0
M  V30 1183 O 112.481 -0.761133 -1.74961 0
M  V30 1184 C 109.621 -1.7871 -2.95223 0
M  V30 1185 C 108.734 -3.06061 -3.04878 0
M  V30 1186 C 107.869 -3.06626 -4.33767 0
M  V30 1187 C 106.908 -4.28443 -4.37154 0
M  V30 1188 N 106.045 -4.26763 -5.5751 0
M  V30 1189 H 110.885 -2.6273 -1.40631 0
M  V30 1190 H 108.422 -1.30241 -0.683789 0
M  V30 1191 H 110.38 -1.82344 -3.75242 0
M  V30 1192 H 109.01 -0.883806 -3.10465 0
M  V30 1193 H 108.062 -3.11911 -2.17751 0
M  V30 1194 H 109.374 -3.96039 -3.0324 0
M  V30 1195 H 108.528 -3.08973 -5.22131 0
M  V30 1196 H 107.267 -2.14473 -4.3801 0
M  V30 1197 H 106.272 -4.2631 -3.47188 0
M  V30 1198 H 107.497 -5.2182 -4.34605 0
M  V30 1199 H 105.443 -3.37462 -5.62544 0
M  V30 1200 H 105.36 -5.10507 -5.57601 0
M  V30 1201 H 106.628 -4.33253 -6.48006 0
M  V30 1202 N 110.857 0.726932 -1.39834 0
M  V30 1203 C 111.804 1.841 -1.39197 0
M  V30 1204 C 112.774 1.642 -0.250502 0
M  V30 1205 O 113.959 1.85494 -0.446846 0
M  V30 1206 C 111.099 3.21697 -1.24919 0
M  V30 1207 C 110.212 3.53247 -2.48678 0
M  V30 1208 C 109.347 4.80289 -2.26928 0
M  V30 1209 C 108.386 5.04707 -3.4632 0
M  V30 1210 N 107.523 6.22956 -3.23836 0
M  V30 1211 H 112.363 1.83979 -2.34427 0
M  V30 1212 H 109.9 0.898876 -1.16442 0
M  V30 1213 H 111.858 4.01137 -1.1465 0
M  V30 1214 H 110.488 3.21076 -0.333153 0
M  V30 1215 H 109.54 2.68447 -2.69519 0
M  V30 1216 H 110.852 3.67205 -3.37582 0
M  V30 1217 H 110.006 5.67725 -2.13947 0
M  V30 1218 H 108.745 4.68519 -1.35431 0
M  V30 1219 H 107.75 4.1573 -3.5979 0
M  V30 1220 H 108.975 5.18357 -4.38729 0
M  V30 1221 H 106.921 6.12459 -2.35011 0
M  V30 1222 H 106.838 6.37539 -4.063 0
M  V30 1223 H 108.106 7.1321 -3.14566 0
M  V30 1224 N 112.336 1.25143 0.95797 0
M  V30 1225 C 113.299 1.05321 2.03569 0
M  V30 1226 C 114.299 0.007152 1.60798 0
M  V30 1227 O 115.489 0.24903 1.72411 0
M  V30 1228 C 112.621 0.598394 3.35607 0
M  V30 1229 H 113.814 2.00986 2.22586 0
M  V30 1230 H 111.367 1.07502 1.13459 0
M  V30 1231 H 112.102 -0.361014 3.22284 0
M  V30 1232 H 111.887 1.35351 3.67998 0
M  V30 1233 H 113.377 0.48104 4.1482 0
M  V30 1234 N 113.814 -1.1601 1.06675 0
M  V30 1235 C 115.061 -1.86633 0.785781 0
M  V30 1236 C 115.389 -1.81929 -0.687896 0
M  V30 1237 O 114.644 -1.23253 -1.52011 0
M  V30 1238 C 114.943 -3.35547 1.23057 0
M  V30 1239 C 114.609 -3.60448 2.70902 0
M  V30 1240 C 113.271 -3.66954 3.11285 0
M  V30 1241 C 115.623 -3.7071 3.66365 0
M  V30 1242 C 112.951 -3.81225 4.45965 0
M  V30 1243 C 115.303 -3.86503 5.00797 0
M  V30 1244 C 113.967 -3.91252 5.40813 0
M  V30 1245 H 113.237 -0.682937 0.287538 0
M  V30 1246 H 115.884 -1.37146 1.33654 0
M  V30 1247 H 114.189 -3.87193 0.59907 0
M  V30 1248 H 115.886 -3.88583 0.990163 0
M  V30 1249 H 112.476 -3.56021 2.38636 0
M  V30 1250 H 116.66 -3.64991 3.36296 0
M  V30 1251 H 111.916 -3.83155 4.76447 0
M  V30 1252 H 116.09 -3.93385 5.74649 0
M  V30 1253 H 113.717 -4.02062 6.45174 0
M  V30 1254 N 115.292 -0.849877 -1.32721 0
M  V30 1255 C 116.541 -0.447175 -1.96681 0
M  V30 1256 C 116.854 1.00135 -1.68025 0
M  V30 1257 O 118.06 1.50926 -2.25685 0
M  V30 1258 C 116.516 -0.7487 -3.52026 0
M  V30 1259 C 116.124 -2.21264 -3.89546 0
M  V30 1260 C 117.868 -0.413487 -4.22481 0
M  V30 1261 C 115.775 -2.45763 -5.37917 0
M  V30 1262 H 114.705 -0.163486 -0.736063 0
M  V30 1263 H 117.356 -1.03999 -1.51183 0
M  V30 1264 H 115.738 -0.0853727 -3.95908 0
M  V30 1265 H 116.912 -2.91736 -3.56689 0
M  V30 1266 H 115.227 -2.5119 -3.32103 0
M  V30 1267 H 117.824 -0.574017 -5.3161 0
M  V30 1268 H 118.167 0.644492 -4.11281 0
M  V30 1269 H 118.7 -1.03251 -3.84167 0
M  V30 1270 H 115.439 -3.50168 -5.54132 0
M  V30 1271 H 114.959 -1.79864 -5.72197 0
M  V30 1272 H 116.638 -2.29471 -6.0494 0
M  V30 1273 N 116.77 1.45427 -0.607355 0
M  V30 1274 C 117.998 2.06614 -0.108814 0
M  V30 1275 C 118.413 1.45204 1.2067 0
M  V30 1276 O 117.77 0.566132 1.73497 0
M  V30 1277 C 117.821 3.61481 0.0375347 0
M  V30 1278 O 117.542 4.20598 -1.22593 0
M  V30 1279 C 119.043 4.39652 0.567561 0
M  V30 1280 H 116.263 0.66747 -0.0687351 0
M  V30 1281 H 118.807 1.86675 -0.835022 0
M  V30 1282 H 116.962 3.80762 0.714068 0
M  V30 1283 H 117.376 5.1377 -1.05547 0
M  V30 1284 H 118.85 5.48518 0.61905 0
M  V30 1285 H 119.327 4.09417 1.58978 0
M  V30 1286 H 119.933 4.25234 -0.0749202 0
M  V30 1287 N 118.248 0.346503 1.53744 0
M  V30 1288 C 119.196 -0.52422 2.26616 0
M  V30 1289 C 120.19 -1.09948 1.28871 0
M  V30 1290 O 121.396 -1.04488 1.46568 0
M  V30 1291 H 117.771 -0.187743 0.728187 0
M  V30 1292 H 119.742 0.11239 2.98188 0
M  V30 1293 C 118.491 -1.66186 3.05414 0
M  V30 1294 H 117.814 -1.22848 3.80458 0
M  V30 1295 H 119.254 -2.24622 3.59612 0
M  V30 1296 C 117.713 -2.59302 2.1509 0
M  V30 1297 O 118.243 -3.61628 1.74895 0
M  V30 1298 N 116.449 -2.28055 1.8011 0
M  V30 1299 H 115.996 -1.44883 2.12994 0
M  V30 1300 H 115.954 -2.90615 1.19958 0
M  V30 1301 N 119.726 -1.57421 0.075193 0
M  V30 1302 C 120.973 -1.93618 -0.593146 0
M  V30 1303 C 121.301 -0.955484 -1.69413 0
M  V30 1304 O 120.556 0.0283251 -1.9568 0
M  V30 1305 C 120.855 -3.36428 -1.20626 0
M  V30 1306 C 120.521 -4.50307 -0.231078 0
M  V30 1307 C 119.183 -4.81186 0.0371936 0
M  V30 1308 C 121.535 -5.19374 0.435888 0
M  V30 1309 C 118.863 -5.78466 0.979461 0
M  V30 1310 C 121.215 -6.17665 1.3665 0
M  V30 1311 C 119.879 -6.46958 1.6432 0
M  V30 1312 H 119.149 -0.708499 -0.217047 0
M  V30 1313 H 121.796 -1.90937 0.146793 0
M  V30 1314 H 120.101 -3.35592 -2.02201 0
M  V30 1315 H 121.798 -3.61727 -1.73073 0
M  V30 1316 H 118.388 -4.26227 -0.450357 0
M  V30 1317 H 122.572 -4.95711 0.241748 0
M  V30 1318 H 117.828 -5.99487 1.20106 0
M  V30 1319 H 122.002 -6.70284 1.88924 0
M  V30 1320 H 119.629 -7.2215 2.37494 0
M  V30 1321 N 121.204 0.198386 -1.56346 0
M  V30 1322 C 122.429 0.939682 -1.84891 0
M  V30 1323 C 122.854 1.76202 -0.658369 0
M  V30 1324 O 122.212 1.76993 0.392851 0
M  V30 1325 C 122.26 1.81428 -3.11635 0
M  V30 1326 O 121.364 2.91265 -2.91956 0
M  V30 1327 H 120.705 0.264807 -0.608912 0
M  V30 1328 H 123.235 0.204695 -2.03573 0
M  V30 1329 H 123.245 2.21958 -3.42343 0
M  V30 1330 H 121.92 1.21004 -3.97908 0
M  V30 1331 H 120.497 2.54514 -2.72538 0
M  V30 1332 N 122.682 1.50554 0.465978 0
M  V30 1333 C 123.615 1.64436 1.58227 0
M  V30 1334 C 124.593 0.492367 1.54966 0
M  V30 1335 O 125.777 0.712536 1.74514 0
M  V30 1336 C 122.904 1.63165 2.96808 0
M  V30 1337 C 121.95 2.83987 3.18204 0
M  V30 1338 S 122.783 4.45219 2.97557 0
M  V30 1339 C 123.939 4.46649 4.3847 0
M  V30 1340 H 124.172 2.58861 1.46213 0
M  V30 1341 H 121.705 1.3988 0.653678 0
M  V30 1342 H 123.663 1.63116 3.76701 0
M  V30 1343 H 122.324 0.69967 3.06208 0
M  V30 1344 H 121.517 2.79416 4.19455 0
M  V30 1345 H 121.119 2.81629 2.46092 0
M  V30 1346 H 123.411 4.20526 5.31191 0
M  V30 1347 H 124.354 5.48295 4.48082 0
M  V30 1348 H 124.762 3.76296 4.20787 0
M  V30 1349 N 124.16 -0.719506 1.40217 0
M  V30 1350 C 125.409 -1.47486 1.37589 0
M  V30 1351 C 125.722 -1.9559 -0.0201568 0
M  V30 1352 O 126.928 -2.70973 -0.169049 0
M  V30 1353 C 125.384 -2.66575 2.41796 0
M  V30 1354 C 124.992 -2.25358 3.87192 0
M  V30 1355 C 126.736 -3.4433 2.48269 0
M  V30 1356 C 124.643 -3.41262 4.83005 0
M  V30 1357 H 123.573 -0.553901 0.511576 0
M  V30 1358 H 126.224 -0.783427 1.65936 0
M  V30 1359 H 124.606 -3.3787 2.06543 0
M  V30 1360 H 125.78 -1.61509 4.31569 0
M  V30 1361 H 124.095 -1.60657 3.84159 0
M  V30 1362 H 126.692 -4.30569 3.17041 0
M  V30 1363 H 127.035 -3.87872 1.51198 0
M  V30 1364 H 127.568 -2.80076 2.82493 0
M  V30 1365 H 124.307 -3.02755 5.81394 0
M  V30 1366 H 123.827 -4.0404 4.43297 0
M  V30 1367 H 125.506 -4.07383 5.02641 0
M  V30 1368 N 125.638 -1.25649 -0.95132 0
M  V30 1369 C 126.887 -1.09988 -1.69073 0
M  V30 1370 C 127.2 0.358355 -1.92289 0
M  V30 1371 O 128.406 0.635466 -2.63958 0
M  V30 1372 C 126.862 -1.92012 -3.044 0
M  V30 1373 C 126.47 -3.42347 -2.88968 0
M  V30 1374 C 128.214 -1.8493 -3.82101 0
M  V30 1375 C 126.121 -4.16655 -4.19705 0
M  V30 1376 H 125.051 -0.407993 -0.63408 0
M  V30 1377 H 127.702 -1.49873 -1.05879 0
M  V30 1378 H 126.084 -1.44952 -3.68517 0
M  V30 1379 H 127.258 -3.97104 -2.33762 0
M  V30 1380 H 125.573 -3.50557 -2.24719 0
M  V30 1381 H 128.17 -2.37739 -4.78941 0
M  V30 1382 H 128.513 -0.817883 -4.08187 0
M  V30 1383 H 129.046 -2.29758 -3.2474 0
M  V30 1384 H 125.785 -5.20224 -3.98807 0
M  V30 1385 H 125.305 -3.66681 -4.74663 0
M  V30 1386 H 126.984 -4.24551 -4.88227 0
M  V30 1387 N 127.117 1.15442 -1.07289 0
M  V30 1388 C 128.394 1.82306 -0.708792 0
M  V30 1389 C 128.774 1.94991 0.808807 0
M  V30 1390 O 128.122 1.50085 1.72298 0
M  V30 1391 C 128.332 3.18695 -1.42247 0
M  V30 1392 C 129.68 3.94341 -1.57417 0
M  V30 1393 O 130.704 3.28247 -1.38319 0
M  V30 1394 O 129.563 5.12839 -1.88834 0
M  V30 1395 H 126.657 0.787628 -0.252132 0
M  V30 1396 H 129.203 1.22559 -1.17377 0
M  V30 1397 H 127.975 3.04557 -2.45684 0
M  V30 1398 H 127.598 3.86128 -0.948223 0
M  V30 1399 N 128.595 0.856903 1.32268 0
M  V30 1400 C 129.843 0.460474 1.96784 0
M  V30 1401 C 130.164 -0.987701 1.68135 0
M  V30 1402 O 129.434 -1.69058 0.989765 0
M  V30 1403 H 128.014 0.167289 0.728027 0
M  V30 1404 H 130.676 1.09383 1.61312 0
M  V30 1405 H 129.772 0.60739 3.06133 0
M  V30 1406 N 130.073 -1.45103 0.615059 0
M  V30 1407 C 131.006 -2.27717 -0.148408 0
M  V30 1408 C 131.984 -1.37584 -0.866572 0
M  V30 1409 O 133.168 -1.67017 -0.87393 0
M  V30 1410 C 130.295 -3.16136 -1.21557 0
M  V30 1411 C 129.341 -4.22263 -0.599712 0
M  V30 1412 S 130.174 -5.3215 0.598081 0
M  V30 1413 C 131.33 -6.24137 -0.469484 0
M  V30 1414 H 131.563 -2.92121 0.552483 0
M  V30 1415 H 129.096 -1.49054 0.402778 0
M  V30 1416 H 131.054 -3.67633 -1.82638 0
M  V30 1417 H 129.715 -2.50982 -1.88857 0
M  V30 1418 H 128.908 -4.84081 -1.4029 0
M  V30 1419 H 128.51 -3.73945 -0.063876 0
M  V30 1420 H 130.802 -6.63984 -1.34652 0
M  V30 1421 H 131.745 -7.0801 0.112725 0
M  V30 1422 H 132.153 -5.58971 -0.788168 0
M  V30 1423 N 131.551 -0.354651 -1.53558 0
M  V30 1424 C 132.779 0.239515 -2.05509 0
M  V30 1425 C 133.194 1.4333 -1.2289 0
M  V30 1426 O 132.551 1.80538 -0.266899 0
M  V30 1427 C 132.602 0.643719 -3.55723 0
M  V30 1428 O 132.323 -0.502602 -4.35207 0
M  V30 1429 C 133.824 1.29743 -4.23889 0
M  V30 1430 H 131.044 0.0442697 -0.669538 0
M  V30 1431 H 133.588 -0.509856 -1.98042 0
M  V30 1432 H 131.743 1.34302 -3.63376 0
M  V30 1433 H 132.157 -0.178172 -5.24197 0
M  V30 1434 H 133.631 1.53091 -5.30346 0
M  V30 1435 H 134.108 2.25441 -3.76926 0
M  V30 1436 H 134.714 0.639865 -4.20459 0
M  V30 1437 N 133.029 1.57378 -0.0835403 0
M  V30 1438 C 134.259 1.97975 0.590713 0
M  V30 1439 C 134.667 0.961083 1.62972 0
M  V30 1440 O 134.01 -0.0590879 1.83605 0
M  V30 1441 C 134.072 3.34915 1.3066 0
M  V30 1442 C 133.736 4.55069 0.419698 0
M  V30 1443 C 134.733 5.18868 -0.32749 0
M  V30 1444 C 132.418 5.0114 0.341137 0
M  V30 1445 C 134.412 6.27098 -1.14134 0
M  V30 1446 C 132.099 6.0924 -0.476374 0
M  V30 1447 C 133.097 6.72083 -1.21627 0
M  V30 1448 O 132.785 7.781 -2.02028 0
M  V30 1449 H 132.517 0.655818 0.163947 0
M  V30 1450 H 135.071 2.04807 -0.156021 0
M  V30 1451 H 133.301 3.24733 2.09966 0
M  V30 1452 H 134.99 3.60037 1.87424 0
M  V30 1453 H 135.756 4.84211 -0.276459 0
M  V30 1454 H 131.635 4.51996 0.90668 0
M  V30 1455 H 135.179 6.7608 -1.71935 0
M  V30 1456 H 131.076 6.43329 -0.528927 0
M  V30 1457 H 131.844 7.95034 -1.94586 0
M  V30 1458 N 134.507 -0.190092 1.56449 0
M  V30 1459 C 135.918 -0.754312 1.70784 0
M  V30 1460 C 136.269 -1.83631 0.690951 0
M  V30 1461 O 135.394 -2.15868 -0.151604 0
M  V30 1462 C 135.989 -1.37503 3.09642 0
M  V30 1463 C 134.548 -1.88628 3.25725 0
M  V30 1464 C 133.695 -0.758098 2.66736 0
M  V30 1465 H 136.646 0.0350524 1.58661 0
M  V30 1466 H 136.667 -2.2445 3.0725 0
M  V30 1467 H 136.179 -0.587302 3.83631 0
M  V30 1468 H 134.28 -2.70103 2.56661 0
M  V30 1469 H 134.393 -2.04462 4.3328 0
M  V30 1470 H 132.757 -1.17369 2.26046 0
M  V30 1471 H 133.54 0.0174705 3.43296 0
M  V30 1472 N 135.985 -1.50799 -0.457987 0
M  V30 1473 C 137.233 -1.62121 -1.2067 0
M  V30 1474 C 137.554 -0.329793 -1.92191 0
M  V30 1475 O 136.824 0.653409 -1.84682 0
M  V30 1476 H 135.404 -0.597441 -0.448411 0
M  V30 1477 H 138.066 -1.87637 -0.527096 0
M  V30 1478 H 137.162 -2.43882 -1.94751 0
M  V30 1479 N 137.463 0.71206 -1.40597 0
M  V30 1480 C 138.712 1.46754 -1.38369 0
M  V30 1481 C 139.025 1.95598 0.0097839 0
M  V30 1482 O 140.231 2.71059 0.154677 0
M  V30 1483 C 138.687 2.65289 -2.43207 0
M  V30 1484 C 138.295 2.23301 -3.88382 0
M  V30 1485 C 140.039 3.43008 -2.50091 0
M  V30 1486 C 137.946 3.38696 -4.84808 0
M  V30 1487 H 136.876 0.55118 -0.514506 0
M  V30 1488 H 139.527 0.774616 -1.66349 0
M  V30 1489 H 137.909 3.36769 -2.08332 0
M  V30 1490 H 139.083 1.59218 -4.32419 0
M  V30 1491 H 137.398 1.58618 -3.85006 0
M  V30 1492 H 139.995 4.28881 -3.1932 0
M  V30 1493 H 140.338 3.87065 -1.53253 0
M  V30 1494 H 140.871 2.78574 -2.83974 0
M  V30 1495 H 137.61 2.99668 -5.82992 0
M  V30 1496 H 137.13 4.01683 -4.45433 0
M  V30 1497 H 138.809 4.04712 -5.04794 0
M  V30 1498 N 138.941 1.26152 0.944643 0
M  V30 1499 C 140.19 1.10883 1.68487 0
M  V30 1500 C 140.503 -0.348153 1.92477 0
M  V30 1501 O 141.709 -0.621459 2.64292 0
M  V30 1502 C 140.165 1.93624 3.03377 0
M  V30 1503 C 139.773 3.43875 2.87148 0
M  V30 1504 C 141.517 1.86954 3.81115 0
M  V30 1505 C 139.424 4.18875 4.1749 0
M  V30 1506 H 138.354 0.41135 0.631907 0
M  V30 1507 H 141.005 1.50433 1.05082 0
M  V30 1508 H 139.387 1.46904 3.67743 0
M  V30 1509 H 140.561 3.98338 2.31653 0
M  V30 1510 H 138.876 3.51744 2.22856 0
M  V30 1511 H 141.473 2.40275 4.77673 0
M  V30 1512 H 141.816 0.839518 4.07747 0
M  V30 1513 H 142.349 2.31477 3.23517 0
M  V30 1514 H 139.088 5.22332 3.96043 0
M  V30 1515 H 138.608 3.69193 4.72712 0
M  V30 1516 H 140.287 4.27134 4.85968 0
M  V30 1517 N 140.419 -1.14872 1.07899 0
M  V30 1518 C 141.366 -2.19791 0.704319 0
M  V30 1519 C 142.336 -1.63238 -0.306987 0
M  V30 1520 O 143.521 -1.8983 -0.192171 0
M  V30 1521 C 140.661 -3.44911 0.114244 0
M  V30 1522 C 139.774 -4.15637 1.1777 0
M  V30 1523 C 138.909 -5.28324 0.552037 0
M  V30 1524 C 137.948 -5.90875 1.59789 0
M  V30 1525 N 137.085 -6.95022 0.994404 0
M  V30 1526 H 141.925 -2.5119 1.60336 0
M  V30 1527 H 139.462 -1.23356 0.801352 0
M  V30 1528 H 141.42 -4.16477 -0.245544 0
M  V30 1529 H 140.05 -3.14011 -0.74813 0
M  V30 1530 H 139.102 -3.42512 1.65499 0
M  V30 1531 H 140.414 -4.5823 1.97046 0
M  V30 1532 H 139.568 -6.06538 0.1402 0
M  V30 1533 H 138.307 -4.86939 -0.272431 0
M  V30 1534 H 137.312 -5.11369 2.01945 0
M  V30 1535 H 138.537 -6.34337 2.42474 0
M  V30 1536 H 136.483 -6.55722 0.190939 0
M  V30 1537 H 136.4 -7.36073 1.72432 0
M  V30 1538 H 137.668 -7.77123 0.608253 0
M  V30 1539 N 141.898 -0.863906 -1.31812 0
M  V30 1540 C 142.808 -0.318461 -2.32428 0
M  V30 1541 C 143.824 0.568496 -1.64451 0
M  V30 1542 O 145 0.46666 -1.95919 0
M  V30 1543 C 142.065 0.476355 -3.43412 0
M  V30 1544 C 141.126 -0.43784 -4.27061 0
M  V30 1545 C 140.359 0.319138 -5.32745 0
M  V30 1546 O 140.582 1.54799 -5.48993 0
M  V30 1547 O 139.516 -0.319861 -6.01049 0
M  V30 1548 H 143.342 -1.15229 -2.80991 0
M  V30 1549 H 140.927 -0.627103 -1.35602 0
M  V30 1550 H 142.809 0.927156 -4.11074 0
M  V30 1551 H 141.484 1.28683 -2.97022 0
M  V30 1552 H 140.391 -0.937013 -3.62175 0
M  V30 1553 H 141.724 -1.21375 -4.77 0
M  V30 1554 N 143.376 1.44774 -0.622745 0
M  V30 1555 C 144.323 2.30635 0.0871679 0
M  V30 1556 C 145.293 1.42994 0.845097 0
M  V30 1557 O 146.478 1.71907 0.827812 0
M  V30 1558 C 143.618 3.28144 1.06844 0
M  V30 1559 C 142.731 4.30888 0.309809 0
M  V30 1560 C 141.866 5.15494 1.28215 0
M  V30 1561 C 140.905 6.09953 0.512198 0
M  V30 1562 N 140.042 6.87287 1.43458 0
M  V30 1563 H 144.882 2.90803 -0.650974 0
M  V30 1564 H 142.419 1.43286 -0.33281 0
M  V30 1565 H 144.377 3.83157 1.65066 0
M  V30 1566 H 143.007 2.69695 1.77382 0
M  V30 1567 H 142.059 3.78414 -0.388181 0
M  V30 1568 H 143.371 4.97955 -0.290254 0
M  V30 1569 H 142.525 5.74983 1.93596 0
M  V30 1570 H 141.264 4.48481 1.91614 0
M  V30 1571 H 140.269 5.49581 -0.155151 0
M  V30 1572 H 141.494 6.78999 -0.116958 0
M  V30 1573 H 139.44 6.2295 2.05594 0
M  V30 1574 H 139.357 7.50763 0.888335 0
M  V30 1575 H 140.625 7.51306 2.07749 0
M  V30 1576 N 144.854 0.36279 1.53368 0
M  V30 1577 C 145.817 -0.472679 2.24273 0
M  V30 1578 C 146.817 -1.012 1.24961 0
M  V30 1579 O 148.007 -0.898194 1.49259 0
M  V30 1580 C 145.139 -1.66039 2.97731 0
M  V30 1581 H 146.332 0.14773 2.99536 0
M  V30 1582 H 143.885 0.114434 1.55881 0
M  V30 1583 H 144.62 -2.31896 2.26704 0
M  V30 1584 H 144.405 -1.28066 3.70596 0
M  V30 1585 H 145.895 -2.25252 3.51641 0
M  V30 1586 N 146.332 -1.57332 0.0918853 0
M  V30 1587 C 147.242 -2.17368 -0.882505 0
M  V30 1588 C 148.258 -1.14226 -1.31257 0
M  V30 1589 O 149.434 -1.46582 -1.38115 0
M  V30 1590 C 146.499 -2.73962 -2.12476 0
M  V30 1591 C 145.56 -3.92048 -1.7492 0
M  V30 1592 C 144.793 -4.45933 -2.93223 0
M  V30 1593 O 145.016 -3.98764 -4.07852 0
M  V30 1594 O 143.95 -5.36999 -2.71875 0
M  V30 1595 H 147.776 -3.01031 -0.40172 0
M  V30 1596 H 145.361 -1.48813 -0.132291 0
M  V30 1597 H 147.243 -3.10147 -2.85283 0
M  V30 1598 H 145.918 -1.93347 -2.59613 0
M  V30 1599 H 144.825 -3.6068 -0.993025 0
M  V30 1600 H 146.158 -4.74017 -1.32548 0
M  V30 1601 N 147.81 0.181792 -1.56548 0
M  V30 1602 C 148.773 1.20894 -1.94724 0
M  V30 1603 C 149.773 1.37738 -0.829747 0
M  V30 1604 O 150.963 1.35323 -1.09697 0
M  V30 1605 C 148.095 2.57593 -2.23291 0
M  V30 1606 H 149.288 0.882275 -2.86629 0
M  V30 1607 H 146.841 0.423838 -1.50444 0
M  V30 1608 H 147.576 2.95291 -1.34067 0
M  V30 1609 H 147.361 2.46735 -3.04736 0
M  V30 1610 H 148.851 3.31637 -2.53785 0
M  V30 1611 N 149.288 1.51039 0.449983 0
M  V30 1612 C 150.22 1.67617 1.56324 0
M  V30 1613 C 151.233 0.557083 1.52972 0
M  V30 1614 O 152.422 0.830989 1.57977 0
M  V30 1615 C 149.522 1.66402 2.95235 0
M  V30 1616 C 148.695 2.9469 3.23229 0
M  V30 1617 C 147.754 2.85832 4.41799 0
M  V30 1618 O 146.78 3.59785 4.41071 0
M  V30 1619 N 147.982 2.00821 5.44657 0
M  V30 1620 H 150.747 2.63648 1.42512 0
M  V30 1621 H 148.308 1.48767 0.638737 0
M  V30 1622 H 150.3 1.58062 3.72557 0
M  V30 1623 H 148.87 0.780182 3.02708 0
M  V30 1624 H 148.09 3.16996 2.34323 0
M  V30 1625 H 149.378 3.79636 3.38754 0
M  V30 1626 H 148.776 1.40091 5.48079 0
M  V30 1627 H 147.333 1.98368 6.20881 0
M  V30 1628 N 150.766 -0.704594 1.40972 0
M  V30 1629 C 151.729 -1.80035 1.41845 0
M  V30 1630 C 152.729 -1.57774 0.310474 0
M  V30 1631 O 153.919 -1.64613 0.56992 0
M  V30 1632 C 151.051 -3.18284 1.22098 0
M  V30 1633 H 152.244 -1.80658 2.3938 0
M  V30 1634 H 149.797 -0.911329 1.26982 0
M  V30 1635 H 150.532 -3.23306 0.253672 0
M  V30 1636 H 150.317 -3.35843 2.02366 0
M  V30 1637 H 151.807 -3.98289 1.25522 0
M  V30 1638 N 152.244 -1.26651 -0.937939 0
M  V30 1639 C 153.176 -1.04283 -2.04102 0
M  V30 1640 C 154.189 -0.00221014 -1.628 0
M  V30 1641 O 155.378 -0.242645 -1.76843 0
M  V30 1642 C 152.478 -0.557846 -3.34277 0
M  V30 1643 C 151.651 -1.66843 -4.04329 0
M  V30 1644 C 150.71 -1.18095 -5.12777 0
M  V30 1645 O 149.736 -1.87865 -5.37304 0
M  V30 1646 N 150.938 -0.0311006 -5.80492 0
M  V30 1647 H 153.703 -1.9927 -2.23856 0
M  V30 1648 H 151.264 -1.1808 -1.10764 0
M  V30 1649 H 153.256 -0.215836 -4.04124 0
M  V30 1650 H 151.826 0.298523 -3.11171 0
M  V30 1651 H 151.046 -2.18123 -3.28353 0
M  V30 1652 H 152.334 -2.41408 -4.47883 0
M  V30 1653 H 151.732 0.551486 -5.63005 0
M  V30 1654 H 150.289 0.251809 -6.51313 0
M  V30 1655 N 153.722 1.14298 -1.08507 0
M  V30 1656 C 154.952 1.88945 -0.835663 0
M  V30 1657 C 155.36 1.78894 0.615928 0
M  V30 1658 O 154.703 1.1468 1.43506 0
M  V30 1659 C 154.765 3.39585 -1.17994 0
M  V30 1660 C 154.429 3.7342 -2.63451 0
M  V30 1661 C 155.426 3.73454 -3.61702 0
M  V30 1662 C 153.111 4.03368 -2.99332 0
M  V30 1663 C 155.105 4.02961 -4.93864 0
M  V30 1664 C 152.792 4.32538 -4.31687 0
M  V30 1665 C 153.79 4.32318 -5.28763 0
M  V30 1666 O 153.478 4.6078 -6.58739 0
M  V30 1667 H 153.21 0.605307 -0.300965 0
M  V30 1668 H 155.764 1.45673 -1.44806 0
M  V30 1669 H 153.994 3.83315 -0.51055 0
M  V30 1670 H 155.683 3.9554 -0.911182 0
M  V30 1671 H 156.449 3.50403 -3.35325 0
M  V30 1672 H 152.328 4.02692 -2.24411 0
M  V30 1673 H 155.872 4.02704 -5.69627 0
M  V30 1674 H 151.769 4.55059 -4.57812 0
M  V30 1675 H 152.537 4.78492 -6.64069 0
M  V30 1676 N 155.201 0.870884 1.31352 0
M  V30 1677 C 156.426 0.495957 2.01383 0
M  V30 1678 C 156.851 -0.904324 1.64935 0
M  V30 1679 O 156.209 -1.59687 0.858466 0
M  V30 1680 C 156.257 0.661433 3.54482 0
M  V30 1681 O 155.361 -0.298851 4.11316 0
M  V30 1682 H 154.702 0.197158 0.634054 0
M  V30 1683 H 157.232 1.17455 1.67527 0
M  V30 1684 H 157.242 0.555072 4.04207 0
M  V30 1685 H 155.917 1.68246 3.8035 0
M  V30 1686 H 154.494 -0.147368 3.72609 0
M  V30 1687 N 156.679 -1.44442 0.630414 0
M  V30 1688 C 157.642 -2.29107 -0.0652523 0
M  V30 1689 C 158.642 -1.41002 -0.772995 0
M  V30 1690 O 159.832 -1.62881 -0.617692 0
M  V30 1691 C 156.964 -3.22564 -1.10296 0
M  V30 1692 H 158.157 -2.92103 0.679401 0
M  V30 1693 H 155.71 -1.51343 0.390517 0
M  V30 1694 H 156.445 -2.64416 -1.87762 0
M  V30 1695 H 156.23 -3.87491 -0.59941 0
M  V30 1696 H 157.72 -3.86167 -1.5895 0
M  V30 1697 N 158.157 -0.370918 -1.53173 0
M  V30 1698 C 159.12 0.460778 -2.24521 0
M  V30 1699 C 160.12 1.00536 -1.25496 0
M  V30 1700 O 161.31 0.890266 -1.49733 0
M  V30 1701 C 158.442 1.64457 -2.98608 0
M  V30 1702 H 159.635 -0.163613 -2.99453 0
M  V30 1703 H 157.188 -0.122699 -1.55818 0
M  V30 1704 H 157.923 2.30691 -2.2793 0
M  V30 1705 H 157.708 1.26099 -3.7127 0
M  V30 1706 H 159.198 2.23384 -3.5283 0
M  V30 1707 N 159.635 1.57281 -0.100228 0
M  V30 1708 C 160.881 1.94826 0.563101 0
M  V30 1709 C 161.214 0.982475 1.67514 0
M  V30 1710 O 160.489 0.0164069 1.94493 0
M  V30 1711 C 160.772 3.42453 1.11346 0
M  V30 1712 C 160.625 4.498 0.00612081 0
M  V30 1713 C 161.944 3.91506 2.01024 0
M  V30 1714 H 159.063 0.708428 0.203221 0
M  V30 1715 H 161.705 1.8922 -0.171979 0
M  V30 1716 H 159.855 3.47361 1.7399 0
M  V30 1717 H 161.527 4.57 -0.628357 0
M  V30 1718 H 159.77 4.28756 -0.659581 0
M  V30 1719 H 160.441 5.50306 0.432109 0
M  V30 1720 H 162.917 3.88784 1.48278 0
M  V30 1721 H 161.793 4.95358 2.36457 0
M  V30 1722 H 162.054 3.31099 2.92961 0
M  V30 1723 N 161.113 -0.173488 1.56642 0
M  V30 1724 C 162.076 -1.19859 1.95362 0
M  V30 1725 C 163.076 -1.37296 0.83704 0
M  V30 1726 O 164.266 -1.34739 1.10413 0
M  V30 1727 C 161.398 -2.56405 2.24654 0
M  V30 1728 H 162.591 -0.867062 2.87092 0
M  V30 1729 H 160.144 -0.415853 1.50666 0
M  V30 1730 H 160.879 -2.94576 1.35631 0
M  V30 1731 H 160.664 -2.45115 3.06041 0
M  V30 1732 H 162.154 -3.30287 2.5554 0
M  V30 1733 N 162.591 -1.51276 -0.441967 0
M  V30 1734 C 163.538 -1.72256 -1.53612 0
M  V30 1735 C 164.508 -0.564164 -1.56225 0
M  V30 1736 O 165.693 -0.798074 -1.73307 0
M  V30 1737 C 162.833 -1.84932 -2.91366 0
M  V30 1738 C 161.946 -3.12459 -2.98317 0
M  V30 1739 C 161.081 -3.15758 -4.27166 0
M  V30 1740 C 160.12 -4.37619 -4.27967 0
M  V30 1741 N 159.257 -4.38493 -5.48333 0
M  V30 1742 H 164.097 -2.65654 -1.35026 0
M  V30 1743 H 161.634 -1.31662 -0.656009 0
M  V30 1744 H 163.592 -1.90263 -3.7129 0
M  V30 1745 H 162.222 -0.949461 -3.08521 0
M  V30 1746 H 161.274 -3.1646 -2.11086 0
M  V30 1747 H 162.586 -4.02382 -2.94771 0
M  V30 1748 H 161.74 -3.19979 -5.15459 0
M  V30 1749 H 160.479 -2.23715 -4.33362 0
M  V30 1750 H 159.484 -4.33579 -3.38067 0
M  V30 1751 H 160.709 -5.30921 -4.23438 0
M  V30 1752 H 158.655 -3.49318 -5.55259 0
M  V30 1753 H 158.572 -5.22219 -5.46647 0
M  V30 1754 H 159.84 -4.469 -6.38671 0
M  V30 1755 N 164.069 0.697108 -1.41344 0
M  V30 1756 C 165.317 1.45426 -1.40341 0
M  V30 1757 C 165.638 1.94996 -0.0128787 0
M  V30 1758 O 164.908 1.71599 0.945027 0
M  V30 1759 H 163.488 0.539594 -0.516573 0
M  V30 1760 H 166.15 0.825201 -1.76569 0
M  V30 1761 H 165.246 2.31817 -2.08967 0
M  V30 1762 N 165.547 1.27147 0.931209 0
M  V30 1763 C 166.494 1.09568 2.03134 0
M  V30 1764 C 167.464 -0.00222433 1.661 0
M  V30 1765 O 168.649 0.159439 1.90133 0
M  V30 1766 C 165.789 0.745231 3.36957 0
M  V30 1767 C 164.902 1.92041 3.86968 0
M  V30 1768 C 164.037 1.51216 5.09222 0
M  V30 1769 C 163.076 2.65504 5.5152 0
M  V30 1770 N 162.213 2.25291 6.64972 0
M  V30 1771 H 167.053 2.03708 2.17502 0
M  V30 1772 H 164.59 1.01411 1.06556 0
M  V30 1773 H 166.548 0.522878 4.1391 0
M  V30 1774 H 165.178 -0.159202 3.22407 0
M  V30 1775 H 164.23 2.25541 3.06326 0
M  V30 1776 H 165.542 2.77787 4.1429 0
M  V30 1777 H 164.696 1.25084 5.93666 0
M  V30 1778 H 163.435 0.625749 4.83669 0
M  V30 1779 H 162.44 2.92354 4.65628 0
M  V30 1780 H 163.665 3.54761 5.7907 0
M  V30 1781 H 161.611 1.39098 6.41083 0
M  V30 1782 H 161.528 3.04577 6.91931 0
M  V30 1783 H 162.796 2.02398 7.52765 0
M  V30 1784 N 167.025 -1.13721 1.09112 0
M  V30 1785 C 168.25 -1.89314 0.847053 0
M  V30 1786 C 168.675 -1.78416 -0.595774 0
M  V30 1787 O 168.033 -1.12942 -1.41823 0
M  V30 1788 C 168.081 -3.3701 1.28284 0
M  V30 1789 O 167.185 -4.10054 0.439267 0
M  V30 1790 H 166.526 -0.588745 0.307044 0
M  V30 1791 H 169.056 -1.43902 1.45442 0
M  V30 1792 H 169.066 -3.87834 1.26683 0
M  V30 1793 H 167.741 -3.4426 2.33363 0
M  V30 1794 H 166.318 -3.69266 0.519312 0
M  V30 1795 N 168.503 -0.877838 -1.30888 0
M  V30 1796 C 169.466 -0.344265 -2.266 0
M  V30 1797 C 170.466 0.50922 -1.52524 0
M  V30 1798 O 171.656 0.317398 -1.71284 0
M  V30 1799 C 168.788 0.510198 -3.37061 0
M  V30 1800 H 169.981 -1.1893 -2.7531 0
M  V30 1801 H 167.534 -0.654088 -1.41956 0
M  V30 1802 H 168.269 1.37612 -2.93655 0
M  V30 1803 H 168.054 -0.101047 -3.9197 0
M  V30 1804 H 169.544 0.875537 -4.08319 0
M  V30 1805 N 169.982 1.44106 -0.638065 0
M  V30 1806 C 171.23 2.01579 -0.145043 0
M  V30 1807 C 171.551 1.50496 1.24 0
M  V30 1808 O 170.821 0.711374 1.82527 0
M  V30 1809 H 169.401 0.745282 -0.05063 0
M  V30 1810 H 172.063 1.76516 -0.826327 0
M  V30 1811 H 171.159 3.11877 -0.118039 0
M  V30 1812 N 171.46 0.379036 1.52974 0
M  V30 1813 C 172.39 -0.452706 2.29069 0
M  V30 1814 C 173.371 -1.07237 1.32039 0
M  V30 1815 O 174.556 -1.08708 1.60923 0
M  V30 1816 C 171.686 -1.5856 3.08992 0
M  V30 1817 C 170.64 -1.0925 4.13822 0
M  V30 1818 C 169.966 -2.31668 4.81907 0
M  V30 1819 C 171.266 -0.167702 5.22031 0
M  V30 1820 H 172.96 0.182181 2.98845 0
M  V30 1821 H 170.506 0.0890592 1.43724 0
M  V30 1822 H 172.459 -2.1742 3.6098 0
M  V30 1823 H 171.183 -2.24792 2.36931 0
M  V30 1824 H 169.842 -0.526494 3.628 0
M  V30 1825 H 169.49 -2.96386 4.06404 0
M  V30 1826 H 169.19 -1.9934 5.52754 0
M  V30 1827 H 170.714 -2.91189 5.36695 0
M  V30 1828 H 172.128 -0.664186 5.6944 0
M  V30 1829 H 170.525 0.0653265 6.00064 0
M  V30 1830 H 171.595 0.786347 4.78482 0
M  V30 1831 N 172.938 -1.57226 0.108567 0
M  V30 1832 C 174.184 -1.95121 -0.552761 0
M  V30 1833 C 174.517 -0.991345 -1.66991 0
M  V30 1834 O 173.792 -0.0267211 -1.94482 0
M  V30 1835 C 174.075 -3.43039 -1.09528 0
M  V30 1836 C 173.928 -4.49797 0.0177332 0
M  V30 1837 C 175.247 -3.92567 -1.98945 0
M  V30 1838 H 172.366 -0.709496 -0.199461 0
M  V30 1839 H 175.008 -1.89126 0.182011 0
M  V30 1840 H 173.158 -3.48279 -1.72146 0
M  V30 1841 H 174.83 -4.56661 0.652584 0
M  V30 1842 H 173.073 -4.284 0.682309 0
M  V30 1843 H 173.744 -5.50528 -0.402919 0
M  V30 1844 H 176.22 -3.89565 -1.46214 0
M  V30 1845 H 175.096 -4.96605 -2.33827 0
M  V30 1846 H 175.357 -3.32648 -2.91201 0
M  V30 1847 N 174.416 0.165178 -1.56732 0
M  V30 1848 C 175.363 1.2044 -1.96883 0
M  V30 1849 C 176.333 1.43664 -0.833657 0
M  V30 1850 O 177.518 1.56302 -1.09427 0
M  V30 1851 C 174.658 2.53727 -2.33916 0
M  V30 1852 C 173.771 2.3783 -3.6064 0
M  V30 1853 C 172.906 3.64026 -3.86857 0
M  V30 1854 C 171.945 3.43088 -5.06909 0
M  V30 1855 N 171.082 4.61369 -5.29229 0
M  V30 1856 H 175.922 0.854996 -2.85471 0
M  V30 1857 H 173.459 0.41076 -1.41249 0
M  V30 1858 H 175.417 3.31419 -2.53411 0
M  V30 1859 H 174.047 2.8665 -1.48431 0
M  V30 1860 H 173.099 1.51282 -3.49024 0
M  V30 1861 H 174.411 2.18308 -4.4849 0
M  V30 1862 H 173.565 4.50152 -4.06753 0
M  V30 1863 H 172.304 3.86533 -2.97394 0
M  V30 1864 H 171.309 2.55349 -4.86906 0
M  V30 1865 H 172.534 3.21997 -5.97909 0
M  V30 1866 H 170.48 4.84084 -4.42718 0
M  V30 1867 H 170.397 4.44783 -6.11313 0
M  V30 1868 H 171.665 5.48761 -5.53608 0
M  V30 1869 N 175.894 1.51508 0.433938 0
M  V30 1870 C 176.857 1.72473 1.50949 0
M  V30 1871 C 177.857 0.594725 1.49398 0
M  V30 1872 O 179.047 0.862315 1.5136 0
M  V30 1873 C 176.179 1.78431 2.90474 0
M  V30 1874 H 177.372 2.68467 1.33662 0
M  V30 1875 H 174.925 1.41549 0.662836 0
M  V30 1876 H 175.66 0.842645 3.13161 0
M  V30 1877 H 175.445 2.60558 2.93005 0
M  V30 1878 H 176.935 1.96479 3.68491 0
M  V30 1879 N 177.372 -0.689602 1.41712 0
M  V30 1880 C 178.6 -1.47827 1.44758 0
M  V30 1881 C 179.015 -1.88721 0.0545703 0
M  V30 1882 O 178.372 -1.57176 -0.927463 0
M  V30 1883 C 178.423 -2.73698 2.3616 0
M  V30 1884 O 178.144 -2.34524 3.7004 0
M  V30 1885 C 179.645 -3.67389 2.48072 0
M  V30 1886 H 176.865 -0.455357 0.49284 0
M  V30 1887 H 179.409 -0.848574 1.86063 0
M  V30 1888 H 177.564 -3.32891 1.98148 0
M  V30 1889 H 177.978 -3.15701 4.18847 0
M  V30 1890 H 179.452 -4.52475 3.16181 0
M  V30 1891 H 179.929 -4.12284 1.51388 0
M  V30 1892 H 180.535 -3.14097 2.86746 0
M  V30 1893 N 178.85 -1.27639 -0.924453 0
M  V30 1894 C 180.098 -1.13941 -1.66918 0
M  V30 1895 C 180.419 0.314589 -1.92446 0
M  V30 1896 O 179.689 1.21964 -1.53303 0
M  V30 1897 H 178.269 -0.418678 -0.618642 0
M  V30 1898 H 180.931 -1.60213 -1.10985 0
M  V30 1899 H 180.027 -1.67094 -2.63602 0
M  V30 1900 N 180.328 1.1314 -1.09713 0
M  V30 1901 C 181.744 1.36477 -0.827423 0
M  V30 1902 C 181.944 1.93654 0.556817 0
M  V30 1903 O 181 2.15791 1.31112 0
M  V30 1904 C 182.313 2.31334 -1.92106 0
M  V30 1905 C 183.861 2.44943 -1.94864 0
M  V30 1906 C 184.336 3.4311 -3.0338 0
M  V30 1907 N 185.827 3.50662 -3.02639 0
M  V30 1908 C 186.562 4.2651 -3.83246 0
M  V30 1909 N 186.058 5.05485 -4.73768 0
M  V30 1910 N 187.851 4.2184 -3.71493 0
M  V30 1911 H 180.002 0.743807 -1.9895 0
M  V30 1912 H 182.265 0.389823 -0.864143 0
M  V30 1913 H 181.971 1.96483 -2.91698 0
M  V30 1914 H 181.845 3.31381 -1.80184 0
M  V30 1915 H 184.232 2.79079 -0.959099 0
M  V30 1916 H 184.313 1.4481 -2.10864 0
M  V30 1917 H 183.957 3.09704 -4.02549 0
M  V30 1918 H 183.887 4.43055 -2.84622 0
M  V30 1919 H 186.378 2.94315 -2.37039 0
M  V30 1920 H 186.691 5.60675 -5.3185 0
M  V30 1921 H 185.036 5.04708 -4.77802 0
M  V30 1922 H 188.227 3.5922 -3.00131 0
M  V30 1923 H 188.4 4.80697 -4.3455 0
M  V30 1924 N 181.806 0.884767 1.30421 0
M  V30 1925 C 182.754 0.340869 2.30089 0
M  V30 1926 C 183.748 -0.55201 1.60154 0
M  V30 1927 O 184.954 -0.436467 1.74628 0
M  V30 1928 H 181.329 0.0915739 0.746404 0
M  V30 1929 H 183.3 1.19513 2.73421 0
M  V30 1930 C 182.049 -0.429779 3.45034 0
M  V30 1931 H 181.372 0.248024 3.9903 0
M  V30 1932 H 182.812 -0.775445 4.16849 0
M  V30 1933 C 181.271 -1.62677 2.95022 0
M  V30 1934 O 181.801 -2.72614 2.95033 0
M  V30 1935 N 180.007 -1.46387 2.51036 0
M  V30 1936 H 179.554 -0.569506 2.51226 0
M  V30 1937 H 179.512 -2.26612 2.17932 0
M  V30 1938 N 183.284 -1.43765 0.645699 0
M  V30 1939 C 184.217 -2.2798 -0.100072 0
M  V30 1940 C 185.195 -1.39391 -0.837194 0
M  V30 1941 O 186.379 -1.68833 -0.838306 0
M  V30 1942 C 183.506 -3.18643 -1.14823 0
M  V30 1943 C 182.552 -4.2344 -0.510009 0
M  V30 1944 S 183.385 -5.30761 0.710824 0
M  V30 1945 C 184.541 -6.24992 -0.33699 0
M  V30 1946 H 184.774 -2.90884 0.614322 0
M  V30 1947 H 182.307 -1.48166 0.434304 0
M  V30 1948 H 184.265 -3.71424 -1.74799 0
M  V30 1949 H 182.926 -2.54932 -1.8349 0
M  V30 1950 H 182.119 -4.86948 -1.29991 0
M  V30 1951 H 181.721 -3.73997 0.0154577 0
M  V30 1952 H 184.013 -6.66691 -1.20537 0
M  V30 1953 H 184.956 -7.07612 0.262879 0
M  V30 1954 H 185.364 -5.60517 -0.669425 0
M  V30 1955 N 184.763 -0.387143 -1.52771 0
M  V30 1956 C 185.673 0.456442 -2.30117 0
M  V30 1957 C 186.689 1.07342 -1.36944 0
M  V30 1958 O 187.865 1.07971 -1.70013 0
M  V30 1959 C 184.93 1.56957 -3.09136 0
M  V30 1960 C 183.991 0.977916 -4.18014 0
M  V30 1961 C 183.224 2.038 -4.93256 0
M  V30 1962 O 183.447 3.25271 -4.68567 0
M  V30 1963 O 182.381 1.6565 -5.78657 0
M  V30 1964 H 186.207 -0.17359 -3.03203 0
M  V30 1965 H 183.792 -0.150919 -1.48636 0
M  V30 1966 H 185.674 2.21628 -3.58412 0
M  V30 1967 H 184.349 2.18461 -2.38865 0
M  V30 1968 H 183.256 0.294525 -3.72939 0
M  V30 1969 H 184.589 0.407128 -4.90513 0
M  V30 1970 N 186.241 1.57166 -0.116904 0
M  V30 1971 C 187.173 2.12271 0.864507 0
M  V30 1972 C 188.186 1.06494 1.23138 0
M  V30 1973 O 189.375 1.33873 1.18069 0
M  V30 1974 C 186.475 2.60564 2.16702 0
M  V30 1975 C 185.648 3.90416 1.97216 0
M  V30 1976 C 184.707 4.24329 3.11178 0
M  V30 1977 O 183.733 4.93182 2.84184 0
M  V30 1978 N 184.935 3.8148 4.37554 0
M  V30 1979 H 187.7 2.97102 0.393726 0
M  V30 1980 H 185.261 1.61759 0.0675805 0
M  V30 1981 H 187.253 2.80282 2.91932 0
M  V30 1982 H 185.823 1.80623 2.55135 0
M  V30 1983 H 185.043 3.79627 1.06192 0
M  V30 1984 H 186.331 4.75327 1.81499 0
M  V30 1985 H 185.729 3.25943 4.62361 0
M  V30 1986 H 184.286 4.06311 5.09661 0
M  V30 1987 N 187.719 -0.156864 1.56817 0
M  V30 1988 C 188.966 -0.871125 1.82805 0
M  V30 1989 C 189.294 -1.81611 0.696262 0
M  V30 1990 O 188.549 -1.93141 -0.315459 0
M  V30 1991 C 188.848 -1.68737 3.1506 0
M  V30 1992 C 188.514 -0.890045 4.42028 0
M  V30 1993 C 187.176 -0.670042 4.76512 0
M  V30 1994 C 189.528 -0.331769 5.20143 0
M  V30 1995 C 186.856 0.119104 5.86579 0
M  V30 1996 C 189.208 0.444365 6.31037 0
M  V30 1997 C 187.872 0.675035 6.64078 0
M  V30 1998 H 187.142 -0.318767 0.668931 0
M  V30 1999 H 189.789 -0.135274 1.91022 0
M  V30 2000 H 188.094 -2.49304 3.0225 0
M  V30 2001 H 189.791 -2.24331 3.3238 0
M  V30 2002 H 186.381 -1.07157 4.14988 0
M  V30 2003 H 190.565 -0.489043 4.93885 0
M  V30 2004 H 185.821 0.307417 6.10627 0
M  V30 2005 H 189.995 0.884139 6.90765 0
M  V30 2006 H 187.622 1.28839 7.49203 0
M  V30 2007 N 189.197 -1.51736 -0.425897 0
M  V30 2008 C 190.129 -1.70083 -1.53638 0
M  V30 2009 C 191.142 -0.581349 -1.52066 0
M  V30 2010 O 192.331 -0.856017 -1.56635 0
M  V30 2011 C 189.431 -1.71078 -2.9255 0
M  V30 2012 C 188.604 -2.99795 -3.185 0
M  V30 2013 C 187.663 -2.92825 -4.37196 0
M  V30 2014 O 186.689 -3.66756 -4.35291 0
M  V30 2015 N 187.891 -2.0946 -5.41393 0
M  V30 2016 H 190.656 -2.65882 -1.383 0
M  V30 2017 H 188.217 -1.49765 -0.614988 0
M  V30 2018 H 190.209 -1.63969 -3.69995 0
M  V30 2019 H 188.779 -0.828242 -3.01428 0
M  V30 2020 H 187.999 -3.20684 -2.2925 0
M  V30 2021 H 189.287 -3.84977 -3.32671 0
M  V30 2022 H 188.685 -1.48792 -5.45781 0
M  V30 2023 H 187.242 -2.08221 -6.17647 0
M  V30 2024 N 190.675 0.682077 -1.42076 0
M  V30 2025 C 191.921 1.44428 -1.42367 0
M  V30 2026 C 192.254 1.94164 -0.0373056 0
M  V30 2027 O 191.529 1.70429 0.937239 0
M  V30 2028 C 191.812 2.64654 -2.44194 0
M  V30 2029 C 191.665 2.20596 -3.91991 0
M  V30 2030 C 192.984 3.66865 -2.431 0
M  V30 2031 H 190.103 0.523834 -0.518428 0
M  V30 2032 H 192.745 0.77576 -1.73442 0
M  V30 2033 H 190.895 3.2169 -2.17826 0
M  V30 2034 H 192.567 1.68783 -4.29313 0
M  V30 2035 H 190.81 1.52242 -4.06208 0
M  V30 2036 H 191.481 3.06921 -4.58807 0
M  V30 2037 H 193.957 3.19531 -2.66532 0
M  V30 2038 H 192.833 4.48577 -3.16339 0
M  V30 2039 H 193.094 4.17493 -1.45437 0
M  V30 2040 N 192.153 1.28127 0.917671 0
M  V30 2041 C 193.378 1.18007 1.70555 0
M  V30 2042 C 193.803 -0.258257 1.86319 0
M  V30 2043 O 193.161 -1.1869 1.37049 0
M  V30 2044 C 193.209 1.87948 3.07746 0
M  V30 2045 O 192.313 1.18427 3.9503 0
M  V30 2046 H 191.654 0.409867 0.522403 0
M  V30 2047 H 194.184 1.69379 1.1477 0
M  V30 2048 H 194.194 1.95701 3.58001 0
M  V30 2049 H 192.869 2.92573 2.95591 0
M  V30 2050 H 191.446 1.18811 3.53466 0
M  V30 2051 N 193.631 -1.12557 1.10312 0
M  V30 2052 C 194.877 -1.84311 0.846011 0
M  V30 2053 C 195.21 -1.83805 -0.626859 0
M  V30 2054 O 194.485 -1.28268 -1.46211 0
M  V30 2055 C 194.768 -3.32048 1.39341 0
M  V30 2056 C 194.621 -3.41016 2.93305 0
M  V30 2057 C 195.94 -4.27764 1.03468 0
M  V30 2058 H 193.059 -0.669192 0.30879 0
M  V30 2059 H 195.701 -1.32057 1.36605 0
M  V30 2060 H 193.851 -3.76678 0.951087 0
M  V30 2061 H 195.523 -3.05031 3.46055 0
M  V30 2062 H 193.766 -2.81603 3.29973 0
M  V30 2063 H 194.437 -4.44948 3.26689 0
M  V30 2064 H 196.913 -3.91253 1.41633 0
M  V30 2065 H 195.789 -5.29549 1.44463 0
M  V30 2066 H 196.05 -4.42064 -0.0560404 0
M  V30 2067 N 195.109 -0.891671 -1.2995 0
M  V30 2068 C 196.334 -0.527932 -2.00568 0
M  V30 2069 C 196.759 0.877969 -1.66353 0
M  V30 2070 O 196.117 1.58301 -0.883762 0
M  V30 2071 C 196.165 -0.717745 -3.53385 0
M  V30 2072 O 195.269 0.233376 -4.11739 0
M  V30 2073 H 194.61 -0.20722 -0.630837 0
M  V30 2074 H 197.14 -1.20105 -1.65638 0
M  V30 2075 H 197.15 -0.619307 -4.03272 0
M  V30 2076 H 195.825 -1.74276 -3.77625 0
M  V30 2077 H 194.402 0.0880706 -3.72796 0
M  V30 2078 N 196.587 1.43421 -0.653314 0
M  V30 2079 C 197.833 2.02111 -0.166992 0
M  V30 2080 C 198.166 1.51423 1.21592 0
M  V30 2081 O 197.441 0.707389 1.8118 0
M  V30 2082 C 197.724 3.5966 -0.177948 0
M  V30 2083 C 197.577 4.20579 -1.59478 0
M  V30 2084 C 198.896 4.37413 0.4856 0
M  V30 2085 H 196.015 0.734374 -0.0621557 0
M  V30 2086 H 198.657 1.70717 -0.834016 0
M  V30 2087 H 196.807 3.86537 0.390032 0
M  V30 2088 H 198.479 4.04732 -2.21336 0
M  V30 2089 H 196.722 3.77226 -2.14204 0
M  V30 2090 H 197.393 5.29665 -1.5543 0
M  V30 2091 H 199.869 4.161 0.00234528 0
M  V30 2092 H 198.745 5.47075 0.447207 0
M  V30 2093 H 199.006 4.13672 1.55974 0
M  V30 2094 N 198.065 0.39524 1.52563 0
M  V30 2095 C 199.028 -0.425001 2.25225 0
M  V30 2096 C 200.028 -0.985266 1.27079 0
M  V30 2097 O 201.218 -0.866332 1.5113 0
M  V30 2098 C 198.35 -1.59686 3.01186 0
M  V30 2099 H 199.543 0.211233 2.99155 0
M  V30 2100 H 197.096 0.147472 1.55603 0
M  V30 2101 H 197.831 -2.27035 2.31572 0
M  V30 2102 H 197.616 -1.20176 3.73229 0
M  V30 2103 H 199.106 -2.17743 3.5634 0
M  V30 2104 N 199.544 -1.57102 0.125237 0
M  V30 2105 C 200.955 -1.82384 -0.399142 0
M  V30 2106 C 201.306 -1.04276 -1.66195 0
M  V30 2107 O 200.431 -0.281269 -2.14564 0
M  V30 2108 C 201.026 -3.30821 -0.730932 0
M  V30 2109 C 199.585 -3.56762 -1.19992 0
M  V30 2110 C 198.732 -2.7649 -0.211792 0
M  V30 2111 H 201.683 -1.54786 0.350277 0
M  V30 2112 H 201.704 -3.4579 -1.58775 0
M  V30 2113 H 201.216 -3.87643 0.188345 0
M  V30 2114 H 199.317 -3.05305 -2.13588 0
M  V30 2115 H 199.43 -4.65317 -1.14093 0
M  V30 2116 H 197.794 -2.4489 -0.700085 0
M  V30 2117 H 198.577 -3.36073 0.700691 0
M  V30 2118 N 201.022 0.148545 -1.56898 0
M  V30 2119 C 201.97 1.20265 -1.99096 0
M  V30 2120 C 202.964 1.44559 -0.883123 0
M  V30 2121 O 204.17 1.4487 -1.0683 0
M  V30 2122 H 200.545 0.404786 -0.63376 0
M  V30 2123 H 202.516 0.82004 -2.86911 0
M  V30 2124 C 201.265 2.52886 -2.3863 0
M  V30 2125 H 200.588 2.35021 -3.23427 0
M  V30 2126 H 202.028 3.25274 -2.7198 0
M  V30 2127 C 200.487 3.13315 -1.23837 0
M  V30 2128 O 201.017 3.98077 -0.538268 0
M  V30 2129 N 199.223 2.72742 -1.00301 0
M  V30 2130 H 198.77 2.03912 -1.5741 0
M  V30 2131 H 198.728 3.13507 -0.236838 0
M  V30 2132 N 202.5 1.5196 0.417844 0
M  V30 2133 C 203.463 1.74065 1.49111 0
M  V30 2134 C 204.463 0.610537 1.48758 0
M  V30 2135 O 205.653 0.87832 1.50437 0
M  V30 2136 C 202.785 1.81502 2.88565 0
M  V30 2137 H 203.978 2.69869 1.30807 0
M  V30 2138 H 201.531 1.42244 0.647785 0
M  V30 2139 H 202.266 0.875813 3.1225 0
M  V30 2140 H 202.051 2.63651 2.90225 0
M  V30 2141 H 203.541 2.00376 3.66387 0
M  V30 2142 N 203.978 -0.674533 1.42435 0
M  V30 2143 C 204.925 -1.78807 1.45934 0
M  V30 2144 C 205.895 -1.63157 0.311271 0
M  V30 2145 O 207.08 -1.83707 0.515383 0
M  V30 2146 C 204.22 -3.16839 1.36773 0
M  V30 2147 C 203.333 -3.43774 2.61617 0
M  V30 2148 C 202.468 -4.71536 2.44597 0
M  V30 2149 C 201.507 -4.91505 3.64814 0
M  V30 2150 N 200.644 -6.10508 3.46734 0
M  V30 2151 H 205.484 -1.75151 2.41093 0
M  V30 2152 H 203.021 -0.85504 1.19697 0
M  V30 2153 H 204.979 -3.96606 1.29459 0
M  V30 2154 H 203.609 -3.19619 0.452089 0
M  V30 2155 H 202.661 -2.58259 2.79297 0
M  V30 2156 H 203.973 -3.54423 3.50978 0
M  V30 2157 H 203.127 -5.59393 2.3487 0
M  V30 2158 H 201.866 -4.6317 1.52726 0
M  V30 2159 H 200.871 -4.0209 3.74972 0
M  V30 2160 H 202.096 -5.01716 4.57665 0
M  V30 2161 H 200.042 -6.03315 2.5758 0
M  V30 2162 H 199.959 -6.2202 4.29682 0
M  V30 2163 H 201.227 -7.01044 3.40819 0
M  V30 2164 N 205.456 -1.28612 -0.910864 0
M  V30 2165 C 206.705 -1.15311 -1.65488 0
M  V30 2166 C 207.018 0.296999 -1.93332 0
M  V30 2167 O 208.224 0.551168 -2.65847 0
M  V30 2168 C 206.68 -2.01599 -2.98137 0
M  V30 2169 C 206.288 -3.51367 -2.7793 0
M  V30 2170 C 208.032 -1.96993 -3.76024 0
M  V30 2171 C 205.939 -4.29797 -4.06237 0
M  V30 2172 H 204.869 -0.42796 -0.620779 0
M  V30 2173 H 207.52 -1.53166 -1.01057 0
M  V30 2174 H 205.902 -1.56603 -3.63719 0
M  V30 2175 H 207.076 -4.0434 -2.21011 0
M  V30 2176 H 205.391 -3.57529 -2.13452 0
M  V30 2177 H 207.988 -2.52856 -4.71135 0
M  V30 2178 H 208.331 -0.94733 -4.05378 0
M  V30 2179 H 208.864 -2.39973 -3.17266 0
M  V30 2180 H 205.603 -5.32648 -3.82055 0
M  V30 2181 H 205.123 -3.81596 -4.62757 0
M  V30 2182 H 206.802 -4.39869 -4.74473 0
M  V30 2183 N 206.934 1.1197 -1.10907 0
M  V30 2184 C 208.162 1.87402 -0.876824 0
M  V30 2185 C 208.577 1.79894 0.573025 0
M  V30 2186 O 207.934 1.17629 1.39534 0
M  V30 2187 C 207.985 3.36428 -1.32282 0
M  V30 2188 O 207.706 3.43765 -2.71582 0
M  V30 2189 C 209.207 4.28783 -1.12518 0
M  V30 2190 H 206.427 0.592793 -0.314384 0
M  V30 2191 H 208.971 1.41649 -1.47499 0
M  V30 2192 H 207.126 3.79706 -0.768229 0
M  V30 2193 H 207.54 4.3652 -2.90776 0
M  V30 2194 H 209.014 5.31613 -1.48633 0
M  V30 2195 H 209.491 4.39153 -0.0642394 0
M  V30 2196 H 210.097 3.91291 -1.66648 0
M  V30 2197 N 208.412 0.89855 1.29475 0
M  V30 2198 C 209.659 0.523882 1.95606 0
M  V30 2199 C 209.987 -0.929608 1.70847 0
M  V30 2200 O 209.242 -1.67401 1.01367 0
M  V30 2201 C 209.541 0.761398 3.49195 0
M  V30 2202 C 209.207 2.19207 3.94029 0
M  V30 2203 C 207.869 2.58326 4.05982 0
M  V30 2204 C 210.221 3.12379 4.17216 0
M  V30 2205 C 207.549 3.898 4.38489 0
M  V30 2206 C 209.901 4.43401 4.51197 0
M  V30 2207 C 208.565 4.82394 4.61359 0
M  V30 2208 H 207.835 0.191702 0.715773 0
M  V30 2209 H 210.482 1.13699 1.54094 0
M  V30 2210 H 208.787 0.0653622 3.91745 0
M  V30 2211 H 210.484 0.450904 3.98457 0
M  V30 2212 H 207.074 1.87846 3.85242 0
M  V30 2213 H 211.258 2.83371 4.07449 0
M  V30 2214 H 206.514 4.19734 4.44559 0
M  V30 2215 H 210.688 5.15623 4.68087 0
M  V30 2216 H 208.315 5.84306 4.86303 0
M  V30 2217 N 209.89 -1.43072 0.660911 0
M  V30 2218 C 210.8 -2.34585 -0.0264163 0
M  V30 2219 C 211.816 -1.54316 -0.803898 0
M  V30 2220 O 212.992 -1.86939 -0.749391 0
M  V30 2221 C 210.057 -3.32689 -0.975639 0
M  V30 2222 C 209.118 -4.2886 -0.194236 0
M  V30 2223 C 208.351 -5.22278 -1.09825 0
M  V30 2224 O 208.574 -5.20299 -2.33763 0
M  V30 2225 O 207.508 -5.99228 -0.566513 0
M  V30 2226 H 211.334 -2.94869 0.727034 0
M  V30 2227 H 208.919 -1.43342 0.42111 0
M  V30 2228 H 210.801 -3.92995 -1.52094 0
M  V30 2229 H 209.476 -2.74898 -1.70918 0
M  V30 2230 H 208.383 -3.72011 0.394835 0
M  V30 2231 H 209.716 -4.89655 0.499899 0
M  V30 2232 N 211.368 -0.403325 -1.52352 0
M  V30 2233 C 212.298 0.416205 -2.29761 0
M  V30 2234 C 213.279 1.05123 -1.33728 0
M  V30 2235 O 214.464 1.06134 -1.62632 0
M  V30 2236 C 211.594 1.53624 -3.11475 0
M  V30 2237 C 210.548 1.02653 -4.15507 0
M  V30 2238 C 209.874 2.23971 -4.85532 0
M  V30 2239 C 211.174 0.08463 -5.22231 0
M  V30 2240 H 212.868 -0.229701 -2.98518 0
M  V30 2241 H 210.414 -0.111913 -1.43564 0
M  V30 2242 H 212.367 2.1165 -3.64393 0
M  V30 2243 H 211.091 2.20994 -2.40477 0
M  V30 2244 H 209.75 0.46871 -3.63591 0
M  V30 2245 H 209.398 2.89883 -4.11068 0
M  V30 2246 H 209.098 1.90521 -5.55856 0
M  V30 2247 H 210.622 2.82614 -5.41259 0
M  V30 2248 H 212.036 0.573509 -5.70424 0
M  V30 2249 H 210.433 -0.160783 -5.99885 0
M  V30 2250 H 211.503 -0.86237 -4.7717 0
M  V30 2251 N 212.846 1.57033 -0.133567 0
M  V30 2252 C 214.092 1.95976 0.521649 0
M  V30 2253 C 214.425 1.01779 1.65393 0
M  V30 2254 O 213.7 0.0576581 1.94415 0
M  V30 2255 C 213.983 3.44738 1.04057 0
M  V30 2256 C 213.836 4.49711 -0.0892897 0
M  V30 2257 C 215.155 3.95682 1.92675 0
M  V30 2258 H 212.274 0.712579 0.188149 0
M  V30 2259 H 214.916 1.88813 -0.212076 0
M  V30 2260 H 213.066 3.50973 1.66583 0
M  V30 2261 H 214.738 4.55565 -0.725152 0
M  V30 2262 H 212.981 4.27261 -0.750378 0
M  V30 2263 H 213.652 5.51099 0.315284 0
M  V30 2264 H 216.128 3.91841 1.39998 0
M  V30 2265 H 215.004 5.00262 2.25897 0
M  V30 2266 H 215.265 3.37239 2.85872 0
M  V30 2267 N 214.325 -0.140222 1.56975 0
M  V30 2268 C 215.555 -0.865181 1.87612 0
M  V30 2269 C 215.963 -1.74942 0.72055 0
M  V30 2270 O 215.306 -1.80917 -0.318561 0
M  V30 2271 C 215.368 -1.76782 3.13031 0
M  V30 2272 C 215.032 -1.06005 4.44536 0
M  V30 2273 C 216.029 -0.410768 5.18275 0
M  V30 2274 C 213.714 -1.04754 4.91255 0
M  V30 2275 C 215.708 0.241572 6.36942 0
M  V30 2276 C 213.395 -0.391394 6.09845 0
M  V30 2277 C 214.393 0.252029 6.82535 0
M  V30 2278 O 214.081 0.897757 7.98871 0
M  V30 2279 H 213.813 -0.255188 0.625983 0
M  V30 2280 H 216.367 -0.135653 2.04952 0
M  V30 2281 H 214.597 -2.53846 2.91718 0
M  V30 2282 H 216.286 -2.36533 3.29859 0
M  V30 2283 H 217.052 -0.412195 4.83245 0
M  V30 2284 H 212.931 -1.53777 4.34596 0
M  V30 2285 H 216.475 0.744375 6.93617 0
M  V30 2286 H 212.372 -0.387656 6.44335 0
M  V30 2287 H 213.14 0.800102 8.1458 0
M  V30 2288 N 215.803 -1.52179 -0.40978 0
M  V30 2289 C 216.713 -1.78364 -1.52392 0
M  V30 2290 C 217.729 -0.669183 -1.60617 0
M  V30 2291 O 218.905 -0.954518 -1.77344 0
M  V30 2292 C 215.97 -1.92822 -2.88133 0
M  V30 2293 C 215.031 -3.16725 -2.898 0
M  V30 2294 C 214.264 -3.30483 -4.19067 0
M  V30 2295 O 214.487 -2.49522 -5.12928 0
M  V30 2296 O 213.421 -4.2363 -4.27576 0
M  V30 2297 H 217.247 -2.72931 -1.33201 0
M  V30 2298 H 214.832 -1.37016 -0.59557 0
M  V30 2299 H 216.714 -2.04157 -3.68643 0
M  V30 2300 H 215.389 -1.01444 -3.07393 0
M  V30 2301 H 214.296 -3.10848 -2.08146 0
M  V30 2302 H 215.629 -4.07881 -2.75489 0
M  V30 2303 N 217.281 0.66697 -1.42791 0
M  V30 2304 C 218.191 1.80962 -1.49299 0
M  V30 2305 C 219.207 1.69775 -0.381108 0
M  V30 2306 O 220.383 1.91188 -0.633188 0
M  V30 2307 C 217.448 3.17156 -1.40045 0
M  V30 2308 C 216.509 3.40242 -2.6179 0
M  V30 2309 C 215.742 4.69939 -2.52969 0
M  V30 2310 O 215.965 5.48372 -1.56985 0
M  V30 2311 O 214.899 4.94441 -3.43237 0
M  V30 2312 H 218.725 1.78427 -2.45759 0
M  V30 2313 H 216.31 0.823713 -1.24641 0
M  V30 2314 H 218.192 3.98413 -1.37276 0
M  V30 2315 H 216.867 3.20312 -0.467138 0
M  V30 2316 H 215.774 2.58802 -2.70134 0
M  V30 2317 H 217.107 3.41923 -3.54047 0
M  V30 2318 N 218.759 1.29093 0.90403 0
M  V30 2319 C 219.689 1.16401 2.02418 0
M  V30 2320 C 220.67 0.0593085 1.69997 0
M  V30 2321 O 221.855 0.238021 1.92736 0
M  V30 2322 C 218.985 0.835233 3.37107 0
M  V30 2323 C 217.939 1.89578 3.83724 0
M  V30 2324 C 217.265 1.42041 5.15489 0
M  V30 2325 C 218.565 3.30394 4.04521 0
M  V30 2326 H 220.259 2.10109 2.13295 0
M  V30 2327 H 217.805 1.01157 1.02486 0
M  V30 2328 H 219.758 0.733169 4.14973 0
M  V30 2329 H 218.482 -0.137543 3.2631 0
M  V30 2330 H 217.141 1.98715 3.08071 0
M  V30 2331 H 216.789 0.436426 5.01103 0
M  V30 2332 H 216.489 2.12964 5.4765 0
M  V30 2333 H 218.013 1.33176 5.959 0
M  V30 2334 H 219.427 3.24123 4.72882 0
M  V30 2335 H 217.824 3.99237 4.48029 0
M  V30 2336 H 218.894 3.73692 3.09002 0
M  V30 2337 N 220.237 -1.11381 1.11499 0
M  V30 2338 C 221.167 -2.19509 0.796125 0
M  V30 2339 C 222.148 -1.68458 -0.235796 0
M  V30 2340 O 223.333 -1.93947 -0.0991344 0
M  V30 2341 C 220.463 -3.46475 0.239205 0
M  V30 2342 C 219.417 -4.10744 1.20307 0
M  V30 2343 C 218.743 -5.32293 0.50683 0
M  V30 2344 C 220.043 -4.55597 2.55399 0
M  V30 2345 H 221.737 -2.46439 1.70024 0
M  V30 2346 H 219.283 -1.18446 0.818935 0
M  V30 2347 H 221.236 -4.214 0.00392006 0
M  V30 2348 H 219.96 -3.19006 -0.700206 0
M  V30 2349 H 218.619 -3.37813 1.42399 0
M  V30 2350 H 218.267 -5.01095 -0.437408 0
M  V30 2351 H 217.967 -5.76243 1.1497 0
M  V30 2352 H 219.491 -6.09956 0.280351 0
M  V30 2353 H 220.905 -5.21841 2.37391 0
M  V30 2354 H 219.302 -5.10363 3.15673 0
M  V30 2355 H 220.372 -3.69013 3.14575 0
M  V30 2356 N 221.715 -0.905404 -1.28997 0
M  V30 2357 C 222.662 -0.385892 -2.27551 0
M  V30 2358 C 223.632 0.535113 -1.57244 0
M  V30 2359 O 224.817 0.459119 -1.85194 0
M  V30 2360 C 221.957 0.375461 -3.43051 0
M  V30 2361 C 221.07 -0.577092 -4.28128 0
M  V30 2362 C 220.205 0.201879 -5.30816 0
M  V30 2363 C 219.244 -0.744829 -6.07551 0
M  V30 2364 N 218.381 9.42587e-05 -7.021 0
M  V30 2365 H 223.221 -1.23139 -2.71368 0
M  V30 2366 H 220.758 -0.618542 -1.33463 0
M  V30 2367 H 222.716 0.832992 -4.088 0
M  V30 2368 H 221.346 1.18537 -3.00248 0
M  V30 2369 H 220.398 -1.15315 -3.62501 0
M  V30 2370 H 221.71 -1.30152 -4.8152 0
M  V30 2371 H 220.864 0.720351 -6.02408 0
M  V30 2372 H 219.603 0.959413 -4.7817 0
M  V30 2373 H 218.608 -1.27475 -5.34818 0
M  V30 2374 H 219.833 -1.50178 -6.62286 0
M  V30 2375 H 217.779 0.739791 -6.51815 0
M  V30 2376 H 217.696 -0.664321 -7.53076 0
M  V30 2377 H 218.964 0.498644 -7.77903 0
M  V30 2378 N 223.193 1.4272 -0.668489 0
M  V30 2379 C 224.609 1.55992 -0.33745 0
M  V30 2380 C 224.809 1.64933 1.15756 0
M  V30 2381 O 223.865 1.61278 1.94282 0
M  V30 2382 C 225.178 2.81314 -1.06222 0
M  V30 2383 C 226.726 2.95078 -1.04394 0
M  V30 2384 C 227.201 4.23252 -1.74991 0
M  V30 2385 N 228.692 4.3015 -1.71829 0
M  V30 2386 C 229.427 5.28127 -2.23315 0
M  V30 2387 N 228.923 6.32293 -2.83156 0
M  V30 2388 N 230.716 5.19882 -2.13726 0
M  V30 2389 H 222.867 1.3516 -1.63846 0
M  V30 2390 H 225.13 0.650174 -0.689912 0
M  V30 2391 H 224.836 2.80823 -2.11734 0
M  V30 2392 H 224.71 3.72012 -0.62344 0
M  V30 2393 H 227.097 2.951 0.0028244 0
M  V30 2394 H 227.178 2.05627 -1.52155 0
M  V30 2395 H 226.822 4.2399 -2.79633 0
M  V30 2396 H 226.752 5.11626 -1.24685 0
M  V30 2397 H 229.243 3.55499 -1.28175 0
M  V30 2398 H 229.556 7.03398 -3.20079 0
M  V30 2399 H 227.901 6.32873 -2.87223 0
M  V30 2400 H 231.092 4.37423 -1.66669 0
M  V30 2401 H 231.265 5.96077 -2.54158 0
M  V30 2402 N 224.671 0.411399 1.52136 0
M  V30 2403 C 226.087 0.0623865 1.59478 0
M  V30 2404 C 226.287 -1.42554 1.4241 0
M  V30 2405 O 225.343 -2.19263 1.2522 0
M  V30 2406 C 226.656 0.559331 2.95452 0
M  V30 2407 C 228.204 0.517503 3.08692 0
M  V30 2408 C 228.679 0.990994 4.4715 0
M  V30 2409 N 230.17 0.947908 4.53397 0
M  V30 2410 C 230.905 1.28544 5.58806 0
M  V30 2411 N 230.401 1.69454 6.71757 0
M  V30 2412 N 232.194 1.20526 5.49026 0
M  V30 2413 H 224.345 1.37982 1.61477 0
M  V30 2414 H 226.608 0.566977 0.759764 0
M  V30 2415 H 226.314 1.59938 3.1323 0
M  V30 2416 H 226.188 -0.0298014 3.77188 0
M  V30 2417 H 228.575 -0.513505 2.90598 0
M  V30 2418 H 228.656 1.14272 2.28857 0
M  V30 2419 H 228.3 2.02034 4.65988 0
M  V30 2420 H 228.23 0.34257 5.25485 0
M  V30 2421 H 230.721 0.647157 3.72317 0
M  V30 2422 H 231.034 1.93513 7.48179 0
M  V30 2423 H 229.379 1.73359 6.73032 0
M  V30 2424 H 232.57 0.884505 4.59667 0
M  V30 2425 H 232.743 1.47161 6.31069 0
M  V30 2426 N 226.149 -1.5696 0.141893 0
M  V30 2427 C 227.079 -2.19516 -0.795936 0
M  V30 2428 C 228.06 -1.14187 -1.26077 0
M  V30 2429 O 229.245 -1.42511 -1.31925 0
M  V30 2430 C 226.375 -2.81272 -2.03723 0
M  V30 2431 C 225.329 -3.92384 -1.70936 0
M  V30 2432 C 224.655 -4.41052 -3.02287 0
M  V30 2433 C 225.955 -5.13403 -0.959954 0
M  V30 2434 H 227.649 -2.98138 -0.274596 0
M  V30 2435 H 225.195 -1.43406 -0.130636 0
M  V30 2436 H 227.148 -3.237 -2.69808 0
M  V30 2437 H 225.872 -1.99973 -2.58221 0
M  V30 2438 H 224.531 -3.50566 -1.07232 0
M  V30 2439 H 224.179 -3.56582 -3.54765 0
M  V30 2440 H 223.879 -5.15993 -2.81114 0
M  V30 2441 H 225.403 -4.86146 -3.69451 0
M  V30 2442 H 226.817 -5.52706 -1.52279 0
M  V30 2443 H 225.214 -5.94073 -0.848357 0
M  V30 2444 H 226.284 -4.84875 0.0492434 0
M  V30 2445 N 227.627 0.131896 -1.57047 0
M  V30 2446 C 228.875 0.840269 -1.83804 0
M  V30 2447 C 229.196 1.81017 -0.72512 0
M  V30 2448 O 228.466 1.94272 0.251995 0
M  V30 2449 H 227.046 0.313294 -0.678127 0
M  V30 2450 H 229.708 0.122294 -1.94516 0
M  V30 2451 H 228.804 1.39335 -2.79271 0
M  V30 2452 N 229.106 1.52395 0.401703 0
M  V30 2453 C 230.352 1.67065 1.14966 0
M  V30 2454 C 230.685 0.403052 1.89971 0
M  V30 2455 O 229.96 -0.598774 1.85054 0
M  V30 2456 C 230.243 2.8975 2.13815 0
M  V30 2457 C 230.096 4.26578 1.42658 0
M  V30 2458 C 231.415 3.07965 3.14397 0
M  V30 2459 H 228.534 0.607968 0.416587 0
M  V30 2460 H 231.176 1.84965 0.434511 0
M  V30 2461 H 229.326 2.74619 2.74803 0
M  V30 2462 H 230.998 4.53451 0.847329 0
M  V30 2463 H 229.241 4.27639 0.72849 0
M  V30 2464 H 229.912 5.08483 2.14823 0
M  V30 2465 H 232.388 3.22043 2.63491 0
M  V30 2466 H 231.264 3.95308 3.80819 0
M  V30 2467 H 231.525 2.21611 3.82545 0
M  V30 2468 N 230.584 -0.659388 1.43143 0
M  V30 2469 C 231.814 -1.44513 1.47646 0
M  V30 2470 C 232.222 -1.88981 0.0910095 0
M  V30 2471 O 231.565 -1.59702 -0.907789 0
M  V30 2472 C 231.627 -2.71663 2.35456 0
M  V30 2473 C 231.291 -2.49175 3.83094 0
M  V30 2474 C 232.288 -2.1279 4.74359 0
M  V30 2475 C 229.973 -2.63691 4.27519 0
M  V30 2476 C 231.967 -1.9121 6.08044 0
M  V30 2477 C 229.654 -2.41726 5.61259 0
M  V30 2478 C 230.652 -2.0554 6.51339 0
M  V30 2479 O 230.34 -1.838 7.82606 0
M  V30 2480 H 230.072 -0.45064 0.503884 0
M  V30 2481 H 232.626 -0.816248 1.88485 0
M  V30 2482 H 230.856 -3.37089 1.89493 0
M  V30 2483 H 232.545 -3.33595 2.31235 0
M  V30 2484 H 233.311 -2.01157 4.41317 0
M  V30 2485 H 229.19 -2.90832 3.57684 0
M  V30 2486 H 232.734 -1.62889 6.78316 0
M  V30 2487 H 228.631 -2.52959 5.9387 0
M  V30 2488 H 229.399 -1.98275 7.94122 0
M  V30 2489 N 232.062 -1.29571 -0.897171 0
M  V30 2490 C 232.972 -1.16808 -2.03453 0
M  V30 2491 C 233.988 -0.0907471 -1.73763 0
M  V30 2492 O 235.164 -0.303312 -1.99103 0
M  V30 2493 C 232.229 -0.848264 -3.36163 0
M  V30 2494 C 231.29 -2.0097 -3.79354 0
M  V30 2495 C 230.523 -1.70505 -5.05731 0
M  V30 2496 O 230.746 -0.62718 -5.66941 0
M  V30 2497 O 229.68 -2.5538 -5.45036 0
M  V30 2498 H 233.506 -2.12325 -2.17144 0
M  V30 2499 H 231.091 -1.09047 -1.02123 0
M  V30 2500 H 232.973 -0.684581 -4.15802 0
M  V30 2501 H 231.648 0.0771071 -3.23608 0
M  V30 2502 H 230.555 -2.22863 -3.00471 0
M  V30 2503 H 231.888 -2.91636 -3.96496 0
M  V30 2504 N 233.54 1.10788 -1.12088 0
M  V30 2505 C 234.47 2.19083 -0.807755 0
M  V30 2506 C 235.451 1.6858 0.226859 0
M  V30 2507 O 236.636 1.93997 0.0888475 0
M  V30 2508 C 233.766 3.46344 -0.257576 0
M  V30 2509 C 232.72 4.101 -1.22483 0
M  V30 2510 C 232.046 5.32016 -0.535052 0
M  V30 2511 C 233.346 4.54236 -2.57811 0
M  V30 2512 H 235.04 2.45534 -1.71328 0
M  V30 2513 H 232.586 1.1801 -0.825205 0
M  V30 2514 H 234.539 4.21392 -0.0262679 0
M  V30 2515 H 233.263 3.19373 0.683278 0
M  V30 2516 H 231.922 3.37054 -1.44189 0
M  V30 2517 H 231.57 5.01319 0.410827 0
M  V30 2518 H 231.27 5.75625 -1.18024 0
M  V30 2519 H 232.794 6.09799 -0.312695 0
M  V30 2520 H 234.208 5.20575 -2.40155 0
M  V30 2521 H 232.605 5.08682 -3.18375 0
M  V30 2522 H 233.675 3.6734 -3.16528 0
M  V30 2523 N 235.018 0.912232 1.28515 0
M  V30 2524 C 235.948 0.416403 2.29757 0
M  V30 2525 C 236.929 -0.515194 1.6211 0
M  V30 2526 O 238.114 -0.423253 1.89532 0
M  V30 2527 C 235.244 -0.34572 3.45575 0
M  V30 2528 C 234.198 0.496599 4.25109 0
M  V30 2529 C 233.524 -0.393771 5.33248 0
M  V30 2530 C 234.824 1.75307 4.92001 0
M  V30 2531 H 236.518 1.26249 2.7148 0
M  V30 2532 H 234.064 0.608515 1.30511 0
M  V30 2533 H 236.017 -0.703422 4.15488 0
M  V30 2534 H 234.741 -1.2257 3.02728 0
M  V30 2535 H 233.4 0.8368 3.56922 0
M  V30 2536 H 233.048 -1.27225 4.86644 0
M  V30 2537 H 232.748 0.166209 5.87365 0
M  V30 2538 H 234.272 -0.747389 6.06009 0
M  V30 2539 H 235.686 1.46437 5.54283 0
M  V30 2540 H 234.083 2.25534 5.56106 0
M  V30 2541 H 235.153 2.48176 4.16577 0
M  V30 2542 N 236.496 -1.42363 0.676048 0
M  V30 2543 C 237.426 -2.33497 0.0124832 0
M  V30 2544 C 238.407 -1.50748 -0.787981 0
M  V30 2545 O 239.592 -1.79346 -0.744884 0
M  V30 2546 C 236.722 -3.34377 -0.938582 0
M  V30 2547 C 235.676 -4.27289 -0.246622 0
M  V30 2548 C 235.002 -5.18386 -1.31071 0
M  V30 2549 C 236.302 -5.14916 0.875125 0
M  V30 2550 H 237.996 -2.89233 0.773593 0
M  V30 2551 H 235.542 -1.39073 0.37346 0
M  V30 2552 H 237.495 -3.97044 -1.41188 0
M  V30 2553 H 236.219 -2.76947 -1.73113 0
M  V30 2554 H 234.878 -3.66018 0.206456 0
M  V30 2555 H 234.526 -4.57282 -2.09528 0
M  V30 2556 H 234.226 -5.81378 -0.852839 0
M  V30 2557 H 235.75 -5.83929 -1.78492 0
M  V30 2558 H 237.164 -5.71262 0.482983 0
M  V30 2559 H 235.561 -5.86747 1.25887 0
M  V30 2560 H 236.631 -4.53242 1.72335 0
M  V30 2561 N 237.974 -0.419461 -1.51915 0
M  V30 2562 C 238.921 0.400927 -2.27291 0
M  V30 2563 C 239.891 1.03224 -1.30131 0
M  V30 2564 O 241.076 1.05455 -1.59009 0
M  V30 2565 C 238.216 1.50603 -3.10504 0
M  V30 2566 C 237.329 0.89462 -4.22635 0
M  V30 2567 C 236.464 1.97328 -4.93189 0
M  V30 2568 C 235.503 1.33935 -5.97267 0
M  V30 2569 N 234.64 2.3586 -6.61298 0
M  V30 2570 H 239.48 -0.248251 -2.96964 0
M  V30 2571 H 237.017 -0.134266 -1.46486 0
M  V30 2572 H 238.975 2.15783 -3.57062 0
M  V30 2573 H 237.605 2.12509 -2.42981 0
M  V30 2574 H 236.657 0.131583 -3.80172 0
M  V30 2575 H 237.969 0.391641 -4.9726 0
M  V30 2576 H 237.123 2.70211 -5.43204 0
M  V30 2577 H 235.862 2.50994 -4.18155 0
M  V30 2578 H 234.867 0.595896 -5.46561 0
M  V30 2579 H 236.092 0.810252 -6.74249 0
M  V30 2580 H 234.038 2.88639 -5.89087 0
M  V30 2581 H 233.955 1.90403 -7.3163 0
M  V30 2582 H 235.223 3.08282 -7.15949 0
M  V30 2583 N 239.452 1.56882 -0.150215 0
M  V30 2584 C 240.698 1.96518 0.500834 0
M  V30 2585 C 241.031 1.03527 1.64304 0
M  V30 2586 O 240.306 0.0782751 1.94342 0
M  V30 2587 C 240.589 3.45822 1.00395 0
M  V30 2588 C 240.442 4.49591 -0.136983 0
M  V30 2589 C 241.761 3.97704 1.88467 0
M  V30 2590 H 238.88 0.714535 0.18058 0
M  V30 2591 H 241.522 1.88577 -0.232091 0
M  V30 2592 H 239.672 3.5272 1.62851 0
M  V30 2593 H 241.344 4.5477 -0.77343 0
M  V30 2594 H 239.587 4.26441 -0.795652 0
M  V30 2595 H 240.258 5.51402 0.256815 0
M  V30 2596 H 242.734 3.93304 1.35834 0
M  V30 2597 H 241.61 5.0263 2.20578 0
M  V30 2598 H 241.871 3.40252 2.82279 0
M  V30 2599 N 240.93 -0.123565 1.57115 0
M  V30 2600 C 242.346 -0.476961 1.52306 0
M  V30 2601 C 242.546 -1.82109 0.86248 0
M  V30 2602 O 241.602 -2.48586 0.442884 0
M  V30 2603 C 242.915 -0.465661 2.97073 0
M  V30 2604 C 244.463 -0.549534 3.08138 0
M  V30 2605 C 244.938 -0.568669 4.54456 0
M  V30 2606 N 246.429 -0.630237 4.58892 0
M  V30 2607 C 247.164 -0.666415 5.69514 0
M  V30 2608 N 246.66 -0.660514 6.89644 0
M  V30 2609 N 248.453 -0.709077 5.5761 0
M  V30 2610 H 240.604 0.757198 1.98445 0
M  V30 2611 H 242.867 0.278808 0.906074 0
M  V30 2612 H 242.573 0.454232 3.48754 0
M  V30 2613 H 242.447 -1.29513 3.54269 0
M  V30 2614 H 244.834 -1.45985 2.56461 0
M  V30 2615 H 244.915 0.307532 2.53945 0
M  V30 2616 H 244.559 0.337581 5.06777 0
M  V30 2617 H 244.489 -1.44256 5.06456 0
M  V30 2618 H 246.98 -0.641146 3.72421 0
M  V30 2619 H 247.293 -0.690616 7.69708 0
M  V30 2620 H 245.638 -0.628012 6.92157 0
M  V30 2621 H 248.829 -0.711019 4.62668 0
M  V30 2622 H 249.002 -0.733804 6.43832 0
M  V30 2623 N 242.408 -1.52605 -0.393616 0
M  V30 2624 C 243.819 -1.59417 -0.971761 0
M  V30 2625 C 244.17 -0.444173 -1.91106 0
M  V30 2626 O 243.295 0.433382 -2.12016 0
M  V30 2627 C 243.89 -2.88936 -1.76921 0
M  V30 2628 C 242.449 -2.98175 -2.29714 0
M  V30 2629 C 241.596 -2.54491 -1.10135 0
M  V30 2630 H 244.547 -1.57751 -0.173317 0
M  V30 2631 H 244.568 -2.75163 -2.62804 0
M  V30 2632 H 244.08 -3.72616 -1.08532 0
M  V30 2633 H 242.181 -2.19024 -3.01429 0
M  V30 2634 H 242.294 -4.02726 -2.59517 0
M  V30 2635 H 240.658 -2.08702 -1.45999 0
M  V30 2636 H 241.441 -3.4056 -0.432874 0
M  V30 2637 N 243.887 0.651787 -1.4349 0
M  V30 2638 C 244.819 1.77725 -1.44729 0
M  V30 2639 C 245.832 1.59141 -0.343231 0
M  V30 2640 O 247.021 1.67835 -0.607751 0
M  V30 2641 C 244.121 3.15172 -1.24579 0
M  V30 2642 C 243.294 3.60402 -2.47849 0
M  V30 2643 C 242.353 4.76656 -2.22902 0
M  V30 2644 O 241.379 4.86022 -2.96263 0
M  V30 2645 N 242.581 5.66958 -1.24656 0
M  V30 2646 H 245.346 1.77141 -2.41746 0
M  V30 2647 H 242.907 0.835678 -1.38665 0
M  V30 2648 H 244.899 3.90634 -1.0577 0
M  V30 2649 H 243.469 3.1052 -0.360015 0
M  V30 2650 H 242.689 2.75369 -2.82073 0
M  V30 2651 H 243.977 3.87368 -3.29884 0
M  V30 2652 H 243.375 5.62065 -0.640265 0
M  V30 2653 H 241.932 6.42135 -1.1183 0
M  V30 2654 N 245.365 1.30045 0.890287 0
M  V30 2655 C 246.297 1.11786 2.00091 0
M  V30 2656 C 247.31 0.0626307 1.62679 0
M  V30 2657 O 248.499 0.308112 1.75821 0
M  V30 2658 C 245.599 0.681527 3.31977 0
M  V30 2659 C 244.772 1.81735 3.97858 0
M  V30 2660 C 243.831 1.37045 5.08041 0
M  V30 2661 O 242.857 2.07677 5.29961 0
M  V30 2662 N 244.059 0.246525 5.79976 0
M  V30 2663 H 246.824 2.07441 2.16306 0
M  V30 2664 H 244.385 1.2211 1.06305 0
M  V30 2665 H 246.377 0.365675 4.03045 0
M  V30 2666 H 244.947 -0.182828 3.12065 0
M  V30 2667 H 244.167 2.30159 3.20032 0
M  V30 2668 H 245.455 2.57865 4.38615 0
M  V30 2669 H 244.853 -0.34215 5.64664 0
M  V30 2670 H 243.41 -0.00990438 6.51799 0
M  V30 2671 N 246.843 -1.10192 1.12674 0
M  V30 2672 C 247.773 -2.18652 0.819362 0
M  V30 2673 C 248.754 -1.68698 -0.217915 0
M  V30 2674 O 249.939 -1.94041 -0.0785581 0
M  V30 2675 C 247.069 -3.46202 0.27594 0
M  V30 2676 C 246.023 -4.09444 1.24656 0
M  V30 2677 C 245.349 -5.31725 0.563258 0
M  V30 2678 C 246.649 -4.52863 2.60217 0
M  V30 2679 H 248.343 -2.44622 1.72628 0
M  V30 2680 H 245.889 -1.17571 0.831451 0
M  V30 2681 H 247.842 -4.21372 0.0486149 0
M  V30 2682 H 246.566 -3.1973 -0.666331 0
M  V30 2683 H 245.225 -3.36284 1.45974 0
M  V30 2684 H 244.873 -5.0153 -0.384235 0
M  V30 2685 H 244.573 -5.74991 1.21075 0
M  V30 2686 H 246.097 -6.09624 0.34503 0
M  V30 2687 H 247.511 -5.19294 2.42913 0
M  V30 2688 H 245.908 -5.06986 3.21068 0
M  V30 2689 H 246.978 -3.65656 3.18471 0
M  V30 2690 N 248.321 -0.919034 -1.28029 0
M  V30 2691 C 249.567 -0.555757 -1.95036 0
M  V30 2692 C 249.9 0.899198 -1.72128 0
M  V30 2693 O 249.175 1.64023 -1.04531 0
M  V30 2694 C 249.458 -0.872024 -3.49382 0
M  V30 2695 C 249.311 -2.3801 -3.81669 0
M  V30 2696 C 250.63 -0.37185 -4.38526 0
M  V30 2697 H 247.749 -0.203386 -0.708381 0
M  V30 2698 H 250.391 -1.14924 -1.51303 0
M  V30 2699 H 248.541 -0.366946 -3.86763 0
M  V30 2700 H 250.213 -2.9562 -3.54128 0
M  V30 2701 H 248.456 -2.83289 -3.28526 0
M  V30 2702 H 249.127 -2.55192 -4.8947 0
M  V30 2703 H 251.603 -0.804602 -4.08247 0
M  V30 2704 H 250.479 -0.622173 -5.45362 0
M  V30 2705 H 250.74 0.727934 -4.36066 0
M  V30 2706 N 249.799 1.42003 -0.683588 0
M  V30 2707 C 250.746 2.30798 -0.0107309 0
M  V30 2708 C 251.716 1.4645 0.783688 0
M  V30 2709 O 252.901 1.75263 0.754156 0
M  V30 2710 C 250.041 3.3238 0.928306 0
M  V30 2711 C 249.154 4.31814 0.126776 0
M  V30 2712 C 248.289 5.20468 1.06236 0
M  V30 2713 C 247.328 6.11577 0.253035 0
M  V30 2714 N 246.465 6.92754 1.14179 0
M  V30 2715 H 251.305 2.8778 -0.773727 0
M  V30 2716 H 248.842 1.41745 -0.393283 0
M  V30 2717 H 250.8 3.89813 1.48666 0
M  V30 2718 H 249.43 2.76976 1.65783 0
M  V30 2719 H 248.482 3.76427 -0.54833 0
M  V30 2720 H 249.794 4.96276 -0.501192 0
M  V30 2721 H 248.948 5.82677 1.69035 0
M  V30 2722 H 247.687 4.56204 1.7242 0
M  V30 2723 H 246.692 5.48428 -0.388108 0
M  V30 2724 H 247.917 6.77892 -0.404839 0
M  V30 2725 H 245.863 6.3111 1.78987 0
M  V30 2726 H 245.78 7.53855 0.569111 0
M  V30 2727 H 247.048 7.59441 1.75697 0
M  V30 2728 N 251.277 0.427512 1.51691 0
M  V30 2729 C 252.227 -0.406604 2.24345 0
M  V30 2730 C 253.211 -0.998276 1.26187 0
M  V30 2731 O 254.403 -0.918045 1.51331 0
M  V30 2732 C 251.532 -1.51266 3.08177 0
M  V30 2733 C 250.618 -0.930868 4.13758 0
M  V30 2734 N 251.009 -0.0773552 5.05741 0
M  V30 2735 C 249.307 -1.19948 4.29568 0
M  V30 2736 C 250.008 0.248344 5.8117 0
M  V30 2737 N 248.984 -0.365535 5.4237 0
M  V30 2738 H 252.786 0.251581 2.92821 0
M  V30 2739 H 250.3 0.239003 1.60632 0
M  V30 2740 H 252.297 -2.123 3.58796 0
M  V30 2741 H 250.957 -2.17328 2.41244 0
M  V30 2742 H 251.968 0.288351 5.17097 0
M  V30 2743 H 248.645 -1.85832 3.73862 0
M  V30 2744 H 250.035 0.942286 6.6526 0
M  V30 2745 N 252.755 -1.56801 0.158532 0
M  V30 2746 C 253.685 -2.20347 -0.772609 0
M  V30 2747 C 254.666 -1.15518 -1.24859 0
M  V30 2748 O 255.851 -1.43902 -1.30406 0
M  V30 2749 C 252.981 -2.83417 -2.00729 0
M  V30 2750 C 251.935 -3.94174 -1.66765 0
M  V30 2751 C 251.261 -4.44233 -2.97592 0
M  V30 2752 C 252.561 -5.14392 -0.905447 0
M  V30 2753 H 254.255 -2.98413 -0.242959 0
M  V30 2754 H 251.801 -1.43537 -0.115419 0
M  V30 2755 H 253.754 -3.26543 -2.6636 0
M  V30 2756 H 252.478 -2.02701 -2.56086 0
M  V30 2757 H 251.137 -3.51684 -1.03508 0
M  V30 2758 H 250.785 -3.60325 -3.50963 0
M  V30 2759 H 250.485 -5.18945 -2.75626 0
M  V30 2760 H 252.009 -4.90037 -3.64274 0
M  V30 2761 H 253.423 -5.5429 -1.46408 0
M  V30 2762 H 251.82 -5.9494 -0.7853 0
M  V30 2763 H 252.89 -4.84795 0.100668 0
M  V30 2764 N 254.233 0.115231 -1.57178 0
M  V30 2765 C 255.165 1.16694 -1.97269 0
M  V30 2766 C 256.178 1.37445 -0.872502 0
M  V30 2767 O 257.367 1.36454 -1.15077 0
M  V30 2768 C 254.467 2.52627 -2.25905 0
M  V30 2769 C 253.64 2.52427 -3.57211 0
M  V30 2770 C 252.699 3.70134 -3.74016 0
M  V30 2771 O 251.725 3.53546 -4.46087 0
M  V30 2772 N 252.927 4.88844 -3.13068 0
M  V30 2773 H 255.692 0.82588 -2.88096 0
M  V30 2774 H 253.253 0.304461 -1.59011 0
M  V30 2775 H 255.245 3.29937 -2.34359 0
M  V30 2776 H 253.815 2.789 -1.41186 0
M  V30 2777 H 253.035 1.60805 -3.5991 0
M  V30 2778 H 254.323 2.49353 -4.43509 0
M  V30 2779 H 253.721 5.05225 -2.54489 0
M  V30 2780 H 252.278 5.63817 -3.27037 0
M  V30 2781 N 255.711 1.52812 0.385517 0
M  V30 2782 C 256.644 1.72592 1.49289 0
M  V30 2783 C 257.622 0.573819 1.52138 0
M  V30 2784 O 258.806 0.80404 1.70492 0
M  V30 2785 C 255.933 1.78669 2.87741 0
M  V30 2786 C 254.979 3.00455 3.02703 0
M  V30 2787 S 255.812 4.60366 2.73538 0
M  V30 2788 C 256.968 4.69263 4.14177 0
M  V30 2789 H 257.201 2.66248 1.32285 0
M  V30 2790 H 254.734 1.43148 0.578611 0
M  V30 2791 H 256.692 1.82855 3.67524 0
M  V30 2792 H 255.353 0.861 3.02069 0
M  V30 2793 H 254.546 3.01258 4.04054 0
M  V30 2794 H 254.148 2.94278 2.30817 0
M  V30 2795 H 256.44 4.48092 5.08153 0
M  V30 2796 H 257.383 5.71276 4.18388 0
M  V30 2797 H 257.791 3.98072 4.00249 0
M  V30 2798 N 257.189 -0.644168 1.43834 0
M  V30 2799 C 258.466 -1.40188 1.36406 0
M  V30 2800 C 258.846 -2.11094 0.0163124 0
M  V30 2801 O 258.194 -2.05426 -1.00062 0
M  V30 2802 C 258.404 -2.3791 2.55343 0
M  V30 2803 C 259.752 -3.01637 2.98832 0
M  V30 2804 O 260.776 -2.48237 2.55455 0
M  V30 2805 O 259.635 -3.98477 3.74003 0
M  V30 2806 H 256.729 -0.626773 0.539523 0
M  V30 2807 H 259.275 -0.670317 1.559 0
M  V30 2808 H 258.047 -1.84525 3.4506 0
M  V30 2809 H 257.67 -3.18503 2.37995 0
M  V30 2810 N 258.668 -1.30515 -0.883378 0
M  V30 2811 C 259.917 -1.18795 -1.63005 0
M  V30 2812 C 260.23 0.255923 -1.93919 0
M  V30 2813 O 261.436 0.494654 -2.66956 0
M  V30 2814 C 259.892 -2.07878 -2.93794 0
M  V30 2815 C 259.5 -3.57184 -2.70414 0
M  V30 2816 C 261.244 -2.04924 -3.71761 0
M  V30 2817 C 259.151 -4.38317 -3.97029 0
M  V30 2818 H 258.081 -0.441031 -0.611562 0
M  V30 2819 H 260.732 -1.55275 -0.977854 0
M  V30 2820 H 259.114 -1.64283 -3.60315 0
M  V30 2821 H 260.288 -4.08937 -2.12384 0
M  V30 2822 H 258.603 -3.61976 -2.0582 0
M  V30 2823 H 261.2 -2.62792 -4.65665 0
M  V30 2824 H 261.543 -1.0331 -4.03277 0
M  V30 2825 H 262.076 -2.46649 -3.12104 0
M  V30 2826 H 258.815 -5.40632 -3.70671 0
M  V30 2827 H 258.335 -3.91326 -4.54559 0
M  V30 2828 H 260.014 -4.49834 -4.65036 0
M  V30 2829 N 260.146 1.09593 -1.13257 0
M  V30 2830 C 261.096 2.14345 -0.777179 0
M  V30 2831 C 262.08 1.59277 0.227966 0
M  V30 2832 O 263.272 1.76971 0.0321413 0
M  V30 2833 C 260.401 3.42439 -0.242991 0
M  V30 2834 C 259.487 4.04419 -1.27694 0
M  V30 2835 N 259.878 4.40979 -2.47732 0
M  V30 2836 C 258.176 4.31596 -1.12432 0
M  V30 2837 C 258.877 4.89784 -3.13826 0
M  V30 2838 N 257.853 4.87133 -2.41252 0
M  V30 2839 H 261.655 2.40415 -1.69049 0
M  V30 2840 H 259.169 1.26803 -1.01463 0
M  V30 2841 H 261.166 4.16889 0.0298496 0
M  V30 2842 H 259.826 3.17824 0.66467 0
M  V30 2843 H 260.837 4.32396 -2.85051 0
M  V30 2844 H 257.514 4.16595 -0.274684 0
M  V30 2845 H 258.904 5.2755 -4.16102 0
M  V30 2846 N 261.624 0.925811 1.2754 0
M  V30 2847 C 262.873 0.561084 1.93739 0
M  V30 2848 C 263.186 -0.901685 1.73577 0
M  V30 2849 O 264.392 -1.37511 2.34101 0
M  V30 2850 C 262.848 0.952668 3.47062 0
M  V30 2851 C 262.456 2.43599 3.75983 0
M  V30 2852 C 264.2 0.659103 4.19352 0
M  V30 2853 C 262.107 2.76707 5.22673 0
M  V30 2854 H 261.037 0.206122 0.725279 0
M  V30 2855 H 263.688 1.12637 1.44863 0
M  V30 2856 H 262.07 0.316053 3.94737 0
M  V30 2857 H 263.244 3.12035 3.39073 0
M  V30 2858 H 261.559 2.70125 3.16893 0
M  V30 2859 H 264.156 0.882985 5.27359 0
M  V30 2860 H 264.499 -0.403607 4.14339 0
M  V30 2861 H 265.032 1.25473 3.77494 0
M  V30 2862 H 261.771 3.8188 5.32774 0
M  V30 2863 H 261.291 2.12919 5.60737 0
M  V30 2864 H 262.97 2.6435 5.90532 0
M  V30 2865 N 263.102 -1.41638 0.69111 0
M  V30 2866 C 264.349 -2.01299 0.220193 0
M  V30 2867 C 264.677 -1.54715 -1.17871 0
M  V30 2868 O 263.932 -0.747193 -1.80874 0
M  V30 2869 C 264.231 -3.56714 0.221277 0
M  V30 2870 C 263.897 -4.22792 1.56709 0
M  V30 2871 C 262.559 -4.40557 1.93554 0
M  V30 2872 C 264.911 -4.59883 2.45268 0
M  V30 2873 C 262.239 -4.92688 3.18552 0
M  V30 2874 C 264.591 -5.13403 3.69595 0
M  V30 2875 C 263.255 -5.29379 4.06589 0
M  V30 2876 H 262.525 -0.736606 0.0805743 0
M  V30 2877 H 265.172 -1.69598 0.889319 0
M  V30 2878 H 263.477 -3.8818 -0.531391 0
M  V30 2879 H 265.174 -4.00678 -0.160547 0
M  V30 2880 H 261.764 -4.09336 1.2705 0
M  V30 2881 H 265.948 -4.45817 2.18084 0
M  V30 2882 H 261.204 -5.03242 3.47214 0
M  V30 2883 H 265.378 -5.41084 4.38407 0
M  V30 2884 H 263.005 -5.69537 5.03519 0
M  V30 2885 N 264.58 -0.43555 -1.51462 0
M  V30 2886 C 265.49 0.383001 -2.31453 0
M  V30 2887 C 266.506 1.02931 -1.4029 0
M  V30 2888 O 267.682 1.02507 -1.73362 0
M  V30 2889 C 264.747 1.47043 -3.13973 0
M  V30 2890 C 263.808 0.844433 -4.20913 0
M  V30 2891 C 263.041 1.88004 -4.9949 0
M  V30 2892 O 263.264 3.10199 -4.78678 0
M  V30 2893 O 262.198 1.47157 -5.83634 0
M  V30 2894 H 266.024 -0.269964 -3.02498 0
M  V30 2895 H 263.609 -0.19813 -1.4808 0
M  V30 2896 H 265.491 2.10113 -3.65281 0
M  V30 2897 H 264.166 2.10751 -2.45695 0
M  V30 2898 H 263.073 0.175729 -3.73687 0
M  V30 2899 H 264.406 0.250869 -4.9156 0
M  V30 2900 N 266.058 1.56714 -0.166846 0
M  V30 2901 C 267.469 1.83378 0.350646 0
M  V30 2902 C 267.82 1.08646 1.63372 0
M  V30 2903 O 266.945 0.338058 2.13743 0
M  V30 2904 C 267.54 3.32643 0.642963 0
M  V30 2905 C 266.099 3.59818 1.10491 0
M  V30 2906 C 265.246 2.76954 0.138411 0
M  V30 2907 H 268.197 1.53803 -0.391193 0
M  V30 2908 H 268.218 3.49878 1.49551 0
M  V30 2909 H 267.73 3.87007 -0.291055 0
M  V30 2910 H 265.831 3.1086 2.05418 0
M  V30 2911 H 265.944 4.68178 1.01716 0
M  V30 2912 H 264.308 2.4666 0.634911 0
M  V30 2913 H 265.091 3.34097 -0.789549 0
M  V30 2914 N 267.536 -0.106894 1.57237 0
M  V30 2915 C 268.468 -1.15646 1.97885 0
M  V30 2916 C 269.481 -1.36981 0.879779 0
M  V30 2917 O 270.67 -1.35841 1.15799 0
M  V30 2918 C 267.77 -2.51425 2.27241 0
M  V30 2919 C 266.943 -2.50529 3.58545 0
M  V30 2920 C 266.002 -3.68145 3.75973 0
M  V30 2921 O 265.028 -3.51176 4.47956 0
M  V30 2922 N 266.23 -4.87177 3.15656 0
M  V30 2923 H 268.995 -0.81059 2.8853 0
M  V30 2924 H 266.556 -0.296024 1.59171 0
M  V30 2925 H 268.548 -3.28689 2.36105 0
M  V30 2926 H 267.118 -2.78147 1.42663 0
M  V30 2927 H 266.338 -1.58894 3.60758 0
M  V30 2928 H 267.626 -2.46997 4.44826 0
M  V30 2929 H 267.024 -5.03868 2.57165 0
M  V30 2930 H 265.581 -5.62075 3.30023 0
M  V30 2931 N 269.014 -1.53014 -0.377408 0
M  V30 2932 C 270.262 -1.6829 -1.11906 0
M  V30 2933 C 270.583 -0.431206 -1.90173 0
M  V30 2934 O 269.853 0.554595 -1.87886 0
M  V30 2935 H 268.433 -0.620371 -0.416112 0
M  V30 2936 H 271.095 -1.90167 -0.426893 0
M  V30 2937 H 270.191 -2.53862 -1.8155 0
M  V30 2938 N 270.492 0.636531 -1.44174 0
M  V30 2939 C 271.741 1.39213 -1.45954 0
M  V30 2940 C 272.054 1.95374 -0.0939119 0
M  V30 2941 O 273.26 2.71498 0.0107767 0
M  V30 2942 C 271.716 2.52025 -2.56927 0
M  V30 2943 C 271.324 2.024 -3.99673 0
M  V30 2944 C 273.068 3.29269 -2.67922 0
M  V30 2945 C 270.975 3.12521 -5.0208 0
M  V30 2946 H 269.905 0.523132 -0.542999 0
M  V30 2947 H 272.556 0.685349 -1.70221 0
M  V30 2948 H 270.938 3.25253 -2.25891 0
M  V30 2949 H 272.112 1.36073 -4.40251 0
M  V30 2950 H 270.427 1.37987 -3.92872 0
M  V30 2951 H 273.024 4.11352 -3.41605 0
M  V30 2952 H 273.367 3.78397 -1.73555 0
M  V30 2953 H 273.9 2.63129 -2.98342 0
M  V30 2954 H 270.639 2.68343 -5.98057 0
M  V30 2955 H 270.159 3.77507 -4.66099 0
M  V30 2956 H 271.838 3.77385 -5.25538 0
M  V30 2957 N 271.97 1.30982 0.876444 0
M  V30 2958 C 273.195 1.23373 1.66715 0
M  V30 2959 C 273.62 -0.19885 1.87046 0
M  V30 2960 O 272.978 -1.1427 1.40756 0
M  V30 2961 C 273.026 1.97644 3.01611 0
M  V30 2962 O 272.13 1.30935 3.91062 0
M  V30 2963 H 271.471 0.426279 0.509099 0
M  V30 2964 H 274.001 1.72944 1.09323 0
M  V30 2965 H 274.011 2.06992 3.51594 0
M  V30 2966 H 272.686 3.01829 2.86133 0
M  V30 2967 H 271.263 1.29996 3.49507 0
M  V30 2968 N 273.449 -1.08991 1.13837 0
M  V30 2969 C 274.696 -1.81258 0.902882 0
M  V30 2970 C 275.024 -1.85936 -0.570803 0
M  V30 2971 O 274.279 -1.3267 -1.43865 0
M  V30 2972 C 274.578 -3.27042 1.44147 0
M  V30 2973 C 274.244 -3.4249 2.93276 0
M  V30 2974 C 272.906 -3.46414 3.33992 0
M  V30 2975 C 275.258 -3.4666 3.892 0
M  V30 2976 C 272.586 -3.52091 4.69307 0
M  V30 2977 C 274.938 -3.53872 5.24364 0
M  V30 2978 C 273.602 -3.56066 5.646 0
M  V30 2979 H 272.872 -0.663268 0.330388 0
M  V30 2980 H 275.519 -1.28368 1.42105 0
M  V30 2981 H 273.824 -3.82599 0.844097 0
M  V30 2982 H 275.521 -3.81499 1.23528 0
M  V30 2983 H 272.111 -3.40124 2.60794 0
M  V30 2984 H 276.295 -3.42865 3.58828 0
M  V30 2985 H 271.551 -3.52079 4.9985 0
M  V30 2986 H 275.725 -3.56043 5.98503 0
M  V30 2987 H 273.352 -3.60218 6.69438 0
M  V30 2988 N 274.927 -0.932562 -1.27047 0
M  V30 2989 C 275.857 -0.452902 -2.29066 0
M  V30 2990 C 276.838 0.489338 -1.62909 0
M  V30 2991 O 278.023 0.393046 -1.90181 0
M  V30 2992 C 275.153 0.290698 -3.46081 0
M  V30 2993 C 274.107 -0.564168 -4.24265 0
M  V30 2994 C 273.433 0.308886 -5.33807 0
M  V30 2995 C 274.733 -1.83112 -4.89149 0
M  V30 2996 H 276.427 -1.30552 -2.69437 0
M  V30 2997 H 273.973 -0.629201 -1.29526 0
M  V30 2998 H 275.926 0.637233 -4.16554 0
M  V30 2999 H 274.65 1.17738 -3.0464 0
M  V30 3000 H 273.309 -0.893477 -3.55545 0
M  V30 3001 H 272.957 1.19467 -4.88607 0
M  V30 3002 H 272.657 -0.259633 -5.87026 0
M  V30 3003 H 274.181 0.650884 -6.07121 0
M  V30 3004 H 275.595 -1.55236 -5.51883 0
M  V30 3005 H 273.992 -2.34353 -5.52448 0
M  V30 3006 H 275.062 -2.54772 -4.12576 0
M  V30 3007 N 276.405 1.4127 -0.698611 0
M  V30 3008 C 277.315 2.34573 -0.0357891 0
M  V30 3009 C 278.331 1.56393 0.762701 0
M  V30 3010 O 279.507 1.8886 0.699564 0
M  V30 3011 C 276.572 3.35159 0.887089 0
M  V30 3012 C 275.633 4.29225 0.0804634 0
M  V30 3013 C 274.866 5.25006 0.959387 0
M  V30 3014 O 275.089 5.26314 2.19886 0
M  V30 3015 O 274.023 6.00519 0.407439 0
M  V30 3016 H 277.849 2.92838 -0.804957 0
M  V30 3017 H 275.434 1.42175 -0.458966 0
M  V30 3018 H 277.316 3.9689 1.41621 0
M  V30 3019 H 275.991 2.79333 1.6357 0
M  V30 3020 H 274.898 3.70833 -0.493328 0
M  V30 3021 H 276.231 4.88157 -0.629547 0
M  V30 3022 N 277.883 0.443576 1.51229 0
M  V30 3023 C 279.111 -0.11929 2.06556 0
M  V30 3024 C 279.526 -1.35921 1.31038 0
M  V30 3025 O 278.883 -1.78675 0.371704 0
M  V30 3026 C 278.934 -0.435228 3.5887 0
M  V30 3027 O 278.655 0.755486 4.31537 0
M  V30 3028 C 280.156 -1.04808 4.30732 0
M  V30 3029 H 277.376 -0.0051584 0.67098 0
M  V30 3030 H 279.92 0.624453 1.94733 0
M  V30 3031 H 278.075 -1.12887 3.70588 0
M  V30 3032 H 278.489 0.483491 5.22267 0
M  V30 3033 H 279.963 -1.2191 5.3837 0
M  V30 3034 H 280.44 -2.03081 3.89429 0
M  V30 3035 H 281.046 -0.393637 4.23474 0
M  V30 3036 N 279.361 -1.56624 0.175154 0
M  V30 3037 C 280.271 -2.21741 -0.766042 0
M  V30 3038 C 281.287 -1.21023 -1.25018 0
M  V30 3039 O 282.463 -1.53697 -1.3015 0
M  V30 3040 C 279.528 -2.84839 -1.97655 0
M  V30 3041 C 278.589 -4.00769 -1.53892 0
M  V30 3042 C 277.822 -4.60849 -2.69173 0
M  V30 3043 O 278.045 -4.19823 -3.86141 0
M  V30 3044 O 276.979 -5.50655 -2.43028 0
M  V30 3045 H 280.805 -3.02738 -0.241585 0
M  V30 3046 H 278.39 -1.49305 -0.053222 0
M  V30 3047 H 280.272 -3.24834 -2.68442 0
M  V30 3048 H 278.947 -2.06836 -2.48999 0
M  V30 3049 H 277.854 -3.65436 -0.80044 0
M  V30 3050 H 279.187 -4.80376 -1.07236 0
M  V30 3051 N 280.839 0.0985539 -1.57292 0
M  V30 3052 C 282.064 0.820196 -1.90493 0
M  V30 3053 C 282.489 1.71658 -0.769094 0
M  V30 3054 O 281.847 1.79133 0.279495 0
M  V30 3055 C 281.895 1.61242 -3.22542 0
M  V30 3056 O 280.999 2.72108 -3.09888 0
M  V30 3057 H 280.34 0.225547 -0.62452 0
M  V30 3058 H 282.87 0.0748159 -2.04463 0
M  V30 3059 H 282.88 1.99737 -3.55766 0
M  V30 3060 H 281.555 0.954535 -4.04798 0
M  V30 3061 H 280.132 2.36667 -2.88172 0
M  V30 3062 N 282.317 1.53212 0.369288 0
M  V30 3063 C 283.545 1.73119 1.13303 0
M  V30 3064 C 283.96 0.458455 1.83149 0
M  V30 3065 O 283.317 -0.568403 1.73423 0
M  V30 3066 C 283.368 2.89413 2.16616 0
M  V30 3067 O 283.089 4.11761 1.49614 0
M  V30 3068 C 284.59 3.21161 3.05566 0
M  V30 3069 H 281.81 0.579107 0.338934 0
M  V30 3070 H 284.354 1.99942 0.429338 0
M  V30 3071 H 282.509 2.64994 2.82589 0
M  V30 3072 H 282.923 4.76858 2.18419 0
M  V30 3073 H 284.397 4.05949 3.74045 0
M  V30 3074 H 284.874 2.36369 3.70171 0
M  V30 3075 H 285.48 3.47492 2.45213 0
M  V30 3076 N 283.795 -0.628877 1.44509 0
M  V30 3077 C 285.042 -1.38839 1.47411 0
M  V30 3078 C 285.37 -1.94202 0.10757 0
M  V30 3079 O 284.625 -1.74243 -0.890947 0
M  V30 3080 C 284.924 -2.56995 2.48371 0
M  V30 3081 C 284.59 -2.19908 3.93639 0
M  V30 3082 C 283.252 -2.09506 4.33198 0
M  V30 3083 C 285.604 -1.9064 4.85083 0
M  V30 3084 C 282.932 -1.68028 5.62124 0
M  V30 3085 C 285.284 -1.50655 6.14399 0
M  V30 3086 C 283.948 -1.38796 6.5291 0
M  V30 3087 H 283.218 -0.508048 0.539414 0
M  V30 3088 H 285.865 -0.712913 1.77735 0
M  V30 3089 H 284.17 -3.29786 2.11538 0
M  V30 3090 H 285.867 -3.15223 2.47861 0
M  V30 3091 H 282.457 -2.28922 3.62343 0
M  V30 3092 H 286.641 -1.97585 4.55273 0
M  V30 3093 H 281.897 -1.57452 5.90778 0
M  V30 3094 H 286.071 -1.27048 6.84713 0
M  V30 3095 H 283.698 -1.06429 7.52713 0
M  V30 3096 N 285.273 -1.31445 -0.869486 0
M  V30 3097 C 286.206 -1.13465 -1.97992 0
M  V30 3098 C 287.184 -0.0380291 -1.62556 0
M  V30 3099 O 288.368 -0.194544 -1.87493 0
M  V30 3100 C 285.495 -0.733822 -3.30655 0
M  V30 3101 C 284.541 -1.83356 -3.85075 0
M  V30 3102 S 285.374 -3.43909 -4.10472 0
M  V30 3103 C 286.53 -3.05763 -5.46132 0
M  V30 3104 H 286.763 -2.07471 -2.1294 0
M  V30 3105 H 284.296 -1.15936 -1.01972 0
M  V30 3106 H 286.254 -0.509306 -4.07328 0
M  V30 3107 H 284.915 0.187123 -3.13542 0
M  V30 3108 H 284.108 -1.50574 -4.80982 0
M  V30 3109 H 283.71 -2.01315 -3.15195 0
M  V30 3110 H 286.002 -2.54686 -6.27807 0
M  V30 3111 H 286.945 -4.00635 -5.83864 0
M  V30 3112 H 287.353 -2.43192 -5.09429 0
M  V30 3113 N 286.751 1.08385 -1.14413 0
M  V30 3114 C 287.979 1.84517 -0.936001 0
M  V30 3115 C 288.394 1.81626 0.515503 0
M  V30 3116 O 287.751 1.22008 1.35721 0
M  V30 3117 C 287.802 3.32049 -1.42918 0
M  V30 3118 O 287.523 3.34951 -2.82381 0
M  V30 3119 C 289.024 4.24986 -1.26103 0
M  V30 3120 H 286.244 0.582491 -0.333084 0
M  V30 3121 H 288.788 1.36885 -1.5193 0
M  V30 3122 H 286.943 3.7707 -0.888641 0
M  V30 3123 H 287.357 4.27048 -3.04517 0
M  V30 3124 H 288.831 5.26615 -1.6547 0
M  V30 3125 H 289.308 4.38726 -0.20392 0
M  V30 3126 H 289.914 3.85791 -1.79012 0
M  V30 3127 N 288.23 0.939286 1.26551 0
M  V30 3128 C 289.178 0.43815 2.28436 0
M  V30 3129 C 290.172 -0.483587 1.62351 0
M  V30 3130 O 291.378 -0.362009 1.76322 0
M  V30 3131 H 287.753 0.123149 0.741848 0
M  V30 3132 H 289.724 1.31002 2.68106 0
M  V30 3133 C 288.473 -0.283052 3.46546 0
M  V30 3134 H 287.796 0.417043 3.97619 0
M  V30 3135 H 289.236 -0.597948 4.19763 0
M  V30 3136 C 287.695 -1.50018 3.01656 0
M  V30 3137 O 288.225 -2.59855 3.0633 0
M  V30 3138 N 286.431 -1.35608 2.57019 0
M  V30 3139 H 285.978 -0.46244 2.53415 0
M  V30 3140 H 285.936 -2.17165 2.27347 0
M  V30 3141 N 289.708 -1.40897 0.706093 0
M  V30 3142 C 290.64 -2.29199 0.00815776 0
M  V30 3143 C 291.653 -1.45336 -0.733582 0
M  V30 3144 O 292.842 -1.68727 -0.582537 0
M  V30 3145 C 289.942 -3.23417 -1.01265 0
M  V30 3146 C 289.115 -4.36089 -0.338387 0
M  V30 3147 C 288.174 -5.10811 -1.26326 0
M  V30 3148 O 287.2 -5.64215 -0.751651 0
M  V30 3149 N 288.402 -5.19269 -2.595 0
M  V30 3150 H 291.167 -2.89738 0.766297 0
M  V30 3151 H 288.728 -1.52164 0.55296 0
M  V30 3152 H 290.72 -3.70276 -1.63334 0
M  V30 3153 H 289.29 -2.64112 -1.67223 0
M  V30 3154 H 288.51 -3.91479 0.462352 0
M  V30 3155 H 289.798 -5.08634 0.130031 0
M  V30 3156 H 289.196 -4.77347 -3.03573 0
M  V30 3157 H 287.753 -5.69667 -3.16737 0
M  V30 3158 N 291.186 -0.45159 -1.50991 0
M  V30 3159 C 292.116 0.342898 -2.30969 0
M  V30 3160 C 293.097 1.00815 -1.37005 0
M  V30 3161 O 294.282 1.00907 -1.65926 0
M  V30 3162 C 291.412 1.43637 -3.16205 0
M  V30 3163 C 290.366 0.893818 -4.18563 0
M  V30 3164 C 289.692 2.08411 -4.92411 0
M  V30 3165 C 290.992 -0.0815568 -5.22236 0
M  V30 3166 H 292.686 -0.324556 -2.97636 0
M  V30 3167 H 290.232 -0.157531 -1.43136 0
M  V30 3168 H 292.185 1.9995 -3.70942 0
M  V30 3169 H 290.909 2.13232 -2.47386 0
M  V30 3170 H 289.568 0.352798 -3.64898 0
M  V30 3171 H 289.216 2.76658 -4.20082 0
M  V30 3172 H 288.916 1.72741 -5.61636 0
M  V30 3173 H 290.44 2.65251 -5.49976 0
M  V30 3174 H 291.854 0.391742 -5.7196 0
M  V30 3175 H 290.251 -0.351551 -5.99069 0
M  V30 3176 H 291.321 -1.01374 -4.74185 0
M  V30 3177 N 292.664 1.56529 -0.183458 0
M  V30 3178 C 293.91 1.97537 0.459036 0
M  V30 3179 C 294.243 1.06989 1.62071 0
M  V30 3180 O 293.518 0.11948 1.94133 0
M  V30 3181 C 293.801 3.47874 0.930368 0
M  V30 3182 C 293.654 4.492 -0.232317 0
M  V30 3183 C 294.973 4.01612 1.79989 0
M  V30 3184 H 292.092 0.718204 0.165383 0
M  V30 3185 H 294.734 1.88042 -0.272038 0
M  V30 3186 H 292.884 3.56095 1.55333 0
M  V30 3187 H 294.556 4.53027 -0.86972 0
M  V30 3188 H 292.799 4.24657 -0.885928 0
M  V30 3189 H 293.47 5.51823 0.139796 0
M  V30 3190 H 295.946 3.96097 1.27461 0
M  V30 3191 H 294.822 5.07195 2.09867 0
M  V30 3192 H 295.083 3.46163 2.74998 0
M  V30 3193 N 294.142 -0.090211 1.57342 0
M  V30 3194 C 295.419 -0.824761 1.77361 0
M  V30 3195 C 295.799 -1.96698 0.76637 0
M  V30 3196 O 295.147 -2.27586 -0.204179 0
M  V30 3197 C 295.357 -1.31481 3.23286 0
M  V30 3198 C 296.705 -1.75563 3.86604 0
M  V30 3199 O 297.729 -1.41093 3.27065 0
M  V30 3200 O 296.588 -2.39317 4.91314 0
M  V30 3201 H 293.682 -0.393776 0.727234 0
M  V30 3202 H 296.228 -0.0717138 1.69548 0
M  V30 3203 H 295 -0.496671 3.88135 0
M  V30 3204 H 294.623 -2.12973 3.35751 0
M  V30 3205 N 295.62 -1.53406 -0.361157 0
M  V30 3206 C 296.583 -1.79479 -1.42548 0
M  V30 3207 C 297.583 -0.665327 -1.4639 0
M  V30 3208 O 298.773 -0.933549 -1.47073 0
M  V30 3209 C 295.905 -1.92087 -2.8163 0
M  V30 3210 H 297.098 -2.74538 -1.20701 0
M  V30 3211 H 294.651 -1.4455 -0.594546 0
M  V30 3212 H 295.386 -0.991099 -3.08784 0
M  V30 3213 H 295.171 -2.74241 -2.80239 0
M  V30 3214 H 296.661 -2.13836 -3.58697 0
M  V30 3215 N 297.098 0.621204 -1.44841 0
M  V30 3216 C 298.028 1.74366 -1.55303 0
M  V30 3217 C 299.009 1.65199 -0.405385 0
M  V30 3218 O 300.194 1.83807 -0.626787 0
M  V30 3219 C 297.324 3.12931 -1.50637 0
M  V30 3220 C 296.278 3.36896 -2.63979 0
M  V30 3221 C 295.604 4.75594 -2.44366 0
M  V30 3222 C 296.904 3.28483 -4.06074 0
M  V30 3223 H 298.598 1.65867 -2.49256 0
M  V30 3224 H 296.144 0.796558 -1.19962 0
M  V30 3225 H 298.097 3.9124 -1.56555 0
M  V30 3226 H 296.821 3.22237 -0.532057 0
M  V30 3227 H 295.48 2.60972 -2.57467 0
M  V30 3228 H 295.128 4.81616 -1.45105 0
M  V30 3229 H 294.828 4.92586 -3.20364 0
M  V30 3230 H 296.352 5.5612 -2.52117 0
M  V30 3231 H 297.766 3.96684 -4.13902 0
M  V30 3232 H 296.163 3.57008 -4.82354 0
M  V30 3233 H 297.233 2.26133 -4.28943 0
M  V30 3234 N 298.576 1.31904 0.862503 0
M  V30 3235 C 299.804 1.24998 1.64873 0
M  V30 3236 C 300.219 -0.183425 1.87907 0
M  V30 3237 O 299.576 -1.11794 1.44251 0
M  V30 3238 C 299.627 1.99829 3.01248 0
M  V30 3239 O 299.348 3.37575 2.79239 0
M  V30 3240 C 300.849 1.99852 3.95694 0
M  V30 3241 H 298.069 0.431599 0.513773 0
M  V30 3242 H 300.613 1.73901 1.07604 0
M  V30 3243 H 298.768 1.54668 3.55185 0
M  V30 3244 H 299.182 3.75776 3.65914 0
M  V30 3245 H 300.656 2.56709 4.88676 0
M  V30 3246 H 301.133 0.982852 4.28062 0
M  V30 3247 H 301.739 2.44926 3.47694 0
M  V30 3248 N 300.054 -1.07777 1.14986 0
M  V30 3249 C 301.282 -1.84018 0.945773 0
M  V30 3250 C 301.697 -1.81897 -0.505863 0
M  V30 3251 O 301.054 -1.22726 -1.35072 0
M  V30 3252 C 301.105 -3.31287 1.44677 0
M  V30 3253 O 300.826 -3.33449 2.84154 0
M  V30 3254 C 302.327 -4.24311 1.28355 0
M  V30 3255 H 299.547 -0.580716 0.336169 0
M  V30 3256 H 302.091 -1.36077 1.52654 0
M  V30 3257 H 300.246 -3.76594 0.908625 0
M  V30 3258 H 300.66 -4.25427 3.06777 0
M  V30 3259 H 302.134 -5.2573 1.68261 0
M  V30 3260 H 302.611 -4.38612 0.227184 0
M  V30 3261 H 303.217 -3.84836 1.81056 0
M  V30 3262 N 301.532 -0.945985 -1.26051 0
M  V30 3263 C 302.778 -0.606539 -1.94146 0
M  V30 3264 C 303.133 0.84586 -1.72809 0
M  V30 3265 O 302.426 1.59781 -1.05738 0
M  V30 3266 C 302.62 -0.890475 -3.46129 0
M  V30 3267 C 302.449 -2.36892 -3.82246 0
M  V30 3268 C 301.219 -3.02494 -4.04753 0
M  V30 3269 C 303.417 -3.34772 -3.90425 0
M  V30 3270 N 301.399 -4.40302 -4.27794 0
M  V30 3271 C 302.77 -4.57855 -4.18054 0
M  V30 3272 C 304.825 -3.2973 -3.73072 0
M  V30 3273 C 303.528 -5.76522 -4.30134 0
M  V30 3274 C 305.554 -4.47727 -3.86386 0
M  V30 3275 C 304.916 -5.69593 -4.14419 0
M  V30 3276 H 301.015 -0.272407 -0.73302 0
M  V30 3277 H 303.599 -1.21638 -1.52027 0
M  V30 3278 H 301.77 -0.309638 -3.87164 0
M  V30 3279 H 303.502 -0.51181 -4.01451 0
M  V30 3280 H 300.257 -2.53095 -4.003 0
M  V30 3281 H 300.681 -5.11646 -4.43337 0
M  V30 3282 H 305.323 -2.36565 -3.50424 0
M  V30 3283 H 303.041 -6.70136 -4.51601 0
M  V30 3284 H 306.627 -4.45363 -3.74356 0
M  V30 3285 H 305.507 -6.59375 -4.24493 0
M  V30 3286 N 303.011 1.40521 -0.713556 0
M  V30 3287 C 303.943 2.29191 -0.0203126 0
M  V30 3288 C 304.956 1.45723 0.725864 0
M  V30 3289 O 306.145 1.69033 0.573581 0
M  V30 3290 C 303.245 3.2395 0.995486 0
M  V30 3291 C 302.418 4.36262 0.315256 0
M  V30 3292 C 301.477 5.11474 1.23616 0
M  V30 3293 O 300.503 5.64606 0.721719 0
M  V30 3294 N 301.705 5.20638 2.56743 0
M  V30 3295 H 304.47 2.89327 -0.781652 0
M  V30 3296 H 302.031 1.51869 -0.561022 0
M  V30 3297 H 304.023 3.71137 1.61368 0
M  V30 3298 H 302.593 2.64995 1.6582 0
M  V30 3299 H 301.813 3.91228 -0.483106 0
M  V30 3300 H 303.101 5.08558 -0.157004 0
M  V30 3301 H 302.499 4.7895 3.01037 0
M  V30 3302 H 301.056 5.71339 3.13712 0
M  V30 3303 N 304.489 0.459591 1.5075 0
M  V30 3304 C 305.437 -0.354678 2.2988 0
M  V30 3305 C 306.431 -1.00086 1.36672 0
M  V30 3306 O 307.637 -0.933277 1.53915 0
M  V30 3307 H 304.012 -0.13321 0.740107 0
M  V30 3308 H 305.983 0.333269 2.96533 0
M  V30 3309 C 304.732 -1.43073 3.169 0
M  V30 3310 H 304.055 -0.942882 3.88523 0
M  V30 3311 H 305.495 -1.97328 3.75284 0
M  V30 3312 C 303.954 -2.42633 2.33732 0
M  V30 3313 O 304.484 -3.47658 2.01238 0
M  V30 3314 N 302.69 -2.14066 1.9653 0
M  V30 3315 H 302.237 -1.28685 2.23155 0
M  V30 3316 H 302.195 -2.80917 1.41185 0
M  V30 3317 N 305.967 -1.56429 0.191757 0
M  V30 3318 C 306.914 -2.18936 -0.730454 0
M  V30 3319 C 307.884 -1.13557 -1.21219 0
M  V30 3320 O 309.069 -1.41794 -1.27668 0
M  V30 3321 C 306.209 -2.85013 -1.9458 0
M  V30 3322 C 305.322 -4.04909 -1.50574 0
M  V30 3323 C 304.457 -4.58853 -2.67634 0
M  V30 3324 C 303.496 -5.71114 -2.20217 0
M  V30 3325 N 302.633 -6.19478 -3.30442 0
M  V30 3326 H 307.473 -2.97389 -0.190664 0
M  V30 3327 H 305.01 -1.46869 -0.0823694 0
M  V30 3328 H 306.968 -3.21492 -2.65893 0
M  V30 3329 H 305.598 -2.09129 -2.45896 0
M  V30 3330 H 304.65 -3.74115 -0.688605 0
M  V30 3331 H 305.962 -4.86113 -1.11784 0
M  V30 3332 H 305.116 -4.97619 -3.47074 0
M  V30 3333 H 303.855 -3.76749 -3.09696 0
M  V30 3334 H 302.86 -5.31879 -1.3923 0
M  V30 3335 H 304.085 -6.55033 -1.79189 0
M  V30 3336 H 302.031 -5.40297 -3.72041 0
M  V30 3337 H 301.948 -6.95725 -2.9581 0
M  V30 3338 H 303.216 -6.62898 -4.10106 0
M  V30 3339 N 307.445 0.0818655 -1.57387 0
M  V30 3340 C 308.673 0.796108 -1.9097 0
M  V30 3341 C 309.088 1.71626 -0.786757 0
M  V30 3342 O 308.445 1.80908 0.240513 0
M  V30 3343 C 308.496 1.59829 -3.24248 0
M  V30 3344 O 308.217 0.715131 -4.32224 0
M  V30 3345 C 309.718 2.41442 -3.7178 0
M  V30 3346 H 306.938 0.22691 -0.631469 0
M  V30 3347 H 309.482 0.0551439 -2.04426 0
M  V30 3348 H 307.637 2.29163 -3.12351 0
M  V30 3349 H 308.051 1.27205 -5.08841 0
M  V30 3350 H 309.525 2.932 -4.67694 0
M  V30 3351 H 310.002 3.2051 -3.00283 0
M  V30 3352 H 310.608 1.77283 -3.86589 0
M  V30 3353 N 308.923 1.53595 0.353017 0
M  V30 3354 C 309.87 1.80919 1.43308 0
M  V30 3355 C 310.84 0.654288 1.5267 0
M  V30 3356 O 312.025 0.897759 1.6836 0
M  V30 3357 C 309.165 2.01605 2.80089 0
M  V30 3358 C 308.278 3.29321 2.79593 0
M  V30 3359 C 307.413 3.40125 4.0803 0
M  V30 3360 C 306.452 4.61826 4.01725 0
M  V30 3361 N 305.589 4.69716 5.21834 0
M  V30 3362 H 310.429 2.73074 1.19308 0
M  V30 3363 H 307.966 1.35263 0.578131 0
M  V30 3364 H 309.924 2.11586 3.59565 0
M  V30 3365 H 308.554 1.12772 3.0246 0
M  V30 3366 H 307.606 3.28229 1.92276 0
M  V30 3367 H 308.918 4.18884 2.70809 0
M  V30 3368 H 308.072 3.49488 4.95927 0
M  V30 3369 H 306.811 2.48601 4.19582 0
M  V30 3370 H 305.816 4.52552 3.12213 0
M  V30 3371 H 307.041 5.54705 3.91764 0
M  V30 3372 H 304.987 3.81097 5.33948 0
M  V30 3373 H 304.904 5.53202 5.1527 0
M  V30 3374 H 306.172 4.83376 6.11529 0
M  V30 3375 N 310.401 -0.613514 1.45168 0
M  V30 3376 C 311.364 -1.7065 1.53007 0
M  V30 3377 C 312.364 -1.5548 0.410184 0
M  V30 3378 O 313.554 -1.60656 0.673455 0
M  V30 3379 C 310.686 -3.09875 1.42093 0
M  V30 3380 H 311.879 -1.65068 2.50385 0
M  V30 3381 H 309.432 -0.828728 1.32521 0
M  V30 3382 H 310.167 -3.21039 0.458769 0
M  V30 3383 H 309.952 -3.22293 2.23315 0
M  V30 3384 H 311.442 -3.895 1.50598 0
M  V30 3385 N 311.879 -1.3236 -0.855495 0
M  V30 3386 C 312.829 -1.17809 -1.95205 0
M  V30 3387 C 313.813 -0.0852319 -1.60674 0
M  V30 3388 O 315.005 -0.311651 -1.74235 0
M  V30 3389 C 312.134 -0.902437 -3.31226 0
M  V30 3390 C 311.22 -2.03695 -3.7198 0
M  V30 3391 N 311.611 -3.28544 -3.84568 0
M  V30 3392 C 309.909 -1.93993 -4.016 0
M  V30 3393 C 310.61 -4.02847 -4.19629 0
M  V30 3394 N 309.586 -3.31138 -4.31102 0
M  V30 3395 H 313.388 -2.12462 -2.0307 0
M  V30 3396 H 310.902 -1.24127 -1.0472 0
M  V30 3397 H 312.899 -0.77915 -4.09554 0
M  V30 3398 H 311.559 0.0357267 -3.2468 0
M  V30 3399 H 312.57 -3.6349 -3.68911 0
M  V30 3400 H 309.247 -1.07733 -4.03361 0
M  V30 3401 H 310.637 -5.10506 -4.36845 0
M  V30 3402 N 313.357 1.07166 -1.15556 0
M  V30 3403 C 314.606 1.79181 -0.926132 0
M  V30 3404 C 314.919 1.87768 0.547967 0
M  V30 3405 O 316.125 2.56323 0.895036 0
M  V30 3406 C 314.581 3.22 -1.60761 0
M  V30 3407 C 314.189 3.21607 -3.11886 0
M  V30 3408 C 315.933 3.9861 -1.4598 0
M  V30 3409 C 313.84 4.59092 -3.72812 0
M  V30 3410 H 312.77 0.67154 -0.342856 0
M  V30 3411 H 315.421 1.2027 -1.3859 0
M  V30 3412 H 313.803 3.81115 -1.07553 0
M  V30 3413 H 314.977 2.72127 -3.71865 0
M  V30 3414 H 313.292 2.58495 -3.2645 0
M  V30 3415 H 315.889 5.00225 -1.88888 0
M  V30 3416 H 316.232 4.143 -0.407541 0
M  V30 3417 H 316.765 3.45996 -1.96295 0
M  V30 3418 H 313.504 4.48606 -4.77946 0
M  V30 3419 H 313.024 5.08803 -3.17616 0
M  V30 3420 H 314.703 5.28059 -3.73848 0
M  V30 3421 N 314.835 0.952656 1.25548 0
M  V30 3422 C 316.251 0.656769 1.4546 0
M  V30 3423 C 316.451 -0.78633 1.85524 0
M  V30 3424 O 315.507 -1.56183 1.98402 0
M  V30 3425 C 316.82 1.62801 2.52817 0
M  V30 3426 C 318.368 1.63897 2.66659 0
M  V30 3427 C 318.843 2.5978 3.77198 0
M  V30 3428 N 320.334 2.58133 3.84606 0
M  V30 3429 C 321.069 3.29003 4.69621 0
M  V30 3430 N 320.565 4.09339 5.58939 0
M  V30 3431 N 322.358 3.179 4.63569 0
M  V30 3432 H 314.509 1.88526 0.978344 0
M  V30 3433 H 316.772 0.810815 0.491206 0
M  V30 3434 H 316.478 2.65869 2.30232 0
M  V30 3435 H 316.352 1.38898 3.50695 0
M  V30 3436 H 318.739 0.615481 2.8861 0
M  V30 3437 H 318.82 1.91858 1.69187 0
M  V30 3438 H 318.464 3.62254 3.55997 0
M  V30 3439 H 318.394 2.29105 4.7415 0
M  V30 3440 H 320.885 1.99809 3.20757 0
M  V30 3441 H 321.198 4.6034 6.20731 0
M  V30 3442 H 319.543 4.13438 5.58654 0
M  V30 3443 H 322.734 2.54612 3.92798 0
M  V30 3444 H 322.907 3.73398 5.29602 0
M  V30 3445 N 316.313 -1.40141 0.720998 0
M  V30 3446 C 317.56 -2.00787 0.262842 0
M  V30 3447 C 317.888 -1.5718 -1.14563 0
M  V30 3448 O 317.143 -0.785391 -1.79249 0
M  V30 3449 C 317.442 -3.56165 0.296892 0
M  V30 3450 C 317.108 -4.19373 1.65641 0
M  V30 3451 C 315.77 -4.36352 2.02855 0
M  V30 3452 C 318.122 -4.54578 2.54968 0
M  V30 3453 C 315.45 -4.8582 3.28931 0
M  V30 3454 C 317.802 -5.05447 3.80402 0
M  V30 3455 C 316.466 -5.20635 4.17726 0
M  V30 3456 H 315.736 -0.734731 0.0961807 0
M  V30 3457 H 318.383 -1.67673 0.925093 0
M  V30 3458 H 316.688 -3.8922 -0.448932 0
M  V30 3459 H 318.385 -4.00929 -0.0755208 0
M  V30 3460 H 314.975 -4.06549 1.35704 0
M  V30 3461 H 319.159 -4.41091 2.27491 0
M  V30 3462 H 314.415 -4.95764 3.57811 0
M  V30 3463 H 318.589 -5.31663 4.49786 0
M  V30 3464 H 316.216 -5.58728 5.15487 0
M  V30 3465 N 317.792 -0.46758 -1.50504 0
M  V30 3466 C 318.739 0.328413 -2.28452 0
M  V30 3467 C 319.709 0.990313 -1.33349 0
M  V30 3468 O 320.894 1.00343 -1.62284 0
M  V30 3469 C 318.034 1.40648 -3.15138 0
M  V30 3470 C 317.147 0.759709 -4.25267 0
M  V30 3471 C 316.282 1.81537 -4.99217 0
M  V30 3472 C 315.321 1.14866 -6.01226 0
M  V30 3473 N 314.458 2.14702 -6.68467 0
M  V30 3474 H 319.298 -0.342603 -2.96024 0
M  V30 3475 H 316.835 -0.180801 -1.45985 0
M  V30 3476 H 318.793 2.04315 -3.63746 0
M  V30 3477 H 317.423 2.04671 -2.49619 0
M  V30 3478 H 316.475 0.0105671 -3.80399 0
M  V30 3479 H 317.787 0.233243 -4.98254 0
M  V30 3480 H 316.941 2.52793 -5.51526 0
M  V30 3481 H 315.68 2.37564 -4.25928 0
M  V30 3482 H 314.685 0.42171 -5.4818 0
M  V30 3483 H 315.91 0.595334 -6.76485 0
M  V30 3484 H 313.856 2.69752 -5.97972 0
M  V30 3485 H 313.773 1.6703 -7.37317 0
M  V30 3486 H 315.041 2.85348 -7.25394 0
M  V30 3487 N 319.27 1.56325 -0.20005 0
M  V30 3488 C 320.681 1.8408 0.31167 0
M  V30 3489 C 321.032 1.12087 1.61031 0
M  V30 3490 O 320.157 0.38332 2.12978 0
M  V30 3491 C 320.752 3.33932 0.57226 0
M  V30 3492 C 319.311 3.6208 1.02834 0
M  V30 3493 C 318.458 2.77186 0.079634 0
M  V30 3494 H 321.409 1.52939 -0.423729 0
M  V30 3495 H 321.43 3.52971 1.42096 0
M  V30 3496 H 320.942 3.86303 -0.37308 0
M  V30 3497 H 319.043 3.15147 1.98778 0
M  V30 3498 H 319.156 4.7023 0.917624 0
M  V30 3499 H 317.52 2.47951 0.582448 0
M  V30 3500 H 318.303 3.32347 -0.860238 0
M  V30 3501 N 320.748 -0.0735177 1.57428 0
M  V30 3502 C 321.976 -0.785969 1.9139 0
M  V30 3503 C 322.391 -1.71207 0.795847 0
M  V30 3504 O 321.748 -1.81033 -0.230915 0
M  V30 3505 C 321.799 -1.58107 3.25091 0
M  V30 3506 O 321.52 -0.6922 4.32597 0
M  V30 3507 C 323.021 -2.39467 3.73055 0
M  V30 3508 H 320.241 -0.223558 0.632663 0
M  V30 3509 H 322.785 -0.044302 2.04452 0
M  V30 3510 H 320.94 -2.27503 3.13562 0
M  V30 3511 H 321.354 -1.24504 5.09508 0
M  V30 3512 H 322.828 -2.90716 4.69242 0
M  V30 3513 H 323.305 -3.18913 3.01979 0
M  V30 3514 H 323.911 -1.7523 3.87523 0
M  V30 3515 N 322.226 -1.5378 -0.344866 0
M  V30 3516 C 323.156 -1.84662 -1.42906 0
M  V30 3517 C 324.137 -0.701648 -1.54955 0
M  V30 3518 O 325.322 -0.953438 -1.69184 0
M  V30 3519 C 322.452 -2.05503 -2.79974 0
M  V30 3520 C 321.406 -3.21318 -2.82734 0
M  V30 3521 C 320.732 -3.2749 -4.22675 0
M  V30 3522 C 322.032 -4.59456 -2.48389 0
M  V30 3523 H 323.726 -2.75461 -1.17311 0
M  V30 3524 H 321.272 -1.32542 -0.562896 0
M  V30 3525 H 323.225 -2.25691 -3.55867 0
M  V30 3526 H 321.949 -1.11434 -3.07002 0
M  V30 3527 H 320.608 -3.00984 -2.09294 0
M  V30 3528 H 320.256 -2.31019 -4.4681 0
M  V30 3529 H 319.956 -4.05316 -4.25433 0
M  V30 3530 H 321.48 -3.49887 -5.00412 0
M  V30 3531 H 322.894 -4.79667 -3.13995 0
M  V30 3532 H 321.291 -5.39675 -2.62432 0
M  V30 3533 H 322.361 -4.63155 -1.4358 0
M  V30 3534 N 323.704 0.605807 -1.45491 0
M  V30 3535 C 324.929 1.39625 -1.53361 0
M  V30 3536 C 325.354 1.87351 -0.167645 0
M  V30 3537 O 324.712 1.60243 0.848051 0
M  V30 3538 C 324.76 2.57559 -2.5238 0
M  V30 3539 O 323.864 3.58248 -2.04285 0
M  V30 3540 H 323.205 0.416771 -0.516912 0
M  V30 3541 H 325.735 0.737103 -1.90861 0
M  V30 3542 H 325.745 3.0478 -2.71244 0
M  V30 3543 H 324.42 2.22171 -3.51586 0
M  V30 3544 H 322.997 3.17664 -1.95305 0
M  V30 3545 N 325.182 1.32811 0.848464 0
M  V30 3546 C 326.114 1.18095 1.96433 0
M  V30 3547 C 327.127 0.114354 1.62398 0
M  V30 3548 O 328.316 0.363892 1.74751 0
M  V30 3549 C 325.416 0.786798 3.2964 0
M  V30 3550 C 324.589 1.943 3.91875 0
M  V30 3551 C 323.648 1.53138 5.03423 0
M  V30 3552 O 322.674 2.24432 5.23086 0
M  V30 3553 N 323.876 0.430915 5.78898 0
M  V30 3554 H 326.641 2.14218 2.09597 0
M  V30 3555 H 324.202 1.2543 1.02367 0
M  V30 3556 H 326.194 0.493715 4.01677 0
M  V30 3557 H 324.764 -0.0834541 3.12489 0
M  V30 3558 H 323.984 2.40224 3.12547 0
M  V30 3559 H 325.272 2.71689 4.30189 0
M  V30 3560 H 324.67 -0.162333 5.65467 0
M  V30 3561 H 323.227 0.197466 6.51501 0
M  V30 3562 N 326.66 -1.06551 1.16123 0
M  V30 3563 C 327.592 -2.13908 0.823171 0
M  V30 3564 C 328.605 -1.61926 -0.16843 0
M  V30 3565 O 329.794 -1.78412 0.055962 0
M  V30 3566 C 326.894 -3.38283 0.204424 0
M  V30 3567 C 326.067 -4.19589 1.23548 0
M  V30 3568 C 325.126 -5.2233 0.637011 0
M  V30 3569 O 324.152 -5.54034 1.30516 0
M  V30 3570 N 325.354 -5.77621 -0.577474 0
M  V30 3571 H 328.119 -2.43508 1.74711 0
M  V30 3572 H 325.68 -1.2253 1.05821 0
M  V30 3573 H 327.672 -4.0416 -0.208909 0
M  V30 3574 H 326.242 -3.06329 -0.623012 0
M  V30 3575 H 325.462 -3.49406 1.82507 0
M  V30 3576 H 326.75 -4.70718 1.93137 0
M  V30 3577 H 326.148 -5.54125 -1.13853 0
M  V30 3578 H 324.705 -6.45087 -0.933053 0
M  V30 3579 N 328.138 -0.959301 -1.25041 0
M  V30 3580 C 329.07 -0.440543 -2.24926 0
M  V30 3581 C 330.083 0.446131 -1.56568 0
M  V30 3582 O 331.272 0.253657 -1.76689 0
M  V30 3583 C 328.372 0.38412 -3.36716 0
M  V30 3584 C 327.545 -0.490658 -4.34639 0
M  V30 3585 C 326.604 0.276587 -5.25473 0
M  V30 3586 O 325.63 -0.326614 -5.68262 0
M  V30 3587 N 326.832 1.56844 -5.5891 0
M  V30 3588 H 329.597 -1.29931 -2.70071 0
M  V30 3589 H 327.158 -0.830181 -1.38995 0
M  V30 3590 H 329.15 0.905228 -3.94446 0
M  V30 3591 H 327.72 1.14377 -2.90924 0
M  V30 3592 H 326.94 -1.19282 -3.7572 0
M  V30 3593 H 328.228 -1.08756 -4.97041 0
M  V30 3594 H 327.626 2.08036 -5.26059 0
M  V30 3595 H 326.183 2.03541 -6.19205 0
M  V30 3596 N 329.616 1.39756 -0.72842 0
M  V30 3597 C 330.563 2.30647 -0.0841519 0
M  V30 3598 C 331.533 1.48869 0.7367 0
M  V30 3599 O 332.718 1.77574 0.698015 0
M  V30 3600 C 329.858 3.35165 0.822091 0
M  V30 3601 C 328.971 4.31999 -0.0106663 0
M  V30 3602 C 328.106 5.23585 0.896241 0
M  V30 3603 C 327.145 6.12072 0.0583381 0
M  V30 3604 N 326.282 6.96035 0.920818 0
M  V30 3605 H 331.122 2.85173 -0.864891 0
M  V30 3606 H 328.659 1.40422 -0.438179 0
M  V30 3607 H 330.617 3.94345 1.36189 0
M  V30 3608 H 329.247 2.8211 1.56888 0
M  V30 3609 H 328.299 3.74492 -0.66781 0
M  V30 3610 H 329.611 4.9443 -0.658825 0
M  V30 3611 H 328.765 5.87759 1.50412 0
M  V30 3612 H 327.504 4.61459 1.57819 0
M  V30 3613 H 326.509 5.46916 -0.562389 0
M  V30 3614 H 327.734 6.76261 -0.6203 0
M  V30 3615 H 325.68 6.36485 1.58818 0
M  V30 3616 H 325.597 7.55284 0.32899 0
M  V30 3617 H 326.865 7.64646 1.51447 0
M  V30 3618 N 331.094 0.475555 1.50254 0
M  V30 3619 C 332.319 -0.0777042 2.07254 0
M  V30 3620 C 332.744 -1.3235 1.3366 0
M  V30 3621 O 332.102 -1.77152 0.385597 0
M  V30 3622 C 332.15 -0.340169 3.58992 0
M  V30 3623 O 331.254 -1.41982 3.87188 0
M  V30 3624 H 330.595 0.0149556 0.663832 0
M  V30 3625 H 333.125 0.667878 1.93392 0
M  V30 3626 H 333.135 -0.579332 4.03866 0
M  V30 3627 H 331.81 0.570167 4.11973 0
M  V30 3628 H 330.387 -1.16762 3.54148 0
M  V30 3629 N 332.573 -1.56217 0.208337 0
M  V30 3630 C 333.984 -1.84243 -0.301904 0
M  V30 3631 C 334.335 -1.12939 -1.60434 0
M  V30 3632 O 333.46 -0.39461 -2.12772 0
M  V30 3633 C 334.055 -3.34231 -0.554543 0
M  V30 3634 C 332.614 -3.62621 -1.00912 0
M  V30 3635 C 331.761 -2.77224 -0.064933 0
M  V30 3636 H 334.712 -1.52712 0.431833 0
M  V30 3637 H 334.733 -3.5372 -1.40223 0
M  V30 3638 H 334.245 -3.86099 0.393561 0
M  V30 3639 H 332.346 -3.16197 -1.97104 0
M  V30 3640 H 332.459 -4.7071 -0.892674 0
M  V30 3641 H 330.823 -2.48256 -0.56929 0
M  V30 3642 H 331.606 -3.31887 0.877851 0
M  V30 3643 N 334.051 0.0651679 -1.57465 0
M  V30 3644 C 334.961 1.09448 -2.07505 0
M  V30 3645 C 335.977 1.41974 -1.00595 0
M  V30 3646 O 337.153 1.52018 -1.32107 0
M  V30 3647 C 334.218 2.38689 -2.51453 0
M  V30 3648 C 333.279 2.13073 -3.72691 0
M  V30 3649 C 332.512 3.36152 -4.14533 0
M  V30 3650 O 332.735 4.45517 -3.56189 0
M  V30 3651 O 331.669 3.23974 -5.07272 0
M  V30 3652 H 335.495 0.69935 -2.95538 0
M  V30 3653 H 333.08 0.279752 -1.46757 0
M  V30 3654 H 334.962 3.14736 -2.80212 0
M  V30 3655 H 333.637 2.77568 -1.66546 0
M  V30 3656 H 332.544 1.34709 -3.49005 0
M  V30 3657 H 333.877 1.79071 -4.5847 0
M  V30 3658 N 335.529 1.53961 0.336706 0
M  V30 3659 C 336.461 1.78751 1.4346 0
M  V30 3660 C 337.474 0.669019 1.48418 0
M  V30 3661 O 338.663 0.945884 1.51378 0
M  V30 3662 C 335.763 1.87844 2.82078 0
M  V30 3663 C 334.936 3.17854 3.00479 0
M  V30 3664 C 333.995 3.17816 4.19379 0
M  V30 3665 O 333.021 3.91511 4.13168 0
M  V30 3666 N 334.223 2.40669 5.2826 0
M  V30 3667 H 336.988 2.73493 1.22563 0
M  V30 3668 H 334.549 1.53096 0.526625 0
M  V30 3669 H 336.541 1.85261 3.59806 0
M  V30 3670 H 335.111 1.00257 2.96086 0
M  V30 3671 H 334.331 3.33504 2.10163 0
M  V30 3672 H 335.619 4.03718 3.0966 0
M  V30 3673 H 335.017 1.8036 5.36178 0
M  V30 3674 H 333.574 2.43877 6.04456 0
M  V30 3675 N 337.007 -0.598083 1.45811 0
M  V30 3676 C 337.939 -1.72231 1.51225 0
M  V30 3677 C 338.952 -1.57757 0.402059 0
M  V30 3678 O 340.141 -1.65464 0.669624 0
M  V30 3679 C 337.241 -3.10331 1.3619 0
M  V30 3680 C 336.414 -3.50955 2.61054 0
M  V30 3681 C 335.473 -4.68055 2.40439 0
M  V30 3682 O 334.499 -4.74691 3.14097 0
M  V30 3683 N 335.701 -5.61941 1.45612 0
M  V30 3684 H 338.466 -1.68046 2.48154 0
M  V30 3685 H 336.027 -0.783637 1.41671 0
M  V30 3686 H 338.019 -3.86439 1.20195 0
M  V30 3687 H 336.589 -3.0897 0.475015 0
M  V30 3688 H 335.809 -2.64711 2.92099 0
M  V30 3689 H 337.097 -3.74858 3.44034 0
M  V30 3690 H 336.495 -5.59301 0.848431 0
M  V30 3691 H 335.052 -6.37542 1.35585 0
M  V30 3692 N 338.485 -1.33259 -0.841409 0
M  V30 3693 C 339.395 -1.25332 -1.98316 0
M  V30 3694 C 340.411 -0.164364 -1.73222 0
M  V30 3695 O 341.587 -0.387486 -1.97637 0
M  V30 3696 C 338.652 -0.990078 -3.32262 0
M  V30 3697 C 337.713 -2.16879 -3.70489 0
M  V30 3698 C 336.946 -1.91801 -4.98044 0
M  V30 3699 O 337.169 -0.867075 -5.63771 0
M  V30 3700 O 336.103 -2.78267 -5.33714 0
M  V30 3701 H 339.929 -2.21344 -2.07944 0
M  V30 3702 H 337.514 -1.1328 -0.974058 0
M  V30 3703 H 339.396 -0.860321 -4.12524 0
M  V30 3704 H 338.071 -0.0602155 -3.23644 0
M  V30 3705 H 336.978 -2.35407 -2.90748 0
M  V30 3706 H 338.311 -3.0819 -3.8377 0
M  V30 3707 N 339.963 1.05934 -1.16686 0
M  V30 3708 C 341.191 1.8249 -0.974929 0
M  V30 3709 C 341.606 1.82679 0.476861 0
M  V30 3710 O 340.963 1.2486 1.33103 0
M  V30 3711 C 341.014 3.28943 -1.49929 0
M  V30 3712 O 340.735 3.28886 -2.89423 0
M  V30 3713 C 342.236 4.22215 -1.35089 0
M  V30 3714 H 339.456 0.575295 -0.345365 0
M  V30 3715 H 342 1.33631 -1.548 0
M  V30 3716 H 340.155 3.751 -0.968423 0
M  V30 3717 H 340.569 4.20493 -3.13506 0
M  V30 3718 H 342.043 5.22987 -1.76603 0
M  V30 3719 H 342.52 4.38195 -0.296935 0
M  V30 3720 H 343.126 3.81907 -1.87155 0
M  V30 3721 N 341.441 0.965919 1.2453 0
M  V30 3722 C 342.687 0.62776 1.92839 0
M  V30 3723 C 343.02 -0.834694 1.75347 0
M  V30 3724 O 342.295 -1.60031 1.10546 0
M  V30 3725 C 342.578 1.00109 3.45905 0
M  V30 3726 C 342.431 2.52011 3.72573 0
M  V30 3727 C 343.75 0.53435 4.36844 0
M  V30 3728 H 340.869 0.229537 0.700344 0
M  V30 3729 H 343.511 1.2046 1.46933 0
M  V30 3730 H 341.661 0.510238 3.85135 0
M  V30 3731 H 343.333 3.08559 3.42912 0
M  V30 3732 H 341.576 2.95287 3.17786 0
M  V30 3733 H 342.247 2.73183 4.79661 0
M  V30 3734 H 344.723 0.955565 4.04979 0
M  V30 3735 H 343.599 0.824152 5.42678 0
M  V30 3736 H 343.86 -0.565589 4.38467 0
M  V30 3737 N 342.919 -1.39368 0.735821 0
M  V30 3738 C 343.849 -2.33234 0.111506 0
M  V30 3739 C 344.83 -1.53954 -0.723334 0
M  V30 3740 O 346.015 -1.82344 -0.668147 0
M  V30 3741 C 343.145 -3.38057 -0.795917 0
M  V30 3742 C 342.099 -4.2795 -0.065172 0
M  V30 3743 C 341.425 -5.23479 -1.08967 0
M  V30 3744 C 342.725 -5.10741 1.09273 0
M  V30 3745 H 344.419 -2.85692 0.895571 0
M  V30 3746 H 341.965 -1.37364 0.432109 0
M  V30 3747 H 343.918 -4.02675 -1.24221 0
M  V30 3748 H 342.642 -2.8404 -1.61211 0
M  V30 3749 H 341.301 -3.64813 0.361511 0
M  V30 3750 H 340.949 -4.65758 -1.89944 0
M  V30 3751 H 340.649 -5.84472 -0.605489 0
M  V30 3752 H 342.173 -5.90974 -1.53565 0
M  V30 3753 H 343.587 -5.68699 0.724841 0
M  V30 3754 H 341.984 -5.8088 1.50659 0
M  V30 3755 H 343.054 -4.45525 1.91404 0
M  V30 3756 N 344.397 -0.483516 -1.5 0
M  V30 3757 C 345.674 0.129337 -1.95172 0
M  V30 3758 C 346.054 1.55802 -1.4244 0
M  V30 3759 O 345.402 2.19625 -0.630649 0
M  V30 3760 C 345.612 0.0599251 -3.48949 0
M  V30 3761 C 346.96 0.242617 -4.23906 0
M  V30 3762 O 347.984 0.135933 -3.55941 0
M  V30 3763 O 346.843 0.459454 -5.44565 0
M  V30 3764 H 343.937 0.104887 -0.820322 0
M  V30 3765 H 346.483 -0.544807 -1.60717 0
M  V30 3766 H 345.255 -0.937079 -3.79914 0
M  V30 3767 H 344.878 0.774984 -3.89974 0
M  V30 3768 N 345.875 1.56104 -0.216619 0
M  V30 3769 C 347.123 1.97781 0.415593 0
M  V30 3770 C 347.444 1.10536 1.60645 0
M  V30 3771 O 346.714 0.181303 1.95059 0
M  V30 3772 H 345.294 0.730415 0.156534 0
M  V30 3773 H 347.956 1.92445 -0.308366 0
M  V30 3774 H 347.052 3.03072 0.74525 0
M  V30 3775 N 347.353 -0.0568162 1.57498 0
M  V30 3776 C 348.301 -1.08452 2.05769 0
M  V30 3777 C 349.295 -1.39164 0.965903 0
M  V30 3778 O 350.501 -1.38395 1.15095 0
M  V30 3779 H 346.876 -0.367148 0.656282 0
M  V30 3780 H 348.847 -0.651368 2.91204 0
M  V30 3781 C 347.596 -2.38543 2.52968 0
M  V30 3782 H 346.919 -2.15765 3.36579 0
M  V30 3783 H 348.359 -3.08863 2.90481 0
M  V30 3784 C 346.818 -3.05562 1.41893 0
M  V30 3785 O 347.348 -3.94262 0.769442 0
M  V30 3786 N 345.554 -2.6643 1.16032 0
M  V30 3787 H 345.101 -1.94387 1.6903 0
M  V30 3788 H 345.059 -3.11593 0.419219 0
M  V30 3789 N 348.832 -1.54138 -0.328536 0
M  V30 3790 C 349.762 -1.86167 -1.40939 0
M  V30 3791 C 350.743 -0.718044 -1.54202 0
M  V30 3792 O 351.928 -0.971328 -1.68163 0
M  V30 3793 C 349.058 -2.08461 -2.77779 0
M  V30 3794 C 348.012 -3.24299 -2.7931 0
M  V30 3795 C 347.338 -3.31955 -4.19178 0
M  V30 3796 C 348.638 -4.62065 -2.43502 0
M  V30 3797 H 350.332 -2.76689 -1.14383 0
M  V30 3798 H 347.878 -1.33132 -0.548806 0
M  V30 3799 H 349.831 -2.29453 -3.53454 0
M  V30 3800 H 348.555 -1.14684 -3.05802 0
M  V30 3801 H 347.214 -3.03187 -2.0609 0
M  V30 3802 H 346.862 -2.35745 -4.44335 0
M  V30 3803 H 346.562 -4.09805 -4.2111 0
M  V30 3804 H 348.086 -3.55175 -4.96672 0
M  V30 3805 H 349.5 -4.8297 -3.08889 0
M  V30 3806 H 347.897 -5.42429 -2.56693 0
M  V30 3807 H 348.967 -4.64652 -1.38659 0
M  V30 3808 N 350.31 0.590341 -1.46126 0
M  V30 3809 C 351.559 1.34499 -1.50309 0
M  V30 3810 C 351.872 1.94977 -0.156021 0
M  V30 3811 O 353.078 2.71395 -0.0756037 0
M  V30 3812 C 351.534 2.43723 -2.64815 0
M  V30 3813 C 351.142 1.89582 -4.0591 0
M  V30 3814 C 352.886 3.20579 -2.78262 0
M  V30 3815 C 350.793 2.9639 -5.11769 0
M  V30 3816 H 349.723 0.505593 -0.559368 0
M  V30 3817 H 352.374 0.630848 -1.72315 0
M  V30 3818 H 350.756 3.17902 -2.36124 0
M  V30 3819 H 351.93 1.21997 -4.44357 0
M  V30 3820 H 350.245 1.25418 -3.97063 0
M  V30 3821 H 352.842 4.00276 -3.54519 0
M  V30 3822 H 353.185 3.72684 -1.85505 0
M  V30 3823 H 353.718 2.53505 -3.06562 0
M  V30 3824 H 350.457 2.49181 -6.06291 0
M  V30 3825 H 349.977 3.62487 -4.77873 0
M  V30 3826 H 351.656 3.60474 -5.37278 0
M  V30 3827 N 351.788 1.33704 0.83433 0
M  V30 3828 C 353.037 1.24763 1.58484 0
M  V30 3829 C 353.35 -0.183775 1.94735 0
M  V30 3830 O 354.556 -0.395234 2.68608 0
M  V30 3831 C 353.012 2.18638 2.85876 0
M  V30 3832 C 352.62 3.66974 2.56971 0
M  V30 3833 C 354.364 2.18581 3.63899 0
M  V30 3834 C 352.271 4.5275 3.80488 0
M  V30 3835 H 351.201 0.463425 0.594772 0
M  V30 3836 H 353.852 1.58797 0.919551 0
M  V30 3837 H 352.234 1.77542 3.5397 0
M  V30 3838 H 353.408 4.16538 1.9706 0
M  V30 3839 H 351.723 3.69366 1.92244 0
M  V30 3840 H 354.32 2.79894 4.55591 0
M  V30 3841 H 354.663 1.18207 3.99165 0
M  V30 3842 H 355.196 2.58062 3.02735 0
M  V30 3843 H 351.935 5.54017 3.5035 0
M  V30 3844 H 351.455 4.07927 4.39722 0
M  V30 3845 H 353.134 4.66784 4.4802 0
M  V30 3846 N 353.266 -1.05314 1.17247 0
M  V30 3847 C 354.682 -1.30452 0.919473 0
M  V30 3848 C 354.882 -1.9703 -0.42209 0
M  V30 3849 O 353.938 -2.24311 -1.15935 0
M  V30 3850 C 355.251 -2.17551 2.07586 0
M  V30 3851 C 356.799 -2.30937 2.11275 0
M  V30 3852 C 357.274 -3.21396 3.26296 0
M  V30 3853 N 358.765 -3.28981 3.26076 0
M  V30 3854 C 359.5 -3.99095 4.11716 0
M  V30 3855 N 358.996 -4.71648 5.07465 0
M  V30 3856 N 360.789 -3.95247 3.9967 0
M  V30 3857 H 352.94 -0.604988 2.03602 0
M  V30 3858 H 355.203 -0.329368 0.888944 0
M  V30 3859 H 354.909 -1.75921 3.0454 0
M  V30 3860 H 354.783 -3.18182 2.02584 0
M  V30 3861 H 357.17 -2.71809 1.14907 0
M  V30 3862 H 357.251 -1.2994 2.20339 0
M  V30 3863 H 356.895 -2.81238 4.22927 0
M  V30 3864 H 356.825 -4.22395 3.14467 0
M  V30 3865 H 359.316 -2.77286 2.5675 0
M  V30 3866 H 359.629 -5.22705 5.6921 0
M  V30 3867 H 357.974 -4.70594 5.11435 0
M  V30 3868 H 361.165 -3.37691 3.24164 0
M  V30 3869 H 361.338 -4.4962 4.66632 0
M  V30 3870 N 354.744 -0.972509 -1.24016 0
M  V30 3871 C 355.974 -0.653853 -1.9598 0
M  V30 3872 C 356.382 0.781801 -1.72292 0
M  V30 3873 O 355.725 1.53677 -1.00644 0
M  V30 3874 C 355.787 -0.854608 -3.49194 0
M  V30 3875 C 355.451 -2.27082 -3.96589 0
M  V30 3876 C 356.448 -3.24892 -4.05883 0
M  V30 3877 C 354.133 -2.5998 -4.29786 0
M  V30 3878 C 356.127 -4.53684 -4.47716 0
M  V30 3879 C 353.814 -3.88997 -4.71301 0
M  V30 3880 C 354.812 -4.85661 -4.80232 0
M  V30 3881 O 354.5 -6.12376 -5.20818 0
M  V30 3882 H 354.232 -0.242572 -0.630979 0
M  V30 3883 H 356.786 -1.30431 -1.58673 0
M  V30 3884 H 355.016 -0.146985 -3.86421 0
M  V30 3885 H 356.705 -0.534311 -4.02368 0
M  V30 3886 H 357.471 -3.00805 -3.80449 0
M  V30 3887 H 353.35 -1.85457 -4.22051 0
M  V30 3888 H 356.894 -5.29135 -4.54601 0
M  V30 3889 H 352.791 -4.12882 -4.96184 0
M  V30 3890 H 353.559 -6.16013 -5.38953 0
M  V30 3891 N 356.222 1.38976 -0.743202 0
M  V30 3892 C 357.499 1.94351 -0.220705 0
M  V30 3893 C 357.879 1.67935 1.2791 0
M  V30 3894 O 357.227 1.01211 2.04862 0
M  V30 3895 C 357.437 3.44426 -0.563171 0
M  V30 3896 C 358.785 4.2144 -0.517046 0
M  V30 3897 O 359.809 3.52661 -0.500846 0
M  V30 3898 O 358.668 5.44032 -0.518806 0
M  V30 3899 H 355.762 0.825879 -0.043047 0
M  V30 3900 H 358.308 1.48429 -0.822618 0
M  V30 3901 H 357.08 3.5712 -1.59941 0
M  V30 3902 H 356.703 3.97543 0.0672883 0
M  V30 3903 N 357.7 0.491464 1.49741 0
M  V30 3904 C 358.946 -0.0565092 2.02721 0
M  V30 3905 C 359.279 -1.37522 1.37118 0
M  V30 3906 O 358.554 -1.87866 0.503645 0
M  V30 3907 C 358.837 -0.219051 3.59433 0
M  V30 3908 C 358.69 1.12211 4.35579 0
M  V30 3909 C 360.009 -0.964157 4.29409 0
M  V30 3910 H 357.128 -0.0190627 0.736753 0
M  V30 3911 H 359.77 0.641021 1.7886 0
M  V30 3912 H 357.92 -0.813165 3.79895 0
M  V30 3913 H 359.592 1.75437 4.26637 0
M  V30 3914 H 357.835 1.71377 3.98513 0
M  V30 3915 H 358.506 0.961794 5.43556 0
M  V30 3916 H 360.982 -0.460378 4.13545 0
M  V30 3917 H 359.858 -1.04671 5.38828 0
M  V30 3918 H 360.119 -2.00563 3.93988 0
M  V30 3919 N 359.178 -1.55987 0.224894 0
M  V30 3920 C 360.455 -1.90232 -0.455083 0
M  V30 3921 C 360.835 -1.14269 -1.77499 0
M  V30 3922 O 360.183 -0.253079 -2.27094 0
M  V30 3923 C 360.393 -3.42993 -0.644758 0
M  V30 3924 C 361.741 -4.13821 -0.950669 0
M  V30 3925 O 362.765 -3.4861 -0.731423 0
M  V30 3926 O 361.624 -5.29128 -1.36695 0
M  V30 3927 H 358.718 -0.79108 -0.241084 0
M  V30 3928 H 361.264 -1.67581 0.267327 0
M  V30 3929 H 360.036 -3.90252 0.28613 0
M  V30 3930 H 359.659 -3.71434 -1.41853 0
M  V30 3931 N 360.656 0.0484629 -1.57525 0
M  V30 3932 C 362.072 0.40375 -1.54409 0
M  V30 3933 C 362.272 1.77786 -0.948384 0
M  V30 3934 O 361.328 2.46189 -0.560983 0
M  V30 3935 C 362.641 0.323394 -2.98956 0
M  V30 3936 C 364.189 0.401892 -3.10409 0
M  V30 3937 C 364.664 0.351195 -4.56652 0
M  V30 3938 N 366.155 0.410576 -4.61377 0
M  V30 3939 C 366.89 0.393933 -5.72045 0
M  V30 3940 N 366.386 0.330724 -6.9201 0
M  V30 3941 N 368.179 0.442227 -5.60358 0
M  V30 3942 H 360.33 -0.851016 -1.94606 0
M  V30 3943 H 362.593 -0.321721 -0.89174 0
M  V30 3944 H 362.299 -0.62011 -3.4619 0
M  V30 3945 H 362.173 1.12463 -3.60044 0
M  V30 3946 H 364.56 1.33582 -2.63134 0
M  V30 3947 H 364.641 -0.428342 -2.52188 0
M  V30 3948 H 364.285 -0.578987 -5.04589 0
M  V30 3949 H 364.215 1.19928 -5.12762 0
M  V30 3950 H 366.706 0.462729 -3.75056 0
M  V30 3951 H 367.019 0.322592 -7.72126 0
M  V30 3952 H 365.364 0.29706 -6.94365 0
M  V30 3953 H 368.555 0.489464 -4.65534 0
M  V30 3954 H 368.728 0.425788 -6.466 0
M  V30 3955 N 362.134 1.5431 0.320358 0
M  V30 3956 C 363.097 1.83195 1.3774 0
M  V30 3957 C 364.097 0.703906 1.44575 0
M  V30 3958 O 365.287 0.972214 1.44546 0
M  V30 3959 C 362.419 1.99487 2.76438 0
M  V30 3960 H 363.612 2.77642 1.1338 0
M  V30 3961 H 361.165 1.46076 0.556012 0
M  V30 3962 H 361.9 1.07262 3.06048 0
M  V30 3963 H 361.685 2.81575 2.7287 0
M  V30 3964 H 363.175 2.23271 3.52902 0
M  V30 3965 N 363.613 -0.582584 1.46437 0
M  V30 3966 C 364.862 -1.337 1.5102 0
M  V30 3967 C 365.175 -1.94891 0.166359 0
M  V30 3968 O 366.381 -2.71351 0.0899954 0
M  V30 3969 C 364.837 -2.42315 2.66104 0
M  V30 3970 C 364.445 -1.87427 4.06909 0
M  V30 3971 C 366.189 -3.19099 2.79958 0
M  V30 3972 C 364.096 -2.93672 5.13333 0
M  V30 3973 H 363.026 -0.502619 0.562041 0
M  V30 3974 H 365.677 -0.621701 1.72647 0
M  V30 3975 H 364.059 -3.16645 2.37807 0
M  V30 3976 H 365.233 -1.19639 4.44998 0
M  V30 3977 H 363.548 -1.2331 3.97723 0
M  V30 3978 H 366.145 -3.9839 3.56636 0
M  V30 3979 H 366.488 -3.71695 1.87479 0
M  V30 3980 H 367.021 -2.51875 3.07902 0
M  V30 3981 H 363.76 -2.45962 6.07604 0
M  V30 3982 H 363.28 -3.59948 4.79789 0
M  V30 3983 H 364.959 -3.5762 5.39182 0
M  V30 3984 N 365.091 -1.34144 -0.827227 0
M  V30 3985 C 366.316 -1.29476 -1.62021 0
M  V30 3986 C 366.741 0.129292 -1.87655 0
M  V30 3987 O 366.099 1.08967 -1.449 0
M  V30 3988 C 366.147 -2.08702 -2.94068 0
M  V30 3989 O 365.251 -1.45359 -3.85933 0
M  V30 3990 H 364.592 -0.444881 -0.492927 0
M  V30 3991 H 367.122 -1.76882 -1.02829 0
M  V30 3992 H 367.132 -2.19898 -3.43669 0
M  V30 3993 H 365.807 -3.12241 -2.74734 0
M  V30 3994 H 364.384 -1.42879 -3.44442 0
M  V30 3995 N 366.569 1.04691 -1.17803 0
M  V30 3996 C 367.817 1.7743 -0.967617 0
M  V30 3997 C 368.138 1.88359 0.504574 0
M  V30 3998 O 367.408 1.40402 1.36617 0
M  V30 3999 H 365.988 0.657242 -0.355024 0
M  V30 4000 H 368.65 1.2638 -1.48371 0
M  V30 4001 H 367.746 2.78924 -1.40027 0
M  V30 4002 N 368.047 0.979072 1.23499 0
M  V30 4003 C 369.295 0.645941 1.91499 0
M  V30 4004 C 369.616 -0.822948 1.76784 0
M  V30 4005 O 368.886 -1.58854 1.14639 0
M  V30 4006 H 367.466 0.235919 0.708767 0
M  V30 4007 H 370.128 1.2426 1.50152 0
M  V30 4008 H 369.224 0.896411 2.9895 0
M  V30 4009 N 369.525 -1.3858 0.750561 0
M  V30 4010 C 370.75 -2.04997 0.314812 0
M  V30 4011 C 371.175 -1.56235 -1.04749 0
M  V30 4012 O 370.533 -0.712981 -1.66692 0
M  V30 4013 C 370.581 -3.58961 0.343415 0
M  V30 4014 O 369.685 -4.07025 -0.663628 0
M  V30 4015 H 369.026 -0.649081 0.139962 0
M  V30 4016 H 371.556 -1.77313 1.02084 0
M  V30 4017 H 371.566 -4.07542 0.193233 0
M  V30 4018 H 370.241 -3.93811 1.33738 0
M  V30 4019 H 368.818 -3.6982 -0.478307 0
M  V30 4020 N 371.003 -0.499398 -1.49478 0
M  V30 4021 C 372.252 0.0475259 -2.01644 0
M  V30 4022 C 372.565 1.38195 -1.38425 0
M  V30 4023 O 373.771 2.01547 -1.8191 0
M  V30 4024 C 372.227 0.135164 -3.59646 0
M  V30 4025 C 371.835 -1.19252 -4.31837 0
M  V30 4026 C 373.579 0.632538 -4.19761 0
M  V30 4027 C 371.486 -1.06713 -5.81693 0
M  V30 4028 H 370.416 0.0215349 -0.753692 0
M  V30 4029 H 373.067 -0.638577 -1.7203 0
M  V30 4030 H 371.449 0.885681 -3.85969 0
M  V30 4031 H 372.623 -1.9562 -4.17216 0
M  V30 4032 H 370.938 -1.62321 -3.83459 0
M  V30 4033 H 373.535 0.743833 -5.29501 0
M  V30 4034 H 373.878 1.63098 -3.83021 0
M  V30 4035 H 374.411 -0.0613987 -3.97753 0
M  V30 4036 H 371.15 -2.03979 -6.22955 0
M  V30 4037 H 370.67 -0.344307 -5.98811 0
M  V30 4038 H 372.349 -0.745208 -6.42694 0
M  V30 4039 N 372.481 1.55866 -0.233164 0
M  V30 4040 C 373.413 2.18099 0.704668 0
M  V30 4041 C 374.426 1.15334 1.14899 0
M  V30 4042 O 375.615 1.42262 1.07814 0
M  V30 4043 C 372.715 2.7592 1.96777 0
M  V30 4044 C 371.888 4.03969 1.67713 0
M  V30 4045 C 370.947 4.46242 2.78845 0
M  V30 4046 O 369.973 5.12903 2.46818 0
M  V30 4047 N 371.175 4.12886 4.08051 0
M  V30 4048 H 373.94 2.99205 0.172258 0
M  V30 4049 H 371.501 1.61815 -0.0525945 0
M  V30 4050 H 373.493 3.01165 2.70337 0
M  V30 4051 H 372.063 1.99051 2.41034 0
M  V30 4052 H 371.283 3.86459 0.777391 0
M  V30 4053 H 372.571 4.8748 1.4574 0
M  V30 4054 H 371.969 3.59342 4.3691 0
M  V30 4055 H 370.526 4.42997 4.78118 0
M  V30 4056 N 373.959 -0.0401083 1.57549 0
M  V30 4057 C 375.208 -0.732108 1.87944 0
M  V30 4058 C 375.521 -1.77107 0.830206 0
M  V30 4059 O 376.727 -2.51488 1.02302 0
M  V30 4060 C 375.183 -1.35315 3.33494 0
M  V30 4061 C 374.791 -0.351105 4.46622 0
M  V30 4062 C 376.535 -2.02566 3.73051 0
M  V30 4063 C 374.442 -0.979859 5.83226 0
M  V30 4064 H 373.372 -0.277188 0.701201 0
M  V30 4065 H 376.023 0.0138501 1.83495 0
M  V30 4066 H 374.405 -2.14844 3.32653 0
M  V30 4067 H 375.579 0.416674 4.58912 0
M  V30 4068 H 373.894 0.218708 4.15825 0
M  V30 4069 H 376.491 -2.50441 4.72423 0
M  V30 4070 H 376.834 -2.83904 3.04474 0
M  V30 4071 H 377.367 -1.29827 3.76018 0
M  V30 4072 H 374.106 -0.206135 6.55176 0
M  V30 4073 H 373.626 -1.71774 5.74677 0
M  V30 4074 H 375.305 -1.49046 6.29599 0
M  V30 4075 N 375.437 -1.54477 -0.31217 0
M  V30 4076 C 376.347 -1.87695 -1.4074 0
M  V30 4077 C 377.363 -0.769975 -1.56036 0
M  V30 4078 O 378.539 -1.06537 -1.70915 0
M  V30 4079 C 375.604 -2.10755 -2.75287 0
M  V30 4080 C 374.665 -3.34514 -2.69071 0
M  V30 4081 C 373.898 -3.56465 -3.97201 0
M  V30 4082 O 374.121 -2.81637 -4.96021 0
M  V30 4083 O 373.055 -4.49964 -3.9977 0
M  V30 4084 H 376.881 -2.80849 -1.15574 0
M  V30 4085 H 374.466 -1.40526 -0.507228 0
M  V30 4086 H 376.348 -2.27188 -3.54913 0
M  V30 4087 H 375.023 -1.20788 -3.0032 0
M  V30 4088 H 373.93 -3.23456 -1.87955 0
M  V30 4089 H 375.263 -4.24575 -2.48992 0
M  V30 4090 N 376.915 0.57481 -1.46744 0
M  V30 4091 C 377.863 1.70435 -1.58286 0
M  V30 4092 C 378.857 1.63287 -0.450956 0
M  V30 4093 O 380.063 1.68685 -0.628121 0
M  V30 4094 H 376.438 0.56364 -0.497809 0
M  V30 4095 H 378.409 1.57833 -2.53242 0
M  V30 4096 C 377.158 3.08815 -1.59776 0
M  V30 4097 H 376.481 3.1499 -2.46214 0
M  V30 4098 H 377.921 3.87588 -1.71905 0
M  V30 4099 C 376.38 3.35301 -0.327812 0
M  V30 4100 O 376.91 3.97511 0.57861 0
M  V30 4101 N 375.116 2.89816 -0.213274 0
M  V30 4102 H 374.663 2.39371 -0.951798 0
M  V30 4103 H 374.621 3.0791 0.63553 0
M  V30 4104 N 378.394 1.34581 0.820102 0
M  V30 4105 C 379.642 1.26845 1.57336 0
M  V30 4106 C 379.963 -0.160667 1.94337 0
M  V30 4107 O 379.233 -1.09396 1.6251 0
M  V30 4108 H 377.813 0.466514 0.583415 0
M  V30 4109 H 380.475 1.68526 0.979027 0
M  V30 4110 H 379.571 1.87513 2.4949 0
M  V30 4111 N 379.872 -1.04064 1.18357 0
M  V30 4112 C 381.102 -1.80654 1.00238 0
M  V30 4113 C 381.51 -1.83713 -0.452362 0
M  V30 4114 O 380.853 -1.27135 -1.32599 0
M  V30 4115 C 380.915 -3.27582 1.48088 0
M  V30 4116 C 380.579 -3.48184 2.96002 0
M  V30 4117 C 381.576 -3.39372 3.93856 0
M  V30 4118 C 379.261 -3.7478 3.34433 0
M  V30 4119 C 381.255 -3.5686 5.28138 0
M  V30 4120 C 378.942 -3.91915 4.68877 0
M  V30 4121 C 379.94 -3.82956 5.65539 0
M  V30 4122 O 379.628 -3.996 6.97549 0
M  V30 4123 H 379.36 -0.575751 0.354241 0
M  V30 4124 H 381.914 -1.32044 1.57333 0
M  V30 4125 H 380.144 -3.77161 0.853588 0
M  V30 4126 H 381.833 -3.8573 1.2636 0
M  V30 4127 H 382.599 -3.18789 3.65511 0
M  V30 4128 H 378.478 -3.80852 2.59756 0
M  V30 4129 H 382.022 -3.49783 6.03571 0
M  V30 4130 H 377.919 -4.11992 4.96923 0
M  V30 4131 H 378.687 -4.1676 7.04452 0
M  V30 4132 N 381.35 -0.985608 -1.22978 0
M  V30 4133 C 382.597 -0.657386 -1.91532 0
M  V30 4134 C 382.925 0.809707 -1.76845 0
M  V30 4135 O 382.18 1.60021 -1.12658 0
M  V30 4136 C 382.479 -1.00014 -3.43121 0
M  V30 4137 C 382.145 -2.4583 -3.77993 0
M  V30 4138 C 380.807 -2.85679 -3.87222 0
M  V30 4139 C 383.159 -3.40378 -3.94705 0
M  V30 4140 C 380.487 -4.19081 -4.10595 0
M  V30 4141 C 382.839 -4.73429 -4.1958 0
M  V30 4142 C 381.503 -5.1303 -4.27032 0
M  V30 4143 H 380.773 -0.240555 -0.700867 0
M  V30 4144 H 383.42 -1.24044 -1.45895 0
M  V30 4145 H 381.725 -0.335072 -3.90365 0
M  V30 4146 H 383.422 -0.724322 -3.94404 0
M  V30 4147 H 380.012 -2.13939 -3.71387 0
M  V30 4148 H 384.196 -3.10766 -3.8696 0
M  V30 4149 H 379.452 -4.49362 -4.14589 0
M  V30 4150 H 383.626 -5.46644 -4.31455 0
M  V30 4151 H 381.253 -6.16418 -4.44896 0
M  V30 4152 N 382.828 1.3818 -0.7579 0
M  V30 4153 C 384.074 2.00316 -0.316453 0
M  V30 4154 C 384.407 1.60026 1.10025 0
M  V30 4155 O 383.682 0.839835 1.75434 0
M  V30 4156 C 383.965 3.57349 -0.444245 0
M  V30 4157 C 383.818 4.07591 -1.90236 0
M  V30 4158 C 385.137 4.3981 0.1598 0
M  V30 4159 H 382.256 0.727741 -0.116459 0
M  V30 4160 H 384.898 1.6406 -0.958352 0
M  V30 4161 H 383.048 3.88365 0.102233 0
M  V30 4162 H 384.72 3.87199 -2.50748 0
M  V30 4163 H 382.963 3.60297 -2.41595 0
M  V30 4164 H 383.634 5.16677 -1.94291 0
M  V30 4165 H 386.11 4.14971 -0.306314 0
M  V30 4166 H 384.986 5.48885 0.0401675 0
M  V30 4167 H 385.247 4.24102 1.24859 0
M  V30 4168 N 384.306 0.507319 1.49211 0
M  V30 4169 C 385.256 -0.287112 2.26185 0
M  V30 4170 C 386.24 -0.929983 1.31302 0
M  V30 4171 O 387.432 -0.836538 1.55984 0
M  V30 4172 C 384.561 -1.34718 3.15763 0
M  V30 4173 C 383.647 -0.710235 4.18111 0
M  V30 4174 N 384.038 0.190836 5.0544 0
M  V30 4175 C 382.336 -0.97009 4.35322 0
M  V30 4176 C 383.037 0.55606 5.79036 0
M  V30 4177 N 382.013 -0.0775232 5.43545 0
M  V30 4178 H 385.815 0.406445 2.91076 0
M  V30 4179 H 383.329 0.323814 1.59139 0
M  V30 4180 H 385.326 -1.92982 3.69545 0
M  V30 4181 H 383.986 -2.04235 2.52424 0
M  V30 4182 H 384.997 0.562047 5.14841 0
M  V30 4183 H 381.674 -1.65753 3.83187 0
M  V30 4184 H 383.064 1.2936 6.5933 0
M  V30 4185 N 385.784 -1.5574 0.241426 0
M  V30 4186 C 387.014 -2.02913 -0.38857 0
M  V30 4187 C 387.422 -1.12014 -1.52478 0
M  V30 4188 O 386.765 -0.125903 -1.83268 0
M  V30 4189 C 386.827 -3.4636 -0.963075 0
M  V30 4190 C 386.491 -4.56982 0.0401916 0
M  V30 4191 C 387.488 -5.12941 0.847766 0
M  V30 4192 C 385.173 -5.0203 0.164699 0
M  V30 4193 C 387.167 -6.12437 1.76636 0
M  V30 4194 C 384.854 -6.01358 1.0868 0
M  V30 4195 C 385.852 -6.5644 1.88616 0
M  V30 4196 O 385.54 -7.53831 2.79273 0
M  V30 4197 H 385.272 -0.668983 -0.0971452 0
M  V30 4198 H 387.826 -2.02198 0.361248 0
M  V30 4199 H 386.056 -3.44206 -1.76235 0
M  V30 4200 H 387.745 -3.77065 -1.50257 0
M  V30 4201 H 388.511 -4.78974 0.762133 0
M  V30 4202 H 384.39 -4.58824 -0.447411 0
M  V30 4203 H 387.934 -6.55355 2.39071 0
M  V30 4204 H 383.831 -6.34746 1.17338 0
M  V30 4205 H 384.599 -7.71428 2.73572 0
M  V30 4206 N 387.262 0.0317525 -1.57568 0
M  V30 4207 C 388.509 0.723104 -1.89149 0
M  V30 4208 C 388.837 1.75504 -0.838377 0
M  V30 4209 O 388.092 1.95037 0.160982 0
M  V30 4210 C 388.391 1.43167 -3.27472 0
M  V30 4211 C 388.057 0.535972 -4.47703 0
M  V30 4212 C 386.719 0.289262 -4.8033 0
M  V30 4213 C 389.071 -0.0826125 -5.21135 0
M  V30 4214 C 386.399 -0.584853 -5.83778 0
M  V30 4215 C 388.751 -0.944414 -6.25511 0
M  V30 4216 C 387.415 -1.20061 -6.56614 0
M  V30 4217 H 386.685 0.264602 -0.692146 0
M  V30 4218 H 389.332 -0.0169496 -1.91492 0
M  V30 4219 H 387.637 2.24497 -3.21105 0
M  V30 4220 H 389.334 1.97209 -3.49155 0
M  V30 4221 H 385.924 0.738414 -4.22191 0
M  V30 4222 H 390.108 0.0950302 -4.96209 0
M  V30 4223 H 385.364 -0.79168 -6.06253 0
M  V30 4224 H 389.538 -1.43026 -6.81554 0
M  V30 4225 H 387.165 -1.87967 -7.36595 0
M  V30 4226 N 388.74 1.54641 0.303973 0
M  V30 4227 C 389.703 1.84646 1.35789 0
M  V30 4228 C 390.703 0.7192 1.4382 0
M  V30 4229 O 391.893 0.987491 1.43507 0
M  V30 4230 C 389.025 2.02407 2.74307 0
M  V30 4231 H 390.218 2.78829 1.10429 0
M  V30 4232 H 387.771 1.46658 0.540487 0
M  V30 4233 H 388.506 1.10502 3.04893 0
M  V30 4234 H 388.291 2.84453 2.69868 0
M  V30 4235 H 389.781 2.27002 3.50514 0
M  V30 4236 N 390.218 -0.567019 1.47046 0
M  V30 4237 C 391.629 -1.14916 1.47143 0
M  V30 4238 C 391.98 -1.94954 0.220767 0
M  V30 4239 O 391.105 -2.05602 -0.67505 0
M  V30 4240 C 391.7 -2.09069 2.666 0
M  V30 4241 C 390.259 -2.62575 2.69687 0
M  V30 4242 C 389.406 -1.38755 2.40088 0
M  V30 4243 H 392.357 -0.354126 1.54699 0
M  V30 4244 H 392.378 -2.92789 2.43011 0
M  V30 4245 H 391.89 -1.50789 3.57609 0
M  V30 4246 H 389.991 -3.24681 1.82792 0
M  V30 4247 H 390.104 -3.04239 3.70102 0
M  V30 4248 H 388.468 -1.69098 1.90468 0
M  V30 4249 H 389.251 -0.822822 3.33293 0
M  V30 4250 N 391.696 -1.35014 -0.812953 0
M  V30 4251 C 392.606 -1.2951 -1.95613 0
M  V30 4252 C 393.622 -0.20107 -1.72834 0
M  V30 4253 O 394.798 -0.42932 -1.96771 0
M  V30 4254 C 391.863 -1.06033 -3.30088 0
M  V30 4255 C 390.924 -2.24688 -3.65805 0
M  V30 4256 C 390.157 -2.02322 -4.93864 0
M  V30 4257 O 390.38 -0.986464 -5.61805 0
M  V30 4258 O 389.314 -2.89525 -5.27692 0
M  V30 4259 H 393.14 -2.25705 -2.03202 0
M  V30 4260 H 390.725 -1.15321 -0.949811 0
M  V30 4261 H 392.607 -0.94763 -4.10607 0
M  V30 4262 H 391.282 -0.128852 -3.23443 0
M  V30 4263 H 390.189 -2.41521 -2.85689 0
M  V30 4264 H 391.522 -3.16261 -3.77147 0
M  V30 4265 N 393.175 1.03435 -1.18907 0
M  V30 4266 C 394.423 1.76394 -0.986382 0
M  V30 4267 C 394.744 1.88883 0.484567 0
M  V30 4268 O 394.014 1.41843 1.3512 0
M  V30 4269 H 392.594 0.65344 -0.361975 0
M  V30 4270 H 395.256 1.248 -1.49703 0
M  V30 4271 H 394.352 2.77424 -1.42978 0
M  V30 4272 N 394.653 0.992116 1.22453 0
M  V30 4273 C 395.583 0.561677 2.26644 0
M  V30 4274 C 396.564 -0.411055 1.65059 0
M  V30 4275 O 397.749 -0.301861 1.9184 0
M  V30 4276 C 394.879 -0.125247 3.47074 0
M  V30 4277 C 393.833 0.765948 4.21091 0
M  V30 4278 C 393.159 -0.0538484 5.34673 0
M  V30 4279 C 394.459 2.06242 4.79856 0
M  V30 4280 H 396.153 1.43259 2.62902 0
M  V30 4281 H 393.699 0.690283 1.26377 0
M  V30 4282 H 395.652 -0.437764 4.1912 0
M  V30 4283 H 394.376 -1.03069 3.0991 0
M  V30 4284 H 393.035 1.0621 3.50878 0
M  V30 4285 H 392.683 -0.960188 4.9375 0
M  V30 4286 H 392.383 0.539415 5.85119 0
M  V30 4287 H 393.907 -0.360477 6.09535 0
M  V30 4288 H 395.321 1.8139 5.43848 0
M  V30 4289 H 393.718 2.60444 5.40638 0
M  V30 4290 H 394.788 2.74167 3.99951 0
M  V30 4291 N 396.131 -1.37776 0.765217 0
M  V30 4292 C 397.359 -2.04124 0.337767 0
M  V30 4293 C 397.774 -1.57715 -1.03785 0
M  V30 4294 O 397.131 -0.755447 -1.6613 0
M  V30 4295 C 397.182 -3.59658 0.364442 0
M  V30 4296 O 396.903 -4.04367 1.68579 0
M  V30 4297 C 398.404 -4.43236 -0.0754221 0
M  V30 4298 H 395.624 -0.655696 0.142491 0
M  V30 4299 H 398.168 -1.76238 1.03732 0
M  V30 4300 H 396.323 -3.86339 -0.286471 0
M  V30 4301 H 396.737 -4.98857 1.61993 0
M  V30 4302 H 398.211 -5.52 -0.00560067 0
M  V30 4303 H 398.688 -4.2455 -1.12491 0
M  V30 4304 H 399.294 -4.21767 0.547055 0
M  V30 4305 N 397.609 -0.515225 -1.4894 0
M  V30 4306 C 398.837 0.0206034 -2.0689 0
M  V30 4307 C 399.252 1.29514 -1.37374 0
M  V30 4308 O 398.609 1.76698 -0.456529 0
M  V30 4309 C 398.66 0.26351 -3.60538 0
M  V30 4310 O 398.381 -0.960517 -4.27441 0
M  V30 4311 C 399.882 0.841383 -4.35242 0
M  V30 4312 H 397.102 -0.0268608 -0.670462 0
M  V30 4313 H 399.646 -0.716651 -1.91532 0
M  V30 4314 H 397.801 0.950777 -3.75552 0
M  V30 4315 H 398.215 -0.73212 -5.19365 0
M  V30 4316 H 399.689 0.96085 -5.43573 0
M  V30 4317 H 400.166 1.8427 -3.98674 0
M  V30 4318 H 400.772 0.191143 -4.2487 0
M  V30 4319 N 399.087 1.5561 -0.249682 0
M  V30 4320 C 400.02 2.17537 0.689408 0
M  V30 4321 C 400.998 1.12829 1.17083 0
M  V30 4322 O 402.182 1.41229 1.24846 0
M  V30 4323 C 399.309 2.77828 1.93725 0
M  V30 4324 C 398.355 3.95615 1.59346 0
M  V30 4325 S 399.188 5.30988 0.69367 0
M  V30 4326 C 400.344 5.94734 1.95046 0
M  V30 4327 H 400.577 2.96852 0.163142 0
M  V30 4328 H 398.11 1.54362 -0.0341166 0
M  V30 4329 H 400.068 3.13199 2.65361 0
M  V30 4330 H 398.729 1.98454 2.43465 0
M  V30 4331 H 397.922 4.364 2.52132 0
M  V30 4332 H 397.524 3.61535 0.957512 0
M  V30 4333 H 399.816 6.12419 2.89739 0
M  V30 4334 H 400.759 6.90109 1.58604 0
M  V30 4335 H 401.167 5.23832 2.10381 0
M  V30 4336 N 400.565 -0.0233959 1.57583 0
M  V30 4337 C 401.976 -0.56927 1.77809 0
M  V30 4338 C 402.327 -1.75284 0.881472 0
M  V30 4339 O 401.452 -2.1626 0.0777805 0
M  V30 4340 C 402.047 -1.03949 3.22459 0
M  V30 4341 C 400.606 -1.53084 3.43864 0
M  V30 4342 C 399.753 -0.471454 2.73263 0
M  V30 4343 H 402.704 0.202825 1.57399 0
M  V30 4344 H 402.725 -1.90661 3.29285 0
M  V30 4345 H 402.237 -0.177865 3.87692 0
M  V30 4346 H 400.338 -2.41414 2.83814 0
M  V30 4347 H 400.451 -1.57443 4.52491 0
M  V30 4348 H 398.815 -0.927788 2.37201 0
M  V30 4349 H 399.598 0.380808 3.41181 0
M  V30 4350 N 402.043 -1.548 -0.295768 0
M  V30 4351 C 402.99 -1.86113 -1.36494 0
M  V30 4352 C 403.96 -0.7105 -1.50137 0
M  V30 4353 O 405.145 -0.959626 -1.64912 0
M  V30 4354 C 402.285 -2.11861 -2.72413 0
M  V30 4355 C 401.398 -3.39471 -2.67177 0
M  V30 4356 C 400.533 -3.55035 -3.95125 0
M  V30 4357 C 399.572 -4.76418 -3.84308 0
M  V30 4358 N 398.709 -4.8876 -5.04042 0
M  V30 4359 H 403.549 -2.77314 -1.09091 0
M  V30 4360 H 401.086 -1.37315 -0.52753 0
M  V30 4361 H 403.044 -2.24786 -3.51464 0
M  V30 4362 H 401.674 -1.2392 -2.98066 0
M  V30 4363 H 400.726 -3.35139 -1.79962 0
M  V30 4364 H 402.038 -4.28646 -2.55076 0
M  V30 4365 H 401.192 -3.67653 -4.82614 0
M  V30 4366 H 399.931 -2.64002 -4.10066 0
M  V30 4367 H 398.936 -4.63827 -2.95202 0
M  V30 4368 H 400.161 -5.68863 -3.70906 0
M  V30 4369 H 398.107 -4.00652 -5.19436 0
M  V30 4370 H 398.024 -5.71945 -4.94384 0
M  V30 4371 H 399.292 -5.0574 -5.93167 0
M  V30 4372 N 403.521 0.559213 -1.47345 0
M  V30 4373 C 404.469 1.68747 -1.60085 0
M  V30 4374 C 405.463 1.628 -0.46825 0
M  V30 4375 O 406.669 1.68009 -0.645977 0
M  V30 4376 H 403.044 0.558329 -0.503759 0
M  V30 4377 H 405.015 1.55138 -2.54902 0
M  V30 4378 C 403.764 3.07103 -1.63042 0
M  V30 4379 H 403.087 3.12361 -2.49541 0
M  V30 4380 H 404.527 3.85743 -1.76006 0
M  V30 4381 C 402.986 3.34935 -0.363357 0
M  V30 4382 O 403.516 3.98102 0.536416 0
M  V30 4383 N 401.722 2.89574 -0.244 0
M  V30 4384 H 401.269 2.38348 -0.977133 0
M  V30 4385 H 401.227 3.08566 0.602836 0
M  V30 4386 N 404.999 1.35443 0.805782 0
M  V30 4387 C 406.245 1.28952 1.56522 0
M  V30 4388 C 406.578 -0.135597 1.93726 0
M  V30 4389 O 405.853 -1.08516 1.61414 0
M  V30 4390 C 406.136 2.19678 2.85331 0
M  V30 4391 C 405.989 3.7081 2.54598 0
M  V30 4392 C 407.308 2.09495 3.8704 0
M  V30 4393 H 404.427 0.469764 0.567883 0
M  V30 4394 H 407.069 1.65851 0.927001 0
M  V30 4395 H 405.219 1.8834 3.39795 0
M  V30 4396 H 406.891 4.12593 2.06312 0
M  V30 4397 H 405.134 3.91051 1.8778 0
M  V30 4398 H 405.805 4.29679 3.46525 0
M  V30 4399 H 408.281 2.37045 3.41978 0
M  V30 4400 H 407.157 2.75173 4.74943 0
M  V30 4401 H 407.418 1.07714 4.28777 0
M  V30 4402 N 406.477 -1.02803 1.19454 0
M  V30 4403 C 407.723 -1.76478 0.999171 0
M  V30 4404 C 408.056 -1.88456 -0.468828 0
M  V30 4405 O 407.331 -1.40198 -1.34814 0
M  V30 4406 C 407.614 -3.19044 1.66981 0
M  V30 4407 C 407.467 -3.14932 3.21151 0
M  V30 4408 C 408.786 -4.17456 1.39349 0
M  V30 4409 H 405.905 -0.640614 0.364393 0
M  V30 4410 H 408.547 -1.20005 1.47305 0
M  V30 4411 H 406.697 -3.67263 1.2669 0
M  V30 4412 H 408.369 -2.74605 3.70661 0
M  V30 4413 H 406.612 -2.52625 3.52652 0
M  V30 4414 H 407.283 -4.1566 3.63223 0
M  V30 4415 H 409.759 -3.77842 1.74283 0
M  V30 4416 H 408.635 -5.154 1.88823 0
M  V30 4417 H 408.896 -4.40949 0.318813 0
M  V30 4418 N 407.956 -0.998596 -1.21925 0
M  V30 4419 C 409.203 -0.677663 -1.90824 0
M  V30 4420 C 409.531 0.790905 -1.77693 0
M  V30 4421 O 408.786 1.58817 -1.14349 0
M  V30 4422 C 409.085 -1.03648 -3.42041 0
M  V30 4423 C 408.751 -2.49825 -3.75364 0
M  V30 4424 C 407.413 -2.8977 -3.8417 0
M  V30 4425 C 409.765 -3.44545 -3.91073 0
M  V30 4426 C 407.093 -4.23412 -4.06127 0
M  V30 4427 C 409.445 -4.77853 -4.14535 0
M  V30 4428 C 408.109 -5.17531 -4.21566 0
M  V30 4429 H 407.379 -0.247975 -0.698276 0
M  V30 4430 H 410.026 -1.25584 -1.44571 0
M  V30 4431 H 408.331 -0.376457 -3.89987 0
M  V30 4432 H 410.028 -0.766113 -3.93614 0
M  V30 4433 H 406.618 -2.17866 -3.69097 0
M  V30 4434 H 410.802 -3.14853 -3.83642 0
M  V30 4435 H 406.058 -4.53734 -4.09799 0
M  V30 4436 H 410.232 -5.51189 -4.25633 0
M  V30 4437 H 407.859 -6.21102 -4.38333 0
M  V30 4438 N 409.434 1.37368 -0.772513 0
M  V30 4439 C 410.68 1.99969 -0.337681 0
M  V30 4440 C 411.013 1.61184 1.08321 0
M  V30 4441 O 410.288 0.858395 1.74533 0
M  V30 4442 C 410.571 3.56858 -0.482121 0
M  V30 4443 C 410.424 4.0555 -1.94549 0
M  V30 4444 C 411.743 4.39955 0.113143 0
M  V30 4445 H 408.862 0.726464 -0.124171 0
M  V30 4446 H 411.504 1.63034 -0.975699 0
M  V30 4447 H 409.654 3.88452 0.0610361 0
M  V30 4448 H 411.326 3.84518 -2.54841 0
M  V30 4449 H 409.569 3.57715 -2.45403 0
M  V30 4450 H 410.24 5.14587 -1.9976 0
M  V30 4451 H 412.716 4.14623 -0.35031 0
M  V30 4452 H 411.592 5.48897 -0.0180514 0
M  V30 4453 H 411.853 4.25403 1.20354 0
M  V30 4454 N 410.912 0.523116 1.48665 0
M  V30 4455 C 412.161 -0.01544 2.01694 0
M  V30 4456 C 412.474 -1.35975 1.40606 0
M  V30 4457 O 413.68 -1.98627 1.85093 0
M  V30 4458 C 412.136 -0.0779303 3.59816 0
M  V30 4459 C 411.744 1.26107 4.29885 0
M  V30 4460 C 413.488 -0.565678 4.20714 0
M  V30 4461 C 411.395 1.15954 5.79921 0
M  V30 4462 H 410.325 -0.00954163 0.75394 0
M  V30 4463 H 412.976 0.665865 1.70993 0
M  V30 4464 H 411.358 -0.824165 3.87329 0
M  V30 4465 H 412.532 2.02233 4.14051 0
M  V30 4466 H 410.847 1.68401 3.80828 0
M  V30 4467 H 413.444 -0.6595 5.30617 0
M  V30 4468 H 413.787 -1.56984 3.85567 0
M  V30 4469 H 414.32 0.12467 3.97605 0
M  V30 4470 H 411.059 2.13864 6.19631 0
M  V30 4471 H 410.579 0.439529 5.98187 0
M  V30 4472 H 412.258 0.847361 6.41427 0
M  V30 4473 N 412.39 -1.55475 0.257931 0
M  V30 4474 C 413.667 -1.91155 -0.414629 0
M  V30 4475 C 414.047 -1.18008 -1.75035 0
M  V30 4476 O 413.395 -0.301193 -2.26506 0
M  V30 4477 C 413.605 -3.44283 -0.571859 0
M  V30 4478 C 414.953 -4.15744 -0.862678 0
M  V30 4479 O 415.977 -3.50083 -0.657314 0
M  V30 4480 O 414.836 -5.31909 -1.2544 0
M  V30 4481 H 411.93 -0.796016 -0.22425 0
M  V30 4482 H 414.476 -1.66976 0.302814 0
M  V30 4483 H 413.248 -3.89558 0.368844 0
M  V30 4484 H 412.871 -3.7436 -1.33943 0
M  V30 4485 N 413.868 0.0150385 -1.57593 0
M  V30 4486 C 414.815 1.01126 -2.07466 0
M  V30 4487 C 415.785 1.35064 -0.966794 0
M  V30 4488 O 416.97 1.4516 -1.23827 0
M  V30 4489 C 414.11 2.30276 -2.57035 0
M  V30 4490 C 413.223 2.02373 -3.81666 0
M  V30 4491 C 412.358 3.25496 -4.19793 0
M  V30 4492 C 411.397 2.93211 -5.37303 0
M  V30 4493 N 410.534 4.08826 -5.70794 0
M  V30 4494 H 415.374 0.57901 -2.92321 0
M  V30 4495 H 412.911 0.27426 -1.44521 0
M  V30 4496 H 414.869 3.05757 -2.83846 0
M  V30 4497 H 413.499 2.71197 -1.75077 0
M  V30 4498 H 412.551 1.17327 -3.61854 0
M  V30 4499 H 413.863 1.74567 -4.67256 0
M  V30 4500 H 413.017 4.09333 -4.47807 0
M  V30 4501 H 411.756 3.56428 -3.32882 0
M  V30 4502 H 410.761 2.07777 -5.09027 0
M  V30 4503 H 411.986 2.63542 -6.25877 0
M  V30 4504 H 409.932 4.39682 -4.86842 0
M  V30 4505 H 409.849 3.84491 -6.50924 0
M  V30 4506 H 411.117 4.93496 -6.03392 0
M  V30 4507 N 415.346 1.54954 0.287554 0
M  V30 4508 C 416.571 1.79209 1.04397 0
M  V30 4509 C 416.996 0.556431 1.79682 0
M  V30 4510 O 416.354 -0.493518 1.74454 0
M  V30 4511 C 416.402 3.00739 1.98969 0
M  V30 4512 O 415.506 2.74805 3.075 0
M  V30 4513 H 414.847 0.592755 0.299227 0
M  V30 4514 H 417.377 2.02068 0.320886 0
M  V30 4515 H 417.387 3.29077 2.4119 0
M  V30 4516 H 416.062 3.90329 1.43582 0
M  V30 4517 H 414.639 2.57523 2.69697 0
M  V30 4518 N 416.824 -0.551391 1.4764 0
M  V30 4519 C 418.072 -1.30572 1.54258 0
M  V30 4520 C 418.393 -1.93877 0.208963 0
M  V30 4521 O 417.663 -1.80234 -0.767619 0
M  V30 4522 H 416.243 -0.484894 0.568231 0
M  V30 4523 H 418.905 -0.643402 1.83974 0
M  V30 4524 H 418.001 -2.09621 2.31226 0
M  V30 4525 N 418.302 -1.35869 -0.798587 0
M  V30 4526 C 419.527 -1.32883 -1.59238 0
M  V30 4527 C 419.952 0.0894587 -1.87887 0
M  V30 4528 O 419.31 1.05869 -1.47178 0
M  V30 4529 C 419.358 -2.14892 -2.89575 0
M  V30 4530 O 418.462 -1.53512 -3.82763 0
M  V30 4531 H 417.803 -0.455236 -0.48338 0
M  V30 4532 H 420.333 -1.79024 -0.990539 0
M  V30 4533 H 420.343 -2.27139 -3.38928 0
M  V30 4534 H 419.018 -3.17998 -2.68049 0
M  V30 4535 H 417.595 -1.50153 -3.41334 0
M  V30 4536 N 419.78 1.02168 -1.19998 0
M  V30 4537 C 420.713 2.10232 -0.887558 0
M  V30 4538 C 421.691 1.61827 0.158317 0
M  V30 4539 O 422.875 1.88471 0.0330249 0
M  V30 4540 C 420.002 3.37092 -0.32964 0
M  V30 4541 C 419.048 4.0438 -1.3557 0
M  V30 4542 S 419.881 4.48956 -2.91888 0
M  V30 4543 C 421.037 5.79024 -2.37658 0
M  V30 4544 H 421.27 2.36409 -1.80272 0
M  V30 4545 H 418.803 1.15211 -1.0279 0
M  V30 4546 H 420.761 4.10498 -0.0142824 0
M  V30 4547 H 419.422 3.08996 0.563941 0
M  V30 4548 H 418.615 4.95632 -0.9146 0
M  V30 4549 H 418.217 3.37176 -1.61828 0
M  V30 4550 H 420.509 6.53942 -1.77103 0
M  V30 4551 H 421.452 6.27924 -3.27287 0
M  V30 4552 H 421.86 5.35043 -1.79971 0
M  V30 4553 N 421.258 1.00505 1.21394 0
M  V30 4554 C 422.483 0.706367 1.95001 0
M  V30 4555 C 422.908 -0.72463 1.73582 0
M  V30 4556 O 422.266 -1.49702 1.0227 0
M  V30 4557 C 422.314 1.03299 3.45487 0
M  V30 4558 O 421.418 0.138275 4.12168 0
M  V30 4559 H 420.759 0.263175 0.609619 0
M  V30 4560 H 423.289 1.34531 1.54151 0
M  V30 4561 H 423.299 0.979872 3.96059 0
M  V30 4562 H 421.974 2.07567 3.60401 0
M  V30 4563 H 420.551 0.247928 3.72075 0
M  V30 4564 N 422.737 -1.36956 0.779787 0
M  V30 4565 C 423.985 -1.99097 0.347079 0
M  V30 4566 C 424.306 -1.62206 -1.08232 0
M  V30 4567 O 423.576 -0.891373 -1.74446 0
M  V30 4568 H 422.156 -0.736409 0.125342 0
M  V30 4569 H 424.818 -1.67308 0.999696 0
M  V30 4570 H 423.914 -3.09107 0.431162 0
M  V30 4571 N 424.215 -0.530993 -1.48385 0
M  V30 4572 C 425.631 -0.188919 -1.58478 0
M  V30 4573 C 425.831 1.30786 -1.53288 0
M  V30 4574 O 424.887 2.08619 -1.42248 0
M  V30 4575 C 426.2 -0.792343 -2.90073 0
M  V30 4576 C 427.748 -0.76117 -3.03604 0
M  V30 4577 C 428.223 -1.34319 -4.37861 0
M  V30 4578 N 429.714 -1.3052 -4.44431 0
M  V30 4579 C 430.449 -1.72543 -5.46824 0
M  V30 4580 N 429.945 -2.22299 -6.56167 0
M  V30 4581 N 431.738 -1.63773 -5.37712 0
M  V30 4582 H 423.889 -1.50377 -1.50002 0
M  V30 4583 H 426.152 -0.625559 -0.712306 0
M  V30 4584 H 425.858 -1.84323 -2.99529 0
M  V30 4585 H 425.732 -0.270026 -3.76232 0
M  V30 4586 H 428.119 0.280957 -2.93759 0
M  V30 4587 H 428.2 -1.32097 -2.19053 0
M  V30 4588 H 427.844 -2.38425 -4.4846 0
M  V30 4589 H 427.774 -0.759064 -5.21101 0
M  V30 4590 H 430.265 -0.940973 -3.65997 0
M  V30 4591 H 430.578 -2.52356 -7.30436 0
M  V30 4592 H 428.923 -2.26293 -6.57127 0
M  V30 4593 H 432.114 -1.24698 -4.51185 0
M  V30 4594 H 432.287 -1.96844 -6.17379 0
M  V30 4595 N 425.693 1.55336 -0.266172 0
M  V30 4596 C 426.64 2.22172 0.625165 0
M  V30 4597 C 427.61 1.19211 1.15663 0
M  V30 4598 O 428.795 1.47723 1.20758 0
M  V30 4599 C 425.935 2.93972 1.8076 0
M  V30 4600 C 425.048 4.11632 1.31084 0
M  V30 4601 C 424.183 4.71099 2.45436 0
M  V30 4602 C 423.222 5.8097 1.92718 0
M  V30 4603 N 422.359 6.34538 3.00509 0
M  V30 4604 H 427.199 2.9796 0.0485582 0
M  V30 4605 H 424.736 1.47095 0.0122024 0
M  V30 4606 H 426.694 3.33811 2.50251 0
M  V30 4607 H 425.324 2.20623 2.35638 0
M  V30 4608 H 424.376 3.76975 0.509326 0
M  V30 4609 H 425.688 4.90893 0.884633 0
M  V30 4610 H 424.842 5.13612 3.22936 0
M  V30 4611 H 423.581 3.91096 2.91368 0
M  V30 4612 H 422.586 5.37916 1.13695 0
M  V30 4613 H 423.811 6.62836 1.47733 0
M  V30 4614 H 421.757 5.57433 3.45839 0
M  V30 4615 H 421.674 7.09046 2.62279 0
M  V30 4616 H 422.942 6.81709 3.78011 0
M  V30 4617 N 427.171 -0.0066808 1.57599 0
M  V30 4618 C 428.42 -0.692078 1.89455 0
M  V30 4619 C 428.733 -1.75306 0.867586 0
M  V30 4620 O 429.939 -2.49262 1.07614 0
M  V30 4621 C 428.395 -1.2821 3.36289 0
M  V30 4622 C 428.003 -0.256291 4.47266 0
M  V30 4623 C 429.747 -1.94608 3.77264 0
M  V30 4624 C 427.654 -0.855927 5.85173 0
M  V30 4625 H 426.584 -0.262252 0.706923 0
M  V30 4626 H 429.235 0.052769 1.83424 0
M  V30 4627 H 427.617 -2.0774 3.37135 0
M  V30 4628 H 428.791 0.513923 4.57925 0
M  V30 4629 H 427.106 0.306862 4.15268 0
M  V30 4630 H 429.703 -2.40364 4.77629 0
M  V30 4631 H 430.046 -2.77382 3.10427 0
M  V30 4632 H 430.579 -1.21822 3.78688 0
M  V30 4633 H 427.318 -0.0671161 6.55466 0
M  V30 4634 H 426.838 -1.59546 5.78191 0
M  V30 4635 H 428.517 -1.35658 6.32618 0
M  V30 4636 N 428.649 -1.55105 -0.279332 0
M  V30 4637 C 429.581 -1.83952 -1.36727 0
M  V30 4638 C 430.594 -0.723642 -1.45833 0
M  V30 4639 O 431.783 -1.00141 -1.47763 0
M  V30 4640 C 428.883 -1.98183 -2.74912 0
M  V30 4641 C 428.056 -3.28787 -2.88475 0
M  V30 4642 C 427.115 -3.33162 -4.07295 0
M  V30 4643 O 426.141 -4.06576 -3.98353 0
M  V30 4644 N 427.343 -2.60109 -5.18964 0
M  V30 4645 H 430.108 -2.77853 -1.12328 0
M  V30 4646 H 427.669 -1.54945 -0.469442 0
M  V30 4647 H 429.661 -1.98488 -3.52682 0
M  V30 4648 H 428.231 -1.11177 -2.92162 0
M  V30 4649 H 427.451 -3.41075 -1.97641 0
M  V30 4650 H 428.739 -4.14933 -2.94463 0
M  V30 4651 H 428.137 -2.00136 -5.29115 0
M  V30 4652 H 426.694 -2.66143 -5.94988 0
M  V30 4653 N 430.127 0.543554 -1.4793 0
M  V30 4654 C 431.059 1.665 -1.57513 0
M  V30 4655 C 432.072 1.56156 -0.460333 0
M  V30 4656 O 433.261 1.62865 -0.730573 0
M  V30 4657 C 430.361 3.05063 -1.47614 0
M  V30 4658 C 429.534 3.41024 -2.739 0
M  V30 4659 C 428.593 4.58809 -2.57645 0
M  V30 4660 O 427.619 4.62707 -3.31498 0
M  V30 4661 N 428.821 5.56149 -1.66368 0
M  V30 4662 H 431.586 1.5872 -2.5422 0
M  V30 4663 H 429.147 0.730517 -1.44482 0
M  V30 4664 H 431.139 3.81712 -1.34455 0
M  V30 4665 H 429.709 3.06994 -0.589359 0
M  V30 4666 H 428.929 2.53687 -3.01723 0
M  V30 4667 H 430.217 3.61831 -3.57709 0
M  V30 4668 H 429.615 5.55767 -1.05543 0
M  V30 4669 H 428.172 6.32071 -1.59154 0
M  V30 4670 N 431.605 1.3629 0.791371 0
M  V30 4671 C 432.833 1.33562 1.58016 0
M  V30 4672 C 433.248 -0.0835616 1.88615 0
M  V30 4673 O 432.605 -1.0399 1.49974 0
M  V30 4674 C 432.656 2.15517 2.90232 0
M  V30 4675 O 432.377 3.51902 2.60953 0
M  V30 4676 C 433.878 2.20546 3.84544 0
M  V30 4677 H 431.098 0.458226 0.490173 0
M  V30 4678 H 433.642 1.79361 0.982345 0
M  V30 4679 H 431.797 1.73278 3.46487 0
M  V30 4680 H 432.211 3.94644 3.4548 0
M  V30 4681 H 433.685 2.82252 4.74382 0
M  V30 4682 H 434.162 1.20838 4.2225 0
M  V30 4683 H 434.768 2.63013 3.34222 0
M  V30 4684 N 433.083 -1.0153 1.20538 0
M  V30 4685 C 434.499 -1.27461 0.96051 0
M  V30 4686 C 434.699 -1.98273 -0.359193 0
M  V30 4687 O 433.755 -2.27886 -1.0874 0
M  V30 4688 C 435.068 -2.10837 2.14402 0
M  V30 4689 C 436.616 -2.24099 2.18515 0
M  V30 4690 C 437.091 -3.10852 3.36355 0
M  V30 4691 N 438.582 -3.18441 3.36377 0
M  V30 4692 C 439.317 -3.85795 4.24205 0
M  V30 4693 N 438.813 -4.55264 5.22213 0
M  V30 4694 N 440.606 -3.82331 4.12043 0
M  V30 4695 H 432.757 -0.539907 2.05423 0
M  V30 4696 H 435.02 -0.30092 0.898972 0
M  V30 4697 H 434.726 -1.66144 3.09983 0
M  V30 4698 H 434.6 -3.11576 2.12604 0
M  V30 4699 H 436.987 -2.68016 1.23497 0
M  V30 4700 H 437.068 -1.22865 2.24361 0
M  V30 4701 H 436.712 -2.6764 4.31661 0
M  V30 4702 H 436.642 -4.12177 3.27746 0
M  V30 4703 H 439.133 -2.68978 2.65442 0
M  V30 4704 H 439.446 -5.04331 5.85551 0
M  V30 4705 H 437.791 -4.54085 5.26148 0
M  V30 4706 H 440.982 -3.27207 3.34743 0
M  V30 4707 H 441.155 -4.34547 4.807 0
M  V30 4708 N 434.561 -1.01147 -1.20859 0
M  V30 4709 C 435.471 -0.58686 -2.27141 0
M  V30 4710 C 436.487 0.373198 -1.69951 0
M  V30 4711 O 437.663 0.235423 -2.00019 0
M  V30 4712 C 434.728 0.0733602 -3.46622 0
M  V30 4713 C 433.789 -0.931995 -4.19061 0
M  V30 4714 C 433.022 -0.303186 -5.32838 0
M  V30 4715 O 433.245 0.898395 -5.63281 0
M  V30 4716 O 432.179 -1.01735 -5.9324 0
M  V30 4717 H 436.005 -1.47155 -2.65667 0
M  V30 4718 H 433.59 -0.780689 -1.2738 0
M  V30 4719 H 435.472 0.442333 -4.19072 0
M  V30 4720 H 434.147 0.932329 -3.09983 0
M  V30 4721 H 433.054 -1.35224 -3.48805 0
M  V30 4722 H 434.387 -1.76076 -4.59628 0
M  V30 4723 N 436.039 1.36541 -0.78704 0
M  V30 4724 C 437.002 2.28413 -0.189778 0
M  V30 4725 C 438.002 1.48719 0.611499 0
M  V30 4726 O 439.192 1.68737 0.432842 0
M  V30 4727 C 436.324 3.32824 0.737638 0
M  V30 4728 H 437.517 2.82743 -0.999831 0
M  V30 4729 H 435.07 1.46065 -0.556298 0
M  V30 4730 H 435.805 2.83646 1.57212 0
M  V30 4731 H 435.59 3.91752 0.165044 0
M  V30 4732 H 437.08 4.0144 1.15047 0
M  V30 4733 N 437.518 0.538854 1.48102 0
M  V30 4734 C 438.448 -0.207654 2.32575 0
M  V30 4735 C 439.429 -0.926559 1.4265 0
M  V30 4736 O 440.614 -0.91061 1.71527 0
M  V30 4737 C 437.744 -1.24957 3.24042 0
M  V30 4738 C 436.698 -0.648263 4.23062 0
M  V30 4739 C 436.024 -1.79348 5.03725 0
M  V30 4740 C 437.324 0.385897 5.20872 0
M  V30 4741 H 439.018 0.497534 2.95237 0
M  V30 4742 H 436.564 0.240715 1.41974 0
M  V30 4743 H 438.517 -1.77983 3.81969 0
M  V30 4744 H 437.241 -1.98446 2.59397 0
M  V30 4745 H 435.9 -0.139452 3.66335 0
M  V30 4746 H 435.548 -2.51696 4.35498 0
M  V30 4747 H 435.248 -1.39702 5.70751 0
M  V30 4748 H 436.772 -2.32735 5.64506 0
M  V30 4749 H 438.186 -0.057607 5.73271 0
M  V30 4750 H 436.583 0.700227 5.96001 0
M  V30 4751 H 437.653 1.28848 4.67468 0
M  V30 4752 N 438.996 -1.55193 0.274407 0
M  V30 4753 C 440.245 -1.98758 -0.343213 0
M  V30 4754 C 440.558 -1.16624 -1.5703 0
M  V30 4755 O 441.764 -1.5033 -2.26082 0
M  V30 4756 C 440.22 -3.53759 -0.661996 0
M  V30 4757 C 439.828 -4.4467 0.54524 0
M  V30 4758 C 441.572 -4.05916 -1.24228 0
M  V30 4759 C 439.479 -5.91058 0.201084 0
M  V30 4760 H 438.409 -0.742353 -0.132014 0
M  V30 4761 H 441.06 -1.79545 0.378948 0
M  V30 4762 H 439.442 -3.68772 -1.44304 0
M  V30 4763 H 440.616 -4.41426 1.32212 0
M  V30 4764 H 438.931 -4.03143 1.04232 0
M  V30 4765 H 441.528 -5.12831 -1.51357 0
M  V30 4766 H 441.871 -3.54908 -2.17592 0
M  V30 4767 H 442.404 -3.9434 -0.523542 0
M  V30 4768 H 439.143 -6.46161 1.10258 0
M  V30 4769 H 438.663 -5.97373 -0.539045 0
M  V30 4770 H 440.342 -6.46669 -0.206954 0
M  V30 4771 N 440.474 -0.00167713 -1.576 0
M  V30 4772 C 441.421 0.989195 -2.08527 0
M  V30 4773 C 442.391 1.34031 -0.981065 0
M  V30 4774 O 443.576 1.43839 -1.2536 0
M  V30 4775 C 440.716 2.27537 -2.59463 0
M  V30 4776 C 439.829 1.98314 -3.83791 0
M  V30 4777 C 438.964 3.21025 -4.23222 0
M  V30 4778 C 438.003 2.87495 -5.40382 0
M  V30 4779 N 437.14 4.02749 -5.75098 0
M  V30 4780 H 441.98 0.547973 -2.92919 0
M  V30 4781 H 439.517 0.258917 -1.44803 0
M  V30 4782 H 441.475 3.02729 -2.87073 0
M  V30 4783 H 440.105 2.69325 -1.77943 0
M  V30 4784 H 439.157 1.13482 -3.63078 0
M  V30 4785 H 440.469 1.69601 -4.69081 0
M  V30 4786 H 439.623 4.04561 -4.52123 0
M  V30 4787 H 438.362 3.52877 -3.36644 0
M  V30 4788 H 437.367 2.02367 -5.11202 0
M  V30 4789 H 438.592 2.56889 -6.28637 0
M  V30 4790 H 436.538 4.34494 -4.91478 0
M  V30 4791 H 436.455 3.77566 -6.54966 0
M  V30 4792 H 437.723 4.87068 -6.08592 0
M  V30 4793 N 441.952 1.55251 0.271103 0
M  V30 4794 C 443.201 1.75151 1.00025 0
M  V30 4795 C 443.514 0.561041 1.87381 0
M  V30 4796 O 444.72 0.642506 2.63788 0
M  V30 4797 C 443.176 3.09999 1.82835 0
M  V30 4798 C 442.784 4.3662 1.00336 0
M  V30 4799 C 444.528 3.39249 2.55168 0
M  V30 4800 C 442.435 5.62506 1.82595 0
M  V30 4801 H 441.365 0.652877 0.377183 0
M  V30 4802 H 444.016 1.81708 0.255843 0
M  V30 4803 H 442.398 2.97485 2.61378 0
M  V30 4804 H 443.572 4.60055 0.261959 0
M  V30 4805 H 441.887 4.14527 0.394486 0
M  V30 4806 H 444.484 4.3051 3.1712 0
M  V30 4807 H 444.827 2.59467 3.2555 0
M  V30 4808 H 445.36 3.52869 1.83653 0
M  V30 4809 H 442.099 6.45041 1.16631 0
M  V30 4810 H 441.619 5.43211 2.54327 0
M  V30 4811 H 443.298 6.00875 2.39913 0
M  V30 4812 N 443.43 -0.535701 1.48216 0
M  V30 4813 C 444.36 -1.65014 1.65204 0
M  V30 4814 C 445.341 -1.62554 0.501011 0
M  V30 4815 O 446.526 -1.7984 0.732886 0
M  V30 4816 C 443.656 -3.03616 1.68626 0
M  V30 4817 C 442.61 -3.20932 2.83172 0
M  V30 4818 C 441.936 -4.60537 2.71679 0
M  V30 4819 C 443.236 -3.04249 4.24535 0
M  V30 4820 H 444.93 -1.51053 2.58502 0
M  V30 4821 H 442.476 -0.725262 1.24402 0
M  V30 4822 H 444.429 -3.81446 1.79099 0
M  V30 4823 H 443.153 -3.18587 0.719026 0
M  V30 4824 H 441.812 -2.45517 2.72244 0
M  V30 4825 H 441.46 -4.72336 1.72937 0
M  V30 4826 H 441.16 -4.73069 3.48538 0
M  V30 4827 H 442.684 -5.40475 2.84112 0
M  V30 4828 H 444.098 -3.71877 4.36326 0
M  V30 4829 H 442.495 -3.28278 5.02348 0
M  V30 4830 H 443.565 -2.00739 4.41397 0
M  V30 4831 N 444.908 -1.36708 -0.784132 0
M  V30 4832 C 446.185 -1.21776 -1.53069 0
M  V30 4833 C 446.565 0.193876 -2.10208 0
M  V30 4834 O 445.913 1.20012 -1.94446 0
M  V30 4835 C 446.123 -2.30395 -2.62143 0
M  V30 4836 C 447.471 -2.67325 -3.29882 0
M  V30 4837 O 448.495 -2.29478 -2.7243 0
M  V30 4838 O 447.354 -3.32485 -4.33724 0
M  V30 4839 H 444.448 -0.474459 -0.677361 0
M  V30 4840 H 446.994 -1.48454 -0.82216 0
M  V30 4841 H 445.766 -3.2498 -2.17953 0
M  V30 4842 H 445.389 -2.05112 -3.40609 0
M  V30 4843 N 446.386 1.0089 -1.21074 0
M  V30 4844 C 447.663 1.71834 -0.934469 0
M  V30 4845 C 448.043 2.0368 0.554753 0
M  V30 4846 O 447.391 1.70742 1.51854 0
M  V30 4847 C 447.601 2.98061 -1.8155 0
M  V30 4848 C 448.949 3.7117 -2.06199 0
M  V30 4849 O 449.973 3.08034 -1.78867 0
M  V30 4850 O 448.832 4.84721 -2.52404 0
M  V30 4851 H 445.926 0.749253 -0.35007 0
M  V30 4852 H 448.472 1.06668 -1.31985 0
M  V30 4853 H 447.244 2.70908 -2.82355 0
M  V30 4854 H 446.867 3.70968 -1.43068 0
M  V30 4855 N 447.864 1.01787 1.20321 0
M  V30 4856 C 448.794 0.609625 2.25401 0
M  V30 4857 C 449.775 -0.375951 1.65893 0
M  V30 4858 O 450.96 -0.261101 1.92437 0
M  V30 4859 C 448.09 -0.0515995 3.47262 0
M  V30 4860 C 447.044 0.855095 4.19371 0
M  V30 4861 C 446.37 0.0595757 5.34667 0
M  V30 4862 C 447.67 2.16374 4.75373 0
M  V30 4863 H 449.364 1.48803 2.59804 0
M  V30 4864 H 446.91 0.716934 1.24884 0
M  V30 4865 H 448.863 -0.348764 4.19954 0
M  V30 4866 H 447.587 -0.964726 3.12027 0
M  V30 4867 H 446.246 1.13628 3.48546 0
M  V30 4868 H 445.894 -0.85524 4.95676 0
M  V30 4869 H 445.594 0.663406 5.83843 0
M  V30 4870 H 447.118 -0.231105 6.10162 0
M  V30 4871 H 448.532 1.92885 5.39878 0
M  V30 4872 H 446.929 2.71853 5.34991 0
M  V30 4873 H 447.999 2.82589 3.94045 0
M  V30 4874 N 449.342 -1.36122 0.79427 0
M  V30 4875 C 450.567 -2.03891 0.379871 0
M  V30 4876 C 450.992 -1.59488 -0.997251 0
M  V30 4877 O 450.35 -0.765652 -1.64339 0
M  V30 4878 C 450.398 -3.57687 0.457442 0
M  V30 4879 O 449.502 -4.08931 -0.5338 0
M  V30 4880 H 448.843 -0.6443 0.160541 0
M  V30 4881 H 451.373 -1.73976 1.07673 0
M  V30 4882 H 451.383 -4.06721 0.322792 0
M  V30 4883 H 450.058 -3.89357 1.46199 0
M  V30 4884 H 448.635 -3.71154 -0.360409 0
M  V30 4885 N 450.82 -0.546701 -1.47814 0
M  V30 4886 C 452.231 -0.110564 -1.86372 0
M  V30 4887 C 452.582 1.31678 -1.45449 0
M  V30 4888 O 451.707 1.98889 -0.852758 0
M  V30 4889 C 452.302 -0.193873 -3.38245 0
M  V30 4890 C 450.861 0.187164 -3.75934 0
M  V30 4891 C 450.008 -0.546166 -2.71868 0
M  V30 4892 H 452.959 -0.757022 -1.39481 0
M  V30 4893 H 452.98 0.590218 -3.75895 0
M  V30 4894 H 452.492 -1.23282 -3.67999 0
M  V30 4895 H 450.593 1.22762 -3.51796 0
M  V30 4896 H 450.706 -0.164083 -4.78819 0
M  V30 4897 H 449.07 0.00953904 -2.54698 0
M  V30 4898 H 449.853 -1.58606 -3.04465 0
M  V30 4899 N 452.299 1.55045 -0.282633 0
M  V30 4900 C 453.715 1.59441 0.0712997 0
M  V30 4901 C 453.915 1.2998 1.53972 0
M  V30 4902 O 452.971 1.06431 2.28973 0
M  V30 4903 C 454.284 2.99097 -0.310104 0
M  V30 4904 C 455.832 3.1194 -0.257343 0
M  V30 4905 C 456.307 4.53875 -0.613297 0
M  V30 4906 N 457.798 4.5974 -0.565134 0
M  V30 4907 C 458.533 5.67603 -0.81326 0
M  V30 4908 N 458.029 6.83582 -1.1264 0
M  V30 4909 N 459.822 5.57187 -0.741553 0
M  V30 4910 H 451.973 1.72458 -1.23984 0
M  V30 4911 H 454.236 0.804549 -0.501403 0
M  V30 4912 H 453.942 3.25516 -1.33163 0
M  V30 4913 H 453.816 3.75616 0.345366 0
M  V30 4914 H 456.203 2.85281 0.754905 0
M  V30 4915 H 456.284 2.37618 -0.947178 0
M  V30 4916 H 455.928 4.81261 -1.62327 0
M  V30 4917 H 455.858 5.26508 0.09841 0
M  V30 4918 H 458.349 3.76427 -0.333294 0
M  V30 4919 H 458.662 7.6175 -1.30219 0
M  V30 4920 H 457.007 6.85179 -1.16425 0
M  V30 4921 H 460.198 4.65457 -0.496705 0
M  V30 4922 H 460.371 6.41171 -0.938306 0
M  V30 4923 N 453.777 0.010035 1.57597 0
M  V30 4924 C 455.054 -0.710296 1.82248 0
M  V30 4925 C 455.434 -1.91426 0.889911 0
M  V30 4926 O 454.782 -2.28424 -0.0590292 0
M  V30 4927 C 454.992 -1.10655 3.30993 0
M  V30 4928 C 456.34 -1.50621 3.96987 0
M  V30 4929 O 457.364 -1.20007 3.35375 0
M  V30 4930 O 456.223 -2.07587 5.05539 0
M  V30 4931 H 453.317 -0.34673 0.750804 0
M  V30 4932 H 455.863 0.0362578 1.69661 0
M  V30 4933 H 454.635 -0.248826 3.90508 0
M  V30 4934 H 454.258 -1.91189 3.48615 0
M  V30 4935 N 455.255 -1.55392 -0.262866 0
M  V30 4936 C 456.187 -1.85392 -1.34768 0
M  V30 4937 C 457.2 -0.739069 -1.45057 0
M  V30 4938 O 458.389 -1.01703 -1.46693 0
M  V30 4939 C 455.489 -2.01088 -2.72795 0
M  V30 4940 C 454.662 -3.31828 -2.84972 0
M  V30 4941 C 453.721 -3.37464 -4.03738 0
M  V30 4942 O 452.747 -4.10778 -3.94018 0
M  V30 4943 N 453.949 -2.65599 -5.16176 0
M  V30 4944 H 456.714 -2.79029 -1.09375 0
M  V30 4945 H 454.275 -1.55434 -0.452981 0
M  V30 4946 H 456.267 -2.02217 -3.50557 0
M  V30 4947 H 454.837 -1.1427 -2.90966 0
M  V30 4948 H 454.057 -3.43152 -1.94012 0
M  V30 4949 H 455.345 -4.18032 -2.90045 0
M  V30 4950 H 454.743 -2.05736 -5.26962 0
M  V30 4951 H 453.3 -2.72439 -5.92132 0
M  V30 4952 N 456.733 0.527833 -1.48498 0
M  V30 4953 C 457.98 1.28354 -1.56625 0
M  V30 4954 C 458.308 1.93 -0.241096 0
M  V30 4955 O 457.563 1.79967 0.768798 0
M  V30 4956 C 457.862 2.39275 -2.65485 0
M  V30 4957 C 457.528 1.92268 -4.07853 0
M  V30 4958 C 456.19 1.79166 -4.46602 0
M  V30 4959 C 458.542 1.56771 -4.97064 0
M  V30 4960 C 455.87 1.28905 -5.72364 0
M  V30 4961 C 458.222 1.07972 -6.23318 0
M  V30 4962 C 456.886 0.934887 -6.60921 0
M  V30 4963 H 456.156 0.469682 -0.573131 0
M  V30 4964 H 458.803 0.588781 -1.82224 0
M  V30 4965 H 457.108 3.1443 -2.33754 0
M  V30 4966 H 458.805 2.974 -2.68988 0
M  V30 4967 H 455.395 2.03417 -3.77252 0
M  V30 4968 H 459.579 1.65753 -4.67803 0
M  V30 4969 H 454.835 1.16381 -6.00221 0
M  V30 4970 H 459.009 0.795775 -6.91838 0
M  V30 4971 H 456.636 0.543231 -7.58257 0
M  V30 4972 N 458.211 1.37122 0.776871 0
M  V30 4973 C 459.159 1.32549 1.91138 0
M  V30 4974 C 460.153 0.215119 1.68029 0
M  V30 4975 O 461.359 0.382852 1.75881 0
M  V30 4976 H 457.734 0.412952 0.62847 0
M  V30 4977 H 459.705 2.28332 1.92112 0
M  V30 4978 C 458.454 1.14422 3.28333 0
M  V30 4979 H 457.777 1.99115 3.46689 0
M  V30 4980 H 459.217 1.15272 4.0803 0
M  V30 4981 C 457.676 -0.150434 3.36564 0
M  V30 4982 O 458.206 -1.13584 3.85307 0
M  V30 4983 N 456.412 -0.19939 2.89915 0
M  V30 4984 H 455.959 0.603142 2.5044 0
M  V30 4985 H 455.917 -1.06526 2.95803 0
M  V30 4986 N 459.689 -1.00246 1.21608 0
M  V30 4987 C 460.619 -2.10921 1.00172 0
M  V30 4988 C 461.6 -1.69938 -0.0741587 0
M  V30 4989 O 462.785 -1.94009 0.0861753 0
M  V30 4990 C 459.915 -3.42618 0.568355 0
M  V30 4991 C 458.869 -3.97407 1.58909 0
M  V30 4992 C 458.195 -5.25038 1.01187 0
M  V30 4993 C 459.495 -4.2918 2.97661 0
M  V30 4994 H 461.189 -2.29112 1.92739 0
M  V30 4995 H 458.735 -1.10101 0.928102 0
M  V30 4996 H 460.688 -4.19444 0.405555 0
M  V30 4997 H 459.412 -3.24227 -0.392961 0
M  V30 4998 H 458.071 -3.22703 1.73949 0
M  V30 4999 H 457.719 -5.02982 0.0421965 0
M  V30 5000 H 457.419 -5.62661 1.6937 0
M  V30 5001 H 458.943 -6.04507 0.860448 0
M  V30 5002 H 460.357 -4.96839 2.86049 0
M  V30 5003 H 458.754 -4.77952 3.6288 0
M  V30 5004 H 459.824 -3.3735 3.48315 0
M  V30 5005 N 461.167 -1.02423 -1.1978 0
M  V30 5006 C 462.416 -0.713265 -1.88667 0
M  V30 5007 C 462.729 0.7609 -1.80193 0
M  V30 5008 O 463.935 1.18473 -2.44288 0
M  V30 5009 C 462.391 -1.22545 -3.38394 0
M  V30 5010 C 461.999 -2.72706 -3.55437 0
M  V30 5011 C 463.743 -0.990257 -4.12788 0
M  V30 5012 C 461.65 -3.17367 -4.99031 0
M  V30 5013 H 460.58 -0.263105 -0.706606 0
M  V30 5014 H 463.231 -1.23792 -1.35454 0
M  V30 5015 H 461.613 -0.628732 -3.90977 0
M  V30 5016 H 462.787 -3.37993 -3.13205 0
M  V30 5017 H 461.102 -2.94453 -2.94425 0
M  V30 5018 H 463.699 -1.29926 -5.18675 0
M  V30 5019 H 464.042 0.0730761 -4.16236 0
M  V30 5020 H 464.575 -1.55074 -3.66329 0
M  V30 5021 H 461.314 -4.23009 -5.00743 0
M  V30 5022 H 460.834 -2.56805 -5.42044 0
M  V30 5023 H 462.513 -3.10441 -5.67658 0
M  V30 5024 N 462.645 1.35699 -0.801477 0
M  V30 5025 C 463.891 1.99208 -0.380022 0
M  V30 5026 C 464.224 1.63445 1.04878 0
M  V30 5027 O 463.499 0.895223 1.72673 0
M  V30 5028 C 463.782 3.55755 -0.557708 0
M  V30 5029 C 463.635 4.01332 -2.03107 0
M  V30 5030 C 464.954 4.40096 0.0197968 0
M  V30 5031 H 462.073 0.723667 -0.139552 0
M  V30 5032 H 464.715 1.60928 -1.01006 0
M  V30 5033 H 462.865 3.88494 -0.0213741 0
M  V30 5034 H 464.537 3.79026 -2.62939 0
M  V30 5035 H 462.78 3.52429 -2.52936 0
M  V30 5036 H 463.451 5.10234 -2.1063 0
M  V30 5037 H 465.927 4.13786 -0.438179 0
M  V30 5038 H 464.803 5.48735 -0.134477 0
M  V30 5039 H 465.064 4.2786 1.11303 0
M  V30 5040 N 464.123 0.554532 1.47522 0
M  V30 5041 C 465.37 0.029479 2.02479 0
M  V30 5042 C 465.698 -1.31929 1.42916 0
M  V30 5043 O 464.953 -1.87112 0.573385 0
M  V30 5044 C 465.252 -0.115927 3.57212 0
M  V30 5045 C 464.918 1.16161 4.3568 0
M  V30 5046 C 463.58 1.51168 4.56839 0
M  V30 5047 C 465.932 2.0083 4.80954 0
M  V30 5048 C 463.26 2.70696 5.2052 0
M  V30 5049 C 465.612 3.19559 5.45953 0
M  V30 5050 C 464.276 3.54882 5.65345 0
M  V30 5051 H 463.546 0.0107871 0.740921 0
M  V30 5052 H 466.193 0.725506 1.77225 0
M  V30 5053 H 464.498 -0.894902 3.81443 0
M  V30 5054 H 466.195 -0.53749 3.97381 0
M  V30 5055 H 462.785 0.879026 4.19489 0
M  V30 5056 H 466.969 1.75093 4.64388 0
M  V30 5057 H 462.225 2.98236 5.33728 0
M  V30 5058 H 466.399 3.85456 5.79997 0
M  V30 5059 H 464.026 4.47596 6.1446 0
M  V30 5060 N 465.601 -1.54893 0.290851 0
M  V30 5061 C 466.826 -2.04804 -0.32712 0
M  V30 5062 C 467.251 -1.16721 -1.47506 0
M  V30 5063 O 466.609 -0.169107 -1.8051 0
M  V30 5064 C 466.657 -3.52268 -0.770689 0
M  V30 5065 O 465.761 -3.67236 -1.87647 0
M  V30 5066 H 465.102 -0.660789 -0.0652227 0
M  V30 5067 H 467.632 -2.00036 0.429739 0
M  V30 5068 H 467.642 -3.9393 -1.06223 0
M  V30 5069 H 466.317 -4.15843 0.069096 0
M  V30 5070 H 464.894 -3.37479 -1.58626 0
M  V30 5071 N 467.08 -0.0183926 -1.57589 0
M  V30 5072 C 468.308 0.673046 -1.95647 0
M  V30 5073 C 468.723 1.66275 -0.894312 0
M  V30 5074 O 468.08 1.82072 0.124975 0
M  V30 5075 C 468.131 1.38884 -3.33756 0
M  V30 5076 O 467.852 0.438806 -4.35897 0
M  V30 5077 C 469.353 2.1731 -3.86383 0
M  V30 5078 H 466.573 0.186292 -0.644621 0
M  V30 5079 H 469.117 -0.0749748 -2.04363 0
M  V30 5080 H 467.272 2.08835 -3.26293 0
M  V30 5081 H 467.686 0.945869 -5.15901 0
M  V30 5082 H 469.16 2.62863 -4.85394 0
M  V30 5083 H 469.637 3.00764 -3.20059 0
M  V30 5084 H 470.243 1.52339 -3.97081 0
M  V30 5085 N 468.558 1.5553 0.254621 0
M  V30 5086 C 469.468 1.92789 1.33677 0
M  V30 5087 C 470.484 0.827356 1.53071 0
M  V30 5088 O 471.66 1.12807 1.66843 0
M  V30 5089 C 468.725 2.20827 2.67275 0
M  V30 5090 C 467.786 3.4427 2.5647 0
M  V30 5091 C 467.019 3.70961 3.83697 0
M  V30 5092 O 467.242 2.99852 4.85227 0
M  V30 5093 O 466.176 4.64491 3.82794 0
M  V30 5094 H 470.002 2.84945 1.05071 0
M  V30 5095 H 467.587 1.42312 0.454723 0
M  V30 5096 H 469.469 2.40204 3.46237 0
M  V30 5097 H 468.144 1.31851 2.9563 0
M  V30 5098 H 467.051 3.30209 1.75821 0
M  V30 5099 H 468.384 4.33524 2.33062 0
M  V30 5100 N 470.036 -0.519951 1.48776 0
M  V30 5101 C 470.999 -1.60574 1.6355 0
M  V30 5102 C 471.999 -1.52557 0.508234 0
M  V30 5103 O 473.189 -1.56047 0.774262 0
M  V30 5104 C 470.321 -3.00211 1.61512 0
M  V30 5105 H 471.514 -1.4881 2.60376 0
M  V30 5106 H 469.067 -0.742772 1.37523 0
M  V30 5107 H 469.802 -3.17471 0.662009 0
M  V30 5108 H 469.587 -3.07439 2.43359 0
M  V30 5109 H 471.077 -3.79134 1.75064 0
M  V30 5110 N 471.514 -1.37532 -0.769588 0
M  V30 5111 C 472.742 -1.36059 -1.55871 0
M  V30 5112 C 473.157 0.053544 -1.88724 0
M  V30 5113 O 472.514 1.01591 -1.5161 0
M  V30 5114 C 472.565 -2.20107 -2.86767 0
M  V30 5115 O 472.286 -3.56009 -2.55321 0
M  V30 5116 C 473.787 -2.26636 -3.80987 0
M  V30 5117 H 471.007 -0.465967 -0.482821 0
M  V30 5118 H 473.551 -1.80901 -0.953686 0
M  V30 5119 H 471.706 -1.78768 -3.43687 0
M  V30 5120 H 472.12 -4.0009 -3.39158 0
M  V30 5121 H 473.594 -2.89763 -4.69831 0
M  V30 5122 H 474.071 -1.2754 -4.20274 0
M  V30 5123 H 474.677 -2.68296 -3.29996 0
M  V30 5124 N 472.992 0.995999 -1.22138 0
M  V30 5125 C 473.924 2.08745 -0.946485 0
M  V30 5126 C 474.937 1.62633 0.0737356 0
M  V30 5127 O 476.126 1.77782 -0.159886 0
M  V30 5128 C 473.226 3.36516 -0.401305 0
M  V30 5129 C 472.399 4.11672 -1.47801 0
M  V30 5130 C 471.458 5.17728 -0.940461 0
M  V30 5131 O 470.484 5.45482 -1.62596 0
M  V30 5132 N 471.686 5.80005 0.239723 0
M  V30 5133 H 474.451 2.32908 -1.88611 0
M  V30 5134 H 472.012 1.16152 -1.12785 0
M  V30 5135 H 474.004 4.04691 -0.0270837 0
M  V30 5136 H 472.574 3.0944 0.443354 0
M  V30 5137 H 471.794 3.38171 -2.02568 0
M  V30 5138 H 473.082 4.58657 -2.20253 0
M  V30 5139 H 472.48 5.5982 0.813518 0
M  V30 5140 H 471.037 6.4943 0.555361 0
M  V30 5141 N 474.47 1.03057 1.19235 0
M  V30 5142 C 475.716 0.738841 1.89506 0
M  V30 5143 C 476.071 -0.724807 1.78225 0
M  V30 5144 O 475.364 -1.52118 1.16494 0
M  V30 5145 C 475.558 1.1268 3.39172 0
M  V30 5146 C 475.387 2.62662 3.65019 0
M  V30 5147 C 474.157 3.29658 3.82954 0
M  V30 5148 C 476.355 3.60873 3.66436 0
M  V30 5149 N 474.337 4.68726 3.96446 0
M  V30 5150 C 475.708 4.85566 3.8552 0
M  V30 5151 C 477.763 3.54647 3.49471 0
M  V30 5152 C 476.466 6.04783 3.89397 0
M  V30 5153 C 478.492 4.73281 3.54625 0
M  V30 5154 C 477.854 5.96789 3.74196 0
M  V30 5155 H 473.953 0.322256 0.712513 0
M  V30 5156 H 476.537 1.31822 1.43287 0
M  V30 5157 H 474.708 0.575612 3.84111 0
M  V30 5158 H 476.44 0.787145 3.96971 0
M  V30 5159 H 473.195 2.8007 3.81913 0
M  V30 5160 H 473.619 5.40971 4.07037 0
M  V30 5161 H 478.261 2.60143 3.33295 0
M  V30 5162 H 475.979 6.99654 4.04364 0
M  V30 5163 H 479.565 4.70094 3.42787 0
M  V30 5164 H 478.445 6.87051 3.78061 0
M  V30 5165 N 475.948 -1.35272 0.808662 0
M  V30 5166 C 477.364 -1.51806 0.492653 0
M  V30 5167 C 477.564 -1.7574 -0.985778 0
M  V30 5168 O 476.62 -1.80003 -1.77074 0
M  V30 5169 C 477.933 -2.69202 1.33981 0
M  V30 5170 C 479.481 -2.8308 1.33547 0
M  V30 5171 C 479.956 -4.03502 2.16679 0
M  V30 5172 N 481.447 -4.10684 2.14227 0
M  V30 5173 C 482.182 -5.02984 2.75308 0
M  V30 5174 N 481.678 -6.00603 3.45323 0
M  V30 5175 N 483.471 -4.95746 2.64938 0
M  V30 5176 H 475.622 -1.17993 1.76611 0
M  V30 5177 H 477.885 -0.577476 0.751814 0
M  V30 5178 H 477.591 -2.581 2.38909 0
M  V30 5179 H 477.465 -3.63854 0.994491 0
M  V30 5180 H 479.852 -2.93631 0.294036 0
M  V30 5181 H 479.933 -1.89278 1.72068 0
M  V30 5182 H 479.577 -3.93711 3.20864 0
M  V30 5183 H 479.507 -4.96489 1.75517 0
M  V30 5184 H 481.998 -3.40802 1.63285 0
M  V30 5185 H 482.311 -6.67633 3.89212 0
M  V30 5186 H 480.656 -6.0077 3.49428 0
M  V30 5187 H 483.847 -4.18439 2.09825 0
M  V30 5188 H 484.02 -5.67487 3.12829 0
M  V30 5189 N 477.426 -0.562348 -1.47226 0
M  V30 5190 C 478.837 -0.130325 -1.86245 0
M  V30 5191 C 479.188 1.30128 -1.46838 0
M  V30 5192 O 478.313 1.97974 -0.873805 0
M  V30 5193 C 478.908 -0.229738 -3.3802 0
M  V30 5194 C 477.467 0.14728 -3.76112 0
M  V30 5195 C 476.614 -0.574971 -2.71274 0
M  V30 5196 H 479.565 -0.771773 -1.3867 0
M  V30 5197 H 479.586 0.550316 -3.76499 0
M  V30 5198 H 479.098 -1.27178 -3.66671 0
M  V30 5199 H 477.199 1.19023 -3.53078 0
M  V30 5200 H 477.312 -0.214858 -4.78618 0
M  V30 5201 H 475.676 -0.0174756 -2.54694 0
M  V30 5202 H 476.459 -1.61827 -3.02766 0
M  V30 5203 N 478.904 1.54736 -0.299062 0
M  V30 5204 C 480.129 2.04975 0.316254 0
M  V30 5205 C 480.554 1.17501 1.46885 0
M  V30 5206 O 479.912 0.178678 1.80417 0
M  V30 5207 C 479.96 3.52672 0.751997 0
M  V30 5208 O 479.064 3.68226 1.85697 0
M  V30 5209 H 478.405 0.661126 0.0617175 0
M  V30 5210 H 480.935 1.99805 -0.440341 0
M  V30 5211 H 480.945 3.94488 1.04133 0
M  V30 5212 H 479.62 4.158 -0.0911482 0
M  V30 5213 H 478.197 3.38316 1.56834 0
M  V30 5214 N 480.382 0.0267497 1.57577 0
M  V30 5215 C 481.312 -0.954308 2.13108 0
M  V30 5216 C 482.293 -1.34088 1.04663 0
M  V30 5217 O 483.478 -1.41992 1.32484 0
M  V30 5218 C 480.608 -2.23744 2.65624 0
M  V30 5219 C 479.562 -1.99168 3.78835 0
M  V30 5220 C 478.888 -3.33726 4.17769 0
M  V30 5221 C 480.188 -1.33277 5.0501 0
M  V30 5222 H 481.882 -0.491848 2.95332 0
M  V30 5223 H 479.428 -0.23514 1.42067 0
M  V30 5224 H 481.381 -2.92754 3.03106 0
M  V30 5225 H 480.105 -2.72151 1.80558 0
M  V30 5226 H 478.764 -1.32577 3.41788 0
M  V30 5227 H 478.412 -3.79888 3.29688 0
M  V30 5228 H 478.112 -3.18089 4.94058 0
M  V30 5229 H 479.636 -4.04008 4.57832 0
M  V30 5230 H 481.05 -1.92283 5.40093 0
M  V30 5231 H 479.447 -1.28045 5.8628 0
M  V30 5232 H 480.517 -0.305411 4.83937 0
M  V30 5233 N 481.861 -1.55662 -0.24637 0
M  V30 5234 C 483.107 -1.77782 -0.975779 0
M  V30 5235 C 483.44 -0.592103 -1.84953 0
M  V30 5236 O 482.715 0.409588 -1.90138 0
M  V30 5237 C 482.998 -3.09788 -1.83584 0
M  V30 5238 C 482.851 -4.38764 -0.990241 0
M  V30 5239 C 484.17 -3.38029 -2.81823 0
M  V30 5240 H 481.289 -0.646789 -0.353317 0
M  V30 5241 H 483.931 -1.88398 -0.246248 0
M  V30 5242 H 482.081 -3.00869 -2.45784 0
M  V30 5243 H 483.753 -4.59675 -0.386897 0
M  V30 5244 H 481.996 -4.32798 -0.294626 0
M  V30 5245 H 482.667 -5.27514 -1.62584 0
M  V30 5246 H 485.143 -3.46915 -2.2976 0
M  V30 5247 H 484.019 -4.3161 -3.39122 0
M  V30 5248 H 484.28 -2.58968 -3.58313 0
M  V30 5249 N 483.339 0.512053 -1.4905 0
M  V30 5250 C 484.75 1.09376 -1.51307 0
M  V30 5251 C 485.101 1.94 -0.292971 0
M  V30 5252 O 484.226 2.07965 0.598277 0
M  V30 5253 C 484.821 1.99031 -2.74176 0
M  V30 5254 C 483.38 2.52385 -2.79247 0
M  V30 5255 C 482.527 1.29749 -2.45073 0
M  V30 5256 H 485.478 0.296467 -1.55906 0
M  V30 5257 H 485.499 2.83569 -2.53711 0
M  V30 5258 H 485.011 1.37412 -3.62959 0
M  V30 5259 H 483.112 3.17673 -1.94716 0
M  V30 5260 H 483.225 2.90293 -3.81139 0
M  V30 5261 H 481.589 1.61912 -1.96612 0
M  V30 5262 H 482.372 0.698555 -3.36118 0
M  V30 5263 N 484.817 1.37938 0.762283 0
M  V30 5264 C 485.78 1.34279 1.85747 0
M  V30 5265 C 486.78 0.244969 1.58923 0
M  V30 5266 O 487.97 0.501365 1.66829 0
M  V30 5267 C 485.102 1.08833 3.23061 0
M  V30 5268 H 486.295 2.31705 1.90401 0
M  V30 5269 H 483.848 1.23105 0.963057 0
M  V30 5270 H 484.583 0.119767 3.24079 0
M  V30 5271 H 484.368 1.88306 3.43923 0
M  V30 5272 H 485.858 1.08946 4.03138 0
M  V30 5273 N 486.295 -0.989507 1.22664 0
M  V30 5274 C 487.52 -1.77031 1.08051 0
M  V30 5275 C 487.945 -1.84535 -0.364483 0
M  V30 5276 O 487.303 -1.3003 -1.2634 0
M  V30 5277 C 487.351 -3.18 1.70024 0
M  V30 5278 O 486.455 -4.01161 0.956216 0
M  V30 5279 H 485.796 -0.545008 0.379292 0
M  V30 5280 H 488.326 -1.24277 1.62531 0
M  V30 5281 H 488.336 -3.68616 1.74888 0
M  V30 5282 H 487.011 -3.11853 2.75174 0
M  V30 5283 H 485.588 -3.59687 0.98384 0
M  V30 5284 N 487.773 -1.03688 -1.18687 0
M  V30 5285 C 488.736 -0.629115 -2.20397 0
M  V30 5286 C 489.736 0.311495 -1.57754 0
M  V30 5287 O 490.926 0.0974107 -1.73927 0
M  V30 5288 C 488.058 0.0782231 -3.4081 0
M  V30 5289 H 489.251 -1.52915 -2.57987 0
M  V30 5290 H 486.804 -0.828988 -1.32505 0
M  V30 5291 H 487.539 0.992233 -3.08748 0
M  V30 5292 H 487.324 -0.597776 -3.87517 0
M  V30 5293 H 488.814 0.350156 -4.16129 0
M  V30 5294 N 489.251 1.34841 -0.815825 0
M  V30 5295 C 490.161 2.33425 -0.234462 0
M  V30 5296 C 491.177 1.62295 0.627413 0
M  V30 5297 O 492.353 1.94109 0.536987 0
M  V30 5298 C 489.418 3.41471 0.599849 0
M  V30 5299 C 488.479 4.28362 -0.283596 0
M  V30 5300 C 487.712 5.31248 0.51099 0
M  V30 5301 O 487.935 5.43056 1.7449 0
M  V30 5302 O 486.869 6.01812 -0.10297 0
M  V30 5303 H 490.695 2.84962 -1.05024 0
M  V30 5304 H 488.28 1.37774 -0.577809 0
M  V30 5305 H 490.162 4.07464 1.07475 0
M  V30 5306 H 488.837 2.9219 1.39308 0
M  V30 5307 H 487.744 3.65318 -0.805836 0
M  V30 5308 H 489.077 4.81066 -1.041 0
M  V30 5309 N 490.729 0.570148 1.46925 0
M  V30 5310 C 491.677 -0.183181 2.31878 0
M  V30 5311 C 492.671 -0.896721 1.43719 0
M  V30 5312 O 493.877 -0.816536 1.60414 0
M  V30 5313 H 490.252 -0.077944 0.74795 0
M  V30 5314 H 492.223 0.552312 2.93244 0
M  V30 5315 C 490.972 -1.19172 3.2664 0
M  V30 5316 H 490.295 -0.652088 3.94446 0
M  V30 5317 H 491.735 -1.68946 3.88887 0
M  V30 5318 C 490.194 -2.24627 2.51086 0
M  V30 5319 O 490.724 -3.31773 2.26472 0
M  V30 5320 N 488.93 -1.98898 2.11867 0
M  V30 5321 H 488.477 -1.11777 2.32086 0
M  V30 5322 H 488.435 -2.6967 1.61634 0
M  V30 5323 N 492.207 -1.54576 0.307264 0
M  V30 5324 C 493.453 -2.0056 -0.300612 0
M  V30 5325 C 493.786 -1.1953 -1.53057 0
M  V30 5326 O 493.061 -0.27337 -1.92569 0
M  V30 5327 C 493.344 -3.54167 -0.650987 0
M  V30 5328 C 493.197 -4.45933 0.588539 0
M  V30 5329 C 494.516 -4.14645 -1.47506 0
M  V30 5330 H 491.635 -0.729075 -0.107788 0
M  V30 5331 H 494.277 -1.85286 0.420606 0
M  V30 5332 H 492.427 -3.67313 -1.26544 0
M  V30 5333 H 494.099 -4.44683 1.22697 0
M  V30 5334 H 492.342 -4.16274 1.22058 0
M  V30 5335 H 493.013 -5.51189 0.299153 0
M  V30 5336 H 495.489 -4.04973 -0.955821 0
M  V30 5337 H 494.365 -5.22269 -1.68899 0
M  V30 5338 H 494.626 -3.66921 -2.4662 0
M  V30 5339 N 493.685 -0.035106 -1.57561 0
M  V30 5340 C 494.633 0.962707 -2.11742 0
M  V30 5341 C 495.627 1.33296 -1.0454 0
M  V30 5342 O 496.833 1.31449 -1.22968 0
M  V30 5343 H 493.208 0.32826 -0.676572 0
M  V30 5344 H 495.179 0.48048 -2.94506 0
M  V30 5345 C 493.928 2.23388 -2.66445 0
M  V30 5346 H 493.251 1.95774 -3.48587 0
M  V30 5347 H 494.691 2.91402 -3.07995 0
M  V30 5348 C 493.15 2.96769 -1.59467 0
M  V30 5349 O 493.68 3.89105 -0.998 0
M  V30 5350 N 491.886 2.59212 -1.31369 0
M  V30 5351 H 491.433 1.84202 -1.80076 0
M  V30 5352 H 491.391 3.08618 -0.600173 0
M  V30 5353 N 495.163 1.55791 0.238111 0
M  V30 5354 C 496.11 1.9105 1.29493 0
M  V30 5355 C 497.08 0.765733 1.47397 0
M  V30 5356 O 498.265 1.02017 1.61236 0
M  V30 5357 C 495.405 2.21826 2.64362 0
M  V30 5358 C 494.518 3.49153 2.54394 0
M  V30 5359 C 493.653 3.69455 3.81676 0
M  V30 5360 C 492.692 4.90353 3.66361 0
M  V30 5361 N 491.829 5.07131 4.85554 0
M  V30 5362 H 496.669 2.81172 0.987233 0
M  V30 5363 H 494.206 1.39179 0.476203 0
M  V30 5364 H 496.164 2.37675 3.4288 0
M  V30 5365 H 494.794 1.34897 2.93262 0
M  V30 5366 H 493.846 3.41587 1.67399 0
M  V30 5367 H 495.158 4.37818 2.38991 0
M  V30 5368 H 494.312 3.85311 4.68636 0
M  V30 5369 H 493.051 2.7904 3.99985 0
M  V30 5370 H 492.056 4.74464 2.77784 0
M  V30 5371 H 493.281 5.82237 3.49538 0
M  V30 5372 H 491.227 4.19654 5.04209 0
M  V30 5373 H 491.144 5.89899 4.72816 0
M  V30 5374 H 492.412 5.27407 5.73988 0
M  V30 5375 N 496.642 -0.504142 1.49319 0
M  V30 5376 C 497.605 -1.5883 1.65244 0
M  V30 5377 C 498.605 -1.52009 0.524386 0
M  V30 5378 O 499.795 -1.55218 0.79077 0
M  V30 5379 C 496.927 -2.98481 1.64687 0
M  V30 5380 H 498.12 -1.4604 2.61939 0
M  V30 5381 H 495.673 -0.728144 1.38303 0
M  V30 5382 H 496.408 -3.16751 0.695644 0
M  V30 5383 H 496.193 -3.0484 2.46607 0
M  V30 5384 H 497.683 -3.77256 1.79075 0
M  V30 5385 N 498.12 -1.38341 -0.754957 0
M  V30 5386 C 499.536 -1.19508 -1.05783 0
M  V30 5387 C 499.736 -0.0428005 -2.01455 0
M  V30 5388 O 498.792 0.611861 -2.44975 0
M  V30 5389 C 500.105 -2.52091 -1.63923 0
M  V30 5390 C 501.653 -2.58762 -1.76101 0
M  V30 5391 C 502.128 -3.91517 -2.37652 0
M  V30 5392 N 503.619 -3.93049 -2.45085 0
M  V30 5393 C 504.354 -4.9253 -2.93602 0
M  V30 5394 N 503.85 -6.02408 -3.42165 0
M  V30 5395 N 505.643 -4.79921 -2.92629 0
M  V30 5396 H 497.794 -2.1206 -0.120056 0
M  V30 5397 H 500.057 -0.94089 -0.11589 0
M  V30 5398 H 499.763 -3.36858 -1.01093 0
M  V30 5399 H 499.637 -2.70388 -2.63003 0
M  V30 5400 H 502.024 -1.74391 -2.38058 0
M  V30 5401 H 502.105 -2.44333 -0.757294 0
M  V30 5402 H 501.749 -4.76309 -1.76329 0
M  V30 5403 H 501.679 -4.03256 -3.38662 0
M  V30 5404 H 504.17 -3.13685 -2.10736 0
M  V30 5405 H 504.483 -6.74248 -3.77637 0
M  V30 5406 H 502.828 -6.0603 -3.40225 0
M  V30 5407 H 506.019 -3.93194 -2.54001 0
M  V30 5408 H 506.192 -5.57601 -3.30128 0
M  V30 5409 N 499.598 0.982988 -1.23187 0
M  V30 5410 C 500.823 1.76455 -1.08988 0
M  V30 5411 C 501.248 1.84726 0.354691 0
M  V30 5412 O 500.606 1.30699 1.25649 0
M  V30 5413 C 500.654 3.17094 -1.71708 0
M  V30 5414 O 499.758 4.00648 -0.977477 0
M  V30 5415 H 499.099 0.542988 -0.382177 0
M  V30 5416 H 501.629 1.23413 -1.63188 0
M  V30 5417 H 501.639 3.67684 -1.76841 0
M  V30 5418 H 500.314 3.10389 -2.76823 0
M  V30 5419 H 498.891 3.59161 -1.0029 0
M  V30 5420 N 501.076 1.04316 1.18135 0
M  V30 5421 C 502.323 0.74802 1.88178 0
M  V30 5422 C 502.651 -0.72441 1.80506 0
M  V30 5423 O 501.906 -1.54463 1.20165 0
M  V30 5424 C 502.205 1.16271 3.37958 0
M  V30 5425 C 501.871 2.63585 3.65833 0
M  V30 5426 C 500.533 3.03829 3.73151 0
M  V30 5427 C 502.885 3.58822 3.78016 0
M  V30 5428 C 500.213 4.38194 3.90132 0
M  V30 5429 C 502.565 4.92909 3.96514 0
M  V30 5430 C 501.229 5.3282 4.02068 0
M  V30 5431 H 500.499 0.27372 0.688592 0
M  V30 5432 H 503.146 1.30863 1.39811 0
M  V30 5433 H 501.451 0.520938 3.88321 0
M  V30 5434 H 503.148 0.911672 3.90499 0
M  V30 5435 H 499.738 2.31414 3.60757 0
M  V30 5436 H 503.922 3.28875 3.71692 0
M  V30 5437 H 499.178 4.68631 3.92677 0
M  V30 5438 H 503.352 5.66606 4.04883 0
M  V30 5439 H 500.979 6.36943 4.14979 0
M  V30 5440 N 502.554 -1.34406 0.822964 0
M  V30 5441 C 503.517 -2.2783 0.250271 0
M  V30 5442 C 504.517 -1.50288 -0.571854 0
M  V30 5443 O 505.707 -1.69825 -0.387952 0
M  V30 5444 C 502.839 -3.34663 -0.649137 0
M  V30 5445 H 504.032 -2.79992 1.07444 0
M  V30 5446 H 501.585 -1.44539 0.594829 0
M  V30 5447 H 502.32 -2.87714 -1.49637 0
M  V30 5448 H 502.105 -3.92052 -0.0611199 0
M  V30 5449 H 503.595 -4.04349 -1.04363 0
M  V30 5450 N 504.032 -0.577932 -1.46621 0
M  V30 5451 C 504.995 0.147805 -2.28723 0
M  V30 5452 C 505.995 0.823325 -1.38123 0
M  V30 5453 O 507.185 0.676011 -1.60548 0
M  V30 5454 C 504.317 1.21853 -3.18378 0
M  V30 5455 H 505.51 -0.573654 -2.94362 0
M  V30 5456 H 503.063 -0.335703 -1.52652 0
M  V30 5457 H 503.798 1.97173 -2.57475 0
M  V30 5458 H 503.583 0.738714 -3.85078 0
M  V30 5459 H 505.073 1.72768 -3.80186 0
M  V30 5460 N 505.51 1.54411 -0.315457 0
M  V30 5461 C 506.758 2.00023 0.288971 0
M  V30 5462 C 507.079 1.20529 1.5329 0
M  V30 5463 O 506.349 0.304986 1.93511 0
M  V30 5464 H 504.929 0.738891 0.109766 0
M  V30 5465 H 507.591 1.90094 -0.430129 0
M  V30 5466 H 506.687 3.07198 0.550999 0
M  V30 5467 N 506.988 0.0434614 1.5754 0
M  V30 5468 C 508.237 -0.631454 1.91561 0
M  V30 5469 C 508.55 -1.72457 0.92292 0
M  V30 5470 O 509.756 -2.45712 1.15489 0
M  V30 5471 C 508.212 -1.17447 3.40197 0
M  V30 5472 C 507.82 -0.113867 4.47855 0
M  V30 5473 C 509.564 -1.82507 3.83264 0
M  V30 5474 C 507.471 -0.669326 5.876 0
M  V30 5475 H 506.401 -0.239629 0.714908 0
M  V30 5476 H 509.052 0.111097 1.83163 0
M  V30 5477 H 507.434 -1.96909 3.43574 0
M  V30 5478 H 508.608 0.659348 4.56058 0
M  V30 5479 H 506.923 0.438821 4.14081 0
M  V30 5480 H 509.52 -2.25047 4.85034 0
M  V30 5481 H 509.863 -2.67365 3.19095 0
M  V30 5482 H 510.396 -1.09712 3.82372 0
M  V30 5483 H 507.135 0.141449 6.55347 0
M  V30 5484 H 506.655 -1.4107 5.82974 0
M  V30 5485 H 508.334 -1.15463 6.36614 0
M  V30 5486 N 508.466 -1.55915 -0.229846 0
M  V30 5487 C 509.398 -1.88209 -1.30805 0
M  V30 5488 C 510.411 -0.769672 -1.43457 0
M  V30 5489 O 511.6 -1.04792 -1.44502 0
M  V30 5490 C 508.7 -2.06829 -2.68468 0
M  V30 5491 C 507.873 -3.37798 -2.77869 0
M  V30 5492 C 506.932 -3.45952 -3.96489 0
M  V30 5493 O 505.958 -4.19043 -3.85216 0
M  V30 5494 N 507.16 -2.76488 -5.10426 0
M  V30 5495 H 509.925 -2.81286 -1.03431 0
M  V30 5496 H 507.486 -1.5636 -0.41991 0
M  V30 5497 H 509.478 -2.09608 -3.46189 0
M  V30 5498 H 508.048 -1.20416 -2.88477 0
M  V30 5499 H 507.268 -3.4719 -1.86689 0
M  V30 5500 H 508.556 -4.24091 -2.81113 0
M  V30 5501 H 507.954 -2.16868 -5.2248 0
M  V30 5502 H 506.511 -2.84938 -5.8622 0
M  V30 5503 N 509.944 0.496216 -1.49584 0
M  V30 5504 C 510.907 1.57952 -1.66084 0
M  V30 5505 C 511.907 1.51729 -0.53244 0
M  V30 5506 O 513.097 1.54796 -0.79899 0
M  V30 5507 C 510.229 2.97604 -1.66268 0
M  V30 5508 H 511.422 1.44649 -2.6271 0
M  V30 5509 H 508.975 0.7208 -1.38687 0
M  V30 5510 H 509.71 3.16378 -0.712432 0
M  V30 5511 H 509.495 3.03528 -2.4822 0
M  V30 5512 H 510.985 3.76301 -1.81073 0
M  V30 5513 N 511.423 1.38739 0.74761 0
M  V30 5514 C 512.353 1.39173 1.87492 0
M  V30 5515 C 513.334 0.256794 1.6815 0
M  V30 5516 O 514.519 0.460762 1.88655 0
M  V30 5517 C 511.649 1.22197 3.25093 0
M  V30 5518 C 510.603 2.32957 3.59047 0
M  V30 5519 C 509.929 2.01082 4.95449 0
M  V30 5520 C 511.229 3.75237 3.6331 0
M  V30 5521 H 512.923 2.3351 1.87386 0
M  V30 5522 H 510.469 1.12399 0.900134 0
M  V30 5523 H 512.422 1.21124 4.03617 0
M  V30 5524 H 511.146 0.243241 3.25693 0
M  V30 5525 H 509.805 2.33226 2.82845 0
M  V30 5526 H 509.453 1.01678 4.92616 0
M  V30 5527 H 509.153 2.75267 5.19136 0
M  V30 5528 H 510.677 2.01638 5.76346 0
M  V30 5529 H 512.091 3.76966 4.31937 0
M  V30 5530 H 510.488 4.48677 3.98509 0
M  V30 5531 H 511.558 4.07122 2.634 0
M  V30 5532 N 512.901 -0.976442 1.23707 0
M  V30 5533 C 514.149 -1.71487 1.06942 0
M  V30 5534 C 514.47 -1.9098 -0.393897 0
M  V30 5535 O 513.74 -1.48128 -1.28198 0
M  V30 5536 H 512.32 -0.635425 0.392739 0
M  V30 5537 H 514.982 -1.17515 1.55487 0
M  V30 5538 H 514.078 -2.70286 1.56051 0
M  V30 5539 N 514.379 -1.04941 -1.1758 0
M  V30 5540 C 515.627 -0.756492 -1.87408 0
M  V30 5541 C 515.948 0.718478 -1.81281 0
M  V30 5542 O 515.218 1.519 -1.23706 0
M  V30 5543 H 513.798 -0.276841 -0.693807 0
M  V30 5544 H 516.46 -1.32803 -1.42652 0
M  V30 5545 H 515.556 -1.06918 -2.93215 0
M  V30 5546 N 515.857 1.33968 -0.830081 0
M  V30 5547 C 517.085 2.0228 -0.434773 0
M  V30 5548 C 517.5 1.62487 0.961419 0
M  V30 5549 O 516.857 0.833849 1.62337 0
M  V30 5550 C 516.908 3.5751 -0.535625 0
M  V30 5551 O 516.629 3.95864 -1.87679 0
M  V30 5552 C 518.13 4.43091 -0.136137 0
M  V30 5553 H 515.35 0.648151 -0.173613 0
M  V30 5554 H 517.894 1.71089 -1.12022 0
M  V30 5555 H 516.049 3.87266 0.101817 0
M  V30 5556 H 516.463 4.9056 -1.85609 0
M  V30 5557 H 517.937 5.51398 -0.257772 0
M  V30 5558 H 518.414 4.29433 0.921076 0
M  V30 5559 H 519.02 4.18677 -0.747662 0
M  V30 5560 N 517.335 0.585699 1.46312 0
M  V30 5561 C 518.283 -0.158577 2.32059 0
M  V30 5562 C 519.277 -0.881427 1.44662 0
M  V30 5563 O 520.483 -0.799476 1.61271 0
M  V30 5564 H 516.858 -0.0700066 0.748734 0
M  V30 5565 H 518.829 0.583383 2.92642 0
M  V30 5566 C 517.578 -1.15701 3.27885 0
M  V30 5567 H 516.901 -0.610215 3.95116 0
M  V30 5568 H 518.341 -1.64812 3.90657 0
M  V30 5569 C 516.8 -2.21951 2.53455 0
M  V30 5570 O 517.33 -3.29352 2.29978 0
M  V30 5571 N 515.536 -1.9664 2.13965 0
M  V30 5572 H 515.083 -1.09309 2.33258 0
M  V30 5573 H 515.041 -2.6794 1.64485 0
M  V30 5574 N 518.813 -1.54241 0.323641 0
M  V30 5575 C 520.062 -1.9975 -0.279806 0
M  V30 5576 C 520.375 -1.2156 -1.5324 0
M  V30 5577 O 521.581 -1.57447 -2.21185 0
M  V30 5578 C 520.037 -3.55686 -0.549115 0
M  V30 5579 C 519.645 -4.4271 0.686432 0
M  V30 5580 C 521.389 -4.09663 -1.11251 0
M  V30 5581 C 519.296 -5.90119 0.389022 0
M  V30 5582 H 518.226 -0.746177 -0.10833 0
M  V30 5583 H 520.877 -1.78248 0.435877 0
M  V30 5584 H 519.259 -3.73176 -1.32499 0
M  V30 5585 H 520.433 -4.36996 1.46188 0
M  V30 5586 H 518.748 -3.99623 1.17005 0
M  V30 5587 H 521.345 -5.17386 -1.34965 0
M  V30 5588 H 521.688 -3.61651 -2.06191 0
M  V30 5589 H 522.221 -3.95806 -0.39782 0
M  V30 5590 H 518.96 -6.42326 1.30759 0
M  V30 5591 H 518.48 -5.98785 -0.348722 0
M  V30 5592 H 520.159 -6.47 -0.0011164 0
M  V30 5593 N 520.291 -0.0518155 -1.57515 0
M  V30 5594 C 521.239 0.940195 -2.12751 0
M  V30 5595 C 522.233 1.3218 -1.05948 0
M  V30 5596 O 523.439 1.30138 -1.24355 0
M  V30 5597 H 519.814 0.321066 -0.680015 0
M  V30 5598 H 521.785 0.449217 -2.94999 0
M  V30 5599 C 520.534 2.2055 -2.68799 0
M  V30 5600 H 519.857 1.92066 -3.50643 0
M  V30 5601 H 521.297 2.88119 -3.11068 0
M  V30 5602 C 519.756 2.95061 -1.62605 0
M  V30 5603 O 520.286 3.88025 -1.03921 0
M  V30 5604 N 518.492 2.57804 -1.34111 0
M  V30 5605 H 518.039 1.82281 -1.8202 0
M  V30 5606 H 517.997 3.07964 -0.632872 0
M  V30 5607 N 521.769 1.56035 0.221574 0
M  V30 5608 C 523.046 1.69837 0.970301 0
M  V30 5609 C 523.426 0.599065 2.02421 0
M  V30 5610 O 522.774 -0.393929 2.25079 0
M  V30 5611 C 522.984 3.11148 1.58076 0
M  V30 5612 C 524.332 3.70555 2.07302 0
M  V30 5613 O 525.356 3.14109 1.6797 0
M  V30 5614 O 524.215 4.69562 2.79596 0
M  V30 5615 H 521.309 0.691727 0.453257 0
M  V30 5616 H 523.855 1.68353 0.213358 0
M  V30 5617 H 522.627 3.82617 0.819759 0
M  V30 5618 H 522.25 3.16749 2.40324 0
M  V30 5619 N 523.247 -0.488276 1.49845 0
M  V30 5620 C 524.21 -1.57069 1.66919 0
M  V30 5621 C 525.21 -1.51445 0.540479 0
M  V30 5622 O 526.4 -1.5437 0.807188 0
M  V30 5623 C 523.532 -2.96718 1.67844 0
M  V30 5624 H 524.725 -1.43254 2.63474 0
M  V30 5625 H 522.278 -0.713435 1.39068 0
M  V30 5626 H 523.013 -3.15996 0.7292 0
M  V30 5627 H 522.798 -3.02208 2.49826 0
M  V30 5628 H 524.288 -3.75335 1.83066 0
M  V30 5629 N 524.725 -1.39134 -0.740242 0
M  V30 5630 C 525.658 -1.3182 -1.86276 0
M  V30 5631 C 526.636 -0.192794 -1.61453 0
M  V30 5632 O 527.82 -0.372365 -1.84786 0
M  V30 5633 C 524.947 -1.04564 -3.22155 0
M  V30 5634 C 523.993 -2.19224 -3.65846 0
M  V30 5635 S 524.826 -3.81466 -3.75824 0
M  V30 5636 C 525.982 -3.56425 -5.14502 0
M  V30 5637 H 526.215 -2.26822 -1.92195 0
M  V30 5638 H 523.748 -1.25127 -0.904576 0
M  V30 5639 H 525.706 -0.895228 -4.00619 0
M  V30 5640 H 524.367 -0.112578 -3.13898 0
M  V30 5641 H 523.56 -1.95732 -4.6444 0
M  V30 5642 H 523.162 -2.30441 -2.94572 0
M  V30 5643 H 525.454 -3.13366 -6.00673 0
M  V30 5644 H 526.397 -4.54462 -5.43019 0
M  V30 5645 H 526.805 -2.90641 -4.8393 0
M  V30 5646 N 526.204 0.969867 -1.24223 0
M  V30 5647 C 527.134 2.08191 -1.05729 0
M  V30 5648 C 528.115 1.70075 0.0290765 0
M  V30 5649 O 529.3 1.93712 -0.137583 0
M  V30 5650 C 526.43 3.40991 -0.658995 0
M  V30 5651 C 525.384 3.93054 -1.69389 0
M  V30 5652 C 524.71 5.22171 -1.15072 0
M  V30 5653 C 526.01 4.21137 -3.08935 0
M  V30 5654 H 527.704 2.23921 -1.98746 0
M  V30 5655 H 525.25 1.07602 -0.956967 0
M  V30 5656 H 527.203 4.18221 -0.51662 0
M  V30 5657 H 525.927 3.25155 0.30686 0
M  V30 5658 H 524.586 3.17977 -1.82444 0
M  V30 5659 H 524.234 5.02694 -0.175539 0
M  V30 5660 H 523.934 5.57973 -1.84229 0
M  V30 5661 H 525.458 6.02013 -1.02042 0
M  V30 5662 H 526.872 4.8908 -2.99121 0
M  V30 5663 H 525.269 4.68163 -3.75425 0
M  V30 5664 H 526.339 3.27996 -3.57137 0
M  V30 5665 N 527.682 1.05563 1.17022 0
M  V30 5666 C 528.615 0.604197 2.20056 0
M  V30 5667 C 529.593 -0.369169 1.58354 0
M  V30 5668 O 530.777 -0.279898 1.8641 0
M  V30 5669 C 527.904 -0.115265 3.38504 0
M  V30 5670 C 526.95 0.813698 4.18666 0
M  V30 5671 S 527.783 2.30492 4.83357 0
M  V30 5672 C 528.939 1.59674 6.0519 0
M  V30 5673 H 529.172 1.47713 2.58008 0
M  V30 5674 H 526.705 0.867932 1.27696 0
M  V30 5675 H 528.663 -0.524162 4.0714 0
M  V30 5676 H 527.324 -0.964284 2.98932 0
M  V30 5677 H 526.517 0.256736 5.03346 0
M  V30 5678 H 526.119 1.16213 3.55486 0
M  V30 5679 H 528.411 0.898164 6.7152 0
M  V30 5680 H 529.354 2.42115 6.65422 0
M  V30 5681 H 529.762 1.08252 5.54023 0
M  V30 5682 N 529.16 -1.33526 0.837174 0
M  V30 5683 C 530.123 -2.27551 0.274421 0
M  V30 5684 C 531.123 -1.50886 -0.555881 0
M  V30 5685 O 532.313 -1.70227 -0.369918 0
M  V30 5686 C 529.445 -3.35332 -0.613605 0
M  V30 5687 H 530.638 -2.78837 1.10408 0
M  V30 5688 H 528.191 -1.439 0.610126 0
M  V30 5689 H 528.926 -2.89285 -1.46577 0
M  V30 5690 H 528.711 -3.92095 -0.0195341 0
M  V30 5691 H 530.201 -4.05433 -1.00068 0
M  V30 5692 N 530.638 -0.59345 -1.46 0
M  V30 5693 C 531.884 -0.0832754 -2.02629 0
M  V30 5694 C 532.217 1.27749 -1.46266 0
M  V30 5695 O 531.492 1.8395 -0.631866 0
M  V30 5696 C 531.775 -0.0290756 -3.60088 0
M  V30 5697 C 531.628 -1.41951 -4.26814 0
M  V30 5698 C 532.947 0.666055 -4.35031 0
M  V30 5699 H 530.066 -0.031736 -0.736316 0
M  V30 5700 H 532.708 -0.762711 -1.74019 0
M  V30 5701 H 530.858 0.549532 -3.84594 0
M  V30 5702 H 532.53 -2.04411 -4.13538 0
M  V30 5703 H 530.773 -1.98422 -3.8576 0
M  V30 5704 H 531.444 -1.33395 -5.3564 0
M  V30 5705 H 533.92 0.174401 -4.15734 0
M  V30 5706 H 532.796 0.673041 -5.44758 0
M  V30 5707 H 533.057 1.72946 -4.06869 0
M  V30 5708 N 532.116 1.54067 -0.331816 0
M  V30 5709 C 533.048 2.22139 0.564538 0
M  V30 5710 C 534.061 1.22408 1.07332 0
M  V30 5711 O 535.25 1.4883 0.985481 0
M  V30 5712 C 532.35 2.87876 1.78831 0
M  V30 5713 C 531.523 4.13817 1.41682 0
M  V30 5714 C 530.582 4.63072 2.49901 0
M  V30 5715 O 529.608 5.27562 2.13699 0
M  V30 5716 N 530.81 4.38001 3.80967 0
M  V30 5717 H 533.575 2.99694 -0.0183736 0
M  V30 5718 H 531.136 1.61153 -0.155396 0
M  V30 5719 H 533.128 3.17747 2.50637 0
M  V30 5720 H 531.698 2.13977 2.27887 0
M  V30 5721 H 530.918 3.9062 0.530044 0
M  V30 5722 H 532.206 4.95762 1.14443 0
M  V30 5723 H 531.604 3.864 4.13173 0
M  V30 5724 H 530.161 4.72507 4.48977 0
M  V30 5725 N 533.594 0.0601682 1.57485 0
M  V30 5726 C 534.524 -0.90889 2.15085 0
M  V30 5727 C 535.505 -1.31838 1.07484 0
M  V30 5728 O 536.69 -1.3915 1.35466 0
M  V30 5729 C 533.82 -2.18059 2.7031 0
M  V30 5730 C 532.774 -1.91088 3.82974 0
M  V30 5731 C 532.1 -3.24789 4.24754 0
M  V30 5732 C 533.4 -1.22535 5.07723 0
M  V30 5733 H 535.094 -0.429093 2.96309 0
M  V30 5734 H 532.64 -0.204952 1.42534 0
M  V30 5735 H 534.593 -2.86258 3.09248 0
M  V30 5736 H 533.317 -2.6826 1.8629 0
M  V30 5737 H 531.976 -1.25297 3.44523 0
M  V30 5738 H 531.624 -3.72809 3.37672 0
M  V30 5739 H 531.324 -3.07538 5.00694 0
M  V30 5740 H 532.848 -3.94205 4.66299 0
M  V30 5741 H 534.262 -1.80783 5.4405 0
M  V30 5742 H 532.659 -1.1558 5.88864 0
M  V30 5743 H 533.729 -0.202692 4.84476 0
M  V30 5744 N 535.072 -1.5615 -0.213296 0
M  V30 5745 C 536.002 -1.96109 -1.26742 0
M  V30 5746 C 536.983 -0.830448 -1.48451 0
M  V30 5747 O 538.168 -1.09339 -1.60495 0
M  V30 5748 C 535.298 -2.28492 -2.61551 0
M  V30 5749 C 534.252 -3.44124 -2.54485 0
M  V30 5750 C 533.578 -3.62134 -3.93399 0
M  V30 5751 C 534.878 -4.78855 -2.08556 0
M  V30 5752 H 536.572 -2.84412 -0.935434 0
M  V30 5753 H 534.118 -1.36836 -0.44854 0
M  V30 5754 H 536.071 -2.55039 -3.3546 0
M  V30 5755 H 534.795 -1.37052 -2.96453 0
M  V30 5756 H 533.454 -3.17639 -1.83033 0
M  V30 5757 H 533.102 -2.68055 -4.25623 0
M  V30 5758 H 532.802 -4.39913 -3.89551 0
M  V30 5759 H 534.326 -3.91038 -4.68958 0
M  V30 5760 H 535.74 -5.04552 -2.72213 0
M  V30 5761 H 534.137 -5.59975 -2.1575 0
M  V30 5762 H 535.207 -4.73657 -1.03811 0
M  V30 5763 N 536.55 0.480323 -1.50102 0
M  V30 5764 C 537.827 1.24159 -1.51142 0
M  V30 5765 C 538.207 2.09605 -0.250818 0
M  V30 5766 O 537.555 2.15274 0.766118 0
M  V30 5767 C 537.765 2.08057 -2.80202 0
M  V30 5768 C 539.113 2.66556 -3.30504 0
M  V30 5769 O 540.137 2.18308 -2.81461 0
M  V30 5770 O 538.996 3.54442 -4.15973 0
M  V30 5771 H 536.09 0.562928 -0.605839 0
M  V30 5772 H 538.636 0.492899 -1.62384 0
M  V30 5773 H 537.408 1.45032 -3.6343 0
M  V30 5774 H 537.031 2.90079 -2.71919 0
M  V30 5775 N 538.028 1.39524 0.732853 0
M  V30 5776 C 539.253 1.40329 1.52717 0
M  V30 5777 C 539.678 0.000286574 1.881 0
M  V30 5778 O 539.036 -0.987262 1.52062 0
M  V30 5779 C 539.084 2.28464 2.78992 0
M  V30 5780 O 538.188 1.716 3.75003 0
M  V30 5781 H 537.529 0.47778 0.461109 0
M  V30 5782 H 540.059 1.83546 0.903996 0
M  V30 5783 H 540.069 2.43051 3.27705 0
M  V30 5784 H 538.744 3.30425 2.52572 0
M  V30 5785 H 537.321 1.66267 3.33781 0
M  V30 5786 N 539.506 -0.963266 1.24736 0
M  V30 5787 C 540.731 -1.74699 1.11781 0
M  V30 5788 C 541.156 -1.85267 -0.325258 0
M  V30 5789 O 540.514 -1.32681 -1.23553 0
M  V30 5790 C 540.562 -3.14322 1.76731 0
M  V30 5791 O 539.666 -3.99043 1.04109 0
M  V30 5792 H 539.007 -0.53684 0.390767 0
M  V30 5793 H 541.537 -1.20801 1.65131 0
M  V30 5794 H 541.547 -3.64824 1.82668 0
M  V30 5795 H 540.222 -3.05946 2.81726 0
M  V30 5796 H 538.799 -3.5752 1.05991 0
M  V30 5797 N 540.985 -1.06182 -1.16461 0
M  V30 5798 C 541.933 -0.665716 -2.2287 0
M  V30 5799 C 542.927 0.317822 -1.66392 0
M  V30 5800 O 544.133 0.182807 -1.79069 0
M  V30 5801 H 540.508 -0.197148 -0.725697 0
M  V30 5802 H 542.479 -1.57307 -2.53569 0
M  V30 5803 C 541.228 -0.0669803 -3.47635 0
M  V30 5804 H 540.551 -0.814899 -3.91407 0
M  V30 5805 H 541.991 0.172669 -4.23648 0
M  V30 5806 C 540.45 1.18913 -3.15216 0
M  V30 5807 O 540.98 2.27723 -3.30916 0
M  V30 5808 N 539.186 1.09066 -2.69357 0
M  V30 5809 H 538.733 0.20518 -2.56782 0
M  V30 5810 H 538.691 1.93195 -2.48039 0
M  V30 5811 N 542.463 1.3308 -0.844243 0
M  V30 5812 C 543.395 2.27954 -0.238671 0
M  V30 5813 C 544.408 1.51978 0.583665 0
M  V30 5814 O 545.597 1.73731 0.409857 0
M  V30 5815 C 542.697 3.31963 0.682185 0
M  V30 5816 C 541.87 4.37281 -0.101998 0
M  V30 5817 C 540.929 5.20928 0.743022 0
M  V30 5818 O 539.955 5.68914 0.180285 0
M  V30 5819 N 541.157 5.42738 2.0595 0
M  V30 5820 H 543.922 2.8056 -1.05386 0
M  V30 5821 H 541.483 1.4583 -0.70322 0
M  V30 5822 H 543.475 3.84828 1.25259 0
M  V30 5823 H 542.045 2.79594 1.39808 0
M  V30 5824 H 541.265 3.84843 -0.853802 0
M  V30 5825 H 542.553 5.04746 -0.641015 0
M  V30 5826 H 541.951 5.05463 2.54016 0
M  V30 5827 H 540.508 5.98639 2.57827 0
M  V30 5828 N 543.941 0.601185 1.45683 0
M  V30 5829 C 544.851 -0.123395 2.34275 0
M  V30 5830 C 545.867 -0.86702 1.5086 0
M  V30 5831 O 547.043 -0.826049 1.8368 0
M  V30 5832 C 544.108 -1.11237 3.2837 0
M  V30 5833 C 543.169 -0.371405 4.2769 0
M  V30 5834 C 542.402 -1.31327 5.1729 0
M  V30 5835 O 542.625 -2.55078 5.10188 0
M  V30 5836 O 541.559 -0.813811 5.96373 0
M  V30 5837 H 545.385 0.604483 2.97623 0
M  V30 5838 H 542.97 0.361477 1.44961 0
M  V30 5839 H 544.852 -1.68214 3.8637 0
M  V30 5840 H 543.527 -1.82139 2.67595 0
M  V30 5841 H 542.434 0.24067 3.73325 0
M  V30 5842 H 543.767 0.296998 4.91303 0
M  V30 5843 N 545.419 -1.53889 0.339982 0
M  V30 5844 C 546.329 -2.28604 -0.526988 0
M  V30 5845 C 547.345 -1.33578 -1.11503 0
M  V30 5846 O 548.521 -1.66612 -1.13148 0
M  V30 5847 C 545.586 -3.04164 -1.66389 0
M  V30 5848 C 544.647 -4.14809 -1.10599 0
M  V30 5849 C 543.88 -4.86756 -2.18871 0
M  V30 5850 O 544.103 -4.58343 -3.39526 0
M  V30 5851 O 543.037 -5.73289 -1.83366 0
M  V30 5852 H 546.863 -3.03594 0.0802707 0
M  V30 5853 H 544.448 -1.4903 0.105141 0
M  V30 5854 H 546.33 -3.51427 -2.32544 0
M  V30 5855 H 545.005 -2.32035 -2.25703 0
M  V30 5856 H 543.912 -3.71857 -0.409067 0
M  V30 5857 H 545.245 -4.89029 -0.557771 0
M  V30 5858 N 546.897 -0.0685191 -1.57451 0
M  V30 5859 C 548.313 0.288101 -1.56978 0
M  V30 5860 C 548.513 1.70262 -1.07765 0
M  V30 5861 O 547.569 2.4135 -0.742054 0
M  V30 5862 C 548.882 0.100745 -3.00531 0
M  V30 5863 C 550.43 0.170531 -3.12535 0
M  V30 5864 C 550.905 0.0114944 -4.57999 0
M  V30 5865 N 552.396 0.0672065 -4.63151 0
M  V30 5866 C 553.131 -0.0314813 -5.73391 0
M  V30 5867 N 552.627 -0.183503 -6.92557 0
M  V30 5868 N 554.42 0.0253489 -5.62094 0
M  V30 5869 H 546.571 -0.993026 -1.87757 0
M  V30 5870 H 548.834 -0.386981 -0.865419 0
M  V30 5871 H 548.54 -0.875197 -3.40636 0
M  V30 5872 H 548.414 0.854457 -3.67395 0
M  V30 5873 H 550.801 1.13696 -2.72318 0
M  V30 5874 H 550.882 -0.614229 -2.48316 0
M  V30 5875 H 550.526 -0.951684 -4.98904 0
M  V30 5876 H 550.456 0.815617 -5.20245 0
M  V30 5877 H 552.947 0.183246 -3.77455 0
M  V30 5878 H 553.26 -0.251041 -7.72392 0
M  V30 5879 H 551.605 -0.218822 -6.94655 0
M  V30 5880 H 554.796 0.142794 -4.67882 0
M  V30 5881 H 554.969 -0.0550166 -6.47977 0
M  V30 5882 N 548.375 1.56261 0.205012 0
M  V30 5883 C 549.305 1.96779 1.257 0
M  V30 5884 C 550.286 0.838309 1.48008 0
M  V30 5885 O 551.471 1.10189 1.59913 0
M  V30 5886 C 548.601 2.29876 2.60335 0
M  V30 5887 C 547.555 3.45469 2.52656 0
M  V30 5888 C 546.881 3.64215 3.91473 0
M  V30 5889 C 548.181 4.79954 2.06014 0
M  V30 5890 H 549.875 2.84904 0.920338 0
M  V30 5891 H 547.421 1.37072 0.441277 0
M  V30 5892 H 549.374 2.56814 3.34102 0
M  V30 5893 H 548.098 1.38622 2.95722 0
M  V30 5894 H 546.757 3.18605 1.81345 0
M  V30 5895 H 546.405 2.70309 4.24196 0
M  V30 5896 H 546.105 4.41973 3.87213 0
M  V30 5897 H 547.629 3.93519 4.66878 0
M  V30 5898 H 549.043 5.05989 2.69533 0
M  V30 5899 H 547.44 5.61111 2.12777 0
M  V30 5900 H 548.51 4.74201 1.01297 0
M  V30 5901 N 549.853 -0.472356 1.50355 0
M  V30 5902 C 551.264 -1.05326 1.54154 0
M  V30 5903 C 551.615 -1.93155 0.344303 0
M  V30 5904 O 550.74 -2.09479 -0.542928 0
M  V30 5905 C 551.335 -1.91691 2.79356 0
M  V30 5906 C 549.894 -2.44892 2.8584 0
M  V30 5907 C 549.041 -1.23205 2.48426 0
M  V30 5908 H 551.992 -0.255027 1.56637 0
M  V30 5909 H 552.013 -2.76742 2.6114 0
M  V30 5910 H 551.525 -1.27741 3.66475 0
M  V30 5911 H 549.626 -3.12399 2.0307 0
M  V30 5912 H 549.739 -2.80086 3.88701 0
M  V30 5913 H 548.103 -1.56643 2.00836 0
M  V30 5914 H 548.886 -0.609194 3.37852 0
M  V30 5915 N 551.331 -1.39911 -0.725443 0
M  V30 5916 C 552.241 -1.41688 -1.8698 0
M  V30 5917 C 553.257 -0.310579 -1.71206 0
M  V30 5918 O 554.433 -0.55359 -1.93642 0
M  V30 5919 C 551.498 -1.26811 -3.22676 0
M  V30 5920 C 550.559 -2.47497 -3.50776 0
M  V30 5921 C 549.792 -2.3332 -4.79997 0
M  V30 5922 O 550.015 -1.34175 -5.54394 0
M  V30 5923 O 548.949 -3.22498 -5.08211 0
M  V30 5924 H 552.775 -2.38171 -1.88436 0
M  V30 5925 H 550.36 -1.21128 -0.874548 0
M  V30 5926 H 552.242 -1.20684 -4.03749 0
M  V30 5927 H 550.917 -0.334289 -3.21969 0
M  V30 5928 H 549.824 -2.59201 -2.69751 0
M  V30 5929 H 551.157 -3.39606 -3.5627 0
M  V30 5930 N 552.809 0.956637 -1.25245 0
M  V30 5931 C 554.057 1.69764 -1.09657 0
M  V30 5932 C 554.378 1.91583 0.363464 0
M  V30 5933 O 553.648 1.50149 1.25825 0
M  V30 5934 H 552.228 0.629097 -0.402798 0
M  V30 5935 H 554.89 1.15026 -1.57337 0
M  V30 5936 H 553.986 2.67769 -1.60331 0
M  V30 5937 N 554.287 1.06798 1.15896 0
M  V30 5938 C 555.512 0.808739 1.90982 0
M  V30 5939 C 555.937 -0.6316 1.77179 0
M  V30 5940 O 555.295 -1.4407 1.10061 0
M  V30 5941 C 555.343 1.21468 3.39526 0
M  V30 5942 O 554.447 0.356562 4.10856 0
M  V30 5943 H 553.788 0.29512 0.594811 0
M  V30 5944 H 556.318 1.42513 1.46804 0
M  V30 5945 H 556.328 1.18844 3.90308 0
M  V30 5946 H 555.003 2.26379 3.48891 0
M  V30 5947 H 553.58 0.444808 3.70238 0
M  V30 5948 N 555.766 -1.3263 0.851289 0
M  V30 5949 C 557.012 -1.9766 0.453694 0
M  V30 5950 C 557.345 -1.67225 -0.987396 0
M  V30 5951 O 556.62 -0.958693 -1.69232 0
M  V30 5952 C 556.903 -3.5344 0.68936 0
M  V30 5953 C 556.756 -3.93517 2.17862 0
M  V30 5954 C 558.075 -4.39866 0.143555 0
M  V30 5955 H 555.194 -0.717989 0.166314 0
M  V30 5956 H 557.836 -1.57068 1.06909 0
M  V30 5957 H 555.986 -3.88147 0.165546 0
M  V30 5958 H 557.658 -3.69006 2.76826 0
M  V30 5959 H 555.901 -3.42798 2.65841 0
M  V30 5960 H 556.572 -5.02065 2.29422 0
M  V30 5961 H 559.048 -4.11875 0.591451 0
M  V30 5962 H 557.924 -5.47858 0.338043 0
M  V30 5963 H 558.185 -4.31696 -0.953466 0
M  V30 5964 N 557.244 -0.608902 -1.45362 0
M  V30 5965 C 558.469 -0.10921 -2.07112 0
M  V30 5966 C 558.894 1.19779 -1.45033 0
M  V30 5967 O 558.252 1.72961 -0.543527 0
M  V30 5968 C 558.3 0.0155745 -3.60597 0
M  V30 5969 O 557.404 1.06546 -3.98399 0
M  V30 5970 H 556.745 -0.0746619 -0.659789 0
M  V30 5971 H 559.275 -0.839283 -1.86594 0
M  V30 5972 H 559.285 0.213364 -4.07442 0
M  V30 5973 H 557.96 -0.938765 -4.05167 0
M  V30 5974 H 556.537 0.844024 -3.63223 0
M  V30 5975 N 558.722 1.53707 -0.348139 0
M  V30 5976 C 559.652 2.28111 0.498766 0
M  V30 5977 C 560.633 1.29851 1.09876 0
M  V30 5978 O 561.818 1.587 1.11928 0
M  V30 5979 C 558.948 3.05735 1.64753 0
M  V30 5980 C 557.902 4.11537 1.17565 0
M  V30 5981 C 557.228 4.77142 2.4133 0
M  V30 5982 C 558.528 5.21587 0.272844 0
M  V30 5983 H 560.222 2.99152 -0.121934 0
M  V30 5984 H 557.768 1.43875 -0.0600842 0
M  V30 5985 H 559.721 3.56526 2.24649 0
M  V30 5986 H 558.445 2.32354 2.2952 0
M  V30 5987 H 557.104 3.61665 0.599483 0
M  V30 5988 H 556.752 4.0035 3.04514 0
M  V30 5989 H 556.452 5.48626 2.10436 0
M  V30 5990 H 557.976 5.30719 3.01943 0
M  V30 5991 H 559.39 5.67986 0.778779 0
M  V30 5992 H 557.787 6.00074 0.0555849 0
M  V30 5993 H 558.857 4.79969 -0.689785 0
M  V30 5994 N 560.2 0.0768682 1.57412 0
M  V30 5995 C 561.449 -0.590679 1.92857 0
M  V30 5996 C 561.762 -1.70461 0.959293 0
M  V30 5997 O 562.968 -2.43207 1.20675 0
M  V30 5998 C 561.424 -1.10204 3.42612 0
M  V30 5999 C 561.032 -0.0188447 4.47996 0
M  V30 6000 C 562.776 -1.74336 3.87049 0
M  V30 6001 C 560.683 -0.544536 5.88888 0
M  V30 6002 H 559.613 -0.224411 0.71983 0
M  V30 6003 H 562.264 0.149924 1.82887 0
M  V30 6004 H 560.646 -1.89577 3.47673 0
M  V30 6005 H 561.82 0.755936 4.54557 0
M  V30 6006 H 560.135 0.526555 4.13057 0
M  V30 6007 H 562.732 -2.14708 4.89699 0
M  V30 6008 H 563.075 -2.60537 3.24694 0
M  V30 6009 H 563.608 -1.01577 3.84613 0
M  V30 6010 H 560.347 0.280426 6.549 0
M  V30 6011 H 559.867 -1.28673 5.85836 0
M  V30 6012 H 561.546 -1.01933 6.3892 0
M  V30 6013 N 561.678 -1.56367 -0.196722 0
M  V30 6014 C 562.927 -1.79724 -0.915539 0
M  V30 6015 C 563.24 -0.649804 -1.84491 0
M  V30 6016 O 564.446 -0.767631 -2.60422 0
M  V30 6017 C 562.902 -3.18369 -1.67836 0
M  V30 6018 C 562.51 -4.4091 -0.793897 0
M  V30 6019 C 564.254 -3.51037 -2.38691 0
M  V30 6020 C 562.161 -5.70577 -1.55549 0
M  V30 6021 H 561.091 -0.67013 -0.345604 0
M  V30 6022 H 563.742 -1.82721 -0.168856 0
M  V30 6023 H 562.124 -3.09617 -2.46887 0
M  V30 6024 H 563.298 -4.60781 -0.042163 0
M  V30 6025 H 561.613 -4.15937 -0.19626 0
M  V30 6026 H 564.21 -4.4515 -2.96219 0
M  V30 6027 H 564.553 -2.74704 -3.12799 0
M  V30 6028 H 565.086 -3.61229 -1.66608 0
M  V30 6029 H 561.825 -6.49871 -0.857226 0
M  V30 6030 H 561.345 -5.54726 -2.2812 0
M  V30 6031 H 563.024 -6.11637 -2.10971 0
M  V30 6032 N 563.156 0.464375 -1.50603 0
M  V30 6033 C 564.086 1.56944 -1.72889 0
M  V30 6034 C 565.067 1.59979 -0.577997 0
M  V30 6035 O 566.252 1.76138 -0.817855 0
M  V30 6036 C 563.382 2.95225 -1.8292 0
M  V30 6037 C 562.336 3.07056 -2.98162 0
M  V30 6038 C 561.662 4.47051 -2.93343 0
M  V30 6039 C 562.962 2.83648 -4.38567 0
M  V30 6040 H 564.656 1.38547 -2.65415 0
M  V30 6041 H 562.202 0.665082 -1.27721 0
M  V30 6042 H 564.155 3.72467 -1.97095 0
M  V30 6043 H 562.879 3.14793 -0.870209 0
M  V30 6044 H 561.538 2.32248 -2.83648 0
M  V30 6045 H 561.186 4.63547 -1.95276 0
M  V30 6046 H 560.886 4.55902 -3.70712 0
M  V30 6047 H 562.41 5.26304 -3.09575 0
M  V30 6048 H 563.824 3.50636 -4.53572 0
M  V30 6049 H 562.221 3.03937 -5.17438 0
M  V30 6050 H 563.291 1.79451 -4.50472 0
M  V30 6051 N 564.634 1.40294 0.718013 0
M  V30 6052 C 565.564 1.43118 1.84498 0
M  V30 6053 C 566.545 0.292403 1.67568 0
M  V30 6054 O 567.73 0.500675 1.87635 0
M  V30 6055 C 564.86 1.29065 3.22427 0
M  V30 6056 C 563.814 2.40521 3.54025 0
M  V30 6057 C 563.14 2.11546 4.91073 0
M  V30 6058 C 564.44 3.82859 3.55269 0
M  V30 6059 H 566.134 2.37432 1.82391 0
M  V30 6060 H 563.68 1.14283 0.87609 0
M  V30 6061 H 565.633 1.29658 4.00957 0
M  V30 6062 H 564.357 0.312271 3.25104 0
M  V30 6063 H 563.016 2.39173 2.77834 0
M  V30 6064 H 562.664 1.12104 4.90348 0
M  V30 6065 H 562.364 2.86216 5.1318 0
M  V30 6066 H 563.888 2.13817 5.71939 0
M  V30 6067 H 565.302 3.86044 4.23843 0
M  V30 6068 H 563.699 4.57029 3.88902 0
M  V30 6069 H 564.769 4.12617 2.54706 0
M  V30 6070 N 566.112 -0.949982 1.2575 0
M  V30 6071 C 567.34 -1.72972 1.13527 0
M  V30 6072 C 567.755 -1.8623 -0.310453 0
M  V30 6073 O 567.112 -1.36336 -1.2132 0
M  V30 6074 C 567.163 -3.14108 1.78936 0
M  V30 6075 O 566.884 -3.01493 3.17858 0
M  V30 6076 C 568.385 -4.08338 1.72554 0
M  V30 6077 H 565.605 -0.541864 0.395758 0
M  V30 6078 H 568.149 -1.19151 1.66202 0
M  V30 6079 H 566.304 -3.64858 1.30221 0
M  V30 6080 H 566.718 -3.90559 3.50092 0
M  V30 6081 H 568.192 -5.04963 2.22973 0
M  V30 6082 H 568.669 -4.33742 0.690251 0
M  V30 6083 H 569.275 -3.63506 2.2078 0
M  V30 6084 N 567.59 -1.07411 -1.15328 0
M  V30 6085 C 568.867 -0.710732 -1.82231 0
M  V30 6086 C 569.247 0.806732 -1.95077 0
M  V30 6087 O 568.595 1.72139 -1.50268 0
M  V30 6088 C 568.805 -1.42586 -3.18544 0
M  V30 6089 C 570.153 -1.57836 -3.94174 0
M  V30 6090 O 571.177 -1.38669 -3.281 0
M  V30 6091 O 570.036 -1.8938 -5.12638 0
M  V30 6092 H 567.13 -0.25297 -0.78736 0
M  V30 6093 H 569.676 -1.17508 -1.22434 0
M  V30 6094 H 568.448 -2.46008 -3.04296 0
M  V30 6095 H 568.071 -0.952332 -3.86026 0
M  V30 6096 N 569.068 1.32177 -0.85831 0
M  V30 6097 C 570.316 1.96735 -0.462568 0
M  V30 6098 C 570.637 1.6824 0.985911 0
M  V30 6099 O 569.907 0.991564 1.68952 0
M  V30 6100 H 568.487 0.727849 -0.168064 0
M  V30 6101 H 571.149 1.61195 -1.09554 0
M  V30 6102 H 570.245 3.06068 -0.610647 0
M  V30 6103 N 570.547 0.616602 1.45037 0
M  V30 6104 C 571.824 0.0469086 1.95544 0
M  V30 6105 C 572.204 -1.42345 1.55888 0
M  V30 6106 O 571.552 -2.13055 0.825824 0
M  V30 6107 C 571.762 0.254489 3.48071 0
M  V30 6108 C 573.11 0.140025 4.24369 0
M  V30 6109 O 574.134 0.185084 3.55719 0
M  V30 6110 O 572.993 0.0327034 5.4649 0
M  V30 6111 H 570.087 -0.0306051 0.826433 0
M  V30 6112 H 572.633 0.687293 1.55159 0
M  V30 6113 H 571.405 1.27532 3.69934 0
M  V30 6114 H 571.028 -0.42073 3.95368 0
M  V30 6115 N 572.025 -1.5352 0.356285 0
M  V30 6116 C 573.436 -1.86282 -0.12492 0
M  V30 6117 C 573.787 -1.27717 -1.48939 0
M  V30 6118 O 572.912 -0.595614 -2.08042 0
M  V30 6119 C 573.507 -3.37995 -0.23345 0
M  V30 6120 C 572.066 -3.70588 -0.658899 0
M  V30 6121 C 571.213 -2.76581 0.199596 0
M  V30 6122 H 574.164 -1.47901 0.575423 0
M  V30 6123 H 574.185 -3.65475 -1.0587 0
M  V30 6124 H 573.697 -3.8059 0.759776 0
M  V30 6125 H 571.798 -3.33544 -1.66069 0
M  V30 6126 H 571.911 -4.77076 -0.439957 0
M  V30 6127 H 570.275 -2.52552 -0.330076 0
M  V30 6128 H 571.058 -3.22008 1.19019 0
M  V30 6129 N 573.503 -0.0852151 -1.57369 0
M  V30 6130 C 574.731 0.58946 -1.98325 0
M  V30 6131 C 575.146 1.62333 -0.96403 0
M  V30 6132 O 574.503 1.82438 0.0476395 0
M  V30 6133 C 574.554 1.24604 -3.39347 0
M  V30 6134 O 574.275 0.253532 -4.37366 0
M  V30 6135 C 575.776 2.00726 -3.95252 0
M  V30 6136 H 572.996 0.158783 -0.651942 0
M  V30 6137 H 575.54 -0.161584 -2.03861 0
M  V30 6138 H 573.695 1.94808 -3.34856 0
M  V30 6139 H 574.109 0.726207 -5.19448 0
M  V30 6140 H 575.583 2.42039 -4.96106 0
M  V30 6141 H 576.06 2.86919 -3.32527 0
M  V30 6142 H 576.666 1.3536 -4.03185 0
M  V30 6143 N 574.981 1.5647 0.188427 0
M  V30 6144 C 576.227 1.81281 0.909124 0
M  V30 6145 C 576.56 0.66034 1.82628 0
M  V30 6146 O 575.835 -0.338737 1.91528 0
M  V30 6147 C 576.118 3.16388 1.7196 0
M  V30 6148 C 575.971 4.42137 0.826714 0
M  V30 6149 C 577.29 3.48256 2.69083 0
M  V30 6150 H 574.409 0.659457 0.329068 0
M  V30 6151 H 577.051 1.89182 0.176156 0
M  V30 6152 H 575.201 3.09784 2.34448 0
M  V30 6153 H 576.873 4.60794 0.216025 0
M  V30 6154 H 575.116 4.33594 0.133792 0
M  V30 6155 H 575.787 5.33184 1.42893 0
M  V30 6156 H 578.263 3.55203 2.16726 0
M  V30 6157 H 577.139 4.43899 3.2287 0
M  V30 6158 H 577.4 2.72088 3.48455 0
M  V30 6159 N 576.459 -0.456382 1.50847 0
M  V30 6160 C 577.707 -1.20497 1.62249 0
M  V30 6161 C 578.028 -1.92156 0.331839 0
M  V30 6162 O 577.298 -1.84751 -0.651443 0
M  V30 6163 H 575.878 -0.447775 0.597918 0
M  V30 6164 H 578.54 -0.525099 1.87693 0
M  V30 6165 H 577.636 -1.94492 2.44089 0
M  V30 6166 N 577.937 -1.40673 -0.710563 0
M  V30 6167 C 578.847 -1.43663 -1.85467 0
M  V30 6168 C 579.863 -0.328721 -1.70867 0
M  V30 6169 O 581.039 -0.574098 -1.93044 0
M  V30 6170 C 578.104 -1.30226 -3.21313 0
M  V30 6171 C 577.165 -2.51204 -3.48131 0
M  V30 6172 C 576.398 -2.38398 -4.77495 0
M  V30 6173 O 576.621 -1.40048 -5.5294 0
M  V30 6174 O 575.555 -3.2787 -5.04762 0
M  V30 6175 H 579.381 -2.40156 -1.859 0
M  V30 6176 H 576.966 -1.22049 -0.861652 0
M  V30 6177 H 578.848 -1.2496 -4.02446 0
M  V30 6178 H 577.523 -0.368419 -3.21597 0
M  V30 6179 H 576.43 -2.62048 -2.66987 0
M  V30 6180 H 577.763 -3.43366 -3.52648 0
M  V30 6181 N 579.415 0.9433 -1.26252 0
M  V30 6182 C 580.643 1.72367 -1.14443 0
M  V30 6183 C 581.058 1.86392 0.300572 0
M  V30 6184 O 580.415 1.36978 1.20596 0
M  V30 6185 C 580.466 3.13155 -1.806 0
M  V30 6186 O 580.187 2.99803 -3.19452 0
M  V30 6187 C 581.688 4.07417 -1.74717 0
M  V30 6188 H 578.908 0.539758 -0.398626 0
M  V30 6189 H 581.452 1.18268 -1.66832 0
M  V30 6190 H 579.607 3.64162 -1.32154 0
M  V30 6191 H 580.021 3.88697 -3.52158 0
M  V30 6192 H 581.495 5.03773 -2.25647 0
M  V30 6193 H 581.972 4.3337 -0.713244 0
M  V30 6194 H 582.578 3.6233 -2.22704 0
M  V30 6195 N 580.893 1.08022 1.14757 0
M  V30 6196 C 581.841 0.701088 2.21783 0
M  V30 6197 C 582.835 -0.291311 1.66876 0
M  V30 6198 O 584.041 -0.154296 1.79337 0
M  V30 6199 H 580.416 0.208668 0.722469 0
M  V30 6200 H 582.387 1.61321 2.51034 0
M  V30 6201 C 581.136 0.122278 3.47485 0
M  V30 6202 H 580.459 0.877065 3.90061 0
M  V30 6203 H 581.899 -0.105248 4.23869 0
M  V30 6204 C 580.358 -1.13883 3.17068 0
M  V30 6205 O 580.888 -2.22429 3.34497 0
M  V30 6206 N 579.094 -1.04767 2.71058 0
M  V30 6207 H 578.641 -0.164302 2.57075 0
M  V30 6208 H 578.599 -1.89224 2.51081 0
M  V30 6209 N 582.371 -1.3172 0.865308 0
M  V30 6210 C 583.782 -1.79104 0.527126 0
M  V30 6211 C 584.133 -1.7135 -0.955695 0
M  V30 6212 O 583.258 -1.27845 -1.74598 0
M  V30 6213 C 583.853 -3.25207 0.950061 0
M  V30 6214 C 582.412 -3.70504 0.663611 0
M  V30 6215 C 581.559 -2.52605 1.14395 0
M  V30 6216 H 584.51 -1.18868 1.05148 0
M  V30 6217 H 584.531 -3.79535 0.270805 0
M  V30 6218 H 584.043 -3.30818 2.02931 0
M  V30 6219 H 582.144 -3.70398 -0.404474 0
M  V30 6220 H 582.257 -4.62845 1.23737 0
M  V30 6221 H 580.621 -2.4838 0.563859 0
M  V30 6222 H 581.404 -2.60964 2.23053 0
M  V30 6223 N 583.85 -0.624285 -1.44708 0
M  V30 6224 C 585.266 -0.289322 -1.56956 0
M  V30 6225 C 585.466 1.20773 -1.61295 0
M  V30 6226 O 584.522 1.9915 -1.55227 0
M  V30 6227 C 585.835 -0.975215 -2.84447 0
M  V30 6228 C 587.383 -0.952709 -2.98148 0
M  V30 6229 C 587.858 -1.61893 -4.28433 0
M  V30 6230 N 589.349 -1.5852 -4.35231 0
M  V30 6231 C 590.084 -2.06969 -5.34744 0
M  V30 6232 N 589.58 -2.63579 -6.40701 0
M  V30 6233 N 591.373 -1.97638 -5.26209 0
M  V30 6234 H 583.524 -1.59612 -1.40135 0
M  V30 6235 H 585.787 -0.669592 -0.671081 0
M  V30 6236 H 585.493 -2.02999 -2.87201 0
M  V30 6237 H 585.367 -0.508749 -3.73753 0
M  V30 6238 H 587.754 0.093568 -2.94952 0
M  V30 6239 H 587.835 -1.4576 -2.10209 0
M  V30 6240 H 587.479 -2.66463 -4.32389 0
M  V30 6241 H 587.409 -1.08893 -5.15218 0
M  V30 6242 H 589.899 -1.17183 -3.59272 0
M  V30 6243 H 590.213 -2.98298 -7.12908 0
M  V30 6244 H 588.558 -2.67626 -6.41406 0
M  V30 6245 H 591.749 -1.5314 -4.42341 0
M  V30 6246 H 591.922 -2.35708 -6.03611 0
M  V30 6247 N 585.328 1.53329 -0.364422 0
M  V30 6248 C 586.553 2.06132 0.229033 0
M  V30 6249 C 586.978 1.23625 1.41769 0
M  V30 6250 O 586.336 0.255038 1.79497 0
M  V30 6251 C 586.384 3.55544 0.60174 0
M  V30 6252 O 585.488 3.75771 1.69912 0
M  V30 6253 H 584.829 0.663148 0.0336213 0
M  V30 6254 H 587.359 1.97758 -0.524689 0
M  V30 6255 H 587.369 3.98549 0.873073 0
M  V30 6256 H 586.044 4.15039 -0.267421 0
M  V30 6257 H 584.621 3.44663 1.42343 0
M  V30 6258 N 586.806 0.0935595 1.57322 0
M  V30 6259 C 588.055 -0.570191 1.93473 0
M  V30 6260 C 588.368 -1.69434 0.977318 0
M  V30 6261 O 589.574 -2.41914 1.23248 0
M  V30 6262 C 588.03 -1.06564 3.43762 0
M  V30 6263 C 587.638 0.0286723 4.47991 0
M  V30 6264 C 589.382 -1.70221 3.88877 0
M  V30 6265 C 587.289 -0.482046 5.89432 0
M  V30 6266 H 586.219 -0.216764 0.72217 0
M  V30 6267 H 588.87 0.169313 1.82717 0
M  V30 6268 H 587.252 -1.85878 3.49664 0
M  V30 6269 H 588.426 0.804106 4.5373 0
M  V30 6270 H 586.741 0.570336 4.12476 0
M  V30 6271 H 589.338 -2.09502 4.91948 0
M  V30 6272 H 589.681 -2.57078 3.27439 0
M  V30 6273 H 590.214 -0.974919 3.85668 0
M  V30 6274 H 586.953 0.349871 6.54566 0
M  V30 6275 H 586.473 -1.22452 5.87167 0
M  V30 6276 H 588.152 -0.951508 6.39965 0
M  V30 6277 N 588.284 -1.56567 -0.180126 0
M  V30 6278 C 589.216 -1.92275 -1.24751 0
M  V30 6279 C 590.229 -0.814922 -1.40936 0
M  V30 6280 O 591.418 -1.09336 -1.41095 0
M  V30 6281 C 588.518 -2.15265 -2.61752 0
M  V30 6282 C 587.691 -3.46467 -2.66981 0
M  V30 6283 C 586.75 -3.58391 -3.85283 0
M  V30 6284 O 585.776 -4.31086 -3.7169 0
M  V30 6285 N 586.978 -2.92587 -5.01371 0
M  V30 6286 H 589.743 -2.84435 -0.944302 0
M  V30 6287 H 587.304 -1.57617 -0.369952 0
M  V30 6288 H 589.296 -2.20515 -3.39345 0
M  V30 6289 H 587.866 -1.29533 -2.845 0
M  V30 6290 H 587.086 -3.52953 -1.75549 0
M  V30 6291 H 588.374 -4.32819 -2.67479 0
M  V30 6292 H 587.772 -2.3338 -5.15316 0
M  V30 6293 H 586.329 -3.03444 -5.76858 0
M  V30 6294 N 589.762 0.448376 -1.51087 0
M  V30 6295 C 590.71 1.56407 -1.72161 0
M  V30 6296 C 591.704 1.58878 -0.587721 0
M  V30 6297 O 592.91 1.62755 -0.768822 0
M  V30 6298 H 589.285 0.519423 -0.543786 0
M  V30 6299 H 591.256 1.35803 -2.65707 0
M  V30 6300 C 590.005 2.94163 -1.85373 0
M  V30 6301 H 589.328 2.9299 -2.72024 0
M  V30 6302 H 590.768 3.71625 -2.04135 0
M  V30 6303 C 589.227 3.31317 -0.610803 0
M  V30 6304 O 589.757 4.00985 0.239636 0
M  V30 6305 N 587.963 2.86966 -0.458127 0
M  V30 6306 H 587.51 2.30443 -1.15124 0
M  V30 6307 H 587.468 3.12188 0.372289 0
M  V30 6308 N 591.24 1.41047 0.703093 0
M  V30 6309 C 592.188 1.42494 1.83843 0
M  V30 6310 C 593.182 0.303885 1.66652 0
M  V30 6311 O 594.388 0.475544 1.73605 0
M  V30 6312 H 590.763 0.445685 0.605697 0
M  V30 6313 H 592.734 2.38194 1.79739 0
M  V30 6314 C 591.483 1.31666 3.21807 0
M  V30 6315 H 590.806 2.17212 3.35647 0
M  V30 6316 H 592.246 1.36738 4.01346 0
M  V30 6317 C 590.705 0.0281828 3.36888 0
M  V30 6318 O 591.235 -0.929995 3.90786 0
M  V30 6319 N 589.441 -0.0454322 2.90564 0
M  V30 6320 H 588.988 0.735046 2.4689 0
M  V30 6321 H 588.946 -0.906968 3.01034 0
M  V30 6322 N 592.718 -0.936591 1.26751 0
M  V30 6323 C 593.964 -1.6858 1.12733 0
M  V30 6324 C 594.297 -1.91414 -0.327745 0
M  V30 6325 O 593.572 -1.49812 -1.24043 0
M  V30 6326 C 593.855 -3.05779 1.90187 0
M  V30 6327 C 593.708 -2.90242 3.43627 0
M  V30 6328 C 595.027 -4.0597 1.69931 0
M  V30 6329 H 592.146 -0.61182 0.410908 0
M  V30 6330 H 594.788 -1.08747 1.55801 0
M  V30 6331 H 592.938 -3.56853 1.53584 0
M  V30 6332 H 594.61 -2.46354 3.9001 0
M  V30 6333 H 592.853 -2.2577 3.70419 0
M  V30 6334 H 593.524 -3.87572 3.93055 0
M  V30 6335 H 596 -3.63874 2.0183 0
M  V30 6336 H 594.876 -4.99974 2.26534 0
M  V30 6337 H 595.137 -4.37369 0.64502 0
M  V30 6338 N 594.196 -1.08629 -1.14182 0
M  V30 6339 C 595.612 -0.814363 -1.3726 0
M  V30 6340 C 595.812 0.575271 -1.93114 0
M  V30 6341 O 594.868 1.33165 -2.1453 0
M  V30 6342 C 596.181 -1.8989 -2.33157 0
M  V30 6343 C 597.729 -1.92518 -2.46791 0
M  V30 6344 C 598.204 -3.00092 -3.45989 0
M  V30 6345 N 599.695 -2.99279 -3.53534 0
M  V30 6346 C 600.43 -3.79158 -4.30147 0
M  V30 6347 N 599.926 -4.68923 -5.09983 0
M  V30 6348 N 601.719 -3.67451 -4.25366 0
M  V30 6349 H 593.87 -1.98232 -0.762758 0
M  V30 6350 H 596.133 -0.860383 -0.398051 0
M  V30 6351 H 595.839 -2.89809 -1.99257 0
M  V30 6352 H 595.713 -1.77013 -3.33086 0
M  V30 6353 H 598.1 -0.932425 -2.79982 0
M  V30 6354 H 598.181 -2.09473 -1.46816 0
M  V30 6355 H 597.825 -3.99575 -3.13532 0
M  V30 6356 H 597.755 -2.80382 -4.45751 0
M  V30 6357 H 600.246 -2.3422 -2.96563 0
M  V30 6358 H 600.559 -5.26475 -5.65724 0
M  V30 6359 H 598.904 -4.72964 -5.09244 0
M  V30 6360 H 602.095 -2.9669 -3.62067 0
M  V30 6361 H 602.268 -4.29944 -4.84822 0
M  V30 6362 N 595.674 1.31259 -0.872281 0
M  V30 6363 C 596.584 2.32221 -0.333255 0
M  V30 6364 C 597.6 1.6481 0.558013 0
M  V30 6365 O 598.776 1.96212 0.454175 0
M  V30 6366 C 595.841 3.43708 0.454479 0
M  V30 6367 C 594.902 4.26774 -0.465024 0
M  V30 6368 C 594.135 5.32937 0.28521 0
M  V30 6369 O 594.358 5.49968 1.513 0
M  V30 6370 O 593.292 6.00834 -0.358126 0
M  V30 6371 H 597.118 2.80252 -1.17016 0
M  V30 6372 H 594.703 1.352 -0.635724 0
M  V30 6373 H 596.585 4.11656 0.900963 0
M  V30 6374 H 595.26 2.97836 1.26789 0
M  V30 6375 H 594.167 3.61571 -0.960055 0
M  V30 6376 H 595.5 4.76217 -1.2441 0
M  V30 6377 N 597.152 0.631951 1.44375 0
M  V30 6378 C 598.115 -0.0628142 2.29114 0
M  V30 6379 C 599.115 -0.771494 1.41084 0
M  V30 6380 O 600.305 -0.615959 1.62947 0
M  V30 6381 C 597.437 -1.09953 3.22681 0
M  V30 6382 H 598.63 0.682509 2.92031 0
M  V30 6383 H 596.183 0.392128 1.51301 0
M  V30 6384 H 596.918 -1.87481 2.64616 0
M  V30 6385 H 596.703 -0.595286 3.87555 0
M  V30 6386 H 598.193 -1.58538 3.86336 0
M  V30 6387 N 598.631 -1.53133 0.372548 0
M  V30 6388 C 599.877 -2.01654 -0.215277 0
M  V30 6389 C 600.21 -1.25914 -1.47849 0
M  V30 6390 O 599.485 -0.3548 -1.91237 0
M  V30 6391 C 599.768 -3.56609 -0.500187 0
M  V30 6392 C 599.621 -4.43036 0.777145 0
M  V30 6393 C 600.94 -4.20528 -1.29786 0
M  V30 6394 H 598.059 -0.732991 -0.0767686 0
M  V30 6395 H 600.701 -1.83335 0.498814 0
M  V30 6396 H 598.851 -3.7235 -1.10852 0
M  V30 6397 H 600.523 -4.39079 1.41447 0
M  V30 6398 H 598.766 -4.10723 1.39604 0
M  V30 6399 H 599.437 -5.49424 0.532662 0
M  V30 6400 H 601.913 -4.08663 -0.783198 0
M  V30 6401 H 600.789 -5.28962 -1.46596 0
M  V30 6402 H 601.05 -3.77051 -2.30836 0
M  V30 6403 N 600.109 -0.101901 -1.5727 0
M  V30 6404 C 601.334 0.571759 -1.99363 0
M  V30 6405 C 601.759 1.60507 -0.980768 0
M  V30 6406 O 601.117 1.81231 0.0498517 0
M  V30 6407 C 601.165 1.18996 -3.404 0
M  V30 6408 O 600.269 2.30572 -3.41922 0
M  V30 6409 H 599.61 0.144449 -0.648098 0
M  V30 6410 H 602.14 -0.185325 -2.03759 0
M  V30 6411 H 602.15 1.52962 -3.78241 0
M  V30 6412 H 600.825 0.432984 -4.1364 0
M  V30 6413 H 599.402 1.98173 -3.15883 0
M  V30 6414 N 601.587 1.56661 0.17182 0
M  V30 6415 C 602.835 1.81606 0.886774 0
M  V30 6416 C 603.156 0.678818 1.82803 0
M  V30 6417 O 602.426 -0.301354 1.93568 0
M  V30 6418 H 601.006 0.669934 0.330451 0
M  V30 6419 H 603.668 1.94142 0.171757 0
M  V30 6420 H 602.764 2.75634 1.46398 0
M  V30 6421 N 603.065 -0.440357 1.51323 0
M  V30 6422 C 604.481 -0.7766 1.39431 0
M  V30 6423 C 604.681 -1.95838 0.474296 0
M  V30 6424 O 603.737 -2.52398 -0.0716692 0
M  V30 6425 C 605.05 -1.05981 2.81405 0
M  V30 6426 C 606.598 -1.16442 2.90534 0
M  V30 6427 C 607.073 -1.48058 4.33408 0
M  V30 6428 N 608.564 -1.54988 4.36501 0
M  V30 6429 C 609.299 -1.81017 5.44078 0
M  V30 6430 N 608.795 -2.04858 6.61819 0
M  V30 6431 N 610.588 -1.82774 5.31554 0
M  V30 6432 H 602.739 0.338006 2.09693 0
M  V30 6433 H 605.002 0.0888072 0.943831 0
M  V30 6434 H 604.708 -0.264173 3.50706 0
M  V30 6435 H 604.582 -1.98822 3.20546 0
M  V30 6436 H 606.969 -1.95068 2.21432 0
M  V30 6437 H 607.05 -0.215088 2.54894 0
M  V30 6438 H 606.694 -0.699605 5.03059 0
M  V30 6439 H 606.624 -2.44192 4.66559 0
M  V30 6440 H 609.115 -1.38479 3.51613 0
M  V30 6441 H 609.428 -2.2408 7.396 0
M  V30 6442 H 607.773 -2.02187 6.6494 0
M  V30 6443 H 610.964 -1.63665 4.38556 0
M  V30 6444 H 611.137 -2.02722 6.15474 0
M  V30 6445 N 604.543 -1.41418 -0.695603 0
M  V30 6446 C 605.773 -1.43921 -1.48224 0
M  V30 6447 C 606.181 -0.0428855 -1.89151 0
M  V30 6448 O 605.524 0.948138 -1.5734 0
M  V30 6449 C 605.586 -2.28466 -2.77567 0
M  V30 6450 C 605.25 -3.76629 -2.58844 0
M  V30 6451 C 606.247 -4.6879 -2.24793 0
M  V30 6452 C 603.932 -4.2067 -2.74485 0
M  V30 6453 C 605.926 -6.02981 -2.06622 0
M  V30 6454 C 603.613 -5.54926 -2.55931 0
M  V30 6455 C 604.611 -6.45897 -2.2205 0
M  V30 6456 O 604.299 -7.77675 -2.03657 0
M  V30 6457 H 604.031 -0.492252 -0.463318 0
M  V30 6458 H 606.585 -1.86347 -0.863952 0
M  V30 6459 H 604.815 -1.80853 -3.41802 0
M  V30 6460 H 606.504 -2.2267 -3.39371 0
M  V30 6461 H 607.27 -4.36055 -2.12323 0
M  V30 6462 H 603.149 -3.50167 -2.9984 0
M  V30 6463 H 606.693 -6.73951 -1.80099 0
M  V30 6464 H 602.59 -5.8724 -2.67991 0
M  V30 6465 H 603.358 -7.88819 -2.1842 0
M  V30 6466 N 606.021 0.929856 -1.27246 0
M  V30 6467 C 607.246 1.71674 -1.16374 0
M  V30 6468 C 607.671 1.86064 0.276024 0
M  V30 6469 O 607.029 1.3591 1.19992 0
M  V30 6470 C 607.077 3.09526 -1.85003 0
M  V30 6471 O 606.181 3.96142 -1.14653 0
M  V30 6472 H 605.522 0.52629 -0.404863 0
M  V30 6473 H 608.052 1.16381 -1.68276 0
M  V30 6474 H 608.062 3.59852 -1.92276 0
M  V30 6475 H 606.737 2.98369 -2.89739 0
M  V30 6476 H 605.314 3.54584 -1.15433 0
M  V30 6477 N 607.499 1.09233 1.13605 0
M  V30 6478 C 608.429 0.751738 2.21068 0
M  V30 6479 C 609.41 -0.269688 1.67948 0
M  V30 6480 O 610.595 -0.13819 1.93708 0
M  V30 6481 C 607.725 0.16935 3.46887 0
M  V30 6482 C 606.679 1.12007 4.13084 0
M  V30 6483 C 606.005 0.399483 5.33206 0
M  V30 6484 C 607.305 2.46168 4.6065 0
M  V30 6485 H 608.999 1.65024 2.49815 0
M  V30 6486 H 606.545 0.794905 1.20072 0
M  V30 6487 H 608.498 -0.0809824 4.21322 0
M  V30 6488 H 607.222 -0.764335 3.1753 0
M  V30 6489 H 605.881 1.35564 3.40614 0
M  V30 6490 H 605.529 -0.538277 5.00112 0
M  V30 6491 H 605.229 1.03337 5.78442 0
M  V30 6492 H 606.753 0.157403 6.10397 0
M  V30 6493 H 608.167 2.26829 5.26518 0
M  V30 6494 H 606.564 3.05326 5.1662 0
M  V30 6495 H 607.634 3.07076 3.75276 0
M  V30 6496 N 608.977 -1.30795 0.87923 0
M  V30 6497 C 610.224 -1.96362 0.494786 0
M  V30 6498 C 610.552 -1.69448 -0.954868 0
M  V30 6499 O 609.807 -0.988711 -1.68888 0
M  V30 6500 C 610.106 -3.50287 0.709476 0
M  V30 6501 C 609.772 -3.9724 2.13333 0
M  V30 6502 C 608.434 -4.09772 2.52271 0
M  V30 6503 C 610.786 -4.21807 3.06151 0
M  V30 6504 C 608.114 -4.44227 3.83248 0
M  V30 6505 C 610.466 -4.5773 4.36654 0
M  V30 6506 C 609.13 -4.68469 4.75492 0
M  V30 6507 H 608.4 -0.71854 0.181055 0
M  V30 6508 H 611.047 -1.55764 1.11399 0
M  V30 6509 H 609.352 -3.91799 0.0072 0
M  V30 6510 H 611.049 -3.99082 0.391703 0
M  V30 6511 H 607.639 -3.87988 1.82107 0
M  V30 6512 H 611.823 -4.11611 2.77291 0
M  V30 6513 H 607.079 -4.50741 4.13089 0
M  V30 6514 H 611.253 -4.7569 5.08617 0
M  V30 6515 H 608.88 -4.94923 5.77022 0
M  V30 6516 N 610.455 -0.639598 -1.44038 0
M  V30 6517 C 611.695 -0.150902 -2.03842 0
M  V30 6518 C 612.059 1.20744 -1.49281 0
M  V30 6519 O 613.26 1.78875 -2.00642 0
M  V30 6520 C 611.531 -0.146114 -3.57101 0
M  V30 6521 S 613.09 0.276725 -4.37927 0
M  V30 6522 H 609.908 -0.0652447 -0.708 0
M  V30 6523 H 612.51 -0.844886 -1.76301 0
M  V30 6524 H 611.214 -1.13769 -3.94316 0
M  V30 6525 H 610.745 0.568846 -3.89266 0
M  V30 6526 H 612.76 1.51893 -4.7238 0
M  V30 6527 N 611.933 1.52934 -0.380664 0
M  V30 6528 C 612.863 2.29118 0.450268 0
M  V30 6529 C 613.844 1.32153 1.07096 0
M  V30 6530 O 615.029 1.61038 1.08537 0
M  V30 6531 C 612.159 3.09161 1.58231 0
M  V30 6532 C 611.113 4.13938 1.0881 0
M  V30 6533 C 610.439 4.82153 2.31155 0
M  V30 6534 C 611.739 5.22048 0.162146 0
M  V30 6535 H 613.433 2.98826 -0.185361 0
M  V30 6536 H 610.979 1.43715 -0.0905886 0
M  V30 6537 H 612.932 3.61211 2.17036 0
M  V30 6538 H 611.656 2.3717 2.2454 0
M  V30 6539 H 610.315 3.62855 0.522633 0
M  V30 6540 H 609.963 4.06719 2.95953 0
M  V30 6541 H 609.663 5.52966 1.98752 0
M  V30 6542 H 611.187 5.37004 2.90618 0
M  V30 6543 H 612.601 5.6951 0.658126 0
M  V30 6544 H 610.998 6.00057 -0.0717122 0
M  V30 6545 H 612.068 4.78398 -0.791438 0
M  V30 6546 N 613.412 0.11024 1.57214 0
M  V30 6547 C 614.66 -0.548783 1.94506 0
M  V30 6548 C 614.981 -1.67772 0.99386 0
M  V30 6549 O 614.251 -1.9584 0.0485841 0
M  V30 6550 H 612.831 -0.205715 0.718116 0
M  V30 6551 H 615.493 0.177127 1.94093 0
M  V30 6552 H 614.589 -0.949096 2.97319 0
M  V30 6553 N 614.89 -1.56749 -0.16351 0
M  V30 6554 C 616.137 -1.82434 -0.878866 0
M  V30 6555 C 616.465 -0.688557 -1.81904 0
M  V30 6556 O 615.72 0.323644 -1.93005 0
M  V30 6557 C 616.019 -3.14342 -1.70071 0
M  V30 6558 C 615.685 -4.41647 -0.908775 0
M  V30 6559 C 614.347 -4.76224 -0.690236 0
M  V30 6560 C 616.699 -5.19998 -0.353815 0
M  V30 6561 C 614.027 -5.86624 0.0942374 0
M  V30 6562 C 616.379 -6.3122 0.41761 0
M  V30 6563 C 615.043 -6.64358 0.646879 0
M  V30 6564 H 614.313 -0.667574 -0.3216 0
M  V30 6565 H 616.96 -1.90963 -0.14337 0
M  V30 6566 H 615.265 -3.0119 -2.50583 0
M  V30 6567 H 616.962 -3.31426 -2.25738 0
M  V30 6568 H 613.552 -4.1453 -1.08916 0
M  V30 6569 H 617.736 -4.93673 -0.509975 0
M  V30 6570 H 612.992 -6.10751 0.281529 0
M  V30 6571 H 617.166 -6.91133 0.854849 0
M  V30 6572 H 614.793 -7.49742 1.25662 0
M  V30 6573 N 616.368 0.432326 -1.51554 0
M  V30 6574 C 617.616 1.17901 -1.64146 0
M  V30 6575 C 617.937 1.91604 -0.362367 0
M  V30 6576 O 617.207 1.85764 0.621968 0
M  V30 6577 H 615.787 0.438206 -0.604966 0
M  V30 6578 H 618.449 0.495172 -1.88505 0
M  V30 6579 H 617.545 1.90584 -2.47152 0
M  V30 6580 N 617.846 1.41785 0.688094 0
M  V30 6581 C 619.093 1.41544 1.44816 0
M  V30 6582 C 619.421 0.0271746 1.94481 0
M  V30 6583 O 618.676 -0.962235 1.7041 0
M  V30 6584 C 618.975 2.37532 2.67046 0
M  V30 6585 C 618.641 3.84209 2.35996 0
M  V30 6586 C 617.303 4.24165 2.27239 0
M  V30 6587 C 619.655 4.76785 2.10536 0
M  V30 6588 C 616.983 5.54695 1.91128 0
M  V30 6589 C 619.335 6.07644 1.75931 0
M  V30 6590 C 617.999 6.46613 1.65675 0
M  V30 6591 H 617.269 0.517945 0.529919 0
M  V30 6592 H 619.916 1.74635 0.785797 0
M  V30 6593 H 618.221 1.9772 3.38251 0
M  V30 6594 H 619.918 2.34615 3.25203 0
M  V30 6595 H 616.508 3.52567 2.4371 0
M  V30 6596 H 620.692 4.46714 2.16242 0
M  V30 6597 H 615.948 5.83762 1.81746 0
M  V30 6598 H 620.122 6.78874 1.55252 0
M  V30 6599 H 617.749 7.47668 1.37463 0
M  V30 6600 N 619.324 -0.923095 1.27737 0
M  V30 6601 C 620.601 -1.64989 1.05062 0
M  V30 6602 C 620.981 -2.07018 -0.413124 0
M  V30 6603 O 620.329 -1.80797 -1.39731 0
M  V30 6604 C 620.539 -2.84847 2.01652 0
M  V30 6605 C 621.887 -3.56083 2.31279 0
M  V30 6606 O 622.911 -2.94981 1.99662 0
M  V30 6607 O 621.77 -4.66182 2.85196 0
M  V30 6608 H 618.864 -0.723357 0.400853 0
M  V30 6609 H 621.41 -0.973224 1.3902 0
M  V30 6610 H 620.182 -2.50814 3.00347 0
M  V30 6611 H 619.805 -3.60231 1.68284 0
M  V30 6612 N 620.802 -1.09834 -1.13024 0
M  V30 6613 C 622.048 -0.83819 -1.84668 0
M  V30 6614 C 622.381 0.634645 -1.83537 0
M  V30 6615 O 621.656 1.46753 -1.27647 0
M  V30 6616 C 621.939 -1.37933 -3.32636 0
M  V30 6617 C 621.792 -2.91857 -3.42257 0
M  V30 6618 C 623.111 -1.01654 -4.28199 0
M  V30 6619 H 620.23 -0.30595 -0.670495 0
M  V30 6620 H 622.872 -1.36044 -1.32635 0
M  V30 6621 H 621.022 -0.935111 -3.77078 0
M  V30 6622 H 622.694 -3.44759 -3.06495 0
M  V30 6623 H 620.937 -3.28776 -2.83 0
M  V30 6624 H 621.608 -3.24799 -4.46329 0
M  V30 6625 H 624.084 -1.39973 -3.9185 0
M  V30 6626 H 622.96 -1.42217 -5.30156 0
M  V30 6627 H 623.221 0.0747794 -4.42037 0
M  V30 6628 N 622.28 1.30327 -0.886154 0
M  V30 6629 C 623.505 2.0079 -0.519425 0
M  V30 6630 C 623.93 1.65979 0.885013 0
M  V30 6631 O 623.288 0.877043 1.58675 0
M  V30 6632 C 623.336 3.53686 -0.702758 0
M  V30 6633 O 622.44 4.11637 0.250828 0
M  V30 6634 H 621.781 0.63171 -0.204544 0
M  V30 6635 H 624.311 1.66145 -1.19402 0
M  V30 6636 H 624.321 4.03531 -0.602207 0
M  V30 6637 H 622.996 3.78361 -1.72673 0
M  V30 6638 H 621.573 3.72755 0.103873 0
M  V30 6639 N 623.758 0.647228 1.43697 0
M  V30 6640 C 624.988 0.16551 2.05936 0
M  V30 6641 C 625.396 -1.17164 1.48557 0
M  V30 6642 O 624.739 -1.73307 0.60914 0
M  V30 6643 C 624.801 -0.00648082 3.59499 0
M  V30 6644 C 624.465 1.25503 4.39429 0
M  V30 6645 C 625.462 2.18241 4.71876 0
M  V30 6646 C 623.147 1.49494 4.79538 0
M  V30 6647 C 625.141 3.33268 5.43333 0
M  V30 6648 C 622.828 2.64815 5.50742 0
M  V30 6649 C 623.826 3.56528 5.82561 0
M  V30 6650 O 623.514 4.69836 6.52311 0
M  V30 6651 H 623.246 0.0844124 0.670709 0
M  V30 6652 H 625.8 0.88638 1.8529 0
M  V30 6653 H 624.03 -0.782661 3.78697 0
M  V30 6654 H 625.719 -0.444794 4.03456 0
M  V30 6655 H 626.485 2.00946 4.41413 0
M  V30 6656 H 622.364 0.789912 4.54182 0
M  V30 6657 H 625.908 4.04874 5.68087 0
M  V30 6658 H 621.805 2.82047 5.8062 0
M  V30 6659 H 622.573 4.69024 6.70789 0
M  V30 6660 N 625.236 -1.5273 0.388769 0
M  V30 6661 C 626.199 -2.25043 -0.434544 0
M  V30 6662 C 627.199 -1.26661 -0.990644 0
M  V30 6663 O 628.389 -1.50762 -0.872731 0
M  V30 6664 C 625.521 -3.00507 -1.60961 0
M  V30 6665 H 626.714 -2.99242 0.198549 0
M  V30 6666 H 624.267 -1.55664 0.140875 0
M  V30 6667 H 625.002 -2.30607 -2.28015 0
M  V30 6668 H 624.787 -3.72716 -1.21757 0
M  V30 6669 H 626.277 -3.55413 -2.19251 0
M  V30 6670 N 626.714 -0.118576 -1.57153 0
M  V30 6671 C 627.961 0.539526 -1.9518 0
M  V30 6672 C 628.289 1.66714 -1.00184 0
M  V30 6673 O 627.544 1.95683 -0.0256482 0
M  V30 6674 C 627.843 1.11303 -3.39627 0
M  V30 6675 C 627.509 0.106809 -4.50773 0
M  V30 6676 C 626.171 -0.169876 -4.809 0
M  V30 6677 C 628.523 -0.57895 -5.17975 0
M  V30 6678 C 625.851 -1.13861 -5.75545 0
M  V30 6679 C 628.203 -1.53631 -6.13661 0
M  V30 6680 C 626.867 -1.82099 -6.42181 0
M  V30 6681 H 626.137 0.197427 -0.714215 0
M  V30 6682 H 628.784 -0.199391 -1.90459 0
M  V30 6683 H 627.089 1.92869 -3.4104 0
M  V30 6684 H 628.786 1.63032 -3.66363 0
M  V30 6685 H 625.376 0.332645 -4.27307 0
M  V30 6686 H 629.56 -0.378359 -4.94856 0
M  V30 6687 H 624.816 -1.36592 -5.95947 0
M  V30 6688 H 628.99 -2.07337 -6.64819 0
M  V30 6689 H 626.617 -2.57319 -7.15326 0
M  V30 6690 N 628.193 1.56834 0.155195 0
M  V30 6691 C 629.123 2.00678 1.19376 0
M  V30 6692 C 630.104 0.884973 1.45266 0
M  V30 6693 O 631.289 1.1522 1.56326 0
M  V30 6694 C 628.419 2.38042 2.5289 0
M  V30 6695 C 627.373 3.53332 2.41538 0
M  V30 6696 C 626.699 3.76485 3.79688 0
M  V30 6697 C 627.999 4.86265 1.9064 0
M  V30 6698 H 629.693 2.87688 0.829232 0
M  V30 6699 H 627.239 1.38407 0.397445 0
M  V30 6700 H 629.192 2.67314 3.25763 0
M  V30 6701 H 627.916 1.4796 2.91162 0
M  V30 6702 H 626.575 3.24213 1.71117 0
M  V30 6703 H 626.223 2.83667 4.15382 0
M  V30 6704 H 625.923 4.54068 3.72956 0
M  V30 6705 H 627.447 4.08174 4.54122 0
M  V30 6706 H 628.861 5.14308 2.53299 0
M  V30 6707 H 627.258 5.67597 1.94818 0
M  V30 6708 H 628.328 4.77184 0.861596 0
M  V30 6709 N 629.671 -0.424282 1.51781 0
M  V30 6710 C 630.581 -1.54087 1.76902 0
M  V30 6711 C 631.597 -1.61249 0.653826 0
M  V30 6712 O 632.773 -1.78247 0.937552 0
M  V30 6713 C 629.838 -2.8996 1.90063 0
M  V30 6714 C 628.899 -2.92809 3.13945 0
M  V30 6715 C 628.132 -4.22201 3.26469 0
M  V30 6716 O 628.355 -5.15286 2.44616 0
M  V30 6717 O 627.289 -4.31599 4.1953 0
M  V30 6718 H 631.115 -1.358 2.71647 0
M  V30 6719 H 628.7 -0.608618 1.36441 0
M  V30 6720 H 630.582 -3.70575 2.0063 0
M  V30 6721 H 629.257 -3.08347 0.985067 0
M  V30 6722 H 628.164 -2.11102 3.08847 0
M  V30 6723 H 629.497 -2.79369 4.05233 0
M  V30 6724 N 631.149 -1.42148 -0.680565 0
M  V30 6725 C 632.096 -1.45175 -1.79424 0
M  V30 6726 C 633.066 -0.304352 -1.63288 0
M  V30 6727 O 634.251 -0.507591 -1.83924 0
M  V30 6728 C 631.391 -1.35429 -3.17416 0
M  V30 6729 C 630.504 -2.60158 -3.4488 0
M  V30 6730 C 629.639 -2.42596 -4.72568 0
M  V30 6731 C 628.678 -3.62727 -4.93047 0
M  V30 6732 N 627.815 -3.44143 -6.11973 0
M  V30 6733 H 632.655 -2.40349 -1.76172 0
M  V30 6734 H 630.192 -1.19334 -0.860107 0
M  V30 6735 H 632.15 -1.27777 -3.97151 0
M  V30 6736 H 630.78 -0.438536 -3.19807 0
M  V30 6737 H 629.832 -2.78199 -2.5944 0
M  V30 6738 H 631.144 -3.49473 -3.55908 0
M  V30 6739 H 630.298 -2.32497 -5.60384 0
M  V30 6740 H 629.037 -1.50761 -4.63813 0
M  V30 6741 H 628.042 -3.73264 -4.03676 0
M  V30 6742 H 629.267 -4.55534 -5.03652 0
M  V30 6743 H 627.213 -2.5502 -6.04401 0
M  V30 6744 H 627.13 -4.27041 -6.23836 0
M  V30 6745 H 628.398 -3.37845 -7.02482 0
M  V30 6746 N 632.627 0.916307 -1.28225 0
M  V30 6747 C 633.557 2.0352 -1.14464 0
M  V30 6748 C 634.538 1.70045 -0.0430844 0
M  V30 6749 O 635.723 1.92954 -0.219619 0
M  V30 6750 C 632.853 3.37889 -0.803027 0
M  V30 6751 C 631.807 3.85516 -1.85908 0
M  V30 6752 C 631.133 5.1682 -1.37116 0
M  V30 6753 C 632.433 4.07655 -3.26519 0
M  V30 6754 H 634.127 2.1529 -2.08064 0
M  V30 6755 H 631.673 1.03446 -1.00174 0
M  V30 6756 H 633.626 4.15654 -0.693537 0
M  V30 6757 H 632.35 3.26164 0.168674 0
M  V30 6758 H 631.009 3.09953 -1.95767 0
M  V30 6759 H 630.657 5.01497 -0.38859 0
M  V30 6760 H 630.357 5.49657 -2.07728 0
M  V30 6761 H 631.881 5.97143 -1.27484 0
M  V30 6762 H 633.295 4.75953 -3.19596 0
M  V30 6763 H 631.692 4.51818 -3.94943 0
M  V30 6764 H 632.762 3.12553 -3.70727 0
M  V30 6765 N 634.105 1.10431 1.1244 0
M  V30 6766 C 635.068 0.756542 2.16354 0
M  V30 6767 C 636.068 -0.21899 1.59302 0
M  V30 6768 O 637.258 0.00415969 1.742 0
M  V30 6769 C 634.39 0.120612 3.40687 0
M  V30 6770 H 635.583 1.67696 2.48632 0
M  V30 6771 H 633.136 0.904832 1.27446 0
M  V30 6772 H 633.871 -0.810536 3.14008 0
M  V30 6773 H 633.656 0.822693 3.83372 0
M  V30 6774 H 635.146 -0.106945 4.17463 0
M  V30 6775 N 635.583 -1.29855 0.893053 0
M  V30 6776 C 636.513 -2.3035 0.382249 0
M  V30 6777 C 637.494 -1.61328 -0.539203 0
M  V30 6778 O 638.679 -1.88882 -0.451342 0
M  V30 6779 C 635.809 -3.45024 -0.396983 0
M  V30 6780 C 634.763 -4.258 0.433437 0
M  V30 6781 C 634.089 -5.32605 -0.472889 0
M  V30 6782 C 635.389 -4.94549 1.67984 0
M  V30 6783 H 637.083 -2.73325 1.22205 0
M  V30 6784 H 634.629 -1.314 0.589073 0
M  V30 6785 H 636.582 -4.14398 -0.765024 0
M  V30 6786 H 635.306 -3.00875 -1.2705 0
M  V30 6787 H 633.965 -3.58125 0.783723 0
M  V30 6788 H 633.613 -4.84702 -1.34435 0
M  V30 6789 H 633.313 -5.87547 0.0789958 0
M  V30 6790 H 634.837 -6.04832 -0.837269 0
M  V30 6791 H 636.251 -5.56395 1.38192 0
M  V30 6792 H 634.648 -5.59393 2.17254 0
M  V30 6793 H 635.718 -4.20215 2.41965 0
M  V30 6794 N 637.061 -0.65484 -1.43351 0
M  V30 6795 C 638.338 -0.0987371 -1.95351 0
M  V30 6796 C 638.718 1.38161 -1.59608 0
M  V30 6797 O 638.066 2.10791 -0.882021 0
M  V30 6798 C 638.276 -0.346684 -3.47274 0
M  V30 6799 C 639.624 -0.25249 -4.23849 0
M  V30 6800 O 640.648 -0.279332 -3.55103 0
M  V30 6801 O 639.507 -0.177584 -5.46211 0
M  V30 6802 H 636.601 0.0086829 -0.826954 0
M  V30 6803 H 639.147 -0.728189 -1.53282 0
M  V30 6804 H 637.919 -1.37296 -3.66423 0
M  V30 6805 H 637.542 0.315757 -3.96344 0
M  V30 6806 N 638.539 1.52521 -0.396863 0
M  V30 6807 C 639.487 2.28217 0.44943 0
M  V30 6808 C 640.481 1.32416 1.05652 0
M  V30 6809 O 641.687 1.49925 0.996124 0
M  V30 6810 H 638.062 0.733966 0.1637 0
M  V30 6811 H 640.033 2.97658 -0.210367 0
M  V30 6812 C 638.782 3.10713 1.56054 0
M  V30 6813 H 638.105 3.84291 1.10273 0
M  V30 6814 H 639.545 3.66803 2.12677 0
M  V30 6815 C 638.004 2.23499 2.52091 0
M  V30 6816 O 638.534 1.8669 3.55682 0
M  V30 6817 N 636.74 1.8751 2.2201 0
M  V30 6818 H 636.287 2.17643 1.37802 0
M  V30 6819 H 636.245 1.29448 2.86514 0
M  V30 6820 N 640.017 0.126909 1.57088 0
M  V30 6821 C 641.265 -0.528123 1.95078 0
M  V30 6822 C 641.586 -1.66708 1.0116 0
M  V30 6823 O 640.856 -1.95777 0.0693527 0
M  V30 6824 H 639.436 -0.198087 0.720257 0
M  V30 6825 H 642.098 0.197703 1.93895 0
M  V30 6826 H 641.194 -0.917507 2.98309 0
M  V30 6827 N 641.495 -1.56914 -0.146875 0
M  V30 6828 C 642.743 -1.82994 -0.85777 0
M  V30 6829 C 643.064 -0.707814 -1.817 0
M  V30 6830 O 642.334 0.270521 -1.94023 0
M  V30 6831 H 640.914 -0.675106 -0.319751 0
M  V30 6832 H 643.576 -1.9439 -0.140849 0
M  V30 6833 H 642.672 -2.77928 -1.41994 0
M  V30 6834 N 642.974 0.416227 -1.52004 0
M  V30 6835 C 643.904 1.51365 -1.77795 0
M  V30 6836 C 644.885 1.58059 -0.628601 0
M  V30 6837 O 646.07 1.73447 -0.873478 0
M  V30 6838 C 643.2 2.89256 -1.92219 0
M  V30 6839 C 642.154 2.97415 -3.0778 0
M  V30 6840 C 641.48 4.37492 -3.07417 0
M  V30 6841 C 642.78 2.69551 -4.47369 0
M  V30 6842 H 644.474 1.30033 -2.69688 0
M  V30 6843 H 642.02 0.624112 -1.29772 0
M  V30 6844 H 643.973 3.66008 -2.08845 0
M  V30 6845 H 642.697 3.11866 -0.969917 0
M  V30 6846 H 641.356 2.23107 -2.90893 0
M  V30 6847 H 641.004 4.571 -2.09925 0
M  V30 6848 H 640.704 4.43877 -3.85029 0
M  V30 6849 H 642.228 5.16188 -3.26162 0
M  V30 6850 H 643.642 3.36028 -4.64497 0
M  V30 6851 H 642.039 2.87321 -5.26846 0
M  V30 6852 H 643.109 1.65029 -4.55953 0
M  V30 6853 N 644.452 1.42507 0.673017 0
M  V30 6854 C 645.415 1.4582 1.76831 0
M  V30 6855 C 646.415 0.345542 1.57043 0
M  V30 6856 O 647.605 0.606447 1.63303 0
M  V30 6857 C 644.737 1.29158 3.15485 0
M  V30 6858 H 645.93 2.43345 1.7528 0
M  V30 6859 H 643.483 1.28981 0.882817 0
M  V30 6860 H 644.218 0.325626 3.22661 0
M  V30 6861 H 644.003 2.09797 3.31252 0
M  V30 6862 H 645.493 1.34363 3.95394 0
M  V30 6863 N 645.93 -0.909495 1.28709 0
M  V30 6864 C 647.346 -1.18862 1.06508 0
M  V30 6865 C 647.546 -2.00604 -0.189864 0
M  V30 6866 O 646.602 -2.36281 -0.890355 0
M  V30 6867 C 647.915 -1.91908 2.31499 0
M  V30 6868 C 649.463 -2.04773 2.36721 0
M  V30 6869 C 649.938 -2.81228 3.6149 0
M  V30 6870 N 651.429 -2.88787 3.62155 0
M  V30 6871 C 652.164 -3.48455 4.55375 0
M  V30 6872 N 651.66 -4.09369 5.58918 0
M  V30 6873 N 653.453 -3.46035 4.42963 0
M  V30 6874 H 645.604 -0.363867 2.0926 0
M  V30 6875 H 647.867 -0.223649 0.921241 0
M  V30 6876 H 647.573 -1.39275 3.22948 0
M  V30 6877 H 647.447 -2.92436 2.38245 0
M  V30 6878 H 649.834 -2.56585 1.45767 0
M  V30 6879 H 649.915 -1.03408 2.33967 0
M  V30 6880 H 649.559 -2.30094 4.5279 0
M  V30 6881 H 649.489 -3.82917 3.61499 0
M  V30 6882 H 651.98 -2.45514 2.87283 0
M  V30 6883 H 652.293 -4.52891 6.26187 0
M  V30 6884 H 650.638 -4.0786 5.62739 0
M  V30 6885 H 653.829 -2.9766 3.6127 0
M  V30 6886 H 654.002 -3.92244 5.15799 0
M  V30 6887 N 647.408 -1.11026 -1.11852 0
M  V30 6888 C 648.824 -0.843294 -1.35502 0
M  V30 6889 C 649.024 0.534179 -1.9429 0
M  V30 6890 O 648.08 1.28585 -2.17307 0
M  V30 6891 C 649.393 -1.94793 -2.29077 0
M  V30 6892 C 650.941 -1.97709 -2.42652 0
M  V30 6893 C 651.416 -3.07364 -3.39546 0
M  V30 6894 N 652.907 -3.0671 -3.47107 0
M  V30 6895 C 653.642 -3.88197 -4.22008 0
M  V30 6896 N 653.138 -4.79635 -4.99922 0
M  V30 6897 N 654.931 -3.76391 -4.17476 0
M  V30 6898 H 647.082 -1.99805 -0.720538 0
M  V30 6899 H 649.345 -0.868633 -0.379711 0
M  V30 6900 H 649.051 -2.93971 -1.93065 0
M  V30 6901 H 648.925 -1.84039 -3.29256 0
M  V30 6902 H 651.312 -0.991604 -2.77941 0
M  V30 6903 H 651.393 -2.1254 -1.4234 0
M  V30 6904 H 651.037 -4.06136 -3.04985 0
M  V30 6905 H 650.967 -2.89774 -4.39703 0
M  V30 6906 H 653.458 -2.40457 -2.91528 0
M  V30 6907 H 653.771 -5.38357 -5.54429 0
M  V30 6908 H 652.116 -4.8366 -4.99097 0
M  V30 6909 H 655.307 -3.04303 -3.55693 0
M  V30 6910 H 655.48 -4.40131 -4.75593 0
M  V30 6911 N 648.886 1.2938 -0.899927 0
M  V30 6912 C 650.135 1.9483 -0.521937 0
M  V30 6913 C 650.448 1.71725 0.936473 0
M  V30 6914 O 651.654 2.31282 1.42199 0
M  V30 6915 C 650.11 3.48911 -0.88255 0
M  V30 6916 C 649.718 3.80815 -2.35974 0
M  V30 6917 C 651.462 4.20595 -0.57448 0
M  V30 6918 C 649.369 5.28142 -2.66121 0
M  V30 6919 H 648.299 0.729285 -0.191468 0
M  V30 6920 H 650.95 1.47103 -1.09695 0
M  V30 6921 H 649.332 3.95293 -0.236459 0
M  V30 6922 H 650.506 3.45291 -3.05141 0
M  V30 6923 H 648.821 3.22271 -2.63686 0
M  V30 6924 H 651.418 5.29031 -0.776556 0
M  V30 6925 H 651.761 4.13442 0.487005 0
M  V30 6926 H 652.294 3.79945 -1.17842 0
M  V30 6927 H 649.033 5.4036 -3.71068 0
M  V30 6928 H 648.553 5.64913 -2.01578 0
M  V30 6929 H 650.232 5.95738 -2.52399 0
M  V30 6930 N 650.364 0.662433 1.43002 0
M  V30 6931 C 651.314 -0.0460442 2.27954 0
M  V30 6932 C 652.298 -0.785753 1.40409 0
M  V30 6933 O 653.49 -0.666701 1.63964 0
M  V30 6934 C 650.619 -1.00532 3.2825 0
M  V30 6935 C 649.705 -0.263604 4.2328 0
M  V30 6936 N 650.096 0.724855 5.00579 0
M  V30 6937 C 648.394 -0.503778 4.43146 0
M  V30 6938 C 649.095 1.16594 5.69895 0
M  V30 6939 N 648.071 0.498345 5.41311 0
M  V30 6940 H 651.873 0.712314 2.85137 0
M  V30 6941 H 649.387 0.490469 1.54817 0
M  V30 6942 H 651.384 -1.52775 3.87899 0
M  V30 6943 H 650.044 -1.76364 2.72628 0
M  V30 6944 H 651.055 1.10393 5.05998 0
M  V30 6945 H 647.732 -1.24255 3.98581 0
M  V30 6946 H 649.122 1.98434 6.4193 0
M  V30 6947 N 651.842 -1.52309 0.404946 0
M  V30 6948 C 652.752 -2.30634 -0.429555 0
M  V30 6949 C 653.768 -1.38187 -1.05737 0
M  V30 6950 O 654.944 -1.71261 -1.05979 0
M  V30 6951 C 652.009 -3.10947 -1.53339 0
M  V30 6952 C 651.07 -4.19126 -0.929065 0
M  V30 6953 C 650.303 -4.95601 -1.9803 0
M  V30 6954 O 650.526 -4.72331 -3.1978 0
M  V30 6955 O 649.46 -5.80551 -1.58886 0
M  V30 6956 H 653.286 -3.0298 0.208963 0
M  V30 6957 H 650.871 -1.4845 0.168255 0
M  V30 6958 H 652.753 -3.60974 -2.1743 0
M  V30 6959 H 651.428 -2.41399 -2.15658 0
M  V30 6960 H 650.335 -3.73257 -0.250982 0
M  V30 6961 H 651.668 -4.90955 -0.349855 0
M  V30 6962 N 653.32 -0.135238 -1.57019 0
M  V30 6963 C 654.597 0.563227 -1.87316 0
M  V30 6964 C 654.977 1.83749 -1.03921 0
M  V30 6965 O 654.325 2.2817 -0.122675 0
M  V30 6966 C 654.535 0.840031 -3.3874 0
M  V30 6967 C 655.883 1.18598 -4.077 0
M  V30 6968 O 656.907 0.92977 -3.43851 0
M  V30 6969 O 655.766 1.66758 -5.20436 0
M  V30 6970 H 652.86 0.285971 -0.775983 0
M  V30 6971 H 655.406 -0.170965 -1.68837 0
M  V30 6972 H 654.178 -0.0622785 -3.9125 0
M  V30 6973 H 653.801 1.62882 -3.62706 0
M  V30 6974 N 654.798 1.5699 0.138552 0
M  V30 6975 C 656.023 1.88344 0.86841 0
M  V30 6976 C 656.448 0.725159 1.7356 0
M  V30 6977 O 655.806 -0.324992 1.78363 0
M  V30 6978 C 655.854 3.18334 1.69398 0
M  V30 6979 O 654.958 3.02863 2.79907 0
M  V30 6980 H 654.299 0.618577 0.241367 0
M  V30 6981 H 656.829 2.04207 0.126826 0
M  V30 6982 H 656.839 3.50567 2.08726 0
M  V30 6983 H 655.514 4.02238 1.05725 0
M  V30 6984 H 654.091 2.82056 2.43924 0
M  V30 6985 N 656.276 -0.40816 1.52223 0
M  V30 6986 C 657.553 -1.16807 1.56893 0
M  V30 6987 C 657.933 -2.08169 0.350537 0
M  V30 6988 O 657.281 -2.18684 -0.662536 0
M  V30 6989 C 657.491 -1.94451 2.8981 0
M  V30 6990 C 658.839 -2.50484 3.42845 0
M  V30 6991 O 659.863 -2.0463 2.91556 0
M  V30 6992 O 658.722 -3.34192 4.3241 0
M  V30 6993 H 655.816 -0.533382 0.632007 0
M  V30 6994 H 658.362 -0.414862 1.64551 0
M  V30 6995 H 657.134 -1.27527 3.69936 0
M  V30 6996 H 656.757 -2.76775 2.85449 0
M  V30 6997 N 657.755 -1.42862 -0.66545 0
M  V30 6998 C 658.98 -1.47456 -1.45848 0
M  V30 6999 C 659.405 -0.0900312 -1.87884 0
M  V30 7000 O 658.763 0.913587 -1.56599 0
M  V30 7001 C 658.811 -2.41514 -2.67774 0
M  V30 7002 O 657.915 -1.89296 -3.66389 0
M  V30 7003 H 657.256 -0.499236 -0.437789 0
M  V30 7004 H 659.786 -1.8765 -0.815394 0
M  V30 7005 H 659.796 -2.58409 -3.15735 0
M  V30 7006 H 658.471 -3.42099 -2.36519 0
M  V30 7007 H 657.048 -1.82003 -3.25468 0
M  V30 7008 N 659.233 0.902656 -1.29189 0
M  V30 7009 C 660.196 1.98797 -1.14071 0
M  V30 7010 C 661.196 1.60615 -0.0770549 0
M  V30 7011 O 662.386 1.71165 -0.323753 0
M  V30 7012 C 659.518 3.32688 -0.743739 0
M  V30 7013 H 660.711 2.13637 -2.10473 0
M  V30 7014 H 658.264 1.08678 -1.12334 0
M  V30 7015 H 658.999 3.23549 0.220554 0
M  V30 7016 H 658.784 3.61765 -1.51223 0
M  V30 7017 H 660.274 4.12337 -0.660935 0
M  V30 7018 N 660.711 1.11618 1.11262 0
M  V30 7019 C 661.641 0.79846 2.19424 0
M  V30 7020 C 662.622 -0.234003 1.68483 0
M  V30 7021 O 663.807 -0.0970704 1.93957 0
M  V30 7022 C 660.937 0.242892 3.4645 0
M  V30 7023 C 659.891 1.20744 4.10615 0
M  V30 7024 C 659.217 0.512494 5.32238 0
M  V30 7025 C 660.517 2.55884 4.55325 0
M  V30 7026 H 662.211 1.70286 2.46258 0
M  V30 7027 H 659.757 0.820195 1.18359 0
M  V30 7028 H 661.71 0.00840447 4.21399 0
M  V30 7029 H 660.434 -0.696811 3.1908 0
M  V30 7030 H 659.093 1.42759 3.37662 0
M  V30 7031 H 658.741 -0.432075 5.01141 0
M  V30 7032 H 658.441 1.15583 5.7612 0
M  V30 7033 H 659.965 0.286842 6.09926 0
M  V30 7034 H 661.379 2.37946 5.21588 0
M  V30 7035 H 659.776 3.16216 5.10027 0
M  V30 7036 H 660.846 3.14968 3.68678 0
M  V30 7037 N 662.189 -1.289 0.906776 0
M  V30 7038 C 663.121 -2.26556 0.347159 0
M  V30 7039 C 664.134 -1.54589 -0.51049 0
M  V30 7040 O 665.323 -1.75489 -0.326501 0
M  V30 7041 C 662.423 -3.3484 -0.523024 0
M  V30 7042 C 661.596 -4.36296 0.310515 0
M  V30 7043 C 660.655 -5.23879 -0.493634 0
M  V30 7044 O 659.681 -5.69127 0.0913569 0
M  V30 7045 N 660.883 -5.51946 -1.7982 0
M  V30 7046 H 663.648 -2.75212 1.18652 0
M  V30 7047 H 661.209 -1.42309 0.771996 0
M  V30 7048 H 663.201 -3.90366 -1.06756 0
M  V30 7049 H 661.771 -2.85946 -1.26309 0
M  V30 7050 H 660.991 -3.80331 1.03644 0
M  V30 7051 H 662.279 -5.01113 0.881106 0
M  V30 7052 H 661.677 -5.17006 -2.2961 0
M  V30 7053 H 660.234 -6.10258 -2.28971 0
M  V30 7054 N 663.667 -0.670007 -1.42649 0
M  V30 7055 C 664.597 -0.00258501 -2.335 0
M  V30 7056 C 665.578 0.794364 -1.50412 0
M  V30 7057 O 666.763 0.75248 -1.79029 0
M  V30 7058 C 663.893 0.952748 -3.33976 0
M  V30 7059 C 662.847 0.264733 -4.2718 0
M  V30 7060 C 662.173 1.33267 -5.17826 0
M  V30 7061 C 663.473 -0.853289 -5.15283 0
M  V30 7062 H 665.167 -0.761326 -2.89559 0
M  V30 7063 H 662.713 -0.367561 -1.3923 0
M  V30 7064 H 664.666 1.4287 -3.96442 0
M  V30 7065 H 663.39 1.74285 -2.7621 0
M  V30 7066 H 662.049 -0.190938 -3.66102 0
M  V30 7067 H 661.697 2.11464 -4.5639 0
M  V30 7068 H 661.397 0.877476 -5.81011 0
M  V30 7069 H 662.921 1.80965 -5.83167 0
M  V30 7070 H 664.335 -0.458763 -5.71462 0
M  V30 7071 H 662.732 -1.23398 -5.87276 0
M  V30 7072 H 663.802 -1.70412 -4.53969 0
M  V30 7073 N 665.145 1.52092 -0.413018 0
M  V30 7074 C 666.077 2.24819 0.445994 0
M  V30 7075 C 667.09 1.27925 1.00692 0
M  V30 7076 O 668.279 1.53845 0.905204 0
M  V30 7077 C 665.379 2.96951 1.6332 0
M  V30 7078 C 664.552 4.20746 1.19548 0
M  V30 7079 C 663.611 4.75668 2.25003 0
M  V30 7080 O 662.637 5.38148 1.85434 0
M  V30 7081 N 663.839 4.57579 3.57214 0
M  V30 7082 H 666.604 2.99176 -0.177209 0
M  V30 7083 H 664.165 1.60102 -0.240601 0
M  V30 7084 H 666.157 3.30586 2.33441 0
M  V30 7085 H 664.727 2.25756 2.16225 0
M  V30 7086 H 663.947 3.92881 0.32224 0
M  V30 7087 H 665.235 5.01132 0.880033 0
M  V30 7088 H 664.633 4.07758 3.92109 0
M  V30 7089 H 663.19 4.95642 4.23299 0
M  V30 7090 N 666.623 0.143563 1.56945 0
M  V30 7091 C 667.9 -0.553285 1.87612 0
M  V30 7092 C 668.28 -1.83195 1.04894 0
M  V30 7093 O 667.628 -2.28102 0.134773 0
M  V30 7094 C 667.838 -0.822055 3.3918 0
M  V30 7095 C 669.186 -1.16435 4.08324 0
M  V30 7096 O 670.21 -0.911522 3.4434 0
M  V30 7097 O 669.069 -1.63996 5.21313 0
M  V30 7098 H 666.163 -0.281851 0.777489 0
M  V30 7099 H 668.709 0.179916 1.68744 0
M  V30 7100 H 667.481 0.0830265 3.91212 0
M  V30 7101 H 667.104 -1.60956 3.63564 0
M  V30 7102 N 668.101 -1.57061 -0.130224 0
M  V30 7103 C 669.348 -1.84257 -0.839972 0
M  V30 7104 C 669.676 -0.726986 -1.80403 0
M  V30 7105 O 668.931 0.282632 -1.93648 0
M  V30 7106 C 669.23 -3.17878 -1.63365 0
M  V30 7107 C 668.896 -4.43475 -0.814891 0
M  V30 7108 C 667.558 -4.77581 -0.589066 0
M  V30 7109 C 669.91 -5.20631 -0.243437 0
M  V30 7110 C 667.238 -5.86292 0.218648 0
M  V30 7111 C 669.59 -6.30192 0.551408 0
M  V30 7112 C 668.254 -6.62837 0.787653 0
M  V30 7113 H 667.524 -0.674245 -0.307367 0
M  V30 7114 H 670.171 -1.91224 -0.102832 0
M  V30 7115 H 668.476 -3.06437 -2.44138 0
M  V30 7116 H 670.173 -3.3614 -2.18658 0
M  V30 7117 H 666.763 -4.16747 -1.00098 0
M  V30 7118 H 670.947 -4.94644 -0.405145 0
M  V30 7119 H 666.203 -6.10017 0.411016 0
M  V30 7120 H 670.377 -6.89165 1.00126 0
M  V30 7121 H 668.004 -7.46908 1.41537 0
M  V30 7122 N 669.579 0.400081 -1.52437 0
M  V30 7123 C 670.809 1.16598 -1.70553 0
M  V30 7124 C 671.217 1.8451 -0.418665 0
M  V30 7125 O 670.56 1.73069 0.615855 0
M  V30 7126 C 670.622 2.26517 -2.7916 0
M  V30 7127 C 670.286 1.78666 -4.20628 0
M  V30 7128 C 671.283 1.26946 -5.04163 0
M  V30 7129 C 668.968 1.85225 -4.66902 0
M  V30 7130 C 670.962 0.824187 -6.32049 0
M  V30 7131 C 668.649 1.40309 -5.94774 0
M  V30 7132 C 669.647 0.889922 -6.77178 0
M  V30 7133 O 669.335 0.447281 -8.02655 0
M  V30 7134 H 669.067 0.356023 -0.574651 0
M  V30 7135 H 671.621 0.475598 -1.99818 0
M  V30 7136 H 669.851 2.98946 -2.45292 0
M  V30 7137 H 671.54 2.88237 -2.85787 0
M  V30 7138 H 672.306 1.21244 -4.69601 0
M  V30 7139 H 668.185 2.24111 -4.02859 0
M  V30 7140 H 671.729 0.422958 -6.96317 0
M  V30 7141 H 667.626 1.45693 -6.28843 0
M  V30 7142 H 668.394 0.569768 -8.16514 0
M  V30 7143 N 671.057 1.43213 0.657864 0
M  V30 7144 C 671.989 1.43974 1.78337 0
M  V30 7145 C 673.002 0.336482 1.59285 0
M  V30 7146 O 674.191 0.600631 1.68091 0
M  V30 7147 C 671.291 1.23242 3.15697 0
M  V30 7148 C 670.464 2.46319 3.61449 0
M  V30 7149 C 669.523 2.2088 4.77597 0
M  V30 7150 O 668.549 2.942 4.87273 0
M  V30 7151 N 669.751 1.22251 5.67481 0
M  V30 7152 H 672.516 2.40993 1.78164 0
M  V30 7153 H 670.077 1.3831 0.841549 0
M  V30 7154 H 672.069 1.04113 3.91079 0
M  V30 7155 H 670.639 0.346849 3.1067 0
M  V30 7156 H 669.859 2.80904 2.76563 0
M  V30 7157 H 671.147 3.28239 3.88763 0
M  V30 7158 H 670.545 0.616433 5.62331 0
M  V30 7159 H 669.102 1.09107 6.42603 0
M  V30 7160 N 672.536 -0.895792 1.29666 0
M  V30 7161 C 673.446 -2.03329 1.17024 0
M  V30 7162 C 674.462 -1.73753 0.0925962 0
M  V30 7163 O 675.638 -1.99071 0.305431 0
M  V30 7164 C 672.703 -3.36072 0.851841 0
M  V30 7165 C 671.764 -3.7914 2.01373 0
M  V30 7166 C 670.997 -5.05549 1.71043 0
M  V30 7167 O 671.22 -5.66874 0.633213 0
M  V30 7168 O 670.154 -5.44764 2.5596 0
M  V30 7169 H 673.98 -2.16918 2.12556 0
M  V30 7170 H 671.565 -1.02007 1.09156 0
M  V30 7171 H 673.447 -4.15729 0.689006 0
M  V30 7172 H 672.122 -3.23616 -0.0736634 0
M  V30 7173 H 671.029 -3.00233 2.23183 0
M  V30 7174 H 672.362 -3.96186 2.92058 0
M  V30 7175 N 674.014 -1.12206 -1.10668 0
M  V30 7176 C 675.26 -0.877172 -1.82848 0
M  V30 7177 C 675.593 0.595571 -1.84842 0
M  V30 7178 O 674.868 1.44013 -1.30731 0
M  V30 7179 C 675.151 -1.44957 -3.29635 0
M  V30 7180 C 675.004 -2.99051 -3.35989 0
M  V30 7181 C 676.323 -1.10714 -4.25946 0
M  V30 7182 H 673.442 -0.320103 -0.663854 0
M  V30 7183 H 676.084 -1.38827 -1.2972 0
M  V30 7184 H 674.234 -1.01488 -3.7501 0
M  V30 7185 H 675.906 -3.51182 -2.99113 0
M  V30 7186 H 674.149 -3.34705 -2.75962 0
M  V30 7187 H 674.82 -3.34194 -4.39339 0
M  V30 7188 H 677.296 -1.48254 -3.88793 0
M  V30 7189 H 676.172 -1.5343 -5.2702 0
M  V30 7190 H 676.433 -0.019 -4.42096 0
M  V30 7191 N 675.492 1.28418 -0.913599 0
M  V30 7192 C 676.455 2.25564 -0.406624 0
M  V30 7193 C 677.455 1.5387 0.466965 0
M  V30 7194 O 678.645 1.72094 0.270042 0
M  V30 7195 C 675.777 3.38339 0.417053 0
M  V30 7196 H 676.97 2.71926 -1.26477 0
M  V30 7197 H 674.523 1.40098 -0.692986 0
M  V30 7198 H 675.258 2.97339 1.29461 0
M  V30 7199 H 675.043 3.91542 -0.209102 0
M  V30 7200 H 676.533 4.10578 0.762602 0
M  V30 7201 N 676.97 0.677563 1.42291 0
M  V30 7202 C 677.918 -0.0106755 2.32598 0
M  V30 7203 C 678.912 -0.787643 1.49975 0
M  V30 7204 O 680.118 -0.695295 1.66029 0
M  V30 7205 H 676.493 -0.0222482 0.751671 0
M  V30 7206 H 678.464 0.768312 2.88339 0
M  V30 7207 C 677.213 -0.946142 3.3458 0
M  V30 7208 H 676.536 -0.357701 3.98197 0
M  V30 7209 H 677.976 -1.39634 4.00348 0
M  V30 7210 C 676.435 -2.05383 2.67057 0
M  V30 7211 O 676.965 -3.1406 2.50458 0
M  V30 7212 N 675.171 -1.82635 2.26038 0
M  V30 7213 H 674.718 -0.942534 2.39737 0
M  V30 7214 H 674.676 -2.56937 1.81192 0
M  V30 7215 N 678.448 -1.51871 0.421078 0
M  V30 7216 C 679.859 -1.86644 -0.0457991 0
M  V30 7217 C 680.21 -1.33919 -1.43388 0
M  V30 7218 O 679.335 -0.683316 -2.05328 0
M  V30 7219 C 679.93 -3.38681 -0.0898844 0
M  V30 7220 C 678.489 -3.73049 -0.501127 0
M  V30 7221 C 677.636 -2.75485 0.316723 0
M  V30 7222 H 680.587 -1.45327 0.637635 0
M  V30 7223 H 680.608 -3.69636 -0.902734 0
M  V30 7224 H 680.12 -3.77025 0.920513 0
M  V30 7225 H 678.221 -3.40288 -1.51773 0
M  V30 7226 H 678.334 -4.78512 -0.237217 0
M  V30 7227 H 676.698 -2.53725 -0.222663 0
M  V30 7228 H 677.481 -3.16671 1.32569 0
M  V30 7229 N 679.926 -0.151884 -1.56866 0
M  V30 7230 C 680.856 0.781943 -2.20018 0
M  V30 7231 C 681.837 1.25347 -1.14987 0
M  V30 7232 O 683.022 1.31015 -1.43348 0
M  V30 7233 C 680.152 2.01928 -2.82564 0
M  V30 7234 C 679.106 1.68434 -3.93464 0
M  V30 7235 C 678.432 2.99472 -4.42968 0
M  V30 7236 C 679.732 0.927244 -5.14003 0
M  V30 7237 H 681.426 0.255607 -2.98307 0
M  V30 7238 H 678.972 0.121502 -1.43486 0
M  V30 7239 H 680.925 2.67741 -3.25411 0
M  V30 7240 H 679.649 2.56943 -2.01614 0
M  V30 7241 H 678.308 1.04998 -3.51242 0
M  V30 7242 H 677.956 3.52488 -3.58834 0
M  V30 7243 H 677.656 2.77823 -5.17772 0
M  V30 7244 H 679.18 3.66348 -4.88489 0
M  V30 7245 H 680.594 1.48756 -5.53665 0
M  V30 7246 H 678.991 0.810513 -5.94601 0
M  V30 7247 H 680.061 -0.0801163 -4.84834 0
M  V30 7248 N 681.404 1.57128 0.121893 0
M  V30 7249 C 682.334 2.03165 1.15092 0
M  V30 7250 C 683.315 0.915587 1.43356 0
M  V30 7251 O 684.5 1.1851 1.53847 0
M  V30 7252 C 681.63 2.43352 2.47784 0
M  V30 7253 C 680.584 3.58376 2.33989 0
M  V30 7254 C 679.91 3.84454 3.71617 0
M  V30 7255 C 681.21 4.90199 1.80283 0
M  V30 7256 H 682.904 2.89382 0.768023 0
M  V30 7257 H 680.45 1.39218 0.367998 0
M  V30 7258 H 682.403 2.74163 3.20019 0
M  V30 7259 H 681.127 1.54103 2.87958 0
M  V30 7260 H 679.786 3.2777 1.64202 0
M  V30 7261 H 679.434 2.92414 4.09271 0
M  V30 7262 H 679.134 4.61877 3.6324 0
M  V30 7263 H 680.658 4.17714 4.45362 0
M  V30 7264 H 682.072 5.19565 2.42333 0
M  V30 7265 H 680.469 5.71601 1.82735 0
M  V30 7266 H 681.539 4.78904 0.760184 0
M  V30 7267 N 682.882 -0.391992 1.52647 0
M  V30 7268 C 684.11 -1.1586 1.71418 0
M  V30 7269 C 684.525 -1.8381 0.431216 0
M  V30 7270 O 683.882 -1.7256 -0.594085 0
M  V30 7271 C 683.933 -2.20888 2.86165 0
M  V30 7272 O 683.654 -1.5571 4.09495 0
M  V30 7273 C 685.155 -3.103 3.1659 0
M  V30 7274 H 682.375 -0.347494 0.574011 0
M  V30 7275 H 684.919 -0.458972 1.99283 0
M  V30 7276 H 683.074 -2.86492 2.6077 0
M  V30 7277 H 683.488 -2.25474 4.73563 0
M  V30 7278 H 684.962 -3.8003 4.00351 0
M  V30 7279 H 685.439 -3.73639 2.30848 0
M  V30 7280 H 686.045 -2.50345 3.43813 0
M  V30 7281 N 684.36 -1.4356 -0.65026 0
M  V30 7282 C 685.323 -1.48615 -1.74489 0
M  V30 7283 C 686.323 -0.370483 -1.56474 0
M  V30 7284 O 687.513 -0.632351 -1.62317 0
M  V30 7285 C 684.645 -1.34161 -3.13391 0
M  V30 7286 H 685.838 -2.46103 -1.71387 0
M  V30 7287 H 683.391 -1.30369 -0.862186 0
M  V30 7288 H 684.126 -0.376918 -3.22102 0
M  V30 7289 H 683.911 -2.1504 -3.27872 0
M  V30 7290 H 685.401 -1.40637 -3.93206 0
M  V30 7291 N 685.838 0.888903 -1.30139 0
M  V30 7292 C 687.084 1.6428 -1.18912 0
M  V30 7293 C 687.417 1.92499 0.256477 0
M  V30 7294 O 686.692 1.54312 1.18397 0
M  V30 7295 C 686.975 2.9851 -2.01405 0
M  V30 7296 C 686.828 2.77288 -3.54163 0
M  V30 7297 C 688.147 3.99383 -1.84882 0
M  V30 7298 H 685.266 0.596148 -0.433333 0
M  V30 7299 H 687.908 1.0289 -1.5973 0
M  V30 7300 H 686.058 3.50907 -1.66722 0
M  V30 7301 H 687.73 2.31709 -3.98884 0
M  V30 7302 H 685.973 2.11867 -3.78543 0
M  V30 7303 H 686.644 3.72717 -4.07168 0
M  V30 7304 H 689.12 3.56132 -2.15196 0
M  V30 7305 H 687.996 4.91222 -2.44934 0
M  V30 7306 H 688.257 4.34674 -0.806902 0
M  V30 7307 N 687.317 1.12792 1.10072 0
M  V30 7308 C 688.545 0.908506 1.85886 0
M  V30 7309 C 688.96 -0.542408 1.80841 0
M  V30 7310 O 688.317 -1.37517 1.1998 0
M  V30 7311 C 688.368 1.37973 3.34134 0
M  V30 7312 O 688.089 2.77378 3.39106 0
M  V30 7313 C 689.59 1.1978 4.26811 0
M  V30 7314 H 686.81 0.3244 0.587372 0
M  V30 7315 H 689.354 1.49882 1.39125 0
M  V30 7316 H 687.509 0.832566 3.78348 0
M  V30 7317 H 687.923 2.98144 4.31521 0
M  V30 7318 H 689.397 1.57635 5.29014 0
M  V30 7319 H 689.874 0.138768 4.38981 0
M  V30 7320 H 690.48 1.73266 3.88406 0
M  V30 7321 N 688.795 -1.27931 0.920396 0
M  V30 7322 C 690.042 -1.94689 0.557007 0
M  V30 7323 C 690.37 -1.724 -0.900476 0
M  V30 7324 O 689.625 -1.04194 -1.65657 0
M  V30 7325 C 689.924 -3.47853 0.820558 0
M  V30 7326 C 689.59 -3.90252 2.25863 0
M  V30 7327 C 688.252 -4.01539 2.65179 0
M  V30 7328 C 690.604 -4.11853 3.19415 0
M  V30 7329 C 687.932 -4.3181 3.97187 0
M  V30 7330 C 690.284 -4.43606 4.50995 0
M  V30 7331 C 688.948 -4.53105 4.90155 0
M  V30 7332 H 688.218 -0.712416 0.203823 0
M  V30 7333 H 690.865 -1.52142 1.16298 0
M  V30 7334 H 689.17 -3.91578 0.131844 0
M  V30 7335 H 690.867 -3.97634 0.51847 0
M  V30 7336 H 687.457 -3.81999 1.94358 0
M  V30 7337 H 691.641 -4.0258 2.90246 0
M  V30 7338 H 686.897 -4.37371 4.2722 0
M  V30 7339 H 691.071 -4.59268 5.23494 0
M  V30 7340 H 688.698 -4.76315 5.92476 0
M  V30 7341 N 690.273 -0.685099 -1.4193 0
M  V30 7342 C 691.183 -0.013404 -2.34596 0
M  V30 7343 C 692.199 0.777589 -1.55658 0
M  V30 7344 O 693.375 0.717553 -1.88184 0
M  V30 7345 C 690.44 0.919031 -3.34297 0
M  V30 7346 C 689.501 0.121417 -4.29128 0
M  V30 7347 C 688.734 1.00944 -5.24067 0
M  V30 7348 O 688.957 2.24898 -5.24192 0
M  V30 7349 O 687.891 0.464724 -6.00103 0
M  V30 7350 H 691.717 -0.776978 -2.93593 0
M  V30 7351 H 689.302 -0.445379 -1.42607 0
M  V30 7352 H 691.184 1.45402 -3.9552 0
M  V30 7353 H 689.859 1.66228 -2.77759 0
M  V30 7354 H 688.766 -0.45792 -3.71287 0
M  V30 7355 H 690.099 -0.582937 -4.88736 0
M  V30 7356 N 691.751 1.51645 -0.429126 0
M  V30 7357 C 692.981 2.06133 0.138793 0
M  V30 7358 C 693.389 1.29735 1.37716 0
M  V30 7359 O 692.732 0.347955 1.80375 0
M  V30 7360 C 692.794 3.55504 0.534493 0
M  V30 7361 C 692.458 4.53098 -0.595917 0
M  V30 7362 C 693.455 4.98815 -1.46558 0
M  V30 7363 C 691.14 4.96296 -0.774309 0
M  V30 7364 C 693.134 5.86394 -2.4984 0
M  V30 7365 C 690.821 5.83667 -1.81042 0
M  V30 7366 C 691.819 6.28613 -2.67086 0
M  V30 7367 O 691.507 7.14251 -3.68919 0
M  V30 7368 H 691.239 0.675833 0.0150263 0
M  V30 7369 H 693.793 1.96301 -0.604584 0
M  V30 7370 H 692.023 3.63092 1.33045 0
M  V30 7371 H 693.712 3.92545 1.03262 0
M  V30 7372 H 694.478 4.66143 -1.33925 0
M  V30 7373 H 690.357 4.60859 -0.114178 0
M  V30 7374 H 693.901 6.21398 -3.17034 0
M  V30 7375 H 689.798 6.15753 -1.93698 0
M  V30 7376 H 690.566 7.3241 -3.65402 0
M  V30 7377 N 693.229 0.160201 1.56784 0
M  V30 7378 C 694.64 -0.358417 1.83227 0
M  V30 7379 C 694.991 -1.63831 1.07952 0
M  V30 7380 O 694.116 -2.13885 0.328995 0
M  V30 7381 C 694.711 -0.657058 3.32368 0
M  V30 7382 C 693.27 -1.12015 3.59346 0
M  V30 7383 C 692.417 -0.15015 2.76893 0
M  V30 7384 H 695.368 0.384669 1.53967 0
M  V30 7385 H 695.389 -1.51033 3.49241 0
M  V30 7386 H 694.901 0.274647 3.87127 0
M  V30 7387 H 693.002 -2.06734 3.09987 0
M  V30 7388 H 693.115 -1.037 4.67743 0
M  V30 7389 H 691.479 -0.645361 2.46388 0
M  V30 7390 H 692.262 0.775379 3.34429 0
M  V30 7391 N 694.707 -1.5719 -0.113559 0
M  V30 7392 C 695.932 -1.89702 -0.838336 0
M  V30 7393 C 696.357 -0.752679 -1.72384 0
M  V30 7394 O 695.715 0.296575 -1.78858 0
M  V30 7395 C 695.763 -3.20989 -1.64312 0
M  V30 7396 O 694.867 -3.07278 -2.75053 0
M  V30 7397 H 694.208 -0.622339 -0.231496 0
M  V30 7398 H 696.738 -2.04382 -0.0943228 0
M  V30 7399 H 696.748 -3.53843 -2.03123 0
M  V30 7400 H 695.423 -4.03869 -0.993119 0
M  V30 7401 H 694 -2.85901 -2.39406 0
M  V30 7402 N 696.185 0.383891 -1.52853 0
M  V30 7403 C 697.133 1.48965 -1.7864 0
M  V30 7404 C 698.127 1.56242 -0.654577 0
M  V30 7405 O 699.333 1.59347 -0.83716 0
M  V30 7406 H 695.708 0.495892 -0.565328 0
M  V30 7407 H 697.679 1.24411 -2.71228 0
M  V30 7408 C 696.428 2.86036 -1.97683 0
M  V30 7409 H 695.751 2.81188 -2.84206 0
M  V30 7410 H 697.191 3.62632 -2.19713 0
M  V30 7411 C 695.65 3.28428 -0.750776 0
M  V30 7412 O 696.18 4.0164 0.0693491 0
M  V30 7413 N 694.386 2.84765 -0.579427 0
M  V30 7414 H 693.933 2.25353 -1.24795 0
M  V30 7415 H 693.891 3.13486 0.239544 0
M  V30 7416 N 697.663 1.43903 0.642637 0
M  V30 7417 C 698.626 1.49538 1.73698 0
M  V30 7418 C 699.626 0.378776 1.56275 0
M  V30 7419 O 700.816 0.64095 1.6198 0
M  V30 7420 C 697.948 1.35821 3.12675 0
M  V30 7421 H 699.141 2.47008 1.70079 0
M  V30 7422 H 696.694 1.30824 0.85526 0
M  V30 7423 H 697.429 0.393994 3.21898 0
M  V30 7424 H 697.214 2.16776 3.26727 0
M  V30 7425 H 698.704 1.4272 3.92455 0
M  V30 7426 N 699.141 -0.881989 1.30609 0
M  V30 7427 C 700.387 -1.63647 1.19781 0
M  V30 7428 C 700.72 -1.92632 -0.246265 0
M  V30 7429 O 699.995 -1.54938 -1.17577 0
M  V30 7430 C 700.278 -2.97437 2.02985 0
M  V30 7431 C 700.131 -2.75406 3.55628 0
M  V30 7432 C 701.45 -3.98397 1.86997 0
M  V30 7433 H 698.569 -0.593841 0.436488 0
M  V30 7434 H 701.211 -1.02041 1.60273 0
M  V30 7435 H 699.361 -3.50018 1.68581 0
M  V30 7436 H 701.033 -2.2959 4.00107 0
M  V30 7437 H 699.276 -2.09856 3.79662 0
M  V30 7438 H 699.947 -3.70552 4.09139 0
M  V30 7439 H 702.423 -3.54986 2.17081 0
M  V30 7440 H 701.299 -4.89916 2.47536 0
M  V30 7441 H 701.56 -4.3424 0.829943 0
M  V30 7442 N 700.619 -1.13374 -1.09472 0
M  V30 7443 C 701.529 -0.824029 -2.19652 0
M  V30 7444 C 702.545 0.19118 -1.72947 0
M  V30 7445 O 703.721 0.0223464 -2.01388 0
M  V30 7446 C 700.786 -0.294009 -3.45451 0
M  V30 7447 C 699.847 -1.3704 -4.0684 0
M  V30 7448 C 699.08 -0.86558 -5.26634 0
M  V30 7449 O 699.303 0.29702 -5.69626 0
M  V30 7450 O 698.237 -1.63968 -5.79136 0
M  V30 7451 H 702.063 -1.74454 -2.48595 0
M  V30 7452 H 699.648 -0.911155 -1.18399 0
M  V30 7453 H 701.53 -0.00381039 -4.214 0
M  V30 7454 H 700.205 0.598921 -3.18111 0
M  V30 7455 H 699.112 -1.71391 -3.3253 0
M  V30 7456 H 700.445 -2.23746 -4.38405 0
M  V30 7457 N 702.098 1.27442 -0.927168 0
M  V30 7458 C 703.008 2.30599 -0.431448 0
M  V30 7459 C 704.024 1.67028 0.48761 0
M  V30 7460 O 705.2 1.97962 0.370546 0
M  V30 7461 C 702.265 3.45327 0.308292 0
M  V30 7462 C 701.326 4.24418 -0.645615 0
M  V30 7463 C 700.559 5.33667 0.0589164 0
M  V30 7464 O 700.782 5.5589 1.27838 0
M  V30 7465 O 699.716 5.98774 -0.612638 0
M  V30 7466 H 703.542 2.75036 -1.28797 0
M  V30 7467 H 701.127 1.32382 -0.692495 0
M  V30 7468 H 703.009 4.15107 0.725555 0
M  V30 7469 H 701.684 3.02945 1.14043 0
M  V30 7470 H 700.591 3.57174 -1.11255 0
M  V30 7471 H 701.924 4.70512 -1.44496 0
M  V30 7472 N 703.576 0.692616 1.41565 0
M  V30 7473 C 704.822 0.222664 2.01574 0
M  V30 7474 C 705.155 -1.1737 1.54719 0
M  V30 7475 O 704.43 -1.79161 0.757084 0
M  V30 7476 C 704.713 0.277064 3.59033 0
M  V30 7477 C 704.566 1.71016 4.16021 0
M  V30 7478 C 705.885 -0.36479 4.38586 0
M  V30 7479 H 703.004 0.0823839 0.732381 0
M  V30 7480 H 705.646 0.880778 1.68352 0
M  V30 7481 H 703.796 -0.283288 3.87466 0
M  V30 7482 H 705.468 2.32413 3.98475 0
M  V30 7483 H 703.711 2.24525 3.71175 0
M  V30 7484 H 704.382 1.69978 5.25178 0
M  V30 7485 H 706.858 0.112404 4.15948 0
M  V30 7486 H 705.734 -0.296169 5.481 0
M  V30 7487 H 705.995 -1.44506 4.17816 0
M  V30 7488 N 705.054 -1.51416 0.437162 0
M  V30 7489 C 706.282 -2.06503 -0.128045 0
M  V30 7490 C 706.697 -1.30461 -1.36475 0
M  V30 7491 O 706.054 -0.364127 -1.78831 0
M  V30 7492 C 706.105 -3.58683 -0.450437 0
M  V30 7493 O 705.826 -4.31853 0.737186 0
M  V30 7494 C 707.327 -4.30284 -1.06633 0
M  V30 7495 H 704.547 -0.670952 -0.00800269 0
M  V30 7496 H 707.091 -1.94996 0.616193 0
M  V30 7497 H 705.246 -3.70106 -1.14457 0
M  V30 7498 H 705.66 -5.22467 0.461347 0
M  V30 7499 H 707.134 -5.37848 -1.24191 0
M  V30 7500 H 707.611 -3.88564 -2.0473 0
M  V30 7501 H 708.217 -4.23304 -0.411585 0
M  V30 7502 N 706.532 -0.168513 -1.56696 0
M  V30 7503 C 707.464 0.794249 -2.14998 0
M  V30 7504 C 708.477 1.1957 -1.10485 0
M  V30 7505 O 709.666 1.13604 -1.37682 0
M  V30 7506 C 706.766 2.08018 -2.67547 0
M  V30 7507 C 705.939 1.84274 -3.96689 0
M  V30 7508 C 704.998 2.97059 -4.3433 0
M  V30 7509 O 704.024 2.67815 -5.02259 0
M  V30 7510 N 705.226 4.24775 -3.9566 0
M  V30 7511 H 707.991 0.295832 -2.98236 0
M  V30 7512 H 705.552 0.0143611 -1.61894 0
M  V30 7513 H 707.544 2.82559 -2.89729 0
M  V30 7514 H 706.114 2.49059 -1.88914 0
M  V30 7515 H 705.334 0.936528 -3.82914 0
M  V30 7516 H 706.622 1.65773 -4.81037 0
M  V30 7517 H 706.02 4.51395 -3.40968 0
M  V30 7518 H 704.577 4.96027 -4.22848 0
M  V30 7519 N 708.01 1.57248 0.105221 0
M  V30 7520 C 708.958 2.02337 1.14728 0
M  V30 7521 C 709.952 0.922652 1.42069 0
M  V30 7522 O 711.158 1.10785 1.41869 0
M  V30 7523 H 707.533 0.644682 0.387155 0
M  V30 7524 H 709.504 2.89063 0.740607 0
M  V30 7525 C 708.253 2.45513 2.46209 0
M  V30 7526 H 707.576 3.29785 2.26013 0
M  V30 7527 H 709.016 2.80846 3.1765 0
M  V30 7528 C 707.475 1.3243 3.09781 0
M  V30 7529 O 708.005 0.647841 3.96442 0
M  V30 7530 N 706.211 1.07785 2.69872 0
M  V30 7531 H 705.758 1.62973 1.99493 0
M  V30 7532 H 705.716 0.323204 3.12734 0
M  V30 7533 N 709.488 -0.375779 1.53054 0
M  V30 7534 C 710.436 -1.48015 1.79428 0
M  V30 7535 C 711.43 -1.55893 0.662854 0
M  V30 7536 O 712.636 -1.58901 0.845599 0
M  V30 7537 H 709.011 -0.492887 0.56795 0
M  V30 7538 H 710.982 -1.22971 2.71884 0
M  V30 7539 C 709.731 -2.84984 1.99197 0
M  V30 7540 H 709.054 -2.79677 2.85693 0
M  V30 7541 H 710.494 -3.61462 2.21633 0
M  V30 7542 C 708.953 -3.28025 0.768183 0
M  V30 7543 O 709.483 -4.01671 -0.0480482 0
M  V30 7544 N 707.689 -2.84454 0.594521 0
M  V30 7545 H 707.236 -2.24688 1.25988 0
M  V30 7546 H 707.194 -3.13609 -0.222916 0
M  V30 7547 N 710.966 -1.44241 -0.634997 0
M  V30 7548 C 712.213 -1.46821 -1.39463 0
M  V30 7549 C 712.541 -0.0993362 -1.94246 0
M  V30 7550 O 711.796 0.898325 -1.73864 0
M  V30 7551 C 712.095 -2.47279 -2.58046 0
M  V30 7552 C 711.761 -3.92703 -2.21574 0
M  V30 7553 C 710.423 -4.32306 -2.1134 0
M  V30 7554 C 712.775 -4.84271 -1.92695 0
M  V30 7555 C 710.103 -5.61407 -1.70409 0
M  V30 7556 C 712.455 -6.13755 -1.53258 0
M  V30 7557 C 711.119 -6.52316 -1.41562 0
M  V30 7558 H 710.389 -0.537256 -0.51033 0
M  V30 7559 H 713.036 -1.77431 -0.720441 0
M  V30 7560 H 711.341 -2.10138 -3.3068 0
M  V30 7561 H 713.038 -2.46523 -3.16271 0
M  V30 7562 H 709.628 -3.61369 -2.30456 0
M  V30 7563 H 713.812 -4.54432 -1.99513 0
M  V30 7564 H 709.068 -5.90105 -1.59955 0
M  V30 7565 H 713.242 -6.84168 -1.29949 0
M  V30 7566 H 710.869 -7.52255 -1.09619 0
M  V30 7567 N 712.444 0.87505 -1.31075 0
M  V30 7568 C 713.86 1.15997 -1.09622 0
M  V30 7569 C 714.06 2.01036 0.136611 0
M  V30 7570 O 713.116 2.38559 0.827397 0
M  V30 7571 C 714.429 1.85702 -2.36506 0
M  V30 7572 C 715.977 1.98425 -2.42067 0
M  V30 7573 C 716.452 2.71544 -3.68819 0
M  V30 7574 N 717.943 2.79084 -3.69684 0
M  V30 7575 C 718.678 3.36259 -4.64454 0
M  V30 7576 N 718.174 3.94406 -5.69575 0
M  V30 7577 N 719.967 3.34169 -4.51982 0
M  V30 7578 H 712.118 0.308258 -2.10151 0
M  V30 7579 H 714.381 0.199145 -0.926847 0
M  V30 7580 H 714.087 1.30663 -3.26527 0
M  V30 7581 H 713.961 2.86017 -2.45915 0
M  V30 7582 H 716.348 2.5263 -1.52518 0
M  V30 7583 H 716.429 0.971682 -2.36626 0
M  V30 7584 H 716.073 2.18008 -4.58732 0
M  V30 7585 H 716.003 3.73198 -3.71525 0
M  V30 7586 H 718.494 2.3781 -2.93691 0
M  V30 7587 H 718.807 4.36129 -6.37974 0
M  V30 7588 H 717.152 3.92797 -5.73355 0
M  V30 7589 H 720.343 2.87977 -3.69035 0
M  V30 7590 H 720.516 3.78431 -5.26017 0
M  V30 7591 N 713.922 1.13953 1.08869 0
M  V30 7592 C 714.852 0.844824 2.17681 0
M  V30 7593 C 715.833 -0.198213 1.68941 0
M  V30 7594 O 717.018 -0.0559073 1.9412 0
M  V30 7595 C 714.148 0.316325 3.45856 0
M  V30 7596 C 713.102 1.29426 4.07962 0
M  V30 7597 C 712.428 0.625275 5.31031 0
M  V30 7598 C 713.728 2.65484 4.49795 0
M  V30 7599 H 715.422 1.75471 2.42591 0
M  V30 7600 H 712.968 0.845116 1.16592 0
M  V30 7601 H 714.921 0.0977876 4.21287 0
M  V30 7602 H 713.645 -0.628972 3.20486 0
M  V30 7603 H 712.304 1.49889 3.34558 0
M  V30 7604 H 711.952 -0.325678 5.01945 0
M  V30 7605 H 711.652 1.27777 5.73539 0
M  V30 7606 H 713.176 0.416152 6.0918 0
M  V30 7607 H 714.59 2.48957 5.16424 0
M  V30 7608 H 712.987 3.26963 5.03205 0
M  V30 7609 H 714.057 3.22717 3.61914 0
M  V30 7610 N 715.4 -1.26948 0.933913 0
M  V30 7611 C 716.33 -2.29017 0.45534 0
M  V30 7612 C 717.311 -1.62961 -0.487605 0
M  V30 7613 O 718.496 -1.90223 -0.391022 0
M  V30 7614 C 715.626 -3.46112 -0.287015 0
M  V30 7615 C 714.58 -4.24205 0.568682 0
M  V30 7616 C 713.906 -5.3384 -0.303206 0
M  V30 7617 C 715.206 -4.88954 1.83633 0
M  V30 7618 H 716.9 -2.69298 1.30839 0
M  V30 7619 H 714.446 -1.29459 0.630579 0
M  V30 7620 H 716.399 -4.16622 -0.6328 0
M  V30 7621 H 715.123 -3.04765 -1.17414 0
M  V30 7622 H 713.782 -3.5545 0.897261 0
M  V30 7623 H 713.43 -4.88734 -1.18947 0
M  V30 7624 H 713.13 -5.86998 0.265879 0
M  V30 7625 H 714.654 -6.0719 -0.644423 0
M  V30 7626 H 716.068 -5.51717 1.55823 0
M  V30 7627 H 714.465 -5.52198 2.34941 0
M  V30 7628 H 715.535 -4.12305 2.55211 0
M  V30 7629 N 716.879 -0.700114 -1.41195 0
M  V30 7630 C 718.126 -0.233006 -2.01155 0
M  V30 7631 C 718.454 1.16883 -1.55462 0
M  V30 7632 O 717.709 1.80395 -0.758695 0
M  V30 7633 C 718.008 -0.243986 -3.56566 0
M  V30 7634 C 717.674 -1.59397 -4.21786 0
M  V30 7635 C 716.336 -1.96355 -4.39316 0
M  V30 7636 C 718.688 -2.48192 -4.58312 0
M  V30 7637 C 716.016 -3.21683 -4.9065 0
M  V30 7638 C 718.368 -3.72857 -5.11039 0
M  V30 7639 C 717.032 -4.09951 -5.26779 0
M  V30 7640 H 716.302 -0.085263 -0.736078 0
M  V30 7641 H 718.949 -0.9001 -1.69028 0
M  V30 7642 H 717.254 0.506663 -3.8851 0
M  V30 7643 H 718.951 0.135031 -4.00773 0
M  V30 7644 H 715.541 -1.29654 -4.08519 0
M  V30 7645 H 719.725 -2.20918 -4.4442 0
M  V30 7646 H 714.981 -3.50412 -5.01021 0
M  V30 7647 H 719.155 -4.41844 -5.38282 0
M  V30 7648 H 716.782 -5.07136 -5.66319 0
M  V30 7649 N 718.357 1.51182 -0.445186 0
M  V30 7650 C 719.304 2.27939 0.362291 0
M  V30 7651 C 720.274 1.31864 1.01 0
M  V30 7652 O 721.459 1.60776 1.02741 0
M  V30 7653 C 718.599 3.13016 1.45311 0
M  V30 7654 C 717.712 4.24093 0.822757 0
M  V30 7655 C 716.847 4.96467 1.88928 0
M  V30 7656 C 715.886 5.99454 1.23778 0
M  V30 7657 N 715.023 6.65206 2.24602 0
M  V30 7658 H 719.863 2.965 -0.29862 0
M  V30 7659 H 717.4 1.46237 -0.15911 0
M  V30 7660 H 719.358 3.60673 2.09692 0
M  V30 7661 H 717.988 2.46553 2.08354 0
M  V30 7662 H 717.04 3.80341 0.0670364 0
M  V30 7663 H 718.352 4.97853 0.307184 0
M  V30 7664 H 717.506 5.47712 2.60953 0
M  V30 7665 H 716.245 4.22355 2.4386 0
M  V30 7666 H 715.25 5.47494 0.503042 0
M  V30 7667 H 716.475 6.75527 0.695694 0
M  V30 7668 H 714.421 5.93901 2.78599 0
M  V30 7669 H 714.338 7.34756 1.77958 0
M  V30 7670 H 715.606 7.21078 2.96085 0
M  V30 7671 N 719.835 0.176821 1.56605 0
M  V30 7672 C 721.083 -0.465793 1.96659 0
M  V30 7673 C 721.404 -1.63406 1.06412 0
M  V30 7674 O 720.674 -1.95457 0.131603 0
M  V30 7675 H 719.254 -0.175072 0.726195 0
M  V30 7676 H 721.916 0.25929 1.93168 0
M  V30 7677 H 721.012 -0.822138 3.01077 0
M  V30 7678 N 721.313 -1.57302 -0.09688 0
M  V30 7679 C 722.538 -1.9058 -0.818169 0
M  V30 7680 C 722.963 -0.770921 -1.71576 0
M  V30 7681 O 722.321 0.277588 -1.79162 0
M  V30 7682 C 722.369 -3.22714 -1.60898 0
M  V30 7683 O 721.473 -3.10178 -2.71779 0
M  V30 7684 H 720.814 -0.624759 -0.224882 0
M  V30 7685 H 723.344 -2.04471 -0.07264 0
M  V30 7686 H 723.354 -3.55978 -1.99358 0
M  V30 7687 H 722.029 -4.04899 -0.950227 0
M  V30 7688 H 720.606 -2.88424 -2.3636 0
M  V30 7689 N 722.791 0.367657 -1.53252 0
M  V30 7690 C 723.701 1.47415 -1.82499 0
M  V30 7691 C 724.717 1.58711 -0.713222 0
M  V30 7692 O 725.893 1.74644 -1.00306 0
M  V30 7693 C 722.958 2.82706 -2.00694 0
M  V30 7694 C 722.019 2.80955 -3.24596 0
M  V30 7695 C 721.252 4.09793 -3.41914 0
M  V30 7696 O 721.475 5.05852 -2.63572 0
M  V30 7697 O 720.409 4.15731 -4.3526 0
M  V30 7698 H 724.235 1.25624 -2.765 0
M  V30 7699 H 721.82 0.557559 -1.38606 0
M  V30 7700 H 723.702 3.62873 -2.14246 0
M  V30 7701 H 722.377 3.04479 -1.09883 0
M  V30 7702 H 721.284 1.99494 -3.16469 0
M  V30 7703 H 722.617 2.64136 -4.15323 0
M  V30 7704 N 724.269 1.44576 0.627338 0
M  V30 7705 C 725.202 1.46206 1.75212 0
M  V30 7706 C 726.18 0.320483 1.5941 0
M  V30 7707 O 727.364 0.518028 1.81242 0
M  V30 7708 C 724.491 1.29834 3.12827 0
M  V30 7709 C 723.537 2.47603 3.47268 0
M  V30 7710 S 724.37 4.10125 3.44322 0
M  V30 7711 C 725.526 3.96183 4.84551 0
M  V30 7712 H 725.759 2.41378 1.73563 0
M  V30 7713 H 723.292 1.3192 0.802283 0
M  V30 7714 H 725.25 1.21075 3.92239 0
M  V30 7715 H 723.911 0.361662 3.12011 0
M  V30 7716 H 723.104 2.3202 4.47418 0
M  V30 7717 H 722.706 2.53121 2.75329 0
M  V30 7718 H 724.998 3.60107 5.73872 0
M  V30 7719 H 725.941 4.96176 5.05188 0
M  V30 7720 H 726.349 3.28177 4.59304 0
M  V30 7721 N 725.747 -0.868086 1.31537 0
M  V30 7722 C 726.993 -1.62367 1.2151 0
M  V30 7723 C 727.326 -1.92883 -0.225819 0
M  V30 7724 O 726.601 -1.56176 -1.15927 0
M  V30 7725 C 726.884 -2.95268 2.06129 0
M  V30 7726 C 726.737 -2.71619 3.58529 0
M  V30 7727 C 728.056 -3.96391 1.91212 0
M  V30 7728 H 725.175 -0.589178 0.442762 0
M  V30 7729 H 727.817 -1.00336 1.61347 0
M  V30 7730 H 725.967 -3.4821 1.72284 0
M  V30 7731 H 727.639 -2.25334 4.0252 0
M  V30 7732 H 725.882 -2.05817 3.81866 0
M  V30 7733 H 726.553 -3.66192 4.13047 0
M  V30 7734 H 729.029 -3.52663 2.20834 0
M  V30 7735 H 727.905 -4.87263 2.52718 0
M  V30 7736 H 728.166 -4.33335 0.875953 0
M  V30 7737 N 727.225 -1.14528 -1.08264 0
M  V30 7738 C 728.471 -0.91576 -1.80947 0
M  V30 7739 C 728.804 0.55623 -1.86064 0
M  V30 7740 O 728.079 1.41207 -1.33756 0
M  V30 7741 C 728.362 -1.51917 -3.26486 0
M  V30 7742 C 728.215 -3.06111 -3.2957 0
M  V30 7743 C 729.534 -1.19724 -4.23502 0
M  V30 7744 H 726.653 -0.334113 -0.656915 0
M  V30 7745 H 729.295 -1.41547 -1.26746 0
M  V30 7746 H 727.445 -1.0942 -3.72773 0
M  V30 7747 H 729.117 -3.57448 -2.91597 0
M  V30 7748 H 727.36 -3.40483 -2.688 0
M  V30 7749 H 728.031 -3.43438 -4.32151 0
M  V30 7750 H 730.507 -1.56467 -3.85561 0
M  V30 7751 H 729.383 -1.64575 -5.23647 0
M  V30 7752 H 729.644 -0.112771 -4.41956 0
M  V30 7753 N 728.703 1.26451 -0.940633 0
M  V30 7754 C 729.666 2.24651 -0.454378 0
M  V30 7755 C 730.666 1.54826 0.434222 0
M  V30 7756 O 731.856 1.72628 0.233477 0
M  V30 7757 C 728.988 3.39148 0.345192 0
M  V30 7758 H 730.181 2.69182 -1.32217 0
M  V30 7759 H 727.734 1.38596 -0.722547 0
M  V30 7760 H 728.469 3.00018 1.23125 0
M  V30 7761 H 728.254 3.9101 -0.292107 0
M  V30 7762 H 729.744 4.12103 0.675341 0
M  V30 7763 N 730.181 0.707592 1.40822 0
M  V30 7764 C 731.429 0.243189 2.00632 0
M  V30 7765 C 731.75 -1.16512 1.56365 0
M  V30 7766 O 731.02 -1.78841 0.799553 0
M  V30 7767 H 729.6 0.0869203 0.741926 0
M  V30 7768 H 732.262 0.911438 1.72275 0
M  V30 7769 H 731.358 0.270014 3.1093 0
M  V30 7770 N 731.66 -1.50943 0.453197 0
M  V30 7771 C 732.607 -2.28128 -0.350197 0
M  V30 7772 C 733.577 -1.32398 -1.00299 0
M  V30 7773 O 734.762 -1.61319 -1.01887 0
M  V30 7774 C 731.902 -3.13782 -1.43649 0
M  V30 7775 C 731.015 -4.24523 -0.800255 0
M  V30 7776 C 730.15 -4.97462 -1.86293 0
M  V30 7777 C 729.189 -6.00102 -1.20598 0
M  V30 7778 N 728.326 -6.66387 -2.21071 0
M  V30 7779 H 733.166 -2.96337 0.31434 0
M  V30 7780 H 730.703 -1.46151 0.166863 0
M  V30 7781 H 732.661 -3.6178 -2.07776 0
M  V30 7782 H 731.291 -2.47655 -2.07044 0
M  V30 7783 H 730.343 -3.80371 -0.0468651 0
M  V30 7784 H 731.655 -4.98009 -0.280777 0
M  V30 7785 H 730.809 -5.49088 -2.58044 0
M  V30 7786 H 729.548 -4.23642 -2.41617 0
M  V30 7787 H 728.553 -5.47753 -0.474 0
M  V30 7788 H 729.778 -6.75887 -0.659859 0
M  V30 7789 H 727.724 -5.9537 -2.75446 0
M  V30 7790 H 727.641 -7.3569 -1.74058 0
M  V30 7791 H 728.909 -7.22638 -2.92257 0
M  V30 7792 N 733.138 -0.185124 -1.56509 0
M  V30 7793 C 734.068 0.735098 -2.21627 0
M  V30 7794 C 735.049 1.2288 -1.1762 0
M  V30 7795 O 736.234 1.27945 -1.46095 0
M  V30 7796 C 733.364 1.95889 -2.86783 0
M  V30 7797 C 732.318 1.6005 -3.96948 0
M  V30 7798 C 731.644 2.90009 -4.4922 0
M  V30 7799 C 732.944 0.818008 -5.15855 0
M  V30 7800 H 734.638 0.192274 -2.98782 0
M  V30 7801 H 732.184 0.0910393 -1.43712 0
M  V30 7802 H 734.137 2.60779 -3.31017 0
M  V30 7803 H 732.861 2.52608 -2.07018 0
M  V30 7804 H 731.52 0.975237 -3.5339 0
M  V30 7805 H 731.168 3.44797 -3.6623 0
M  V30 7806 H 730.868 2.66778 -5.23549 0
M  V30 7807 H 732.392 3.55904 -4.9615 0
M  V30 7808 H 733.806 1.36979 -5.56695 0
M  V30 7809 H 732.203 0.684207 -5.96187 0
M  V30 7810 H 733.273 -0.182939 -4.84555 0
M  V30 7811 N 734.616 1.57351 0.0885366 0
M  V30 7812 C 735.548 1.99221 1.13329 0
M  V30 7813 C 736.561 0.895705 1.35945 0
M  V30 7814 O 737.75 1.17376 1.34481 0
M  V30 7815 C 734.85 2.3016 2.48756 0
M  V30 7816 C 734.023 3.61444 2.46327 0
M  V30 7817 C 733.082 3.80244 3.63732 0
M  V30 7818 O 732.108 4.52024 3.45924 0
M  V30 7819 N 733.31 3.2132 4.8346 0
M  V30 7820 H 736.075 2.89456 0.776862 0
M  V30 7821 H 733.636 1.59505 0.277428 0
M  V30 7822 H 735.628 2.39925 3.25911 0
M  V30 7823 H 734.198 1.459 2.76464 0
M  V30 7824 H 733.418 3.62588 1.54673 0
M  V30 7825 H 734.706 4.47678 2.41789 0
M  V30 7826 H 734.104 2.63028 5.00832 0
M  V30 7827 H 732.661 3.3656 5.58185 0
M  V30 7828 N 736.094 -0.359525 1.53444 0
M  V30 7829 C 737.371 -1.11756 1.6053 0
M  V30 7830 C 737.751 -2.06949 0.416587 0
M  V30 7831 O 737.099 -2.20681 -0.592628 0
M  V30 7832 C 737.309 -1.85133 2.95849 0
M  V30 7833 C 738.657 -2.3945 3.50641 0
M  V30 7834 O 739.681 -1.95251 2.97918 0
M  V30 7835 O 738.54 -3.20266 4.42823 0
M  V30 7836 H 735.634 -0.513005 0.648656 0
M  V30 7837 H 738.18 -0.362301 1.65787 0
M  V30 7838 H 736.952 -1.15694 3.73806 0
M  V30 7839 H 736.575 -2.67554 2.9411 0
M  V30 7840 N 737.572 -1.44907 -0.619662 0
M  V30 7841 C 738.988 -1.29046 -0.939107 0
M  V30 7842 C 739.188 -0.23462 -2.00129 0
M  V30 7843 O 738.244 0.37558 -2.49691 0
M  V30 7844 C 739.557 -2.66567 -1.39149 0
M  V30 7845 C 741.105 -2.74368 -1.50635 0
M  V30 7846 C 741.58 -4.12386 -1.99253 0
M  V30 7847 N 743.071 -4.1462 -2.06506 0
M  V30 7848 C 743.806 -5.18272 -2.4532 0
M  V30 7849 N 743.302 -6.32278 -2.83189 0
M  V30 7850 N 745.095 -5.05628 -2.45554 0
M  V30 7851 H 737.246 -2.12239 0.0826135 0
M  V30 7852 H 739.509 -0.947652 -0.0256829 0
M  V30 7853 H 739.215 -3.4496 -0.685254 0
M  V30 7854 H 739.089 -2.94224 -2.36034 0
M  V30 7855 H 741.476 -1.96287 -2.20353 0
M  V30 7856 H 741.557 -2.50439 -0.520963 0
M  V30 7857 H 741.201 -4.90947 -1.30127 0
M  V30 7858 H 741.131 -4.33699 -2.98684 0
M  V30 7859 H 743.622 -3.32343 -1.79878 0
M  V30 7860 H 743.935 -7.07172 -3.11652 0
M  V30 7861 H 742.28 -6.35699 -2.80913 0
M  V30 7862 H 745.471 -4.15613 -2.15367 0
M  V30 7863 H 745.644 -5.86529 -2.75478 0
M  V30 7864 N 739.05 0.861098 -1.31996 0
M  V30 7865 C 740.298 1.61162 -1.21947 0
M  V30 7866 C 740.619 1.93751 0.220351 0
M  V30 7867 O 739.889 1.59069 1.14341 0
M  V30 7868 H 738.469 0.597485 -0.448353 0
M  V30 7869 H 741.131 1.03039 -1.65436 0
M  V30 7870 H 740.227 2.55138 -1.79752 0
M  V30 7871 N 740.528 1.15101 1.07655 0
M  V30 7872 C 741.939 0.933848 1.61667 0
M  V30 7873 C 742.29 -0.525569 1.8903 0
M  V30 7874 O 741.415 -1.39605 1.65346 0
M  V30 7875 C 742.01 1.68876 2.93711 0
M  V30 7876 C 740.569 1.51697 3.44478 0
M  V30 7877 C 739.716 1.70633 2.18586 0
M  V30 7878 H 742.667 1.30171 0.907816 0
M  V30 7879 H 742.688 1.15645 3.625 0
M  V30 7880 H 742.2 2.7509 2.73764 0
M  V30 7881 H 740.301 0.478635 3.69513 0
M  V30 7882 H 740.414 2.29194 4.20722 0
M  V30 7883 H 738.778 1.13259 2.28132 0
M  V30 7884 H 739.561 2.78206 2.01137 0
M  V30 7885 N 742.006 -1.2595 0.947325 0
M  V30 7886 C 743.283 -1.88676 0.515824 0
M  V30 7887 C 743.663 -1.85547 -1.00675 0
M  V30 7888 O 743.011 -1.31399 -1.8694 0
M  V30 7889 C 743.221 -3.31734 1.08415 0
M  V30 7890 C 744.569 -4.08545 1.15654 0
M  V30 7891 O 745.593 -3.40826 1.03517 0
M  V30 7892 O 744.452 -5.29663 1.34608 0
M  V30 7893 H 741.546 -0.809537 0.169055 0
M  V30 7894 H 744.092 -1.34075 1.04029 0
M  V30 7895 H 742.864 -3.28404 2.1276 0
M  V30 7896 H 742.487 -3.93882 0.542499 0
M  V30 7897 N 743.484 -0.715051 -1.40445 0
M  V30 7898 C 744.73 -0.254705 -2.01194 0
M  V30 7899 C 745.063 1.14894 -1.56567 0
M  V30 7900 O 744.338 1.77933 -0.785491 0
M  V30 7901 C 744.621 -0.334148 -3.58546 0
M  V30 7902 C 744.474 -1.77613 -4.13248 0
M  V30 7903 C 745.793 0.294968 -4.3911 0
M  V30 7904 H 742.912 -0.094025 -0.730978 0
M  V30 7905 H 745.554 -0.907449 -1.66929 0
M  V30 7906 H 743.704 0.221609 -3.87867 0
M  V30 7907 H 745.376 -2.38723 -3.94727 0
M  V30 7908 H 743.619 -2.30402 -3.67556 0
M  V30 7909 H 744.29 -1.78311 -5.22407 0
M  V30 7910 H 746.766 -0.178563 -4.15717 0
M  V30 7911 H 745.642 0.208934 -5.48502 0
M  V30 7912 H 745.903 1.37841 -4.20062 0
M  V30 7913 N 744.962 1.50701 -0.461195 0
M  V30 7914 C 745.892 2.31182 0.328184 0
M  V30 7915 C 746.873 1.37644 0.999408 0
M  V30 7916 O 748.058 1.66565 0.99848 0
M  V30 7917 C 745.188 3.17113 1.41621 0
M  V30 7918 C 744.142 4.19124 0.867148 0
M  V30 7919 C 743.468 4.93728 2.05272 0
M  V30 7920 C 744.768 5.22174 -0.114808 0
M  V30 7921 H 746.462 2.97423 -0.343501 0
M  V30 7922 H 744.008 1.43033 -0.166641 0
M  V30 7923 H 745.961 3.72208 1.97584 0
M  V30 7924 H 744.685 2.48739 2.11652 0
M  V30 7925 H 743.344 3.65116 0.329557 0
M  V30 7926 H 742.992 4.21835 2.73978 0
M  V30 7927 H 742.692 5.62724 1.69161 0
M  V30 7928 H 744.216 5.51654 2.61744 0
M  V30 7929 H 745.63 5.72198 0.355316 0
M  V30 7930 H 744.027 5.98833 -0.389689 0
M  V30 7931 H 745.097 4.7353 -1.04391 0
M  V30 7932 N 746.441 0.193421 1.56409 0
M  V30 7933 C 747.669 -0.451438 2.01915 0
M  V30 7934 C 748.084 -1.55306 1.07357 0
M  V30 7935 O 747.441 -1.82333 0.0781512 0
M  V30 7936 C 747.492 -1.00931 3.47124 0
M  V30 7937 O 747.213 0.0483623 4.38073 0
M  V30 7938 C 748.714 -1.73021 4.0814 0
M  V30 7939 H 745.934 -0.113495 0.661332 0
M  V30 7940 H 748.478 0.301636 2.02263 0
M  V30 7941 H 746.633 -1.71277 3.47481 0
M  V30 7942 H 747.047 -0.366644 5.23217 0
M  V30 7943 H 748.521 -2.07289 5.11601 0
M  V30 7944 H 748.998 -2.6333 3.51502 0
M  V30 7945 H 749.604 -1.07264 4.11551 0
M  V30 7946 N 747.919 -1.57396 -0.0801906 0
M  V30 7947 C 748.882 -2.02133 -1.0805 0
M  V30 7948 C 749.882 -0.91707 -1.32085 0
M  V30 7949 O 751.072 -1.18217 -1.27947 0
M  V30 7950 C 748.204 -2.39479 -2.42616 0
M  V30 7951 H 749.397 -2.91733 -0.6951 0
M  V30 7952 H 746.95 -1.52869 -0.325677 0
M  V30 7953 H 747.685 -1.52879 -2.86004 0
M  V30 7954 H 747.47 -3.20052 -2.26515 0
M  V30 7955 H 748.96 -2.74697 -3.14534 0
M  V30 7956 N 749.397 0.351382 -1.53633 0
M  V30 7957 C 750.625 1.11275 -1.74429 0
M  V30 7958 C 751.04 1.82602 -0.479798 0
M  V30 7959 O 750.397 1.74074 0.548125 0
M  V30 7960 C 750.448 2.13223 -2.91921 0
M  V30 7961 O 750.169 1.44798 -4.13479 0
M  V30 7962 C 751.67 3.01797 -3.24706 0
M  V30 7963 H 748.89 0.332153 -0.583023 0
M  V30 7964 H 751.434 0.405974 -2.0043 0
M  V30 7965 H 749.589 2.79477 -2.68274 0
M  V30 7966 H 750.003 2.12839 -4.79374 0
M  V30 7967 H 751.477 3.69282 -4.10286 0
M  V30 7968 H 751.954 3.67387 -2.40673 0
M  V30 7969 H 752.56 2.41141 -3.5033 0
M  V30 7970 N 750.875 1.45233 0.611969 0
M  V30 7971 C 752.121 1.49242 1.37312 0
M  V30 7972 C 752.454 0.131963 1.93751 0
M  V30 7973 O 751.729 -0.852999 1.74798 0
M  V30 7974 C 752.012 2.56811 2.52428 0
M  V30 7975 C 751.865 4.02284 2.01215 0
M  V30 7976 C 753.184 2.60705 3.54572 0
M  V30 7977 H 750.303 0.54336 0.497925 0
M  V30 7978 H 752.945 1.77019 0.690242 0
M  V30 7979 H 751.095 2.33256 3.10683 0
M  V30 7980 H 752.767 4.37035 1.47643 0
M  V30 7981 H 751.01 4.1315 1.32248 0
M  V30 7982 H 751.681 4.7323 2.84178 0
M  V30 7983 H 754.157 2.81799 3.06151 0
M  V30 7984 H 753.033 3.37841 4.32614 0
M  V30 7985 H 753.294 1.65627 4.09903 0
M  V30 7986 N 752.353 -0.854086 1.3245 0
M  V30 7987 C 753.578 -1.64597 1.26185 0
M  V30 7988 C 754.003 -1.87357 -0.167074 0
M  V30 7989 O 753.361 -1.42675 -1.11864 0
M  V30 7990 C 753.409 -2.98213 2.02734 0
M  V30 7991 O 752.513 -3.88784 1.37554 0
M  V30 7992 H 751.854 -0.50179 0.434859 0
M  V30 7993 H 754.384 -1.06372 1.74775 0
M  V30 7994 H 754.394 -3.4803 2.1293 0
M  V30 7995 H 753.069 -2.80969 3.06642 0
M  V30 7996 H 751.646 -3.4725 1.3591 0
M  V30 7997 N 753.831 -1.1567 -1.07043 0
M  V30 7998 C 755.079 -0.931673 -1.79344 0
M  V30 7999 C 755.4 0.542421 -1.87304 0
M  V30 8000 O 754.67 1.39418 -1.37621 0
M  V30 8001 H 753.25 -0.34171 -0.664262 0
M  V30 8002 H 755.912 -1.45795 -1.29344 0
M  V30 8003 H 755.008 -1.34379 -2.81689 0
M  V30 8004 N 755.309 1.25446 -0.953992 0
M  V30 8005 C 756.256 2.25912 -0.472485 0
M  V30 8006 C 757.226 1.59173 0.47469 0
M  V30 8007 O 758.411 1.86812 0.388082 0
M  V30 8008 C 755.551 3.44235 0.244218 0
M  V30 8009 C 754.664 4.25613 -0.740121 0
M  V30 8010 C 753.799 5.312 -0.000922267 0
M  V30 8011 C 752.838 6.04265 -0.976236 0
M  V30 8012 N 751.975 7.01589 -0.267952 0
M  V30 8013 H 756.815 2.66469 -1.3341 0
M  V30 8014 H 754.352 1.31005 -0.669045 0
M  V30 8015 H 756.31 4.11682 0.676314 0
M  V30 8016 H 754.94 3.04554 1.06988 0
M  V30 8017 H 753.992 3.57834 -1.2907 0
M  V30 8018 H 755.304 4.762 -1.48441 0
M  V30 8019 H 754.458 6.04719 0.48984 0
M  V30 8020 H 753.197 4.81484 0.776159 0
M  V30 8021 H 752.202 5.29561 -1.478 0
M  V30 8022 H 753.427 6.5607 -1.75354 0
M  V30 8023 H 751.373 6.54164 0.490403 0
M  V30 8024 H 751.29 7.4999 -0.951344 0
M  V30 8025 H 752.558 7.7924 0.201294 0
M  V30 8026 N 756.787 0.722489 1.40064 0
M  V30 8027 C 757.717 0.0892452 2.33329 0
M  V30 8028 C 758.698 -0.737992 1.53257 0
M  V30 8029 O 759.883 -0.685516 1.81698 0
M  V30 8030 C 757.013 -0.828139 3.37282 0
M  V30 8031 C 755.967 -0.106005 4.27869 0
M  V30 8032 C 755.293 -1.13957 5.22415 0
M  V30 8033 C 756.593 1.04395 5.11761 0
M  V30 8034 H 758.287 0.868269 2.86534 0
M  V30 8035 H 755.833 0.418982 1.3777 0
M  V30 8036 H 757.786 -1.28058 4.01471 0
M  V30 8037 H 756.51 -1.63914 2.82489 0
M  V30 8038 H 755.169 0.326683 3.65142 0
M  V30 8039 H 754.817 -1.9438 4.63924 0
M  V30 8040 H 754.517 -0.661233 5.83868 0
M  V30 8041 H 756.041 -1.59197 5.89482 0
M  V30 8042 H 757.455 0.670541 5.69365 0
M  V30 8043 H 755.852 1.4511 5.82291 0
M  V30 8044 H 756.922 1.87144 4.47331 0
M  V30 8045 N 758.265 -1.50454 0.469181 0
M  V30 8046 C 759.676 -1.86695 0.0136034 0
M  V30 8047 C 760.027 -1.38413 -1.39055 0
M  V30 8048 O 759.152 -0.748294 -2.03051 0
M  V30 8049 C 759.747 -3.38795 0.0179098 0
M  V30 8050 C 758.306 -3.74455 -0.382191 0
M  V30 8051 C 757.453 -2.74338 0.404207 0
M  V30 8052 H 760.404 -1.43225 0.683547 0
M  V30 8053 H 760.425 -3.72321 -0.78468 0
M  V30 8054 H 759.937 -3.73906 1.04 0
M  V30 8055 H 758.038 -3.44944 -1.4087 0
M  V30 8056 H 758.151 -4.79025 -0.084862 0
M  V30 8057 H 756.515 -2.54305 -0.141829 0
M  V30 8058 H 757.298 -3.12293 1.42577 0
M  V30 8059 N 759.743 -0.201713 -1.56304 0
M  V30 8060 C 760.971 0.440723 -2.02152 0
M  V30 8061 C 761.386 1.54735 -1.08179 0
M  V30 8062 O 760.743 1.82289 -0.0878196 0
M  V30 8063 C 760.794 0.990884 -3.47655 0
M  V30 8064 O 760.515 -0.0715937 -4.38041 0
M  V30 8065 C 762.016 1.70854 -4.09052 0
M  V30 8066 H 759.236 0.109987 -0.661924 0
M  V30 8067 H 761.78 -0.312358 -2.021 0
M  V30 8068 H 759.935 1.69432 -3.48384 0
M  V30 8069 H 760.349 0.338892 -5.23404 0
M  V30 8070 H 761.823 2.04572 -5.12693 0
M  V30 8071 H 762.3 2.61462 -3.52894 0
M  V30 8072 H 762.906 1.0508 -4.12114 0
M  V30 8073 N 761.222 1.57436 0.0718424 0
M  V30 8074 C 762.154 2.00412 1.1121 0
M  V30 8075 C 763.167 0.910074 1.34987 0
M  V30 8076 O 764.356 1.18796 1.33228 0
M  V30 8077 C 761.456 2.32786 2.46301 0
M  V30 8078 C 760.629 3.64036 2.4248 0
M  V30 8079 C 759.688 3.8408 3.59679 0
M  V30 8080 O 758.714 4.55667 3.4111 0
M  V30 8081 N 759.916 3.2643 4.80025 0
M  V30 8082 H 762.681 2.90264 0.746118 0
M  V30 8083 H 760.242 1.59791 0.260495 0
M  V30 8084 H 762.234 2.43368 3.23348 0
M  V30 8085 H 760.804 1.48824 2.74901 0
M  V30 8086 H 760.024 3.64208 1.50818 0
M  V30 8087 H 761.312 4.50217 2.37027 0
M  V30 8088 H 760.71 2.68325 4.98014 0
M  V30 8089 H 759.267 3.42461 5.54584 0
M  V30 8090 N 762.7 -0.34323 1.53817 0
M  V30 8091 C 763.648 -1.44176 1.82527 0
M  V30 8092 C 764.642 -1.54452 0.695772 0
M  V30 8093 O 765.848 -1.57072 0.879114 0
M  V30 8094 H 762.223 -0.480729 0.578277 0
M  V30 8095 H 764.194 -1.17176 2.74431 0
M  V30 8096 C 762.943 -2.80695 2.05197 0
M  V30 8097 H 762.266 -2.73554 2.91561 0
M  V30 8098 H 763.706 -3.56679 2.29251 0
M  V30 8099 C 762.165 -3.26322 0.837589 0
M  V30 8100 O 762.695 -4.01683 0.0371631 0
M  V30 8101 N 760.901 -2.83128 0.654724 0
M  V30 8102 H 760.448 -2.21965 1.30725 0
M  V30 8103 H 760.406 -3.14011 -0.156345 0
M  V30 8104 N 764.178 -1.45556 -0.604258 0
M  V30 8105 C 765.427 -1.49019 -1.35928 0
M  V30 8106 C 765.74 -0.137409 -1.95117 0
M  V30 8107 O 766.946 -0.0497032 -2.71455 0
M  V30 8108 C 765.402 -2.62477 -2.46239 0
M  V30 8109 C 765.01 -4.04082 -1.93447 0
M  V30 8110 C 766.754 -2.7519 -3.23219 0
M  V30 8111 C 764.661 -5.08917 -3.0126 0
M  V30 8112 H 763.591 -0.554518 -0.510907 0
M  V30 8113 H 766.242 -1.71705 -0.647262 0
M  V30 8114 H 764.624 -2.3308 -3.2014 0
M  V30 8115 H 765.798 -4.43173 -1.26232 0
M  V30 8116 H 764.113 -3.95849 -1.29201 0
M  V30 8117 H 766.71 -3.50683 -4.0364 0
M  V30 8118 H 767.053 -1.81941 -3.74437 0
M  V30 8119 H 767.586 -3.04129 -2.56418 0
M  V30 8120 H 764.325 -6.03886 -2.54955 0
M  V30 8121 H 763.845 -4.74393 -3.67031 0
M  V30 8122 H 765.524 -5.33814 -3.65584 0
M  V30 8123 N 765.656 0.84705 -1.32902 0
M  V30 8124 C 766.884 1.63403 -1.26913 0
M  V30 8125 C 767.299 1.88108 0.161483 0
M  V30 8126 O 766.656 1.45546 1.10103 0
M  V30 8127 C 766.707 2.98896 -2.03331 0
M  V30 8128 O 766.428 2.75281 -3.40811 0
M  V30 8129 C 767.929 3.93335 -2.04457 0
M  V30 8130 H 765.149 0.508701 -0.437566 0
M  V30 8131 H 767.693 1.05567 -1.75145 0
M  V30 8132 H 765.848 3.53356 -1.58802 0
M  V30 8133 H 766.262 3.61504 -3.8002 0
M  V30 8134 H 767.736 4.85647 -2.62394 0
M  V30 8135 H 768.213 4.26885 -1.03274 0
M  V30 8136 H 768.819 3.44812 -2.48967 0
M  V30 8137 N 767.134 1.16236 1.06428 0
M  V30 8138 C 768.381 0.943034 1.79201 0
M  V30 8139 C 768.709 -0.529243 1.87161 0
M  V30 8140 O 767.964 -1.40874 1.35842 0
M  V30 8141 C 768.263 1.51396 3.2375 0
M  V30 8142 C 767.929 3.00833 3.35873 0
M  V30 8143 C 766.591 3.41626 3.38888 0
M  V30 8144 C 768.943 3.96825 3.37904 0
M  V30 8145 C 766.271 4.77033 3.4155 0
M  V30 8146 C 768.623 5.32116 3.42104 0
M  V30 8147 C 767.287 5.72392 3.43401 0
M  V30 8148 H 766.557 0.34508 0.655744 0
M  V30 8149 H 769.204 1.44929 1.25171 0
M  V30 8150 H 767.509 0.929114 3.80624 0
M  V30 8151 H 769.206 1.31996 3.78653 0
M  V30 8152 H 765.796 2.68306 3.3423 0
M  V30 8153 H 769.98 3.66376 3.34787 0
M  V30 8154 H 765.236 5.07569 3.40858 0
M  V30 8155 H 769.41 6.06286 3.42623 0
M  V30 8156 H 767.037 6.77296 3.45216 0
M  V30 8157 N 768.612 -1.24939 0.960631 0
M  V30 8158 C 769.544 -2.24879 0.442937 0
M  V30 8159 C 770.557 -1.56615 -0.444464 0
M  V30 8160 O 771.746 -1.76715 -0.251776 0
M  V30 8161 C 768.846 -3.36757 -0.380537 0
M  V30 8162 C 768.019 -4.34587 0.495283 0
M  V30 8163 C 767.078 -5.25502 -0.270995 0
M  V30 8164 O 766.104 -5.68227 0.332661 0
M  V30 8165 N 767.306 -5.59077 -1.56249 0
M  V30 8166 H 770.071 -2.69932 1.30218 0
M  V30 8167 H 767.632 -1.38907 0.83166 0
M  V30 8168 H 769.624 -3.94542 -0.90103 0
M  V30 8169 H 768.194 -2.91045 -1.14067 0
M  V30 8170 H 767.414 -3.75593 1.19682 0
M  V30 8171 H 768.702 -4.96925 1.09285 0
M  V30 8172 H 768.1 -5.2628 -2.07476 0
M  V30 8173 H 766.657 -6.19421 -2.02882 0
M  V30 8174 N 770.09 -0.729906 -1.39679 0
M  V30 8175 C 771.318 -0.285709 -2.04918 0
M  V30 8176 C 771.733 1.07765 -1.55023 0
M  V30 8177 O 771.09 1.67999 -0.712923 0
M  V30 8178 C 771.141 -0.272793 -3.60469 0
M  V30 8179 O 770.862 -1.58233 -4.08527 0
M  V30 8180 C 772.363 0.188199 -4.429 0
M  V30 8181 H 769.583 -0.125758 -0.65911 0
M  V30 8182 H 772.127 -0.992129 -1.78821 0
M  V30 8183 H 770.282 0.384699 -3.85485 0
M  V30 8184 H 770.696 -1.49245 -5.02818 0
M  V30 8185 H 772.17 0.14608 -5.51807 0
M  V30 8186 H 772.647 1.2326 -4.21549 0
M  V30 8187 H 773.253 -0.439541 -4.23023 0
M  V30 8188 N 771.568 1.50203 -0.477153 0
M  V30 8189 C 772.478 2.32421 0.319027 0
M  V30 8190 C 773.494 1.43075 0.990233 0
M  V30 8191 O 774.67 1.76123 0.976873 0
M  V30 8192 C 771.735 3.17909 1.38328 0
M  V30 8193 C 770.796 4.23082 0.728036 0
M  V30 8194 C 770.029 5.04484 1.74158 0
M  V30 8195 O 770.252 4.8705 2.96881 0
M  V30 8196 O 769.186 5.8747 1.31006 0
M  V30 8197 H 773.012 3.01638 -0.353281 0
M  V30 8198 H 770.597 1.47478 -0.238891 0
M  V30 8199 H 772.479 3.70937 1.9996 0
M  V30 8200 H 771.154 2.51413 2.03895 0
M  V30 8201 H 770.061 3.7403 0.07261 0
M  V30 8202 H 771.394 4.92065 0.115216 0
M  V30 8203 N 773.046 0.209999 1.56195 0
M  V30 8204 C 774.271 -0.433064 2.02828 0
M  V30 8205 C 774.696 -1.5337 1.08901 0
M  V30 8206 O 774.054 -1.81144 0.0751132 0
M  V30 8207 C 774.102 -0.952635 3.47789 0
M  V30 8208 O 773.206 -2.0647 3.56993 0
M  V30 8209 H 772.547 -0.0994594 0.656509 0
M  V30 8210 H 775.077 0.32525 2.01998 0
M  V30 8211 H 775.087 -1.26542 3.8788 0
M  V30 8212 H 773.762 -0.147007 4.1564 0
M  V30 8213 H 772.339 -1.75942 3.28784 0
M  V30 8214 N 774.524 -1.57472 -0.0634922 0
M  V30 8215 C 775.749 -1.92273 -0.77756 0
M  V30 8216 C 776.174 -0.807141 -1.69902 0
M  V30 8217 O 775.532 0.239523 -1.79711 0
M  V30 8218 C 775.58 -3.26054 -1.54017 0
M  V30 8219 O 774.684 -3.15873 -2.65138 0
M  V30 8220 H 774.025 -0.629389 -0.211579 0
M  V30 8221 H 776.555 -2.04579 -0.0292523 0
M  V30 8222 H 776.565 -3.60127 -1.91763 0
M  V30 8223 H 775.24 -4.06824 -0.864128 0
M  V30 8224 H 773.817 -2.93373 -2.30189 0
M  V30 8225 N 776.003 0.335068 -1.53997 0
M  V30 8226 C 777.249 1.07594 -1.71905 0
M  V30 8227 C 777.582 1.88039 -0.485264 0
M  V30 8228 O 776.857 1.87482 0.517752 0
M  V30 8229 C 777.14 2.01016 -2.98772 0
M  V30 8230 C 776.993 1.23977 -4.32377 0
M  V30 8231 C 778.312 3.0071 -3.21343 0
M  V30 8232 H 775.431 0.38976 -0.625505 0
M  V30 8233 H 778.073 0.353684 -1.86679 0
M  V30 8234 H 776.223 2.62603 -2.86307 0
M  V30 8235 H 777.895 0.649383 -4.56706 0
M  V30 8236 H 776.138 0.541878 -4.30402 0
M  V30 8237 H 776.809 1.92512 -5.17342 0
M  V30 8238 H 779.285 2.4924 -3.33194 0
M  V30 8239 H 778.161 3.63272 -4.11491 0
M  V30 8240 H 778.422 3.72549 -2.38033 0
M  V30 8241 N 777.481 1.45874 0.596531 0
M  V30 8242 C 778.444 1.54988 1.68853 0
M  V30 8243 C 779.444 0.428302 1.54991 0
M  V30 8244 O 780.634 0.692158 1.59859 0
M  V30 8245 C 777.766 1.457 3.08195 0
M  V30 8246 H 778.959 2.52294 1.62135 0
M  V30 8247 H 776.512 1.33479 0.813206 0
M  V30 8248 H 777.247 0.496204 3.20481 0
M  V30 8249 H 777.032 2.27061 3.19665 0
M  V30 8250 H 778.522 1.55133 3.87716 0
M  V30 8251 N 778.959 -0.83999 1.33349 0
M  V30 8252 C 779.869 -1.98182 1.25543 0
M  V30 8253 C 780.885 -1.73204 0.166208 0
M  V30 8254 O 782.061 -1.97596 0.389589 0
M  V30 8255 C 779.126 -3.32157 0.993614 0
M  V30 8256 C 778.187 -3.70258 2.17273 0
M  V30 8257 C 777.42 -4.9784 1.92331 0
M  V30 8258 O 777.643 -5.63679 0.873074 0
M  V30 8259 O 776.577 -5.33418 2.78835 0
M  V30 8260 H 780.403 -2.07708 2.21565 0
M  V30 8261 H 777.988 -0.972852 1.13384 0
M  V30 8262 H 779.87 -4.12433 0.864711 0
M  V30 8263 H 778.545 -3.23637 0.0636596 0
M  V30 8264 H 777.452 -2.90497 2.35716 0
M  V30 8265 H 778.785 -3.83442 3.08598 0
M  V30 8266 N 780.437 -1.16799 -1.0581 0
M  V30 8267 C 781.369 -0.836774 -2.13379 0
M  V30 8268 C 782.382 0.158116 -1.6203 0
M  V30 8269 O 783.571 -0.0673211 -1.78373 0
M  V30 8270 C 780.671 -0.225959 -3.38146 0
M  V30 8271 C 779.844 -1.26217 -4.18794 0
M  V30 8272 C 778.903 -0.670257 -5.21914 0
M  V30 8273 O 777.929 -1.34042 -5.53192 0
M  V30 8274 N 779.131 0.540683 -5.77977 0
M  V30 8275 H 781.896 -1.76257 -2.42391 0
M  V30 8276 H 779.457 -1.06599 -1.21853 0
M  V30 8277 H 781.449 0.18317 -4.04285 0
M  V30 8278 H 780.019 0.603494 -3.06719 0
M  V30 8279 H 779.239 -1.84729 -3.48237 0
M  V30 8280 H 780.527 -1.9613 -4.69479 0
M  V30 8281 H 779.925 1.10322 -5.54838 0
M  V30 8282 H 778.482 0.891958 -6.45668 0
M  V30 8283 N 781.915 1.24427 -0.967243 0
M  V30 8284 C 782.825 2.29109 -0.504592 0
M  V30 8285 C 783.841 1.68495 0.434224 0
M  V30 8286 O 785.017 1.99041 0.307379 0
M  V30 8287 C 782.082 3.46133 0.198273 0
M  V30 8288 C 781.143 4.22149 -0.780313 0
M  V30 8289 C 780.376 5.33585 -0.110896 0
M  V30 8290 O 780.599 5.59676 1.10088 0
M  V30 8291 O 779.533 5.96522 -0.802823 0
M  V30 8292 H 783.359 2.708 -1.37482 0
M  V30 8293 H 780.944 1.30111 -0.73426 0
M  V30 8294 H 782.826 4.17205 0.593124 0
M  V30 8295 H 781.501 3.0642 1.04347 0
M  V30 8296 H 780.408 3.53454 -1.22561 0
M  V30 8297 H 781.741 4.65677 -1.59392 0
M  V30 8298 N 783.393 0.737304 1.3929 0
M  V30 8299 C 784.356 0.10731 2.28949 0
M  V30 8300 C 785.356 -0.664716 1.46418 0
M  V30 8301 O 786.546 -0.493392 1.67067 0
M  V30 8302 C 783.678 -0.857145 3.29948 0
M  V30 8303 H 784.871 0.89725 2.86163 0
M  V30 8304 H 782.424 0.503279 1.47976 0
M  V30 8305 H 783.159 -1.67336 2.77794 0
M  V30 8306 H 782.944 -0.306167 3.90903 0
M  V30 8307 H 784.434 -1.29444 3.97031 0
M  V30 8308 N 784.871 -1.49948 0.485112 0
M  V30 8309 C 785.781 -2.32587 -0.306697 0
M  V30 8310 C 786.797 -1.43598 -0.982632 0
M  V30 8311 O 787.973 -1.76638 -0.967519 0
M  V30 8312 C 785.038 -3.18638 -1.3664 0
M  V30 8313 C 784.099 -4.23462 -0.705589 0
M  V30 8314 C 783.332 -5.05401 -1.7148 0
M  V30 8315 O 783.555 -4.88618 -2.94293 0
M  V30 8316 O 782.489 -5.88157 -1.27889 0
M  V30 8317 H 786.315 -3.01447 0.369272 0
M  V30 8318 H 783.9 -1.47349 0.246709 0
M  V30 8319 H 785.782 -3.71992 -1.9799 0
M  V30 8320 H 784.457 -2.52491 -2.02559 0
M  V30 8321 H 783.364 -3.74063 -0.0527733 0
M  V30 8322 H 784.697 -4.92119 -0.0891187 0
M  V30 8323 N 786.349 -0.21828 -1.56081 0
M  V30 8324 C 787.596 0.414307 -1.98216 0
M  V30 8325 C 787.924 1.60005 -1.10584 0
M  V30 8326 O 787.179 1.95124 -0.150043 0
M  V30 8327 C 787.478 0.894782 -3.46018 0
M  V30 8328 C 787.144 -0.180083 -4.5054 0
M  V30 8329 C 785.806 -0.475367 -4.78846 0
M  V30 8330 C 788.158 -0.907191 -5.13244 0
M  V30 8331 C 785.486 -1.50233 -5.67139 0
M  V30 8332 C 787.838 -1.92347 -6.02649 0
M  V30 8333 C 786.502 -2.22571 -6.293 0
M  V30 8334 H 785.772 0.151606 -0.725325 0
M  V30 8335 H 788.419 -0.320113 -1.88806 0
M  V30 8336 H 786.724 1.7079 -3.52616 0
M  V30 8337 H 788.421 1.39403 -3.75989 0
M  V30 8338 H 785.011 0.06022 -4.28558 0
M  V30 8339 H 789.195 -0.692303 -4.91448 0
M  V30 8340 H 784.451 -1.74215 -5.86054 0
M  V30 8341 H 788.625 -2.49197 -6.50288 0
M  V30 8342 H 786.252 -3.0229 -6.97513 0
M  V30 8343 N 787.827 1.57504 0.0551401 0
M  V30 8344 C 788.759 2.0158 1.09078 0
M  V30 8345 C 789.772 0.92434 1.34014 0
M  V30 8346 O 790.961 1.20202 1.31961 0
M  V30 8347 C 788.061 2.35385 2.43818 0
M  V30 8348 C 787.234 3.66588 2.38605 0
M  V30 8349 C 786.293 3.87874 3.55585 0
M  V30 8350 O 785.319 4.59259 3.36258 0
M  V30 8351 N 786.521 3.31503 4.76536 0
M  V30 8352 H 789.286 2.91039 0.71529 0
M  V30 8353 H 786.847 1.60058 0.243532 0
M  V30 8354 H 788.839 2.46784 3.20749 0
M  V30 8355 H 787.409 1.51731 2.73307 0
M  V30 8356 H 786.629 3.65787 1.46947 0
M  V30 8357 H 787.917 4.52706 2.32239 0
M  V30 8358 H 787.315 2.73592 4.9514 0
M  V30 8359 H 785.872 3.48324 5.50921 0
M  V30 8360 N 789.305 -0.326896 1.54172 0
M  V30 8361 C 790.53 -1.08924 1.76494 0
M  V30 8362 C 790.955 -1.81039 0.510523 0
M  V30 8363 O 790.313 -1.73141 -0.537756 0
M  V30 8364 C 790.361 -2.06558 2.95578 0
M  V30 8365 O 789.465 -3.14394 2.6689 0
M  V30 8366 H 788.806 -0.314216 0.584948 0
M  V30 8367 H 791.336 -0.372207 2.01186 0
M  V30 8368 H 791.346 -2.49487 3.22832 0
M  V30 8369 H 790.021 -1.53469 3.86549 0
M  V30 8370 H 788.598 -2.76164 2.50576 0
M  V30 8371 N 790.784 -1.46188 -0.588786 0
M  V30 8372 C 792.195 -1.45421 -1.17088 0
M  V30 8373 C 792.546 -0.191801 -1.9526 0
M  V30 8374 O 791.671 0.705497 -2.04577 0
M  V30 8375 C 792.266 -2.63467 -2.13004 0
M  V30 8376 C 790.825 -2.6576 -2.6655 0
M  V30 8377 C 789.972 -2.38002 -1.42304 0
M  V30 8378 H 792.923 -1.54156 -0.377052 0
M  V30 8379 H 792.944 -2.38638 -2.96365 0
M  V30 8380 H 792.456 -3.55331 -1.56081 0
M  V30 8381 H 790.557 -1.77952 -3.27359 0
M  V30 8382 H 790.67 -3.65545 -3.09699 0
M  V30 8383 H 789.034 -1.87936 -1.71907 0
M  V30 8384 H 789.817 -3.32035 -0.872209 0
M  V30 8385 N 792.262 0.832906 -1.33792 0
M  V30 8386 C 793.209 1.94314 -1.24541 0
M  V30 8387 C 794.179 1.65646 -0.122753 0
M  V30 8388 O 795.364 1.88394 -0.30204 0
M  V30 8389 C 792.504 3.30395 -0.996641 0
M  V30 8390 C 791.617 3.71422 -2.20612 0
M  V30 8391 C 790.752 4.96401 -1.89101 0
M  V30 8392 C 789.791 5.2998 -3.06247 0
M  V30 8393 N 788.928 6.46137 -2.74685 0
M  V30 8394 H 793.768 2.01559 -2.19495 0
M  V30 8395 H 791.305 0.986243 -1.09141 0
M  V30 8396 H 793.263 4.08803 -0.832817 0
M  V30 8397 H 791.893 3.22691 -0.0838242 0
M  V30 8398 H 790.945 2.88488 -2.47949 0
M  V30 8399 H 792.257 3.92215 -3.0817 0
M  V30 8400 H 791.411 5.82572 -1.69396 0
M  V30 8401 H 790.15 4.7759 -0.987882 0
M  V30 8402 H 789.155 4.42312 -3.26559 0
M  V30 8403 H 790.38 5.50737 -3.97323 0
M  V30 8404 H 788.326 6.28801 -1.86938 0
M  V30 8405 H 788.243 6.67054 -3.55774 0
M  V30 8406 H 789.511 7.35403 -2.58461 0
M  V30 8407 N 793.74 1.17359 1.05189 0
M  V30 8408 C 794.97 0.985099 1.81602 0
M  V30 8409 C 795.378 -0.469872 1.83273 0
M  V30 8410 O 794.721 -1.33806 1.25864 0
M  V30 8411 C 794.783 1.44956 3.2898 0
M  V30 8412 C 794.447 2.92666 3.50993 0
M  V30 8413 C 795.444 3.906 3.43115 0
M  V30 8414 C 793.129 3.30841 3.77954 0
M  V30 8415 C 795.123 5.24709 3.61883 0
M  V30 8416 C 792.81 4.65116 3.96371 0
M  V30 8417 C 793.808 5.61859 3.88335 0
M  V30 8418 O 793.496 6.93704 4.06238 0
M  V30 8419 H 793.228 0.348731 0.579105 0
M  V30 8420 H 795.782 1.56066 1.33539 0
M  V30 8421 H 794.012 0.817559 3.77959 0
M  V30 8422 H 795.701 1.22674 3.86919 0
M  V30 8423 H 796.467 3.62453 3.22262 0
M  V30 8424 H 792.346 2.5611 3.83313 0
M  V30 8425 H 795.89 6.00205 3.55527 0
M  V30 8426 H 791.787 4.92969 4.16715 0
M  V30 8427 H 792.555 7.00443 4.23463 0
M  V30 8428 N 795.218 -1.23913 0.973828 0
M  V30 8429 C 796.467 -1.91455 0.63464 0
M  V30 8430 C 796.78 -1.76893 -0.834759 0
M  V30 8431 O 797.986 -2.3918 -1.28473 0
M  V30 8432 C 796.442 -3.43172 1.08447 0
M  V30 8433 C 796.05 -3.66409 2.57776 0
M  V30 8434 C 797.794 -4.1653 0.818721 0
M  V30 8435 C 795.701 -5.11728 2.9646 0
M  V30 8436 H 794.631 -0.716881 0.233661 0
M  V30 8437 H 797.282 -1.40457 1.18085 0
M  V30 8438 H 795.664 -3.93242 0.466524 0
M  V30 8439 H 796.838 -3.26913 3.24753 0
M  V30 8440 H 795.153 -3.06349 2.82027 0
M  V30 8441 H 797.75 -5.23603 1.08367 0
M  V30 8442 H 798.093 -4.15578 -0.245128 0
M  V30 8443 H 798.626 -3.72428 1.39793 0
M  V30 8444 H 795.365 -5.17806 4.01941 0
M  V30 8445 H 794.885 -5.52199 2.34172 0
M  V30 8446 H 796.564 -5.80009 2.86703 0
M  V30 8447 N 796.696 -0.74468 -1.38897 0
M  V30 8448 C 797.943 -0.296884 -2.00312 0
M  V30 8449 C 798.271 1.11878 -1.59102 0
M  V30 8450 O 797.526 1.7789 -0.815702 0
M  V30 8451 C 797.825 -0.357302 -3.55609 0
M  V30 8452 C 797.491 -1.72736 -4.16501 0
M  V30 8453 C 796.153 -2.10232 -4.32846 0
M  V30 8454 C 798.505 -2.62647 -4.50184 0
M  V30 8455 C 795.833 -3.3713 -4.80167 0
M  V30 8456 C 798.185 -3.88926 -4.98918 0
M  V30 8457 C 796.849 -4.26503 -5.1347 0
M  V30 8458 H 796.119 -0.108638 -0.732993 0
M  V30 8459 H 798.766 -0.953419 -1.66079 0
M  V30 8460 H 797.071 0.382805 -3.89925 0
M  V30 8461 H 798.768 0.0074596 -4.00999 0
M  V30 8462 H 795.358 -1.42585 -4.04187 0
M  V30 8463 H 799.542 -2.34945 -4.37166 0
M  V30 8464 H 794.798 -3.66174 -4.89619 0
M  V30 8465 H 798.972 -4.58745 -5.23952 0
M  V30 8466 H 796.599 -5.24896 -5.49898 0
M  V30 8467 N 798.174 1.49689 -0.493057 0
M  V30 8468 C 799.124 2.25901 0.308682 0
M  V30 8469 C 800.108 1.30408 0.94247 0
M  V30 8470 O 801.3 1.55179 0.851384 0
M  V30 8471 C 798.429 3.14463 1.37725 0
M  V30 8472 C 797.515 4.17414 0.7501 0
M  V30 8473 N 797.906 5.05599 -0.142597 0
M  V30 8474 C 796.204 4.34377 1.01159 0
M  V30 8475 C 796.905 5.7954 -0.500782 0
M  V30 8476 N 795.881 5.43446 0.129386 0
M  V30 8477 H 799.683 2.91451 -0.378652 0
M  V30 8478 H 797.197 1.59441 -0.308614 0
M  V30 8479 H 799.194 3.67687 1.965 0
M  V30 8480 H 797.854 2.50464 2.06635 0
M  V30 8481 H 798.865 5.15354 -0.512894 0
M  V30 8482 H 795.542 3.81588 1.69402 0
M  V30 8483 H 796.932 6.60534 -1.23063 0
M  V30 8484 N 799.652 0.226554 1.55963 0
M  V30 8485 C 800.6 -0.697922 2.21882 0
M  V30 8486 C 801.594 -1.19586 1.19981 0
M  V30 8487 O 802.8 -1.15511 1.38048 0
M  V30 8488 H 799.175 -0.243501 0.711485 0
M  V30 8489 H 801.146 -0.118576 2.98164 0
M  V30 8490 C 799.895 -1.89309 2.91646 0
M  V30 8491 H 799.218 -1.51906 3.69817 0
M  V30 8492 H 800.658 -2.51762 3.41162 0
M  V30 8493 C 799.117 -2.75162 1.94391 0
M  V30 8494 O 799.647 -3.74071 1.46402 0
M  V30 8495 N 797.853 -2.41302 1.61932 0
M  V30 8496 H 797.4 -1.60923 2.01151 0
M  V30 8497 H 797.358 -2.99023 0.971219 0
M  V30 8498 N 801.13 -1.57531 -0.0467866 0
M  V30 8499 C 802.377 -1.88451 -0.74112 0
M  V30 8500 C 802.705 -0.821592 -1.76296 0
M  V30 8501 O 801.96 0.179585 -1.94874 0
M  V30 8502 C 802.259 -3.26091 -1.46285 0
M  V30 8503 C 801.925 -4.47171 -0.578669 0
M  V30 8504 C 800.587 -4.80032 -0.335083 0
M  V30 8505 C 802.939 -5.2119 0.0328809 0
M  V30 8506 C 800.267 -5.84309 0.529121 0
M  V30 8507 C 802.619 -6.26383 0.884684 0
M  V30 8508 C 801.283 -6.57729 1.1379 0
M  V30 8509 H 800.553 -0.68959 -0.271195 0
M  V30 8510 H 803.2 -1.915 -0.00132378 0
M  V30 8511 H 801.505 -3.18948 -2.27551 0
M  V30 8512 H 803.202 -3.47258 -2.00532 0
M  V30 8513 H 799.792 -4.21467 -0.778666 0
M  V30 8514 H 803.976 -4.96096 -0.142375 0
M  V30 8515 H 799.232 -6.06981 0.733794 0
M  V30 8516 H 803.406 -6.82888 1.36516 0
M  V30 8517 H 801.033 -7.38355 1.80929 0
M  V30 8518 N 802.608 0.318715 -1.54344 0
M  V30 8519 C 803.541 1.41644 -1.7892 0
M  V30 8520 C 804.519 1.495 -0.639421 0
M  V30 8521 O 805.703 1.66835 -0.877404 0
M  V30 8522 C 802.83 2.79701 -1.9101 0
M  V30 8523 C 801.876 2.89354 -3.13331 0
M  V30 8524 S 802.709 2.53264 -4.71824 0
M  V30 8525 C 803.865 3.93384 -4.86826 0
M  V30 8526 H 804.098 1.20585 -2.71747 0
M  V30 8527 H 801.631 0.515828 -1.45529 0
M  V30 8528 H 803.589 3.59227 -1.98661 0
M  V30 8529 H 802.25 2.9804 -0.991516 0
M  V30 8530 H 801.443 3.90574 -3.1854 0
M  V30 8531 H 801.045 2.17805 -3.04035 0
M  V30 8532 H 803.337 4.88191 -4.69761 0
M  V30 8533 H 804.28 3.93156 -5.88926 0
M  V30 8534 H 804.688 3.82564 -4.15097 0
M  V30 8535 N 804.086 1.46499 0.581025 0
M  V30 8536 C 804.996 1.59778 1.71779 0
M  V30 8537 C 806.012 0.481223 1.67213 0
M  V30 8538 O 807.188 0.74557 1.87091 0
M  V30 8539 C 804.253 1.58626 3.08283 0
M  V30 8540 C 803.314 2.81527 3.241 0
M  V30 8541 C 802.547 2.80421 4.54092 0
M  V30 8542 O 802.77 1.89262 5.38085 0
M  V30 8543 O 801.704 3.71984 4.73193 0
M  V30 8544 H 805.53 2.55918 1.63523 0
M  V30 8545 H 803.115 1.29311 0.748267 0
M  V30 8546 H 804.997 1.60686 3.89561 0
M  V30 8547 H 803.672 0.656467 3.16973 0
M  V30 8548 H 802.579 2.85021 2.42309 0
M  V30 8549 H 803.912 3.73721 3.20302 0
M  V30 8550 N 805.565 -0.825799 1.34232 0
M  V30 8551 C 806.981 -1.11848 1.13851 0
M  V30 8552 C 807.181 -2.01405 -0.0619031 0
M  V30 8553 O 806.237 -2.41465 -0.738287 0
M  V30 8554 C 807.55 -1.76797 2.43235 0
M  V30 8555 C 809.098 -1.89304 2.49265 0
M  V30 8556 C 809.573 -2.57669 3.78643 0
M  V30 8557 N 811.064 -2.65171 3.79788 0
M  V30 8558 C 811.799 -3.1879 4.76614 0
M  V30 8559 N 811.295 -3.72995 5.83821 0
M  V30 8560 N 813.088 -3.17164 4.64073 0
M  V30 8561 H 805.239 -0.230049 2.11151 0
M  V30 8562 H 807.502 -0.164609 0.9336 0
M  V30 8563 H 807.208 -1.18455 3.31152 0
M  V30 8564 H 807.082 -2.76693 2.56361 0
M  V30 8565 H 809.469 -2.46796 1.6179 0
M  V30 8566 H 809.55 -0.883191 2.4007 0
M  V30 8567 H 809.194 -2.00833 4.66507 0
M  V30 8568 H 809.124 -3.59152 3.8512 0
M  V30 8569 H 811.615 -2.26746 3.02315 0
M  V30 8570 H 811.928 -4.12151 6.53721 0
M  V30 8571 H 810.273 -3.71246 5.87538 0
M  V30 8572 H 813.464 -2.74082 3.79469 0
M  V30 8573 H 813.637 -3.58647 5.397 0
M  V30 8574 N 807.043 -1.17915 -1.04565 0
M  V30 8575 C 807.973 -0.925033 -2.14395 0
M  V30 8576 C 808.954 0.135375 -1.6956 0
M  V30 8577 O 810.139 -0.0161774 -1.94193 0
M  V30 8578 C 807.269 -0.444469 -3.44444 0
M  V30 8579 C 806.223 -1.44478 -4.02877 0
M  V30 8580 C 805.549 -0.821933 -5.28345 0
M  V30 8581 C 806.849 -2.81995 -4.39632 0
M  V30 8582 H 808.543 -1.84354 -2.35911 0
M  V30 8583 H 806.089 -0.887806 -1.13375 0
M  V30 8584 H 808.042 -0.254078 -4.20633 0
M  V30 8585 H 806.766 0.509592 -3.226 0
M  V30 8586 H 805.425 -1.62203 -3.28764 0
M  V30 8587 H 805.073 0.139161 -5.02807 0
M  V30 8588 H 804.773 -1.48976 -5.68401 0
M  V30 8589 H 806.297 -0.641959 -6.07216 0
M  V30 8590 H 807.711 -2.67952 -5.06828 0
M  V30 8591 H 806.108 -3.45414 -4.90723 0
M  V30 8592 H 807.178 -3.35927 -3.49687 0
M  V30 8593 N 808.521 1.23394 -0.980386 0
M  V30 8594 C 809.767 1.924 -0.659848 0
M  V30 8595 C 810.122 1.75076 0.797883 0
M  V30 8596 O 809.415 1.10104 1.56805 0
M  V30 8597 C 809.609 3.43542 -0.985588 0
M  V30 8598 C 809.438 3.75568 -2.47343 0
M  V30 8599 C 808.208 3.96257 -3.13541 0
M  V30 8600 C 810.406 3.81045 -3.45412 0
M  V30 8601 N 808.388 4.15489 -4.51932 0
M  V30 8602 C 809.759 4.05269 -4.69209 0
M  V30 8603 C 811.814 3.63837 -3.39893 0
M  V30 8604 C 810.517 4.14071 -5.88164 0
M  V30 8605 C 812.543 3.73892 -4.58212 0
M  V30 8606 C 811.905 3.98553 -5.80805 0
M  V30 8607 H 808.004 0.725229 -0.292518 0
M  V30 8608 H 810.588 1.48615 -1.25784 0
M  V30 8609 H 808.759 3.86163 -0.416289 0
M  V30 8610 H 810.491 3.99887 -0.622324 0
M  V30 8611 H 807.246 3.93168 -2.64038 0
M  V30 8612 H 807.67 4.29058 -5.23677 0
M  V30 8613 H 812.312 3.43767 -2.46139 0
M  V30 8614 H 810.03 4.32949 -6.82335 0
M  V30 8615 H 813.616 3.61932 -4.55518 0
M  V30 8616 H 812.496 4.06148 -6.70831 0
M  V30 8617 N 809.999 0.752036 1.385 0
M  V30 8618 C 810.962 0.131587 2.28822 0
M  V30 8619 C 811.962 -0.649149 1.47115 0
M  V30 8620 O 813.152 -0.475645 1.67581 0
M  V30 8621 C 810.284 -0.822101 3.30839 0
M  V30 8622 H 811.477 0.927551 2.85196 0
M  V30 8623 H 809.03 0.518945 1.47434 0
M  V30 8624 H 809.765 -1.6438 2.79553 0
M  V30 8625 H 809.55 -0.264689 3.91206 0
M  V30 8626 H 811.04 -1.25226 3.98382 0
M  V30 8627 N 811.477 -1.49425 0.500989 0
M  V30 8628 C 812.707 -2.06561 -0.0402858 0
M  V30 8629 C 813.115 -1.36157 -1.31369 0
M  V30 8630 O 812.458 -0.433618 -1.78509 0
M  V30 8631 C 812.52 -3.5765 -0.364269 0
M  V30 8632 C 812.184 -4.49739 0.811417 0
M  V30 8633 C 813.181 -4.91255 1.7019 0
M  V30 8634 C 810.866 -4.92036 1.01022 0
M  V30 8635 C 812.86 -5.73806 2.77534 0
M  V30 8636 C 810.547 -5.74364 2.08683 0
M  V30 8637 C 811.545 -6.15154 2.96774 0
M  V30 8638 O 811.233 -6.95836 4.02577 0
M  V30 8639 H 810.965 -0.67578 0.0172357 0
M  V30 8640 H 813.519 -1.93193 0.697553 0
M  V30 8641 H 811.749 -3.69026 -1.1557 0
M  V30 8642 H 813.438 -3.97025 -0.844156 0
M  V30 8643 H 814.204 -4.59222 1.56013 0
M  V30 8644 H 810.083 -4.59789 0.333929 0
M  V30 8645 H 813.627 -6.05564 3.4632 0
M  V30 8646 H 809.524 -6.0581 2.22855 0
M  V30 8647 H 810.292 -7.14142 3.9993 0
M  V30 8648 N 812.955 -0.234822 -1.55841 0
M  V30 8649 C 813.885 0.664217 -2.23854 0
M  V30 8650 C 814.866 1.19076 -1.2147 0
M  V30 8651 O 816.051 1.23232 -1.50091 0
M  V30 8652 C 813.181 1.86666 -2.9287 0
M  V30 8653 C 812.135 1.47341 -4.01839 0
M  V30 8654 C 811.461 2.75571 -4.58219 0
M  V30 8655 C 812.761 0.653479 -5.18196 0
M  V30 8656 H 814.455 0.0971213 -2.99242 0
M  V30 8657 H 812.001 0.0452724 -1.43929 0
M  V30 8658 H 813.954 2.50116 -3.39146 0
M  V30 8659 H 812.678 2.45894 -2.1495 0
M  V30 8660 H 811.337 0.862314 -3.56314 0
M  V30 8661 H 810.985 3.32971 -3.77014 0
M  V30 8662 H 810.685 2.49987 -5.31771 0
M  V30 8663 H 812.209 3.39939 -5.07221 0
M  V30 8664 H 813.623 1.19198 -5.60771 0
M  V30 8665 H 812.02 0.494188 -5.98062 0
M  V30 8666 H 813.09 -0.337004 -4.83728 0
M  V30 8667 N 814.433 1.57553 0.0384317 0
M  V30 8668 C 815.661 1.93093 0.743141 0
M  V30 8669 C 816.076 0.833787 1.69391 0
M  V30 8670 O 815.433 -0.190532 1.81503 0
M  V30 8671 C 815.484 3.28533 1.50826 0
M  V30 8672 O 815.205 4.34032 0.595665 0
M  V30 8673 C 816.706 3.78297 2.31098 0
M  V30 8674 H 813.926 0.637486 0.20941 0
M  V30 8675 H 816.47 2.045 -0.00125154 0
M  V30 8676 H 814.625 3.18552 2.20462 0
M  V30 8677 H 815.039 5.12155 1.13124 0
M  V30 8678 H 816.513 4.75602 2.80191 0
M  V30 8679 H 816.99 3.09008 3.12107 0
M  V30 8680 H 817.596 3.91331 1.66555 0
M  V30 8681 N 815.911 -0.310526 1.54511 0
M  V30 8682 C 817.16 -1.0445 1.72549 0
M  V30 8683 C 817.473 -1.88748 0.513172 0
M  V30 8684 O 818.679 -2.65338 0.575165 0
M  V30 8685 C 817.135 -1.90665 3.05246 0
M  V30 8686 C 816.743 -1.11415 4.33925 0
M  V30 8687 C 818.487 -2.63719 3.32645 0
M  V30 8688 C 816.394 -1.96852 5.57677 0
M  V30 8689 H 815.324 -0.393676 0.643067 0
M  V30 8690 H 817.975 -0.302003 1.80998 0
M  V30 8691 H 816.357 -2.68864 2.90737 0
M  V30 8692 H 817.531 -0.378956 4.59239 0
M  V30 8693 H 815.846 -0.499853 4.13389 0
M  V30 8694 H 818.443 -3.27974 4.223 0
M  V30 8695 H 818.786 -3.32047 2.51098 0
M  V30 8696 H 819.319 -1.92574 3.48081 0
M  V30 8697 H 816.058 -1.33009 6.41864 0
M  V30 8698 H 815.578 -2.68069 5.36562 0
M  V30 8699 H 817.257 -2.55127 5.94575 0
M  V30 8700 N 817.389 -1.46805 -0.573248 0
M  V30 8701 C 818.321 -1.54127 -1.6964 0
M  V30 8702 C 819.334 -0.428778 -1.57052 0
M  V30 8703 O 820.523 -0.697612 -1.64303 0
M  V30 8704 C 817.623 -1.41438 -3.07975 0
M  V30 8705 C 816.796 -2.66974 -3.46474 0
M  V30 8706 C 815.855 -2.48349 -4.63906 0
M  V30 8707 O 814.881 -3.22109 -4.69292 0
M  V30 8708 N 816.083 -1.55129 -5.59388 0
M  V30 8709 H 818.848 -2.50971 -1.6381 0
M  V30 8710 H 816.409 -1.42981 -0.759479 0
M  V30 8711 H 818.401 -1.26737 -3.84343 0
M  V30 8712 H 816.971 -0.527388 -3.08119 0
M  V30 8713 H 816.191 -2.9655 -2.59715 0
M  V30 8714 H 817.479 -3.50347 -3.68964 0
M  V30 8715 H 816.877 -0.94324 -5.57781 0
M  V30 8716 H 815.434 -1.46387 -6.35149 0
M  V30 8717 N 818.867 0.818669 -1.34668 0
M  V30 8718 C 819.799 1.93754 -1.22442 0
M  V30 8719 C 820.812 1.62103 -0.150501 0
M  V30 8720 O 822.001 1.73898 -0.402728 0
M  V30 8721 C 819.101 3.27806 -0.860031 0
M  V30 8722 C 818.274 3.8745 -2.02981 0
M  V30 8723 C 817.333 4.99887 -1.64314 0
M  V30 8724 O 816.359 5.17957 -2.36029 0
M  V30 8725 N 817.561 5.77795 -0.55976 0
M  V30 8726 H 820.326 2.04773 -2.18833 0
M  V30 8727 H 817.887 0.995472 -1.27679 0
M  V30 8728 H 819.879 4.00478 -0.583068 0
M  V30 8729 H 818.449 3.12597 0.0138253 0
M  V30 8730 H 817.669 3.07119 -2.47127 0
M  V30 8731 H 818.957 4.2403 -2.81204 0
M  V30 8732 H 818.355 5.65688 0.0363329 0
M  V30 8733 H 816.912 6.50899 -0.342541 0
M  V30 8734 N 820.346 1.18468 1.03938 0
M  V30 8735 C 821.276 0.936389 2.13902 0
M  V30 8736 C 822.257 -0.126381 1.6963 0
M  V30 8737 O 823.442 0.0264757 1.94182 0
M  V30 8738 C 820.572 0.462729 3.44204 0
M  V30 8739 C 819.526 1.46613 4.02105 0
M  V30 8740 C 818.852 0.84994 5.27902 0
M  V30 8741 C 820.152 2.84323 4.3813 0
M  V30 8742 H 821.846 1.85602 2.3493 0
M  V30 8743 H 819.392 0.893806 1.12903 0
M  V30 8744 H 821.345 0.276382 4.20493 0
M  V30 8745 H 820.069 -0.492477 3.22866 0
M  V30 8746 H 818.728 1.63944 3.27899 0
M  V30 8747 H 818.376 -0.112493 5.02874 0
M  V30 8748 H 818.076 1.51988 5.67603 0
M  V30 8749 H 819.6 0.674152 6.06867 0
M  V30 8750 H 821.014 2.70636 5.054 0
M  V30 8751 H 819.411 3.48012 4.88884 0
M  V30 8752 H 820.481 3.37776 3.47901 0
M  V30 8753 N 821.824 -1.22873 0.986916 0
M  V30 8754 C 822.754 -2.2688 0.552064 0
M  V30 8755 C 823.735 -1.64883 -0.418048 0
M  V30 8756 O 824.92 -1.9171 -0.30999 0
M  V30 8757 C 822.05 -3.47018 -0.139959 0
M  V30 8758 C 821.004 -4.21411 0.748091 0
M  V30 8759 C 820.33 -5.34645 -0.0765132 0
M  V30 8760 C 821.63 -4.80726 2.04206 0
M  V30 8761 H 823.324 -2.63507 1.42143 0
M  V30 8762 H 820.87 -1.26668 0.68492 0
M  V30 8763 H 822.823 -4.18931 -0.455527 0
M  V30 8764 H 821.547 -3.0947 -1.04382 0
M  V30 8765 H 820.206 -3.51325 1.04721 0
M  V30 8766 H 819.854 -4.93339 -0.981109 0
M  V30 8767 H 819.554 -5.85342 0.514606 0
M  V30 8768 H 821.078 -6.09377 -0.386313 0
M  V30 8769 H 822.492 -5.44612 1.79083 0
M  V30 8770 H 820.889 -5.41737 2.5815 0
M  V30 8771 H 821.959 -4.01109 2.72469 0
M  V30 8772 N 823.302 -0.75937 -1.38099 0
M  V30 8773 C 824.212 -0.13774 -2.34195 0
M  V30 8774 C 825.228 0.693985 -1.59561 0
M  V30 8775 O 826.404 0.616792 -1.91723 0
M  V30 8776 C 823.469 0.740535 -3.38699 0
M  V30 8777 C 822.53 -0.106225 -4.29169 0
M  V30 8778 C 821.763 0.730225 -5.28681 0
M  V30 8779 O 821.986 1.96796 -5.35376 0
M  V30 8780 O 820.92 0.145969 -6.01723 0
M  V30 8781 H 824.746 -0.931512 -2.89061 0
M  V30 8782 H 822.331 -0.520345 -1.40046 0
M  V30 8783 H 824.213 1.24232 -4.02672 0
M  V30 8784 H 822.888 1.51271 -2.8618 0
M  V30 8785 H 821.795 -0.654088 -3.68337 0
M  V30 8786 H 823.128 -0.841186 -4.84959 0
M  V30 8787 N 824.78 1.49157 -0.508906 0
M  V30 8788 C 825.712 2.272 0.302115 0
M  V30 8789 C 826.725 1.3407 0.923529 0
M  V30 8790 O 827.914 1.5929 0.805532 0
M  V30 8791 C 825.014 3.06736 1.44105 0
M  V30 8792 C 824.187 4.27497 0.925477 0
M  V30 8793 C 823.246 4.89014 1.94297 0
M  V30 8794 O 822.272 5.48851 1.50834 0
M  V30 8795 N 823.474 4.7937 3.2739 0
M  V30 8796 H 826.239 2.97443 -0.367115 0
M  V30 8797 H 823.8 1.58248 -0.341933 0
M  V30 8798 H 825.792 3.44763 2.11944 0
M  V30 8799 H 824.362 2.3905 2.0143 0
M  V30 8800 H 823.582 3.94135 0.0717301 0
M  V30 8801 H 824.87 5.05714 0.55955 0
M  V30 8802 H 824.268 4.31869 3.65384 0
M  V30 8803 H 822.825 5.21559 3.90922 0
M  V30 8804 N 826.258 0.243083 1.55714 0
M  V30 8805 C 827.486 -0.386971 2.03249 0
M  V30 8806 C 827.901 -1.51812 1.12243 0
M  V30 8807 O 827.258 -1.81992 0.136119 0
M  V30 8808 C 827.309 -0.898361 3.5016 0
M  V30 8809 O 827.03 0.187708 4.37698 0
M  V30 8810 C 828.531 -1.59949 4.13438 0
M  V30 8811 H 825.751 -0.0923981 0.664608 0
M  V30 8812 H 828.295 0.365832 2.01201 0
M  V30 8813 H 826.45 -1.60136 3.52754 0
M  V30 8814 H 826.864 -0.200001 5.24119 0
M  V30 8815 H 828.338 -1.90907 5.17937 0
M  V30 8816 H 828.815 -2.52014 3.59702 0
M  V30 8817 H 829.421 -0.941163 4.14756 0
M  V30 8818 N 827.736 -1.57571 -0.0300757 0
M  V30 8819 C 828.982 -1.89506 -0.722159 0
M  V30 8820 C 829.315 -0.840699 -1.7506 0
M  V30 8821 O 828.59 0.144358 -1.93964 0
M  V30 8822 C 828.873 -3.32081 -1.39262 0
M  V30 8823 C 828.726 -4.48211 -0.377768 0
M  V30 8824 C 830.045 -3.73557 -2.32687 0
M  V30 8825 H 827.164 -0.689213 -0.261064 0
M  V30 8826 H 829.806 -1.89994 0.0150388 0
M  V30 8827 H 827.956 -3.31796 -2.02098 0
M  V30 8828 H 829.628 -4.6063 0.248591 0
M  V30 8829 H 827.871 -4.3274 0.303045 0
M  V30 8830 H 828.542 -5.44854 -0.885347 0
M  V30 8831 H 831.018 -3.75202 -1.79896 0
M  V30 8832 H 829.894 -4.74125 -2.7658 0
M  V30 8833 H 830.155 -3.05759 -3.19317 0
M  V30 8834 N 829.214 0.302327 -1.54673 0
M  V30 8835 C 830.439 1.06103 -1.78205 0
M  V30 8836 C 830.864 1.80204 -0.53926 0
M  V30 8837 O 830.222 1.73975 0.510142 0
M  V30 8838 C 830.27 2.01829 -2.98827 0
M  V30 8839 O 829.374 3.10108 -2.71858 0
M  V30 8840 H 828.715 0.30487 -0.589873 0
M  V30 8841 H 831.245 0.340153 -2.01753 0
M  V30 8842 H 831.255 2.44319 -3.2676 0
M  V30 8843 H 829.93 1.473 -3.88942 0
M  V30 8844 H 828.507 2.72142 -2.54937 0
M  V30 8845 N 830.692 1.47107 0.565454 0
M  V30 8846 C 831.655 1.58535 1.65527 0
M  V30 8847 C 832.655 0.461081 1.54048 0
M  V30 8848 O 833.845 0.725911 1.58355 0
M  V30 8849 C 830.977 1.52204 3.05036 0
M  V30 8850 H 832.17 2.55676 1.56747 0
M  V30 8851 H 829.723 1.35174 0.78471 0
M  V30 8852 H 830.458 0.564071 3.19357 0
M  V30 8853 H 830.243 2.3379 3.14777 0
M  V30 8854 H 831.733 1.63322 3.84338 0
M  V30 8855 N 832.17 -0.811516 1.35101 0
M  V30 8856 C 833.395 -1.60499 1.31358 0
M  V30 8857 C 833.82 -1.87793 -0.107383 0
M  V30 8858 O 833.178 -1.46161 -1.07268 0
M  V30 8859 C 833.226 -2.91612 2.12119 0
M  V30 8860 O 832.33 -3.84211 1.49853 0
M  V30 8861 H 831.671 -0.487702 0.450603 0
M  V30 8862 H 834.201 -1.00758 1.7807 0
M  V30 8863 H 834.211 -3.4108 2.23894 0
M  V30 8864 H 832.886 -2.71071 3.15426 0
M  V30 8865 H 831.463 -3.42751 1.46889 0
M  V30 8866 N 833.648 -1.19017 -1.03309 0
M  V30 8867 C 834.925 -0.899659 -1.73682 0
M  V30 8868 C 835.305 0.595677 -2.02521 0
M  V30 8869 O 834.653 1.55263 -1.67648 0
M  V30 8870 C 834.863 -1.75508 -3.01659 0
M  V30 8871 C 836.211 -1.98679 -3.75249 0
M  V30 8872 O 837.235 -1.72624 -3.11576 0
M  V30 8873 O 836.094 -2.42587 -4.89708 0
M  V30 8874 H 833.188 -0.334903 -0.756154 0
M  V30 8875 H 835.734 -1.29809 -1.09305 0
M  V30 8876 H 834.506 -2.7684 -2.76542 0
M  V30 8877 H 834.129 -1.35565 -3.73775 0
M  V30 8878 N 835.127 1.22348 -0.993418 0
M  V30 8879 C 836.09 2.22522 -0.549251 0
M  V30 8880 C 837.09 1.56529 0.368164 0
M  V30 8881 O 838.28 1.73463 0.16005 0
M  V30 8882 C 835.412 3.40307 0.201037 0
M  V30 8883 H 836.605 2.63332 -1.43515 0
M  V30 8884 H 834.158 1.35407 -0.78068 0
M  V30 8885 H 834.893 3.0497 1.10289 0
M  V30 8886 H 834.678 3.8942 -0.457685 0
M  V30 8887 H 836.168 4.14597 0.499946 0
M  V30 8888 N 836.605 0.766683 1.37694 0
M  V30 8889 C 837.882 0.25366 1.93948 0
M  V30 8890 C 838.262 -1.25041 1.70082 0
M  V30 8891 O 837.61 -2.03115 1.04674 0
M  V30 8892 C 837.82 0.621549 3.43421 0
M  V30 8893 C 839.168 0.588504 4.20502 0
M  V30 8894 O 840.192 0.560632 3.5176 0
M  V30 8895 O 839.051 0.61107 5.43073 0
M  V30 8896 H 836.145 0.0570586 0.825029 0
M  V30 8897 H 838.691 0.847693 1.47011 0
M  V30 8898 H 837.463 1.65979 3.54354 0
M  V30 8899 H 837.086 0.000197027 3.976 0
M  V30 8900 N 838.083 -1.48885 0.516809 0
M  V30 8901 C 839.015 -2.27357 -0.290061 0
M  V30 8902 C 840.028 -1.34558 -0.916406 0
M  V30 8903 O 841.217 -1.59715 -0.797073 0
M  V30 8904 C 838.317 -3.07496 -1.42476 0
M  V30 8905 C 837.49 -4.27982 -0.902793 0
M  V30 8906 C 836.549 -4.90038 -1.91701 0
M  V30 8907 O 835.575 -5.49643 -1.47922 0
M  V30 8908 N 836.777 -4.811 -3.24843 0
M  V30 8909 H 839.542 -2.97244 0.382884 0
M  V30 8910 H 837.103 -1.58064 0.35032 0
M  V30 8911 H 839.095 -3.45882 -2.10113 0
M  V30 8912 H 837.665 -2.40115 -2.00159 0
M  V30 8913 H 836.885 -3.94167 -0.0508272 0
M  V30 8914 H 838.173 -5.06003 -0.532723 0
M  V30 8915 H 837.571 -4.33801 -3.63088 0
M  V30 8916 H 836.128 -5.23625 -3.8815 0
M  V30 8917 N 839.561 -0.251338 -1.55583 0
M  V30 8918 C 840.493 0.679167 -2.18906 0
M  V30 8919 C 841.506 1.13545 -1.16667 0
M  V30 8920 O 842.695 1.06146 -1.4351 0
M  V30 8921 C 839.795 1.93544 -2.78198 0
M  V30 8922 C 838.968 1.62987 -4.05899 0
M  V30 8923 C 838.027 2.73618 -4.49466 0
M  V30 8924 O 837.053 2.40815 -5.15749 0
M  V30 8925 N 838.255 4.03204 -4.1762 0
M  V30 8926 H 841.02 0.137328 -2.99385 0
M  V30 8927 H 838.581 -0.0714754 -1.61742 0
M  V30 8928 H 840.573 2.66804 -3.04299 0
M  V30 8929 H 839.143 2.38695 -2.0185 0
M  V30 8930 H 838.363 0.732237 -3.8734 0
M  V30 8931 H 839.651 1.40041 -4.89148 0
M  V30 8932 H 839.049 4.32686 -3.64416 0
M  V30 8933 H 837.606 4.72916 -4.48547 0
M  V30 8934 N 841.039 1.57585 0.0217189 0
M  V30 8935 C 842.002 2.06004 1.00474 0
M  V30 8936 C 843.002 0.965461 1.2859 0
M  V30 8937 O 844.192 1.22884 1.23471 0
M  V30 8938 C 841.324 2.48319 2.33561 0
M  V30 8939 H 842.517 2.94112 0.586346 0
M  V30 8940 H 840.07 1.53973 0.268716 0
M  V30 8941 H 840.805 1.63389 2.80133 0
M  V30 8942 H 840.59 3.28239 2.1448 0
M  V30 8943 H 842.08 2.86181 3.04122 0
M  V30 8944 N 842.517 -0.29412 1.54831 0
M  V30 8945 C 843.447 -1.36757 1.89261 0
M  V30 8946 C 844.428 -1.52564 0.752214 0
M  V30 8947 O 845.613 -1.65958 1.00855 0
M  V30 8948 C 842.743 -2.73066 2.14597 0
M  V30 8949 C 841.697 -2.72017 3.3044 0
M  V30 8950 C 841.023 -4.11679 3.4121 0
M  V30 8951 C 842.323 -2.33149 4.67375 0
M  V30 8952 H 844.017 -1.08191 2.79169 0
M  V30 8953 H 841.563 -0.519014 1.34321 0
M  V30 8954 H 843.516 -3.48255 2.37269 0
M  V30 8955 H 842.24 -3.03172 1.21467 0
M  V30 8956 H 840.899 -1.99285 3.07703 0
M  V30 8957 H 840.547 -4.38973 2.45584 0
M  V30 8958 H 840.247 -4.11877 4.19084 0
M  V30 8959 H 841.771 -4.88637 3.6615 0
M  V30 8960 H 843.185 -2.98054 4.89731 0
M  V30 8961 H 841.582 -2.44546 5.48012 0
M  V30 8962 H 842.652 -1.28275 4.67626 0
M  V30 8963 N 843.995 -1.47404 -0.557645 0
M  V30 8964 C 845.411 -1.32913 -0.88353 0
M  V30 8965 C 845.611 -0.31929 -1.98954 0
M  V30 8966 O 844.667 0.26934 -2.51059 0
M  V30 8967 C 845.98 -2.72229 -1.27718 0
M  V30 8968 C 847.528 -2.8051 -1.38863 0
M  V30 8969 C 848.003 -4.20466 -1.81583 0
M  V30 8970 N 849.494 -4.23005 -1.88735 0
M  V30 8971 C 850.229 -5.2821 -2.23118 0
M  V30 8972 N 849.725 -6.4372 -2.56117 0
M  V30 8973 N 851.518 -5.15588 -2.23888 0
M  V30 8974 H 843.669 -2.11698 0.172557 0
M  V30 8975 H 845.932 -0.947889 0.0145334 0
M  V30 8976 H 845.638 -3.47556 -0.538329 0
M  V30 8977 H 845.512 -3.03971 -2.23342 0
M  V30 8978 H 847.899 -2.05457 -2.11829 0
M  V30 8979 H 847.98 -2.52423 -0.414274 0
M  V30 8980 H 847.624 -4.96025 -1.09187 0
M  V30 8981 H 847.554 -4.45977 -2.80021 0
M  V30 8982 H 850.045 -3.39674 -1.65621 0
M  V30 8983 H 850.358 -7.19754 -2.81378 0
M  V30 8984 H 848.703 -6.47041 -2.53698 0
M  V30 8985 H 851.894 -4.24374 -1.97546 0
M  V30 8986 H 852.067 -5.97685 -2.50353 0
M  V30 8987 N 845.473 0.80434 -1.35529 0
M  V30 8988 C 846.421 1.93769 -1.28671 0
M  V30 8989 C 847.415 1.68428 -0.181222 0
M  V30 8990 O 848.621 1.76617 -0.347338 0
M  V30 8991 H 844.996 0.636663 -0.400206 0
M  V30 8992 H 846.967 1.96673 -2.24415 0
M  V30 8993 C 845.716 3.30572 -1.07784 0
M  V30 8994 H 845.039 3.5063 -1.9209 0
M  V30 8995 H 846.479 4.1027 -1.07027 0
M  V30 8996 C 844.938 3.36193 0.218213 0
M  V30 8997 O 845.468 3.82941 1.21323 0
M  V30 8998 N 843.674 2.89455 0.257761 0
M  V30 8999 H 843.221 2.51604 -0.552562 0
M  V30 9000 H 843.179 2.93597 1.12465 0
M  V30 9001 N 846.951 1.19563 1.02676 0
M  V30 9002 C 847.883 0.893054 2.11086 0
M  V30 9003 C 848.896 -0.115101 1.62393 0
M  V30 9004 O 850.085 0.11459 1.78132 0
M  V30 9005 C 847.185 0.315533 3.37428 0
M  V30 9006 C 846.358 1.37276 4.153 0
M  V30 9007 C 845.417 0.808398 5.19953 0
M  V30 9008 O 844.443 1.48661 5.49444 0
M  V30 9009 N 845.645 -0.387253 5.79207 0
M  V30 9010 H 848.41 1.82622 2.37633 0
M  V30 9011 H 845.971 1.09792 1.18984 0
M  V30 9012 H 847.963 -0.0759166 4.04629 0
M  V30 9013 H 846.533 -0.521961 3.08211 0
M  V30 9014 H 845.753 1.93897 3.43217 0
M  V30 9015 H 847.041 2.08509 4.64114 0
M  V30 9016 H 846.439 -0.955725 5.57568 0
M  V30 9017 H 844.996 -0.720457 6.47806 0
M  V30 9018 N 848.429 -1.21819 0.999893 0
M  V30 9019 C 849.392 -2.22227 0.561044 0
M  V30 9020 C 850.392 -1.56722 -0.359858 0
M  V30 9021 O 851.582 -1.73546 -0.150848 0
M  V30 9022 C 848.714 -3.40409 -0.182987 0
M  V30 9023 H 849.907 -2.62567 1.44909 0
M  V30 9024 H 847.46 -1.34991 0.78785 0
M  V30 9025 H 848.195 -3.05551 -1.08671 0
M  V30 9026 H 847.98 -3.89171 0.47833 0
M  V30 9027 H 849.47 -4.14856 -0.477952 0
M  V30 9028 N 849.908 -0.773975 -1.37286 0
M  V30 9029 C 850.838 -0.175782 -2.32837 0
M  V30 9030 C 851.819 0.680603 -1.5589 0
M  V30 9031 O 853.004 0.617607 -1.84117 0
M  V30 9032 C 850.134 0.702388 -3.40123 0
M  V30 9033 C 849.088 -0.0528687 -4.27967 0
M  V30 9034 C 848.414 0.944891 -5.26285 0
M  V30 9035 C 849.714 -1.23316 -5.07534 0
M  V30 9036 H 851.408 -0.974016 -2.83114 0
M  V30 9037 H 848.954 -0.469826 -1.3612 0
M  V30 9038 H 850.907 1.13069 -4.05947 0
M  V30 9039 H 849.631 1.53316 -2.88378 0
M  V30 9040 H 848.29 -0.461978 -3.63678 0
M  V30 9041 H 847.938 1.77028 -4.70819 0
M  V30 9042 H 847.638 0.444079 -5.8592 0
M  V30 9043 H 849.162 1.37209 -5.94984 0
M  V30 9044 H 850.576 -0.881395 -5.66484 0
M  V30 9045 H 848.973 -1.66621 -5.76504 0
M  V30 9046 H 850.043 -2.03617 -4.40077 0
M  V30 9047 N 851.386 1.48609 -0.524698 0
M  V30 9048 C 852.334 2.31205 0.254398 0
M  V30 9049 C 853.328 1.40894 0.940491 0
M  V30 9050 O 854.534 1.57827 0.865478 0
M  V30 9051 H 850.909 0.745199 0.100907 0
M  V30 9052 H 852.88 2.94804 -0.461876 0
M  V30 9053 C 851.629 3.2282 1.2916 0
M  V30 9054 H 850.952 3.92255 0.773074 0
M  V30 9055 H 852.392 3.83508 1.80825 0
M  V30 9056 C 850.851 2.4406 2.32242 0
M  V30 9057 O 851.381 2.16163 3.3858 0
M  V30 9058 N 849.587 2.05651 2.05319 0
M  V30 9059 H 849.134 2.28539 1.18861 0
M  V30 9060 H 849.092 1.53265 2.74513 0
M  V30 9061 N 852.864 0.259585 1.55447 0
M  V30 9062 C 853.794 -0.62852 2.24882 0
M  V30 9063 C 854.775 -1.17128 1.23349 0
M  V30 9064 O 855.96 -1.20829 1.52033 0
M  V30 9065 C 853.09 -1.81983 2.95803 0
M  V30 9066 C 852.044 -1.40929 4.04132 0
M  V30 9067 C 851.37 -2.68246 4.62545 0
M  V30 9068 C 852.67 -0.570956 5.1917 0
M  V30 9069 H 854.364 -0.0495021 2.99359 0
M  V30 9070 H 851.91 -0.0223688 1.43983 0
M  V30 9071 H 853.863 -2.44689 3.43082 0
M  V30 9072 H 852.587 -2.42444 2.18835 0
M  V30 9073 H 851.246 -0.805519 3.57641 0
M  V30 9074 H 850.894 -3.26931 3.82263 0
M  V30 9075 H 850.594 -2.41495 5.35681 0
M  V30 9076 H 852.118 -3.31827 5.12565 0
M  V30 9077 H 853.532 -1.10262 5.62597 0
M  V30 9078 H 851.929 -0.398979 5.98772 0
M  V30 9079 H 852.999 0.413918 4.8313 0
M  V30 9080 N 854.342 -1.57594 -0.0133615 0
M  V30 9081 C 855.567 -1.94649 -0.715996 0
M  V30 9082 C 855.992 -0.860786 -1.67249 0
M  V30 9083 O 855.35 0.182228 -1.80382 0
M  V30 9084 C 855.398 -3.30789 -1.43566 0
M  V30 9085 O 854.502 -3.24148 -2.54955 0
M  V30 9086 H 853.843 -0.635801 -0.191449 0
M  V30 9087 H 856.373 -2.04569 0.0358478 0
M  V30 9088 H 856.383 -3.66045 -1.80208 0
M  V30 9089 H 855.058 -4.09367 -0.734263 0
M  V30 9090 H 853.635 -3.00548 -2.20739 0
M  V30 9091 N 855.82 0.285905 -1.54985 0
M  V30 9092 C 856.75 1.35752 -1.89983 0
M  V30 9093 C 857.731 1.52163 -0.760295 0
M  V30 9094 O 858.916 1.65421 -1.01733 0
M  V30 9095 C 856.046 2.71925 -2.16042 0
M  V30 9096 C 855 2.70261 -3.31878 0
M  V30 9097 C 854.326 4.09864 -3.43388 0
M  V30 9098 C 855.626 2.30667 -4.68604 0
M  V30 9099 H 857.32 1.06709 -2.79738 0
M  V30 9100 H 854.866 0.511884 -1.34595 0
M  V30 9101 H 856.819 3.46992 -2.39113 0
M  V30 9102 H 855.543 3.02523 -1.23074 0
M  V30 9103 H 854.202 1.97651 -3.08755 0
M  V30 9104 H 853.85 4.37664 -2.47909 0
M  V30 9105 H 853.55 4.09648 -4.21262 0
M  V30 9106 H 855.074 4.86689 -3.68736 0
M  V30 9107 H 856.488 2.95453 -4.91305 0
M  V30 9108 H 854.885 2.41637 -5.49301 0
M  V30 9109 H 855.955 1.25793 -4.68299 0
M  V30 9110 N 857.298 1.47698 0.54982 0
M  V30 9111 C 858.261 1.60282 1.63837 0
M  V30 9112 C 859.261 0.477394 1.5355 0
M  V30 9113 O 860.451 0.742665 1.57576 0
M  V30 9114 C 857.583 1.55431 3.03404 0
M  V30 9115 H 858.776 2.57325 1.54026 0
M  V30 9116 H 856.329 1.35999 0.770329 0
M  V30 9117 H 857.064 0.597912 3.1874 0
M  V30 9118 H 856.849 2.37116 3.12279 0
M  V30 9119 H 858.339 1.6739 3.82584 0
M  V30 9120 N 858.776 -0.797141 1.35954 0
M  V30 9121 C 860.006 -1.5835 1.32698 0
M  V30 9122 C 860.414 -1.88959 -0.0955298 0
M  V30 9123 O 859.757 -1.49987 -1.06064 0
M  V30 9124 C 859.819 -2.93529 2.0756 0
M  V30 9125 C 859.483 -2.85688 3.56695 0
M  V30 9126 C 860.48 -2.58467 4.51099 0
M  V30 9127 C 858.165 -3.04508 3.99475 0
M  V30 9128 C 860.159 -2.50157 5.8626 0
M  V30 9129 C 857.846 -2.9582 5.34728 0
M  V30 9130 C 858.844 -2.68681 6.27933 0
M  V30 9131 O 858.532 -2.59973 7.60703 0
M  V30 9132 H 858.264 -0.49807 0.457059 0
M  V30 9133 H 860.818 -0.997889 1.79531 0
M  V30 9134 H 859.048 -3.54111 1.55378 0
M  V30 9135 H 860.737 -3.54744 1.9726 0
M  V30 9136 H 861.503 -2.43638 4.19363 0
M  V30 9137 H 857.382 -3.24641 3.27306 0
M  V30 9138 H 860.926 -2.28894 6.58979 0
M  V30 9139 H 856.823 -3.10211 5.66074 0
M  V30 9140 H 857.591 -2.75511 7.70737 0
M  V30 9141 N 860.254 -1.20106 -1.0204 0
M  V30 9142 C 861.479 -1.0351 -1.79723 0
M  V30 9143 C 861.904 0.411328 -1.83548 0
M  V30 9144 O 861.262 1.29608 -1.26773 0
M  V30 9145 C 861.31 -1.61876 -3.22224 0
M  V30 9146 O 860.414 -0.853813 -4.03465 0
M  V30 9147 H 859.755 -0.365299 -0.554484 0
M  V30 9148 H 862.285 -1.59316 -1.28373 0
M  V30 9149 H 862.295 -1.65451 -3.72948 0
M  V30 9150 H 860.97 -2.67148 -3.18755 0
M  V30 9151 H 859.547 -0.891983 -3.62075 0
M  V30 9152 N 861.732 1.21287 -1.00634 0
M  V30 9153 C 862.979 1.90389 -0.6898 0
M  V30 9154 C 863.307 1.78193 0.779574 0
M  V30 9155 O 862.562 1.15358 1.58085 0
M  V30 9156 C 862.861 3.41374 -1.05824 0
M  V30 9157 C 862.527 3.73766 -2.5221 0
M  V30 9158 C 861.189 3.82317 -2.92211 0
M  V30 9159 C 863.541 3.88871 -3.47028 0
M  V30 9160 C 860.869 4.03423 -4.2599 0
M  V30 9161 C 863.221 4.11484 -4.80483 0
M  V30 9162 C 861.885 4.18263 -5.20204 0
M  V30 9163 H 861.155 0.696683 -0.252416 0
M  V30 9164 H 863.802 1.43769 -1.26502 0
M  V30 9165 H 862.107 3.8974 -0.401281 0
M  V30 9166 H 863.804 3.93118 -0.79116 0
M  V30 9167 H 860.394 3.67702 -2.20212 0
M  V30 9168 H 864.578 3.8163 -3.17289 0
M  V30 9169 H 859.834 4.06902 -4.56334 0
M  V30 9170 H 864.008 4.22115 -5.53888 0
M  V30 9171 H 861.635 4.34369 -6.23881 0
M  V30 9172 N 863.21 0.781244 1.36873 0
M  V30 9173 C 864.456 0.350407 1.9975 0
M  V30 9174 C 864.789 -1.07293 1.6187 0
M  V30 9175 O 864.064 -1.73983 0.869491 0
M  V30 9176 C 864.347 0.504834 3.56544 0
M  V30 9177 C 864.2 1.97127 4.04303 0
M  V30 9178 C 865.519 -0.0851272 4.40018 0
M  V30 9179 H 862.638 0.128794 0.725659 0
M  V30 9180 H 865.28 0.98606 1.6241 0
M  V30 9181 H 863.43 -0.0363006 3.88483 0
M  V30 9182 H 865.102 2.57284 3.82887 0
M  V30 9183 H 863.345 2.47676 3.56145 0
M  V30 9184 H 864.016 2.03033 5.13305 0
M  V30 9185 H 866.492 0.376704 4.14391 0
M  V30 9186 H 865.368 0.0530015 5.48874 0
M  V30 9187 H 865.629 -1.17642 4.2616 0
M  V30 9188 N 864.689 -1.48329 0.532571 0
M  V30 9189 C 865.917 -2.069 0.00354299 0
M  V30 9190 C 866.332 -1.38876 -1.27902 0
M  V30 9191 O 865.689 -0.477119 -1.76153 0
M  V30 9192 C 865.74 -3.60821 -0.221416 0
M  V30 9193 O 865.461 -4.26291 1.01034 0
M  V30 9194 C 866.962 -4.36194 -0.790531 0
M  V30 9195 H 864.182 -0.670103 0.0346836 0
M  V30 9196 H 866.726 -1.90682 0.738955 0
M  V30 9197 H 864.881 -3.76636 -0.906884 0
M  V30 9198 H 865.295 -5.18475 0.792683 0
M  V30 9199 H 866.769 -5.44657 -0.897347 0
M  V30 9200 H 867.246 -4.00798 -1.79605 0
M  V30 9201 H 867.852 -4.25064 -0.141546 0
M  V30 9202 N 866.167 -0.267825 -1.55308 0
M  V30 9203 C 867.578 0.231344 -1.85261 0
M  V30 9204 C 867.929 1.56006 -1.18982 0
M  V30 9205 O 867.054 2.1111 -0.475554 0
M  V30 9206 C 867.649 0.426537 -3.36104 0
M  V30 9207 C 866.208 0.869945 -3.66209 0
M  V30 9208 C 865.355 -0.0409522 -2.7727 0
M  V30 9209 H 868.306 -0.489821 -1.50952 0
M  V30 9210 H 868.327 1.26616 -3.58816 0
M  V30 9211 H 867.839 -0.540678 -3.84315 0
M  V30 9212 H 865.94 1.84889 -3.23492 0
M  V30 9213 H 866.053 0.712316 -4.73775 0
M  V30 9214 H 864.417 0.474097 -2.50249 0
M  V30 9215 H 865.2 -1.00392 -3.28293 0
M  V30 9216 N 867.645 1.57599 0.00500368 0
M  V30 9217 C 868.575 2.11143 0.99705 0
M  V30 9218 C 869.556 1.0194 1.3617 0
M  V30 9219 O 870.741 1.29596 1.44632 0
M  V30 9220 C 867.871 2.61062 2.2905 0
M  V30 9221 C 866.825 3.74745 2.0676 0
M  V30 9222 C 866.151 4.10961 3.42075 0
M  V30 9223 C 867.451 5.02222 1.43424 0
M  V30 9224 H 869.145 2.94281 0.551251 0
M  V30 9225 H 866.691 1.41565 0.263715 0
M  V30 9226 H 868.644 2.97146 2.98801 0
M  V30 9227 H 867.368 1.75038 2.75734 0
M  V30 9228 H 866.027 3.39047 1.39436 0
M  V30 9229 H 865.675 3.21968 3.86453 0
M  V30 9230 H 865.375 4.87549 3.27979 0
M  V30 9231 H 866.899 4.49599 4.1315 0
M  V30 9232 H 868.313 5.36109 2.03125 0
M  V30 9233 H 866.71 5.83581 1.39831 0
M  V30 9234 H 867.78 4.83224 0.40285 0
M  V30 9235 N 869.123 -0.277682 1.55134 0
M  V30 9236 C 870.351 -1.02826 1.7954 0
M  V30 9237 C 870.766 -1.80105 0.566373 0
M  V30 9238 O 870.123 -1.76491 -0.464448 0
M  V30 9239 C 870.174 -1.99053 3.01762 0
M  V30 9240 O 869.895 -1.24906 4.19917 0
M  V30 9241 C 871.396 -2.85961 3.38735 0
M  V30 9242 H 868.616 -0.303958 0.598206 0
M  V30 9243 H 871.16 -0.309884 2.02138 0
M  V30 9244 H 869.315 -2.66359 2.81303 0
M  V30 9245 H 869.729 -1.89725 4.88983 0
M  V30 9246 H 871.203 -3.49286 4.27438 0
M  V30 9247 H 871.68 -3.55486 2.57928 0
M  V30 9248 H 872.286 -2.24152 3.61436 0
M  V30 9249 N 870.601 -1.47988 -0.541979 0
M  V30 9250 C 871.826 -1.59286 -1.32826 0
M  V30 9251 C 872.251 -0.24894 -1.86445 0
M  V30 9252 O 871.609 0.777581 -1.63778 0
M  V30 9253 C 871.657 -2.6334 -2.46343 0
M  V30 9254 O 870.761 -2.19667 -3.49028 0
M  V30 9255 H 870.102 -0.534543 -0.393903 0
M  V30 9256 H 872.632 -1.93885 -0.653427 0
M  V30 9257 H 872.642 -2.84238 -2.92699 0
M  V30 9258 H 871.317 -3.60913 -2.06675 0
M  V30 9259 H 869.894 -2.08932 -3.08872 0
M  V30 9260 N 872.079 0.78992 -1.36375 0
M  V30 9261 C 873.012 1.90907 -1.25019 0
M  V30 9262 C 873.99 1.62043 -0.134463 0
M  V30 9263 O 875.174 1.86008 -0.305506 0
M  V30 9264 C 872.301 3.25716 -0.928822 0
M  V30 9265 C 871.347 3.73511 -2.05892 0
M  V30 9266 S 872.18 3.89332 -3.6767 0
M  V30 9267 C 873.336 5.27017 -3.37645 0
M  V30 9268 H 873.569 2.00247 -2.19746 0
M  V30 9269 H 871.102 0.949097 -1.21785 0
M  V30 9270 H 873.06 4.03586 -0.750219 0
M  V30 9271 H 871.721 3.141 0.000658424 0
M  V30 9272 H 870.914 4.71195 -1.78862 0
M  V30 9273 H 870.516 3.02688 -2.19672 0
M  V30 9274 H 872.808 6.1158 -2.91507 0
M  V30 9275 H 873.751 5.5905 -4.3459 0
M  V30 9276 H 874.159 4.94093 -2.73006 0
M  V30 9277 N 873.557 1.20646 1.01402 0
M  V30 9278 C 874.803 1.0197 1.753 0
M  V30 9279 C 875.136 -0.446803 1.8899 0
M  V30 9280 O 874.411 -1.33169 1.41762 0
M  V30 9281 C 874.694 1.70693 3.17074 0
M  V30 9282 C 874.547 3.24805 3.11162 0
M  V30 9283 C 875.866 1.44212 4.15802 0
M  V30 9284 H 872.985 0.371844 0.636318 0
M  V30 9285 H 875.627 1.48696 1.18277 0
M  V30 9286 H 873.777 1.30968 3.65759 0
M  V30 9287 H 875.449 3.73841 2.70261 0
M  V30 9288 H 873.692 3.55576 2.48492 0
M  V30 9289 H 874.363 3.68049 4.11393 0
M  V30 9290 H 876.839 1.7868 3.75783 0
M  V30 9291 H 875.715 1.94825 5.13161 0
M  V30 9292 H 875.976 0.370252 4.40547 0
M  V30 9293 N 875.035 -1.20752 1.01276 0
M  V30 9294 C 876.281 -1.90302 0.700924 0
M  V30 9295 C 876.614 -1.78406 -0.767142 0
M  V30 9296 O 875.889 -1.16575 -1.55694 0
M  V30 9297 C 876.172 -3.41831 1.13242 0
M  V30 9298 C 876.025 -3.6268 2.66051 0
M  V30 9299 C 877.344 -4.34486 0.700738 0
M  V30 9300 H 874.463 -0.69107 0.256107 0
M  V30 9301 H 877.105 -1.42227 1.25982 0
M  V30 9302 H 875.255 -3.82906 0.656902 0
M  V30 9303 H 876.927 -3.30882 3.21426 0
M  V30 9304 H 875.17 -3.06281 3.07204 0
M  V30 9305 H 875.841 -4.68882 2.91296 0
M  V30 9306 H 878.317 -4.01036 1.10948 0
M  V30 9307 H 877.193 -5.39136 1.03073 0
M  V30 9308 H 877.454 -4.40307 -0.39778 0
M  V30 9309 N 876.513 -0.788492 -1.36457 0
M  V30 9310 C 877.741 -0.372365 -2.03522 0
M  V30 9311 C 878.156 1.01093 -1.59454 0
M  V30 9312 O 877.513 1.64824 -0.783535 0
M  V30 9313 C 877.564 -0.425435 -3.58988 0
M  V30 9314 O 877.285 -1.75418 -4.01448 0
M  V30 9315 C 878.786 0.000180167 -4.433 0
M  V30 9316 H 876.006 -0.1536 -0.653183 0
M  V30 9317 H 878.55 -1.06708 -1.74452 0
M  V30 9318 H 876.705 0.220856 -3.8677 0
M  V30 9319 H 877.119 -1.70437 -4.96036 0
M  V30 9320 H 878.593 -0.0880919 -5.5193 0
M  V30 9321 H 879.07 1.05269 -4.26398 0
M  V30 9322 H 879.676 -0.618563 -4.20778 0
M  V30 9323 N 877.991 1.48044 -0.54043 0
M  V30 9324 C 878.938 2.29781 0.216597 0
M  V30 9325 C 879.908 1.38021 0.924094 0
M  V30 9326 O 881.093 1.66985 0.923078 0
M  V30 9327 C 878.233 3.21623 1.2511 0
M  V30 9328 C 877.346 4.28467 0.551384 0
M  V30 9329 C 876.481 5.07477 1.56972 0
M  V30 9330 C 875.52 6.06113 0.854048 0
M  V30 9331 N 874.657 6.78143 1.81842 0
M  V30 9332 H 879.497 2.94001 -0.486578 0
M  V30 9333 H 877.034 1.44929 -0.251789 0
M  V30 9334 H 878.992 3.73279 1.8633 0
M  V30 9335 H 877.622 2.59305 1.92252 0
M  V30 9336 H 876.674 3.79997 -0.174982 0
M  V30 9337 H 877.986 4.98799 -0.0100542 0
M  V30 9338 H 877.14 5.63199 2.25592 0
M  V30 9339 H 875.879 4.37008 2.16507 0
M  V30 9340 H 874.884 5.49585 0.153838 0
M  V30 9341 H 876.109 6.78584 0.264675 0
M  V30 9342 H 874.055 6.10417 2.40265 0
M  V30 9343 H 873.972 7.44587 1.3087 0
M  V30 9344 H 875.24 7.38448 2.49628 0
M  V30 9345 N 879.47 0.276058 1.55163 0
M  V30 9346 C 880.881 -0.221516 1.85381 0
M  V30 9347 C 881.232 -1.55372 1.19808 0
M  V30 9348 O 880.357 -2.10855 0.486742 0
M  V30 9349 C 880.952 -0.408706 3.36326 0
M  V30 9350 C 879.511 -0.850512 3.66665 0
M  V30 9351 C 878.658 0.055656 2.77244 0
M  V30 9352 H 881.609 0.497819 1.5069 0
M  V30 9353 H 881.63 -1.24711 3.59482 0
M  V30 9354 H 881.142 0.561052 3.84023 0
M  V30 9355 H 879.243 -1.83171 3.24468 0
M  V30 9356 H 879.356 -0.687181 4.74146 0
M  V30 9357 H 877.72 -0.460819 2.50497 0
M  V30 9358 H 878.503 1.02131 3.27756 0
M  V30 9359 N 880.948 -1.576 0.00335426 0
M  V30 9360 C 882.225 -1.81945 -0.718015 0
M  V30 9361 C 882.605 -0.881788 -1.91801 0
M  V30 9362 O 881.953 0.0687118 -2.28397 0
M  V30 9363 C 882.163 -3.30521 -1.12058 0
M  V30 9364 C 883.511 -3.96345 -1.52303 0
M  V30 9365 O 884.535 -3.34864 -1.21428 0
M  V30 9366 O 883.394 -5.04655 -2.09728 0
M  V30 9367 H 880.488 -0.749328 -0.34991 0
M  V30 9368 H 883.034 -1.69675 0.0290654 0
M  V30 9369 H 881.806 -3.90399 -0.265378 0
M  V30 9370 H 881.429 -3.47802 -1.92665 0
M  V30 9371 N 882.426 0.269451 -1.5528 0
M  V30 9372 C 883.703 1.02207 -1.66773 0
M  V30 9373 C 884.083 2.04168 -0.536536 0
M  V30 9374 O 883.431 2.23761 0.462956 0
M  V30 9375 C 883.641 1.67569 -3.0614 0
M  V30 9376 C 884.989 2.18599 -3.64005 0
M  V30 9377 O 886.013 1.7755 -3.08795 0
M  V30 9378 O 884.872 2.93903 -4.60742 0
M  V30 9379 H 881.966 0.474314 -0.677462 0
M  V30 9380 H 884.512 0.265026 -1.67618 0
M  V30 9381 H 883.284 0.937029 -3.79915 0
M  V30 9382 H 882.907 2.49951 -3.09209 0
M  V30 9383 N 883.904 1.48273 0.534124 0
M  V30 9384 C 884.836 1.5857 1.65494 0
M  V30 9385 C 885.849 0.470266 1.5586 0
M  V30 9386 O 887.038 0.740928 1.62396 0
M  V30 9387 C 884.138 1.49554 3.04117 0
M  V30 9388 C 883.311 2.76066 3.39273 0
M  V30 9389 C 882.37 2.60562 4.57159 0
M  V30 9390 O 881.396 3.34438 4.60587 0
M  V30 9391 N 882.598 1.69906 5.55079 0
M  V30 9392 H 885.363 2.55226 1.57099 0
M  V30 9393 H 882.924 1.44944 0.721303 0
M  V30 9394 H 884.916 1.36882 3.80848 0
M  V30 9395 H 883.486 0.608895 3.06613 0
M  V30 9396 H 882.706 3.03332 2.51761 0
M  V30 9397 H 883.994 3.60006 3.59546 0
M  V30 9398 H 883.392 1.09079 5.55084 0
M  V30 9399 H 881.949 1.63175 6.31044 0
M  V30 9400 N 885.382 -0.782676 1.36792 0
M  V30 9401 C 886.292 -1.92679 1.33835 0
M  V30 9402 C 887.308 -1.72344 0.23952 0
M  V30 9403 O 888.484 -1.95766 0.473045 0
M  V30 9404 C 885.549 -3.27644 1.1336 0
M  V30 9405 C 884.61 -3.6071 2.32781 0
M  V30 9406 C 883.843 -4.89234 2.13273 0
M  V30 9407 O 884.066 -5.59468 1.11136 0
M  V30 9408 O 883 -5.21112 3.01208 0
M  V30 9409 H 886.826 -1.98124 2.30175 0
M  V30 9410 H 884.411 -0.923887 1.17408 0
M  V30 9411 H 886.293 -4.08394 1.03886 0
M  V30 9412 H 884.968 -3.23076 0.200868 0
M  V30 9413 H 883.875 -2.80238 2.47825 0
M  V30 9414 H 885.208 -3.70008 3.24584 0
M  V30 9415 N 886.86 -1.21182 -1.00761 0
M  V30 9416 C 887.792 -0.926523 -2.09638 0
M  V30 9417 C 888.805 0.0892511 -1.62555 0
M  V30 9418 O 889.994 -0.142915 -1.77927 0
M  V30 9419 C 887.094 -0.369175 -3.36883 0
M  V30 9420 C 886.267 -1.43866 -4.13063 0
M  V30 9421 C 885.326 -0.891015 -5.18601 0
M  V30 9422 O 884.352 -1.57384 -5.47009 0
M  V30 9423 N 885.554 0.295057 -5.7975 0
M  V30 9424 H 888.319 -1.8638 -2.34697 0
M  V30 9425 H 885.88 -1.11671 -1.17223 0
M  V30 9426 H 887.872 0.011534 -4.04698 0
M  V30 9427 H 886.442 0.472861 -3.09003 0
M  V30 9428 H 885.662 -1.99332 -3.40089 0
M  V30 9429 H 886.95 -2.15866 -4.60738 0
M  V30 9430 H 886.348 0.8669 -5.59018 0
M  V30 9431 H 884.905 0.617306 -6.4887 0
M  V30 9432 N 888.338 1.20213 -1.01915 0
M  V30 9433 C 889.563 1.94163 -0.729076 0
M  V30 9434 C 889.988 1.74416 0.704323 0
M  V30 9435 O 889.346 1.0401 1.48498 0
M  V30 9436 C 889.394 3.44258 -1.07324 0
M  V30 9437 O 888.498 4.11979 -0.186367 0
M  V30 9438 H 887.839 0.606506 -0.270272 0
M  V30 9439 H 890.369 1.52571 -1.3632 0
M  V30 9440 H 890.379 3.94888 -1.02603 0
M  V30 9441 H 889.054 3.57954 -2.11759 0
M  V30 9442 H 887.631 3.7176 -0.291334 0
M  V30 9443 N 889.816 0.795718 1.36037 0
M  V30 9444 C 890.748 0.156336 2.28666 0
M  V30 9445 C 891.761 -0.638075 1.49775 0
M  V30 9446 O 892.95 -0.472222 1.7214 0
M  V30 9447 C 890.05 -0.801417 3.29288 0
M  V30 9448 C 889.223 -0.0557118 4.37365 0
M  V30 9449 C 888.282 -0.930338 5.1791 0
M  V30 9450 O 887.308 -0.385266 5.67895 0
M  V30 9451 N 888.51 -2.25382 5.34961 0
M  V30 9452 H 891.275 0.952033 2.84177 0
M  V30 9453 H 888.836 0.650189 1.48271 0
M  V30 9454 H 890.828 -1.39051 3.80062 0
M  V30 9455 H 889.398 -1.49796 2.74372 0
M  V30 9456 H 888.618 0.714508 3.87671 0
M  V30 9457 H 889.906 0.458633 5.06729 0
M  V30 9458 H 889.304 -2.72073 4.95977 0
M  V30 9459 H 887.861 -2.79241 5.88955 0
M  V30 9460 N 891.294 -1.47756 0.548274 0
M  V30 9461 C 892.54 -2.02789 0.0209265 0
M  V30 9462 C 892.873 -1.42268 -1.32187 0
M  V30 9463 O 892.148 -0.575001 -1.85806 0
M  V30 9464 C 892.431 -3.60007 -0.0816674 0
M  V30 9465 C 892.284 -4.30977 1.28759 0
M  V30 9466 C 893.603 -4.32777 -0.799515 0
M  V30 9467 H 890.722 -0.736944 0.00907884 0
M  V30 9468 H 893.364 -1.76282 0.708839 0
M  V30 9469 H 891.514 -3.82722 -0.667537 0
M  V30 9470 H 893.186 -4.19629 1.91597 0
M  V30 9471 H 891.429 -3.9168 1.86466 0
M  V30 9472 H 892.1 -5.39488 1.16861 0
M  V30 9473 H 894.576 -4.15001 -0.30216 0
M  V30 9474 H 893.452 -5.42431 -0.840239 0
M  V30 9475 H 893.713 -4.01358 -1.85375 0
M  V30 9476 N 892.772 -0.284283 -1.55015 0
M  V30 9477 C 893.735 0.586182 -2.21577 0
M  V30 9478 C 894.735 1.07427 -1.1965 0
M  V30 9479 O 895.925 0.972977 -1.44495 0
M  V30 9480 C 893.057 1.80973 -2.88897 0
M  V30 9481 H 894.25 0.00487253 -2.999 0
M  V30 9482 H 891.803 -0.0349696 -1.56261 0
M  V30 9483 H 892.538 2.43131 -2.14611 0
M  V30 9484 H 892.323 1.46757 -3.636 0
M  V30 9485 H 893.813 2.42853 -3.39724 0
M  V30 9486 N 894.251 1.57596 -0.0117121 0
M  V30 9487 C 895.161 2.12596 0.991964 0
M  V30 9488 C 896.177 1.07399 1.36899 0
M  V30 9489 O 897.353 1.39365 1.45394 0
M  V30 9490 C 894.418 2.62796 2.2614 0
M  V30 9491 C 893.479 3.8264 1.94642 0
M  V30 9492 C 892.712 4.30435 3.15533 0
M  V30 9493 O 892.935 3.77495 4.27614 0
M  V30 9494 O 891.869 5.22469 2.98847 0
M  V30 9495 H 895.695 2.98597 0.554371 0
M  V30 9496 H 893.28 1.47947 0.207839 0
M  V30 9497 H 895.162 2.9523 3.00695 0
M  V30 9498 H 893.837 1.79886 2.69114 0
M  V30 9499 H 892.744 3.5516 1.17526 0
M  V30 9500 H 894.077 4.66658 1.56496 0
M  V30 9501 N 895.729 -0.261212 1.5542 0
M  V30 9502 C 896.676 -1.32315 1.89107 0
M  V30 9503 C 897.646 -1.48517 0.743767 0
M  V30 9504 O 898.831 -1.62733 0.996123 0
M  V30 9505 C 895.971 -2.67626 2.17877 0
M  V30 9506 C 895.084 -2.59549 3.45338 0
M  V30 9507 C 894.219 -3.87118 3.63748 0
M  V30 9508 C 893.258 -3.736 4.8486 0
M  V30 9509 N 892.395 -4.93029 4.99867 0
M  V30 9510 H 897.235 -1.02886 2.79675 0
M  V30 9511 H 894.772 -0.496812 1.38456 0
M  V30 9512 H 896.73 -3.4637 2.32559 0
M  V30 9513 H 895.36 -2.95232 1.30529 0
M  V30 9514 H 894.412 -1.72452 3.39064 0
M  V30 9515 H 895.724 -2.45465 4.34222 0
M  V30 9516 H 894.878 -4.74305 3.78312 0
M  V30 9517 H 893.617 -4.04084 2.73071 0
M  V30 9518 H 892.622 -2.84797 4.70288 0
M  V30 9519 H 893.847 -3.58143 5.76984 0
M  V30 9520 H 891.793 -5.10383 4.12123 0
M  V30 9521 H 891.71 -4.81521 5.82815 0
M  V30 9522 H 892.978 -5.81754 5.18828 0
M  V30 9523 N 897.207 -1.48554 -0.526253 0
M  V30 9524 C 898.618 -1.50256 -1.10815 0
M  V30 9525 C 898.969 -0.274445 -1.94271 0
M  V30 9526 O 898.094 0.618094 -2.07385 0
M  V30 9527 C 898.689 -2.72264 -2.01638 0
M  V30 9528 C 897.248 -2.76826 -2.55038 0
M  V30 9529 C 896.395 -2.43823 -1.32081 0
M  V30 9530 H 899.346 -1.55616 -0.31133 0
M  V30 9531 H 899.367 -2.50993 -2.85977 0
M  V30 9532 H 898.879 -3.61632 -1.4087 0
M  V30 9533 H 896.98 -1.91676 -3.19517 0
M  V30 9534 H 897.093 -3.78351 -2.93917 0
M  V30 9535 H 895.457 -1.95058 -1.63781 0
M  V30 9536 H 896.24 -3.35436 -0.730596 0
M  V30 9537 N 898.685 0.775411 -1.37205 0
M  V30 9538 C 899.618 1.8957 -1.27037 0
M  V30 9539 C 900.596 1.61891 -0.151643 0
M  V30 9540 O 901.78 1.85673 -0.325218 0
M  V30 9541 C 898.907 3.24712 -0.963316 0
M  V30 9542 C 897.953 3.71306 -2.09842 0
M  V30 9543 S 898.786 3.8541 -3.71778 0
M  V30 9544 C 899.942 5.23406 -3.43216 0
M  V30 9545 H 900.175 1.97905 -2.21857 0
M  V30 9546 H 897.708 0.936127 -1.22784 0
M  V30 9547 H 899.666 4.02768 -0.792983 0
M  V30 9548 H 898.327 3.14083 -0.0326561 0
M  V30 9549 H 897.52 4.69271 -1.83849 0
M  V30 9550 H 897.122 3.00341 -2.2287 0
M  V30 9551 H 899.414 6.08454 -2.97977 0
M  V30 9552 H 900.357 5.54409 -4.40495 0
M  V30 9553 H 900.765 4.9117 -2.78231 0
M  V30 9554 N 900.163 1.21714 1.00117 0
M  V30 9555 C 901.073 0.99597 2.12409 0
M  V30 9556 C 902.089 -0.0531431 1.73919 0
M  V30 9557 O 903.265 0.137757 2.00928 0
M  V30 9558 C 900.33 0.567593 3.42022 0
M  V30 9559 C 899.391 1.68936 3.94663 0
M  V30 9560 C 898.624 1.28133 5.1809 0
M  V30 9561 O 898.847 0.156574 5.70185 0
M  V30 9562 O 897.781 2.0947 5.64275 0
M  V30 9563 H 901.607 1.93657 2.33946 0
M  V30 9564 H 899.192 1.00236 1.10784 0
M  V30 9565 H 901.074 0.338664 4.20037 0
M  V30 9566 H 899.749 -0.34424 3.21864 0
M  V30 9567 H 898.656 1.97274 3.17858 0
M  V30 9568 H 899.989 2.57876 4.19238 0
M  V30 9569 N 901.641 -1.19671 1.02551 0
M  V30 9570 C 902.889 -1.88894 0.71858 0
M  V30 9571 C 903.21 -1.79797 -0.754856 0
M  V30 9572 O 902.48 -1.20621 -1.54362 0
M  V30 9573 H 901.06 -0.699244 0.262806 0
M  V30 9574 H 903.722 -1.45298 1.29902 0
M  V30 9575 H 902.818 -2.95309 1.00989 0
M  V30 9576 N 903.119 -0.802921 -1.35613 0
M  V30 9577 C 904.029 -0.212177 -2.33639 0
M  V30 9578 C 905.045 0.642871 -1.61689 0
M  V30 9579 O 906.221 0.555485 -1.93588 0
M  V30 9580 C 903.286 0.632406 -3.40883 0
M  V30 9581 C 902.347 -0.242708 -4.28613 0
M  V30 9582 C 901.58 0.56166 -5.30736 0
M  V30 9583 O 901.803 1.79664 -5.41366 0
M  V30 9584 O 900.737 -0.0455387 -6.01883 0
M  V30 9585 H 904.563 -1.023 -2.85952 0
M  V30 9586 H 902.148 -0.564636 -1.38319 0
M  V30 9587 H 904.03 1.11358 -4.0642 0
M  V30 9588 H 902.705 1.42089 -2.90848 0
M  V30 9589 H 901.612 -0.77094 -3.6607 0
M  V30 9590 H 902.945 -0.995046 -4.82037 0
M  V30 9591 N 904.597 1.47463 -0.556102 0
M  V30 9592 C 905.822 2.07371 -0.0344729 0
M  V30 9593 C 906.247 1.40621 1.2493 0
M  V30 9594 O 905.605 0.48082 1.74808 0
M  V30 9595 C 905.653 3.60306 0.145563 0
M  V30 9596 O 904.757 3.94299 1.20839 0
M  V30 9597 H 904.098 0.662052 -0.0508274 0
M  V30 9598 H 906.628 1.89498 -0.771469 0
M  V30 9599 H 906.638 4.06408 0.360112 0
M  V30 9600 H 905.313 4.08288 -0.792089 0
M  V30 9601 H 903.89 3.59944 0.97442 0
M  V30 9602 N 906.075 0.2925 1.54862 0
M  V30 9603 C 907.491 -0.0611461 1.59483 0
M  V30 9604 C 907.691 -1.53141 1.30958 0
M  V30 9605 O 906.747 -2.28291 1.07887 0
M  V30 9606 C 908.06 0.329143 2.98893 0
M  V30 9607 C 909.608 0.2772 3.1177 0
M  V30 9608 C 910.083 0.642185 4.53475 0
M  V30 9609 N 911.574 0.594396 4.5937 0
M  V30 9610 C 912.309 0.849385 5.67074 0
M  V30 9611 N 911.805 1.1699 6.82851 0
M  V30 9612 N 913.598 0.777016 5.56704 0
M  V30 9613 H 905.749 1.25079 1.71665 0
M  V30 9614 H 908.012 0.506516 0.80134 0
M  V30 9615 H 907.718 1.35233 3.24661 0
M  V30 9616 H 907.592 -0.321442 3.75828 0
M  V30 9617 H 909.979 -0.736725 2.85756 0
M  V30 9618 H 910.06 0.962289 2.3701 0
M  V30 9619 H 909.704 1.65388 4.80218 0
M  V30 9620 H 909.634 -0.0648831 5.2656 0
M  V30 9621 H 912.125 0.357256 3.76208 0
M  V30 9622 H 912.438 1.35067 7.60905 0
M  V30 9623 H 910.783 1.20785 6.84424 0
M  V30 9624 H 913.974 0.526333 4.65132 0
M  V30 9625 H 914.147 0.979113 6.4056 0
M  V30 9626 N 907.553 -1.57587 0.0200696 0
M  V30 9627 C 908.501 -2.10814 -0.982868 0
M  V30 9628 C 909.495 -1.03263 -1.34287 0
M  V30 9629 O 910.701 -1.21708 -1.32617 0
M  V30 9630 H 907.076 -0.673409 -0.334701 0
M  V30 9631 H 909.047 -2.94034 -0.50856 0
M  V30 9632 C 907.796 -2.64301 -2.25921 0
M  V30 9633 H 907.119 -3.46703 -1.99091 0
M  V30 9634 H 908.559 -3.052 -2.94328 0
M  V30 9635 C 907.018 -1.56628 -2.98277 0
M  V30 9636 O 907.548 -0.960825 -3.9004 0
M  V30 9637 N 905.754 -1.28889 -2.60453 0
M  V30 9638 H 905.301 -1.7831 -1.85912 0
M  V30 9639 H 905.259 -0.570697 -3.09177 0
M  V30 9640 N 909.032 0.252966 -1.55557 0
M  V30 9641 C 910.448 0.60118 -1.47844 0
M  V30 9642 C 910.648 1.88612 -0.709055 0
M  V30 9643 O 909.704 2.51395 -0.235964 0
M  V30 9644 C 911.017 0.709539 -2.92209 0
M  V30 9645 C 912.565 0.802269 -3.02544 0
M  V30 9646 C 913.04 0.94224 -4.48203 0
M  V30 9647 N 914.531 1.00726 -4.52116 0
M  V30 9648 C 915.266 1.13472 -5.6206 0
M  V30 9649 N 914.762 1.22811 -6.81828 0
M  V30 9650 N 916.555 1.1674 -5.49844 0
M  V30 9651 H 908.706 -0.590635 -2.04023 0
M  V30 9652 H 910.969 -0.202986 -0.926013 0
M  V30 9653 H 910.675 -0.164505 -3.51315 0
M  V30 9654 H 910.549 1.58343 -3.42356 0
M  V30 9655 H 912.936 1.66677 -2.43522 0
M  V30 9656 H 913.017 -0.0966469 -2.55617 0
M  V30 9657 H 912.661 0.0823209 -5.07833 0
M  V30 9658 H 912.591 1.85611 -4.92805 0
M  V30 9659 H 915.082 0.946684 -3.6585 0
M  V30 9660 H 915.395 1.32426 -7.61369 0
M  V30 9661 H 913.74 1.19779 -6.84601 0
M  V30 9662 H 916.931 1.09089 -4.55211 0
M  V30 9663 H 917.104 1.26329 -6.35567 0
M  V30 9664 N 910.51 1.48831 0.518367 0
M  V30 9665 C 911.458 1.64678 1.64268 0
M  V30 9666 C 912.452 0.512967 1.61447 0
M  V30 9667 O 913.658 0.692063 1.66164 0
M  V30 9668 H 910.033 0.518964 0.544224 0
M  V30 9669 H 912.004 2.59083 1.4805 0
M  V30 9670 C 910.753 1.71449 3.0249 0
M  V30 9671 H 910.076 2.58061 3.0536 0
M  V30 9672 H 911.516 1.86577 3.80743 0
M  V30 9673 C 909.975 0.455584 3.33805 0
M  V30 9674 O 910.505 -0.426428 3.9943 0
M  V30 9675 N 908.711 0.323763 2.88791 0
M  V30 9676 H 908.258 1.04249 2.35563 0
M  V30 9677 H 908.216 -0.517514 3.10112 0
M  V30 9678 N 911.988 -0.768124 1.37614 0
M  V30 9679 C 913.234 -1.52907 1.33219 0
M  V30 9680 C 913.567 -1.94026 -0.0821218 0
M  V30 9681 O 912.842 -1.64345 -1.04023 0
M  V30 9682 C 913.125 -2.79164 2.27463 0
M  V30 9683 C 912.978 -2.44276 3.7769 0
M  V30 9684 C 914.297 -3.81115 2.20089 0
M  V30 9685 H 911.416 -0.554712 0.485246 0
M  V30 9686 H 914.058 -0.880911 1.68345 0
M  V30 9687 H 912.208 -3.34472 1.97639 0
M  V30 9688 H 913.88 -1.94855 4.18126 0
M  V30 9689 H 912.123 -1.76925 3.96081 0
M  V30 9690 H 912.794 -3.34544 4.39072 0
M  V30 9691 H 915.27 -3.35311 2.46386 0
M  V30 9692 H 914.146 -4.67174 2.88166 0
M  V30 9693 H 914.407 -4.25644 1.19498 0
M  V30 9694 N 913.466 -1.22244 -0.994698 0
M  V30 9695 C 914.416 -0.958244 -2.06886 0
M  V30 9696 C 915.4 0.0904481 -1.60646 0
M  V30 9697 O 916.592 -0.119837 -1.76594 0
M  V30 9698 C 913.721 -0.535944 -3.39091 0
M  V30 9699 C 912.807 -1.61927 -3.9197 0
M  V30 9700 N 913.198 -2.84659 -4.18094 0
M  V30 9701 C 911.496 -1.49053 -4.20356 0
M  V30 9702 C 912.197 -3.54697 -4.61048 0
M  V30 9703 N 911.173 -2.82164 -4.64634 0
M  V30 9704 H 914.975 -1.89056 -2.25022 0
M  V30 9705 H 912.489 -1.1197 -1.17629 0
M  V30 9706 H 914.486 -0.327997 -4.15608 0
M  V30 9707 H 913.146 0.38949 -3.22355 0
M  V30 9708 H 914.157 -3.21104 -4.06341 0
M  V30 9709 H 910.834 -0.631154 -4.12702 0
M  V30 9710 H 912.224 -4.59837 -4.89898 0
M  V30 9711 N 914.944 1.19125 -1.03184 0
M  V30 9712 C 916.169 1.93379 -0.749628 0
M  V30 9713 C 916.594 1.75153 0.685785 0
M  V30 9714 O 915.952 1.05579 1.47386 0
M  V30 9715 C 916 3.43101 -1.1097 0
M  V30 9716 O 915.104 4.11758 -0.230053 0
M  V30 9717 H 914.445 0.603605 -0.276689 0
M  V30 9718 H 916.975 1.51116 -1.37931 0
M  V30 9719 H 916.985 3.93778 -1.06785 0
M  V30 9720 H 915.66 3.55688 -2.15544 0
M  V30 9721 H 914.237 3.7143 -0.330748 0
M  V30 9722 N 916.422 0.810101 1.35185 0
M  V30 9723 C 917.67 0.391343 1.98275 0
M  V30 9724 C 917.991 -1.04592 1.64577 0
M  V30 9725 O 917.261 -1.72417 0.93001 0
M  V30 9726 H 915.841 0.141715 0.733434 0
M  V30 9727 H 918.503 1.03672 1.6504 0
M  V30 9728 H 917.599 0.49991 3.0807 0
M  V30 9729 N 917.9 -1.47166 0.563914 0
M  V30 9730 C 919.125 -2.0735 0.0454698 0
M  V30 9731 C 919.55 -1.41281 -1.24182 0
M  V30 9732 O 918.908 -0.490084 -1.7455 0
M  V30 9733 C 918.956 -3.60378 -0.126453 0
M  V30 9734 O 918.06 -3.94934 -1.18746 0
M  V30 9735 H 917.401 -0.661773 0.0543377 0
M  V30 9736 H 919.931 -1.89086 0.781508 0
M  V30 9737 H 919.941 -4.06593 -0.338554 0
M  V30 9738 H 918.616 -4.07862 0.81373 0
M  V30 9739 H 917.193 -3.60455 -0.955318 0
M  V30 9740 N 919.378 -0.300708 -1.54705 0
M  V30 9741 C 920.606 0.31127 -2.04545 0
M  V30 9742 C 921.021 1.47542 -1.178 0
M  V30 9743 O 920.378 1.81361 -0.203571 0
M  V30 9744 C 920.429 0.767783 -3.53253 0
M  V30 9745 O 920.15 -0.350027 -4.36699 0
M  V30 9746 C 921.651 1.44494 -4.1909 0
M  V30 9747 H 918.871 0.067668 -0.667579 0
M  V30 9748 H 921.415 -0.440254 -1.99705 0
M  V30 9749 H 919.57 1.46933 -3.58454 0
M  V30 9750 H 919.984 0.00534038 -5.245 0
M  V30 9751 H 921.458 1.71553 -5.24665 0
M  V30 9752 H 921.935 2.3849 -3.68808 0
M  V30 9753 H 922.541 0.786581 -4.17963 0
M  V30 9754 N 920.856 1.57574 -0.0284266 0
M  V30 9755 C 922.103 1.91772 0.650364 0
M  V30 9756 C 922.431 0.904769 1.72175 0
M  V30 9757 O 921.686 -0.0864038 1.95509 0
M  V30 9758 C 921.985 3.32699 1.3056 0
M  V30 9759 C 921.651 4.49423 0.364658 0
M  V30 9760 C 920.313 4.81084 0.105672 0
M  V30 9761 C 922.665 5.20439 -0.28151 0
M  V30 9762 C 919.993 5.81119 -0.8073 0
M  V30 9763 C 922.345 6.21449 -1.18253 0
M  V30 9764 C 921.009 6.51551 -1.45042 0
M  V30 9765 H 920.279 0.701744 0.237985 0
M  V30 9766 H 922.926 1.91288 -0.0900448 0
M  V30 9767 H 921.231 3.29441 2.12075 0
M  V30 9768 H 922.928 3.5643 1.83736 0
M  V30 9769 H 919.518 4.24703 0.576692 0
M  V30 9770 H 923.702 4.9621 -0.0944806 0
M  V30 9771 H 918.958 6.02788 -1.02256 0
M  V30 9772 H 923.132 6.75597 -1.68942 0
M  V30 9773 H 920.759 7.28882 -2.15951 0
M  V30 9774 N 922.334 -0.244713 1.55689 0
M  V30 9775 C 923.581 -0.972446 1.77622 0
M  V30 9776 C 923.909 -1.85235 0.593137 0
M  V30 9777 O 923.164 -1.91064 -0.423464 0
M  V30 9778 C 923.463 -1.8617 3.05083 0
M  V30 9779 C 923.129 -1.13696 4.3633 0
M  V30 9780 C 921.791 -0.936679 4.71996 0
M  V30 9781 C 924.143 -0.623451 5.17458 0
M  V30 9782 C 921.471 -0.210612 5.86322 0
M  V30 9783 C 923.823 0.0891587 6.32537 0
M  V30 9784 C 922.487 0.300904 6.66821 0
M  V30 9785 H 921.757 -0.355843 0.649967 0
M  V30 9786 H 924.404 -0.242372 1.8996 0
M  V30 9787 H 922.709 -2.6589 2.87767 0
M  V30 9788 H 924.406 -2.4265 3.19253 0
M  V30 9789 H 920.996 -1.30301 4.08313 0
M  V30 9790 H 925.18 -0.765725 4.90357 0
M  V30 9791 H 920.436 -0.0361062 6.11389 0
M  V30 9792 H 924.61 0.494685 6.94641 0
M  V30 9793 H 922.237 0.865466 7.55257 0
M  V30 9794 N 923.813 -1.49104 -0.510467 0
M  V30 9795 C 924.76 -1.65074 -1.61305 0
M  V30 9796 C 925.73 -0.492362 -1.58635 0
M  V30 9797 O 926.915 -0.718241 -1.76765 0
M  V30 9798 C 924.055 -1.71457 -2.99493 0
M  V30 9799 C 923.168 -2.98536 -3.12251 0
M  V30 9800 C 922.303 -2.95957 -4.41116 0
M  V30 9801 C 921.342 -4.17655 -4.47471 0
M  V30 9802 N 920.479 -4.13041 -5.67751 0
M  V30 9803 H 925.319 -2.59222 -1.46996 0
M  V30 9804 H 922.856 -1.28535 -0.715346 0
M  V30 9805 H 924.814 -1.7314 -3.79577 0
M  V30 9806 H 923.444 -0.807834 -3.12528 0
M  V30 9807 H 922.496 -3.06509 -2.25292 0
M  V30 9808 H 923.808 -3.88527 -3.12807 0
M  V30 9809 H 922.962 -2.96149 -5.2951 0
M  V30 9810 H 921.701 -2.03728 -4.4311 0
M  V30 9811 H 920.706 -4.17717 -3.57481 0
M  V30 9812 H 921.931 -5.11066 -4.472 0
M  V30 9813 H 919.877 -3.23643 -5.70606 0
M  V30 9814 H 919.794 -4.96757 -5.69884 0
M  V30 9815 H 921.062 -4.17322 -6.58379 0
M  V30 9816 N 925.291 0.760815 -1.38019 0
M  V30 9817 C 926.521 1.54776 -1.3685 0
M  V30 9818 C 926.929 1.89146 0.0453971 0
M  V30 9819 O 926.272 1.52746 1.0205 0
M  V30 9820 C 926.334 2.87923 -2.15269 0
M  V30 9821 C 925.998 2.76131 -3.64144 0
M  V30 9822 C 926.995 2.46417 -4.57794 0
M  V30 9823 C 924.68 2.9381 -4.07408 0
M  V30 9824 C 926.674 2.34525 -5.92686 0
M  V30 9825 C 924.361 2.81539 -5.42383 0
M  V30 9826 C 925.359 2.51938 -6.34836 0
M  V30 9827 O 925.047 2.39713 -7.67329 0
M  V30 9828 H 924.779 0.485776 -0.470104 0
M  V30 9829 H 927.333 0.949939 -1.82113 0
M  V30 9830 H 925.563 3.49867 -1.64712 0
M  V30 9831 H 927.252 3.49389 -2.06596 0
M  V30 9832 H 928.018 2.32433 -4.25676 0
M  V30 9833 H 923.897 3.15849 -3.35799 0
M  V30 9834 H 927.441 2.11342 -6.64816 0
M  V30 9835 H 923.338 2.95093 -5.741 0
M  V30 9836 H 924.106 2.5498 -7.77771 0
M  V30 9837 N 926.769 1.22769 0.988202 0
M  V30 9838 C 927.999 1.07998 1.76125 0
M  V30 9839 C 928.407 -0.372062 1.85506 0
M  V30 9840 O 927.75 -1.26946 1.3278 0
M  V30 9841 C 927.812 1.6219 3.20834 0
M  V30 9842 C 927.476 3.1086 3.34986 0
M  V30 9843 C 928.473 4.08239 3.21927 0
M  V30 9844 C 926.158 3.50411 3.59886 0
M  V30 9845 C 928.152 5.43154 3.33561 0
M  V30 9846 C 925.839 4.85473 3.71159 0
M  V30 9847 C 926.837 5.81653 3.58006 0
M  V30 9848 O 926.525 7.14263 3.68895 0
M  V30 9849 H 926.257 0.378937 0.559806 0
M  V30 9850 H 928.811 1.62925 1.25078 0
M  V30 9851 H 927.041 1.01676 3.73094 0
M  V30 9852 H 928.73 1.43011 3.79872 0
M  V30 9853 H 929.496 3.79025 3.02597 0
M  V30 9854 H 925.375 2.76068 3.69198 0
M  V30 9855 H 928.919 6.18207 3.23211 0
M  V30 9856 H 924.816 5.14365 3.89998 0
M  V30 9857 H 925.584 7.21906 3.85739 0
M  V30 9858 N 928.247 -1.18576 1.03814 0
M  V30 9859 C 929.177 -2.24334 0.647795 0
M  V30 9860 C 930.158 -1.66508 -0.34774 0
M  V30 9861 O 931.343 -1.92852 -0.228401 0
M  V30 9862 C 928.473 -3.47299 0.00734922 0
M  V30 9863 C 927.427 -4.17859 0.926152 0
M  V30 9864 C 926.753 -5.34489 0.150317 0
M  V30 9865 C 928.053 -4.71632 2.24411 0
M  V30 9866 H 929.747 -2.57241 1.53191 0
M  V30 9867 H 927.293 -1.23649 0.738028 0
M  V30 9868 H 929.246 -4.20486 -0.277434 0
M  V30 9869 H 927.97 -3.13619 -0.911626 0
M  V30 9870 H 926.629 -3.46567 1.19528 0
M  V30 9871 H 926.277 -4.97056 -0.770985 0
M  V30 9872 H 925.977 -5.82633 0.762407 0
M  V30 9873 H 927.501 -6.10467 -0.127508 0
M  V30 9874 H 928.915 -5.36526 2.02021 0
M  V30 9875 H 927.312 -5.303 2.80894 0
M  V30 9876 H 928.382 -3.89192 2.89236 0
M  V30 9877 N 929.725 -0.817259 -1.34754 0
M  V30 9878 C 930.657 -0.192695 -2.28389 0
M  V30 9879 C 931.67 0.614167 -1.50771 0
M  V30 9880 O 932.859 0.444776 -1.7287 0
M  V30 9881 C 929.959 0.748929 -3.30521 0
M  V30 9882 C 929.132 -0.0138762 -4.37398 0
M  V30 9883 C 928.191 0.847825 -5.19325 0
M  V30 9884 O 927.217 0.29487 -5.68436 0
M  V30 9885 N 928.419 2.16843 -5.38479 0
M  V30 9886 H 931.184 -0.997122 -2.82626 0
M  V30 9887 H 928.745 -0.673696 -1.47217 0
M  V30 9888 H 930.737 1.32987 -3.82226 0
M  V30 9889 H 929.307 1.45412 -2.7672 0
M  V30 9890 H 928.527 -0.776093 -3.86485 0
M  V30 9891 H 929.815 -0.539191 -5.05935 0
M  V30 9892 H 929.213 2.64148 -5.00242 0
M  V30 9893 H 927.77 2.69835 -5.93323 0
M  V30 9894 N 931.203 1.46865 -0.571711 0
M  V30 9895 C 932.451 2.0203 -0.0530022 0
M  V30 9896 C 932.772 1.44687 1.30731 0
M  V30 9897 O 932.042 0.627429 1.85581 0
M  V30 9898 H 930.622 0.746815 -0.0166035 0
M  V30 9899 H 933.284 1.80099 -0.745003 0
M  V30 9900 H 932.38 3.12091 0.0242538 0
M  V30 9901 N 932.681 0.308908 1.54543 0
M  V30 9902 C 933.644 -0.550857 2.22482 0
M  V30 9903 C 934.644 -1.0551 1.21344 0
M  V30 9904 O 935.834 -0.949866 1.46025 0
M  V30 9905 C 932.966 -1.76354 2.9174 0
M  V30 9906 H 934.159 0.0428395 2.99869 0
M  V30 9907 H 931.712 0.059825 1.56185 0
M  V30 9908 H 932.447 -2.39686 2.18451 0
M  V30 9909 H 932.232 -1.40954 3.65889 0
M  V30 9910 H 933.722 -2.37417 3.43545 0
M  V30 9911 N 934.159 -1.57557 0.0367827 0
M  V30 9912 C 935.106 -2.10679 -0.942499 0
M  V30 9913 C 936.076 -1.01068 -1.31812 0
M  V30 9914 O 937.261 -1.28533 -1.41011 0
M  V30 9915 C 934.401 -2.64467 -2.21701 0
M  V30 9916 C 933.514 -3.88114 -1.89715 0
M  V30 9917 C 932.649 -4.30268 -3.11518 0
M  V30 9918 C 931.688 -5.46652 -2.75387 0
M  V30 9919 N 930.825 -5.83927 -3.89838 0
M  V30 9920 H 935.665 -2.94066 -0.482588 0
M  V30 9921 H 933.202 -1.45344 -0.226597 0
M  V30 9922 H 935.16 -2.93745 -2.96259 0
M  V30 9923 H 933.79 -1.83898 -2.65295 0
M  V30 9924 H 932.842 -3.65516 -1.05366 0
M  V30 9925 H 934.154 -4.72743 -1.5911 0
M  V30 9926 H 933.308 -4.61023 -3.94389 0
M  V30 9927 H 932.047 -3.44421 -3.4529 0
M  V30 9928 H 931.052 -5.15583 -1.90929 0
M  V30 9929 H 932.277 -6.34204 -2.42822 0
M  V30 9930 H 930.223 -5.01035 -4.23438 0
M  V30 9931 H 930.14 -6.63214 -3.62883 0
M  V30 9932 H 931.408 -6.19291 -4.73391 0
M  V30 9933 N 935.637 0.236453 -1.55816 0
M  V30 9934 C 936.886 0.960981 -1.77336 0
M  V30 9935 C 937.199 1.86085 -0.602641 0
M  V30 9936 O 938.405 2.62291 -0.701106 0
M  V30 9937 C 936.861 1.75884 -3.13995 0
M  V30 9938 C 936.469 0.905849 -4.38746 0
M  V30 9939 C 938.213 2.47548 -3.44848 0
M  V30 9940 C 936.12 1.7002 -5.66434 0
M  V30 9941 H 935.05 0.362547 -0.661117 0
M  V30 9942 H 937.701 0.215303 -1.82233 0
M  V30 9943 H 936.083 2.54687 -3.03234 0
M  V30 9944 H 937.257 0.159415 -4.60524 0
M  V30 9945 H 935.572 0.30205 -4.15303 0
M  V30 9946 H 938.169 3.07452 -4.37467 0
M  V30 9947 H 938.512 3.19689 -2.66655 0
M  V30 9948 H 939.045 1.75747 -3.56872 0
M  V30 9949 H 935.784 1.02234 -6.47479 0
M  V30 9950 H 935.304 2.42164 -5.48741 0
M  V30 9951 H 936.983 2.26469 -6.0607 0
M  V30 9952 N 937.115 1.49373 0.502552 0
M  V30 9953 C 938.526 1.52 1.0841 0
M  V30 9954 C 938.877 0.305317 1.9381 0
M  V30 9955 O 938.002 -0.585023 2.08342 0
M  V30 9956 C 938.597 2.75437 1.97281 0
M  V30 9957 C 937.156 2.80848 2.50602 0
M  V30 9958 C 936.303 2.45894 1.28186 0
M  V30 9959 H 939.254 1.56092 0.286533 0
M  V30 9960 H 939.275 2.55511 2.81947 0
M  V30 9961 H 938.787 3.63827 1.35098 0
M  V30 9962 H 936.888 1.96735 3.16427 0
M  V30 9963 H 937.001 3.82979 2.8786 0
M  V30 9964 H 935.365 1.97639 1.60657 0
M  V30 9965 H 936.148 3.36556 0.677139 0
M  V30 9966 N 938.594 -0.753485 1.38421 0
M  V30 9967 C 939.541 -1.86723 1.35659 0
M  V30 9968 C 940.511 -1.64648 0.219121 0
M  V30 9969 O 941.696 -1.86313 0.411366 0
M  V30 9970 C 938.836 -3.24023 1.18758 0
M  V30 9971 C 937.949 -3.57928 2.41892 0
M  V30 9972 C 937.084 -4.84532 2.17721 0
M  V30 9973 C 936.123 -5.11224 3.36626 0
M  V30 9974 N 935.26 -6.29023 3.11889 0
M  V30 9975 H 940.1 -1.88419 2.30873 0
M  V30 9976 H 937.637 -0.920934 1.14705 0
M  V30 9977 H 939.595 -4.03252 1.06974 0
M  V30 9978 H 938.225 -3.21654 0.27182 0
M  V30 9979 H 937.277 -2.73541 2.64347 0
M  V30 9980 H 938.589 -3.73581 3.30513 0
M  V30 9981 H 937.743 -5.71704 2.03074 0
M  V30 9982 H 936.482 -4.71018 1.26465 0
M  V30 9983 H 935.487 -4.2252 3.51791 0
M  V30 9984 H 936.712 -5.26635 4.28757 0
M  V30 9985 H 934.658 -6.16832 2.2328 0
M  V30 9986 H 934.575 -6.45177 3.9406 0
M  V30 9987 H 935.843 -7.19083 3.00898 0
M  V30 9988 N 940.072 -1.23292 -0.981677 0
M  V30 9989 C 941.483 -1.05936 -1.53735 0
M  V30 9990 C 941.834 0.373695 -1.92608 0
M  V30 9991 O 940.959 1.26024 -1.75917 0
M  V30 9992 C 941.554 -1.91682 -2.79363 0
M  V30 9993 C 940.113 -1.78591 -3.31334 0
M  V30 9994 C 939.26 -1.87463 -2.04335 0
M  V30 9995 H 942.211 -1.36973 -0.801505 0
M  V30 9996 H 942.232 -1.44085 -3.52164 0
M  V30 9997 H 941.744 -2.95975 -2.51039 0
M  V30 9998 H 939.845 -0.770755 -3.64541 0
M  V30 9999 H 939.958 -2.61902 -4.01179 0
M  V30 10000 H 938.322 -1.3103 -2.18411 0
M  V30 10001 H 939.105 -2.9331 -1.78394 0
M  V30 10002 N 941.55 1.18024 -1.04442 0
M  V30 10003 C 942.46 2.25436 -0.649276 0
M  V30 10004 C 943.476 1.70915 0.326189 0
M  V30 10005 O 944.652 2.00592 0.180174 0
M  V30 10006 C 941.717 3.46693 -0.0222558 0
M  V30 10007 C 940.778 4.16332 -1.0472 0
M  V30 10008 C 940.011 5.31799 -0.450011 0
M  V30 10009 O 940.234 5.65544 0.742717 0
M  V30 10010 O 939.168 5.90209 -1.18056 0
M  V30 10011 H 942.994 2.61508 -1.54426 0
M  V30 10012 H 940.579 1.25178 -0.81552 0
M  V30 10013 H 942.461 4.20132 0.326597 0
M  V30 10014 H 941.136 3.12436 0.84649 0
M  V30 10015 H 940.043 3.44944 -1.44792 0
M  V30 10016 H 941.376 4.54598 -1.88684 0
M  V30 10017 N 943.028 0.824394 1.34319 0
M  V30 10018 C 943.991 0.252696 2.27803 0
M  V30 10019 C 944.991 -0.570254 1.50349 0
M  V30 10020 O 946.181 -0.386145 1.69866 0
M  V30 10021 C 943.313 -0.645575 3.34731 0
M  V30 10022 H 944.506 1.07742 2.79878 0
M  V30 10023 H 942.059 0.596367 1.44475 0
M  V30 10024 H 942.794 -1.4933 2.87873 0
M  V30 10025 H 942.579 -0.0569478 3.92059 0
M  V30 10026 H 944.069 -1.03933 4.0446 0
M  V30 10027 N 944.506 -1.46559 0.579492 0
M  V30 10028 C 945.731 -2.0729 0.0674595 0
M  V30 10029 C 946.156 -1.4259 -1.22677 0
M  V30 10030 O 945.514 -0.50857 -1.74021 0
M  V30 10031 C 945.562 -3.60492 -0.0882227 0
M  V30 10032 O 944.666 -3.96172 -1.14551 0
M  V30 10033 H 944.007 -0.661159 0.0613536 0
M  V30 10034 H 946.537 -1.88247 0.801519 0
M  V30 10035 H 946.547 -4.06929 -0.295411 0
M  V30 10036 H 945.222 -4.06976 0.856943 0
M  V30 10037 H 943.799 -3.61448 -0.917033 0
M  V30 10038 N 945.984 -0.3171 -1.54377 0
M  V30 10039 C 947.231 0.28741 -2.0045 0
M  V30 10040 C 947.559 1.52648 -1.20535 0
M  V30 10041 O 946.814 1.93775 -0.273831 0
M  V30 10042 C 947.113 0.672917 -3.51008 0
M  V30 10043 C 946.779 -0.466245 -4.48483 0
M  V30 10044 C 945.441 -0.778933 -4.74854 0
M  V30 10045 C 947.793 -1.23176 -5.06436 0
M  V30 10046 C 945.121 -1.85997 -5.56437 0
M  V30 10047 C 947.473 -2.30284 -5.89196 0
M  V30 10048 C 946.137 -2.62141 -6.13872 0
M  V30 10049 H 945.407 0.105171 -0.733499 0
M  V30 10050 H 948.054 -0.439538 -1.86388 0
M  V30 10051 H 946.359 1.48019 -3.62764 0
M  V30 10052 H 948.056 1.15209 -3.84094 0
M  V30 10053 H 944.646 -0.212449 -4.28073 0
M  V30 10054 H 948.83 -1.00344 -4.8605 0
M  V30 10055 H 944.086 -2.11134 -5.73788 0
M  V30 10056 H 948.26 -2.90048 -6.33123 0
M  V30 10057 H 945.887 -3.46037 -6.76877 0
M  V30 10058 N 947.462 1.57535 -0.0451378 0
M  V30 10059 C 948.687 1.97172 0.64326 0
M  V30 10060 C 949.112 0.922266 1.63939 0
M  V30 10061 O 948.47 -0.115155 1.80934 0
M  V30 10062 C 948.518 3.35889 1.3119 0
M  V30 10063 O 947.622 3.33387 2.42748 0
M  V30 10064 H 946.963 0.642469 0.167719 0
M  V30 10065 H 949.493 2.04295 -0.111747 0
M  V30 10066 H 949.503 3.72481 1.66499 0
M  V30 10067 H 948.178 4.1181 0.581823 0
M  V30 10068 H 946.755 3.08533 2.09432 0
M  V30 10069 N 948.94 -0.228186 1.55939 0
M  V30 10070 C 950.351 -0.795734 1.68893 0
M  V30 10071 C 950.702 -1.85261 0.645967 0
M  V30 10072 O 949.827 -2.15434 -0.2042 0
M  V30 10073 C 950.422 -1.45013 3.06197 0
M  V30 10074 C 948.981 -1.96514 3.21028 0
M  V30 10075 C 948.128 -0.822918 2.64808 0
M  V30 10076 H 951.079 -0.0036485 1.587 0
M  V30 10077 H 951.1 -2.31875 3.01685 0
M  V30 10078 H 950.612 -0.680678 3.82084 0
M  V30 10079 H 948.713 -2.76282 2.49998 0
M  V30 10080 H 948.826 -2.14967 4.28166 0
M  V30 10081 H 947.19 -1.22846 2.23116 0
M  V30 10082 H 947.973 -0.0662493 3.43236 0
M  V30 10083 N 950.418 -1.49637 -0.494624 0
M  V30 10084 C 951.834 -1.36541 -0.826361 0
M  V30 10085 C 952.034 -0.403386 -1.97421 0
M  V30 10086 O 951.09 0.162614 -2.51976 0
M  V30 10087 C 952.403 -2.77401 -1.16057 0
M  V30 10088 C 953.951 -2.86148 -1.26841 0
M  V30 10089 C 954.426 -4.27789 -1.63587 0
M  V30 10090 N 955.917 -4.3063 -1.70624 0
M  V30 10091 C 956.652 -5.37198 -2.00514 0
M  V30 10092 N 956.148 -6.54004 -2.28584 0
M  V30 10093 N 957.941 -5.2462 -2.01818 0
M  V30 10094 H 950.092 -2.10776 0.26219 0
M  V30 10095 H 952.355 -0.946419 0.0547235 0
M  V30 10096 H 952.061 -3.49526 -0.390434 0
M  V30 10097 H 951.935 -3.1317 -2.10249 0
M  V30 10098 H 954.322 -2.14256 -2.02925 0
M  V30 10099 H 954.403 -2.53953 -0.30684 0
M  V30 10100 H 954.047 -5.00209 -0.880507 0
M  V30 10101 H 953.977 -4.57453 -2.60854 0
M  V30 10102 H 956.468 -3.46393 -1.51065 0
M  V30 10103 H 956.781 -7.31041 -2.50598 0
M  V30 10104 H 955.126 -6.57219 -2.26027 0
M  V30 10105 H 958.317 -4.32371 -1.79369 0
M  V30 10106 H 958.49 -6.07765 -2.24778 0
M  V30 10107 N 951.896 0.746133 -1.38819 0
M  V30 10108 C 953.312 1.0502 -1.20179 0
M  V30 10109 C 953.512 2.01423 -0.0556271 0
M  V30 10110 O 952.568 2.45359 0.59625 0
M  V30 10111 C 953.881 1.62315 -2.53129 0
M  V30 10112 C 955.429 1.74449 -2.59878 0
M  V30 10113 C 955.904 2.35155 -3.93022 0
M  V30 10114 N 957.395 2.42577 -3.94602 0
M  V30 10115 C 958.13 2.9046 -4.94389 0
M  V30 10116 N 957.626 3.38322 -6.04574 0
M  V30 10117 N 959.419 2.89568 -4.81775 0
M  V30 10118 H 951.57 0.106551 -2.12133 0
M  V30 10119 H 953.833 0.109897 -0.941609 0
M  V30 10120 H 953.539 0.98946 -3.37495 0
M  V30 10121 H 953.413 2.61276 -2.72057 0
M  V30 10122 H 955.8 2.36943 -1.75903 0
M  V30 10123 H 955.881 0.741721 -2.4481 0
M  V30 10124 H 955.525 1.73292 -4.77422 0
M  V30 10125 H 955.455 3.36088 -4.05404 0
M  V30 10126 H 957.946 2.08735 -3.15021 0
M  V30 10127 H 958.259 3.73336 -6.76639 0
M  V30 10128 H 956.604 3.3636 -6.08184 0
M  V30 10129 H 959.795 2.51492 -3.94803 0
M  V30 10130 H 959.968 3.26571 -5.59692 0
M  V30 10131 N 953.375 1.23811 0.975125 0
M  V30 10132 C 954.623 1.07124 1.71373 0
M  V30 10133 C 954.944 -0.391864 1.91022 0
M  V30 10134 O 954.214 -1.28041 1.48265 0
M  V30 10135 H 952.794 0.393415 0.635007 0
M  V30 10136 H 955.456 1.55612 1.17349 0
M  V30 10137 H 954.552 1.56338 2.7012 0
M  V30 10138 N 954.853 -1.17469 1.05066 0
M  V30 10139 C 956.099 -1.88225 0.7709 0
M  V30 10140 C 956.454 -1.7943 -0.694452 0
M  V30 10141 O 955.747 -1.19059 -1.50118 0
M  V30 10142 C 955.941 -3.37211 1.18421 0
M  V30 10143 C 955.77 -3.60508 2.68819 0
M  V30 10144 C 954.54 -3.77303 3.36111 0
M  V30 10145 C 956.738 -3.60258 3.6704 0
M  V30 10146 N 954.72 -3.88433 4.75387 0
M  V30 10147 C 956.091 -3.77223 4.92039 0
M  V30 10148 C 958.146 -3.43401 3.60527 0
M  V30 10149 C 956.849 -3.79075 6.11305 0
M  V30 10150 C 958.875 -3.46541 4.79232 0
M  V30 10151 C 958.237 -3.64013 6.03054 0
M  V30 10152 H 954.336 -0.706941 0.334303 0
M  V30 10153 H 956.92 -1.41029 1.34235 0
M  V30 10154 H 955.091 -3.83079 0.640724 0
M  V30 10155 H 956.823 -3.95578 0.854411 0
M  V30 10156 H 953.578 -3.77105 2.86512 0
M  V30 10157 H 954.002 -3.97797 5.47802 0
M  V30 10158 H 958.644 -3.28831 2.65762 0
M  V30 10159 H 956.362 -3.92431 7.06416 0
M  V30 10160 H 959.948 -3.34758 4.75845 0
M  V30 10161 H 958.828 -3.66345 6.93369 0
M  V30 10162 N 956.331 -0.831506 -1.3388 0
M  V30 10163 C 957.279 -0.247896 -2.31275 0
M  V30 10164 C 958.273 0.616083 -1.578 0
M  V30 10165 O 959.479 0.506465 -1.72728 0
M  V30 10166 H 955.854 -0.0614293 -0.749487 0
M  V30 10167 H 957.825 -1.08401 -2.78014 0
M  V30 10168 C 956.574 0.568434 -3.43022 0
M  V30 10169 H 955.897 -0.0870654 -3.99705 0
M  V30 10170 H 957.337 0.942751 -4.13386 0
M  V30 10171 C 955.796 1.74431 -2.88228 0
M  V30 10172 O 956.326 2.84278 -2.83811 0
M  V30 10173 N 954.532 1.56382 -2.44935 0
M  V30 10174 H 954.079 0.670255 -2.48727 0
M  V30 10175 H 954.037 2.35208 -2.08625 0
M  V30 10176 N 957.809 1.4625 -0.587256 0
M  V30 10177 C 959.225 1.57641 -0.249284 0
M  V30 10178 C 959.425 1.58169 1.24839 0
M  V30 10179 O 958.481 1.50109 2.03036 0
M  V30 10180 C 959.794 2.86837 -0.902509 0
M  V30 10181 C 961.342 3.00476 -0.876524 0
M  V30 10182 C 961.817 4.32414 -1.50938 0
M  V30 10183 N 963.308 4.39124 -1.47392 0
M  V30 10184 C 964.043 5.39838 -1.93293 0
M  V30 10185 N 963.539 6.47202 -2.47188 0
M  V30 10186 N 965.332 5.31068 -1.84183 0
M  V30 10187 H 957.483 1.44151 -1.55994 0
M  V30 10188 H 959.746 0.687905 -0.652297 0
M  V30 10189 H 959.452 2.92274 -1.95624 0
M  V30 10190 H 959.326 3.74927 -0.413466 0
M  V30 10191 H 961.713 2.94618 0.168601 0
M  V30 10192 H 961.794 2.1385 -1.40363 0
M  V30 10193 H 961.438 4.3903 -2.55372 0
M  V30 10194 H 961.368 5.17823 -0.957455 0
M  V30 10195 H 963.859 3.62138 -1.08002 0
M  V30 10196 H 964.172 7.20269 -2.80058 0
M  V30 10197 H 962.517 6.48009 -2.51216 0
M  V30 10198 H 965.708 4.46095 -1.41833 0
M  V30 10199 H 965.881 6.09414 -2.2027 0
M  V30 10200 N 959.287 0.325282 1.54207 0
M  V30 10201 C 960.219 -0.57395 2.21897 0
M  V30 10202 C 961.232 -1.0785 1.21952 0
M  V30 10203 O 962.421 -0.991782 1.48411 0
M  V30 10204 C 959.521 -1.8005 2.87115 0
M  V30 10205 C 958.694 -1.43435 4.13213 0
M  V30 10206 C 957.753 -2.51862 4.62009 0
M  V30 10207 O 956.779 -2.15934 5.26651 0
M  V30 10208 N 957.981 -3.8282 4.36382 0
M  V30 10209 H 960.746 0.00566918 2.99699 0
M  V30 10210 H 958.307 0.148563 1.61217 0
M  V30 10211 H 960.299 -2.51981 3.16682 0
M  V30 10212 H 958.869 -2.28792 2.13009 0
M  V30 10213 H 958.089 -0.546598 3.90392 0
M  V30 10214 H 959.377 -1.16544 4.95273 0
M  V30 10215 H 958.775 -4.14807 3.84645 0
M  V30 10216 H 957.332 -4.50976 4.70599 0
M  V30 10217 N 960.765 -1.57509 0.0534917 0
M  V30 10218 C 961.728 -2.10563 -0.905307 0
M  V30 10219 C 962.728 -1.02571 -1.23838 0
M  V30 10220 O 963.918 -1.28635 -1.17468 0
M  V30 10221 C 961.05 -2.5918 -2.21447 0
M  V30 10222 H 962.243 -2.96575 -0.445354 0
M  V30 10223 H 959.796 -1.55079 -0.194947 0
M  V30 10224 H 960.531 -1.76568 -2.72019 0
M  V30 10225 H 960.316 -3.38098 -1.98575 0
M  V30 10226 H 961.806 -3.00365 -2.90122 0
M  V30 10227 N 962.243 0.219913 -1.56058 0
M  V30 10228 C 963.491 0.942199 -1.78793 0
M  V30 10229 C 963.812 1.84804 -0.622284 0
M  V30 10230 O 963.082 1.9255 0.360735 0
M  V30 10231 H 961.662 0.350895 -0.659455 0
M  V30 10232 H 964.324 0.231376 -1.93522 0
M  V30 10233 H 963.42 1.54804 -2.71002 0
M  V30 10234 N 963.721 1.49897 0.486681 0
M  V30 10235 C 964.684 1.67086 1.56891 0
M  V30 10236 C 965.684 0.54209 1.51387 0
M  V30 10237 O 966.874 0.80883 1.54284 0
M  V30 10238 C 964.006 1.68159 2.96539 0
M  V30 10239 H 965.199 2.63626 1.42974 0
M  V30 10240 H 962.752 1.39143 0.711954 0
M  V30 10241 H 963.487 0.732562 3.15918 0
M  V30 10242 H 963.272 2.50147 3.01942 0
M  V30 10243 H 964.762 1.83466 3.7514 0
M  V30 10244 N 965.199 -0.738761 1.39212 0
M  V30 10245 C 966.162 -1.83441 1.37412 0
M  V30 10246 C 967.162 -1.58484 0.271908 0
M  V30 10247 O 968.352 -1.65954 0.529609 0
M  V30 10248 C 965.484 -3.21167 1.143 0
M  V30 10249 H 966.677 -1.86441 2.34904 0
M  V30 10250 H 964.23 -0.942023 1.24722 0
M  V30 10251 H 964.965 -3.23829 0.174756 0
M  V30 10252 H 964.75 -3.40678 1.94116 0
M  V30 10253 H 966.24 -4.01231 1.15773 0
M  V30 10254 N 966.677 -1.24326 -0.968545 0
M  V30 10255 C 967.925 -1.08032 -1.70803 0
M  V30 10256 C 968.246 0.381728 -1.91227 0
M  V30 10257 O 967.516 1.27253 -1.48942 0
M  V30 10258 H 966.096 -0.396777 -0.632912 0
M  V30 10259 H 968.758 -1.56232 -1.16523 0
M  V30 10260 H 967.854 -1.57769 -2.69287 0
M  V30 10261 N 968.156 1.1691 -1.05688 0
M  V30 10262 C 969.381 1.91745 -0.790478 0
M  V30 10263 C 969.806 1.76568 0.648478 0
M  V30 10264 O 969.164 1.08682 1.45114 0
M  V30 10265 C 969.212 3.4067 -1.18222 0
M  V30 10266 O 968.316 4.11177 -0.317341 0
M  V30 10267 H 967.657 0.5976 -0.28943 0
M  V30 10268 H 970.187 1.48157 -1.41105 0
M  V30 10269 H 970.197 3.91424 -1.15114 0
M  V30 10270 H 968.872 3.51036 -2.2304 0
M  V30 10271 H 967.449 3.70645 -0.409459 0
M  V30 10272 N 969.634 0.838594 1.33437 0
M  V30 10273 C 971.05 0.526347 1.50671 0
M  V30 10274 C 971.25 -0.946387 1.77893 0
M  V30 10275 O 970.306 -1.7302 1.83903 0
M  V30 10276 C 971.619 1.39945 2.6615 0
M  V30 10277 C 973.167 1.3982 2.80035 0
M  V30 10278 C 973.642 2.25614 3.98576 0
M  V30 10279 N 975.133 2.23322 4.0581 0
M  V30 10280 C 975.868 2.86443 4.96727 0
M  V30 10281 N 975.364 3.58616 5.92762 0
M  V30 10282 N 977.157 2.75915 4.89722 0
M  V30 10283 H 969.308 1.79195 1.1403 0
M  V30 10284 H 971.571 0.764491 0.560586 0
M  V30 10285 H 971.277 2.44599 2.52714 0
M  V30 10286 H 971.151 1.07529 3.61548 0
M  V30 10287 H 973.538 0.35937 2.92904 0
M  V30 10288 H 973.619 1.76241 1.85399 0
M  V30 10289 H 973.263 3.29555 3.86466 0
M  V30 10290 H 973.193 1.86533 4.92456 0
M  V30 10291 H 975.684 1.70836 3.37081 0
M  V30 10292 H 975.997 4.03987 6.58798 0
M  V30 10293 H 974.342 3.62724 5.92838 0
M  V30 10294 H 977.533 2.19094 4.13661 0
M  V30 10295 H 977.706 3.25393 5.60378 0
M  V30 10296 N 971.112 -1.45937 0.595003 0
M  V30 10297 C 972.045 -2.27491 -0.179775 0
M  V30 10298 C 973.023 -1.36376 -0.88545 0
M  V30 10299 O 974.207 -1.65797 -0.896863 0
M  V30 10300 C 971.334 -3.1443 -1.25902 0
M  V30 10301 C 970.38 -4.21396 -0.657847 0
M  V30 10302 S 971.213 -5.32923 0.524689 0
M  V30 10303 C 972.369 -6.2343 -0.555452 0
M  V30 10304 H 972.602 -2.92855 0.512173 0
M  V30 10305 H 970.135 -1.49595 0.382199 0
M  V30 10306 H 972.093 -3.65081 -1.87687 0
M  V30 10307 H 970.754 -2.48356 -1.92297 0
M  V30 10308 H 969.947 -4.82102 -1.46948 0
M  V30 10309 H 969.549 -3.73822 -0.115403 0
M  V30 10310 H 971.841 -6.62066 -1.43789 0
M  V30 10311 H 972.784 -7.08098 0.0151431 0
M  V30 10312 H 973.192 -5.57831 -0.865125 0
M  V30 10313 N 972.59 -0.333456 -1.54032 0
M  V30 10314 C 973.538 0.543414 -2.26163 0
M  V30 10315 C 974.532 1.11037 -1.27934 0
M  V30 10316 O 975.738 1.05727 -1.45677 0
M  V30 10317 H 972.113 0.19391 -0.726569 0
M  V30 10318 H 974.084 -0.0871052 -2.98273 0
M  V30 10319 C 972.833 1.68769 -3.03994 0
M  V30 10320 H 972.156 1.26069 -3.79403 0
M  V30 10321 H 973.596 2.27662 -3.57695 0
M  V30 10322 C 972.055 2.61117 -2.12884 0
M  V30 10323 O 972.585 3.63097 -1.71823 0
M  V30 10324 N 970.791 2.29573 -1.7817 0
M  V30 10325 H 970.338 1.46684 -2.11759 0
M  V30 10326 H 970.296 2.91622 -1.1749 0
M  V30 10327 N 974.068 1.57479 -0.061844 0
M  V30 10328 C 975.315 1.93108 0.60954 0
M  V30 10329 C 975.643 0.941086 1.70217 0
M  V30 10330 O 974.898 -0.044914 1.95648 0
M  V30 10331 C 975.197 3.35394 1.23474 0
M  V30 10332 C 974.863 4.50095 0.269247 0
M  V30 10333 C 973.525 4.812 0.00360316 0
M  V30 10334 C 975.877 5.19725 -0.391839 0
M  V30 10335 C 973.205 5.79276 -0.930383 0
M  V30 10336 C 975.557 6.18801 -1.31408 0
M  V30 10337 C 974.221 6.48328 -1.58829 0
M  V30 10338 H 973.491 0.706634 0.223046 0
M  V30 10339 H 976.138 1.91054 -0.1306 0
M  V30 10340 H 974.443 3.33866 2.05039 0
M  V30 10341 H 976.14 3.60247 1.76134 0
M  V30 10342 H 972.73 4.2583 0.486477 0
M  V30 10343 H 976.914 4.95898 -0.199713 0
M  V30 10344 H 972.17 6.00484 -1.15019 0
M  V30 10345 H 976.344 6.71862 -1.83234 0
M  V30 10346 H 973.971 7.24137 -2.31363 0
M  V30 10347 N 975.546 -0.211634 1.56173 0
M  V30 10348 C 976.962 -0.56177 1.49386 0
M  V30 10349 C 977.162 -1.86666 0.758813 0
M  V30 10350 O 976.218 -2.50681 0.302534 0
M  V30 10351 C 977.531 -0.631815 2.93987 0
M  V30 10352 C 979.079 -0.721773 3.04564 0
M  V30 10353 C 979.554 -0.823075 4.50544 0
M  V30 10354 N 981.045 -0.887038 4.54627 0
M  V30 10355 C 981.78 -0.985304 5.64871 0
M  V30 10356 N 981.276 -1.0469 6.84844 0
M  V30 10357 N 983.069 -1.02121 5.52746 0
M  V30 10358 H 975.22 0.64452 2.02385 0
M  V30 10359 H 977.483 0.227466 0.920306 0
M  V30 10360 H 977.189 0.257592 3.50755 0
M  V30 10361 H 977.063 -1.4921 3.46433 0
M  V30 10362 H 979.45 -1.60162 2.47855 0
M  V30 10363 H 979.531 0.164385 2.55271 0
M  V30 10364 H 979.175 0.0523511 5.07873 0
M  V30 10365 H 979.105 -1.72479 4.97552 0
M  V30 10366 H 981.596 -0.849352 3.68231 0
M  V30 10367 H 981.909 -1.12193 7.64613 0
M  V30 10368 H 980.254 -1.01586 6.87536 0
M  V30 10369 H 983.445 -0.969814 4.57943 0
M  V30 10370 H 983.618 -1.09434 6.38693 0
M  V30 10371 N 977.024 -1.50153 -0.478725 0
M  V30 10372 C 978.435 -1.53706 -1.05978 0
M  V30 10373 C 978.786 -0.336112 -1.933 0
M  V30 10374 O 977.911 0.551803 -2.09246 0
M  V30 10375 C 978.506 -2.78541 -1.92874 0
M  V30 10376 C 977.065 -2.848 -2.46102 0
M  V30 10377 C 976.212 -2.47902 -1.24257 0
M  V30 10378 H 979.163 -1.56528 -0.261664 0
M  V30 10379 H 979.184 -2.59964 -2.77847 0
M  V30 10380 H 978.696 -3.6593 -1.29293 0
M  V30 10381 H 976.797 -2.01744 -3.13257 0
M  V30 10382 H 976.91 -3.87511 -2.81731 0
M  V30 10383 H 975.274 -2.0017 -1.57493 0
M  V30 10384 H 976.057 -3.3759 -0.62351 0
M  V30 10385 N 978.502 0.731368 -1.39602 0
M  V30 10386 C 979.75 1.48805 -1.36753 0
M  V30 10387 C 980.071 1.94969 0.034676 0
M  V30 10388 O 979.341 1.69243 0.986591 0
M  V30 10389 H 977.921 0.55203 -0.503261 0
M  V30 10390 H 980.583 0.868013 -1.74504 0
M  V30 10391 H 979.679 2.36844 -2.03252 0
M  V30 10392 N 979.98 1.24838 0.961938 0
M  V30 10393 C 981.226 1.09313 1.70817 0
M  V30 10394 C 981.559 -0.366244 1.90715 0
M  V30 10395 O 980.834 -1.27036 1.47282 0
M  V30 10396 C 981.117 1.83988 3.09549 0
M  V30 10397 C 980.97 3.3771 2.97106 0
M  V30 10398 C 982.289 1.61718 4.09311 0
M  V30 10399 H 979.408 0.398498 0.619974 0
M  V30 10400 H 982.05 1.53579 1.11864 0
M  V30 10401 H 980.2 1.46363 3.59875 0
M  V30 10402 H 981.872 3.84967 2.54161 0
M  V30 10403 H 980.115 3.65795 2.33187 0
M  V30 10404 H 980.786 3.85166 3.95412 0
M  V30 10405 H 983.262 1.94458 3.67866 0
M  V30 10406 H 982.138 2.16415 5.04436 0
M  V30 10407 H 982.399 0.55677 4.3858 0
M  V30 10408 N 981.458 -1.16348 1.06306 0
M  V30 10409 C 982.388 -2.2291 0.695234 0
M  V30 10410 C 983.369 -1.67208 -0.312343 0
M  V30 10411 O 984.554 -1.93293 -0.187442 0
M  V30 10412 C 981.684 -3.47205 0.0810149 0
M  V30 10413 C 980.638 -4.15801 1.01458 0
M  V30 10414 C 979.964 -5.3405 0.263656 0
M  V30 10415 C 981.264 -4.66766 2.34365 0
M  V30 10416 H 982.958 -2.53934 1.58613 0
M  V30 10417 H 980.504 -1.22056 0.76409 0
M  V30 10418 H 982.457 -4.2098 -0.18818 0
M  V30 10419 H 981.181 -3.15482 -0.844897 0
M  V30 10420 H 979.84 -3.43954 1.26852 0
M  V30 10421 H 979.488 -4.9858 -0.665378 0
M  V30 10422 H 979.188 -5.80885 0.88582 0
M  V30 10423 H 980.712 -6.106 0.00200994 0
M  V30 10424 H 982.126 -5.3212 2.13356 0
M  V30 10425 H 980.523 -5.24223 2.9208 0
M  V30 10426 H 981.593 -3.82969 2.97426 0
M  V30 10427 N 982.937 -0.845659 -1.3299 0
M  V30 10428 C 984.162 -0.457435 -2.02293 0
M  V30 10429 C 984.587 0.935634 -1.63179 0
M  V30 10430 O 983.945 1.61297 -0.827835 0
M  V30 10431 C 983.993 -0.593665 -3.5568 0
M  V30 10432 O 983.097 0.37729 -4.10671 0
M  V30 10433 H 982.438 -0.185022 -0.637701 0
M  V30 10434 H 984.968 -1.14237 -1.69738 0
M  V30 10435 H 984.978 -0.477834 -4.05192 0
M  V30 10436 H 983.653 -1.60957 -3.83491 0
M  V30 10437 H 982.23 0.218448 -3.7226 0
M  V30 10438 N 984.415 1.45619 -0.602734 0
M  V30 10439 C 985.64 2.07157 -0.100429 0
M  V30 10440 C 986.065 1.44524 1.20393 0
M  V30 10441 O 985.423 0.536191 1.7319 0
M  V30 10442 C 985.471 3.60587 0.0308604 0
M  V30 10443 O 984.575 3.97944 1.08234 0
M  V30 10444 H 983.916 0.6601 -0.0718643 0
M  V30 10445 H 986.446 1.86948 -0.831366 0
M  V30 10446 H 986.456 4.07348 0.230634 0
M  V30 10447 H 985.131 4.05561 -0.921581 0
M  V30 10448 H 983.708 3.62862 0.859414 0
M  V30 10449 N 985.893 0.34162 1.53853 0
M  V30 10450 C 987.309 -0.0103769 1.59597 0
M  V30 10451 C 987.509 -1.48897 1.35764 0
M  V30 10452 O 986.565 -2.24743 1.15095 0
M  V30 10453 C 987.878 0.424067 2.97695 0
M  V30 10454 C 989.426 0.376247 3.1073 0
M  V30 10455 C 989.901 0.786129 4.51203 0
M  V30 10456 N 991.392 0.74024 4.57247 0
M  V30 10457 C 992.127 1.02937 5.64085 0
M  V30 10458 N 991.623 1.38655 6.78783 0
M  V30 10459 N 993.416 0.953734 5.5395 0
M  V30 10460 H 985.567 1.30477 1.67599 0
M  V30 10461 H 987.83 0.531753 0.78482 0
M  V30 10462 H 987.536 1.45493 3.20195 0
M  V30 10463 H 987.41 -0.201713 3.7666 0
M  V30 10464 H 989.797 -0.645441 2.87955 0
M  V30 10465 H 989.878 1.0372 2.33828 0
M  V30 10466 H 989.522 1.80582 4.74713 0
M  V30 10467 H 989.452 0.102671 5.265 0
M  V30 10468 H 991.943 0.476763 3.7488 0
M  V30 10469 H 992.256 1.59206 7.56223 0
M  V30 10470 H 990.601 1.42498 6.80235 0
M  V30 10471 H 993.792 0.674044 4.63222 0
M  V30 10472 H 993.965 1.18241 6.37121 0
M  V30 10473 N 987.371 -1.57444 0.0701946 0
M  V30 10474 C 988.303 -2.09611 -0.927142 0
M  V30 10475 C 989.316 -1.02791 -1.26245 0
M  V30 10476 O 990.505 -1.30309 -1.21992 0
M  V30 10477 C 987.605 -2.54015 -2.24342 0
M  V30 10478 C 986.778 -3.84389 -2.08719 0
M  V30 10479 C 985.837 -4.14904 -3.23638 0
M  V30 10480 O 984.863 -4.84528 -2.98699 0
M  V30 10481 N 986.065 -3.68322 -4.48686 0
M  V30 10482 H 988.83 -2.95803 -0.481753 0
M  V30 10483 H 986.391 -1.61487 -0.115572 0
M  V30 10484 H 988.383 -2.71492 -3.00124 0
M  V30 10485 H 986.953 -1.72969 -2.60385 0
M  V30 10486 H 986.173 -3.76308 -1.17415 0
M  V30 10487 H 987.461 -4.69729 -1.9553 0
M  V30 10488 H 986.859 -3.12073 -4.71834 0
M  V30 10489 H 985.416 -3.91002 -5.21499 0
M  V30 10490 N 988.849 0.203349 -1.56283 0
M  V30 10491 C 989.779 1.2549 -1.96912 0
M  V30 10492 C 990.76 1.47919 -0.839884 0
M  V30 10493 O 991.945 1.59795 -1.10359 0
M  V30 10494 C 989.075 2.6009 -2.30153 0
M  V30 10495 C 988.029 2.52289 -3.45738 0
M  V30 10496 C 987.355 3.91086 -3.64632 0
M  V30 10497 C 988.655 2.05503 -4.80173 0
M  V30 10498 H 990.349 0.917306 -2.85002 0
M  V30 10499 H 987.895 0.439818 -1.37119 0
M  V30 10500 H 989.848 3.33829 -2.5717 0
M  V30 10501 H 988.572 2.95574 -1.38937 0
M  V30 10502 H 987.231 1.81006 -3.18798 0
M  V30 10503 H 986.879 4.23908 -2.7076 0
M  V30 10504 H 986.579 3.86742 -4.42385 0
M  V30 10505 H 988.103 4.66459 -3.94016 0
M  V30 10506 H 989.517 2.68995 -5.06275 0
M  V30 10507 H 987.914 2.1218 -5.61337 0
M  V30 10508 H 988.984 1.00793 -4.74309 0
M  V30 10509 N 990.327 1.50405 0.470755 0
M  V30 10510 C 991.575 1.61092 1.2204 0
M  V30 10511 C 991.896 0.313487 1.92464 0
M  V30 10512 O 991.166 -0.669043 1.84121 0
M  V30 10513 H 989.746 0.593618 0.45346 0
M  V30 10514 H 992.408 1.87184 0.542985 0
M  V30 10515 H 991.504 2.42222 1.96812 0
M  V30 10516 N 991.805 -0.723954 1.39988 0
M  V30 10517 C 992.735 -1.85103 1.42335 0
M  V30 10518 C 993.716 -1.6769 0.285297 0
M  V30 10519 O 994.901 -1.87846 0.492716 0
M  V30 10520 C 992.031 -3.22972 1.27697 0
M  V30 10521 C 990.985 -3.55041 2.39018 0
M  V30 10522 C 990.311 -4.91965 2.09462 0
M  V30 10523 C 991.611 -3.56889 3.8135 0
M  V30 10524 H 993.305 -1.83396 2.36656 0
M  V30 10525 H 990.851 -0.880926 1.13911 0
M  V30 10526 H 992.804 -4.01503 1.27958 0
M  V30 10527 H 991.528 -3.25233 0.298487 0
M  V30 10528 H 990.187 -2.78845 2.37993 0
M  V30 10529 H 989.835 -4.90819 1.10025 0
M  V30 10530 H 989.535 -5.14389 2.84038 0
M  V30 10531 H 991.059 -5.7284 2.11391 0
M  V30 10532 H 992.473 -4.25476 3.84243 0
M  V30 10533 H 990.87 -3.90836 4.55376 0
M  V30 10534 H 991.94 -2.56452 4.11534 0
M  V30 10535 N 993.283 -1.25346 -0.955304 0
M  V30 10536 C 994.694 -1.09173 -1.51453 0
M  V30 10537 C 995.045 0.332755 -1.93358 0
M  V30 10538 O 994.17 1.22264 -1.78551 0
M  V30 10539 C 994.765 -1.97564 -2.75234 0
M  V30 10540 C 993.324 -1.85579 -3.27471 0
M  V30 10541 C 992.471 -1.91755 -2.00313 0
M  V30 10542 H 995.422 -1.38642 -0.772271 0
M  V30 10543 H 995.443 -1.51523 -3.49029 0
M  V30 10544 H 994.955 -3.01233 -2.44704 0
M  V30 10545 H 993.056 -0.847906 -3.62824 0
M  V30 10546 H 993.169 -2.70353 -3.95533 0
M  V30 10547 H 991.533 -1.35633 -2.15582 0
M  V30 10548 H 992.316 -2.97028 -1.72132 0
M  V30 10549 N 994.761 1.15782 -1.06922 0
M  V30 10550 C 996.009 1.86097 -0.788192 0
M  V30 10551 C 996.33 1.82475 0.687606 0
M  V30 10552 O 995.6 1.26266 1.49778 0
M  V30 10553 H 994.18 0.689008 -0.288577 0
M  V30 10554 H 996.842 1.40377 -1.35205 0
M  V30 10555 H 995.938 2.91358 -1.1188 0
M  V30 10556 N 996.239 0.8527 1.3254 0
M  V30 10557 C 997.65 0.510012 1.79599 0
M  V30 10558 C 998.001 -0.972002 1.70431 0
M  V30 10559 O 997.126 -1.7581 1.26173 0
M  V30 10560 C 997.721 0.918986 3.26098 0
M  V30 10561 C 996.28 0.628227 3.7112 0
M  V30 10562 C 995.427 1.11979 2.53685 0
M  V30 10563 H 998.378 1.04009 1.19866 0
M  V30 10564 H 998.399 0.234577 3.79776 0
M  V30 10565 H 997.911 1.99765 3.32739 0
M  V30 10566 H 996.012 -0.4398 3.69995 0
M  V30 10567 H 996.125 1.19315 4.64005 0
M  V30 10568 H 994.489 0.540133 2.48907 0
M  V30 10569 H 995.272 2.20552 2.63081 0
M  V30 10570 N 997.718 -1.45297 0.610449 0
M  V30 10571 C 999.129 -1.85715 0.191488 0
M  V30 10572 C 999.48 -1.51036 -1.25229 0
M  V30 10573 O 998.605 -0.938422 -1.94994 0
M  V30 10574 C 999.2 -3.37082 0.340747 0
M  V30 10575 C 997.759 -3.76393 -0.0235433 0
M  V30 10576 C 996.906 -2.69237 0.663849 0
M  V30 10577 H 999.857 -1.36058 0.816948 0
M  V30 10578 H 999.878 -3.78105 -0.426233 0
M  V30 10579 H 999.39 -3.62291 1.39164 0
M  V30 10580 H 997.491 -3.56801 -1.07351 0
M  V30 10581 H 997.604 -4.77653 0.372102 0
M  V30 10582 H 995.968 -2.54499 0.101204 0
M  V30 10583 H 996.751 -2.97281 1.71694 0
M  V30 10584 N 999.196 -0.349774 -1.5367 0
M  V30 10585 C 1000.47 0.300419 -1.93279 0
M  V30 10586 C 1000.85 1.67721 -1.28191 0
M  V30 10587 O 1000.2 2.24319 -0.435127 0
M  V30 10588 C 1000.41 0.366466 -3.47071 0
M  V30 10589 C 1001.76 0.614349 -4.20132 0
M  V30 10590 O 1002.78 0.448327 -3.53367 0
M  V30 10591 O 1001.64 0.936421 -5.38417 0
M  V30 10592 H 998.736 0.176599 -0.807924 0
M  V30 10593 H 1001.28 -0.401405 -1.64884 0
M  V30 10594 H 1000.05 -0.599455 -3.86681 0
M  V30 10595 H 999.677 1.11482 -3.81651 0
M  V30 10596 N 1000.67 1.57404 -0.0785433 0
M  V30 10597 C 1001.92 1.94031 0.589896 0
M  V30 10598 C 1002.25 0.959297 1.68852 0
M  V30 10599 O 1001.53 -0.0103978 1.94497 0
M  V30 10600 C 1001.81 3.40886 1.16055 0
M  V30 10601 C 1001.66 4.49748 0.0681072 0
M  V30 10602 C 1002.98 3.88699 2.06401 0
M  V30 10603 H 1000.1 0.70556 0.212965 0
M  V30 10604 H 1002.74 1.89439 -0.145886 0
M  V30 10605 H 1000.89 3.4493 1.78761 0
M  V30 10606 H 1002.57 4.57823 -0.565318 0
M  V30 10607 H 1000.81 4.29625 -0.600431 0
M  V30 10608 H 1001.48 5.49658 0.507906 0
M  V30 10609 H 1003.96 3.86703 1.53622 0
M  V30 10610 H 1002.83 4.92052 2.43261 0
M  V30 10611 H 1003.09 3.2703 2.97496 0
M  V30 10612 N 1002.15 -0.195058 1.56388 0
M  V30 10613 C 1003.56 -0.75973 1.70543 0
M  V30 10614 C 1003.91 -1.83849 0.685118 0
M  V30 10615 O 1003.04 -2.15819 -0.158457 0
M  V30 10616 C 1003.63 -1.38485 3.09204 0
M  V30 10617 C 1002.19 -1.89661 3.25124 0
M  V30 10618 C 1001.34 -0.766563 2.66494 0
M  V30 10619 H 1004.29 0.0300148 1.58672 0
M  V30 10620 H 1004.31 -2.25424 3.06536 0
M  V30 10621 H 1003.82 -0.599479 3.83442 0
M  V30 10622 H 1001.92 -2.70917 2.55802 0
M  V30 10623 H 1002.04 -2.05837 4.32629 0
M  V30 10624 H 1000.4 -1.18086 2.25672 0
M  V30 10625 H 1001.18 0.00657102 3.43299 0
M  V30 10626 N 1003.63 -1.50653 -0.462772 0
M  V30 10627 C 1004.91 -1.5258 -1.22387 0
M  V30 10628 C 1005.29 -0.275263 -2.09298 0
M  V30 10629 O 1004.63 0.740943 -2.16153 0
M  V30 10630 C 1004.84 -2.82611 -2.04773 0
M  V30 10631 C 1006.19 -3.33592 -2.62681 0
M  V30 10632 O 1007.22 -2.83989 -2.15008 0
M  V30 10633 O 1006.08 -4.20081 -3.49563 0
M  V30 10634 H 1003.17 -0.612367 -0.55582 0
M  V30 10635 H 1005.72 -1.62948 -0.473914 0
M  V30 10636 H 1004.49 -3.65098 -1.40781 0
M  V30 10637 H 1004.11 -2.75286 -2.86886 0
M  V30 10638 N 1005.11 0.71652 -1.4037 0
M  V30 10639 C 1006.06 1.82219 -1.37041 0
M  V30 10640 C 1007.04 1.58975 -0.248116 0
M  V30 10641 O 1008.23 1.70164 -0.487147 0
M  V30 10642 C 1005.36 3.20337 -1.23446 0
M  V30 10643 C 1004.45 3.49347 -2.40452 0
M  V30 10644 N 1004.84 3.49179 -3.65934 0
M  V30 10645 C 1003.14 3.798 -2.33811 0
M  V30 10646 C 1003.84 3.76506 -4.43416 0
M  V30 10647 N 1002.82 3.95209 -3.73244 0
M  V30 10648 H 1006.62 1.80421 -2.32003 0
M  V30 10649 H 1004.13 0.915603 -1.34129 0
M  V30 10650 H 1006.13 3.99513 -1.19143 0
M  V30 10651 H 1004.79 3.23362 -0.294497 0
M  V30 10652 H 1005.8 3.30051 -3.99107 0
M  V30 10653 H 1002.48 3.9032 -1.48177 0
M  V30 10654 H 1003.87 3.82689 -5.52267 0
M  V30 10655 N 1006.59 1.25851 0.948643 0
M  V30 10656 C 1007.55 1.0683 2.0278 0
M  V30 10657 C 1008.55 0.0191016 1.60789 0
M  V30 10658 O 1009.74 0.261836 1.72221 0
M  V30 10659 C 1006.87 0.623318 3.35153 0
M  V30 10660 H 1008.06 2.02635 2.21086 0
M  V30 10661 H 1005.62 1.08343 1.12657 0
M  V30 10662 H 1006.35 -0.337053 3.22544 0
M  V30 10663 H 1006.14 1.38082 3.66982 0
M  V30 10664 H 1007.63 0.511854 4.14451 0
M  V30 10665 N 1008.06 -1.15214 1.07534 0
M  V30 10666 C 1009.03 -2.18209 0.701237 0
M  V30 10667 C 1010.03 -1.58693 -0.25946 0
M  V30 10668 O 1011.22 -1.74154 -0.0401744 0
M  V30 10669 C 1008.35 -3.40883 0.0338703 0
M  V30 10670 H 1009.54 -2.5282 1.61314 0
M  V30 10671 H 1007.1 -1.29707 0.872105 0
M  V30 10672 H 1007.83 -3.11843 -0.890187 0
M  V30 10673 H 1007.62 -3.85342 0.72486 0
M  V30 10674 H 1009.11 -4.17056 -0.213152 0
M  V30 10675 N 1009.54 -0.859717 -1.32086 0
M  V30 10676 C 1010.77 -0.479028 -2.0097 0
M  V30 10677 C 1011.18 0.930242 -1.64752 0
M  V30 10678 O 1010.52 1.6193 -0.867437 0
M  V30 10679 C 1010.59 -0.54431 -3.55355 0
M  V30 10680 C 1010.25 -1.91337 -4.15017 0
M  V30 10681 C 1011.25 -2.87951 -4.32874 0
M  V30 10682 C 1008.93 -2.21189 -4.50977 0
M  V30 10683 C 1010.93 -4.12567 -4.85867 0
M  V30 10684 C 1008.61 -3.46057 -5.03674 0
M  V30 10685 C 1009.61 -4.41562 -5.21068 0
M  V30 10686 O 1009.3 -5.64218 -5.72637 0
M  V30 10687 H 1009.03 -0.186161 -0.649861 0
M  V30 10688 H 1011.58 -1.15976 -1.69525 0
M  V30 10689 H 1009.81 0.1933 -3.86217 0
M  V30 10690 H 1011.5 -0.178506 -4.05507 0
M  V30 10691 H 1012.27 -2.66194 -4.05421 0
M  V30 10692 H 1008.15 -1.47635 -4.36721 0
M  V30 10693 H 1011.69 -4.8712 -4.99359 0
M  V30 10694 H 1007.59 -3.67662 -5.30561 0
M  V30 10695 H 1008.36 -5.66246 -5.91023 0
M  V30 10696 N 1011.02 1.44971 -0.618145 0
M  V30 10697 C 1011.97 2.27704 0.116119 0
M  V30 10698 C 1012.95 1.37927 0.828558 0
M  V30 10699 O 1014.15 1.61836 0.716806 0
M  V30 10700 C 1011.28 3.25004 1.10578 0
M  V30 10701 C 1010.36 4.22269 0.39364 0
M  V30 10702 N 1010.75 5.02571 -0.570581 0
M  V30 10703 C 1009.05 4.41387 0.639809 0
M  V30 10704 C 1009.75 5.73211 -0.990144 0
M  V30 10705 N 1008.73 5.42587 -0.331653 0
M  V30 10706 H 1012.53 2.87193 -0.624295 0
M  V30 10707 H 1010.04 1.56252 -0.442631 0
M  V30 10708 H 1012.04 3.83017 1.64631 0
M  V30 10709 H 1010.7 2.67075 1.84664 0
M  V30 10710 H 1011.71 5.09153 -0.947814 0
M  V30 10711 H 1008.39 3.94572 1.36453 0
M  V30 10712 H 1009.78 6.47728 -1.78601 0
M  V30 10713 N 1012.5 0.357919 1.53482 0
M  V30 10714 C 1013.91 -0.122938 1.86295 0
M  V30 10715 C 1014.26 -1.48803 1.27875 0
M  V30 10716 O 1013.39 -2.07978 0.597828 0
M  V30 10717 C 1013.98 -0.229853 3.38019 0
M  V30 10718 C 1012.54 -0.654955 3.70658 0
M  V30 10719 C 1011.69 0.202539 2.76559 0
M  V30 10720 H 1014.64 0.576997 1.47839 0
M  V30 10721 H 1014.66 -1.05481 3.65587 0
M  V30 10722 H 1014.17 0.763825 3.80509 0
M  V30 10723 H 1012.27 -1.65714 3.33721 0
M  V30 10724 H 1012.38 -0.43488 4.77122 0
M  V30 10725 H 1010.75 -0.327388 2.52587 0
M  V30 10726 H 1011.53 1.19361 3.21882 0
M  V30 10727 N 1013.98 -1.5736 0.0868897 0
M  V30 10728 C 1015.22 -1.94054 -0.578741 0
M  V30 10729 C 1015.55 -0.968047 -1.68698 0
M  V30 10730 O 1014.81 0.0137824 -1.95695 0
M  V30 10731 C 1015.11 -3.37316 -1.18123 0
M  V30 10732 C 1014.77 -4.50467 -0.197607 0
M  V30 10733 C 1013.43 -4.81145 0.072952 0
M  V30 10734 C 1015.79 -5.19036 0.474473 0
M  V30 10735 C 1013.11 -5.77723 1.02242 0
M  V30 10736 C 1015.47 -6.16632 1.41236 0
M  V30 10737 C 1014.13 -6.45719 1.69124 0
M  V30 10738 H 1013.4 -0.710093 -0.211776 0
M  V30 10739 H 1016.05 -1.90822 0.160978 0
M  V30 10740 H 1014.35 -3.37085 -1.99701 0
M  V30 10741 H 1016.05 -3.63003 -1.7038 0
M  V30 10742 H 1012.64 -4.2655 -0.418669 0
M  V30 10743 H 1016.82 -4.95518 0.278581 0
M  V30 10744 H 1012.08 -5.98578 1.24557 0
M  V30 10745 H 1016.25 -6.68862 1.939 0
M  V30 10746 H 1013.88 -7.20365 2.42855 0
M  V30 10747 N 1015.45 0.186762 -1.56489 0
M  V30 10748 C 1016.87 0.537933 -1.50261 0
M  V30 10749 C 1017.07 1.85435 -0.788414 0
M  V30 10750 O 1016.13 2.50168 -0.342377 0
M  V30 10751 C 1017.44 0.584965 -2.94955 0
M  V30 10752 C 1018.99 0.673228 -3.05674 0
M  V30 10753 C 1019.46 0.751294 -4.51796 0
M  V30 10754 N 1020.95 0.814599 -4.55981 0
M  V30 10755 C 1021.69 0.895313 -5.66367 0
M  V30 10756 N 1021.18 0.937814 -6.86423 0
M  V30 10757 N 1022.98 0.933145 -5.543 0
M  V30 10758 H 1015.13 -0.676636 -2.01334 0
M  V30 10759 H 1017.39 -0.242079 -0.916571 0
M  V30 10760 H 1017.1 -0.313361 -3.50301 0
M  V30 10761 H 1016.97 1.4368 -3.48763 0
M  V30 10762 H 1019.36 1.56198 -2.50372 0
M  V30 10763 H 1019.44 -0.204976 -2.54977 0
M  V30 10764 H 1019.08 -0.133143 -5.07725 0
M  V30 10765 H 1019.01 1.64542 -5.00233 0
M  V30 10766 H 1021.5 0.790662 -3.69536 0
M  V30 10767 H 1021.82 1.00015 -7.66301 0
M  V30 10768 H 1020.16 0.906351 -6.89065 0
M  V30 10769 H 1023.35 0.896836 -4.59428 0
M  V30 10770 H 1023.53 0.992588 -6.40353 0
M  V30 10771 N 1016.93 1.50896 0.454776 0
M  V30 10772 C 1018.35 1.38684 0.78987 0
M  V30 10773 C 1018.55 0.455587 1.96282 0
M  V30 10774 O 1017.6 -0.0957503 2.52318 0
M  V30 10775 C 1018.92 2.80381 1.08661 0
M  V30 10776 C 1020.47 2.8941 1.19209 0
M  V30 10777 C 1020.94 4.31976 1.52187 0
M  V30 10778 N 1022.43 4.35002 1.59146 0
M  V30 10779 C 1023.17 5.42326 1.862 0
M  V30 10780 N 1022.66 6.59835 2.11164 0
M  V30 10781 N 1024.46 5.29786 1.87838 0
M  V30 10782 H 1016.61 2.10006 -0.317981 0
M  V30 10783 H 1018.87 0.944636 -0.0797969 0
M  V30 10784 H 1018.58 3.50438 0.297626 0
M  V30 10785 H 1018.45 3.18634 2.01872 0
M  V30 10786 H 1020.84 2.19561 1.97173 0
M  V30 10787 H 1020.92 2.54677 0.239401 0
M  V30 10788 H 1020.56 5.02368 0.747576 0
M  V30 10789 H 1020.49 4.64208 2.48633 0
M  V30 10790 H 1022.98 3.50276 1.41828 0
M  V30 10791 H 1023.3 7.37428 2.31128 0
M  V30 10792 H 1021.64 6.62981 2.08522 0
M  V30 10793 H 1024.83 4.36974 1.67843 0
M  V30 10794 H 1025 6.13511 2.08585 0
M  V30 10795 N 1018.41 -0.709066 1.40748 0
M  V30 10796 C 1019.34 -1.83583 1.4429 0
M  V30 10797 C 1020.32 -1.67378 0.303067 0
M  V30 10798 O 1021.51 -1.87312 0.512612 0
M  V30 10799 C 1018.64 -3.21599 1.31116 0
M  V30 10800 C 1017.59 -3.52486 2.4277 0
M  V30 10801 C 1016.92 -4.89716 2.14668 0
M  V30 10802 C 1018.22 -3.52824 3.85113 0
M  V30 10803 H 1019.91 -1.80876 2.38588 0
M  V30 10804 H 1017.46 -0.868795 1.14839 0
M  V30 10805 H 1019.41 -4.00123 1.32209 0
M  V30 10806 H 1018.13 -3.24898 0.332965 0
M  V30 10807 H 1016.79 -2.76305 2.40937 0
M  V30 10808 H 1016.44 -4.89625 1.15224 0
M  V30 10809 H 1016.14 -5.11347 2.89478 0
M  V30 10810 H 1017.66 -5.70566 2.17455 0
M  V30 10811 H 1019.08 -4.21377 3.88734 0
M  V30 10812 H 1017.48 -3.85984 4.59496 0
M  V30 10813 H 1018.55 -2.52073 4.14231 0
M  V30 10814 N 1019.89 -1.26353 -0.941956 0
M  V30 10815 C 1020.85 -1.07904 -2.02211 0
M  V30 10816 C 1021.85 -0.0276283 -1.60776 0
M  V30 10817 O 1023.04 -0.270965 -1.7208 0
M  V30 10818 C 1020.17 -0.641084 -3.34818 0
M  V30 10819 H 1021.37 -2.03804 -2.20009 0
M  V30 10820 H 1018.92 -1.08939 -1.12081 0
M  V30 10821 H 1019.66 0.319943 -3.22718 0
M  V30 10822 H 1019.44 -1.40027 -3.66244 0
M  V30 10823 H 1020.93 -0.533826 -4.14174 0
M  V30 10824 N 1021.37 1.14642 -1.08144 0
M  V30 10825 C 1022.62 1.84964 -0.804437 0
M  V30 10826 C 1022.93 1.8369 0.672106 0
M  V30 10827 O 1024.14 2.49775 1.06417 0
M  V30 10828 C 1022.59 3.32015 -1.38904 0
M  V30 10829 C 1022.2 3.41713 -2.89718 0
M  V30 10830 C 1023.94 4.07467 -1.19041 0
M  V30 10831 C 1021.85 4.82958 -3.41329 0
M  V30 10832 H 1020.78 0.692932 -0.297256 0
M  V30 10833 H 1023.43 1.29255 -1.30251 0
M  V30 10834 H 1021.81 3.87445 -0.818679 0
M  V30 10835 H 1022.99 2.96347 -3.52867 0
M  V30 10836 H 1021.3 2.79713 -3.08463 0
M  V30 10837 H 1023.9 5.1172 -1.55069 0
M  V30 10838 H 1024.24 4.16097 -0.130027 0
M  V30 10839 H 1024.78 3.58329 -1.72757 0
M  V30 10840 H 1021.51 4.79515 -4.46929 0
M  V30 10841 H 1021.03 5.28873 -2.82937 0
M  V30 10842 H 1022.71 5.51841 -3.37759 0
M  V30 10843 N 1022.85 0.866709 1.31628 0
M  V30 10844 C 1023.78 0.335762 2.31073 0
M  V30 10845 C 1024.76 -0.571597 1.60209 0
M  V30 10846 O 1025.94 -0.489306 1.87935 0
M  V30 10847 C 1023.07 -0.466416 3.44154 0
M  V30 10848 C 1022.03 0.347561 4.26586 0
M  V30 10849 C 1021.35 -0.5801 5.31544 0
M  V30 10850 C 1022.65 1.57986 4.97833 0
M  V30 10851 H 1024.35 1.16673 2.75731 0
M  V30 10852 H 1021.89 0.56248 1.3256 0
M  V30 10853 H 1023.84 -0.84836 4.12772 0
M  V30 10854 H 1022.57 -1.33086 2.98254 0
M  V30 10855 H 1021.23 0.71141 3.59631 0
M  V30 10856 H 1020.88 -1.44174 4.81895 0
M  V30 10857 H 1020.58 -0.0393965 5.87587 0
M  V30 10858 H 1022.1 -0.958958 6.03023 0
M  V30 10859 H 1023.51 1.26954 5.59067 0
M  V30 10860 H 1021.91 2.05939 5.63657 0
M  V30 10861 H 1022.98 2.3345 4.25005 0
M  V30 10862 N 1024.32 -1.44642 0.625825 0
M  V30 10863 C 1025.73 -1.85502 0.211175 0
M  V30 10864 C 1026.09 -1.52356 -1.2362 0
M  V30 10865 O 1025.21 -0.959051 -1.93988 0
M  V30 10866 C 1025.81 -3.36702 0.37648 0
M  V30 10867 C 1024.36 -3.76396 0.0163795 0
M  V30 10868 C 1023.51 -2.68517 0.692368 0
M  V30 10869 H 1026.46 -1.35183 0.831333 0
M  V30 10870 H 1026.48 -3.78536 -0.386106 0
M  V30 10871 H 1026 -3.60795 1.42999 0
M  V30 10872 H 1024.1 -3.57919 -1.0356 0
M  V30 10873 H 1024.21 -4.77231 0.422742 0
M  V30 10874 H 1022.57 -2.54377 0.128191 0
M  V30 10875 H 1023.36 -2.95444 1.74837 0
M  V30 10876 N 1025.8 -0.366053 -1.5329 0
M  V30 10877 C 1026.76 0.467904 -2.24373 0
M  V30 10878 C 1027.76 1.00934 -1.25176 0
M  V30 10879 O 1028.95 0.895015 -1.49449 0
M  V30 10880 C 1026.09 1.65405 -2.98084 0
M  V30 10881 H 1027.28 -0.154105 -2.99504 0
M  V30 10882 H 1024.83 -0.117751 -1.55856 0
M  V30 10883 H 1025.57 2.31413 -2.27197 0
M  V30 10884 H 1025.35 1.27277 -3.70868 0
M  V30 10885 H 1026.84 2.24503 -3.52119 0
M  V30 10886 N 1027.28 1.57312 -0.0952337 0
M  V30 10887 C 1028.5 1.99119 0.580206 0
M  V30 10888 C 1028.93 0.973955 1.60922 0
M  V30 10889 O 1028.29 -0.0575338 1.81209 0
M  V30 10890 C 1028.34 3.39893 1.20438 0
M  V30 10891 O 1027.44 3.40941 2.32019 0
M  V30 10892 H 1026.78 0.64748 0.147195 0
M  V30 10893 H 1029.31 2.03836 -0.176686 0
M  V30 10894 H 1029.32 3.7759 1.54564 0
M  V30 10895 H 1028 4.13453 0.450514 0
M  V30 10896 H 1026.57 3.1504 1.9951 0
M  V30 10897 N 1028.76 -0.17846 1.56586 0
M  V30 10898 C 1029.72 -1.20479 1.94981 0
M  V30 10899 C 1030.72 -1.37561 0.832677 0
M  V30 10900 O 1031.91 -1.35089 1.09984 0
M  V30 10901 C 1029.04 -2.57117 2.23839 0
M  V30 10902 H 1030.24 -0.876173 2.86816 0
M  V30 10903 H 1027.79 -0.420635 1.50534 0
M  V30 10904 H 1028.52 -2.95005 1.34695 0
M  V30 10905 H 1028.31 -2.46086 3.05261 0
M  V30 10906 H 1029.8 -3.31096 2.5449 0
M  V30 10907 N 1030.24 -1.51135 -0.446768 0
M  V30 10908 C 1031.65 -1.55919 -1.02694 0
M  V30 10909 C 1032 -0.377038 -1.92543 0
M  V30 10910 O 1031.12 0.507295 -2.1037 0
M  V30 10911 C 1031.72 -2.8257 -1.86922 0
M  V30 10912 C 1030.28 -2.89956 -2.40005 0
M  V30 10913 C 1029.42 -2.50482 -1.18971 0
M  V30 10914 H 1032.37 -1.57048 -0.228403 0
M  V30 10915 H 1032.4 -2.65799 -2.7227 0
M  V30 10916 H 1031.91 -3.6859 -1.21502 0
M  V30 10917 H 1030.01 -2.08343 -3.08907 0
M  V30 10918 H 1030.12 -3.93399 -2.73448 0
M  V30 10919 H 1028.49 -2.03466 -1.53211 0
M  V30 10920 H 1029.27 -3.38837 -0.551762 0
M  V30 10921 N 1031.71 0.701592 -1.41122 0
M  V30 10922 C 1033.12 1.28129 -1.35793 0
M  V30 10923 C 1033.48 1.96163 -0.0381185 0
M  V30 10924 O 1032.6 1.98416 0.863723 0
M  V30 10925 C 1033.2 2.33005 -2.45955 0
M  V30 10926 C 1031.75 2.86566 -2.44043 0
M  V30 10927 C 1030.9 1.60526 -2.26112 0
M  V30 10928 H 1033.85 0.496756 -1.50725 0
M  V30 10929 H 1033.87 3.14163 -2.14667 0
M  V30 10930 H 1033.39 1.8346 -3.42 0
M  V30 10931 H 1031.49 3.40304 -1.51737 0
M  V30 10932 H 1031.6 3.37406 -3.40138 0
M  V30 10933 H 1029.96 1.86113 -1.7388 0
M  V30 10934 H 1030.75 1.12985 -3.24175 0
M  V30 10935 N 1033.19 1.2685 0.935242 0
M  V30 10936 C 1034.15 1.08975 2.01636 0
M  V30 10937 C 1035.15 0.0361543 1.60759 0
M  V30 10938 O 1036.34 0.280087 1.71934 0
M  V30 10939 C 1033.48 0.658831 3.34473 0
M  V30 10940 H 1034.67 2.04968 2.18925 0
M  V30 10941 H 1032.22 1.09531 1.11501 0
M  V30 10942 H 1032.96 -0.302824 3.22883 0
M  V30 10943 H 1032.74 1.41967 3.65497 0
M  V30 10944 H 1034.23 0.555783 4.13885 0
M  V30 10945 N 1034.67 -1.14067 1.0875 0
M  V30 10946 C 1035.9 -1.89041 0.840902 0
M  V30 10947 C 1036.31 -1.78768 -0.60725 0
M  V30 10948 O 1035.67 -1.14945 -1.41753 0
M  V30 10949 C 1035.72 -3.38891 1.25838 0
M  V30 10950 O 1035.44 -3.48886 2.64972 0
M  V30 10951 C 1036.94 -4.30852 1.04315 0
M  V30 10952 H 1034.16 -0.598685 0.303014 0
M  V30 10953 H 1036.71 -1.44438 1.44769 0
M  V30 10954 H 1034.86 -3.81103 0.695627 0
M  V30 10955 H 1035.28 -4.41989 2.82393 0
M  V30 10956 H 1036.75 -5.34353 1.38461 0
M  V30 10957 H 1037.23 -4.39196 -0.0195784 0
M  V30 10958 H 1037.83 -3.944 1.59151 0
M  V30 10959 N 1036.15 -0.873678 -1.31166 0
M  V30 10960 C 1037.37 -0.500242 -2.01277 0
M  V30 10961 C 1037.8 0.900811 -1.65127 0
M  V30 10962 O 1037.16 1.59504 -0.861862 0
M  V30 10963 C 1037.2 -0.668976 -3.5434 0
M  V30 10964 O 1036.31 0.290096 -4.11378 0
M  V30 10965 H 1035.65 -0.198507 -0.633633 0
M  V30 10966 H 1038.18 -1.17811 -1.67277 0
M  V30 10967 H 1038.19 -0.563673 -4.04088 0
M  V30 10968 H 1036.86 -1.69055 -3.79991 0
M  V30 10969 H 1035.44 0.139437 -3.72639 0
M  V30 10970 N 1037.63 1.44308 -0.633487 0
M  V30 10971 C 1038.57 2.32455 0.0821956 0
M  V30 10972 C 1039.57 1.47482 0.833388 0
M  V30 10973 O 1040.77 1.63812 0.746021 0
M  V30 10974 H 1037.15 0.750631 0.045352 0
M  V30 10975 H 1039.12 2.90566 -0.679282 0
M  V30 10976 C 1037.87 3.31512 1.04858 0
M  V30 10977 H 1037.19 3.96908 0.479979 0
M  V30 10978 H 1038.63 3.95865 1.51879 0
M  V30 10979 C 1037.09 2.60615 2.13498 0
M  V30 10980 O 1037.62 2.40682 3.21613 0
M  V30 10981 N 1035.83 2.20315 1.89499 0
M  V30 10982 H 1035.37 2.36726 1.01581 0
M  V30 10983 H 1035.33 1.73205 2.62388 0
M  V30 10984 N 1039.1 0.374177 1.53094 0
M  V30 10985 C 1040.52 -0.103172 1.86415 0
M  V30 10986 C 1040.87 -1.47439 1.29446 0
M  V30 10987 O 1039.99 -2.07333 0.619853 0
M  V30 10988 C 1040.59 -0.193988 3.38244 0
M  V30 10989 C 1039.15 -0.615605 3.71332 0
M  V30 10990 C 1038.29 0.23186 2.76329 0
M  V30 10991 H 1041.24 0.592644 1.47219 0
M  V30 10992 H 1041.26 -1.01597 3.66686 0
M  V30 10993 H 1040.78 0.80414 3.79678 0
M  V30 10994 H 1038.88 -1.62165 3.3546 0
M  V30 10995 H 1038.99 -0.38425 4.77557 0
M  V30 10996 H 1037.35 -0.300579 2.5292 0
M  V30 10997 H 1038.14 1.22769 3.20597 0
M  V30 10998 N 1040.58 -1.57259 0.103575 0
M  V30 10999 C 1041.86 -1.86143 -0.600852 0
M  V30 11000 C 1042.24 -1.00198 -1.85805 0
M  V30 11001 O 1041.59 -0.0766791 -2.28371 0
M  V30 11002 C 1041.8 -3.36978 -0.908108 0
M  V30 11003 C 1043.15 -4.05228 -1.26788 0
M  V30 11004 O 1044.17 -3.41908 -0.998859 0
M  V30 11005 O 1043.03 -5.16971 -1.7721 0
M  V30 11006 H 1040.12 -0.770064 -0.301547 0
M  V30 11007 H 1042.67 -1.69147 0.136914 0
M  V30 11008 H 1041.44 -3.91296 -0.0165615 0
M  V30 11009 H 1041.06 -3.5935 -1.70156 0
M  V30 11010 N 1042.06 0.170153 -1.56679 0
M  V30 11011 C 1043.47 0.732502 -1.7173 0
M  V30 11012 C 1043.82 1.82736 -0.71428 0
M  V30 11013 O 1042.95 2.16044 0.124102 0
M  V30 11014 C 1043.54 1.33548 -3.11368 0
M  V30 11015 C 1042.1 1.84464 -3.281 0
M  V30 11016 C 1041.25 0.724069 -2.6768 0
M  V30 11017 H 1044.2 -0.0552543 -1.58604 0
M  V30 11018 H 1044.22 2.20519 -3.10083 0
M  V30 11019 H 1043.73 0.5384 -3.84347 0
M  V30 11020 H 1041.83 2.66813 -2.6008 0
M  V30 11021 H 1041.95 1.98928 -4.35849 0
M  V30 11022 H 1040.31 1.14481 -2.27522 0
M  V30 11023 H 1041.09 -0.0611861 -3.43245 0
M  V30 11024 N 1043.54 1.5137 0.438746 0
M  V30 11025 C 1044.5 1.71993 1.51496 0
M  V30 11026 C 1045.5 0.589978 1.49586 0
M  V30 11027 O 1046.69 0.857505 1.51633 0
M  V30 11028 C 1043.82 1.77508 2.91039 0
M  V30 11029 H 1045.02 2.68041 1.34514 0
M  V30 11030 H 1042.57 1.41338 0.667326 0
M  V30 11031 H 1043.3 0.832698 3.13427 0
M  V30 11032 H 1043.09 2.59627 2.9383 0
M  V30 11033 H 1044.58 1.95308 3.69113 0
M  V30 11034 N 1045.02 -0.694098 1.41492 0
M  V30 11035 C 1046.26 -1.4563 1.41137 0
M  V30 11036 C 1046.6 -1.94189 0.0208428 0
M  V30 11037 O 1045.87 -1.69628 -0.951655 0
M  V30 11038 C 1046.15 -2.66714 2.41941 0
M  V30 11039 C 1046.01 -2.23912 3.90107 0
M  V30 11040 C 1047.33 -3.68913 2.39981 0
M  V30 11041 H 1044.44 -0.52821 0.513968 0
M  V30 11042 H 1047.09 -0.790437 1.72778 0
M  V30 11043 H 1045.24 -3.23525 2.1509 0
M  V30 11044 H 1046.91 -1.72417 4.27867 0
M  V30 11045 H 1045.15 -1.5568 4.04903 0
M  V30 11046 H 1045.82 -3.108 4.56188 0
M  V30 11047 H 1048.3 -3.21779 2.63813 0
M  V30 11048 H 1047.17 -4.51242 3.12524 0
M  V30 11049 H 1047.44 -4.18711 1.41892 0
M  V30 11050 N 1046.49 -1.27344 -0.928501 0
M  V30 11051 C 1047.72 -1.16557 -1.7155 0
M  V30 11052 C 1048.14 0.274044 -1.86093 0
M  V30 11053 O 1047.5 1.19847 -1.36038 0
M  V30 11054 C 1047.55 -1.85332 -3.09329 0
M  V30 11055 O 1046.65 -1.15074 -3.9602 0
M  V30 11056 H 1046 -0.405423 -0.525859 0
M  V30 11057 H 1048.53 -1.68399 -1.16202 0
M  V30 11058 H 1048.54 -1.92659 -3.59648 0
M  V30 11059 H 1047.21 -2.90056 -2.98061 0
M  V30 11060 H 1045.79 -1.1581 -3.54461 0
M  V30 11061 N 1047.97 1.13488 -1.09353 0
M  V30 11062 C 1049.39 1.36739 -0.823086 0
M  V30 11063 C 1049.59 1.93476 0.562963 0
M  V30 11064 O 1048.64 2.15374 1.31796 0
M  V30 11065 C 1049.96 2.31943 -1.91371 0
M  V30 11066 C 1051.51 2.4556 -1.94085 0
M  V30 11067 C 1051.98 3.44072 -3.02289 0
M  V30 11068 N 1053.47 3.51622 -3.01524 0
M  V30 11069 C 1054.21 4.27724 -3.8189 0
M  V30 11070 N 1053.7 5.06987 -4.72161 0
M  V30 11071 N 1055.5 4.23018 -3.70152 0
M  V30 11072 H 1047.65 0.75012 -1.98713 0
M  V30 11073 H 1049.91 0.392564 -0.862901 0
M  V30 11074 H 1049.62 1.97408 -2.91072 0
M  V30 11075 H 1049.49 3.31952 -1.79131 0
M  V30 11076 H 1051.88 2.79382 -0.950234 0
M  V30 11077 H 1051.96 1.45479 -2.10403 0
M  V30 11078 H 1051.6 3.10981 -4.01564 0
M  V30 11079 H 1051.53 4.43956 -2.83214 0
M  V30 11080 H 1054.02 2.95066 -2.36103 0
M  V30 11081 H 1054.34 5.6236 -5.30067 0
M  V30 11082 H 1052.68 5.06222 -4.76197 0
M  V30 11083 H 1055.87 3.60171 -2.98989 0
M  V30 11084 H 1056.04 4.82075 -4.33022 0
M  V30 11085 N 1049.45 0.880621 1.30701 0
M  V30 11086 C 1050.7 0.497611 1.966 0
M  V30 11087 C 1051.03 -0.949901 1.69383 0
M  V30 11088 O 1050.31 -1.67054 0.996152 0
M  V30 11089 C 1050.59 0.767919 3.51817 0
M  V30 11090 C 1050.44 2.26574 3.88567 0
M  V30 11091 C 1051.76 0.241502 4.39437 0
M  V30 11092 H 1048.88 0.182267 0.714106 0
M  V30 11093 H 1051.52 1.10382 1.54648 0
M  V30 11094 H 1049.67 0.251967 3.87682 0
M  V30 11095 H 1051.34 2.84977 3.62748 0
M  V30 11096 H 1049.59 2.73411 3.36792 0
M  V30 11097 H 1050.26 2.40549 4.9683 0
M  V30 11098 H 1052.73 0.683051 4.10455 0
M  V30 11099 H 1051.61 0.459997 5.46969 0
M  V30 11100 H 1051.87 -0.857068 4.33713 0
M  V30 11101 N 1050.93 -1.4397 0.641131 0
M  V30 11102 C 1051.86 -2.27948 -0.10731 0
M  V30 11103 C 1052.84 -1.39124 -0.841615 0
M  V30 11104 O 1054.02 -1.68566 -0.843662 0
M  V30 11105 C 1051.15 -3.18277 -1.15835 0
M  V30 11106 C 1050.2 -4.23276 -0.52345 0
M  V30 11107 S 1051.03 -5.30984 0.693969 0
M  V30 11108 C 1052.19 -6.24882 -0.356831 0
M  V30 11109 H 1052.42 -2.91077 0.605083 0
M  V30 11110 H 1049.95 -1.48303 0.429598 0
M  V30 11111 H 1051.91 -3.70867 -1.75977 0
M  V30 11112 H 1050.57 -2.54348 -1.84299 0
M  V30 11113 H 1049.76 -4.86533 -1.31536 0
M  V30 11114 H 1049.37 -3.74 0.00358355 0
M  V30 11115 H 1051.66 -6.66305 -1.22653 0
M  V30 11116 H 1052.6 -7.07692 0.240412 0
M  V30 11117 H 1053.01 -5.60301 -0.687217 0
M  V30 11118 N 1052.41 -0.382291 -1.52893 0
M  V30 11119 C 1053.36 0.471187 -2.27778 0
M  V30 11120 C 1054.35 1.0691 -1.31402 0
M  V30 11121 O 1055.56 1.01038 -1.48967 0
M  V30 11122 H 1051.93 0.170696 -0.732371 0
M  V30 11123 H 1053.9 -0.181954 -2.97845 0
M  V30 11124 C 1052.65 1.59012 -3.09209 0
M  V30 11125 H 1051.97 1.13935 -3.83222 0
M  V30 11126 H 1053.41 2.16167 -3.64757 0
M  V30 11127 C 1051.87 2.54212 -2.21084 0
M  V30 11128 O 1052.4 3.57447 -1.83288 0
M  V30 11129 N 1050.61 2.23789 -1.85383 0
M  V30 11130 H 1050.16 1.39872 -2.16318 0
M  V30 11131 H 1050.11 2.87737 -1.26708 0
M  V30 11132 N 1053.89 1.57202 -0.111913 0
M  V30 11133 C 1054.82 2.10634 0.877983 0
M  V30 11134 C 1055.8 1.02098 1.26549 0
M  V30 11135 O 1056.98 1.29707 1.36779 0
M  V30 11136 C 1054.11 2.59721 2.174 0
M  V30 11137 C 1053.15 3.80074 1.93509 0
M  V30 11138 S 1053.99 5.22834 1.1578 0
M  V30 11139 C 1055.14 5.75284 2.46576 0
M  V30 11140 H 1055.38 2.94268 0.423483 0
M  V30 11141 H 1052.91 1.54065 0.101721 0
M  V30 11142 H 1054.87 2.88657 2.91868 0
M  V30 11143 H 1053.53 1.76281 2.59969 0
M  V30 11144 H 1052.72 4.12545 2.89522 0
M  V30 11145 H 1052.32 3.51718 1.27164 0
M  V30 11146 H 1054.61 5.84576 3.42457 0
M  V30 11147 H 1055.56 6.73493 2.1866 0
M  V30 11148 H 1055.97 5.03308 2.55619 0
M  V30 11149 N 1055.36 -0.161842 1.56767 0
M  V30 11150 C 1056.31 -1.2002 1.97139 0
M  V30 11151 C 1057.28 -1.43486 0.836713 0
M  V30 11152 O 1058.47 -1.56069 1.0976 0
M  V30 11153 C 1055.61 -2.53228 2.34456 0
M  V30 11154 C 1054.72 -2.37062 3.61145 0
M  V30 11155 C 1053.85 -3.63202 3.87631 0
M  V30 11156 C 1052.89 -3.42008 5.07638 0
M  V30 11157 N 1052.03 -4.60242 5.30209 0
M  V30 11158 H 1056.87 -0.848918 2.85653 0
M  V30 11159 H 1054.41 -0.407753 1.41336 0
M  V30 11160 H 1056.36 -3.30879 2.54116 0
M  V30 11161 H 1054.99 -2.86333 1.4904 0
M  V30 11162 H 1054.05 -1.50539 3.49345 0
M  V30 11163 H 1055.36 -2.17353 4.48953 0
M  V30 11164 H 1054.51 -4.49285 4.0771 0
M  V30 11165 H 1053.25 -3.85899 2.98216 0
M  V30 11166 H 1052.26 -2.54312 4.87448 0
M  V30 11167 H 1053.48 -3.20724 5.98593 0
M  V30 11168 H 1051.43 -4.8314 4.43747 0
M  V30 11169 H 1051.34 -4.43481 6.12259 0
M  V30 11170 H 1052.61 -5.47581 5.54775 0
M  V30 11171 N 1056.84 -1.516 -0.430713 0
M  V30 11172 C 1058.09 -1.63829 -1.17657 0
M  V30 11173 C 1058.4 -0.363605 -1.92191 0
M  V30 11174 O 1059.61 -0.365358 -2.6903 0
M  V30 11175 C 1058.07 -2.89357 -2.14011 0
M  V30 11176 C 1057.67 -4.23854 -1.45094 0
M  V30 11177 C 1059.42 -3.10944 -2.88988 0
M  V30 11178 C 1057.32 -5.40526 -2.3997 0
M  V30 11179 H 1056.25 -0.610221 -0.442884 0
M  V30 11180 H 1058.91 -1.78073 -0.442984 0
M  V30 11181 H 1057.29 -2.68762 -2.90832 0
M  V30 11182 H 1058.46 -4.54854 -0.737853 0
M  V30 11183 H 1056.78 -4.08197 -0.822429 0
M  V30 11184 H 1059.37 -3.95286 -3.60074 0
M  V30 11185 H 1059.72 -2.24291 -3.50712 0
M  V30 11186 H 1060.25 -3.3191 -2.19272 0
M  V30 11187 H 1056.99 -6.29459 -1.82925 0
M  V30 11188 H 1056.51 -5.13893 -3.09313 0
M  V30 11189 H 1058.19 -5.72741 -3.00959 0
M  V30 11190 N 1058.32 0.686584 -1.41858 0
M  V30 11191 C 1059.23 1.83002 -1.46791 0
M  V30 11192 C 1060.25 1.70284 -0.357675 0
M  V30 11193 O 1061.42 1.92042 -0.606781 0
M  V30 11194 C 1058.49 3.19056 -1.35661 0
M  V30 11195 C 1057.55 3.43817 -2.57077 0
M  V30 11196 C 1056.78 4.7338 -2.46469 0
M  V30 11197 O 1057 5.50483 -1.49413 0
M  V30 11198 O 1055.94 4.99124 -3.36391 0
M  V30 11199 H 1059.76 1.81797 -2.43277 0
M  V30 11200 H 1057.35 0.840812 -1.23494 0
M  V30 11201 H 1059.23 4.00267 -1.31773 0
M  V30 11202 H 1057.91 3.20925 -0.422951 0
M  V30 11203 H 1056.81 2.625 -2.66541 0
M  V30 11204 H 1058.15 3.4677 -3.49302 0
M  V30 11205 N 1059.8 1.27835 0.921735 0
M  V30 11206 C 1060.71 1.12904 2.05645 0
M  V30 11207 C 1061.72 0.0575704 1.73905 0
M  V30 11208 O 1062.9 0.265261 1.99645 0
M  V30 11209 C 1059.96 0.783957 3.3772 0
M  V30 11210 C 1059.03 1.93694 3.8312 0
M  V30 11211 C 1058.26 1.60823 5.08893 0
M  V30 11212 O 1058.48 0.518873 5.68035 0
M  V30 11213 O 1057.42 2.44932 5.49811 0
M  V30 11214 H 1061.24 2.08143 2.21157 0
M  V30 11215 H 1058.83 1.07078 1.04185 0
M  V30 11216 H 1060.71 0.605107 4.17033 0
M  V30 11217 H 1059.38 -0.138849 3.23402 0
M  V30 11218 H 1058.29 2.17089 3.04669 0
M  V30 11219 H 1059.62 2.84016 4.0199 0
M  V30 11220 N 1061.28 -1.12907 1.09954 0
M  V30 11221 C 1062.5 -1.88138 0.860905 0
M  V30 11222 C 1062.92 -1.79402 -0.588256 0
M  V30 11223 O 1062.28 -1.16442 -1.40526 0
M  V30 11224 C 1062.33 -3.37537 1.29425 0
M  V30 11225 O 1062.05 -3.46056 2.68658 0
M  V30 11226 C 1063.55 -4.29721 1.08879 0
M  V30 11227 H 1060.77 -0.595437 0.309347 0
M  V30 11228 H 1063.31 -1.42894 1.46292 0
M  V30 11229 H 1061.47 -3.80344 0.736009 0
M  V30 11230 H 1061.88 -4.38969 2.87065 0
M  V30 11231 H 1063.36 -5.32854 1.4412 0
M  V30 11232 H 1063.83 -4.39192 0.0270053 0
M  V30 11233 H 1064.44 -3.9269 1.63325 0
M  V30 11234 N 1062.75 -0.88754 -1.30232 0
M  V30 11235 C 1063.98 -0.522306 -2.00199 0
M  V30 11236 C 1064.4 0.889866 -1.66514 0
M  V30 11237 O 1063.75 1.58558 -0.903639 0
M  V30 11238 C 1063.8 -0.690551 -3.54843 0
M  V30 11239 O 1063.53 -2.04713 -3.8733 0
M  V30 11240 C 1065.03 -0.328649 -4.4208 0
M  V30 11241 H 1062.25 -0.201628 -0.63999 0
M  V30 11242 H 1064.79 -1.19355 -1.66056 0
M  V30 11243 H 1062.95 -0.0666493 -3.87343 0
M  V30 11244 H 1063.36 -2.06762 -4.82027 0
M  V30 11245 H 1064.83 -0.497257 -5.49756 0
M  V30 11246 H 1065.31 0.733502 -4.33032 0
M  V30 11247 H 1065.92 -0.928982 -4.1503 0
M  V30 11248 N 1064.23 1.43628 -0.648757 0
M  V30 11249 C 1065.17 2.28001 0.0952198 0
M  V30 11250 C 1066.14 1.39569 0.834225 0
M  V30 11251 O 1067.33 1.69011 0.834711 0
M  V30 11252 C 1064.45 3.18886 1.14145 0
M  V30 11253 C 1063.5 4.23547 0.500996 0
M  V30 11254 S 1064.33 5.30609 -0.722118 0
M  V30 11255 C 1065.49 6.25062 0.323687 0
M  V30 11256 H 1065.72 2.90752 -0.620511 0
M  V30 11257 H 1063.26 1.48073 -0.437457 0
M  V30 11258 H 1065.21 3.71795 1.74008 0
M  V30 11259 H 1063.87 2.55322 1.82947 0
M  V30 11260 H 1063.07 4.87224 1.28954 0
M  V30 11261 H 1062.67 3.73993 -0.0234176 0
M  V30 11262 H 1064.96 6.66946 1.19118 0
M  V30 11263 H 1065.9 7.07554 -0.277939 0
M  V30 11264 H 1066.31 5.60658 0.657493 0
M  V30 11265 N 1065.71 0.390394 1.52688 0
M  V30 11266 C 1066.94 -0.191485 2.06012 0
M  V30 11267 C 1067.35 -1.40422 1.26202 0
M  V30 11268 O 1066.71 -1.79866 0.308963 0
M  V30 11269 C 1066.76 -0.560521 3.57128 0
M  V30 11270 O 1066.48 0.60404 4.33916 0
M  V30 11271 C 1067.98 -1.19814 4.26801 0
M  V30 11272 H 1065.2 -0.0286311 0.670389 0
M  V30 11273 H 1067.75 0.555939 1.96798 0
M  V30 11274 H 1065.9 -1.25784 3.66411 0
M  V30 11275 H 1066.32 0.300467 5.23639 0
M  V30 11276 H 1067.79 -1.40672 5.33775 0
M  V30 11277 H 1068.27 -2.16582 3.82085 0
M  V30 11278 H 1068.87 -0.541558 4.21838 0
M  V30 11279 N 1067.19 -1.57141 0.120249 0
M  V30 11280 C 1068.42 -1.99589 -0.545136 0
M  V30 11281 C 1068.83 -0.999951 -1.60145 0
M  V30 11282 O 1068.19 0.00698897 -1.82499 0
M  V30 11283 C 1068.24 -3.42038 -1.17014 0
M  V30 11284 O 1067.96 -4.37822 -0.156044 0
M  V30 11285 C 1069.46 -3.99625 -1.91872 0
M  V30 11286 H 1066.68 -0.655318 -0.144222 0
M  V30 11287 H 1069.23 -2.0345 0.206955 0
M  V30 11288 H 1067.38 -3.39113 -1.873 0
M  V30 11289 H 1067.79 -5.20937 -0.610317 0
M  V30 11290 H 1069.27 -5.01374 -2.30928 0
M  V30 11291 H 1069.75 -3.38836 -2.7944 0
M  V30 11292 H 1070.35 -4.061 -1.26345 0
M  V30 11293 N 1068.67 0.153526 -1.5685 0
M  V30 11294 C 1069.6 1.2147 -1.94365 0
M  V30 11295 C 1070.61 1.39532 -0.838726 0
M  V30 11296 O 1071.8 1.39219 -1.11715 0
M  V30 11297 C 1068.9 2.5806 -2.19677 0
M  V30 11298 C 1068.07 2.61062 -3.50949 0
M  V30 11299 C 1067.13 3.79144 -3.64878 0
M  V30 11300 O 1066.16 3.64319 -4.37333 0
M  V30 11301 N 1067.36 4.96333 -3.01054 0
M  V30 11302 H 1070.13 0.895889 -2.85996 0
M  V30 11303 H 1067.69 0.343147 -1.58222 0
M  V30 11304 H 1069.68 3.35553 -2.26243 0
M  V30 11305 H 1068.25 2.8226 -1.34343 0
M  V30 11306 H 1067.47 1.69533 -3.55882 0
M  V30 11307 H 1068.76 2.60094 -4.37297 0
M  V30 11308 H 1068.15 5.1128 -2.42093 0
M  V30 11309 H 1066.71 5.71625 -3.13191 0
M  V30 11310 N 1070.14 1.51827 0.422667 0
M  V30 11311 C 1071.37 1.69049 1.1929 0
M  V30 11312 C 1071.79 0.394095 1.84641 0
M  V30 11313 O 1071.14 -0.628731 1.71328 0
M  V30 11314 C 1071.2 2.81657 2.26609 0
M  V30 11315 O 1070.92 4.06275 1.63929 0
M  V30 11316 C 1072.42 3.10274 3.16615 0
M  V30 11317 H 1069.64 0.566894 0.358988 0
M  V30 11318 H 1072.18 1.98318 0.499029 0
M  V30 11319 H 1070.34 2.54945 2.91688 0
M  V30 11320 H 1070.75 4.68924 2.3497 0
M  V30 11321 H 1072.22 3.92613 3.88019 0
M  V30 11322 H 1072.7 2.23273 3.78214 0
M  V30 11323 H 1073.31 3.387 2.57221 0
M  V30 11324 N 1071.62 -0.679052 1.4222 0
M  V30 11325 C 1073.03 -1.25953 1.37815 0
M  V30 11326 C 1073.38 -1.96077 0.0693215 0
M  V30 11327 O 1072.51 -1.99765 -0.832047 0
M  V30 11328 C 1073.1 -2.29063 2.49631 0
M  V30 11329 C 1071.66 -2.82647 2.48571 0
M  V30 11330 C 1070.81 -1.56909 2.28637 0
M  V30 11331 H 1073.76 -0.472714 1.51496 0
M  V30 11332 H 1073.78 -3.10708 2.19638 0
M  V30 11333 H 1073.29 -1.77996 3.44876 0
M  V30 11334 H 1071.4 -3.37846 1.57132 0
M  V30 11335 H 1071.51 -3.31952 3.45463 0
M  V30 11336 H 1069.87 -1.83323 1.76819 0
M  V30 11337 H 1070.66 -1.07814 3.25931 0
M  V30 11338 N 1073.1 -1.28322 -0.914942 0
M  V30 11339 C 1074.06 -1.12169 -1.99877 0
M  V30 11340 C 1075.06 -0.0617252 -1.60681 0
M  V30 11341 O 1076.25 -0.307405 -1.71466 0
M  V30 11342 C 1073.39 -0.711959 -3.33383 0
M  V30 11343 H 1074.58 -2.08425 -2.15636 0
M  V30 11344 H 1072.13 -1.11291 -1.09745 0
M  V30 11345 H 1072.87 0.251418 -3.23324 0
M  V30 11346 H 1072.65 -1.47764 -3.63192 0
M  V30 11347 H 1074.14 -0.621558 -4.12948 0
M  V30 11348 N 1074.58 1.12322 -1.10551 0
M  V30 11349 C 1075.99 1.6539 -0.8662 0
M  V30 11350 C 1076.34 1.86695 0.603284 0
M  V30 11351 O 1075.47 1.59432 1.46323 0
M  V30 11352 C 1076.06 3.00443 -1.56587 0
M  V30 11353 C 1074.62 3.50456 -1.37323 0
M  V30 11354 C 1073.77 2.25454 -1.61449 0
M  V30 11355 H 1076.72 0.960866 -1.26305 0
M  V30 11356 H 1076.74 3.66972 -1.00557 0
M  V30 11357 H 1076.25 2.84905 -2.63535 0
M  V30 11358 H 1074.35 3.71176 -0.325431 0
M  V30 11359 H 1074.46 4.29839 -2.11601 0
M  V30 11360 H 1072.83 2.32621 -1.03729 0
M  V30 11361 H 1073.61 2.12469 -2.69651 0
M  V30 11362 N 1076.06 0.894434 1.2976 0
M  V30 11363 C 1077.31 0.513673 1.95049 0
M  V30 11364 C 1077.62 -0.943744 1.71327 0
M  V30 11365 O 1078.82 -1.43179 2.30678 0
M  V30 11366 C 1077.28 0.867751 3.49282 0
M  V30 11367 C 1076.89 2.34358 3.81812 0
M  V30 11368 C 1078.63 0.556645 4.20835 0
M  V30 11369 C 1076.54 2.63879 5.29265 0
M  V30 11370 H 1075.47 0.188375 0.73009 0
M  V30 11371 H 1078.12 1.09071 1.47566 0
M  V30 11372 H 1076.5 0.2197 3.9539 0
M  V30 11373 H 1077.68 3.03674 3.46581 0
M  V30 11374 H 1075.99 2.62318 3.23386 0
M  V30 11375 H 1078.59 0.754123 5.29355 0
M  V30 11376 H 1078.93 -0.504526 4.13231 0
M  V30 11377 H 1079.46 1.1623 3.80441 0
M  V30 11378 H 1076.2 3.68774 5.41928 0
M  V30 11379 H 1075.72 1.99182 5.65762 0
M  V30 11380 H 1077.4 2.49871 5.96803 0
M  V30 11381 N 1077.53 -1.43282 0.656365 0
M  V30 11382 C 1078.47 -2.29087 -0.0720378 0
M  V30 11383 C 1079.48 -1.4268 -0.783982 0
M  V30 11384 O 1080.67 -1.66585 -0.641213 0
M  V30 11385 C 1077.77 -3.19676 -1.12519 0
M  V30 11386 C 1076.94 -4.34638 -0.490756 0
M  V30 11387 C 1076 -5.06079 -1.44121 0
M  V30 11388 O 1075.03 -5.6124 -0.948595 0
M  V30 11389 N 1076.23 -5.09872 -2.77509 0
M  V30 11390 H 1078.99 -2.92241 0.664456 0
M  V30 11391 H 1076.55 -1.54006 0.499383 0
M  V30 11392 H 1078.55 -3.64334 -1.76189 0
M  V30 11393 H 1077.12 -2.581 -1.76362 0
M  V30 11394 H 1076.34 -3.92857 0.3251 0
M  V30 11395 H 1077.62 -5.08777 -0.0480061 0
M  V30 11396 H 1077.02 -4.66433 -3.20088 0
M  V30 11397 H 1075.58 -5.58237 -3.36474 0
M  V30 11398 N 1079.01 -0.398486 -1.52479 0
M  V30 11399 C 1079.98 0.420206 -2.25315 0
M  V30 11400 C 1080.98 0.982559 -1.27289 0
M  V30 11401 O 1082.17 0.863113 -1.51314 0
M  V30 11402 C 1079.3 1.59045 -3.01525 0
M  V30 11403 H 1080.49 -0.217599 -2.9911 0
M  V30 11404 H 1078.04 -0.150784 -1.55571 0
M  V30 11405 H 1078.78 2.26542 -2.32054 0
M  V30 11406 H 1078.56 1.19382 -3.73484 0
M  V30 11407 H 1080.05 2.16984 -3.56802 0
M  V30 11408 N 1080.49 1.57075 -0.12858 0
M  V30 11409 C 1081.9 1.82468 0.39526 0
M  V30 11410 C 1082.25 1.0463 1.65973 0
M  V30 11411 O 1081.38 0.285835 2.14504 0
M  V30 11412 C 1081.97 3.30976 0.723889 0
M  V30 11413 C 1080.53 3.57016 1.19232 0
M  V30 11414 C 1079.68 2.76534 0.205907 0
M  V30 11415 H 1082.63 1.54711 -0.353571 0
M  V30 11416 H 1082.65 3.46127 1.58039 0
M  V30 11417 H 1082.16 3.87602 -0.196595 0
M  V30 11418 H 1080.26 3.05758 2.12938 0
M  V30 11419 H 1080.38 4.65558 1.13103 0
M  V30 11420 H 1078.74 2.45038 0.694872 0
M  V30 11421 H 1079.52 3.35923 -0.707842 0
M  V30 11422 N 1081.97 -0.145205 1.5693 0
M  V30 11423 C 1083.19 -0.876386 1.87974 0
M  V30 11424 C 1083.62 -1.73866 0.717795 0
M  V30 11425 O 1082.98 -1.78224 -0.332551 0
M  V30 11426 C 1083.03 -1.70746 3.17613 0
M  V30 11427 O 1082.13 -2.81188 3.01674 0
M  V30 11428 H 1081.47 -0.243987 0.617549 0
M  V30 11429 H 1084 -0.135482 2.04151 0
M  V30 11430 H 1084.01 -2.1021 3.49679 0
M  V30 11431 H 1082.69 -1.07429 4.01786 0
M  V30 11432 H 1081.26 -2.45117 2.81019 0
M  V30 11433 N 1083.45 -1.52049 -0.414609 0
M  V30 11434 C 1084.41 -1.74382 -1.4874 0
M  V30 11435 C 1085.41 -0.613701 -1.48628 0
M  V30 11436 O 1086.6 -0.88152 -1.50249 0
M  V30 11437 C 1083.73 -1.82116 -2.88178 0
M  V30 11438 H 1084.93 -2.70147 -1.30233 0
M  V30 11439 H 1082.48 -1.42382 -0.644756 0
M  V30 11440 H 1083.21 -0.882457 -3.12063 0
M  V30 11441 H 1083 -2.64268 -2.89663 0
M  V30 11442 H 1084.49 -2.01155 -3.65959 0
M  V30 11443 N 1084.93 0.6715 -1.42579 0
M  V30 11444 C 1086.17 1.42731 -1.42516 0
M  V30 11445 C 1086.49 1.95545 -0.0462407 0
M  V30 11446 O 1087.69 2.71391 0.0769798 0
M  V30 11447 C 1086.15 2.58215 -2.50705 0
M  V30 11448 C 1085.76 2.12086 -3.94618 0
M  V30 11449 C 1087.5 3.35705 -2.59813 0
M  V30 11450 C 1085.41 3.24672 -4.9431 0
M  V30 11451 H 1084.34 0.536218 -0.530081 0
M  V30 11452 H 1086.99 0.726655 -1.68499 0
M  V30 11453 H 1085.37 3.30665 -2.17892 0
M  V30 11454 H 1086.55 1.46768 -4.36802 0
M  V30 11455 H 1084.86 1.47526 -3.89391 0
M  V30 11456 H 1087.46 4.1956 -3.31472 0
M  V30 11457 H 1087.8 3.82517 -1.64276 0
M  V30 11458 H 1088.33 2.70326 -2.91836 0
M  V30 11459 H 1085.07 2.82848 -5.91335 0
M  V30 11460 H 1084.59 3.88761 -4.56755 0
M  V30 11461 H 1086.27 3.90088 -5.16179 0
M  V30 11462 N 1086.4 1.28806 0.908124 0
M  V30 11463 C 1087.33 1.15758 2.02787 0
M  V30 11464 C 1088.31 0.053911 1.70015 0
M  V30 11465 O 1089.5 0.231901 1.9281 0
M  V30 11466 C 1086.63 0.824526 3.37371 0
M  V30 11467 C 1085.58 1.88359 3.84324 0
M  V30 11468 C 1084.91 1.40404 5.15937 0
M  V30 11469 C 1086.21 3.29108 4.05568 0
M  V30 11470 H 1087.9 2.09431 2.13961 0
M  V30 11471 H 1085.45 1.00831 1.02806 0
M  V30 11472 H 1087.4 0.71999 4.15204 0
M  V30 11473 H 1086.13 -0.147902 3.26265 0
M  V30 11474 H 1084.79 1.97736 3.087 0
M  V30 11475 H 1084.43 0.420515 5.01239 0
M  V30 11476 H 1084.13 2.11224 5.48323 0
M  V30 11477 H 1085.66 1.31283 5.9632 0
M  V30 11478 H 1087.07 3.2262 4.73909 0
M  V30 11479 H 1085.47 3.97812 4.49294 0
M  V30 11480 H 1086.54 3.72709 3.10187 0
M  V30 11481 N 1087.88 -1.11734 1.11145 0
M  V30 11482 C 1089.29 -1.64928 0.874959 0
M  V30 11483 C 1089.64 -1.87012 -0.593375 0
M  V30 11484 O 1088.77 -1.60206 -1.45475 0
M  V30 11485 C 1089.36 -2.99608 1.58178 0
M  V30 11486 C 1087.92 -3.49723 1.39179 0
M  V30 11487 C 1087.07 -2.24595 1.62642 0
M  V30 11488 H 1090.02 -0.954154 1.26813 0
M  V30 11489 H 1090.04 -3.66434 1.02501 0
M  V30 11490 H 1089.55 -2.83504 2.65042 0
M  V30 11491 H 1087.65 -3.70998 0.345111 0
M  V30 11492 H 1087.77 -4.28711 2.13878 0
M  V30 11493 H 1086.13 -2.32067 1.04961 0
M  V30 11494 H 1086.91 -2.11036 2.70774 0
M  V30 11495 N 1089.36 -0.901303 -1.29284 0
M  V30 11496 C 1090.29 -0.396909 -2.30102 0
M  V30 11497 C 1091.27 0.528919 -1.61668 0
M  V30 11498 O 1092.46 0.439306 -1.89166 0
M  V30 11499 C 1089.59 0.375006 -3.45269 0
M  V30 11500 C 1088.54 -0.46054 -4.25515 0
M  V30 11501 C 1087.87 0.438967 -5.32895 0
M  V30 11502 C 1089.17 -1.7113 -4.93469 0
M  V30 11503 H 1090.86 -1.23943 -2.72541 0
M  V30 11504 H 1088.41 -0.597428 -1.31022 0
M  V30 11505 H 1090.36 0.738622 -4.14876 0
M  V30 11506 H 1089.08 1.25132 -3.01678 0
M  V30 11507 H 1087.74 -0.80651 -3.57618 0
M  V30 11508 H 1087.39 1.31346 -4.85548 0
M  V30 11509 H 1087.09 -0.116406 -5.87485 0
M  V30 11510 H 1088.61 0.79874 -6.05353 0
M  V30 11511 H 1090.03 -1.41732 -5.55504 0
M  V30 11512 H 1088.42 -2.20811 -5.57999 0
M  V30 11513 H 1089.49 -2.44636 -4.18666 0
M  V30 11514 N 1090.84 1.42931 -0.663954 0
M  V30 11515 C 1092.25 1.84877 -0.260283 0
M  V30 11516 C 1092.6 1.5558 1.19538 0
M  V30 11517 O 1091.72 1.01015 1.91377 0
M  V30 11518 C 1092.32 3.35585 -0.465618 0
M  V30 11519 C 1090.88 3.76221 -0.116169 0
M  V30 11520 C 1090.03 2.66587 -0.763317 0
M  V30 11521 H 1092.98 1.32932 -0.866882 0
M  V30 11522 H 1093 3.79427 0.285608 0
M  V30 11523 H 1092.51 3.56877 -1.52515 0
M  V30 11524 H 1090.61 3.60539 0.940342 0
M  V30 11525 H 1090.72 4.75943 -0.549123 0
M  V30 11526 H 1089.09 2.53948 -0.19559 0
M  V30 11527 H 1089.87 2.90704 -1.82609 0
M  V30 11528 N 1092.32 0.406567 1.52266 0
M  V30 11529 C 1093.56 -0.169717 2.01386 0
M  V30 11530 C 1093.88 -1.45864 1.29417 0
M  V30 11531 O 1093.15 -1.9136 0.419327 0
M  V30 11532 H 1091.73 -0.0657075 0.744105 0
M  V30 11533 H 1094.4 0.542221 1.87206 0
M  V30 11534 H 1093.49 -0.367659 3.09927 0
M  V30 11535 N 1093.79 -1.57004 0.136909 0
M  V30 11536 C 1094.73 -2.13355 -0.837405 0
M  V30 11537 C 1095.74 -1.08053 -1.21772 0
M  V30 11538 O 1096.93 -1.35365 -1.16355 0
M  V30 11539 C 1094.03 -2.63302 -2.13366 0
M  V30 11540 C 1093.2 -3.92896 -1.92228 0
M  V30 11541 C 1092.26 -4.28257 -3.05749 0
M  V30 11542 O 1091.29 -4.96761 -2.7788 0
M  V30 11543 N 1092.49 -3.87021 -4.3266 0
M  V30 11544 H 1095.25 -2.9758 -0.35586 0
M  V30 11545 H 1092.81 -1.61832 -0.0469758 0
M  V30 11546 H 1094.81 -2.83977 -2.88339 0
M  V30 11547 H 1093.38 -1.83858 -2.52814 0
M  V30 11548 H 1092.6 -3.80949 -1.01349 0
M  V30 11549 H 1093.88 -4.776 -1.75431 0
M  V30 11550 H 1093.28 -3.31804 -4.58173 0
M  V30 11551 H 1091.84 -4.12768 -5.04446 0
M  V30 11552 N 1095.27 0.136881 -1.57004 0
M  V30 11553 C 1096.5 0.866405 -1.88436 0
M  V30 11554 C 1096.92 1.73483 -0.727006 0
M  V30 11555 O 1096.28 1.78398 0.323094 0
M  V30 11556 C 1096.33 1.69059 -3.18514 0
M  V30 11557 O 1095.43 2.79584 -3.03161 0
M  V30 11558 H 1094.77 0.240709 -0.618834 0
M  V30 11559 H 1097.3 0.124653 -2.0422 0
M  V30 11560 H 1097.31 2.08353 -3.50789 0
M  V30 11561 H 1095.99 1.05296 -4.0235 0
M  V30 11562 H 1094.57 2.43623 -2.82315 0
M  V30 11563 N 1096.75 1.52266 0.40654 0
M  V30 11564 C 1098 1.66699 1.15496 0
M  V30 11565 C 1098.33 0.397019 1.90098 0
M  V30 11566 O 1097.6 -0.604646 1.84863 0
M  V30 11567 C 1097.89 2.8907 2.14734 0
M  V30 11568 C 1097.74 4.26123 1.44012 0
M  V30 11569 C 1099.06 3.06966 3.15373 0
M  V30 11570 H 1096.18 0.606642 0.418515 0
M  V30 11571 H 1098.82 1.84826 0.440381 0
M  V30 11572 H 1096.97 2.73745 2.75673 0
M  V30 11573 H 1098.64 4.5318 0.861722 0
M  V30 11574 H 1096.89 4.27406 0.742064 0
M  V30 11575 H 1097.56 5.07799 2.16436 0
M  V30 11576 H 1100.03 3.21205 2.64512 0
M  V30 11577 H 1098.91 3.94097 3.82072 0
M  V30 11578 H 1099.17 2.20395 3.83247 0
M  V30 11579 N 1098.23 -0.663929 1.42933 0
M  V30 11580 C 1099.14 -1.80643 1.49683 0
M  V30 11581 C 1100.15 -1.69694 0.38472 0
M  V30 11582 O 1101.33 -1.91052 0.637256 0
M  V30 11583 C 1098.4 -3.16858 1.4072 0
M  V30 11584 C 1097.46 -3.39684 2.62514 0
M  V30 11585 C 1096.69 -4.69399 2.53969 0
M  V30 11586 O 1096.91 -5.48037 1.58152 0
M  V30 11587 O 1095.85 -4.93709 3.44289 0
M  V30 11588 H 1099.67 -1.77903 2.46138 0
M  V30 11589 H 1097.26 -0.821059 1.24816 0
M  V30 11590 H 1099.14 -3.9812 1.38124 0
M  V30 11591 H 1097.81 -3.20211 0.473954 0
M  V30 11592 H 1096.72 -2.58227 2.70684 0
M  V30 11593 H 1098.05 -3.41169 3.54774 0
M  V30 11594 N 1099.71 -1.29285 -0.901281 0
M  V30 11595 C 1101.12 -1.07263 -1.18182 0
M  V30 11596 C 1101.32 0.177087 -2.0072 0
M  V30 11597 O 1100.38 0.875292 -2.36844 0
M  V30 11598 C 1101.69 -2.32717 -1.9043 0
M  V30 11599 C 1103.24 -2.3802 -2.03262 0
M  V30 11600 C 1103.71 -3.63273 -2.7892 0
M  V30 11601 N 1105.21 -3.63986 -2.86475 0
M  V30 11602 C 1105.94 -4.57585 -3.45549 0
M  V30 11603 N 1105.44 -5.61513 -4.05801 0
M  V30 11604 N 1107.23 -4.45157 -3.43208 0
M  V30 11605 H 1099.38 -2.09487 -0.350536 0
M  V30 11606 H 1101.64 -0.922647 -0.217778 0
M  V30 11607 H 1101.35 -3.23828 -1.37216 0
M  V30 11608 H 1101.22 -2.40102 -2.90913 0
M  V30 11609 H 1103.61 -1.47398 -2.55652 0
M  V30 11610 H 1103.69 -2.3462 -1.01916 0
M  V30 11611 H 1103.34 -4.54246 -2.27206 0
M  V30 11612 H 1103.27 -3.6393 -3.80608 0
M  V30 11613 H 1105.76 -2.8884 -2.43679 0
M  V30 11614 H 1106.07 -6.29058 -4.48894 0
M  V30 11615 H 1104.41 -5.65325 -4.04268 0
M  V30 11616 H 1107.61 -3.63158 -2.95354 0
M  V30 11617 H 1107.78 -5.18286 -3.88952 0
M  V30 11618 N 1101.18 1.11143 -1.11736 0
M  V30 11619 C 1102.11 2.19339 -0.800795 0
M  V30 11620 C 1103.1 1.68508 0.23221 0
M  V30 11621 O 1104.28 1.93967 0.0950063 0
M  V30 11622 C 1101.41 3.46424 -0.246579 0
M  V30 11623 C 1100.36 4.10487 -1.21181 0
M  V30 11624 C 1099.69 5.32183 -0.518158 0
M  V30 11625 C 1100.99 4.55052 -2.56368 0
M  V30 11626 H 1102.68 2.46077 -1.70548 0
M  V30 11627 H 1100.23 1.18271 -0.821454 0
M  V30 11628 H 1102.18 4.21398 -0.0128889 0
M  V30 11629 H 1100.91 3.19154 0.693415 0
M  V30 11630 H 1099.57 3.3751 -1.43118 0
M  V30 11631 H 1099.21 5.01187 0.426742 0
M  V30 11632 H 1098.91 5.75997 -1.16196 0
M  V30 11633 H 1100.44 6.09895 -0.293333 0
M  V30 11634 H 1101.85 5.21335 -2.38501 0
M  V30 11635 H 1100.25 5.0969 -3.16758 0
M  V30 11636 H 1101.32 3.68343 -3.1536 0
M  V30 11637 N 1102.66 0.908147 1.28804 0
M  V30 11638 C 1103.9 0.545425 1.96989 0
M  V30 11639 C 1104.27 -0.893226 1.69957 0
M  V30 11640 O 1105.47 -1.36324 2.31666 0
M  V30 11641 C 1103.74 0.83953 3.474 0
M  V30 11642 S 1105.3 0.582385 4.34918 0
M  V30 11643 H 1102.12 0.202027 0.681693 0
M  V30 11644 H 1104.72 1.1724 1.56445 0
M  V30 11645 H 1103.42 1.88463 3.64568 0
M  V30 11646 H 1102.95 0.200999 3.92886 0
M  V30 11647 H 1104.97 -0.568807 4.92929 0
M  V30 11648 N 1104.14 -1.42577 0.671525 0
M  V30 11649 C 1105.39 -2.01882 0.192716 0
M  V30 11650 C 1105.72 -1.52959 -1.19654 0
M  V30 11651 O 1104.99 -0.730404 -1.80265 0
M  V30 11652 C 1105.28 -3.59404 0.223734 0
M  V30 11653 C 1105.13 -4.18514 1.64821 0
M  V30 11654 C 1106.45 -4.37996 -0.429858 0
M  V30 11655 H 1103.57 -0.733523 0.0715026 0
M  V30 11656 H 1106.21 -1.69641 0.855689 0
M  V30 11657 H 1104.36 -3.87003 -0.340776 0
M  V30 11658 H 1106.03 -4.01881 2.26472 0
M  V30 11659 H 1104.28 -3.74467 2.1899 0
M  V30 11660 H 1104.95 -5.27643 1.62162 0
M  V30 11661 H 1107.42 -4.16069 0.0506433 0
M  V30 11662 H 1106.3 -5.476 -0.377503 0
M  V30 11663 H 1106.56 -4.15625 -1.50693 0
M  V30 11664 N 1105.62 -0.414636 -1.52048 0
M  V30 11665 C 1106.9 0.218172 -1.94379 0
M  V30 11666 C 1107.28 1.62133 -1.35189 0
M  V30 11667 O 1106.62 2.22271 -0.529877 0
M  V30 11668 C 1106.83 0.218932 -3.48313 0
M  V30 11669 C 1108.18 0.435604 -4.2236 0
M  V30 11670 O 1109.21 0.298049 -3.54951 0
M  V30 11671 O 1108.06 0.707217 -5.41905 0
M  V30 11672 H 1105.16 0.142173 -0.814688 0
M  V30 11673 H 1107.7 -0.470977 -1.63033 0
M  V30 11674 H 1106.48 -0.76292 -3.83791 0
M  V30 11675 H 1106.1 0.951949 -3.86036 0
M  V30 11676 N 1107.1 1.56929 -0.145233 0
M  V30 11677 C 1108.51 1.82877 0.375884 0
M  V30 11678 C 1108.86 1.06384 1.64854 0
M  V30 11679 O 1107.98 0.30857 2.14189 0
M  V30 11680 C 1108.58 3.31725 0.688744 0
M  V30 11681 C 1107.14 3.58261 1.15439 0
M  V30 11682 C 1106.28 2.76737 0.176565 0
M  V30 11683 H 1109.24 1.54328 -0.36996 0
M  V30 11684 H 1109.26 3.47784 1.54359 0
M  V30 11685 H 1108.77 3.87371 -0.237694 0
M  V30 11686 H 1106.87 3.08 2.09683 0
M  V30 11687 H 1106.98 4.66732 1.08158 0
M  V30 11688 H 1105.35 2.45761 0.668843 0
M  V30 11689 H 1106.13 3.35154 -0.743432 0
M  V30 11690 N 1108.58 -0.128553 1.57075 0
M  V30 11691 C 1109.99 -0.481794 1.52154 0
M  V30 11692 C 1110.19 -1.82381 0.856694 0
M  V30 11693 O 1109.25 -2.48725 0.434989 0
M  V30 11694 C 1110.56 -0.475091 2.96923 0
M  V30 11695 C 1112.11 -0.559315 3.07962 0
M  V30 11696 C 1112.58 -0.583095 4.54273 0
M  V30 11697 N 1114.07 -0.644803 4.5869 0
M  V30 11698 C 1114.81 -0.684493 5.693 0
M  V30 11699 N 1114.31 -0.682407 6.89431 0
M  V30 11700 N 1116.1 -0.726777 5.57382 0
M  V30 11701 H 1108.25 0.750894 1.98684 0
M  V30 11702 H 1110.51 0.27593 0.906955 0
M  V30 11703 H 1110.22 0.443157 3.48897 0
M  V30 11704 H 1110.09 -1.30637 3.53856 0
M  V30 11705 H 1112.48 -1.46798 2.55997 0
M  V30 11706 H 1112.56 0.299468 2.54041 0
M  V30 11707 H 1112.2 0.32149 5.06881 0
M  V30 11708 H 1112.13 -1.45863 5.05996 0
M  V30 11709 H 1114.63 -0.652967 3.72216 0
M  V30 11710 H 1114.94 -0.715051 7.69485 0
M  V30 11711 H 1113.28 -0.649984 6.91954 0
M  V30 11712 H 1116.47 -0.725704 4.6244 0
M  V30 11713 H 1116.65 -0.754242 6.43596 0
M  V30 11714 N 1110.05 -1.5248 -0.398459 0
M  V30 11715 C 1111 -1.72965 -1.4855 0
M  V30 11716 C 1111.99 -0.583628 -1.49942 0
M  V30 11717 O 1113.18 -0.841106 -1.55738 0
M  V30 11718 C 1110.31 -1.89339 -2.86366 0
M  V30 11719 C 1109.39 -3.09845 -2.8958 0
M  V30 11720 N 1109.79 -4.32365 -2.62477 0
M  V30 11721 C 1108.08 -3.09897 -3.20749 0
M  V30 11722 C 1108.78 -5.13908 -2.72532 0
M  V30 11723 N 1107.76 -4.49387 -3.05864 0
M  V30 11724 H 1111.56 -2.65327 -1.26406 0
M  V30 11725 H 1109.08 -1.50658 -0.606299 0
M  V30 11726 H 1111.07 -2.02134 -3.64619 0
M  V30 11727 H 1109.73 -0.981841 -3.095 0
M  V30 11728 H 1110.74 -4.60659 -2.36673 0
M  V30 11729 H 1107.42 -2.28518 -3.49408 0
M  V30 11730 H 1108.81 -6.21548 -2.55202 0
M  V30 11731 N 1111.53 0.65634 -1.43283 0
M  V30 11732 C 1112.95 0.971645 -1.26614 0
M  V30 11733 C 1113.15 2.00662 -0.183612 0
M  V30 11734 O 1112.2 2.48654 0.439003 0
M  V30 11735 C 1113.52 1.45888 -2.6294 0
M  V30 11736 C 1115.06 1.57569 -2.70446 0
M  V30 11737 C 1115.54 2.09684 -4.07181 0
M  V30 11738 N 1117.03 2.16991 -4.0923 0
M  V30 11739 C 1117.77 2.5843 -5.11861 0
M  V30 11740 N 1117.26 2.99188 -6.24867 0
M  V30 11741 N 1119.05 2.58342 -4.99215 0
M  V30 11742 H 1111.21 -0.028573 -2.12381 0
M  V30 11743 H 1113.47 0.0497918 -0.946691 0
M  V30 11744 H 1113.17 0.772823 -3.43104 0
M  V30 11745 H 1113.05 2.43445 -2.88122 0
M  V30 11746 H 1115.44 2.25277 -1.90616 0
M  V30 11747 H 1115.52 0.584529 -2.49032 0
M  V30 11748 H 1115.16 1.42579 -4.87477 0
M  V30 11749 H 1115.09 3.09625 -4.25958 0
M  V30 11750 H 1117.58 1.88278 -3.27658 0
M  V30 11751 H 1117.89 3.29549 -6.99012 0
M  V30 11752 H 1116.24 2.97 -6.28344 0
M  V30 11753 H 1119.43 2.25875 -4.09998 0
M  V30 11754 H 1119.6 2.90316 -5.79328 0
M  V30 11755 N 1113.01 1.29761 0.894412 0
M  V30 11756 C 1113.94 1.1115 2.00445 0
M  V30 11757 C 1114.95 0.0574655 1.62699 0
M  V30 11758 O 1116.14 0.302528 1.75918 0
M  V30 11759 C 1113.24 0.670984 3.32191 0
M  V30 11760 C 1112.42 1.80471 3.98433 0
M  V30 11761 C 1111.48 1.35431 5.08473 0
M  V30 11762 O 1110.5 2.05994 5.30618 0
M  V30 11763 N 1111.7 0.22811 5.80052 0
M  V30 11764 H 1114.47 2.06753 2.16964 0
M  V30 11765 H 1112.03 1.21772 1.06692 0
M  V30 11766 H 1114.02 0.352877 4.03159 0
M  V30 11767 H 1112.59 -0.192735 3.12005 0
M  V30 11768 H 1111.81 2.29142 3.20761 0
M  V30 11769 H 1113.1 2.56471 4.39431 0
M  V30 11770 H 1112.5 -0.360076 5.64553 0
M  V30 11771 H 1111.05 -0.0305985 6.51793 0
M  V30 11772 N 1114.49 -1.10549 1.12324 0
M  V30 11773 C 1115.74 -1.82124 0.876083 0
M  V30 11774 C 1116.06 -1.85547 -0.599761 0
M  V30 11775 O 1115.33 -1.33269 -1.43584 0
M  V30 11776 H 1113.91 -0.674455 0.321122 0
M  V30 11777 H 1116.57 -1.33766 1.41748 0
M  V30 11778 H 1115.66 -2.85688 1.25653 0
M  V30 11779 N 1115.97 -0.914965 -1.28321 0
M  V30 11780 C 1117.38 -0.59512 -1.76961 0
M  V30 11781 C 1117.73 0.88958 -1.74874 0
M  V30 11782 O 1116.85 1.6959 -1.34418 0
M  V30 11783 C 1117.45 -1.07353 -3.21342 0
M  V30 11784 C 1116.01 -0.804577 -3.677 0
M  V30 11785 C 1115.15 -1.23955 -2.48053 0
M  V30 11786 H 1118.1 -1.0961 -1.14767 0
M  V30 11787 H 1118.13 -0.415506 -3.78225 0
M  V30 11788 H 1117.64 -2.15413 -3.22829 0
M  V30 11789 H 1115.74 0.26277 -3.71672 0
M  V30 11790 H 1115.85 -1.41317 -4.57784 0
M  V30 11791 H 1114.22 -0.658274 -2.46046 0
M  V30 11792 H 1115 -2.32853 -2.52258 0
M  V30 11793 N 1117.44 1.42219 -0.679077 0
M  V30 11794 C 1118.69 2.01777 -0.20342 0
M  V30 11795 C 1119.02 1.53592 1.18841 0
M  V30 11796 O 1118.3 0.739954 1.79875 0
M  V30 11797 C 1118.58 3.59281 -0.242791 0
M  V30 11798 C 1118.43 4.17634 -1.67038 0
M  V30 11799 C 1119.75 4.38218 0.406624 0
M  V30 11800 H 1116.87 0.733134 -0.0753916 0
M  V30 11801 H 1119.51 1.69185 -0.864673 0
M  V30 11802 H 1117.66 3.87178 0.320248 0
M  V30 11803 H 1119.34 4.00674 -2.286 0
M  V30 11804 H 1117.58 3.73301 -2.20973 0
M  V30 11805 H 1118.25 5.26776 -1.64958 0
M  V30 11806 H 1120.73 4.16036 -0.0727077 0
M  V30 11807 H 1119.6 5.47793 0.348457 0
M  V30 11808 H 1119.86 4.16418 1.48487 0
M  V30 11809 N 1118.92 0.422693 1.51826 0
M  V30 11810 C 1119.87 -0.41063 2.28947 0
M  V30 11811 C 1120.86 -1.03389 1.34191 0
M  V30 11812 O 1122.07 -0.970533 1.51594 0
M  V30 11813 H 1118.44 -0.151219 0.736639 0
M  V30 11814 H 1120.42 0.260859 2.97258 0
M  V30 11815 C 1119.16 -1.50758 3.13317 0
M  V30 11816 H 1118.49 -1.03734 3.86108 0
M  V30 11817 H 1119.93 -2.0642 3.7036 0
M  V30 11818 C 1118.39 -2.48261 2.27746 0
M  V30 11819 O 1118.92 -3.52462 1.92701 0
M  V30 11820 N 1117.12 -2.18795 1.91251 0
M  V30 11821 H 1116.67 -1.34088 2.1995 0
M  V30 11822 H 1116.63 -2.84276 1.34293 0
M  V30 11823 N 1120.4 -1.5685 0.153553 0
M  V30 11824 C 1121.33 -2.20101 -0.779601 0
M  V30 11825 C 1122.31 -1.15121 -1.25225 0
M  V30 11826 O 1123.5 -1.43487 -1.30862 0
M  V30 11827 C 1120.63 -2.82778 -2.01628 0
M  V30 11828 C 1119.58 -3.93643 -1.68015 0
M  V30 11829 C 1118.91 -4.43286 -2.99001 0
M  V30 11830 C 1120.21 -5.14102 -0.921774 0
M  V30 11831 H 1121.9 -2.98334 -0.252432 0
M  V30 11832 H 1119.45 -1.43499 -0.119975 0
M  V30 11833 H 1121.4 -3.25696 -2.67395 0
M  V30 11834 H 1120.12 -2.01887 -2.56728 0
M  V30 11835 H 1118.78 -3.51354 -1.04624 0
M  V30 11836 H 1118.43 -3.59208 -3.52106 0
M  V30 11837 H 1118.13 -5.18068 -2.77272 0
M  V30 11838 H 1119.65 -4.88878 -3.65828 0
M  V30 11839 H 1121.07 -5.53823 -1.48167 0
M  V30 11840 H 1119.46 -5.94687 -0.804185 0
M  V30 11841 H 1120.53 -4.84825 0.0852757 0
M  V30 11842 N 1121.88 0.120221 -1.57141 0
M  V30 11843 C 1122.81 1.14876 -2.03287 0
M  V30 11844 C 1123.79 1.43259 -0.917112 0
M  V30 11845 O 1124.97 1.53721 -1.18674 0
M  V30 11846 C 1122.1 2.47525 -2.43616 0
M  V30 11847 C 1121.06 2.33607 -3.58625 0
M  V30 11848 C 1120.38 3.71207 -3.84849 0
M  V30 11849 C 1121.68 1.79761 -4.90391 0
M  V30 11850 H 1123.38 0.764943 -2.89463 0
M  V30 11851 H 1120.92 0.366516 -1.39258 0
M  V30 11852 H 1122.88 3.19728 -2.74504 0
M  V30 11853 H 1121.6 2.87794 -1.54409 0
M  V30 11854 H 1120.26 1.63853 -3.27945 0
M  V30 11855 H 1119.91 4.0896 -2.9285 0
M  V30 11856 H 1119.61 3.62749 -4.62263 0
M  V30 11857 H 1121.13 4.44917 -4.18188 0
M  V30 11858 H 1122.55 2.4178 -5.19822 0
M  V30 11859 H 1120.94 1.82126 -5.71795 0
M  V30 11860 H 1122.01 0.755087 -4.78985 0
M  V30 11861 N 1123.36 1.52689 0.390367 0
M  V30 11862 C 1124.58 1.71839 1.16129 0
M  V30 11863 C 1125.01 0.435226 1.82996 0
M  V30 11864 O 1124.36 -0.60889 1.70769 0
M  V30 11865 C 1124.41 2.86784 2.18603 0
M  V30 11866 O 1123.52 2.53662 3.25161 0
M  V30 11867 H 1122.86 0.571455 0.338135 0
M  V30 11868 H 1125.39 1.99475 0.45508 0
M  V30 11869 H 1125.4 3.12239 2.62622 0
M  V30 11870 H 1124.07 3.79872 1.69322 0
M  V30 11871 H 1122.65 2.38942 2.86289 0
M  V30 11872 N 1124.83 -0.648732 1.43629 0
M  V30 11873 C 1126.11 -1.4062 1.35961 0
M  V30 11874 C 1126.49 -2.11098 0.00961023 0
M  V30 11875 O 1125.84 -2.05107 -1.00714 0
M  V30 11876 C 1126.05 -2.38719 2.54586 0
M  V30 11877 C 1127.4 -3.02584 2.97873 0
M  V30 11878 O 1128.42 -2.49046 2.54665 0
M  V30 11879 O 1127.28 -3.99662 3.72736 0
M  V30 11880 H 1124.37 -0.628483 0.53753 0
M  V30 11881 H 1126.92 -0.675263 1.55687 0
M  V30 11882 H 1125.69 -1.85619 3.44472 0
M  V30 11883 H 1125.32 -3.19257 2.36983 0
M  V30 11884 N 1126.31 -1.30234 -0.887518 0
M  V30 11885 C 1127.72 -1.17048 -1.45453 0
M  V30 11886 C 1128.07 0.229793 -1.9485 0
M  V30 11887 O 1127.2 1.12628 -1.84781 0
M  V30 11888 C 1127.79 -2.11876 -2.64375 0
M  V30 11889 C 1126.35 -2.02676 -3.17174 0
M  V30 11890 C 1125.5 -2.02104 -1.89866 0
M  V30 11891 H 1128.45 -1.42541 -0.697694 0
M  V30 11892 H 1128.47 -1.69811 -3.40506 0
M  V30 11893 H 1127.98 -3.13781 -2.28392 0
M  V30 11894 H 1126.09 -1.03904 -3.57819 0
M  V30 11895 H 1126.2 -2.90939 -3.80646 0
M  V30 11896 H 1124.56 -1.4687 -2.0809 0
M  V30 11897 H 1125.35 -3.05735 -1.56145 0
M  V30 11898 N 1127.79 1.09952 -1.12909 0
M  V30 11899 C 1128.7 2.19999 -0.81471 0
M  V30 11900 C 1129.72 1.72864 0.19851 0
M  V30 11901 O 1130.89 2.01376 0.0308832 0
M  V30 11902 C 1127.96 3.45573 -0.279363 0
M  V30 11903 C 1127.02 4.07417 -1.35314 0
M  V30 11904 C 1126.25 5.26996 -0.843247 0
M  V30 11905 O 1126.47 5.69495 0.321164 0
M  V30 11906 O 1125.41 5.79826 -1.61511 0
M  V30 11907 H 1129.23 2.49333 -1.73398 0
M  V30 11908 H 1126.82 1.18784 -0.906128 0
M  V30 11909 H 1128.7 4.21398 0.0140531 0
M  V30 11910 H 1127.38 3.17854 0.612401 0
M  V30 11911 H 1126.28 3.33253 -1.6998 0
M  V30 11912 H 1127.62 4.39349 -2.21885 0
M  V30 11913 N 1129.27 0.921757 1.27833 0
M  V30 11914 C 1130.2 0.373575 2.26135 0
M  V30 11915 C 1131.21 -0.492414 1.55174 0
M  V30 11916 O 1132.4 -0.305998 1.75858 0
M  V30 11917 C 1129.5 -0.483911 3.35427 0
M  V30 11918 C 1128.68 0.361411 4.35904 0
M  V30 11919 C 1127.73 -0.432461 5.2442 0
M  V30 11920 O 1126.76 0.15777 5.68981 0
M  V30 11921 N 1127.96 -1.73367 5.54007 0
M  V30 11922 H 1130.73 1.21856 2.73809 0
M  V30 11923 H 1128.29 0.788552 1.41398 0
M  V30 11924 H 1130.28 -1.02193 3.91585 0
M  V30 11925 H 1128.85 -1.22963 2.874 0
M  V30 11926 H 1128.07 1.08076 3.79095 0
M  V30 11927 H 1129.36 0.939528 5.0005 0
M  V30 11928 H 1128.76 -2.23561 5.19651 0
M  V30 11929 H 1127.31 -2.21834 6.12889 0
M  V30 11930 N 1130.75 -1.41857 0.686609 0
M  V30 11931 C 1131.99 -2.0097 0.213378 0
M  V30 11932 C 1132.32 -1.54618 -1.1882 0
M  V30 11933 O 1131.59 -0.772916 -1.80008 0
M  V30 11934 H 1130.17 -0.743134 0.0758968 0
M  V30 11935 H 1132.83 -1.73609 0.885763 0
M  V30 11936 H 1131.92 -3.11296 0.223826 0
M  V30 11937 N 1132.22 -0.430739 -1.51599 0
M  V30 11938 C 1133.47 0.138133 -2.02329 0
M  V30 11939 C 1133.8 1.42934 -1.31466 0
M  V30 11940 O 1133.08 1.89743 -0.427551 0
M  V30 11941 C 1133.36 0.363677 -3.58259 0
M  V30 11942 C 1133.21 -0.94572 -4.39746 0
M  V30 11943 C 1134.53 1.13637 -4.25176 0
M  V30 11944 H 1131.65 0.0487287 -0.735387 0
M  V30 11945 H 1134.29 -0.568444 -1.81297 0
M  V30 11946 H 1132.44 0.965552 -3.7631 0
M  V30 11947 H 1134.12 -1.58107 -4.33359 0
M  V30 11948 H 1132.36 -1.55183 -4.05094 0
M  V30 11949 H 1133.03 -0.742031 -5.4699 0
M  V30 11950 H 1135.51 0.626608 -4.11355 0
M  V30 11951 H 1134.38 1.26294 -5.34173 0
M  V30 11952 H 1134.64 2.16273 -3.85588 0
M  V30 11953 N 1133.7 1.56767 -0.161869 0
M  V30 11954 C 1134.61 2.21083 0.784814 0
M  V30 11955 C 1135.63 1.19959 1.26039 0
M  V30 11956 O 1136.8 1.52588 1.31449 0
M  V30 11957 C 1133.87 2.83153 2.00063 0
M  V30 11958 C 1132.93 3.9945 1.57285 0
M  V30 11959 C 1132.16 4.5855 2.7307 0
M  V30 11960 O 1132.39 4.16534 3.89686 0
M  V30 11961 O 1131.32 5.48575 2.47688 0
M  V30 11962 H 1135.15 3.02522 0.267243 0
M  V30 11963 H 1132.73 1.49255 0.0658783 0
M  V30 11964 H 1134.61 3.22546 2.71186 0
M  V30 11965 H 1133.29 2.04718 2.50744 0
M  V30 11966 H 1132.2 3.64745 0.831393 0
M  V30 11967 H 1133.53 4.7945 1.11304 0
M  V30 11968 N 1135.18 -0.111886 1.57202 0
M  V30 11969 C 1136.43 -0.819623 1.85499 0
M  V30 11970 C 1136.76 -1.7919 0.748629 0
M  V30 11971 O 1136.03 -1.92952 -0.244918 0
M  V30 11972 C 1136.32 -1.56324 3.24399 0
M  V30 11973 C 1136.17 -0.610081 4.45643 0
M  V30 11974 C 1137.49 -2.51777 3.60966 0
M  V30 11975 H 1134.61 -0.296512 0.674722 0
M  V30 11976 H 1137.25 -0.0836741 1.89816 0
M  V30 11977 H 1135.4 -2.1906 3.2085 0
M  V30 11978 H 1137.07 0.00898038 4.61299 0
M  V30 11979 H 1135.32 0.0778488 4.3373 0
M  V30 11980 H 1135.99 -1.16718 5.39519 0
M  V30 11981 H 1138.46 -1.99143 3.65351 0
M  V30 11982 H 1137.34 -3.00835 4.59118 0
M  V30 11983 H 1137.6 -3.34769 2.8876 0
M  V30 11984 N 1136.66 -1.52894 -0.382264 0
M  V30 11985 C 1137.89 -1.72152 -1.14766 0
M  V30 11986 C 1138.3 -0.442911 -1.83531 0
M  V30 11987 O 1137.66 0.583085 -1.72935 0
M  V30 11988 C 1137.71 -2.87566 -2.19062 0
M  V30 11989 O 1137.43 -4.10478 -1.53099 0
M  V30 11990 C 1138.93 -3.18559 -3.08277 0
M  V30 11991 H 1136.15 -0.576212 -0.343832 0
M  V30 11992 H 1138.7 -1.99571 -0.446273 0
M  V30 11993 H 1136.85 -2.62589 -2.84826 0
M  V30 11994 H 1137.26 -4.74989 -2.22454 0
M  V30 11995 H 1138.74 -4.02763 -3.77473 0
M  V30 11996 H 1139.22 -2.33222 -3.72161 0
M  V30 11997 H 1139.82 -3.454 -2.48151 0
M  V30 11998 N 1138.14 0.641106 -1.43971 0
M  V30 11999 C 1139.39 1.39807 -1.4594 0
M  V30 12000 C 1139.71 1.94795 -0.0893874 0
M  V30 12001 O 1138.98 1.75175 0.876962 0
M  V30 12002 H 1137.56 0.518908 -0.537349 0
M  V30 12003 H 1140.22 0.755278 -1.79671 0
M  V30 12004 H 1139.31 2.23439 -2.17903 0
M  V30 12005 N 1139.62 1.30703 0.880598 0
M  V30 12006 C 1140.55 1.1327 1.99255 0
M  V30 12007 C 1141.56 0.0747186 1.62628 0
M  V30 12008 O 1142.75 0.321169 1.75587 0
M  V30 12009 C 1139.85 0.706179 3.31461 0
M  V30 12010 C 1139.02 1.84687 3.96497 0
M  V30 12011 C 1138.08 1.40817 5.07008 0
M  V30 12012 O 1137.11 2.1161 5.28403 0
M  V30 12013 N 1138.31 0.289619 5.79777 0
M  V30 12014 H 1141.07 2.09043 2.14759 0
M  V30 12015 H 1138.64 1.22896 1.05395 0
M  V30 12016 H 1140.63 0.395617 4.02762 0
M  V30 12017 H 1139.2 -0.159631 3.12192 0
M  V30 12018 H 1138.42 2.32531 3.18312 0
M  V30 12019 H 1139.71 2.61117 4.36687 0
M  V30 12020 H 1139.1 -0.300177 5.64903 0
M  V30 12021 H 1137.66 0.0385346 6.51789 0
M  V30 12022 N 1141.09 -1.09351 1.1349 0
M  V30 12023 C 1142.32 -1.85036 0.918989 0
M  V30 12024 C 1142.73 -1.8146 -0.535638 0
M  V30 12025 O 1142.07 -1.20958 -1.38256 0
M  V30 12026 C 1142.14 -3.33992 1.33001 0
M  V30 12027 C 1141.8 -3.61315 2.79822 0
M  V30 12028 C 1142.8 -3.56973 3.77976 0
M  V30 12029 C 1140.48 -3.89636 3.17001 0
M  V30 12030 C 1142.48 -3.80564 5.11321 0
M  V30 12031 C 1140.16 -4.12882 4.50524 0
M  V30 12032 C 1141.16 -4.08338 5.47494 0
M  V30 12033 O 1140.85 -4.30983 6.78608 0
M  V30 12034 H 1140.58 -0.591301 0.327627 0
M  V30 12035 H 1143.14 -1.39078 1.5115 0
M  V30 12036 H 1141.37 -3.8066 0.68077 0
M  V30 12037 H 1143.05 -3.9109 1.08645 0
M  V30 12038 H 1143.82 -3.3512 3.50599 0
M  V30 12039 H 1139.7 -3.92297 2.42124 0
M  V30 12040 H 1143.24 -3.76933 5.86998 0
M  V30 12041 H 1139.14 -4.34216 4.77626 0
M  V30 12042 H 1139.91 -4.4844 6.84722 0
M  V30 12043 N 1142.57 -0.928524 -1.27343 0
M  V30 12044 C 1143.48 -0.433901 -2.30553 0
M  V30 12045 C 1144.5 0.485832 -1.6708 0
M  V30 12046 O 1145.67 0.36844 -1.98001 0
M  V30 12047 C 1142.74 0.304617 -3.45359 0
M  V30 12048 C 1141.8 -0.650131 -4.24349 0
M  V30 12049 C 1141.03 0.0532372 -5.33673 0
M  V30 12050 O 1141.26 1.27246 -5.56026 0
M  V30 12051 O 1140.19 -0.619009 -5.98709 0
M  V30 12052 H 1144.02 -1.2909 -2.74899 0
M  V30 12053 H 1141.6 -0.693903 -1.32308 0
M  V30 12054 H 1143.48 0.721137 -4.15184 0
M  V30 12055 H 1142.16 1.13721 -3.03066 0
M  V30 12056 H 1141.06 -1.11635 -3.57055 0
M  V30 12057 H 1142.4 -1.44996 -4.70358 0
M  V30 12058 N 1144.05 1.41491 -0.694123 0
M  V30 12059 C 1145.47 1.55358 -0.365532 0
M  V30 12060 C 1145.67 1.66994 1.12762 0
M  V30 12061 O 1144.72 1.64756 1.91342 0
M  V30 12062 C 1146.03 2.79352 -1.11279 0
M  V30 12063 C 1147.58 2.93147 -1.097 0
M  V30 12064 C 1148.06 4.20027 -1.82597 0
M  V30 12065 N 1149.55 4.26981 -1.7956 0
M  V30 12066 C 1150.28 5.24013 -2.32805 0
M  V30 12067 N 1149.78 6.27083 -2.94515 0
M  V30 12068 N 1151.57 5.15943 -2.23069 0
M  V30 12069 H 1143.72 1.32183 -1.66257 0
M  V30 12070 H 1145.99 0.637624 -0.701527 0
M  V30 12071 H 1145.69 2.76958 -2.16765 0
M  V30 12072 H 1145.57 3.70827 -0.690439 0
M  V30 12073 H 1147.95 2.95057 -0.0504037 0
M  V30 12074 H 1148.03 2.02849 -1.55839 0
M  V30 12075 H 1147.68 4.18878 -2.87235 0
M  V30 12076 H 1147.61 5.09294 -1.33893 0
M  V30 12077 H 1150.1 3.53129 -1.34567 0
M  V30 12078 H 1150.41 6.97511 -3.32714 0
M  V30 12079 H 1148.76 6.27589 -2.98592 0
M  V30 12080 H 1151.95 4.34346 -1.74532 0
M  V30 12081 H 1152.12 5.91396 -2.64868 0
M  V30 12082 N 1145.53 0.438773 1.51369 0
M  V30 12083 C 1146.44 -0.378074 2.31534 0
M  V30 12084 C 1147.45 -1.02632 1.40508 0
M  V30 12085 O 1148.63 -1.02138 1.73579 0
M  V30 12086 C 1145.69 -1.46374 3.14286 0
M  V30 12087 C 1144.76 -0.835473 4.21092 0
M  V30 12088 C 1143.99 -1.86941 4.99889 0
M  V30 12089 O 1144.21 -3.0918 4.79337 0
M  V30 12090 O 1143.15 -1.45914 5.83946 0
M  V30 12091 H 1146.97 0.276401 3.0244 0
M  V30 12092 H 1144.56 0.201281 1.48038 0
M  V30 12093 H 1146.44 -2.09335 3.65728 0
M  V30 12094 H 1145.11 -2.10227 2.46143 0
M  V30 12095 H 1144.02 -0.167775 3.73724 0
M  V30 12096 H 1145.35 -0.240406 4.91613 0
M  V30 12097 N 1147.01 -1.56678 0.170181 0
M  V30 12098 C 1147.95 -2.17909 -0.760556 0
M  V30 12099 C 1148.92 -1.11875 -1.22773 0
M  V30 12100 O 1150.11 -1.40021 -1.2961 0
M  V30 12101 C 1147.25 -2.82305 -1.9849 0
M  V30 12102 C 1146.36 -4.02796 -1.5614 0
M  V30 12103 C 1145.5 -4.55121 -2.73932 0
M  V30 12104 C 1144.53 -5.68025 -2.28067 0
M  V30 12105 N 1143.67 -6.14865 -3.38947 0
M  V30 12106 H 1148.51 -2.97098 -0.231629 0
M  V30 12107 H 1146.05 -1.46742 -0.102602 0
M  V30 12108 H 1148.01 -3.17797 -2.70298 0
M  V30 12109 H 1146.64 -2.05721 -2.48755 0
M  V30 12110 H 1145.69 -3.73131 -0.740097 0
M  V30 12111 H 1147 -4.84526 -1.18472 0
M  V30 12112 H 1146.15 -4.92789 -3.53898 0
M  V30 12113 H 1144.89 -3.72445 -3.14858 0
M  V30 12114 H 1143.9 -5.2991 -1.46546 0
M  V30 12115 H 1145.12 -6.52501 -1.88199 0
M  V30 12116 H 1143.07 -5.35119 -3.79452 0
M  V30 12117 H 1142.99 -6.91582 -3.05369 0
M  V30 12118 H 1144.25 -6.57183 -4.19203 0
M  V30 12119 N 1148.48 0.103547 -1.57259 0
M  V30 12120 C 1149.45 1.11039 -2.00507 0
M  V30 12121 C 1150.45 1.33432 -0.897361 0
M  V30 12122 O 1151.64 1.29688 -1.16304 0
M  V30 12123 C 1148.77 2.46144 -2.35851 0
M  V30 12124 H 1149.96 0.738332 -2.90669 0
M  V30 12125 H 1147.51 0.348334 -1.52369 0
M  V30 12126 H 1148.25 2.88242 -1.48617 0
M  V30 12127 H 1148.03 2.31241 -3.16654 0
M  V30 12128 H 1149.52 3.18577 -2.69997 0
M  V30 12129 N 1149.96 1.53094 0.37415 0
M  V30 12130 C 1151.21 1.68527 1.11548 0
M  V30 12131 C 1151.53 0.435253 1.9008 0
M  V30 12132 O 1150.8 -0.550594 1.88003 0
M  V30 12133 H 1149.38 0.621255 0.41479 0
M  V30 12134 H 1152.04 1.90258 0.422844 0
M  V30 12135 H 1151.14 2.54248 1.81009 0
M  V30 12136 N 1151.44 -0.633461 1.44309 0
M  V30 12137 C 1152.69 -1.39306 1.46969 0
M  V30 12138 C 1153.01 -1.94235 0.101403 0
M  V30 12139 O 1152.27 -1.73959 -0.896475 0
M  V30 12140 C 1152.57 -2.57783 2.47554 0
M  V30 12141 C 1152.23 -2.21156 3.92939 0
M  V30 12142 C 1150.9 -2.1088 4.32531 0
M  V30 12143 C 1153.25 -1.9218 4.84475 0
M  V30 12144 C 1150.58 -1.69812 5.61588 0
M  V30 12145 C 1152.93 -1.52605 6.13917 0
M  V30 12146 C 1151.59 -1.40868 6.52466 0
M  V30 12147 H 1150.86 -0.509758 0.537799 0
M  V30 12148 H 1153.51 -0.718552 1.77508 0
M  V30 12149 H 1151.81 -3.30456 2.1049 0
M  V30 12150 H 1153.51 -3.16009 2.46859 0
M  V30 12151 H 1150.1 -2.30072 3.61614 0
M  V30 12152 H 1154.29 -1.9903 4.54644 0
M  V30 12153 H 1149.54 -1.59327 5.90275 0
M  V30 12154 H 1153.72 -1.29221 6.84306 0
M  V30 12155 H 1151.34 -1.08818 7.52371 0
M  V30 12156 N 1152.92 -1.31168 -0.873655 0
M  V30 12157 C 1154.14 -1.23728 -1.66452 0
M  V30 12158 C 1154.57 0.194869 -1.87088 0
M  V30 12159 O 1153.93 1.1397 -1.40998 0
M  V30 12160 C 1153.97 -1.98285 -3.0119 0
M  V30 12161 O 1153.08 -1.31767 -3.90783 0
M  V30 12162 H 1152.42 -0.427362 -0.508191 0
M  V30 12163 H 1154.95 -1.73176 -1.08955 0
M  V30 12164 H 1154.96 -2.0774 -3.51153 0
M  V30 12165 H 1153.63 -3.02437 -2.8549 0
M  V30 12166 H 1152.21 -1.3074 -3.4923 0
M  V30 12167 N 1154.4 1.08748 -1.14068 0
M  V30 12168 C 1155.64 1.81504 -0.918035 0
M  V30 12169 C 1156 1.84381 0.549671 0
M  V30 12170 O 1155.29 1.30612 1.40183 0
M  V30 12171 C 1155.48 3.26734 -1.44843 0
M  V30 12172 C 1155.31 3.38006 -2.96617 0
M  V30 12173 C 1154.08 3.49401 -3.6503 0
M  V30 12174 C 1156.28 3.29952 -3.94507 0
M  V30 12175 N 1154.26 3.49428 -5.04751 0
M  V30 12176 C 1155.63 3.3693 -5.20459 0
M  V30 12177 C 1157.69 3.13666 -3.86676 0
M  V30 12178 C 1156.39 3.29299 -6.39496 0
M  V30 12179 C 1158.42 3.07363 -5.05254 0
M  V30 12180 C 1157.78 3.1494 -6.30073 0
M  V30 12181 H 1153.88 0.67814 -0.389423 0
M  V30 12182 H 1156.46 1.29916 -1.45017 0
M  V30 12183 H 1154.63 3.76776 -0.943112 0
M  V30 12184 H 1156.37 3.87537 -1.16606 0
M  V30 12185 H 1153.12 3.53145 -3.15572 0
M  V30 12186 H 1153.55 3.53007 -5.77681 0
M  V30 12187 H 1158.19 3.06673 -2.91053 0
M  V30 12188 H 1155.91 3.35054 -7.35367 0
M  V30 12189 H 1159.49 2.95887 -5.00941 0
M  V30 12190 H 1158.37 3.10088 -7.20288 0
M  V30 12191 N 1155.87 0.935264 1.26849 0
M  V30 12192 C 1157.12 0.575467 1.93317 0
M  V30 12193 C 1157.44 -0.88876 1.74242 0
M  V30 12194 O 1158.64 -1.35767 2.35116 0
M  V30 12195 C 1157.1 0.978433 3.46345 0
M  V30 12196 C 1156.71 2.46386 3.74163 0
M  V30 12197 C 1158.45 0.690249 4.18851 0
M  V30 12198 C 1156.36 2.80584 5.20602 0
M  V30 12199 H 1155.29 0.211506 0.723727 0
M  V30 12200 H 1157.94 1.1371 1.44022 0
M  V30 12201 H 1156.32 0.345379 3.94491 0
M  V30 12202 H 1157.49 3.14547 3.36745 0
M  V30 12203 H 1155.81 2.72473 3.14877 0
M  V30 12204 H 1158.41 0.922151 5.26688 0
M  V30 12205 H 1158.75 -0.372805 4.14627 0
M  V30 12206 H 1159.28 1.28275 3.76551 0
M  V30 12207 H 1156.02 3.85828 5.29921 0
M  V30 12208 H 1155.54 2.1708 5.59139 0
M  V30 12209 H 1157.22 2.68732 5.88551 0
M  V30 12210 N 1157.35 -1.41121 0.701616 0
M  V30 12211 C 1158.26 -2.34565 0.0407815 0
M  V30 12212 C 1159.28 -1.56555 -0.75937 0
M  V30 12213 O 1160.45 -1.89008 -0.695542 0
M  V30 12214 C 1157.52 -3.35347 -0.879954 0
M  V30 12215 C 1156.58 -4.29241 -0.0713279 0
M  V30 12216 C 1155.81 -5.25209 -0.948211 0
M  V30 12217 O 1156.04 -5.26781 -2.18766 0
M  V30 12218 O 1154.97 -6.00605 -0.394657 0
M  V30 12219 H 1158.8 -2.92666 0.811188 0
M  V30 12220 H 1156.38 -1.42077 0.461991 0
M  V30 12221 H 1158.26 -3.9719 -1.40776 0
M  V30 12222 H 1156.94 -2.7968 -1.62975 0
M  V30 12223 H 1155.85 -3.70727 0.50122 0
M  V30 12224 H 1157.18 -4.88022 0.639935 0
M  V30 12225 N 1158.83 -0.446794 -1.51134 0
M  V30 12226 C 1160.08 0.116666 -2.02464 0
M  V30 12227 C 1160.41 1.41532 -1.32975 0
M  V30 12228 O 1159.68 1.89278 -0.447651 0
M  V30 12229 C 1159.97 0.325659 -3.58624 0
M  V30 12230 C 1159.82 -0.992307 -4.38718 0
M  V30 12231 C 1161.14 1.09121 -4.26357 0
M  V30 12232 H 1158.26 0.0409262 -0.735863 0
M  V30 12233 H 1160.9 -0.587641 -1.80684 0
M  V30 12234 H 1159.05 0.925585 -3.77313 0
M  V30 12235 H 1160.72 -1.62694 -4.31658 0
M  V30 12236 H 1158.97 -1.5947 -4.03425 0
M  V30 12237 H 1159.64 -0.800005 -5.46172 0
M  V30 12238 H 1162.11 0.582944 -4.11996 0
M  V30 12239 H 1160.99 1.20621 -5.35483 0
M  V30 12240 H 1161.25 2.12171 -3.87861 0
M  V30 12241 N 1160.31 1.56586 -0.178487 0
M  V30 12242 C 1161.54 2.01475 0.470684 0
M  V30 12243 C 1161.95 1.0587 1.56323 0
M  V30 12244 O 1161.31 0.060749 1.82399 0
M  V30 12245 C 1161.36 3.46145 1.04238 0
M  V30 12246 O 1161.08 4.381 -0.0065582 0
M  V30 12247 C 1162.58 4.06471 1.76908 0
M  V30 12248 H 1159.8 0.660219 0.119801 0
M  V30 12249 H 1162.35 2.02542 -0.282322 0
M  V30 12250 H 1160.5 3.45831 1.74585 0
M  V30 12251 H 1160.91 5.22843 0.416554 0
M  V30 12252 H 1162.39 5.096 2.12161 0
M  V30 12253 H 1162.87 3.48974 2.66672 0
M  V30 12254 H 1163.47 4.10509 1.11186 0
M  V30 12255 N 1161.79 -0.095206 1.57312 0
M  V30 12256 C 1163.03 -0.798719 1.86083 0
M  V30 12257 C 1163.36 -1.78739 0.766991 0
M  V30 12258 O 1162.62 -1.9423 -0.239425 0
M  V30 12259 C 1162.92 -1.56244 3.21438 0
M  V30 12260 C 1162.58 -0.715903 4.4518 0
M  V30 12261 C 1161.24 -0.482537 4.78774 0
M  V30 12262 C 1163.6 -0.127404 5.21044 0
M  V30 12263 C 1160.92 0.349193 5.8566 0
M  V30 12264 C 1163.28 0.691649 6.28808 0
M  V30 12265 C 1161.94 0.935107 6.60918 0
M  V30 12266 H 1161.21 -0.292272 0.680924 0
M  V30 12267 H 1163.86 -0.0602105 1.91405 0
M  V30 12268 H 1162.16 -2.37251 3.118 0
M  V30 12269 H 1163.86 -2.11116 3.40927 0
M  V30 12270 H 1160.45 -0.907902 4.18874 0
M  V30 12271 H 1164.63 -0.29486 4.95423 0
M  V30 12272 H 1159.89 0.546797 6.0895 0
M  V30 12273 H 1164.06 1.15452 6.86763 0
M  V30 12274 H 1161.69 1.58139 7.4357 0
M  V30 12275 N 1163.26 -1.53291 -0.366026 0
M  V30 12276 C 1164.21 -1.79697 -1.44836 0
M  V30 12277 C 1165.18 -0.641321 -1.5322 0
M  V30 12278 O 1166.37 -0.883453 -1.69115 0
M  V30 12279 C 1163.51 -1.99223 -2.81788 0
M  V30 12280 C 1162.62 -3.26938 -2.82375 0
M  V30 12281 C 1161.75 -3.36654 -4.10898 0
M  V30 12282 C 1160.79 -4.58404 -4.05626 0
M  V30 12283 N 1159.93 -4.65275 -5.25798 0
M  V30 12284 H 1164.77 -2.72053 -1.21619 0
M  V30 12285 H 1162.31 -1.34768 -0.589577 0
M  V30 12286 H 1164.27 -2.0853 -3.61346 0
M  V30 12287 H 1162.9 -1.10204 -3.03406 0
M  V30 12288 H 1161.95 -3.26587 -1.95052 0
M  V30 12289 H 1163.26 -4.16573 -2.74351 0
M  V30 12290 H 1162.41 -3.4527 -4.98872 0
M  V30 12291 H 1161.15 -2.45035 -4.21674 0
M  V30 12292 H 1160.16 -4.49888 -3.16039 0
M  V30 12293 H 1161.38 -5.51364 -3.96453 0
M  V30 12294 H 1159.33 -3.76557 -5.3716 0
M  V30 12295 H 1159.25 -5.48814 -5.19942 0
M  V30 12296 H 1160.51 -4.78175 -6.15605 0
M  V30 12297 N 1164.74 0.6258 -1.44643 0
M  V30 12298 C 1165.69 1.75869 -1.52226 0
M  V30 12299 C 1166.68 1.64765 -0.39355 0
M  V30 12300 O 1167.89 1.70779 -0.568718 0
M  V30 12301 H 1164.27 0.580712 -0.477784 0
M  V30 12302 H 1166.24 1.66596 -2.47565 0
M  V30 12303 C 1164.99 3.14217 -1.48873 0
M  V30 12304 H 1164.31 3.23411 -2.35043 0
M  V30 12305 H 1165.75 3.93365 -1.58239 0
M  V30 12306 C 1164.21 3.36243 -0.210299 0
M  V30 12307 O 1164.74 3.95243 0.717335 0
M  V30 12308 N 1162.94 2.90385 -0.111744 0
M  V30 12309 H 1162.49 2.42555 -0.867466 0
M  V30 12310 H 1162.45 3.05498 0.742871 0
M  V30 12311 N 1166.22 1.31629 0.866686 0
M  V30 12312 C 1167.63 1.19347 1.43573 0
M  V30 12313 C 1167.98 -0.198765 1.95191 0
M  V30 12314 O 1167.11 -1.09674 1.86549 0
M  V30 12315 C 1167.7 2.16055 2.6097 0
M  V30 12316 C 1166.26 2.07697 3.13909 0
M  V30 12317 C 1165.41 2.05099 1.86627 0
M  V30 12318 H 1168.36 1.43633 0.674929 0
M  V30 12319 H 1168.38 1.75207 3.37761 0
M  V30 12320 H 1167.89 3.17375 2.23371 0
M  V30 12321 H 1165.99 1.09583 3.56121 0
M  V30 12322 H 1166.11 2.96958 3.75969 0
M  V30 12323 H 1164.47 1.50162 2.05727 0
M  V30 12324 H 1165.25 3.0818 1.51261 0
M  V30 12325 N 1167.7 -1.08142 1.14644 0
M  V30 12326 C 1168.63 -2.17139 0.858667 0
M  V30 12327 C 1169.61 -1.69064 -0.187452 0
M  V30 12328 O 1170.8 -1.94151 -0.0435458 0
M  V30 12329 C 1167.93 -3.45648 0.33834 0
M  V30 12330 C 1166.88 -4.07129 1.32021 0
M  V30 12331 C 1166.21 -5.30623 0.659075 0
M  V30 12332 C 1167.51 -4.48095 2.68343 0
M  V30 12333 H 1169.2 -2.41468 1.77012 0
M  V30 12334 H 1166.75 -1.16052 0.852523 0
M  V30 12335 H 1168.7 -4.21216 0.124611 0
M  V30 12336 H 1167.42 -3.2088 -0.608553 0
M  V30 12337 H 1166.08 -3.33596 1.52016 0
M  V30 12338 H 1165.73 -5.02142 -0.293711 0
M  V30 12339 H 1165.43 -5.72714 1.31427 0
M  V30 12340 H 1166.95 -6.08903 0.454933 0
M  V30 12341 H 1168.37 -5.14828 2.5224 0
M  V30 12342 H 1166.76 -5.01113 3.30161 0
M  V30 12343 H 1167.83 -3.59852 3.25015 0
M  V30 12344 N 1169.18 -0.941978 -1.26351 0
M  V30 12345 C 1170.42 -0.590845 -1.94002 0
M  V30 12346 C 1170.76 0.868004 -1.73722 0
M  V30 12347 O 1170.03 1.62111 -1.07472 0
M  V30 12348 C 1170.31 -0.934901 -3.47752 0
M  V30 12349 C 1170.17 -2.44855 -3.77314 0
M  V30 12350 C 1171.49 -0.450888 -4.37784 0
M  V30 12351 H 1168.61 -0.21613 -0.704597 0
M  V30 12352 H 1171.25 -1.17634 -1.49205 0
M  V30 12353 H 1169.4 -0.436648 -3.86038 0
M  V30 12354 H 1171.07 -3.01959 -3.48738 0
M  V30 12355 H 1169.31 -2.89169 -3.23363 0
M  V30 12356 H 1169.98 -2.6398 -4.84787 0
M  V30 12357 H 1172.46 -0.878107 -4.06729 0
M  V30 12358 H 1171.34 -0.720439 -5.44152 0
M  V30 12359 H 1171.6 0.649162 -4.37308 0
M  V30 12360 N 1170.66 1.40747 -0.709091 0
M  V30 12361 C 1171.9 2.01796 -0.254976 0
M  V30 12362 C 1172.26 1.55202 1.13711 0
M  V30 12363 O 1171.55 0.759312 1.75912 0
M  V30 12364 C 1171.74 3.56404 -0.266685 0
M  V30 12365 C 1171.57 4.18005 -1.65837 0
M  V30 12366 C 1170.34 4.51719 -2.26447 0
M  V30 12367 C 1172.54 4.43302 -2.60744 0
M  V30 12368 N 1170.52 4.9868 -3.58039 0
M  V30 12369 C 1171.89 4.92185 -3.77033 0
M  V30 12370 C 1173.95 4.25332 -2.58839 0
M  V30 12371 C 1172.65 5.24984 -4.91715 0
M  V30 12372 C 1174.68 4.59228 -3.72644 0
M  V30 12373 C 1174.04 5.08294 -4.87664 0
M  V30 12374 H 1170.14 0.769549 -0.138991 0
M  V30 12375 H 1172.72 1.71081 -0.929488 0
M  V30 12376 H 1170.89 3.86562 0.377365 0
M  V30 12377 H 1172.63 4.04188 0.203528 0
M  V30 12378 H 1169.38 4.38631 -1.78605 0
M  V30 12379 H 1169.8 5.2655 -4.25528 0
M  V30 12380 H 1174.45 3.86623 -1.71121 0
M  V30 12381 H 1172.16 5.6261 -5.80082 0
M  V30 12382 H 1175.75 4.4697 -3.72437 0
M  V30 12383 H 1174.63 5.3403 -5.74267 0
M  V30 12384 N 1172.13 0.454803 1.50895 0
M  V30 12385 C 1173.38 -0.105927 2.02523 0
M  V30 12386 C 1173.71 -1.40825 1.33724 0
M  V30 12387 O 1172.99 -1.89038 0.457683 0
M  V30 12388 C 1173.27 -0.306635 3.58792 0
M  V30 12389 C 1173.12 1.01556 4.38185 0
M  V30 12390 C 1174.44 -1.06858 4.2693 0
M  V30 12391 H 1171.56 -0.0370232 0.736069 0
M  V30 12392 H 1174.2 0.597215 1.8037 0
M  V30 12393 H 1172.35 -0.905563 3.77799 0
M  V30 12394 H 1174.03 1.64981 4.30789 0
M  V30 12395 H 1172.27 1.61608 4.02574 0
M  V30 12396 H 1172.94 0.828959 5.4574 0
M  V30 12397 H 1175.42 -0.561086 4.123 0
M  V30 12398 H 1174.29 -1.1778 5.36115 0
M  V30 12399 H 1174.55 -2.10111 3.8898 0
M  V30 12400 N 1173.61 -1.56489 0.186789 0
M  V30 12401 C 1174.56 -2.15311 -0.750024 0
M  V30 12402 C 1175.55 -1.09156 -1.18211 0
M  V30 12403 O 1176.74 -1.3524 -1.14189 0
M  V30 12404 C 1173.87 -2.80952 -1.97284 0
M  V30 12405 C 1172.95 -3.94286 -1.56204 0
M  V30 12406 N 1173.34 -4.98406 -0.861705 0
M  V30 12407 C 1171.64 -4.05733 -1.85194 0
M  V30 12408 C 1172.34 -5.77977 -0.657078 0
M  V30 12409 N 1171.32 -5.30116 -1.20326 0
M  V30 12410 H 1175.12 -2.93176 -0.206148 0
M  V30 12411 H 1172.63 -1.62395 -0.0133163 0
M  V30 12412 H 1174.63 -3.21479 -2.65437 0
M  V30 12413 H 1173.29 -2.04572 -2.52152 0
M  V30 12414 H 1174.3 -5.15302 -0.518067 0
M  V30 12415 H 1170.98 -3.40472 -2.4163 0
M  V30 12416 H 1172.37 -6.71822 -0.102123 0
M  V30 12417 N 1175.09 0.086862 -1.5736 0
M  V30 12418 C 1176.05 1.08906 -2.01673 0
M  V30 12419 C 1177.05 1.32473 -0.911463 0
M  V30 12420 O 1178.24 1.28447 -1.17673 0
M  V30 12421 C 1175.37 2.43629 -2.38449 0
M  V30 12422 H 1176.57 0.707461 -2.91436 0
M  V30 12423 H 1174.12 0.332154 -1.5273 0
M  V30 12424 H 1174.86 2.8665 -1.51665 0
M  V30 12425 H 1174.64 2.2787 -3.19089 0
M  V30 12426 H 1176.13 3.15695 -2.73361 0
M  V30 12427 N 1176.57 1.53483 0.357892 0
M  V30 12428 C 1177.79 1.74264 1.12458 0
M  V30 12429 C 1178.22 0.473944 1.82031 0
M  V30 12430 O 1177.58 -0.57253 1.72023 0
M  V30 12431 C 1177.62 2.91356 2.12471 0
M  V30 12432 O 1176.73 2.60502 3.19707 0
M  V30 12433 H 1176.07 0.578499 0.325937 0
M  V30 12434 H 1178.6 2.00395 0.412666 0
M  V30 12435 H 1178.61 3.1774 2.5594 0
M  V30 12436 H 1177.28 3.83378 1.61226 0
M  V30 12437 H 1175.86 2.44961 2.81156 0
M  V30 12438 N 1178.05 -0.61812 1.44973 0
M  V30 12439 C 1179.46 -1.19994 1.43033 0
M  V30 12440 C 1179.81 -1.95607 0.152422 0
M  V30 12441 O 1178.93 -2.03114 -0.746571 0
M  V30 12442 C 1179.53 -2.18269 2.59122 0
M  V30 12443 C 1178.09 -2.7185 2.60336 0
M  V30 12444 C 1177.23 -1.4707 2.35086 0
M  V30 12445 H 1180.18 -0.408034 1.53365 0
M  V30 12446 H 1180.21 -3.01113 2.32619 0
M  V30 12447 H 1179.72 -1.63208 3.52115 0
M  V30 12448 H 1177.82 -3.30878 1.7132 0
M  V30 12449 H 1177.93 -3.17001 3.59231 0
M  V30 12450 H 1176.3 -1.75658 1.84435 0
M  V30 12451 H 1177.08 -0.938928 3.30211 0
M  V30 12452 N 1179.52 -1.32087 -0.859693 0
M  V30 12453 C 1180.43 -1.22587 -2.00024 0
M  V30 12454 C 1181.45 -0.140477 -1.73432 0
M  V30 12455 O 1182.63 -0.360213 -1.98153 0
M  V30 12456 C 1179.69 -0.944195 -3.33595 0
M  V30 12457 C 1178.75 -2.11752 -3.73443 0
M  V30 12458 C 1177.98 -1.84919 -5.0064 0
M  V30 12459 O 1178.21 -0.789299 -5.64913 0
M  V30 12460 O 1177.14 -2.70885 -5.37499 0
M  V30 12461 H 1180.97 -2.18457 -2.10974 0
M  V30 12462 H 1178.55 -1.11927 -0.989577 0
M  V30 12463 H 1180.43 -0.803389 -4.13671 0
M  V30 12464 H 1179.11 -0.0156083 -3.23696 0
M  V30 12465 H 1178.02 -2.31378 -2.93965 0
M  V30 12466 H 1179.35 -3.02872 -3.87981 0
M  V30 12467 N 1181 1.07532 -1.15215 0
M  V30 12468 C 1181.95 2.12909 -0.815714 0
M  V30 12469 C 1182.94 1.59662 0.1992 0
M  V30 12470 O 1184.13 1.77 0.000215597 0
M  V30 12471 C 1181.26 3.41945 -0.304717 0
M  V30 12472 C 1180.34 4.0205 -1.34968 0
M  V30 12473 N 1180.73 4.36439 -2.55646 0
M  V30 12474 C 1179.03 4.29498 -1.20199 0
M  V30 12475 C 1179.73 4.84044 -3.22609 0
M  V30 12476 N 1178.71 4.82702 -2.5 0
M  V30 12477 H 1182.51 2.37327 -1.73358 0
M  V30 12478 H 1180.02 1.24952 -1.03734 0
M  V30 12479 H 1182.02 4.16875 -0.0453503 0
M  V30 12480 H 1180.68 3.18971 0.607235 0
M  V30 12481 H 1181.69 4.27184 -2.92804 0
M  V30 12482 H 1178.37 4.16032 -0.349781 0
M  V30 12483 H 1179.76 5.19959 -4.2555 0
M  V30 12484 N 1182.48 0.948665 1.2585 0
M  V30 12485 C 1183.73 0.601125 1.93686 0
M  V30 12486 C 1184.06 -0.858779 1.7418 0
M  V30 12487 O 1183.33 -1.61539 1.0833 0
M  V30 12488 C 1183.62 0.95333 3.47252 0
M  V30 12489 C 1183.47 2.46853 3.7601 0
M  V30 12490 C 1184.79 0.474098 4.37539 0
M  V30 12491 H 1181.91 0.219864 0.703441 0
M  V30 12492 H 1184.55 1.18424 1.48579 0
M  V30 12493 H 1182.7 0.457114 3.85801 0
M  V30 12494 H 1184.37 3.03804 3.47132 0
M  V30 12495 H 1182.62 2.9088 3.21825 0
M  V30 12496 H 1183.29 2.66547 4.83381 0
M  V30 12497 H 1185.76 0.899664 4.06258 0
M  V30 12498 H 1184.64 0.749287 5.43762 0
M  V30 12499 H 1184.9 -0.625961 4.37646 0
M  V30 12500 N 1183.96 -1.40369 0.716545 0
M  V30 12501 C 1185.2 -2.01167 0.256846 0
M  V30 12502 C 1185.54 -1.56689 -1.14727 0
M  V30 12503 O 1184.81 -0.787384 -1.7785 0
M  V30 12504 C 1185.1 -3.58511 0.337963 0
M  V30 12505 C 1184.95 -4.13059 1.78052 0
M  V30 12506 C 1186.27 -4.39142 -0.290295 0
M  V30 12507 H 1183.39 -0.730877 0.0948028 0
M  V30 12508 H 1186.03 -1.66833 0.909225 0
M  V30 12509 H 1184.18 -3.87891 -0.217482 0
M  V30 12510 H 1185.85 -3.94472 2.39143 0
M  V30 12511 H 1184.09 -3.67311 2.30793 0
M  V30 12512 H 1184.76 -5.22217 1.78867 0
M  V30 12513 H 1187.24 -4.15697 0.182987 0
M  V30 12514 H 1186.12 -5.48524 -0.203097 0
M  V30 12515 H 1186.38 -4.20209 -1.37394 0
M  V30 12516 N 1185.44 -0.462799 -1.50652 0
M  V30 12517 C 1186.68 0.0951853 -2.02576 0
M  V30 12518 C 1187.02 1.40113 -1.34469 0
M  V30 12519 O 1186.29 1.88793 -0.467702 0
M  V30 12520 C 1186.57 0.287603 -3.5895 0
M  V30 12521 C 1186.43 -1.03878 -4.37641 0
M  V30 12522 C 1187.75 1.04593 -4.27491 0
M  V30 12523 H 1184.86 0.0331191 -0.736255 0
M  V30 12524 H 1187.51 -0.606772 -1.80051 0
M  V30 12525 H 1185.66 0.885514 -3.78274 0
M  V30 12526 H 1187.33 -1.67263 -4.29908 0
M  V30 12527 H 1185.57 -1.6374 -4.01711 0
M  V30 12528 H 1186.24 -0.857889 -5.45293 0
M  V30 12529 H 1188.72 0.539213 -4.12591 0
M  V30 12530 H 1187.59 1.14935 -5.36732 0
M  V30 12531 H 1187.86 2.08045 -3.90089 0
M  V30 12532 N 1186.91 1.56388 -0.195085 0
M  V30 12533 C 1188.14 2.01963 0.449289 0
M  V30 12534 C 1188.56 1.07522 1.55192 0
M  V30 12535 O 1187.91 0.0800915 1.82324 0
M  V30 12536 C 1187.97 3.47231 1.00561 0
M  V30 12537 O 1187.69 4.38068 -0.0530241 0
M  V30 12538 C 1189.19 4.08324 1.72587 0
M  V30 12539 H 1186.41 0.661452 0.112792 0
M  V30 12540 H 1188.95 2.02231 -0.303788 0
M  V30 12541 H 1187.11 3.47663 1.70907 0
M  V30 12542 H 1187.52 5.23256 0.361076 0
M  V30 12543 H 1188.99 5.11821 2.06744 0
M  V30 12544 H 1189.47 3.51782 2.62956 0
M  V30 12545 H 1190.08 4.11665 1.06826 0
M  V30 12546 N 1188.39 -0.0785156 1.57404 0
M  V30 12547 C 1189.81 -0.433143 1.5361 0
M  V30 12548 C 1190.01 -1.79564 0.914283 0
M  V30 12549 O 1189.06 -2.47215 0.513899 0
M  V30 12550 C 1190.38 -0.380387 2.98284 0
M  V30 12551 C 1191.93 -0.461056 3.09586 0
M  V30 12552 C 1192.4 -0.438276 4.55898 0
M  V30 12553 N 1193.89 -0.498548 4.60509 0
M  V30 12554 C 1194.63 -0.503028 5.71189 0
M  V30 12555 N 1194.12 -0.462724 6.91253 0
M  V30 12556 N 1195.92 -0.549083 5.59412 0
M  V30 12557 H 1188.07 0.813724 1.96195 0
M  V30 12558 H 1190.33 0.304644 0.897717 0
M  V30 12559 H 1190.04 0.553932 3.4731 0
M  V30 12560 H 1189.91 -1.19313 3.57833 0
M  V30 12561 H 1192.3 -1.3858 2.60537 0
M  V30 12562 H 1192.38 0.380138 2.5296 0
M  V30 12563 H 1192.02 0.482588 5.05602 0
M  V30 12564 H 1191.95 -1.29691 5.1038 0
M  V30 12565 H 1194.44 -0.534219 3.74105 0
M  V30 12566 H 1194.76 -0.469883 7.7137 0
M  V30 12567 H 1193.1 -0.429515 6.93672 0
M  V30 12568 H 1196.29 -0.578215 4.64515 0
M  V30 12569 H 1196.46 -0.549105 6.45669 0
M  V30 12570 N 1189.87 -1.5367 -0.349747 0
M  V30 12571 C 1190.82 -1.81914 -1.44948 0
M  V30 12572 C 1191.81 -0.689218 -1.54745 0
M  V30 12573 O 1193.02 -0.872448 -1.57443 0
M  V30 12574 H 1189.39 -0.576234 -0.483176 0
M  V30 12575 H 1191.36 -2.73932 -1.18338 0
M  V30 12576 C 1190.11 -2.04005 -2.81562 0
M  V30 12577 H 1189.44 -2.90399 -2.74788 0
M  V30 12578 H 1190.88 -2.27737 -3.57648 0
M  V30 12579 C 1189.34 -0.823748 -3.26674 0
M  V30 12580 O 1189.87 -0.0201351 -4.01695 0
M  V30 12581 N 1188.07 -0.642716 -2.83403 0
M  V30 12582 H 1187.62 -1.29783 -2.22517 0
M  V30 12583 H 1187.58 0.169654 -3.13942 0
M  V30 12584 N 1191.35 0.610423 -1.45298 0
M  V30 12585 C 1192.76 0.930872 -1.29642 0
M  V30 12586 C 1192.96 1.99976 -0.247358 0
M  V30 12587 O 1192.02 2.49925 0.359674 0
M  V30 12588 C 1193.33 1.37449 -2.67448 0
M  V30 12589 C 1194.88 1.48885 -2.75322 0
M  V30 12590 C 1195.36 1.96624 -4.13646 0
M  V30 12591 N 1196.85 2.03862 -4.15926 0
M  V30 12592 C 1197.58 2.42015 -5.19823 0
M  V30 12593 N 1197.08 2.79157 -6.34069 0
M  V30 12594 N 1198.87 2.42329 -5.07181 0
M  V30 12595 H 1191.02 -0.0961259 -2.12182 0
M  V30 12596 H 1193.29 0.0196483 -0.947796 0
M  V30 12597 H 1192.99 0.663276 -3.45389 0
M  V30 12598 H 1192.87 2.34155 -2.95721 0
M  V30 12599 H 1195.25 2.19098 -1.97686 0
M  V30 12600 H 1195.33 0.505006 -2.50765 0
M  V30 12601 H 1194.98 1.26998 -4.91766 0
M  V30 12602 H 1194.91 2.95917 -4.35592 0
M  V30 12603 H 1197.4 1.77759 -3.33482 0
M  V30 12604 H 1197.71 3.07143 -7.09142 0
M  V30 12605 H 1196.06 2.7686 -6.37474 0
M  V30 12606 H 1199.25 2.12717 -4.16976 0
M  V30 12607 H 1199.42 2.71738 -5.88271 0
M  V30 12608 N 1192.83 1.32541 0.852676 0
M  V30 12609 C 1194.24 1.11575 1.14119 0
M  V30 12610 C 1194.44 -0.102469 2.01239 0
M  V30 12611 O 1193.5 -0.786786 2.39929 0
M  V30 12612 C 1194.81 2.39624 1.81661 0
M  V30 12613 C 1196.36 2.454 1.94288 0
M  V30 12614 C 1196.83 3.73375 2.65245 0
M  V30 12615 N 1198.33 3.74368 2.72769 0
M  V30 12616 C 1199.06 4.70094 3.28328 0
M  V30 12617 N 1198.56 5.76187 3.84682 0
M  V30 12618 N 1200.35 4.57588 3.26449 0
M  V30 12619 H 1192.5 2.10644 0.272544 0
M  V30 12620 H 1194.76 0.930094 0.183385 0
M  V30 12621 H 1194.47 3.28698 1.25102 0
M  V30 12622 H 1194.34 2.50734 2.81802 0
M  V30 12623 H 1196.73 1.56784 2.50005 0
M  V30 12624 H 1196.81 2.38241 0.931379 0
M  V30 12625 H 1196.46 4.62366 2.10191 0
M  V30 12626 H 1196.39 3.77806 3.66838 0
M  V30 12627 H 1198.88 2.97685 2.32791 0
M  V30 12628 H 1199.19 6.45285 4.25238 0
M  V30 12629 H 1197.53 5.79939 3.83008 0
M  V30 12630 H 1200.73 3.7387 2.81672 0
M  V30 12631 H 1200.9 5.32365 3.69448 0
M  V30 12632 N 1194.3 -1.0692 1.15784 0
M  V30 12633 C 1195.53 -1.83849 0.959903 0
M  V30 12634 C 1195.95 -1.8169 -0.486873 0
M  V30 12635 O 1195.31 -1.21305 -1.34739 0
M  V30 12636 C 1195.36 -3.28642 1.48414 0
M  V30 12637 O 1194.46 -4.0665 0.686249 0
M  V30 12638 H 1193.81 -0.569115 0.342059 0
M  V30 12639 H 1196.34 -1.34851 1.53871 0
M  V30 12640 H 1196.35 -3.7947 1.49888 0
M  V30 12641 H 1195.02 -3.29529 2.53739 0
M  V30 12642 H 1193.6 -3.65453 0.741501 0
M  V30 12643 N 1195.78 -0.955326 -1.25345 0
M  V30 12644 C 1197.01 -0.627233 -1.97688 0
M  V30 12645 C 1197.43 0.793973 -1.70522 0
M  V30 12646 O 1196.79 1.537 -0.961556 0
M  V30 12647 C 1196.84 -0.892969 -3.49369 0
M  V30 12648 O 1195.94 0.0278871 -4.12391 0
M  V30 12649 H 1195.28 -0.238402 -0.619726 0
M  V30 12650 H 1197.81 -1.28211 -1.59446 0
M  V30 12651 H 1197.82 -0.819517 -3.99685 0
M  V30 12652 H 1196.5 -1.92879 -3.6847 0
M  V30 12653 H 1195.08 -0.0978295 -3.72772 0
M  V30 12654 N 1197.26 1.39987 -0.723979 0
M  V30 12655 C 1198.22 2.29041 -0.0854583 0
M  V30 12656 C 1199.22 1.45777 0.678657 0
M  V30 12657 O 1200.41 1.66588 0.509311 0
M  V30 12658 C 1197.55 3.29115 0.88859 0
M  V30 12659 H 1198.74 2.87006 -0.869903 0
M  V30 12660 H 1196.29 1.48449 -0.489136 0
M  V30 12661 H 1197.03 2.76184 1.69979 0
M  V30 12662 H 1196.81 3.90593 0.343454 0
M  V30 12663 H 1198.3 3.95778 1.33227 0
M  V30 12664 N 1198.74 0.470782 1.50404 0
M  V30 12665 C 1199.97 -0.0818945 2.06438 0
M  V30 12666 C 1200.38 -1.34085 1.33483 0
M  V30 12667 O 1199.72 -1.79346 0.397565 0
M  V30 12668 C 1199.78 -0.436252 3.56843 0
M  V30 12669 C 1199.45 0.720641 4.51282 0
M  V30 12670 C 1200.44 1.60258 4.94584 0
M  V30 12671 C 1198.13 0.910879 4.93972 0
M  V30 12672 C 1200.12 2.65916 5.79282 0
M  V30 12673 C 1197.81 1.97069 5.78452 0
M  V30 12674 C 1198.81 2.84319 6.21008 0
M  V30 12675 O 1198.5 3.88476 7.03805 0
M  V30 12676 H 1198.23 0.00361688 0.67599 0
M  V30 12677 H 1200.78 0.658488 1.94559 0
M  V30 12678 H 1199.01 -1.22982 3.66623 0
M  V30 12679 H 1200.7 -0.923976 3.95244 0
M  V30 12680 H 1201.47 1.46729 4.62272 0
M  V30 12681 H 1197.35 0.241225 4.60368 0
M  V30 12682 H 1200.89 3.3405 6.12419 0
M  V30 12683 H 1196.79 2.10605 6.10177 0
M  V30 12684 H 1197.55 3.8546 7.22054 0
M  V30 12685 N 1200.22 -1.56282 0.203376 0
M  V30 12686 C 1201.16 -2.19473 -0.714164 0
M  V30 12687 C 1202.13 -1.14454 -1.20372 0
M  V30 12688 O 1203.32 -1.42739 -1.26611 0
M  V30 12689 C 1200.46 -2.86451 -1.92457 0
M  V30 12690 C 1199.57 -4.06017 -1.47561 0
M  V30 12691 C 1198.71 -4.60829 -2.64216 0
M  V30 12692 C 1197.75 -5.72734 -2.15967 0
M  V30 12693 N 1196.88 -6.21916 -3.25829 0
M  V30 12694 H 1201.72 -2.97523 -0.168558 0
M  V30 12695 H 1199.26 -1.46926 -0.0714525 0
M  V30 12696 H 1201.22 -3.23459 -2.63496 0
M  V30 12697 H 1199.85 -2.10951 -2.44335 0
M  V30 12698 H 1198.9 -3.74617 -0.660784 0
M  V30 12699 H 1200.21 -4.8693 -1.08168 0
M  V30 12700 H 1199.37 -5.00185 -3.43366 0
M  V30 12701 H 1198.11 -3.7904 -3.06887 0
M  V30 12702 H 1197.11 -5.32899 -1.35273 0
M  V30 12703 H 1198.34 -6.56346 -1.74316 0
M  V30 12704 H 1196.28 -5.43047 -3.68016 0
M  V30 12705 H 1196.2 -6.97904 -2.90631 0
M  V30 12706 H 1197.47 -6.65927 -4.05168 0
M  V30 12707 N 1201.7 0.070167 -1.57444 0
M  V30 12708 C 1202.94 0.764899 -1.8847 0
M  V30 12709 C 1203.3 1.75104 -0.797264 0
M  V30 12710 O 1202.59 1.9057 0.198411 0
M  V30 12711 C 1202.78 1.5111 -3.23883 0
M  V30 12712 C 1202.61 0.598732 -4.45696 0
M  V30 12713 C 1201.38 0.235066 -5.04753 0
M  V30 12714 C 1203.58 -0.105234 -5.14192 0
M  V30 12715 N 1201.56 -0.682856 -6.1009 0
M  V30 12716 C 1202.93 -0.880286 -6.13719 0
M  V30 12717 C 1204.99 -0.176534 -4.97587 0
M  V30 12718 C 1203.69 -1.72002 -6.98432 0
M  V30 12719 C 1205.72 -1.00324 -5.82828 0
M  V30 12720 C 1205.08 -1.76634 -6.81894 0
M  V30 12721 H 1201.18 0.255278 -0.73916 0
M  V30 12722 H 1203.76 0.0263555 -1.94682 0
M  V30 12723 H 1201.93 2.22036 -3.18676 0
M  V30 12724 H 1203.67 2.15498 -3.42553 0
M  V30 12725 H 1200.42 0.588283 -4.69932 0
M  V30 12726 H 1200.84 -1.13511 -6.67416 0
M  V30 12727 H 1205.49 0.399107 -4.20912 0
M  V30 12728 H 1203.2 -2.30662 -7.74481 0
M  V30 12729 H 1206.79 -1.06141 -5.72036 0
M  V30 12730 H 1205.67 -2.39573 -7.46709 0
M  V30 12731 N 1203.17 1.53854 0.341593 0
M  V30 12732 C 1204.12 1.81979 1.41959 0
M  V30 12733 C 1205.09 0.665616 1.5218 0
M  V30 12734 O 1206.28 0.910246 1.67688 0
M  V30 12735 C 1203.42 2.03681 2.78583 0
M  V30 12736 C 1202.53 3.31389 2.77137 0
M  V30 12737 C 1201.66 3.43148 4.05491 0
M  V30 12738 C 1200.7 4.64799 3.98282 0
M  V30 12739 N 1199.84 4.73581 5.18329 0
M  V30 12740 H 1204.68 2.73953 1.17275 0
M  V30 12741 H 1202.22 1.35689 0.568062 0
M  V30 12742 H 1204.17 2.14253 3.57983 0
M  V30 12743 H 1202.8 1.15017 3.01614 0
M  V30 12744 H 1201.86 3.29649 1.89832 0
M  V30 12745 H 1203.17 4.20885 2.67689 0
M  V30 12746 H 1202.32 3.53163 4.93316 0
M  V30 12747 H 1201.06 2.51712 4.17723 0
M  V30 12748 H 1200.07 4.54859 3.08842 0
M  V30 12749 H 1201.29 5.57601 3.87631 0
M  V30 12750 H 1199.24 3.85055 5.31102 0
M  V30 12751 H 1199.15 5.57016 5.11145 0
M  V30 12752 H 1200.42 4.87908 6.0792 0
M  V30 12753 N 1204.65 -0.602709 1.4562 0
M  V30 12754 C 1205.56 -1.74132 1.5721 0
M  V30 12755 C 1206.58 -1.67909 0.456347 0
M  V30 12756 O 1207.75 -1.88178 0.717714 0
M  V30 12757 C 1204.82 -3.10604 1.54032 0
M  V30 12758 C 1203.88 -3.28244 2.76685 0
M  V30 12759 C 1203.11 -4.58205 2.73649 0
M  V30 12760 O 1203.34 -5.40836 1.81254 0
M  V30 12761 O 1202.27 -4.78663 3.64919 0
M  V30 12762 H 1206.1 -1.67304 2.53462 0
M  V30 12763 H 1203.68 -0.767381 1.28186 0
M  V30 12764 H 1205.56 -3.91904 1.54885 0
M  V30 12765 H 1204.24 -3.17913 0.60934 0
M  V30 12766 H 1203.14 -2.46514 2.81393 0
M  V30 12767 H 1204.48 -3.25814 3.68925 0
M  V30 12768 N 1206.13 -1.32992 -0.845635 0
M  V30 12769 C 1207.36 -1.27087 -1.63268 0
M  V30 12770 C 1207.77 0.159481 -1.88125 0
M  V30 12771 O 1207.13 1.09948 -1.45663 0
M  V30 12772 C 1207.18 -2.03649 -2.98679 0
M  V30 12773 O 1206.9 -3.41104 -2.74918 0
M  V30 12774 C 1208.4 -2.04875 -3.93117 0
M  V30 12775 H 1205.62 -0.438107 -0.508236 0
M  V30 12776 H 1208.17 -1.75257 -1.05381 0
M  V30 12777 H 1206.32 -1.59178 -3.53187 0
M  V30 12778 H 1206.74 -3.80405 -3.61099 0
M  V30 12779 H 1208.21 -2.62911 -4.85368 0
M  V30 12780 H 1208.69 -1.03728 -4.26775 0
M  V30 12781 H 1209.29 -2.49334 -3.44547 0
M  V30 12782 N 1207.61 1.06304 -1.1635 0
M  V30 12783 C 1208.54 2.15745 -0.893103 0
M  V30 12784 C 1209.52 1.69341 0.160531 0
M  V30 12785 O 1210.7 1.94196 0.0126526 0
M  V30 12786 C 1207.83 3.45066 -0.393287 0
M  V30 12787 C 1206.79 4.04978 -1.38482 0
M  V30 12788 C 1206.11 5.29507 -0.743409 0
M  V30 12789 C 1207.41 4.4377 -2.75438 0
M  V30 12790 H 1209.11 2.38622 -1.80831 0
M  V30 12791 H 1206.65 1.14681 -0.870878 0
M  V30 12792 H 1208.61 4.20964 -0.191607 0
M  V30 12793 H 1207.33 3.21808 0.557426 0
M  V30 12794 H 1205.99 3.31136 -1.57304 0
M  V30 12795 H 1205.64 5.02545 0.213787 0
M  V30 12796 H 1205.34 5.7055 -1.40521 0
M  V30 12797 H 1206.86 6.08102 -0.551746 0
M  V30 12798 H 1208.28 5.1075 -2.60398 0
M  V30 12799 H 1206.67 4.95797 -3.38091 0
M  V30 12800 H 1207.74 3.54636 -3.30699 0
M  V30 12801 N 1209.09 0.96196 1.24836 0
M  V30 12802 C 1210.33 0.620715 1.92752 0
M  V30 12803 C 1210.66 -0.843308 1.75267 0
M  V30 12804 O 1209.92 -1.62141 1.09584 0
M  V30 12805 C 1210.21 0.934481 3.44967 0
M  V30 12806 C 1209.88 2.38572 3.82615 0
M  V30 12807 C 1208.54 2.78238 3.92603 0
M  V30 12808 C 1210.89 3.32784 4.01129 0
M  V30 12809 C 1208.22 4.11169 4.18518 0
M  V30 12810 C 1210.57 4.65336 4.28539 0
M  V30 12811 C 1209.24 5.04788 4.36745 0
M  V30 12812 H 1208.51 0.227136 0.70533 0
M  V30 12813 H 1211.16 1.21237 1.48236 0
M  V30 12814 H 1209.46 0.260516 3.90933 0
M  V30 12815 H 1211.16 0.648923 3.95715 0
M  V30 12816 H 1207.75 2.06812 3.75402 0
M  V30 12817 H 1211.93 3.03325 3.9282 0
M  V30 12818 H 1207.19 4.41368 4.23089 0
M  V30 12819 H 1211.36 5.3831 4.41809 0
M  V30 12820 H 1208.99 6.07816 4.56579 0
M  V30 12821 N 1210.56 -1.39601 0.731392 0
M  V30 12822 C 1211.79 -2.05411 0.286532 0
M  V30 12823 C 1212.21 -1.54777 -1.06892 0
M  V30 12824 O 1211.57 -0.689942 -1.67659 0
M  V30 12825 C 1211.62 -3.594 0.293914 0
M  V30 12826 O 1210.72 -4.06072 -0.719657 0
M  V30 12827 H 1210.06 -0.650949 0.131004 0
M  V30 12828 H 1212.59 -1.78703 0.996305 0
M  V30 12829 H 1212.6 -4.0777 0.137052 0
M  V30 12830 H 1211.28 -3.95617 1.28298 0
M  V30 12831 H 1209.86 -3.69125 -0.529226 0
M  V30 12832 N 1212.04 -0.478751 -1.50152 0
M  V30 12833 C 1213.29 0.073694 -2.02666 0
M  V30 12834 C 1213.62 1.38679 -1.35947 0
M  V30 12835 O 1212.9 1.88286 -0.4877 0
M  V30 12836 C 1213.18 0.249516 -3.59235 0
M  V30 12837 C 1213.03 -1.08514 -4.36514 0
M  V30 12838 C 1214.35 1.00053 -4.28576 0
M  V30 12839 H 1211.47 0.0253082 -0.736565 0
M  V30 12840 H 1214.11 -0.625834 -1.79397 0
M  V30 12841 H 1212.26 0.845343 -3.79192 0
M  V30 12842 H 1213.93 -1.71814 -4.28109 0
M  V30 12843 H 1212.18 -1.67992 -3.99952 0
M  V30 12844 H 1212.85 -0.915676 -5.44352 0
M  V30 12845 H 1215.32 0.495422 -4.1314 0
M  V30 12846 H 1214.2 1.09236 -5.37921 0
M  V30 12847 H 1214.46 2.03896 -3.92274 0
M  V30 12848 N 1213.52 1.56172 -0.211661 0
M  V30 12849 C 1214.45 2.15791 0.74225 0
M  V30 12850 C 1215.43 1.0994 1.198 0
M  V30 12851 O 1216.62 1.38143 1.28253 0
M  V30 12852 C 1213.74 2.73021 2.00443 0
M  V30 12853 C 1212.79 3.91611 1.68946 0
M  V30 12854 S 1213.62 5.29139 0.822949 0
M  V30 12855 C 1214.78 5.898 2.09491 0
M  V30 12856 H 1215.01 2.96366 0.235482 0
M  V30 12857 H 1212.54 1.544 0.0035357 0
M  V30 12858 H 1214.5 3.06635 2.7292 0
M  V30 12859 H 1213.16 1.92457 2.48232 0
M  V30 12860 H 1212.36 4.30122 2.62699 0
M  V30 12861 H 1211.96 3.59093 1.04539 0
M  V30 12862 H 1214.25 6.05172 3.04587 0
M  V30 12863 H 1215.19 6.86036 1.75386 0
M  V30 12864 H 1215.6 5.18546 2.23093 0
M  V30 12865 N 1215 -0.0618163 1.57479 0
M  V30 12866 C 1216.41 -0.612461 1.76368 0
M  V30 12867 C 1216.76 -1.77381 0.838466 0
M  V30 12868 O 1215.89 -2.16386 0.0250211 0
M  V30 12869 C 1216.48 -1.11782 3.19829 0
M  V30 12870 C 1215.04 -1.61424 3.40028 0
M  V30 12871 C 1214.19 -0.53795 2.72032 0
M  V30 12872 H 1217.14 0.164382 1.57846 0
M  V30 12873 H 1217.16 -1.98634 3.24538 0
M  V30 12874 H 1216.67 -0.272353 3.87143 0
M  V30 12875 H 1214.77 -2.48263 2.77842 0
M  V30 12876 H 1214.88 -1.68431 4.48517 0
M  V30 12877 H 1213.25 -0.985355 2.34868 0
M  V30 12878 H 1214.03 0.297495 3.42009 0
M  V30 12879 N 1216.48 -1.54033 -0.333429 0
M  V30 12880 C 1217.72 -1.71426 -1.0704 0
M  V30 12881 C 1218.05 -0.485496 -1.8886 0
M  V30 12882 O 1217.32 0.500555 -1.89397 0
M  V30 12883 H 1215.9 -0.632034 -0.398173 0
M  V30 12884 H 1218.56 -1.91312 -0.372252 0
M  V30 12885 H 1217.65 -2.58958 -1.74205 0
M  V30 12886 N 1217.95 0.594978 -1.45938 0
M  V30 12887 C 1218.88 1.71536 -1.58422 0
M  V30 12888 C 1219.87 1.64441 -0.435116 0
M  V30 12889 O 1221.05 1.82647 -0.659839 0
M  V30 12890 C 1218.18 3.10163 -1.56257 0
M  V30 12891 C 1217.13 3.3208 -2.70013 0
M  V30 12892 C 1216.46 4.71108 -2.52905 0
M  V30 12893 C 1217.76 3.21105 -4.11933 0
M  V30 12894 H 1219.45 1.61344 -2.52207 0
M  V30 12895 H 1217 0.774791 -1.2138 0
M  V30 12896 H 1218.95 3.88352 -1.63587 0
M  V30 12897 H 1217.68 3.21225 -0.590093 0
M  V30 12898 H 1216.34 2.56286 -2.62132 0
M  V30 12899 H 1215.98 4.7892 -1.53768 0
M  V30 12900 H 1215.68 4.86727 -3.29197 0
M  V30 12901 H 1217.21 5.51482 -2.62107 0
M  V30 12902 H 1218.62 3.89153 -4.2099 0
M  V30 12903 H 1217.02 3.4825 -4.88715 0
M  V30 12904 H 1218.09 2.18359 -4.32952 0
M  V30 12905 N 1219.43 1.33438 0.838571 0
M  V30 12906 C 1220.38 1.23717 1.94841 0
M  V30 12907 C 1221.35 0.11573 1.65696 0
M  V30 12908 O 1222.53 0.294051 1.8852 0
M  V30 12909 C 1219.67 0.982626 3.30815 0
M  V30 12910 C 1218.79 2.19036 3.72354 0
M  V30 12911 C 1217.92 1.86995 4.97199 0
M  V30 12912 C 1216.96 3.03998 5.31274 0
M  V30 12913 N 1216.1 2.71943 6.47295 0
M  V30 12914 H 1220.94 2.18639 2.02487 0
M  V30 12915 H 1218.48 1.08721 0.990861 0
M  V30 12916 H 1220.43 0.81548 4.09152 0
M  V30 12917 H 1219.06 0.0701443 3.22724 0
M  V30 12918 H 1218.12 2.46724 2.89537 0
M  V30 12919 H 1219.43 3.06505 3.93518 0
M  V30 12920 H 1218.58 1.66925 5.83285 0
M  V30 12921 H 1217.32 0.967628 4.78004 0
M  V30 12922 H 1216.33 3.24681 4.43692 0
M  V30 12923 H 1217.55 3.94985 5.52416 0
M  V30 12924 H 1215.5 1.8427 6.29588 0
M  V30 12925 H 1215.41 3.52943 6.68556 0
M  V30 12926 H 1216.68 2.55342 7.36492 0
M  V30 12927 N 1220.91 -1.05686 1.16912 0
M  V30 12928 C 1221.84 -2.12775 0.824755 0
M  V30 12929 C 1222.82 -1.61286 -0.206289 0
M  V30 12930 O 1224.01 -1.8829 -0.0889616 0
M  V30 12931 C 1221.13 -3.37922 0.229422 0
M  V30 12932 C 1220.18 -4.08226 1.23506 0
M  V30 12933 S 1221.01 -4.57424 2.78431 0
M  V30 12934 C 1222.17 -5.85825 2.20364 0
M  V30 12935 H 1222.4 -2.41657 1.73174 0
M  V30 12936 H 1219.93 -1.18212 0.99324 0
M  V30 12937 H 1221.89 -4.10359 -0.107588 0
M  V30 12938 H 1220.55 -3.07186 -0.655424 0
M  V30 12939 H 1219.75 -4.98129 0.767059 0
M  V30 12940 H 1219.35 -3.41832 1.51747 0
M  V30 12941 H 1221.64 -6.58912 1.57611 0
M  V30 12942 H 1222.58 -6.37364 3.08501 0
M  V30 12943 H 1222.99 -5.4015 1.64008 0
M  V30 12944 N 1222.39 -0.968567 -1.24324 0
M  V30 12945 C 1223.62 -0.648568 -1.96472 0
M  V30 12946 C 1224.03 0.782168 -1.71836 0
M  V30 12947 O 1223.39 1.5249 -1.00265 0
M  V30 12948 C 1223.44 -0.91482 -3.49733 0
M  V30 12949 O 1223.16 -2.28931 -3.73527 0
M  V30 12950 C 1224.66 -0.609131 -4.39095 0
M  V30 12951 H 1221.88 -0.241921 -0.625872 0
M  V30 12952 H 1224.43 -1.29673 -1.5813 0
M  V30 12953 H 1222.58 -0.31285 -3.86135 0
M  V30 12954 H 1222.99 -2.36998 -4.67902 0
M  V30 12955 H 1224.47 -0.845875 -5.4548 0
M  V30 12956 H 1224.95 0.456625 -4.3682 0
M  V30 12957 H 1225.55 -1.19105 -4.08282 0
M  V30 12958 N 1223.87 1.39211 -0.738786 0
M  V30 12959 C 1224.8 2.28145 -0.0499733 0
M  V30 12960 C 1225.78 1.44592 0.743776 0
M  V30 12961 O 1226.96 1.73978 0.725536 0
M  V30 12962 C 1224.09 3.255 0.93634 0
M  V30 12963 C 1223.13 4.25876 0.230621 0
M  V30 12964 S 1223.97 5.24942 -1.0581 0
M  V30 12965 C 1225.12 6.25856 -0.0744844 0
M  V30 12966 H 1225.36 2.86218 -0.804163 0
M  V30 12967 H 1222.89 1.44991 -0.53074 0
M  V30 12968 H 1224.85 3.82109 1.50011 0
M  V30 12969 H 1223.51 2.66439 1.66339 0
M  V30 12970 H 1222.7 4.94438 0.977075 0
M  V30 12971 H 1222.3 3.73087 -0.261216 0
M  V30 12972 H 1224.6 6.73172 0.764616 0
M  V30 12973 H 1225.54 7.04354 -0.727354 0
M  V30 12974 H 1225.95 5.63704 0.299605 0
M  V30 12975 N 1225.34 0.486708 1.49896 0
M  V30 12976 C 1226.62 -0.125183 1.95199 0
M  V30 12977 C 1227 -1.55498 1.42771 0
M  V30 12978 O 1226.35 -2.1949 0.635322 0
M  V30 12979 C 1226.56 -0.0524982 3.48961 0
M  V30 12980 C 1227.91 -0.233595 4.23957 0
M  V30 12981 O 1228.93 -0.128357 3.55969 0
M  V30 12982 O 1227.79 -0.447862 5.44662 0
M  V30 12983 H 1224.88 -0.103141 0.820543 0
M  V30 12984 H 1227.43 0.548226 1.60601 0
M  V30 12985 H 1226.2 0.945163 3.79714 0
M  V30 12986 H 1225.83 -0.766683 3.90138 0
M  V30 12987 N 1226.82 -1.56058 0.219941 0
M  V30 12988 C 1227.77 -2.20218 -0.690846 0
M  V30 12989 C 1228.74 -1.15725 -1.19151 0
M  V30 12990 O 1229.93 -1.44073 -1.2509 0
M  V30 12991 C 1227.07 -2.88477 -1.89408 0
M  V30 12992 C 1226.18 -4.07559 -1.43246 0
M  V30 12993 C 1225.31 -4.63605 -2.59314 0
M  V30 12994 C 1224.35 -5.74993 -2.0988 0
M  V30 12995 N 1223.49 -6.25337 -3.19214 0
M  V30 12996 H 1228.33 -2.97685 -0.136992 0
M  V30 12997 H 1225.87 -1.46994 -0.055865 0
M  V30 12998 H 1227.82 -3.26235 -2.60051 0
M  V30 12999 H 1226.45 -2.1353 -2.42084 0
M  V30 13000 H 1225.51 -3.75297 -0.621013 0
M  V30 13001 H 1226.82 -4.8805 -1.02997 0
M  V30 13002 H 1225.97 -5.03798 -3.38041 0
M  V30 13003 H 1224.71 -3.82274 -3.0285 0
M  V30 13004 H 1223.72 -5.34304 -1.29613 0
M  V30 13005 H 1224.94 -6.58158 -1.67345 0
M  V30 13006 H 1222.89 -5.4692 -3.62236 0
M  V30 13007 H 1222.8 -7.00947 -2.83213 0
M  V30 13008 H 1224.07 -6.70187 -3.98083 0
M  V30 13009 N 1228.3 0.053464 -1.57509 0
M  V30 13010 C 1229.53 0.761533 -1.92375 0
M  V30 13011 C 1229.94 1.70179 -0.817585 0
M  V30 13012 O 1229.3 1.81313 0.207843 0
M  V30 13013 C 1229.35 1.53954 -3.27078 0
M  V30 13014 O 1229.07 0.637054 -4.33443 0
M  V30 13015 C 1230.57 2.34697 -3.76075 0
M  V30 13016 H 1227.79 0.215483 -0.635459 0
M  V30 13017 H 1230.34 0.0182624 -2.04492 0
M  V30 13018 H 1228.49 2.23492 -3.16434 0
M  V30 13019 H 1228.91 1.18006 -5.11053 0
M  V30 13020 H 1230.38 2.84716 -4.72906 0
M  V30 13021 H 1230.86 3.15041 -3.06016 0
M  V30 13022 H 1231.46 1.70281 -3.89724 0
M  V30 13023 N 1229.78 1.54207 0.325255 0
M  V30 13024 C 1231.03 1.71991 1.0613 0
M  V30 13025 C 1231.35 0.495505 1.88599 0
M  V30 13026 O 1230.62 -0.490504 1.8966 0
M  V30 13027 H 1229.2 0.634137 0.394816 0
M  V30 13028 H 1231.86 1.91507 0.362101 0
M  V30 13029 H 1230.96 2.59878 1.72829 0
M  V30 13030 N 1231.26 -0.58723 1.46251 0
M  V30 13031 C 1232.19 -1.70694 1.5933 0
M  V30 13032 C 1233.17 -1.64208 0.443831 0
M  V30 13033 O 1234.35 -1.82294 0.669516 0
M  V30 13034 C 1231.48 -3.0933 1.579 0
M  V30 13035 C 1230.44 -3.30643 2.7177 0
M  V30 13036 C 1229.76 -4.69761 2.554 0
M  V30 13037 C 1231.06 -3.18916 4.1363 0
M  V30 13038 H 1232.76 -1.60004 2.53059 0
M  V30 13039 H 1230.3 -0.768343 1.21789 0
M  V30 13040 H 1232.26 -3.87479 1.65644 0
M  V30 13041 H 1230.98 -3.20907 0.60712 0
M  V30 13042 H 1229.64 -2.54892 2.63488 0
M  V30 13043 H 1229.29 -4.78098 1.56306 0
M  V30 13044 H 1228.99 -4.84974 3.31774 0
M  V30 13045 H 1230.51 -5.50084 2.65028 0
M  V30 13046 H 1231.93 -3.86915 4.23048 0
M  V30 13047 H 1230.32 -3.45653 4.90555 0
M  V30 13048 H 1231.39 -2.1606 4.34104 0
M  V30 13049 N 1232.74 -1.33881 -0.831482 0
M  V30 13050 C 1233.67 -1.27384 -1.95693 0
M  V30 13051 C 1234.65 -0.152943 -1.69411 0
M  V30 13052 O 1235.83 -0.34392 -1.9113 0
M  V30 13053 C 1232.96 -1.01982 -3.31989 0
M  V30 13054 C 1231.92 -2.10445 -3.72689 0
M  V30 13055 C 1231.24 -1.70245 -5.06873 0
M  V30 13056 C 1232.54 -3.52194 -3.8569 0
M  V30 13057 H 1234.24 -2.21549 -2.01386 0
M  V30 13058 H 1231.78 -1.06653 -0.967526 0
M  V30 13059 H 1233.73 -0.960841 -4.103 0
M  V30 13060 H 1232.46 -0.0425709 -3.26572 0
M  V30 13061 H 1231.12 -2.15398 -2.96647 0
M  V30 13062 H 1230.77 -0.712036 -4.97935 0
M  V30 13063 H 1230.47 -2.42834 -5.35075 0
M  V30 13064 H 1231.99 -1.65827 -5.87651 0
M  V30 13065 H 1233.4 -3.49701 -4.54293 0
M  V30 13066 H 1231.8 -4.23331 -4.25336 0
M  V30 13067 H 1232.87 -3.9016 -2.87929 0
M  V30 13068 N 1234.21 1.05064 -1.1747 0
M  V30 13069 C 1235.14 2.14786 -0.915936 0
M  V30 13070 C 1236.12 1.69502 0.142561 0
M  V30 13071 O 1237.31 1.94198 -0.00794522 0
M  V30 13072 C 1234.44 3.44629 -0.429864 0
M  V30 13073 C 1233.39 4.03486 -1.42769 0
M  V30 13074 C 1232.72 5.28689 -0.799528 0
M  V30 13075 C 1234.02 4.40823 -2.80129 0
M  V30 13076 H 1235.71 2.3669 -1.83352 0
M  V30 13077 H 1233.26 1.13751 -0.882992 0
M  V30 13078 H 1235.21 4.20737 -0.236245 0
M  V30 13079 H 1233.94 3.22381 0.523263 0
M  V30 13080 H 1232.6 3.29449 -1.60808 0
M  V30 13081 H 1232.24 5.02744 0.160474 0
M  V30 13082 H 1231.94 5.69028 -1.46565 0
M  V30 13083 H 1233.47 6.07483 -0.616212 0
M  V30 13084 H 1234.88 5.07959 -2.65801 0
M  V30 13085 H 1233.28 4.92183 -3.43331 0
M  V30 13086 H 1234.35 3.51108 -3.34441 0
M  V30 13087 N 1235.69 0.975146 1.23809 0
M  V30 13088 C 1236.62 0.530389 2.27396 0
M  V30 13089 C 1237.6 -0.433763 1.64476 0
M  V30 13090 O 1238.79 -0.32827 1.91405 0
M  V30 13091 C 1235.92 -0.173066 3.46869 0
M  V30 13092 C 1234.87 0.707844 4.22106 0
M  V30 13093 C 1234.2 -0.127527 5.34548 0
M  V30 13094 C 1235.5 1.99609 4.82652 0
M  V30 13095 H 1237.19 1.39622 2.64851 0
M  V30 13096 H 1234.74 0.672802 1.27316 0
M  V30 13097 H 1236.69 -0.495481 4.18477 0
M  V30 13098 H 1235.41 -1.0733 3.0846 0
M  V30 13099 H 1234.07 1.01364 3.52308 0
M  V30 13100 H 1233.72 -1.02814 4.9238 0
M  V30 13101 H 1233.42 0.458728 5.85807 0
M  V30 13102 H 1234.95 -0.444443 6.0898 0
M  V30 13103 H 1236.36 1.73878 5.46296 0
M  V30 13104 H 1234.76 2.52969 5.44175 0
M  V30 13105 H 1235.83 2.68629 4.03691 0
M  V30 13106 N 1237.17 -1.38817 0.746158 0
M  V30 13107 C 1238.39 -2.05096 0.308302 0
M  V30 13108 C 1238.82 -1.55902 -1.05244 0
M  V30 13109 O 1238.18 -0.707685 -1.66918 0
M  V30 13110 C 1238.23 -3.59068 0.332016 0
M  V30 13111 O 1237.33 -4.06813 -0.676547 0
M  V30 13112 H 1236.67 -0.649523 0.1379 0
M  V30 13113 H 1239.2 -1.77637 1.0152 0
M  V30 13114 H 1239.21 -4.07601 0.180293 0
M  V30 13115 H 1237.89 -3.94234 1.32487 0
M  V30 13116 H 1236.46 -3.69666 -0.490046 0
M  V30 13117 N 1238.65 -0.49465 -1.49636 0
M  V30 13118 C 1239.92 0.114829 -1.95263 0
M  V30 13119 C 1240.3 1.54739 -1.43593 0
M  V30 13120 O 1239.65 2.1915 -0.646953 0
M  V30 13121 C 1239.86 0.0339912 -3.48983 0
M  V30 13122 C 1241.21 0.211108 -4.24075 0
M  V30 13123 O 1242.23 0.109478 -3.56032 0
M  V30 13124 O 1241.09 0.418971 -5.44892 0
M  V30 13125 H 1238.19 0.0987883 -0.821078 0
M  V30 13126 H 1240.73 -0.556736 -1.60308 0
M  V30 13127 H 1239.51 -0.965287 -3.79207 0
M  V30 13128 H 1239.13 0.745982 -3.90539 0
M  V30 13129 N 1240.13 1.55939 -0.228214 0
M  V30 13130 C 1241.54 1.84612 0.278417 0
M  V30 13131 C 1241.89 1.14973 1.58983 0
M  V30 13132 O 1241.01 0.421673 2.12252 0
M  V30 13133 C 1241.61 3.3491 0.511935 0
M  V30 13134 C 1240.17 3.63876 0.962861 0
M  V30 13135 C 1239.31 2.77284 0.0296246 0
M  V30 13136 H 1242.26 1.52149 -0.451245 0
M  V30 13137 H 1242.29 3.55477 1.35707 0
M  V30 13138 H 1241.8 3.85567 -0.442697 0
M  V30 13139 H 1239.9 3.18682 1.93062 0
M  V30 13140 H 1240.01 4.71809 0.832659 0
M  V30 13141 H 1238.38 2.48961 0.53763 0
M  V30 13142 H 1239.16 3.30742 -0.920044 0
M  V30 13143 N 1241.6 -0.0451101 1.57535 0
M  V30 13144 C 1242.88 -0.773625 1.79651 0
M  V30 13145 C 1243.26 -1.94422 0.822391 0
M  V30 13146 O 1242.61 -2.28077 -0.138913 0
M  V30 13147 C 1242.82 -1.22168 3.26919 0
M  V30 13148 C 1244.17 -1.64419 3.91474 0
M  V30 13149 O 1245.19 -1.31668 3.30971 0
M  V30 13150 O 1244.05 -2.25148 4.97967 0
M  V30 13151 H 1241.14 -0.372786 0.738214 0
M  V30 13152 H 1243.69 -0.0231245 1.69684 0
M  V30 13153 H 1242.46 -0.385302 3.89398 0
M  V30 13154 H 1242.09 -2.03269 3.41713 0
M  V30 13155 N 1243.08 -1.54377 -0.317073 0
M  V30 13156 C 1244.03 -1.84214 -1.39046 0
M  V30 13157 C 1245 -0.689742 -1.51102 0
M  V30 13158 O 1246.18 -0.936809 -1.66218 0
M  V30 13159 C 1243.32 -2.08087 -2.75307 0
M  V30 13160 C 1242.44 -3.35756 -2.7183 0
M  V30 13161 C 1241.57 -3.49556 -3.9998 0
M  V30 13162 C 1240.61 -4.71076 -3.90837 0
M  V30 13163 N 1239.75 -4.81767 -5.10729 0
M  V30 13164 H 1244.59 -2.75785 -1.12902 0
M  V30 13165 H 1242.13 -1.36575 -0.546404 0
M  V30 13166 H 1244.08 -2.19921 -3.54529 0
M  V30 13167 H 1242.71 -1.19801 -2.99746 0
M  V30 13168 H 1241.77 -3.32627 -1.84563 0
M  V30 13169 H 1243.08 -4.2509 -2.60959 0
M  V30 13170 H 1242.23 -3.60967 -4.87635 0
M  V30 13171 H 1240.97 -2.58326 -4.13665 0
M  V30 13172 H 1239.98 -4.59715 -3.01566 0
M  V30 13173 H 1241.2 -5.63698 -3.78711 0
M  V30 13174 H 1239.15 -3.93455 -5.24908 0
M  V30 13175 H 1239.06 -5.65077 -5.02219 0
M  V30 13176 H 1240.33 -4.97517 -6.00081 0
M  V30 13177 N 1244.56 0.579466 -1.4656 0
M  V30 13178 C 1245.81 1.33954 -1.52264 0
M  V30 13179 C 1246.14 1.93409 -0.175089 0
M  V30 13180 O 1245.41 1.76654 0.81385 0
M  V30 13181 C 1245.7 2.46645 -2.6237 0
M  V30 13182 C 1245.55 1.92204 -4.06667 0
M  V30 13183 C 1246.87 3.48676 -2.68538 0
M  V30 13184 H 1243.99 0.485697 -0.554317 0
M  V30 13185 H 1246.63 0.650639 -1.78512 0
M  V30 13186 H 1244.78 3.0541 -2.40119 0
M  V30 13187 H 1246.45 1.37871 -4.40215 0
M  V30 13188 H 1244.7 1.23012 -4.15993 0
M  V30 13189 H 1245.37 2.73566 -4.79443 0
M  V30 13190 H 1247.84 2.99798 -2.88549 0
M  V30 13191 H 1246.72 4.24981 -3.47394 0
M  V30 13192 H 1246.98 4.06112 -1.74716 0
M  V30 13193 N 1246.04 1.3432 0.824371 0
M  V30 13194 C 1247.27 1.29669 1.61226 0
M  V30 13195 C 1247.68 -0.129532 1.88355 0
M  V30 13196 O 1247.04 -1.07616 1.47394 0
M  V30 13197 C 1247.09 2.08375 2.95402 0
M  V30 13198 O 1246.81 3.45434 2.69456 0
M  V30 13199 C 1248.31 2.11103 3.89808 0
M  V30 13200 H 1245.53 0.446137 0.501201 0
M  V30 13201 H 1248.08 1.76912 1.02579 0
M  V30 13202 H 1246.23 1.64777 3.5061 0
M  V30 13203 H 1246.64 3.86101 3.55001 0
M  V30 13204 H 1248.12 2.706 4.81124 0
M  V30 13205 H 1248.6 1.10505 4.25071 0
M  V30 13206 H 1249.2 2.54784 3.40537 0
M  V30 13207 N 1247.52 -1.0444 1.18026 0
M  V30 13208 C 1248.77 -1.7697 0.9677 0
M  V30 13209 C 1249.08 -1.88995 -0.503994 0
M  V30 13210 O 1250.28 -2.58342 -0.834968 0
M  V30 13211 C 1248.74 -3.1816 1.68232 0
M  V30 13212 C 1248.35 -3.14241 3.19307 0
M  V30 13213 C 1250.09 -3.95095 1.55244 0
M  V30 13214 C 1248 -4.50266 3.83425 0
M  V30 13215 H 1246.93 -0.663355 0.358436 0
M  V30 13216 H 1249.58 -1.17003 1.4136 0
M  V30 13217 H 1247.96 -3.78501 1.16418 0
M  V30 13218 H 1249.14 -2.63373 3.78115 0
M  V30 13219 H 1247.45 -2.50805 3.32394 0
M  V30 13220 H 1250.05 -4.95681 2.00511 0
M  V30 13221 H 1250.39 -4.13236 0.504125 0
M  V30 13222 H 1250.92 -3.4132 2.04317 0
M  V30 13223 H 1247.66 -4.37329 4.88286 0
M  V30 13224 H 1247.18 -5.01251 3.29404 0
M  V30 13225 H 1248.86 -5.1919 3.86071 0
M  V30 13226 N 1248.99 -0.981699 -1.2329 0
M  V30 13227 C 1250.24 -0.650015 -1.91361 0
M  V30 13228 C 1250.56 0.819184 -1.76959 0
M  V30 13229 O 1249.83 1.5861 -1.14977 0
M  V30 13230 H 1248.41 -0.237427 -0.708264 0
M  V30 13231 H 1251.08 -1.24579 -1.49887 0
M  V30 13232 H 1250.17 -0.902772 -2.98758 0
M  V30 13233 N 1250.47 1.3842 -0.753509 0
M  V30 13234 C 1251.4 2.33073 -0.141198 0
M  V30 13235 C 1252.38 1.54863 0.70367 0
M  V30 13236 O 1253.57 1.8318 0.644872 0
M  V30 13237 C 1250.7 3.39043 0.752802 0
M  V30 13238 C 1249.65 4.27999 0.0106692 0
M  V30 13239 C 1248.98 5.24824 1.02291 0
M  V30 13240 C 1250.28 5.09308 -1.15768 0
M  V30 13241 H 1251.97 2.84528 -0.93188 0
M  V30 13242 H 1249.52 1.36802 -0.449567 0
M  V30 13243 H 1251.47 4.04224 1.19083 0
M  V30 13244 H 1250.2 2.8607 1.57581 0
M  V30 13245 H 1248.85 3.64323 -0.407939 0
M  V30 13246 H 1248.5 4.68139 1.83998 0
M  V30 13247 H 1248.2 5.85196 0.53101 0
M  V30 13248 H 1249.73 5.92882 1.46026 0
M  V30 13249 H 1251.14 5.6773 -0.797203 0
M  V30 13250 H 1249.54 5.78914 -1.58044 0
M  V30 13251 H 1250.61 4.43051 -1.97062 0
M  V30 13252 N 1251.95 0.502579 1.49372 0
M  V30 13253 C 1252.88 -0.264307 2.31999 0
M  V30 13254 C 1253.86 -0.96107 1.40348 0
M  V30 13255 O 1255.05 -0.952167 1.69255 0
M  V30 13256 C 1252.18 -1.32822 3.20898 0
M  V30 13257 C 1251.13 -0.751236 4.21355 0
M  V30 13258 C 1250.46 -1.91578 4.99201 0
M  V30 13259 C 1251.76 0.258764 5.21659 0
M  V30 13260 H 1253.45 0.425391 2.96363 0
M  V30 13261 H 1251 0.206022 1.42519 0
M  V30 13262 H 1252.95 -1.87245 3.77515 0
M  V30 13263 H 1251.67 -2.04712 2.54481 0
M  V30 13264 H 1250.33 -0.228743 3.65886 0
M  V30 13265 H 1249.98 -2.62241 4.2923 0
M  V30 13266 H 1249.68 -1.53578 5.67175 0
M  V30 13267 H 1251.2 -2.46432 5.58663 0
M  V30 13268 H 1252.62 -0.197385 5.7296 0
M  V30 13269 H 1251.02 0.554681 5.97531 0
M  V30 13270 H 1252.09 1.1741 4.70471 0
M  V30 13271 N 1253.43 -1.55816 0.23648 0
M  V30 13272 C 1254.68 -1.98686 -0.391146 0
M  V30 13273 C 1255 -1.12443 -1.58703 0
M  V30 13274 O 1254.26 -0.172805 -1.94936 0
M  V30 13275 C 1254.56 -3.47039 -0.85434 0
M  V30 13276 C 1254.22 -4.50299 0.232651 0
M  V30 13277 C 1252.89 -4.78259 0.531218 0
M  V30 13278 C 1255.24 -5.1215 0.967027 0
M  V30 13279 C 1252.57 -5.65347 1.56842 0
M  V30 13280 C 1254.92 -6.00363 1.99367 0
M  V30 13281 C 1253.58 -6.2666 2.299 0
M  V30 13282 H 1252.85 -0.727045 -0.14313 0
M  V30 13283 H 1255.5 -1.88419 0.342125 0
M  V30 13284 H 1253.8 -3.54585 -1.66663 0
M  V30 13285 H 1255.5 -3.7759 -1.35005 0
M  V30 13286 H 1252.09 -4.28599 -0.0102014 0
M  V30 13287 H 1256.27 -4.90606 0.749609 0
M  V30 13288 H 1251.53 -5.83981 1.81043 0
M  V30 13289 H 1255.7 -6.47335 2.56769 0
M  V30 13290 H 1253.33 -6.93938 3.1041 0
M  V30 13291 N 1254.91 0.036755 -1.57557 0
M  V30 13292 C 1256.15 0.72475 -1.9005 0
M  V30 13293 C 1256.51 1.73374 -0.834226 0
M  V30 13294 O 1255.8 1.90948 0.157943 0
M  V30 13295 C 1255.99 1.44206 -3.27016 0
M  V30 13296 C 1255.82 0.504059 -4.46866 0
M  V30 13297 C 1254.59 0.127948 -5.05138 0
M  V30 13298 C 1256.79 -0.214278 -5.13853 0
M  V30 13299 N 1254.77 -0.812111 -6.08505 0
M  V30 13300 C 1256.14 -1.01027 -6.11714 0
M  V30 13301 C 1258.2 -0.28204 -4.97101 0
M  V30 13302 C 1256.9 -1.86778 -6.94627 0
M  V30 13303 C 1258.93 -1.12664 -5.80569 0
M  V30 13304 C 1258.29 -1.91058 -6.77994 0
M  V30 13305 H 1254.39 0.239542 -0.744408 0
M  V30 13306 H 1256.97 -0.0149454 -1.94694 0
M  V30 13307 H 1255.14 2.15226 -3.23314 0
M  V30 13308 H 1256.88 2.08183 -3.47047 0
M  V30 13309 H 1253.63 0.488471 -4.71074 0
M  V30 13310 H 1254.06 -1.27642 -6.64858 0
M  V30 13311 H 1258.7 0.309735 -4.21664 0
M  V30 13312 H 1256.42 -2.47038 -7.69414 0
M  V30 13313 H 1260 -1.18251 -5.69656 0
M  V30 13314 H 1258.88 -2.55358 -7.41459 0
M  V30 13315 N 1256.39 1.54543 0.308881 0
M  V30 13316 C 1257.66 1.64118 1.06418 0
M  V30 13317 C 1258.04 0.484402 2.05467 0
M  V30 13318 O 1257.39 -0.519752 2.2251 0
M  V30 13319 C 1257.6 3.01776 1.75306 0
M  V30 13320 C 1258.95 3.58324 2.27792 0
M  V30 13321 O 1259.97 3.04177 1.85351 0
M  V30 13322 O 1258.83 4.53113 3.05533 0
M  V30 13323 H 1255.93 0.665172 0.491401 0
M  V30 13324 H 1258.47 1.66889 0.307598 0
M  V30 13325 H 1257.24 3.77407 1.03341 0
M  V30 13326 H 1256.87 3.02748 2.57739 0
M  V30 13327 N 1257.86 -0.571685 1.46866 0
M  V30 13328 C 1259.11 -1.32685 1.52444 0
M  V30 13329 C 1259.43 -1.94147 0.182225 0
M  V30 13330 O 1258.7 -1.79159 -0.792385 0
M  V30 13331 H 1257.28 -0.492679 0.561495 0
M  V30 13332 H 1259.94 -0.668694 1.8307 0
M  V30 13333 H 1259.04 -2.12788 2.28315 0
M  V30 13334 N 1259.34 -1.34755 -0.817236 0
M  V30 13335 C 1260.76 -1.14561 -1.11121 0
M  V30 13336 C 1260.96 0.0490776 -2.0144 0
M  V30 13337 O 1260.01 0.722897 -2.41931 0
M  V30 13338 C 1261.33 -2.44356 -1.75244 0
M  V30 13339 C 1262.87 -2.50465 -1.87713 0
M  V30 13340 C 1263.35 -3.80276 -2.55253 0
M  V30 13341 N 1264.84 -3.81468 -2.62747 0
M  V30 13342 C 1265.58 -4.78634 -3.15749 0
M  V30 13343 N 1265.07 -5.86184 -3.6927 0
M  V30 13344 N 1266.86 -4.66083 -3.14203 0
M  V30 13345 H 1259.02 -2.11293 -0.2166 0
M  V30 13346 H 1261.28 -0.934629 -0.158661 0
M  V30 13347 H 1260.98 -3.31899 -1.16344 0
M  V30 13348 H 1260.86 -2.58117 -2.75055 0
M  V30 13349 H 1263.25 -1.63358 -2.45761 0
M  V30 13350 H 1263.33 -2.40627 -0.867887 0
M  V30 13351 H 1262.97 -4.67776 -1.97858 0
M  V30 13352 H 1262.9 -3.87399 -3.56693 0
M  V30 13353 H 1265.39 -3.03753 -2.24817 0
M  V30 13354 H 1265.7 -6.56332 -4.0798 0
M  V30 13355 H 1264.05 -5.8989 -3.67498 0
M  V30 13356 H 1267.24 -3.81206 -2.7166 0
M  V30 13357 H 1267.41 -5.41973 -3.55203 0
M  V30 13358 N 1260.82 1.03812 -1.18578 0
M  V30 13359 C 1262.07 1.76706 -0.980776 0
M  V30 13360 C 1262.39 1.88729 0.490562 0
M  V30 13361 O 1261.66 1.41413 1.35569 0
M  V30 13362 H 1260.24 0.654586 -0.359898 0
M  V30 13363 H 1262.9 1.25274 -1.49306 0
M  V30 13364 H 1262 2.77876 -1.42096 0
M  V30 13365 N 1262.3 0.988223 1.22768 0
M  V30 13366 C 1263.21 0.543407 2.2822 0
M  V30 13367 C 1264.22 -0.405563 1.69208 0
M  V30 13368 O 1265.4 -0.273551 1.99534 0
M  V30 13369 C 1262.46 -0.139495 3.46419 0
M  V30 13370 C 1261.53 0.851853 4.20764 0
M  V30 13371 C 1260.76 0.201446 5.3332 0
M  V30 13372 O 1260.98 -1.00573 5.61464 0
M  V30 13373 O 1259.92 0.903956 5.95073 0
M  V30 13374 H 1263.74 1.42059 2.68427 0
M  V30 13375 H 1261.33 0.756239 1.28846 0
M  V30 13376 H 1263.21 -0.522226 4.18152 0
M  V30 13377 H 1261.88 -0.991315 3.08147 0
M  V30 13378 H 1260.79 1.28543 3.51322 0
M  V30 13379 H 1262.12 1.67273 4.62905 0
M  V30 13380 N 1263.78 -1.38018 0.760839 0
M  V30 13381 C 1265.02 -1.99557 0.319609 0
M  V30 13382 C 1265.34 -1.60699 -1.10457 0
M  V30 13383 O 1264.61 -0.867248 -1.75658 0
M  V30 13384 H 1263.19 -0.738066 0.115182 0
M  V30 13385 H 1265.86 -1.6867 0.976544 0
M  V30 13386 H 1264.95 -3.09672 0.388523 0
M  V30 13387 N 1265.25 -0.510493 -1.49103 0
M  V30 13388 C 1266.18 0.251999 -2.32136 0
M  V30 13389 C 1267.16 0.953613 -1.40855 0
M  V30 13390 O 1268.35 0.943178 -1.69758 0
M  V30 13391 C 1265.48 1.31118 -3.21598 0
M  V30 13392 C 1264.43 0.72888 -4.21748 0
M  V30 13393 C 1263.76 1.88928 -5.0021 0
M  V30 13394 C 1265.06 -0.286425 -5.21514 0
M  V30 13395 H 1266.75 -0.441102 -2.96133 0
M  V30 13396 H 1264.3 -0.213577 -1.42407 0
M  V30 13397 H 1266.25 1.8524 -3.78503 0
M  V30 13398 H 1264.98 2.0336 -2.55563 0
M  V30 13399 H 1263.64 0.209336 -3.66002 0
M  V30 13400 H 1263.28 2.59961 -4.30615 0
M  V30 13401 H 1262.98 1.50568 -5.67981 0
M  V30 13402 H 1264.51 2.43465 -5.59962 0
M  V30 13403 H 1265.92 0.166997 -5.73057 0
M  V30 13404 H 1264.32 -0.586361 -5.97228 0
M  V30 13405 H 1265.39 -1.19904 -4.69842 0
M  V30 13406 N 1266.73 1.55688 -0.24474 0
M  V30 13407 C 1268.15 1.59219 0.110159 0
M  V30 13408 C 1268.35 1.26187 1.57096 0
M  V30 13409 O 1267.4 1.00815 2.31501 0
M  V30 13410 C 1268.72 2.99764 -0.237075 0
M  V30 13411 C 1270.26 3.12475 -0.181198 0
M  V30 13412 C 1270.74 4.55236 -0.502435 0
M  V30 13413 N 1272.23 4.60981 -0.452855 0
M  V30 13414 C 1272.97 5.69418 -0.674605 0
M  V30 13415 N 1272.46 6.86125 -0.959366 0
M  V30 13416 N 1274.25 5.5883 -0.605459 0
M  V30 13417 H 1266.41 1.7543 -1.19741 0
M  V30 13418 H 1268.67 0.816537 -0.481634 0
M  V30 13419 H 1268.37 3.28666 -1.25185 0
M  V30 13420 H 1268.25 3.74662 0.436859 0
M  V30 13421 H 1270.64 2.83355 0.824248 0
M  V30 13422 H 1270.72 2.39857 -0.888952 0
M  V30 13423 H 1270.36 4.85077 -1.50543 0
M  V30 13424 H 1270.29 5.26111 0.226773 0
M  V30 13425 H 1272.78 3.77128 -0.241401 0
M  V30 13426 H 1273.09 7.64699 -1.11605 0
M  V30 13427 H 1271.44 6.87814 -0.996816 0
M  V30 13428 H 1274.63 4.6653 -0.383053 0
M  V30 13429 H 1274.8 6.43268 -0.781673 0
M  V30 13430 N 1268.21 -0.0283989 1.57574 0
M  V30 13431 C 1269.14 -1.02828 2.09639 0
M  V30 13432 C 1270.12 -1.37668 0.999076 0
M  V30 13433 O 1271.31 -1.4654 1.27435 0
M  V30 13434 C 1268.44 -2.329 2.57633 0
M  V30 13435 C 1267.39 -2.12301 3.71635 0
M  V30 13436 C 1266.72 -3.48138 4.05837 0
M  V30 13437 C 1268.02 -1.50864 5.00037 0
M  V30 13438 H 1269.71 -0.594876 2.93431 0
M  V30 13439 H 1267.26 -0.284701 1.41158 0
M  V30 13440 H 1269.21 -3.03179 2.92678 0
M  V30 13441 H 1267.93 -2.78302 1.70926 0
M  V30 13442 H 1266.59 -1.44454 3.3694 0
M  V30 13443 H 1266.24 -3.9119 3.16195 0
M  V30 13444 H 1265.94 -3.3518 4.82626 0
M  V30 13445 H 1267.46 -4.19779 4.43417 0
M  V30 13446 H 1268.88 -2.11062 5.33035 0
M  V30 13447 H 1267.27 -1.48479 5.81441 0
M  V30 13448 H 1268.34 -0.474541 4.82572 0
M  V30 13449 N 1269.69 -1.54705 -0.300681 0
M  V30 13450 C 1270.62 -1.88679 -1.37559 0
M  V30 13451 C 1271.6 -0.74574 -1.52881 0
M  V30 13452 O 1272.78 -1.0015 -1.66384 0
M  V30 13453 C 1269.91 -2.13438 -2.73974 0
M  V30 13454 C 1268.87 -3.29284 -2.73415 0
M  V30 13455 C 1268.19 -3.39462 -4.13122 0
M  V30 13456 C 1269.49 -4.66382 -2.35128 0
M  V30 13457 H 1271.19 -2.78707 -1.09373 0
M  V30 13458 H 1268.73 -1.341 -0.524704 0
M  V30 13459 H 1270.69 -2.35791 -3.49257 0
M  V30 13460 H 1269.41 -1.20181 -3.03684 0
M  V30 13461 H 1268.07 -3.06855 -2.00588 0
M  V30 13462 H 1267.72 -2.43721 -4.4001 0
M  V30 13463 H 1267.42 -4.17334 -4.1365 0
M  V30 13464 H 1268.94 -3.64075 -4.90185 0
M  V30 13465 H 1270.36 -4.88463 -3.00128 0
M  V30 13466 H 1268.75 -5.4697 -2.46867 0
M  V30 13467 H 1269.82 -4.67078 -1.30256 0
M  V30 13468 N 1271.17 0.563888 -1.47167 0
M  V30 13469 C 1272.1 1.68137 -1.62025 0
M  V30 13470 C 1273.08 1.63481 -0.469899 0
M  V30 13471 O 1274.26 1.81206 -0.698432 0
M  V30 13472 C 1271.39 3.06779 -1.62801 0
M  V30 13473 C 1270.35 3.26278 -2.76996 0
M  V30 13474 C 1269.67 4.65638 -2.62841 0
M  V30 13475 C 1270.97 3.12295 -4.18651 0
M  V30 13476 H 1272.67 1.55958 -2.55573 0
M  V30 13477 H 1270.21 0.74887 -1.22996 0
M  V30 13478 H 1272.17 3.84795 -1.71787 0
M  V30 13479 H 1270.89 3.19901 -0.658097 0
M  V30 13480 H 1269.55 2.50668 -2.67509 0
M  V30 13481 H 1269.2 4.75551 -1.63892 0
M  V30 13482 H 1268.9 4.79635 -3.39447 0
M  V30 13483 H 1270.42 5.45798 -2.73746 0
M  V30 13484 H 1271.83 3.80136 -4.2915 0
M  V30 13485 H 1270.23 3.37805 -4.95992 0
M  V30 13486 H 1271.3 2.09126 -4.37486 0
M  V30 13487 N 1272.64 1.35187 0.810078 0
M  V30 13488 C 1274.06 1.15149 1.10512 0
M  V30 13489 C 1274.26 -0.038394 2.01463 0
M  V30 13490 O 1273.32 -0.710056 2.42311 0
M  V30 13491 C 1274.63 2.45282 1.73946 0
M  V30 13492 C 1276.18 2.51457 1.86382 0
M  V30 13493 C 1276.65 3.81625 2.53232 0
M  V30 13494 N 1278.14 3.82856 2.6072 0
M  V30 13495 C 1278.88 4.80302 3.13206 0
M  V30 13496 N 1278.37 5.88134 3.66156 0
M  V30 13497 N 1280.17 4.67743 3.11726 0
M  V30 13498 H 1272.32 2.11405 0.205391 0
M  V30 13499 H 1274.58 0.935457 0.153702 0
M  V30 13500 H 1274.29 3.32512 1.14582 0
M  V30 13501 H 1274.16 2.59573 2.73682 0
M  V30 13502 H 1276.55 1.64659 2.44891 0
M  V30 13503 H 1276.63 2.41084 0.855113 0
M  V30 13504 H 1276.27 4.68819 1.95375 0
M  V30 13505 H 1276.2 3.89285 3.54633 0
M  V30 13506 H 1278.69 3.04941 2.23203 0
M  V30 13507 H 1279.01 6.58487 4.04494 0
M  V30 13508 H 1277.35 5.91831 3.64364 0
M  V30 13509 H 1280.54 3.82642 2.69635 0
M  V30 13510 H 1280.72 5.43849 3.52324 0
M  V30 13511 N 1274.12 -1.03182 1.19127 0
M  V30 13512 C 1275.4 -1.73586 0.901507 0
M  V30 13513 C 1275.78 -2.02585 -0.593521 0
M  V30 13514 O 1275.13 -1.67813 -1.55084 0
M  V30 13515 C 1275.34 -3.01472 1.75829 0
M  V30 13516 C 1276.69 -3.75037 1.99078 0
M  V30 13517 O 1277.71 -3.11392 1.72956 0
M  V30 13518 O 1276.57 -4.8945 2.43108 0
M  V30 13519 H 1273.66 -0.755797 0.335708 0
M  V30 13520 H 1276.21 -1.09167 1.29925 0
M  V30 13521 H 1274.98 -2.76247 2.77134 0
M  V30 13522 H 1274.6 -3.73631 1.35963 0
M  V30 13523 N 1275.6 -0.99472 -1.22242 0
M  V30 13524 C 1276.83 -0.690097 -1.95052 0
M  V30 13525 C 1277.24 0.745543 -1.73456 0
M  V30 13526 O 1276.6 1.50329 -1.03477 0
M  V30 13527 C 1276.65 -0.988798 -3.47714 0
M  V30 13528 O 1276.37 -2.36803 -3.68587 0
M  V30 13529 C 1277.87 -0.702132 -4.37704 0
M  V30 13530 H 1275.09 -0.255142 -0.620599 0
M  V30 13531 H 1277.64 -1.32998 -1.55344 0
M  V30 13532 H 1275.79 -0.394684 -3.85384 0
M  V30 13533 H 1276.21 -2.4687 -4.62769 0
M  V30 13534 H 1277.68 -0.961389 -5.43564 0
M  V30 13535 H 1278.16 0.363866 -4.3769 0
M  V30 13536 H 1278.76 -1.27738 -4.05664 0
M  V30 13537 N 1277.08 1.37613 -0.768148 0
M  V30 13538 C 1278.36 1.93921 -0.255724 0
M  V30 13539 C 1278.74 1.70215 1.2486 0
M  V30 13540 O 1278.08 1.0489 2.03003 0
M  V30 13541 C 1278.29 3.43354 -0.625204 0
M  V30 13542 C 1279.64 4.20439 -0.592978 0
M  V30 13543 O 1280.67 3.51701 -0.564375 0
M  V30 13544 O 1279.52 5.43008 -0.616849 0
M  V30 13545 H 1276.62 0.824968 -0.0579366 0
M  V30 13546 H 1279.16 1.46921 -0.849257 0
M  V30 13547 H 1277.94 3.54177 -1.66356 0
M  V30 13548 H 1277.56 3.976 -0.00442816 0
M  V30 13549 N 1278.56 0.518393 1.4883 0
M  V30 13550 C 1279.97 0.175476 1.58632 0
M  V30 13551 C 1280.17 -1.32081 1.52174 0
M  V30 13552 O 1279.23 -2.09817 1.40474 0
M  V30 13553 C 1280.54 0.767722 2.90734 0
M  V30 13554 C 1282.09 0.735402 3.04238 0
M  V30 13555 C 1282.56 1.30602 4.38984 0
M  V30 13556 N 1284.06 1.26748 4.45521 0
M  V30 13557 C 1284.79 1.679 5.48267 0
M  V30 13558 N 1284.29 2.16728 6.58028 0
M  V30 13559 N 1286.08 1.59209 5.39082 0
M  V30 13560 H 1278.23 1.491 1.51271 0
M  V30 13561 H 1280.49 0.619497 0.717584 0
M  V30 13562 H 1280.2 1.81777 3.01081 0
M  V30 13563 H 1280.07 0.238119 3.76448 0
M  V30 13564 H 1282.46 -0.305852 2.93511 0
M  V30 13565 H 1282.54 1.30235 2.20165 0
M  V30 13566 H 1282.19 2.34614 4.50465 0
M  V30 13567 H 1282.12 0.714858 5.21725 0
M  V30 13568 H 1284.61 0.90991 3.66782 0
M  V30 13569 H 1284.92 2.46154 7.32549 0
M  V30 13570 H 1283.26 2.20714 6.59022 0
M  V30 13571 H 1286.46 1.20869 4.52226 0
M  V30 13572 H 1286.63 1.91602 6.19025 0
M  V30 13573 N 1280.03 -1.55556 0.252993 0
M  V30 13574 C 1281.28 -1.9909 -0.37005 0
M  V30 13575 C 1281.61 -1.1412 -1.57502 0
M  V30 13576 O 1280.86 -0.193471 -1.94741 0
M  V30 13577 C 1281.16 -3.47925 -0.817484 0
M  V30 13578 C 1280.83 -4.50027 0.280398 0
M  V30 13579 C 1279.49 -4.77669 0.581914 0
M  V30 13580 C 1281.84 -5.11096 1.02129 0
M  V30 13581 C 1279.17 -5.63652 1.62829 0
M  V30 13582 C 1281.52 -5.98215 2.05723 0
M  V30 13583 C 1280.19 -6.24186 2.36533 0
M  V30 13584 H 1279.46 -0.728522 -0.135411 0
M  V30 13585 H 1282.1 -1.88046 0.36209 0
M  V30 13586 H 1280.41 -3.56333 -1.62893 0
M  V30 13587 H 1282.11 -3.79001 -1.30993 0
M  V30 13588 H 1278.7 -4.28585 0.0352579 0
M  V30 13589 H 1282.88 -4.89784 0.801603 0
M  V30 13590 H 1278.14 -5.82028 1.87227 0
M  V30 13591 H 1282.31 -6.44575 2.6362 0
M  V30 13592 H 1279.94 -6.90607 3.17752 0
M  V30 13593 N 1281.51 0.0200419 -1.57587 0
M  V30 13594 C 1282.74 0.724241 -1.94344 0
M  V30 13595 C 1283.16 1.67612 -0.853688 0
M  V30 13596 O 1282.52 1.80303 0.189873 0
M  V30 13597 C 1282.57 1.44967 -3.30177 0
M  V30 13598 O 1281.67 2.56326 -3.23064 0
M  V30 13599 H 1281.01 0.194142 -0.634984 0
M  V30 13600 H 1283.54 -0.0271756 -2.04582 0
M  V30 13601 H 1283.55 1.81758 -3.65278 0
M  V30 13602 H 1282.23 0.75161 -4.09052 0
M  V30 13603 H 1280.81 2.22011 -2.99609 0
M  V30 13604 N 1282.99 1.54862 0.292472 0
M  V30 13605 C 1284.22 1.78877 1.04966 0
M  V30 13606 C 1284.64 0.550724 1.79857 0
M  V30 13607 O 1284 -0.499054 1.74296 0
M  V30 13608 C 1284.05 3.00106 1.99922 0
M  V30 13609 O 1283.15 2.73827 3.0837 0
M  V30 13610 H 1282.49 0.591802 0.301108 0
M  V30 13611 H 1285.02 2.01965 0.3273 0
M  V30 13612 H 1285.03 3.28309 2.42233 0
M  V30 13613 H 1283.71 3.89872 1.44821 0
M  V30 13614 H 1282.28 2.56665 2.70513 0
M  V30 13615 N 1284.47 -0.556076 1.47464 0
M  V30 13616 C 1285.42 -1.6586 1.56444 0
M  V30 13617 C 1286.4 -1.55233 0.423262 0
M  V30 13618 O 1287.59 -1.63696 0.673247 0
M  V30 13619 C 1284.72 -3.04633 1.58283 0
M  V30 13620 C 1283.81 -3.2046 2.77788 0
M  V30 13621 N 1284.2 -3.06347 4.02474 0
M  V30 13622 C 1282.5 -3.51462 2.74573 0
M  V30 13623 C 1283.2 -3.24893 4.82514 0
M  V30 13624 N 1282.18 -3.51278 4.14855 0
M  V30 13625 H 1285.98 -1.53519 2.50618 0
M  V30 13626 H 1283.49 -0.760862 1.43474 0
M  V30 13627 H 1285.49 -3.83797 1.62806 0
M  V30 13628 H 1284.15 -3.18085 0.652052 0
M  V30 13629 H 1285.16 -2.8365 4.33316 0
M  V30 13630 H 1281.84 -3.71434 1.90639 0
M  V30 13631 H 1283.23 -3.1894 5.91377 0
M  V30 13632 N 1285.95 -1.35615 -0.802897 0
M  V30 13633 C 1287.19 -1.29285 -1.56247 0
M  V30 13634 C 1287.53 0.131474 -1.93754 0
M  V30 13635 O 1286.8 1.08172 -1.61645 0
M  V30 13636 C 1287.08 -2.20285 -2.84863 0
M  V30 13637 C 1286.94 -3.71351 -2.53808 0
M  V30 13638 C 1288.26 -2.10318 -3.86593 0
M  V30 13639 H 1285.38 -0.470972 -0.566882 0
M  V30 13640 H 1288.02 -1.66048 -0.923469 0
M  V30 13641 H 1286.17 -1.89063 -3.39393 0
M  V30 13642 H 1287.84 -4.13031 -2.05433 0
M  V30 13643 H 1286.08 -3.9145 -1.86947 0
M  V30 13644 H 1286.75 -4.30416 -3.4561 0
M  V30 13645 H 1289.23 -2.37772 -3.41473 0
M  V30 13646 H 1288.11 -2.76183 -4.74357 0
M  V30 13647 H 1288.37 -1.08627 -4.28547 0
M  V30 13648 N 1287.43 1.02549 -1.19673 0
M  V30 13649 C 1288.67 1.75656 -0.999463 0
M  V30 13650 C 1288.99 1.89238 0.470517 0
M  V30 13651 O 1288.26 1.42843 1.34062 0
M  V30 13652 H 1286.84 0.650732 -0.366821 0
M  V30 13653 H 1289.51 1.23684 -1.50627 0
M  V30 13654 H 1288.6 2.76353 -1.45035 0
M  V30 13655 N 1288.9 1.00119 1.21713 0
M  V30 13656 C 1290.15 0.680377 1.90303 0
M  V30 13657 C 1290.47 -0.790927 1.7824 0
M  V30 13658 O 1289.74 -1.5676 1.17486 0
M  V30 13659 H 1288.32 0.248665 0.704397 0
M  V30 13660 H 1290.98 1.26948 1.47886 0
M  V30 13661 H 1290.08 0.950188 2.97284 0
M  V30 13662 N 1290.38 -1.37203 0.775435 0
M  V30 13663 C 1291.61 -2.03868 0.352927 0
M  V30 13664 C 1292.02 -1.58482 -1.0261 0
M  V30 13665 O 1291.38 -0.767772 -1.65564 0
M  V30 13666 C 1291.43 -3.59378 0.39116 0
M  V30 13667 O 1291.15 -4.03103 1.71579 0
M  V30 13668 C 1292.65 -4.4328 -0.0424808 0
M  V30 13669 H 1289.87 -0.654619 0.14736 0
M  V30 13670 H 1292.42 -1.75463 1.05039 0
M  V30 13671 H 1290.57 -3.86542 -0.257752 0
M  V30 13672 H 1290.99 -4.9764 1.65695 0
M  V30 13673 H 1292.46 -5.51989 0.0354215 0
M  V30 13674 H 1292.94 -4.25374 -1.09333 0
M  V30 13675 H 1293.54 -4.21349 0.578384 0
M  V30 13676 N 1291.86 -0.526279 -1.48553 0
M  V30 13677 C 1292.79 0.227364 -2.3239 0
M  V30 13678 C 1293.77 0.93862 -1.41859 0
M  V30 13679 O 1294.96 0.925119 -1.70749 0
M  V30 13680 C 1292.09 1.277 -3.22971 0
M  V30 13681 C 1291.04 0.684107 -4.22497 0
M  V30 13682 C 1290.37 1.83612 -5.02186 0
M  V30 13683 C 1291.67 -0.341723 -5.21181 0
M  V30 13684 H 1293.36 -0.472486 -2.95648 0
M  V30 13685 H 1290.91 -0.228669 -1.42173 0
M  V30 13686 H 1292.86 1.81215 -3.80446 0
M  V30 13687 H 1291.58 2.00638 -2.57705 0
M  V30 13688 H 1290.24 0.170505 -3.66203 0
M  V30 13689 H 1289.89 2.55379 -4.33348 0
M  V30 13690 H 1289.59 1.44536 -5.69547 0
M  V30 13691 H 1291.11 2.37513 -5.62512 0
M  V30 13692 H 1292.53 0.106207 -5.73202 0
M  V30 13693 H 1290.92 -0.649673 -5.96573 0
M  V30 13694 H 1291.99 -1.2488 -4.68543 0
M  V30 13695 N 1293.34 1.5542 -0.261239 0
M  V30 13696 C 1294.59 1.9889 0.358777 0
M  V30 13697 C 1294.91 1.15092 1.57413 0
M  V30 13698 O 1294.18 0.237095 1.9446 0
M  V30 13699 H 1292.76 0.734599 0.13555 0
M  V30 13700 H 1295.42 1.91483 -0.363357 0
M  V30 13701 H 1294.51 3.05082 0.658142 0
M  V30 13702 N 1294.82 -0.0116844 1.57596 0
M  V30 13703 C 1295.75 -1.03477 2.04512 0
M  V30 13704 C 1296.76 -1.31414 0.960945 0
M  V30 13705 O 1297.95 -1.28596 1.23796 0
M  V30 13706 C 1295.05 -2.37234 2.42019 0
M  V30 13707 C 1294.22 -2.28405 3.73028 0
M  V30 13708 C 1293.28 -3.44753 3.97532 0
M  V30 13709 O 1292.31 -3.23465 4.68358 0
M  V30 13710 N 1293.51 -4.67212 3.44518 0
M  V30 13711 H 1296.27 -0.634758 2.92901 0
M  V30 13712 H 1293.84 -0.1993 1.60669 0
M  V30 13713 H 1295.83 -3.13821 2.55535 0
M  V30 13714 H 1294.4 -2.69018 1.5921 0
M  V30 13715 H 1293.62 -1.36804 3.697 0
M  V30 13716 H 1294.91 -2.19666 4.58938 0
M  V30 13717 H 1294.3 -4.87407 2.87142 0
M  V30 13718 H 1292.86 -5.41105 3.63384 0
M  V30 13719 N 1296.29 -1.55015 -0.284256 0
M  V30 13720 C 1297.54 -1.7509 -1.01733 0
M  V30 13721 C 1297.87 -0.545803 -1.86685 0
M  V30 13722 O 1297.12 0.471951 -1.89924 0
M  V30 13723 C 1297.42 -3.00246 -1.93874 0
M  V30 13724 C 1297.09 -4.33295 -1.24764 0
M  V30 13725 C 1295.75 -4.69459 -1.0565 0
M  V30 13726 C 1298.1 -5.15704 -0.754939 0
M  V30 13727 C 1295.43 -5.85596 -0.35976 0
M  V30 13728 C 1297.78 -6.32559 -0.0718473 0
M  V30 13729 C 1296.45 -6.67371 0.131104 0
M  V30 13730 H 1295.72 -0.6407 -0.372269 0
M  V30 13731 H 1298.36 -1.89282 -0.290638 0
M  V30 13732 H 1296.67 -2.80907 -2.73127 0
M  V30 13733 H 1298.37 -3.12974 -2.50696 0
M  V30 13734 H 1294.96 -4.04865 -1.4065 0
M  V30 13735 H 1299.14 -4.8825 -0.89027 0
M  V30 13736 H 1294.4 -6.11099 -0.19169 0
M  V30 13737 H 1298.57 -6.95675 0.317743 0
M  V30 13738 H 1296.2 -7.57215 0.672977 0
M  V30 13739 N 1297.77 0.548248 -1.47757 0
M  V30 13740 C 1299 1.32827 -1.58242 0
M  V30 13741 C 1299.41 1.87736 -0.234936 0
M  V30 13742 O 1298.75 1.66163 0.78329 0
M  V30 13743 C 1298.81 2.52906 -2.55497 0
M  V30 13744 C 1298.48 2.19218 -4.00989 0
M  V30 13745 C 1299.48 1.75976 -4.89212 0
M  V30 13746 C 1297.16 2.30302 -4.46392 0
M  V30 13747 C 1299.15 1.44258 -6.20861 0
M  V30 13748 C 1296.84 1.98197 -5.78067 0
M  V30 13749 C 1297.84 1.55244 -6.65123 0
M  V30 13750 O 1297.53 1.23551 -7.94349 0
M  V30 13751 H 1297.26 0.41088 -0.536799 0
M  V30 13752 H 1299.81 0.670055 -1.94163 0
M  V30 13753 H 1298.04 3.21648 -2.14661 0
M  V30 13754 H 1299.73 3.14979 -2.56014 0
M  V30 13755 H 1300.5 1.66898 -4.55379 0
M  V30 13756 H 1296.38 2.62693 -3.78832 0
M  V30 13757 H 1299.92 1.10659 -6.88767 0
M  V30 13758 H 1295.82 2.0691 -6.1144 0
M  V30 13759 H 1296.59 1.37105 -8.06935 0
M  V30 13760 N 1299.25 1.36039 0.795694 0
M  V30 13761 C 1300.18 1.25713 1.91648 0
M  V30 13762 C 1301.19 0.177993 1.61824 0
M  V30 13763 O 1302.38 0.432186 1.73189 0
M  V30 13764 C 1299.48 0.915546 3.26299 0
M  V30 13765 C 1298.66 2.09528 3.83949 0
M  V30 13766 C 1297.72 1.72775 4.97026 0
M  V30 13767 O 1296.74 2.44786 5.13876 0
M  V30 13768 N 1297.94 0.65775 5.76762 0
M  V30 13769 H 1300.71 2.22277 2.01029 0
M  V30 13770 H 1298.27 1.2935 0.973657 0
M  V30 13771 H 1300.26 0.650958 3.9943 0
M  V30 13772 H 1298.83 0.0392343 3.12575 0
M  V30 13773 H 1298.05 2.52304 3.0288 0
M  V30 13774 H 1299.34 2.88361 4.19196 0
M  V30 13775 H 1298.74 0.0596875 5.65669 0
M  V30 13776 H 1297.29 0.45297 6.50224 0
M  V30 13777 N 1300.73 -1.01913 1.20215 0
M  V30 13778 C 1301.64 -2.13864 0.964328 0
M  V30 13779 C 1302.65 -1.73821 -0.0789556 0
M  V30 13780 O 1303.83 -2.01111 0.107914 0
M  V30 13781 C 1300.9 -3.42827 0.516757 0
M  V30 13782 C 1299.96 -3.97127 1.63059 0
M  V30 13783 C 1299.19 -5.19935 1.20428 0
M  V30 13784 O 1299.41 -5.70355 0.0719119 0
M  V30 13785 O 1298.35 -5.67322 2.01071 0
M  V30 13786 H 1302.17 -2.36795 1.90162 0
M  V30 13787 H 1299.76 -1.1226 0.985803 0
M  V30 13788 H 1301.64 -4.20493 0.276272 0
M  V30 13789 H 1300.31 -3.21318 -0.391983 0
M  V30 13790 H 1299.22 -3.20752 1.92533 0
M  V30 13791 H 1300.55 -4.2302 2.51624 0
M  V30 13792 N 1302.21 -1.00763 -1.2118 0
M  V30 13793 C 1303.45 -0.692851 -1.90598 0
M  V30 13794 C 1303.79 0.774698 -1.78079 0
M  V30 13795 O 1303.06 1.56186 -1.15914 0
M  V30 13796 C 1303.34 -1.11792 -3.42308 0
M  V30 13797 C 1303.2 -2.64511 -3.63805 0
M  V30 13798 C 1304.52 -0.682314 -4.34779 0
M  V30 13799 H 1301.63 -0.253175 -0.69215 0
M  V30 13800 H 1304.28 -1.25378 -1.4276 0
M  V30 13801 H 1302.43 -0.640665 -3.83181 0
M  V30 13802 H 1304.1 -3.20021 -3.32242 0
M  V30 13803 H 1302.34 -3.05903 -3.0758 0
M  V30 13804 H 1303.01 -2.89306 -4.70113 0
M  V30 13805 H 1305.49 -1.09247 -4.01503 0
M  V30 13806 H 1304.36 -1.00787 -5.39568 0
M  V30 13807 H 1304.63 0.416441 -4.40134 0
M  V30 13808 N 1303.68 1.3679 -0.7827 0
M  V30 13809 C 1304.61 2.32721 -0.190604 0
M  V30 13810 C 1305.6 1.56321 0.670663 0
M  V30 13811 O 1306.78 1.84507 0.605871 0
M  V30 13812 C 1303.91 3.40564 0.680717 0
M  V30 13813 C 1302.86 4.27925 -0.080118 0
M  V30 13814 C 1302.19 5.26876 0.911361 0
M  V30 13815 C 1303.49 5.06738 -1.26545 0
M  V30 13816 H 1305.18 2.82488 -0.992023 0
M  V30 13817 H 1302.73 1.35818 -0.478484 0
M  V30 13818 H 1304.68 4.06659 1.10482 0
M  V30 13819 H 1303.41 2.89348 1.51477 0
M  V30 13820 H 1302.07 3.63376 -0.485125 0
M  V30 13821 H 1301.71 4.71936 1.74026 0
M  V30 13822 H 1301.41 5.8619 0.406762 0
M  V30 13823 H 1302.94 5.95846 1.33418 0
M  V30 13824 H 1304.35 5.65911 -0.917448 0
M  V30 13825 H 1302.75 5.75432 -1.70289 0
M  V30 13826 H 1303.82 4.38772 -2.06415 0
M  V30 13827 N 1305.16 0.53415 1.48272 0
M  V30 13828 C 1306.41 0.00971554 2.03398 0
M  V30 13829 C 1306.76 -1.316 1.40353 0
M  V30 13830 O 1306.06 -1.83786 0.541589 0
M  V30 13831 C 1306.25 -0.165144 3.57018 0
M  V30 13832 C 1306.08 1.14208 4.34956 0
M  V30 13833 C 1304.85 1.70309 4.75734 0
M  V30 13834 C 1307.05 2.05371 4.71516 0
M  V30 13835 N 1305.03 2.95276 5.38224 0
M  V30 13836 C 1306.4 3.14915 5.34068 0
M  V30 13837 C 1308.46 2.05647 4.53447 0
M  V30 13838 C 1307.16 4.24804 5.8046 0
M  V30 13839 C 1309.18 3.14533 5.00823 0
M  V30 13840 C 1308.55 4.22795 5.63404 0
M  V30 13841 H 1304.65 0.0451562 0.780695 0
M  V30 13842 H 1307.23 0.71635 1.81043 0
M  V30 13843 H 1305.4 -0.840869 3.79189 0
M  V30 13844 H 1307.13 -0.68956 3.98782 0
M  V30 13845 H 1303.89 1.24395 4.56971 0
M  V30 13846 H 1304.31 3.58911 5.74031 0
M  V30 13847 H 1308.95 1.23239 4.0444 0
M  V30 13848 H 1306.67 5.07987 6.2847 0
M  V30 13849 H 1310.26 3.15806 4.88629 0
M  V30 13850 H 1309.14 5.05661 5.99397 0
M  V30 13851 N 1306.64 -1.55279 0.269478 0
M  V30 13852 C 1307.89 -1.99077 -0.348224 0
M  V30 13853 C 1308.21 -1.15925 -1.568 0
M  V30 13854 O 1307.48 -0.247404 -1.94331 0
M  V30 13855 H 1306.06 -0.735307 -0.131653 0
M  V30 13856 H 1308.72 -1.91288 0.373506 0
M  V30 13857 H 1307.82 -3.05427 -0.641953 0
M  V30 13858 N 1308.12 0.00332656 -1.576 0
M  V30 13859 C 1309.34 0.703587 -1.95101 0
M  V30 13860 C 1309.77 1.66697 -0.871418 0
M  V30 13861 O 1309.13 1.80494 0.170739 0
M  V30 13862 C 1309.17 1.41457 -3.31696 0
M  V30 13863 O 1308.28 2.52885 -3.25765 0
M  V30 13864 H 1307.62 0.187396 -0.637008 0
M  V30 13865 H 1310.15 -0.0488727 -2.04542 0
M  V30 13866 H 1310.16 1.77874 -3.67185 0
M  V30 13867 H 1308.83 0.708182 -4.09826 0
M  V30 13868 H 1307.41 2.18821 -3.01947 0
M  V30 13869 N 1309.6 1.55164 0.276031 0
M  V30 13870 C 1311.01 1.66367 0.847293 0
M  V30 13871 C 1311.36 0.588692 1.8716 0
M  V30 13872 O 1310.48 -0.27035 2.14705 0
M  V30 13873 C 1311.08 3.01593 1.5436 0
M  V30 13874 C 1309.64 3.14833 2.06293 0
M  V30 13875 C 1308.78 2.62152 0.903959 0
M  V30 13876 H 1311.74 1.58613 0.0524478 0
M  V30 13877 H 1311.76 2.94412 2.41043 0
M  V30 13878 H 1311.27 3.7981 0.797849 0
M  V30 13879 H 1309.37 2.41384 2.83839 0
M  V30 13880 H 1309.48 4.21353 2.28032 0
M  V30 13881 H 1307.85 2.19233 1.29649 0
M  V30 13882 H 1308.63 3.4287 0.171765 0
M  V30 13883 N 1311.07 -0.540404 1.48045 0
M  V30 13884 C 1312.04 -1.62813 1.61322 0
M  V30 13885 C 1313.04 -1.53243 0.487161 0
M  V30 13886 O 1314.23 -1.571 0.752684 0
M  V30 13887 C 1311.36 -3.02408 1.5736 0
M  V30 13888 H 1312.55 -1.52385 2.583 0
M  V30 13889 H 1310.11 -0.761654 1.36486 0
M  V30 13890 H 1310.84 -3.18353 0.618195 0
M  V30 13891 H 1310.63 -3.10763 2.39099 0
M  V30 13892 H 1312.12 -3.8151 1.69822 0
M  V30 13893 N 1312.55 -1.36459 -0.788468 0
M  V30 13894 C 1313.52 -1.3071 -1.88275 0
M  V30 13895 C 1314.52 -0.214596 -1.59362 0
M  V30 13896 O 1315.71 -0.469437 -1.67756 0
M  V30 13897 C 1312.84 -1.02648 -3.25079 0
M  V30 13898 H 1314.03 -2.28029 -1.94788 0
M  V30 13899 H 1311.58 -1.21245 -0.986375 0
M  V30 13900 H 1312.32 -0.0578992 -3.24248 0
M  V30 13901 H 1312.1 -1.81708 -3.47454 0
M  V30 13902 H 1313.59 -1.01233 -4.05144 0
M  V30 13903 N 1314.03 1.01274 -1.20754 0
M  V30 13904 C 1315.26 1.7906 -1.04653 0
M  V30 13905 C 1315.68 1.83806 0.399632 0
M  V30 13906 O 1315.04 1.27596 1.28798 0
M  V30 13907 C 1315.09 3.21187 -1.63925 0
M  V30 13908 O 1314.19 4.02913 -0.879486 0
M  V30 13909 H 1313.53 0.552147 -0.368823 0
M  V30 13910 H 1316.06 1.27356 -1.6013 0
M  V30 13911 H 1316.07 3.71887 -1.67822 0
M  V30 13912 H 1314.75 3.17048 -2.69172 0
M  V30 13913 H 1313.32 3.61499 -0.915019 0
M  V30 13914 N 1315.51 1.01404 1.20644 0
M  V30 13915 C 1316.79 0.617088 1.85611 0
M  V30 13916 C 1317.17 -0.904947 1.9072 0
M  V30 13917 O 1316.51 -1.79562 1.41315 0
M  V30 13918 C 1316.72 1.26193 3.25386 0
M  V30 13919 C 1318.07 1.37575 4.01694 0
M  V30 13920 O 1319.1 1.21795 3.34731 0
M  V30 13921 O 1317.96 1.6305 5.2161 0
M  V30 13922 H 1315.05 0.212579 0.799211 0
M  V30 13923 H 1317.6 1.11126 1.28254 0
M  V30 13924 H 1316.37 2.30206 3.16419 0
M  V30 13925 H 1315.99 0.754679 3.90372 0
M  V30 13926 N 1316.99 -1.36373 0.789944 0
M  V30 13927 C 1318.26 -1.9349 0.286543 0
M  V30 13928 C 1318.64 -1.7218 -1.22136 0
M  V30 13929 O 1317.99 -1.08106 -2.01309 0
M  V30 13930 C 1318.2 -3.42316 0.679749 0
M  V30 13931 C 1319.55 -4.19442 0.659791 0
M  V30 13932 O 1320.57 -3.50758 0.620256 0
M  V30 13933 O 1319.43 -5.41957 0.703159 0
M  V30 13934 H 1316.53 -0.823942 0.0710537 0
M  V30 13935 H 1319.07 -1.45551 0.872523 0
M  V30 13936 H 1317.85 -3.51485 1.7197 0
M  V30 13937 H 1317.47 -3.97542 0.0676823 0
M  V30 13938 N 1318.47 -0.542005 -1.47987 0
M  V30 13939 C 1319.71 -0.0122873 -2.02096 0
M  V30 13940 C 1320.03 1.3362 -1.42024 0
M  V30 13941 O 1319.3 1.86807 -0.589911 0
M  V30 13942 H 1317.88 -0.00155365 -0.746998 0
M  V30 13943 H 1320.55 -0.708566 -1.81564 0
M  V30 13944 H 1319.64 0.0871275 -3.11978 0
M  V30 13945 N 1319.94 1.55134 -0.277709 0
M  V30 13946 C 1321.36 1.59417 0.0763615 0
M  V30 13947 C 1321.56 1.29491 1.54384 0
M  V30 13948 O 1320.62 1.05703 2.2931 0
M  V30 13949 C 1321.93 2.99194 -0.300607 0
M  V30 13950 C 1323.48 3.1202 -0.247438 0
M  V30 13951 C 1323.95 4.54068 -0.598884 0
M  V30 13952 N 1325.44 4.59917 -0.550534 0
M  V30 13953 C 1326.18 5.67859 -0.795235 0
M  V30 13954 N 1325.67 6.83936 -1.10469 0
M  V30 13955 N 1327.47 5.5742 -0.723859 0
M  V30 13956 H 1319.62 1.72851 -1.23435 0
M  V30 13957 H 1321.88 0.806137 -0.498846 0
M  V30 13958 H 1321.59 3.25937 -1.32129 0
M  V30 13959 H 1321.46 3.75504 0.35729 0
M  V30 13960 H 1323.85 2.8504 0.763959 0
M  V30 13961 H 1323.93 2.37917 -0.939629 0
M  V30 13962 H 1323.57 4.81774 -1.60798 0
M  V30 13963 H 1323.5 5.26474 0.115126 0
M  V30 13964 H 1325.99 3.76531 -0.321341 0
M  V30 13965 H 1326.31 7.62159 -1.278 0
M  V30 13966 H 1324.65 6.85545 -1.14249 0
M  V30 13967 H 1327.84 4.65613 -0.481925 0
M  V30 13968 H 1328.02 6.41465 -0.917944 0
M  V30 13969 N 1321.42 0.00503138 1.57599 0
M  V30 13970 C 1322.84 -0.351109 1.5569 0
M  V30 13971 C 1323.04 -1.74465 1.00818 0
M  V30 13972 O 1322.09 -2.44144 0.64422 0
M  V30 13973 C 1323.41 -0.221738 2.99881 0
M  V30 13974 C 1324.95 -0.296303 3.11594 0
M  V30 13975 C 1325.43 -0.195998 4.5758 0
M  V30 13976 N 1326.92 -0.253741 4.62504 0
M  V30 13977 C 1327.66 -0.199546 5.73053 0
M  V30 13978 N 1327.15 -0.0956553 6.92734 0
M  V30 13979 N 1328.94 -0.251779 5.61536 0
M  V30 13980 H 1321.1 0.916578 1.91605 0
M  V30 13981 H 1323.36 0.351802 0.880306 0
M  V30 13982 H 1323.06 0.737255 3.43886 0
M  V30 13983 H 1322.94 -1.00178 3.63654 0
M  V30 13984 H 1325.33 -1.24574 2.67517 0
M  V30 13985 H 1325.41 0.513692 2.50589 0
M  V30 13986 H 1325.05 0.749918 5.02333 0
M  V30 13987 H 1324.98 -1.02455 5.16537 0
M  V30 13988 H 1327.47 -0.335163 3.76411 0
M  V30 13989 H 1327.78 -0.0603357 7.72776 0
M  V30 13990 H 1326.13 -0.0612113 6.94973 0
M  V30 13991 H 1329.32 -0.331173 4.66927 0
M  V30 13992 H 1329.49 -0.206078 6.47672 0
M  V30 13993 N 1322.9 -1.55308 -0.267798 0
M  V30 13994 C 1324.13 -1.80191 -1.01681 0
M  V30 13995 C 1324.54 -0.57783 -1.7974 0
M  V30 13996 O 1323.9 0.4532 -1.76783 0
M  V30 13997 C 1323.95 -3.03023 -1.97127 0
M  V30 13998 O 1323.67 -4.20704 -1.22229 0
M  V30 13999 C 1325.17 -3.40549 -2.83798 0
M  V30 14000 H 1322.39 -0.60013 -0.300142 0
M  V30 14001 H 1324.94 -2.02332 -0.297007 0
M  V30 14002 H 1323.09 -2.82993 -2.64563 0
M  V30 14003 H 1323.51 -4.90181 -1.86608 0
M  V30 14004 H 1324.98 -4.29653 -3.46557 0
M  V30 14005 H 1325.46 -2.60186 -3.53836 0
M  V30 14006 H 1326.06 -3.62856 -2.21846 0
M  V30 14007 N 1324.38 0.532545 -1.4833 0
M  V30 14008 C 1325.31 1.64662 -1.65555 0
M  V30 14009 C 1326.29 1.62447 -0.50447 0
M  V30 14010 O 1327.47 1.79684 -0.736712 0
M  V30 14011 C 1324.6 3.03256 -1.69272 0
M  V30 14012 C 1323.56 3.20329 -2.83854 0
M  V30 14013 C 1322.88 4.59958 -2.72659 0
M  V30 14014 C 1324.18 3.03345 -4.25181 0
M  V30 14015 H 1325.88 1.50502 -2.58823 0
M  V30 14016 H 1323.42 0.722612 -1.24556 0
M  V30 14017 H 1325.38 3.81064 -1.79911 0
M  V30 14018 H 1324.1 3.18433 -0.725805 0
M  V30 14019 H 1322.76 2.44937 -2.72766 0
M  V30 14020 H 1322.41 4.71967 -1.73942 0
M  V30 14021 H 1322.11 4.72327 -3.49544 0
M  V30 14022 H 1323.63 5.39869 -2.85262 0
M  V30 14023 H 1325.05 3.70948 -4.37116 0
M  V30 14024 H 1323.44 3.27208 -5.03045 0
M  V30 14025 H 1324.51 1.998 -4.41824 0
M  V30 14026 N 1325.86 1.36875 0.78122 0
M  V30 14027 C 1327.27 1.17467 1.08044 0
M  V30 14028 C 1327.47 0.00434799 2.015 0
M  V30 14029 O 1326.53 -0.658499 2.43762 0
M  V30 14030 C 1327.84 2.48917 1.68704 0
M  V30 14031 C 1329.39 2.55354 1.81007 0
M  V30 14032 C 1329.86 3.8691 2.45081 0
M  V30 14033 N 1331.35 3.88301 2.52541 0
M  V30 14034 C 1332.09 4.86837 3.02947 0
M  V30 14035 N 1331.59 5.95768 3.53598 0
M  V30 14036 N 1333.38 4.74249 3.01735 0
M  V30 14037 H 1325.53 2.11793 0.160503 0
M  V30 14038 H 1327.79 0.938507 0.133825 0
M  V30 14039 H 1327.5 3.34867 1.07503 0
M  V30 14040 H 1327.37 2.65319 2.68115 0
M  V30 14041 H 1329.76 1.69816 2.41343 0
M  V30 14042 H 1329.84 2.42843 0.803783 0
M  V30 14043 H 1329.48 4.72858 1.85386 0
M  V30 14044 H 1329.41 3.9672 3.46296 0
M  V30 14045 H 1331.91 3.09607 2.16684 0
M  V30 14046 H 1332.22 6.66918 3.90435 0
M  V30 14047 H 1330.56 5.99426 3.51728 0
M  V30 14048 H 1333.75 3.88275 2.61458 0
M  V30 14049 H 1333.93 5.512 3.40709 0
M  V30 14050 N 1327.33 -1.00632 1.21289 0
M  V30 14051 C 1328.58 -1.74647 1.03084 0
M  V30 14052 C 1328.91 -1.89271 -0.43476 0
M  V30 14053 O 1328.19 -1.42607 -1.32263 0
M  V30 14054 C 1328.47 -3.15981 1.72709 0
M  V30 14055 C 1328.32 -3.09088 3.2678 0
M  V30 14056 C 1329.64 -4.14875 1.46857 0
M  V30 14057 H 1326.76 -0.633938 0.375889 0
M  V30 14058 H 1329.4 -1.17328 1.49446 0
M  V30 14059 H 1327.55 -3.64918 1.33294 0
M  V30 14060 H 1329.23 -2.67875 3.75554 0
M  V30 14061 H 1327.47 -2.46223 3.57151 0
M  V30 14062 H 1328.14 -4.09041 3.70661 0
M  V30 14063 H 1330.62 -3.74637 1.81069 0
M  V30 14064 H 1329.49 -5.1191 1.98088 0
M  V30 14065 H 1329.75 -4.40302 0.398296 0
M  V30 14066 N 1328.81 -1.02043 -1.20104 0
M  V30 14067 C 1329.74 -0.552093 -2.22451 0
M  V30 14068 C 1330.76 0.367547 -1.58597 0
M  V30 14069 O 1331.95 0.165285 -1.77733 0
M  V30 14070 C 1329.05 0.215833 -3.38212 0
M  V30 14071 C 1328.22 -0.70666 -4.31654 0
M  V30 14072 C 1327.28 0.0143628 -5.26198 0
M  V30 14073 O 1326.3 -0.609413 -5.65928 0
M  V30 14074 N 1327.51 1.28794 -5.66032 0
M  V30 14075 H 1330.27 -1.43229 -2.6326 0
M  V30 14076 H 1327.83 -0.89842 -1.34685 0
M  V30 14077 H 1329.82 0.707523 -3.98467 0
M  V30 14078 H 1328.39 0.997358 -2.96263 0
M  V30 14079 H 1327.61 -1.37859 -3.69308 0
M  V30 14080 H 1328.9 -1.33392 -4.91003 0
M  V30 14081 H 1328.3 1.8156 -5.35773 0
M  V30 14082 H 1326.86 1.72429 -6.28579 0
M  V30 14083 N 1330.29 1.35952 -0.797165 0
M  V30 14084 C 1331.54 1.98639 -0.372405 0
M  V30 14085 C 1331.86 1.63571 1.06158 0
M  V30 14086 O 1331.13 0.913516 1.73297 0
M  V30 14087 H 1329.71 0.734753 -0.13471 0
M  V30 14088 H 1332.37 1.66022 -1.02092 0
M  V30 14089 H 1331.47 3.08533 -0.47049 0
M  V30 14090 N 1331.77 0.549846 1.47697 0
M  V30 14091 C 1332.72 -0.215119 2.31603 0
M  V30 14092 C 1333.71 -0.916441 1.4247 0
M  V30 14093 O 1334.92 -0.838565 1.59274 0
M  V30 14094 H 1331.29 -0.0882441 0.746805 0
M  V30 14095 H 1333.26 0.511847 2.93977 0
M  V30 14096 C 1332.01 -1.23662 3.24966 0
M  V30 14097 H 1331.33 -0.706384 3.9351 0
M  V30 14098 H 1332.77 -1.7429 3.86522 0
M  V30 14099 C 1331.23 -2.28066 2.47967 0
M  V30 14100 O 1331.76 -3.34862 2.21879 0
M  V30 14101 N 1329.97 -2.01799 2.09106 0
M  V30 14102 H 1329.52 -1.14965 2.30523 0
M  V30 14103 H 1329.47 -2.71872 1.57902 0
M  V30 14104 N 1333.25 -1.54984 0.285932 0
M  V30 14105 C 1334.52 -1.91872 -0.380083 0
M  V30 14106 C 1334.9 -1.21146 -1.72878 0
M  V30 14107 O 1334.25 -0.341999 -2.25926 0
M  V30 14108 C 1334.46 -3.45258 -0.509667 0
M  V30 14109 C 1335.81 -4.17232 -0.787549 0
M  V30 14110 O 1336.83 -3.51211 -0.594062 0
M  V30 14111 O 1335.69 -5.34085 -1.15826 0
M  V30 14112 H 1332.79 -0.799931 -0.209856 0
M  V30 14113 H 1335.33 -1.66403 0.332882 0
M  V30 14114 H 1334.1 -3.88829 0.439049 0
M  V30 14115 H 1333.73 -3.76715 -1.27168 0
M  V30 14116 N 1334.72 -0.0133892 -1.57594 0
M  V30 14117 C 1335.67 0.982482 -2.05746 0
M  V30 14118 C 1336.66 1.29508 -0.954801 0
M  V30 14119 O 1337.85 1.28382 -1.21848 0
M  V30 14120 C 1334.98 2.27012 -2.57527 0
M  V30 14121 C 1334.07 1.98658 -3.74694 0
M  V30 14122 N 1334.46 1.40512 -4.85891 0
M  V30 14123 C 1332.75 2.28732 -3.82881 0
M  V30 14124 C 1333.46 1.28933 -5.67231 0
M  V30 14125 N 1332.43 1.77951 -5.13648 0
M  V30 14126 H 1336.23 0.527626 -2.89125 0
M  V30 14127 H 1333.75 0.192001 -1.61261 0
M  V30 14128 H 1335.74 2.99212 -2.90306 0
M  V30 14129 H 1334.4 2.73139 -1.75572 0
M  V30 14130 H 1335.42 1.08217 -5.06468 0
M  V30 14131 H 1332.09 2.77641 -3.11804 0
M  V30 14132 H 1333.48 0.841051 -6.66615 0
M  V30 14133 N 1336.2 1.55448 0.259558 0
M  V30 14134 C 1337.43 1.81063 1.01148 0
M  V30 14135 C 1337.85 0.58875 1.78649 0
M  V30 14136 O 1337.21 -0.461971 1.75315 0
M  V30 14137 C 1337.26 3.04279 1.93512 0
M  V30 14138 O 1336.36 2.80307 3.02493 0
M  V30 14139 H 1335.7 0.598056 0.288487 0
M  V30 14140 H 1338.23 2.02614 0.284387 0
M  V30 14141 H 1338.24 3.33373 2.35215 0
M  V30 14142 H 1336.92 3.92856 1.36518 0
M  V30 14143 H 1335.5 2.62345 2.65008 0
M  V30 14144 N 1337.68 -0.524672 1.4861 0
M  V30 14145 C 1338.64 -1.61092 1.63039 0
M  V30 14146 C 1339.64 -1.52718 0.503387 0
M  V30 14147 O 1340.83 -1.56293 0.769304 0
M  V30 14148 C 1337.97 -3.00722 1.60558 0
M  V30 14149 H 1339.16 -1.49636 2.59902 0
M  V30 14150 H 1336.71 -0.747135 1.37287 0
M  V30 14151 H 1337.45 -3.1768 0.651926 0
M  V30 14152 H 1337.23 -3.0821 2.42382 0
M  V30 14153 H 1338.72 -3.79688 1.73859 0
M  V30 14154 N 1339.16 -1.37287 -0.77395 0
M  V30 14155 C 1340.39 -1.35563 -1.56302 0
M  V30 14156 C 1340.8 0.0595356 -1.88706 0
M  V30 14157 O 1340.16 1.02072 -1.51286 0
M  V30 14158 C 1340.21 -2.19195 -2.87464 0
M  V30 14159 O 1339.93 -3.55197 -2.5645 0
M  V30 14160 C 1341.43 -2.25425 -3.81704 0
M  V30 14161 H 1338.65 -0.464431 -0.484298 0
M  V30 14162 H 1341.2 -1.80597 -0.959425 0
M  V30 14163 H 1339.35 -1.77676 -3.44253 0
M  V30 14164 H 1339.76 -3.99011 -3.40427 0
M  V30 14165 H 1341.24 -2.8827 -4.70749 0
M  V30 14166 H 1341.72 -1.26205 -4.20677 0
M  V30 14167 H 1342.32 -2.67247 -3.30846 0
M  V30 14168 N 1340.64 0.999871 -1.21821 0
M  V30 14169 C 1342.05 1.26228 -0.976664 0
M  V30 14170 C 1342.25 1.98714 0.333915 0
M  V30 14171 O 1341.31 2.29252 1.05829 0
M  V30 14172 C 1342.62 2.08089 -2.1707 0
M  V30 14173 C 1344.17 2.21298 -2.21351 0
M  V30 14174 C 1344.64 3.06544 -3.40287 0
M  V30 14175 N 1346.14 3.14131 -3.40405 0
M  V30 14176 C 1346.87 3.80362 -4.29083 0
M  V30 14177 N 1346.37 4.48577 -5.27968 0
M  V30 14178 N 1348.16 3.77053 -4.16878 0
M  V30 14179 H 1340.31 0.513704 -2.06094 0
M  V30 14180 H 1342.57 0.289447 -0.902732 0
M  V30 14181 H 1342.28 1.62183 -3.12073 0
M  V30 14182 H 1342.15 3.08843 -2.16554 0
M  V30 14183 H 1344.54 2.66422 -1.269 0
M  V30 14184 H 1344.62 1.19997 -2.25908 0
M  V30 14185 H 1344.27 2.62122 -4.35034 0
M  V30 14186 H 1344.2 4.0797 -3.32969 0
M  V30 14187 H 1346.69 2.65576 -2.68846 0
M  V30 14188 H 1347 4.96833 -5.91926 0
M  V30 14189 H 1345.34 4.47348 -5.31888 0
M  V30 14190 H 1348.54 3.22918 -3.38883 0
M  V30 14191 H 1348.71 4.2839 -4.86195 0
M  V30 14192 N 1342.11 1.02678 1.19562 0
M  V30 14193 C 1343.02 0.615738 2.26375 0
M  V30 14194 C 1344.04 -0.351525 1.70412 0
M  V30 14195 O 1345.22 -0.209932 2.00303 0
M  V30 14196 C 1342.28 -0.0292135 3.46688 0
M  V30 14197 C 1341.34 0.985284 4.1784 0
M  V30 14198 C 1340.58 0.371016 5.32409 0
M  V30 14199 O 1340.8 -0.826591 5.64379 0
M  V30 14200 O 1339.73 1.09282 5.91896 0
M  V30 14201 H 1343.56 1.50526 2.63772 0
M  V30 14202 H 1341.14 0.796847 1.26375 0
M  V30 14203 H 1343.03 -0.38893 4.19601 0
M  V30 14204 H 1341.7 -0.892778 3.11145 0
M  V30 14205 H 1340.61 1.39655 3.47055 0
M  V30 14206 H 1341.94 1.81915 4.57349 0
M  V30 14207 N 1343.59 -1.35528 0.804364 0
M  V30 14208 C 1345.01 -1.51962 0.487831 0
M  V30 14209 C 1345.21 -1.75426 -0.991353 0
M  V30 14210 O 1344.26 -1.7944 -1.77644 0
M  V30 14211 C 1345.58 -2.69626 1.33126 0
M  V30 14212 C 1347.13 -2.83502 1.32648 0
M  V30 14213 C 1347.6 -4.04188 2.15397 0
M  V30 14214 N 1349.09 -4.11362 2.12922 0
M  V30 14215 C 1349.83 -5.03856 2.73709 0
M  V30 14216 N 1349.32 -6.01696 3.43415 0
M  V30 14217 N 1351.12 -4.96585 2.63363 0
M  V30 14218 H 1343.27 -1.18553 1.76235 0
M  V30 14219 H 1345.53 -0.57986 0.749977 0
M  V30 14220 H 1345.24 -2.58857 2.38088 0
M  V30 14221 H 1345.11 -3.64168 0.982934 0
M  V30 14222 H 1347.5 -2.93723 0.284712 0
M  V30 14223 H 1347.58 -1.89824 1.71466 0
M  V30 14224 H 1347.22 -3.94728 3.19613 0
M  V30 14225 H 1347.15 -4.97044 1.7394 0
M  V30 14226 H 1349.64 -3.41319 1.62203 0
M  V30 14227 H 1349.96 -6.68866 3.8709 0
M  V30 14228 H 1348.3 -6.01877 3.47519 0
M  V30 14229 H 1351.49 -4.19103 2.08496 0
M  V30 14230 H 1351.66 -5.68478 3.11026 0
M  V30 14231 N 1345.07 -0.557671 -1.47404 0
M  V30 14232 C 1346.49 -0.217473 -1.58111 0
M  V30 14233 C 1346.69 1.28 -1.55622 0
M  V30 14234 O 1345.74 2.06019 -1.45988 0
M  V30 14235 C 1347.06 -0.844535 -2.88597 0
M  V30 14236 C 1348.6 -0.815807 -3.02181 0
M  V30 14237 C 1349.08 -1.42195 -4.35367 0
M  V30 14238 N 1350.57 -1.38515 -4.42004 0
M  V30 14239 C 1351.31 -1.82378 -5.43623 0
M  V30 14240 N 1350.8 -2.34098 -6.52051 0
M  V30 14241 N 1352.59 -1.73446 -5.34671 0
M  V30 14242 H 1344.75 -1.53058 -1.47265 0
M  V30 14243 H 1347.01 -0.638305 -0.700907 0
M  V30 14244 H 1346.71 -1.89696 -2.96156 0
M  V30 14245 H 1346.59 -0.337844 -3.75684 0
M  V30 14246 H 1348.98 0.227925 -2.94218 0
M  V30 14247 H 1349.06 -1.36026 -2.16635 0
M  V30 14248 H 1348.7 -2.46475 -4.44086 0
M  V30 14249 H 1348.63 -0.852932 -5.19647 0
M  V30 14250 H 1351.12 -1.00684 -3.64241 0
M  V30 14251 H 1351.43 -2.6549 -7.25765 0
M  V30 14252 H 1349.78 -2.38109 -6.52939 0
M  V30 14253 H 1352.97 -1.32816 -4.48862 0
M  V30 14254 H 1353.14 -2.07947 -6.13728 0
M  V30 14255 N 1346.55 1.54831 -0.294147 0
M  V30 14256 C 1347.48 2.26226 0.57827 0
M  V30 14257 C 1348.46 1.25928 1.14351 0
M  V30 14258 O 1349.65 1.54687 1.17412 0
M  V30 14259 C 1346.78 2.99783 1.75349 0
M  V30 14260 C 1345.73 4.07171 1.31892 0
M  V30 14261 C 1345.06 4.68406 2.57876 0
M  V30 14262 C 1346.36 5.20313 0.455167 0
M  V30 14263 H 1348.05 2.99395 -0.0171936 0
M  V30 14264 H 1345.6 1.43997 -0.00970944 0
M  V30 14265 H 1347.55 3.48448 2.36986 0
M  V30 14266 H 1346.27 2.24181 2.37509 0
M  V30 14267 H 1344.93 3.59346 0.725653 0
M  V30 14268 H 1344.58 3.89451 3.18335 0
M  V30 14269 H 1344.28 5.40927 2.29502 0
M  V30 14270 H 1345.8 5.1983 3.20327 0
M  V30 14271 H 1347.22 5.64913 0.977026 0
M  V30 14272 H 1345.61 5.99512 0.265501 0
M  V30 14273 H 1346.68 4.82088 -0.521434 0
M  V30 14274 N 1348.03 0.0217466 1.57585 0
M  V30 14275 C 1349.3 -0.696733 1.8277 0
M  V30 14276 C 1349.68 -1.90759 0.904112 0
M  V30 14277 O 1349.03 -2.28461 -0.0420522 0
M  V30 14278 C 1349.24 -1.08193 3.31806 0
M  V30 14279 C 1350.59 -1.47667 3.98095 0
M  V30 14280 O 1351.61 -1.17511 3.36258 0
M  V30 14281 O 1350.47 -2.03825 5.07068 0
M  V30 14282 H 1347.57 -0.341141 0.75336 0
M  V30 14283 H 1350.11 0.0488652 1.6963 0
M  V30 14284 H 1348.89 -0.219799 3.90682 0
M  V30 14285 H 1348.51 -1.88593 3.50026 0
M  V30 14286 N 1349.51 -1.55583 -0.251311 0
M  V30 14287 C 1350.74 -1.80996 -0.99619 0
M  V30 14288 C 1351.14 -0.594534 -1.79616 0
M  V30 14289 O 1350.49 0.446197 -1.78199 0
M  V30 14290 C 1350.55 -2.99691 -1.98559 0
M  V30 14291 C 1350.21 -4.35888 -1.37297 0
M  V30 14292 C 1351.21 -5.14051 -0.777672 0
M  V30 14293 C 1348.89 -4.82579 -1.39366 0
M  V30 14294 C 1350.89 -6.3705 -0.211225 0
M  V30 14295 C 1348.58 -6.05528 -0.823357 0
M  V30 14296 C 1349.57 -6.82602 -0.233163 0
M  V30 14297 O 1349.26 -8.03229 0.328345 0
M  V30 14298 H 1348.99 -0.606287 -0.298985 0
M  V30 14299 H 1351.55 -2.03471 -0.280813 0
M  V30 14300 H 1349.78 -2.7296 -2.73915 0
M  V30 14301 H 1351.47 -3.12235 -2.59354 0
M  V30 14302 H 1352.23 -4.791 -0.754228 0
M  V30 14303 H 1348.11 -4.22582 -1.84243 0
M  V30 14304 H 1351.66 -6.97152 0.250073 0
M  V30 14305 H 1347.55 -6.39957 -0.844114 0
M  V30 14306 H 1348.32 -8.18205 0.219785 0
M  V30 14307 N 1350.98 0.516783 -1.48886 0
M  V30 14308 C 1351.92 1.63632 -1.60491 0
M  V30 14309 C 1352.93 1.55301 -0.488424 0
M  V30 14310 O 1354.12 1.6152 -0.75983 0
M  V30 14311 C 1351.22 3.02351 -1.53093 0
M  V30 14312 C 1350.39 3.36028 -2.80006 0
M  V30 14313 C 1349.45 4.54087 -2.65879 0
M  V30 14314 O 1348.48 4.56652 -3.3979 0
M  V30 14315 N 1349.68 5.53058 -1.76372 0
M  V30 14316 H 1352.44 1.54109 -2.57042 0
M  V30 14317 H 1350 0.704338 -1.45776 0
M  V30 14318 H 1352 3.79225 -1.41318 0
M  V30 14319 H 1350.57 3.05881 -0.644637 0
M  V30 14320 H 1349.79 2.48204 -3.06249 0
M  V30 14321 H 1351.07 3.5532 -3.64177 0
M  V30 14322 H 1350.47 5.53773 -1.1555 0
M  V30 14323 H 1349.03 6.29097 -1.70529 0
M  V30 14324 N 1352.46 1.37696 0.766659 0
M  V30 14325 C 1353.37 1.36075 1.91104 0
M  V30 14326 C 1354.39 0.259617 1.72052 0
M  V30 14327 O 1355.56 0.49586 1.952 0
M  V30 14328 C 1352.63 1.17176 3.26298 0
M  V30 14329 C 1351.69 2.36975 3.57968 0
M  V30 14330 C 1350.92 2.18968 4.86712 0
M  V30 14331 O 1351.15 1.17658 5.58133 0
M  V30 14332 O 1350.08 3.07269 5.17561 0
M  V30 14333 H 1353.91 2.32472 1.95424 0
M  V30 14334 H 1351.49 1.18478 0.910122 0
M  V30 14335 H 1353.37 1.08645 4.07154 0
M  V30 14336 H 1352.05 0.238559 3.2282 0
M  V30 14337 H 1350.95 2.51079 2.77327 0
M  V30 14338 H 1352.29 3.2888 3.66195 0
M  V30 14339 N 1353.94 -0.993397 1.22349 0
M  V30 14340 C 1355.19 -1.72945 1.04568 0
M  V30 14341 C 1355.51 -1.90419 -0.420178 0
M  V30 14342 O 1354.78 -1.46348 -1.30227 0
M  V30 14343 H 1353.36 -0.640777 0.383945 0
M  V30 14344 H 1356.02 -1.19647 1.53853 0
M  V30 14345 H 1355.12 -2.72411 1.52311 0
M  V30 14346 N 1355.42 -1.03311 -1.19015 0
M  V30 14347 C 1356.83 -0.761079 -1.70483 0
M  V30 14348 C 1357.18 0.718851 -1.82557 0
M  V30 14349 O 1356.3 1.56006 -1.4997 0
M  V30 14350 C 1356.9 -1.37492 -3.09647 0
M  V30 14351 C 1355.46 -1.15138 -3.58358 0
M  V30 14352 C 1354.61 -1.47034 -2.35109 0
M  V30 14353 H 1357.56 -1.2005 -1.03797 0
M  V30 14354 H 1357.58 -0.774115 -3.72542 0
M  V30 14355 H 1357.09 -2.45203 -3.00828 0
M  V30 14356 H 1355.19 -0.0926822 -3.72485 0
M  V30 14357 H 1355.3 -1.84307 -4.4223 0
M  V30 14358 H 1353.67 -0.889794 -2.38652 0
M  V30 14359 H 1354.45 -2.55837 -2.28916 0
M  V30 14360 N 1356.9 1.35099 -0.81154 0
M  V30 14361 C 1358.31 1.81082 -0.454543 0
M  V30 14362 C 1358.66 1.67361 1.02395 0
M  V30 14363 O 1357.78 1.20707 1.79607 0
M  V30 14364 C 1358.38 3.2877 -0.818274 0
M  V30 14365 C 1356.94 3.72877 -0.513808 0
M  V30 14366 C 1356.08 2.57008 -1.04125 0
M  V30 14367 H 1359.03 1.23007 -1.00274 0
M  V30 14368 H 1359.06 3.80318 -0.117683 0
M  V30 14369 H 1358.57 3.38725 -1.89439 0
M  V30 14370 H 1356.67 3.68468 0.553368 0
M  V30 14371 H 1356.78 4.67455 -1.0499 0
M  V30 14372 H 1355.15 2.5045 -0.463337 0
M  V30 14373 H 1355.93 2.69738 -2.12358 0
M  V30 14374 N 1358.37 0.56548 1.47106 0
M  V30 14375 C 1359.62 0.0444375 2.02051 0
M  V30 14376 C 1359.94 -1.31344 1.44131 0
M  V30 14377 O 1359.21 -1.85845 0.619556 0
M  V30 14378 H 1357.79 0.0134375 0.746879 0
M  V30 14379 H 1360.45 0.737362 1.80413 0
M  V30 14380 H 1359.55 -0.0374834 3.12077 0
M  V30 14381 N 1359.85 -1.54672 0.302354 0
M  V30 14382 C 1361.1 -2.00463 -0.306978 0
M  V30 14383 C 1361.43 -1.19043 -1.53435 0
M  V30 14384 O 1360.71 -0.267255 -1.92655 0
M  V30 14385 C 1360.99 -3.53958 -0.662229 0
M  V30 14386 C 1360.84 -4.46118 0.574378 0
M  V30 14387 C 1362.16 -4.14174 -1.48821 0
M  V30 14388 H 1359.28 -0.728729 -0.110102 0
M  V30 14389 H 1361.92 -1.85419 0.414722 0
M  V30 14390 H 1360.07 -3.66909 -1.2771 0
M  V30 14391 H 1361.74 -4.45071 1.21284 0
M  V30 14392 H 1359.99 -4.1666 1.20736 0
M  V30 14393 H 1360.66 -5.51281 0.281651 0
M  V30 14394 H 1363.13 -4.04668 -0.968674 0
M  V30 14395 H 1362.01 -5.2173 -1.70556 0
M  V30 14396 H 1362.27 -3.66136 -2.47784 0
M  V30 14397 N 1361.33 -0.0301034 -1.57571 0
M  V30 14398 C 1362.24 0.967086 -2.1374 0
M  V30 14399 C 1363.26 1.35636 -1.0899 0
M  V30 14400 O 1364.43 1.43758 -1.41052 0
M  V30 14401 C 1361.5 2.23058 -2.65417 0
M  V30 14402 C 1360.56 1.90163 -3.84885 0
M  V30 14403 C 1359.79 3.10488 -4.34088 0
M  V30 14404 O 1360.01 4.23179 -3.8246 0
M  V30 14405 O 1358.95 2.92729 -5.25921 0
M  V30 14406 H 1362.77 0.519486 -2.99224 0
M  V30 14407 H 1360.36 0.190559 -1.4818 0
M  V30 14408 H 1362.24 2.97229 -2.98719 0
M  V30 14409 H 1360.92 2.66997 -1.83015 0
M  V30 14410 H 1359.82 1.13373 -3.56507 0
M  V30 14411 H 1361.16 1.51039 -4.68453 0
M  V30 14412 N 1362.81 1.55714 0.243056 0
M  V30 14413 C 1364.06 1.76927 0.96849 0
M  V30 14414 C 1364.37 0.594748 1.86339 0
M  V30 14415 O 1365.58 0.689981 2.62586 0
M  V30 14416 C 1364.03 3.13246 1.77214 0
M  V30 14417 C 1363.64 4.38358 0.92444 0
M  V30 14418 C 1365.38 3.43796 2.49007 0
M  V30 14419 C 1363.29 5.65708 1.7242 0
M  V30 14420 H 1362.22 0.659574 0.365346 0
M  V30 14421 H 1364.87 1.8214 0.223026 0
M  V30 14422 H 1363.25 3.02151 2.5597 0
M  V30 14423 H 1364.43 4.60452 0.178936 0
M  V30 14424 H 1362.74 4.15171 0.319653 0
M  V30 14425 H 1365.34 4.3616 3.09303 0
M  V30 14426 H 1365.68 2.65297 3.20817 0
M  V30 14427 H 1366.22 3.56124 1.77259 0
M  V30 14428 H 1362.96 6.47039 1.04978 0
M  V30 14429 H 1362.48 5.4771 2.44488 0
M  V30 14430 H 1364.15 6.05105 2.29036 0
M  V30 14431 N 1364.29 -0.50888 1.49158 0
M  V30 14432 C 1365.51 -1.29245 1.62205 0
M  V30 14433 C 1365.94 -1.85845 0.29041 0
M  V30 14434 O 1365.29 -1.6547 -0.740906 0
M  V30 14435 C 1365.34 -2.40415 2.68762 0
M  V30 14436 O 1364.45 -3.44048 2.27387 0
M  V30 14437 H 1363.79 -0.381898 0.543185 0
M  V30 14438 H 1366.32 -0.610076 1.95293 0
M  V30 14439 H 1366.33 -2.86295 2.90688 0
M  V30 14440 H 1365 -1.98584 3.65427 0
M  V30 14441 H 1363.58 -3.04141 2.1576 0
M  V30 14442 N 1365.76 -1.381 -0.759346 0
M  V30 14443 C 1367 -1.35402 -1.5312 0
M  V30 14444 C 1367.37 0.0574616 -1.91914 0
M  V30 14445 O 1368.57 0.20927 -2.67984 0
M  V30 14446 C 1366.84 -2.27793 -2.754 0
M  V30 14447 S 1368.4 -2.43061 -3.65331 0
M  V30 14448 H 1365.22 -0.480503 -0.524059 0
M  V30 14449 H 1367.82 -1.7397 -0.891886 0
M  V30 14450 H 1366.52 -3.29247 -2.45 0
M  V30 14451 H 1366.05 -1.90353 -3.44281 0
M  V30 14452 H 1368.07 -1.6504 -4.67949 0
M  V30 14453 N 1367.24 0.986894 -1.22875 0
M  V30 14454 C 1368.49 1.73071 -1.06856 0
M  V30 14455 C 1368.84 1.88376 0.39143 0
M  V30 14456 O 1368.14 1.42022 1.28609 0
M  V30 14457 C 1368.33 3.13283 -1.72012 0
M  V30 14458 C 1368.16 3.11652 -3.24196 0
M  V30 14459 C 1366.93 3.17207 -3.93329 0
M  V30 14460 C 1369.13 2.9533 -4.21052 0
M  V30 14461 N 1367.11 3.05393 -5.32549 0
M  V30 14462 C 1368.48 2.91609 -5.47142 0
M  V30 14463 C 1370.54 2.79766 -4.11868 0
M  V30 14464 C 1369.24 2.73917 -6.65103 0
M  V30 14465 C 1371.26 2.63437 -5.29486 0
M  V30 14466 C 1370.63 2.60408 -6.54498 0
M  V30 14467 H 1366.73 0.642696 -0.445495 0
M  V30 14468 H 1369.31 1.17158 -1.55506 0
M  V30 14469 H 1367.48 3.67427 -1.25904 0
M  V30 14470 H 1369.21 3.76261 -1.4903 0
M  V30 14471 H 1365.97 3.25129 -3.44366 0
M  V30 14472 H 1366.39 3.02779 -6.0552 0
M  V30 14473 H 1371.03 2.80903 -3.15996 0
M  V30 14474 H 1368.75 2.71526 -7.61117 0
M  V30 14475 H 1372.34 2.52367 -5.24216 0
M  V30 14476 H 1371.22 2.47928 -7.43977 0
M  V30 14477 N 1368.72 1.0394 1.18466 0
M  V30 14478 C 1369.95 0.761926 1.92897 0
M  V30 14479 C 1370.37 -0.674618 1.75586 0
M  V30 14480 O 1369.73 -1.46711 1.06515 0
M  V30 14481 C 1369.78 1.13152 3.42387 0
M  V30 14482 O 1368.88 0.256266 4.11603 0
M  V30 14483 H 1368.22 0.280527 0.601831 0
M  V30 14484 H 1370.75 1.3889 1.50235 0
M  V30 14485 H 1370.76 1.0929 3.9309 0
M  V30 14486 H 1369.44 2.17804 3.54308 0
M  V30 14487 H 1368.01 0.354392 3.71212 0
M  V30 14488 N 1370.2 -1.34667 0.818693 0
M  V30 14489 C 1371.44 -1.98708 0.405359 0
M  V30 14490 C 1371.78 -1.64767 -1.02788 0
M  V30 14491 O 1371.05 -0.91714 -1.71519 0
M  V30 14492 C 1371.34 -3.55016 0.602966 0
M  V30 14493 C 1371.19 -3.98713 2.08201 0
M  V30 14494 C 1372.51 -4.40085 0.0362489 0
M  V30 14495 H 1369.63 -0.721831 0.148756 0
M  V30 14496 H 1372.27 -1.59628 1.03047 0
M  V30 14497 H 1370.42 -3.88435 0.0708453 0
M  V30 14498 H 1372.09 -3.75647 2.67745 0
M  V30 14499 H 1370.33 -3.49179 2.57403 0
M  V30 14500 H 1371 -5.0751 2.17111 0
M  V30 14501 H 1373.48 -4.13195 0.490837 0
M  V30 14502 H 1372.36 -5.4852 0.204344 0
M  V30 14503 H 1372.62 -4.29243 -1.05845 0
M  V30 14504 N 1371.68 -0.573274 -1.46804 0
M  V30 14505 C 1372.59 0.168081 -2.33997 0
M  V30 14506 C 1373.6 0.895652 -1.49178 0
M  V30 14507 O 1374.78 0.860951 -1.8207 0
M  V30 14508 C 1371.84 1.17483 -3.26188 0
M  V30 14509 C 1370.9 0.452956 -4.26904 0
M  V30 14510 C 1370.14 1.41175 -5.1469 0
M  V30 14511 O 1370.36 2.64767 -5.05227 0
M  V30 14512 O 1369.29 0.927472 -5.94711 0
M  V30 14513 H 1373.12 -0.547576 -2.98723 0
M  V30 14514 H 1370.71 -0.333747 -1.45624 0
M  V30 14515 H 1372.59 1.75557 -3.8309 0
M  V30 14516 H 1371.26 1.87213 -2.6407 0
M  V30 14517 H 1370.17 -0.169383 -3.73716 0
M  V30 14518 H 1371.5 -0.203186 -4.9178 0
M  V30 14519 N 1373.15 1.5451 -0.310553 0
M  V30 14520 C 1374.08 2.26827 0.554243 0
M  V30 14521 C 1375.07 1.27133 1.13009 0
M  V30 14522 O 1376.25 1.55923 1.15765 0
M  V30 14523 C 1373.38 3.01626 1.7216 0
M  V30 14524 C 1372.33 4.08547 1.27566 0
M  V30 14525 C 1371.66 4.71115 2.52893 0
M  V30 14526 C 1372.96 5.20766 0.399955 0
M  V30 14527 H 1374.65 2.9936 -0.0489475 0
M  V30 14528 H 1372.2 1.43978 -0.0249817 0
M  V30 14529 H 1374.15 3.50942 2.33276 0
M  V30 14530 H 1372.88 2.26688 2.35118 0
M  V30 14531 H 1371.54 3.60096 0.687499 0
M  V30 14532 H 1371.18 3.92805 3.14186 0
M  V30 14533 H 1370.88 5.43331 2.23752 0
M  V30 14534 H 1372.41 5.23198 3.14796 0
M  V30 14535 H 1373.82 5.65918 0.917054 0
M  V30 14536 H 1372.22 5.9976 0.2019 0
M  V30 14537 H 1373.29 4.81508 -0.572537 0
M  V30 14538 O 1374.67 0.177526 1.60521 0
M  V30 14539 H 1375.36 -0.411086 1.89288 0
M  V30 END ATOM
M  V30 BEGIN BOND
M  V30 END BOND
M  V30 END CTAB
M  END
$$$$
