drugbank_target|Q14654 ATP-sensitive inward rectifier potassium channel 11 (DB00222; DB00308; DB00661; DB00922; DB01119; DB01154; DB11633)
 OpenBabel12092119373D

  0  0  0     0  0            999 V3000
M  V30 BEGIN CTAB
M  V30 COUNTS 6193 6261 0 0 0
M  V30 BEGIN ATOM
M  V30 1 H -0.908 1.98254 -0.117106 0
M  V30 2 N 0 1.576 0 0
M  V30 3 C 0.933 2.03868 1.02534 0
M  V30 4 C 1.911 0.928543 1.3348 0
M  V30 5 O 3.095 1.19667 1.45644 0
M  V30 6 C 0.222 2.43627 2.35294 0
M  V30 7 C -0.732 3.65373 2.2001 0
M  V30 8 S 0.101 5.13292 1.52614 0
M  V30 9 C 1.257 5.56322 2.86805 0
M  V30 10 H 1.49 2.90518 0.631377 0
M  V30 11 H -0.977 1.52953 0.210867 0
M  V30 12 H 0.981 2.67203 3.11629 0
M  V30 13 H -0.358 1.57376 2.7183 0
M  V30 14 H -1.165 3.90944 3.18086 0
M  V30 15 H -1.563 3.418 1.51819 0
M  V30 16 H 0.729 5.58782 3.83104 0
M  V30 17 H 1.672 6.56266 2.65933 0
M  V30 18 H 2.08 4.83886 2.90714 0
M  V30 19 N 1.4781 -0.272755 1.55222 0
M  V30 20 C 2.4081 -1.34136 1.91127 0
M  V30 21 C 3.3891 -1.51513 0.773168 0
M  V30 22 O 4.5741 -1.64552 1.03132 0
M  V30 23 C 1.7041 -2.70083 2.1834 0
M  V30 24 C 0.6581 -2.67437 3.34158 0
M  V30 25 C -0.0159 -4.06938 3.46851 0
M  V30 26 C 1.2841 -2.26686 4.70543 0
M  V30 27 H 2.9781 -1.04333 2.80633 0
M  V30 28 H 0.5241 -0.500454 1.35024 0
M  V30 29 H 2.4771 -3.44952 2.42046 0
M  V30 30 H 1.2011 -3.01469 1.25634 0
M  V30 31 H -0.1399 -1.95026 3.1042 0
M  V30 32 H -0.4919 -4.35547 2.51611 0
M  V30 33 H -0.7919 -4.06062 4.2472 0
M  V30 34 H 0.7321 -4.83545 3.72849 0
M  V30 35 H 2.1461 -2.91277 4.93792 0
M  V30 36 H 0.5431 -2.36971 5.5133 0
M  V30 37 H 1.6131 -1.21818 4.69349 0
M  V30 38 N 2.9562 -1.48159 -0.537278 0
M  V30 39 C 4.1812 -1.59707 -1.32319 0
M  V30 40 C 4.6062 -0.254859 -1.86365 0
M  V30 41 O 3.9642 0.772378 -1.64024 0
M  V30 42 C 4.0122 -2.6412 -2.45505 0
M  V30 43 O 3.1162 -2.20774 -3.48328 0
M  V30 44 H 2.4572 -0.535791 -0.392204 0
M  V30 45 H 4.9872 -1.94092 -0.647268 0
M  V30 46 H 4.9972 -2.85166 -2.91795 0
M  V30 47 H 3.6722 -3.61567 -2.05528 0
M  V30 48 H 2.2492 -2.09911 -3.08207 0
M  V30 49 N 4.4343 0.785586 -1.36625 0
M  V30 50 C 5.8503 1.08419 -1.17122 0
M  V30 51 C 6.0503 2.015 0.00208491 0
M  V30 52 O 5.1063 2.43551 0.666278 0
M  V30 53 C 6.4193 1.69498 -2.48377 0
M  V30 54 C 7.9673 1.81821 -2.54775 0
M  V30 55 C 8.4423 2.46315 -3.86126 0
M  V30 56 N 9.9333 2.53779 -3.87492 0
M  V30 57 C 10.6683 3.045 -4.85868 0
M  V30 58 N 10.1643 3.55499 -5.94637 0
M  V30 59 N 11.9573 3.03247 -4.73284 0
M  V30 60 H 4.1083 0.167264 -2.1174 0
M  V30 61 H 6.3713 0.13682 -0.938075 0
M  V30 62 H 6.0773 1.08571 -3.34522 0
M  V30 63 H 5.9513 2.6896 -2.64462 0
M  V30 64 H 8.3383 2.41884 -1.69045 0
M  V30 65 H 8.4193 0.811532 -2.42586 0
M  V30 66 H 8.0633 1.86895 -4.72263 0
M  V30 67 H 7.9933 3.47561 -3.95612 0
M  V30 68 H 10.4843 2.17672 -3.08913 0
M  V30 69 H 10.7973 3.92562 -6.65669 0
M  V30 70 H 9.1423 3.5364 -5.98301 0
M  V30 71 H 12.3333 2.62696 -3.87438 0
M  V30 72 H 12.5063 3.42467 -5.50109 0
M  V30 73 N 5.9124 1.20967 1.01018 0
M  V30 74 C 6.8594 0.964281 2.09691 0
M  V30 75 C 7.8294 -0.107853 1.65749 0
M  V30 76 O 9.0144 0.0381987 1.90762 0
M  V30 77 C 6.1544 0.52943 3.41015 0
M  V30 78 C 5.2674 1.67043 3.98398 0
M  V30 79 C 4.4024 1.18525 5.17808 0
M  V30 80 C 3.4414 2.29892 5.67288 0
M  V30 81 N 2.5784 1.82546 6.77954 0
M  V30 82 H 7.4184 1.89463 2.30017 0
M  V30 83 H 4.9554 0.944289 1.1279 0
M  V30 84 H 6.9134 0.258588 4.16398 0
M  V30 85 H 5.5434 -0.363919 3.20742 0
M  V30 86 H 4.5954 2.05603 3.20049 0
M  V30 87 H 5.9074 2.50877 4.31117 0
M  V30 88 H 5.0614 0.870762 6.00419 0
M  V30 89 H 3.8004 0.316887 4.86669 0
M  V30 90 H 2.8054 2.6215 4.83278 0
M  V30 91 H 4.0304 3.17216 6.00459 0
M  V30 92 H 1.9764 0.980454 6.48632 0
M  V30 93 H 1.8934 2.59956 7.09901 0
M  V30 94 H 3.1614 1.54115 7.64113 0
M  V30 95 N 7.3905 -1.2043 1.01659 0
M  V30 96 C 8.6385 -1.89423 0.704522 0
M  V30 97 C 8.9595 -1.79231 -0.768197 0
M  V30 98 O 8.2295 -1.1947 -1.55254 0
M  V30 99 H 6.8095 -0.701178 0.257602 0
M  V30 100 H 9.4715 -1.4626 1.28818 0
M  V30 101 H 8.5675 -2.96052 0.987916 0
M  V30 102 N 8.8686 -0.792821 -1.36206 0
M  V30 103 C 10.1176 -0.363353 -1.984 0
M  V30 104 C 10.4306 1.07172 -1.63626 0
M  V30 105 O 11.6366 1.60362 -2.19081 0
M  V30 106 C 10.0926 -0.59872 -3.54885 0
M  V30 107 C 9.7006 -2.04543 -3.9858 0
M  V30 108 C 11.4446 -0.233926 -4.23855 0
M  V30 109 C 9.3516 -2.22727 -5.47856 0
M  V30 110 H 8.2816 -0.13212 -0.742334 0
M  V30 111 H 10.9326 -0.974935 -1.55458 0
M  V30 112 H 9.3146 0.0826222 -3.95914 0
M  V30 113 H 10.4886 -2.76345 -3.68741 0
M  V30 114 H 8.8036 -2.36879 -3.42458 0
M  V30 115 H 11.4006 -0.348027 -5.33566 0
M  V30 116 H 11.7436 0.818351 -4.08177 0
M  V30 117 H 12.2766 -0.868639 -3.882 0
M  V30 118 H 9.0156 -3.2635 -5.68486 0
M  V30 119 H 8.5356 -1.55434 -5.7931 0
M  V30 120 H 10.2146 -2.03607 -6.14128 0
M  V30 121 N 10.3467 1.47872 -0.545128 0
M  V30 122 C 11.5957 2.01695 -0.0145033 0
M  V30 123 C 11.9087 1.42609 1.33873 0
M  V30 124 O 13.1147 1.88021 1.95858 0
M  V30 125 C 11.5707 3.59892 0.0245068 0
M  V30 126 C 11.1787 4.27966 -1.32475 0
M  V30 127 C 12.9227 4.21507 0.50316 0
M  V30 128 C 10.8297 5.78136 -1.2455 0
M  V30 129 H 9.7597 0.753998 -0.00165172 0
M  V30 130 H 12.4107 1.69985 -0.691175 0
M  V30 131 H 10.7927 3.88509 0.766575 0
M  V30 132 H 11.9667 4.11003 -2.08357 0
M  V30 133 H 10.2817 3.78286 -1.74036 0
M  V30 134 H 12.8787 5.31538 0.580656 0
M  V30 135 H 13.2217 3.87855 1.51243 0
M  V30 136 H 13.7547 3.97376 -0.183681 0
M  V30 137 H 10.4937 6.16388 -2.23039 0
M  V30 138 H 10.0137 5.97469 -0.528282 0
M  V30 139 H 11.6927 6.40099 -0.942488 0
M  V30 140 N 11.8248 0.280983 1.55075 0
M  V30 141 C 13.2358 -0.215629 1.85451 0
M  V30 142 C 13.5868 -1.54991 1.203 0
M  V30 143 O 12.7118 -2.10699 0.493435 0
M  V30 144 C 13.3068 -0.398026 3.36454 0
M  V30 145 C 11.8658 -0.838866 3.66933 0
M  V30 146 C 11.0128 0.064458 2.77225 0
M  V30 147 H 13.9638 0.502601 1.50531 0
M  V30 148 H 13.9848 -1.23569 3.59876 0
M  V30 149 H 13.4968 0.573241 3.83843 0
M  V30 150 H 11.5978 -1.8214 3.25048 0
M  V30 151 H 11.7108 -0.672123 4.74362 0
M  V30 152 H 10.0748 -0.452863 2.50642 0
M  V30 153 H 10.8578 1.03172 3.2743 0
M  V30 154 N 13.3029 -1.57598 0.00835791 0
M  V30 155 C 14.2129 -2.12385 -0.996487 0
M  V30 156 C 15.2289 -1.07108 -1.37127 0
M  V30 157 O 16.4049 -1.39055 -1.4569 0
M  V30 158 C 13.4699 -2.62314 -2.26699 0
M  V30 159 C 12.5309 -3.82225 -1.95456 0
M  V30 160 C 11.7639 -4.29763 -3.16449 0
M  V30 161 O 11.9869 -3.76584 -4.28416 0
M  V30 162 O 10.9209 -5.21832 -2.99958 0
M  V30 163 H 14.7469 -2.98479 -0.560725 0
M  V30 164 H 12.3319 -1.47903 -0.210987 0
M  V30 165 H 14.2139 -2.94589 -3.01322 0
M  V30 166 H 12.8889 -1.79313 -2.69497 0
M  V30 167 H 11.7959 -3.54909 -1.18282 0
M  V30 168 H 13.1289 -4.66324 -1.57489 0
M  V30 169 N 14.781 0.264519 -1.55364 0
M  V30 170 C 15.691 1.34902 -1.91934 0
M  V30 171 C 16.707 1.53595 -0.817593 0
M  V30 172 O 17.883 1.67558 -1.11742 0
M  V30 173 C 14.948 2.68676 -2.19121 0
M  V30 174 C 14.009 2.58657 -3.4263 0
M  V30 175 C 13.242 3.86051 -3.68511 0
M  V30 176 O 13.465 4.87126 -2.96757 0
M  V30 177 O 12.399 3.85744 -4.62045 0
M  V30 178 H 16.225 1.06883 -2.8427 0
M  V30 179 H 13.81 0.463775 -1.42019 0
M  V30 180 H 15.692 3.47759 -2.37995 0
M  V30 181 H 14.367 2.96463 -1.29966 0
M  V30 182 H 13.274 1.7792 -3.29082 0
M  V30 183 H 14.607 2.35818 -4.32031 0
M  V30 184 N 16.2591 1.48442 0.529413 0
M  V30 185 C 17.4891 1.59919 1.30804 0
M  V30 186 C 17.8971 0.258792 1.87422 0
M  V30 187 O 17.2401 -0.762096 1.67146 0
M  V30 188 C 17.3021 2.58693 2.49636 0
M  V30 189 C 16.9661 4.03745 2.14101 0
M  V30 190 C 17.9631 4.9141 1.6974 0
M  V30 191 C 15.6481 4.49285 2.24607 0
M  V30 192 C 17.6421 6.22645 1.36351 0
M  V30 193 C 15.3291 5.8054 1.9083 0
M  V30 194 C 16.3271 6.67043 1.46773 0
M  V30 195 O 16.0151 7.95856 1.1344 0
M  V30 196 H 15.7471 0.541981 0.404021 0
M  V30 197 H 18.3011 1.95 0.645309 0
M  V30 198 H 16.5311 2.18734 3.18892 0
M  V30 199 H 18.2201 2.59999 3.11698 0
M  V30 200 H 18.9861 4.57465 1.61094 0
M  V30 201 H 14.8651 3.82142 2.57854 0
M  V30 202 H 18.4091 6.90119 1.01891 0
M  V30 203 H 14.3061 6.14022 1.99117 0
M  V30 204 H 15.0741 8.08613 1.26832 0
M  V30 205 N 17.7372 -0.778329 1.37039 0
M  V30 206 C 18.9832 -1.53892 1.32079 0
M  V30 207 C 19.3162 -1.9396 -0.0965386 0
M  V30 208 O 18.5912 -1.63568 -1.05242 0
M  V30 209 C 18.8742 -2.80847 2.25382 0
M  V30 210 C 18.7272 -2.47076 3.75864 0
M  V30 211 C 20.0462 -3.82741 2.1725 0
M  V30 212 H 17.1652 -0.558303 0.48111 0
M  V30 213 H 19.8072 -0.893397 1.67685 0
M  V30 214 H 17.9572 -3.35931 1.95148 0
M  V30 215 H 19.6292 -1.97957 4.16666 0
M  V30 216 H 17.8722 -1.79863 3.94755 0
M  V30 217 H 18.5432 -3.37798 4.36574 0
M  V30 218 H 21.0192 -3.37133 2.43887 0
M  V30 219 H 19.8952 -4.69303 2.84686 0
M  V30 220 H 20.1562 -4.2652 1.16331 0
M  V30 221 N 19.2153 -1.21501 -1.00376 0
M  V30 222 C 20.1453 -0.999478 -2.11028 0
M  V30 223 C 21.1263 0.0759671 -1.6993 0
M  V30 224 O 22.3113 -0.0841106 -1.94018 0
M  V30 225 C 19.4413 -0.564709 -3.42678 0
M  V30 226 C 18.3953 -1.58486 -3.97576 0
M  V30 227 C 17.7213 -1.00628 -5.25146 0
M  V30 228 C 19.0213 -2.97204 -4.29496 0
M  V30 229 H 20.7153 -1.92495 -2.29317 0
M  V30 230 H 18.2613 -0.92693 -1.102 0
M  V30 231 H 20.2143 -0.401091 -4.19487 0
M  V30 232 H 18.9383 0.396411 -3.24185 0
M  V30 233 H 17.5973 -1.73606 -3.22888 0
M  V30 234 H 17.2453 -0.0368439 -5.02987 0
M  V30 235 H 16.9453 -1.68771 -5.62841 0
M  V30 236 H 18.4693 -0.854015 -6.04598 0
M  V30 237 H 19.8833 -2.8552 -4.97143 0
M  V30 238 H 18.2803 -3.62372 -4.78338 0
M  V30 239 H 19.3503 -3.47956 -3.3772 0
M  V30 240 N 20.6934 1.19889 -1.02296 0
M  V30 241 C 21.9214 1.9339 -0.735399 0
M  V30 242 C 22.3364 1.75148 0.704887 0
M  V30 243 O 21.6934 1.06954 1.47875 0
M  V30 244 C 21.7444 3.45313 -1.06962 0
M  V30 245 O 21.4654 3.62964 -2.45334 0
M  V30 246 C 22.9664 4.35948 -0.804021 0
M  V30 247 H 20.1864 0.61448 -0.269546 0
M  V30 248 H 22.7304 1.522 -1.36585 0
M  V30 249 H 20.8854 3.84359 -0.484455 0
M  V30 250 H 21.2994 4.56886 -2.57595 0
M  V30 251 H 22.7734 5.41174 -1.0879 0
M  V30 252 H 23.2504 4.3842 0.261691 0
M  V30 253 H 23.8564 4.02574 -1.37164 0
M  V30 254 N 22.1715 0.800033 1.35784 0
M  V30 255 C 23.5875 0.482977 1.52117 0
M  V30 256 C 23.7875 -0.996948 1.75109 0
M  V30 257 O 22.8435 -1.78216 1.78872 0
M  V30 258 C 24.1565 1.32264 2.70049 0
M  V30 259 C 25.7045 1.31742 2.83924 0
M  V30 260 C 26.1795 2.14106 4.04874 0
M  V30 261 N 27.6705 2.11607 4.12039 0
M  V30 262 C 28.4055 2.72099 5.04727 0
M  V30 263 N 27.9015 3.41492 6.02789 0
M  V30 264 N 29.6945 2.61776 4.97423 0
M  V30 265 H 21.8455 1.75856 1.19115 0
M  V30 266 H 24.1085 0.748122 0.582252 0
M  V30 267 H 23.8145 2.37261 2.59616 0
M  V30 268 H 23.6885 0.971303 3.6448 0
M  V30 269 H 26.0755 0.275333 2.93813 0
M  V30 270 H 26.1565 1.70859 1.9037 0
M  V30 271 H 25.8005 3.18351 3.95746 0
M  V30 272 H 25.7305 1.72353 4.97596 0
M  V30 273 H 28.2215 1.61112 3.41835 0
M  V30 274 H 28.5345 3.84953 6.70098 0
M  V30 275 H 26.8795 3.45596 6.02983 0
M  V30 276 H 30.0705 2.07157 4.19766 0
M  V30 277 H 30.2435 3.0921 5.69468 0
M  V30 278 N 23.6496 -1.47581 0.552962 0
M  V30 279 C 24.5796 -2.32762 -0.185451 0
M  V30 280 C 25.5606 -1.43527 -0.912905 0
M  V30 281 O 26.7456 -1.72388 -0.894201 0
M  V30 282 C 23.8756 -3.25219 -1.21859 0
M  V30 283 C 22.8296 -4.23661 -0.607864 0
M  V30 284 C 22.1556 -5.05413 -1.74533 0
M  V30 285 C 23.4556 -5.20481 0.435582 0
M  V30 286 H 25.1496 -2.94749 0.525684 0
M  V30 287 H 22.6956 -1.41738 0.254251 0
M  V30 288 H 24.6486 -3.8365 -1.7433 0
M  V30 289 H 23.3726 -2.61279 -1.95961 0
M  V30 290 H 22.0316 -3.66451 -0.104489 0
M  V30 291 H 21.6796 -4.3788 -2.47529 0
M  V30 292 H 21.3796 -5.72059 -1.34249 0
M  V30 293 H 22.9036 -5.66701 -2.27338 0
M  V30 294 H 24.3176 -5.733 -0.00290157 0
M  V30 295 H 22.7146 -5.95305 0.757067 0
M  V30 296 H 23.7846 -4.66217 1.33303 0
M  V30 297 N 25.1277 -0.289203 -1.54924 0
M  V30 298 C 26.0907 0.579144 -2.21762 0
M  V30 299 C 27.0907 1.07047 -1.1999 0
M  V30 300 O 28.2807 0.968384 -1.44803 0
M  V30 301 C 25.4127 1.80055 -2.8947 0
M  V30 302 H 26.6057 -0.00464908 -2.999 0
M  V30 303 H 24.1587 -0.0399306 -1.56249 0
M  V30 304 H 24.8937 2.42449 -2.15381 0
M  V30 305 H 24.6787 1.45602 -3.64064 0
M  V30 306 H 26.1687 2.41773 -3.40493 0
M  V30 307 N 26.6058 1.57591 -0.0167156 0
M  V30 308 C 27.5158 2.1291 0.98521 0
M  V30 309 C 28.5318 1.07834 1.36557 0
M  V30 310 O 29.7078 1.39826 1.44951 0
M  V30 311 C 26.7728 2.63512 2.25305 0
M  V30 312 C 25.8338 3.83256 1.93426 0
M  V30 313 C 25.0668 4.31435 3.14165 0
M  V30 314 O 25.2898 3.78851 4.26413 0
M  V30 315 O 24.2238 5.23416 2.97186 0
M  V30 316 H 28.0498 2.98772 0.544888 0
M  V30 317 H 25.6348 1.48012 0.203141 0
M  V30 318 H 27.5168 2.96183 2.99756 0
M  V30 319 H 26.1918 1.8074 2.68542 0
M  V30 320 H 25.0988 3.55531 1.16398 0
M  V30 321 H 26.4318 4.67153 1.55013 0
M  V30 322 N 28.0839 -0.256276 1.55502 0
M  V30 323 C 29.3609 -1.00789 1.67633 0
M  V30 324 C 29.7409 -2.03706 0.553826 0
M  V30 325 O 29.0889 -2.24145 -0.443969 0
M  V30 326 C 29.2989 -1.64968 3.07549 0
M  V30 327 C 30.6469 -2.15505 3.65845 0
M  V30 328 O 31.6709 -1.74925 3.1029 0
M  V30 329 O 30.5299 -2.89986 4.63217 0
M  V30 330 H 27.6239 -0.468553 0.681459 0
M  V30 331 H 30.1699 -0.250806 1.67836 0
M  V30 332 H 28.9419 -0.904785 3.80696 0
M  V30 333 H 28.5649 -2.47321 3.11317 0
M  V30 334 N 29.562 -1.4872 -0.521534 0
M  V30 335 C 30.973 -1.50607 -1.10337 0
M  V30 336 C 31.324 -0.280612 -1.94183 0
M  V30 337 O 30.449 0.611507 -2.0758 0
M  V30 338 C 31.044 -2.72903 -2.00772 0
M  V30 339 C 29.603 -2.77634 -2.54158 0
M  V30 340 C 28.75 -2.44241 -1.31307 0
M  V30 341 H 31.701 -1.55714 -0.306388 0
M  V30 342 H 31.722 -2.519 -2.85178 0
M  V30 343 H 31.234 -3.62077 -1.39721 0
M  V30 344 H 29.335 -1.92689 -3.18907 0
M  V30 345 H 29.448 -3.79283 -2.92714 0
M  V30 346 H 27.812 -1.95577 -1.63161 0
M  V30 347 H 28.595 -3.35666 -0.719943 0
M  V30 348 N 31.0401 0.771051 -1.3745 0
M  V30 349 C 32.0031 1.86598 -1.33093 0
M  V30 350 C 33.0031 1.59076 -0.234845 0
M  V30 351 O 34.1931 1.67145 -0.490732 0
M  V30 352 C 31.3251 3.23747 -1.06773 0
M  V30 353 H 32.5181 1.91873 -2.30488 0
M  V30 354 H 30.0711 0.970876 -1.2249 0
M  V30 355 H 30.8061 3.24148 -0.099129 0
M  V30 356 H 30.5911 3.45115 -1.86112 0
M  V30 357 H 32.0811 4.03824 -1.06377 0
M  V30 358 N 32.5182 1.22032 0.997298 0
M  V30 359 C 33.4282 1.00271 2.12092 0
M  V30 360 C 34.4442 -0.047621 1.73935 0
M  V30 361 O 35.6202 0.144136 2.00884 0
M  V30 362 C 32.6852 0.578449 3.4184 0
M  V30 363 C 31.7462 1.70189 3.94125 0
M  V30 364 C 30.9792 1.29778 5.17681 0
M  V30 365 O 31.2022 0.174676 5.70132 0
M  V30 366 O 30.1362 2.11261 5.63607 0
M  V30 367 H 33.9622 1.94398 2.3333 0
M  V30 368 H 31.5472 1.00587 1.10465 0
M  V30 369 H 33.4292 0.351998 4.19927 0
M  V30 370 H 32.1042 -0.334019 3.21972 0
M  V30 371 H 31.0112 1.98282 3.1723 0
M  V30 372 H 32.3442 2.59206 4.18417 0
M  V30 373 N 33.9963 -1.19345 1.0293 0
M  V30 374 C 35.4073 -1.70725 0.755633 0
M  V30 375 C 35.7583 -1.82326 -0.724676 0
M  V30 376 O 34.8833 -1.49471 -1.56484 0
M  V30 377 C 35.4783 -3.10084 1.36503 0
M  V30 378 C 34.0373 -3.58723 1.13994 0
M  V30 379 C 33.1843 -2.35577 1.46283 0
M  V30 380 H 36.1353 -1.0418 1.19718 0
M  V30 381 H 36.1563 -3.72787 0.762217 0
M  V30 382 H 35.6683 -3.01609 2.44241 0
M  V30 383 H 33.7693 -3.72512 0.0807901 0
M  V30 384 H 33.8823 -4.42816 1.82894 0
M  V30 385 H 32.2463 -2.38935 0.88217 0
M  V30 386 H 33.0293 -2.29731 2.55105 0
M  V30 387 N 35.4744 -0.807222 -1.35358 0
M  V30 388 C 36.8904 -0.491038 -1.51858 0
M  V30 389 C 37.0904 0.987648 -1.75635 0
M  V30 390 O 36.1464 1.77265 -1.79815 0
M  V30 391 C 37.4594 -1.33695 -2.69344 0
M  V30 392 C 39.0074 -1.33246 -2.83222 0
M  V30 393 C 39.4824 -2.1625 -4.03733 0
M  V30 394 N 40.9734 -2.1379 -4.10911 0
M  V30 395 C 41.7084 -2.74772 -5.03277 0
M  V30 396 N 41.2044 -3.44684 -6.0097 0
M  V30 397 N 42.9974 -2.6441 -4.96028 0
M  V30 398 H 35.1484 -1.76485 -1.18181 0
M  V30 399 H 37.4114 -0.751199 -0.578276 0
M  V30 400 H 37.1174 -2.38634 -2.58354 0
M  V30 401 H 36.9914 -0.990618 -3.6396 0
M  V30 402 H 39.3784 -0.290911 -2.93663 0
M  V30 403 H 39.4594 -1.71866 -1.89461 0
M  V30 404 H 39.1034 -3.20445 -3.94052 0
M  V30 405 H 39.0334 -1.74989 -4.96675 0
M  V30 406 H 41.5244 -1.62923 -3.40976 0
M  V30 407 H 41.8374 -3.88501 -6.68047 0
M  V30 408 H 40.1824 -3.48788 -6.01142 0
M  V30 409 H 43.3734 -2.0938 -4.18662 0
M  V30 410 H 43.5464 -3.12225 -5.6782 0
M  V30 411 N 36.9525 1.47285 -0.560781 0
M  V30 412 C 38.1825 2.06555 -0.0429638 0
M  V30 413 C 38.5905 1.41339 1.25777 0
M  V30 414 O 37.9335 0.505182 1.76617 0
M  V30 415 C 37.9955 3.58827 0.219887 0
M  V30 416 C 37.6595 4.46105 -0.991944 0
M  V30 417 C 38.6565 4.84 -1.89843 0
M  V30 418 C 36.3415 4.87567 -1.20762 0
M  V30 419 C 38.3355 5.6216 -3.00425 0
M  V30 420 C 36.0225 5.65491 -2.31653 0
M  V30 421 C 37.0205 6.02699 -3.21315 0
M  V30 422 O 36.7085 6.79052 -4.30283 0
M  V30 423 H 36.4405 0.674537 -0.0444468 0
M  V30 424 H 38.9945 1.90225 -0.774818 0
M  V30 425 H 37.2245 3.73383 1.00609 0
M  V30 426 H 38.9135 4.00103 0.683522 0
M  V30 427 H 39.6795 4.52564 -1.74387 0
M  V30 428 H 35.5585 4.5807 -0.518893 0
M  V30 429 H 39.1025 5.9112 -3.70436 0
M  V30 430 H 34.9995 5.9634 -2.47081 0
M  V30 431 H 35.7675 6.9745 -4.28376 0
M  V30 432 N 38.4306 0.297415 1.54768 0
M  V30 433 C 39.8466 -0.0560823 1.59501 0
M  V30 434 C 40.0466 -1.52725 1.31444 0
M  V30 435 O 39.1026 -2.27947 1.08611 0
M  V30 436 C 40.4156 0.338631 2.98787 0
M  V30 437 C 41.9636 0.287097 3.11681 0
M  V30 438 C 42.4386 0.656579 4.53269 0
M  V30 439 N 43.9296 0.608977 4.59179 0
M  V30 440 C 44.6646 0.867385 5.66802 0
M  V30 441 N 44.1606 1.19157 6.82476 0
M  V30 442 N 45.9536 0.794687 5.56454 0
M  V30 443 H 38.1046 1.25624 1.71267 0
M  V30 444 H 40.3676 0.509057 0.799728 0
M  V30 445 H 40.0736 1.36263 3.2423 0
M  V30 446 H 39.9476 -0.309508 3.75928 0
M  V30 447 H 42.3346 -0.727649 2.85988 0
M  V30 448 H 42.4156 0.969809 2.36703 0
M  V30 449 H 42.0596 1.66912 4.7969 0
M  V30 450 H 41.9896 -0.0481649 5.26578 0
M  V30 451 H 44.4806 0.369198 3.76092 0
M  V30 452 H 44.7936 1.37482 7.60473 0
M  V30 453 H 43.1386 1.22958 6.84037 0
M  V30 454 H 46.3296 0.541098 4.64962 0
M  V30 455 H 46.5026 0.999445 6.40246 0
M  V30 456 N 39.9087 -1.5758 0.0250728 0
M  V30 457 C 40.8717 -2.08896 -0.943139 0
M  V30 458 C 41.8717 -1.00321 -1.25668 0
M  V30 459 O 43.0617 -1.26495 -1.19769 0
M  V30 460 C 40.1937 -2.55143 -2.26086 0
M  V30 461 H 41.3867 -2.95723 -0.498775 0
M  V30 462 H 38.9397 -1.54703 -0.222888 0
M  V30 463 H 39.6747 -1.71633 -2.75159 0
M  V30 464 H 39.4597 -3.34461 -2.04641 0
M  V30 465 H 40.9497 -2.95083 -2.95492 0
M  V30 466 N 41.3868 0.248026 -1.55636 0
M  V30 467 C 42.8028 0.596483 -1.48035 0
M  V30 468 C 43.0028 1.88386 -0.715039 0
M  V30 469 O 42.0588 2.51319 -0.243944 0
M  V30 470 C 43.3718 0.700258 -2.92433 0
M  V30 471 C 44.9198 0.792659 -3.02797 0
M  V30 472 C 45.3948 0.928005 -4.485 0
M  V30 473 N 46.8858 0.992903 -4.52433 0
M  V30 474 C 47.6208 1.11687 -5.62418 0
M  V30 475 N 47.1168 1.20645 -6.82214 0
M  V30 476 N 48.9098 1.14994 -5.50212 0
M  V30 477 H 41.0608 -0.597109 -2.03834 0
M  V30 478 H 43.3238 -0.205925 -0.925364 0
M  V30 479 H 43.0298 -0.175658 -3.51261 0
M  V30 480 H 42.9038 1.57255 -3.42857 0
M  V30 481 H 45.2908 1.65903 -2.4405 0
M  V30 482 H 45.3718 -0.104762 -2.55585 0
M  V30 483 H 45.0158 0.0661971 -5.07857 0
M  V30 484 H 44.9458 1.84045 -4.93391 0
M  V30 485 H 47.4368 0.935064 -3.66149 0
M  V30 486 H 47.7498 1.30008 -7.61786 0
M  V30 487 H 46.0948 1.17605 -6.84977 0
M  V30 488 H 49.2858 1.07643 -4.55555 0
M  V30 489 H 49.4588 1.24311 -6.35965 0
M  V30 490 N 42.8649 1.48995 0.513639 0
M  V30 491 C 43.7969 1.60836 1.63293 0
M  V30 492 C 44.8099 0.491701 1.55197 0
M  V30 493 O 45.9989 0.763238 1.6136 0
M  V30 494 C 43.0989 1.53731 3.02027 0
M  V30 495 C 42.2719 2.80715 3.35437 0
M  V30 496 C 41.3309 2.66837 4.53525 0
M  V30 497 O 40.3569 3.40753 4.55934 0
M  V30 498 N 41.5589 1.77539 5.52684 0
M  V30 499 H 44.3239 2.57366 1.53566 0
M  V30 500 H 41.8849 1.45925 0.701259 0
M  V30 501 H 43.8769 1.42118 3.78926 0
M  V30 502 H 42.4469 0.651092 3.05744 0
M  V30 503 H 41.6669 3.06772 2.47557 0
M  V30 504 H 42.9549 3.64927 3.54551 0
M  V30 505 H 42.3529 1.16719 5.53528 0
M  V30 506 H 40.9099 1.71856 6.28736 0
M  V30 507 N 44.343 -0.763751 1.37857 0
M  V30 508 C 45.759 -1.06542 1.18832 0
M  V30 509 C 45.959 -2.01478 0.0299722 0
M  V30 510 O 45.015 -2.4458 -0.627447 0
M  V30 511 C 46.328 -1.65525 2.51042 0
M  V30 512 C 47.876 -1.77745 2.57635 0
M  V30 513 C 48.351 -2.4014 3.89996 0
M  V30 514 N 49.842 -2.47582 3.91481 0
M  V30 515 C 50.577 -2.96732 4.9065 0
M  V30 516 N 50.073 -3.45993 6.00217 0
M  V30 517 N 51.866 -2.95679 4.78048 0
M  V30 518 H 44.017 -0.133556 2.1198 0
M  V30 519 H 46.28 -0.121879 0.940133 0
M  V30 520 H 45.986 -1.03236 3.36207 0
M  V30 521 H 45.86 -2.64719 2.68707 0
M  V30 522 H 48.247 -2.39164 1.72872 0
M  V30 523 H 48.328 -0.772836 2.43846 0
M  V30 524 H 47.972 -1.79358 4.75177 0
M  V30 525 H 47.902 -3.41223 4.01092 0
M  V30 526 H 50.393 -2.1273 3.12337 0
M  V30 527 H 50.706 -3.81922 6.7183 0
M  V30 528 H 49.051 -3.44077 6.03851 0
M  V30 529 H 52.242 -2.56499 3.91568 0
M  V30 530 H 52.415 -3.33672 5.55488 0
M  V30 531 N 45.8211 -1.22559 -0.990812 0
M  V30 532 C 47.2371 -0.985996 -1.255 0
M  V30 533 C 47.4371 0.319173 -1.98956 0
M  V30 534 O 46.4931 1.04127 -2.3003 0
M  V30 535 C 47.8061 -2.18607 -2.06474 0
M  V30 536 C 49.3541 -2.22985 -2.19651 0
M  V30 537 C 49.8291 -3.4255 -3.04012 0
M  V30 538 N 51.3201 -3.42725 -3.11599 0
M  V30 539 C 52.0551 -4.31892 -3.7717 0
M  V30 540 N 51.5511 -5.31279 -4.44651 0
M  V30 541 N 53.3441 -4.19662 -3.73952 0
M  V30 542 H 45.4951 -2.06469 -0.49841 0
M  V30 543 H 47.7581 -0.904853 -0.282747 0
M  V30 544 H 47.4641 -3.13267 -1.59865 0
M  V30 545 H 47.3381 -2.18838 -3.07229 0
M  V30 546 H 49.7251 -1.28871 -2.65474 0
M  V30 547 H 49.8061 -2.26791 -1.18319 0
M  V30 548 H 49.4501 -4.36965 -2.58889 0
M  V30 549 H 49.3801 -3.35984 -4.0549 0
M  V30 550 H 51.8711 -2.70807 -2.63575 0
M  V30 551 H 52.1841 -5.95593 -4.92431 0
M  V30 552 H 50.5291 -5.3519 -4.43392 0
M  V30 553 H 53.7201 -3.41268 -3.20396 0
M  V30 554 H 53.8931 -4.89358 -4.24774 0
M  V30 555 N 47.2992 1.18797 -1.03562 0
M  V30 556 C 48.2622 2.20464 -0.626769 0
M  V30 557 C 49.2622 1.57721 0.313173 0
M  V30 558 O 50.4522 1.73917 0.0992615 0
M  V30 559 C 47.5842 3.40802 0.0818498 0
M  V30 560 H 48.7772 2.58149 -1.5264 0
M  V30 561 H 46.3302 1.32593 -0.827578 0
M  V30 562 H 47.0652 3.08642 0.995518 0
M  V30 563 H 46.8502 3.8758 -0.593652 0
M  V30 564 H 48.3402 4.16092 0.354584 0
M  V30 565 N 48.7773 0.814389 1.34928 0
M  V30 566 C 50.1933 0.499084 1.51596 0
M  V30 567 C 50.3933 -0.978319 1.76157 0
M  V30 568 O 49.4493 -1.76309 1.80752 0
M  V30 569 C 50.7623 1.35121 2.68631 0
M  V30 570 C 52.3103 1.34746 2.82511 0
M  V30 571 C 52.7853 2.18388 4.0258 0
M  V30 572 N 54.2763 2.15966 4.09772 0
M  V30 573 C 55.0113 2.77437 5.01813 0
M  V30 574 N 54.5073 3.47866 5.99134 0
M  V30 575 N 56.3003 2.67037 4.94619 0
M  V30 576 H 48.4513 1.7711 1.17243 0
M  V30 577 H 50.7143 0.754256 0.574284 0
M  V30 578 H 50.4203 2.40001 2.57085 0
M  V30 579 H 50.2943 1.00991 3.63429 0
M  V30 580 H 52.6813 0.30648 2.93504 0
M  V30 581 H 52.7623 1.72869 1.88547 0
M  V30 582 H 52.4063 3.2253 3.92347 0
M  V30 583 H 52.3363 1.77621 4.9574 0
M  V30 584 H 54.8273 1.64729 3.40107 0
M  V30 585 H 55.1403 3.92038 6.65977 0
M  V30 586 H 53.4853 3.51972 5.99284 0
M  V30 587 H 56.6763 2.11597 4.17546 0
M  V30 588 H 56.8493 3.15232 5.66156 0
M  V30 589 N 50.2554 -1.46986 0.568584 0
M  V30 590 C 51.5024 -2.02441 0.0487986 0
M  V30 591 C 51.8304 -1.44169 -1.30559 0
M  V30 592 O 51.0854 -0.591213 -1.86556 0
M  V30 593 C 51.3844 -3.57306 -0.081836 0
M  V30 594 C 51.0504 -4.34552 1.20313 0
M  V30 595 C 49.7124 -4.55376 1.5552 0
M  V30 596 C 52.0644 -4.79016 2.05411 0
M  V30 597 C 49.3924 -5.17913 2.7565 0
M  V30 598 C 51.7444 -5.42879 3.24754 0
M  V30 599 C 50.4084 -5.61933 3.60261 0
M  V30 600 H 49.6784 -0.740785 0.0178567 0
M  V30 601 H 52.3254 -1.76525 0.742384 0
M  V30 602 H 50.6304 -3.8228 -0.858463 0
M  V30 603 H 52.3274 -3.97876 -0.499546 0
M  V30 604 H 48.9174 -4.18631 0.919014 0
M  V30 605 H 53.1014 -4.62696 1.79516 0
M  V30 606 H 48.3574 -5.30858 3.03315 0
M  V30 607 H 52.5314 -5.76293 3.90973 0
M  V30 608 H 50.1584 -6.10161 4.53439 0
M  V30 609 N 51.7335 -0.305618 -1.54608 0
M  V30 610 C 52.9795 0.302746 -2.00528 0
M  V30 611 C 53.3125 1.53184 -1.19367 0
M  V30 612 O 52.5875 1.92598 -0.271321 0
M  V30 613 C 52.8705 0.654756 -3.54097 0
M  V30 614 C 52.7235 -0.583793 -4.45995 0
M  V30 615 C 54.0425 1.47947 -4.14487 0
M  V30 616 H 51.1615 0.108564 -0.72896 0
M  V30 617 H 53.8035 -0.418634 -1.85331 0
M  V30 618 H 51.9535 1.26935 -3.67178 0
M  V30 619 H 53.6255 -1.22224 -4.44814 0
M  V30 620 H 51.8685 -1.21615 -4.16404 0
M  V30 621 H 52.5395 -0.293287 -5.5122 0
M  V30 622 H 55.0155 0.96013 -4.04871 0
M  V30 623 H 53.8915 1.69454 -5.22088 0
M  V30 624 H 54.1525 2.47011 -3.66658 0
M  V30 625 N 53.2116 1.57565 -0.0334293 0
M  V30 626 C 54.4366 1.96689 0.657895 0
M  V30 627 C 54.8616 0.910057 1.64619 0
M  V30 628 O 54.2196 -0.128598 1.80843 0
M  V30 629 C 54.2676 3.34905 1.33683 0
M  V30 630 O 53.3716 3.31574 2.45219 0
M  V30 631 H 52.7126 0.641205 0.172489 0
M  V30 632 H 55.2426 2.04372 -0.0965621 0
M  V30 633 H 55.2526 3.71234 1.69262 0
M  V30 634 H 53.9276 4.11366 0.612411 0
M  V30 635 H 52.5046 3.06968 2.11719 0
M  V30 636 N 54.6897 -0.239769 1.55765 0
M  V30 637 C 55.6367 -1.29696 1.90913 0
M  V30 638 C 56.6067 -1.47478 0.764164 0
M  V30 639 O 57.7917 -1.61345 1.01845 0
M  V30 640 C 54.9317 -2.64598 2.21544 0
M  V30 641 C 54.0447 -2.54765 3.48882 0
M  V30 642 C 53.1797 -3.82069 3.69049 0
M  V30 643 C 52.2187 -3.66883 4.89963 0
M  V30 644 N 51.3557 -4.86094 5.06614 0
M  V30 645 H 56.1957 -0.990224 2.81067 0
M  V30 646 H 53.7327 -0.477684 1.39128 0
M  V30 647 H 55.6907 -3.43132 2.3731 0
M  V30 648 H 54.3207 -2.93405 1.34585 0
M  V30 649 H 53.3727 -1.67763 3.41409 0
M  V30 650 H 54.6847 -2.39457 4.37563 0
M  V30 651 H 53.8387 -4.69046 3.84812 0
M  V30 652 H 52.5777 -4.00282 2.78614 0
M  V30 653 H 51.5827 -2.78289 4.74168 0
M  V30 654 H 52.8077 -3.50157 5.81865 0
M  V30 655 H 50.7537 -5.04655 4.19117 0
M  V30 656 H 50.6707 -4.73443 5.89396 0
M  V30 657 H 51.9387 -5.74549 5.26795 0
M  V30 658 N 56.1678 -1.49265 -0.50573 0
M  V30 659 C 57.1148 -1.65585 -1.6078 0
M  V30 660 C 58.0848 -0.497396 -1.58478 0
M  V30 661 O 59.2698 -0.72385 -1.76536 0
M  V30 662 C 56.4098 -1.72408 -2.98948 0
M  V30 663 C 55.5228 -2.99525 -3.11301 0
M  V30 664 C 54.6578 -2.97356 -4.40174 0
M  V30 665 C 53.6968 -4.19074 -4.46143 0
M  V30 666 N 52.8338 -4.14841 -5.66437 0
M  V30 667 H 57.6738 -2.59688 -1.46172 0
M  V30 668 H 55.2108 -1.28761 -0.711261 0
M  V30 669 H 57.1688 -1.74344 -3.79025 0
M  V30 670 H 55.7988 -0.817753 -3.1227 0
M  V30 671 H 54.8508 -3.07222 -2.24318 0
M  V30 672 H 56.1628 -3.89518 -3.11572 0
M  V30 673 H 55.3168 -2.97829 -5.28567 0
M  V30 674 H 54.0558 -2.05133 -4.42461 0
M  V30 675 H 53.0608 -4.1885 -3.56153 0
M  V30 676 H 54.2858 -5.12483 -4.45575 0
M  V30 677 H 52.2318 -3.25453 -5.69575 0
M  V30 678 H 52.1488 -4.98564 -5.68304 0
M  V30 679 H 53.4168 -4.1941 -6.57051 0
M  V30 680 N 57.6459 0.756429 -1.3826 0
M  V30 681 C 58.8939 1.51248 -1.34047 0
M  V30 682 C 59.2149 1.94875 0.0698372 0
M  V30 683 O 58.4849 1.67436 1.01696 0
M  V30 684 H 57.0649 0.561018 -0.493222 0
M  V30 685 H 59.7269 0.899347 -1.7291 0
M  V30 686 H 58.8229 2.40472 -1.98947 0
M  V30 687 N 59.124 1.23083 0.984299 0
M  V30 688 C 60.072 1.00593 2.09723 0
M  V30 689 C 61.066 -0.0538014 1.69315 0
M  V30 690 O 62.272 0.0993719 1.79725 0
M  V30 691 H 58.647 0.30817 0.685956 0
M  V30 692 H 60.618 1.95012 2.2586 0
M  V30 693 C 59.367 0.609601 3.42314 0
M  V30 694 H 58.69 1.41675 3.73856 0
M  V30 695 H 60.13 0.491726 4.21139 0
M  V30 696 C 58.589 -0.681745 3.2993 0
M  V30 697 O 59.119 -1.73192 3.62446 0
M  V30 698 N 57.325 -0.656178 2.83095 0
M  V30 699 H 56.872 0.198759 2.56832 0
M  V30 700 H 56.83 -1.52044 2.75191 0
M  V30 701 N 60.6021 -1.18246 1.0419 0
M  V30 702 C 61.8421 -1.89948 0.754916 0
M  V30 703 C 62.2061 -1.78608 -0.70451 0
M  V30 704 O 63.4071 -2.4503 -1.10516 0
M  V30 705 C 61.6781 -3.36305 1.20969 0
M  V30 706 S 63.2371 -4.26088 1.04854 0
M  V30 707 H 60.0551 -0.655897 0.274446 0
M  V30 708 H 62.6571 -1.42873 1.33445 0
M  V30 709 H 61.3611 -3.42089 2.26722 0
M  V30 710 H 60.8921 -3.8842 0.624004 0
M  V30 711 H 62.9071 -4.96189 -0.0332896 0
M  V30 712 N 62.0802 -0.821533 -1.34494 0
M  V30 713 C 63.0282 -0.230702 -2.31453 0
M  V30 714 C 64.0222 0.627793 -1.57338 0
M  V30 715 O 65.2282 0.519288 -1.72347 0
M  V30 716 H 61.6032 -0.0558577 -0.749923 0
M  V30 717 H 63.5742 -1.06332 -2.78812 0
M  V30 718 C 62.3232 0.59391 -3.4259 0
M  V30 719 H 61.6462 -0.0573588 -3.99759 0
M  V30 720 H 63.0862 0.973446 -4.12674 0
M  V30 721 C 61.5452 1.76568 -2.86924 0
M  V30 722 O 62.0752 2.8638 -2.81691 0
M  V30 723 N 60.2812 1.58198 -2.43766 0
M  V30 724 H 59.8282 0.68872 -2.48222 0
M  V30 725 H 59.7862 2.36752 -2.06871 0
M  V30 726 N 63.5583 1.46682 -0.576371 0
M  V30 727 C 64.8043 2.02712 -0.0596221 0
M  V30 728 C 65.1373 1.44765 1.29448 0
M  V30 729 O 64.4123 0.610355 1.84675 0
M  V30 730 C 64.6953 3.60098 0.0129503 0
M  V30 731 C 64.5483 4.28441 -1.3696 0
M  V30 732 C 65.8673 4.34224 0.71678 0
M  V30 733 H 62.9863 0.736637 -0.0231407 0
M  V30 734 H 65.6283 1.74898 -0.742351 0
M  V30 735 H 63.7783 3.83926 0.594378 0
M  V30 736 H 65.4503 4.15896 -1.9957 0
M  V30 737 H 63.6933 3.8805 -1.93907 0
M  V30 738 H 64.3643 5.3716 -1.27135 0
M  V30 739 H 66.8403 4.15503 0.222908 0
M  V30 740 H 65.7163 5.43936 0.73657 0
M  V30 741 H 65.9773 4.04823 1.77682 0
M  V30 742 N 65.0364 0.313813 1.54444 0
M  V30 743 C 65.9994 -0.54379 2.22656 0
M  V30 744 C 66.9994 -1.05124 1.21678 0
M  V30 745 O 68.1894 -0.945225 1.46325 0
M  V30 746 C 65.3214 -1.75427 2.92298 0
M  V30 747 H 66.5144 0.0523599 2.99854 0
M  V30 748 H 64.0674 0.0647834 1.56166 0
M  V30 749 H 64.8024 -2.38991 2.19211 0
M  V30 750 H 64.5874 -1.39791 3.66334 0
M  V30 751 H 66.0774 -2.36325 3.44297 0
M  V30 752 N 66.5145 -1.57545 0.0417849 0
M  V30 753 C 67.4645 -2.07483 -0.945247 0
M  V30 754 C 68.4485 -0.977983 -1.27767 0
M  V30 755 O 69.6405 -1.24142 -1.26166 0
M  V30 756 C 66.7695 -2.61576 -2.22335 0
M  V30 757 C 65.8555 -3.78213 -1.91874 0
M  V30 758 N 66.2465 -4.88344 -1.31733 0
M  V30 759 C 64.5445 -3.8694 -2.21796 0
M  V30 760 C 65.2455 -5.69462 -1.1869 0
M  V30 761 N 64.2215 -5.16771 -1.68666 0
M  V30 762 H 68.0235 -2.90029 -0.475441 0
M  V30 763 H 65.5375 -1.61581 -0.162911 0
M  V30 764 H 67.5345 -2.95651 -2.93932 0
M  V30 765 H 66.1945 -1.80465 -2.69931 0
M  V30 766 H 67.2055 -5.08335 -0.990729 0
M  V30 767 H 63.8825 -3.16757 -2.71977 0
M  V30 768 H 65.2725 -6.68023 -0.720793 0
M  V30 769 N 67.9926 0.231505 -1.5589 0
M  V30 770 C 68.9396 1.28682 -1.91598 0
M  V30 771 C 69.9096 1.47071 -0.771974 0
M  V30 772 O 71.0946 1.60802 -1.027 0
M  V30 773 C 68.2346 2.6342 -2.22944 0
M  V30 774 C 67.3476 2.52912 -3.50228 0
M  V30 775 C 66.4826 3.80106 -3.7107 0
M  V30 776 C 65.5216 3.64279 -4.91902 0
M  V30 777 N 64.6586 4.834 -5.09184 0
M  V30 778 H 69.4986 0.975305 -2.81588 0
M  V30 779 H 67.0356 0.470299 -1.39379 0
M  V30 780 H 68.9936 3.41869 -2.39126 0
M  V30 781 H 67.6236 2.92687 -1.36139 0
M  V30 782 H 66.6756 1.6595 -3.42294 0
M  V30 783 H 67.9876 2.37133 -4.38827 0
M  V30 784 H 67.1416 4.66999 -3.87295 0
M  V30 785 H 65.8806 3.98799 -2.80733 0
M  V30 786 H 64.8856 2.7577 -4.75637 0
M  V30 787 H 66.1106 3.47067 -5.83714 0
M  V30 788 H 64.0566 5.02425 -4.21788 0
M  V30 789 H 63.9736 4.70311 -5.91898 0
M  V30 790 H 65.2416 5.71747 -5.29835 0
M  V30 791 N 69.4707 1.49531 0.497807 0
M  V30 792 C 70.4187 1.66926 1.61983 0
M  V30 793 C 71.4127 0.535167 1.60724 0
M  V30 794 O 72.6187 0.714896 1.65195 0
M  V30 795 H 68.9937 0.526415 0.537021 0
M  V30 796 H 70.9647 2.61098 1.44465 0
M  V30 797 C 69.7137 1.75602 3.00099 0
M  V30 798 H 69.0367 2.62244 3.01775 0
M  V30 799 H 70.4767 1.91807 3.78135 0
M  V30 800 C 68.9357 0.501543 3.33146 0
M  V30 801 O 69.4657 -0.371342 3.9998 0
M  V30 802 N 67.6717 0.363531 2.88317 0
M  V30 803 H 67.2187 1.07485 2.34104 0
M  V30 804 H 67.1767 -0.474728 3.10795 0
M  V30 805 N 70.9488 -0.749086 1.3866 0
M  V30 806 C 72.1978 -1.50371 1.3443 0
M  V30 807 C 72.5108 -1.95503 -0.0616397 0
M  V30 808 O 73.7168 -2.70554 -0.226489 0
M  V30 809 C 72.1728 -2.71644 2.36088 0
M  V30 810 C 71.7808 -2.3352 3.82325 0
M  V30 811 C 73.5248 -3.49518 2.40909 0
M  V30 812 C 71.4318 -3.51431 4.75658 0
M  V30 813 H 70.3618 -0.564628 0.499712 0
M  V30 814 H 73.0128 -0.818449 1.64237 0
M  V30 815 H 71.3948 -3.42175 1.9933 0
M  V30 816 H 72.5688 -1.70627 4.28046 0
M  V30 817 H 70.8838 -1.6877 3.80665 0
M  V30 818 H 73.4808 -4.37197 3.07836 0
M  V30 819 H 73.8238 -3.90992 1.42937 0
M  V30 820 H 74.3568 -2.86005 2.76489 0
M  V30 821 H 71.0958 -3.15019 5.74842 0
M  V30 822 H 70.6158 -4.13352 4.34627 0
M  V30 823 H 72.2948 -4.17953 4.93887 0
M  V30 824 N 72.4269 -1.23603 -0.977757 0
M  V30 825 C 73.8429 -0.999251 -1.24447 0
M  V30 826 C 74.0429 0.298053 -1.99283 0
M  V30 827 O 73.0989 1.01681 -2.31122 0
M  V30 828 C 74.4119 -2.20784 -2.04144 0
M  V30 829 C 75.9599 -2.25303 -2.17273 0
M  V30 830 C 76.4349 -3.45755 -3.00362 0
M  V30 831 N 77.9259 -3.4601 -3.07947 0
M  V30 832 C 78.6609 -4.35868 -3.72568 0
M  V30 833 N 78.1569 -5.35966 -4.38991 0
M  V30 834 N 79.9499 -4.23605 -3.6948 0
M  V30 835 H 72.1009 -2.06986 -0.476483 0
M  V30 836 H 74.3639 -0.907801 -0.273134 0
M  V30 837 H 74.0699 -3.14945 -1.56533 0
M  V30 838 H 73.9439 -2.22085 -3.04891 0
M  V30 839 H 76.3309 -1.3168 -2.64092 0
M  V30 840 H 76.4119 -2.28033 -1.15907 0
M  V30 841 H 76.0559 -4.39687 -2.5424 0
M  V30 842 H 75.9859 -3.40266 -4.01904 0
M  V30 843 H 78.4769 -2.73588 -2.60688 0
M  V30 844 H 78.7899 -6.00783 -4.86086 0
M  V30 845 H 77.1349 -5.39863 -4.37691 0
M  V30 846 H 80.3259 -3.44647 -3.16759 0
M  V30 847 H 80.4989 -4.93836 -4.1956 0
M  V30 848 N 73.905 1.17692 -1.04816 0
M  V30 849 C 74.815 2.25229 -0.65643 0
M  V30 850 C 75.831 1.71018 0.320761 0
M  V30 851 O 77.007 2.00649 0.173805 0
M  V30 852 C 74.072 3.46684 -0.0332629 0
M  V30 853 C 73.133 4.15997 -1.06042 0
M  V30 854 C 72.366 5.31654 -0.466893 0
M  V30 855 O 72.589 5.65777 0.724758 0
M  V30 856 O 71.523 5.89831 -1.1993 0
M  V30 857 H 75.349 2.61016 -1.55255 0
M  V30 858 H 72.934 1.24919 -0.81949 0
M  V30 859 H 74.816 4.20234 0.313256 0
M  V30 860 H 73.491 3.12703 0.836566 0
M  V30 861 H 72.398 3.44482 -1.45886 0
M  V30 862 H 73.731 4.53996 -1.90127 0
M  V30 863 N 75.3831 0.828654 1.34056 0
M  V30 864 C 76.3151 0.212052 2.28217 0
M  V30 865 C 77.3281 -0.601362 1.51286 0
M  V30 866 O 78.5171 -0.430104 1.73241 0
M  V30 867 C 75.6171 -0.72088 3.31144 0
M  V30 868 C 74.7901 0.0509587 4.3737 0
M  V30 869 C 73.8491 -0.803766 5.20025 0
M  V30 870 O 72.8751 -0.246667 5.68665 0
M  V30 871 N 74.0771 -2.1227 5.40298 0
M  V30 872 H 76.8421 1.02105 2.81771 0
M  V30 873 H 74.4031 0.686153 1.46641 0
M  V30 874 H 76.3951 -1.29742 3.8334 0
M  V30 875 H 74.9651 -1.43061 2.77943 0
M  V30 876 H 74.1851 0.808831 3.85813 0
M  V30 877 H 75.4731 0.582065 5.0546 0
M  V30 878 H 74.8711 -2.59898 5.02464 0
M  V30 879 H 73.4281 -2.64796 5.95589 0
M  V30 880 N 76.8612 -1.46375 0.584142 0
M  V30 881 C 78.1092 -2.01978 0.0701287 0
M  V30 882 C 78.4302 -1.4579 -1.295 0
M  V30 883 O 77.7002 -0.64314 -1.85042 0
M  V30 884 H 76.2802 -0.746648 0.0229345 0
M  V30 885 H 78.9422 -1.79461 0.760245 0
M  V30 886 H 78.0382 -3.121 0.0022064 0
M  V30 887 N 78.3393 -0.321999 -1.54275 0
M  V30 888 C 79.7553 0.0306999 -1.5957 0
M  V30 889 C 79.9553 1.50614 -1.33857 0
M  V30 890 O 79.0113 2.2619 -1.12223 0
M  V30 891 C 80.3243 -0.386122 -2.98211 0
M  V30 892 C 81.8723 -0.336647 -3.11184 0
M  V30 893 C 82.3473 -0.728607 -4.52167 0
M  V30 894 N 83.8383 -0.681952 -4.58152 0
M  V30 895 C 84.5733 -0.957449 -5.6535 0
M  V30 896 N 84.0693 -1.3 -6.80494 0
M  V30 897 N 85.8623 -0.883113 -5.55119 0
M  V30 898 H 78.0133 -1.28332 -1.69247 0
M  V30 899 H 80.2763 -0.521716 -0.791528 0
M  V30 900 H 79.9823 -1.41404 -3.22022 0
M  V30 901 H 79.8563 0.249662 -3.76373 0
M  V30 902 H 82.2433 0.682058 -2.8711 0
M  V30 903 H 82.3243 -1.00734 -2.3513 0
M  V30 904 H 81.9683 -1.74522 -4.76974 0
M  V30 905 H 81.8983 -0.0356152 -5.26588 0
M  V30 906 H 84.3893 -0.428985 -3.75457 0
M  V30 907 H 84.7023 -1.49563 -7.58189 0
M  V30 908 H 83.0473 -1.33824 -6.81994 0
M  V30 909 H 86.2383 -0.615001 -4.64042 0
M  V30 910 H 86.4113 -1.10118 -6.38575 0
M  V30 911 N 79.8174 1.5752 -0.0501392 0
M  V30 912 C 81.0644 1.9265 0.623874 0
M  V30 913 C 81.3924 0.928411 1.70912 0
M  V30 914 O 80.6474 -0.0594525 1.9561 0
M  V30 915 C 80.9464 3.34467 1.25963 0
M  V30 916 C 80.6124 4.49883 0.302689 0
M  V30 917 C 79.2744 4.81184 0.0393636 0
M  V30 918 C 81.6264 5.20002 -0.353205 0
M  V30 919 C 78.9544 5.79951 -0.887308 0
M  V30 920 C 81.3064 6.1976 -1.26806 0
M  V30 921 C 79.9704 6.49491 -1.54007 0
M  V30 922 H 79.2404 0.704957 0.228292 0
M  V30 923 H 81.8874 1.91146 -0.116398 0
M  V30 924 H 80.1924 3.32333 2.07514 0
M  V30 925 H 81.8894 3.58928 1.78806 0
M  V30 926 H 78.4794 4.25457 0.518109 0
M  V30 927 H 82.6634 4.96033 -0.162854 0
M  V30 928 H 77.9194 6.01322 -1.10553 0
M  V30 929 H 82.0934 6.73205 -1.78236 0
M  V30 930 H 79.7204 7.25837 -2.25976 0
M  V30 931 N 81.2955 -0.223234 1.56011 0
M  V30 932 C 82.2255 -1.27988 1.95298 0
M  V30 933 C 83.2065 -1.48976 0.820979 0
M  V30 934 O 84.3915 -1.61188 1.08315 0
M  V30 935 C 81.5215 -2.63 2.26822 0
M  V30 936 C 80.4755 -2.56671 3.42497 0
M  V30 937 C 79.8015 -3.95697 3.59622 0
M  V30 938 C 81.1015 -2.11601 4.77517 0
M  V30 939 H 82.7955 -0.953525 2.8381 0
M  V30 940 H 80.3415 -0.457244 1.36548 0
M  V30 941 H 82.2945 -3.37077 2.52898 0
M  V30 942 H 81.0185 -2.9732 1.35161 0
M  V30 943 H 79.6775 -1.85051 3.16467 0
M  V30 944 H 79.3255 -4.27322 2.6534 0
M  V30 945 H 79.0255 -3.92345 4.37424 0
M  V30 946 H 80.5495 -4.71438 3.88044 0
M  V30 947 H 81.9635 -2.7542 5.02809 0
M  V30 948 H 80.3605 -2.19311 5.5859 0
M  V30 949 H 81.4305 -1.06824 4.72987 0
M  V30 950 N 82.7736 -1.49793 -0.48987 0
M  V30 951 C 83.7056 -1.63413 -1.60713 0
M  V30 952 C 84.7186 -0.516329 -1.54395 0
M  V30 953 O 85.9076 -0.788812 -1.60125 0
M  V30 954 C 83.0076 -1.58516 -2.99543 0
M  V30 955 C 82.1806 -2.86016 -3.30928 0
M  V30 956 C 81.2396 -2.74018 -4.49222 0
M  V30 957 O 80.2656 -3.47964 -4.50455 0
M  V30 958 N 81.4676 -1.86309 -5.4979 0
M  V30 959 H 84.2326 -2.59777 -1.49452 0
M  V30 960 H 81.7936 -1.47022 -0.677955 0
M  V30 961 H 83.7856 -1.48128 -3.76617 0
M  V30 962 H 82.3556 -0.69965 -3.0467 0
M  V30 963 H 81.5756 -3.10672 -2.42645 0
M  V30 964 H 82.8636 -3.70521 -3.487 0
M  V30 965 H 82.2616 -1.2551 -5.51601 0
M  V30 966 H 80.8186 -1.81837 -6.25922 0
M  V30 967 N 84.2517 0.741722 -1.39055 0
M  V30 968 C 85.5287 1.49252 -1.26425 0
M  V30 969 C 85.9087 2.10705 0.129144 0
M  V30 970 O 85.2567 1.98045 1.13976 0
M  V30 971 C 85.4667 2.54934 -2.38347 0
M  V30 972 C 86.8147 3.21506 -2.77343 0
M  V30 973 O 87.8387 2.65245 -2.37747 0
M  V30 974 O 86.6977 4.23294 -3.45665 0
M  V30 975 H 83.7917 0.662451 -0.495064 0
M  V30 976 H 86.3377 0.776121 -1.50912 0
M  V30 977 H 85.1097 2.07857 -3.31529 0
M  V30 978 H 84.7327 3.34141 -2.15489 0
M  V30 979 N 85.7298 1.2412 0.971189 0
M  V30 980 C 86.9758 1.08041 1.71625 0
M  V30 981 C 87.3088 -0.380407 1.90438 0
M  V30 982 O 86.5838 -1.28127 1.46334 0
M  V30 983 C 86.8668 1.81682 3.10908 0
M  V30 984 C 86.7198 3.35493 2.99608 0
M  V30 985 C 88.0388 1.58671 4.10501 0
M  V30 986 H 85.1578 0.39388 0.622919 0
M  V30 987 H 87.7998 1.52743 1.13003 0
M  V30 988 H 85.9498 1.43684 3.60953 0
M  V30 989 H 87.6218 3.83068 2.57015 0
M  V30 990 H 85.8648 3.64052 2.35899 0
M  V30 991 H 86.5358 3.82217 3.98264 0
M  V30 992 H 89.0118 1.91719 3.69301 0
M  V30 993 H 87.8878 2.1266 5.06031 0
M  V30 994 H 88.1488 0.524161 4.38982 0
M  V30 995 N 87.2079 -1.17134 1.05439 0
M  V30 996 C 88.4549 -1.87456 0.765942 0
M  V30 997 C 88.7829 -1.81189 -0.707153 0
M  V30 998 O 88.0379 -1.21633 -1.5331 0
M  V30 999 C 88.3369 -3.36833 1.19491 0
M  V30 1000 C 88.0029 -3.63301 2.67063 0
M  V30 1001 C 86.6649 -3.70234 3.07376 0
M  V30 1002 C 89.0169 -3.74575 3.62413 0
M  V30 1003 C 86.3449 -3.85933 4.41896 0
M  V30 1004 C 88.6969 -3.91793 4.9667 0
M  V30 1005 C 87.3609 -3.96966 5.36633 0
M  V30 1006 H 86.6309 -0.685948 0.280278 0
M  V30 1007 H 89.2779 -1.38556 1.32192 0
M  V30 1008 H 87.5829 -3.87807 0.557969 0
M  V30 1009 H 89.2799 -3.89611 0.948893 0
M  V30 1010 H 85.8699 -3.58532 2.34846 0
M  V30 1011 H 90.0539 -3.68537 3.32406 0
M  V30 1012 H 85.3099 -3.88187 4.72357 0
M  V30 1013 H 89.4839 -3.99458 5.70444 0
M  V30 1014 H 87.1109 -4.08883 6.40874 0
M  V30 1015 N 88.686 -0.835752 -1.33615 0
M  V30 1016 C 89.914 -0.443344 -2.02094 0
M  V30 1017 C 90.329 0.954522 -1.62894 0
M  V30 1018 O 89.686 1.61982 -0.840723 0
M  V30 1019 C 89.737 -0.550775 -3.5728 0
M  V30 1020 O 89.458 -1.89356 -3.95065 0
M  V30 1021 C 90.959 -0.154919 -4.43029 0
M  V30 1022 H 88.179 -0.176359 -0.647409 0
M  V30 1023 H 90.723 -1.12746 -1.70612 0
M  V30 1024 H 88.878 0.0853997 -3.87306 0
M  V30 1025 H 89.292 -1.87687 -4.89769 0
M  V30 1026 H 90.766 -0.281144 -5.51284 0
M  V30 1027 H 91.243 0.902863 -4.2982 0
M  V30 1028 H 91.849 -0.765404 -4.18356 0
M  V30 1029 N 90.1641 1.46063 -0.591896 0
M  V30 1030 C 91.3921 2.06717 -0.0868936 0
M  V30 1031 C 91.8071 1.43916 1.22203 0
M  V30 1032 O 91.1641 0.547698 1.74088 0
M  V30 1033 C 91.2151 3.6142 0.0758725 0
M  V30 1034 O 90.9361 4.21874 -1.18126 0
M  V30 1035 C 92.4371 4.39025 0.61416 0
M  V30 1036 H 89.6571 0.668162 -0.0616518 0
M  V30 1037 H 92.2011 1.8755 -0.815175 0
M  V30 1038 H 90.3561 3.79983 0.754413 0
M  V30 1039 H 90.7701 5.14861 -1.00092 0
M  V30 1040 H 92.2441 5.4783 0.677193 0
M  V30 1041 H 92.7211 4.07708 1.63312 0
M  V30 1042 H 93.3271 4.2529 -0.0298142 0
M  V30 1043 N 91.6422 0.330177 1.54103 0
M  V30 1044 C 92.5722 -0.525353 2.27513 0
M  V30 1045 C 93.5532 -1.11383 1.2856 0
M  V30 1046 O 94.7382 -1.13773 1.57383 0
M  V30 1047 C 91.8682 -1.6831 3.03791 0
M  V30 1048 C 90.8222 -1.2236 4.10137 0
M  V30 1049 C 90.1482 -2.46882 4.74293 0
M  V30 1050 C 91.4482 -0.333697 5.21233 0
M  V30 1051 H 93.1422 0.087013 2.99274 0
M  V30 1052 H 90.6882 0.0432893 1.43935 0
M  V30 1053 H 92.6412 -2.28795 3.5388 0
M  V30 1054 H 91.3652 -2.32216 2.29659 0
M  V30 1055 H 90.0242 -0.64165 3.60941 0
M  V30 1056 H 89.6722 -3.09165 3.96769 0
M  V30 1057 H 89.3722 -2.16825 5.46133 0
M  V30 1058 H 90.8962 -3.08117 5.27159 0
M  V30 1059 H 92.3102 -0.845013 5.67038 0
M  V30 1060 H 90.7072 -0.125612 5.99969 0
M  V30 1061 H 91.7772 0.633724 4.80741 0
M  V30 1062 N 93.1203 -1.57491 0.0584922 0
M  V30 1063 C 94.3663 -1.93264 -0.614558 0
M  V30 1064 C 94.6993 -0.937717 -1.7006 0
M  V30 1065 O 93.9743 0.0351652 -1.94468 0
M  V30 1066 C 94.2573 -3.3938 -1.20386 0
M  V30 1067 C 94.1103 -4.49625 -0.125375 0
M  V30 1068 C 95.4293 -3.86039 -2.11334 0
M  V30 1069 H 92.5483 -0.702791 -0.221933 0
M  V30 1070 H 95.1903 -1.8961 0.12175 0
M  V30 1071 H 93.3403 -3.42626 -1.83139 0
M  V30 1072 H 95.0123 -4.58506 0.506971 0
M  V30 1073 H 93.2553 -4.30354 0.545672 0
M  V30 1074 H 93.9263 -5.48967 -0.577861 0
M  V30 1075 H 96.4023 -3.84716 -1.58534 0
M  V30 1076 H 95.2783 -4.88914 -2.49507 0
M  V30 1077 H 95.5393 -3.23215 -3.01636 0
M  V30 1078 N 94.5984 0.214957 -1.56127 0
M  V30 1079 C 95.8754 0.963093 -1.70247 0
M  V30 1080 C 96.2554 2.02166 -0.60764 0
M  V30 1081 O 95.6034 2.25244 0.384385 0
M  V30 1082 C 95.8134 1.56756 -3.11815 0
M  V30 1083 C 97.1614 2.0573 -3.7143 0
M  V30 1084 O 98.1854 1.66637 -3.14818 0
M  V30 1085 O 97.0444 2.77603 -4.70743 0
M  V30 1086 H 94.1384 0.450321 -0.693643 0
M  V30 1087 H 96.6844 0.206219 -1.68442 0
M  V30 1088 H 95.4564 0.803533 -3.82961 0
M  V30 1089 H 95.0794 2.3898 -3.17765 0
M  V30 1090 N 96.0765 1.50051 0.48192 0
M  V30 1091 C 97.0065 1.71046 1.58951 0
M  V30 1092 C 97.9875 0.559288 1.60642 0
M  V30 1093 O 99.1725 0.797243 1.77081 0
M  V30 1094 C 96.3025 1.79462 2.97339 0
M  V30 1095 C 95.2565 2.94558 3.10515 0
M  V30 1096 C 94.5825 2.88105 4.50444 0
M  V30 1097 C 95.8825 4.35227 2.88747 0
M  V30 1098 H 97.5765 2.6378 1.41635 0
M  V30 1099 H 95.1225 1.26936 0.679942 0
M  V30 1100 H 97.0755 1.92734 3.74742 0
M  V30 1101 H 95.7995 0.833412 3.15788 0
M  V30 1102 H 94.4585 2.80918 2.35543 0
M  V30 1103 H 94.1065 1.89853 4.65795 0
M  V30 1104 H 93.8065 3.65366 4.60197 0
M  V30 1105 H 95.3305 3.03412 5.29881 0
M  V30 1106 H 96.7445 4.49449 3.55905 0
M  V30 1107 H 95.1415 5.13856 3.09955 0
M  V30 1108 H 96.2115 4.48347 1.84696 0
M  V30 1109 N 97.5546 -0.734337 1.39446 0
M  V30 1110 C 98.5016 -1.84835 1.38219 0
M  V30 1111 C 99.4716 -1.64331 0.24179 0
M  V30 1112 O 100.657 -1.85728 0.437002 0
M  V30 1113 C 97.7966 -3.22355 1.23212 0
M  V30 1114 C 96.9096 -3.5456 2.46801 0
M  V30 1115 C 96.0446 -4.81485 2.24377 0
M  V30 1116 C 95.0836 -5.06536 3.43639 0
M  V30 1117 N 94.2206 -6.24665 3.20528 0
M  V30 1118 H 99.0606 -1.85219 2.33448 0
M  V30 1119 H 96.5976 -0.905039 1.15963 0
M  V30 1120 H 98.5556 -4.0174 1.12522 0
M  V30 1121 H 97.1856 -3.21248 0.316121 0
M  V30 1122 H 96.2376 -2.69872 2.68092 0
M  V30 1123 H 97.5496 -3.6899 3.3563 0
M  V30 1124 H 96.7036 -5.68852 2.10933 0
M  V30 1125 H 95.4426 -4.6923 1.32944 0
M  V30 1126 H 94.4476 -4.17632 3.5758 0
M  V30 1127 H 95.6726 -5.20676 4.35974 0
M  V30 1128 H 93.6186 -6.13696 2.3176 0
M  V30 1129 H 93.5356 -6.39685 4.02913 0
M  V30 1130 H 94.8036 -7.14868 3.10779 0
M  V30 1131 N 99.0327 -1.24633 -0.964593 0
M  V30 1132 C 100.279 -1.09957 -1.71117 0
M  V30 1133 C 100.634 0.357422 -1.89051 0
M  V30 1134 O 99.9267 1.26029 -1.44317 0
M  V30 1135 C 100.121 -1.7763 -3.10133 0
M  V30 1136 C 99.9497 -3.29759 -3.05759 0
M  V30 1137 C 98.7197 -3.98981 -3.10068 0
M  V30 1138 C 100.918 -4.26305 -2.87695 0
M  V30 1139 N 98.8997 -5.37966 -2.95747 0
M  V30 1140 C 100.271 -5.52308 -2.81702 0
M  V30 1141 C 102.326 -4.16842 -2.72299 0
M  V30 1142 C 101.029 -6.69931 -2.61887 0
M  V30 1143 C 103.055 -5.34147 -2.53853 0
M  V30 1144 C 102.417 -6.59084 -2.48572 0
M  V30 1145 H 98.5157 -0.457003 -0.634564 0
M  V30 1146 H 101.1 -1.57592 -1.14337 0
M  V30 1147 H 99.2707 -1.32504 -3.65099 0
M  V30 1148 H 101.003 -1.55786 -3.73514 0
M  V30 1149 H 97.7577 -3.50169 -3.18871 0
M  V30 1150 H 98.1817 -6.10877 -2.91818 0
M  V30 1151 H 102.824 -3.21007 -2.75163 0
M  V30 1152 H 100.542 -7.65886 -2.57767 0
M  V30 1153 H 104.128 -5.28678 -2.4288 0
M  V30 1154 H 103.008 -7.48324 -2.34481 0
M  V30 1155 N 100.511 1.16574 -1.06058 0
M  V30 1156 C 101.922 1.68662 -0.800632 0
M  V30 1157 C 102.273 1.84184 0.67608 0
M  V30 1158 O 101.398 1.53568 1.52466 0
M  V30 1159 C 101.993 3.06356 -1.44676 0
M  V30 1160 C 100.552 3.55575 -1.23465 0
M  V30 1161 C 99.6988 2.31616 -1.52477 0
M  V30 1162 H 102.65 1.00969 -1.22438 0
M  V30 1163 H 102.671 3.70636 -0.860788 0
M  V30 1164 H 102.183 2.95027 -2.52152 0
M  V30 1165 H 100.284 3.72167 -0.179527 0
M  V30 1166 H 100.397 4.37812 -1.94571 0
M  V30 1167 H 98.7608 2.36512 -0.945209 0
M  V30 1168 H 99.5438 2.22887 -2.61106 0
M  V30 1169 N 101.989 0.842826 1.3317 0
M  V30 1170 C 102.939 0.250877 2.26616 0
M  V30 1171 C 103.923 -0.596427 1.49437 0
M  V30 1172 O 105.115 -0.447747 1.71243 0
M  V30 1173 C 102.244 -0.569779 3.38539 0
M  V30 1174 C 101.33 0.289254 4.23112 0
M  V30 1175 N 101.721 1.36987 4.86897 0
M  V30 1176 C 100.019 0.0769631 4.45934 0
M  V30 1177 C 100.72 1.89737 5.49886 0
M  V30 1178 N 99.6959 1.19827 5.30229 0
M  V30 1179 H 103.498 1.07718 2.73448 0
M  V30 1180 H 101.012 0.687693 1.47121 0
M  V30 1181 H 103.009 -1.01018 4.04476 0
M  V30 1182 H 101.669 -1.39401 2.93253 0
M  V30 1183 H 102.68 1.75277 4.87338 0
M  V30 1184 H 99.3569 -0.713507 4.11358 0
M  V30 1185 H 100.747 2.80253 6.10662 0
M  V30 1186 N 103.467 -1.45747 0.599634 0
M  V30 1187 C 104.695 -2.06668 0.0978551 0
M  V30 1188 C 105.11 -1.44562 -1.21439 0
M  V30 1189 O 104.467 -0.556923 -1.73795 0
M  V30 1190 C 104.518 -3.61456 -0.0567044 0
M  V30 1191 O 104.239 -4.21242 1.20361 0
M  V30 1192 C 105.74 -4.39345 -0.590869 0
M  V30 1193 H 102.96 -0.667825 0.0651943 0
M  V30 1194 H 105.504 -1.87115 0.82511 0
M  V30 1195 H 103.659 -3.80378 -0.734251 0
M  V30 1196 H 104.073 -5.14323 1.02821 0
M  V30 1197 H 105.547 -5.48182 -0.648131 0
M  V30 1198 H 106.024 -4.08568 -1.61147 0
M  V30 1199 H 106.63 -4.25268 0.0523679 0
M  V30 1200 N 104.945 -0.338344 -1.53925 0
M  V30 1201 C 105.875 0.51328 -2.27789 0
M  V30 1202 C 106.856 1.107 -1.29149 0
M  V30 1203 O 108.041 1.12937 -1.57984 0
M  V30 1204 C 105.171 1.66697 -3.04679 0
M  V30 1205 C 104.125 1.20183 -4.1078 0
M  V30 1206 C 103.451 2.44363 -4.75595 0
M  V30 1207 C 104.751 0.30605 -5.21403 0
M  V30 1208 H 106.445 -0.102883 -2.99223 0
M  V30 1209 H 103.991 -0.0509219 -1.4391 0
M  V30 1210 H 105.944 2.26915 -3.55088 0
M  V30 1211 H 104.668 2.30995 -2.30887 0
M  V30 1212 H 103.327 0.622499 -3.61276 0
M  V30 1213 H 102.975 3.07057 -3.98403 0
M  V30 1214 H 102.675 2.13925 -5.47275 0
M  V30 1215 H 104.199 3.05317 -5.28786 0
M  V30 1216 H 105.613 0.814929 -5.67478 0
M  V30 1217 H 104.01 0.0937929 -6.00027 0
M  V30 1218 H 105.08 -0.65921 -4.80398 0
M  V30 1219 N 106.423 1.57458 -0.0668435 0
M  V30 1220 C 107.353 2.15468 0.899764 0
M  V30 1221 C 108.334 1.08042 1.31381 0
M  V30 1222 O 109.519 1.36054 1.38574 0
M  V30 1223 C 106.649 2.71232 2.16911 0
M  V30 1224 C 105.603 3.83781 1.89463 0
M  V30 1225 C 104.929 4.26127 3.22986 0
M  V30 1226 C 106.229 5.08238 1.20381 0
M  V30 1227 H 107.923 2.96488 0.416529 0
M  V30 1228 H 105.469 1.4262 0.198908 0
M  V30 1229 H 107.422 3.10458 2.84945 0
M  V30 1230 H 106.146 1.87426 2.67468 0
M  V30 1231 H 104.805 3.45051 1.23836 0
M  V30 1232 H 104.453 3.39249 3.71374 0
M  V30 1233 H 104.153 5.01993 3.05413 0
M  V30 1234 H 105.677 4.67966 3.92225 0
M  V30 1235 H 107.091 5.44811 1.78475 0
M  V30 1236 H 105.488 5.89349 1.13083 0
M  V30 1237 H 106.558 4.84558 0.182153 0
M  V30 1238 N 107.901 -0.206675 1.56239 0
M  V30 1239 C 109.15 -0.926964 1.79138 0
M  V30 1240 C 109.463 -1.84901 0.638043 0
M  V30 1241 O 110.669 -2.60906 0.751033 0
M  V30 1242 C 109.125 -1.6986 3.17294 0
M  V30 1243 C 108.733 -0.821956 4.40395 0
M  V30 1244 C 110.477 -2.40922 3.4951 0
M  V30 1245 C 108.384 -1.59179 5.69575 0
M  V30 1246 H 107.314 -0.349864 0.667915 0
M  V30 1247 H 109.965 -0.180487 1.8261 0
M  V30 1248 H 108.347 -2.48853 3.08039 0
M  V30 1249 H 109.521 -0.0715019 4.60745 0
M  V30 1250 H 107.836 -0.222741 4.15804 0
M  V30 1251 H 110.433 -2.99047 4.43255 0
M  V30 1252 H 110.776 -3.14542 2.72707 0
M  V30 1253 H 111.309 -1.68905 3.60161 0
M  V30 1254 H 108.048 -0.898589 6.49312 0
M  V30 1255 H 107.568 -2.31648 5.53262 0
M  V30 1256 H 109.247 -2.14862 6.10281 0
M  V30 1257 N 109.379 -1.50304 -0.473955 0
M  V30 1258 C 110.626 -1.6115 -1.22625 0
M  V30 1259 C 110.954 -0.310517 -1.92005 0
M  V30 1260 O 110.209 0.703419 -1.82621 0
M  V30 1261 C 110.508 -2.73938 -2.29549 0
M  V30 1262 C 110.174 -4.14519 -1.7744 0
M  V30 1263 C 108.836 -4.5277 -1.62949 0
M  V30 1264 C 111.188 -5.02392 -1.3875 0
M  V30 1265 C 108.516 -5.76639 -1.08187 0
M  V30 1266 C 110.868 -6.26805 -0.854309 0
M  V30 1267 C 109.532 -6.63861 -0.696011 0
M  V30 1268 H 108.802 -0.589691 -0.448715 0
M  V30 1269 H 111.449 -1.84228 -0.522705 0
M  V30 1270 H 109.754 -2.44937 -3.05799 0
M  V30 1271 H 111.451 -2.79534 -2.87509 0
M  V30 1272 H 108.041 -3.8434 -1.89685 0
M  V30 1273 H 112.225 -4.73474 -1.4878 0
M  V30 1274 H 107.481 -6.04027 -0.946666 0
M  V30 1275 H 111.655 -6.94258 -0.545843 0
M  V30 1276 H 109.282 -7.59722 -0.26952 0
M  V30 1277 N 110.857 0.726932 -1.39834 0
M  V30 1278 C 112.085 1.51613 -1.40787 0
M  V30 1279 C 112.5 1.88799 -0.00451505 0
M  V30 1280 O 111.857 1.54662 0.968809 0
M  V30 1281 C 111.908 2.79863 -2.28821 0
M  V30 1282 O 111.629 2.44253 -3.63692 0
M  V30 1283 C 113.13 3.73837 -2.38245 0
M  V30 1284 H 110.35 0.468264 -0.480593 0
M  V30 1285 H 112.894 0.897607 -1.83748 0
M  V30 1286 H 111.049 3.38027 -1.89252 0
M  V30 1287 H 111.463 3.26695 -4.1033 0
M  V30 1288 H 112.937 4.60699 -3.04073 0
M  V30 1289 H 113.414 4.16153 -1.40403 0
M  V30 1290 H 114.02 3.21589 -2.78317 0
M  V30 1291 N 112.336 1.25143 0.95797 0
M  V30 1292 C 113.269 0.995565 2.05338 0
M  V30 1293 C 114.247 -0.0740423 1.62431 0
M  V30 1294 O 115.431 0.0649212 1.88388 0
M  V30 1295 C 112.558 0.504298 3.34925 0
M  V30 1296 C 111.604 1.56393 3.96792 0
M  V30 1297 S 112.437 3.14815 4.33188 0
M  V30 1298 C 113.593 2.67415 5.65898 0
M  V30 1299 H 113.826 1.92309 2.26726 0
M  V30 1300 H 111.359 1.08635 1.09716 0
M  V30 1301 H 113.317 0.227497 4.09869 0
M  V30 1302 H 111.978 -0.402671 3.11508 0
M  V30 1303 H 111.171 1.17082 4.90212 0
M  V30 1304 H 110.773 1.79124 3.28315 0
M  V30 1305 H 113.065 2.10833 6.4386 0
M  V30 1306 H 114.008 3.59463 6.10076 0
M  V30 1307 H 114.416 2.07521 5.24972 0
M  V30 1308 N 113.814 -1.1601 1.06675 0
M  V30 1309 C 115.039 -1.91068 0.806706 0
M  V30 1310 C 115.464 -1.77112 -0.633485 0
M  V30 1311 O 114.822 -1.09908 -1.44187 0
M  V30 1312 C 114.87 -3.39655 1.21106 0
M  V30 1313 O 113.974 -4.10893 0.352189 0
M  V30 1314 H 113.315 -0.595125 0.294486 0
M  V30 1315 H 115.845 -1.46955 1.42356 0
M  V30 1316 H 115.855 -3.90434 1.18428 0
M  V30 1317 H 114.53 -3.49132 2.26008 0
M  V30 1318 H 113.107 -3.70285 0.440868 0
M  V30 1319 N 115.292 -0.849877 -1.32721 0
M  V30 1320 C 116.539 -0.450923 -1.97416 0
M  V30 1321 C 116.867 0.992376 -1.67279 0
M  V30 1322 O 116.122 1.71048 -0.950845 0
M  V30 1323 C 116.421 -0.631272 -3.51781 0
M  V30 1324 C 116.087 -2.04432 -4.01894 0
M  V30 1325 C 114.749 -2.4308 -4.1529 0
M  V30 1326 C 117.101 -2.96679 -4.28522 0
M  V30 1327 C 114.429 -3.73257 -4.52654 0
M  V30 1328 C 116.781 -4.26349 -4.67343 0
M  V30 1329 C 115.445 -4.64939 -4.78945 0
M  V30 1330 H 114.715 -0.165004 -0.722395 0
M  V30 1331 H 117.362 -1.07901 -1.58207 0
M  V30 1332 H 115.667 0.0800767 -3.91718 0
M  V30 1333 H 117.364 -0.302709 -3.99856 0
M  V30 1334 H 113.954 -1.73419 -3.91949 0
M  V30 1335 H 118.138 -2.68054 -4.17685 0
M  V30 1336 H 113.394 -4.02946 -4.59831 0
M  V30 1337 H 117.568 -4.97895 -4.86902 0
M  V30 1338 H 115.195 -5.65855 -5.07654 0
M  V30 1339 N 116.77 1.45427 -0.607355 0
M  V30 1340 C 117.7 2.3329 0.0989352 0
M  V30 1341 C 118.681 1.46816 0.859007 0
M  V30 1342 O 119.866 1.75588 0.829604 0
M  V30 1343 C 116.996 3.29518 1.09705 0
M  V30 1344 C 115.95 4.25626 0.450206 0
M  V30 1345 C 115.276 5.11542 1.55655 0
M  V30 1346 C 116.576 5.18505 -0.628455 0
M  V30 1347 H 118.27 2.92595 -0.634716 0
M  V30 1348 H 115.816 1.40696 -0.306681 0
M  V30 1349 H 117.769 3.89855 1.59971 0
M  V30 1350 H 116.493 2.68372 1.86129 0
M  V30 1351 H 115.152 3.66586 -0.0315886 0
M  V30 1352 H 114.8 4.46765 2.31107 0
M  V30 1353 H 114.5 5.76647 1.12925 0
M  V30 1354 H 116.024 5.74748 2.06148 0
M  V30 1355 H 117.438 5.72916 -0.209877 0
M  V30 1356 H 115.835 5.92085 -0.977489 0
M  V30 1357 H 116.905 4.60948 -1.50514 0
M  V30 1358 N 118.248 0.346503 1.53744 0
M  V30 1359 C 119.488 -0.249413 2.02873 0
M  V30 1360 C 119.852 -1.47532 1.22876 0
M  V30 1361 O 121.053 -2.1456 1.61918 0
M  V30 1362 C 119.324 -0.552909 3.53097 0
M  V30 1363 S 120.883 -1.12521 4.24128 0
M  V30 1364 H 117.701 -0.074042 0.707134 0
M  V30 1365 H 120.303 0.48495 1.8939 0
M  V30 1366 H 119.007 0.347083 4.0893 0
M  V30 1367 H 118.538 -1.31686 3.70705 0
M  V30 1368 H 120.553 -2.41075 4.33702 0
M  V30 1369 N 119.726 -1.57421 0.075193 0
M  V30 1370 C 120.951 -1.98364 -0.605515 0
M  V30 1371 C 121.376 -0.953383 -1.62149 0
M  V30 1372 O 120.734 0.0806053 -1.81121 0
M  V30 1373 C 120.782 -3.38332 -1.24756 0
M  V30 1374 O 119.886 -3.37959 -2.36342 0
M  V30 1375 H 119.227 -0.645553 -0.155428 0
M  V30 1376 H 121.757 -2.04044 0.150714 0
M  V30 1377 H 121.767 -3.75591 -1.5936 0
M  V30 1378 H 120.442 -4.12846 -0.503129 0
M  V30 1379 H 119.019 -3.12474 -2.03506 0
M  V30 1380 N 121.204 0.198386 -1.56346 0
M  V30 1381 C 122.45 0.916115 -1.81601 0
M  V30 1382 C 122.805 1.81025 -0.651744 0
M  V30 1383 O 122.098 1.88316 0.353229 0
M  V30 1384 C 122.292 1.77031 -3.10475 0
M  V30 1385 C 122.121 0.960365 -4.39326 0
M  V30 1386 C 120.891 0.646093 -5.01152 0
M  V30 1387 C 123.089 0.314628 -5.13337 0
M  V30 1388 N 121.071 -0.182828 -6.13628 0
M  V30 1389 C 122.442 -0.37664 -6.18855 0
M  V30 1390 C 124.497 0.230019 -4.97368 0
M  V30 1391 C 123.2 -1.14445 -7.10137 0
M  V30 1392 C 125.226 -0.524389 -5.89071 0
M  V30 1393 C 124.588 -1.20412 -6.94032 0
M  V30 1394 H 120.687 0.314732 -0.715868 0
M  V30 1395 H 123.271 0.185102 -1.93818 0
M  V30 1396 H 121.442 2.47295 -2.99499 0
M  V30 1397 H 123.174 2.42727 -3.2383 0
M  V30 1398 H 119.929 0.969724 -4.63566 0
M  V30 1399 H 120.353 -0.586802 -6.74452 0
M  V30 1400 H 124.995 0.741184 -4.16253 0
M  V30 1401 H 122.713 -1.66706 -7.90718 0
M  V30 1402 H 126.299 -0.591167 -5.78789 0
M  V30 1403 H 125.179 -1.77853 -7.63766 0
M  V30 1404 N 122.682 1.50554 0.465978 0
M  V30 1405 C 123.612 1.72722 1.57128 0
M  V30 1406 C 124.593 0.576294 1.6004 0
M  V30 1407 O 125.778 0.81598 1.76225 0
M  V30 1408 C 122.908 1.82605 2.95419 0
M  V30 1409 C 121.862 2.97835 3.07373 0
M  V30 1410 C 121.188 2.92867 4.47363 0
M  V30 1411 C 122.488 4.38265 2.84114 0
M  V30 1412 H 124.182 2.65267 1.38829 0
M  V30 1413 H 121.728 1.2765 0.666441 0
M  V30 1414 H 123.681 1.96698 3.72677 0
M  V30 1415 H 122.405 0.866858 3.14886 0
M  V30 1416 H 121.064 2.83401 2.3255 0
M  V30 1417 H 120.712 1.94783 4.63755 0
M  V30 1418 H 120.412 3.70227 4.56296 0
M  V30 1419 H 121.936 3.09015 5.26633 0
M  V30 1420 H 123.35 4.53198 3.51118 0
M  V30 1421 H 121.747 5.17115 3.04487 0
M  V30 1422 H 122.817 4.50281 1.7993 0
M  V30 1423 N 124.16 -0.719506 1.40217 0
M  V30 1424 C 125.09 -1.8465 1.42922 0
M  V30 1425 C 126.071 -1.67599 0.29062 0
M  V30 1426 O 127.256 -1.87688 0.498677 0
M  V30 1427 C 124.386 -3.22565 1.28722 0
M  V30 1428 C 123.34 -3.54281 2.40144 0
M  V30 1429 C 122.666 -4.91298 2.11023 0
M  V30 1430 C 123.966 -3.55676 3.82481 0
M  V30 1431 H 125.66 -1.82644 2.37237 0
M  V30 1432 H 123.206 -0.877305 1.1419 0
M  V30 1433 H 125.159 -4.01095 1.29232 0
M  V30 1434 H 123.883 -3.25137 0.308811 0
M  V30 1435 H 122.542 -2.78088 2.38877 0
M  V30 1436 H 122.19 -4.90468 1.11582 0
M  V30 1437 H 121.89 -5.13485 2.8567 0
M  V30 1438 H 123.414 -5.72166 2.13209 0
M  V30 1439 H 124.828 -4.24254 3.85592 0
M  V30 1440 H 123.225 -3.89388 4.56614 0
M  V30 1441 H 124.295 -2.55144 4.12346 0
M  V30 1442 N 125.638 -1.25649 -0.95132 0
M  V30 1443 C 126.885 -1.10594 -1.69633 0
M  V30 1444 C 127.213 0.352515 -1.91279 0
M  V30 1445 O 126.468 1.27601 -1.4838 0
M  V30 1446 C 126.767 -1.80909 -3.08231 0
M  V30 1447 C 126.433 -3.30825 -3.06375 0
M  V30 1448 C 125.095 -3.71722 -3.05576 0
M  V30 1449 C 127.447 -4.26589 -2.99452 0
M  V30 1450 C 124.775 -5.06788 -2.95606 0
M  V30 1451 C 127.127 -5.61683 -2.91024 0
M  V30 1452 C 125.791 -6.01904 -2.88562 0
M  V30 1453 H 125.061 -0.404691 -0.620731 0
M  V30 1454 H 127.708 -1.55964 -1.11119 0
M  V30 1455 H 126.013 -1.27979 -3.70309 0
M  V30 1456 H 127.71 -1.6671 -3.64704 0
M  V30 1457 H 124.3 -2.98287 -3.07771 0
M  V30 1458 H 128.484 -3.95982 -2.99185 0
M  V30 1459 H 123.74 -5.37126 -2.92071 0
M  V30 1460 H 127.914 -6.35578 -2.84629 0
M  V30 1461 H 125.541 -7.06521 -2.80593 0
M  V30 1462 N 127.117 1.15442 -1.07289 0
M  V30 1463 C 128.08 2.18358 -0.696591 0
M  V30 1464 C 129.08 1.58637 0.262837 0
M  V30 1465 O 130.27 1.74145 0.0438809 0
M  V30 1466 C 127.402 3.4089 -0.0266151 0
M  V30 1467 H 128.595 2.53162 -1.60776 0
M  V30 1468 H 126.148 1.29893 -0.869342 0
M  V30 1469 H 126.883 3.11653 0.896822 0
M  V30 1470 H 126.668 3.85495 -0.716657 0
M  V30 1471 H 128.158 4.17009 0.222028 0
M  V30 1472 N 128.595 0.856903 1.32268 0
M  V30 1473 C 129.528 0.247937 2.26849 0
M  V30 1474 C 130.506 -0.615382 1.50505 0
M  V30 1475 O 131.69 -0.571689 1.79622 0
M  V30 1476 C 128.817 -0.650093 3.32403 0
M  V30 1477 C 127.863 0.140138 4.2627 0
M  V30 1478 S 128.696 1.51004 5.13769 0
M  V30 1479 C 129.852 0.61778 6.22844 0
M  V30 1480 H 130.085 1.04971 2.78152 0
M  V30 1481 H 127.618 0.654665 1.39834 0
M  V30 1482 H 129.576 -1.16256 3.93694 0
M  V30 1483 H 128.237 -1.4257 2.7988 0
M  V30 1484 H 127.43 -0.543945 5.01056 0
M  V30 1485 H 127.032 0.584267 3.69408 0
M  V30 1486 H 129.324 -0.177053 6.77269 0
M  V30 1487 H 130.267 1.33636 6.95375 0
M  V30 1488 H 130.675 0.191124 5.64176 0
M  V30 1489 N 130.073 -1.45103 0.615059 0
M  V30 1490 C 131.036 -2.29025 -0.0895485 0
M  V30 1491 C 132.036 -1.40174 -0.787906 0
M  V30 1492 O 133.226 -1.62217 -0.634933 0
M  V30 1493 C 130.358 -3.21376 -1.13711 0
M  V30 1494 H 131.551 -2.92807 0.648382 0
M  V30 1495 H 129.104 -1.51749 0.374444 0
M  V30 1496 H 129.839 -2.6241 -1.90556 0
M  V30 1497 H 129.624 -3.86834 -0.640475 0
M  V30 1498 H 131.114 -3.84459 -1.63036 0
M  V30 1499 N 131.551 -0.354651 -1.53558 0
M  V30 1500 C 132.797 0.231422 -2.02079 0
M  V30 1501 C 133.152 1.47308 -1.23767 0
M  V30 1502 O 132.445 1.8891 -0.319947 0
M  V30 1503 C 132.639 0.587121 -3.52545 0
M  V30 1504 C 132.468 -0.618513 -4.45426 0
M  V30 1505 C 131.238 -1.12724 -4.92566 0
M  V30 1506 C 133.436 -1.48039 -4.92533 0
M  V30 1507 N 131.418 -2.29404 -5.69427 0
M  V30 1508 C 132.789 -2.49397 -5.67628 0
M  V30 1509 C 134.844 -1.50454 -4.74624 0
M  V30 1510 C 133.547 -3.53013 -6.26717 0
M  V30 1511 C 135.573 -2.52958 -5.34571 0
M  V30 1512 C 134.935 -3.5304 -6.09543 0
M  V30 1513 H 131.034 0.0476909 -0.780544 0
M  V30 1514 H 133.618 -0.496727 -1.88257 0
M  V30 1515 H 131.789 1.28436 -3.6655 0
M  V30 1516 H 133.521 1.15734 -3.87799 0
M  V30 1517 H 130.276 -0.693577 -4.68494 0
M  V30 1518 H 130.7 -2.88347 -6.12524 0
M  V30 1519 H 135.342 -0.744356 -4.16196 0
M  V30 1520 H 133.06 -4.2992 -6.84247 0
M  V30 1521 H 136.646 -2.55667 -5.22614 0
M  V30 1522 H 135.526 -4.31056 -6.55103 0
M  V30 1523 N 133.029 1.57378 -0.0835403 0
M  V30 1524 C 134.275 1.95025 0.577664 0
M  V30 1525 C 134.63 0.964049 1.66505 0
M  V30 1526 O 133.923 -0.0118235 1.91596 0
M  V30 1527 C 134.117 3.37063 1.1884 0
M  V30 1528 C 133.946 4.49409 0.16171 0
M  V30 1529 C 132.716 5.04642 -0.257756 0
M  V30 1530 C 134.914 5.10722 -0.605634 0
M  V30 1531 N 132.896 6.00537 -1.27393 0
M  V30 1532 C 134.267 6.02225 -1.47395 0
M  V30 1533 C 136.322 4.93501 -0.660418 0
M  V30 1534 C 135.025 6.78355 -2.39221 0
M  V30 1535 C 137.051 5.70283 -1.56623 0
M  V30 1536 C 136.413 6.61444 -2.4222 0
M  V30 1537 H 132.512 0.760512 0.182058 0
M  V30 1538 H 135.096 1.94013 -0.163419 0
M  V30 1539 H 133.267 3.3879 1.89936 0
M  V30 1540 H 134.999 3.61917 1.81103 0
M  V30 1541 H 131.754 4.73428 0.127702 0
M  V30 1542 H 132.178 6.53184 -1.77987 0
M  V30 1543 H 136.82 4.22798 -0.0128221 0
M  V30 1544 H 134.538 7.48327 -3.05011 0
M  V30 1545 H 138.124 5.58976 -1.61361 0
M  V30 1546 H 137.004 7.1982 -3.11174 0
M  V30 1547 N 134.507 -0.190092 1.56449 0
M  V30 1548 C 135.437 -1.23816 1.97969 0
M  V30 1549 C 136.418 -1.47201 0.852395 0
M  V30 1550 O 137.603 -1.58854 1.1171 0
M  V30 1551 C 134.733 -2.5813 2.3235 0
M  V30 1552 C 133.687 -2.49348 3.47864 0
M  V30 1553 C 133.013 -3.8798 3.67934 0
M  V30 1554 C 134.313 -2.01424 4.81898 0
M  V30 1555 H 136.007 -0.89311 2.85769 0
M  V30 1556 H 133.553 -0.428177 1.37487 0
M  V30 1557 H 135.506 -3.31637 2.59991 0
M  V30 1558 H 134.23 -2.94386 1.41438 0
M  V30 1559 H 132.889 -1.78297 3.20321 0
M  V30 1560 H 132.537 -4.21597 2.74344 0
M  V30 1561 H 132.237 -3.82978 4.45648 0
M  V30 1562 H 133.761 -4.63101 3.97957 0
M  V30 1563 H 135.175 -2.64693 5.08538 0
M  V30 1564 H 133.572 -2.07413 5.63116 0
M  V30 1565 H 134.642 -0.967677 4.75146 0
M  V30 1566 N 135.985 -1.50799 -0.457987 0
M  V30 1567 C 137.234 -1.6168 -1.20593 0
M  V30 1568 C 137.547 -0.32888 -1.92815 0
M  V30 1569 O 138.753 -0.316773 -2.69646 0
M  V30 1570 C 137.209 -2.8545 -2.19195 0
M  V30 1571 C 136.817 -4.21168 -1.52715 0
M  V30 1572 C 138.561 -3.05681 -2.94549 0
M  V30 1573 C 136.468 -5.3611 -2.4968 0
M  V30 1574 H 135.398 -0.602134 -0.453818 0
M  V30 1575 H 138.049 -1.77245 -0.475031 0
M  V30 1576 H 136.431 -2.63472 -2.95632 0
M  V30 1577 H 137.605 -4.53449 -0.819775 0
M  V30 1578 H 135.92 -4.06648 -0.895922 0
M  V30 1579 H 138.517 -3.88727 -3.67145 0
M  V30 1580 H 138.86 -2.17929 -3.54701 0
M  V30 1581 H 139.393 -3.27901 -2.25223 0
M  V30 1582 H 136.132 -6.26057 -1.94249 0
M  V30 1583 H 135.652 -5.0823 -3.18532 0
M  V30 1584 H 137.331 -5.6722 -3.11241 0
M  V30 1585 N 137.463 0.71206 -1.40597 0
M  V30 1586 C 138.426 1.80785 -1.40888 0
M  V30 1587 C 139.426 1.57937 -0.302103 0
M  V30 1588 O 140.616 1.64913 -0.561182 0
M  V30 1589 C 137.748 3.18927 -1.20409 0
M  V30 1590 H 138.941 1.81924 -2.38419 0
M  V30 1591 H 136.494 0.91805 -1.26497 0
M  V30 1592 H 137.229 3.23436 -0.236522 0
M  V30 1593 H 137.014 3.36911 -2.00582 0
M  V30 1594 H 138.504 3.98949 -1.23408 0
M  V30 1595 N 138.941 1.26152 0.944643 0
M  V30 1596 C 140.188 1.11492 1.69044 0
M  V30 1597 C 140.516 -0.342366 1.91463 0
M  V30 1598 O 139.771 -1.26812 1.49054 0
M  V30 1599 C 140.07 1.82541 3.07268 0
M  V30 1600 C 139.736 3.32445 3.04616 0
M  V30 1601 C 138.398 3.73337 3.036 0
M  V30 1602 C 140.75 4.28171 2.97185 0
M  V30 1603 C 138.078 5.08348 2.92915 0
M  V30 1604 C 140.43 5.63218 2.88041 0
M  V30 1605 C 139.094 6.03426 2.85366 0
M  V30 1606 H 138.364 0.407977 0.618576 0
M  V30 1607 H 141.011 1.56551 1.10291 0
M  V30 1608 H 139.316 1.29941 3.69625 0
M  V30 1609 H 141.013 1.68642 3.63815 0
M  V30 1610 H 137.603 2.99915 3.06185 0
M  V30 1611 H 141.787 3.97563 2.97081 0
M  V30 1612 H 137.043 5.38667 2.89219 0
M  V30 1613 H 141.217 6.37078 2.81254 0
M  V30 1614 H 138.844 7.07999 2.76842 0
M  V30 1615 N 140.419 -1.14872 1.07899 0
M  V30 1616 C 141.382 -2.17986 0.708161 0
M  V30 1617 C 142.382 -1.58775 -0.25442 0
M  V30 1618 O 143.572 -1.74166 -0.034645 0
M  V30 1619 C 140.704 -3.40871 0.0446929 0
M  V30 1620 H 141.897 -2.52306 1.62116 0
M  V30 1621 H 139.45 -1.2943 0.876218 0
M  V30 1622 H 140.185 -3.12124 -0.880281 0
M  V30 1623 H 139.97 -3.8511 0.737091 0
M  V30 1624 H 141.46 -4.17121 -0.19991 0
M  V30 1625 N 141.898 -0.863906 -1.31812 0
M  V30 1626 C 142.848 -0.286898 -2.26188 0
M  V30 1627 C 143.832 0.572577 -1.50367 0
M  V30 1628 O 145.024 0.420447 -1.71934 0
M  V30 1629 C 142.153 0.515849 -3.39402 0
M  V30 1630 C 141.239 -0.356531 -4.22599 0
M  V30 1631 N 141.63 -1.44716 -4.84656 0
M  V30 1632 C 139.928 -0.147898 -4.45755 0
M  V30 1633 C 140.629 -1.98462 -5.46798 0
M  V30 1634 N 139.605 -1.28247 -5.28255 0
M  V30 1635 H 143.407 -1.12055 -2.717 0
M  V30 1636 H 140.921 -0.711012 -1.46008 0
M  V30 1637 H 142.918 0.945701 -4.06032 0
M  V30 1638 H 141.578 1.34718 -2.95434 0
M  V30 1639 H 142.589 -1.83008 -4.84488 0
M  V30 1640 H 139.266 0.647973 -4.12441 0
M  V30 1641 H 140.656 -2.89932 -6.06126 0
M  V30 1642 N 143.376 1.44774 -0.622745 0
M  V30 1643 C 144.624 2.01721 -0.123655 0
M  V30 1644 C 144.945 1.49172 1.25589 0
M  V30 1645 O 144.215 0.691974 1.83272 0
M  V30 1646 H 142.795 0.745777 -0.0427225 0
M  V30 1647 H 145.457 1.77382 -0.807559 0
M  V30 1648 H 144.553 3.11984 -0.0849534 0
M  V30 1649 N 144.854 0.36279 1.53368 0
M  V30 1650 C 146.131 -0.284021 1.93527 0
M  V30 1651 C 146.511 -1.66628 1.29608 0
M  V30 1652 O 145.859 -2.23942 0.45413 0
M  V30 1653 C 146.069 -0.337028 3.47369 0
M  V30 1654 C 147.417 -0.578708 4.20638 0
M  V30 1655 O 148.441 -0.418352 3.53735 0
M  V30 1656 O 147.3 -0.89074 5.39192 0
M  V30 1657 H 144.394 -0.169743 0.809393 0
M  V30 1658 H 146.94 0.41537 1.64538 0
M  V30 1659 H 145.712 0.632217 3.86159 0
M  V30 1660 H 145.335 -1.08243 3.82582 0
M  V30 1661 N 146.332 -1.57332 0.0918853 0
M  V30 1662 C 147.262 -2.16872 -0.865371 0
M  V30 1663 C 148.243 -1.10118 -1.29646 0
M  V30 1664 O 149.428 -1.38242 -1.36392 0
M  V30 1665 C 146.558 -2.74649 -2.12569 0
M  V30 1666 C 145.512 -3.86747 -1.83333 0
M  V30 1667 C 144.838 -4.31212 -3.16166 0
M  V30 1668 C 146.138 -5.10089 -1.1228 0
M  V30 1669 H 147.832 -2.97114 -0.369307 0
M  V30 1670 H 145.378 -1.42918 -0.176194 0
M  V30 1671 H 147.331 -3.14952 -2.7997 0
M  V30 1672 H 146.055 -1.91657 -2.64452 0
M  V30 1673 H 144.714 -3.46978 -1.18331 0
M  V30 1674 H 144.362 -3.45115 -3.6593 0
M  V30 1675 H 144.062 -5.06788 -2.97388 0
M  V30 1676 H 145.586 -4.74146 -3.84731 0
M  V30 1677 H 147 -5.47582 -1.69785 0
M  V30 1678 H 145.397 -5.91073 -1.03693 0
M  V30 1679 H 146.467 -4.84786 -0.105041 0
M  V30 1680 N 147.81 0.181792 -1.56548 0
M  V30 1681 C 148.773 1.20894 -1.94724 0
M  V30 1682 C 149.773 1.37738 -0.829747 0
M  V30 1683 O 150.963 1.35323 -1.09697 0
M  V30 1684 C 148.095 2.57593 -2.23291 0
M  V30 1685 H 149.288 0.882275 -2.86629 0
M  V30 1686 H 146.841 0.423838 -1.50444 0
M  V30 1687 H 147.576 2.95291 -1.34067 0
M  V30 1688 H 147.361 2.46735 -3.04736 0
M  V30 1689 H 148.851 3.31637 -2.53785 0
M  V30 1690 N 149.288 1.51039 0.449983 0
M  V30 1691 C 150.699 1.557 1.03026 0
M  V30 1692 C 151.05 0.372939 1.92623 0
M  V30 1693 O 150.175 -0.511771 2.10261 0
M  V30 1694 C 150.77 2.82171 1.87523 0
M  V30 1695 C 149.329 2.89444 2.40622 0
M  V30 1696 C 148.476 2.50228 1.19504 0
M  V30 1697 H 151.427 1.56999 0.231745 0
M  V30 1698 H 151.448 2.65219 2.72835 0
M  V30 1699 H 150.96 3.68331 1.22286 0
M  V30 1700 H 149.061 2.07685 3.0935 0
M  V30 1701 H 149.174 3.92816 2.74285 0
M  V30 1702 H 147.538 2.03139 1.53644 0
M  V30 1703 H 148.321 3.38719 0.558972 0
M  V30 1704 N 150.766 -0.704594 1.40972 0
M  V30 1705 C 151.991 -1.49858 1.43378 0
M  V30 1706 C 152.416 -1.88061 0.038184 0
M  V30 1707 O 151.774 -1.5402 -0.956425 0
M  V30 1708 C 151.822 -2.74333 2.34038 0
M  V30 1709 O 150.926 -3.7147 1.7912 0
M  V30 1710 H 150.267 -0.45139 0.486974 0
M  V30 1711 H 152.797 -0.866832 1.8533 0
M  V30 1712 H 152.807 -3.22741 2.49604 0
M  V30 1713 H 151.482 -2.45863 3.35446 0
M  V30 1714 H 150.059 -3.30363 1.72958 0
M  V30 1715 N 152.244 -1.26651 -0.937939 0
M  V30 1716 C 153.154 -1.10276 -2.07066 0
M  V30 1717 C 154.17 -0.0354197 -1.73964 0
M  V30 1718 O 155.346 -0.239816 -1.99967 0
M  V30 1719 C 152.411 -0.740887 -3.38691 0
M  V30 1720 C 151.472 -1.88799 -3.85556 0
M  V30 1721 C 150.705 -1.54329 -5.10899 0
M  V30 1722 O 150.928 -0.446494 -5.6865 0
M  V30 1723 O 149.862 -2.37911 -5.52885 0
M  V30 1724 H 153.688 -2.05309 -2.23789 0
M  V30 1725 H 151.273 -1.05743 -1.0554 0
M  V30 1726 H 153.155 -0.55195 -4.1777 0
M  V30 1727 H 151.83 0.180022 -3.23199 0
M  V30 1728 H 150.737 -2.13191 -3.07409 0
M  V30 1729 H 152.07 -2.78874 -4.05574 0
M  V30 1730 N 153.722 1.14298 -1.08507 0
M  V30 1731 C 154.97 1.84993 -0.813763 0
M  V30 1732 C 155.291 1.83405 0.662393 0
M  V30 1733 O 154.561 1.28319 1.48024 0
M  V30 1734 H 153.141 0.684966 -0.298045 0
M  V30 1735 H 155.803 1.385 -1.37126 0
M  V30 1736 H 154.899 2.89788 -1.15884 0
M  V30 1737 N 155.201 0.870884 1.31352 0
M  V30 1738 C 156.429 0.49677 2.00848 0
M  V30 1739 C 156.844 -0.910998 1.65367 0
M  V30 1740 O 156.201 -1.59696 0.883374 0
M  V30 1741 C 156.252 0.645308 3.55694 0
M  V30 1742 O 155.973 1.99764 3.89905 0
M  V30 1743 C 157.474 0.272326 4.42463 0
M  V30 1744 H 154.694 0.193462 0.642506 0
M  V30 1745 H 157.238 1.1723 1.67563 0
M  V30 1746 H 155.393 0.0173176 3.87396 0
M  V30 1747 H 155.807 2.00607 4.84621 0
M  V30 1748 H 157.281 0.427208 5.50344 0
M  V30 1749 H 157.758 -0.788587 4.32062 0
M  V30 1750 H 158.364 0.876054 4.1618 0
M  V30 1751 N 156.679 -1.44442 0.630414 0
M  V30 1752 C 157.642 -2.29107 -0.0652523 0
M  V30 1753 C 158.642 -1.41002 -0.772995 0
M  V30 1754 O 159.832 -1.62881 -0.617692 0
M  V30 1755 C 156.964 -3.22564 -1.10296 0
M  V30 1756 H 158.157 -2.92103 0.679401 0
M  V30 1757 H 155.71 -1.51343 0.390517 0
M  V30 1758 H 156.445 -2.64416 -1.87762 0
M  V30 1759 H 156.23 -3.87491 -0.59941 0
M  V30 1760 H 157.72 -3.86167 -1.5895 0
M  V30 1761 N 158.157 -0.370918 -1.53173 0
M  V30 1762 C 159.067 0.480823 -2.2962 0
M  V30 1763 C 160.083 1.08789 -1.35798 0
M  V30 1764 O 161.259 1.09768 -1.68858 0
M  V30 1765 C 158.324 1.60227 -3.07454 0
M  V30 1766 C 157.385 1.0222 -4.16953 0
M  V30 1767 C 156.618 2.0902 -4.91066 0
M  V30 1768 O 156.841 3.30222 -4.65091 0
M  V30 1769 O 155.775 1.71778 -5.76867 0
M  V30 1770 H 159.601 -0.141421 -3.03371 0
M  V30 1771 H 157.186 -0.135146 -1.48787 0
M  V30 1772 H 159.068 2.25417 -3.56041 0
M  V30 1773 H 157.743 2.20982 -2.36535 0
M  V30 1774 H 156.65 0.334064 -3.72605 0
M  V30 1775 H 157.983 0.459131 -4.90054 0
M  V30 1776 N 159.635 1.57281 -0.100228 0
M  V30 1777 C 161.046 1.81725 0.428107 0
M  V30 1778 C 161.397 1.01619 1.67833 0
M  V30 1779 O 160.522 0.247098 2.14985 0
M  V30 1780 C 161.117 3.29617 0.78347 0
M  V30 1781 C 159.676 3.54808 1.25653 0
M  V30 1782 C 158.823 2.76118 0.255752 0
M  V30 1783 H 161.774 1.55324 -0.325608 0
M  V30 1784 H 161.795 3.4322 1.64256 0
M  V30 1785 H 161.307 3.87893 -0.12665 0
M  V30 1786 H 159.408 3.01868 2.18418 0
M  V30 1787 H 159.521 4.63443 1.21482 0
M  V30 1788 H 157.885 2.43745 0.738956 0
M  V30 1789 H 158.668 3.37145 -0.647136 0
M  V30 1790 N 161.113 -0.173488 1.56642 0
M  V30 1791 C 162.353 -0.896984 1.83667 0
M  V30 1792 C 162.717 -1.79523 0.680842 0
M  V30 1793 O 163.918 -2.55616 0.831488 0
M  V30 1794 C 162.189 -1.67351 3.15798 0
M  V30 1795 S 163.748 -2.44607 3.64298 0
M  V30 1796 H 160.566 -0.300464 0.644393 0
M  V30 1797 H 163.168 -0.158775 1.94854 0
M  V30 1798 H 161.872 -1.00462 3.97914 0
M  V30 1799 H 161.403 -2.45313 3.07546 0
M  V30 1800 H 163.418 -3.69261 3.31452 0
M  V30 1801 N 162.591 -1.51276 -0.441967 0
M  V30 1802 C 163.837 -1.63958 -1.19355 0
M  V30 1803 C 164.17 -0.352543 -1.90973 0
M  V30 1804 O 163.445 0.647627 -1.83401 0
M  V30 1805 C 163.728 -2.83979 -2.21422 0
M  V30 1806 C 163.581 -4.22646 -1.53918 0
M  V30 1807 C 164.9 -2.99521 -3.22451 0
M  V30 1808 H 162.019 -0.596709 -0.432559 0
M  V30 1809 H 164.661 -1.83748 -0.483398 0
M  V30 1810 H 162.811 -2.67237 -2.81987 0
M  V30 1811 H 164.483 -4.51045 -0.967256 0
M  V30 1812 H 162.726 -4.25558 -0.841615 0
M  V30 1813 H 163.397 -5.02609 -2.28229 0
M  V30 1814 H 165.873 -3.14944 -2.71937 0
M  V30 1815 H 164.749 -3.85072 -3.91166 0
M  V30 1816 H 165.01 -2.11391 -3.88287 0
M  V30 1817 N 164.069 0.697108 -1.41344 0
M  V30 1818 C 165.297 1.48593 -1.43972 0
M  V30 1819 C 165.712 1.88747 -0.0445612 0
M  V30 1820 O 165.069 1.56682 0.935785 0
M  V30 1821 C 165.12 2.74946 -2.34706 0
M  V30 1822 O 164.841 2.36484 -3.68791 0
M  V30 1823 C 166.342 3.687 -2.46121 0
M  V30 1824 H 163.562 0.457964 -0.490418 0
M  V30 1825 H 166.106 0.858429 -1.8561 0
M  V30 1826 H 164.261 3.33937 -1.9638 0
M  V30 1827 H 164.675 3.17918 -4.17167 0
M  V30 1828 H 166.149 4.54145 -3.13777 0
M  V30 1829 H 166.626 4.13081 -1.49199 0
M  V30 1830 H 167.232 3.15613 -2.85076 0
M  V30 1831 N 165.547 1.27147 0.931209 0
M  V30 1832 C 166.772 1.16191 1.71797 0
M  V30 1833 C 167.197 -0.278004 1.86034 0
M  V30 1834 O 166.555 -1.20137 1.35782 0
M  V30 1835 C 166.603 1.84673 3.09723 0
M  V30 1836 O 165.707 1.14231 3.96264 0
M  V30 1837 H 165.048 0.404303 0.526721 0
M  V30 1838 H 167.578 1.68152 1.1656 0
M  V30 1839 H 167.588 1.91893 3.60057 0
M  V30 1840 H 166.263 2.89421 2.98677 0
M  V30 1841 H 164.84 1.15056 3.54706 0
M  V30 1842 N 167.025 -1.13721 1.09112 0
M  V30 1843 C 168.274 -1.84275 0.82009 0
M  V30 1844 C 168.587 -1.84253 -0.656509 0
M  V30 1845 O 169.793 -2.50668 -1.04296 0
M  V30 1846 C 168.249 -3.30825 1.41714 0
M  V30 1847 C 167.857 -3.39244 2.92605 0
M  V30 1848 C 169.601 -4.06443 1.22492 0
M  V30 1849 C 167.508 -4.80047 3.45411 0
M  V30 1850 H 166.438 -0.690387 0.30312 0
M  V30 1851 H 169.089 -1.28146 1.31343 0
M  V30 1852 H 167.471 -3.86737 0.851498 0
M  V30 1853 H 168.645 -2.93344 3.55367 0
M  V30 1854 H 166.96 -2.77088 3.10823 0
M  V30 1855 H 169.557 -5.10387 1.59402 0
M  V30 1856 H 169.9 -4.15972 0.165299 0
M  V30 1857 H 170.433 -3.56852 1.75788 0
M  V30 1858 H 167.172 -4.75709 4.50978 0
M  V30 1859 H 166.692 -5.26455 2.87411 0
M  V30 1860 H 168.371 -5.48957 3.42425 0
M  V30 1861 N 168.503 -0.877838 -1.30888 0
M  V30 1862 C 169.453 -0.310872 -2.25871 0
M  V30 1863 C 170.437 0.556596 -1.50966 0
M  V30 1864 O 171.629 0.402187 -1.7237 0
M  V30 1865 C 168.758 0.479821 -3.3993 0
M  V30 1866 C 167.844 -0.401333 -4.22197 0
M  V30 1867 N 168.235 -1.49848 -4.83093 0
M  V30 1868 C 166.533 -0.195167 -4.45573 0
M  V30 1869 C 167.234 -2.0425 -5.44662 0
M  V30 1870 N 166.21 -1.33843 -5.26865 0
M  V30 1871 H 170.012 -1.1493 -2.70496 0
M  V30 1872 H 167.526 -0.726458 -1.45246 0
M  V30 1873 H 169.523 0.902582 -4.07012 0
M  V30 1874 H 168.183 1.31577 -2.96846 0
M  V30 1875 H 169.194 -1.88137 -4.82519 0
M  V30 1876 H 165.871 0.604192 -4.13105 0
M  V30 1877 H 167.261 -2.96345 -6.03017 0
M  V30 1878 N 169.982 1.44106 -0.638065 0
M  V30 1879 C 171.207 2.0685 -0.150916 0
M  V30 1880 C 171.632 1.47417 1.16833 0
M  V30 1881 O 170.99 0.578264 1.71831 0
M  V30 1882 C 171.038 3.60555 -0.05708 0
M  V30 1883 O 170.142 4.00465 0.984972 0
M  V30 1884 H 169.483 0.658151 -0.0879399 0
M  V30 1885 H 172.013 1.84865 -0.876707 0
M  V30 1886 H 172.023 4.07789 0.131232 0
M  V30 1887 H 170.698 4.03193 -1.02021 0
M  V30 1888 H 169.275 3.64849 0.770672 0
M  V30 1889 N 171.46 0.379036 1.52974 0
M  V30 1890 C 172.707 -0.206421 2.01445 0
M  V30 1891 C 173.035 -1.47668 1.26587 0
M  V30 1892 O 172.29 -1.92514 0.351675 0
M  V30 1893 C 172.589 -0.53096 3.53434 0
M  V30 1894 C 172.255 0.646546 4.46241 0
M  V30 1895 C 170.917 0.969604 4.7133 0
M  V30 1896 C 173.269 1.43479 5.01062 0
M  V30 1897 C 170.597 2.08263 5.48492 0
M  V30 1898 C 172.949 2.53834 5.7944 0
M  V30 1899 C 171.613 2.86659 6.02812 0
M  V30 1900 H 170.883 -0.0755349 0.73714 0
M  V30 1901 H 173.53 0.514271 1.84465 0
M  V30 1902 H 171.835 -1.33285 3.68432 0
M  V30 1903 H 173.532 -0.996417 3.88423 0
M  V30 1904 H 170.122 0.384734 4.2687 0
M  V30 1905 H 174.306 1.19844 4.81613 0
M  V30 1906 H 169.562 2.34078 5.64816 0
M  V30 1907 H 173.736 3.15319 6.20924 0
M  V30 1908 H 171.363 3.73026 6.62387 0
M  V30 1909 N 172.938 -1.57226 0.108567 0
M  V30 1910 C 174.163 -1.99604 -0.563303 0
M  V30 1911 C 174.588 -0.987563 -1.6009 0
M  V30 1912 O 173.946 0.0421687 -1.81251 0
M  V30 1913 C 173.994 -3.40902 -1.17552 0
M  V30 1914 O 173.098 -3.42896 -2.2912 0
M  V30 1915 H 172.439 -0.648704 -0.1417 0
M  V30 1916 H 174.969 -2.03679 0.193961 0
M  V30 1917 H 174.979 -3.78886 -1.51357 0
M  V30 1918 H 173.654 -4.1382 -0.415445 0
M  V30 1919 H 172.231 -3.1672 -1.96832 0
M  V30 1920 N 174.416 0.165178 -1.56732 0
M  V30 1921 C 175.641 0.900253 -1.86843 0
M  V30 1922 C 176.066 1.74766 -0.695596 0
M  V30 1923 O 175.424 1.77786 0.35522 0
M  V30 1924 C 175.472 1.74777 -3.15413 0
M  V30 1925 O 174.576 2.85007 -2.98068 0
M  V30 1926 H 173.917 0.251832 -0.614391 0
M  V30 1927 H 176.447 0.161468 -2.03962 0
M  V30 1928 H 176.457 2.14646 -3.46974 0
M  V30 1929 H 175.132 1.12537 -4.00385 0
M  V30 1930 H 173.709 2.48676 -2.77875 0
M  V30 1931 N 175.894 1.51508 0.433938 0
M  V30 1932 C 176.857 1.72473 1.50949 0
M  V30 1933 C 177.857 0.594725 1.49398 0
M  V30 1934 O 179.047 0.862315 1.5136 0
M  V30 1935 C 176.179 1.78431 2.90474 0
M  V30 1936 H 177.372 2.68467 1.33662 0
M  V30 1937 H 174.925 1.41549 0.662836 0
M  V30 1938 H 175.66 0.842645 3.13161 0
M  V30 1939 H 175.445 2.60558 2.93005 0
M  V30 1940 H 176.935 1.96479 3.68491 0
M  V30 1941 N 177.372 -0.689602 1.41712 0
M  V30 1942 C 178.619 -1.44966 1.4139 0
M  V30 1943 C 178.947 -1.94484 0.025105 0
M  V30 1944 O 178.202 -1.70307 -0.964048 0
M  V30 1945 C 178.501 -2.67298 2.37247 0
M  V30 1946 C 178.167 -2.36405 3.83958 0
M  V30 1947 C 176.829 -2.27691 4.23923 0
M  V30 1948 C 179.181 -2.11043 4.76561 0
M  V30 1949 C 176.509 -1.91719 5.54492 0
M  V30 1950 C 178.861 -1.76578 6.07456 0
M  V30 1951 C 177.525 -1.66363 6.46436 0
M  V30 1952 H 176.795 -0.53047 0.517381 0
M  V30 1953 H 179.442 -0.787655 1.74552 0
M  V30 1954 H 177.747 -3.38461 1.9736 0
M  V30 1955 H 179.444 -3.25452 2.34269 0
M  V30 1956 H 176.034 -2.44085 3.52308 0
M  V30 1957 H 180.218 -2.16717 4.46483 0
M  V30 1958 H 175.474 -1.82367 5.83568 0
M  V30 1959 H 179.648 -1.55974 6.78708 0
M  V30 1960 H 177.275 -1.38258 7.47522 0
M  V30 1961 N 178.85 -1.27639 -0.924453 0
M  V30 1962 C 179.78 -1.13166 -2.04244 0
M  V30 1963 C 180.761 -0.032256 -1.70069 0
M  V30 1964 O 181.946 -0.207328 -1.9309 0
M  V30 1965 C 179.076 -0.781496 -3.38393 0
M  V30 1966 C 178.03 -1.83449 -3.86692 0
M  V30 1967 C 177.356 -1.33822 -5.17683 0
M  V30 1968 C 178.656 -3.23917 -4.09726 0
M  V30 1969 H 180.35 -2.06689 -2.1661 0
M  V30 1970 H 177.896 -0.995136 -1.04082 0
M  V30 1971 H 179.849 -0.667057 -4.16087 0
M  V30 1972 H 178.573 0.189439 -3.2605 0
M  V30 1973 H 177.232 -1.93789 -3.11193 0
M  V30 1974 H 176.88 -0.35665 -5.01734 0
M  V30 1975 H 176.58 -2.04224 -5.50968 0
M  V30 1976 H 178.104 -1.23679 -5.97943 0
M  V30 1977 H 179.518 -3.16559 -4.77978 0
M  V30 1978 H 177.915 -3.92059 -4.54324 0
M  V30 1979 H 178.985 -3.68729 -3.14908 0
M  V30 1980 N 180.328 1.1314 -1.09713 0
M  V30 1981 C 181.575 1.84484 -0.834987 0
M  V30 1982 C 181.903 1.83689 0.639418 0
M  V30 1983 O 181.158 1.2724 1.4869 0
M  V30 1984 C 181.457 3.32167 -1.3191 0
M  V30 1985 C 181.123 3.53139 -2.80363 0
M  V30 1986 C 179.785 3.58571 -3.20905 0
M  V30 1987 C 182.137 3.60866 -3.76065 0
M  V30 1988 C 179.465 3.69267 -4.55916 0
M  V30 1989 C 181.817 3.73089 -5.10869 0
M  V30 1990 C 180.481 3.76775 -5.50996 0
M  V30 1991 H 179.751 0.675073 -0.305544 0
M  V30 1992 H 182.398 1.33554 -1.37243 0
M  V30 1993 H 180.703 3.85469 -0.701517 0
M  V30 1994 H 182.4 3.85821 -1.09284 0
M  V30 1995 H 178.99 3.49569 -2.47991 0
M  V30 1996 H 183.174 3.55946 -3.45855 0
M  V30 1997 H 178.43 3.70388 -4.86438 0
M  V30 1998 H 182.604 3.78011 -5.84877 0
M  V30 1999 H 180.231 3.84815 -6.55608 0
M  V30 2000 N 181.806 0.884767 1.30421 0
M  V30 2001 C 183.031 0.517288 2.00845 0
M  V30 2002 C 183.456 -0.886779 1.65885 0
M  V30 2003 O 182.814 -1.58768 0.875354 0
M  V30 2004 C 182.862 0.698994 3.5376 0
M  V30 2005 O 181.966 -0.255208 4.1161 0
M  V30 2006 H 181.307 0.203872 0.631927 0
M  V30 2007 H 183.837 1.19225 1.66272 0
M  V30 2008 H 183.847 0.597912 4.03595 0
M  V30 2009 H 182.522 1.72271 3.78544 0
M  V30 2010 H 181.099 -0.10784 3.72744 0
M  V30 2011 N 183.284 -1.43765 0.645699 0
M  V30 2012 C 184.533 -2.01116 0.153412 0
M  V30 2013 C 184.846 -1.51493 -1.23731 0
M  V30 2014 O 186.052 -2.01067 -1.8244 0
M  V30 2015 C 184.508 -3.59206 0.223473 0
M  V30 2016 C 184.116 -4.17823 1.61642 0
M  V30 2017 C 185.86 -4.23972 -0.211597 0
M  V30 2018 C 183.767 -5.68183 1.64081 0
M  V30 2019 H 182.697 -0.752093 0.0535891 0
M  V30 2020 H 185.348 -1.6482 0.806633 0
M  V30 2021 H 183.73 -3.92867 -0.497118 0
M  V30 2022 H 184.904 -3.95674 2.36176 0
M  V30 2023 H 183.219 -3.65399 1.99681 0
M  V30 2024 H 185.816 -5.34275 -0.213112 0
M  V30 2025 H 186.159 -3.97352 -1.24165 0
M  V30 2026 H 186.692 -3.95166 0.456988 0
M  V30 2027 H 183.431 -5.99559 2.64971 0
M  V30 2028 H 182.951 -5.9241 0.938611 0
M  V30 2029 H 184.63 -6.32085 1.3812 0
M  V30 2030 N 184.763 -0.387143 -1.52771 0
M  V30 2031 C 185.673 0.456442 -2.30117 0
M  V30 2032 C 186.689 1.07342 -1.36944 0
M  V30 2033 O 187.865 1.07971 -1.70013 0
M  V30 2034 C 184.93 1.56957 -3.09136 0
M  V30 2035 C 183.991 0.977916 -4.18014 0
M  V30 2036 C 183.224 2.038 -4.93256 0
M  V30 2037 O 183.447 3.25271 -4.68567 0
M  V30 2038 O 182.381 1.6565 -5.78657 0
M  V30 2039 H 186.207 -0.17359 -3.03203 0
M  V30 2040 H 183.792 -0.150919 -1.48636 0
M  V30 2041 H 185.674 2.21628 -3.58412 0
M  V30 2042 H 184.349 2.18461 -2.38865 0
M  V30 2043 H 183.256 0.294525 -3.72939 0
M  V30 2044 H 184.589 0.407128 -4.90513 0
M  V30 2045 N 186.241 1.57166 -0.116904 0
M  V30 2046 C 187.487 1.95412 0.542405 0
M  V30 2047 C 187.82 1.00019 1.66463 0
M  V30 2048 O 187.095 0.0370346 1.94465 0
M  V30 2049 C 187.378 3.43615 1.07708 0
M  V30 2050 C 187.231 4.49781 -0.0415868 0
M  V30 2051 C 188.55 3.93616 1.96861 0
M  V30 2052 H 185.669 0.710543 0.195696 0
M  V30 2053 H 188.311 1.89027 -0.192038 0
M  V30 2054 H 186.461 3.49187 1.70296 0
M  V30 2055 H 188.133 4.56308 -0.676793 0
M  V30 2056 H 186.376 4.28033 -0.705019 0
M  V30 2057 H 187.047 5.50733 0.373717 0
M  V30 2058 H 189.523 3.90335 1.44146 0
M  V30 2059 H 188.399 4.97838 2.3119 0
M  V30 2060 H 188.66 3.34188 2.89432 0
M  V30 2061 N 187.719 -0.156864 1.56817 0
M  V30 2062 C 188.651 -1.21883 1.94106 0
M  V30 2063 C 189.664 -1.3971 0.835754 0
M  V30 2064 O 190.853 -1.39457 1.11418 0
M  V30 2065 C 187.953 -2.58527 2.19127 0
M  V30 2066 C 187.126 -2.61809 3.50393 0
M  V30 2067 C 186.185 -3.7992 3.64071 0
M  V30 2068 O 185.211 -3.65249 4.36557 0
M  V30 2069 N 186.413 -4.96973 2.99997 0
M  V30 2070 H 189.178 -0.901974 2.85805 0
M  V30 2071 H 186.739 -0.346513 1.58148 0
M  V30 2072 H 188.731 -3.36034 2.25529 0
M  V30 2073 H 187.301 -2.82545 1.33742 0
M  V30 2074 H 186.521 -1.7029 3.5552 0
M  V30 2075 H 187.809 -2.61024 4.36742 0
M  V30 2076 H 187.207 -5.11794 2.41004 0
M  V30 2077 H 185.764 -5.7229 3.11974 0
M  V30 2078 N 189.197 -1.51736 -0.425897 0
M  V30 2079 C 190.443 -1.65214 -1.1761 0
M  V30 2080 C 190.776 -0.372778 -1.90589 0
M  V30 2081 O 190.051 0.628139 -1.84078 0
M  V30 2082 C 190.334 -2.86312 -2.18398 0
M  V30 2083 C 190.187 -4.24254 -1.49426 0
M  V30 2084 C 191.506 -3.02925 -3.19256 0
M  V30 2085 H 188.625 -0.601263 -0.426206 0
M  V30 2086 H 191.267 -1.8425 -0.463882 0
M  V30 2087 H 189.417 -2.70213 -2.79137 0
M  V30 2088 H 191.089 -4.52046 -0.919362 0
M  V30 2089 H 189.332 -4.26426 -0.796432 0
M  V30 2090 H 190.003 -5.05001 -2.22885 0
M  V30 2091 H 192.479 -3.1781 -2.68581 0
M  V30 2092 H 191.355 -3.89199 -3.8706 0
M  V30 2093 H 191.616 -2.15497 -3.86023 0
M  V30 2094 N 190.675 0.682077 -1.42076 0
M  V30 2095 C 191.903 1.47057 -1.4554 0
M  V30 2096 C 192.318 1.8869 -0.0645779 0
M  V30 2097 O 191.675 1.57666 0.919115 0
M  V30 2098 C 191.726 2.72442 -2.37609 0
M  V30 2099 O 191.447 2.32559 -3.71279 0
M  V30 2100 C 192.948 3.66069 -2.50017 0
M  V30 2101 H 190.168 0.452737 -0.495248 0
M  V30 2102 H 192.712 0.838695 -1.8651 0
M  V30 2103 H 190.867 3.31835 -1.9991 0
M  V30 2104 H 191.281 3.13475 -4.20516 0
M  V30 2105 H 192.755 4.50792 -3.18576 0
M  V30 2106 H 193.232 4.11476 -1.53572 0
M  V30 2107 H 193.838 3.12572 -2.88407 0
M  V30 2108 N 192.153 1.28127 0.917671 0
M  V30 2109 C 193.402 1.14432 1.66097 0
M  V30 2110 C 193.715 -0.307247 1.93172 0
M  V30 2111 O 194.921 -0.565259 2.65551 0
M  V30 2112 C 193.377 2.00015 2.99202 0
M  V30 2113 C 192.985 3.49889 2.79789 0
M  V30 2114 C 194.729 1.94996 3.77064 0
M  V30 2115 C 192.636 4.27636 4.08511 0
M  V30 2116 H 191.566 0.424662 0.62304 0
M  V30 2117 H 194.217 1.52628 1.01868 0
M  V30 2118 H 192.599 1.54672 3.64544 0
M  V30 2119 H 193.773 4.03162 2.23152 0
M  V30 2120 H 192.088 3.56392 2.15345 0
M  V30 2121 H 194.685 2.50354 4.72469 0
M  V30 2122 H 195.028 0.925819 4.05875 0
M  V30 2123 H 195.561 2.38287 3.18534 0
M  V30 2124 H 192.3 5.30615 3.84874 0
M  V30 2125 H 191.82 3.79137 4.64774 0
M  V30 2126 H 193.499 4.37346 4.76799 0
M  V30 2127 N 193.631 -1.12557 1.10312 0
M  V30 2128 C 194.879 -1.83675 0.843091 0
M  V30 2129 C 195.2 -1.84435 -0.633131 0
M  V30 2130 O 194.47 -1.30657 -1.45964 0
M  V30 2131 H 193.05 -0.680138 0.308904 0
M  V30 2132 H 195.712 -1.36301 1.39313 0
M  V30 2133 H 194.808 -2.87908 1.2048 0
M  V30 2134 N 195.109 -0.891671 -1.2995 0
M  V30 2135 C 196.356 -0.513501 -1.95881 0
M  V30 2136 C 196.684 0.938655 -1.70351 0
M  V30 2137 O 195.939 1.67936 -1.00478 0
M  V30 2138 C 196.238 -0.742868 -3.49594 0
M  V30 2139 C 195.904 -2.17114 -3.95186 0
M  V30 2140 C 194.566 -2.56169 -4.07346 0
M  V30 2141 C 196.918 -3.10162 -4.18866 0
M  V30 2142 C 194.246 -3.87469 -4.4055 0
M  V30 2143 C 196.598 -4.41001 -4.53542 0
M  V30 2144 C 195.262 -4.79941 -4.63911 0
M  V30 2145 H 194.532 -0.187903 -0.71678 0
M  V30 2146 H 197.179 -1.1288 -1.54694 0
M  V30 2147 H 195.484 -0.044586 -3.91775 0
M  V30 2148 H 197.181 -0.429767 -3.9869 0
M  V30 2149 H 193.771 -1.85801 -3.86233 0
M  V30 2150 H 197.955 -2.81206 -4.08946 0
M  V30 2151 H 193.211 -4.17371 -4.46779 0
M  V30 2152 H 197.385 -5.13133 -4.70815 0
M  V30 2153 H 195.012 -5.81719 -4.89395 0
M  V30 2154 N 196.587 1.43421 -0.653314 0
M  V30 2155 C 197.835 2.01414 -0.166415 0
M  V30 2156 C 198.156 1.51803 1.22397 0
M  V30 2157 O 197.426 0.730693 1.81763 0
M  V30 2158 H 196.006 0.744703 -0.0585319 0
M  V30 2159 H 198.668 1.75629 -0.845003 0
M  V30 2160 H 197.764 3.11734 -0.151111 0
M  V30 2161 N 198.065 0.39524 1.52563 0
M  V30 2162 C 199.313 -0.184678 2.01254 0
M  V30 2163 C 199.634 -1.46822 1.28329 0
M  V30 2164 O 198.904 -1.91666 0.405094 0
M  V30 2165 H 197.484 -0.0712355 0.743596 0
M  V30 2166 H 200.146 0.528293 1.87603 0
M  V30 2167 H 199.242 -0.390681 3.09645 0
M  V30 2168 N 199.544 -1.57102 0.125237 0
M  V30 2169 C 200.96 -1.57915 -0.231322 0
M  V30 2170 C 201.16 -1.13833 -1.66266 0
M  V30 2171 O 200.216 -0.828581 -2.38518 0
M  V30 2172 C 201.529 -3.00699 0.00766489 0
M  V30 2173 C 203.077 -3.12947 -0.0577483 0
M  V30 2174 C 203.552 -4.57742 0.153626 0
M  V30 2175 N 205.043 -4.63092 0.0998073 0
M  V30 2176 C 205.778 -5.72905 0.238174 0
M  V30 2177 N 205.274 -6.91445 0.433057 0
M  V30 2178 N 207.067 -5.6182 0.177308 0
M  V30 2179 H 199.218 -1.84055 1.06007 0
M  V30 2180 H 201.481 -0.850905 0.417929 0
M  V30 2181 H 201.187 -3.3726 0.997431 0
M  V30 2182 H 201.061 -3.70236 -0.721452 0
M  V30 2183 H 203.448 -2.7624 -1.03804 0
M  V30 2184 H 203.529 -2.4594 0.70335 0
M  V30 2185 H 203.173 -4.95149 1.13092 0
M  V30 2186 H 203.103 -5.22848 -0.627534 0
M  V30 2187 H 205.594 -3.77871 -0.047051 0
M  V30 2188 H 205.907 -7.70985 0.529332 0
M  V30 2189 H 204.252 -6.93415 0.469109 0
M  V30 2190 H 207.443 -4.68093 0.0259748 0
M  V30 2191 H 207.616 -6.47357 0.288582 0
M  V30 2192 N 201.022 0.148545 -1.56898 0
M  V30 2193 C 201.955 1.21293 -1.93296 0
M  V30 2194 C 202.933 1.41637 -0.798599 0
M  V30 2195 O 204.117 1.56275 -1.05406 0
M  V30 2196 C 201.244 2.5721 -2.20365 0
M  V30 2197 C 200.29 2.53469 -3.4301 0
M  V30 2198 S 201.123 2.00315 -4.96623 0
M  V30 2199 C 202.279 3.37964 -5.26812 0
M  V30 2200 H 202.512 0.902393 -2.83274 0
M  V30 2201 H 200.045 0.354094 -1.50285 0
M  V30 2202 H 202.003 3.35427 -2.36641 0
M  V30 2203 H 200.664 2.85454 -1.31054 0
M  V30 2204 H 199.857 3.53518 -3.59223 0
M  V30 2205 H 199.459 1.83359 -3.25968 0
M  V30 2206 H 201.751 4.34066 -5.20185 0
M  V30 2207 H 202.694 3.26606 -6.28279 0
M  V30 2208 H 203.102 3.35028 -4.54331 0
M  V30 2209 N 202.5 1.5196 0.417844 0
M  V30 2210 C 203.746 1.65836 1.16732 0
M  V30 2211 C 204.079 0.382881 1.90388 0
M  V30 2212 O 203.354 -0.618368 1.84408 0
M  V30 2213 C 203.637 2.87466 2.16876 0
M  V30 2214 C 203.49 4.25041 1.47174 0
M  V30 2215 C 204.809 3.04613 3.17646 0
M  V30 2216 H 201.928 0.603515 0.423011 0
M  V30 2217 H 204.57 1.84494 0.454105 0
M  V30 2218 H 202.72 2.71689 2.777 0
M  V30 2219 H 204.392 4.52527 0.895376 0
M  V30 2220 H 202.635 4.26843 0.773806 0
M  V30 2221 H 203.306 5.06176 2.20204 0
M  V30 2222 H 205.782 3.1923 2.66892 0
M  V30 2223 H 204.658 3.91247 3.8499 0
M  V30 2224 H 204.919 2.17541 3.84874 0
M  V30 2225 N 203.978 -0.674533 1.42435 0
M  V30 2226 C 205.206 -1.46283 1.46317 0
M  V30 2227 C 205.621 -1.88653 0.0745836 0
M  V30 2228 O 204.978 -1.58151 -0.91074 0
M  V30 2229 C 205.029 -2.71178 2.3905 0
M  V30 2230 O 204.75 -2.30586 3.72507 0
M  V30 2231 C 206.251 -3.64738 2.51955 0
M  V30 2232 H 203.471 -0.450104 0.497642 0
M  V30 2233 H 206.015 -0.828792 1.86953 0
M  V30 2234 H 204.17 -3.3077 2.01667 0
M  V30 2235 H 204.584 -3.11241 4.22172 0
M  V30 2236 H 206.058 -4.49096 3.20962 0
M  V30 2237 H 206.535 -4.10656 1.55752 0
M  V30 2238 H 207.141 -3.11038 2.90061 0
M  V30 2239 N 205.456 -1.28612 -0.910864 0
M  V30 2240 C 206.366 -1.14643 -2.0468 0
M  V30 2241 C 207.382 -0.0723121 -1.7385 0
M  V30 2242 O 208.558 -0.282178 -1.99413 0
M  V30 2243 C 205.623 -0.812561 -3.37044 0
M  V30 2244 C 204.684 -1.96935 -3.81465 0
M  V30 2245 C 203.917 -1.65131 -5.07511 0
M  V30 2246 O 204.14 -0.567013 -5.67575 0
M  V30 2247 O 203.074 -2.49585 -5.47714 0
M  V30 2248 H 206.9 -2.1001 -2.19384 0
M  V30 2249 H 204.485 -1.07958 -1.03274 0
M  V30 2250 H 206.367 -0.640441 -4.16505 0
M  V30 2251 H 205.042 0.111426 -3.23508 0
M  V30 2252 H 203.949 -2.19664 -3.02818 0
M  V30 2253 H 205.282 -2.87414 -3.99567 0
M  V30 2254 N 206.934 1.1197 -1.10907 0
M  V30 2255 C 207.844 2.21433 -0.774896 0
M  V30 2256 C 208.86 1.72478 0.229657 0
M  V30 2257 O 210.036 2.01288 0.0672008 0
M  V30 2258 C 207.101 3.4602 -0.216986 0
M  V30 2259 C 206.162 4.09791 -1.27944 0
M  V30 2260 C 205.395 5.28431 -0.748055 0
M  V30 2261 O 205.618 5.68823 0.423833 0
M  V30 2262 O 204.552 5.82644 -1.51027 0
M  V30 2263 H 208.378 2.5242 -1.68873 0
M  V30 2264 H 205.963 1.20399 -0.884555 0
M  V30 2265 H 207.845 4.21304 0.090059 0
M  V30 2266 H 206.52 3.16698 0.669633 0
M  V30 2267 H 205.427 3.36265 -1.63941 0
M  V30 2268 H 206.76 4.4328 -2.13925 0
M  V30 2269 N 208.412 0.89855 1.29475 0
M  V30 2270 C 209.652 0.530771 1.97388 0
M  V30 2271 C 210.016 -0.905832 1.69289 0
M  V30 2272 O 211.217 -1.38042 2.30646 0
M  V30 2273 C 209.488 0.81369 3.48014 0
M  V30 2274 S 211.047 0.550048 4.35339 0
M  V30 2275 H 207.865 0.196956 0.683176 0
M  V30 2276 H 210.467 1.16074 1.57312 0
M  V30 2277 H 209.171 1.85749 3.65958 0
M  V30 2278 H 208.702 0.171795 3.93025 0
M  V30 2279 H 210.717 -0.605423 4.92493 0
M  V30 2280 N 209.89 -1.43072 0.660911 0
M  V30 2281 C 211.301 -1.84932 0.256348 0
M  V30 2282 C 211.652 -1.55325 -1.19868 0
M  V30 2283 O 210.777 -1.00607 -1.91591 0
M  V30 2284 C 211.372 -3.35684 0.458475 0
M  V30 2285 C 209.931 -3.76245 0.108161 0
M  V30 2286 C 209.078 -2.66749 0.757641 0
M  V30 2287 H 212.029 -1.33116 0.864051 0
M  V30 2288 H 212.05 -3.79365 -0.293683 0
M  V30 2289 H 211.562 -3.572 1.51755 0
M  V30 2290 H 209.663 -3.60338 -0.948014 0
M  V30 2291 H 209.776 -4.76058 0.538992 0
M  V30 2292 H 208.14 -2.53989 0.190185 0
M  V30 2293 H 208.923 -2.91092 1.81989 0
M  V30 2294 N 211.368 -0.403325 -1.52352 0
M  V30 2295 C 212.298 0.416205 -2.29761 0
M  V30 2296 C 213.279 1.05123 -1.33728 0
M  V30 2297 O 214.464 1.06134 -1.62632 0
M  V30 2298 C 211.594 1.53624 -3.11475 0
M  V30 2299 C 210.548 1.02653 -4.15507 0
M  V30 2300 C 209.874 2.23971 -4.85532 0
M  V30 2301 C 211.174 0.08463 -5.22231 0
M  V30 2302 H 212.868 -0.229701 -2.98518 0
M  V30 2303 H 210.414 -0.111913 -1.43564 0
M  V30 2304 H 212.367 2.1165 -3.64393 0
M  V30 2305 H 211.091 2.20994 -2.40477 0
M  V30 2306 H 209.75 0.46871 -3.63591 0
M  V30 2307 H 209.398 2.89883 -4.11068 0
M  V30 2308 H 209.098 1.90521 -5.55856 0
M  V30 2309 H 210.622 2.82614 -5.41259 0
M  V30 2310 H 212.036 0.573509 -5.70424 0
M  V30 2311 H 210.433 -0.160783 -5.99885 0
M  V30 2312 H 211.503 -0.86237 -4.7717 0
M  V30 2313 N 212.846 1.57033 -0.133567 0
M  V30 2314 C 213.809 2.14897 0.796995 0
M  V30 2315 C 214.809 1.0874 1.18458 0
M  V30 2316 O 215.999 1.34446 1.1077 0
M  V30 2317 C 213.131 2.70112 2.07973 0
M  V30 2318 H 214.324 2.98457 0.293873 0
M  V30 2319 H 211.877 1.55871 0.115787 0
M  V30 2320 H 212.612 1.9018 2.62682 0
M  V30 2321 H 212.397 3.47764 1.81115 0
M  V30 2322 H 213.887 3.14738 2.74462 0
M  V30 2323 N 214.325 -0.140222 1.56975 0
M  V30 2324 C 215.574 -0.850152 1.82908 0
M  V30 2325 C 215.887 -1.82028 0.715892 0
M  V30 2326 O 217.093 -2.57485 0.861016 0
M  V30 2327 C 215.549 -1.5625 3.24213 0
M  V30 2328 C 215.157 -0.63443 4.43485 0
M  V30 2329 C 216.901 -2.25881 3.59413 0
M  V30 2330 C 214.808 -1.34879 5.75814 0
M  V30 2331 H 213.738 -0.321221 0.682153 0
M  V30 2332 H 216.389 -0.102874 1.83211 0
M  V30 2333 H 214.771 -2.35565 3.18316 0
M  V30 2334 H 215.945 0.12398 4.60633 0
M  V30 2335 H 214.26 -0.0461836 4.16374 0
M  V30 2336 H 216.857 -2.79978 4.5554 0
M  V30 2337 H 217.2 -3.02693 2.85802 0
M  V30 2338 H 217.733 -1.53477 3.67001 0
M  V30 2339 H 214.472 -0.622385 6.52539 0
M  V30 2340 H 213.992 -2.07974 5.6259 0
M  V30 2341 H 215.671 -1.88784 6.18845 0
M  V30 2342 N 215.803 -1.52179 -0.40978 0
M  V30 2343 C 216.733 -1.78435 -1.5061 0
M  V30 2344 C 217.714 -0.635295 -1.57791 0
M  V30 2345 O 218.899 -0.880823 -1.73076 0
M  V30 2346 C 216.029 -1.93444 -2.88439 0
M  V30 2347 C 214.983 -3.09038 -2.96108 0
M  V30 2348 C 214.309 -3.09268 -4.36185 0
M  V30 2349 C 215.609 -4.48508 -2.67652 0
M  V30 2350 H 217.303 -2.70237 -1.28889 0
M  V30 2351 H 214.849 -1.30036 -0.618605 0
M  V30 2352 H 216.802 -2.10394 -3.65119 0
M  V30 2353 H 215.526 -0.983129 -3.11452 0
M  V30 2354 H 214.185 -2.91837 -2.21872 0
M  V30 2355 H 213.833 -2.11861 -4.56206 0
M  V30 2356 H 213.533 -3.86907 -4.42241 0
M  V30 2357 H 215.057 -3.28348 -5.14801 0
M  V30 2358 H 216.471 -4.65918 -3.34056 0
M  V30 2359 H 214.868 -5.28059 -2.85085 0
M  V30 2360 H 215.938 -4.56649 -1.63095 0
M  V30 2361 N 217.281 0.66697 -1.42791 0
M  V30 2362 C 218.53 1.42278 -1.42968 0
M  V30 2363 C 218.843 1.9553 -0.0524489 0
M  V30 2364 O 220.049 2.71414 0.068363 0
M  V30 2365 C 218.505 2.57418 -2.51524 0
M  V30 2366 C 218.113 2.10832 -3.9529 0
M  V30 2367 C 219.857 3.34878 -2.60877 0
M  V30 2368 C 217.764 3.23101 -4.95338 0
M  V30 2369 H 216.694 0.534533 -0.531781 0
M  V30 2370 H 219.345 0.721302 -1.68729 0
M  V30 2371 H 217.727 3.29971 -2.18941 0
M  V30 2372 H 218.901 1.4538 -4.37266 0
M  V30 2373 H 217.216 1.46289 -3.89857 0
M  V30 2374 H 219.813 4.18505 -3.32802 0
M  V30 2375 H 220.156 3.81993 -1.6549 0
M  V30 2376 H 220.689 2.69398 -2.92693 0
M  V30 2377 H 217.428 2.80969 -5.9223 0
M  V30 2378 H 216.948 3.87309 -4.57987 0
M  V30 2379 H 218.627 3.88447 -5.17415 0
M  V30 2380 N 218.759 1.29093 0.90403 0
M  V30 2381 C 219.689 1.16401 2.02418 0
M  V30 2382 C 220.67 0.0593085 1.69997 0
M  V30 2383 O 221.855 0.238021 1.92736 0
M  V30 2384 C 218.985 0.835233 3.37107 0
M  V30 2385 C 217.939 1.89578 3.83724 0
M  V30 2386 C 217.265 1.42041 5.15489 0
M  V30 2387 C 218.565 3.30394 4.04521 0
M  V30 2388 H 220.259 2.10109 2.13295 0
M  V30 2389 H 217.805 1.01157 1.02486 0
M  V30 2390 H 219.758 0.733169 4.14973 0
M  V30 2391 H 218.482 -0.137543 3.2631 0
M  V30 2392 H 217.141 1.98715 3.08071 0
M  V30 2393 H 216.789 0.436426 5.01103 0
M  V30 2394 H 216.489 2.12964 5.4765 0
M  V30 2395 H 218.013 1.33176 5.959 0
M  V30 2396 H 219.427 3.24123 4.72882 0
M  V30 2397 H 217.824 3.99237 4.48029 0
M  V30 2398 H 218.894 3.73692 3.09002 0
M  V30 2399 N 220.237 -1.11381 1.11499 0
M  V30 2400 C 221.486 -1.82494 0.858993 0
M  V30 2401 C 221.799 -1.85605 -0.617278 0
M  V30 2402 O 223.005 -2.52824 -0.989552 0
M  V30 2403 C 221.461 -3.27745 1.48699 0
M  V30 2404 C 221.069 -3.32961 2.99735 0
M  V30 2405 C 222.813 -4.03754 1.31085 0
M  V30 2406 C 220.72 -4.72612 3.55516 0
M  V30 2407 H 219.65 -0.683802 0.317696 0
M  V30 2408 H 222.301 -1.25331 1.34031 0
M  V30 2409 H 220.683 -3.84844 0.933339 0
M  V30 2410 H 221.857 -2.85741 3.61509 0
M  V30 2411 H 220.172 -2.70433 3.16631 0
M  V30 2412 H 222.769 -5.06891 1.70192 0
M  V30 2413 H 223.112 -4.15527 0.253496 0
M  V30 2414 H 223.645 -3.53043 1.83318 0
M  V30 2415 H 220.384 -4.66036 4.60967 0
M  V30 2416 H 219.904 -5.2024 2.98513 0
M  V30 2417 H 221.583 -5.4157 3.53992 0
M  V30 2418 N 221.715 -0.905404 -1.28997 0
M  V30 2419 C 222.961 -0.535039 -1.95615 0
M  V30 2420 C 223.294 0.917404 -1.71165 0
M  V30 2421 O 222.569 1.65123 -1.02785 0
M  V30 2422 C 222.852 -0.834918 -3.50287 0
M  V30 2423 C 222.705 -2.33948 -3.84172 0
M  V30 2424 C 224.024 -0.325318 -4.38896 0
M  V30 2425 H 221.143 -0.195861 -0.710498 0
M  V30 2426 H 223.785 -1.13313 -1.52513 0
M  V30 2427 H 221.935 -0.325904 -3.87131 0
M  V30 2428 H 223.607 -2.91847 -3.57243 0
M  V30 2429 H 221.85 -2.79789 -3.31513 0
M  V30 2430 H 222.521 -2.49987 -4.92149 0
M  V30 2431 H 224.997 -0.761256 -4.09077 0
M  V30 2432 H 223.873 -0.564295 -5.45992 0
M  V30 2433 H 224.134 0.774144 -4.35269 0
M  V30 2434 N 223.193 1.4272 -0.668489 0
M  V30 2435 C 224.125 2.2914 0.052613 0
M  V30 2436 C 225.138 1.43339 0.771857 0
M  V30 2437 O 226.327 1.67123 0.627067 0
M  V30 2438 C 223.427 3.20618 1.09804 0
M  V30 2439 C 222.6 4.35039 0.45389 0
M  V30 2440 C 221.659 5.07282 1.39825 0
M  V30 2441 O 220.685 5.62024 0.900978 0
M  V30 2442 N 221.887 5.12206 2.73176 0
M  V30 2443 H 224.652 2.91668 -0.689209 0
M  V30 2444 H 222.213 1.53577 -0.512422 0
M  V30 2445 H 224.205 3.65815 1.73094 0
M  V30 2446 H 222.775 2.59585 1.74167 0
M  V30 2447 H 221.995 3.92567 -0.358396 0
M  V30 2448 H 223.283 5.088 0.00486972 0
M  V30 2449 H 222.681 4.6913 3.16122 0
M  V30 2450 H 221.238 5.61069 3.31729 0
M  V30 2451 N 224.671 0.411399 1.52136 0
M  V30 2452 C 225.619 -0.427633 2.28635 0
M  V30 2453 C 226.613 -1.04383 1.33419 0
M  V30 2454 O 227.819 -0.981772 1.50868 0
M  V30 2455 H 224.194 -0.156689 0.735495 0
M  V30 2456 H 226.165 0.238761 2.97443 0
M  V30 2457 C 224.914 -1.53082 3.12188 0
M  V30 2458 H 224.237 -1.06601 3.85326 0
M  V30 2459 H 225.677 -2.09167 3.68816 0
M  V30 2460 C 224.136 -2.49946 2.25895 0
M  V30 2461 O 224.666 -3.53884 1.90076 0
M  V30 2462 N 222.872 -2.2021 1.8962 0
M  V30 2463 H 222.419 -1.35719 2.18948 0
M  V30 2464 H 222.377 -2.85266 1.32176 0
M  V30 2465 N 226.149 -1.5696 0.141893 0
M  V30 2466 C 227.398 -1.95135 -0.510427 0
M  V30 2467 C 227.711 -1.02896 -1.66348 0
M  V30 2468 O 228.917 -1.30629 -2.38009 0
M  V30 2469 C 227.373 -3.46876 -0.959427 0
M  V30 2470 C 226.981 -4.47691 0.166419 0
M  V30 2471 C 228.725 -3.93927 -1.58183 0
M  V30 2472 C 226.632 -5.90636 -0.300565 0
M  V30 2473 H 225.562 -0.728494 -0.194454 0
M  V30 2474 H 228.213 -1.8211 0.22542 0
M  V30 2475 H 226.595 -3.55215 -1.75038 0
M  V30 2476 H 227.769 -4.51043 0.94325 0
M  V30 2477 H 226.084 -4.10527 0.696905 0
M  V30 2478 H 228.681 -4.98158 -1.94275 0
M  V30 2479 H 229.024 -3.3519 -2.46888 0
M  V30 2480 H 229.557 -3.88484 -0.855863 0
M  V30 2481 H 226.296 -6.5318 0.550989 0
M  V30 2482 H 225.816 -5.90655 -1.04338 0
M  V30 2483 H 227.495 -6.42588 -0.754265 0
M  V30 2484 N 227.627 0.131896 -1.57047 0
M  V30 2485 C 228.873 0.843179 -1.84441 0
M  V30 2486 C 229.206 1.80129 -0.725749 0
M  V30 2487 O 228.481 1.92624 0.269469 0
M  V30 2488 C 228.764 1.60442 -3.22382 0
M  V30 2489 C 228.617 0.666782 -4.4483 0
M  V30 2490 C 229.936 2.56354 -3.5773 0
M  V30 2491 H 227.055 0.305081 -0.670891 0
M  V30 2492 H 229.697 0.107839 -1.89694 0
M  V30 2493 H 227.847 2.23128 -3.18035 0
M  V30 2494 H 229.519 0.0497646 -4.61273 0
M  V30 2495 H 227.762 -0.022609 -4.33794 0
M  V30 2496 H 228.433 1.23579 -5.37989 0
M  V30 2497 H 230.909 2.0378 -3.62785 0
M  V30 2498 H 229.785 3.06657 -4.5525 0
M  V30 2499 H 230.046 3.38419 -2.84473 0
M  V30 2500 N 229.106 1.52395 0.401703 0
M  V30 2501 C 230.354 1.66488 1.14569 0
M  V30 2502 C 230.675 0.400897 1.90835 0
M  V30 2503 O 229.945 -0.584415 1.8698 0
M  V30 2504 H 228.525 0.613672 0.425929 0
M  V30 2505 H 231.187 1.89464 0.457093 0
M  V30 2506 H 230.283 2.50942 1.85566 0
M  V30 2507 N 230.584 -0.659388 1.43143 0
M  V30 2508 C 231.514 -1.78422 1.50625 0
M  V30 2509 C 232.495 -1.66216 0.361443 0
M  V30 2510 O 233.68 -1.85404 0.577834 0
M  V30 2511 C 230.81 -3.16815 1.42287 0
M  V30 2512 C 229.764 -3.43777 2.54954 0
M  V30 2513 C 229.09 -4.81905 2.31671 0
M  V30 2514 C 230.39 -3.39134 3.97222 0
M  V30 2515 H 232.084 -1.72417 2.44771 0
M  V30 2516 H 229.63 -0.828084 1.17808 0
M  V30 2517 H 231.583 -3.95253 1.46127 0
M  V30 2518 H 230.307 -3.23534 0.446435 0
M  V30 2519 H 228.966 -2.67707 2.50457 0
M  V30 2520 H 228.614 -4.85294 1.32284 0
M  V30 2521 H 228.314 -5.00906 3.07192 0
M  V30 2522 H 229.838 -5.62609 2.37284 0
M  V30 2523 H 231.252 -4.07518 4.03239 0
M  V30 2524 H 229.649 -3.69671 4.72719 0
M  V30 2525 H 230.719 -2.37426 4.22797 0
M  V30 2526 N 232.062 -1.29571 -0.897171 0
M  V30 2527 C 232.995 -1.0924 -2.00354 0
M  V30 2528 C 233.973 -0.00354011 -1.626 0
M  V30 2529 O 235.157 -0.15473 -1.87864 0
M  V30 2530 C 232.284 -0.66352 -3.32137 0
M  V30 2531 C 231.33 -1.75146 -3.88878 0
M  V30 2532 S 232.163 -3.35124 -4.17674 0
M  V30 2533 C 233.319 -2.9411 -5.52494 0
M  V30 2534 H 233.552 -2.02907 -2.17292 0
M  V30 2535 H 231.085 -1.13746 -1.04408 0
M  V30 2536 H 233.043 -0.422791 -4.08317 0
M  V30 2537 H 231.704 0.253588 -3.13075 0
M  V30 2538 H 230.897 -1.40337 -4.84068 0
M  V30 2539 H 230.499 -1.94584 -3.19395 0
M  V30 2540 H 232.791 -2.41312 -6.33068 0
M  V30 2541 H 233.734 -3.88161 -5.9223 0
M  V30 2542 H 234.142 -2.32332 -5.14473 0
M  V30 2543 N 233.54 1.10788 -1.12088 0
M  V30 2544 C 234.789 1.82036 -0.868659 0
M  V30 2545 C 235.102 1.85929 0.607426 0
M  V30 2546 O 236.308 2.53346 0.97613 0
M  V30 2547 C 234.764 3.26951 -1.50435 0
M  V30 2548 C 234.372 3.31367 -3.01496 0
M  V30 2549 C 236.116 4.03053 -1.33225 0
M  V30 2550 C 234.023 4.7072 -3.58017 0
M  V30 2551 H 232.953 0.682108 -0.321318 0
M  V30 2552 H 235.604 1.24618 -1.34694 0
M  V30 2553 H 233.986 3.84343 -0.953735 0
M  V30 2554 H 235.16 2.83819 -3.6302 0
M  V30 2555 H 233.475 2.6875 -3.18061 0
M  V30 2556 H 236.072 5.05981 -1.72878 0
M  V30 2557 H 236.415 4.15387 -0.275529 0
M  V30 2558 H 236.948 3.52066 -1.85188 0
M  V30 2559 H 233.687 4.63585 -4.63432 0
M  V30 2560 H 233.207 5.1865 -3.01268 0
M  V30 2561 H 234.886 5.39685 -3.56859 0
M  V30 2562 N 235.018 0.912232 1.28515 0
M  V30 2563 C 235.966 0.389597 2.29314 0
M  V30 2564 C 236.96 -0.517915 1.61289 0
M  V30 2565 O 238.166 -0.399328 1.75515 0
M  V30 2566 H 234.541 0.107386 0.744293 0
M  V30 2567 H 236.512 1.25286 2.70825 0
M  V30 2568 C 235.261 -0.356496 3.45868 0
M  V30 2569 H 234.584 0.332608 3.98414 0
M  V30 2570 H 236.024 -0.686851 4.184 0
M  V30 2571 C 234.483 -1.56383 2.98406 0
M  V30 2572 O 235.013 -2.66294 3.00749 0
M  V30 2573 N 233.219 -1.41029 2.54085 0
M  V30 2574 H 232.766 -0.516089 2.52377 0
M  V30 2575 H 232.724 -2.21939 2.22689 0
M  V30 2576 N 236.496 -1.42363 0.676048 0
M  V30 2577 C 237.459 -2.29199 0.00766941 0
M  V30 2578 C 238.459 -1.43389 -0.727745 0
M  V30 2579 O 239.649 -1.64764 -0.56556 0
M  V30 2580 C 236.781 -3.2591 -0.999785 0
M  V30 2581 H 237.974 -2.89794 0.771988 0
M  V30 2582 H 235.527 -1.50024 0.438468 0
M  V30 2583 H 236.262 -2.70256 -1.79255 0
M  V30 2584 H 236.047 -3.89202 -0.475829 0
M  V30 2585 H 237.537 -3.91028 -1.46583 0
M  V30 2586 N 237.974 -0.419461 -1.51915 0
M  V30 2587 C 239.223 0.154346 -2.01109 0
M  V30 2588 C 239.536 1.45338 -1.30905 0
M  V30 2589 O 240.742 2.10906 -1.7097 0
M  V30 2590 C 239.198 0.325615 -3.58424 0
M  V30 2591 C 238.806 -0.961934 -4.37551 0
M  V30 2592 C 240.55 0.854155 -4.15818 0
M  V30 2593 C 238.457 -0.757287 -5.86531 0
M  V30 2594 H 237.387 0.0614563 -0.751491 0
M  V30 2595 H 240.038 -0.54649 -1.75173 0
M  V30 2596 H 238.42 1.08903 -3.80731 0
M  V30 2597 H 239.594 -1.7323 -4.26999 0
M  V30 2598 H 237.909 -1.41766 -3.91524 0
M  V30 2599 H 240.506 1.02346 -5.24814 0
M  V30 2600 H 240.849 1.83172 -3.73837 0
M  V30 2601 H 241.382 0.149528 -3.97519 0
M  V30 2602 H 238.121 -1.70671 -6.32892 0
M  V30 2603 H 237.641 -0.0264061 -5.99794 0
M  V30 2604 H 239.32 -0.403482 -6.45741 0
M  V30 2605 N 239.452 1.56882 -0.150215 0
M  V30 2606 C 240.385 2.12712 0.826358 0
M  V30 2607 C 241.363 1.05154 1.24022 0
M  V30 2608 O 242.547 1.33004 1.33575 0
M  V30 2609 C 239.674 2.64945 2.11002 0
M  V30 2610 C 238.72 3.8468 1.84183 0
M  V30 2611 S 239.553 5.25502 1.02995 0
M  V30 2612 C 240.709 5.81125 2.32474 0
M  V30 2613 H 240.942 2.95214 0.351598 0
M  V30 2614 H 238.475 1.54267 0.0641211 0
M  V30 2615 H 240.433 2.95689 2.84742 0
M  V30 2616 H 239.094 1.82568 2.55593 0
M  V30 2617 H 238.287 4.19482 2.79375 0
M  V30 2618 H 237.889 3.54714 1.1855 0
M  V30 2619 H 240.181 5.92753 3.281 0
M  V30 2620 H 241.124 6.78625 2.02171 0
M  V30 2621 H 241.532 5.09392 2.43269 0
M  V30 2622 N 240.93 -0.123565 1.57115 0
M  V30 2623 C 241.86 -1.15309 2.03042 0
M  V30 2624 C 242.841 -1.43454 0.914061 0
M  V30 2625 O 244.026 -1.53973 1.18347 0
M  V30 2626 C 241.156 -2.48043 2.43089 0
M  V30 2627 C 240.11 -2.3437 3.58127 0
M  V30 2628 C 239.436 -3.72026 3.84059 0
M  V30 2629 C 240.736 -1.80804 4.90007 0
M  V30 2630 H 242.43 -0.771102 2.893 0
M  V30 2631 H 239.976 -0.369479 1.39179 0
M  V30 2632 H 241.929 -3.20311 2.73823 0
M  V30 2633 H 240.653 -2.88122 1.53796 0
M  V30 2634 H 239.312 -1.64551 3.27595 0
M  V30 2635 H 238.96 -4.09582 2.91979 0
M  V30 2636 H 238.66 -3.63732 4.6149 0
M  V30 2637 H 240.184 -4.45806 4.1724 0
M  V30 2638 H 241.598 -2.42886 5.19307 0
M  V30 2639 H 239.995 -1.83343 5.71407 0
M  V30 2640 H 241.065 -0.76528 4.78823 0
M  V30 2641 N 242.408 -1.52605 -0.393616 0
M  V30 2642 C 243.656 -1.67093 -1.13685 0
M  V30 2643 C 243.977 -0.411011 -1.90619 0
M  V30 2644 O 243.247 0.574491 -1.87287 0
M  V30 2645 H 241.827 -0.615923 -0.422668 0
M  V30 2646 H 244.489 -1.89704 -0.447039 0
M  V30 2647 H 243.585 -2.51922 -1.84232 0
M  V30 2648 N 243.887 0.651787 -1.4349 0
M  V30 2649 C 245.127 1.42345 -1.46688 0
M  V30 2650 C 245.491 1.91793 -0.0891023 0
M  V30 2651 O 246.692 2.688 0.00423594 0
M  V30 2652 C 244.963 2.57221 -2.48137 0
M  V30 2653 S 246.522 3.45725 -2.70221 0
M  V30 2654 H 243.34 0.485878 -0.51908 0
M  V30 2655 H 245.942 0.756578 -1.80267 0
M  V30 2656 H 244.646 2.1917 -3.46976 0
M  V30 2657 H 244.177 3.28757 -2.16061 0
M  V30 2658 H 246.192 4.53996 -2.00255 0
M  V30 2659 N 245.365 1.30045 0.890287 0
M  V30 2660 C 246.614 1.17929 1.63633 0
M  V30 2661 C 246.927 -0.266204 1.9378 0
M  V30 2662 O 248.133 -0.508804 2.6669 0
M  V30 2663 C 246.589 2.06317 2.94892 0
M  V30 2664 C 246.197 3.55745 2.72305 0
M  V30 2665 C 247.941 2.0295 3.72843 0
M  V30 2666 C 245.848 4.36205 3.99348 0
M  V30 2667 H 244.778 0.437782 0.613892 0
M  V30 2668 H 247.429 1.54754 0.986075 0
M  V30 2669 H 245.811 1.6237 3.61182 0
M  V30 2670 H 246.985 4.07805 2.1455 0
M  V30 2671 H 245.3 3.6088 2.07737 0
M  V30 2672 H 247.897 2.60319 4.67053 0
M  V30 2673 H 248.24 1.0117 4.0382 0
M  V30 2674 H 248.773 2.4499 3.13408 0
M  V30 2675 H 245.512 5.38659 3.73533 0
M  V30 2676 H 245.032 3.8891 4.56628 0
M  V30 2677 H 246.711 4.47362 4.67415 0
M  V30 2678 N 246.843 -1.10192 1.12674 0
M  V30 2679 C 248.09 -1.82205 0.883606 0
M  V30 2680 C 248.418 -1.8532 -0.590492 0
M  V30 2681 O 247.673 -1.31137 -1.45264 0
M  V30 2682 C 247.972 -3.28552 1.4067 0
M  V30 2683 C 247.638 -3.45582 2.89627 0
M  V30 2684 C 246.3 -3.49937 3.30299 0
M  V30 2685 C 248.652 -3.50768 3.85501 0
M  V30 2686 C 245.98 -3.57049 4.65546 0
M  V30 2687 C 248.332 -3.59414 5.20581 0
M  V30 2688 C 246.996 -3.62034 5.60792 0
M  V30 2689 H 246.266 -0.666735 0.323334 0
M  V30 2690 H 248.913 -1.29868 1.40736 0
M  V30 2691 H 247.218 -3.83473 0.80347 0
M  V30 2692 H 248.915 -3.82788 1.19475 0
M  V30 2693 H 245.505 -3.42871 2.57172 0
M  V30 2694 H 249.689 -3.46651 3.55171 0
M  V30 2695 H 244.945 -3.57361 4.96088 0
M  V30 2696 H 249.119 -3.62371 5.94693 0
M  V30 2697 H 246.746 -3.67298 6.6558 0
M  V30 2698 N 248.321 -0.919034 -1.28029 0
M  V30 2699 C 249.254 -0.355887 -2.25408 0
M  V30 2700 C 250.232 0.542874 -1.5327 0
M  V30 2701 O 251.416 0.485338 -1.82145 0
M  V30 2702 C 248.543 0.490759 -3.35126 0
M  V30 2703 C 247.589 -0.343358 -4.25116 0
M  V30 2704 S 248.422 -1.75344 -5.05979 0
M  V30 2705 C 249.578 -0.914244 -6.19187 0
M  V30 2706 H 249.811 -1.18123 -2.72826 0
M  V30 2707 H 247.344 -0.720636 -1.36551 0
M  V30 2708 H 249.302 0.973404 -3.98792 0
M  V30 2709 H 247.963 1.29054 -2.86363 0
M  V30 2710 H 247.156 0.304266 -5.03081 0
M  V30 2711 H 246.758 -0.759851 -3.662 0
M  V30 2712 H 249.05 -0.146282 -6.77342 0
M  V30 2713 H 249.993 -1.66661 -6.88208 0
M  V30 2714 H 250.401 -0.460082 -5.62622 0
M  V30 2715 N 249.799 1.42003 -0.683588 0
M  V30 2716 C 250.746 2.30798 -0.0107309 0
M  V30 2717 C 251.716 1.4645 0.783688 0
M  V30 2718 O 252.901 1.75263 0.754156 0
M  V30 2719 C 250.041 3.3238 0.928306 0
M  V30 2720 C 249.154 4.31814 0.126776 0
M  V30 2721 C 248.289 5.20468 1.06236 0
M  V30 2722 C 247.328 6.11577 0.253035 0
M  V30 2723 N 246.465 6.92754 1.14179 0
M  V30 2724 H 251.305 2.8778 -0.773727 0
M  V30 2725 H 248.842 1.41745 -0.393283 0
M  V30 2726 H 250.8 3.89813 1.48666 0
M  V30 2727 H 249.43 2.76976 1.65783 0
M  V30 2728 H 248.482 3.76427 -0.54833 0
M  V30 2729 H 249.794 4.96276 -0.501192 0
M  V30 2730 H 248.948 5.82677 1.69035 0
M  V30 2731 H 247.687 4.56204 1.7242 0
M  V30 2732 H 246.692 5.48428 -0.388108 0
M  V30 2733 H 247.917 6.77892 -0.404839 0
M  V30 2734 H 245.863 6.3111 1.78987 0
M  V30 2735 H 245.78 7.53855 0.569111 0
M  V30 2736 H 247.048 7.59441 1.75697 0
M  V30 2737 N 251.277 0.427512 1.51691 0
M  V30 2738 C 252.505 -0.141191 2.06418 0
M  V30 2739 C 252.92 -1.37303 1.29589 0
M  V30 2740 O 252.277 -1.79059 0.352732 0
M  V30 2741 C 252.328 -0.473266 3.58389 0
M  V30 2742 O 252.049 0.709673 4.32314 0
M  V30 2743 C 253.55 -1.09371 4.29596 0
M  V30 2744 H 250.77 -0.0122747 0.670888 0
M  V30 2745 H 253.314 0.603764 1.95384 0
M  V30 2746 H 251.469 -1.16812 3.69369 0
M  V30 2747 H 251.883 0.42807 5.2275 0
M  V30 2748 H 253.357 -1.27613 5.37046 0
M  V30 2749 H 253.834 -2.072 3.87253 0
M  V30 2750 H 254.44 -0.43853 4.23033 0
M  V30 2751 N 252.755 -1.56801 0.158532 0
M  V30 2752 C 253.718 -2.16138 -0.762705 0
M  V30 2753 C 254.718 -1.1061 -1.16713 0
M  V30 2754 O 255.908 -1.36191 -1.08617 0
M  V30 2755 C 253.04 -2.73386 -2.03649 0
M  V30 2756 H 254.233 -2.98886 -0.246354 0
M  V30 2757 H 251.786 -1.56035 -0.0909744 0
M  V30 2758 H 252.521 -1.94335 -2.59623 0
M  V30 2759 H 252.306 -3.50601 -1.75559 0
M  V30 2760 H 253.796 -3.19065 -2.6942 0
M  V30 2761 N 254.233 0.115231 -1.57178 0
M  V30 2762 C 255.165 1.16694 -1.97269 0
M  V30 2763 C 256.178 1.37445 -0.872502 0
M  V30 2764 O 257.367 1.36454 -1.15077 0
M  V30 2765 C 254.467 2.52627 -2.25905 0
M  V30 2766 C 253.64 2.52427 -3.57211 0
M  V30 2767 C 252.699 3.70134 -3.74016 0
M  V30 2768 O 251.725 3.53546 -4.46087 0
M  V30 2769 N 252.927 4.88844 -3.13068 0
M  V30 2770 H 255.692 0.82588 -2.88096 0
M  V30 2771 H 253.253 0.304461 -1.59011 0
M  V30 2772 H 255.245 3.29937 -2.34359 0
M  V30 2773 H 253.815 2.789 -1.41186 0
M  V30 2774 H 253.035 1.60805 -3.5991 0
M  V30 2775 H 254.323 2.49353 -4.43509 0
M  V30 2776 H 253.721 5.05225 -2.54489 0
M  V30 2777 H 252.278 5.63817 -3.27037 0
M  V30 2778 N 255.711 1.52812 0.385517 0
M  V30 2779 C 256.674 1.77188 1.45386 0
M  V30 2780 C 257.674 0.641953 1.4743 0
M  V30 2781 O 258.864 0.910033 1.4854 0
M  V30 2782 C 255.996 1.87582 2.8465 0
M  V30 2783 H 257.189 2.72583 1.25054 0
M  V30 2784 H 254.742 1.43586 0.617467 0
M  V30 2785 H 255.477 0.941849 3.10322 0
M  V30 2786 H 255.262 2.69748 2.84567 0
M  V30 2787 H 256.752 2.08102 3.62054 0
M  V30 2788 N 257.189 -0.644168 1.43834 0
M  V30 2789 C 258.139 -1.7501 1.46135 0
M  V30 2790 C 259.123 -1.57507 0.328685 0
M  V30 2791 O 260.315 -1.67465 0.5731 0
M  V30 2792 C 257.444 -3.13641 1.39585 0
M  V30 2793 C 256.53 -3.3666 2.57916 0
M  V30 2794 N 256.921 -3.30107 3.83227 0
M  V30 2795 C 255.219 -3.67411 2.52834 0
M  V30 2796 C 255.92 -3.53456 4.61999 0
M  V30 2797 N 254.896 -3.75705 3.9287 0
M  V30 2798 H 258.698 -1.68382 2.40883 0
M  V30 2799 H 256.212 -0.846169 1.38614 0
M  V30 2800 H 258.209 -3.92933 1.39317 0
M  V30 2801 H 256.869 -3.21444 0.45865 0
M  V30 2802 H 257.88 -3.09316 4.15384 0
M  V30 2803 H 254.557 -3.82275 1.67845 0
M  V30 2804 H 255.947 -3.54093 5.71024 0
M  V30 2805 N 258.668 -1.30515 -0.883378 0
M  V30 2806 C 260.084 -1.08881 -1.16692 0
M  V30 2807 C 260.284 0.149409 -2.00945 0
M  V30 2808 O 259.34 0.84257 -2.38027 0
M  V30 2809 C 260.653 -2.35319 -1.87204 0
M  V30 2810 C 262.201 -2.40799 -1.99962 0
M  V30 2811 C 262.676 -3.67083 -2.73887 0
M  V30 2812 N 264.167 -3.679 -2.81432 0
M  V30 2813 C 264.902 -4.62303 -3.3921 0
M  V30 2814 N 264.398 -5.67052 -3.98025 0
M  V30 2815 N 266.191 -4.49845 -3.3704 0
M  V30 2816 H 258.342 -2.09951 -0.321633 0
M  V30 2817 H 260.605 -0.92556 -0.205043 0
M  V30 2818 H 260.311 -3.25689 -1.3274 0
M  V30 2819 H 260.185 -2.44089 -2.87577 0
M  V30 2820 H 262.572 -1.50907 -2.53597 0
M  V30 2821 H 262.653 -2.36003 -0.98673 0
M  V30 2822 H 262.297 -4.57334 -2.20925 0
M  V30 2823 H 262.227 -3.69141 -3.75556 0
M  V30 2824 H 264.718 -2.92171 -2.39676 0
M  V30 2825 H 265.031 -6.35184 -4.40183 0
M  V30 2826 H 263.376 -5.70842 -3.96439 0
M  V30 2827 H 266.567 -3.67194 -2.90321 0
M  V30 2828 H 266.74 -5.23597 -3.81772 0
M  V30 2829 N 260.146 1.09593 -1.13257 0
M  V30 2830 C 261.562 1.33775 -0.870423 0
M  V30 2831 C 261.762 1.95327 0.494926 0
M  V30 2832 O 260.818 2.19853 1.2418 0
M  V30 2833 C 262.131 2.25106 -1.99369 0
M  V30 2834 C 263.679 2.3862 -2.02558 0
M  V30 2835 C 264.154 3.33285 -3.14142 0
M  V30 2836 N 265.645 3.40857 -3.13641 0
M  V30 2837 C 266.38 4.14101 -3.96621 0
M  V30 2838 N 265.876 4.90157 -4.8961 0
M  V30 2839 N 267.669 4.09808 -3.84726 0
M  V30 2840 H 259.82 0.680136 -2.01216 0
M  V30 2841 H 262.083 0.362133 -0.876107 0
M  V30 2842 H 261.789 1.87103 -2.97801 0
M  V30 2843 H 261.663 3.25481 -1.90635 0
M  V30 2844 H 264.05 2.75887 -1.0474 0
M  V30 2845 H 264.131 1.38028 -2.15364 0
M  V30 2846 H 263.775 2.96741 -4.12198 0
M  V30 2847 H 263.705 4.33776 -2.98574 0
M  V30 2848 H 266.196 2.86624 -2.46282 0
M  V30 2849 H 266.509 5.4347 -5.49418 0
M  V30 2850 H 264.854 4.89251 -4.93617 0
M  V30 2851 H 268.045 3.4949 -3.11408 0
M  V30 2852 H 268.218 4.66629 -4.49623 0
M  V30 2853 N 261.624 0.925811 1.2754 0
M  V30 2854 C 262.587 0.428129 2.25166 0
M  V30 2855 C 263.587 -0.452261 1.54309 0
M  V30 2856 O 264.777 -0.253608 1.72344 0
M  V30 2857 C 261.909 -0.384749 3.38722 0
M  V30 2858 H 263.102 1.29066 2.70706 0
M  V30 2859 H 260.655 0.706323 1.3943 0
M  V30 2860 H 261.39 -1.26618 2.98561 0
M  V30 2861 H 261.175 0.246454 3.91325 0
M  V30 2862 H 262.665 -0.723389 4.11287 0
M  V30 2863 N 263.102 -1.41638 0.69111 0
M  V30 2864 C 264.012 -2.34588 0.0233487 0
M  V30 2865 C 265.028 -1.55987 -0.770984 0
M  V30 2866 O 266.204 -1.88486 -0.709569 0
M  V30 2867 C 263.269 -3.34684 -0.904851 0
M  V30 2868 C 262.33 -4.29176 -0.103225 0
M  V30 2869 C 261.563 -5.2449 -0.987216 0
M  V30 2870 O 261.786 -5.2514 -2.22674 0
M  V30 2871 O 260.72 -6.00295 -0.439281 0
M  V30 2872 H 264.546 -2.93261 0.789416 0
M  V30 2873 H 262.131 -1.42417 0.45142 0
M  V30 2874 H 264.013 -3.96133 -1.43724 0
M  V30 2875 H 262.688 -2.78461 -1.65049 0
M  V30 2876 H 261.595 -3.71089 0.473655 0
M  V30 2877 H 262.928 -4.88484 0.60365 0
M  V30 2878 N 264.58 -0.43555 -1.51462 0
M  V30 2879 C 265.808 0.130242 -2.0649 0
M  V30 2880 C 266.223 1.36614 -1.30315 0
M  V30 2881 O 265.58 1.78869 -0.362223 0
M  V30 2882 C 265.631 0.454253 -3.58635 0
M  V30 2883 O 265.352 -0.73259 -4.31931 0
M  V30 2884 C 266.853 1.07091 -4.3017 0
M  V30 2885 H 264.073 0.00871669 -0.670943 0
M  V30 2886 H 266.617 -0.614117 -1.95061 0
M  V30 2887 H 264.772 1.14851 -3.69984 0
M  V30 2888 H 265.186 -0.455787 -5.22516 0
M  V30 2889 H 266.66 1.24764 -5.37716 0
M  V30 2890 H 267.137 2.05144 -3.88346 0
M  V30 2891 H 267.743 0.416089 -4.2326 0
M  V30 2892 N 266.058 1.56714 -0.166846 0
M  V30 2893 C 266.988 2.20754 0.760913 0
M  V30 2894 C 267.969 1.16178 1.24244 0
M  V30 2895 O 269.154 1.44592 1.29641 0
M  V30 2896 C 266.284 2.84478 1.99223 0
M  V30 2897 C 265.238 3.95053 1.64672 0
M  V30 2898 C 264.564 4.45805 2.95232 0
M  V30 2899 C 265.864 5.14865 0.878155 0
M  V30 2900 H 267.558 2.98537 0.22713 0
M  V30 2901 H 265.104 1.43596 0.107805 0
M  V30 2902 H 267.057 3.27951 2.64624 0
M  V30 2903 H 265.781 2.04056 2.55007 0
M  V30 2904 H 264.44 3.52228 1.01641 0
M  V30 2905 H 264.088 3.62181 3.49047 0
M  V30 2906 H 263.788 5.204 2.7287 0
M  V30 2907 H 265.312 4.91962 3.6167 0
M  V30 2908 H 266.726 5.55059 1.43466 0
M  V30 2909 H 265.123 5.95348 0.753738 0
M  V30 2910 H 266.193 4.84735 -0.126377 0
M  V30 2911 N 267.536 -0.106894 1.57237 0
M  V30 2912 C 268.785 -0.811163 1.8467 0
M  V30 2913 C 269.098 -1.80469 0.754342 0
M  V30 2914 O 270.304 -2.55601 0.915439 0
M  V30 2915 C 268.76 -1.49337 3.27454 0
M  V30 2916 C 268.368 -0.540217 4.44731 0
M  V30 2917 C 270.112 -2.18206 3.64124 0
M  V30 2918 C 268.019 -1.22634 5.78545 0
M  V30 2919 H 266.949 -0.306679 0.688813 0
M  V30 2920 H 269.6 -0.0639887 1.83388 0
M  V30 2921 H 267.982 -2.2876 3.23241 0
M  V30 2922 H 269.156 0.221659 4.60267 0
M  V30 2923 H 267.471 0.042146 4.16379 0
M  V30 2924 H 270.068 -2.70253 4.61376 0
M  V30 2925 H 270.411 -2.96562 2.92158 0
M  V30 2926 H 270.944 -1.45658 3.70174 0
M  V30 2927 H 267.683 -0.483832 6.53712 0
M  V30 2928 H 267.203 -1.95993 5.66874 0
M  V30 2929 H 268.882 -1.75615 6.2271 0
M  V30 2930 N 269.014 -1.53014 -0.377408 0
M  V30 2931 C 270.261 -1.68623 -1.12128 0
M  V30 2932 C 270.589 -0.431997 -1.89642 0
M  V30 2933 O 269.844 0.585855 -1.86725 0
M  V30 2934 C 270.143 -2.87982 -2.11663 0
M  V30 2935 C 269.809 -4.24964 -1.50719 0
M  V30 2936 C 268.471 -4.62217 -1.33825 0
M  V30 2937 C 270.823 -5.10199 -1.06519 0
M  V30 2938 C 268.151 -5.82352 -0.712963 0
M  V30 2939 C 270.503 -6.30969 -0.453955 0
M  V30 2940 C 269.167 -6.66944 -0.272411 0
M  V30 2941 H 268.437 -0.617034 -0.410305 0
M  V30 2942 H 271.084 -1.8718 -0.404484 0
M  V30 2943 H 269.389 -2.63889 -2.89603 0
M  V30 2944 H 271.086 -2.97253 -2.6915 0
M  V30 2945 H 267.676 -3.95626 -1.64858 0
M  V30 2946 H 271.86 -4.81978 -1.18368 0
M  V30 2947 H 267.116 -6.08824 -0.560611 0
M  V30 2948 H 271.29 -6.96324 -0.103217 0
M  V30 2949 H 268.917 -7.59898 0.214181 0
M  V30 2950 N 270.492 0.636531 -1.44174 0
M  V30 2951 C 271.717 1.42847 -1.50364 0
M  V30 2952 C 272.142 1.87665 -0.127867 0
M  V30 2953 O 271.5 1.58408 0.88185 0
M  V30 2954 C 271.548 2.62854 -2.4686 0
M  V30 2955 O 270.652 3.62501 -1.9664 0
M  V30 2956 H 269.993 0.427642 -0.507955 0
M  V30 2957 H 272.523 0.777422 -1.89255 0
M  V30 2958 H 272.533 3.10465 -2.64718 0
M  V30 2959 H 271.208 2.29578 -3.46795 0
M  V30 2960 H 269.785 3.21735 -1.88523 0
M  V30 2961 N 271.97 1.30982 0.876444 0
M  V30 2962 C 272.917 1.18085 1.98304 0
M  V30 2963 C 273.887 0.0682263 1.6596 0
M  V30 2964 O 275.072 0.239937 1.89285 0
M  V30 2965 C 272.212 0.887475 3.33493 0
M  V30 2966 C 271.325 2.08281 3.78475 0
M  V30 2967 C 270.46 1.72678 5.0235 0
M  V30 2968 C 269.499 2.88657 5.39762 0
M  V30 2969 N 268.636 2.53292 6.54819 0
M  V30 2970 H 273.476 2.1275 2.08666 0
M  V30 2971 H 271.013 1.05839 1.02159 0
M  V30 2972 H 272.971 0.697961 4.1132 0
M  V30 2973 H 271.601 -0.022315 3.22792 0
M  V30 2974 H 270.653 2.3833 2.96484 0
M  V30 2975 H 271.965 2.95108 4.02135 0
M  V30 2976 H 271.119 1.50151 5.87826 0
M  V30 2977 H 269.858 0.830327 4.8058 0
M  V30 2978 H 268.863 3.1184 4.52809 0
M  V30 2979 H 270.088 3.79002 5.63502 0
M  V30 2980 H 268.034 1.66163 6.34607 0
M  V30 2981 H 267.951 3.3365 6.7839 0
M  V30 2982 H 269.219 2.34143 7.43503 0
M  V30 2983 N 273.449 -1.08991 1.13837 0
M  V30 2984 C 274.399 -2.1393 0.788535 0
M  V30 2985 C 275.383 -1.59396 -0.219516 0
M  V30 2986 O 276.575 -1.76985 -0.0227557 0
M  V30 2987 C 273.704 -3.42305 0.261147 0
M  V30 2988 C 272.79 -4.03736 1.29837 0
M  V30 2989 N 273.181 -4.39659 2.50067 0
M  V30 2990 C 271.479 -4.30993 1.1472 0
M  V30 2991 C 272.18 -4.88113 3.16419 0
M  V30 2992 N 271.156 -4.85846 2.43832 0
M  V30 2993 H 274.958 -2.39516 1.70322 0
M  V30 2994 H 272.472 -1.26263 1.02134 0
M  V30 2995 H 274.469 -4.16899 -0.0077405 0
M  V30 2996 H 273.129 -3.18172 -0.647805 0
M  V30 2997 H 274.14 -4.30878 2.8734 0
M  V30 2998 H 270.817 -4.16444 0.296773 0
M  V30 2999 H 272.207 -5.25336 4.18894 0
M  V30 3000 N 274.927 -0.932562 -1.27047 0
M  V30 3001 C 275.89 -0.440064 -2.24936 0
M  V30 3002 C 276.89 0.444071 -1.54547 0
M  V30 3003 O 278.08 0.244465 -1.72476 0
M  V30 3004 C 275.212 0.36678 -3.38921 0
M  V30 3005 H 276.405 -1.305 -2.70018 0
M  V30 3006 H 273.958 -0.713707 -1.39054 0
M  V30 3007 H 274.693 1.25033 -2.99228 0
M  V30 3008 H 274.478 -0.267204 -3.91188 0
M  V30 3009 H 275.968 0.701567 -4.11665 0
M  V30 3010 N 276.405 1.4127 -0.698611 0
M  V30 3011 C 277.651 2.01478 -0.231207 0
M  V30 3012 C 277.984 1.55215 1.16713 0
M  V30 3013 O 277.259 0.764672 1.78838 0
M  V30 3014 C 277.542 3.58912 -0.292281 0
M  V30 3015 C 277.395 4.15293 -1.72778 0
M  V30 3016 C 278.714 4.38736 0.346194 0
M  V30 3017 H 275.833 0.732025 -0.0854878 0
M  V30 3018 H 278.475 1.67977 -0.887906 0
M  V30 3019 H 276.625 3.87582 0.26686 0
M  V30 3020 H 278.297 3.97486 -2.341 0
M  V30 3021 H 276.54 3.7022 -2.26096 0
M  V30 3022 H 277.211 5.24452 -1.72202 0
M  V30 3023 H 279.687 4.15897 -0.130035 0
M  V30 3024 H 278.563 5.48221 0.272932 0
M  V30 3025 H 278.824 4.18425 1.42734 0
M  V30 3026 N 277.883 0.443576 1.51229 0
M  V30 3027 C 279.132 -0.122332 2.01329 0
M  V30 3028 C 279.445 -1.43237 1.33201 0
M  V30 3029 O 280.651 -2.0816 1.74304 0
M  V30 3030 C 279.107 -0.268551 3.58897 0
M  V30 3031 C 278.715 1.03142 4.35965 0
M  V30 3032 C 280.459 -0.787894 4.17124 0
M  V30 3033 C 278.366 0.850504 5.85252 0
M  V30 3034 H 277.296 -0.0494929 0.752374 0
M  V30 3035 H 279.947 0.574289 1.74282 0
M  V30 3036 H 278.329 -1.02832 3.82415 0
M  V30 3037 H 279.503 1.80001 4.24189 0
M  V30 3038 H 277.818 1.47977 3.89219 0
M  V30 3039 H 280.415 -0.939841 5.26375 0
M  V30 3040 H 280.758 -1.77201 3.76703 0
M  V30 3041 H 281.291 -0.0862669 3.97706 0
M  V30 3042 H 278.03 1.80718 6.30096 0
M  V30 3043 H 277.55 0.121825 5.99676 0
M  V30 3044 H 279.229 0.506163 6.45017 0
M  V30 3045 N 279.361 -1.56624 0.175154 0
M  V30 3046 C 280.324 -2.16934 -0.739738 0
M  V30 3047 C 281.324 -1.11842 -1.15533 0
M  V30 3048 O 282.514 -1.37335 -1.07167 0
M  V30 3049 C 279.646 -2.75531 -2.00738 0
M  V30 3050 H 280.839 -2.99131 -0.214639 0
M  V30 3051 H 278.392 -1.56123 -0.0744197 0
M  V30 3052 H 279.127 -1.97078 -2.57548 0
M  V30 3053 H 278.912 -3.52444 -1.71831 0
M  V30 3054 H 280.402 -3.21904 -2.66021 0
M  V30 3055 N 280.839 0.0985539 -1.57292 0
M  V30 3056 C 281.769 1.12064 -2.04851 0
M  V30 3057 C 282.75 1.41981 -0.936767 0
M  V30 3058 O 283.935 1.52071 -1.20781 0
M  V30 3059 C 281.065 2.44144 -2.47004 0
M  V30 3060 C 280.019 2.28643 -3.6181 0
M  V30 3061 C 279.345 3.65869 -3.89929 0
M  V30 3062 C 280.645 1.72986 -4.92822 0
M  V30 3063 H 282.339 0.724979 -2.9049 0
M  V30 3064 H 279.885 0.34729 -1.39749 0
M  V30 3065 H 281.838 3.15914 -2.78884 0
M  V30 3066 H 280.562 2.85639 -1.5836 0
M  V30 3067 H 279.221 1.59318 -3.30172 0
M  V30 3068 H 278.869 4.04885 -2.98458 0
M  V30 3069 H 278.569 3.56344 -4.67218 0
M  V30 3070 H 280.093 4.39112 -4.2428 0
M  V30 3071 H 281.507 2.34593 -5.23105 0
M  V30 3072 H 279.904 1.74229 -5.74251 0
M  V30 3073 H 280.974 0.689007 -4.7998 0
M  V30 3074 N 282.317 1.53212 0.369288 0
M  V30 3075 C 283.733 1.42902 0.710712 0
M  V30 3076 C 283.933 0.565135 1.93413 0
M  V30 3077 O 282.989 0.0461484 2.52458 0
M  V30 3078 C 284.302 2.86042 0.927382 0
M  V30 3079 C 285.85 2.9565 1.02762 0
M  V30 3080 C 286.325 4.39843 1.27679 0
M  V30 3081 N 287.816 4.43256 1.34457 0
M  V30 3082 C 288.551 5.51929 1.55439 0
M  V30 3083 N 288.047 6.70655 1.73762 0
M  V30 3084 N 289.84 5.39502 1.57779 0
M  V30 3085 H 281.991 2.07888 -0.435457 0
M  V30 3086 H 284.254 0.938661 -0.132739 0
M  V30 3087 H 283.96 3.51557 0.100287 0
M  V30 3088 H 283.834 3.29472 1.83653 0
M  V30 3089 H 286.221 2.30291 1.84527 0
M  V30 3090 H 286.302 2.5562 0.0959504 0
M  V30 3091 H 285.946 5.05774 0.464175 0
M  V30 3092 H 285.876 4.77443 2.22162 0
M  V30 3093 H 288.367 3.5769 1.21926 0
M  V30 3094 H 288.68 7.49248 1.89335 0
M  V30 3095 H 287.025 6.73648 1.70948 0
M  V30 3096 H 290.216 4.45713 1.43029 0
M  V30 3097 H 290.389 6.2426 1.7379 0
M  V30 3098 N 283.795 -0.628877 1.44509 0
M  V30 3099 C 284.745 -1.7345 1.47983 0
M  V30 3100 C 285.729 -1.5715 0.345373 0
M  V30 3101 O 286.921 -1.66848 0.590829 0
M  V30 3102 C 284.05 -3.12143 1.42904 0
M  V30 3103 C 283.136 -3.33906 2.61472 0
M  V30 3104 N 283.527 -3.26024 3.86706 0
M  V30 3105 C 281.825 -3.64709 2.56716 0
M  V30 3106 C 282.526 -3.48536 4.65722 0
M  V30 3107 N 281.502 -3.71517 3.96832 0
M  V30 3108 H 285.304 -1.65818 2.42655 0
M  V30 3109 H 282.818 -0.831419 1.39503 0
M  V30 3110 H 284.815 -3.91433 1.43476 0
M  V30 3111 H 283.475 -3.2094 0.492717 0
M  V30 3112 H 284.486 -3.04893 4.18641 0
M  V30 3113 H 281.163 -3.80473 1.71891 0
M  V30 3114 H 282.553 -3.48016 5.74747 0
M  V30 3115 N 285.273 -1.31445 -0.869486 0
M  V30 3116 C 286.521 -1.20918 -1.61936 0
M  V30 3117 C 286.842 0.232683 -1.93607 0
M  V30 3118 O 286.112 1.15352 -1.58338 0
M  V30 3119 H 284.692 -0.44454 -0.600328 0
M  V30 3120 H 287.354 -1.64776 -1.0409 0
M  V30 3121 H 286.45 -1.78124 -2.56278 0
M  V30 3122 N 286.751 1.08385 -1.14413 0
M  V30 3123 C 288.167 1.32844 -0.884563 0
M  V30 3124 C 288.367 1.95841 0.474181 0
M  V30 3125 O 287.423 2.21158 1.21842 0
M  V30 3126 C 288.736 2.22978 -2.01745 0
M  V30 3127 C 290.284 2.36458 -2.05077 0
M  V30 3128 C 290.759 3.29934 -3.1766 0
M  V30 3129 N 292.25 3.37511 -3.17239 0
M  V30 3130 C 292.985 4.09871 -4.0099 0
M  V30 3131 N 292.481 4.84936 -4.94781 0
M  V30 3132 N 294.274 4.05704 -3.89051 0
M  V30 3133 H 286.425 0.658756 -2.01926 0
M  V30 3134 H 288.688 0.352821 -0.879899 0
M  V30 3135 H 288.394 1.83934 -2.99769 0
M  V30 3136 H 288.268 3.23441 -1.94077 0
M  V30 3137 H 290.655 2.7476 -1.0766 0
M  V30 3138 H 290.736 1.35736 -2.16816 0
M  V30 3139 H 290.38 2.92352 -4.15322 0
M  V30 3140 H 290.31 4.30584 -3.03158 0
M  V30 3141 H 292.801 2.83996 -2.49308 0
M  V30 3142 H 293.114 5.37612 -5.55151 0
M  V30 3143 H 291.459 4.83988 -4.98779 0
M  V30 3144 H 294.65 3.46167 -3.15097 0
M  V30 3145 H 294.823 4.61834 -4.54547 0
M  V30 3146 N 288.23 0.939286 1.26551 0
M  V30 3147 C 289.16 0.465044 2.28822 0
M  V30 3148 C 290.141 -0.480692 1.63167 0
M  V30 3149 O 291.326 -0.382955 1.90387 0
M  V30 3150 C 288.456 -0.27234 3.46231 0
M  V30 3151 C 287.41 0.58666 4.2396 0
M  V30 3152 C 286.736 -0.280573 5.33963 0
M  V30 3153 C 288.036 1.85704 4.88171 0
M  V30 3154 H 289.73 1.31979 2.68741 0
M  V30 3155 H 287.276 0.636061 1.29191 0
M  V30 3156 H 289.229 -0.615133 4.16886 0
M  V30 3157 H 287.953 -1.16121 3.0526 0
M  V30 3158 H 286.612 0.91232 3.55067 0
M  V30 3159 H 286.26 -1.16874 4.89234 0
M  V30 3160 H 285.96 0.29076 5.8688 0
M  V30 3161 H 287.484 -0.618678 6.07458 0
M  V30 3162 H 288.898 1.58161 5.51052 0
M  V30 3163 H 287.295 2.37279 5.51197 0
M  V30 3164 H 288.365 2.56957 4.11219 0
M  V30 3165 N 289.708 -1.40897 0.706093 0
M  V30 3166 C 290.948 -2.02916 0.245827 0
M  V30 3167 C 291.312 -1.54751 -1.13649 0
M  V30 3168 O 292.513 -2.08768 -1.69321 0
M  V30 3169 C 290.784 -3.56031 0.312537 0
M  V30 3170 S 292.343 -4.38741 -0.0721388 0
M  V30 3171 H 289.161 -0.704186 0.0982007 0
M  V30 3172 H 291.763 -1.72168 0.926207 0
M  V30 3173 H 290.467 -3.88579 1.32039 0
M  V30 3174 H 289.998 -3.91495 -0.386641 0
M  V30 3175 H 292.013 -4.78952 -1.29692 0
M  V30 3176 N 291.186 -0.45159 -1.50991 0
M  V30 3177 C 292.433 0.110074 -2.02201 0
M  V30 3178 C 292.761 1.4146 -1.33489 0
M  V30 3179 O 292.016 1.90617 -0.443125 0
M  V30 3180 C 292.315 0.361728 -3.55565 0
M  V30 3181 C 291.981 -0.858717 -4.42648 0
M  V30 3182 C 290.643 -1.19338 -4.66167 0
M  V30 3183 C 292.995 -1.67221 -4.93646 0
M  V30 3184 C 290.323 -2.34195 -5.37931 0
M  V30 3185 C 292.675 -2.8119 -5.6667 0
M  V30 3186 C 291.339 -3.15094 -5.88449 0
M  V30 3187 H 290.609 0.040279 -0.739904 0
M  V30 3188 H 293.256 -0.601696 -1.81802 0
M  V30 3189 H 291.561 1.15554 -3.74372 0
M  V30 3190 H 293.258 0.80996 -3.92735 0
M  V30 3191 H 289.848 -0.58796 -4.24548 0
M  V30 3192 H 294.032 -1.42686 -4.75347 0
M  V30 3193 H 289.288 -2.6076 -5.53005 0
M  V30 3194 H 293.462 -3.44585 -6.05173 0
M  V30 3195 H 291.089 -4.04204 -6.43835 0
M  V30 3196 N 292.664 1.56529 -0.183458 0
M  V30 3197 C 293.597 2.14417 0.781052 0
M  V30 3198 C 294.575 1.07761 1.21763 0
M  V30 3199 O 295.759 1.35807 1.30724 0
M  V30 3200 C 292.886 2.69361 2.05335 0
M  V30 3201 C 291.932 3.885 1.75982 0
M  V30 3202 S 292.765 5.27568 0.918256 0
M  V30 3203 C 293.921 5.85926 2.20095 0
M  V30 3204 H 294.154 2.95893 0.2889 0
M  V30 3205 H 291.687 1.54368 0.0313844 0
M  V30 3206 H 293.645 3.01662 2.78406 0
M  V30 3207 H 292.306 1.87949 2.51663 0
M  V30 3208 H 291.499 4.25314 2.70415 0
M  V30 3209 H 291.101 3.57149 1.10999 0
M  V30 3210 H 293.393 5.99579 3.15453 0
M  V30 3211 H 294.336 6.82761 1.87731 0
M  V30 3212 H 294.744 5.14438 2.32409 0
M  V30 3213 N 294.142 -0.090211 1.57342 0
M  V30 3214 C 295.072 -1.10976 2.05443 0
M  V30 3215 C 296.053 -1.41482 0.944284 0
M  V30 3216 O 297.238 -1.51428 1.21586 0
M  V30 3217 C 294.368 -2.42831 2.48295 0
M  V30 3218 C 293.322 -2.26721 3.63018 0
M  V30 3219 C 292.648 -3.63796 3.91863 0
M  V30 3220 C 293.948 -1.7037 4.93732 0
M  V30 3221 H 295.642 -0.709564 2.9087 0
M  V30 3222 H 293.188 -0.339874 1.39932 0
M  V30 3223 H 295.141 -3.14431 2.80555 0
M  V30 3224 H 293.865 -2.84795 1.59873 0
M  V30 3225 H 292.524 -1.57565 3.31012 0
M  V30 3226 H 292.172 -4.03297 3.00601 0
M  V30 3227 H 291.872 -3.53861 4.69101 0
M  V30 3228 H 293.396 -4.36855 4.26603 0
M  V30 3229 H 294.81 -2.31816 5.24342 0
M  V30 3230 H 293.207 -1.71181 5.75167 0
M  V30 3231 H 294.277 -0.663542 4.80339 0
M  V30 3232 N 295.62 -1.53406 -0.361157 0
M  V30 3233 C 297.036 -1.43277 -0.703124 0
M  V30 3234 C 297.236 -0.575384 -1.9311 0
M  V30 3235 O 296.292 -0.0595362 -2.5243 0
M  V30 3236 C 297.605 -2.8653 -0.9122 0
M  V30 3237 C 299.153 -2.96191 -1.01193 0
M  V30 3238 C 299.628 -4.40514 -1.25345 0
M  V30 3239 N 301.119 -4.43962 -1.32105 0
M  V30 3240 C 301.854 -5.52746 -1.5251 0
M  V30 3241 N 301.35 -6.71567 -1.70203 0
M  V30 3242 N 303.143 -5.40331 -1.54916 0
M  V30 3243 H 295.294 -2.07654 0.446475 0
M  V30 3244 H 297.557 -0.937944 0.137715 0
M  V30 3245 H 297.263 -3.51605 -0.0816414 0
M  V30 3246 H 297.137 -3.30441 -1.81903 0
M  V30 3247 H 299.524 -2.31266 -1.83303 0
M  V30 3248 H 299.605 -2.55667 -0.0823929 0
M  V30 3249 H 299.249 -5.06014 -0.437346 0
M  V30 3250 H 299.179 -4.78614 -2.19627 0
M  V30 3251 H 301.67 -3.58332 -1.20028 0
M  V30 3252 H 301.983 -7.50241 -1.85359 0
M  V30 3253 H 300.328 -6.74545 -1.67373 0
M  V30 3254 H 303.519 -4.46465 -1.40663 0
M  V30 3255 H 303.692 -6.25173 -1.70477 0
M  V30 3256 N 297.098 0.621204 -1.44841 0
M  V30 3257 C 298.344 1.3826 -1.48365 0
M  V30 3258 C 298.677 1.93831 -0.119624 0
M  V30 3259 O 297.952 1.74251 0.864111 0
M  V30 3260 C 298.235 2.54058 -2.55199 0
M  V30 3261 C 298.088 2.03772 -4.00995 0
M  V30 3262 C 299.407 3.56225 -2.58442 0
M  V30 3263 H 296.526 0.501374 -0.540179 0
M  V30 3264 H 299.168 0.7015 -1.76576 0
M  V30 3265 H 297.318 3.12162 -2.31274 0
M  V30 3266 H 298.99 1.50423 -4.36086 0
M  V30 3267 H 297.233 1.34876 -4.12299 0
M  V30 3268 H 297.904 2.87185 -4.71411 0
M  V30 3269 H 300.38 3.07939 -2.79844 0
M  V30 3270 H 299.256 4.34756 -3.3508 0
M  V30 3271 H 299.517 4.10949 -1.63013 0
M  V30 3272 N 298.576 1.31904 0.862503 0
M  V30 3273 C 299.824 1.21776 1.61292 0
M  V30 3274 C 300.145 -0.222413 1.93727 0
M  V30 3275 O 299.415 -1.1451 1.58947 0
M  V30 3276 H 297.995 0.447717 0.597962 0
M  V30 3277 H 300.657 1.65326 1.03215 0
M  V30 3278 H 299.753 1.7948 2.5533 0
M  V30 3279 N 300.054 -1.07777 1.14986 0
M  V30 3280 C 301.331 -1.7699 0.832695 0
M  V30 3281 C 301.711 -2.001 -0.672561 0
M  V30 3282 O 301.059 -1.61598 -1.6155 0
M  V30 3283 C 301.269 -3.08139 1.63863 0
M  V30 3284 C 302.617 -3.8256 1.84208 0
M  V30 3285 O 303.641 -3.17939 1.60603 0
M  V30 3286 O 302.5 -4.98612 2.23714 0
M  V30 3287 H 299.594 -0.768389 0.305791 0
M  V30 3288 H 302.14 -1.14182 1.25541 0
M  V30 3289 H 300.912 -2.86909 2.6608 0
M  V30 3290 H 300.535 -3.78678 1.21197 0
M  V30 3291 N 301.532 -0.945985 -1.26051 0
M  V30 3292 C 302.462 -0.477172 -2.28572 0
M  V30 3293 C 303.443 0.472032 -1.63419 0
M  V30 3294 O 304.628 0.372853 -1.90587 0
M  V30 3295 C 301.758 0.253975 -3.4637 0
M  V30 3296 C 300.712 -0.609135 -4.23643 0
M  V30 3297 C 300.038 0.252252 -5.34105 0
M  V30 3298 C 301.338 -1.8829 -4.8718 0
M  V30 3299 H 303.032 -1.33402 -2.68038 0
M  V30 3300 H 300.578 -0.642904 -1.28852 0
M  V30 3301 H 302.531 0.593016 -4.17207 0
M  V30 3302 H 301.255 1.145 -3.05871 0
M  V30 3303 H 299.914 -0.931138 -3.54578 0
M  V30 3304 H 299.562 1.14278 -4.89846 0
M  V30 3305 H 299.262 -0.32188 -5.86718 0
M  V30 3306 H 300.786 0.586454 -6.07777 0
M  V30 3307 H 302.2 -1.61081 -5.50205 0
M  V30 3308 H 300.597 -2.40199 -5.49931 0
M  V30 3309 H 301.667 -2.59134 -4.09851 0
M  V30 3310 N 303.011 1.40521 -0.713556 0
M  V30 3311 C 304.427 1.54839 -0.386907 0
M  V30 3312 C 304.627 1.68532 1.1045 0
M  V30 3313 O 303.683 1.67377 1.89053 0
M  V30 3314 C 304.996 2.77792 -1.15118 0
M  V30 3315 C 306.544 2.91607 -1.13729 0
M  V30 3316 C 307.019 4.1747 -1.88368 0
M  V30 3317 N 308.51 4.24466 -1.85427 0
M  V30 3318 C 309.245 5.20755 -2.40004 0
M  V30 3319 N 308.741 6.22965 -3.03129 0
M  V30 3320 N 310.534 5.1282 -2.30158 0
M  V30 3321 H 302.685 1.29879 -1.68063 0
M  V30 3322 H 304.948 0.627896 -0.710247 0
M  V30 3323 H 304.654 2.73944 -2.20561 0
M  V30 3324 H 304.528 3.6984 -0.741477 0
M  V30 3325 H 306.915 2.94959 -0.0910608 0
M  V30 3326 H 306.996 2.00682 -1.5862 0
M  V30 3327 H 306.64 4.1488 -2.9298 0
M  V30 3328 H 306.57 5.074 -1.40898 0
M  V30 3329 H 309.061 3.51241 -1.3942 0
M  V30 3330 H 309.374 6.92859 -3.42295 0
M  V30 3331 H 307.719 6.23415 -3.07212 0
M  V30 3332 H 310.91 4.31899 -1.80501 0
M  V30 3333 H 311.083 5.87689 -2.72993 0
M  V30 3334 N 304.489 0.459591 1.5075 0
M  V30 3335 C 305.436 -0.340524 2.28274 0
M  V30 3336 C 306.406 -0.997371 1.32822 0
M  V30 3337 O 307.591 -1.01202 1.61749 0
M  V30 3338 C 304.731 -1.42317 3.14388 0
M  V30 3339 C 303.844 -0.782251 4.24859 0
M  V30 3340 C 302.979 -1.84182 4.98247 0
M  V30 3341 C 302.018 -1.18053 6.00608 0
M  V30 3342 N 301.155 -2.18244 6.67319 0
M  V30 3343 H 305.995 0.326899 2.96202 0
M  V30 3344 H 303.532 0.173057 1.46078 0
M  V30 3345 H 305.49 -2.06241 3.62658 0
M  V30 3346 H 304.12 -2.05992 2.4853 0
M  V30 3347 H 303.172 -0.0307404 3.80388 0
M  V30 3348 H 304.484 -0.259663 4.98124 0
M  V30 3349 H 303.638 -2.55714 5.50177 0
M  V30 3350 H 302.377 -2.39819 4.24662 0
M  V30 3351 H 301.382 -0.450776 5.47949 0
M  V30 3352 H 302.607 -0.631202 6.7616 0
M  V30 3353 H 300.553 -2.72919 5.96533 0
M  V30 3354 H 300.47 -1.70938 7.36421 0
M  V30 3355 H 301.738 -2.89191 7.23871 0
M  V30 3356 N 305.967 -1.56429 0.191757 0
M  V30 3357 C 307.192 -2.02309 -0.456706 0
M  V30 3358 C 307.617 -1.07103 -1.5463 0
M  V30 3359 O 306.975 -0.0539677 -1.8122 0
M  V30 3360 C 307.023 -3.46654 -0.993159 0
M  V30 3361 O 306.127 -3.54559 -2.10622 0
M  V30 3362 H 305.468 -0.655303 -0.107114 0
M  V30 3363 H 307.998 -2.02364 0.301653 0
M  V30 3364 H 308.008 -3.86377 -1.31061 0
M  V30 3365 H 306.683 -4.1544 -0.195504 0
M  V30 3366 H 305.26 -3.26708 -1.79767 0
M  V30 3367 N 307.445 0.0818655 -1.57387 0
M  V30 3368 C 308.378 1.12986 -1.98266 0
M  V30 3369 C 309.356 1.38123 -0.857954 0
M  V30 3370 O 310.54 1.51663 -1.1194 0
M  V30 3371 C 307.667 2.47632 -2.31076 0
M  V30 3372 C 306.713 2.38693 -3.53452 0
M  V30 3373 S 307.546 1.79071 -5.04672 0
M  V30 3374 C 308.702 3.15316 -5.40673 0
M  V30 3375 H 308.935 0.781435 -2.86846 0
M  V30 3376 H 306.468 0.290034 -1.51651 0
M  V30 3377 H 308.426 3.25089 -2.50654 0
M  V30 3378 H 307.087 2.79638 -1.43043 0
M  V30 3379 H 306.28 3.37964 -3.73893 0
M  V30 3380 H 305.882 1.69369 -3.33452 0
M  V30 3381 H 308.174 4.11613 -5.38127 0
M  V30 3382 H 309.117 2.99664 -6.41566 0
M  V30 3383 H 309.525 3.15457 -4.68132 0
M  V30 3384 N 308.923 1.53595 0.353017 0
M  V30 3385 C 310.172 1.69603 1.09168 0
M  V30 3386 C 310.485 0.460925 1.90092 0
M  V30 3387 O 311.691 0.501774 2.66823 0
M  V30 3388 C 310.147 2.99872 1.9901 0
M  V30 3389 C 309.755 4.30687 1.23339 0
M  V30 3390 C 311.499 3.25246 2.72792 0
M  V30 3391 C 309.406 5.52036 2.12156 0
M  V30 3392 H 308.336 0.631966 0.411261 0
M  V30 3393 H 310.987 1.80096 0.351802 0
M  V30 3394 H 309.369 2.83212 2.7678 0
M  V30 3395 H 310.543 4.58019 0.505456 0
M  V30 3396 H 308.858 4.11853 0.613663 0
M  V30 3397 H 311.455 4.13095 3.39495 0
M  V30 3398 H 311.798 2.41846 3.38846 0
M  V30 3399 H 312.331 3.42638 2.021 0
M  V30 3400 H 309.07 6.37951 1.50659 0
M  V30 3401 H 308.59 5.28966 2.82764 0
M  V30 3402 H 310.269 5.87313 2.71427 0
M  V30 3403 N 310.401 -0.613514 1.45168 0
M  V30 3404 C 311.65 -1.36874 1.4815 0
M  V30 3405 C 311.963 -1.952 0.124982 0
M  V30 3406 O 313.169 -2.71481 0.0324176 0
M  V30 3407 C 311.625 -2.47905 2.60904 0
M  V30 3408 C 311.233 -1.96016 4.02842 0
M  V30 3409 C 312.977 -3.24965 2.73126 0
M  V30 3410 C 310.884 -3.04494 5.06988 0
M  V30 3411 H 309.814 -0.514428 0.551253 0
M  V30 3412 H 312.465 -0.658182 1.7129 0
M  V30 3413 H 310.847 -3.21618 2.31037 0
M  V30 3414 H 312.021 -1.29051 4.4236 0
M  V30 3415 H 310.336 -1.31719 3.95018 0
M  V30 3416 H 312.933 -4.05865 3.48106 0
M  V30 3417 H 313.276 -3.75588 1.79553 0
M  V30 3418 H 313.809 -2.5835 3.0249 0
M  V30 3419 H 310.548 -2.58795 6.0225 0
M  V30 3420 H 310.068 -3.70044 4.72046 0
M  V30 3421 H 311.747 -3.68976 5.31475 0
M  V30 3422 N 311.879 -1.3236 -0.855495 0
M  V30 3423 C 313.104 -1.2601 -1.64731 0
M  V30 3424 C 313.529 0.169068 -1.87339 0
M  V30 3425 O 312.887 1.12016 -1.42556 0
M  V30 3426 C 312.935 -2.02417 -2.98429 0
M  V30 3427 O 312.039 -1.3714 -3.8893 0
M  V30 3428 H 311.38 -0.434325 -0.502253 0
M  V30 3429 H 313.91 -1.74661 -1.06558 0
M  V30 3430 H 313.92 -2.12559 -3.48257 0
M  V30 3431 H 312.595 -3.06343 -2.81295 0
M  V30 3432 H 311.172 -1.3554 -3.47395 0
M  V30 3433 N 313.357 1.07166 -1.15556 0
M  V30 3434 C 314.32 2.12589 -0.856644 0
M  V30 3435 C 315.32 1.6015 0.14444 0
M  V30 3436 O 316.51 1.7399 -0.0854163 0
M  V30 3437 C 313.642 3.39753 -0.279405 0
M  V30 3438 H 314.835 2.40539 -1.79112 0
M  V30 3439 H 312.388 1.23086 -0.963298 0
M  V30 3440 H 313.123 3.17447 0.663174 0
M  V30 3441 H 312.908 3.79117 -1.00063 0
M  V30 3442 H 314.398 4.17507 -0.0879113 0
M  V30 3443 N 314.835 0.952656 1.25548 0
M  V30 3444 C 316.063 0.623496 1.97282 0
M  V30 3445 C 316.478 -0.803987 1.70826 0
M  V30 3446 O 315.835 -1.53755 0.983147 0
M  V30 3447 C 315.886 0.870209 3.5087 0
M  V30 3448 O 315.607 2.24156 3.76412 0
M  V30 3449 C 317.108 0.553164 4.39835 0
M  V30 3450 H 314.328 0.233931 0.628902 0
M  V30 3451 H 316.872 1.27649 1.59768 0
M  V30 3452 H 315.027 0.263652 3.86502 0
M  V30 3453 H 315.441 2.31021 4.70882 0
M  V30 3454 H 316.915 0.776342 5.46513 0
M  V30 3455 H 317.392 -0.512215 4.36203 0
M  V30 3456 H 317.998 1.13896 4.09766 0
M  V30 3457 N 316.313 -1.40141 0.720998 0
M  V30 3458 C 317.562 -2.0002 0.259804 0
M  V30 3459 C 317.875 -1.57839 -1.15526 0
M  V30 3460 O 319.081 -2.10455 -1.71525 0
M  V30 3461 C 317.537 -3.57516 0.413566 0
M  V30 3462 C 317.145 -4.08667 1.83562 0
M  V30 3463 C 318.889 -4.24498 0.0134387 0
M  V30 3464 C 316.796 -5.58686 1.93968 0
M  V30 3465 H 315.726 -0.748195 0.0933806 0
M  V30 3466 H 318.377 -1.60313 0.892866 0
M  V30 3467 H 316.759 -3.9495 -0.288169 0
M  V30 3468 H 317.933 -3.82598 2.56817 0
M  V30 3469 H 316.248 -3.543 2.1877 0
M  V30 3470 H 318.845 -5.34654 0.0703954 0
M  V30 3471 H 319.188 -4.03375 -1.02927 0
M  V30 3472 H 319.721 -3.92188 0.665815 0
M  V30 3473 H 316.46 -5.8467 2.96379 0
M  V30 3474 H 315.98 -5.86602 1.25131 0
M  V30 3475 H 317.659 -6.23875 1.71431 0
M  V30 3476 N 317.792 -0.46758 -1.50504 0
M  V30 3477 C 318.742 0.34698 -2.25344 0
M  V30 3478 C 319.726 0.964469 -1.2879 0
M  V30 3479 O 320.918 0.8776 -1.53711 0
M  V30 3480 C 318.047 1.43042 -3.1208 0
M  V30 3481 C 317.133 0.82084 -4.16081 0
M  V30 3482 N 317.524 -0.0567602 -5.05768 0
M  V30 3483 C 315.822 1.08517 -4.32597 0
M  V30 3484 C 316.523 -0.402343 -5.80307 0
M  V30 3485 N 315.499 0.221607 -5.43148 0
M  V30 3486 H 319.301 -0.329129 -2.92051 0
M  V30 3487 H 316.815 -0.281508 -1.59942 0
M  V30 3488 H 318.812 2.02712 -3.64299 0
M  V30 3489 H 317.472 2.10856 -2.46921 0
M  V30 3490 H 318.483 -0.425349 -5.1615 0
M  V30 3491 H 315.16 1.75855 -3.78657 0
M  V30 3492 H 316.55 -1.11834 -6.62528 0
M  V30 3493 N 319.27 1.56325 -0.20005 0
M  V30 3494 C 320.203 2.15234 0.758267 0
M  V30 3495 C 321.181 1.09046 1.20614 0
M  V30 3496 O 322.365 1.37186 1.29276 0
M  V30 3497 C 319.492 2.71524 2.02466 0
M  V30 3498 C 318.538 3.90345 1.71852 0
M  V30 3499 S 319.371 5.28513 0.862249 0
M  V30 3500 C 320.527 5.88227 2.13868 0
M  V30 3501 H 320.76 2.96183 0.2575 0
M  V30 3502 H 318.293 1.54393 0.0150099 0
M  V30 3503 H 320.251 3.04598 2.75191 0
M  V30 3504 H 318.912 1.90607 2.49655 0
M  V30 3505 H 318.105 4.28158 2.65888 0
M  V30 3506 H 317.707 3.58306 1.07205 0
M  V30 3507 H 319.999 6.02891 3.09076 0
M  V30 3508 H 320.942 6.84714 1.80479 0
M  V30 3509 H 321.35 5.16874 2.2694 0
M  V30 3510 N 320.748 -0.0735177 1.57428 0
M  V30 3511 C 321.68 -1.11423 2.00294 0
M  V30 3512 C 322.693 -1.35084 0.908637 0
M  V30 3513 O 323.882 -1.33355 1.18654 0
M  V30 3514 C 320.982 -2.46548 2.32523 0
M  V30 3515 C 320.155 -2.42867 3.63778 0
M  V30 3516 C 319.214 -3.60087 3.83697 0
M  V30 3517 O 318.24 -3.41595 4.55304 0
M  V30 3518 N 319.442 -4.80372 3.25919 0
M  V30 3519 H 322.207 -0.749206 2.90184 0
M  V30 3520 H 319.768 -0.262195 1.59763 0
M  V30 3521 H 321.76 -3.23607 2.43024 0
M  V30 3522 H 320.33 -2.75059 1.48531 0
M  V30 3523 H 319.55 -1.51206 3.64047 0
M  V30 3524 H 320.838 -2.37506 4.49965 0
M  V30 3525 H 320.236 -4.983 2.67795 0
M  V30 3526 H 318.793 -5.54948 3.41871 0
M  V30 3527 N 322.226 -1.5378 -0.344866 0
M  V30 3528 C 323.472 -1.71216 -1.08687 0
M  V30 3529 C 323.805 -0.473281 -1.88345 0
M  V30 3530 O 323.08 0.52968 -1.87149 0
M  V30 3531 C 323.363 -2.97486 -2.02914 0
M  V30 3532 C 323.216 -4.31579 -1.26727 0
M  V30 3533 C 324.535 -3.19422 -3.0275 0
M  V30 3534 H 321.654 -0.62301 -0.393735 0
M  V30 3535 H 324.296 -1.8645 -0.365563 0
M  V30 3536 H 322.446 -2.84629 -2.64421 0
M  V30 3537 H 324.118 -4.56284 -0.67845 0
M  V30 3538 H 322.361 -4.30049 -0.569273 0
M  V30 3539 H 323.032 -5.16106 -1.95803 0
M  V30 3540 H 325.508 -3.316 -2.51357 0
M  V30 3541 H 324.384 -4.09169 -3.65885 0
M  V30 3542 H 324.645 -2.35656 -3.74057 0
M  V30 3543 N 323.704 0.605807 -1.45491 0
M  V30 3544 C 324.95 1.36679 -1.49823 0
M  V30 3545 C 325.283 1.93693 -0.140175 0
M  V30 3546 O 324.558 1.75158 0.845581 0
M  V30 3547 C 324.841 2.51337 -2.57879 0
M  V30 3548 C 324.694 1.99508 -4.03134 0
M  V30 3549 C 326.013 3.53463 -2.62205 0
M  V30 3550 H 323.132 0.495617 -0.545466 0
M  V30 3551 H 325.774 0.682732 -1.7731 0
M  V30 3552 H 323.924 3.09691 -2.34571 0
M  V30 3553 H 325.596 1.45789 -4.37656 0
M  V30 3554 H 323.839 1.30496 -4.13707 0
M  V30 3555 H 324.51 2.82169 -4.74431 0
M  V30 3556 H 326.986 3.04953 -2.83095 0
M  V30 3557 H 325.862 4.31178 -3.39672 0
M  V30 3558 H 326.123 4.09197 -1.67363 0
M  V30 3559 N 325.182 1.32811 0.848464 0
M  V30 3560 C 326.598 1.11937 1.13764 0
M  V30 3561 C 326.798 -0.0960789 2.01271 0
M  V30 3562 O 325.854 -0.779165 2.40178 0
M  V30 3563 C 327.167 2.402 1.809 0
M  V30 3564 C 328.715 2.46016 1.93508 0
M  V30 3565 C 329.19 3.74215 2.64059 0
M  V30 3566 N 330.681 3.75232 2.71579 0
M  V30 3567 C 331.416 4.71134 3.26833 0
M  V30 3568 N 330.912 5.77406 3.8285 0
M  V30 3569 N 332.705 4.58623 3.24995 0
M  V30 3570 H 324.856 2.1073 0.265855 0
M  V30 3571 H 327.119 0.930671 0.180431 0
M  V30 3572 H 326.825 3.29093 1.24058 0
M  V30 3573 H 326.699 2.51628 2.81004 0
M  V30 3574 H 329.086 1.57577 2.49506 0
M  V30 3575 H 329.167 2.38536 0.923811 0
M  V30 3576 H 328.811 4.63031 2.08722 0
M  V30 3577 H 328.741 3.78968 3.65637 0
M  V30 3578 H 331.232 2.98423 2.31845 0
M  V30 3579 H 331.545 6.46632 4.23187 0
M  V30 3580 H 329.89 5.81152 3.81165 0
M  V30 3581 H 333.081 3.74762 2.80484 0
M  V30 3582 H 333.254 5.33535 3.67756 0
M  V30 3583 N 326.66 -1.06551 1.16123 0
M  V30 3584 C 327.607 -2.13961 0.865414 0
M  V30 3585 C 328.577 -1.65066 -0.185055 0
M  V30 3586 O 329.762 -1.90732 -0.05083 0
M  V30 3587 C 326.902 -3.43113 0.369776 0
M  V30 3588 C 326.015 -4.05756 1.48276 0
M  V30 3589 C 325.15 -5.22773 0.942414 0
M  V30 3590 C 324.189 -5.77395 2.03179 0
M  V30 3591 N 323.326 -6.85731 1.50721 0
M  V30 3592 H 328.166 -2.38605 1.78527 0
M  V30 3593 H 325.703 -1.17072 0.890646 0
M  V30 3594 H 327.661 -4.17151 0.0640643 0
M  V30 3595 H 326.291 -3.18695 -0.513143 0
M  V30 3596 H 325.343 -3.29292 1.9045 0
M  V30 3597 H 326.655 -4.42351 2.30493 0
M  V30 3598 H 325.809 -6.03827 0.589729 0
M  V30 3599 H 324.548 -4.87618 0.0895191 0
M  V30 3600 H 323.553 -4.94981 2.3932 0
M  V30 3601 H 324.778 -6.14603 2.8886 0
M  V30 3602 H 322.724 -6.52499 0.676811 0
M  V30 3603 H 322.641 -7.21254 2.26557 0
M  V30 3604 H 323.909 -7.7047 1.18303 0
M  V30 3605 N 328.138 -0.959301 -1.25041 0
M  V30 3606 C 329.366 -0.633949 -1.96948 0
M  V30 3607 C 329.781 0.794916 -1.7125 0
M  V30 3608 O 329.138 1.53231 -0.991287 0
M  V30 3609 C 329.189 -0.888805 -3.50403 0
M  V30 3610 O 328.91 -2.26149 -3.75218 0
M  V30 3611 C 330.411 -0.576482 -4.39536 0
M  V30 3612 H 327.631 -0.237263 -0.627652 0
M  V30 3613 H 330.175 -1.28495 -1.59089 0
M  V30 3614 H 328.33 -0.284145 -3.86357 0
M  V30 3615 H 328.744 -2.33514 -4.6965 0
M  V30 3616 H 330.218 -0.805314 -5.46094 0
M  V30 3617 H 330.695 0.489075 -4.36468 0
M  V30 3618 H 331.301 -1.16067 -4.09156 0
M  V30 3619 N 329.616 1.39756 -0.72842 0
M  V30 3620 C 330.844 2.04948 -0.283528 0
M  V30 3621 C 331.259 1.54908 1.0793 0
M  V30 3622 O 330.616 0.711135 1.68075 0
M  V30 3623 C 330.667 3.60498 -0.268957 0
M  V30 3624 O 330.388 4.08695 -1.57798 0
M  V30 3625 C 331.889 4.4288 0.192912 0
M  V30 3626 H 329.109 0.659243 -0.125056 0
M  V30 3627 H 331.653 1.78927 -0.990226 0
M  V30 3628 H 329.808 3.85444 0.388801 0
M  V30 3629 H 330.222 5.02977 -1.48709 0
M  V30 3630 H 331.696 5.51791 0.151952 0
M  V30 3631 H 332.173 4.21418 1.23708 0
M  V30 3632 H 332.779 4.23069 -0.435039 0
M  V30 3633 N 331.094 0.475555 1.50254 0
M  V30 3634 C 332.319 -0.0777042 2.07254 0
M  V30 3635 C 332.744 -1.3235 1.3366 0
M  V30 3636 O 332.102 -1.77152 0.385597 0
M  V30 3637 C 332.15 -0.340169 3.58992 0
M  V30 3638 O 331.254 -1.41982 3.87188 0
M  V30 3639 H 330.595 0.0149556 0.663832 0
M  V30 3640 H 333.125 0.667878 1.93392 0
M  V30 3641 H 333.135 -0.579332 4.03866 0
M  V30 3642 H 331.81 0.570167 4.11973 0
M  V30 3643 H 330.387 -1.16762 3.54148 0
M  V30 3644 N 332.573 -1.56217 0.208337 0
M  V30 3645 C 333.984 -1.84243 -0.301904 0
M  V30 3646 C 334.335 -1.12939 -1.60434 0
M  V30 3647 O 333.46 -0.39461 -2.12772 0
M  V30 3648 C 334.055 -3.34231 -0.554543 0
M  V30 3649 C 332.614 -3.62621 -1.00912 0
M  V30 3650 C 331.761 -2.77224 -0.064933 0
M  V30 3651 H 334.712 -1.52712 0.431833 0
M  V30 3652 H 334.733 -3.5372 -1.40223 0
M  V30 3653 H 334.245 -3.86099 0.393561 0
M  V30 3654 H 332.346 -3.16197 -1.97104 0
M  V30 3655 H 332.459 -4.7071 -0.892674 0
M  V30 3656 H 330.823 -2.48256 -0.56929 0
M  V30 3657 H 331.606 -3.31887 0.877851 0
M  V30 3658 N 334.051 0.0651679 -1.57465 0
M  V30 3659 C 334.961 1.09448 -2.07505 0
M  V30 3660 C 335.977 1.41974 -1.00595 0
M  V30 3661 O 337.153 1.52018 -1.32107 0
M  V30 3662 C 334.218 2.38689 -2.51453 0
M  V30 3663 C 333.279 2.13073 -3.72691 0
M  V30 3664 C 332.512 3.36152 -4.14533 0
M  V30 3665 O 332.735 4.45517 -3.56189 0
M  V30 3666 O 331.669 3.23974 -5.07272 0
M  V30 3667 H 335.495 0.69935 -2.95538 0
M  V30 3668 H 333.08 0.279752 -1.46757 0
M  V30 3669 H 334.962 3.14736 -2.80212 0
M  V30 3670 H 333.637 2.77568 -1.66546 0
M  V30 3671 H 332.544 1.34709 -3.49005 0
M  V30 3672 H 333.877 1.79071 -4.5847 0
M  V30 3673 N 335.529 1.53961 0.336706 0
M  V30 3674 C 336.777 1.71197 1.07405 0
M  V30 3675 C 337.098 0.481475 1.88962 0
M  V30 3676 O 336.368 -0.504585 1.8929 0
M  V30 3677 H 334.948 0.631185 0.399517 0
M  V30 3678 H 337.61 1.91232 0.376323 0
M  V30 3679 H 336.706 2.58587 1.74755 0
M  V30 3680 N 337.007 -0.598083 1.45811 0
M  V30 3681 C 337.917 -1.73632 1.57763 0
M  V30 3682 C 338.933 -1.67763 0.461676 0
M  V30 3683 O 340.109 -1.87949 0.723685 0
M  V30 3684 C 337.174 -3.10114 1.55018 0
M  V30 3685 C 336.235 -3.27364 2.77726 0
M  V30 3686 C 335.468 -4.57334 2.75102 0
M  V30 3687 O 335.691 -5.40258 1.8297 0
M  V30 3688 O 334.625 -4.77502 3.66437 0
M  V30 3689 H 338.451 -1.66498 2.53992 0
M  V30 3690 H 336.036 -0.763308 1.28429 0
M  V30 3691 H 337.918 -3.9141 1.56129 0
M  V30 3692 H 336.593 -3.17718 0.619431 0
M  V30 3693 H 335.5 -2.45619 2.82174 0
M  V30 3694 H 336.833 -3.24641 3.69958 0
M  V30 3695 N 338.485 -1.33259 -0.841409 0
M  V30 3696 C 339.731 -1.24757 -1.59886 0
M  V30 3697 C 340.064 0.186913 -1.93298 0
M  V30 3698 O 339.339 1.12757 -1.5848 0
M  V30 3699 C 339.622 -2.12036 -2.91055 0
M  V30 3700 C 339.475 -3.63929 -2.6434 0
M  V30 3701 C 340.794 -1.9916 -3.92458 0
M  V30 3702 H 337.913 -0.454542 -0.580138 0
M  V30 3703 H 340.555 -1.63335 -0.970647 0
M  V30 3704 H 338.705 -1.79265 -3.44669 0
M  V30 3705 H 340.377 -4.06978 -2.17178 0
M  V30 3706 H 338.62 -3.85935 -1.98082 0
M  V30 3707 H 339.291 -4.20341 -3.57796 0
M  V30 3708 H 341.767 -2.27895 -3.48143 0
M  V30 3709 H 340.643 -2.62484 -4.82072 0
M  V30 3710 H 340.904 -0.963082 -4.31482 0
M  V30 3711 N 339.963 1.05934 -1.16686 0
M  V30 3712 C 341.209 1.79065 -0.95203 0
M  V30 3713 C 341.542 1.87147 0.518629 0
M  V30 3714 O 340.817 1.36574 1.38484 0
M  V30 3715 C 341.1 3.23359 -1.58464 0
M  V30 3716 C 340.953 3.23336 -3.12689 0
M  V30 3717 C 342.272 4.21004 -1.28232 0
M  V30 3718 H 339.391 0.65005 -0.34728 0
M  V30 3719 H 342.033 1.23868 -1.44072 0
M  V30 3720 H 340.183 3.70493 -1.16908 0
M  V30 3721 H 341.855 2.84336 -3.6325 0
M  V30 3722 H 340.098 2.61886 -3.4583 0
M  V30 3723 H 340.769 4.25144 -3.52075 0
M  V30 3724 H 343.245 3.8233 -1.64203 0
M  V30 3725 H 342.121 5.20225 -1.75092 0
M  V30 3726 H 342.382 4.41639 -0.201791 0
M  V30 3727 N 341.441 0.965919 1.2453 0
M  V30 3728 C 342.852 0.665929 1.7442 0
M  V30 3729 C 343.203 -0.818407 1.78316 0
M  V30 3730 O 342.328 -1.64037 1.41141 0
M  V30 3731 C 342.923 1.20211 3.16757 0
M  V30 3732 C 341.482 0.952059 3.6416 0
M  V30 3733 C 340.629 1.33848 2.42858 0
M  V30 3734 H 343.58 1.14144 1.10258 0
M  V30 3735 H 343.601 0.567544 3.76244 0
M  V30 3736 H 343.113 2.28244 3.13889 0
M  V30 3737 H 341.214 -0.112821 3.72429 0
M  V30 3738 H 341.327 1.59645 4.51719 0
M  V30 3739 H 339.691 0.756864 2.43195 0
M  V30 3740 H 340.474 2.42827 2.42673 0
M  V30 3741 N 342.919 -1.39368 0.735821 0
M  V30 3742 C 343.849 -2.33234 0.111506 0
M  V30 3743 C 344.83 -1.53954 -0.723334 0
M  V30 3744 O 346.015 -1.82344 -0.668147 0
M  V30 3745 C 343.145 -3.38057 -0.795917 0
M  V30 3746 C 342.099 -4.2795 -0.065172 0
M  V30 3747 C 341.425 -5.23479 -1.08967 0
M  V30 3748 C 342.725 -5.10741 1.09273 0
M  V30 3749 H 344.419 -2.85692 0.895571 0
M  V30 3750 H 341.965 -1.37364 0.432109 0
M  V30 3751 H 343.918 -4.02675 -1.24221 0
M  V30 3752 H 342.642 -2.8404 -1.61211 0
M  V30 3753 H 341.301 -3.64813 0.361511 0
M  V30 3754 H 340.949 -4.65758 -1.89944 0
M  V30 3755 H 340.649 -5.84472 -0.605489 0
M  V30 3756 H 342.173 -5.90974 -1.53565 0
M  V30 3757 H 343.587 -5.68699 0.724841 0
M  V30 3758 H 341.984 -5.8088 1.50659 0
M  V30 3759 H 343.054 -4.45525 1.91404 0
M  V30 3760 N 344.397 -0.483516 -1.5 0
M  V30 3761 C 345.347 0.32306 -2.257 0
M  V30 3762 C 346.331 0.950755 -1.29805 0
M  V30 3763 O 347.523 0.861247 -1.54634 0
M  V30 3764 C 344.652 1.39724 -3.13579 0
M  V30 3765 C 343.738 0.776663 -4.16928 0
M  V30 3766 N 344.129 -0.1104 -5.0568 0
M  V30 3767 C 342.427 1.03922 -4.33724 0
M  V30 3768 C 343.128 -0.46387 -5.79848 0
M  V30 3769 N 342.104 0.163987 -5.43353 0
M  V30 3770 H 345.906 -0.360086 -2.91686 0
M  V30 3771 H 343.42 -0.298456 -1.59634 0
M  V30 3772 H 345.417 1.98837 -3.66428 0
M  V30 3773 H 344.077 2.08225 -2.49143 0
M  V30 3774 H 345.088 -0.480069 -5.1567 0
M  V30 3775 H 341.765 1.71829 -3.80501 0
M  V30 3776 H 343.155 -1.18854 -6.61304 0
M  V30 3777 N 345.875 1.56104 -0.216619 0
M  V30 3778 C 346.807 2.17339 0.72776 0
M  V30 3779 C 347.82 1.14109 1.16116 0
M  V30 3780 O 349.009 1.4111 1.09317 0
M  V30 3781 C 346.109 2.73818 1.99693 0
M  V30 3782 C 345.282 4.02168 1.71988 0
M  V30 3783 C 344.341 4.43259 2.83562 0
M  V30 3784 O 343.367 5.10257 2.52244 0
M  V30 3785 N 344.569 4.08535 4.12407 0
M  V30 3786 H 347.334 2.99005 0.203983 0
M  V30 3787 H 344.895 1.61861 -0.0354289 0
M  V30 3788 H 346.887 2.9828 2.73516 0
M  V30 3789 H 345.457 1.96483 2.43132 0
M  V30 3790 H 344.677 3.85612 0.818337 0
M  V30 3791 H 345.965 4.85907 1.50903 0
M  V30 3792 H 345.363 3.54687 4.40696 0
M  V30 3793 H 343.92 4.37901 4.8279 0
M  V30 3794 N 347.353 -0.0568162 1.57498 0
M  V30 3795 C 348.599 -0.75422 1.88253 0
M  V30 3796 C 348.932 -1.76461 0.810865 0
M  V30 3797 O 348.207 -1.93691 -0.177259 0
M  V30 3798 C 348.49 -1.44878 3.2967 0
M  V30 3799 C 348.343 -0.453789 4.47505 0
M  V30 3800 C 349.662 -2.38994 3.69554 0
M  V30 3801 H 346.781 -0.272724 0.684683 0
M  V30 3802 H 349.423 -0.0172113 1.89992 0
M  V30 3803 H 347.573 -2.077 3.28318 0
M  V30 3804 H 349.245 0.170371 4.60985 0
M  V30 3805 H 347.488 0.229552 4.33192 0
M  V30 3806 H 348.159 -0.977699 5.43273 0
M  V30 3807 H 350.635 -1.86239 3.72095 0
M  V30 3808 H 349.511 -2.84587 4.69363 0
M  V30 3809 H 349.772 -3.24461 3.00296 0
M  V30 3810 N 348.832 -1.54138 -0.328536 0
M  V30 3811 C 350.109 -1.62749 -1.08499 0
M  V30 3812 C 350.489 -0.458198 -2.06067 0
M  V30 3813 O 349.837 0.548046 -2.2183 0
M  V30 3814 C 350.047 -2.99519 -1.79135 0
M  V30 3815 C 351.395 -3.55394 -2.32337 0
M  V30 3816 O 352.419 -3.01792 -1.89209 0
M  V30 3817 O 351.278 -4.49186 -3.11279 0
M  V30 3818 H 348.372 -0.65886 -0.499832 0
M  V30 3819 H 350.918 -1.66484 -0.328826 0
M  V30 3820 H 349.69 -3.76061 -1.08139 0
M  V30 3821 H 349.313 -2.99441 -2.61574 0
M  V30 3822 N 350.31 0.590341 -1.46126 0
M  V30 3823 C 351.559 1.34499 -1.50309 0
M  V30 3824 C 351.872 1.94977 -0.156021 0
M  V30 3825 O 353.078 2.71395 -0.0756037 0
M  V30 3826 C 351.534 2.43723 -2.64815 0
M  V30 3827 C 351.142 1.89582 -4.0591 0
M  V30 3828 C 352.886 3.20579 -2.78262 0
M  V30 3829 C 350.793 2.9639 -5.11769 0
M  V30 3830 H 349.723 0.505593 -0.559368 0
M  V30 3831 H 352.374 0.630848 -1.72315 0
M  V30 3832 H 350.756 3.17902 -2.36124 0
M  V30 3833 H 351.93 1.21997 -4.44357 0
M  V30 3834 H 350.245 1.25418 -3.97063 0
M  V30 3835 H 352.842 4.00276 -3.54519 0
M  V30 3836 H 353.185 3.72684 -1.85505 0
M  V30 3837 H 353.718 2.53505 -3.06562 0
M  V30 3838 H 350.457 2.49181 -6.06291 0
M  V30 3839 H 349.977 3.62487 -4.77873 0
M  V30 3840 H 351.656 3.60474 -5.37278 0
M  V30 3841 N 351.788 1.33704 0.83433 0
M  V30 3842 C 353.199 1.22813 1.4062 0
M  V30 3843 C 353.55 -0.151107 1.95617 0
M  V30 3844 O 352.675 -1.05092 1.89168 0
M  V30 3845 C 353.27 2.22355 2.55624 0
M  V30 3846 C 351.829 2.1529 3.08751 0
M  V30 3847 C 350.976 2.09589 1.8157 0
M  V30 3848 H 353.927 1.45236 0.639702 0
M  V30 3849 H 353.948 1.83391 3.33389 0
M  V30 3850 H 353.46 3.22728 2.15566 0
M  V30 3851 H 351.561 1.18235 3.53343 0
M  V30 3852 H 351.674 3.06038 3.68616 0
M  V30 3853 H 350.038 1.55134 2.02004 0
M  V30 3854 H 350.821 3.11777 1.43701 0
M  V30 3855 N 353.266 -1.05314 1.17247 0
M  V30 3856 C 354.199 -2.12512 0.831507 0
M  V30 3857 C 355.177 -1.61351 -0.201168 0
M  V30 3858 O 356.361 -1.88317 -0.0829831 0
M  V30 3859 C 353.488 -3.37848 0.24015 0
M  V30 3860 C 352.534 -4.07832 1.24801 0
M  V30 3861 S 353.367 -4.56537 2.79882 0
M  V30 3862 C 354.523 -5.85122 2.22223 0
M  V30 3863 H 354.756 -2.41106 1.7394 0
M  V30 3864 H 352.289 -1.17896 0.996988 0
M  V30 3865 H 354.247 -4.10391 -0.0945588 0
M  V30 3866 H 352.908 -3.07392 -0.645668 0
M  V30 3867 H 352.101 -4.97883 0.78287 0
M  V30 3868 H 351.703 -3.41348 1.52831 0
M  V30 3869 H 353.995 -6.58408 1.59703 0
M  V30 3870 H 354.938 -6.36381 3.10523 0
M  V30 3871 H 355.346 -5.39626 1.65722 0
M  V30 3872 N 354.744 -0.972509 -1.24016 0
M  V30 3873 C 355.654 -0.5143 -2.28893 0
M  V30 3874 C 356.67 0.427078 -1.68677 0
M  V30 3875 O 357.846 0.298939 -1.99169 0
M  V30 3876 C 354.911 0.183598 -3.46214 0
M  V30 3877 C 353.972 -0.798202 -4.21814 0
M  V30 3878 C 353.205 -0.133514 -5.33533 0
M  V30 3879 O 353.428 1.07714 -5.60137 0
M  V30 3880 O 352.362 -0.828103 -5.96176 0
M  V30 3881 H 356.188 -1.38629 -2.70214 0
M  V30 3882 H 353.773 -0.739769 -1.29799 0
M  V30 3883 H 355.655 0.575433 -4.17453 0
M  V30 3884 H 354.33 1.03048 -3.0686 0
M  V30 3885 H 353.237 -1.24059 -3.52931 0
M  V30 3886 H 354.57 -1.61364 -4.64997 0
M  V30 3887 N 356.222 1.38976 -0.743202 0
M  V30 3888 C 357.17 2.32394 -0.0978389 0
M  V30 3889 C 358.164 1.53486 0.716824 0
M  V30 3890 O 359.37 1.69092 0.617088 0
M  V30 3891 H 355.745 0.75189 -0.0128402 0
M  V30 3892 H 357.716 2.84441 -0.901981 0
M  V30 3893 C 356.465 3.38629 0.789036 0
M  V30 3894 H 355.788 3.99432 0.171559 0
M  V30 3895 H 357.228 4.06426 1.20807 0
M  V30 3896 C 355.687 2.76347 1.92702 0
M  V30 3897 O 356.217 2.64836 3.02034 0
M  V30 3898 N 354.423 2.34311 1.71891 0
M  V30 3899 H 353.97 2.43873 0.829675 0
M  V30 3900 H 353.928 1.9298 2.48205 0
M  V30 3901 N 357.7 0.491464 1.49741 0
M  V30 3902 C 358.948 -0.0563141 2.02022 0
M  V30 3903 C 359.269 -1.38363 1.37407 0
M  V30 3904 O 358.539 -1.88702 0.526166 0
M  V30 3905 H 357.119 -0.0238014 0.746621 0
M  V30 3906 H 359.781 0.646533 1.83864 0
M  V30 3907 H 358.877 -0.192967 3.11503 0
M  V30 3908 N 359.178 -1.55987 0.224894 0
M  V30 3909 C 360.424 -1.98684 -0.406502 0
M  V30 3910 C 360.757 -1.11248 -1.59177 0
M  V30 3911 O 360.032 -0.170909 -1.93748 0
M  V30 3912 C 360.315 -3.50218 -0.837808 0
M  V30 3913 C 360.168 -4.48426 0.351332 0
M  V30 3914 C 361.487 -4.06243 -1.69278 0
M  V30 3915 H 358.606 -0.722337 -0.146283 0
M  V30 3916 H 361.248 -1.87255 0.321799 0
M  V30 3917 H 359.398 -3.60089 -1.45837 0
M  V30 3918 H 361.07 -4.50562 0.989526 0
M  V30 3919 H 359.313 -4.22159 0.998207 0
M  V30 3920 H 359.984 -5.52 0.00655905 0
M  V30 3921 H 362.46 -3.99337 -1.16914 0
M  V30 3922 H 361.336 -5.12581 -1.96346 0
M  V30 3923 H 361.597 -3.53332 -2.65723 0
M  V30 3924 N 360.656 0.0484629 -1.57525 0
M  V30 3925 C 361.904 0.741657 -1.88 0
M  V30 3926 C 362.225 1.76918 -0.820054 0
M  V30 3927 O 361.495 1.95335 0.148661 0
M  V30 3928 H 360.075 0.276908 -0.69378 0
M  V30 3929 H 362.737 0.019013 -1.94891 0
M  V30 3930 H 361.833 1.24336 -2.86264 0
M  V30 3931 N 362.134 1.5431 0.320358 0
M  V30 3932 C 363.382 1.72327 1.05583 0
M  V30 3933 C 363.703 0.50149 1.88441 0
M  V30 3934 O 362.973 -0.48448 1.89815 0
M  V30 3935 H 361.553 0.635387 0.3928 0
M  V30 3936 H 364.215 1.91621 0.356019 0
M  V30 3937 H 363.311 2.60426 1.72003 0
M  V30 3938 N 363.613 -0.582584 1.46437 0
M  V30 3939 C 364.561 -1.71272 1.5738 0
M  V30 3940 C 365.555 -1.63524 0.44229 0
M  V30 3941 O 366.761 -1.69016 0.619166 0
M  V30 3942 H 363.136 -0.566273 0.494813 0
M  V30 3943 H 365.107 -1.59174 2.52401 0
M  V30 3944 C 363.856 -3.09658 1.58136 0
M  V30 3945 H 363.179 -3.16291 2.44541 0
M  V30 3946 H 364.619 -3.88494 1.69847 0
M  V30 3947 C 363.078 -3.3547 0.310026 0
M  V30 3948 O 363.608 -3.97199 -0.599683 0
M  V30 3949 N 361.814 -2.89925 0.197901 0
M  V30 3950 H 361.361 -2.39873 0.93909 0
M  V30 3951 H 361.319 -3.07568 -0.65185 0
M  V30 3952 N 365.091 -1.34144 -0.827227 0
M  V30 3953 C 366.316 -1.29476 -1.62021 0
M  V30 3954 C 366.741 0.129292 -1.87655 0
M  V30 3955 O 366.099 1.08967 -1.449 0
M  V30 3956 C 366.147 -2.08702 -2.94068 0
M  V30 3957 O 365.251 -1.45359 -3.85933 0
M  V30 3958 H 364.592 -0.444881 -0.492927 0
M  V30 3959 H 367.122 -1.76882 -1.02829 0
M  V30 3960 H 367.132 -2.19898 -3.43669 0
M  V30 3961 H 365.807 -3.12241 -2.74734 0
M  V30 3962 H 364.384 -1.42879 -3.44442 0
M  V30 3963 N 366.569 1.04691 -1.17803 0
M  V30 3964 C 367.818 1.77176 -0.963931 0
M  V30 3965 C 368.131 1.88888 0.508015 0
M  V30 3966 O 369.337 2.58164 0.840465 0
M  V30 3967 C 367.793 3.18518 -1.67555 0
M  V30 3968 C 367.401 3.14919 -3.18637 0
M  V30 3969 C 369.145 3.95424 -1.54402 0
M  V30 3970 C 367.052 4.51081 -3.82466 0
M  V30 3971 H 365.982 0.664116 -0.357023 0
M  V30 3972 H 368.633 1.17303 -1.4111 0
M  V30 3973 H 367.015 3.78748 -1.15613 0
M  V30 3974 H 368.189 2.64178 -3.77554 0
M  V30 3975 H 366.504 2.51512 -3.31859 0
M  V30 3976 H 369.101 4.96106 -1.99456 0
M  V30 3977 H 369.444 4.13343 -0.495329 0
M  V30 3978 H 369.977 3.41754 -2.0359 0
M  V30 3979 H 366.716 4.38368 -4.87354 0
M  V30 3980 H 366.236 5.01951 -3.28337 0
M  V30 3981 H 367.915 5.2001 -3.84965 0
M  V30 3982 N 368.047 0.979072 1.23499 0
M  V30 3983 C 369.294 0.647219 1.91878 0
M  V30 3984 C 369.622 -0.819074 1.76413 0
M  V30 3985 O 368.877 -1.60616 1.11808 0
M  V30 3986 C 369.176 0.981932 3.43646 0
M  V30 3987 C 368.842 2.43822 3.79291 0
M  V30 3988 C 367.504 2.83622 3.88731 0
M  V30 3989 C 369.856 3.3828 3.96505 0
M  V30 3990 C 367.184 4.16897 4.12812 0
M  V30 3991 C 369.536 4.71197 4.22085 0
M  V30 3992 C 368.2 5.10758 4.29747 0
M  V30 3993 H 367.47 0.236834 0.702133 0
M  V30 3994 H 370.117 1.23268 1.46551 0
M  V30 3995 H 368.422 0.314365 3.90537 0
M  V30 3996 H 370.119 0.703395 3.94783 0
M  V30 3997 H 366.709 2.11966 3.72516 0
M  V30 3998 H 370.893 3.0871 3.88603 0
M  V30 3999 H 366.149 4.47157 4.16966 0
M  V30 4000 H 370.323 5.44348 4.34348 0
M  V30 4001 H 367.95 6.1405 4.48159 0
M  V30 4002 N 369.525 -1.3858 0.750561 0
M  V30 4003 C 370.455 -2.33102 0.136237 0
M  V30 4004 C 371.436 -1.54713 -0.706965 0
M  V30 4005 O 372.621 -1.83043 -0.648769 0
M  V30 4006 C 369.751 -3.38882 -0.760017 0
M  V30 4007 C 368.705 -4.27995 -0.0197785 0
M  V30 4008 C 368.031 -5.24605 -1.03408 0
M  V30 4009 C 369.331 -5.09554 1.14684 0
M  V30 4010 H 371.025 -2.84726 0.925822 0
M  V30 4011 H 368.571 -1.36898 0.446654 0
M  V30 4012 H 370.524 -4.0397 -1.19943 0
M  V30 4013 H 369.248 -2.85734 -1.58189 0
M  V30 4014 H 367.907 -3.64409 0.400184 0
M  V30 4015 H 367.555 -4.67746 -1.84994 0
M  V30 4016 H 367.255 -5.85081 -0.543464 0
M  V30 4017 H 368.779 -5.9257 -1.47288 0
M  V30 4018 H 370.193 -5.67899 0.785118 0
M  V30 4019 H 368.59 -5.7925 1.56812 0
M  V30 4020 H 369.66 -4.4347 1.96118 0
M  V30 4021 N 371.003 -0.499398 -1.49478 0
M  V30 4022 C 372.249 0.0457576 -2.02748 0
M  V30 4023 C 372.582 1.36793 -1.37846 0
M  V30 4024 O 371.857 1.87596 -0.513601 0
M  V30 4025 C 372.14 0.199986 -3.59544 0
M  V30 4026 C 371.993 -1.1452 -4.34977 0
M  V30 4027 C 373.312 0.94137 -4.29914 0
M  V30 4028 H 370.431 0.0151552 -0.736844 0
M  V30 4029 H 373.073 -0.650498 -1.78518 0
M  V30 4030 H 371.223 0.793007 -3.8032 0
M  V30 4031 H 372.895 -1.77697 -4.25701 0
M  V30 4032 H 371.138 -1.73488 -3.97598 0
M  V30 4033 H 371.809 -0.990607 -5.43039 0
M  V30 4034 H 374.285 0.43844 -4.13784 0
M  V30 4035 H 373.161 1.01812 -5.39375 0
M  V30 4036 H 373.422 1.98471 -3.95046 0
M  V30 4037 N 372.481 1.55866 -0.233164 0
M  V30 4038 C 373.444 2.1953 0.658715 0
M  V30 4039 C 374.444 1.16053 1.11303 0
M  V30 4040 O 375.634 1.41218 1.01996 0
M  V30 4041 C 372.766 2.82791 1.90373 0
M  V30 4042 H 373.959 2.99721 0.10347 0
M  V30 4043 H 371.512 1.56291 0.0164245 0
M  V30 4044 H 372.247 2.06501 2.50056 0
M  V30 4045 H 372.032 3.58578 1.58632 0
M  V30 4046 H 373.522 3.31556 2.53891 0
M  V30 4047 N 373.959 -0.0401083 1.57549 0
M  V30 4048 C 375.37 -0.588097 1.77196 0
M  V30 4049 C 375.721 -1.76209 0.862832 0
M  V30 4050 O 374.846 -2.16331 0.0548389 0
M  V30 4051 C 375.441 -1.07363 3.21339 0
M  V30 4052 C 374 -1.56723 3.42221 0
M  V30 4053 C 373.147 -0.50041 2.72747 0
M  V30 4054 H 376.098 0.186119 1.57605 0
M  V30 4055 H 376.119 -1.94143 3.27244 0
M  V30 4056 H 375.631 -0.218975 3.87482 0
M  V30 4057 H 373.732 -2.4441 2.81237 0
M  V30 4058 H 373.845 -1.62234 4.50796 0
M  V30 4059 H 372.209 -0.952894 2.36203 0
M  V30 4060 H 372.992 0.344599 3.41566 0
M  V30 4061 N 375.437 -1.54477 -0.31217 0
M  V30 4062 C 376.367 -1.87652 -1.38957 0
M  V30 4063 C 377.348 -0.734358 -1.53431 0
M  V30 4064 O 378.533 -0.98911 -1.67123 0
M  V30 4065 C 375.663 -2.11396 -2.75552 0
M  V30 4066 C 374.617 -3.27243 -2.75855 0
M  V30 4067 C 373.943 -3.36382 -4.15633 0
M  V30 4068 C 375.243 -4.64622 -2.38587 0
M  V30 4069 H 376.937 -2.77887 -1.11442 0
M  V30 4070 H 374.483 -1.33707 -0.534655 0
M  V30 4071 H 376.436 -2.33189 -3.51 0
M  V30 4072 H 375.16 -1.17921 -3.04569 0
M  V30 4073 H 373.819 -3.05356 -2.02863 0
M  V30 4074 H 373.467 -2.40445 -4.41809 0
M  V30 4075 H 373.167 -4.14249 -4.1674 0
M  V30 4076 H 374.691 -3.60422 -4.92877 0
M  V30 4077 H 376.105 -4.86219 -3.03749 0
M  V30 4078 H 374.502 -5.45121 -2.50925 0
M  V30 4079 H 375.572 -4.66097 -1.33723 0
M  V30 4080 N 376.915 0.57481 -1.46744 0
M  V30 4081 C 378.164 1.32898 -1.51727 0
M  V30 4082 C 378.477 1.948 -0.176692 0
M  V30 4083 O 379.683 2.71299 -0.104385 0
M  V30 4084 C 378.139 2.40901 -2.67385 0
M  V30 4085 C 377.747 1.85266 -4.07898 0
M  V30 4086 C 379.491 3.17609 -2.81646 0
M  V30 4087 C 377.398 2.90945 -5.14883 0
M  V30 4088 H 376.328 0.499631 -0.564699 0
M  V30 4089 H 378.979 0.612536 -1.72975 0
M  V30 4090 H 377.361 3.15379 -2.39483 0
M  V30 4091 H 378.535 1.17278 -4.45626 0
M  V30 4092 H 376.85 1.21199 -3.98371 0
M  V30 4093 H 379.447 3.96493 -3.58744 0
M  V30 4094 H 379.79 3.70696 -1.89448 0
M  V30 4095 H 380.323 2.50239 -3.09233 0
M  V30 4096 H 377.062 2.42736 -6.089 0
M  V30 4097 H 376.582 3.57398 -4.81691 0
M  V30 4098 H 378.261 3.54755 -5.41071 0
M  V30 4099 N 378.394 1.34581 0.820102 0
M  V30 4100 C 379.643 1.26437 1.57151 0
M  V30 4101 C 379.956 -0.163111 1.94919 0
M  V30 4102 O 381.162 -0.366722 2.69012 0
M  V30 4103 C 379.618 2.21658 2.83541 0
M  V30 4104 C 379.226 3.69679 2.53065 0
M  V30 4105 C 380.97 2.22428 3.61561 0
M  V30 4106 C 378.877 4.56761 3.75664 0
M  V30 4107 H 377.807 0.469707 0.589823 0
M  V30 4108 H 380.458 1.59763 0.902656 0
M  V30 4109 H 378.84 1.81287 3.52067 0
M  V30 4110 H 380.014 4.18605 1.92631 0
M  V30 4111 H 378.329 3.71384 1.88316 0
M  V30 4112 H 380.926 2.8471 4.52597 0
M  V30 4113 H 381.269 1.22434 3.97889 0
M  V30 4114 H 381.802 2.61259 2.99981 0
M  V30 4115 H 378.541 5.57702 3.44454 0
M  V30 4116 H 378.061 4.12568 4.35371 0
M  V30 4117 H 379.74 4.71509 4.43044 0
M  V30 4118 N 379.872 -1.04064 1.18357 0
M  V30 4119 C 381.102 -1.80654 1.00238 0
M  V30 4120 C 381.51 -1.83713 -0.452362 0
M  V30 4121 O 380.853 -1.27135 -1.32599 0
M  V30 4122 C 380.915 -3.27582 1.48088 0
M  V30 4123 C 380.579 -3.48184 2.96002 0
M  V30 4124 C 381.576 -3.39372 3.93856 0
M  V30 4125 C 379.261 -3.7478 3.34433 0
M  V30 4126 C 381.255 -3.5686 5.28138 0
M  V30 4127 C 378.942 -3.91915 4.68877 0
M  V30 4128 C 379.94 -3.82956 5.65539 0
M  V30 4129 O 379.628 -3.996 6.97549 0
M  V30 4130 H 379.36 -0.575751 0.354241 0
M  V30 4131 H 381.914 -1.32044 1.57333 0
M  V30 4132 H 380.144 -3.77161 0.853588 0
M  V30 4133 H 381.833 -3.8573 1.2636 0
M  V30 4134 H 382.599 -3.18789 3.65511 0
M  V30 4135 H 378.478 -3.80852 2.59756 0
M  V30 4136 H 382.022 -3.49783 6.03571 0
M  V30 4137 H 377.919 -4.11992 4.96923 0
M  V30 4138 H 378.687 -4.1676 7.04452 0
M  V30 4139 N 381.35 -0.985608 -1.22978 0
M  V30 4140 C 382.3 -0.50118 -2.22423 0
M  V30 4141 C 383.284 0.426649 -1.5514 0
M  V30 4142 O 384.476 0.254656 -1.75159 0
M  V30 4143 C 381.605 0.190003 -3.42774 0
M  V30 4144 C 380.691 -0.757703 -4.17276 0
M  V30 4145 N 381.082 -1.90251 -4.68656 0
M  V30 4146 C 379.38 -0.57209 -4.42316 0
M  V30 4147 C 380.081 -2.49676 -5.25392 0
M  V30 4148 N 379.057 -1.78013 -5.13627 0
M  V30 4149 H 382.859 -1.37441 -2.59783 0
M  V30 4150 H 380.373 -0.846941 -1.38567 0
M  V30 4151 H 382.37 0.55439 -4.13197 0
M  V30 4152 H 381.03 1.05946 -3.06929 0
M  V30 4153 H 382.041 -2.28354 -4.64839 0
M  V30 4154 H 378.718 0.251909 -4.16739 0
M  V30 4155 H 380.108 -3.46384 -5.75732 0
M  V30 4156 N 382.828 1.3818 -0.7579 0
M  V30 4157 C 384.074 2.00316 -0.316453 0
M  V30 4158 C 384.407 1.60026 1.10025 0
M  V30 4159 O 383.682 0.839835 1.75434 0
M  V30 4160 C 383.965 3.57349 -0.444245 0
M  V30 4161 C 383.818 4.07591 -1.90236 0
M  V30 4162 C 385.137 4.3981 0.1598 0
M  V30 4163 H 382.256 0.727741 -0.116459 0
M  V30 4164 H 384.898 1.6406 -0.958352 0
M  V30 4165 H 383.048 3.88365 0.102233 0
M  V30 4166 H 384.72 3.87199 -2.50748 0
M  V30 4167 H 382.963 3.60297 -2.41595 0
M  V30 4168 H 383.634 5.16677 -1.94291 0
M  V30 4169 H 386.11 4.14971 -0.306314 0
M  V30 4170 H 384.986 5.48885 0.0401675 0
M  V30 4171 H 385.247 4.24102 1.24859 0
M  V30 4172 N 384.306 0.507319 1.49211 0
M  V30 4173 C 385.555 -0.0368315 2.01666 0
M  V30 4174 C 385.868 -1.37459 1.39156 0
M  V30 4175 O 387.074 -2.00579 1.82976 0
M  V30 4176 C 385.53 -0.116089 3.59713 0
M  V30 4177 C 385.138 1.2154 4.31198 0
M  V30 4178 C 386.882 -0.610268 4.2009 0
M  V30 4179 C 384.789 1.09796 5.81119 0
M  V30 4180 H 383.719 -0.0175376 0.753796 0
M  V30 4181 H 386.37 0.647691 1.71689 0
M  V30 4182 H 384.752 -0.8652 3.86433 0
M  V30 4183 H 385.926 1.9783 4.16173 0
M  V30 4184 H 384.241 1.64352 3.82593 0
M  V30 4185 H 386.838 -0.715742 5.29888 0
M  V30 4186 H 387.181 -1.61064 3.8388 0
M  V30 4187 H 387.714 0.0824916 3.97714 0
M  V30 4188 H 384.453 2.0728 6.21864 0
M  V30 4189 H 383.973 0.376058 5.9862 0
M  V30 4190 H 385.652 0.779281 6.4229 0
M  V30 4191 N 385.784 -1.5574 0.241426 0
M  V30 4192 C 387.061 -1.90704 -0.434881 0
M  V30 4193 C 387.441 -1.16145 -1.76277 0
M  V30 4194 O 386.789 -0.277152 -2.26813 0
M  V30 4195 C 386.999 -3.43657 -0.608343 0
M  V30 4196 C 388.347 -4.14806 -0.906725 0
M  V30 4197 O 389.371 -3.49366 -0.694408 0
M  V30 4198 O 388.23 -5.30548 -1.31075 0
M  V30 4199 H 385.324 -0.793592 -0.23268 0
M  V30 4200 H 387.87 -1.67288 0.285086 0
M  V30 4201 H 386.642 -3.89927 0.327505 0
M  V30 4202 H 386.265 -3.72918 -1.37906 0
M  V30 4203 N 387.262 0.0317525 -1.57568 0
M  V30 4204 C 388.225 1.01783 -2.0536 0
M  V30 4205 C 389.225 1.29203 -0.957253 0
M  V30 4206 O 390.415 1.24251 -1.22095 0
M  V30 4207 C 387.547 2.35137 -2.46827 0
M  V30 4208 H 388.74 0.605062 -2.93733 0
M  V30 4209 H 386.293 0.278514 -1.53799 0
M  V30 4210 H 387.028 2.81168 -1.61602 0
M  V30 4211 H 386.813 2.16566 -3.26866 0
M  V30 4212 H 388.303 3.05938 -2.84239 0
M  V30 4213 N 388.74 1.54641 0.303973 0
M  V30 4214 C 389.688 1.86137 1.39484 0
M  V30 4215 C 390.682 0.734854 1.52631 0
M  V30 4216 O 391.888 0.918803 1.54784 0
M  V30 4217 H 388.263 0.590324 0.465856 0
M  V30 4218 H 390.234 2.77324 1.10154 0
M  V30 4219 C 388.983 2.12274 2.75382 0
M  V30 4220 H 388.306 2.98429 2.66046 0
M  V30 4221 H 389.746 2.38254 3.5073 0
M  V30 4222 C 388.205 0.920365 3.24085 0
M  V30 4223 O 388.735 0.139377 4.01458 0
M  V30 4224 N 386.941 0.726566 2.81371 0
M  V30 4225 H 386.488 1.36332 2.18567 0
M  V30 4226 H 386.446 -0.0763799 3.14307 0
M  V30 4227 N 390.218 -0.567019 1.47046 0
M  V30 4228 C 391.443 -1.3551 1.57009 0
M  V30 4229 C 391.868 -1.86841 0.217259 0
M  V30 4230 O 391.226 -1.62435 -0.805268 0
M  V30 4231 C 391.274 -2.50777 2.5912 0
M  V30 4232 O 390.378 -3.52706 2.13711 0
M  V30 4233 H 389.719 -0.402919 0.52778 0
M  V30 4234 H 392.249 -0.686241 1.92748 0
M  V30 4235 H 392.259 -2.97481 2.79229 0
M  V30 4236 H 390.934 -2.12771 3.57353 0
M  V30 4237 H 389.511 -3.12374 2.03659 0
M  V30 4238 N 391.696 -1.35014 -0.812953 0
M  V30 4239 C 393.107 -1.25035 -1.38648 0
M  V30 4240 C 393.458 0.119967 -1.95833 0
M  V30 4241 O 392.583 1.02069 -1.90816 0
M  V30 4242 C 393.178 -2.26394 -2.52054 0
M  V30 4243 C 391.737 -2.20175 -3.05287 0
M  V30 4244 C 390.884 -2.12451 -1.78213 0
M  V30 4245 H 393.835 -1.46235 -0.616516 0
M  V30 4246 H 393.856 -1.88672 -3.30429 0
M  V30 4247 H 393.368 -3.26116 -2.10404 0
M  V30 4248 H 391.469 -1.23841 -3.51417 0
M  V30 4249 H 391.582 -3.11863 -3.63701 0
M  V30 4250 H 389.946 -1.58328 -1.9951 0
M  V30 4251 H 390.729 -3.14024 -1.38723 0
M  V30 4252 N 393.175 1.03435 -1.18907 0
M  V30 4253 C 394.105 2.13503 -0.945448 0
M  V30 4254 C 395.086 1.69682 0.119189 0
M  V30 4255 O 396.271 1.94169 -0.034707 0
M  V30 4256 C 393.401 3.44004 -0.477316 0
M  V30 4257 C 392.355 4.0148 -1.48316 0
M  V30 4258 C 391.681 5.27537 -0.872311 0
M  V30 4259 C 392.981 4.36921 -2.86177 0
M  V30 4260 H 394.675 2.34141 -1.86597 0
M  V30 4261 H 392.221 1.12523 -0.898584 0
M  V30 4262 H 394.174 4.20372 -0.294204 0
M  V30 4263 H 392.898 3.23072 0.478786 0
M  V30 4264 H 391.557 3.27201 -1.65332 0
M  V30 4265 H 391.205 5.02917 0.0911752 0
M  V30 4266 H 390.905 5.66954 -1.54393 0
M  V30 4267 H 392.429 6.06576 -0.699871 0
M  V30 4268 H 393.843 5.04248 -2.72776 0
M  V30 4269 H 392.24 4.87405 -3.50081 0
M  V30 4270 H 393.31 3.46466 -3.39248 0
M  V30 4271 N 394.653 0.992116 1.22453 0
M  V30 4272 C 395.883 0.684949 1.94915 0
M  V30 4273 C 396.291 -0.754292 1.73514 0
M  V30 4274 O 395.634 -1.52056 1.03076 0
M  V30 4275 C 395.696 0.910054 3.47791 0
M  V30 4276 C 395.36 2.33363 3.92926 0
M  V30 4277 C 396.357 3.31308 4.00663 0
M  V30 4278 C 394.042 2.66785 4.25595 0
M  V30 4279 C 396.036 4.6075 4.40441 0
M  V30 4280 C 393.723 3.96446 4.65053 0
M  V30 4281 C 394.721 4.9324 4.72444 0
M  V30 4282 O 394.409 6.20584 5.1101 0
M  V30 4283 H 394.141 0.25258 0.62704 0
M  V30 4284 H 396.695 1.32939 1.56577 0
M  V30 4285 H 394.925 0.208443 3.86138 0
M  V30 4286 H 396.614 0.598257 4.01467 0
M  V30 4287 H 397.38 3.0682 3.75615 0
M  V30 4288 H 393.259 1.92148 4.19047 0
M  V30 4289 H 396.803 5.363 4.46126 0
M  V30 4290 H 392.7 4.20724 4.89552 0
M  V30 4291 H 393.468 6.24509 5.29085 0
M  V30 4292 N 396.131 -1.37776 0.765217 0
M  V30 4293 C 397.408 -1.93975 0.251596 0
M  V30 4294 C 397.788 -1.69949 -1.25222 0
M  V30 4295 O 397.136 -1.04457 -2.03226 0
M  V30 4296 C 397.346 -3.43487 0.617895 0
M  V30 4297 C 398.694 -4.20564 0.584029 0
M  V30 4298 O 399.718 -3.5182 0.556888 0
M  V30 4299 O 398.577 -5.43138 0.605291 0
M  V30 4300 H 395.671 -0.82509 0.0561806 0
M  V30 4301 H 398.217 -1.47101 0.846128 0
M  V30 4302 H 396.989 -3.5453 1.65602 0
M  V30 4303 H 396.612 -3.976 -0.00403411 0
M  V30 4304 N 397.609 -0.515225 -1.4894 0
M  V30 4305 C 398.539 0.244628 -2.32215 0
M  V30 4306 C 399.52 0.949136 -1.41157 0
M  V30 4307 O 400.705 0.937783 -1.70057 0
M  V30 4308 C 397.835 1.30096 -3.22013 0
M  V30 4309 C 396.789 0.715486 -4.21977 0
M  V30 4310 C 396.115 1.87339 -5.00808 0
M  V30 4311 C 397.415 -0.302982 -5.2142 0
M  V30 4312 H 399.109 -0.450501 -2.95991 0
M  V30 4313 H 396.655 -0.218098 -1.42339 0
M  V30 4314 H 398.608 1.84037 -3.79089 0
M  V30 4315 H 397.332 2.02547 -2.56207 0
M  V30 4316 H 395.991 0.197715 -3.66066 0
M  V30 4317 H 395.639 2.58592 -4.31438 0
M  V30 4318 H 395.339 1.48764 -5.68457 0
M  V30 4319 H 396.863 2.41686 -5.60732 0
M  V30 4320 H 398.277 0.148802 -5.73107 0
M  V30 4321 H 396.674 -0.60532 -5.97039 0
M  V30 4322 H 397.744 -1.21395 -4.69459 0
M  V30 4323 N 399.087 1.5561 -0.249682 0
M  V30 4324 C 400.05 2.20217 0.635394 0
M  V30 4325 C 401.05 1.17227 1.10066 0
M  V30 4326 O 402.24 1.42292 1.00492 0
M  V30 4327 C 399.372 2.84794 1.87363 0
M  V30 4328 H 400.565 2.99814 0.0716752 0
M  V30 4329 H 398.118 1.563 -0.000153234 0
M  V30 4330 H 398.853 2.09142 2.47851 0
M  V30 4331 H 398.638 3.60241 1.5482 0
M  V30 4332 H 400.128 3.3423 2.5036 0
M  V30 4333 N 400.565 -0.0233959 1.57583 0
M  V30 4334 C 401.976 -0.56927 1.77809 0
M  V30 4335 C 402.327 -1.75284 0.881472 0
M  V30 4336 O 401.452 -2.1626 0.0777805 0
M  V30 4337 C 402.047 -1.03949 3.22459 0
M  V30 4338 C 400.606 -1.53084 3.43864 0
M  V30 4339 C 399.753 -0.471454 2.73263 0
M  V30 4340 H 402.704 0.202825 1.57399 0
M  V30 4341 H 402.725 -1.90661 3.29285 0
M  V30 4342 H 402.237 -0.177865 3.87692 0
M  V30 4343 H 400.338 -2.41414 2.83814 0
M  V30 4344 H 400.451 -1.57443 4.52491 0
M  V30 4345 H 398.815 -0.927788 2.37201 0
M  V30 4346 H 399.598 0.380808 3.41181 0
M  V30 4347 N 402.043 -1.548 -0.295768 0
M  V30 4348 C 403.268 -1.78653 -1.05346 0
M  V30 4349 C 403.693 -0.546894 -1.79974 0
M  V30 4350 O 403.051 0.502763 -1.7419 0
M  V30 4351 C 403.099 -2.99679 -2.00561 0
M  V30 4352 O 402.203 -2.7317 -3.08953 0
M  V30 4353 H 401.544 -0.59116 -0.302367 0
M  V30 4354 H 404.074 -2.01895 -0.331598 0
M  V30 4355 H 404.084 -3.27793 -2.42932 0
M  V30 4356 H 402.759 -3.89562 -1.4565 0
M  V30 4357 H 401.336 -2.56089 -2.71059 0
M  V30 4358 N 403.521 0.559213 -1.47345 0
M  V30 4359 C 404.798 1.31997 -1.44348 0
M  V30 4360 C 405.178 2.1064 -0.139358 0
M  V30 4361 O 404.526 2.1091 0.879153 0
M  V30 4362 C 404.736 2.22618 -2.68779 0
M  V30 4363 C 406.084 2.83701 -3.1591 0
M  V30 4364 O 407.108 2.32921 -2.69493 0
M  V30 4365 O 405.967 3.75993 -3.966 0
M  V30 4366 H 403.061 0.594251 -0.575147 0
M  V30 4367 H 405.607 0.578282 -1.59543 0
M  V30 4368 H 404.379 1.64093 -3.55231 0
M  V30 4369 H 404.002 3.04085 -2.5616 0
M  V30 4370 N 404.999 1.35443 0.805782 0
M  V30 4371 C 405.929 1.31095 1.93226 0
M  V30 4372 C 406.91 0.185244 1.69088 0
M  V30 4373 O 408.095 0.380332 1.90439 0
M  V30 4374 C 405.225 1.08299 3.29983 0
M  V30 4375 C 404.179 2.17519 3.68605 0
M  V30 4376 C 403.505 1.79887 5.03532 0
M  V30 4377 C 404.805 3.5949 3.78898 0
M  V30 4378 H 406.499 2.25352 1.97122 0
M  V30 4379 H 404.045 1.0848 0.946996 0
M  V30 4380 H 405.998 1.03897 4.08391 0
M  V30 4381 H 404.722 0.104885 3.26432 0
M  V30 4382 H 403.381 2.2102 2.92482 0
M  V30 4383 H 403.029 0.80693 4.96485 0
M  V30 4384 H 402.729 2.53001 5.30344 0
M  V30 4385 H 404.253 1.77011 5.84379 0
M  V30 4386 H 405.667 3.58307 4.47536 0
M  V30 4387 H 404.064 4.31371 4.1718 0
M  V30 4388 H 405.134 3.95584 2.80431 0
M  V30 4389 N 406.477 -1.02803 1.19454 0
M  V30 4390 C 407.427 -2.0945 0.900827 0
M  V30 4391 C 408.411 -1.60335 -0.134715 0
M  V30 4392 O 409.603 -1.76857 0.0710924 0
M  V30 4393 C 406.732 -3.4044 0.442229 0
M  V30 4394 C 405.818 -3.96286 1.51056 0
M  V30 4395 N 406.209 -4.25785 2.73021 0
M  V30 4396 C 404.507 -4.24307 1.37404 0
M  V30 4397 C 405.208 -4.70654 3.41848 0
M  V30 4398 N 404.184 -4.72238 2.69243 0
M  V30 4399 H 407.986 -2.3015 1.82779 0
M  V30 4400 H 405.5 -1.20672 1.08683 0
M  V30 4401 H 407.497 -4.16354 0.21326 0
M  V30 4402 H 406.157 -3.21159 -0.478238 0
M  V30 4403 H 407.168 -4.15041 3.09776 0
M  V30 4404 H 403.845 -4.14285 0.517103 0
M  V30 4405 H 405.235 -5.02392 4.46152 0
M  V30 4406 N 407.956 -0.998596 -1.21925 0
M  V30 4407 C 408.906 -0.524743 -2.21879 0
M  V30 4408 C 409.89 0.41017 -1.55584 0
M  V30 4409 O 411.082 0.236063 -1.75419 0
M  V30 4410 C 408.211 0.153636 -3.42956 0
M  V30 4411 C 407.297 -0.801918 -4.16449 0
M  V30 4412 N 407.688 -1.95211 -4.66611 0
M  V30 4413 C 405.986 -0.618972 -4.41684 0
M  V30 4414 C 406.687 -2.55234 -5.22715 0
M  V30 4415 N 405.663 -1.83451 -5.1171 0
M  V30 4416 H 409.465 -1.40189 -2.58311 0
M  V30 4417 H 406.979 -0.86159 -1.3766 0
M  V30 4418 H 408.976 0.510534 -4.13762 0
M  V30 4419 H 407.636 1.02684 -3.08036 0
M  V30 4420 H 408.647 -2.33271 -4.62391 0
M  V30 4421 H 405.324 0.207694 -4.16983 0
M  V30 4422 H 406.714 -3.52471 -5.72026 0
M  V30 4423 N 409.434 1.37368 -0.772513 0
M  V30 4424 C 410.384 2.27613 -0.132823 0
M  V30 4425 C 411.368 1.46138 0.673247 0
M  V30 4426 O 412.56 1.68686 0.536095 0
M  V30 4427 C 409.689 3.35122 0.744864 0
M  V30 4428 C 408.775 4.24044 -0.0690771 0
M  V30 4429 N 409.166 4.93355 -1.1151 0
M  V30 4430 C 407.464 4.45731 0.154782 0
M  V30 4431 C 408.165 5.59 -1.60917 0
M  V30 4432 N 407.141 5.35737 -0.921222 0
M  V30 4433 H 410.943 2.78675 -0.933681 0
M  V30 4434 H 408.457 1.50494 -0.610342 0
M  V30 4435 H 410.454 3.98683 1.21892 0
M  V30 4436 H 409.114 2.85616 1.54446 0
M  V30 4437 H 410.125 4.95785 -1.49726 0
M  V30 4438 H 406.802 4.07096 0.926224 0
M  V30 4439 H 408.192 6.24395 -2.48153 0
M  V30 4440 N 410.912 0.523116 1.48665 0
M  V30 4441 C 411.844 -0.280421 2.27478 0
M  V30 4442 C 412.857 -0.910694 1.34945 0
M  V30 4443 O 414.046 -0.790295 1.60052 0
M  V30 4444 C 411.146 -1.41171 3.08097 0
M  V30 4445 C 410.319 -0.884642 4.28361 0
M  V30 4446 C 409.378 -1.89622 4.90846 0
M  V30 4447 O 408.404 -1.4559 5.50265 0
M  V30 4448 N 409.606 -3.22801 4.82472 0
M  V30 4449 H 412.371 0.395481 2.97079 0
M  V30 4450 H 409.932 0.357018 1.57915 0
M  V30 4451 H 411.924 -2.08645 3.4677 0
M  V30 4452 H 410.494 -1.99139 2.40961 0
M  V30 4453 H 409.714 -0.0341177 3.94185 0
M  V30 4454 H 411.002 -0.511268 5.06225 0
M  V30 4455 H 410.4 -3.61246 4.35336 0
M  V30 4456 H 408.957 -3.85927 5.25265 0
M  V30 4457 N 412.39 -1.55475 0.257931 0
M  V30 4458 C 413.667 -1.91155 -0.414629 0
M  V30 4459 C 414.047 -1.18008 -1.75035 0
M  V30 4460 O 413.395 -0.301193 -2.26506 0
M  V30 4461 C 413.605 -3.44283 -0.571859 0
M  V30 4462 C 414.953 -4.15744 -0.862678 0
M  V30 4463 O 415.977 -3.50083 -0.657314 0
M  V30 4464 O 414.836 -5.31909 -1.2544 0
M  V30 4465 H 411.93 -0.796016 -0.22425 0
M  V30 4466 H 414.476 -1.66976 0.302814 0
M  V30 4467 H 413.248 -3.89558 0.368844 0
M  V30 4468 H 412.871 -3.7436 -1.33943 0
M  V30 4469 N 413.868 0.0150385 -1.57593 0
M  V30 4470 C 414.798 1.01047 -2.10503 0
M  V30 4471 C 415.779 1.36816 -1.01071 0
M  V30 4472 O 416.964 1.45455 -1.28672 0
M  V30 4473 C 414.094 2.30708 -2.59598 0
M  V30 4474 C 413.048 2.09142 -3.73421 0
M  V30 4475 C 412.374 3.44685 -4.08774 0
M  V30 4476 C 413.674 1.46619 -5.01298 0
M  V30 4477 H 415.368 0.569978 -2.93925 0
M  V30 4478 H 412.914 0.272724 -1.41394 0
M  V30 4479 H 414.867 3.00687 -2.95238 0
M  V30 4480 H 413.591 2.76843 -1.73279 0
M  V30 4481 H 412.25 1.41592 -3.38153 0
M  V30 4482 H 411.898 3.88495 -3.195 0
M  V30 4483 H 411.598 3.31077 -4.8545 0
M  V30 4484 H 413.122 4.16004 -4.4696 0
M  V30 4485 H 414.536 2.06535 -5.34805 0
M  V30 4486 H 412.933 1.43544 -5.82679 0
M  V30 4487 H 414.003 0.433611 -4.82957 0
M  V30 4488 N 415.346 1.54954 0.287554 0
M  V30 4489 C 416.256 1.8991 1.37736 0
M  V30 4490 C 417.272 0.794701 1.54792 0
M  V30 4491 O 418.448 1.09243 1.69198 0
M  V30 4492 C 415.513 2.15108 2.71899 0
M  V30 4493 C 414.574 3.38752 2.63715 0
M  V30 4494 C 413.807 3.62739 3.91479 0
M  V30 4495 O 414.03 2.89492 4.91478 0
M  V30 4496 O 412.964 4.56267 3.92561 0
M  V30 4497 H 416.79 2.82652 1.11092 0
M  V30 4498 H 414.375 1.41315 0.484807 0
M  V30 4499 H 416.257 2.32806 3.51254 0
M  V30 4500 H 414.932 1.25551 2.9836 0
M  V30 4501 H 413.839 3.26405 1.82786 0
M  V30 4502 H 415.172 4.28483 2.42205 0
M  V30 4503 N 416.824 -0.551391 1.4764 0
M  V30 4504 C 418.073 -1.30467 1.53822 0
M  V30 4505 C 418.386 -1.94495 0.207661 0
M  V30 4506 O 419.592 -2.71099 0.147533 0
M  V30 4507 C 418.048 -2.36616 2.71184 0
M  V30 4508 C 417.656 -1.78754 4.10793 0
M  V30 4509 C 419.4 -3.13088 2.86663 0
M  V30 4510 C 417.307 -2.82717 5.19447 0
M  V30 4511 H 416.237 -0.490584 0.572576 0
M  V30 4512 H 418.888 -0.58494 1.73927 0
M  V30 4513 H 417.27 -3.11529 2.4447 0
M  V30 4514 H 418.444 -1.10173 4.47435 0
M  V30 4515 H 416.759 -1.14846 4.00249 0
M  V30 4516 H 419.356 -3.90736 3.65007 0
M  V30 4517 H 419.699 -3.67635 1.95321 0
M  V30 4518 H 420.232 -2.45288 3.13175 0
M  V30 4519 H 416.971 -2.33018 6.12685 0
M  V30 4520 H 416.491 -3.4969 4.87316 0
M  V30 4521 H 418.17 -3.46102 5.46646 0
M  V30 4522 N 418.302 -1.35869 -0.798587 0
M  V30 4523 C 419.551 -1.28921 -1.5512 0
M  V30 4524 C 419.864 0.13208 -1.95154 0
M  V30 4525 O 421.07 0.323879 -2.69561 0
M  V30 4526 C 419.526 -2.26141 -2.79979 0
M  V30 4527 C 419.134 -3.73658 -2.47151 0
M  V30 4528 C 420.878 -2.28152 -3.57976 0
M  V30 4529 C 418.785 -4.62679 -3.6835 0
M  V30 4530 H 417.715 -0.479031 -0.582276 0
M  V30 4531 H 420.366 -1.61179 -0.877125 0
M  V30 4532 H 418.748 -1.86865 -3.49138 0
M  V30 4533 H 419.922 -4.21616 -1.85947 0
M  V30 4534 H 418.237 -3.74333 -1.82383 0
M  V30 4535 H 420.834 -2.91875 -4.4801 0
M  V30 4536 H 421.177 -1.28748 -3.95891 0
M  V30 4537 H 421.71 -2.65998 -2.95787 0
M  V30 4538 H 418.449 -5.63111 -3.35538 0
M  V30 4539 H 417.969 -4.19442 -4.28752 0
M  V30 4540 H 419.648 -4.78498 -4.35487 0
M  V30 4541 N 419.78 1.02168 -1.19998 0
M  V30 4542 C 421.026 1.75945 -1.00852 0
M  V30 4543 C 421.359 1.88702 0.458828 0
M  V30 4544 O 420.634 1.40911 1.34069 0
M  V30 4545 C 420.917 3.18154 -1.68671 0
M  V30 4546 C 420.77 3.13224 -3.22817 0
M  V30 4547 C 422.089 4.16711 -1.41561 0
M  V30 4548 H 419.208 0.638673 -0.367785 0
M  V30 4549 H 421.85 1.19222 -1.4794 0
M  V30 4550 H 420 3.66586 -1.28636 0
M  V30 4551 H 421.672 2.72635 -3.72112 0
M  V30 4552 H 419.915 2.50751 -3.53986 0
M  V30 4553 H 420.586 4.13728 -3.65422 0
M  V30 4554 H 423.062 3.76913 -1.76284 0
M  V30 4555 H 421.938 5.14391 -1.91553 0
M  V30 4556 H 422.199 4.40774 -0.342193 0
M  V30 4557 N 421.258 1.00505 1.21394 0
M  V30 4558 C 422.507 0.683159 1.89778 0
M  V30 4559 C 422.82 -0.789471 1.7896 0
M  V30 4560 O 424.026 -1.22344 2.42372 0
M  V30 4561 C 422.482 1.17146 3.40301 0
M  V30 4562 C 422.09 2.67017 3.5973 0
M  V30 4563 C 423.834 0.924461 4.14311 0
M  V30 4564 C 421.741 3.09387 5.04017 0
M  V30 4565 H 420.671 0.25183 0.710702 0
M  V30 4566 H 423.322 1.21622 1.37406 0
M  V30 4567 H 421.704 0.566451 3.91928 0
M  V30 4568 H 422.878 3.32968 3.18542 0
M  V30 4569 H 421.193 2.89732 2.99073 0
M  V30 4570 H 423.79 1.21658 5.20676 0
M  V30 4571 H 424.133 -0.139286 4.16067 0
M  V30 4572 H 424.666 1.49226 3.6875 0
M  V30 4573 H 421.405 4.14989 5.07409 0
M  V30 4574 H 420.925 2.48149 5.46061 0
M  V30 4575 H 422.604 3.01371 5.72525 0
M  V30 4576 N 422.737 -1.36956 0.779787 0
M  V30 4577 C 423.667 -2.32761 0.185651 0
M  V30 4578 C 424.648 -1.56177 -0.673989 0
M  V30 4579 O 425.833 -1.84378 -0.609797 0
M  V30 4580 C 422.963 -3.40418 -0.687964 0
M  V30 4581 C 421.917 -4.27941 0.0710102 0
M  V30 4582 C 421.243 -5.26681 -0.922573 0
M  V30 4583 C 422.543 -5.07006 1.25467 0
M  V30 4584 H 424.237 -2.82698 0.986008 0
M  V30 4585 H 421.783 -1.3592 0.475592 0
M  V30 4586 H 423.736 -4.06423 -1.11348 0
M  V30 4587 H 422.46 -2.89025 -1.52093 0
M  V30 4588 H 421.119 -3.63478 0.47739 0
M  V30 4589 H 420.767 -4.71565 -1.7503 0
M  V30 4590 H 420.467 -5.86103 -0.419237 0
M  V30 4591 H 421.991 -5.9556 -1.34686 0
M  V30 4592 H 423.405 -5.66105 0.905401 0
M  V30 4593 H 421.802 -5.75793 1.69063 0
M  V30 4594 H 422.872 -4.3921 2.05481 0
M  V30 4595 N 424.215 -0.530993 -1.48385 0
M  V30 4596 C 425.125 0.23503 -2.3342 0
M  V30 4597 C 426.141 0.93801 -1.46552 0
M  V30 4598 O 427.317 0.912745 -1.7953 0
M  V30 4599 C 424.382 1.26778 -3.22689 0
M  V30 4600 C 423.443 0.575038 -4.25431 0
M  V30 4601 C 422.676 1.55858 -5.10435 0
M  V30 4602 O 422.899 2.79129 -4.97437 0
M  V30 4603 O 421.833 1.09742 -5.91811 0
M  V30 4604 H 425.659 -0.461794 -3.00169 0
M  V30 4605 H 423.244 -0.291903 -1.46521 0
M  V30 4606 H 425.126 1.86457 -3.77904 0
M  V30 4607 H 423.801 1.94699 -2.586 0
M  V30 4608 H 422.708 -0.0622782 -3.74048 0
M  V30 4609 H 424.041 -0.062253 -4.92161 0
M  V30 4610 N 425.693 1.55336 -0.266172 0
M  V30 4611 C 426.941 1.99003 0.35246 0
M  V30 4612 C 427.262 1.15591 1.57047 0
M  V30 4613 O 426.532 0.243268 1.94384 0
M  V30 4614 H 425.112 0.735025 0.133217 0
M  V30 4615 H 427.774 1.91367 -0.369434 0
M  V30 4616 H 426.87 3.05289 0.648453 0
M  V30 4617 N 427.171 -0.0066808 1.57599 0
M  V30 4618 C 428.417 -0.693947 1.90558 0
M  V30 4619 C 428.75 -1.73792 0.866594 0
M  V30 4620 O 428.025 -1.94156 -0.115548 0
M  V30 4621 C 428.308 -1.34317 3.34112 0
M  V30 4622 C 428.161 -0.311189 4.48722 0
M  V30 4623 C 429.48 -2.27116 3.7697 0
M  V30 4624 H 426.599 -0.250803 0.693013 0
M  V30 4625 H 429.241 0.043242 1.89951 0
M  V30 4626 H 427.391 -1.9715 3.3476 0
M  V30 4627 H 429.063 0.316944 4.6021 0
M  V30 4628 H 427.306 0.367253 4.32243 0
M  V30 4629 H 427.977 -0.804366 5.46108 0
M  V30 4630 H 430.453 -1.74306 3.77831 0
M  V30 4631 H 429.329 -2.69511 4.78179 0
M  V30 4632 H 429.59 -3.14743 3.10466 0
M  V30 4633 N 428.649 -1.55105 -0.279332 0
M  V30 4634 C 429.895 -1.75672 -1.01327 0
M  V30 4635 C 430.228 -0.552739 -1.86168 0
M  V30 4636 O 429.503 0.449827 -1.89227 0
M  V30 4637 C 429.786 -3.05825 -1.90114 0
M  V30 4638 C 429.639 -4.36565 -1.08309 0
M  V30 4639 C 430.958 -3.31975 -2.8893 0
M  V30 4640 H 428.077 -0.639149 -0.366957 0
M  V30 4641 H 430.719 -1.87833 -0.286154 0
M  V30 4642 H 428.869 -2.95588 -2.52111 0
M  V30 4643 H 430.541 -4.58751 -0.484314 0
M  V30 4644 H 428.784 -4.32076 -0.386362 0
M  V30 4645 H 429.455 -5.23946 -1.73737 0
M  V30 4646 H 431.931 -3.41963 -2.37067 0
M  V30 4647 H 430.807 -4.2432 -3.48201 0
M  V30 4648 H 431.068 -2.51309 -3.63725 0
M  V30 4649 N 430.127 0.543554 -1.4793 0
M  V30 4650 C 431.037 1.67657 -1.64098 0
M  V30 4651 C 432.053 1.65934 -0.523622 0
M  V30 4652 O 433.229 1.85133 -0.792943 0
M  V30 4653 C 430.294 3.04146 -1.66421 0
M  V30 4654 C 429.355 3.16831 -2.89684 0
M  V30 4655 C 428.588 4.46809 -2.91886 0
M  V30 4656 O 428.811 5.33095 -2.02895 0
M  V30 4657 O 427.745 4.63573 -3.83906 0
M  V30 4658 H 431.571 1.56957 -2.59997 0
M  V30 4659 H 429.156 0.715116 -1.31173 0
M  V30 4660 H 431.038 3.85346 -1.70548 0
M  V30 4661 H 429.713 3.152 -0.736923 0
M  V30 4662 H 428.62 2.34977 -2.91095 0
M  V30 4663 H 429.953 3.10687 -3.81752 0
M  V30 4664 N 431.605 1.3629 0.791371 0
M  V30 4665 C 432.833 1.33562 1.58016 0
M  V30 4666 C 433.248 -0.0835616 1.88615 0
M  V30 4667 O 432.605 -1.0399 1.49974 0
M  V30 4668 C 432.656 2.15517 2.90232 0
M  V30 4669 O 432.377 3.51902 2.60953 0
M  V30 4670 C 433.878 2.20546 3.84544 0
M  V30 4671 H 431.098 0.458226 0.490173 0
M  V30 4672 H 433.642 1.79361 0.982345 0
M  V30 4673 H 431.797 1.73278 3.46487 0
M  V30 4674 H 432.211 3.94644 3.4548 0
M  V30 4675 H 433.685 2.82252 4.74382 0
M  V30 4676 H 434.162 1.20838 4.2225 0
M  V30 4677 H 434.768 2.63013 3.34222 0
M  V30 4678 N 433.083 -1.0153 1.20538 0
M  V30 4679 C 434.311 -1.78746 1.04199 0
M  V30 4680 C 434.726 -1.84323 -0.408733 0
M  V30 4681 O 434.083 -1.29714 -1.28377 0
M  V30 4682 C 434.134 -3.23152 1.62035 0
M  V30 4683 O 433.855 -3.17918 3.0143 0
M  V30 4684 C 435.356 -4.16911 1.50666 0
M  V30 4685 H 432.576 -0.56208 0.366479 0
M  V30 4686 H 435.12 -1.27794 1.59653 0
M  V30 4687 H 433.275 -3.71248 1.10697 0
M  V30 4688 H 433.689 -4.08567 3.28897 0
M  V30 4689 H 435.163 -5.16072 1.95892 0
M  V30 4690 H 435.64 -4.36791 0.459363 0
M  V30 4691 H 436.246 -3.74698 2.01201 0
M  V30 4692 N 434.561 -1.01147 -1.20859 0
M  V30 4693 C 435.809 -0.696486 -1.89719 0
M  V30 4694 C 436.13 0.775788 -1.78904 0
M  V30 4695 O 435.4 1.55759 -1.18811 0
M  V30 4696 H 433.98 -0.254628 -0.702263 0
M  V30 4697 H 436.642 -1.28197 -1.46804 0
M  V30 4698 H 435.738 -0.975357 -2.96468 0
M  V30 4699 N 436.039 1.36541 -0.78704 0
M  V30 4700 C 437.288 1.98552 -0.35494 0
M  V30 4701 C 437.601 1.63171 1.07864 0
M  V30 4702 O 438.807 2.18399 1.61289 0
M  V30 4703 C 437.263 3.55136 -0.583671 0
M  V30 4704 C 436.871 3.99444 -2.02851 0
M  V30 4705 C 438.615 4.2395 -0.215957 0
M  V30 4706 C 436.522 5.48796 -2.20403 0
M  V30 4707 H 435.452 0.742888 -0.128972 0
M  V30 4708 H 438.103 1.5587 -0.968337 0
M  V30 4709 H 436.485 3.95875 0.0994046 0
M  V30 4710 H 437.659 3.6991 -2.74779 0
M  V30 4711 H 435.974 3.43459 -2.35425 0
M  V30 4712 H 438.571 5.33709 -0.325405 0
M  V30 4713 H 438.914 4.07827 0.835646 0
M  V30 4714 H 439.447 3.88565 -0.852175 0
M  V30 4715 H 436.186 5.69864 -3.23937 0
M  V30 4716 H 435.706 5.79964 -1.52977 0
M  V30 4717 H 437.385 6.14986 -2.01002 0
M  V30 4718 N 437.518 0.538854 1.48102 0
M  V30 4719 C 438.746 0.0123136 2.06896 0
M  V30 4720 C 439.161 -1.27312 1.39417 0
M  V30 4721 O 438.518 -1.75949 0.484582 0
M  V30 4722 C 438.569 -0.206118 3.60912 0
M  V30 4723 O 438.29 1.0284 4.25859 0
M  V30 4724 C 439.791 -0.772033 4.36526 0
M  V30 4725 H 437.011 0.0375239 0.66995 0
M  V30 4726 H 439.555 0.747032 1.90367 0
M  V30 4727 H 437.71 -0.89091 3.77017 0
M  V30 4728 H 438.124 0.814654 5.18135 0
M  V30 4729 H 439.598 -0.874251 5.45033 0
M  V30 4730 H 440.075 -1.77904 4.01555 0
M  V30 4731 H 440.681 -0.123526 4.25121 0
M  V30 4732 N 438.996 -1.55193 0.274407 0
M  V30 4733 C 440.224 -2.03987 -0.345943 0
M  V30 4734 C 440.639 -1.15279 -1.4952 0
M  V30 4735 O 439.996 -0.172759 -1.8168 0
M  V30 4736 C 440.047 -3.51898 -0.827631 0
M  V30 4737 O 439.768 -4.37231 0.275855 0
M  V30 4738 C 441.269 -4.16577 -1.51587 0
M  V30 4739 H 438.489 -0.666335 -0.0789892 0
M  V30 4740 H 441.033 -2.00423 0.406294 0
M  V30 4741 H 439.188 -3.55909 -1.52996 0
M  V30 4742 H 439.602 -5.24415 -0.0943638 0
M  V30 4743 H 441.076 -5.21678 -1.80433 0
M  V30 4744 H 441.553 -3.64707 -2.44716 0
M  V30 4745 H 442.159 -4.16568 -0.857409 0
M  V30 4746 N 440.474 -0.00167713 -1.576 0
M  V30 4747 C 441.406 1.0174 -2.05382 0
M  V30 4748 C 442.419 1.30595 -0.972052 0
M  V30 4749 O 443.608 1.27542 -1.24882 0
M  V30 4750 C 440.708 2.35174 -2.44022 0
M  V30 4751 C 439.881 2.25234 -3.74951 0
M  V30 4752 C 438.94 3.4137 -4.00441 0
M  V30 4753 O 437.966 3.19483 -4.71083 0
M  V30 4754 N 439.168 4.64275 -3.48467 0
M  V30 4755 H 441.933 0.609902 -2.93428 0
M  V30 4756 H 439.494 0.185672 -1.60832 0
M  V30 4757 H 441.486 3.11643 -2.58187 0
M  V30 4758 H 440.056 2.67659 -1.61485 0
M  V30 4759 H 439.276 1.33664 -3.70847 0
M  V30 4760 H 440.564 2.15767 -4.60784 0
M  V30 4761 H 439.962 4.84955 -2.91264 0
M  V30 4762 H 438.519 5.38005 -3.67959 0
M  V30 4763 N 441.952 1.55251 0.271103 0
M  V30 4764 C 442.915 1.87484 1.31842 0
M  V30 4765 C 443.915 0.749545 1.42262 0
M  V30 4766 O 445.105 1.01771 1.4138 0
M  V30 4767 C 442.237 2.0818 2.69951 0
M  V30 4768 H 443.43 2.81108 1.0449 0
M  V30 4769 H 440.983 1.47771 0.509258 0
M  V30 4770 H 441.718 1.16944 3.02481 0
M  V30 4771 H 441.503 2.90114 2.63774 0
M  V30 4772 H 442.993 2.34385 3.4562 0
M  V30 4773 N 443.43 -0.535701 1.48216 0
M  V30 4774 C 444.846 -0.863701 1.3421 0
M  V30 4775 C 445.046 -1.98458 0.34879 0
M  V30 4776 O 444.102 -2.51432 -0.23204 0
M  V30 4777 C 445.415 -1.23662 2.74095 0
M  V30 4778 C 446.963 -1.34683 2.82541 0
M  V30 4779 C 447.438 -1.75322 4.23115 0
M  V30 4780 N 448.929 -1.82434 4.2576 0
M  V30 4781 C 449.664 -2.15252 5.31464 0
M  V30 4782 N 449.16 -2.46533 6.47452 0
M  V30 4783 N 450.953 -2.16209 5.18855 0
M  V30 4784 H 443.104 0.203965 2.11418 0
M  V30 4785 H 445.367 0.0286033 0.947568 0
M  V30 4786 H 445.073 -0.486674 3.48316 0
M  V30 4787 H 444.947 -2.18805 3.07253 0
M  V30 4788 H 447.334 -2.08756 2.08579 0
M  V30 4789 H 447.415 -0.376756 2.5301 0
M  V30 4790 H 447.059 -1.01812 4.97591 0
M  V30 4791 H 446.989 -2.7337 4.50085 0
M  V30 4792 H 449.48 -1.6056 3.42095 0
M  V30 4793 H 449.793 -2.70662 7.23852 0
M  V30 4794 H 448.138 -2.44065 6.50736 0
M  V30 4795 H 451.329 -1.91224 4.2726 0
M  V30 4796 H 451.502 -2.41453 6.01335 0
M  V30 4797 N 444.908 -1.36708 -0.784132 0
M  V30 4798 C 446.136 -1.34398 -1.57305 0
M  V30 4799 C 446.551 0.0735577 -1.88657 0
M  V30 4800 O 445.908 1.03193 -1.50524 0
M  V30 4801 C 445.959 -2.17053 -2.89085 0
M  V30 4802 O 445.68 -3.53281 -2.59083 0
M  V30 4803 C 447.181 -2.22583 -3.83369 0
M  V30 4804 H 444.401 -0.460819 -0.487736 0
M  V30 4805 H 446.945 -1.79879 -0.972819 0
M  V30 4806 H 445.1 -1.75113 -3.45564 0
M  V30 4807 H 445.514 -3.9647 -3.43383 0
M  V30 4808 H 446.988 -2.84763 -4.72878 0
M  V30 4809 H 447.465 -1.23075 -4.21603 0
M  V30 4810 H 448.071 -2.64781 -3.32823 0
M  V30 4811 N 446.386 1.0089 -1.21074 0
M  V30 4812 C 447.611 1.78727 -1.05221 0
M  V30 4813 C 448.036 1.83932 0.393795 0
M  V30 4814 O 447.394 1.28004 1.28393 0
M  V30 4815 C 447.442 3.20665 -1.64944 0
M  V30 4816 O 446.546 4.02632 -0.892273 0
M  V30 4817 H 445.887 0.550973 -0.370574 0
M  V30 4818 H 448.417 1.26847 -1.60534 0
M  V30 4819 H 448.427 3.71352 -1.69002 0
M  V30 4820 H 447.102 3.16191 -2.70177 0
M  V30 4821 H 445.679 3.61207 -0.926492 0
M  V30 4822 N 447.864 1.01787 1.20321 0
M  V30 4823 C 449.094 0.72614 1.93419 0
M  V30 4824 C 449.502 -0.717317 1.75075 0
M  V30 4825 O 448.845 -1.49836 1.06278 0
M  V30 4826 C 448.907 0.983621 3.45782 0
M  V30 4827 C 448.571 2.41645 3.87888 0
M  V30 4828 C 449.568 3.39732 3.93545 0
M  V30 4829 C 447.253 2.75752 4.19841 0
M  V30 4830 C 449.247 4.69988 4.30569 0
M  V30 4831 C 446.934 4.06221 4.56539 0
M  V30 4832 C 447.932 5.0315 4.61876 0
M  V30 4833 O 447.62 6.31284 4.97731 0
M  V30 4834 H 447.352 0.265824 0.621541 0
M  V30 4835 H 449.906 1.3623 1.53722 0
M  V30 4836 H 448.136 0.290301 3.85609 0
M  V30 4837 H 449.825 0.683279 4.00108 0
M  V30 4838 H 450.591 3.14718 3.69022 0
M  V30 4839 H 446.47 2.00993 4.14877 0
M  V30 4840 H 450.014 5.45642 4.3465 0
M  V30 4841 H 445.911 4.31013 4.80518 0
M  V30 4842 H 446.679 6.35591 5.15719 0
M  V30 4843 N 449.342 -1.36122 0.79427 0
M  V30 4844 C 450.272 -2.32551 0.210328 0
M  V30 4845 C 451.253 -1.56884 -0.657386 0
M  V30 4846 O 452.438 -1.85014 -0.590207 0
M  V30 4847 C 449.568 -3.41128 -0.651819 0
M  V30 4848 C 448.522 -4.27842 0.116395 0
M  V30 4849 C 447.848 -5.2763 -0.86666 0
M  V30 4850 C 449.148 -5.05647 1.30837 0
M  V30 4851 H 450.842 -2.81636 1.01594 0
M  V30 4852 H 448.388 -1.35407 0.489981 0
M  V30 4853 H 450.341 -4.07581 -1.07031 0
M  V30 4854 H 449.065 -2.90622 -1.49019 0
M  V30 4855 H 447.724 -3.62952 0.515915 0
M  V30 4856 H 447.372 -4.73395 -1.70019 0
M  V30 4857 H 447.072 -5.86514 -0.35705 0
M  V30 4858 H 448.596 -5.96955 -1.28361 0
M  V30 4859 H 450.01 -5.65113 0.965393 0
M  V30 4860 H 448.407 -5.73967 1.75161 0
M  V30 4861 H 449.477 -4.37006 2.10128 0
M  V30 4862 N 450.82 -0.546701 -1.47814 0
M  V30 4863 C 451.783 0.196287 -2.28358 0
M  V30 4864 C 452.783 0.852437 -1.36346 0
M  V30 4865 O 453.973 0.709913 -1.59078 0
M  V30 4866 C 451.105 1.28579 -3.15722 0
M  V30 4867 H 452.298 -0.511086 -2.95513 0
M  V30 4868 H 449.851 -0.303248 -1.5333 0
M  V30 4869 H 450.586 2.0259 -2.53235 0
M  V30 4870 H 450.371 0.820229 -3.83425 0
M  V30 4871 H 451.861 1.80793 -3.76435 0
M  V30 4872 N 452.299 1.55045 -0.282633 0
M  V30 4873 C 453.576 1.9179 0.384166 0
M  V30 4874 C 453.956 1.20778 1.73136 0
M  V30 4875 O 453.304 0.33719 2.25998 0
M  V30 4876 C 453.514 3.45149 0.517014 0
M  V30 4877 C 454.862 4.17064 0.796427 0
M  V30 4878 O 455.886 3.51084 0.601535 0
M  V30 4879 O 454.745 5.33837 1.16962 0
M  V30 4880 H 451.839 0.799483 0.211558 0
M  V30 4881 H 454.385 1.66474 -0.32934 0
M  V30 4882 H 453.157 3.88922 -0.430772 0
M  V30 4883 H 452.78 3.76443 1.2797 0
M  V30 4884 N 453.777 0.010035 1.57597 0
M  V30 4885 C 454.687 -0.994226 2.12491 0
M  V30 4886 C 455.703 -1.37013 1.07254 0
M  V30 4887 O 456.879 -1.45542 1.3921 0
M  V30 4888 C 453.944 -2.2642 2.62555 0
M  V30 4889 C 453.005 -1.95049 3.82432 0
M  V30 4890 C 452.238 -3.15991 4.30099 0
M  V30 4891 O 452.461 -4.28015 3.7704 0
M  V30 4892 O 451.395 -2.99403 5.22151 0
M  V30 4893 H 455.221 -0.557549 2.98538 0
M  V30 4894 H 452.806 -0.209413 1.47925 0
M  V30 4895 H 454.688 -3.01009 2.9491 0
M  V30 4896 H 453.363 -2.69306 1.796 0
M  V30 4897 H 452.27 -1.17904 3.55034 0
M  V30 4898 H 453.603 -1.56992 4.66491 0
M  V30 4899 N 455.255 -1.55392 -0.262866 0
M  V30 4900 C 456.504 -1.75679 -0.990943 0
M  V30 4901 C 456.817 -0.57097 -1.87081 0
M  V30 4902 O 458.023 -0.656486 -2.63444 0
M  V30 4903 C 456.479 -3.10964 -1.81188 0
M  V30 4904 C 456.087 -4.37146 -0.980188 0
M  V30 4905 C 457.831 -3.40597 -2.53365 0
M  V30 4906 C 455.738 -5.63466 -1.7961 0
M  V30 4907 H 454.668 -0.654868 -0.373716 0
M  V30 4908 H 457.319 -1.81841 -0.246203 0
M  V30 4909 H 455.701 -2.98867 -2.59797 0
M  V30 4910 H 456.875 -4.60187 -0.237558 0
M  V30 4911 H 455.19 -4.14731 -0.372497 0
M  V30 4912 H 457.787 -4.32186 -3.14833 0
M  V30 4913 H 458.13 -2.6119 -3.24169 0
M  V30 4914 H 458.663 -3.53838 -1.81779 0
M  V30 4915 H 455.402 -6.4565 -1.13209 0
M  V30 4916 H 454.922 -5.44552 -2.51443 0
M  V30 4917 H 456.601 -6.02139 -2.36723 0
M  V30 4918 N 456.733 0.527833 -1.48498 0
M  V30 4919 C 457.663 1.64136 -1.66077 0
M  V30 4920 C 458.644 1.62286 -0.509625 0
M  V30 4921 O 459.829 1.79449 -0.742413 0
M  V30 4922 C 456.959 3.02717 -1.70234 0
M  V30 4923 C 455.913 3.19426 -2.8487 0
M  V30 4924 C 455.239 4.5909 -2.74118 0
M  V30 4925 C 456.539 3.01993 -4.26142 0
M  V30 4926 H 458.233 1.4968 -2.593 0
M  V30 4927 H 455.779 0.718654 -1.24785 0
M  V30 4928 H 457.732 3.80491 -1.8112 0
M  V30 4929 H 456.456 3.18201 -0.735911 0
M  V30 4930 H 455.115 2.4407 -2.73542 0
M  V30 4931 H 454.763 4.71413 -1.7544 0
M  V30 4932 H 454.463 4.71214 -3.51042 0
M  V30 4933 H 455.987 5.3896 -2.86974 0
M  V30 4934 H 457.401 3.69558 -4.38292 0
M  V30 4935 H 455.798 3.2561 -5.04082 0
M  V30 4936 H 456.868 1.98396 -4.42456 0
M  V30 4937 N 458.211 1.37122 0.776871 0
M  V30 4938 C 459.457 1.3325 1.53675 0
M  V30 4939 C 459.812 -0.0839891 1.92217 0
M  V30 4940 O 459.105 -1.04145 1.60824 0
M  V30 4941 C 459.299 2.20068 2.81611 0
M  V30 4942 C 459.128 3.70016 2.55574 0
M  V30 4943 C 457.898 4.39144 2.4996 0
M  V30 4944 C 460.096 4.62996 2.23917 0
M  V30 4945 N 458.078 5.74663 2.15953 0
M  V30 4946 C 459.449 5.86854 2.00005 0
M  V30 4947 C 461.504 4.51433 2.1003 0
M  V30 4948 C 460.207 7.00446 1.63609 0
M  V30 4949 C 462.233 5.64905 1.75033 0
M  V30 4950 C 461.595 6.8781 1.51977 0
M  V30 4951 H 457.694 0.542878 0.562856 0
M  V30 4952 H 460.278 1.72295 0.906784 0
M  V30 4953 H 458.449 1.83248 3.42454 0
M  V30 4954 H 460.181 2.07492 3.47461 0
M  V30 4955 H 456.936 3.92088 2.65639 0
M  V30 4956 H 457.36 6.46268 2.0166 0
M  V30 4957 H 462.002 3.56987 2.26539 0
M  V30 4958 H 459.72 7.94831 1.45837 0
M  V30 4959 H 463.306 5.57926 1.64952 0
M  V30 4960 H 462.186 7.74126 1.25296 0
M  V30 4961 N 459.689 -1.00246 1.21608 0
M  V30 4962 C 460.937 -1.73717 1.0328 0
M  V30 4963 C 461.258 -1.90102 -0.434318 0
M  V30 4964 O 460.528 -1.45376 -1.31311 0
M  V30 4965 H 459.108 -0.643613 0.379172 0
M  V30 4966 H 461.77 -1.20787 1.52959 0
M  V30 4967 H 460.866 -2.73535 1.50283 0
M  V30 4968 N 461.167 -1.02423 -1.1978 0
M  V30 4969 C 462.099 -0.559152 -2.22275 0
M  V30 4970 C 463.112 0.36251 -1.58713 0
M  V30 4971 O 464.301 0.159641 -1.77785 0
M  V30 4972 C 461.401 0.205094 -3.38279 0
M  V30 4973 C 460.574 -0.720361 -4.31427 0
M  V30 4974 C 459.633 -0.00234368 -5.262 0
M  V30 4975 O 458.659 -0.627378 -5.65732 0
M  V30 4976 N 459.861 1.26996 -5.66438 0
M  V30 4977 H 462.626 -1.44064 -2.62804 0
M  V30 4978 H 460.187 -0.902692 -1.34399 0
M  V30 4979 H 462.179 0.694868 -3.9869 0
M  V30 4980 H 460.749 0.987947 -2.96578 0
M  V30 4981 H 459.969 -1.39031 -3.68869 0
M  V30 4982 H 461.257 -1.3495 -4.90577 0
M  V30 4983 H 460.655 1.79858 -5.36347 0
M  V30 4984 H 459.212 1.70432 -6.29123 0
M  V30 4985 N 462.645 1.35699 -0.801477 0
M  V30 4986 C 464.061 1.52065 -0.484596 0
M  V30 4987 C 464.261 1.75215 0.995084 0
M  V30 4988 O 463.317 1.79061 1.78026 0
M  V30 4989 C 464.63 2.69908 -1.32552 0
M  V30 4990 C 466.178 2.83784 -1.32044 0
M  V30 4991 C 466.653 4.04646 -2.14536 0
M  V30 4992 N 468.144 4.11814 -2.12046 0
M  V30 4993 C 468.879 5.04437 -2.72636 0
M  V30 4994 N 468.375 6.02426 -3.42133 0
M  V30 4995 N 470.168 4.97144 -2.62305 0
M  V30 4996 H 462.319 1.18928 -1.75983 0
M  V30 4997 H 464.582 0.581455 -0.748741 0
M  V30 4998 H 464.288 2.59363 -2.37537 0
M  V30 4999 H 464.162 3.64376 -0.975181 0
M  V30 5000 H 466.549 2.93783 -0.27846 0
M  V30 5001 H 466.63 1.90188 -1.71062 0
M  V30 5002 H 466.274 3.95407 -3.18772 0
M  V30 5003 H 466.204 4.97413 -1.72882 0
M  V30 5004 H 468.695 3.41664 -1.61476 0
M  V30 5005 H 469.008 6.69688 -3.85666 0
M  V30 5006 H 467.353 6.02615 -3.46237 0
M  V30 5007 H 470.544 4.19546 -2.07603 0
M  V30 5008 H 470.717 5.69138 -3.09815 0
M  V30 5009 N 464.123 0.554532 1.47522 0
M  V30 5010 C 465.37 0.029479 2.02479 0
M  V30 5011 C 465.698 -1.31929 1.42916 0
M  V30 5012 O 464.953 -1.87112 0.573385 0
M  V30 5013 C 465.252 -0.115927 3.57212 0
M  V30 5014 C 464.918 1.16161 4.3568 0
M  V30 5015 C 463.58 1.51168 4.56839 0
M  V30 5016 C 465.932 2.0083 4.80954 0
M  V30 5017 C 463.26 2.70696 5.2052 0
M  V30 5018 C 465.612 3.19559 5.45953 0
M  V30 5019 C 464.276 3.54882 5.65345 0
M  V30 5020 H 463.546 0.0107871 0.740921 0
M  V30 5021 H 466.193 0.725506 1.77225 0
M  V30 5022 H 464.498 -0.894902 3.81443 0
M  V30 5023 H 466.195 -0.53749 3.97381 0
M  V30 5024 H 462.785 0.879026 4.19489 0
M  V30 5025 H 466.969 1.75093 4.64388 0
M  V30 5026 H 462.225 2.98236 5.33728 0
M  V30 5027 H 466.399 3.85456 5.79997 0
M  V30 5028 H 464.026 4.47596 6.1446 0
M  V30 5029 N 465.601 -1.54893 0.290851 0
M  V30 5030 C 466.847 -2.0023 -0.321867 0
M  V30 5031 C 467.18 -1.179 -1.54316 0
M  V30 5032 O 466.455 -0.25293 -1.92848 0
M  V30 5033 C 466.738 -3.53456 -0.688515 0
M  V30 5034 C 466.591 -4.46532 0.541209 0
M  V30 5035 C 467.91 -4.13057 -1.51895 0
M  V30 5036 H 465.029 -0.727891 -0.115515 0
M  V30 5037 H 467.671 -1.85722 0.400931 0
M  V30 5038 H 465.821 -3.6595 -1.30433 0
M  V30 5039 H 467.493 -4.4596 1.17973 0
M  V30 5040 H 465.736 -4.17545 1.17636 0
M  V30 5041 H 466.407 -5.51475 0.240675 0
M  V30 5042 H 468.883 -4.03937 -0.99872 0
M  V30 5043 H 467.759 -5.20448 -1.74429 0
M  V30 5044 H 468.02 -3.64284 -2.50498 0
M  V30 5045 N 467.08 -0.0183926 -1.57589 0
M  V30 5046 C 468.491 0.521927 -1.79256 0
M  V30 5047 C 468.842 1.72885 -0.927636 0
M  V30 5048 O 467.967 2.15978 -0.135091 0
M  V30 5049 C 468.562 0.953632 -3.25102 0
M  V30 5050 C 467.121 1.43913 -3.47801 0
M  V30 5051 C 466.268 0.398837 -2.74417 0
M  V30 5052 H 469.219 -0.244485 -1.56805 0
M  V30 5053 H 469.24 1.81863 -3.34224 0
M  V30 5054 H 468.752 0.0750123 -3.88028 0
M  V30 5055 H 466.853 2.33804 -2.90115 0
M  V30 5056 H 466.966 1.45391 -4.56507 0
M  V30 5057 H 465.33 0.864572 -2.39577 0
M  V30 5058 H 466.113 -0.471132 -3.40052 0
M  V30 5059 N 468.558 1.5553 0.254621 0
M  V30 5060 C 469.807 1.76202 0.981612 0
M  V30 5061 C 470.12 0.580883 1.86776 0
M  V30 5062 O 471.326 0.670448 2.63092 0
M  V30 5063 C 469.782 3.11921 1.79537 0
M  V30 5064 C 469.39 4.37659 0.956991 0
M  V30 5065 C 471.134 3.41936 2.51555 0
M  V30 5066 C 469.041 5.64411 1.76619 0
M  V30 5067 H 467.971 0.656841 0.370237 0
M  V30 5068 H 470.622 1.81969 0.236556 0
M  V30 5069 H 469.004 3.00241 2.58208 0
M  V30 5070 H 470.178 4.60307 0.21315 0
M  V30 5071 H 468.493 4.14922 0.350497 0
M  V30 5072 H 471.09 4.33849 3.12536 0
M  V30 5073 H 471.433 2.62905 3.22779 0
M  V30 5074 H 471.966 3.54797 1.799 0
M  V30 5075 H 468.705 6.46241 1.09783 0
M  V30 5076 H 468.225 5.45877 2.48551 0
M  V30 5077 H 469.904 6.03386 2.33527 0
M  V30 5078 N 470.036 -0.519951 1.48776 0
M  V30 5079 C 471.282 -1.27711 1.57536 0
M  V30 5080 C 471.615 -1.92547 0.252866 0
M  V30 5081 O 470.89 -1.7979 -0.742021 0
M  V30 5082 C 471.173 -2.35875 2.72094 0
M  V30 5083 C 471.026 -1.75664 4.1408 0
M  V30 5084 C 472.345 -3.37575 2.82367 0
M  V30 5085 H 469.464 -0.462971 0.573434 0
M  V30 5086 H 472.106 -0.578194 1.80989 0
M  V30 5087 H 470.256 -2.95488 2.52228 0
M  V30 5088 H 471.928 -1.20025 4.45412 0
M  V30 5089 H 470.171 -1.06154 4.20611 0
M  V30 5090 H 470.842 -2.54029 4.90075 0
M  V30 5091 H 473.318 -2.87929 3.00393 0
M  V30 5092 H 472.194 -4.1064 3.64233 0
M  V30 5093 H 472.455 -3.98743 1.90936 0
M  V30 5094 N 471.514 -1.37532 -0.769588 0
M  V30 5095 C 472.477 -1.33292 -1.86456 0
M  V30 5096 C 473.477 -0.236537 -1.59051 0
M  V30 5097 O 474.667 -0.492511 -1.67093 0
M  V30 5098 C 471.799 -1.07118 -3.23633 0
M  V30 5099 H 472.992 -2.30692 -1.91628 0
M  V30 5100 H 470.545 -1.22593 -0.969572 0
M  V30 5101 H 471.28 -0.102578 -3.24138 0
M  V30 5102 H 471.065 -1.86479 -3.44917 0
M  V30 5103 H 472.555 -1.06806 -4.03711 0
M  V30 5104 N 472.992 0.995999 -1.22138 0
M  V30 5105 C 473.902 2.11985 -1.00496 0
M  V30 5106 C 474.918 1.7394 0.0457701 0
M  V30 5107 O 476.094 2.00868 -0.146273 0
M  V30 5108 C 473.159 3.41779 -0.582086 0
M  V30 5109 C 472.22 3.93943 -1.70608 0
M  V30 5110 C 471.453 5.17542 -1.30328 0
M  V30 5111 O 471.676 5.70114 -0.180743 0
M  V30 5112 O 470.61 5.63382 -2.11861 0
M  V30 5113 H 474.436 2.33123 -1.94647 0
M  V30 5114 H 472.021 1.10358 -1.00705 0
M  V30 5115 H 473.903 4.1989 -0.356467 0
M  V30 5116 H 472.578 3.22007 0.330592 0
M  V30 5117 H 471.485 3.17019 -1.98619 0
M  V30 5118 H 472.818 4.18141 -2.59651 0
M  V30 5119 N 474.47 1.03057 1.19235 0
M  V30 5120 C 475.38 0.622922 2.26179 0
M  V30 5121 C 476.396 -0.346113 1.70523 0
M  V30 5122 O 477.572 -0.203572 2.00369 0
M  V30 5123 C 474.637 -0.0182063 3.46695 0
M  V30 5124 C 473.698 0.998546 4.17526 0
M  V30 5125 C 472.931 0.387917 5.32288 0
M  V30 5126 O 473.154 -0.808668 5.64639 0
M  V30 5127 O 472.088 1.1116 5.91546 0
M  V30 5128 H 475.914 1.51363 2.63292 0
M  V30 5129 H 473.499 0.800856 1.26122 0
M  V30 5130 H 475.381 -0.375606 4.19723 0
M  V30 5131 H 474.056 -0.882895 3.11427 0
M  V30 5132 H 472.963 1.40756 3.4661 0
M  V30 5133 H 474.296 1.83366 4.56769 0
M  V30 5134 N 475.948 -1.35272 0.808662 0
M  V30 5135 C 477.225 -1.93077 0.313181 0
M  V30 5136 C 477.605 -1.73847 -1.19752 0
M  V30 5137 O 476.953 -1.1087 -1.998 0
M  V30 5138 C 477.163 -3.41347 0.726859 0
M  V30 5139 C 478.511 -4.18493 0.717532 0
M  V30 5140 O 479.535 -3.4987 0.668535 0
M  V30 5141 O 478.394 -5.40937 0.777779 0
M  V30 5142 H 475.488 -0.822885 0.0824018 0
M  V30 5143 H 478.034 -1.44335 0.892499 0
M  V30 5144 H 476.806 -3.49082 1.76797 0
M  V30 5145 H 476.429 -3.97411 0.122461 0
M  V30 5146 N 477.426 -0.562348 -1.47226 0
M  V30 5147 C 478.674 -0.0401371 -2.0206 0
M  V30 5148 C 478.995 1.3165 -1.43852 0
M  V30 5149 O 478.265 1.85976 -0.615599 0
M  V30 5150 H 476.845 -0.0118479 -0.746906 0
M  V30 5151 H 479.507 -0.73352 -1.8057 0
M  V30 5152 H 478.603 0.0441254 -3.12069 0
M  V30 5153 N 478.904 1.54736 -0.299062 0
M  V30 5154 C 480.32 1.59507 0.0543849 0
M  V30 5155 C 480.52 1.31606 1.52585 0
M  V30 5156 O 479.576 1.08853 2.27832 0
M  V30 5157 C 480.889 2.98751 -0.34181 0
M  V30 5158 C 482.437 3.1165 -0.290414 0
M  V30 5159 C 482.912 4.53199 -0.661402 0
M  V30 5160 N 484.403 4.59114 -0.613863 0
M  V30 5161 C 485.138 5.66709 -0.873417 0
M  V30 5162 N 484.634 6.82349 -1.19884 0
M  V30 5163 N 486.427 5.56369 -0.800608 0
M  V30 5164 H 478.578 1.71133 -1.25806 0
M  V30 5165 H 480.841 0.799186 -0.509908 0
M  V30 5166 H 480.547 3.24085 -1.36608 0
M  V30 5167 H 480.421 3.75961 0.305508 0
M  V30 5168 H 482.808 2.86066 0.724605 0
M  V30 5169 H 482.889 2.366 -0.972327 0
M  V30 5170 H 482.533 4.79513 -1.67422 0
M  V30 5171 H 482.463 5.26583 0.0425612 0
M  V30 5172 H 484.954 3.76053 -0.3732 0
M  V30 5173 H 485.267 7.60326 -1.38291 0
M  V30 5174 H 483.612 6.83906 -1.23685 0
M  V30 5175 H 486.803 4.64904 -0.546045 0
M  V30 5176 H 486.976 6.40139 -1.00626 0
M  V30 5177 N 480.382 0.0267497 1.57577 0
M  V30 5178 C 481.612 -0.6617 1.95717 0
M  V30 5179 C 482.02 -1.66331 0.901706 0
M  V30 5180 O 481.363 -1.83273 -0.125241 0
M  V30 5181 C 481.425 -1.42649 3.29987 0
M  V30 5182 C 481.089 -0.583482 4.5326 0
M  V30 5183 C 482.086 0.140221 5.19711 0
M  V30 5184 C 479.771 -0.521581 4.99585 0
M  V30 5185 C 481.765 0.914523 6.30805 0
M  V30 5186 C 479.452 0.256428 6.10562 0
M  V30 5187 C 480.45 0.973189 6.76031 0
M  V30 5188 O 480.138 1.73845 7.84878 0
M  V30 5189 H 479.87 -0.187483 0.649481 0
M  V30 5190 H 482.424 0.0820847 2.05236 0
M  V30 5191 H 480.654 -2.21536 3.16952 0
M  V30 5192 H 482.343 -2.00282 3.53047 0
M  V30 5193 H 483.109 0.101716 4.84893 0
M  V30 5194 H 478.988 -1.06904 4.48433 0
M  V30 5195 H 482.532 1.4745 6.81839 0
M  V30 5196 H 478.429 0.296657 6.44818 0
M  V30 5197 H 479.197 1.65797 8.01532 0
M  V30 5198 N 481.861 -1.55662 -0.24637 0
M  V30 5199 C 483.086 -1.81914 -0.996093 0
M  V30 5200 C 483.511 -0.603875 -1.78143 0
M  V30 5201 O 482.869 0.447091 -1.75701 0
M  V30 5202 C 482.917 -3.05908 -1.90925 0
M  V30 5203 O 482.021 -2.82861 -3.00105 0
M  V30 5204 H 481.362 -0.600481 -0.283406 0
M  V30 5205 H 483.892 -2.02848 -0.267199 0
M  V30 5206 H 483.902 -3.35356 -2.3238 0
M  V30 5207 H 482.577 -3.93999 -1.33183 0
M  V30 5208 H 481.154 -2.64583 -2.62775 0
M  V30 5209 N 483.339 0.512053 -1.4905 0
M  V30 5210 C 484.585 1.26874 -1.58212 0
M  V30 5211 C 484.918 1.9241 -0.263073 0
M  V30 5212 O 484.193 1.80181 0.732476 0
M  V30 5213 C 484.476 2.34428 -2.73341 0
M  V30 5214 C 484.329 1.73466 -4.15006 0
M  V30 5215 C 485.648 3.36073 -2.84154 0
M  V30 5216 H 482.767 0.459924 -0.575881 0
M  V30 5217 H 485.409 0.568587 -1.81293 0
M  V30 5218 H 483.559 2.94146 -2.53792 0
M  V30 5219 H 485.231 1.17661 -4.46042 0
M  V30 5220 H 483.474 1.03921 -4.21168 0
M  V30 5221 H 484.145 2.51426 -4.91415 0
M  V30 5222 H 486.621 2.86332 -3.01916 0
M  V30 5223 H 485.497 4.08703 -3.66406 0
M  V30 5224 H 485.758 3.97725 -1.93048 0
M  V30 5225 N 484.817 1.37938 0.762283 0
M  V30 5226 C 486.094 1.24196 1.51112 0
M  V30 5227 C 486.474 -0.160409 2.1049 0
M  V30 5228 O 485.822 -1.16904 1.96331 0
M  V30 5229 C 486.032 2.34537 2.58445 0
M  V30 5230 C 487.38 2.7254 3.25588 0
M  V30 5231 O 488.404 2.33783 2.68745 0
M  V30 5232 O 487.263 3.39343 4.28379 0
M  V30 5233 H 484.357 0.485175 0.669727 0
M  V30 5234 H 486.903 1.49743 0.798438 0
M  V30 5235 H 485.675 3.28406 2.12756 0
M  V30 5236 H 485.298 2.10505 3.37303 0
M  V30 5237 N 486.295 -0.989507 1.22664 0
M  V30 5238 C 487.525 -1.7624 1.0781 0
M  V30 5239 C 487.933 -1.85466 -0.374036 0
M  V30 5240 O 487.276 -1.32645 -1.27087 0
M  V30 5241 C 487.338 -3.21007 1.61849 0
M  V30 5242 C 487.002 -3.35316 3.10503 0
M  V30 5243 C 487.999 -3.22362 4.07896 0
M  V30 5244 C 485.684 -3.60258 3.50028 0
M  V30 5245 C 487.678 -3.34139 5.42798 0
M  V30 5246 C 485.365 -3.71676 4.85078 0
M  V30 5247 C 486.363 -3.58625 5.81272 0
M  V30 5248 O 486.051 -3.69655 7.1387 0
M  V30 5249 H 485.783 -0.560209 0.378341 0
M  V30 5250 H 488.337 -1.25252 1.62792 0
M  V30 5251 H 486.567 -3.73202 1.01279 0
M  V30 5252 H 488.256 -3.80024 1.42606 0
M  V30 5253 H 489.022 -3.03 3.78703 0
M  V30 5254 H 484.901 -3.69492 2.75675 0
M  V30 5255 H 488.445 -3.23869 6.17863 0
M  V30 5256 H 484.342 -3.90545 5.1395 0
M  V30 5257 H 485.11 -3.86507 7.21495 0
M  V30 5258 N 487.773 -1.03688 -1.18687 0
M  V30 5259 C 488.998 -0.757819 -1.93059 0
M  V30 5260 C 489.423 0.678353 -1.75442 0
M  V30 5261 O 488.781 1.46938 -1.06203 0
M  V30 5262 C 488.829 -1.12423 -3.42627 0
M  V30 5263 O 487.933 -0.247505 -4.11657 0
M  V30 5264 H 487.274 -0.279245 -0.602427 0
M  V30 5265 H 489.804 -1.3857 -1.5053 0
M  V30 5266 H 489.814 -1.08454 -3.93322 0
M  V30 5267 H 488.489 -2.17049 -3.54771 0
M  V30 5268 H 487.066 -0.34649 -3.71287 0
M  V30 5269 N 489.251 1.34841 -0.815825 0
M  V30 5270 C 490.198 2.29644 -0.230664 0
M  V30 5271 C 491.168 1.53253 0.640533 0
M  V30 5272 O 492.353 1.81653 0.583672 0
M  V30 5273 C 489.493 3.39715 0.607275 0
M  V30 5274 C 488.606 4.31056 -0.28538 0
M  V30 5275 C 487.741 5.28225 0.561446 0
M  V30 5276 C 486.78 6.11204 -0.331035 0
M  V30 5277 N 485.917 7.00483 0.476302 0
M  V30 5278 H 490.757 2.79095 -1.0445 0
M  V30 5279 H 488.294 1.37351 -0.526595 0
M  V30 5280 H 490.252 4.02208 1.10835 0
M  V30 5281 H 488.882 2.91517 1.38629 0
M  V30 5282 H 487.934 3.69487 -0.904621 0
M  V30 5283 H 489.246 4.89239 -0.97193 0
M  V30 5284 H 488.4 5.96135 1.12728 0
M  V30 5285 H 487.139 4.70562 1.28153 0
M  V30 5286 H 486.144 5.42232 -0.909069 0
M  V30 5287 H 487.369 6.70947 -1.04912 0
M  V30 5288 H 485.315 6.45296 1.18019 0
M  V30 5289 H 485.232 7.55847 -0.152008 0
M  V30 5290 H 486.5 7.7273 1.02512 0
M  V30 5291 N 490.729 0.570148 1.46925 0
M  V30 5292 C 491.976 0.0509529 2.02436 0
M  V30 5293 C 492.304 -1.30405 1.44308 0
M  V30 5294 O 491.559 -1.86493 0.593198 0
M  V30 5295 C 491.858 -0.0780336 3.57315 0
M  V30 5296 C 491.524 1.20775 4.34424 0
M  V30 5297 C 490.186 1.56004 4.5521 0
M  V30 5298 C 492.538 2.0592 4.78797 0
M  V30 5299 C 489.866 2.76201 5.17619 0
M  V30 5300 C 492.218 3.25332 5.42533 0
M  V30 5301 C 490.882 3.60859 5.61549 0
M  V30 5302 H 490.152 0.018645 0.740765 0
M  V30 5303 H 492.799 0.744262 1.76445 0
M  V30 5304 H 491.104 -0.854394 3.82371 0
M  V30 5305 H 492.801 -0.495312 3.97929 0
M  V30 5306 H 489.391 0.923469 4.18533 0
M  V30 5307 H 493.575 1.80008 4.62505 0
M  V30 5308 H 488.831 3.0388 5.30535 0
M  V30 5309 H 493.005 3.91586 5.75876 0
M  V30 5310 H 490.632 4.54088 6.09678 0
M  V30 5311 N 492.207 -1.54576 0.307264 0
M  V30 5312 C 493.455 -1.99867 -0.299574 0
M  V30 5313 C 493.776 -1.19714 -1.53927 0
M  V30 5314 O 493.046 -0.29472 -1.9367 0
M  V30 5315 H 491.626 -0.738299 -0.113683 0
M  V30 5316 H 494.288 -1.9032 0.420042 0
M  V30 5317 H 493.384 -3.06901 -0.567283 0
M  V30 5318 N 493.685 -0.035106 -1.57561 0
M  V30 5319 C 494.633 0.962707 -2.11742 0
M  V30 5320 C 495.627 1.33296 -1.0454 0
M  V30 5321 O 496.833 1.31449 -1.22968 0
M  V30 5322 H 493.208 0.32826 -0.676572 0
M  V30 5323 H 495.179 0.48048 -2.94506 0
M  V30 5324 C 493.928 2.23388 -2.66445 0
M  V30 5325 H 493.251 1.95774 -3.48587 0
M  V30 5326 H 494.691 2.91402 -3.07995 0
M  V30 5327 C 493.15 2.96769 -1.59467 0
M  V30 5328 O 493.68 3.89105 -0.998 0
M  V30 5329 N 491.886 2.59212 -1.31369 0
M  V30 5330 H 491.433 1.84202 -1.80076 0
M  V30 5331 H 491.391 3.08618 -0.600173 0
M  V30 5332 N 495.163 1.55791 0.238111 0
M  V30 5333 C 496.391 1.82098 0.982233 0
M  V30 5334 C 496.806 0.612025 1.78605 0
M  V30 5335 O 496.163 -0.419381 1.77616 0
M  V30 5336 C 496.214 3.0673 1.91309 0
M  V30 5337 O 495.935 4.2296 1.14179 0
M  V30 5338 C 497.436 3.45903 2.77248 0
M  V30 5339 H 494.656 0.605748 0.288635 0
M  V30 5340 H 497.2 2.02862 0.258341 0
M  V30 5341 H 495.355 2.87991 2.59114 0
M  V30 5342 H 495.769 4.93653 1.7722 0
M  V30 5343 H 497.243 4.36189 3.38295 0
M  V30 5344 H 497.72 2.66891 3.48806 0
M  V30 5345 H 498.326 3.67024 2.14881 0
M  V30 5346 N 496.642 -0.504142 1.49319 0
M  V30 5347 C 497.891 -1.25507 1.57895 0
M  V30 5348 C 498.204 -1.93735 0.269433 0
M  V30 5349 O 499.41 -2.70492 0.233706 0
M  V30 5350 C 497.866 -2.27869 2.78574 0
M  V30 5351 C 497.474 -1.65594 4.16272 0
M  V30 5352 C 499.218 -3.0381 2.96479 0
M  V30 5353 C 497.125 -2.66048 5.28178 0
M  V30 5354 H 496.055 -0.47212 0.587894 0
M  V30 5355 H 498.706 -0.52931 1.757 0
M  V30 5356 H 497.088 -3.03594 2.54257 0
M  V30 5357 H 498.262 -0.958826 4.50714 0
M  V30 5358 H 496.577 -1.02055 4.037 0
M  V30 5359 H 499.174 -3.78925 3.77253 0
M  V30 5360 H 499.517 -3.61235 2.06918 0
M  V30 5361 H 500.05 -2.352 3.20821 0
M  V30 5362 H 496.789 -2.13408 6.19788 0
M  V30 5363 H 496.309 -3.34009 4.98195 0
M  V30 5364 H 497.988 -3.28536 5.57381 0
M  V30 5365 N 498.12 -1.38341 -0.754957 0
M  V30 5366 C 499.067 -1.3546 -1.86867 0
M  V30 5367 C 500.037 -0.217369 -1.64672 0
M  V30 5368 O 501.222 -0.409383 -1.86356 0
M  V30 5369 C 498.362 -1.18413 -3.24149 0
M  V30 5370 C 497.475 -2.41511 -3.58185 0
M  V30 5371 C 496.61 -2.17205 -4.84763 0
M  V30 5372 C 495.649 -3.36081 -5.11582 0
M  V30 5373 N 494.786 -3.11219 -6.29354 0
M  V30 5374 H 499.626 -2.30672 -1.88664 0
M  V30 5375 H 497.163 -1.14607 -0.922154 0
M  V30 5376 H 499.121 -1.06545 -4.03366 0
M  V30 5377 H 497.751 -0.268397 -3.21682 0
M  V30 5378 H 496.803 -2.64056 -2.73822 0
M  V30 5379 H 498.115 -3.30115 -3.73932 0
M  V30 5380 H 497.269 -2.02465 -5.7192 0
M  V30 5381 H 496.008 -1.25964 -4.71152 0
M  V30 5382 H 495.013 -3.51341 -4.22894 0
M  V30 5383 H 496.238 -4.28196 -5.27091 0
M  V30 5384 H 494.184 -2.22624 -6.17069 0
M  V30 5385 H 494.101 -3.93373 -6.45596 0
M  V30 5386 H 495.369 -3.00132 -7.19403 0
M  V30 5387 N 499.598 0.982988 -1.23187 0
M  V30 5388 C 500.844 1.72648 -1.06398 0
M  V30 5389 C 501.177 1.90066 0.398561 0
M  V30 5390 O 500.452 1.45105 1.29518 0
M  V30 5391 C 500.735 3.12627 -1.78707 0
M  V30 5392 C 500.588 3.02795 -3.32618 0
M  V30 5393 C 501.907 4.11997 -1.54747 0
M  V30 5394 H 499.026 0.626649 -0.387918 0
M  V30 5395 H 501.668 1.14455 -1.51658 0
M  V30 5396 H 499.818 3.62308 -1.40234 0
M  V30 5397 H 501.49 2.60659 -3.80598 0
M  V30 5398 H 499.733 2.39362 -3.61785 0
M  V30 5399 H 500.404 4.01893 -3.78399 0
M  V30 5400 H 502.88 3.71114 -1.88186 0
M  V30 5401 H 501.756 5.08037 -2.07821 0
M  V30 5402 H 502.017 4.39462 -0.482249 0
M  V30 5403 N 501.076 1.04316 1.18135 0
M  V30 5404 C 502.487 0.775505 1.69832 0
M  V30 5405 C 502.838 -0.703348 1.8316 0
M  V30 5406 O 501.963 -1.54729 1.51287 0
M  V30 5407 C 502.558 1.40112 3.0847 0
M  V30 5408 C 501.117 1.18172 3.57368 0
M  V30 5409 C 500.264 1.49022 2.33854 0
M  V30 5410 H 503.215 1.20925 1.02775 0
M  V30 5411 H 503.236 0.805672 3.71873 0
M  V30 5412 H 502.748 2.47744 2.98738 0
M  V30 5413 H 500.849 0.124258 3.72393 0
M  V30 5414 H 500.962 1.8805 4.40652 0
M  V30 5415 H 499.326 0.909995 2.37889 0
M  V30 5416 H 500.109 2.57768 2.26738 0
M  V30 5417 N 502.554 -1.34406 0.822964 0
M  V30 5418 C 503.782 -2.02508 0.424039 0
M  V30 5419 C 504.197 -1.61975 -0.970022 0
M  V30 5420 O 503.554 -0.825228 -1.62777 0
M  V30 5421 C 503.605 -3.57789 0.516657 0
M  V30 5422 O 503.326 -3.96853 1.85577 0
M  V30 5423 C 504.827 -4.43157 0.112637 0
M  V30 5424 H 502.047 -0.649063 0.170173 0
M  V30 5425 H 504.591 -1.7168 1.11113 0
M  V30 5426 H 502.746 -3.87207 -0.122353 0
M  V30 5427 H 503.16 -4.91538 1.83005 0
M  V30 5428 H 504.634 -5.51527 0.228526 0
M  V30 5429 H 505.111 -4.28939 -0.943837 0
M  V30 5430 H 505.717 -4.19067 0.725449 0
M  V30 5431 N 504.032 -0.577932 -1.46621 0
M  V30 5432 C 505.443 -0.150071 -1.86096 0
M  V30 5433 C 505.794 1.28563 -1.48209 0
M  V30 5434 O 504.919 1.97036 -0.894754 0
M  V30 5435 C 505.514 -0.265576 -3.37758 0
M  V30 5436 C 504.073 0.10738 -3.76247 0
M  V30 5437 C 503.22 -0.603711 -2.70649 0
M  V30 5438 H 506.171 -0.786438 -1.37844 0
M  V30 5439 H 506.192 0.510352 -3.77062 0
M  V30 5440 H 505.704 -1.3106 -3.65301 0
M  V30 5441 H 503.805 1.15272 -3.54321 0
M  V30 5442 H 503.918 -0.26561 -4.78363 0
M  V30 5443 H 502.282 -0.0444884 -2.54661 0
M  V30 5444 H 503.065 -1.65029 -3.01032 0
M  V30 5445 N 505.51 1.54411 -0.315457 0
M  V30 5446 C 506.44 2.27002 0.547039 0
M  V30 5447 C 507.421 1.27492 1.12605 0
M  V30 5448 O 508.606 1.5629 1.15269 0
M  V30 5449 C 505.736 3.02171 1.71201 0
M  V30 5450 C 504.69 4.0895 1.26268 0
M  V30 5451 C 504.016 4.71915 2.51396 0
M  V30 5452 C 505.316 5.20891 0.383419 0
M  V30 5453 H 507.01 2.99343 -0.0584517 0
M  V30 5454 H 504.556 1.4397 -0.0295527 0
M  V30 5455 H 506.509 3.51681 2.32161 0
M  V30 5456 H 505.233 2.27433 2.34397 0
M  V30 5457 H 503.892 3.60312 0.676062 0
M  V30 5458 H 503.54 3.93801 3.12937 0
M  V30 5459 H 503.24 5.44039 2.22026 0
M  V30 5460 H 504.764 5.24195 3.13133 0
M  V30 5461 H 506.178 5.66206 0.899082 0
M  V30 5462 H 504.575 5.99821 0.182857 0
M  V30 5463 H 505.645 4.81324 -0.587821 0
M  V30 5464 N 506.988 0.0434614 1.5754 0
M  V30 5465 C 508.228 -0.636023 1.94253 0
M  V30 5466 C 508.592 -1.68461 0.921132 0
M  V30 5467 O 509.793 -2.41762 1.17494 0
M  V30 5468 C 508.064 -1.22357 3.35803 0
M  V30 5469 S 509.623 -1.92213 3.94461 0
M  V30 5470 H 506.441 -0.209041 0.679575 0
M  V30 5471 H 509.043 0.110556 1.95187 0
M  V30 5472 H 507.747 -0.448162 4.07946 0
M  V30 5473 H 507.278 -2.00713 3.38346 0
M  V30 5474 H 509.293 -3.20199 3.79061 0
M  V30 5475 N 508.466 -1.55915 -0.229846 0
M  V30 5476 C 509.694 -1.82617 -0.972562 0
M  V30 5477 C 510.109 -0.621488 -1.78278 0
M  V30 5478 O 509.466 0.409956 -1.77836 0
M  V30 5479 C 509.517 -3.0774 -1.89679 0
M  V30 5480 O 509.238 -4.23559 -1.11934 0
M  V30 5481 C 510.739 -3.47368 -2.75409 0
M  V30 5482 H 507.959 -0.60727 -0.285419 0
M  V30 5483 H 510.503 -2.02996 -0.247579 0
M  V30 5484 H 508.658 -2.89361 -2.57583 0
M  V30 5485 H 509.072 -4.94586 -1.74599 0
M  V30 5486 H 510.546 -4.37977 -3.35977 0
M  V30 5487 H 511.023 -2.68737 -3.47386 0
M  V30 5488 H 511.629 -3.68158 -2.12931 0
M  V30 5489 N 509.944 0.496216 -1.49584 0
M  V30 5490 C 510.907 1.57952 -1.66084 0
M  V30 5491 C 511.907 1.51729 -0.53244 0
M  V30 5492 O 513.097 1.54796 -0.79899 0
M  V30 5493 C 510.229 2.97604 -1.66268 0
M  V30 5494 H 511.422 1.44649 -2.6271 0
M  V30 5495 H 508.975 0.7208 -1.38687 0
M  V30 5496 H 509.71 3.16378 -0.712432 0
M  V30 5497 H 509.495 3.03528 -2.4822 0
M  V30 5498 H 510.985 3.76301 -1.81073 0
M  V30 5499 N 511.423 1.38739 0.74761 0
M  V30 5500 C 512.839 1.20067 1.05148 0
M  V30 5501 C 513.039 0.0534835 2.01429 0
M  V30 5502 O 512.095 -0.59886 2.45296 0
M  V30 5503 C 513.408 2.52957 1.62584 0
M  V30 5504 C 514.956 2.59692 1.74726 0
M  V30 5505 C 515.431 3.92772 2.35573 0
M  V30 5506 N 516.922 3.94343 2.42997 0
M  V30 5507 C 517.657 4.9408 2.90985 0
M  V30 5508 N 517.153 6.04214 3.38965 0
M  V30 5509 N 518.946 4.81466 2.9008 0
M  V30 5510 H 511.097 2.12121 0.108808 0
M  V30 5511 H 513.36 0.941491 0.110899 0
M  V30 5512 H 513.066 3.37389 0.993051 0
M  V30 5513 H 512.94 2.71779 2.61565 0
M  V30 5514 H 515.327 1.75651 2.3713 0
M  V30 5515 H 515.408 2.44731 0.744326 0
M  V30 5516 H 515.052 4.77238 1.738 0
M  V30 5517 H 514.982 4.05046 3.36519 0
M  V30 5518 H 517.473 3.14799 2.0907 0
M  V30 5519 H 517.786 6.76241 3.74056 0
M  V30 5520 H 516.131 6.07825 3.37007 0
M  V30 5521 H 519.322 3.94535 2.51912 0
M  V30 5522 H 519.495 5.59344 3.27166 0
M  V30 5523 N 512.901 -0.976442 1.23707 0
M  V30 5524 C 513.833 -2.07212 0.979574 0
M  V30 5525 C 514.846 -1.6273 -0.0478528 0
M  V30 5526 O 516.035 -1.77506 0.18815 0
M  V30 5527 C 513.135 -3.35835 0.45479 0
M  V30 5528 C 512.308 -4.09268 1.54331 0
M  V30 5529 C 511.367 -5.16166 1.02271 0
M  V30 5530 O 510.393 -5.42827 1.71254 0
M  V30 5531 N 511.595 -5.80313 -0.147419 0
M  V30 5532 H 514.36 -2.29878 1.92292 0
M  V30 5533 H 511.921 -1.14343 1.14618 0
M  V30 5534 H 513.913 -4.04597 0.0914631 0
M  V30 5535 H 512.483 -3.10106 -0.394068 0
M  V30 5536 H 511.703 -3.34906 2.07923 0
M  V30 5537 H 512.991 -4.55095 2.27522 0
M  V30 5538 H 512.389 -5.61043 -0.724353 0
M  V30 5539 H 510.946 -6.50231 -0.451972 0
M  V30 5540 N 514.379 -1.04941 -1.1758 0
M  V30 5541 C 515.309 -0.669172 -2.23706 0
M  V30 5542 C 516.29 0.331835 -1.66832 0
M  V30 5543 O 517.475 0.209988 -1.93061 0
M  V30 5544 C 514.605 -0.0404889 -3.47276 0
M  V30 5545 C 513.559 -0.965983 -4.16957 0
M  V30 5546 C 512.885 -0.201312 -5.34321 0
M  V30 5547 C 514.185 -2.28902 -4.69469 0
M  V30 5548 H 515.879 -1.55639 -2.55767 0
M  V30 5549 H 513.425 -0.749793 -1.22939 0
M  V30 5550 H 515.378 0.237298 -4.20731 0
M  V30 5551 H 514.102 0.881658 -3.14475 0
M  V30 5552 H 512.761 -1.22829 -3.45411 0
M  V30 5553 H 512.409 0.723519 -4.97769 0
M  V30 5554 H 512.109 -0.817968 -5.81879 0
M  V30 5555 H 513.633 0.0692499 -6.10561 0
M  V30 5556 H 515.047 -2.07132 -5.34574 0
M  V30 5557 H 513.444 -2.85942 -5.27596 0
M  V30 5558 H 514.514 -2.92937 -3.86414 0
M  V30 5559 N 515.857 1.33968 -0.830081 0
M  V30 5560 C 517.134 1.92554 -0.343858 0
M  V30 5561 C 517.514 1.7573 1.16971 0
M  V30 5562 O 516.862 1.14035 1.98011 0
M  V30 5563 C 517.072 3.40147 -0.781073 0
M  V30 5564 C 518.42 4.17299 -0.78402 0
M  V30 5565 O 519.444 3.48762 -0.724112 0
M  V30 5566 O 518.303 5.39631 -0.863739 0
M  V30 5567 H 515.397 0.821469 -0.0954827 0
M  V30 5568 H 517.943 1.42897 -0.915348 0
M  V30 5569 H 516.715 3.46225 -1.82329 0
M  V30 5570 H 516.338 3.97166 -0.18567 0
M  V30 5571 N 517.335 0.585699 1.46312 0
M  V30 5572 C 518.245 -0.148236 2.34131 0
M  V30 5573 C 519.261 -0.882972 1.49932 0
M  V30 5574 O 520.437 -0.845484 1.82794 0
M  V30 5575 C 517.502 -1.14714 3.27172 0
M  V30 5576 C 516.563 -0.416746 4.27272 0
M  V30 5577 C 515.796 -1.36806 5.15868 0
M  V30 5578 O 516.019 -2.60475 5.07454 0
M  V30 5579 O 514.953 -0.877018 5.95476 0
M  V30 5580 H 518.779 0.572882 2.98248 0
M  V30 5581 H 516.364 0.346082 1.45336 0
M  V30 5582 H 518.246 -1.72303 3.84564 0
M  V30 5583 H 516.921 -1.84967 2.65648 0
M  V30 5584 H 515.828 0.201061 3.73559 0
M  V30 5585 H 517.161 0.244872 4.9159 0
M  V30 5586 N 518.813 -1.54241 0.323641 0
M  V30 5587 C 520.09 -1.92741 -0.333181 0
M  V30 5588 C 520.47 -1.25326 -1.69872 0
M  V30 5589 O 519.818 -0.396991 -2.25025 0
M  V30 5590 C 520.028 -3.46399 -0.425322 0
M  V30 5591 C 521.376 -4.19029 -0.68557 0
M  V30 5592 O 522.4 -3.52555 -0.50824 0
M  V30 5593 O 521.259 -5.36751 -1.02767 0
M  V30 5594 H 518.353 -0.804811 -0.190286 0
M  V30 5595 H 520.899 -1.65542 0.373361 0
M  V30 5596 H 519.671 -3.87643 0.533737 0
M  V30 5597 H 519.294 -3.79704 -1.17944 0
M  V30 5598 N 520.291 -0.0518155 -1.57515 0
M  V30 5599 C 521.241 0.932017 -2.0808 0
M  V30 5600 C 522.225 1.27141 -0.986098 0
M  V30 5601 O 523.417 1.25373 -1.24943 0
M  V30 5602 C 520.546 2.20665 -2.62986 0
M  V30 5603 C 519.632 1.89462 -3.79427 0
M  V30 5604 N 520.023 1.28621 -4.89173 0
M  V30 5605 C 518.321 2.19327 -3.88345 0
M  V30 5606 C 519.022 1.15062 -5.70207 0
M  V30 5607 N 517.998 1.65372 -5.17835 0
M  V30 5608 H 521.8 0.456964 -2.90326 0
M  V30 5609 H 519.314 0.152619 -1.61681 0
M  V30 5610 H 521.311 2.92044 -2.97516 0
M  V30 5611 H 519.971 2.68776 -1.8218 0
M  V30 5612 H 520.982 0.958341 -5.08956 0
M  V30 5613 H 517.659 2.69955 -3.18482 0
M  V30 5614 H 519.049 0.678243 -6.68468 0
M  V30 5615 N 521.769 1.56035 0.221574 0
M  V30 5616 C 522.994 1.83476 0.967026 0
M  V30 5617 C 523.419 0.632139 1.7716 0
M  V30 5618 O 522.777 -0.419082 1.7639 0
M  V30 5619 C 522.825 3.08907 1.86034 0
M  V30 5620 O 521.929 2.876 2.95567 0
M  V30 5621 H 521.27 0.604913 0.273817 0
M  V30 5622 H 523.8 2.03247 0.234893 0
M  V30 5623 H 523.81 3.3901 2.27016 0
M  V30 5624 H 522.485 3.96068 1.26898 0
M  V30 5625 H 521.062 2.6873 2.58532 0
M  V30 5626 N 523.247 -0.488276 1.49845 0
M  V30 5627 C 524.177 -1.59675 1.70371 0
M  V30 5628 C 525.158 -1.60878 0.552473 0
M  V30 5629 O 526.343 -1.77417 0.78973 0
M  V30 5630 C 523.473 -2.98098 1.782 0
M  V30 5631 C 522.427 -3.11761 2.93239 0
M  V30 5632 C 521.753 -4.51661 2.86193 0
M  V30 5633 C 523.053 -2.90589 4.33999 0
M  V30 5634 H 524.747 -1.42752 2.63177 0
M  V30 5635 H 522.293 -0.685317 1.26647 0
M  V30 5636 H 524.246 -3.75555 1.91144 0
M  V30 5637 H 522.97 -3.16138 0.820018 0
M  V30 5638 H 521.629 -2.36732 2.79917 0
M  V30 5639 H 521.277 -4.66595 1.87877 0
M  V30 5640 H 520.977 -4.61742 3.63412 0
M  V30 5641 H 522.501 -5.31162 3.01163 0
M  V30 5642 H 523.915 -3.57807 4.47936 0
M  V30 5643 H 522.312 -3.1213 5.12538 0
M  V30 5644 H 523.382 -1.86595 4.4756 0
M  V30 5645 N 524.725 -1.39134 -0.740242 0
M  V30 5646 C 525.655 -1.40165 -1.86751 0
M  V30 5647 C 526.636 -0.265708 -1.68012 0
M  V30 5648 O 527.821 -0.47076 -1.88408 0
M  V30 5649 C 524.951 -1.2392 -3.2444 0
M  V30 5650 C 523.905 -2.34858 -3.57807 0
M  V30 5651 C 523.231 -2.03707 -4.94376 0
M  V30 5652 C 524.531 -3.77159 -3.61315 0
M  V30 5653 H 526.225 -2.345 -1.86145 0
M  V30 5654 H 523.771 -1.12875 -0.89416 0
M  V30 5655 H 525.724 -1.23263 -4.02969 0
M  V30 5656 H 524.448 -0.26051 -3.25559 0
M  V30 5657 H 523.107 -2.34723 -2.81604 0
M  V30 5658 H 522.755 -1.04289 -4.9207 0
M  V30 5659 H 522.455 -2.78016 -5.17669 0
M  V30 5660 H 523.979 -2.04691 -5.75268 0
M  V30 5661 H 525.393 -3.79252 -4.29931 0
M  V30 5662 H 523.79 -4.50784 -3.96124 0
M  V30 5663 H 524.86 -4.08513 -2.61238 0
M  V30 5664 N 526.204 0.969867 -1.24223 0
M  V30 5665 C 527.114 2.09806 -1.0497 0
M  V30 5666 C 528.13 1.73998 0.00886455 0
M  V30 5667 O 529.306 2.00513 -0.188848 0
M  V30 5668 C 526.371 3.40467 -0.654452 0
M  V30 5669 C 525.432 3.90236 -1.78926 0
M  V30 5670 C 524.665 5.14662 -1.41277 0
M  V30 5671 O 524.888 5.69602 -0.301632 0
M  V30 5672 O 523.822 5.58761 -2.23763 0
M  V30 5673 H 527.648 2.28942 -1.99548 0
M  V30 5674 H 525.233 1.08197 -1.03023 0
M  V30 5675 H 527.115 4.19039 -0.445452 0
M  V30 5676 H 525.79 3.22636 0.262216 0
M  V30 5677 H 524.697 3.12735 -2.05299 0
M  V30 5678 H 526.03 4.1254 -2.68462 0
M  V30 5679 N 527.682 1.05563 1.17022 0
M  V30 5680 C 528.645 0.664098 2.19368 0
M  V30 5681 C 529.645 -0.286358 1.5823 0
M  V30 5682 O 530.835 -0.069728 1.7406 0
M  V30 5683 C 527.967 -0.0239932 3.40892 0
M  V30 5684 H 529.16 1.57 2.55521 0
M  V30 5685 H 526.713 0.849964 1.31169 0
M  V30 5686 H 527.448 -0.942988 3.10287 0
M  V30 5687 H 527.233 0.659351 3.86516 0
M  V30 5688 H 528.723 -0.283909 4.16634 0
M  V30 5689 N 529.16 -1.33526 0.837174 0
M  V30 5690 C 530.09 -2.31764 0.284206 0
M  V30 5691 C 531.071 -1.58896 -0.607142 0
M  V30 5692 O 532.256 -1.86798 -0.531047 0
M  V30 5693 C 529.386 -3.43029 -0.542962 0
M  V30 5694 C 528.34 -4.27255 0.252451 0
M  V30 5695 C 527.666 -5.3012 -0.69836 0
M  V30 5696 C 528.966 -5.01229 1.46858 0
M  V30 5697 H 530.66 -2.78262 1.10502 0
M  V30 5698 H 528.206 -1.3378 0.532812 0
M  V30 5699 H 530.159 -4.1078 -0.940096 0
M  V30 5700 H 528.883 -2.95216 -1.39697 0
M  V30 5701 H 527.542 -3.61127 0.631124 0
M  V30 5702 H 527.19 -4.78564 -1.54872 0
M  V30 5703 H 526.89 -5.87353 -0.170274 0
M  V30 5704 H 528.414 -6.00737 -1.09305 0
M  V30 5705 H 529.828 -5.61756 1.14469 0
M  V30 5706 H 528.225 -5.68104 1.93333 0
M  V30 5707 H 529.295 -4.301 2.23924 0
M  V30 5708 N 530.638 -0.59345 -1.46 0
M  V30 5709 C 531.866 -0.0890934 -2.06708 0
M  V30 5710 C 532.281 1.2205 -1.44046 0
M  V30 5711 O 531.638 1.74029 -0.549551 0
M  V30 5712 C 531.689 0.0720263 -3.61428 0
M  V30 5713 O 531.41 -1.18574 -4.21748 0
M  V30 5714 C 532.911 0.609487 -4.3909 0
M  V30 5715 H 530.131 -0.0623628 -0.668096 0
M  V30 5716 H 532.675 -0.817171 -1.87464 0
M  V30 5717 H 530.83 0.750369 -3.80063 0
M  V30 5718 H 531.244 -1.0064 -5.14754 0
M  V30 5719 H 532.718 0.671363 -5.47902 0
M  V30 5720 H 533.195 1.62878 -4.07882 0
M  V30 5721 H 533.801 -0.03434 -4.25286 0
M  V30 5722 N 532.116 1.54067 -0.331816 0
M  V30 5723 C 533.046 2.27569 0.522932 0
M  V30 5724 C 534.027 1.28679 1.11247 0
M  V30 5725 O 535.212 1.57504 1.13605 0
M  V30 5726 C 532.342 3.0397 1.67987 0
M  V30 5727 C 531.296 4.10267 1.21924 0
M  V30 5728 C 530.622 4.74555 2.46377 0
M  V30 5729 C 531.922 5.21268 0.32815 0
M  V30 5730 H 533.616 2.99264 -0.0901977 0
M  V30 5731 H 531.162 1.4393 -0.044821 0
M  V30 5732 H 533.115 3.54123 2.28418 0
M  V30 5733 H 531.839 2.29906 2.31971 0
M  V30 5734 H 530.498 3.61009 0.637809 0
M  V30 5735 H 530.146 3.97098 3.08743 0
M  V30 5736 H 529.846 5.46363 2.16243 0
M  V30 5737 H 531.37 5.27487 3.07555 0
M  V30 5738 H 532.784 5.67128 0.838978 0
M  V30 5739 H 531.181 5.99982 0.119228 0
M  V30 5740 H 532.251 4.80673 -0.638839 0
M  V30 5741 N 533.594 0.0601682 1.57485 0
M  V30 5742 C 534.557 -0.896373 2.10945 0
M  V30 5743 C 535.557 -1.23402 1.03095 0
M  V30 5744 O 536.747 -1.16921 1.29132 0
M  V30 5745 C 533.879 -2.20346 2.60116 0
M  V30 5746 H 535.072 -0.432778 2.96761 0
M  V30 5747 H 532.625 -0.188372 1.55161 0
M  V30 5748 H 533.36 -2.71268 1.7772 0
M  V30 5749 H 533.145 -1.9714 3.38937 0
M  V30 5750 H 534.635 -2.88846 3.01592 0
M  V30 5751 N 535.072 -1.5615 -0.213296 0
M  V30 5752 C 536.297 -1.83986 -0.957282 0
M  V30 5753 C 536.722 -0.641526 -1.76822 0
M  V30 5754 O 536.08 0.409722 -1.7661 0
M  V30 5755 C 536.128 -3.09889 -1.84393 0
M  V30 5756 O 535.232 -2.89163 -2.94038 0
M  V30 5757 H 534.573 -0.606357 -0.270605 0
M  V30 5758 H 537.103 -2.03369 -0.224111 0
M  V30 5759 H 537.113 -3.40209 -2.25215 0
M  V30 5760 H 535.788 -3.96735 -1.24795 0
M  V30 5761 H 534.365 -2.70097 -2.57103 0
M  V30 5762 N 536.55 0.480323 -1.50102 0
M  V30 5763 C 537.513 1.56181 -1.6775 0
M  V30 5764 C 538.513 1.51156 -0.548503 0
M  V30 5765 O 539.703 1.5394 -0.815363 0
M  V30 5766 C 536.835 2.95823 -1.69415 0
M  V30 5767 H 538.028 1.41855 -2.6423 0
M  V30 5768 H 535.581 0.70605 -1.39444 0
M  V30 5769 H 536.316 3.15604 -0.745948 0
M  V30 5770 H 536.101 3.00878 -2.51425 0
M  V30 5771 H 537.591 3.74359 -1.85054 0
M  V30 5772 N 538.028 1.39524 0.732853 0
M  V30 5773 C 539.444 1.21176 1.03868 0
M  V30 5774 C 539.644 0.0748448 2.01361 0
M  V30 5775 O 538.7 -0.57281 2.45917 0
M  V30 5776 C 540.013 2.54667 1.59892 0
M  V30 5777 C 541.561 2.6153 1.71962 0
M  V30 5778 C 542.036 3.95248 2.31394 0
M  V30 5779 N 543.527 3.96899 2.38801 0
M  V30 5780 C 544.262 4.97138 2.85729 0
M  V30 5781 N 543.758 6.07775 3.32537 0
M  V30 5782 N 545.551 4.84516 2.84957 0
M  V30 5783 H 537.702 2.12225 0.086304 0
M  V30 5784 H 539.965 0.942614 0.100907 0
M  V30 5785 H 539.671 3.38423 0.95721 0
M  V30 5786 H 539.545 2.74538 2.58668 0
M  V30 5787 H 541.932 1.78156 2.35254 0
M  V30 5788 H 542.013 2.45507 0.718327 0
M  V30 5789 H 541.657 4.79054 1.68729 0
M  V30 5790 H 541.587 4.08593 3.32204 0
M  V30 5791 H 544.078 3.16998 2.05719 0
M  V30 5792 H 544.391 6.8017 3.66862 0
M  V30 5793 H 542.736 6.11366 3.30541 0
M  V30 5794 H 545.927 3.97185 2.47713 0
M  V30 5795 H 546.1 5.62783 3.21215 0
M  V30 5796 N 539.506 -0.963266 1.24736 0
M  V30 5797 C 540.754 -1.70343 1.08755 0
M  V30 5798 C 541.075 -1.91387 -0.373619 0
M  V30 5799 O 540.345 -1.4948 -1.2662 0
M  V30 5800 H 538.925 -0.631224 0.399456 0
M  V30 5801 H 541.587 -1.15859 1.56725 0
M  V30 5802 H 540.683 -2.68616 1.58909 0
M  V30 5803 N 540.985 -1.06182 -1.16461 0
M  V30 5804 C 542.396 -0.802426 -1.68576 0
M  V30 5805 C 542.747 0.67412 -1.84255 0
M  V30 5806 O 541.872 1.52303 -1.5373 0
M  V30 5807 C 542.467 -1.45002 -3.06202 0
M  V30 5808 C 541.026 -1.23843 -3.55443 0
M  V30 5809 C 540.173 -1.52724 -2.31454 0
M  V30 5810 H 543.124 -1.22545 -1.00839 0
M  V30 5811 H 543.145 -0.864731 -3.70544 0
M  V30 5812 H 542.657 -2.52466 -2.94759 0
M  V30 5813 H 540.758 -0.183487 -3.72148 0
M  V30 5814 H 540.871 -1.95036 -4.37604 0
M  V30 5815 H 539.235 -0.947726 -2.36411 0
M  V30 5816 H 540.018 -2.61343 -2.22609 0
M  V30 5817 N 542.463 1.3308 -0.844243 0
M  V30 5818 C 543.393 2.3161 -0.296493 0
M  V30 5819 C 544.374 1.59215 0.598707 0
M  V30 5820 O 545.559 1.87077 0.521134 0
M  V30 5821 C 542.689 3.43313 0.524762 0
M  V30 5822 C 541.643 4.27115 -0.275106 0
M  V30 5823 C 540.969 5.30483 0.670236 0
M  V30 5824 C 542.269 5.00443 -1.49514 0
M  V30 5825 H 543.963 2.77672 -1.11976 0
M  V30 5826 H 541.509 1.33496 -0.539899 0
M  V30 5827 H 543.462 4.11273 0.918298 0
M  V30 5828 H 542.186 2.95952 1.3813 0
M  V30 5829 H 540.845 3.60787 -0.650267 0
M  V30 5830 H 540.493 4.79379 1.52332 0
M  V30 5831 H 540.193 5.87435 0.139123 0
M  V30 5832 H 541.717 6.01308 1.06117 0
M  V30 5833 H 543.131 5.61141 -1.17447 0
M  V30 5834 H 541.528 5.67071 -1.96343 0
M  V30 5835 H 542.598 4.28906 -2.26202 0
M  V30 5836 N 543.941 0.601185 1.45683 0
M  V30 5837 C 545.357 0.264315 1.57396 0
M  V30 5838 C 545.557 -1.23324 1.59353 0
M  V30 5839 O 544.613 -2.01594 1.52039 0
M  V30 5840 C 545.926 0.929839 2.85962 0
M  V30 5841 C 547.474 0.905156 2.99626 0
M  V30 5842 C 547.949 1.55057 4.30954 0
M  V30 5843 N 549.44 1.51576 4.37697 0
M  V30 5844 C 550.175 1.98436 5.37969 0
M  V30 5845 N 549.671 2.53352 6.44813 0
M  V30 5846 N 551.464 1.89242 5.29286 0
M  V30 5847 H 543.615 1.57363 1.42656 0
M  V30 5848 H 545.878 0.658831 0.681649 0
M  V30 5849 H 545.584 1.98404 2.90394 0
M  V30 5850 H 545.458 0.449224 3.74515 0
M  V30 5851 H 547.845 -0.14048 2.94765 0
M  V30 5852 H 547.926 1.42397 2.12501 0
M  V30 5853 H 547.57 2.5955 4.36573 0
M  V30 5854 H 547.5 1.00682 5.16886 0
M  V30 5855 H 549.991 1.11452 3.61091 0
M  V30 5856 H 550.304 2.86918 7.17564 0
M  V30 5857 H 548.649 2.57388 6.45582 0
M  V30 5858 H 551.84 1.46083 4.44722 0
M  V30 5859 H 552.013 2.26075 6.07284 0
M  V30 5860 N 545.419 -1.53889 0.339982 0
M  V30 5861 C 546.366 -2.24902 -0.518452 0
M  V30 5862 C 547.336 -1.24593 -1.09844 0
M  V30 5863 O 548.521 -1.53317 -1.13572 0
M  V30 5864 C 545.661 -3.02262 -1.66529 0
M  V30 5865 C 544.774 -4.17418 -1.11295 0
M  V30 5866 C 543.909 -4.82273 -2.2268 0
M  V30 5867 C 542.948 -5.89503 -1.6478 0
M  V30 5868 N 542.085 -6.48153 -2.69893 0
M  V30 5869 H 546.925 -2.97853 0.0936579 0
M  V30 5870 H 544.462 -1.46986 0.0579924 0
M  V30 5871 H 546.42 -3.45371 -2.3404 0
M  V30 5872 H 545.05 -2.31614 -2.24844 0
M  V30 5873 H 544.102 -3.78976 -0.328886 0
M  V30 5874 H 545.414 -4.94554 -0.649414 0
M  V30 5875 H 544.568 -5.28435 -2.98063 0
M  V30 5876 H 543.307 -4.04552 -2.72376 0
M  V30 5877 H 542.312 -5.42728 -0.879004 0
M  V30 5878 H 543.537 -6.6913 -1.1594 0
M  V30 5879 H 541.483 -5.73298 -3.1885 0
M  V30 5880 H 541.4 -7.20752 -2.28151 0
M  V30 5881 H 542.668 -6.98968 -3.45056 0
M  V30 5882 N 546.897 -0.0685191 -1.57451 0
M  V30 5883 C 548.313 0.288101 -1.56978 0
M  V30 5884 C 548.513 1.70262 -1.07765 0
M  V30 5885 O 547.569 2.4135 -0.742054 0
M  V30 5886 C 548.882 0.100745 -3.00531 0
M  V30 5887 C 550.43 0.170531 -3.12535 0
M  V30 5888 C 550.905 0.0114944 -4.57999 0
M  V30 5889 N 552.396 0.0672065 -4.63151 0
M  V30 5890 C 553.131 -0.0314813 -5.73391 0
M  V30 5891 N 552.627 -0.183503 -6.92557 0
M  V30 5892 N 554.42 0.0253489 -5.62094 0
M  V30 5893 H 546.571 -0.993026 -1.87757 0
M  V30 5894 H 548.834 -0.386981 -0.865419 0
M  V30 5895 H 548.54 -0.875197 -3.40636 0
M  V30 5896 H 548.414 0.854457 -3.67395 0
M  V30 5897 H 550.801 1.13696 -2.72318 0
M  V30 5898 H 550.882 -0.614229 -2.48316 0
M  V30 5899 H 550.526 -0.951684 -4.98904 0
M  V30 5900 H 550.456 0.815617 -5.20245 0
M  V30 5901 H 552.947 0.183246 -3.77455 0
M  V30 5902 H 553.26 -0.251041 -7.72392 0
M  V30 5903 H 551.605 -0.218822 -6.94655 0
M  V30 5904 H 554.796 0.142794 -4.67882 0
M  V30 5905 H 554.969 -0.0550166 -6.47977 0
M  V30 5906 N 548.375 1.56261 0.205012 0
M  V30 5907 C 549.6 1.84491 0.947512 0
M  V30 5908 C 550.025 0.650894 1.76479 0
M  V30 5909 O 549.383 -0.40035 1.76824 0
M  V30 5910 C 549.431 3.10863 1.82747 0
M  V30 5911 O 548.535 2.90719 2.925 0
M  V30 5912 H 547.876 0.607783 0.267386 0
M  V30 5913 H 550.406 2.03485 0.213323 0
M  V30 5914 H 550.416 3.41399 2.23407 0
M  V30 5915 H 549.091 3.97392 1.2269 0
M  V30 5916 H 547.668 2.71457 2.55667 0
M  V30 5917 N 549.853 -0.472356 1.50355 0
M  V30 5918 C 551.099 -1.22634 1.6152 0
M  V30 5919 C 551.432 -1.91645 0.313995 0
M  V30 5920 O 550.707 -1.82059 -0.684446 0
M  V30 5921 C 550.99 -2.27099 2.7946 0
M  V30 5922 C 550.843 -1.62402 4.19459 0
M  V30 5923 C 552.162 -3.28421 2.92964 0
M  V30 5924 H 549.281 -0.444494 0.587873 0
M  V30 5925 H 551.923 -0.520321 1.82737 0
M  V30 5926 H 550.073 -2.87314 2.61501 0
M  V30 5927 H 551.745 -1.05793 4.49005 0
M  V30 5928 H 549.988 -0.927184 4.23776 0
M  V30 5929 H 550.659 -2.38309 4.97909 0
M  V30 5930 H 553.135 -2.78227 3.09401 0
M  V30 5931 H 552.011 -3.98845 3.77113 0
M  V30 5932 H 552.272 -3.92467 2.03525 0
M  V30 5933 N 551.331 -1.39911 -0.725443 0
M  V30 5934 C 552.742 -1.33599 -1.30415 0
M  V30 5935 C 553.093 -0.00481792 -1.96199 0
M  V30 5936 O 552.218 0.897275 -1.96921 0
M  V30 5937 C 552.813 -2.41965 -2.37146 0
M  V30 5938 C 551.372 -2.39144 -2.90667 0
M  V30 5939 C 550.519 -2.23355 -1.64341 0
M  V30 5940 H 553.47 -1.4986 -0.522267 0
M  V30 5941 H 553.491 -2.09304 -3.17761 0
M  V30 5942 H 553.003 -3.38837 -1.89238 0
M  V30 5943 H 551.104 -1.4594 -3.4283 0
M  V30 5944 H 551.217 -3.34362 -3.43131 0
M  V30 5945 H 549.581 -1.70696 -1.89037 0
M  V30 5946 H 550.364 -3.2221 -1.18471 0
M  V30 5947 N 552.809 0.956637 -1.25245 0
M  V30 5948 C 553.742 2.05232 -0.99775 0
M  V30 5949 C 554.72 1.62439 0.0723137 0
M  V30 5950 O 555.904 1.88381 -0.066926 0
M  V30 5951 C 553.031 3.34871 -0.507861 0
M  V30 5952 C 552.077 3.96625 -1.56815 0
M  V30 5953 S 552.91 4.32853 -3.15276 0
M  V30 5954 C 554.066 5.65613 -2.68017 0
M  V30 5955 H 554.299 2.26521 -1.9255 0
M  V30 5956 H 551.832 1.09601 -1.08752 0
M  V30 5957 H 553.79 4.09845 -0.231858 0
M  V30 5958 H 552.451 3.11551 0.399356 0
M  V30 5959 H 551.644 4.90087 -1.17604 0
M  V30 5960 H 551.246 3.28124 -1.79473 0
M  V30 5961 H 553.538 6.43635 -2.11518 0
M  V30 5962 H 554.481 6.09693 -3.60112 0
M  V30 5963 H 554.889 5.24751 -2.0808 0
M  V30 5964 N 554.287 1.06798 1.15896 0
M  V30 5965 C 555.25 0.687328 2.18651 0
M  V30 5966 C 556.25 -0.269559 1.58524 0
M  V30 5967 O 557.44 -0.0512627 1.74125 0
M  V30 5968 C 554.572 0.0121642 3.40898 0
M  V30 5969 H 555.765 1.59701 2.53842 0
M  V30 5970 H 553.318 0.863828 1.3026 0
M  V30 5971 H 554.053 -0.910025 3.1127 0
M  V30 5972 H 553.838 0.700309 3.85795 0
M  V30 5973 H 555.328 -0.239703 4.16911 0
M  V30 5974 N 555.766 -1.3263 0.851289 0
M  V30 5975 C 556.713 -2.28952 0.291469 0
M  V30 5976 C 557.683 -1.54897 -0.599676 0
M  V30 5977 O 558.868 -1.83137 -0.535305 0
M  V30 5978 C 556.008 -3.41206 -0.516992 0
M  V30 5979 C 555.121 -4.30148 0.399566 0
M  V30 5980 C 554.256 -5.29527 -0.4212 0
M  V30 5981 C 553.295 -6.10112 0.492969 0
M  V30 5982 N 552.432 -7.01499 -0.290414 0
M  V30 5983 H 557.272 -2.76228 1.11813 0
M  V30 5984 H 554.809 -1.35907 0.562826 0
M  V30 5985 H 556.767 -4.05005 -1.00132 0
M  V30 5986 H 555.397 -2.9509 -1.30851 0
M  V30 5987 H 554.449 -3.66959 1.00227 0
M  V30 5988 H 555.761 -4.8649 1.1013 0
M  V30 5989 H 554.915 -5.98914 -0.968832 0
M  V30 5990 H 553.654 -4.73794 -1.15632 0
M  V30 5991 H 552.659 -5.39632 1.05251 0
M  V30 5992 H 553.884 -6.6793 1.22664 0
M  V30 5993 H 551.83 -6.48199 -1.00868 0
M  V30 5994 H 551.747 -7.55178 0.352354 0
M  V30 5995 H 553.015 -7.75176 -0.819882 0
M  V30 5996 N 557.244 -0.608902 -1.45362 0
M  V30 5997 C 558.207 0.0992563 -2.28985 0
M  V30 5998 C 559.207 0.793841 -1.39838 0
M  V30 5999 O 560.397 0.641804 -1.61946 0
M  V30 6000 C 557.529 1.15073 -3.20891 0
M  V30 6001 H 558.722 -0.635964 -2.93079 0
M  V30 6002 H 556.275 -0.368007 -1.51906 0
M  V30 6003 H 557.01 1.91667 -2.616 0
M  V30 6004 H 556.795 0.656867 -3.86559 0
M  V30 6005 H 558.285 1.64665 -3.83765 0
M  V30 6006 N 558.722 1.53707 -0.348139 0
M  V30 6007 C 559.669 2.25173 0.506518 0
M  V30 6008 C 560.639 1.25174 1.09182 0
M  V30 6009 O 561.824 1.53917 1.12757 0
M  V30 6010 C 558.964 3.03141 1.64923 0
M  V30 6011 C 558.077 4.18002 1.0908 0
M  V30 6012 C 557.212 4.83447 2.20119 0
M  V30 6013 C 556.251 5.90369 1.61651 0
M  V30 6014 N 555.388 6.49575 2.66451 0
M  V30 6015 H 560.228 2.97799 -0.109452 0
M  V30 6016 H 557.765 1.46953 -0.0657866 0
M  V30 6017 H 559.723 3.46607 2.32205 0
M  V30 6018 H 558.353 2.32803 2.23612 0
M  V30 6019 H 557.405 3.79145 0.308783 0
M  V30 6020 H 558.717 4.94892 0.623178 0
M  V30 6021 H 557.871 5.30008 2.95257 0
M  V30 6022 H 556.61 4.05991 2.70227 0
M  V30 6023 H 555.615 5.43186 0.850209 0
M  V30 6024 H 556.84 6.69735 1.1239 0
M  V30 6025 H 554.786 5.74981 3.15805 0
M  V30 6026 H 554.703 7.21952 2.24325 0
M  V30 6027 H 555.971 7.00789 3.41344 0
M  V30 6028 N 560.2 0.0768682 1.57412 0
M  V30 6029 C 561.611 -0.455037 1.8107 0
M  V30 6030 C 561.962 -1.69323 0.991162 0
M  V30 6031 O 561.087 -2.15328 0.215156 0
M  V30 6032 C 561.682 -0.832316 3.28417 0
M  V30 6033 C 560.241 -1.30906 3.52903 0
M  V30 6034 C 559.388 -0.296714 2.75708 0
M  V30 6035 H 562.339 0.302514 1.5579 0
M  V30 6036 H 562.36 -1.69333 3.40744 0
M  V30 6037 H 561.872 0.0690532 3.88039 0
M  V30 6038 H 559.973 -2.22875 2.98592 0
M  V30 6039 H 560.086 -1.28348 4.61588 0
M  V30 6040 H 558.45 -0.775059 2.42621 0
M  V30 6041 H 559.233 0.597015 3.38069 0
M  V30 6042 N 561.678 -1.56367 -0.196722 0
M  V30 6043 C 562.625 -1.94417 -1.24382 0
M  V30 6044 C 563.595 -0.804543 -1.45315 0
M  V30 6045 O 564.78 -1.06256 -1.58475 0
M  V30 6046 C 561.92 -2.28757 -2.58388 0
M  V30 6047 C 561.033 -3.55775 -2.45047 0
M  V30 6048 C 560.168 -3.79445 -3.71746 0
M  V30 6049 C 559.207 -4.99894 -3.53231 0
M  V30 6050 N 558.344 -5.19826 -4.71938 0
M  V30 6051 H 563.184 -2.83691 -0.912338 0
M  V30 6052 H 560.721 -1.40392 -0.439135 0
M  V30 6053 H 562.679 -2.46682 -3.36457 0
M  V30 6054 H 561.309 -1.42625 -2.89582 0
M  V30 6055 H 560.361 -3.45905 -1.58284 0
M  V30 6056 H 561.673 -4.44 -2.27299 0
M  V30 6057 H 560.827 -3.97601 -4.58256 0
M  V30 6058 H 559.566 -2.89546 -3.92446 0
M  V30 6059 H 558.571 -4.81662 -2.65107 0
M  V30 6060 H 559.796 -5.913 -3.33978 0
M  V30 6061 H 557.742 -4.32875 -4.92905 0
M  V30 6062 H 557.659 -6.02228 -4.57009 0
M  V30 6063 H 558.927 -5.42439 -5.59803 0
M  V30 6064 N 563.156 0.464375 -1.50603 0
M  V30 6065 C 564.403 1.21596 -1.61928 0
M  V30 6066 C 564.731 1.91804 -0.322737 0
M  V30 6067 O 563.986 1.83065 0.691776 0
M  V30 6068 C 564.285 2.278 -2.75394 0
M  V30 6069 C 563.951 1.74797 -4.1564 0
M  V30 6070 C 562.613 1.60063 -4.53799 0
M  V30 6071 C 564.965 1.35548 -5.03266 0
M  V30 6072 C 562.293 1.04514 -5.77316 0
M  V30 6073 C 564.645 0.814381 -6.27336 0
M  V30 6074 C 563.309 0.653726 -6.64291 0
M  V30 6075 H 562.579 0.444951 -0.592536 0
M  V30 6076 H 565.226 0.510964 -1.84557 0
M  V30 6077 H 563.531 3.04233 -2.46879 0
M  V30 6078 H 565.228 2.85723 -2.81359 0
M  V30 6079 H 561.818 1.87234 -3.8554 0
M  V30 6080 H 566.002 1.45763 -4.74412 0
M  V30 6081 H 561.258 0.908186 -6.04617 0
M  V30 6082 H 565.432 0.501626 -6.94591 0
M  V30 6083 H 563.059 0.22114 -7.59878 0
M  V30 6084 N 564.634 1.40294 0.718013 0
M  V30 6085 C 565.859 1.41941 1.5122 0
M  V30 6086 C 566.284 0.0202371 1.88089 0
M  V30 6087 O 565.642 -0.971078 1.53101 0
M  V30 6088 C 565.69 2.3141 2.76554 0
M  V30 6089 O 564.794 1.75567 3.73162 0
M  V30 6090 H 564.135 0.482644 0.456016 0
M  V30 6091 H 566.665 1.84494 0.884478 0
M  V30 6092 H 566.675 2.46513 3.25108 0
M  V30 6093 H 565.35 3.33085 2.49053 0
M  V30 6094 H 563.927 1.69798 3.31999 0
M  V30 6095 N 566.112 -0.949982 1.2575 0
M  V30 6096 C 567.361 -1.68956 1.10168 0
M  V30 6097 C 567.674 -1.92327 -0.356309 0
M  V30 6098 O 568.88 -2.64026 -0.632657 0
M  V30 6099 C 567.336 -3.04196 1.92336 0
M  V30 6100 C 566.944 -2.88603 3.42655 0
M  V30 6101 C 568.688 -3.81904 1.85336 0
M  V30 6102 C 566.595 -4.19262 4.17101 0
M  V30 6103 H 565.525 -0.633645 0.408668 0
M  V30 6104 H 568.176 -1.05719 1.49986 0
M  V30 6105 H 566.558 -3.68363 1.45344 0
M  V30 6106 H 567.732 -2.3334 3.97353 0
M  V30 6107 H 566.047 -2.24345 3.50796 0
M  V30 6108 H 568.644 -4.78688 2.38248 0
M  V30 6109 H 568.987 -4.08099 0.822226 0
M  V30 6110 H 569.52 -3.24495 2.30104 0
M  V30 6111 H 566.259 -3.98254 5.20648 0
M  V30 6112 H 565.779 -4.74273 3.67186 0
M  V30 6113 H 567.458 -4.87775 4.25071 0
M  V30 6114 N 567.59 -1.07411 -1.15328 0
M  V30 6115 C 568.815 -0.818856 -1.90551 0
M  V30 6116 C 569.24 0.622194 -1.77512 0
M  V30 6117 O 568.598 1.43484 -1.10824 0
M  V30 6118 C 568.646 -1.23267 -3.38877 0
M  V30 6119 O 567.75 -0.378345 -4.10661 0
M  V30 6120 H 567.091 -0.29827 -0.593238 0
M  V30 6121 H 569.621 -1.43289 -1.46046 0
M  V30 6122 H 569.631 -1.20912 -3.89672 0
M  V30 6123 H 568.306 -2.28226 -3.47686 0
M  V30 6124 H 566.883 -0.464437 -3.69996 0
M  V30 6125 N 569.068 1.32177 -0.85831 0
M  V30 6126 C 570.479 1.79381 -0.517621 0
M  V30 6127 C 570.83 1.70841 0.964769 0
M  V30 6128 O 569.955 1.26917 1.75274 0
M  V30 6129 C 570.55 3.25706 -0.932801 0
M  V30 6130 C 569.109 3.70851 -0.643953 0
M  V30 6131 C 568.256 2.53208 -1.13054 0
M  V30 6132 H 571.207 1.19424 -1.04516 0
M  V30 6133 H 571.228 3.79673 -0.250674 0
M  V30 6134 H 570.74 3.31889 -2.01174 0
M  V30 6135 H 568.841 3.70178 0.424112 0
M  V30 6136 H 568.954 4.63495 -1.21281 0
M  V30 6137 H 567.318 2.48676 -0.550679 0
M  V30 6138 H 568.101 2.62143 -2.21666 0
M  V30 6139 N 570.547 0.616602 1.45037 0
M  V30 6140 C 571.824 0.0469086 1.95544 0
M  V30 6141 C 572.204 -1.42345 1.55888 0
M  V30 6142 O 571.552 -2.13055 0.825824 0
M  V30 6143 C 571.762 0.254489 3.48071 0
M  V30 6144 C 573.11 0.140025 4.24369 0
M  V30 6145 O 574.134 0.185084 3.55719 0
M  V30 6146 O 572.993 0.0327034 5.4649 0
M  V30 6147 H 570.087 -0.0306051 0.826433 0
M  V30 6148 H 572.633 0.687293 1.55159 0
M  V30 6149 H 571.405 1.27532 3.69934 0
M  V30 6150 H 571.028 -0.42073 3.95368 0
M  V30 6151 N 572.025 -1.5352 0.356285 0
M  V30 6152 C 573.25 -2.06007 -0.239961 0
M  V30 6153 C 573.675 -1.22872 -1.42422 0
M  V30 6154 O 573.033 -0.245516 -1.7963 0
M  V30 6155 C 573.081 -3.5522 -0.620587 0
M  V30 6156 O 572.185 -3.74864 -1.71902 0
M  V30 6157 H 571.526 -0.662961 -0.0371377 0
M  V30 6158 H 574.056 -1.98033 0.514194 0
M  V30 6159 H 574.066 -3.98081 -0.894197 0
M  V30 6160 H 572.741 -4.15175 0.245407 0
M  V30 6161 H 571.318 -3.43904 -1.44169 0
M  V30 6162 N 573.503 -0.0852151 -1.57369 0
M  V30 6163 C 574.433 0.874556 -2.16503 0
M  V30 6164 C 575.414 1.30111 -1.09568 0
M  V30 6165 O 576.599 1.36977 -1.37662 0
M  V30 6166 C 573.729 2.13731 -2.73745 0
M  V30 6167 C 572.683 1.84971 -3.85966 0
M  V30 6168 C 572.009 3.17991 -4.29867 0
M  V30 6169 C 573.309 1.14442 -5.09608 0
M  V30 6170 H 575.003 0.381899 -2.96954 0
M  V30 6171 H 572.549 0.18225 -1.42842 0
M  V30 6172 H 574.502 2.81302 -3.13763 0
M  V30 6173 H 573.226 2.65263 -1.90534 0
M  V30 6174 H 571.885 1.19801 -3.46473 0
M  V30 6175 H 571.533 3.6739 -3.4356 0
M  V30 6176 H 571.233 2.99534 -5.05523 0
M  V30 6177 H 572.757 3.86737 -4.72511 0
M  V30 6178 H 574.171 1.72105 -5.46857 0
M  V30 6179 H 572.568 1.06197 -5.90629 0
M  V30 6180 H 573.638 0.12559 -4.84737 0
M  V30 6181 N 574.981 1.5647 0.188427 0
M  V30 6182 C 576.206 1.85486 0.927891 0
M  V30 6183 C 576.631 0.669575 1.75779 0
M  V30 6184 O 575.989 -0.381573 1.77239 0
M  V30 6185 C 576.037 3.12784 1.7944 0
M  V30 6186 O 575.141 2.93805 2.894 0
M  V30 6187 H 574.482 0.610585 0.260925 0
M  V30 6188 H 577.012 2.037 0.191729 0
M  V30 6189 H 577.022 3.43749 2.19774 0
M  V30 6190 H 575.697 3.98671 1.18468 0
M  V30 6191 H 574.274 2.74153 2.52774 0
M  V30 6192 O 576.498 -0.333583 1.58017 0
M  V30 6193 H 577.189 -0.982643 1.66925 0
M  V30 END ATOM
M  V30 BEGIN BOND
M  V30 END BOND
M  V30 END CTAB
M  END
$$$$
