drugbank_target|Q14626 Interleukin-11 receptor subunit alpha (DB00038)
 OpenBabel12092119313D

  0  0  0     0  0            999 V3000
M  V30 BEGIN CTAB
M  V30 COUNTS 6343 6443 0 0 0
M  V30 BEGIN ATOM
M  V30 1 H -0.908 1.98254 -0.117106 0
M  V30 2 N 0 1.576 0 0
M  V30 3 C 0.933 2.03868 1.02534 0
M  V30 4 C 1.911 0.928543 1.3348 0
M  V30 5 O 3.095 1.19667 1.45644 0
M  V30 6 C 0.222 2.43627 2.35294 0
M  V30 7 C -0.732 3.65373 2.2001 0
M  V30 8 S 0.101 5.13292 1.52614 0
M  V30 9 C 1.257 5.56322 2.86805 0
M  V30 10 H 1.49 2.90518 0.631377 0
M  V30 11 H -0.977 1.52953 0.210867 0
M  V30 12 H 0.981 2.67203 3.11629 0
M  V30 13 H -0.358 1.57376 2.7183 0
M  V30 14 H -1.165 3.90944 3.18086 0
M  V30 15 H -1.563 3.418 1.51819 0
M  V30 16 H 0.729 5.58782 3.83104 0
M  V30 17 H 1.672 6.56266 2.65933 0
M  V30 18 H 2.08 4.83886 2.90714 0
M  V30 19 N 1.4781 -0.272755 1.55222 0
M  V30 20 C 2.7031 -1.02683 1.80197 0
M  V30 21 C 3.1281 -1.79142 0.573551 0
M  V30 22 O 2.4861 -1.74917 -0.476849 0
M  V30 23 C 2.5341 -1.9609 3.02624 0
M  V30 24 O 1.6381 -3.04863 2.77727 0
M  V30 25 H 0.9791 -0.293557 0.595584 0
M  V30 26 H 3.5091 -0.30159 2.02365 0
M  V30 27 H 3.5191 -2.38039 3.31363 0
M  V30 28 H 2.1941 -1.39851 3.91682 0
M  V30 29 H 0.7711 -2.67228 2.60084 0
M  V30 30 N 2.9562 -1.48159 -0.537278 0
M  V30 31 C 4.1812 -1.59707 -1.32319 0
M  V30 32 C 4.6062 -0.254859 -1.86365 0
M  V30 33 O 3.9642 0.772378 -1.64024 0
M  V30 34 C 4.0122 -2.6412 -2.45505 0
M  V30 35 O 3.1162 -2.20774 -3.48328 0
M  V30 36 H 2.4572 -0.535791 -0.392204 0
M  V30 37 H 4.9872 -1.94092 -0.647268 0
M  V30 38 H 4.9972 -2.85166 -2.91795 0
M  V30 39 H 3.6722 -3.61567 -2.05528 0
M  V30 40 H 2.2492 -2.09911 -3.08207 0
M  V30 41 N 4.4343 0.785586 -1.36625 0
M  V30 42 C 5.6593 1.57963 -1.34397 0
M  V30 43 C 6.0843 1.87964 0.071526 0
M  V30 44 O 5.4423 1.48182 1.0446 0
M  V30 45 C 5.4903 2.87511 -2.17646 0
M  V30 46 O 4.5943 3.81281 -1.57158 0
M  V30 47 H 3.9353 0.479014 -0.459828 0
M  V30 48 H 6.4653 0.973411 -1.79961 0
M  V30 49 H 6.4753 3.36745 -2.30362 0
M  V30 50 H 5.1503 2.65002 -3.20541 0
M  V30 51 H 3.7273 3.39885 -1.53403 0
M  V30 52 N 5.9124 1.20967 1.01018 0
M  V30 53 C 7.1524 1.03511 1.76252 0
M  V30 54 C 7.5164 -0.42458 1.87247 0
M  V30 55 O 8.7174 -0.719508 2.58991 0
M  V30 56 C 6.9884 1.70726 3.13986 0
M  V30 57 S 8.5474 1.68458 4.05176 0
M  V30 58 H 5.3654 0.371037 0.606508 0
M  V30 59 H 7.9674 1.53628 1.20908 0
M  V30 60 H 6.6714 2.76128 3.03614 0
M  V30 61 H 6.2024 1.20767 3.74405 0
M  V30 62 H 8.2174 0.721987 4.90919 0
M  V30 63 N 7.3905 -1.2043 1.01659 0
M  V30 64 C 8.6155 -1.94318 0.724942 0
M  V30 65 C 9.0405 -1.74266 -0.708034 0
M  V30 66 O 8.3985 -1.03694 -1.48719 0
M  V30 67 C 8.4465 -3.44486 1.06591 0
M  V30 68 O 7.5505 -4.12017 0.177599 0
M  V30 69 H 6.8915 -0.60708 0.26898 0
M  V30 70 H 9.4215 -1.52861 1.35995 0
M  V30 71 H 9.4315 -3.95106 1.01762 0
M  V30 72 H 8.1065 -3.58404 2.10997 0
M  V30 73 H 6.6835 -3.71821 0.283421 0
M  V30 74 N 8.8686 -0.792821 -1.36206 0
M  V30 75 C 10.1166 -0.366062 -1.98757 0
M  V30 76 C 10.4376 1.0668 -1.63231 0
M  V30 77 O 9.7076 1.73587 -0.907978 0
M  V30 78 H 8.2876 -0.132364 -0.735179 0
M  V30 79 H 10.9496 -1.01562 -1.66347 0
M  V30 80 H 10.0456 -0.460638 -3.08682 0
M  V30 81 N 10.3467 1.47872 -0.545128 0
M  V30 82 C 11.2767 2.32661 0.197793 0
M  V30 83 C 12.2577 1.43041 0.920504 0
M  V30 84 O 13.4427 1.71912 0.90333 0
M  V30 85 C 10.5727 3.24569 1.23582 0
M  V30 86 C 9.5267 4.23333 0.630323 0
M  V30 87 C 8.8527 5.0448 1.77211 0
M  V30 88 C 10.1527 5.20704 -0.407974 0
M  V30 89 H 11.8467 2.95024 -0.510045 0
M  V30 90 H 9.3927 1.4187 -0.246731 0
M  V30 91 H 11.3457 3.8272 1.76362 0
M  V30 92 H 10.0697 2.60236 1.97344 0
M  V30 93 H 8.7287 3.6639 0.123922 0
M  V30 94 H 8.3767 4.36561 2.49847 0
M  V30 95 H 8.0767 5.71339 1.37281 0
M  V30 96 H 9.6007 5.65487 2.3034 0
M  V30 97 H 11.0147 5.7329 0.033305 0
M  V30 98 H 9.4117 5.95699 -0.725486 0
M  V30 99 H 10.4817 4.66917 -1.30828 0
M  V30 100 N 11.8248 0.280983 1.55075 0
M  V30 101 C 13.0498 -0.340154 2.04592 0
M  V30 102 C 13.4748 -1.48246 1.15779 0
M  V30 103 O 12.8328 -1.80614 0.15761 0
M  V30 104 C 12.8808 -0.793104 3.5177 0
M  V30 105 O 11.9848 -1.89981 3.66034 0
M  V30 106 H 11.3258 -0.0694289 0.66036 0
M  V30 107 H 13.8558 0.416993 2.00306 0
M  V30 108 H 13.8658 -1.08729 3.93245 0
M  V30 109 H 12.5408 0.0426163 4.15878 0
M  V30 110 H 11.1178 -1.60771 3.36463 0
M  V30 111 N 13.3029 -1.57598 0.00835791 0
M  V30 112 C 14.7189 -1.55764 -0.347822 0
M  V30 113 C 14.9189 -1.01186 -1.74252 0
M  V30 114 O 13.9749 -0.649371 -2.44007 0
M  V30 115 C 15.2879 -2.99927 -0.215407 0
M  V30 116 C 16.8359 -3.11656 -0.289725 0
M  V30 117 C 17.3109 -4.57621 -0.18634 0
M  V30 118 N 18.8019 -4.62557 -0.243978 0
M  V30 119 C 19.5369 -5.73094 -0.18745 0
M  V30 120 N 19.0329 -6.92753 -0.0810331 0
M  V30 121 N 20.8259 -5.61588 -0.239925 0
M  V30 122 H 12.9769 -1.91411 0.92062 0
M  V30 123 H 15.2399 -0.879562 0.353659 0
M  V30 124 H 14.9459 -3.43729 0.744512 0
M  V30 125 H 14.8199 -3.63865 -0.994097 0
M  V30 126 H 17.2069 -2.67779 -1.24009 0
M  V30 127 H 17.2879 -2.5048 0.51898 0
M  V30 128 H 16.9319 -5.02174 0.760519 0
M  V30 129 H 16.8619 -5.16752 -1.01364 0
M  V30 130 H 19.3529 -3.76481 -0.327217 0
M  V30 131 H 19.6659 -7.72787 -0.0440241 0
M  V30 132 H 18.0109 -6.94984 -0.0465419 0
M  V30 133 H 21.2019 -4.66996 -0.321317 0
M  V30 134 H 21.3749 -6.47714 -0.192407 0
M  V30 135 N 14.781 0.264519 -1.55364 0
M  V30 136 C 16.027 0.99646 -1.76631 0
M  V30 137 C 16.36 1.85632 -0.570478 0
M  V30 138 O 15.635 1.89647 0.43175 0
M  V30 139 C 15.918 1.87187 -3.07625 0
M  V30 140 C 15.771 1.04138 -4.37579 0
M  V30 141 C 17.09 2.85749 -3.34717 0
M  V30 142 H 14.209 0.360841 -0.642622 0
M  V30 143 H 16.851 0.268218 -1.88097 0
M  V30 144 H 15.001 2.49279 -2.9798 0
M  V30 145 H 16.673 0.440517 -4.59192 0
M  V30 146 H 14.916 0.345115 -4.32425 0
M  V30 147 H 15.587 1.68729 -5.2558 0
M  V30 148 H 18.063 2.33793 -3.4421 0
M  V30 149 H 16.939 3.44136 -4.27623 0
M  V30 150 H 17.2 3.61311 -2.54768 0
M  V30 151 N 16.2591 1.48442 0.529413 0
M  V30 152 C 17.1891 1.65902 1.64313 0
M  V30 153 C 18.1701 0.507897 1.6234 0
M  V30 154 O 19.3551 0.740503 1.79528 0
M  V30 155 C 16.4851 1.69911 3.02898 0
M  V30 156 C 15.4391 2.8453 3.19729 0
M  V30 157 C 14.7651 2.73629 4.59381 0
M  V30 158 C 16.0651 4.25821 3.02447 0
M  V30 159 H 17.7591 2.5914 1.49955 0
M  V30 160 H 15.3051 1.24709 0.719982 0
M  V30 161 H 17.2581 1.80715 3.80684 0
M  V30 162 H 15.9821 0.732524 3.18279 0
M  V30 163 H 14.6411 2.73283 2.44361 0
M  V30 164 H 14.2891 1.74938 4.71599 0
M  V30 165 H 13.9891 3.50541 4.71588 0
M  V30 166 H 15.5131 2.86401 5.39265 0
M  V30 167 H 16.9271 4.37898 3.70024 0
M  V30 168 H 15.3241 5.03735 3.26146 0
M  V30 169 H 16.3941 4.42244 1.98867 0
M  V30 170 N 17.7372 -0.778329 1.37039 0
M  V30 171 C 18.9832 -1.53892 1.32079 0
M  V30 172 C 19.3162 -1.9396 -0.0965386 0
M  V30 173 O 18.5912 -1.63568 -1.05242 0
M  V30 174 C 18.8742 -2.80847 2.25382 0
M  V30 175 C 18.7272 -2.47076 3.75864 0
M  V30 176 C 20.0462 -3.82741 2.1725 0
M  V30 177 H 17.1652 -0.558303 0.48111 0
M  V30 178 H 19.8072 -0.893397 1.67685 0
M  V30 179 H 17.9572 -3.35931 1.95148 0
M  V30 180 H 19.6292 -1.97957 4.16666 0
M  V30 181 H 17.8722 -1.79863 3.94755 0
M  V30 182 H 18.5432 -3.37798 4.36574 0
M  V30 183 H 21.0192 -3.37133 2.43887 0
M  V30 184 H 19.8952 -4.69303 2.84686 0
M  V30 185 H 20.1562 -4.2652 1.16331 0
M  V30 186 N 19.2153 -1.21501 -1.00376 0
M  V30 187 C 20.1783 -0.976927 -2.07337 0
M  V30 188 C 21.1783 0.0525322 -1.60714 0
M  V30 189 O 22.3683 -0.184869 -1.73216 0
M  V30 190 C 19.5003 -0.473423 -3.37597 0
M  V30 191 H 20.6933 -1.92587 -2.29892 0
M  V30 192 H 18.2463 -1.03217 -1.17371 0
M  V30 193 H 18.9813 0.480379 -3.20722 0
M  V30 194 H 18.7663 -1.216 -3.72768 0
M  V30 195 H 20.2563 -0.32675 -4.1632 0
M  V30 196 N 20.6934 1.19889 -1.02296 0
M  V30 197 C 21.9394 1.89701 -0.717033 0
M  V30 198 C 22.2724 1.7905 0.751989 0
M  V30 199 O 21.5474 1.17891 1.547 0
M  V30 200 C 21.8304 3.40858 -1.16136 0
M  V30 201 C 21.6834 3.60411 -2.69117 0
M  V30 202 C 23.0024 4.33876 -0.737549 0
M  V30 203 H 20.1214 0.688874 -0.261957 0
M  V30 204 H 22.7634 1.41154 -1.27183 0
M  V30 205 H 20.9134 3.82335 -0.689342 0
M  V30 206 H 22.5854 3.28145 -3.2422 0
M  V30 207 H 20.8284 3.03665 -3.0979 0
M  V30 208 H 21.4994 4.66396 -2.95261 0
M  V30 209 H 23.9754 4.00081 -1.14344 0
M  V30 210 H 22.8514 5.38242 -1.0764 0
M  V30 211 H 23.1124 4.40628 0.360436 0
M  V30 212 N 22.1715 0.800033 1.35784 0
M  V30 213 C 23.1345 0.211565 2.28221 0
M  V30 214 C 24.1345 -0.59728 1.49296 0
M  V30 215 O 25.3245 -0.416721 1.69142 0
M  V30 216 C 22.4565 -0.705846 3.33513 0
M  V30 217 H 23.6495 1.02677 2.81776 0
M  V30 218 H 21.2025 0.570211 1.45528 0
M  V30 219 H 21.9375 -1.54498 2.85133 0
M  V30 220 H 21.7225 -0.127655 3.91892 0
M  V30 221 H 23.2125 -1.11211 4.02519 0
M  V30 222 N 23.6496 -1.47581 0.552962 0
M  V30 223 C 24.8776 -2.06875 0.0320556 0
M  V30 224 C 25.2926 -1.40625 -1.25976 0
M  V30 225 O 24.6496 -0.501349 -1.75479 0
M  V30 226 C 24.7006 -3.61092 -0.17167 0
M  V30 227 O 24.4216 -4.24858 1.06899 0
M  V30 228 C 25.9226 -4.37242 -0.730344 0
M  V30 229 H 23.1426 -0.669561 0.043915 0
M  V30 230 H 25.6866 -1.89646 0.765163 0
M  V30 231 H 23.8416 -3.7785 -0.854894 0
M  V30 232 H 24.2556 -5.17334 0.864059 0
M  V30 233 H 25.7296 -5.45842 -0.822203 0
M  V30 234 H 26.2066 -4.03235 -1.74064 0
M  V30 235 H 26.8126 -4.25219 -0.0829543 0
M  V30 236 N 25.1277 -0.289203 -1.54924 0
M  V30 237 C 26.0907 0.579144 -2.21762 0
M  V30 238 C 27.0907 1.07047 -1.1999 0
M  V30 239 O 28.2807 0.968384 -1.44803 0
M  V30 240 C 25.4127 1.80055 -2.8947 0
M  V30 241 H 26.6057 -0.00464908 -2.999 0
M  V30 242 H 24.1587 -0.0399306 -1.56249 0
M  V30 243 H 24.8937 2.42449 -2.15381 0
M  V30 244 H 24.6787 1.45602 -3.64064 0
M  V30 245 H 26.1687 2.41773 -3.40493 0
M  V30 246 N 26.6058 1.57591 -0.0167156 0
M  V30 247 C 27.5358 2.12496 0.967858 0
M  V30 248 C 28.5168 1.03807 1.34752 0
M  V30 249 O 29.7018 1.31577 1.42833 0
M  V30 250 C 26.8318 2.64194 2.25431 0
M  V30 251 C 25.7858 3.77559 2.01576 0
M  V30 252 C 25.1118 4.15636 3.36379 0
M  V30 253 C 26.4118 5.04151 1.36489 0
M  V30 254 H 28.1058 2.95013 0.510643 0
M  V30 255 H 25.6518 1.41915 0.244181 0
M  V30 256 H 27.6048 3.01236 2.94678 0
M  V30 257 H 26.3288 1.78821 2.73296 0
M  V30 258 H 24.9878 3.40937 1.34751 0
M  V30 259 H 24.6358 3.27263 3.81979 0
M  V30 260 H 24.3358 4.92022 3.21229 0
M  V30 261 H 25.8598 4.5525 4.06915 0
M  V30 262 H 27.2738 5.38857 1.95718 0
M  V30 263 H 25.6708 5.85453 1.31776 0
M  V30 264 H 26.7408 4.83733 0.336219 0
M  V30 265 N 28.0839 -0.256276 1.55502 0
M  V30 266 C 29.3299 -0.987079 1.77157 0
M  V30 267 C 29.6629 -1.85327 0.580315 0
M  V30 268 O 28.9379 -1.89874 -0.421686 0
M  V30 269 C 29.2209 -1.85553 3.08613 0
M  V30 270 C 29.0739 -1.01816 4.38125 0
M  V30 271 C 30.3929 -2.8397 3.36228 0
M  V30 272 H 27.5119 -0.357428 0.644526 0
M  V30 273 H 30.1539 -0.258239 1.88237 0
M  V30 274 H 28.3039 -2.47695 2.99298 0
M  V30 275 H 29.9759 -0.416159 4.59419 0
M  V30 276 H 28.2189 -0.322178 4.32602 0
M  V30 277 H 28.8899 -1.65939 5.26468 0
M  V30 278 H 31.3659 -2.31964 3.45445 0
M  V30 279 H 30.2419 -3.41864 4.29442 0
M  V30 280 H 30.5029 -3.59955 2.56681 0
M  V30 281 N 29.562 -1.4872 -0.521534 0
M  V30 282 C 30.787 -1.61101 -1.30618 0
M  V30 283 C 31.212 -0.274611 -1.86085 0
M  V30 284 O 30.57 0.754937 -1.64834 0
M  V30 285 C 30.618 -2.66709 -2.4269 0
M  V30 286 O 29.722 -2.24456 -3.45967 0
M  V30 287 H 29.063 -0.539921 -0.386499 0
M  V30 288 H 31.593 -1.94767 -0.626645 0
M  V30 289 H 31.603 -2.88245 -2.88754 0
M  V30 290 H 30.278 -3.63727 -2.01682 0
M  V30 291 H 28.855 -2.13168 -3.05964 0
M  V30 292 N 31.0401 0.771051 -1.3745 0
M  V30 293 C 32.0031 1.86598 -1.33093 0
M  V30 294 C 33.0031 1.59076 -0.234845 0
M  V30 295 O 34.1931 1.67145 -0.490732 0
M  V30 296 C 31.3251 3.23747 -1.06773 0
M  V30 297 H 32.5181 1.91873 -2.30488 0
M  V30 298 H 30.0711 0.970876 -1.2249 0
M  V30 299 H 30.8061 3.24148 -0.099129 0
M  V30 300 H 30.5911 3.45115 -1.86112 0
M  V30 301 H 32.0811 4.03824 -1.06377 0
M  V30 302 N 32.5182 1.22032 0.997298 0
M  V30 303 C 33.7432 1.06921 1.77715 0
M  V30 304 C 34.1682 -0.376226 1.84299 0
M  V30 305 O 33.5262 -1.27165 1.29223 0
M  V30 306 C 33.5742 1.67996 3.19076 0
M  V30 307 O 32.6782 0.930653 4.01762 0
M  V30 308 H 32.0192 0.375814 0.547412 0
M  V30 309 H 34.5492 1.61737 1.25309 0
M  V30 310 H 34.5592 1.72538 3.69723 0
M  V30 311 H 33.2342 2.73182 3.13599 0
M  V30 312 H 31.8112 0.960917 3.60307 0
M  V30 313 N 33.9963 -1.19345 1.0293 0
M  V30 314 C 35.2213 -1.93538 0.745511 0
M  V30 315 C 35.6463 -1.75007 -0.689511 0
M  V30 316 O 35.0043 -1.05265 -1.47611 0
M  V30 317 C 35.0523 -3.43336 1.10239 0
M  V30 318 O 34.1563 -4.11806 0.221289 0
M  V30 319 H 33.4973 -0.604193 0.275404 0
M  V30 320 H 36.0273 -1.5141 1.37609 0
M  V30 321 H 36.0373 -3.94004 1.05947 0
M  V30 322 H 34.7123 -3.56146 2.14786 0
M  V30 323 H 33.2893 -3.715 0.322842 0
M  V30 324 N 35.4744 -0.807222 -1.35358 0
M  V30 325 C 36.8854 -0.44876 -1.81226 0
M  V30 326 C 37.2364 1.02929 -1.67033 0
M  V30 327 O 36.3614 1.79991 -1.20133 0
M  V30 328 C 36.9564 -0.807774 -3.2903 0
M  V30 329 C 35.5154 -0.501901 -3.73039 0
M  V30 330 C 34.6624 -1.03304 -2.57339 0
M  V30 331 H 37.6134 -0.998808 -1.23327 0
M  V30 332 H 37.6344 -0.10554 -3.80354 0
M  V30 333 H 37.1464 -1.88357 -3.39328 0
M  V30 334 H 35.2474 0.565128 -3.68289 0
M  V30 335 H 35.3604 -1.03497 -4.67787 0
M  V30 336 H 33.7244 -0.455339 -2.50597 0
M  V30 337 H 34.5074 -2.11496 -2.70415 0
M  V30 338 N 36.9525 1.47285 -0.560781 0
M  V30 339 C 38.1925 2.0436 -0.0404627 0
M  V30 340 C 38.5565 1.42534 1.28639 0
M  V30 341 O 39.7575 1.90677 1.89462 0
M  V30 342 C 38.0285 3.57369 0.0471856 0
M  V30 343 S 39.5875 4.3579 0.513109 0
M  V30 344 H 36.4055 0.710492 -0.0268674 0
M  V30 345 H 39.0075 1.80611 -0.748323 0
M  V30 346 H 37.7115 3.9989 -0.922817 0
M  V30 347 H 37.2425 3.8562 0.778491 0
M  V30 348 H 39.2575 4.63476 1.77212 0
M  V30 349 N 38.4306 0.297415 1.54768 0
M  V30 350 C 39.8416 -0.195947 1.85669 0
M  V30 351 C 40.1926 -1.53707 1.21937 0
M  V30 352 O 39.3176 -2.10164 0.515754 0
M  V30 353 C 39.9126 -0.362318 3.36857 0
M  V30 354 C 38.4716 -0.799901 3.67802 0
M  V30 355 C 37.6186 0.0938578 2.77141 0
M  V30 356 H 40.5696 0.518538 1.4999 0
M  V30 357 H 40.5906 -1.19745 3.61167 0
M  V30 358 H 40.1026 0.613921 3.83214 0
M  V30 359 H 38.2036 -1.78682 3.26961 0
M  V30 360 H 38.3166 -0.621773 4.75048 0
M  V30 361 H 36.6806 -0.426254 2.51108 0
M  V30 362 H 37.4636 1.06639 3.26318 0
M  V30 363 N 39.9087 -1.5758 0.0250728 0
M  V30 364 C 40.8407 -2.06869 -0.986796 0
M  V30 365 C 41.8537 -0.991332 -1.29137 0
M  V30 366 O 43.0427 -1.26761 -1.25674 0
M  V30 367 C 40.1427 -2.47486 -2.31525 0
M  V30 368 C 39.3157 -3.78253 -2.19643 0
M  V30 369 C 38.3747 -4.05464 -3.35388 0
M  V30 370 O 37.4007 -4.75774 -3.12454 0
M  V30 371 N 38.6027 -3.55321 -4.59051 0
M  V30 372 H 41.3677 -2.94302 -0.566276 0
M  V30 373 H 38.9287 -1.6109 -0.161776 0
M  V30 374 H 40.9207 -2.62785 -3.07776 0
M  V30 375 H 39.4907 -1.65441 -2.65232 0
M  V30 376 H 38.7107 -3.7279 -1.28144 0
M  V30 377 H 39.9987 -4.63936 -2.08903 0
M  V30 378 H 39.3967 -2.98431 -4.80578 0
M  V30 379 H 37.9537 -3.75905 -5.32483 0
M  V30 380 N 41.3868 0.248026 -1.55636 0
M  V30 381 C 42.3498 1.29044 -1.89421 0
M  V30 382 C 43.3498 1.41134 -0.770581 0
M  V30 383 O 44.5398 1.39854 -1.03858 0
M  V30 384 C 41.6718 2.66831 -2.12165 0
M  V30 385 H 42.8648 1.00305 -2.82629 0
M  V30 386 H 40.4178 0.487265 -1.48511 0
M  V30 387 H 41.1528 3.00711 -1.21422 0
M  V30 388 H 40.9378 2.59438 -2.93997 0
M  V30 389 H 42.4278 3.42103 -2.3949 0
M  V30 390 N 42.8649 1.48995 0.513639 0
M  V30 391 C 44.1109 1.59053 1.26783 0
M  V30 392 C 44.4659 0.268136 1.90522 0
M  V30 393 O 43.7589 -0.730534 1.77126 0
M  V30 394 C 43.9529 2.67756 2.36731 0
M  V30 395 C 43.7819 4.10437 1.83771 0
M  V30 396 C 42.5519 4.7738 1.65639 0
M  V30 397 C 44.7499 4.9608 1.35681 0
M  V30 398 N 42.7319 6.04419 1.07476 0
M  V30 399 C 44.1029 6.13496 0.895715 0
M  V30 400 C 46.1579 4.82177 1.24136 0
M  V30 401 C 44.8609 7.1854 0.3306 0
M  V30 402 C 46.8869 5.87358 0.690229 0
M  V30 403 C 46.2489 7.03993 0.239292 0
M  V30 404 H 42.3479 0.636463 0.454355 0
M  V30 405 H 44.9319 1.85948 0.577196 0
M  V30 406 H 43.1029 2.42655 3.03271 0
M  V30 407 H 44.8349 2.67406 3.0377 0
M  V30 408 H 41.5899 4.33974 1.8964 0
M  V30 409 H 42.0139 6.72214 0.803579 0
M  V30 410 H 46.6559 3.92329 1.57601 0
M  V30 411 H 44.3739 8.08098 -0.0163435 0
M  V30 412 H 47.9599 5.78658 0.603852 0
M  V30 413 H 46.8399 7.83992 -0.180526 0
M  V30 414 N 44.343 -0.763751 1.37857 0
M  V30 415 C 45.591 -1.51957 1.33243 0
M  V30 416 C 45.912 -1.94835 -0.0801709 0
M  V30 417 O 45.182 -1.66894 -1.02582 0
M  V30 418 H 43.762 -0.563626 0.49024 0
M  V30 419 H 46.424 -0.908504 1.7243 0
M  V30 420 H 45.52 -2.41523 1.97669 0
M  V30 421 N 45.8211 -1.22559 -0.990812 0
M  V30 422 C 47.2321 -1.04791 -1.54518 0
M  V30 423 C 47.5831 0.387998 -1.92325 0
M  V30 424 O 46.7081 1.27328 -1.74976 0
M  V30 425 C 47.3031 -1.896 -2.80779 0
M  V30 426 C 45.8621 -1.76124 -3.32652 0
M  V30 427 C 45.0091 -1.8594 -2.05722 0
M  V30 428 H 47.9601 -1.36374 -0.811662 0
M  V30 429 H 47.9811 -1.41464 -3.53225 0
M  V30 430 H 47.4931 -2.94101 -2.53231 0
M  V30 431 H 45.5941 -0.743643 -3.65104 0
M  V30 432 H 45.7071 -2.58913 -4.03114 0
M  V30 433 H 44.0711 -1.29403 -2.19379 0
M  V30 434 H 44.8541 -2.91976 -1.80568 0
M  V30 435 N 47.2992 1.18797 -1.03562 0
M  V30 436 C 48.7102 1.70322 -0.764676 0
M  V30 437 C 49.0612 1.82708 0.714996 0
M  V30 438 O 48.1862 1.50299 1.55689 0
M  V30 439 C 48.7812 3.09356 -1.38145 0
M  V30 440 C 47.3402 3.58114 -1.15895 0
M  V30 441 C 46.4872 2.34798 -1.4753 0
M  V30 442 H 49.4382 1.03543 -1.20268 0
M  V30 443 H 49.4592 3.72378 -0.781977 0
M  V30 444 H 48.9712 3.00309 -2.45837 0
M  V30 445 H 47.0722 3.72464 -0.100544 0
M  V30 446 H 47.1852 4.4184 -1.8524 0
M  V30 447 H 45.5492 2.38464 -0.894829 0
M  V30 448 H 46.3322 2.28375 -2.56319 0
M  V30 449 N 48.7773 0.814389 1.34928 0
M  V30 450 C 50.0253 0.397636 1.9815 0
M  V30 451 C 50.3463 -1.04069 1.64908 0
M  V30 452 O 49.6163 -1.72121 0.93548 0
M  V30 453 H 48.1963 0.144043 0.732981 0
M  V30 454 H 50.8583 1.04195 1.6471 0
M  V30 455 H 49.9543 0.509688 3.0791 0
M  V30 456 N 50.2554 -1.46986 0.568584 0
M  V30 457 C 51.5014 -2.02741 0.0488709 0
M  V30 458 C 51.8344 -1.44077 -1.30214 0
M  V30 459 O 51.1094 -0.600552 -1.84996 0
M  V30 460 C 51.3924 -3.60086 -0.032047 0
M  V30 461 C 51.2454 -4.29162 1.34686 0
M  V30 462 C 52.5644 -4.33838 -0.739798 0
M  V30 463 H 49.6834 -0.736749 0.0192338 0
M  V30 464 H 52.3254 -1.75289 0.733065 0
M  V30 465 H 50.4754 -3.83606 -0.61473 0
M  V30 466 H 52.1474 -4.16948 1.97362 0
M  V30 467 H 50.3904 -3.89073 1.91846 0
M  V30 468 H 51.0614 -5.37826 1.24285 0
M  V30 469 H 53.5374 -4.15378 -0.244939 0
M  V30 470 H 52.4134 -5.43537 -0.765406 0
M  V30 471 H 52.6744 -4.03875 -1.79827 0
M  V30 472 N 51.7335 -0.305618 -1.54608 0
M  V30 473 C 52.6655 0.602161 -2.21149 0
M  V30 474 C 53.6785 1.09394 -1.20569 0
M  V30 475 O 54.8675 1.0106 -1.47136 0
M  V30 476 C 51.9675 1.83692 -2.84799 0
M  V30 477 C 51.1405 1.48686 -4.11353 0
M  V30 478 C 50.1995 2.57725 -4.58764 0
M  V30 479 O 49.2255 2.22623 -5.23858 0
M  V30 480 N 50.4275 3.88346 -4.31471 0
M  V30 481 H 53.1925 0.0324966 -2.99682 0
M  V30 482 H 50.7535 -0.128021 -1.61393 0
M  V30 483 H 52.7455 2.55994 -3.13448 0
M  V30 484 H 51.3155 2.31486 -2.10078 0
M  V30 485 H 50.5355 0.596269 -3.89664 0
M  V30 486 H 51.8235 1.22842 -4.93748 0
M  V30 487 H 51.2215 4.19671 -3.79331 0
M  V30 488 H 49.7785 4.56932 -4.64818 0
M  V30 489 N 53.2116 1.57565 -0.0334293 0
M  V30 490 C 54.4416 1.95996 0.653398 0
M  V30 491 C 54.8496 0.908749 1.65947 0
M  V30 492 O 54.1926 -0.117471 1.83324 0
M  V30 493 C 54.2546 3.30589 1.41249 0
M  V30 494 C 53.9186 4.53503 0.564263 0
M  V30 495 C 54.9156 5.19647 -0.16225 0
M  V30 496 C 52.6006 4.99801 0.500398 0
M  V30 497 C 54.5946 6.30412 -0.941255 0
M  V30 498 C 52.2816 6.10448 -0.282308 0
M  V30 499 C 53.2796 6.75612 -1.00184 0
M  V30 500 O 52.9676 7.84134 -1.77171 0
M  V30 501 H 52.6996 0.65027 0.184728 0
M  V30 502 H 55.2536 2.05199 -0.0907841 0
M  V30 503 H 53.4836 3.17888 2.20191 0
M  V30 504 H 55.1726 3.53892 1.98784 0
M  V30 505 H 55.9386 4.84846 -0.12227 0
M  V30 506 H 51.8176 4.48883 1.05002 0
M  V30 507 H 55.3616 6.81208 -1.50339 0
M  V30 508 H 51.2586 6.44686 -0.323989 0
M  V30 509 H 52.0266 8.00822 -1.69194 0
M  V30 510 N 54.6897 -0.239769 1.55765 0
M  V30 511 C 55.9377 -0.964892 1.77579 0
M  V30 512 C 56.2587 -1.85582 0.598699 0
M  V30 513 O 55.5287 -1.92075 -0.385226 0
M  V30 514 H 54.1087 -0.359265 0.654933 0
M  V30 515 H 56.7707 -0.256001 1.93211 0
M  V30 516 H 55.8667 -1.58243 2.69009 0
M  V30 517 N 56.1678 -1.49265 -0.50573 0
M  V30 518 C 57.0998 -1.617 -1.62437 0
M  V30 519 C 58.1128 -0.499924 -1.54934 0
M  V30 520 O 59.3018 -0.771785 -1.60953 0
M  V30 521 C 56.4018 -1.5533 -3.01207 0
M  V30 522 C 55.5748 -2.8249 -3.33943 0
M  V30 523 C 54.6338 -2.69238 -4.52103 0
M  V30 524 O 53.6598 -3.43167 -4.5412 0
M  V30 525 N 54.8618 -1.80468 -5.51735 0
M  V30 526 H 57.6268 -2.58177 -1.52199 0
M  V30 527 H 55.1878 -1.46294 -0.693511 0
M  V30 528 H 57.1798 -1.44125 -3.78167 0
M  V30 529 H 55.7498 -0.667297 -3.05395 0
M  V30 530 H 54.9698 -3.08081 -2.45926 0
M  V30 531 H 56.2578 -3.66802 -3.5261 0
M  V30 532 H 55.6558 -1.19653 -5.52901 0
M  V30 533 H 54.2128 -1.75188 -6.27816 0
M  V30 534 N 57.6459 0.756429 -1.3826 0
M  V30 535 C 59.0569 1.33359 -1.30661 0
M  V30 536 C 59.4079 1.96161 0.0388875 0
M  V30 537 O 58.5329 1.94874 0.940918 0
M  V30 538 C 59.1279 2.42477 -2.36622 0
M  V30 539 C 57.6869 2.95922 -2.3261 0
M  V30 540 C 56.8339 1.69275 -2.19639 0
M  V30 541 H 59.7849 0.55552 -1.4866 0
M  V30 542 H 59.8059 3.22345 -2.02174 0
M  V30 543 H 59.3179 1.96739 -3.34538 0
M  V30 544 H 57.4189 3.45996 -1.38267 0
M  V30 545 H 57.5319 3.50494 -3.26636 0
M  V30 546 H 55.8959 1.92793 -1.66442 0
M  V30 547 H 56.6789 1.25619 -3.19491 0
M  V30 548 N 59.124 1.23083 0.984299 0
M  V30 549 C 60.372 1.05848 1.72165 0
M  V30 550 C 60.693 -0.406049 1.90726 0
M  V30 551 O 59.963 -1.29139 1.47309 0
M  V30 552 H 58.543 0.388685 0.637913 0
M  V30 553 H 61.205 1.54736 1.18503 0
M  V30 554 H 60.301 1.54327 2.71274 0
M  V30 555 N 60.6021 -1.18246 1.0419 0
M  V30 556 C 62.0181 -1.40269 0.761366 0
M  V30 557 C 62.2181 -1.90777 -0.648578 0
M  V30 558 O 61.2741 -2.0929 -1.41258 0
M  V30 559 C 62.5871 -2.40237 1.8085 0
M  V30 560 C 64.1351 -2.53961 1.82955 0
M  V30 561 C 64.6101 -3.57194 2.86664 0
M  V30 562 N 66.1011 -3.64702 2.85563 0
M  V30 563 C 66.8361 -4.44309 3.6246 0
M  V30 564 N 66.3321 -5.27514 4.49111 0
M  V30 565 N 68.1251 -4.39084 3.50944 0
M  V30 566 H 60.2761 -0.837882 1.95175 0
M  V30 567 H 62.5391 -0.430608 0.84456 0
M  V30 568 H 62.2451 -2.10176 2.81991 0
M  V30 569 H 62.1191 -3.39601 1.64168 0
M  V30 570 H 64.5061 -2.83338 0.824855 0
M  V30 571 H 64.5871 -1.54706 2.03715 0
M  V30 572 H 64.2311 -3.28558 3.87314 0
M  V30 573 H 64.1611 -4.5613 2.6316 0
M  V30 574 H 66.6521 -3.05289 2.22727 0
M  V30 575 H 66.9651 -5.85411 5.04493 0
M  V30 576 H 65.3101 -5.2693 4.53178 0
M  V30 577 H 68.5011 -3.7313 2.82651 0
M  V30 578 H 68.6741 -5.00883 4.11121 0
M  V30 579 N 62.0802 -0.821533 -1.34494 0
M  V30 580 C 63.3052 -0.420873 -2.03085 0
M  V30 581 C 63.7302 0.964915 -1.61465 0
M  V30 582 O 63.0882 1.62763 -0.798607 0
M  V30 583 C 63.1362 -0.529414 -3.56693 0
M  V30 584 O 62.2402 0.451302 -4.09923 0
M  V30 585 H 61.5812 -0.173489 -0.640935 0
M  V30 586 H 64.1112 -1.11157 -1.71771 0
M  V30 587 H 64.1212 -0.404671 -4.05988 0
M  V30 588 H 62.7962 -1.54014 -3.86332 0
M  V30 589 H 61.3732 0.285558 -3.71805 0
M  V30 590 N 63.5583 1.46682 -0.576371 0
M  V30 591 C 64.8043 2.02712 -0.0596221 0
M  V30 592 C 65.1373 1.44765 1.29448 0
M  V30 593 O 64.4123 0.610355 1.84675 0
M  V30 594 C 64.6953 3.60098 0.0129503 0
M  V30 595 C 64.5483 4.28441 -1.3696 0
M  V30 596 C 65.8673 4.34224 0.71678 0
M  V30 597 H 62.9863 0.736637 -0.0231407 0
M  V30 598 H 65.6283 1.74898 -0.742351 0
M  V30 599 H 63.7783 3.83926 0.594378 0
M  V30 600 H 65.4503 4.15896 -1.9957 0
M  V30 601 H 63.6933 3.8805 -1.93907 0
M  V30 602 H 64.3643 5.3716 -1.27135 0
M  V30 603 H 66.8403 4.15503 0.222908 0
M  V30 604 H 65.7163 5.43936 0.73657 0
M  V30 605 H 65.9773 4.04823 1.77682 0
M  V30 606 N 65.0364 0.313813 1.54444 0
M  V30 607 C 65.9834 -0.55655 2.23989 0
M  V30 608 C 66.9534 -1.11943 1.22711 0
M  V30 609 O 68.1384 -1.16158 1.51367 0
M  V30 610 C 65.2784 -1.71635 2.99392 0
M  V30 611 C 64.3914 -1.18364 4.15468 0
M  V30 612 C 63.5264 -2.30834 4.78424 0
M  V30 613 C 62.5654 -1.74762 5.86622 0
M  V30 614 N 61.7024 -2.80855 6.43479 0
M  V30 615 H 66.5424 0.0430893 2.97969 0
M  V30 616 H 64.0794 0.0330359 1.47063 0
M  V30 617 H 66.0374 -2.39868 3.41349 0
M  V30 618 H 64.6674 -2.28742 2.27765 0
M  V30 619 H 63.7194 -0.393163 3.78363 0
M  V30 620 H 65.0314 -0.733262 4.93381 0
M  V30 621 H 64.1854 -3.0699 5.23299 0
M  V30 622 H 62.9244 -2.79204 3.99871 0
M  V30 623 H 61.9294 -0.970995 5.41158 0
M  V30 624 H 63.1544 -1.2728 6.67066 0
M  V30 625 H 61.1004 -3.28535 5.67804 0
M  V30 626 H 61.0174 -2.40351 7.16776 0
M  V30 627 H 62.2854 -3.5687 6.93011 0
M  V30 628 N 66.5145 -1.57545 0.0417849 0
M  V30 629 C 67.4445 -2.14009 -0.933929 0
M  V30 630 C 68.4255 -1.05938 -1.33083 0
M  V30 631 O 69.6105 -1.33833 -1.40721 0
M  V30 632 C 66.7405 -2.67747 -2.21199 0
M  V30 633 C 65.6945 -3.80718 -1.95544 0
M  V30 634 C 65.0205 -4.20935 -3.29724 0
M  V30 635 C 66.3205 -5.06258 -1.28452 0
M  V30 636 H 68.0145 -2.95788 -0.463645 0
M  V30 637 H 65.5605 -1.42285 -0.221573 0
M  V30 638 H 67.5135 -3.05886 -2.89848 0
M  V30 639 H 66.2375 -1.83147 -2.70416 0
M  V30 640 H 64.8965 -3.43037 -1.2931 0
M  V30 641 H 64.5445 -3.33298 -3.76724 0
M  V30 642 H 64.2445 -4.9707 -3.13361 0
M  V30 643 H 65.7685 -4.61666 -3.9962 0
M  V30 644 H 67.1825 -5.41903 -1.8712 0
M  V30 645 H 65.5795 -5.87475 -1.22445 0
M  V30 646 H 66.6495 -4.84207 -0.259219 0
M  V30 647 N 67.9926 0.231505 -1.5589 0
M  V30 648 C 69.2326 0.964533 -1.80211 0
M  V30 649 C 69.5966 1.81926 -0.613744 0
M  V30 650 O 70.7976 2.58526 -0.736045 0
M  V30 651 C 69.0686 1.78956 -3.09369 0
M  V30 652 S 70.6276 2.57959 -3.54969 0
M  V30 653 H 67.4456 0.324173 -0.632798 0
M  V30 654 H 70.0476 0.230985 -1.94131 0
M  V30 655 H 68.7516 1.15161 -3.93911 0
M  V30 656 H 68.2826 2.56559 -2.9823 0
M  V30 657 H 70.2976 3.81309 -3.17519 0
M  V30 658 N 69.4707 1.49531 0.497807 0
M  V30 659 C 70.7107 1.60799 1.26187 0
M  V30 660 C 71.0747 0.289627 1.89803 0
M  V30 661 O 72.2757 0.277512 2.67364 0
M  V30 662 C 70.5467 2.73729 2.29798 0
M  V30 663 S 72.1057 3.04968 3.155 0
M  V30 664 H 68.9237 0.567145 0.428798 0
M  V30 665 H 71.5257 1.87204 0.563477 0
M  V30 666 H 70.2297 3.68036 1.81597 0
M  V30 667 H 69.7607 2.49328 3.04301 0
M  V30 668 H 71.7757 2.46735 4.30507 0
M  V30 669 N 70.9488 -0.749086 1.3866 0
M  V30 670 C 72.3598 -1.32664 1.31366 0
M  V30 671 C 72.7108 -1.96179 -0.028484 0
M  V30 672 O 71.8358 -1.9537 -0.93057 0
M  V30 673 C 72.4308 -2.41219 2.37905 0
M  V30 674 C 70.9898 -2.94684 2.34176 0
M  V30 675 C 70.1368 -1.68108 2.20533 0
M  V30 676 H 73.0878 -0.547628 1.48952 0
M  V30 677 H 73.1088 -3.21268 2.0388 0
M  V30 678 H 72.6208 -1.94962 3.35576 0
M  V30 679 H 70.7218 -3.45258 1.401 0
M  V30 680 H 70.8348 -3.48757 3.2849 0
M  V30 681 H 69.1988 -1.91907 1.67463 0
M  V30 682 H 69.9818 -1.23923 3.20153 0
M  V30 683 N 72.4269 -1.23603 -0.977757 0
M  V30 684 C 73.6749 -1.06759 -1.71601 0
M  V30 685 C 73.9959 0.395929 -1.90938 0
M  V30 686 O 73.2659 1.28356 -1.47992 0
M  V30 687 H 71.8459 -0.392062 -0.635843 0
M  V30 688 H 74.5079 -1.55362 -1.1768 0
M  V30 689 H 73.6039 -1.55763 -2.70452 0
M  V30 690 N 73.905 1.17692 -1.04816 0
M  V30 691 C 75.151 1.88137 -0.75711 0
M  V30 692 C 75.484 1.80604 0.713841 0
M  V30 693 O 74.759 1.21146 1.52164 0
M  V30 694 C 75.042 3.38318 -1.2334 0
M  V30 695 C 74.895 3.54622 -2.76701 0
M  V30 696 C 76.214 4.32214 -0.829415 0
M  V30 697 H 73.333 0.683163 -0.27651 0
M  V30 698 H 75.975 1.38424 -1.30149 0
M  V30 699 H 74.125 3.80787 -0.770286 0
M  V30 700 H 75.797 3.21194 -3.31107 0
M  V30 701 H 74.04 2.97026 -3.16161 0
M  V30 702 H 74.711 4.60028 -3.05088 0
M  V30 703 H 77.187 3.97565 -1.22805 0
M  V30 704 H 76.063 5.35838 -1.19033 0
M  V30 705 H 76.324 4.41294 0.266891 0
M  V30 706 N 75.3831 0.828654 1.34056 0
M  V30 707 C 76.6111 0.43262 2.02326 0
M  V30 708 C 77.0261 -0.963147 1.62385 0
M  V30 709 O 76.3831 -1.62425 0.832121 0
M  V30 710 C 76.4341 0.53182 3.57567 0
M  V30 711 O 76.1551 1.87258 3.96063 0
M  V30 712 C 77.6561 0.131422 4.43105 0
M  V30 713 H 74.8761 0.172923 0.648335 0
M  V30 714 H 77.4201 1.1184 1.71208 0
M  V30 715 H 75.5751 -0.105938 3.87255 0
M  V30 716 H 75.9891 1.85087 4.90758 0
M  V30 717 H 77.4631 0.251904 5.51425 0
M  V30 718 H 77.9401 -0.925645 4.29335 0
M  V30 719 H 78.5461 0.743207 4.18756 0
M  V30 720 N 76.8612 -1.46375 0.584142 0
M  V30 721 C 77.8242 -2.28784 -0.138108 0
M  V30 722 C 78.8242 -1.38471 -0.817462 0
M  V30 723 O 80.0142 -1.60833 -0.669199 0
M  V30 724 C 77.1462 -3.18892 -1.20503 0
M  V30 725 H 78.3392 -2.94117 0.586127 0
M  V30 726 H 75.8922 -1.52509 0.342171 0
M  V30 727 H 76.6272 -2.58309 -1.96079 0
M  V30 728 H 76.4122 -3.85388 -0.722384 0
M  V30 729 H 77.9022 -3.80914 -1.71155 0
M  V30 730 N 78.3393 -0.321999 -1.54275 0
M  V30 731 C 79.5873 0.280489 -2.00144 0
M  V30 732 C 79.9083 1.52777 -1.21178 0
M  V30 733 O 79.1783 1.9338 -0.313187 0
M  V30 734 H 77.7583 0.106632 -0.73935 0
M  V30 735 H 80.4203 -0.438184 -1.8991 0
M  V30 736 H 79.5163 0.537972 -3.07428 0
M  V30 737 N 79.8174 1.5752 -0.0501392 0
M  V30 738 C 81.0944 1.83996 0.663685 0
M  V30 739 C 81.4744 0.938339 1.89099 0
M  V30 740 O 80.8224 -0.00087759 2.285 0
M  V30 741 C 81.0324 3.33702 1.02196 0
M  V30 742 C 82.3804 4.00691 1.40469 0
M  V30 743 O 83.4044 3.38321 1.11433 0
M  V30 744 O 82.2634 5.10658 1.94654 0
M  V30 745 H 79.3574 0.759385 0.32751 0
M  V30 746 H 81.9034 1.69514 -0.0794238 0
M  V30 747 H 80.6754 3.91015 0.149364 0
M  V30 748 H 80.2984 3.53368 1.82255 0
M  V30 749 N 81.2955 -0.223234 1.56011 0
M  V30 750 C 82.7065 -0.790368 1.69145 0
M  V30 751 C 83.0575 -1.85055 0.651845 0
M  V30 752 O 82.1825 -2.15498 -0.197359 0
M  V30 753 C 82.7775 -1.4404 3.06656 0
M  V30 754 C 81.3365 -1.95494 3.2165 0
M  V30 755 C 80.4835 -0.814506 2.65068 0
M  V30 756 H 83.4345 0.00139011 1.587 0
M  V30 757 H 83.4555 -2.30916 3.0242 0
M  V30 758 H 82.9675 -0.668543 3.82298 0
M  V30 759 H 81.0685 -2.75487 2.50874 0
M  V30 760 H 81.1815 -2.13607 4.28846 0
M  V30 761 H 79.5455 -1.22137 2.23505 0
M  V30 762 H 80.3285 -0.0553515 3.43255 0
M  V30 763 N 82.7736 -1.49793 -0.48987 0
M  V30 764 C 84.0196 -1.60078 -1.24511 0
M  V30 765 C 84.3526 -0.291608 -1.91998 0
M  V30 766 O 83.6276 0.705647 -1.81248 0
M  V30 767 C 83.9106 -2.76791 -2.30345 0
M  V30 768 C 83.7636 -4.17535 -1.67286 0
M  V30 769 C 85.0826 -2.89111 -3.31817 0
M  V30 770 H 82.2016 -0.582645 -0.451324 0
M  V30 771 H 84.8436 -1.82117 -0.541612 0
M  V30 772 H 82.9936 -2.5813 -2.90346 0
M  V30 773 H 84.6656 -4.4774 -1.11026 0
M  V30 774 H 82.9086 -4.22665 -0.976577 0
M  V30 775 H 83.5796 -4.95094 -2.44103 0
M  V30 776 H 86.0556 -3.06133 -2.81819 0
M  V30 777 H 84.9316 -3.72433 -4.03219 0
M  V30 778 H 85.1926 -1.9893 -3.94815 0
M  V30 779 N 84.2517 0.741722 -1.39055 0
M  V30 780 C 85.4767 1.53607 -1.39354 0
M  V30 781 C 85.9017 1.88096 0.0116905 0
M  V30 782 O 85.2597 1.5143 0.996924 0
M  V30 783 C 85.3077 2.80441 -2.26682 0
M  V30 784 O 84.4117 3.76088 -1.69208 0
M  V30 785 H 83.7527 0.464142 -0.474835 0
M  V30 786 H 86.2827 0.915665 -1.82967 0
M  V30 787 H 86.2927 3.29246 -2.40959 0
M  V30 788 H 84.9677 2.5467 -3.2881 0
M  V30 789 H 83.5447 3.34833 -1.64138 0
M  V30 790 N 85.7298 1.2412 0.971189 0
M  V30 791 C 86.9758 1.09048 1.71698 0
M  V30 792 C 87.3308 -0.367442 1.88859 0
M  V30 793 O 86.6238 -1.26792 1.43646 0
M  V30 794 C 86.8178 1.75983 3.11071 0
M  V30 795 C 86.6468 3.28133 3.07504 0
M  V30 796 C 85.4168 3.97331 3.1218 0
M  V30 797 C 87.6148 4.24773 2.89952 0
M  V30 798 N 85.5968 5.3639 2.98596 0
M  V30 799 C 86.9678 5.50806 2.84627 0
M  V30 800 C 89.0228 4.15392 2.74506 0
M  V30 801 C 87.7258 6.68533 2.65437 0
M  V30 802 C 89.7518 5.32793 2.56682 0
M  V30 803 C 89.1138 6.57756 2.52063 0
M  V30 804 H 85.2128 0.453632 0.636979 0
M  V30 805 H 87.7968 1.56983 1.15171 0
M  V30 806 H 85.9678 1.30566 3.65796 0
M  V30 807 H 87.6998 1.53803 3.74335 0
M  V30 808 H 84.4548 3.48473 3.20724 0
M  V30 809 H 84.8788 6.09321 2.95054 0
M  V30 810 H 89.5208 3.19543 2.76861 0
M  V30 811 H 87.2388 7.64509 2.61825 0
M  V30 812 H 90.8248 5.27383 2.4568 0
M  V30 813 H 89.7048 7.4707 2.38446 0
M  V30 814 N 87.2079 -1.17134 1.05439 0
M  V30 815 C 88.4549 -1.87456 0.765942 0
M  V30 816 C 88.7829 -1.81189 -0.707153 0
M  V30 817 O 88.0379 -1.21633 -1.5331 0
M  V30 818 C 88.3369 -3.36833 1.19491 0
M  V30 819 C 88.0029 -3.63301 2.67063 0
M  V30 820 C 86.6649 -3.70234 3.07376 0
M  V30 821 C 89.0169 -3.74575 3.62413 0
M  V30 822 C 86.3449 -3.85933 4.41896 0
M  V30 823 C 88.6969 -3.91793 4.9667 0
M  V30 824 C 87.3609 -3.96966 5.36633 0
M  V30 825 H 86.6309 -0.685948 0.280278 0
M  V30 826 H 89.2779 -1.38556 1.32192 0
M  V30 827 H 87.5829 -3.87807 0.557969 0
M  V30 828 H 89.2799 -3.89611 0.948893 0
M  V30 829 H 85.8699 -3.58532 2.34846 0
M  V30 830 H 90.0539 -3.68537 3.32406 0
M  V30 831 H 85.3099 -3.88187 4.72357 0
M  V30 832 H 89.4839 -3.99458 5.70444 0
M  V30 833 H 87.1109 -4.08883 6.40874 0
M  V30 834 N 88.686 -0.835752 -1.33615 0
M  V30 835 C 90.102 -0.523139 -1.50783 0
M  V30 836 C 90.302 0.950171 -1.77691 0
M  V30 837 O 89.358 1.73411 -1.83534 0
M  V30 838 C 90.671 -1.39378 -2.66448 0
M  V30 839 C 92.219 -1.39223 -2.80332 0
M  V30 840 C 92.694 -2.24765 -3.99055 0
M  V30 841 N 94.185 -2.22458 -4.06284 0
M  V30 842 C 94.92 -2.85386 -4.97336 0
M  V30 843 N 94.416 -3.57354 -5.93523 0
M  V30 844 N 96.209 -2.74872 -4.90308 0
M  V30 845 H 88.36 -1.78952 -1.14411 0
M  V30 846 H 90.623 -0.763297 -0.562212 0
M  V30 847 H 90.329 -2.44061 -2.53234 0
M  V30 848 H 90.203 -1.0676 -3.61776 0
M  V30 849 H 92.59 -0.353136 -2.92979 0
M  V30 850 H 92.671 -1.75846 -1.85773 0
M  V30 851 H 92.315 -3.28732 -3.87167 0
M  V30 852 H 92.245 -1.85485 -4.92852 0
M  V30 853 H 94.736 -1.70119 -3.37443 0
M  V30 854 H 95.049 -4.02584 -6.59656 0
M  V30 855 H 93.394 -3.61461 -5.93608 0
M  V30 856 H 96.585 -2.18213 -4.14126 0
M  V30 857 H 96.758 -3.24199 -5.61069 0
M  V30 858 N 90.1641 1.46063 -0.591896 0
M  V30 859 C 91.4411 1.95595 -0.0137119 0
M  V30 860 C 91.8211 1.5345 1.4497 0
M  V30 861 O 91.1691 0.789543 2.14426 0
M  V30 862 C 91.3791 3.48453 -0.195373 0
M  V30 863 C 92.7271 4.24546 -0.0679765 0
M  V30 864 O 93.7511 3.55982 -0.124681 0
M  V30 865 O 92.6101 5.46467 0.0600579 0
M  V30 866 H 89.7041 0.825795 0.0446279 0
M  V30 867 H 92.2501 1.56303 -0.660859 0
M  V30 868 H 91.0221 3.72045 -1.21235 0
M  V30 869 H 90.6451 3.94597 0.487775 0
M  V30 870 N 91.6422 0.330177 1.54103 0
M  V30 871 C 92.8902 -0.269871 2.0029 0
M  V30 872 C 93.2112 -1.52133 1.21986 0
M  V30 873 O 92.4812 -1.93212 0.323438 0
M  V30 874 H 91.0612 -0.10271 0.739905 0
M  V30 875 H 93.7232 0.448249 1.89675 0
M  V30 876 H 92.8192 -0.52166 3.07709 0
M  V30 877 N 93.1203 -1.57491 0.0584922 0
M  V30 878 C 94.0303 -2.15448 -0.928414 0
M  V30 879 C 95.0463 -1.11416 -1.3365 0
M  V30 880 O 96.2223 -1.4362 -1.41193 0
M  V30 881 C 93.2873 -2.69393 -2.18239 0
M  V30 882 C 92.3483 -3.88249 -1.83196 0
M  V30 883 C 91.5813 -4.39613 -3.02616 0
M  V30 884 O 91.8043 -3.90023 -4.16219 0
M  V30 885 O 90.7383 -5.31111 -2.83204 0
M  V30 886 H 94.5643 -3.00112 -0.465483 0
M  V30 887 H 92.1493 -1.48499 -0.163826 0
M  V30 888 H 94.0313 -3.04026 -2.91798 0
M  V30 889 H 92.7063 -1.87796 -2.63656 0
M  V30 890 H 91.6133 -3.58492 -1.06931 0
M  V30 891 H 92.9463 -4.71098 -1.42573 0
M  V30 892 N 94.5984 0.214957 -1.56127 0
M  V30 893 C 96.0094 0.781386 -1.69562 0
M  V30 894 C 96.3604 1.84707 -0.66165 0
M  V30 895 O 95.4854 2.156 0.185927 0
M  V30 896 C 96.0804 1.42411 -3.07416 0
M  V30 897 C 94.6394 1.93786 -3.22683 0
M  V30 898 C 93.7864 0.800438 -2.65496 0
M  V30 899 H 96.7374 -0.00980633 -1.58697 0
M  V30 900 H 96.7584 2.29309 -3.0364 0
M  V30 901 H 96.2704 0.64826 -3.82648 0
M  V30 902 H 94.3714 2.74152 -2.52332 0
M  V30 903 H 94.4844 2.1133 -4.29973 0
M  V30 904 H 92.8484 1.2095 -2.2415 0
M  V30 905 H 93.6314 0.0371471 -3.4328 0
M  V30 906 N 96.0765 1.50051 0.48192 0
M  V30 907 C 97.0235 1.68122 1.58125 0
M  V30 908 C 97.9935 0.522545 1.57666 0
M  V30 909 O 99.1785 0.751844 1.75362 0
M  V30 910 C 96.3185 1.77142 2.96167 0
M  V30 911 C 95.4315 3.0444 3.06497 0
M  V30 912 C 94.5665 3.04321 4.35387 0
M  V30 913 C 93.6055 4.26118 4.3942 0
M  V30 914 N 92.7425 4.238 5.59766 0
M  V30 915 H 97.5825 2.6198 1.42022 0
M  V30 916 H 95.1195 1.29877 0.690687 0
M  V30 917 H 97.0775 1.80352 3.76203 0
M  V30 918 H 95.7075 0.867329 3.1093 0
M  V30 919 H 94.7595 3.10752 2.19402 0
M  V30 920 H 96.0715 3.94426 3.05336 0
M  V30 921 H 95.2255 3.062 5.23762 0
M  V30 922 H 93.9645 2.12147 4.39141 0
M  V30 923 H 92.9695 4.24463 3.49444 0
M  V30 924 H 94.1945 5.19507 4.37366 0
M  V30 925 H 92.1405 3.34474 5.64326 0
M  V30 926 H 92.0575 5.07542 5.60301 0
M  V30 927 H 93.3255 4.2981 6.50295 0
M  V30 928 N 97.5546 -0.734337 1.39446 0
M  V30 929 C 98.4846 -1.86155 1.40955 0
M  V30 930 C 99.4656 -1.67898 0.272827 0
M  V30 931 O 100.651 -1.88207 0.478743 0
M  V30 932 C 97.7806 -3.23912 1.25294 0
M  V30 933 C 96.7346 -3.56808 2.36373 0
M  V30 934 C 96.0606 -4.93508 2.058 0
M  V30 935 C 97.3606 -3.59713 3.78687 0
M  V30 936 H 99.0546 -1.8515 2.35287 0
M  V30 937 H 96.6006 -0.889367 1.13253 0
M  V30 938 H 98.5536 -4.02443 1.2497 0
M  V30 939 H 97.2776 -3.25446 0.274308 0
M  V30 940 H 95.9366 -2.80606 2.35914 0
M  V30 941 H 95.5846 -4.91623 1.06374 0
M  V30 942 H 95.2846 -5.16486 2.80208 0
M  V30 943 H 96.8086 -5.74396 2.07128 0
M  V30 944 H 98.2226 -4.2832 3.81071 0
M  V30 945 H 96.6196 -3.94209 4.52459 0
M  V30 946 H 97.6896 -2.59504 4.09617 0
M  V30 947 N 99.0327 -1.24633 -0.964593 0
M  V30 948 C 99.9627 -1.06611 -2.07741 0
M  V30 949 C 100.944 0.0218666 -1.70086 0
M  V30 950 O 102.129 -0.145793 -1.93652 0
M  V30 951 C 99.2587 -0.673444 -3.40708 0
M  V30 952 C 98.2127 -1.71054 -3.92332 0
M  V30 953 C 97.5387 -1.17285 -5.21678 0
M  V30 954 C 98.8387 -3.10718 -4.19824 0
M  V30 955 H 100.533 -1.99693 -2.23076 0
M  V30 956 H 98.0787 -0.96152 -1.07195 0
M  V30 957 H 100.032 -0.534345 -4.17998 0
M  V30 958 H 98.7557 0.293073 -3.25282 0
M  V30 959 H 97.4147 -1.83791 -3.17201 0
M  V30 960 H 97.0627 -0.196847 -5.02615 0
M  V30 961 H 96.7627 -1.86592 -5.57187 0
M  V30 962 H 98.2867 -1.04593 -6.01575 0
M  V30 963 H 99.7007 -3.01192 -4.87808 0
M  V30 964 H 98.0977 -3.77406 -4.66567 0
M  V30 965 H 99.1677 -3.58524 -3.26479 0
M  V30 966 N 100.511 1.16574 -1.06058 0
M  V30 967 C 101.443 2.2045 -0.627239 0
M  V30 968 C 102.456 1.59752 0.313534 0
M  V30 969 O 103.645 1.78192 0.104896 0
M  V30 970 C 100.745 3.3875 0.100974 0
M  V30 971 C 99.9178 4.29008 -0.852687 0
M  V30 972 C 98.9768 5.25944 -0.164152 0
M  V30 973 O 98.0028 5.63535 -0.801047 0
M  V30 974 N 99.2048 5.70075 1.09518 0
M  V30 975 H 101.97 2.58249 -1.52077 0
M  V30 976 H 99.5308 1.3156 -0.943594 0
M  V30 977 H 101.523 4.00638 0.57194 0
M  V30 978 H 100.093 2.99476 0.89628 0
M  V30 979 H 99.3128 3.64419 -1.50308 0
M  V30 980 H 100.601 4.86195 -1.49972 0
M  V30 981 H 99.9988 5.41624 1.6328 0
M  V30 982 H 98.5558 6.34067 1.51006 0
M  V30 983 N 101.989 0.842826 1.3317 0
M  V30 984 C 103.237 0.439577 1.97262 0
M  V30 985 C 103.558 -1.00548 1.67078 0
M  V30 986 O 102.828 -1.70098 0.971779 0
M  V30 987 H 101.408 0.159558 0.72976 0
M  V30 988 H 104.07 1.07665 1.62463 0
M  V30 989 H 103.166 0.574886 3.0676 0
M  V30 990 N 103.467 -1.45747 0.599634 0
M  V30 991 C 104.878 -1.85853 0.177681 0
M  V30 992 C 105.229 -1.50102 -1.26348 0
M  V30 993 O 104.354 -0.923905 -1.95686 0
M  V30 994 C 104.949 -3.37326 0.315688 0
M  V30 995 C 103.508 -3.76365 -0.0515144 0
M  V30 996 C 102.655 -2.69722 0.643822 0
M  V30 997 H 105.606 -1.36661 0.806814 0
M  V30 998 H 105.627 -3.77778 -0.454321 0
M  V30 999 H 105.139 -3.63315 1.36468 0
M  V30 1000 H 103.24 -3.55993 -1.09999 0
M  V30 1001 H 103.353 -4.77916 0.336594 0
M  V30 1002 H 101.717 -2.54567 0.0822881 0
M  V30 1003 H 102.5 -2.98549 1.6948 0
M  V30 1004 N 104.945 -0.338344 -1.53925 0
M  V30 1005 C 106.222 0.314774 -1.93051 0
M  V30 1006 C 106.602 1.68669 -1.26941 0
M  V30 1007 O 105.95 2.24636 -0.418445 0
M  V30 1008 C 106.16 0.392249 -3.46789 0
M  V30 1009 C 107.508 0.645554 -4.19664 0
M  V30 1010 O 108.532 0.474575 -3.53024 0
M  V30 1011 O 107.391 0.976408 -5.37707 0
M  V30 1012 H 104.485 0.182598 -0.80659 0
M  V30 1013 H 107.031 -0.389141 -1.65178 0
M  V30 1014 H 105.803 -0.570702 -3.87116 0
M  V30 1015 H 105.426 1.14316 -3.80812 0
M  V30 1016 N 106.423 1.57458 -0.0668435 0
M  V30 1017 C 107.648 1.9804 0.616027 0
M  V30 1018 C 108.073 0.944771 1.62652 0
M  V30 1019 O 107.431 -0.0902094 1.81075 0
M  V30 1020 C 107.479 3.37665 1.26549 0
M  V30 1021 O 106.583 3.36701 2.38131 0
M  V30 1022 H 105.924 0.644719 0.158849 0
M  V30 1023 H 108.454 2.04121 -0.139891 0
M  V30 1024 H 108.464 3.7474 1.6135 0
M  V30 1025 H 107.139 4.12573 0.525016 0
M  V30 1026 H 105.716 3.1139 2.0516 0
M  V30 1027 N 107.901 -0.206675 1.56239 0
M  V30 1028 C 109.149 -0.927007 1.79586 0
M  V30 1029 C 109.47 -1.8427 0.637929 0
M  V30 1030 O 108.74 -1.92849 -0.344398 0
M  V30 1031 H 107.32 -0.345292 0.662407 0
M  V30 1032 H 109.982 -0.21496 1.93711 0
M  V30 1033 H 109.078 -1.52501 2.72305 0
M  V30 1034 N 109.379 -1.50304 -0.473955 0
M  V30 1035 C 110.309 -1.71886 -1.58042 0
M  V30 1036 C 111.29 -0.567799 -1.60344 0
M  V30 1037 O 112.475 -0.806623 -1.76656 0
M  V30 1038 C 109.605 -1.81036 -2.96384 0
M  V30 1039 C 108.559 -2.962 -3.08949 0
M  V30 1040 C 107.885 -2.9049 -4.48909 0
M  V30 1041 C 109.185 -4.36752 -2.86434 0
M  V30 1042 H 110.879 -2.64527 -1.40234 0
M  V30 1043 H 108.425 -1.27295 -0.673201 0
M  V30 1044 H 110.378 -1.94719 -3.73714 0
M  V30 1045 H 109.102 -0.850147 -3.15341 0
M  V30 1046 H 107.761 -2.82164 -2.3405 0
M  V30 1047 H 107.409 -1.92321 -4.64781 0
M  V30 1048 H 107.109 -3.67802 -4.58253 0
M  V30 1049 H 108.633 -3.06218 -5.28264 0
M  V30 1050 H 110.047 -4.5133 -3.53517 0
M  V30 1051 H 108.444 -5.15493 -3.07225 0
M  V30 1052 H 109.514 -4.49321 -1.82316 0
M  V30 1053 N 110.857 0.726932 -1.39834 0
M  V30 1054 C 112.105 1.4837 -1.37225 0
M  V30 1055 C 112.426 1.94979 0.0284857 0
M  V30 1056 O 111.696 1.69555 0.981213 0
M  V30 1057 H 110.276 0.55043 -0.505011 0
M  V30 1058 H 112.938 0.862468 -1.74778 0
M  V30 1059 H 112.034 2.36198 -2.04003 0
M  V30 1060 N 112.336 1.25143 0.95797 0
M  V30 1061 C 113.286 1.01924 2.0395 0
M  V30 1062 C 114.27 -0.0427175 1.60843 0
M  V30 1063 O 115.462 0.17221 1.7616 0
M  V30 1064 C 112.591 0.636373 3.3735 0
M  V30 1065 C 111.677 1.73492 3.8699 0
M  V30 1066 N 112.068 2.96945 4.0946 0
M  V30 1067 C 110.366 1.61467 4.15746 0
M  V30 1068 C 111.067 3.68228 4.50315 0
M  V30 1069 N 110.043 2.95833 4.56053 0
M  V30 1070 H 113.845 1.95653 2.19311 0
M  V30 1071 H 111.359 1.15413 1.14253 0
M  V30 1072 H 113.356 0.451233 4.14451 0
M  V30 1073 H 112.016 -0.293621 3.2337 0
M  V30 1074 H 113.027 3.33025 3.96629 0
M  V30 1075 H 109.704 0.753394 4.10646 0
M  V30 1076 H 111.094 4.74178 4.76031 0
M  V30 1077 N 113.814 -1.1601 1.06675 0
M  V30 1078 C 114.724 -2.24156 0.692179 0
M  V30 1079 C 115.74 -1.71507 -0.293513 0
M  V30 1080 O 116.916 -2.009 -0.141861 0
M  V30 1081 C 113.981 -3.46587 0.0884131 0
M  V30 1082 C 113.042 -4.14257 1.12646 0
M  V30 1083 C 112.275 -5.30844 0.551416 0
M  V30 1084 O 112.498 -5.66858 -0.634656 0
M  V30 1085 O 111.432 -5.87848 1.29298 0
M  V30 1086 H 115.258 -2.58513 1.59388 0
M  V30 1087 H 112.843 -1.23599 0.83926 0
M  V30 1088 H 114.725 -4.20679 -0.246361 0
M  V30 1089 H 113.4 -3.13994 -0.786712 0
M  V30 1090 H 112.307 -3.42118 1.51348 0
M  V30 1091 H 113.64 -4.50914 1.97325 0
M  V30 1092 N 115.292 -0.849877 -1.32721 0
M  V30 1093 C 116.222 -0.306308 -2.31482 0
M  V30 1094 C 117.203 0.591952 -1.59468 0
M  V30 1095 O 118.388 0.513199 -1.87296 0
M  V30 1096 C 115.518 0.510204 -3.43532 0
M  V30 1097 C 114.472 -0.293209 -4.26994 0
M  V30 1098 C 113.798 0.647743 -5.30762 0
M  V30 1099 C 115.098 -1.51634 -4.99804 0
M  V30 1100 H 116.792 -1.13153 -2.77195 0
M  V30 1101 H 114.338 -0.545553 -1.33266 0
M  V30 1102 H 116.291 0.900856 -4.11658 0
M  V30 1103 H 115.015 1.36874 -2.96535 0
M  V30 1104 H 113.674 -0.665555 -3.60508 0
M  V30 1105 H 113.322 1.50299 -4.8002 0
M  V30 1106 H 113.022 0.11422 -5.87489 0
M  V30 1107 H 114.546 1.03567 -6.01753 0
M  V30 1108 H 115.96 -1.19824 -5.60638 0
M  V30 1109 H 114.357 -1.98745 -5.66234 0
M  V30 1110 H 115.427 -2.28018 -4.27943 0
M  V30 1111 N 116.77 1.45427 -0.607355 0
M  V30 1112 C 118.016 2.0254 -0.102607 0
M  V30 1113 C 118.349 1.47478 1.26348 0
M  V30 1114 O 117.624 0.64939 1.83339 0
M  V30 1115 C 117.907 3.60044 -0.0634347 0
M  V30 1116 C 117.76 4.2544 -1.46017 0
M  V30 1117 C 119.079 4.35646 0.624514 0
M  V30 1118 H 116.198 0.73598 -0.0387607 0
M  V30 1119 H 118.84 1.73284 -0.779282 0
M  V30 1120 H 116.99 3.85101 0.512808 0
M  V30 1121 H 118.662 4.11569 -2.08347 0
M  V30 1122 H 116.905 3.83849 -2.02094 0
M  V30 1123 H 117.576 5.34342 -1.385 0
M  V30 1124 H 120.052 4.15882 0.134723 0
M  V30 1125 H 118.928 5.45376 0.621028 0
M  V30 1126 H 119.189 4.08501 1.69055 0
M  V30 1127 N 118.248 0.346503 1.53744 0
M  V30 1128 C 119.178 -0.501193 2.28058 0
M  V30 1129 C 120.159 -1.10014 1.29734 0
M  V30 1130 O 121.344 -1.12097 1.58581 0
M  V30 1131 C 118.474 -1.65078 3.05559 0
M  V30 1132 C 117.428 -1.18003 4.11411 0
M  V30 1133 C 116.754 -2.41837 4.76884 0
M  V30 1134 C 118.054 -0.278394 5.21558 0
M  V30 1135 H 119.748 0.11875 2.99164 0
M  V30 1136 H 117.294 0.0585531 1.43881 0
M  V30 1137 H 119.247 -2.25028 3.56287 0
M  V30 1138 H 117.971 -2.29767 2.32109 0
M  V30 1139 H 116.63 -0.603331 3.61601 0
M  V30 1140 H 116.278 -3.0494 4.00026 0
M  V30 1141 H 115.978 -2.1102 5.48402 0
M  V30 1142 H 117.502 -3.02508 5.30397 0
M  V30 1143 H 118.916 -0.784823 5.67903 0
M  V30 1144 H 117.313 -0.0619707 6.00068 0
M  V30 1145 H 118.383 0.684677 4.80042 0
M  V30 1146 N 119.726 -1.57421 0.075193 0
M  V30 1147 C 120.689 -2.11791 -0.876203 0
M  V30 1148 C 121.689 -1.04268 -1.22412 0
M  V30 1149 O 122.879 -1.30242 -1.15684 0
M  V30 1150 C 120.011 -2.62207 -2.17854 0
M  V30 1151 H 121.204 -2.9716 -0.40444 0
M  V30 1152 H 118.757 -1.55333 -0.173557 0
M  V30 1153 H 119.492 -1.803 -2.6956 0
M  V30 1154 H 119.277 -3.40802 -1.93897 0
M  V30 1155 H 120.767 -3.04335 -2.85955 0
M  V30 1156 N 121.204 0.198386 -1.56346 0
M  V30 1157 C 122.136 1.26987 -1.90806 0
M  V30 1158 C 123.149 1.41877 -0.798419 0
M  V30 1159 O 124.338 1.42362 -1.07682 0
M  V30 1160 C 121.438 2.64246 -2.12196 0
M  V30 1161 C 120.611 2.71007 -3.43328 0
M  V30 1162 C 119.67 3.89439 -3.5387 0
M  V30 1163 O 118.696 3.76695 -4.26719 0
M  V30 1164 N 119.898 5.04752 -2.86715 0
M  V30 1165 H 122.663 0.977433 -2.83313 0
M  V30 1166 H 120.224 0.388322 -1.57174 0
M  V30 1167 H 122.216 3.41896 -2.1654 0
M  V30 1168 H 120.786 2.85992 -1.26204 0
M  V30 1169 H 120.006 1.79657 -3.50881 0
M  V30 1170 H 121.294 2.72512 -4.29668 0
M  V30 1171 H 120.692 5.18004 -2.2735 0
M  V30 1172 H 119.249 5.8036 -2.96691 0
M  V30 1173 N 122.682 1.50554 0.465978 0
M  V30 1174 C 123.645 1.69233 1.54574 0
M  V30 1175 C 124.645 0.562901 1.50626 0
M  V30 1176 O 125.835 0.830016 1.53155 0
M  V30 1177 C 122.967 1.7223 2.94193 0
M  V30 1178 H 124.16 2.65571 1.39327 0
M  V30 1179 H 121.713 1.40111 0.692711 0
M  V30 1180 H 122.448 0.77603 3.14878 0
M  V30 1181 H 122.233 2.54285 2.98466 0
M  V30 1182 H 123.723 1.88618 3.72576 0
M  V30 1183 N 124.16 -0.719506 1.40217 0
M  V30 1184 C 125.437 -1.47221 1.28784 0
M  V30 1185 C 125.817 -2.10883 -0.0956067 0
M  V30 1186 O 125.165 -1.99833 -1.10811 0
M  V30 1187 C 125.375 -2.5111 2.42373 0
M  V30 1188 C 126.723 -3.17053 2.82423 0
M  V30 1189 O 127.747 -2.61429 2.41937 0
M  V30 1190 O 126.606 -4.17742 3.52355 0
M  V30 1191 H 123.7 -0.654491 0.50554 0
M  V30 1192 H 126.246 -0.752014 1.52128 0
M  V30 1193 H 125.018 -2.02556 3.34793 0
M  V30 1194 H 124.641 -3.3067 2.20778 0
M  V30 1195 N 125.638 -1.25649 -0.95132 0
M  V30 1196 C 126.863 -1.13443 -1.73624 0
M  V30 1197 C 127.288 0.307565 -1.85568 0
M  V30 1198 O 126.646 1.22282 -1.33854 0
M  V30 1199 C 126.694 -1.79723 -3.12621 0
M  V30 1200 O 125.798 -1.07912 -3.98031 0
M  V30 1201 H 125.139 -0.395872 -0.533086 0
M  V30 1202 H 127.669 -1.66276 -1.1922 0
M  V30 1203 H 127.679 -1.86141 -3.63064 0
M  V30 1204 H 126.354 -2.84633 -3.03244 0
M  V30 1205 H 124.931 -1.09398 -3.56492 0
M  V30 1206 N 127.117 1.15442 -1.07289 0
M  V30 1207 C 128.345 1.90096 -0.81676 0
M  V30 1208 C 128.76 1.7798 0.629966 0
M  V30 1209 O 128.117 1.1313 1.43206 0
M  V30 1210 C 128.168 3.40466 -1.21512 0
M  V30 1211 O 127.889 3.52232 -2.60508 0
M  V30 1212 C 129.39 4.32145 -0.988198 0
M  V30 1213 H 126.61 0.602495 -0.295366 0
M  V30 1214 H 129.154 1.4627 -1.42918 0
M  V30 1215 H 127.309 3.81958 -0.647039 0
M  V30 1216 H 127.723 4.45549 -2.76742 0
M  V30 1217 H 129.197 5.36072 -1.31645 0
M  V30 1218 H 129.674 4.39135 0.0755063 0
M  V30 1219 H 130.28 3.96395 -1.54115 0
M  V30 1220 N 128.595 0.856903 1.32268 0
M  V30 1221 C 129.872 0.382583 1.91822 0
M  V30 1222 C 130.252 -1.13407 1.78051 0
M  V30 1223 O 129.6 -1.95673 1.18001 0
M  V30 1224 C 129.81 0.849446 3.38505 0
M  V30 1225 C 131.158 0.867936 4.15634 0
M  V30 1226 O 132.182 0.794232 3.47232 0
M  V30 1227 O 131.041 0.972286 5.37781 0
M  V30 1228 H 128.135 0.112014 0.819379 0
M  V30 1229 H 130.681 0.943952 1.41024 0
M  V30 1230 H 129.453 1.89267 3.42482 0
M  V30 1231 H 129.076 0.265652 3.96712 0
M  V30 1232 N 130.073 -1.45103 0.615059 0
M  V30 1233 C 130.983 -2.34382 -0.101034 0
M  V30 1234 C 131.999 -1.51681 -0.852585 0
M  V30 1235 O 133.175 -1.8446 -0.808484 0
M  V30 1236 C 130.24 -3.29417 -1.08099 0
M  V30 1237 C 129.301 -4.28025 -0.330577 0
M  V30 1238 C 128.534 -5.1852 -1.26385 0
M  V30 1239 O 128.757 -5.12598 -2.50198 0
M  V30 1240 O 127.691 -5.97122 -0.756866 0
M  V30 1241 H 131.517 -2.97033 0.632855 0
M  V30 1242 H 129.102 -1.4461 0.375293 0
M  V30 1243 H 130.984 -3.87958 -1.6452 0
M  V30 1244 H 129.659 -2.69321 -1.79577 0
M  V30 1245 H 128.566 -3.73078 0.276283 0
M  V30 1246 H 129.899 -4.90997 0.343866 0
M  V30 1247 N 131.551 -0.354651 -1.53558 0
M  V30 1248 C 132.799 0.237972 -2.00694 0
M  V30 1249 C 133.12 1.50173 -1.24391 0
M  V30 1250 O 132.39 1.92673 -0.354135 0
M  V30 1251 H 130.97 0.0909256 -0.741446 0
M  V30 1252 H 133.632 -0.478368 -1.88938 0
M  V30 1253 H 132.728 0.47264 -3.085 0
M  V30 1254 N 133.029 1.57378 -0.0835403 0
M  V30 1255 C 134.257 1.98263 0.59157 0
M  V30 1256 C 134.672 0.962302 1.62435 0
M  V30 1257 O 134.029 -0.049581 1.82433 0
M  V30 1258 C 134.08 3.39214 1.24965 0
M  V30 1259 O 133.801 4.37339 0.258186 0
M  V30 1260 C 135.302 3.95038 2.01147 0
M  V30 1261 H 132.522 0.651773 0.159477 0
M  V30 1262 H 135.066 2.03878 -0.159415 0
M  V30 1263 H 133.221 3.34649 1.95164 0
M  V30 1264 H 133.635 5.19371 0.731734 0
M  V30 1265 H 135.109 4.95848 2.42567 0
M  V30 1266 H 135.586 3.32222 2.87272 0
M  V30 1267 H 136.192 4.0304 1.35789 0
M  V30 1268 N 134.507 -0.190092 1.56449 0
M  V30 1269 C 135.737 -0.92443 1.84764 0
M  V30 1270 C 136.145 -1.77146 0.664529 0
M  V30 1271 O 135.488 -1.79812 -0.375957 0
M  V30 1272 C 135.55 -1.86651 3.07248 0
M  V30 1273 C 135.214 -1.20094 4.40938 0
M  V30 1274 C 136.211 -0.575445 5.16706 0
M  V30 1275 C 133.896 -1.2033 4.87674 0
M  V30 1276 C 135.89 0.0388111 6.37388 0
M  V30 1277 C 133.577 -0.585214 6.08291 0
M  V30 1278 C 134.575 0.0347578 6.82991 0
M  V30 1279 O 134.263 0.643147 8.01323 0
M  V30 1280 H 133.995 -0.274974 0.617548 0
M  V30 1281 H 136.549 -0.200788 2.04416 0
M  V30 1282 H 134.779 -2.62998 2.83494 0
M  V30 1283 H 136.468 -2.46907 3.22167 0
M  V30 1284 H 137.234 -0.565728 4.81689 0
M  V30 1285 H 133.113 -1.67526 4.29484 0
M  V30 1286 H 136.657 0.523329 6.95634 0
M  V30 1287 H 132.554 -0.592451 6.42775 0
M  V30 1288 H 133.322 0.540545 8.16713 0
M  V30 1289 N 135.985 -1.50799 -0.457987 0
M  V30 1290 C 137.234 -1.6168 -1.20593 0
M  V30 1291 C 137.547 -0.32888 -1.92815 0
M  V30 1292 O 138.753 -0.316773 -2.69646 0
M  V30 1293 C 137.209 -2.8545 -2.19195 0
M  V30 1294 C 136.817 -4.21168 -1.52715 0
M  V30 1295 C 138.561 -3.05681 -2.94549 0
M  V30 1296 C 136.468 -5.3611 -2.4968 0
M  V30 1297 H 135.398 -0.602134 -0.453818 0
M  V30 1298 H 138.049 -1.77245 -0.475031 0
M  V30 1299 H 136.431 -2.63472 -2.95632 0
M  V30 1300 H 137.605 -4.53449 -0.819775 0
M  V30 1301 H 135.92 -4.06648 -0.895922 0
M  V30 1302 H 138.517 -3.88727 -3.67145 0
M  V30 1303 H 138.86 -2.17929 -3.54701 0
M  V30 1304 H 139.393 -3.27901 -2.25223 0
M  V30 1305 H 136.132 -6.26057 -1.94249 0
M  V30 1306 H 135.652 -5.0823 -3.18532 0
M  V30 1307 H 137.331 -5.6722 -3.11241 0
M  V30 1308 N 137.463 0.71206 -1.40597 0
M  V30 1309 C 138.703 1.48438 -1.40519 0
M  V30 1310 C 139.067 1.91998 -0.00767611 0
M  V30 1311 O 140.268 2.6854 0.118239 0
M  V30 1312 C 138.539 2.67514 -2.37004 0
M  V30 1313 S 140.098 3.56875 -2.55315 0
M  V30 1314 H 136.916 0.507457 -0.498005 0
M  V30 1315 H 139.518 0.832355 -1.76896 0
M  V30 1316 H 138.222 2.33689 -3.37368 0
M  V30 1317 H 137.753 3.37625 -2.01923 0
M  V30 1318 H 139.768 4.62081 -1.8082 0
M  V30 1319 N 138.941 1.26152 0.944643 0
M  V30 1320 C 139.873 1.03199 2.04652 0
M  V30 1321 C 140.886 -0.00642356 1.62799 0
M  V30 1322 O 142.075 0.233263 1.76969 0
M  V30 1323 C 139.175 0.540111 3.34568 0
M  V30 1324 C 138.348 1.64697 4.05208 0
M  V30 1325 C 137.407 1.15374 5.13396 0
M  V30 1326 O 136.433 1.85013 5.38293 0
M  V30 1327 N 137.635 0.00031529 5.805 0
M  V30 1328 H 140.4 1.9808 2.2491 0
M  V30 1329 H 137.961 1.17491 1.11389 0
M  V30 1330 H 139.953 0.194401 4.04233 0
M  V30 1331 H 138.523 -0.315021 3.11009 0
M  V30 1332 H 137.743 2.16379 3.29506 0
M  V30 1333 H 139.031 2.3903 4.49157 0
M  V30 1334 H 138.429 -0.581336 5.62705 0
M  V30 1335 H 136.986 -0.286346 6.51171 0
M  V30 1336 N 140.419 -1.14872 1.07899 0
M  V30 1337 C 141.647 -1.89661 0.82683 0
M  V30 1338 C 142.062 -1.78312 -0.620519 0
M  V30 1339 O 141.419 -1.13888 -1.42604 0
M  V30 1340 C 141.47 -3.39817 1.23316 0
M  V30 1341 O 141.191 -3.50845 2.62372 0
M  V30 1342 C 142.692 -4.31615 1.0111 0
M  V30 1343 H 139.912 -0.60092 0.298557 0
M  V30 1344 H 142.456 -1.4551 1.43691 0
M  V30 1345 H 140.611 -3.8161 0.667286 0
M  V30 1346 H 141.025 -4.44076 2.79101 0
M  V30 1347 H 142.499 -5.35367 1.34486 0
M  V30 1348 H 142.976 -4.39169 -0.0522168 0
M  V30 1349 H 143.582 -3.95572 1.56215 0
M  V30 1350 N 141.898 -0.863906 -1.31812 0
M  V30 1351 C 142.828 -0.330843 -2.31144 0
M  V30 1352 C 143.809 0.575005 -1.60087 0
M  V30 1353 O 144.994 0.493304 -1.8783 0
M  V30 1354 C 142.124 0.47374 -3.44054 0
M  V30 1355 C 141.078 -0.338481 -4.26659 0
M  V30 1356 C 140.404 0.591412 -5.31419 0
M  V30 1357 C 141.704 -1.56926 -4.98168 0
M  V30 1358 H 143.398 -1.16086 -2.75979 0
M  V30 1359 H 140.944 -0.559657 -1.32679 0
M  V30 1360 H 142.897 0.857143 -4.12591 0
M  V30 1361 H 141.621 1.33721 -2.9797 0
M  V30 1362 H 140.28 -0.703754 -3.59782 0
M  V30 1363 H 139.928 1.45199 -4.81587 0
M  V30 1364 H 139.628 0.0519022 -5.87577 0
M  V30 1365 H 141.152 0.97179 -6.02817 0
M  V30 1366 H 142.566 -1.25764 -5.59336 0
M  V30 1367 H 140.963 -2.04739 -5.64094 0
M  V30 1368 H 142.033 -2.32544 -4.25501 0
M  V30 1369 N 143.376 1.44774 -0.622745 0
M  V30 1370 C 144.653 1.95522 -0.0551974 0
M  V30 1371 C 145.033 1.5649 1.41683 0
M  V30 1372 O 144.381 0.834848 2.12703 0
M  V30 1373 C 144.591 3.4796 -0.269242 0
M  V30 1374 C 145.939 4.24306 -0.158014 0
M  V30 1375 O 146.963 3.55637 -0.200162 0
M  V30 1376 O 145.822 5.46471 -0.0558693 0
M  V30 1377 H 142.916 0.826556 0.0271015 0
M  V30 1378 H 145.462 1.54866 -0.693864 0
M  V30 1379 H 144.234 3.6939 -1.29099 0
M  V30 1380 H 143.857 3.95543 0.403966 0
M  V30 1381 N 144.854 0.36279 1.53368 0
M  V30 1382 C 146.102 -0.227326 2.00817 0
M  V30 1383 C 146.423 -1.49511 1.25186 0
M  V30 1384 O 145.693 -1.92482 0.364348 0
M  V30 1385 H 144.273 -0.0869923 0.741917 0
M  V30 1386 H 146.935 0.488381 1.88682 0
M  V30 1387 H 146.031 -0.456273 3.08747 0
M  V30 1388 N 146.332 -1.57332 0.0918853 0
M  V30 1389 C 147.295 -2.12708 -0.85369 0
M  V30 1390 C 148.295 -1.05561 -1.213 0
M  V30 1391 O 149.485 -1.31461 -1.14296 0
M  V30 1392 C 146.617 -2.64503 -2.15061 0
M  V30 1393 H 147.81 -2.97573 -0.3729 0
M  V30 1394 H 145.363 -1.55509 -0.157072 0
M  V30 1395 H 146.098 -1.83149 -2.67632 0
M  V30 1396 H 145.883 -3.4284 -1.90272 0
M  V30 1397 H 147.373 -3.07351 -2.82711 0
M  V30 1398 N 147.81 0.181792 -1.56548 0
M  V30 1399 C 148.74 1.22765 -1.98623 0
M  V30 1400 C 149.721 1.46747 -0.860189 0
M  V30 1401 O 150.906 1.58259 -1.12551 0
M  V30 1402 C 148.036 2.56894 -2.33715 0
M  V30 1403 C 146.99 2.475 -3.49182 0
M  V30 1404 C 146.316 3.86023 -3.69986 0
M  V30 1405 C 147.616 1.98866 -4.82959 0
M  V30 1406 H 149.31 0.877942 -2.86239 0
M  V30 1407 H 146.856 0.42088 -1.37712 0
M  V30 1408 H 148.809 3.30253 -2.61746 0
M  V30 1409 H 147.533 2.93632 -1.42997 0
M  V30 1410 H 146.192 1.76596 -3.21262 0
M  V30 1411 H 145.84 4.20136 -2.76576 0
M  V30 1412 H 145.54 3.80609 -4.47672 0
M  V30 1413 H 147.064 4.60984 -4.00407 0
M  V30 1414 H 148.478 2.61992 -5.09934 0
M  V30 1415 H 146.875 2.04424 -5.64208 0
M  V30 1416 H 147.945 0.942465 -4.75653 0
M  V30 1417 N 149.288 1.51039 0.449983 0
M  V30 1418 C 150.536 1.62759 1.19808 0
M  V30 1419 C 150.857 0.339981 1.92013 0
M  V30 1420 O 150.127 -0.643606 1.85026 0
M  V30 1421 H 148.707 0.599811 0.445237 0
M  V30 1422 H 151.369 1.87914 0.517138 0
M  V30 1423 H 150.465 2.44911 1.93455 0
M  V30 1424 N 150.766 -0.704594 1.40972 0
M  V30 1425 C 152.014 -1.46169 1.39568 0
M  V30 1426 C 152.335 -1.95 0.00253745 0
M  V30 1427 O 151.605 -1.71095 -0.954114 0
M  V30 1428 H 150.185 -0.542326 0.513704 0
M  V30 1429 H 152.847 -0.834553 1.76128 0
M  V30 1430 H 151.943 -2.32922 2.07735 0
M  V30 1431 N 152.244 -1.26651 -0.937939 0
M  V30 1432 C 153.472 -1.15173 -1.7188 0
M  V30 1433 C 153.887 0.292668 -1.86518 0
M  V30 1434 O 153.244 1.20014 -1.37488 0
M  V30 1435 C 153.295 -1.81925 -3.12387 0
M  V30 1436 O 153.016 -3.2072 -2.98446 0
M  V30 1437 C 154.517 -1.76442 -4.06673 0
M  V30 1438 H 151.737 -0.400911 -0.538063 0
M  V30 1439 H 154.281 -1.67332 -1.1756 0
M  V30 1440 H 152.436 -1.33696 -3.63599 0
M  V30 1441 H 152.85 -3.53802 -3.872 0
M  V30 1442 H 154.324 -2.27781 -5.02812 0
M  V30 1443 H 154.801 -0.731608 -4.33064 0
M  V30 1444 H 155.407 -2.24238 -3.61382 0
M  V30 1445 N 153.722 1.14298 -1.08507 0
M  V30 1446 C 154.968 1.85633 -0.816581 0
M  V30 1447 C 155.301 1.82784 0.656021 0
M  V30 1448 O 154.576 1.25926 1.48233 0
M  V30 1449 C 154.859 3.34223 -1.34041 0
M  V30 1450 C 154.712 3.45639 -2.87843 0
M  V30 1451 C 156.031 4.29356 -0.9665 0
M  V30 1452 H 153.15 0.67402 -0.298104 0
M  V30 1453 H 155.792 1.34214 -1.34487 0
M  V30 1454 H 153.942 3.78144 -0.89104 0
M  V30 1455 H 155.614 3.10498 -3.41158 0
M  V30 1456 H 153.857 2.86817 -3.25451 0
M  V30 1457 H 154.528 4.50089 -3.19569 0
M  V30 1458 H 157.004 3.93457 -1.35391 0
M  V30 1459 H 155.88 5.3178 -1.3602 0
M  V30 1460 H 156.141 4.41919 0.126362 0
M  V30 1461 N 155.201 0.870884 1.31352 0
M  V30 1462 C 156.429 0.49677 2.00848 0
M  V30 1463 C 156.844 -0.910998 1.65367 0
M  V30 1464 O 156.201 -1.59696 0.883374 0
M  V30 1465 C 156.252 0.645308 3.55694 0
M  V30 1466 O 155.973 1.99764 3.89905 0
M  V30 1467 C 157.474 0.272326 4.42463 0
M  V30 1468 H 154.694 0.193462 0.642506 0
M  V30 1469 H 157.238 1.1723 1.67563 0
M  V30 1470 H 155.393 0.0173176 3.87396 0
M  V30 1471 H 155.807 2.00607 4.84621 0
M  V30 1472 H 157.281 0.427208 5.50344 0
M  V30 1473 H 157.758 -0.788587 4.32062 0
M  V30 1474 H 158.364 0.876054 4.1618 0
M  V30 1475 N 156.679 -1.44442 0.630414 0
M  V30 1476 C 157.609 -2.33418 -0.0618083 0
M  V30 1477 C 158.59 -1.48165 -0.835541 0
M  V30 1478 O 159.775 -1.76886 -0.801564 0
M  V30 1479 C 156.905 -3.31222 -1.04449 0
M  V30 1480 C 155.859 -4.26288 -0.382436 0
M  V30 1481 C 155.185 -5.13954 -1.47497 0
M  V30 1482 C 156.485 -5.1744 0.710865 0
M  V30 1483 H 158.179 -2.91548 0.681184 0
M  V30 1484 H 155.725 -1.40191 0.329026 0
M  V30 1485 H 157.678 -3.92351 -1.53748 0
M  V30 1486 H 156.402 -2.71299 -1.81836 0
M  V30 1487 H 155.061 -3.6649 0.0899054 0
M  V30 1488 H 154.709 -4.50385 -2.2397 0
M  V30 1489 H 154.409 -5.7837 -1.03737 0
M  V30 1490 H 155.933 -5.77955 -1.96979 0
M  V30 1491 H 157.347 -5.72509 0.300996 0
M  V30 1492 H 155.744 -5.90455 1.07156 0
M  V30 1493 H 156.814 -4.58496 1.57829 0
M  V30 1494 N 158.157 -0.370918 -1.53173 0
M  V30 1495 C 159.089 0.507823 -2.23503 0
M  V30 1496 C 160.102 1.04182 -1.251 0
M  V30 1497 O 161.291 0.947286 -1.5129 0
M  V30 1498 C 158.391 1.71447 -2.92334 0
M  V30 1499 C 157.564 1.31105 -4.17289 0
M  V30 1500 C 156.623 2.38035 -4.69282 0
M  V30 1501 O 155.649 2.00204 -5.32829 0
M  V30 1502 N 156.851 3.69697 -4.47554 0
M  V30 1503 H 159.616 -0.0946382 -2.99551 0
M  V30 1504 H 157.177 -0.196358 -1.60705 0
M  V30 1505 H 159.169 2.42469 -3.24023 0
M  V30 1506 H 157.739 2.22368 -2.19707 0
M  V30 1507 H 156.959 0.430462 -3.91843 0
M  V30 1508 H 158.247 1.0179 -4.98514 0
M  V30 1509 H 157.645 4.03205 -3.9679 0
M  V30 1510 H 156.202 4.36807 -4.8378 0
M  V30 1511 N 159.635 1.57281 -0.100228 0
M  V30 1512 C 160.565 2.17328 0.853857 0
M  V30 1513 C 161.546 1.10804 1.2906 0
M  V30 1514 O 162.731 1.38963 1.35657 0
M  V30 1515 C 159.861 2.75772 2.11109 0
M  V30 1516 C 158.815 3.87713 1.81279 0
M  V30 1517 C 158.141 4.32882 3.13874 0
M  V30 1518 C 159.441 5.10677 1.09574 0
M  V30 1519 H 161.135 2.97305 0.353545 0
M  V30 1520 H 158.681 1.43009 0.168612 0
M  V30 1521 H 160.634 3.16433 2.78296 0
M  V30 1522 H 159.358 1.93057 2.63432 0
M  V30 1523 H 158.017 3.476 1.16489 0
M  V30 1524 H 157.665 3.47051 3.64095 0
M  V30 1525 H 157.365 5.08358 2.94696 0
M  V30 1526 H 158.889 4.7618 3.82211 0
M  V30 1527 H 160.303 5.48474 1.66879 0
M  V30 1528 H 158.7 5.91615 1.00557 0
M  V30 1529 H 159.77 4.84835 0.0793299 0
M  V30 1530 N 161.113 -0.173488 1.56642 0
M  V30 1531 C 162.361 -0.888706 1.81512 0
M  V30 1532 C 162.682 -1.82875 0.676872 0
M  V30 1533 O 161.952 -1.93536 -0.303414 0
M  V30 1534 H 160.532 -0.331164 0.669582 0
M  V30 1535 H 163.194 -0.173823 1.94123 0
M  V30 1536 H 162.29 -1.46691 2.75478 0
M  V30 1537 N 162.591 -1.51276 -0.441967 0
M  V30 1538 C 163.821 -1.67273 -1.21257 0
M  V30 1539 C 164.229 -0.367624 -1.85594 0
M  V30 1540 O 163.572 0.663349 -1.71305 0
M  V30 1541 C 163.634 -2.72807 -2.34129 0
M  V30 1542 C 163.298 -4.1554 -1.90198 0
M  V30 1543 C 164.295 -5.00471 -1.40801 0
M  V30 1544 C 161.98 -4.61616 -1.9803 0
M  V30 1545 C 163.974 -6.29536 -0.998174 0
M  V30 1546 C 161.661 -5.90679 -1.56658 0
M  V30 1547 C 162.659 -6.74466 -1.07633 0
M  V30 1548 O 162.347 -8.01116 -0.668459 0
M  V30 1549 H 162.079 -0.564614 -0.371734 0
M  V30 1550 H 164.633 -1.9843 -0.530521 0
M  V30 1551 H 162.863 -2.36954 -3.05597 0
M  V30 1552 H 164.552 -2.77729 -2.96009 0
M  V30 1553 H 165.318 -4.66079 -1.34148 0
M  V30 1554 H 161.197 -3.96526 -2.35135 0
M  V30 1555 H 164.741 -6.94885 -0.61482 0
M  V30 1556 H 160.638 -6.24586 -1.62979 0
M  V30 1557 H 161.406 -8.14633 -0.794722 0
M  V30 1558 N 164.069 0.697108 -1.41344 0
M  V30 1559 C 165.48 1.27697 -1.36199 0
M  V30 1560 C 165.831 1.9615 -0.0443463 0
M  V30 1561 O 164.956 1.98689 0.857419 0
M  V30 1562 C 165.551 2.32223 -2.46694 0
M  V30 1563 C 164.11 2.8579 -2.44952 0
M  V30 1564 C 163.257 1.59807 -2.26621 0
M  V30 1565 H 166.208 0.491968 -1.50882 0
M  V30 1566 H 166.229 3.1348 -2.15664 0
M  V30 1567 H 165.741 1.82373 -3.42581 0
M  V30 1568 H 163.842 3.3982 -1.52817 0
M  V30 1569 H 163.955 3.36325 -3.41207 0
M  V30 1570 H 162.319 1.8556 -1.7447 0
M  V30 1571 H 163.102 1.11956 -3.24532 0
M  V30 1572 N 165.547 1.27147 0.931209 0
M  V30 1573 C 166.958 1.12044 1.49342 0
M  V30 1574 C 167.309 -0.295795 1.93957 0
M  V30 1575 O 166.434 -1.18835 1.80852 0
M  V30 1576 C 167.029 2.02781 2.71414 0
M  V30 1577 C 165.588 1.91794 3.2387 0
M  V30 1578 C 164.735 1.95543 1.96617 0
M  V30 1579 H 167.686 1.40091 0.745672 0
M  V30 1580 H 167.707 1.58156 3.46074 0
M  V30 1581 H 167.219 3.05848 2.38911 0
M  V30 1582 H 165.32 0.916992 3.6114 0
M  V30 1583 H 165.433 2.77852 3.90302 0
M  V30 1584 H 163.797 1.39722 2.12955 0
M  V30 1585 H 164.58 3.00259 1.66432 0
M  V30 1586 N 167.025 -1.13721 1.09112 0
M  V30 1587 C 167.988 -2.17222 0.731241 0
M  V30 1588 C 168.988 -1.59035 -0.237566 0
M  V30 1589 O 170.178 -1.74192 -0.0161704 0
M  V30 1590 C 167.31 -3.40804 0.0808443 0
M  V30 1591 H 168.503 -2.50573 1.64783 0
M  V30 1592 H 166.056 -1.28493 0.889897 0
M  V30 1593 H 166.791 -3.1304 -0.847127 0
M  V30 1594 H 166.576 -3.84306 0.777896 0
M  V30 1595 H 168.066 -4.1731 -0.155657 0
M  V30 1596 N 168.503 -0.877838 -1.30888 0
M  V30 1597 C 169.919 -0.570844 -1.49042 0
M  V30 1598 C 170.119 0.893159 -1.80624 0
M  V30 1599 O 169.175 1.67485 -1.88958 0
M  V30 1600 C 170.488 -1.47784 -2.61878 0
M  V30 1601 C 172.036 -1.48071 -2.75761 0
M  V30 1602 C 172.511 -2.37347 -3.91702 0
M  V30 1603 N 174.002 -2.35271 -3.99001 0
M  V30 1604 C 174.737 -3.01063 -4.88004 0
M  V30 1605 N 174.233 -3.76055 -5.81854 0
M  V30 1606 N 176.026 -2.90332 -4.81315 0
M  V30 1607 H 168.177 -1.82502 -1.0866 0
M  V30 1608 H 170.44 -0.780797 -0.537644 0
M  V30 1609 H 170.146 -2.51993 -2.45341 0
M  V30 1610 H 170.02 -1.18215 -3.58197 0
M  V30 1611 H 172.407 -0.446166 -2.91708 0
M  V30 1612 H 172.488 -1.81668 -1.80085 0
M  V30 1613 H 172.132 -3.40883 -3.76512 0
M  V30 1614 H 172.062 -2.01071 -4.86701 0
M  V30 1615 H 174.553 -1.80768 -3.3186 0
M  V30 1616 H 174.866 -4.23366 -6.46514 0
M  V30 1617 H 173.211 -3.80163 -5.81808 0
M  V30 1618 H 176.402 -2.31278 -4.06974 0
M  V30 1619 H 176.575 -3.41885 -5.50471 0
M  V30 1620 N 169.982 1.44106 -0.638065 0
M  V30 1621 C 171.393 1.85316 -0.226894 0
M  V30 1622 C 171.744 1.53399 1.22324 0
M  V30 1623 O 170.869 0.975463 1.93167 0
M  V30 1624 C 171.464 3.3637 -0.405013 0
M  V30 1625 C 170.023 3.76369 -0.0482902 0
M  V30 1626 C 169.17 2.67921 -0.715108 0
M  V30 1627 H 172.121 1.34474 -0.842764 0
M  V30 1628 H 172.142 3.7885 0.354 0
M  V30 1629 H 171.654 3.59569 -1.46053 0
M  V30 1630 H 169.755 3.58784 1.00522 0
M  V30 1631 H 169.868 4.76856 -0.463187 0
M  V30 1632 H 168.232 2.54259 -0.149753 0
M  V30 1633 H 169.015 2.93951 -1.77335 0
M  V30 1634 N 171.46 0.379036 1.52974 0
M  V30 1635 C 172.706 -0.206727 2.01744 0
M  V30 1636 C 173.039 -1.47314 1.26539 0
M  V30 1637 O 172.314 -1.91084 0.362903 0
M  V30 1638 C 172.597 -0.485066 3.56818 0
M  V30 1639 C 172.45 0.795919 4.42702 0
M  V30 1640 C 173.769 -1.28003 4.21074 0
M  V30 1641 H 170.888 -0.0736607 0.73331 0
M  V30 1642 H 173.53 0.506581 1.83122 0
M  V30 1643 H 171.68 -1.09272 3.72816 0
M  V30 1644 H 173.352 1.43307 4.38476 0
M  V30 1645 H 171.595 1.41344 4.10127 0
M  V30 1646 H 172.266 0.555947 5.49193 0
M  V30 1647 H 174.742 -0.765867 4.08991 0
M  V30 1648 H 173.618 -1.44352 5.29579 0
M  V30 1649 H 173.879 -2.29236 3.78026 0
M  V30 1650 N 172.938 -1.57226 0.108567 0
M  V30 1651 C 174.184 -1.95121 -0.552761 0
M  V30 1652 C 174.517 -0.991345 -1.66991 0
M  V30 1653 O 173.792 -0.0267211 -1.94482 0
M  V30 1654 C 174.075 -3.43039 -1.09528 0
M  V30 1655 C 173.928 -4.49797 0.0177332 0
M  V30 1656 C 175.247 -3.92567 -1.98945 0
M  V30 1657 H 172.366 -0.709496 -0.199461 0
M  V30 1658 H 175.008 -1.89126 0.182011 0
M  V30 1659 H 173.158 -3.48279 -1.72146 0
M  V30 1660 H 174.83 -4.56661 0.652584 0
M  V30 1661 H 173.073 -4.284 0.682309 0
M  V30 1662 H 173.744 -5.50528 -0.402919 0
M  V30 1663 H 176.22 -3.89565 -1.46214 0
M  V30 1664 H 175.096 -4.96605 -2.33827 0
M  V30 1665 H 175.357 -3.32648 -2.91201 0
M  V30 1666 N 174.416 0.165178 -1.56732 0
M  V30 1667 C 175.641 0.900253 -1.86843 0
M  V30 1668 C 176.066 1.74766 -0.695596 0
M  V30 1669 O 175.424 1.77786 0.35522 0
M  V30 1670 C 175.472 1.74777 -3.15413 0
M  V30 1671 O 174.576 2.85007 -2.98068 0
M  V30 1672 H 173.917 0.251832 -0.614391 0
M  V30 1673 H 176.447 0.161468 -2.03962 0
M  V30 1674 H 176.457 2.14646 -3.46974 0
M  V30 1675 H 175.132 1.12537 -4.00385 0
M  V30 1676 H 173.709 2.48676 -2.77875 0
M  V30 1677 N 175.894 1.51508 0.433938 0
M  V30 1678 C 177.134 1.66006 1.19253 0
M  V30 1679 C 177.498 0.369868 1.88404 0
M  V30 1680 O 178.699 0.39066 2.65946 0
M  V30 1681 C 176.97 2.83229 2.17981 0
M  V30 1682 S 178.529 3.18075 3.02281 0
M  V30 1683 H 175.347 0.584821 0.404358 0
M  V30 1684 H 177.949 1.89425 0.48357 0
M  V30 1685 H 176.653 3.75407 1.65824 0
M  V30 1686 H 176.184 2.6201 2.93453 0
M  V30 1687 H 178.199 2.64772 4.19655 0
M  V30 1688 N 177.372 -0.689602 1.41712 0
M  V30 1689 C 178.304 -1.815 1.39966 0
M  V30 1690 C 179.317 -1.59995 0.300917 0
M  V30 1691 O 180.506 -1.69387 0.563039 0
M  V30 1692 C 177.606 -3.18364 1.16179 0
M  V30 1693 C 176.779 -3.66847 2.38206 0
M  V30 1694 C 175.838 -4.82398 2.10186 0
M  V30 1695 O 174.864 -4.93706 2.83272 0
M  V30 1696 N 176.066 -5.70064 1.0958 0
M  V30 1697 H 178.831 -1.83488 2.36965 0
M  V30 1698 H 176.392 -0.872149 1.36401 0
M  V30 1699 H 178.384 -3.93301 0.953756 0
M  V30 1700 H 176.954 -3.11365 0.27756 0
M  V30 1701 H 176.174 -2.82751 2.74673 0
M  V30 1702 H 177.462 -3.95978 3.19498 0
M  V30 1703 H 176.86 -5.63565 0.491019 0
M  V30 1704 H 175.417 -6.44874 0.947656 0
M  V30 1705 N 178.85 -1.27639 -0.924453 0
M  V30 1706 C 179.813 -1.10681 -2.00705 0
M  V30 1707 C 180.813 -0.0497823 -1.60723 0
M  V30 1708 O 182.003 -0.294654 -1.7169 0
M  V30 1709 C 179.135 -0.687164 -3.33902 0
M  V30 1710 H 180.328 -2.06817 -2.17179 0
M  V30 1711 H 177.881 -1.10473 -1.10569 0
M  V30 1712 H 178.616 0.275439 -3.23128 0
M  V30 1713 H 178.401 -1.45061 -3.6428 0
M  V30 1714 H 179.891 -0.590853 -4.13399 0
M  V30 1715 N 180.328 1.1314 -1.09713 0
M  V30 1716 C 181.291 2.16831 -0.742751 0
M  V30 1717 C 182.291 1.59159 0.229129 0
M  V30 1718 O 183.481 1.74199 0.00693237 0
M  V30 1719 C 180.613 3.40756 -0.0989168 0
M  V30 1720 H 181.806 2.49695 -1.66109 0
M  V30 1721 H 179.359 1.2802 -0.896699 0
M  V30 1722 H 180.094 3.13485 0.830514 0
M  V30 1723 H 179.879 3.83888 -0.798265 0
M  V30 1724 H 181.369 4.17386 0.133524 0
M  V30 1725 N 181.806 0.884767 1.30421 0
M  V30 1726 C 183.083 0.423185 1.90967 0
M  V30 1727 C 183.463 -1.09605 1.80416 0
M  V30 1728 O 182.811 -1.93126 1.22125 0
M  V30 1729 C 183.021 0.921056 3.36627 0
M  V30 1730 C 184.369 0.955903 4.137 0
M  V30 1731 O 185.393 0.867706 3.4547 0
M  V30 1732 O 184.252 1.08614 5.35598 0
M  V30 1733 H 181.346 0.129369 0.816819 0
M  V30 1734 H 183.892 0.973653 1.3899 0
M  V30 1735 H 182.664 1.96489 3.3839 0
M  V30 1736 H 182.287 0.349741 3.96059 0
M  V30 1737 N 183.284 -1.43765 0.645699 0
M  V30 1738 C 184.514 -2.05953 0.163318 0
M  V30 1739 C 184.922 -1.48432 -1.17322 0
M  V30 1740 O 184.265 -0.607295 -1.73371 0
M  V30 1741 C 184.327 -3.59499 -0.0103065 0
M  V30 1742 C 183.991 -4.39563 1.25035 0
M  V30 1743 C 184.988 -4.72108 2.17739 0
M  V30 1744 C 182.673 -4.79697 1.48983 0
M  V30 1745 C 184.667 -5.43688 3.3269 0
M  V30 1746 C 182.354 -5.51023 2.64229 0
M  V30 1747 C 183.352 -5.8294 3.55908 0
M  V30 1748 O 183.04 -6.5281 4.69142 0
M  V30 1749 H 182.772 -0.670798 0.0836986 0
M  V30 1750 H 185.326 -1.85384 0.884407 0
M  V30 1751 H 183.556 -3.78613 -0.78669 0
M  V30 1752 H 185.245 -4.03408 -0.449087 0
M  V30 1753 H 186.011 -4.41627 2.00476 0
M  V30 1754 H 181.89 -4.54266 0.785078 0
M  V30 1755 H 185.434 -5.68517 4.04269 0
M  V30 1756 H 181.331 -5.8092 2.81429 0
M  V30 1757 H 182.099 -6.71288 4.6831 0
M  V30 1758 N 184.763 -0.387143 -1.52771 0
M  V30 1759 C 185.673 0.456442 -2.30117 0
M  V30 1760 C 186.689 1.07342 -1.36944 0
M  V30 1761 O 187.865 1.07971 -1.70013 0
M  V30 1762 C 184.93 1.56957 -3.09136 0
M  V30 1763 C 183.991 0.977916 -4.18014 0
M  V30 1764 C 183.224 2.038 -4.93256 0
M  V30 1765 O 183.447 3.25271 -4.68567 0
M  V30 1766 O 182.381 1.6565 -5.78657 0
M  V30 1767 H 186.207 -0.17359 -3.03203 0
M  V30 1768 H 183.792 -0.150919 -1.48636 0
M  V30 1769 H 185.674 2.21628 -3.58412 0
M  V30 1770 H 184.349 2.18461 -2.38865 0
M  V30 1771 H 183.256 0.294525 -3.72939 0
M  V30 1772 H 184.589 0.407128 -4.90513 0
M  V30 1773 N 186.241 1.57166 -0.116904 0
M  V30 1774 C 187.189 2.16457 0.851418 0
M  V30 1775 C 188.183 1.11323 1.27686 0
M  V30 1776 O 189.389 1.2963 1.24884 0
M  V30 1777 H 185.764 0.69271 0.292672 0
M  V30 1778 H 187.735 2.96605 0.32685 0
M  V30 1779 C 186.484 2.77689 2.09246 0
M  V30 1780 H 185.807 3.58285 1.77402 0
M  V30 1781 H 187.247 3.22716 2.7501 0
M  V30 1782 C 185.706 1.74667 2.88085 0
M  V30 1783 O 186.236 1.19877 3.83396 0
M  V30 1784 N 184.442 1.44656 2.52038 0
M  V30 1785 H 183.989 1.89402 1.74599 0
M  V30 1786 H 183.947 0.759675 3.05084 0
M  V30 1787 N 187.719 -0.156864 1.56817 0
M  V30 1788 C 188.966 -0.871125 1.82805 0
M  V30 1789 C 189.294 -1.81611 0.696262 0
M  V30 1790 O 188.549 -1.93141 -0.315459 0
M  V30 1791 C 188.848 -1.68737 3.1506 0
M  V30 1792 C 188.514 -0.890045 4.42028 0
M  V30 1793 C 187.176 -0.670042 4.76512 0
M  V30 1794 C 189.528 -0.331769 5.20143 0
M  V30 1795 C 186.856 0.119104 5.86579 0
M  V30 1796 C 189.208 0.444365 6.31037 0
M  V30 1797 C 187.872 0.675035 6.64078 0
M  V30 1798 H 187.142 -0.318767 0.668931 0
M  V30 1799 H 189.789 -0.135274 1.91022 0
M  V30 1800 H 188.094 -2.49304 3.0225 0
M  V30 1801 H 189.791 -2.24331 3.3238 0
M  V30 1802 H 186.381 -1.07157 4.14988 0
M  V30 1803 H 190.565 -0.489043 4.93885 0
M  V30 1804 H 185.821 0.307417 6.10627 0
M  V30 1805 H 189.995 0.884139 6.90765 0
M  V30 1806 H 187.622 1.28839 7.49203 0
M  V30 1807 N 189.197 -1.51736 -0.425897 0
M  V30 1808 C 190.422 -1.69082 -1.20108 0
M  V30 1809 C 190.847 -0.392398 -1.83962 0
M  V30 1810 O 190.205 0.64858 -1.69302 0
M  V30 1811 C 190.253 -2.81604 -2.25237 0
M  V30 1812 O 189.357 -2.46004 -3.30992 0
M  V30 1813 H 188.698 -0.563408 -0.35138 0
M  V30 1814 H 191.228 -1.98358 -0.501512 0
M  V30 1815 H 191.238 -3.06025 -2.69838 0
M  V30 1816 H 189.913 -3.75817 -1.78142 0
M  V30 1817 H 188.49 -2.32195 -2.91787 0
M  V30 1818 N 190.675 0.682077 -1.42076 0
M  V30 1819 C 191.915 1.45424 -1.43636 0
M  V30 1820 C 192.279 1.91939 -0.0484001 0
M  V30 1821 O 193.48 2.6873 0.0612514 0
M  V30 1822 C 191.751 2.62427 -2.42625 0
M  V30 1823 S 193.31 3.51379 -2.62827 0
M  V30 1824 H 190.128 0.496779 -0.508657 0
M  V30 1825 H 192.73 0.794645 -1.78621 0
M  V30 1826 H 191.434 2.26481 -3.42249 0
M  V30 1827 H 190.965 3.33266 -2.09039 0
M  V30 1828 H 192.98 4.58141 -1.9058 0
M  V30 1829 N 192.153 1.28127 0.917671 0
M  V30 1830 C 193.381 1.17892 1.70026 0
M  V30 1831 C 193.796 -0.262958 1.8696 0
M  V30 1832 O 193.153 -1.17811 1.3938 0
M  V30 1833 C 193.204 1.86872 3.09453 0
M  V30 1834 O 192.925 3.25428 2.93306 0
M  V30 1835 C 194.426 1.8289 4.03815 0
M  V30 1836 H 191.646 0.40942 0.531617 0
M  V30 1837 H 194.19 1.69181 1.14883 0
M  V30 1838 H 192.345 1.39464 3.61426 0
M  V30 1839 H 192.759 3.59918 3.81523 0
M  V30 1840 H 194.233 2.35751 4.99125 0
M  V30 1841 H 194.71 0.800412 4.31845 0
M  V30 1842 H 195.316 2.29959 3.57769 0
M  V30 1843 N 193.631 -1.12557 1.10312 0
M  V30 1844 C 194.877 -1.84515 0.855901 0
M  V30 1845 C 195.232 -1.82409 -0.611936 0
M  V30 1846 O 194.525 -1.25778 -1.44535 0
M  V30 1847 C 194.719 -3.31462 1.33669 0
M  V30 1848 C 194.548 -3.47879 2.84974 0
M  V30 1849 C 193.318 -3.61589 3.52961 0
M  V30 1850 C 195.516 -3.43152 3.83081 0
M  V30 1851 N 193.498 -3.66359 4.926 0
M  V30 1852 C 194.869 -3.54401 5.08724 0
M  V30 1853 C 196.924 -3.2661 3.75807 0
M  V30 1854 C 195.627 -3.50815 6.2795 0
M  V30 1855 C 197.653 -3.24335 4.94531 0
M  V30 1856 C 197.015 -3.36144 6.19021 0
M  V30 1857 H 193.114 -0.690967 0.366182 0
M  V30 1858 H 195.698 -1.34763 1.40524 0
M  V30 1859 H 193.869 -3.7976 0.814686 0
M  V30 1860 H 195.601 -3.91272 1.03385 0
M  V30 1861 H 192.356 -3.63652 3.03404 0
M  V30 1862 H 192.78 -3.72411 5.65366 0
M  V30 1863 H 197.422 -3.16375 2.80476 0
M  V30 1864 H 195.14 -3.5982 7.23571 0
M  V30 1865 H 198.726 -3.12719 4.9061 0
M  V30 1866 H 197.606 -3.34357 7.09348 0
M  V30 1867 N 195.109 -0.891671 -1.2995 0
M  V30 1868 C 196.334 -0.527932 -2.00568 0
M  V30 1869 C 196.759 0.877969 -1.66353 0
M  V30 1870 O 196.117 1.58301 -0.883762 0
M  V30 1871 C 196.165 -0.717745 -3.53385 0
M  V30 1872 O 195.269 0.233376 -4.11739 0
M  V30 1873 H 194.61 -0.20722 -0.630837 0
M  V30 1874 H 197.14 -1.20105 -1.65638 0
M  V30 1875 H 197.15 -0.619307 -4.03272 0
M  V30 1876 H 195.825 -1.74276 -3.77625 0
M  V30 1877 H 194.402 0.0880706 -3.72796 0
M  V30 1878 N 196.587 1.43421 -0.653314 0
M  V30 1879 C 197.998 1.85065 -0.246537 0
M  V30 1880 C 198.349 1.54688 1.2069 0
M  V30 1881 O 197.474 0.995896 1.92122 0
M  V30 1882 C 198.069 3.35922 -0.440666 0
M  V30 1883 C 196.628 3.76297 -0.0882064 0
M  V30 1884 C 195.775 2.67147 -0.743484 0
M  V30 1885 H 198.726 1.33572 -0.856979 0
M  V30 1886 H 198.747 3.79204 0.313798 0
M  V30 1887 H 198.259 3.58 -1.49858 0
M  V30 1888 H 196.36 3.5983 0.96711 0
M  V30 1889 H 196.473 4.76338 -0.513738 0
M  V30 1890 H 194.837 2.54086 -0.176712 0
M  V30 1891 H 195.62 2.92053 -1.80443 0
M  V30 1892 N 198.065 0.39524 1.52563 0
M  V30 1893 C 199.29 -0.187456 2.06551 0
M  V30 1894 C 199.715 -1.39249 1.26457 0
M  V30 1895 O 199.073 -1.78947 0.291151 0
M  V30 1896 C 199.121 -0.529985 3.56684 0
M  V30 1897 O 198.225 -1.62307 3.79118 0
M  V30 1898 H 197.566 -0.0202537 0.663691 0
M  V30 1899 H 200.096 0.564426 1.96661 0
M  V30 1900 H 200.106 -0.792598 4.00227 0
M  V30 1901 H 198.781 0.350987 4.14416 0
M  V30 1902 H 197.358 -1.3537 3.47461 0
M  V30 1903 N 199.544 -1.57102 0.125237 0
M  V30 1904 C 200.476 -2.12726 -0.853237 0
M  V30 1905 C 201.489 -1.07145 -1.22571 0
M  V30 1906 O 202.678 -1.34497 -1.17358 0
M  V30 1907 C 199.778 -2.61709 -2.15317 0
M  V30 1908 C 198.951 -3.91456 -1.95143 0
M  V30 1909 C 198.01 -4.25973 -3.08923 0
M  V30 1910 O 197.036 -4.94682 -2.81564 0
M  V30 1911 N 198.238 -3.83795 -4.35524 0
M  V30 1912 H 201.003 -2.97307 -0.377964 0
M  V30 1913 H 198.564 -1.61792 -0.0590011 0
M  V30 1914 H 200.556 -2.81826 -2.90441 0
M  V30 1915 H 199.126 -1.81974 -2.54174 0
M  V30 1916 H 198.346 -3.80185 -1.04177 0
M  V30 1917 H 199.634 -4.76283 -1.78976 0
M  V30 1918 H 199.032 -3.2839 -4.60626 0
M  V30 1919 H 197.589 -4.09008 -5.07499 0
M  V30 1920 N 201.022 0.148545 -1.56898 0
M  V30 1921 C 202.271 0.85984 -1.82454 0
M  V30 1922 C 202.584 1.82406 -0.706229 0
M  V30 1923 O 203.79 2.57938 -0.847349 0
M  V30 1924 C 202.246 1.57967 -3.2338 0
M  V30 1925 C 201.854 0.65794 -4.43142 0
M  V30 1926 C 203.598 2.27784 -3.58211 0
M  V30 1927 C 201.505 1.3793 -5.75091 0
M  V30 1928 H 200.435 0.324834 -0.68044 0
M  V30 1929 H 203.086 0.112588 -1.83154 0
M  V30 1930 H 201.468 2.37249 -3.17063 0
M  V30 1931 H 202.642 -0.0995497 -4.60692 0
M  V30 1932 H 200.957 0.0682643 -4.16344 0
M  V30 1933 H 203.554 2.8239 -4.54048 0
M  V30 1934 H 203.897 3.04204 -2.84193 0
M  V30 1935 H 204.43 1.55421 -3.66182 0
M  V30 1936 H 201.169 0.656982 -6.52199 0
M  V30 1937 H 200.689 2.10954 -5.61479 0
M  V30 1938 H 202.368 1.92063 -6.17835 0
M  V30 1939 N 202.5 1.5196 0.417844 0
M  V30 1940 C 203.725 1.69717 1.1921 0
M  V30 1941 C 204.15 0.402148 1.83751 0
M  V30 1942 O 203.508 -0.639593 1.69643 0
M  V30 1943 C 203.556 2.82794 2.2374 0
M  V30 1944 O 202.66 2.47756 3.29683 0
M  V30 1945 H 202.001 0.565263 0.348387 0
M  V30 1946 H 204.531 1.98621 0.490985 0
M  V30 1947 H 204.541 3.07452 2.68212 0
M  V30 1948 H 203.216 3.76756 1.76146 0
M  V30 1949 H 201.793 2.33739 2.90552 0
M  V30 1950 N 203.978 -0.674533 1.42435 0
M  V30 1951 C 205.226 -1.43175 1.42637 0
M  V30 1952 C 205.547 -1.94951 0.0438992 0
M  V30 1953 O 204.817 -1.7308 -0.917607 0
M  V30 1954 H 203.397 -0.531307 0.525092 0
M  V30 1955 H 206.059 -0.797006 1.77859 0
M  V30 1956 H 205.155 -2.28463 2.12629 0
M  V30 1957 N 205.456 -1.28612 -0.910864 0
M  V30 1958 C 206.386 -1.15326 -2.03032 0
M  V30 1959 C 207.367 -0.0502924 -1.70026 0
M  V30 1960 O 208.552 -0.227797 -1.92859 0
M  V30 1961 C 205.682 -0.817343 -3.37545 0
M  V30 1962 C 204.636 -1.8754 -3.84724 0
M  V30 1963 C 203.962 -1.39305 -5.16235 0
M  V30 1964 C 205.262 -3.28244 -4.06267 0
M  V30 1965 H 206.956 -2.08975 -2.14406 0
M  V30 1966 H 204.502 -1.00612 -1.03021 0
M  V30 1967 H 206.455 -0.711151 -4.15356 0
M  V30 1968 H 205.179 0.154846 -3.26233 0
M  V30 1969 H 203.838 -1.97079 -3.09121 0
M  V30 1970 H 203.486 -0.409846 -5.01328 0
M  V30 1971 H 203.186 -2.10057 -5.48771 0
M  V30 1972 H 204.71 -1.30014 -5.96598 0
M  V30 1973 H 206.124 -3.21611 -4.74594 0
M  V30 1974 H 204.521 -3.96855 -4.5014 0
M  V30 1975 H 205.591 -3.72048 -3.10979 0
M  V30 1976 N 206.934 1.1197 -1.10907 0
M  V30 1977 C 208.345 1.65114 -0.871446 0
M  V30 1978 C 208.696 1.86885 0.597353 0
M  V30 1979 O 207.821 1.59896 1.45816 0
M  V30 1980 C 208.416 2.99944 -1.5754 0
M  V30 1981 C 206.975 3.50018 -1.38435 0
M  V30 1982 C 206.122 2.24941 -1.62164 0
M  V30 1983 H 209.073 0.956851 -1.2661 0
M  V30 1984 H 209.094 3.66651 -1.01721 0
M  V30 1985 H 208.606 2.84067 -2.64438 0
M  V30 1986 H 206.707 3.71071 -0.337214 0
M  V30 1987 H 206.82 4.29165 -2.12965 0
M  V30 1988 H 205.184 2.3229 -1.04467 0
M  V30 1989 H 205.967 2.11612 -2.70324 0
M  V30 1990 N 208.412 0.89855 1.29475 0
M  V30 1991 C 209.64 0.539261 1.99749 0
M  V30 1992 C 210.055 -0.875716 1.67262 0
M  V30 1993 O 209.412 -1.57786 0.917049 0
M  V30 1994 C 209.463 0.72061 3.54245 0
M  V30 1995 O 209.184 2.07989 3.8558 0
M  V30 1996 C 210.685 0.366118 4.41786 0
M  V30 1997 H 207.905 0.207047 0.638258 0
M  V30 1998 H 210.449 1.20758 1.65039 0
M  V30 1999 H 208.604 0.0994862 3.87272 0
M  V30 2000 H 209.018 2.10841 4.80257 0
M  V30 2001 H 210.492 0.543848 5.49314 0
M  V30 2002 H 210.969 -0.696763 4.33638 0
M  V30 2003 H 211.575 0.964135 4.14228 0
M  V30 2004 N 209.89 -1.43072 0.660911 0
M  V30 2005 C 211.306 -1.56169 0.329173 0
M  V30 2006 C 211.506 -1.64317 -1.16629 0
M  V30 2007 O 210.562 -1.60245 -1.95135 0
M  V30 2008 C 211.875 -2.81873 1.04729 0
M  V30 2009 C 213.423 -2.95627 1.02828 0
M  V30 2010 C 213.898 -4.24174 1.72744 0
M  V30 2011 N 215.389 -4.31055 1.69545 0
M  V30 2012 C 216.124 -5.29304 2.20511 0
M  V30 2013 N 215.62 -6.33786 2.79799 0
M  V30 2014 N 217.413 -5.21008 2.10966 0
M  V30 2015 H 209.564 -1.36027 1.63127 0
M  V30 2016 H 211.827 -0.653823 0.686454 0
M  V30 2017 H 211.533 -2.81942 2.10242 0
M  V30 2018 H 211.407 -3.72338 0.603702 0
M  V30 2019 H 213.794 -2.95094 -0.0184742 0
M  V30 2020 H 213.875 -2.06431 1.51063 0
M  V30 2021 H 213.519 -4.25467 2.7738 0
M  V30 2022 H 213.449 -5.1228 1.2197 0
M  V30 2023 H 215.94 -3.56174 1.26288 0
M  V30 2024 H 216.253 -7.05086 3.16344 0
M  V30 2025 H 214.598 -6.34387 2.83863 0
M  V30 2026 H 217.789 -4.38301 1.64347 0
M  V30 2027 H 217.962 -5.97416 2.50993 0
M  V30 2028 N 211.368 -0.403325 -1.52352 0
M  V30 2029 C 212.598 0.17376 -2.05868 0
M  V30 2030 C 213.006 1.39898 -1.27378 0
M  V30 2031 O 212.349 1.80939 -0.31729 0
M  V30 2032 C 212.411 0.594756 -3.54546 0
M  V30 2033 C 212.075 -0.518926 -4.54044 0
M  V30 2034 C 213.072 -1.3807 -5.01231 0
M  V30 2035 C 210.757 -0.689961 -4.97539 0
M  V30 2036 C 212.751 -2.39852 -5.90551 0
M  V30 2037 C 210.438 -1.71109 -5.86656 0
M  V30 2038 C 211.436 -2.56378 -6.33056 0
M  V30 2039 O 211.124 -3.56743 -7.20409 0
M  V30 2040 H 210.856 0.0264951 -0.675481 0
M  V30 2041 H 213.41 -0.571179 -1.97299 0
M  V30 2042 H 211.64 1.39189 -3.60782 0
M  V30 2043 H 213.329 1.0991 -3.90736 0
M  V30 2044 H 214.095 -1.25994 -4.68349 0
M  V30 2045 H 209.974 -0.035939 -4.60986 0
M  V30 2046 H 213.518 -3.06441 -6.26689 0
M  V30 2047 H 209.415 -1.83218 -6.18952 0
M  V30 2048 H 210.183 -3.52918 -7.38506 0
M  V30 2049 N 212.846 1.57033 -0.133567 0
M  V30 2050 C 213.776 2.1909 0.807567 0
M  V30 2051 C 214.757 1.13517 1.26681 0
M  V30 2052 O 215.942 1.41809 1.32679 0
M  V30 2053 C 213.072 2.80188 2.05212 0
M  V30 2054 C 212.026 3.91471 1.73015 0
M  V30 2055 C 211.352 4.39443 3.04622 0
M  V30 2056 C 212.652 5.12886 0.987168 0
M  V30 2057 H 214.346 2.97988 0.290403 0
M  V30 2058 H 211.892 1.43335 0.138239 0
M  V30 2059 H 213.845 3.22264 2.71521 0
M  V30 2060 H 212.569 1.98601 2.59278 0
M  V30 2061 H 211.228 3.49993 1.0909 0
M  V30 2062 H 210.876 3.54695 3.56651 0
M  V30 2063 H 210.576 5.14495 2.83847 0
M  V30 2064 H 212.1 4.8418 3.72024 0
M  V30 2065 H 213.514 5.51891 1.55208 0
M  V30 2066 H 211.911 5.93615 0.87985 0
M  V30 2067 H 212.981 4.84894 -0.0235286 0
M  V30 2068 N 214.325 -0.140222 1.56975 0
M  V30 2069 C 215.553 -0.866437 1.87884 0
M  V30 2070 C 215.968 -1.74428 0.722517 0
M  V30 2071 O 215.325 -1.79891 -0.30749 0
M  V30 2072 C 215.376 -1.71753 3.18093 0
M  V30 2073 O 215.097 -0.875056 4.29272 0
M  V30 2074 C 216.598 -2.55074 3.62563 0
M  V30 2075 H 213.818 -0.25019 0.622612 0
M  V30 2076 H 216.362 -0.130977 2.0408 0
M  V30 2077 H 214.517 -2.40598 3.03631 0
M  V30 2078 H 214.931 -1.46002 5.03769 0
M  V30 2079 H 216.405 -3.10356 4.5649 0
M  V30 2080 H 216.882 -3.31434 2.88181 0
M  V30 2081 H 217.488 -1.91509 3.79743 0
M  V30 2082 N 215.803 -1.52179 -0.40978 0
M  V30 2083 C 217.028 -1.70347 -1.18308 0
M  V30 2084 C 217.453 -0.411887 -1.83535 0
M  V30 2085 O 216.811 0.630587 -1.6998 0
M  V30 2086 C 216.859 -2.83977 -2.22238 0
M  V30 2087 O 215.963 -2.495 -3.28365 0
M  V30 2088 H 215.304 -0.567103 -0.345384 0
M  V30 2089 H 217.834 -1.98879 -0.480445 0
M  V30 2090 H 217.844 -3.0887 -2.66577 0
M  V30 2091 H 216.519 -3.77685 -1.74146 0
M  V30 2092 H 215.096 -2.35277 -2.89308 0
M  V30 2093 N 217.281 0.66697 -1.42791 0
M  V30 2094 C 218.511 1.45294 -1.46878 0
M  V30 2095 C 218.919 1.89027 -0.0809861 0
M  V30 2096 O 218.262 1.59219 0.916246 0
M  V30 2097 C 218.324 2.72908 -2.34012 0
M  V30 2098 C 217.988 2.51203 -3.81767 0
M  V30 2099 C 218.985 2.15302 -4.73224 0
M  V30 2100 C 216.67 2.65954 -4.26115 0
M  V30 2101 C 218.664 1.94431 -6.07022 0
M  V30 2102 C 216.351 2.44699 -5.59969 0
M  V30 2103 C 217.349 2.08992 -6.5024 0
M  V30 2104 O 217.037 1.87948 -7.81621 0
M  V30 2105 H 216.769 0.453306 -0.501487 0
M  V30 2106 H 219.323 0.826232 -1.88049 0
M  V30 2107 H 217.553 3.38089 -1.87703 0
M  V30 2108 H 219.242 3.34816 -2.29462 0
M  V30 2109 H 220.008 2.03495 -4.40244 0
M  V30 2110 H 215.887 2.92724 -3.56137 0
M  V30 2111 H 219.431 1.66484 -6.77443 0
M  V30 2112 H 215.328 2.56105 -5.9252 0
M  V30 2113 H 216.096 2.02483 -7.93059 0
M  V30 2114 N 218.759 1.29093 0.90403 0
M  V30 2115 C 220.175 1.07011 1.1841 0
M  V30 2116 C 220.375 -0.181358 2.00682 0
M  V30 2117 O 219.431 -0.880331 2.36657 0
M  V30 2118 C 220.744 2.32311 1.90924 0
M  V30 2119 C 222.292 2.37587 2.03768 0
M  V30 2120 C 222.767 3.62679 2.79693 0
M  V30 2121 N 224.258 3.63376 2.87249 0
M  V30 2122 C 224.993 4.56848 3.46522 0
M  V30 2123 N 224.489 5.60648 4.06996 0
M  V30 2124 N 226.282 4.44426 3.44154 0
M  V30 2125 H 218.433 2.09412 0.354993 0
M  V30 2126 H 220.696 0.922181 0.219742 0
M  V30 2127 H 220.402 3.23536 1.37905 0
M  V30 2128 H 220.276 2.39483 2.91424 0
M  V30 2129 H 222.663 1.46853 2.55965 0
M  V30 2130 H 222.744 2.34403 1.02415 0
M  V30 2131 H 222.388 4.53762 2.28173 0
M  V30 2132 H 222.318 3.63119 3.81381 0
M  V30 2133 H 224.809 2.88321 2.44293 0
M  V30 2134 H 225.122 6.28101 4.50232 0
M  V30 2135 H 223.467 5.64463 4.05471 0
M  V30 2136 H 226.658 3.62529 2.96126 0
M  V30 2137 H 226.831 5.17457 3.90054 0
M  V30 2138 N 220.237 -1.11381 1.11499 0
M  V30 2139 C 221.184 -2.17439 0.773887 0
M  V30 2140 C 222.154 -1.64132 -0.254899 0
M  V30 2141 O 223.339 -1.90345 -0.13168 0
M  V30 2142 C 220.479 -3.44373 0.223917 0
M  V30 2143 C 219.592 -4.1168 1.30934 0
M  V30 2144 C 218.727 -5.263 0.71984 0
M  V30 2145 C 217.766 -5.85493 1.78507 0
M  V30 2146 N 216.903 -6.91507 1.21502 0
M  V30 2147 H 221.743 -2.45962 1.68246 0
M  V30 2148 H 219.28 -1.20744 0.840191 0
M  V30 2149 H 221.238 -4.17047 -0.112921 0
M  V30 2150 H 219.868 -3.16232 -0.647851 0
M  V30 2151 H 218.92 -3.37073 1.76312 0
M  V30 2152 H 220.232 -4.51729 2.11524 0
M  V30 2153 H 219.386 -6.05785 0.333094 0
M  V30 2154 H 218.125 -4.87559 -0.117377 0
M  V30 2155 H 217.13 -5.04686 2.18111 0
M  V30 2156 H 218.355 -6.26301 2.62533 0
M  V30 2157 H 216.301 -6.54783 0.399455 0
M  V30 2158 H 216.218 -7.30214 1.95763 0
M  V30 2159 H 217.486 -7.74795 0.855181 0
M  V30 2160 N 221.715 -0.905404 -1.28997 0
M  V30 2161 C 222.662 -0.385892 -2.27551 0
M  V30 2162 C 223.632 0.535113 -1.57244 0
M  V30 2163 O 224.817 0.459119 -1.85194 0
M  V30 2164 C 221.957 0.375461 -3.43051 0
M  V30 2165 C 221.07 -0.577092 -4.28128 0
M  V30 2166 C 220.205 0.201879 -5.30816 0
M  V30 2167 C 219.244 -0.744829 -6.07551 0
M  V30 2168 N 218.381 9.42587e-05 -7.021 0
M  V30 2169 H 223.221 -1.23139 -2.71368 0
M  V30 2170 H 220.758 -0.618542 -1.33463 0
M  V30 2171 H 222.716 0.832992 -4.088 0
M  V30 2172 H 221.346 1.18537 -3.00248 0
M  V30 2173 H 220.398 -1.15315 -3.62501 0
M  V30 2174 H 221.71 -1.30152 -4.8152 0
M  V30 2175 H 220.864 0.720351 -6.02408 0
M  V30 2176 H 219.603 0.959413 -4.7817 0
M  V30 2177 H 218.608 -1.27475 -5.34818 0
M  V30 2178 H 219.833 -1.50178 -6.62286 0
M  V30 2179 H 217.779 0.739791 -6.51815 0
M  V30 2180 H 217.696 -0.664321 -7.53076 0
M  V30 2181 H 218.964 0.498644 -7.77903 0
M  V30 2182 N 223.193 1.4272 -0.668489 0
M  V30 2183 C 224.421 2.05966 -0.196348 0
M  V30 2184 C 224.836 1.50191 1.14403 0
M  V30 2185 O 224.193 0.639208 1.7094 0
M  V30 2186 C 224.244 3.61314 -0.115815 0
M  V30 2187 O 223.965 4.1502 -1.40322 0
M  V30 2188 C 225.466 4.41663 0.380579 0
M  V30 2189 H 222.686 0.663954 -0.0969829 0
M  V30 2190 H 225.23 1.82966 -0.913446 0
M  V30 2191 H 223.385 3.83448 0.551931 0
M  V30 2192 H 223.799 5.08832 -1.27243 0
M  V30 2193 H 225.273 5.5065 0.385848 0
M  V30 2194 H 225.75 4.15792 1.41471 0
M  V30 2195 H 226.356 4.24534 -0.255209 0
M  V30 2196 N 224.671 0.411399 1.52136 0
M  V30 2197 C 225.917 -0.163888 2.02137 0
M  V30 2198 C 226.25 -1.44597 1.29636 0
M  V30 2199 O 225.525 -1.90272 0.403353 0
M  V30 2200 C 225.808 -0.40927 3.57767 0
M  V30 2201 C 225.661 0.889643 4.40914 0
M  V30 2202 C 226.98 -1.19042 4.23694 0
M  V30 2203 H 224.099 -0.0580896 0.734707 0
M  V30 2204 H 226.741 0.54531 1.82007 0
M  V30 2205 H 224.891 -1.0134 3.7505 0
M  V30 2206 H 226.563 1.52575 4.35337 0
M  V30 2207 H 224.806 1.50011 4.07037 0
M  V30 2208 H 225.477 0.672314 5.4789 0
M  V30 2209 H 227.953 -0.678942 4.10524 0
M  V30 2210 H 226.829 -1.33086 5.32522 0
M  V30 2211 H 227.09 -2.21166 3.82803 0
M  V30 2212 N 226.149 -1.5696 0.141893 0
M  V30 2213 C 227.079 -2.19516 -0.795936 0
M  V30 2214 C 228.06 -1.14187 -1.26077 0
M  V30 2215 O 229.245 -1.42511 -1.31925 0
M  V30 2216 C 226.375 -2.81272 -2.03723 0
M  V30 2217 C 225.329 -3.92384 -1.70936 0
M  V30 2218 C 224.655 -4.41052 -3.02287 0
M  V30 2219 C 225.955 -5.13403 -0.959954 0
M  V30 2220 H 227.649 -2.98138 -0.274596 0
M  V30 2221 H 225.195 -1.43406 -0.130636 0
M  V30 2222 H 227.148 -3.237 -2.69808 0
M  V30 2223 H 225.872 -1.99973 -2.58221 0
M  V30 2224 H 224.531 -3.50566 -1.07232 0
M  V30 2225 H 224.179 -3.56582 -3.54765 0
M  V30 2226 H 223.879 -5.15993 -2.81114 0
M  V30 2227 H 225.403 -4.86146 -3.69451 0
M  V30 2228 H 226.817 -5.52706 -1.52279 0
M  V30 2229 H 225.214 -5.94073 -0.848357 0
M  V30 2230 H 226.284 -4.84875 0.0492434 0
M  V30 2231 N 227.627 0.131896 -1.57047 0
M  V30 2232 C 228.875 0.840269 -1.83804 0
M  V30 2233 C 229.196 1.81017 -0.72512 0
M  V30 2234 O 228.466 1.94272 0.251995 0
M  V30 2235 H 227.046 0.313294 -0.678127 0
M  V30 2236 H 229.708 0.122294 -1.94516 0
M  V30 2237 H 228.804 1.39335 -2.79271 0
M  V30 2238 N 229.106 1.52395 0.401703 0
M  V30 2239 C 230.069 1.75636 1.47257 0
M  V30 2240 C 231.069 0.62628 1.48103 0
M  V30 2241 O 232.259 0.894227 1.49497 0
M  V30 2242 C 229.391 1.84553 2.86624 0
M  V30 2243 H 230.584 2.71241 1.27938 0
M  V30 2244 H 228.137 1.42923 0.632662 0
M  V30 2245 H 228.872 0.908882 3.11303 0
M  V30 2246 H 228.657 2.66715 2.87412 0
M  V30 2247 H 230.147 2.04251 3.64241 0
M  V30 2248 N 230.584 -0.659388 1.43143 0
M  V30 2249 C 231.861 -1.41627 1.34912 0
M  V30 2250 C 232.241 -2.11099 -0.00607785 0
M  V30 2251 O 231.589 -2.04353 -1.02236 0
M  V30 2252 C 231.799 -2.40604 2.52805 0
M  V30 2253 C 233.147 -3.04789 2.95616 0
M  V30 2254 O 234.171 -2.50932 2.52807 0
M  V30 2255 O 233.03 -4.02421 3.69756 0
M  V30 2256 H 230.124 -0.63246 0.532844 0
M  V30 2257 H 232.67 -0.686814 1.5518 0
M  V30 2258 H 231.442 -1.88174 3.43083 0
M  V30 2259 H 231.065 -3.21009 2.34604 0
M  V30 2260 N 232.062 -1.29571 -0.897171 0
M  V30 2261 C 233.287 -1.20705 -1.68656 0
M  V30 2262 C 233.712 0.228582 -1.86706 0
M  V30 2263 O 233.07 1.16494 -1.3892 0
M  V30 2264 C 233.118 -1.9282 -3.04717 0
M  V30 2265 O 232.222 -1.24697 -3.93096 0
M  V30 2266 H 231.563 -0.418126 -0.515816 0
M  V30 2267 H 234.093 -1.71183 -1.12061 0
M  V30 2268 H 234.103 -2.01372 -3.54843 0
M  V30 2269 H 232.778 -2.97239 -2.90899 0
M  V30 2270 H 231.355 -1.2442 -3.51531 0
M  V30 2271 N 233.54 1.10788 -1.12088 0
M  V30 2272 C 234.472 2.16816 -0.743213 0
M  V30 2273 C 235.485 1.6119 0.228412 0
M  V30 2274 O 236.674 1.78497 0.0102931 0
M  V30 2275 C 233.774 3.38809 -0.0787313 0
M  V30 2276 C 232.947 4.23885 -1.0789 0
M  V30 2277 C 232.006 5.24334 -0.442713 0
M  V30 2278 O 231.032 5.58497 -1.09864 0
M  V30 2279 N 232.234 5.75079 0.791457 0
M  V30 2280 H 234.999 2.49825 -1.65552 0
M  V30 2281 H 232.56 1.26373 -1.012 0
M  V30 2282 H 234.552 4.03107 0.358766 0
M  V30 2283 H 233.122 3.03805 0.736275 0
M  V30 2284 H 232.342 3.55939 -1.69414 0
M  V30 2285 H 233.63 4.77562 -1.75533 0
M  V30 2286 H 233.028 5.49517 1.3434 0
M  V30 2287 H 231.585 6.4118 1.17183 0
M  V30 2288 N 235.018 0.912232 1.28515 0
M  V30 2289 C 236.434 0.610159 1.47476 0
M  V30 2290 C 236.634 -0.844955 1.82928 0
M  V30 2291 O 235.69 -1.62416 1.93332 0
M  V30 2292 C 237.003 1.54675 2.57868 0
M  V30 2293 C 238.551 1.55331 2.71738 0
M  V30 2294 C 239.026 2.47649 3.85272 0
M  V30 2295 N 240.517 2.45767 3.92623 0
M  V30 2296 C 241.252 3.13896 4.79851 0
M  V30 2297 N 240.748 3.9135 5.71679 0
M  V30 2298 N 242.541 3.02991 4.73448 0
M  V30 2299 H 234.692 1.85318 1.03783 0
M  V30 2300 H 236.955 0.794777 0.516753 0
M  V30 2301 H 236.661 2.5841 2.38574 0
M  V30 2302 H 236.535 1.27671 3.54937 0
M  V30 2303 H 238.922 0.52335 2.90422 0
M  V30 2304 H 239.003 1.86378 1.75205 0
M  V30 2305 H 238.647 3.50745 3.67342 0
M  V30 2306 H 238.577 2.13904 4.81199 0
M  V30 2307 H 241.068 1.89503 3.26951 0
M  V30 2308 H 241.381 4.40359 6.35062 0
M  V30 2309 H 239.726 3.95455 5.71524 0
M  V30 2310 H 242.917 2.41987 4.007 0
M  V30 2311 H 243.09 3.5636 5.41213 0
M  V30 2312 N 236.496 -1.42363 0.676048 0
M  V30 2313 C 237.912 -1.55811 0.345718 0
M  V30 2314 C 238.112 -1.65544 -1.14879 0
M  V30 2315 O 237.168 -1.62306 -1.93424 0
M  V30 2316 C 238.481 -2.80746 1.07713 0
M  V30 2317 C 240.029 -2.9452 1.05958 0
M  V30 2318 C 240.504 -4.22318 1.77233 0
M  V30 2319 N 241.995 -4.29233 1.74108 0
M  V30 2320 C 242.73 -5.26935 2.26113 0
M  V30 2321 N 242.226 -6.30783 2.86505 0
M  V30 2322 N 244.019 -5.18741 2.1648 0
M  V30 2323 H 236.17 -1.34289 1.6456 0
M  V30 2324 H 238.433 -0.646506 0.69335 0
M  V30 2325 H 238.139 -2.79696 2.13221 0
M  V30 2326 H 238.013 -3.71676 0.64316 0
M  V30 2327 H 240.4 -2.95097 0.0128255 0
M  V30 2328 H 240.481 -2.04817 1.53244 0
M  V30 2329 H 240.125 -4.22502 2.81877 0
M  V30 2330 H 240.055 -5.10958 1.27396 0
M  V30 2331 H 242.546 -3.54814 1.30059 0
M  V30 2332 H 242.859 -7.01691 3.23805 0
M  V30 2333 H 241.204 -6.31341 2.90575 0
M  V30 2334 H 244.395 -4.36533 1.68987 0
M  V30 2335 H 244.568 -5.94721 2.57316 0
M  V30 2336 N 237.974 -0.419461 -1.51915 0
M  V30 2337 C 239.199 0.154572 -2.06823 0
M  V30 2338 C 239.624 1.3722 -1.28656 0
M  V30 2339 O 238.982 1.78461 -0.319583 0
M  V30 2340 C 239.03 0.473172 -3.57482 0
M  V30 2341 O 238.134 1.56255 -3.81652 0
M  V30 2342 H 237.475 0.0096924 -0.663929 0
M  V30 2343 H 240.005 -0.595642 -1.95738 0
M  V30 2344 H 240.015 0.728825 -4.01438 0
M  V30 2345 H 238.69 -0.416873 -4.13805 0
M  V30 2346 H 237.267 1.29825 -3.49571 0
M  V30 2347 N 239.452 1.56882 -0.150215 0
M  V30 2348 C 240.863 1.82995 0.370076 0
M  V30 2349 C 241.214 1.06907 1.64515 0
M  V30 2350 O 240.339 0.315369 2.1409 0
M  V30 2351 C 240.934 3.31942 0.678208 0
M  V30 2352 C 239.493 3.58625 1.14301 0
M  V30 2353 C 238.64 2.76792 0.167778 0
M  V30 2354 H 241.591 1.54209 -0.374858 0
M  V30 2355 H 241.612 3.48272 1.53254 0
M  V30 2356 H 241.124 3.87294 -0.249991 0
M  V30 2357 H 239.225 3.08664 2.08704 0
M  V30 2358 H 239.338 4.67073 1.06676 0
M  V30 2359 H 237.702 2.45972 0.661037 0
M  V30 2360 H 238.485 3.34916 -0.754069 0
M  V30 2361 N 240.93 -0.123565 1.57115 0
M  V30 2362 C 242.155 -0.850398 1.89164 0
M  V30 2363 C 242.58 -1.7286 0.741688 0
M  V30 2364 O 241.938 -1.78665 -0.307958 0
M  V30 2365 C 241.986 -1.66353 3.19936 0
M  V30 2366 O 241.09 -2.77004 3.0552 0
M  V30 2367 H 240.431 -0.235454 0.620852 0
M  V30 2368 H 242.961 -0.107335 2.04318 0
M  V30 2369 H 242.971 -2.05372 3.52543 0
M  V30 2370 H 241.646 -1.01881 4.03228 0
M  V30 2371 H 240.223 -2.41221 2.84371 0
M  V30 2372 N 242.408 -1.52605 -0.393616 0
M  V30 2373 C 243.636 -1.71294 -1.16043 0
M  V30 2374 C 244.051 -0.429259 -1.83855 0
M  V30 2375 O 243.408 0.595921 -1.72496 0
M  V30 2376 C 243.459 -2.8593 -2.21193 0
M  V30 2377 O 243.18 -4.09329 -1.56146 0
M  V30 2378 C 244.681 -3.16259 -3.10636 0
M  V30 2379 H 241.901 -0.573641 -0.348104 0
M  V30 2380 H 244.445 -1.99234 -0.461092 0
M  V30 2381 H 242.6 -2.60465 -2.86769 0
M  V30 2382 H 243.014 -4.73323 -2.25978 0
M  V30 2383 H 244.488 -3.99946 -3.80456 0
M  V30 2384 H 244.965 -2.3045 -3.73884 0
M  V30 2385 H 245.571 -3.43547 -2.50711 0
M  V30 2386 N 243.887 0.651787 -1.4349 0
M  V30 2387 C 245.135 1.40888 -1.44897 0
M  V30 2388 C 245.456 1.94856 -0.0749086 0
M  V30 2389 O 244.726 1.74518 0.889956 0
M  V30 2390 H 243.306 0.522887 -0.533478 0
M  V30 2391 H 245.968 0.768609 -1.79104 0
M  V30 2392 H 245.064 2.25052 -2.16236 0
M  V30 2393 N 245.365 1.30045 0.890287 0
M  V30 2394 C 246.776 1.16738 1.45702 0
M  V30 2395 C 247.127 -0.233939 1.948 0
M  V30 2396 O 246.252 -1.13021 1.84541 0
M  V30 2397 C 246.847 2.11313 2.64825 0
M  V30 2398 C 245.406 2.02001 3.17604 0
M  V30 2399 C 244.553 2.01699 1.90296 0
M  V30 2400 H 247.504 1.42392 0.700726 0
M  V30 2401 H 247.525 1.69086 3.40867 0
M  V30 2402 H 247.037 3.13294 2.2906 0
M  V30 2403 H 245.138 1.03142 3.5804 0
M  V30 2404 H 245.251 2.90128 3.81264 0
M  V30 2405 H 243.615 1.46427 2.08402 0
M  V30 2406 H 244.398 3.05402 1.56795 0
M  V30 2407 N 246.843 -1.10192 1.12674 0
M  V30 2408 C 248.089 -1.82658 0.894847 0
M  V30 2409 C 248.444 -1.83666 -0.573107 0
M  V30 2410 O 247.737 -1.28816 -1.41835 0
M  V30 2411 C 247.931 -3.28552 1.4067 0
M  V30 2412 C 247.76 -3.41756 2.92289 0
M  V30 2413 C 246.53 -3.54021 3.60551 0
M  V30 2414 C 248.728 -3.34949 3.90274 0
M  V30 2415 N 246.71 -3.55827 5.0026 0
M  V30 2416 C 248.081 -3.43531 5.16127 0
M  V30 2417 C 250.136 -3.18565 3.8265 0
M  V30 2418 C 248.839 -3.37416 6.3525 0
M  V30 2419 C 250.865 -3.13772 5.01299 0
M  V30 2420 C 250.227 -3.22938 6.26012 0
M  V30 2421 H 246.326 -0.683044 0.380756 0
M  V30 2422 H 248.91 -1.31752 1.43351 0
M  V30 2423 H 247.081 -3.77946 0.895055 0
M  V30 2424 H 248.813 -3.88991 1.11661 0
M  V30 2425 H 245.568 -3.57135 3.1105 0
M  V30 2426 H 245.992 -3.60335 5.73138 0
M  V30 2427 H 250.634 -3.10354 2.87124 0
M  V30 2428 H 248.352 -3.44391 7.3104 0
M  V30 2429 H 251.938 -3.02242 4.97133 0
M  V30 2430 H 250.818 -3.19235 7.16281 0
M  V30 2431 N 248.321 -0.919034 -1.28029 0
M  V30 2432 C 249.732 -0.600735 -1.76771 0
M  V30 2433 C 250.083 0.884024 -1.75156 0
M  V30 2434 O 249.208 1.69163 -1.34956 0
M  V30 2435 C 249.803 -1.08372 -3.21 0
M  V30 2436 C 248.362 -0.816248 -3.67443 0
M  V30 2437 C 247.509 -1.24742 -2.47658 0
M  V30 2438 H 250.46 -1.09974 -1.14418 0
M  V30 2439 H 250.481 -0.427512 -3.78091 0
M  V30 2440 H 249.993 -2.16437 -3.22144 0
M  V30 2441 H 248.094 0.250968 -3.71754 0
M  V30 2442 H 248.207 -1.4277 -4.57333 0
M  V30 2443 H 246.571 -0.666083 -2.45836 0
M  V30 2444 H 247.354 -2.33653 -2.51518 0
M  V30 2445 N 249.799 1.42003 -0.683588 0
M  V30 2446 C 251.039 2.03282 -0.213513 0
M  V30 2447 C 251.403 1.52924 1.16097 0
M  V30 2448 O 252.604 2.06048 1.7262 0
M  V30 2449 C 250.875 3.56483 -0.255856 0
M  V30 2450 S 252.434 4.3857 0.14193 0
M  V30 2451 H 249.252 0.705659 -0.0869853 0
M  V30 2452 H 251.854 1.73619 -0.8987 0
M  V30 2453 H 250.558 3.90631 -1.25841 0
M  V30 2454 H 250.089 3.90831 0.448875 0
M  V30 2455 H 252.104 4.76828 1.37295 0
M  V30 2456 N 251.277 0.427512 1.51691 0
M  V30 2457 C 252.688 -0.0378867 1.86662 0
M  V30 2458 C 253.039 -1.42819 1.34525 0
M  V30 2459 O 252.164 -2.05037 0.692014 0
M  V30 2460 C 252.759 -0.0755266 3.38716 0
M  V30 2461 C 251.318 -0.485309 3.73258 0
M  V30 2462 C 250.465 0.328399 2.75349 0
M  V30 2463 H 253.416 0.64379 1.45055 0
M  V30 2464 H 253.437 -0.887056 3.70016 0
M  V30 2465 H 252.949 0.936487 3.76632 0
M  V30 2466 H 251.05 -1.50329 3.40928 0
M  V30 2467 H 251.163 -0.21693 4.78609 0
M  V30 2468 H 249.527 -0.211905 2.53817 0
M  V30 2469 H 250.31 1.3391 3.16106 0
M  V30 2470 N 252.755 -1.56801 0.158532 0
M  V30 2471 C 253.687 -2.14488 -0.807923 0
M  V30 2472 C 254.7 -1.09721 -1.20271 0
M  V30 2473 O 255.889 -1.36956 -1.14478 0
M  V30 2474 C 252.989 -2.66217 -2.09718 0
M  V30 2475 C 252.162 -3.95507 -1.86796 0
M  V30 2476 C 251.221 -4.3243 -2.99818 0
M  V30 2477 O 250.247 -5.00543 -2.71008 0
M  V30 2478 N 251.449 -3.92947 -4.27285 0
M  V30 2479 H 254.214 -2.98042 -0.314816 0
M  V30 2480 H 251.775 -1.61881 -0.0246692 0
M  V30 2481 H 253.767 -2.87924 -2.84398 0
M  V30 2482 H 252.337 -1.87324 -2.50257 0
M  V30 2483 H 251.557 -3.82309 -0.96089 0
M  V30 2484 H 252.845 -4.79972 -1.68833 0
M  V30 2485 H 252.243 -3.38087 -4.53557 0
M  V30 2486 H 250.8 -4.19681 -4.9871 0
M  V30 2487 N 254.233 0.115231 -1.57178 0
M  V30 2488 C 255.51 0.852873 -1.76027 0
M  V30 2489 C 255.89 1.97892 -0.73498 0
M  V30 2490 O 255.238 2.27232 0.24036 0
M  V30 2491 C 255.448 1.36608 -3.21153 0
M  V30 2492 C 256.796 1.81692 -3.83762 0
M  V30 2493 O 257.82 1.46278 -3.24779 0
M  V30 2494 O 256.679 2.47104 -4.87444 0
M  V30 2495 H 253.773 0.405296 -0.720877 0
M  V30 2496 H 256.319 0.0986785 -1.69413 0
M  V30 2497 H 255.091 0.558357 -3.87296 0
M  V30 2498 H 254.714 2.18287 -3.3232 0
M  V30 2499 N 255.711 1.52812 0.385517 0
M  V30 2500 C 257.122 1.5993 0.963293 0
M  V30 2501 C 257.473 0.454302 1.90868 0
M  V30 2502 O 256.598 -0.422132 2.12243 0
M  V30 2503 C 257.193 2.89871 1.75387 0
M  V30 2504 C 255.752 2.99389 2.28129 0
M  V30 2505 C 254.899 2.55071 1.08783 0
M  V30 2506 H 257.85 1.5784 0.164948 0
M  V30 2507 H 257.871 2.76553 2.61341 0
M  V30 2508 H 257.383 3.73186 1.06554 0
M  V30 2509 H 255.484 2.20619 3.00263 0
M  V30 2510 H 255.597 4.04096 2.57377 0
M  V30 2511 H 253.961 2.09473 1.4489 0
M  V30 2512 H 254.744 3.40785 0.414807 0
M  V30 2513 N 257.189 -0.644168 1.43834 0
M  V30 2514 C 258.119 -1.76814 1.52509 0
M  V30 2515 C 259.1 -1.65823 0.379052 0
M  V30 2516 O 260.285 -1.84781 0.597466 0
M  V30 2517 C 257.415 -3.15288 1.4564 0
M  V30 2518 C 256.369 -3.41053 2.58586 0
M  V30 2519 C 255.695 -4.79421 2.36769 0
M  V30 2520 C 256.995 -3.34902 4.00797 0
M  V30 2521 H 258.689 -1.69812 2.46586 0
M  V30 2522 H 256.235 -0.815542 1.1868 0
M  V30 2523 H 258.188 -3.93681 1.50311 0
M  V30 2524 H 256.912 -3.23043 0.480725 0
M  V30 2525 H 255.571 -2.65035 2.53282 0
M  V30 2526 H 255.219 -4.83863 1.37424 0
M  V30 2527 H 254.919 -4.9762 3.12487 0
M  V30 2528 H 256.443 -5.6006 2.43238 0
M  V30 2529 H 257.857 -4.03218 4.07539 0
M  V30 2530 H 256.254 -3.64637 4.76613 0
M  V30 2531 H 257.324 -2.32928 4.25291 0
M  V30 2532 N 258.668 -1.30515 -0.883378 0
M  V30 2533 C 259.916 -1.19194 -1.63209 0
M  V30 2534 C 260.237 0.253205 -1.93349 0
M  V30 2535 O 259.507 1.17025 -1.57105 0
M  V30 2536 H 258.087 -0.438148 -0.605009 0
M  V30 2537 H 260.749 -1.63663 -1.05832 0
M  V30 2538 H 259.845 -1.75396 -2.58153 0
M  V30 2539 N 260.146 1.09593 -1.13257 0
M  V30 2540 C 261.109 2.14359 -0.811358 0
M  V30 2541 C 262.109 1.59808 0.178377 0
M  V30 2542 O 263.299 1.74132 -0.0484911 0
M  V30 2543 C 260.431 3.40269 -0.207276 0
M  V30 2544 H 261.624 2.44284 -1.73969 0
M  V30 2545 H 259.177 1.25102 -0.936973 0
M  V30 2546 H 259.912 3.15969 0.73036 0
M  V30 2547 H 259.697 3.81154 -0.919992 0
M  V30 2548 H 261.187 4.176 0.000667944 0
M  V30 2549 N 261.624 0.925811 1.2754 0
M  V30 2550 C 262.587 0.428129 2.25166 0
M  V30 2551 C 263.587 -0.452261 1.54309 0
M  V30 2552 O 264.777 -0.253608 1.72344 0
M  V30 2553 C 261.909 -0.384749 3.38722 0
M  V30 2554 H 263.102 1.29066 2.70706 0
M  V30 2555 H 260.655 0.706323 1.3943 0
M  V30 2556 H 261.39 -1.26618 2.98561 0
M  V30 2557 H 261.175 0.246454 3.91325 0
M  V30 2558 H 262.665 -0.723389 4.11287 0
M  V30 2559 N 263.102 -1.41638 0.69111 0
M  V30 2560 C 264.518 -1.55435 0.362224 0
M  V30 2561 C 264.718 -1.66754 -1.13117 0
M  V30 2562 O 263.774 -1.64348 -1.91692 0
M  V30 2563 C 265.087 -2.79588 1.10684 0
M  V30 2564 C 266.635 -2.9338 1.09075 0
M  V30 2565 C 267.11 -4.20414 1.81703 0
M  V30 2566 N 268.601 -4.27362 1.7865 0
M  V30 2567 C 269.336 -5.24507 2.31689 0
M  V30 2568 N 268.832 -6.27708 2.93179 0
M  V30 2569 N 270.625 -5.16416 2.2197 0
M  V30 2570 H 262.776 -1.32536 1.65976 0
M  V30 2571 H 265.039 -0.639115 0.700168 0
M  V30 2572 H 264.745 -2.77419 2.16175 0
M  V30 2573 H 264.619 -3.70973 0.682545 0
M  V30 2574 H 267.006 -2.95067 0.0441238 0
M  V30 2575 H 267.087 -2.0318 1.55407 0
M  V30 2576 H 266.731 -4.19488 2.86343 0
M  V30 2577 H 266.661 -5.09578 1.32808 0
M  V30 2578 H 269.152 -3.53415 1.33815 0
M  V30 2579 H 269.465 -6.98217 3.31229 0
M  V30 2580 H 267.81 -6.28223 2.97255 0
M  V30 2581 H 271.001 -4.34716 1.73607 0
M  V30 2582 H 271.174 -5.91958 2.63609 0
M  V30 2583 N 264.58 -0.43555 -1.51462 0
M  V30 2584 C 265.82 0.130708 -2.03982 0
M  V30 2585 C 266.184 1.40117 -1.31268 0
M  V30 2586 O 267.385 2.04755 -1.74152 0
M  V30 2587 C 265.656 0.346102 -3.5572 0
M  V30 2588 S 267.215 0.876022 -4.29967 0
M  V30 2589 H 264.033 0.0326881 -0.710248 0
M  V30 2590 H 266.635 -0.594544 -1.8624 0
M  V30 2591 H 265.339 -0.584911 -4.0621 0
M  V30 2592 H 264.87 1.09849 -3.77752 0
M  V30 2593 H 266.885 2.15379 -4.47019 0
M  V30 2594 N 266.058 1.56714 -0.166846 0
M  V30 2595 C 267.304 1.97039 0.479962 0
M  V30 2596 C 267.637 1.05264 1.63197 0
M  V30 2597 O 266.912 0.0988833 1.94248 0
M  V30 2598 C 267.195 3.46867 0.967212 0
M  V30 2599 C 267.048 4.49421 -0.18466 0
M  V30 2600 C 268.367 3.9968 1.84238 0
M  V30 2601 H 265.486 0.71641 0.172992 0
M  V30 2602 H 268.128 1.8832 -0.252079 0
M  V30 2603 H 266.278 3.54428 1.59101 0
M  V30 2604 H 267.95 4.53924 -0.821621 0
M  V30 2605 H 266.193 4.25573 -0.840837 0
M  V30 2606 H 266.864 5.51644 0.198317 0
M  V30 2607 H 269.34 3.94723 1.31655 0
M  V30 2608 H 268.216 5.04941 2.15234 0
M  V30 2609 H 268.477 3.43226 2.78654 0
M  V30 2610 N 267.536 -0.106894 1.57237 0
M  V30 2611 C 268.782 -0.81373 1.85759 0
M  V30 2612 C 269.115 -1.78952 0.754315 0
M  V30 2613 O 268.39 -1.93029 -0.23879 0
M  V30 2614 C 268.673 -1.55293 3.24894 0
M  V30 2615 C 268.526 -0.595929 4.45835 0
M  V30 2616 C 269.845 -2.5063 3.61763 0
M  V30 2617 H 266.964 -0.294369 0.67566 0
M  V30 2618 H 269.606 -0.0776472 1.89841 0
M  V30 2619 H 267.756 -2.1804 3.21544 0
M  V30 2620 H 269.428 0.0236262 4.61294 0
M  V30 2621 H 267.671 0.0916191 4.33703 0
M  V30 2622 H 268.342 -1.15004 5.39887 0
M  V30 2623 H 270.818 -1.97982 3.65981 0
M  V30 2624 H 269.694 -2.99376 4.60071 0
M  V30 2625 H 269.955 -3.3385 2.89821 0
M  V30 2626 N 269.014 -1.53014 -0.377408 0
M  V30 2627 C 269.964 -1.74996 -1.46152 0
M  V30 2628 C 270.948 -0.604236 -1.49123 0
M  V30 2629 O 272.14 -0.862489 -1.54564 0
M  V30 2630 C 269.269 -1.93267 -2.8373 0
M  V30 2631 C 268.355 -3.13807 -2.85283 0
M  V30 2632 N 268.746 -4.35941 -2.56493 0
M  V30 2633 C 267.044 -3.14288 -3.16448 0
M  V30 2634 C 267.745 -5.17615 -2.65424 0
M  V30 2635 N 266.721 -4.53559 -2.99641 0
M  V30 2636 H 270.523 -2.67044 -1.22738 0
M  V30 2637 H 268.037 -1.51479 -0.585479 0
M  V30 2638 H 270.034 -2.0714 -3.61799 0
M  V30 2639 H 268.694 -1.0244 -3.08117 0
M  V30 2640 H 269.705 -4.63876 -2.30302 0
M  V30 2641 H 266.382 -2.33312 -3.46225 0
M  V30 2642 H 267.772 -6.25006 -2.46612 0
M  V30 2643 N 270.492 0.636531 -1.44174 0
M  V30 2644 C 271.74 1.39343 -1.46383 0
M  V30 2645 C 272.061 1.94766 -0.0955715 0
M  V30 2646 O 271.331 1.75452 0.871395 0
M  V30 2647 H 269.911 0.517199 -0.538994 0
M  V30 2648 H 272.573 0.74957 -1.7991 0
M  V30 2649 H 271.669 2.22746 -2.18611 0
M  V30 2650 N 271.97 1.30982 0.876444 0
M  V30 2651 C 272.933 1.18054 1.96459 0
M  V30 2652 C 273.933 0.109399 1.60427 0
M  V30 2653 O 275.123 0.358173 1.70478 0
M  V30 2654 C 272.255 0.810616 3.31122 0
M  V30 2655 H 273.448 2.14735 2.09354 0
M  V30 2656 H 271.001 1.145 1.06392 0
M  V30 2657 H 271.736 -0.155322 3.23928 0
M  V30 2658 H 271.521 1.58481 3.58645 0
M  V30 2659 H 273.011 0.743876 4.10921 0
M  V30 2660 N 273.449 -1.08991 1.13837 0
M  V30 2661 C 274.359 -2.19301 0.833333 0
M  V30 2662 C 275.375 -1.73026 -0.183847 0
M  V30 2663 O 276.551 -2.01395 -0.0138092 0
M  V30 2664 C 273.616 -3.45323 0.308651 0
M  V30 2665 C 272.677 -4.06255 1.38764 0
M  V30 2666 C 271.91 -5.26262 0.887896 0
M  V30 2667 O 272.133 -5.69747 -0.27287 0
M  V30 2668 O 271.067 -5.78435 1.66421 0
M  V30 2669 H 274.893 -2.47854 1.75506 0
M  V30 2670 H 272.478 -1.18012 0.916166 0
M  V30 2671 H 274.36 -4.21394 0.0216739 0
M  V30 2672 H 273.035 -3.18362 -0.585431 0
M  V30 2673 H 271.942 -3.318 1.72799 0
M  V30 2674 H 273.275 -4.37452 2.25602 0
M  V30 2675 N 274.927 -0.932562 -1.27047 0
M  V30 2676 C 276.174 -0.575559 -1.94148 0
M  V30 2677 C 276.502 0.883984 -1.73251 0
M  V30 2678 O 275.757 1.64655 -1.0577 0
M  V30 2679 C 276.056 -0.853713 -3.47054 0
M  V30 2680 C 275.722 -2.29577 -3.88079 0
M  V30 2681 C 274.384 -2.68999 -3.9899 0
M  V30 2682 C 276.736 -3.23331 -4.08787 0
M  V30 2683 C 274.064 -4.01289 -4.28 0
M  V30 2684 C 276.416 -4.55207 -4.39282 0
M  V30 2685 C 275.08 -4.94457 -4.48407 0
M  V30 2686 H 274.35 -0.210612 -0.710439 0
M  V30 2687 H 276.997 -1.17744 -1.51025 0
M  V30 2688 H 275.302 -0.169204 -3.91434 0
M  V30 2689 H 276.999 -0.55639 -3.97121 0
M  V30 2690 H 273.589 -1.97994 -3.80127 0
M  V30 2691 H 277.773 -2.94074 -3.99793 0
M  V30 2692 H 273.029 -4.31374 -4.33275 0
M  V30 2693 H 277.203 -5.27852 -4.54252 0
M  V30 2694 H 274.83 -5.96994 -4.7064 0
M  V30 2695 N 276.405 1.4127 -0.698611 0
M  V30 2696 C 277.651 2.01979 -0.239972 0
M  V30 2697 C 278.006 1.54353 1.14861 0
M  V30 2698 O 277.299 0.746218 1.76471 0
M  V30 2699 C 277.493 3.56592 -0.240192 0
M  V30 2700 C 277.322 4.19226 -1.62726 0
M  V30 2701 C 276.092 4.53389 -2.23084 0
M  V30 2702 C 278.29 4.45228 -2.57443 0
M  V30 2703 N 276.272 5.01327 -3.54323 0
M  V30 2704 C 277.643 4.94973 -3.73365 0
M  V30 2705 C 279.698 4.27243 -2.55671 0
M  V30 2706 C 278.401 5.28624 -4.878 0
M  V30 2707 C 280.427 4.61985 -3.69221 0
M  V30 2708 C 279.789 5.11904 -4.83873 0
M  V30 2709 H 275.888 0.770561 -0.133269 0
M  V30 2710 H 278.472 1.71767 -0.916748 0
M  V30 2711 H 276.643 3.86271 0.406082 0
M  V30 2712 H 278.375 4.04025 0.23356 0
M  V30 2713 H 275.13 4.39946 -1.75341 0
M  V30 2714 H 275.554 5.29697 -4.21604 0
M  V30 2715 H 280.196 3.87884 -1.68243 0
M  V30 2716 H 277.914 5.66905 -5.75885 0
M  V30 2717 H 281.5 4.49725 -3.69105 0
M  V30 2718 H 280.38 5.38282 -5.70282 0
M  V30 2719 N 277.883 0.443576 1.51229 0
M  V30 2720 C 279.108 -0.121648 2.07043 0
M  V30 2721 C 279.533 -1.35156 1.30823 0
M  V30 2722 O 278.891 -1.7793 0.347934 0
M  V30 2723 C 278.939 -0.41624 3.5819 0
M  V30 2724 O 278.043 -1.50163 3.8409 0
M  V30 2725 H 277.384 0.000871367 0.663999 0
M  V30 2726 H 279.914 0.626706 1.94765 0
M  V30 2727 H 279.924 -0.664867 4.02546 0
M  V30 2728 H 278.599 0.482653 4.1309 0
M  V30 2729 H 277.176 -1.24248 3.51592 0
M  V30 2730 N 279.361 -1.56624 0.175154 0
M  V30 2731 C 280.293 -2.15333 -0.785128 0
M  V30 2732 C 281.306 -1.1099 -1.19101 0
M  V30 2733 O 282.495 -1.38162 -1.13019 0
M  V30 2734 C 279.595 -2.68427 -2.06882 0
M  V30 2735 C 278.768 -3.97466 -1.8259 0
M  V30 2736 C 277.827 -4.35585 -2.95215 0
M  V30 2737 O 276.853 -5.03389 -2.65684 0
M  V30 2738 N 278.055 -3.97457 -4.23094 0
M  V30 2739 H 280.82 -2.98359 -0.283187 0
M  V30 2740 H 278.381 -1.61898 -0.00749817 0
M  V30 2741 H 280.373 -2.90924 -2.81328 0
M  V30 2742 H 278.943 -1.89968 -2.48256 0
M  V30 2743 H 278.163 -3.83307 -0.920287 0
M  V30 2744 H 279.451 -4.81736 -1.63733 0
M  V30 2745 H 278.849 -3.42878 -4.49945 0
M  V30 2746 H 277.406 -4.24947 -4.9423 0
M  V30 2747 N 280.839 0.0985539 -1.57292 0
M  V30 2748 C 282.069 0.815135 -1.8984 0
M  V30 2749 C 282.477 1.7297 -0.766679 0
M  V30 2750 O 281.82 1.81698 0.270483 0
M  V30 2751 C 281.882 1.6842 -3.17608 0
M  V30 2752 C 281.546 0.94182 -4.4719 0
M  V30 2753 C 282.543 0.273212 -5.19182 0
M  V30 2754 C 280.228 0.916927 -4.9386 0
M  V30 2755 C 282.222 -0.410361 -6.36078 0
M  V30 2756 C 279.909 0.229567 -6.10669 0
M  V30 2757 C 280.907 -0.432902 -6.81627 0
M  V30 2758 O 280.595 -1.10925 -7.9621 0
M  V30 2759 H 280.327 0.238501 -0.632529 0
M  V30 2760 H 282.881 0.0812659 -2.05239 0
M  V30 2761 H 281.111 2.46022 -2.98345 0
M  V30 2762 H 282.8 2.27704 -3.36015 0
M  V30 2763 H 283.566 0.283927 -4.84168 0
M  V30 2764 H 279.445 1.42201 -4.3852 0
M  V30 2765 H 282.989 -0.928013 -6.914 0
M  V30 2766 H 278.886 0.216686 -6.45136 0
M  V30 2767 H 279.654 -1.01579 -8.12172 0
M  V30 2768 N 282.317 1.53212 0.369288 0
M  V30 2769 C 283.733 1.42902 0.710712 0
M  V30 2770 C 283.933 0.565135 1.93413 0
M  V30 2771 O 282.989 0.0461484 2.52458 0
M  V30 2772 C 284.302 2.86042 0.927382 0
M  V30 2773 C 285.85 2.9565 1.02762 0
M  V30 2774 C 286.325 4.39843 1.27679 0
M  V30 2775 N 287.816 4.43256 1.34457 0
M  V30 2776 C 288.551 5.51929 1.55439 0
M  V30 2777 N 288.047 6.70655 1.73762 0
M  V30 2778 N 289.84 5.39502 1.57779 0
M  V30 2779 H 281.991 2.07888 -0.435457 0
M  V30 2780 H 284.254 0.938661 -0.132739 0
M  V30 2781 H 283.96 3.51557 0.100287 0
M  V30 2782 H 283.834 3.29472 1.83653 0
M  V30 2783 H 286.221 2.30291 1.84527 0
M  V30 2784 H 286.302 2.5562 0.0959504 0
M  V30 2785 H 285.946 5.05774 0.464175 0
M  V30 2786 H 285.876 4.77443 2.22162 0
M  V30 2787 H 288.367 3.5769 1.21926 0
M  V30 2788 H 288.68 7.49248 1.89335 0
M  V30 2789 H 287.025 6.73648 1.70948 0
M  V30 2790 H 290.216 4.45713 1.43029 0
M  V30 2791 H 290.389 6.2426 1.7379 0
M  V30 2792 N 283.795 -0.628877 1.44509 0
M  V30 2793 C 285.044 -1.38437 1.4669 0
M  V30 2794 C 285.357 -1.95322 0.104272 0
M  V30 2795 O 286.563 -2.715 0.00362163 0
M  V30 2796 C 285.019 -2.50659 2.5826 0
M  V30 2797 C 284.627 -2.00277 4.0074 0
M  V30 2798 C 286.371 -3.27844 2.69664 0
M  V30 2799 C 284.278 -3.09854 5.0373 0
M  V30 2800 H 283.208 -0.520245 0.545766 0
M  V30 2801 H 285.859 -0.676313 1.70582 0
M  V30 2802 H 284.241 -3.2405 2.27612 0
M  V30 2803 H 285.415 -1.33736 4.40966 0
M  V30 2804 H 283.73 -1.35901 3.93599 0
M  V30 2805 H 286.327 -4.09534 3.43781 0
M  V30 2806 H 286.67 -3.77471 1.75559 0
M  V30 2807 H 287.203 -2.61543 2.99733 0
M  V30 2808 H 283.942 -2.65168 5.99472 0
M  V30 2809 H 283.462 -3.7503 4.68095 0
M  V30 2810 H 285.141 -3.74592 5.27532 0
M  V30 2811 N 285.273 -1.31445 -0.869486 0
M  V30 2812 C 286.221 -1.19067 -1.99814 0
M  V30 2813 C 287.215 -0.0988569 -1.69111 0
M  V30 2814 O 288.421 -0.260781 -1.78101 0
M  V30 2815 H 284.796 -0.368677 -0.655425 0
M  V30 2816 H 286.767 -2.14555 -2.07385 0
M  V30 2817 C 285.516 -0.915323 -3.35436 0
M  V30 2818 H 284.839 -1.74759 -3.59582 0
M  V30 2819 H 286.279 -0.868895 -4.15001 0
M  V30 2820 C 284.738 0.381928 -3.34728 0
M  V30 2821 O 285.268 1.39857 -3.76567 0
M  V30 2822 N 283.474 0.398633 -2.87853 0
M  V30 2823 H 283.021 -0.429186 -2.54 0
M  V30 2824 H 282.979 1.26651 -2.87762 0
M  V30 2825 N 286.751 1.08385 -1.14413 0
M  V30 2826 C 287.997 1.81044 -0.913834 0
M  V30 2827 C 288.33 1.86004 0.558209 0
M  V30 2828 O 287.605 1.33606 1.4135 0
M  V30 2829 C 287.888 3.26648 -1.51569 0
M  V30 2830 C 287.741 3.29895 -3.0576 0
M  V30 2831 C 289.06 4.23629 -1.19273 0
M  V30 2832 H 286.179 0.65727 -0.333414 0
M  V30 2833 H 288.821 1.26896 -1.41412 0
M  V30 2834 H 286.971 3.72889 -1.09023 0
M  V30 2835 H 288.643 2.91977 -3.57137 0
M  V30 2836 H 286.886 2.69163 -3.40197 0
M  V30 2837 H 287.557 4.32516 -3.42977 0
M  V30 2838 H 290.033 3.85727 -1.56057 0
M  V30 2839 H 288.909 5.23822 -1.64017 0
M  V30 2840 H 289.17 4.41968 -0.108068 0
M  V30 2841 N 288.23 0.939286 1.26551 0
M  V30 2842 C 289.458 0.602536 1.97932 0
M  V30 2843 C 289.873 -0.82206 1.69964 0
M  V30 2844 O 289.23 -1.54789 0.966784 0
M  V30 2845 C 289.281 0.832946 3.51773 0
M  V30 2846 O 289.002 2.20151 3.78768 0
M  V30 2847 C 290.503 0.506483 4.40397 0
M  V30 2848 H 287.723 0.227248 0.631347 0
M  V30 2849 H 290.267 1.25948 1.61113 0
M  V30 2850 H 288.422 0.222644 3.8676 0
M  V30 2851 H 288.836 2.26013 4.73306 0
M  V30 2852 H 290.31 0.718333 5.47306 0
M  V30 2853 H 290.787 -0.558451 4.35635 0
M  V30 2854 H 291.393 1.09543 4.10951 0
M  V30 2855 N 289.708 -1.40897 0.706093 0
M  V30 2856 C 290.618 -2.3455 0.0482286 0
M  V30 2857 C 291.634 -1.56796 -0.754396 0
M  V30 2858 O 292.81 -1.89228 -0.689538 0
M  V30 2859 C 289.875 -3.35625 -0.869303 0
M  V30 2860 C 288.936 -4.29261 -0.0576994 0
M  V30 2861 C 288.169 -5.25508 -0.931531 0
M  V30 2862 O 288.392 -5.27472 -2.17092 0
M  V30 2863 O 287.326 -6.00727 -0.375587 0
M  V30 2864 H 291.152 -2.92407 0.820476 0
M  V30 2865 H 288.737 -1.4193 0.4665 0
M  V30 2866 H 290.619 -3.97635 -1.39514 0
M  V30 2867 H 289.294 -2.80196 -1.62086 0
M  V30 2868 H 288.201 -3.70566 0.512988 0
M  V30 2869 H 289.534 -4.87817 0.655426 0
M  V30 2870 N 291.186 -0.45159 -1.50991 0
M  V30 2871 C 292.432 0.110237 -2.025 0
M  V30 2872 C 292.765 1.41109 -1.33424 0
M  V30 2873 O 292.04 1.89135 -0.453659 0
M  V30 2874 C 292.323 0.314271 -3.58726 0
M  V30 2875 C 292.176 -1.00623 -4.38401 0
M  V30 2876 C 293.495 1.07767 -4.26702 0
M  V30 2877 H 290.614 0.0385897 -0.735989 0
M  V30 2878 H 293.256 -0.593374 -1.80497 0
M  V30 2879 H 291.406 0.913601 -3.77605 0
M  V30 2880 H 293.078 -1.64064 -4.31139 0
M  V30 2881 H 291.321 -1.6075 -4.02917 0
M  V30 2882 H 291.992 -0.817341 -5.45915 0
M  V30 2883 H 294.468 0.56986 -4.12179 0
M  V30 2884 H 293.344 1.18921 -5.35863 0
M  V30 2885 H 293.605 2.10939 -3.88532 0
M  V30 2886 N 292.664 1.56529 -0.183458 0
M  V30 2887 C 293.612 2.19873 0.758845 0
M  V30 2888 C 294.606 1.16638 1.22849 0
M  V30 2889 O 295.812 1.3481 1.19274 0
M  V30 2890 H 292.187 0.7045 0.263029 0
M  V30 2891 H 294.158 2.97724 0.200755 0
M  V30 2892 C 292.907 2.86314 1.9728 0
M  V30 2893 H 292.23 3.65487 1.62047 0
M  V30 2894 H 293.67 3.3409 2.61075 0
M  V30 2895 C 292.129 1.86729 2.80418 0
M  V30 2896 O 292.659 1.36031 3.77966 0
M  V30 2897 N 290.865 1.55216 2.45675 0
M  V30 2898 H 290.412 1.96636 1.66409 0
M  V30 2899 H 290.37 0.888388 3.01588 0
M  V30 2900 N 294.142 -0.090211 1.57342 0
M  V30 2901 C 295.553 -0.644173 1.75235 0
M  V30 2902 C 295.904 -1.78865 0.806335 0
M  V30 2903 O 295.029 -2.16395 -0.0140128 0
M  V30 2904 C 295.624 -1.17532 3.1776 0
M  V30 2905 C 294.183 -1.67531 3.37061 0
M  V30 2906 C 293.33 -0.58693 2.71017 0
M  V30 2907 H 296.281 0.135884 1.58117 0
M  V30 2908 H 296.302 -2.04455 3.20902 0
M  V30 2909 H 295.814 -0.342138 3.86589 0
M  V30 2910 H 293.915 -2.53234 2.73319 0
M  V30 2911 H 294.028 -1.76493 4.45406 0
M  V30 2912 H 292.392 -1.02756 2.33052 0
M  V30 2913 H 293.175 0.235758 3.4249 0
M  V30 2914 N 295.62 -1.53406 -0.361157 0
M  V30 2915 C 296.55 -1.83136 -1.44857 0
M  V30 2916 C 297.531 -0.685174 -1.5569 0
M  V30 2917 O 298.716 -0.93544 -1.70186 0
M  V30 2918 C 295.846 -2.02522 -2.82138 0
M  V30 2919 C 294.8 -3.18302 -2.86126 0
M  V30 2920 C 294.126 -3.22989 -4.26125 0
M  V30 2921 C 295.426 -4.56796 -2.53248 0
M  V30 2922 H 297.12 -2.74201 -1.20226 0
M  V30 2923 H 294.666 -1.31938 -0.576922 0
M  V30 2924 H 296.619 -2.21904 -3.58241 0
M  V30 2925 H 295.343 -1.08172 -3.08166 0
M  V30 2926 H 294.002 -2.98747 -2.12475 0
M  V30 2927 H 293.65 -2.26267 -4.49235 0
M  V30 2928 H 293.35 -4.00781 -4.29708 0
M  V30 2929 H 294.874 -3.44559 -5.04094 0
M  V30 2930 H 296.288 -4.7631 -3.19064 0
M  V30 2931 H 294.685 -5.36862 -2.68141 0
M  V30 2932 H 295.755 -4.61606 -1.48484 0
M  V30 2933 N 297.098 0.621204 -1.44841 0
M  V30 2934 C 298.346 1.37783 -1.47852 0
M  V30 2935 C 298.667 1.94653 -0.116224 0
M  V30 2936 O 297.937 1.76367 0.852737 0
M  V30 2937 H 296.517 0.511453 -0.544449 0
M  V30 2938 H 299.179 0.730446 -1.80694 0
M  V30 2939 H 298.275 2.20414 -2.20961 0
M  V30 2940 N 298.576 1.31904 0.862503 0
M  V30 2941 C 299.539 1.20131 1.95195 0
M  V30 2942 C 300.539 0.126409 1.60302 0
M  V30 2943 O 301.729 0.376234 1.70089 0
M  V30 2944 C 298.861 0.845691 3.30244 0
M  V30 2945 H 300.054 2.16943 2.07064 0
M  V30 2946 H 297.607 1.15622 1.05172 0
M  V30 2947 H 298.342 -0.120957 3.24074 0
M  V30 2948 H 298.127 1.62276 3.56944 0
M  V30 2949 H 299.617 0.787418 4.10109 0
M  V30 2950 N 300.054 -1.07777 1.14986 0
M  V30 2951 C 301.279 -1.84558 0.946213 0
M  V30 2952 C 301.704 -1.81323 -0.500362 0
M  V30 2953 O 301.062 -1.20301 -1.35637 0
M  V30 2954 C 301.11 -3.29736 1.45968 0
M  V30 2955 O 300.214 -4.07149 0.65601 0
M  V30 2956 H 299.555 -0.571641 0.33782 0
M  V30 2957 H 302.085 -1.35991 1.52865 0
M  V30 2958 H 302.095 -3.80574 1.47063 0
M  V30 2959 H 300.77 -3.31406 2.51283 0
M  V30 2960 H 299.347 -3.65994 0.714322 0
M  V30 2961 N 301.532 -0.945985 -1.26051 0
M  V30 2962 C 302.76 -0.613025 -1.9761 0
M  V30 2963 C 303.175 0.813035 -1.70397 0
M  V30 2964 O 302.532 1.54274 -0.974979 0
M  V30 2965 C 302.583 -0.85159 -3.51326 0
M  V30 2966 O 302.304 -2.22157 -3.77595 0
M  V30 2967 C 303.805 -0.529831 -4.40122 0
M  V30 2968 H 301.025 -0.230593 -0.630133 0
M  V30 2969 H 303.569 -1.268 -1.60443 0
M  V30 2970 H 301.724 -0.243151 -3.86636 0
M  V30 2971 H 302.138 -2.2852 -4.721 0
M  V30 2972 H 303.612 -0.747348 -5.46917 0
M  V30 2973 H 304.089 0.535341 -4.35925 0
M  V30 2974 H 304.695 -1.11721 -4.10364 0
M  V30 2975 N 303.011 1.40521 -0.713556 0
M  V30 2976 C 304.427 1.54839 -0.386907 0
M  V30 2977 C 304.627 1.68532 1.1045 0
M  V30 2978 O 303.683 1.67377 1.89053 0
M  V30 2979 C 304.996 2.77792 -1.15118 0
M  V30 2980 C 306.544 2.91607 -1.13729 0
M  V30 2981 C 307.019 4.1747 -1.88368 0
M  V30 2982 N 308.51 4.24466 -1.85427 0
M  V30 2983 C 309.245 5.20755 -2.40004 0
M  V30 2984 N 308.741 6.22965 -3.03129 0
M  V30 2985 N 310.534 5.1282 -2.30158 0
M  V30 2986 H 302.685 1.29879 -1.68063 0
M  V30 2987 H 304.948 0.627896 -0.710247 0
M  V30 2988 H 304.654 2.73944 -2.20561 0
M  V30 2989 H 304.528 3.6984 -0.741477 0
M  V30 2990 H 306.915 2.94959 -0.0910608 0
M  V30 2991 H 306.996 2.00682 -1.5862 0
M  V30 2992 H 306.64 4.1488 -2.9298 0
M  V30 2993 H 306.57 5.074 -1.40898 0
M  V30 2994 H 309.061 3.51241 -1.3942 0
M  V30 2995 H 309.374 6.92859 -3.42295 0
M  V30 2996 H 307.719 6.23415 -3.07212 0
M  V30 2997 H 310.91 4.31899 -1.80501 0
M  V30 2998 H 311.083 5.87689 -2.72993 0
M  V30 2999 N 304.489 0.459591 1.5075 0
M  V30 3000 C 305.419 -0.330644 2.31147 0
M  V30 3001 C 306.4 -1.00087 1.37538 0
M  V30 3002 O 307.585 -1.00025 1.66459 0
M  V30 3003 C 304.715 -1.41958 3.16962 0
M  V30 3004 C 303.669 -0.871608 4.19031 0
M  V30 3005 C 302.995 -2.05797 4.9351 0
M  V30 3006 C 304.295 0.109251 5.22186 0
M  V30 3007 H 305.989 0.340336 2.97459 0
M  V30 3008 H 303.535 0.165119 1.4305 0
M  V30 3009 H 305.488 -1.9798 3.71997 0
M  V30 3010 H 304.212 -2.11917 2.48513 0
M  V30 3011 H 302.871 -0.333442 3.6508 0
M  V30 3012 H 302.519 -2.74427 4.21544 0
M  V30 3013 H 302.219 -1.6976 5.62544 0
M  V30 3014 H 303.743 -2.62331 5.51375 0
M  V30 3015 H 305.157 -0.361405 5.7216 0
M  V30 3016 H 303.554 0.383316 5.98875 0
M  V30 3017 H 304.624 1.03887 4.73641 0
M  V30 3018 N 305.967 -1.56429 0.191757 0
M  V30 3019 C 306.897 -2.21937 -0.725696 0
M  V30 3020 C 307.878 -1.1814 -1.2238 0
M  V30 3021 O 309.063 -1.46636 -1.27325 0
M  V30 3022 C 306.193 -2.87611 -1.94672 0
M  V30 3023 C 305.147 -3.97623 -1.58366 0
M  V30 3024 C 304.473 -4.50446 -2.88102 0
M  V30 3025 C 305.773 -5.16197 -0.796133 0
M  V30 3026 H 307.467 -2.98861 -0.179606 0
M  V30 3027 H 305.013 -1.43749 -0.0849464 0
M  V30 3028 H 306.966 -3.3212 -2.59373 0
M  V30 3029 H 305.69 -2.08087 -2.51728 0
M  V30 3030 H 304.349 -3.53801 -0.960247 0
M  V30 3031 H 303.997 -3.67688 -3.43241 0
M  V30 3032 H 303.697 -5.24675 -2.64556 0
M  V30 3033 H 305.221 -4.97654 -3.53798 0
M  V30 3034 H 306.635 -5.57271 -1.34618 0
M  V30 3035 H 305.032 -5.96471 -0.658928 0
M  V30 3036 H 306.102 -4.84473 0.203478 0
M  V30 3037 N 307.445 0.0818655 -1.57387 0
M  V30 3038 C 308.722 0.815343 -1.77796 0
M  V30 3039 C 309.102 1.96289 -0.77679 0
M  V30 3040 O 308.45 2.27691 0.192106 0
M  V30 3041 C 308.66 1.29765 -3.23978 0
M  V30 3042 C 310.008 1.7351 -3.8753 0
M  V30 3043 O 311.032 1.39356 -3.27808 0
M  V30 3044 O 309.891 2.36708 -4.92576 0
M  V30 3045 H 306.985 0.389914 -0.729312 0
M  V30 3046 H 309.531 0.0627213 -1.69584 0
M  V30 3047 H 308.303 0.47608 -3.88393 0
M  V30 3048 H 307.926 2.11189 -3.36875 0
M  V30 3049 N 308.923 1.53595 0.353017 0
M  V30 3050 C 310.169 1.70638 1.09593 0
M  V30 3051 C 310.502 0.463286 1.88593 0
M  V30 3052 O 309.777 -0.539597 1.86865 0
M  V30 3053 C 310.06 2.96406 2.04489 0
M  V30 3054 C 309.913 4.30901 1.29014 0
M  V30 3055 C 311.232 3.17812 3.0444 0
M  V30 3056 H 308.351 0.620913 0.397034 0
M  V30 3057 H 310.993 1.86254 0.375446 0
M  V30 3058 H 309.143 2.83223 2.65927 0
M  V30 3059 H 310.815 4.55917 0.702638 0
M  V30 3060 H 309.058 4.29741 0.592071 0
M  V30 3061 H 309.729 5.1506 1.98537 0
M  V30 3062 H 312.205 3.30263 2.53112 0
M  V30 3063 H 311.081 4.07223 3.6805 0
M  V30 3064 H 311.342 2.33669 3.75301 0
M  V30 3065 N 310.401 -0.613514 1.45168 0
M  V30 3066 C 311.626 -1.40437 1.52618 0
M  V30 3067 C 312.051 -1.87438 0.157707 0
M  V30 3068 O 311.409 -1.59791 -0.856537 0
M  V30 3069 C 311.457 -2.58894 2.51011 0
M  V30 3070 O 310.561 -3.59326 2.02382 0
M  V30 3071 H 309.902 -0.419506 0.514695 0
M  V30 3072 H 312.432 -0.747215 1.90467 0
M  V30 3073 H 312.442 -3.06214 2.69624 0
M  V30 3074 H 311.117 -2.24032 3.50403 0
M  V30 3075 H 309.694 -3.18695 1.93618 0
M  V30 3076 N 311.879 -1.3236 -0.855495 0
M  V30 3077 C 312.809 -1.23833 -1.97958 0
M  V30 3078 C 313.79 -0.122361 -1.69659 0
M  V30 3079 O 314.975 -0.30939 -1.9172 0
M  V30 3080 C 312.105 -0.959772 -3.33775 0
M  V30 3081 C 311.059 -2.03689 -3.76424 0
M  V30 3082 C 310.385 -1.61075 -5.09862 0
M  V30 3083 C 311.685 -3.4518 -3.9198 0
M  V30 3084 H 313.379 -2.1788 -2.0535 0
M  V30 3085 H 310.925 -1.04891 -0.986605 0
M  V30 3086 H 312.878 -0.886678 -4.11966 0
M  V30 3087 H 311.602 0.0163404 -3.26596 0
M  V30 3088 H 310.261 -2.10012 -3.00484 0
M  V30 3089 H 309.909 -0.622107 -4.99138 0
M  V30 3090 H 309.609 -2.33143 -5.39368 0
M  V30 3091 H 311.133 -1.55201 -5.90546 0
M  V30 3092 H 312.547 -3.4145 -4.60526 0
M  V30 3093 H 310.944 -4.1559 -4.32903 0
M  V30 3094 H 312.014 -3.84903 -2.94919 0
M  V30 3095 N 313.357 1.07166 -1.15556 0
M  V30 3096 C 314.289 2.14341 -0.811815 0
M  V30 3097 C 315.302 1.61835 0.177015 0
M  V30 3098 O 316.491 1.78439 -0.0464996 0
M  V30 3099 C 313.591 3.38387 -0.186481 0
M  V30 3100 C 312.764 4.20238 -1.21321 0
M  V30 3101 C 311.823 5.2266 -0.609302 0
M  V30 3102 O 310.849 5.54719 -1.27576 0
M  V30 3103 N 312.051 5.77306 0.608099 0
M  V30 3104 H 314.816 2.44431 -1.73417 0
M  V30 3105 H 312.377 1.23089 -1.0517 0
M  V30 3106 H 314.369 4.04044 0.230339 0
M  V30 3107 H 312.939 3.05994 0.639249 0
M  V30 3108 H 312.159 3.50369 -1.80652 0
M  V30 3109 H 313.447 4.71736 -1.90638 0
M  V30 3110 H 312.845 5.53513 1.1679 0
M  V30 3111 H 311.402 6.44583 0.96725 0
M  V30 3112 N 314.835 0.952656 1.25548 0
M  V30 3113 C 316.06 0.623025 1.97821 0
M  V30 3114 C 316.485 -0.7976 1.70352 0
M  V30 3115 O 315.843 -1.53905 0.958283 0
M  V30 3116 C 315.891 0.885532 3.49558 0
M  V30 3117 O 314.995 -0.0366641 4.12384 0
M  V30 3118 H 314.336 0.237082 0.620232 0
M  V30 3119 H 316.866 1.27871 1.59719 0
M  V30 3120 H 316.876 0.811009 3.99858 0
M  V30 3121 H 315.551 1.92094 3.6888 0
M  V30 3122 H 314.128 0.0898954 3.72792 0
M  V30 3123 N 316.313 -1.40141 0.720998 0
M  V30 3124 C 317.562 -2.0002 0.259804 0
M  V30 3125 C 317.875 -1.57839 -1.15526 0
M  V30 3126 O 319.081 -2.10455 -1.71525 0
M  V30 3127 C 317.537 -3.57516 0.413566 0
M  V30 3128 C 317.145 -4.08667 1.83562 0
M  V30 3129 C 318.889 -4.24498 0.0134387 0
M  V30 3130 C 316.796 -5.58686 1.93968 0
M  V30 3131 H 315.726 -0.748195 0.0933806 0
M  V30 3132 H 318.377 -1.60313 0.892866 0
M  V30 3133 H 316.759 -3.9495 -0.288169 0
M  V30 3134 H 317.933 -3.82598 2.56817 0
M  V30 3135 H 316.248 -3.543 2.1877 0
M  V30 3136 H 318.845 -5.34654 0.0703954 0
M  V30 3137 H 319.188 -4.03375 -1.02927 0
M  V30 3138 H 319.721 -3.92188 0.665815 0
M  V30 3139 H 316.46 -5.8467 2.96379 0
M  V30 3140 H 315.98 -5.86602 1.25131 0
M  V30 3141 H 317.659 -6.23875 1.71431 0
M  V30 3142 N 317.792 -0.46758 -1.50504 0
M  V30 3143 C 318.722 0.318381 -2.31319 0
M  V30 3144 C 319.703 0.993564 -1.38066 0
M  V30 3145 O 320.888 0.991411 -1.66987 0
M  V30 3146 C 318.018 1.40275 -3.17711 0
M  V30 3147 C 316.972 0.849373 -4.19487 0
M  V30 3148 C 316.298 2.03177 -4.94594 0
M  V30 3149 C 317.598 -0.136942 -5.2212 0
M  V30 3150 H 319.292 -0.356106 -2.97275 0
M  V30 3151 H 316.838 -0.172703 -1.42961 0
M  V30 3152 H 318.791 1.96004 -3.73042 0
M  V30 3153 H 317.515 2.10596 -2.49634 0
M  V30 3154 H 316.174 0.314076 -3.65252 0
M  V30 3155 H 315.822 2.72187 -4.22993 0
M  V30 3156 H 315.522 1.66774 -5.63436 0
M  V30 3157 H 317.046 2.59403 -5.52759 0
M  V30 3158 H 318.46 0.331056 -5.72343 0
M  V30 3159 H 316.857 -0.41507 -5.98663 0
M  V30 3160 H 317.927 -1.06398 -4.73083 0
M  V30 3161 N 319.27 1.56325 -0.20005 0
M  V30 3162 C 320.686 1.58839 0.155716 0
M  V30 3163 C 320.886 1.21636 1.60645 0
M  V30 3164 O 319.942 0.941437 2.34293 0
M  V30 3165 C 321.255 3.0032 -0.151124 0
M  V30 3166 C 322.803 3.12866 -0.0916284 0
M  V30 3167 C 323.278 4.56488 -0.371845 0
M  V30 3168 N 324.769 4.62089 -0.320641 0
M  V30 3169 C 325.504 5.71116 -0.511243 0
M  V30 3170 N 325 6.88592 -0.762461 0
M  V30 3171 N 326.793 5.60335 -0.445157 0
M  V30 3172 H 318.944 1.78788 -1.14668 0
M  V30 3173 H 321.207 0.829996 -0.458051 0
M  V30 3174 H 320.913 3.32117 -1.15721 0
M  V30 3175 H 320.787 3.73257 0.543986 0
M  V30 3176 H 323.174 2.80878 0.905065 0
M  V30 3177 H 323.255 2.42304 -0.81989 0
M  V30 3178 H 322.899 4.89189 -1.36588 0
M  V30 3179 H 322.829 5.25246 0.377362 0
M  V30 3180 H 325.32 3.77665 -0.13329 0
M  V30 3181 H 325.633 7.67581 -0.896576 0
M  V30 3182 H 323.978 6.90387 -0.799412 0
M  V30 3183 H 327.169 4.67436 -0.249278 0
M  V30 3184 H 327.342 6.45243 -0.597116 0
M  V30 3185 N 320.748 -0.0735177 1.57428 0
M  V30 3186 C 322.159 -0.625551 1.75908 0
M  V30 3187 C 322.51 -1.78 0.825261 0
M  V30 3188 O 321.635 -2.16398 0.00893964 0
M  V30 3189 C 322.23 -1.14155 3.18989 0
M  V30 3190 C 320.789 -1.63946 3.38819 0
M  V30 3191 C 319.936 -0.558151 2.71625 0
M  V30 3192 H 322.887 0.152647 1.57964 0
M  V30 3193 H 322.908 -2.0104 3.23053 0
M  V30 3194 H 322.42 -0.301116 3.8693 0
M  V30 3195 H 320.521 -2.50321 2.7599 0
M  V30 3196 H 320.634 -1.71759 4.47253 0
M  V30 3197 H 318.998 -1.00278 2.34129 0
M  V30 3198 H 319.781 0.272071 3.4222 0
M  V30 3199 N 322.226 -1.5378 -0.344866 0
M  V30 3200 C 323.503 -1.61589 -1.10219 0
M  V30 3201 C 323.883 -0.436316 -2.06542 0
M  V30 3202 O 323.231 0.571543 -2.21237 0
M  V30 3203 C 323.441 -2.97602 -1.82301 0
M  V30 3204 C 324.789 -3.5291 -2.36093 0
M  V30 3205 O 325.813 -2.99768 -1.924 0
M  V30 3206 O 324.672 -4.45859 -3.16026 0
M  V30 3207 H 321.766 -0.653522 -0.506792 0
M  V30 3208 H 324.312 -1.66126 -0.346465 0
M  V30 3209 H 323.084 -3.74893 -1.12121 0
M  V30 3210 H 322.707 -2.9665 -2.64735 0
M  V30 3211 N 323.704 0.605807 -1.45491 0
M  V30 3212 C 325.115 1.18777 -1.44045 0
M  V30 3213 C 325.466 1.95471 -0.169001 0
M  V30 3214 O 324.591 2.0374 0.729324 0
M  V30 3215 C 325.186 2.16064 -2.60963 0
M  V30 3216 C 323.745 2.69633 -2.62631 0
M  V30 3217 C 322.892 1.45072 -2.36325 0
M  V30 3218 H 325.843 0.395017 -1.53705 0
M  V30 3219 H 325.864 2.9913 -2.35163 0
M  V30 3220 H 325.376 1.60217 -3.53486 0
M  V30 3221 H 323.477 3.29414 -1.74119 0
M  V30 3222 H 323.59 3.13944 -3.61906 0
M  V30 3223 H 321.954 1.74089 -1.85917 0
M  V30 3224 H 322.737 0.910899 -3.30995 0
M  V30 3225 N 325.182 1.32811 0.848464 0
M  V30 3226 C 326.593 1.21315 1.41914 0
M  V30 3227 C 326.944 -0.171847 1.95446 0
M  V30 3228 O 326.069 -1.07093 1.88043 0
M  V30 3229 C 326.664 2.19631 2.57968 0
M  V30 3230 C 325.223 2.12003 3.11017 0
M  V30 3231 C 324.37 2.07651 1.83783 0
M  V30 3232 H 327.321 1.44549 0.655071 0
M  V30 3233 H 327.342 1.79845 3.35315 0
M  V30 3234 H 326.854 3.20423 2.18976 0
M  V30 3235 H 324.955 1.14481 3.54577 0
M  V30 3236 H 325.068 3.02111 3.71841 0
M  V30 3237 H 323.432 1.52983 2.03638 0
M  V30 3238 H 324.215 3.10235 1.47 0
M  V30 3239 N 326.66 -1.06551 1.16123 0
M  V30 3240 C 327.592 -2.13908 0.823171 0
M  V30 3241 C 328.605 -1.61926 -0.16843 0
M  V30 3242 O 329.794 -1.78412 0.055962 0
M  V30 3243 C 326.894 -3.38283 0.204424 0
M  V30 3244 C 326.067 -4.19589 1.23548 0
M  V30 3245 C 325.126 -5.2233 0.637011 0
M  V30 3246 O 324.152 -5.54034 1.30516 0
M  V30 3247 N 325.354 -5.77621 -0.577474 0
M  V30 3248 H 328.119 -2.43508 1.74711 0
M  V30 3249 H 325.68 -1.2253 1.05821 0
M  V30 3250 H 327.672 -4.0416 -0.208909 0
M  V30 3251 H 326.242 -3.06329 -0.623012 0
M  V30 3252 H 325.462 -3.49406 1.82507 0
M  V30 3253 H 326.75 -4.70718 1.93137 0
M  V30 3254 H 326.148 -5.54125 -1.13853 0
M  V30 3255 H 324.705 -6.45087 -0.933053 0
M  V30 3256 N 328.138 -0.959301 -1.25041 0
M  V30 3257 C 329.386 -0.615393 -1.92503 0
M  V30 3258 C 329.707 0.850969 -1.75452 0
M  V30 3259 O 328.977 1.60658 -1.12098 0
M  V30 3260 H 327.557 -0.224613 -0.712431 0
M  V30 3261 H 330.219 -1.21855 -1.5211 0
M  V30 3262 H 329.315 -0.848738 -3.00338 0
M  V30 3263 N 329.616 1.39756 -0.72842 0
M  V30 3264 C 330.546 2.33289 -0.0991354 0
M  V30 3265 C 331.527 1.53568 0.731489 0
M  V30 3266 O 332.712 1.81987 0.677807 0
M  V30 3267 C 329.842 3.3763 0.813834 0
M  V30 3268 C 328.796 4.2791 0.0878663 0
M  V30 3269 C 328.122 5.22894 1.11741 0
M  V30 3270 C 329.422 5.11314 -1.06563 0
M  V30 3271 H 331.116 2.86163 -0.880408 0
M  V30 3272 H 328.662 1.37591 -0.424819 0
M  V30 3273 H 330.615 4.0201 1.26355 0
M  V30 3274 H 329.339 2.83181 1.62715 0
M  V30 3275 H 327.998 3.65 -0.342159 0
M  V30 3276 H 327.646 4.64744 1.92412 0
M  V30 3277 H 327.346 5.84143 0.636477 0
M  V30 3278 H 328.87 5.90151 1.56697 0
M  V30 3279 H 330.284 5.69076 -0.694671 0
M  V30 3280 H 328.681 5.81671 -1.47577 0
M  V30 3281 H 329.751 4.46534 -1.89038 0
M  V30 3282 N 331.094 0.475555 1.50254 0
M  V30 3283 C 332.51 0.12997 1.5907 0
M  V30 3284 C 332.71 -1.36385 1.48328 0
M  V30 3285 O 331.766 -2.13754 1.34407 0
M  V30 3286 C 333.079 0.684139 2.92814 0
M  V30 3287 C 334.627 0.647965 3.0622 0
M  V30 3288 C 335.102 1.17975 4.42545 0
M  V30 3289 N 336.593 1.13936 4.48969 0
M  V30 3290 C 337.328 1.52129 5.52851 0
M  V30 3291 N 336.824 1.97793 6.63965 0
M  V30 3292 N 338.617 1.43704 5.4342 0
M  V30 3293 H 330.768 1.44706 1.55479 0
M  V30 3294 H 333.031 0.598691 0.735033 0
M  V30 3295 H 332.737 1.73079 3.06164 0
M  V30 3296 H 332.611 0.130204 3.76975 0
M  V30 3297 H 334.998 -0.38979 2.92514 0
M  V30 3298 H 335.079 1.23876 2.23805 0
M  V30 3299 H 334.723 2.21616 4.57 0
M  V30 3300 H 334.653 0.565138 5.23559 0
M  V30 3301 H 337.144 0.804488 3.69238 0
M  V30 3302 H 337.457 2.25072 7.39299 0
M  V30 3303 H 335.802 2.01749 6.65073 0
M  V30 3304 H 338.993 1.07867 4.55502 0
M  V30 3305 H 339.166 1.73794 6.24259 0
M  V30 3306 N 332.573 -1.56217 0.208337 0
M  V30 3307 C 333.819 -1.98242 -0.427552 0
M  V30 3308 C 334.152 -1.09554 -1.60348 0
M  V30 3309 O 333.427 -0.15035 -1.93918 0
M  V30 3310 C 333.71 -3.4931 -0.874907 0
M  V30 3311 C 333.563 -4.48773 0.303751 0
M  V30 3312 C 334.882 -4.04424 -1.73577 0
M  V30 3313 H 332.001 -0.720744 -0.153936 0
M  V30 3314 H 334.643 -1.87586 0.30192 0
M  V30 3315 H 332.793 -3.58522 -1.49648 0
M  V30 3316 H 334.465 -4.51586 0.941682 0
M  V30 3317 H 332.708 -4.23194 0.953375 0
M  V30 3318 H 333.379 -5.51976 -0.0519883 0
M  V30 3319 H 335.855 -3.98075 -1.21143 0
M  V30 3320 H 334.731 -5.1047 -2.01771 0
M  V30 3321 H 334.992 -3.50494 -2.69456 0
M  V30 3322 N 334.051 0.0651679 -1.57465 0
M  V30 3323 C 334.961 1.09448 -2.07505 0
M  V30 3324 C 335.977 1.41974 -1.00595 0
M  V30 3325 O 337.153 1.52018 -1.32107 0
M  V30 3326 C 334.218 2.38689 -2.51453 0
M  V30 3327 C 333.279 2.13073 -3.72691 0
M  V30 3328 C 332.512 3.36152 -4.14533 0
M  V30 3329 O 332.735 4.45517 -3.56189 0
M  V30 3330 O 331.669 3.23974 -5.07272 0
M  V30 3331 H 335.495 0.69935 -2.95538 0
M  V30 3332 H 333.08 0.279752 -1.46757 0
M  V30 3333 H 334.962 3.14736 -2.80212 0
M  V30 3334 H 333.637 2.77568 -1.66546 0
M  V30 3335 H 332.544 1.34709 -3.49005 0
M  V30 3336 H 333.877 1.79071 -4.5847 0
M  V30 3337 N 335.529 1.53961 0.336706 0
M  V30 3338 C 336.754 1.75797 1.10046 0
M  V30 3339 C 337.179 0.498985 1.81361 0
M  V30 3340 O 336.537 -0.548769 1.72795 0
M  V30 3341 C 336.585 2.94257 2.08436 0
M  V30 3342 O 335.689 2.64883 3.16087 0
M  V30 3343 H 335.03 0.582936 0.317934 0
M  V30 3344 H 337.56 2.00945 0.38501 0
M  V30 3345 H 337.57 3.21237 2.51537 0
M  V30 3346 H 336.245 3.85564 1.55927 0
M  V30 3347 H 334.822 2.48812 2.77753 0
M  V30 3348 N 337.007 -0.598083 1.45811 0
M  V30 3349 C 338.253 -1.35882 1.50545 0
M  V30 3350 C 338.586 -1.93616 0.150445 0
M  V30 3351 O 337.861 -1.75604 -0.83628 0
M  V30 3352 C 338.144 -2.49966 2.59208 0
M  V30 3353 C 337.997 -1.97367 4.04186 0
M  V30 3354 C 339.316 -3.52068 2.64076 0
M  V30 3355 H 336.435 -0.492717 0.548087 0
M  V30 3356 H 339.077 -0.673319 1.77669 0
M  V30 3357 H 337.227 -3.08443 2.3621 0
M  V30 3358 H 338.899 -1.43466 4.38423 0
M  V30 3359 H 337.142 -1.283 4.14393 0
M  V30 3360 H 337.813 -2.79649 4.75921 0
M  V30 3361 H 340.289 -3.03448 2.84708 0
M  V30 3362 H 339.165 -4.2937 3.41954 0
M  V30 3363 H 339.426 -4.08304 1.69531 0
M  V30 3364 N 338.485 -1.33259 -0.841409 0
M  V30 3365 C 339.896 -1.22066 -1.41269 0
M  V30 3366 C 340.247 0.161479 -1.95534 0
M  V30 3367 O 339.372 1.06094 -1.88608 0
M  V30 3368 C 339.967 -2.20996 -2.568 0
M  V30 3369 C 338.526 -2.13649 -3.09888 0
M  V30 3370 C 337.673 -2.08623 -1.82679 0
M  V30 3371 H 340.624 -1.44895 -0.647395 0
M  V30 3372 H 340.645 -1.81621 -3.34356 0
M  V30 3373 H 340.157 -3.2158 -2.17274 0
M  V30 3374 H 338.258 -1.16359 -3.53965 0
M  V30 3375 H 338.371 -3.04079 -3.70234 0
M  V30 3376 H 336.735 -1.54061 -2.02824 0
M  V30 3377 H 337.518 -3.1101 -1.45353 0
M  V30 3378 N 339.963 1.05934 -1.16686 0
M  V30 3379 C 341.211 1.78447 -0.948744 0
M  V30 3380 C 341.532 1.87813 0.524523 0
M  V30 3381 O 340.802 1.38945 1.38098 0
M  V30 3382 H 339.382 0.660971 -0.348033 0
M  V30 3383 H 342.044 1.27947 -1.47022 0
M  V30 3384 H 341.14 2.80394 -1.37061 0
M  V30 3385 N 341.441 0.965919 1.2453 0
M  V30 3386 C 342.671 0.643451 1.96324 0
M  V30 3387 C 343.079 -0.790927 1.71875 0
M  V30 3388 O 342.422 -1.54208 0.998273 0
M  V30 3389 C 342.484 0.836078 3.49643 0
M  V30 3390 C 342.148 2.24975 3.97788 0
M  V30 3391 C 343.145 3.22735 4.07601 0
M  V30 3392 C 340.83 2.57697 4.31158 0
M  V30 3393 C 342.824 4.51303 4.50116 0
M  V30 3394 C 340.511 3.86492 4.73357 0
M  V30 3395 C 341.509 4.83107 4.828 0
M  V30 3396 O 341.197 6.09605 5.24058 0
M  V30 3397 H 340.929 0.239223 0.632257 0
M  V30 3398 H 343.483 1.29587 1.59362 0
M  V30 3399 H 341.713 0.12649 3.86493 0
M  V30 3400 H 343.402 0.512965 4.02646 0
M  V30 3401 H 344.168 2.98783 3.82039 0
M  V30 3402 H 340.047 1.83216 4.23028 0
M  V30 3403 H 343.591 5.26716 4.57401 0
M  V30 3404 H 339.488 4.10245 4.98366 0
M  V30 3405 H 340.256 6.13146 5.42213 0
M  V30 3406 N 342.919 -1.39368 0.735821 0
M  V30 3407 C 344.33 -1.83313 0.354015 0
M  V30 3408 C 344.681 -1.61461 -1.11466 0
M  V30 3409 O 343.806 -1.10621 -1.85989 0
M  V30 3410 C 344.401 -3.32781 0.635769 0
M  V30 3411 C 342.96 -3.75142 0.307448 0
M  V30 3412 C 342.107 -2.62358 0.897974 0
M  V30 3413 H 345.058 -1.28349 0.933398 0
M  V30 3414 H 345.079 -3.80388 -0.0921773 0
M  V30 3415 H 344.591 -3.48654 1.70476 0
M  V30 3416 H 342.692 -3.64857 -0.755674 0
M  V30 3417 H 342.805 -4.72532 0.790583 0
M  V30 3418 H 341.169 -2.52624 0.324551 0
M  V30 3419 H 341.952 -2.81036 1.97164 0
M  V30 3420 N 344.397 -0.483516 -1.5 0
M  V30 3421 C 345.813 -0.138404 -1.58999 0
M  V30 3422 C 346.013 1.35597 -1.4905 0
M  V30 3423 O 345.069 2.13039 -1.35539 0
M  V30 3424 C 346.382 -0.699658 -2.92447 0
M  V30 3425 C 347.93 -0.664195 -3.05872 0
M  V30 3426 C 348.405 -1.20321 -4.41913 0
M  V30 3427 N 349.896 -1.16315 -4.48358 0
M  V30 3428 C 350.631 -1.55058 -5.52037 0
M  V30 3429 N 350.127 -2.01311 -6.62907 0
M  V30 3430 N 351.92 -1.46584 -5.42651 0
M  V30 3431 H 344.071 -1.45529 -1.5471 0
M  V30 3432 H 346.334 -0.60258 -0.731848 0
M  V30 3433 H 346.04 -1.747 -3.05242 0
M  V30 3434 H 345.914 -0.150194 -3.76901 0
M  V30 3435 H 348.301 0.374272 -2.92717 0
M  V30 3436 H 348.382 -1.25061 -2.23144 0
M  V30 3437 H 348.026 -2.24037 -4.55818 0
M  V30 3438 H 347.956 -0.592896 -5.23252 0
M  V30 3439 H 350.447 -0.824058 -3.68806 0
M  V30 3440 H 350.76 -2.2899 -7.38095 0
M  V30 3441 H 349.105 -2.05273 -6.63994 0
M  V30 3442 H 352.296 -1.10281 -4.54924 0
M  V30 3443 H 352.469 -1.77103 -6.23329 0
M  V30 3444 N 345.875 1.56104 -0.216619 0
M  V30 3445 C 347.291 1.58995 0.13886 0
M  V30 3446 C 347.491 1.23333 1.59346 0
M  V30 3447 O 346.547 0.966234 2.33281 0
M  V30 3448 C 347.86 3.00143 -0.182968 0
M  V30 3449 C 349.408 3.12751 -0.124807 0
M  V30 3450 C 349.883 4.56068 -0.420241 0
M  V30 3451 N 351.374 4.61723 -0.369634 0
M  V30 3452 C 352.109 5.70542 -0.571789 0
M  V30 3453 N 351.605 6.87744 -0.835453 0
M  V30 3454 N 353.398 5.59831 -0.504563 0
M  V30 3455 H 345.549 1.77562 -1.16557 0
M  V30 3456 H 347.812 0.825091 -0.466828 0
M  V30 3457 H 347.518 3.30871 -1.19237 0
M  V30 3458 H 347.392 3.73813 0.504367 0
M  V30 3459 H 349.779 2.81822 0.875223 0
M  V30 3460 H 349.86 2.41421 -0.845544 0
M  V30 3461 H 349.504 4.87713 -1.41769 0
M  V30 3462 H 349.434 5.25617 0.321631 0
M  V30 3463 H 351.925 3.77502 -0.173338 0
M  V30 3464 H 352.238 7.66587 -0.977938 0
M  V30 3465 H 350.583 6.895 -0.872592 0
M  V30 3466 H 353.774 4.67145 -0.298842 0
M  V30 3467 H 353.947 6.44573 -0.665519 0
M  V30 3468 N 347.353 -0.0568162 1.57498 0
M  V30 3469 C 348.283 -1.06593 2.0775 0
M  V30 3470 C 349.264 -1.39448 0.974082 0
M  V30 3471 O 350.449 -1.48815 1.24771 0
M  V30 3472 C 347.579 -2.37509 2.5339 0
M  V30 3473 C 346.533 -2.1897 3.67745 0
M  V30 3474 C 345.859 -3.55402 3.99492 0
M  V30 3475 C 347.159 -1.59859 4.97235 0
M  V30 3476 H 348.853 -0.647706 2.9231 0
M  V30 3477 H 346.399 -0.310116 1.40621 0
M  V30 3478 H 348.352 -3.08409 2.87162 0
M  V30 3479 H 347.076 -2.8134 1.65878 0
M  V30 3480 H 345.735 -1.50508 3.3428 0
M  V30 3481 H 345.383 -3.9683 3.09088 0
M  V30 3482 H 345.083 -3.43831 4.76502 0
M  V30 3483 H 346.607 -4.27708 4.35773 0
M  V30 3484 H 348.021 -2.20642 5.29141 0
M  V30 3485 H 346.418 -1.58942 5.78669 0
M  V30 3486 H 347.488 -0.561506 4.81638 0
M  V30 3487 N 348.832 -1.54138 -0.328536 0
M  V30 3488 C 350.248 -1.44736 -0.672574 0
M  V30 3489 C 350.448 -0.616217 -1.91846 0
M  V30 3490 O 349.504 -0.113067 -2.52247 0
M  V30 3491 C 350.817 -2.884 -0.851217 0
M  V30 3492 C 352.365 -2.98271 -0.948877 0
M  V30 3493 C 352.84 -4.43074 -1.15973 0
M  V30 3494 N 354.331 -4.46665 -1.22658 0
M  V30 3495 C 355.066 -5.55857 -1.40751 0
M  V30 3496 N 354.562 -6.75026 -1.5592 0
M  V30 3497 N 356.355 -5.43495 -1.4342 0
M  V30 3498 H 348.506 -2.06661 0.490421 0
M  V30 3499 H 350.769 -0.934812 0.157579 0
M  V30 3500 H 350.475 -3.51699 -0.00704236 0
M  V30 3501 H 350.349 -3.34225 -1.74853 0
M  V30 3502 H 352.736 -2.35102 -1.78356 0
M  V30 3503 H 352.817 -2.55785 -0.0281435 0
M  V30 3504 H 352.461 -5.06827 -0.329915 0
M  V30 3505 H 352.391 -4.83165 -2.09426 0
M  V30 3506 H 354.882 -3.60797 -1.124 0
M  V30 3507 H 355.195 -7.54004 -1.69404 0
M  V30 3508 H 353.54 -6.77944 -1.53027 0
M  V30 3509 H 356.731 -4.49349 -1.31162 0
M  V30 3510 H 356.904 -6.28649 -1.57178 0
M  V30 3511 N 350.31 0.590341 -1.46126 0
M  V30 3512 C 351.273 1.68194 -1.55703 0
M  V30 3513 C 352.273 1.54808 -0.434868 0
M  V30 3514 O 353.463 1.59564 -0.698928 0
M  V30 3515 C 350.595 3.07575 -1.47005 0
M  V30 3516 H 351.788 1.61064 -2.52979 0
M  V30 3517 H 349.341 0.807541 -1.33823 0
M  V30 3518 H 350.076 3.20268 -0.509785 0
M  V30 3519 H 349.861 3.187 -2.28414 0
M  V30 3520 H 351.351 3.87055 -1.56776 0
M  V30 3521 N 351.788 1.33704 0.83433 0
M  V30 3522 C 353.013 1.28615 1.62705 0
M  V30 3523 C 353.438 -0.139242 1.87584 0
M  V30 3524 O 352.796 -1.09734 1.4432 0
M  V30 3525 C 352.844 2.07139 2.95171 0
M  V30 3526 O 351.948 1.4331 3.86699 0
M  V30 3527 H 351.289 0.44226 0.49528 0
M  V30 3528 H 353.819 1.76335 1.03766 0
M  V30 3529 H 353.829 2.18073 3.44831 0
M  V30 3530 H 352.504 3.10779 2.76386 0
M  V30 3531 H 351.081 1.4105 3.45195 0
M  V30 3532 N 353.266 -1.05314 1.17247 0
M  V30 3533 C 354.512 -1.78699 0.971513 0
M  V30 3534 C 354.867 -1.85932 -0.494692 0
M  V30 3535 O 354.16 -1.34716 -1.36243 0
M  V30 3536 C 354.354 -3.2229 1.54479 0
M  V30 3537 C 354.183 -3.29052 3.06521 0
M  V30 3538 C 352.953 -3.3841 3.75242 0
M  V30 3539 C 355.151 -3.18095 4.04129 0
M  V30 3540 N 353.133 -3.34289 5.14902 0
M  V30 3541 C 354.504 -3.21331 5.30232 0
M  V30 3542 C 356.559 -3.02049 3.95817 0
M  V30 3543 C 355.262 -3.10169 6.4899 0
M  V30 3544 C 357.288 -2.92228 5.14156 0
M  V30 3545 C 356.65 -2.96096 6.39145 0
M  V30 3546 H 352.749 -0.66628 0.409383 0
M  V30 3547 H 355.333 -1.25553 1.4881 0
M  V30 3548 H 353.504 -3.7381 1.05455 0
M  V30 3549 H 355.236 -3.83905 1.28059 0
M  V30 3550 H 351.991 -3.43621 3.25917 0
M  V30 3551 H 352.415 -3.35702 5.87906 0
M  V30 3552 H 357.057 -2.97897 3.00029 0
M  V30 3553 H 354.775 -3.13076 7.44989 0
M  V30 3554 H 358.361 -2.80885 5.09505 0
M  V30 3555 H 357.241 -2.88568 7.29176 0
M  V30 3556 N 354.744 -0.972509 -1.24016 0
M  V30 3557 C 355.972 -0.654803 -1.96265 0
M  V30 3558 C 356.387 0.776708 -1.72083 0
M  V30 3559 O 355.744 1.52171 -1.00748 0
M  V30 3560 C 355.795 -0.92592 -3.49441 0
M  V30 3561 O 355.516 -2.30116 -3.72798 0
M  V30 3562 C 357.017 -0.623068 -4.38899 0
M  V30 3563 H 354.237 -0.243907 -0.6251 0
M  V30 3564 H 356.781 -1.30175 -1.57717 0
M  V30 3565 H 354.936 -0.325108 -3.86033 0
M  V30 3566 H 355.35 -2.38483 -4.67147 0
M  V30 3567 H 356.824 -0.863189 -5.45209 0
M  V30 3568 H 357.301 0.442754 -4.36963 0
M  V30 3569 H 357.907 -1.204 -4.07902 0
M  V30 3570 N 356.222 1.38976 -0.743202 0
M  V30 3571 C 357.452 2.04339 -0.304807 0
M  V30 3572 C 357.86 1.56162 1.06819 0
M  V30 3573 O 357.203 0.725284 1.68776 0
M  V30 3574 C 357.265 3.58716 -0.237369 0
M  V30 3575 C 356.929 4.29905 -1.55018 0
M  V30 3576 C 357.926 4.55987 -2.49744 0
M  V30 3577 C 355.611 4.68294 -1.81675 0
M  V30 3578 C 357.605 5.19478 -3.69353 0
M  V30 3579 C 355.292 5.31512 -3.0156 0
M  V30 3580 C 356.29 5.57037 -3.9522 0
M  V30 3581 O 355.978 6.18941 -5.12998 0
M  V30 3582 H 355.71 0.663439 -0.12971 0
M  V30 3583 H 358.264 1.78852 -1.01001 0
M  V30 3584 H 356.494 3.83133 0.524003 0
M  V30 3585 H 358.183 4.05543 0.170121 0
M  V30 3586 H 358.949 4.26767 -2.30423 0
M  V30 3587 H 354.828 4.47779 -1.09615 0
M  V30 3588 H 358.372 5.39318 -4.42473 0
M  V30 3589 H 354.269 5.60153 -3.20778 0
M  V30 3590 H 355.037 6.37433 -5.13441 0
M  V30 3591 N 357.7 0.491464 1.49741 0
M  V30 3592 C 359.111 0.0413169 1.86654 0
M  V30 3593 C 359.462 -1.36985 1.40462 0
M  V30 3594 O 358.587 -2.01917 0.778354 0
M  V30 3595 C 359.182 0.0682023 3.38731 0
M  V30 3596 C 357.741 -0.32656 3.74981 0
M  V30 3597 C 356.888 0.444888 2.73708 0
M  V30 3598 H 359.839 0.704733 1.42194 0
M  V30 3599 H 359.86 -0.729322 3.73445 0
M  V30 3600 H 359.372 1.09539 3.72321 0
M  V30 3601 H 357.473 -1.35734 3.46997 0
M  V30 3602 H 357.586 -0.013741 4.79098 0
M  V30 3603 H 355.95 -0.104062 2.54487 0
M  V30 3604 H 356.733 1.47197 3.10142 0
M  V30 3605 N 359.178 -1.55987 0.224894 0
M  V30 3606 C 360.141 -2.19178 -0.670348 0
M  V30 3607 C 361.141 -1.15461 -1.11917 0
M  V30 3608 O 362.331 -1.40675 -1.02743 0
M  V30 3609 C 359.463 -2.81777 -1.9187 0
M  V30 3610 H 360.656 -2.99662 -0.119364 0
M  V30 3611 H 358.209 -1.5628 -0.0247128 0
M  V30 3612 H 358.944 -2.05172 -2.51147 0
M  V30 3613 H 358.729 -3.57732 -1.60531 0
M  V30 3614 H 360.219 -3.30205 -2.55645 0
M  V30 3615 N 360.656 0.0484629 -1.57525 0
M  V30 3616 C 361.881 0.759177 -1.93006 0
M  V30 3617 C 362.306 1.69125 -0.823317 0
M  V30 3618 O 361.664 1.79931 0.222364 0
M  V30 3619 C 361.712 1.50899 -3.27509 0
M  V30 3620 O 360.816 2.62112 -3.18388 0
M  V30 3621 H 360.157 0.205564 -0.631379 0
M  V30 3622 H 362.687 0.00972959 -2.04598 0
M  V30 3623 H 362.697 1.88317 -3.6194 0
M  V30 3624 H 361.372 0.825269 -4.0763 0
M  V30 3625 H 359.949 2.27379 -2.95556 0
M  V30 3626 N 362.134 1.5431 0.320358 0
M  V30 3627 C 363.38 1.73859 1.05568 0
M  V30 3628 C 363.735 0.507807 1.85578 0
M  V30 3629 O 363.028 -0.499789 1.84967 0
M  V30 3630 C 363.222 2.95639 2.00828 0
M  V30 3631 C 363.051 4.30444 1.30186 0
M  V30 3632 C 361.821 4.94544 1.03703 0
M  V30 3633 C 364.019 5.0929 0.716138 0
M  V30 3634 N 362.001 6.13172 0.298846 0
M  V30 3635 C 363.372 6.19903 0.109729 0
M  V30 3636 C 365.427 4.94034 0.619269 0
M  V30 3637 C 364.13 7.16924 -0.584153 0
M  V30 3638 C 366.156 5.91369 -0.0609184 0
M  V30 3639 C 365.518 7.01336 -0.656258 0
M  V30 3640 H 361.617 0.688988 0.36989 0
M  V30 3641 H 364.201 1.9177 0.336494 0
M  V30 3642 H 362.372 2.79188 2.70016 0
M  V30 3643 H 364.104 3.03802 2.6737 0
M  V30 3644 H 360.859 4.54536 1.33019 0
M  V30 3645 H 361.283 6.76977 -0.0561964 0
M  V30 3646 H 365.925 4.0916 1.06526 0
M  V30 3647 H 363.643 8.01354 -1.04197 0
M  V30 3648 H 367.229 5.81642 -0.135552 0
M  V30 3649 H 366.109 7.75359 -1.17423 0
M  V30 3650 N 363.613 -0.582584 1.46437 0
M  V30 3651 C 365.024 -1.1647 1.45916 0
M  V30 3652 C 365.375 -1.95177 0.200077 0
M  V30 3653 O 364.5 -2.04874 -0.696819 0
M  V30 3654 C 365.095 -2.11885 2.64367 0
M  V30 3655 C 363.654 -2.65421 2.66887 0
M  V30 3656 C 362.801 -1.41294 2.38603 0
M  V30 3657 H 365.752 -0.370514 1.54314 0
M  V30 3658 H 365.773 -2.9535 2.39892 0
M  V30 3659 H 365.285 -1.54573 3.5599 0
M  V30 3660 H 363.386 -3.26602 1.79338 0
M  V30 3661 H 363.499 -3.08147 3.66854 0
M  V30 3662 H 361.863 -1.71109 1.88663 0
M  V30 3663 H 362.646 -0.858125 3.32402 0
M  V30 3664 N 365.091 -1.34144 -0.827227 0
M  V30 3665 C 366.331 -1.27603 -1.59677 0
M  V30 3666 C 366.695 0.153035 -1.91389 0
M  V30 3667 O 367.896 0.342566 -2.66608 0
M  V30 3668 C 366.167 -2.13784 -2.86411 0
M  V30 3669 S 367.726 -2.24552 -3.76991 0
M  V30 3670 H 364.544 -0.453789 -0.547354 0
M  V30 3671 H 367.146 -1.69309 -0.977479 0
M  V30 3672 H 365.85 -3.16627 -2.61104 0
M  V30 3673 H 365.381 -1.72959 -3.5334 0
M  V30 3674 H 367.396 -1.41514 -4.75593 0
M  V30 3675 N 366.569 1.04691 -1.17803 0
M  V30 3676 C 367.501 2.12571 -0.857097 0
M  V30 3677 C 368.514 1.62174 0.142647 0
M  V30 3678 O 369.703 1.78301 -0.0843387 0
M  V30 3679 C 366.803 3.37915 -0.258216 0
M  V30 3680 C 365.976 4.1757 -1.30207 0
M  V30 3681 C 365.035 5.2125 -0.720029 0
M  V30 3682 O 364.061 5.51888 -1.39314 0
M  V30 3683 N 365.263 5.78466 0.485507 0
M  V30 3684 H 368.028 2.40698 -1.78562 0
M  V30 3685 H 365.589 1.20831 -1.07757 0
M  V30 3686 H 367.581 4.04442 0.144584 0
M  V30 3687 H 366.151 3.07281 0.574199 0
M  V30 3688 H 365.371 3.46458 -1.88043 0
M  V30 3689 H 366.659 4.67586 -2.00601 0
M  V30 3690 H 366.057 5.55866 1.05022 0
M  V30 3691 H 364.614 6.4649 0.830307 0
M  V30 3692 N 368.047 0.979072 1.23499 0
M  V30 3693 C 369.458 0.684391 1.73704 0
M  V30 3694 C 369.809 -0.799448 1.79174 0
M  V30 3695 O 368.934 -1.62531 1.42873 0
M  V30 3696 C 369.529 1.23564 3.15464 0
M  V30 3697 C 368.088 0.99063 3.6313 0
M  V30 3698 C 367.235 1.36416 2.41425 0
M  V30 3699 H 370.186 1.15307 1.09041 0
M  V30 3700 H 370.207 0.607417 3.7562 0
M  V30 3701 H 369.719 2.31561 3.1145 0
M  V30 3702 H 367.82 -0.0733136 3.72528 0
M  V30 3703 H 367.933 1.64427 4.5 0
M  V30 3704 H 366.297 0.782616 2.42378 0
M  V30 3705 H 367.08 2.45387 2.40083 0
M  V30 3706 N 369.525 -1.3858 0.750561 0
M  V30 3707 C 370.475 -2.27795 0.0965949 0
M  V30 3708 C 371.459 -1.45048 -0.696411 0
M  V30 3709 O 372.651 -1.67812 -0.562863 0
M  V30 3710 C 369.78 -3.33894 -0.798085 0
M  V30 3711 C 368.866 -4.241 0.0016067 0
M  V30 3712 N 369.257 -4.95067 1.03647 0
M  V30 3713 C 367.555 -4.45429 -0.225674 0
M  V30 3714 C 368.256 -5.61489 1.52004 0
M  V30 3715 N 367.232 -5.37135 0.835874 0
M  V30 3716 H 371.034 -2.80125 0.889228 0
M  V30 3717 H 368.548 -1.51446 0.586323 0
M  V30 3718 H 370.545 -3.96693 -1.28219 0
M  V30 3719 H 369.205 -2.83123 -1.5897 0
M  V30 3720 H 370.216 -4.98104 1.41819 0
M  V30 3721 H 366.893 -4.05571 -0.990872 0
M  V30 3722 H 368.283 -6.28264 2.38188 0
M  V30 3723 N 371.003 -0.499398 -1.49478 0
M  V30 3724 C 372.25 0.0456899 -2.02448 0
M  V30 3725 C 372.578 1.37142 -1.37921 0
M  V30 3726 O 371.833 1.89111 -0.503544 0
M  V30 3727 C 372.132 0.248424 -3.56536 0
M  V30 3728 C 371.798 -0.999107 -4.39692 0
M  V30 3729 C 370.46 -1.34108 -4.62135 0
M  V30 3730 C 372.812 -1.82842 -4.88076 0
M  V30 3731 C 370.14 -2.51191 -5.30208 0
M  V30 3732 C 372.492 -2.99076 -5.57437 0
M  V30 3733 C 371.156 -3.33655 -5.78127 0
M  V30 3734 H 370.426 0.0167191 -0.740811 0
M  V30 3735 H 373.073 -0.65923 -1.79795 0
M  V30 3736 H 371.378 1.03586 -3.77859 0
M  V30 3737 H 373.075 0.684605 -3.95113 0
M  V30 3738 H 369.665 -0.722729 -4.22463 0
M  V30 3739 H 373.849 -1.57737 -4.70566 0
M  V30 3740 H 369.105 -2.78221 -5.44429 0
M  V30 3741 H 373.279 -3.63664 -5.93904 0
M  V30 3742 H 370.906 -4.24483 -6.30649 0
M  V30 3743 N 372.481 1.55866 -0.233164 0
M  V30 3744 C 373.411 2.23783 0.666599 0
M  V30 3745 C 374.392 1.21343 1.19205 0
M  V30 3746 O 375.577 1.4996 1.23392 0
M  V30 3747 C 372.707 2.92671 1.86978 0
M  V30 3748 C 371.661 4.01682 1.47768 0
M  V30 3749 C 370.987 4.57926 2.76058 0
M  V30 3750 C 372.287 5.18126 0.658993 0
M  V30 3751 H 373.981 2.99232 0.100306 0
M  V30 3752 H 371.527 1.43924 0.046804 0
M  V30 3753 H 373.48 3.3888 2.50476 0
M  V30 3754 H 372.204 2.14688 2.46123 0
M  V30 3755 H 370.863 3.56222 0.866106 0
M  V30 3756 H 370.511 3.76659 3.33372 0
M  V30 3757 H 370.211 5.31505 2.50552 0
M  V30 3758 H 371.735 5.06859 3.40479 0
M  V30 3759 H 373.149 5.60644 1.19795 0
M  V30 3760 H 371.546 5.98009 0.500552 0
M  V30 3761 H 372.616 4.83763 -0.331856 0
M  V30 3762 N 373.959 -0.0401083 1.57549 0
M  V30 3763 C 374.889 -1.04384 2.08869 0
M  V30 3764 C 375.87 -1.38407 0.988817 0
M  V30 3765 O 377.055 -1.47483 1.26342 0
M  V30 3766 C 374.185 -2.34808 2.55895 0
M  V30 3767 C 373.139 -2.15057 3.70047 0
M  V30 3768 C 372.465 -3.51145 4.03239 0
M  V30 3769 C 373.765 -1.54576 4.98902 0
M  V30 3770 H 375.459 -0.616666 2.92981 0
M  V30 3771 H 373.005 -0.295184 1.40942 0
M  V30 3772 H 374.958 -3.05346 2.90417 0
M  V30 3773 H 373.682 -2.79565 1.68853 0
M  V30 3774 H 372.341 -1.46954 3.35857 0
M  V30 3775 H 371.989 -3.93529 3.13279 0
M  V30 3776 H 371.689 -3.38758 4.80122 0
M  V30 3777 H 373.213 -4.23062 4.40285 0
M  V30 3778 H 374.627 -2.15017 5.31451 0
M  V30 3779 H 373.024 -1.52796 5.80322 0
M  V30 3780 H 374.094 -0.51039 4.82206 0
M  V30 3781 N 375.437 -1.54477 -0.31217 0
M  V30 3782 C 376.384 -1.84655 -1.38461 0
M  V30 3783 C 377.354 -0.694536 -1.50882 0
M  V30 3784 O 378.539 -0.942081 -1.6592 0
M  V30 3785 C 375.679 -2.0896 -2.74645 0
M  V30 3786 C 374.792 -3.36618 -2.70763 0
M  V30 3787 C 373.927 -3.50824 -3.98868 0
M  V30 3788 C 372.966 -4.72315 -3.89339 0
M  V30 3789 N 372.103 -4.83387 -5.09197 0
M  V30 3790 H 376.943 -2.76142 -1.12026 0
M  V30 3791 H 374.48 -1.36748 -0.542065 0
M  V30 3792 H 376.438 -2.21045 -3.53829 0
M  V30 3793 H 375.068 -1.20752 -2.99364 0
M  V30 3794 H 374.12 -3.33211 -1.83506 0
M  V30 3795 H 375.432 -4.25917 -2.59608 0
M  V30 3796 H 374.586 -3.62513 -4.86486 0
M  V30 3797 H 373.325 -2.59638 -4.12843 0
M  V30 3798 H 372.33 -4.6067 -3.00105 0
M  V30 3799 H 373.555 -5.64897 -3.76919 0
M  V30 3800 H 371.501 -3.9512 -5.23657 0
M  V30 3801 H 371.418 -5.66669 -5.00422 0
M  V30 3802 H 372.686 -4.9942 -5.98498 0
M  V30 3803 N 376.915 0.57481 -1.46744 0
M  V30 3804 C 378.162 1.33272 -1.52462 0
M  V30 3805 C 378.49 1.93669 -0.179572 0
M  V30 3806 O 377.745 1.7743 0.825664 0
M  V30 3807 C 378.044 2.476 -2.57738 0
M  V30 3808 C 377.71 2.05146 -4.01529 0
M  V30 3809 C 376.372 1.93284 -4.40676 0
M  V30 3810 C 378.724 1.72506 -4.91824 0
M  V30 3811 C 376.052 1.47049 -5.67973 0
M  V30 3812 C 378.404 1.27748 -6.19567 0
M  V30 3813 C 377.068 1.14468 -6.57612 0
M  V30 3814 H 376.338 0.487678 -0.557899 0
M  V30 3815 H 378.985 0.646456 -1.80259 0
M  V30 3816 H 377.29 3.21708 -2.23632 0
M  V30 3817 H 378.987 3.05807 -2.5939 0
M  V30 3818 H 375.577 2.15316 -3.7059 0
M  V30 3819 H 379.761 1.80552 -4.62293 0
M  V30 3820 H 375.017 1.35417 -5.96215 0
M  V30 3821 H 379.191 1.01547 -6.88957 0
M  V30 3822 H 376.818 0.78419 -7.56145 0
M  V30 3823 N 378.394 1.34581 0.820102 0
M  V30 3824 C 379.81 1.14325 1.11364 0
M  V30 3825 C 380.01 -0.0533648 2.01429 0
M  V30 3826 O 379.066 -0.728044 2.41776 0
M  V30 3827 C 380.379 2.43983 1.75764 0
M  V30 3828 C 381.927 2.50065 1.88246 0
M  V30 3829 C 382.402 3.79732 2.56061 0
M  V30 3830 N 383.893 3.80908 2.63558 0
M  V30 3831 C 384.628 4.77961 3.16766 0
M  V30 3832 N 384.124 5.85397 3.70517 0
M  V30 3833 N 385.917 4.65413 3.15194 0
M  V30 3834 H 378.068 2.11246 0.221096 0
M  V30 3835 H 380.331 0.934289 0.160649 0
M  V30 3836 H 380.037 3.31651 1.1705 0
M  V30 3837 H 379.911 2.57531 2.75604 0
M  V30 3838 H 382.298 1.62834 2.46108 0
M  V30 3839 H 382.379 2.40442 0.873006 0
M  V30 3840 H 382.023 4.67354 1.98853 0
M  V30 3841 H 381.953 3.86639 3.57516 0
M  V30 3842 H 384.444 3.03274 2.25463 0
M  V30 3843 H 384.757 6.55463 4.09376 0
M  V30 3844 H 383.102 5.89107 3.68752 0
M  V30 3845 H 386.293 3.80627 2.72471 0
M  V30 3846 H 386.466 5.41216 3.56356 0
M  V30 3847 N 379.872 -1.04064 1.18357 0
M  V30 3848 C 380.802 -2.14001 0.934113 0
M  V30 3849 C 381.783 -1.69616 -0.128186 0
M  V30 3850 O 382.968 -1.94185 0.0244093 0
M  V30 3851 C 380.098 -3.44253 0.459066 0
M  V30 3852 C 379.052 -4.02261 1.46185 0
M  V30 3853 C 378.378 -5.27992 0.844322 0
M  V30 3854 C 379.678 -4.38432 2.83856 0
M  V30 3855 H 381.372 -2.35127 1.85352 0
M  V30 3856 H 378.918 -1.12998 0.892604 0
M  V30 3857 H 380.871 -4.20522 0.271907 0
M  V30 3858 H 379.595 -3.22813 -0.495912 0
M  V30 3859 H 378.254 -3.28074 1.63595 0
M  V30 3860 H 377.902 -5.02862 -0.117845 0
M  V30 3861 H 377.602 -5.67765 1.51384 0
M  V30 3862 H 379.126 -6.06938 0.667693 0
M  V30 3863 H 380.54 -5.05688 2.70098 0
M  V30 3864 H 378.937 -4.89254 3.47491 0
M  V30 3865 H 380.007 -3.4826 3.37406 0
M  V30 3866 N 381.35 -0.985608 -1.22978 0
M  V30 3867 C 382.282 -0.488154 -2.23941 0
M  V30 3868 C 383.295 0.41282 -1.57479 0
M  V30 3869 O 384.484 0.216121 -1.77187 0
M  V30 3870 C 381.584 0.312611 -3.37455 0
M  V30 3871 C 380.757 -0.582741 -4.33501 0
M  V30 3872 C 379.816 0.165064 -5.25941 0
M  V30 3873 O 378.842 -0.447077 -5.67442 0
M  V30 3874 N 380.044 1.44953 -5.62111 0
M  V30 3875 H 382.809 -1.3563 -2.67254 0
M  V30 3876 H 380.37 -0.859477 -1.37203 0
M  V30 3877 H 382.362 0.821357 -3.96277 0
M  V30 3878 H 380.932 1.0818 -2.93285 0
M  V30 3879 H 380.152 -1.27225 -3.73105 0
M  V30 3880 H 381.44 -1.19275 -4.94622 0
M  V30 3881 H 380.838 1.9683 -5.30353 0
M  V30 3882 H 379.395 1.90361 -6.23383 0
M  V30 3883 N 382.828 1.3818 -0.7579 0
M  V30 3884 C 384.058 2.04004 -0.326463 0
M  V30 3885 C 384.466 1.57286 1.05156 0
M  V30 3886 O 383.809 0.743144 1.67997 0
M  V30 3887 C 383.871 3.58444 -0.275402 0
M  V30 3888 C 383.535 4.28237 -1.59569 0
M  V30 3889 C 384.532 4.53312 -2.54566 0
M  V30 3890 C 382.217 4.66341 -1.86631 0
M  V30 3891 C 384.211 5.15531 -3.74842 0
M  V30 3892 C 381.898 5.28283 -3.0718 0
M  V30 3893 C 382.896 5.52814 -4.01106 0
M  V30 3894 O 382.584 6.13465 -5.19534 0
M  V30 3895 H 382.316 0.662026 -0.136739 0
M  V30 3896 H 384.87 1.7777 -1.02893 0
M  V30 3897 H 383.1 3.83667 0.483337 0
M  V30 3898 H 384.789 4.05701 0.127099 0
M  V30 3899 H 385.555 4.24299 -2.34936 0
M  V30 3900 H 381.434 4.46591 -1.14358 0
M  V30 3901 H 384.978 5.34594 -4.48168 0
M  V30 3902 H 380.875 5.56719 -3.26702 0
M  V30 3903 H 381.643 6.31951 -5.20173 0
M  V30 3904 N 384.306 0.507319 1.49211 0
M  V30 3905 C 385.722 0.163682 1.58758 0
M  V30 3906 C 385.922 -1.33208 1.51188 0
M  V30 3907 O 384.978 -2.10855 1.38911 0
M  V30 3908 C 386.291 0.746095 2.91297 0
M  V30 3909 C 387.839 0.712773 3.04776 0
M  V30 3910 C 388.314 1.27336 4.39943 0
M  V30 3911 N 389.805 1.23433 4.46451 0
M  V30 3912 C 390.54 1.63821 5.495 0
M  V30 3913 N 390.036 2.11832 6.5962 0
M  V30 3914 N 391.829 1.55198 5.4025 0
M  V30 3915 H 383.98 1.47972 1.52375 0
M  V30 3916 H 386.243 0.614147 0.722168 0
M  V30 3917 H 385.949 1.79534 3.02424 0
M  V30 3918 H 385.823 0.210137 3.76614 0
M  V30 3919 H 388.21 -0.327656 2.93275 0
M  V30 3920 H 388.291 1.28595 2.21127 0
M  V30 3921 H 387.935 2.3126 4.52196 0
M  V30 3922 H 387.865 0.676066 5.22242 0
M  V30 3923 H 390.356 0.882627 3.67448 0
M  V30 3924 H 390.669 2.40703 7.34358 0
M  V30 3925 H 389.014 2.1581 6.60644 0
M  V30 3926 H 392.205 1.17505 4.53112 0
M  V30 3927 H 392.378 1.86997 6.20432 0
M  V30 3928 N 385.784 -1.5574 0.241426 0
M  V30 3929 C 387.195 -1.84842 -0.262755 0
M  V30 3930 C 387.546 -1.16317 -1.58003 0
M  V30 3931 O 386.671 -0.439653 -2.11887 0
M  V30 3932 C 387.266 -3.35332 -0.483523 0
M  V30 3933 C 385.825 -3.6468 -0.931977 0
M  V30 3934 C 384.972 -2.77299 -0.0061151 0
M  V30 3935 H 387.923 -1.51761 0.464129 0
M  V30 3936 H 387.944 -3.56615 -1.32688 0
M  V30 3937 H 387.456 -3.85178 0.47537 0
M  V30 3938 H 385.557 -3.20307 -1.90353 0
M  V30 3939 H 385.67 -4.72498 -0.792628 0
M  V30 3940 H 384.034 -2.49408 -0.516503 0
M  V30 3941 H 384.817 -3.2995 0.948052 0
M  V30 3942 N 387.262 0.0317525 -1.57568 0
M  V30 3943 C 388.225 1.01783 -2.0536 0
M  V30 3944 C 389.225 1.29203 -0.957253 0
M  V30 3945 O 390.415 1.24251 -1.22095 0
M  V30 3946 C 387.547 2.35137 -2.46827 0
M  V30 3947 H 388.74 0.605062 -2.93733 0
M  V30 3948 H 386.293 0.278514 -1.53799 0
M  V30 3949 H 387.028 2.81168 -1.61602 0
M  V30 3950 H 386.813 2.16566 -3.26866 0
M  V30 3951 H 388.303 3.05938 -2.84239 0
M  V30 3952 N 388.74 1.54641 0.303973 0
M  V30 3953 C 389.672 1.81754 1.39636 0
M  V30 3954 C 390.685 0.70035 1.46966 0
M  V30 3955 O 391.874 0.97778 1.49338 0
M  V30 3956 C 388.974 1.93785 2.7803 0
M  V30 3957 C 388.147 3.24156 2.93669 0
M  V30 3958 C 387.206 3.26641 4.12544 0
M  V30 3959 O 386.232 4.00187 4.04771 0
M  V30 3960 N 387.434 2.5182 5.23036 0
M  V30 3961 H 390.199 2.76031 1.16734 0
M  V30 3962 H 387.76 1.54178 0.494033 0
M  V30 3963 H 389.752 1.92852 3.55795 0
M  V30 3964 H 388.322 1.06515 2.93893 0
M  V30 3965 H 387.542 3.37887 2.03042 0
M  V30 3966 H 388.83 4.10195 3.01027 0
M  V30 3967 H 388.228 1.91692 5.32232 0
M  V30 3968 H 386.785 2.56644 5.99147 0
M  V30 3969 N 390.218 -0.567019 1.47046 0
M  V30 3970 C 391.168 -1.67018 1.55207 0
M  V30 3971 C 392.152 -1.55543 0.411714 0
M  V30 3972 O 393.344 -1.64192 0.661064 0
M  V30 3973 C 390.473 -3.05801 1.56014 0
M  V30 3974 C 389.559 -3.22515 2.75399 0
M  V30 3975 N 389.95 -3.09329 4.00186 0
M  V30 3976 C 388.248 -3.53493 2.71954 0
M  V30 3977 C 388.949 -3.2847 4.80086 0
M  V30 3978 N 387.925 -3.54352 4.12233 0
M  V30 3979 H 391.727 -1.55377 2.4947 0
M  V30 3980 H 389.241 -0.771503 1.42904 0
M  V30 3981 H 391.238 -3.84996 1.59949 0
M  V30 3982 H 389.898 -3.18561 0.628396 0
M  V30 3983 H 390.909 -2.86863 4.31196 0
M  V30 3984 H 387.586 -3.7284 1.87873 0
M  V30 3985 H 388.976 -3.23326 5.88991 0
M  V30 3986 N 391.696 -1.35014 -0.812953 0
M  V30 3987 C 393.107 -1.25035 -1.38648 0
M  V30 3988 C 393.458 0.119967 -1.95833 0
M  V30 3989 O 392.583 1.02069 -1.90816 0
M  V30 3990 C 393.178 -2.26394 -2.52054 0
M  V30 3991 C 391.737 -2.20175 -3.05287 0
M  V30 3992 C 390.884 -2.12451 -1.78213 0
M  V30 3993 H 393.835 -1.46235 -0.616516 0
M  V30 3994 H 393.856 -1.88672 -3.30429 0
M  V30 3995 H 393.368 -3.26116 -2.10404 0
M  V30 3996 H 391.469 -1.23841 -3.51417 0
M  V30 3997 H 391.582 -3.11863 -3.63701 0
M  V30 3998 H 389.946 -1.58328 -1.9951 0
M  V30 3999 H 390.729 -3.14024 -1.38723 0
M  V30 4000 N 393.175 1.03435 -1.18907 0
M  V30 4001 C 394.138 2.09756 -0.923844 0
M  V30 4002 C 395.138 1.60528 0.093416 0
M  V30 4003 O 396.328 1.73631 -0.140727 0
M  V30 4004 C 393.46 3.38692 -0.387354 0
M  V30 4005 H 394.653 2.34719 -1.86674 0
M  V30 4006 H 392.206 1.19959 -1.00197 0
M  V30 4007 H 392.941 3.19396 0.561845 0
M  V30 4008 H 392.726 3.75742 -1.12074 0
M  V30 4009 H 394.216 4.17016 -0.220694 0
M  V30 4010 N 394.653 0.992116 1.22453 0
M  V30 4011 C 395.899 0.678177 1.91761 0
M  V30 4012 C 396.254 -0.781141 1.75829 0
M  V30 4013 O 395.547 -1.55747 1.11595 0
M  V30 4014 C 395.741 1.01832 3.42586 0
M  V30 4015 C 395.57 2.50916 3.73191 0
M  V30 4016 C 394.34 3.17308 3.93248 0
M  V30 4017 C 396.538 3.49032 3.77732 0
M  V30 4018 N 394.52 4.55876 4.11157 0
M  V30 4019 C 395.891 4.73055 4.00773 0
M  V30 4020 C 397.946 3.43349 3.60577 0
M  V30 4021 C 396.649 5.92089 4.0844 0
M  V30 4022 C 398.675 4.61759 3.69503 0
M  V30 4023 C 398.037 5.84582 3.92993 0
M  V30 4024 H 394.136 0.299425 0.722405 0
M  V30 4025 H 396.72 1.27197 1.47408 0
M  V30 4026 H 394.891 0.453118 3.85748 0
M  V30 4027 H 396.623 0.660454 3.99274 0
M  V30 4028 H 393.378 2.67778 3.9063 0
M  V30 4029 H 393.802 5.27748 4.24042 0
M  V30 4030 H 398.444 2.49408 3.41402 0
M  V30 4031 H 396.162 6.86435 4.26418 0
M  V30 4032 H 399.748 4.58951 3.57569 0
M  V30 4033 H 398.628 6.74676 3.99728 0
M  V30 4034 N 396.131 -1.37776 0.765217 0
M  V30 4035 C 397.356 -2.04651 0.336537 0
M  V30 4036 C 397.781 -1.57337 -1.03086 0
M  V30 4037 O 397.139 -0.730621 -1.65927 0
M  V30 4038 C 397.187 -3.58577 0.381468 0
M  V30 4039 O 396.291 -4.07706 -0.62042 0
M  V30 4040 H 395.632 -0.64756 0.146838 0
M  V30 4041 H 398.162 -1.76221 1.03959 0
M  V30 4042 H 398.172 -4.07314 0.236448 0
M  V30 4043 H 396.847 -3.9237 1.37907 0
M  V30 4044 H 395.424 -3.70306 -0.439056 0
M  V30 4045 N 397.609 -0.515225 -1.4894 0
M  V30 4046 C 398.837 0.0206034 -2.0689 0
M  V30 4047 C 399.252 1.29514 -1.37374 0
M  V30 4048 O 398.609 1.76698 -0.456529 0
M  V30 4049 C 398.66 0.26351 -3.60538 0
M  V30 4050 O 398.381 -0.960517 -4.27441 0
M  V30 4051 C 399.882 0.841383 -4.35242 0
M  V30 4052 H 397.102 -0.0268608 -0.670462 0
M  V30 4053 H 399.646 -0.716651 -1.91532 0
M  V30 4054 H 397.801 0.950777 -3.75552 0
M  V30 4055 H 398.215 -0.73212 -5.19365 0
M  V30 4056 H 399.689 0.96085 -5.43573 0
M  V30 4057 H 400.166 1.8427 -3.98674 0
M  V30 4058 H 400.772 0.191143 -4.2487 0
M  V30 4059 N 399.087 1.5561 -0.249682 0
M  V30 4060 C 400.333 1.99306 0.374841 0
M  V30 4061 C 400.666 1.13767 1.57387 0
M  V30 4062 O 399.941 0.201711 1.93451 0
M  V30 4063 C 400.224 3.51507 0.781986 0
M  V30 4064 C 400.077 4.4781 -0.422629 0
M  V30 4065 C 401.396 4.08884 1.62793 0
M  V30 4066 H 398.515 0.724572 0.134773 0
M  V30 4067 H 401.157 1.86719 -0.351549 0
M  V30 4068 H 399.307 3.62363 1.4009 0
M  V30 4069 H 400.979 4.48931 -1.06108 0
M  V30 4070 H 399.222 4.20518 -1.06524 0
M  V30 4071 H 399.893 5.51919 -0.0943766 0
M  V30 4072 H 402.369 4.01147 1.10547 0
M  V30 4073 H 401.245 5.1564 1.88166 0
M  V30 4074 H 401.506 3.57515 2.60068 0
M  V30 4075 N 400.565 -0.0233959 1.57583 0
M  V30 4076 C 401.475 -1.03907 2.10334 0
M  V30 4077 C 402.491 -1.39257 1.04323 0
M  V30 4078 O 403.667 -1.48462 1.36091 0
M  V30 4079 C 400.732 -2.31938 2.57693 0
M  V30 4080 C 399.793 -2.03117 3.78209 0
M  V30 4081 C 399.026 -3.25043 4.233 0
M  V30 4082 O 399.249 -4.35916 3.67876 0
M  V30 4083 O 398.183 -3.10411 5.15683 0
M  V30 4084 H 402.009 -0.620748 2.97288 0
M  V30 4085 H 399.594 -0.240743 1.47448 0
M  V30 4086 H 401.476 -3.07196 2.88458 0
M  V30 4087 H 400.151 -2.73055 1.73847 0
M  V30 4088 H 399.058 -1.25408 3.52454 0
M  V30 4089 H 400.391 -1.66852 4.63056 0
M  V30 4090 N 402.043 -1.548 -0.295768 0
M  V30 4091 C 403.454 -1.65274 -0.868411 0
M  V30 4092 C 403.805 -0.56481 -1.87894 0
M  V30 4093 O 402.93 0.29767 -2.14343 0
M  V30 4094 C 403.525 -2.99603 -1.58188 0
M  V30 4095 C 402.084 -3.12181 -2.10286 0
M  V30 4096 C 401.231 -2.6098 -0.93727 0
M  V30 4097 H 404.182 -1.58534 -0.0726422 0
M  V30 4098 H 404.203 -2.91319 -2.44772 0
M  V30 4099 H 403.715 -3.78764 -0.846151 0
M  V30 4100 H 401.816 -2.3775 -2.8689 0
M  V30 4101 H 401.929 -4.18415 -2.33379 0
M  V30 4102 H 400.293 -2.17564 -1.32431 0
M  V30 4103 H 401.076 -3.42623 -0.215414 0
M  V30 4104 N 403.521 0.559213 -1.47345 0
M  V30 4105 C 404.484 1.64854 -1.59235 0
M  V30 4106 C 405.484 1.53851 -0.467607 0
M  V30 4107 O 406.674 1.58045 -0.732617 0
M  V30 4108 C 403.806 3.04388 -1.53496 0
M  V30 4109 H 404.999 1.55662 -2.56339 0
M  V30 4110 H 402.552 0.778973 -1.35505 0
M  V30 4111 H 403.287 3.19115 -0.577604 0
M  V30 4112 H 403.072 3.13783 -2.35123 0
M  V30 4113 H 404.562 3.83642 -1.6495 0
M  V30 4114 N 404.999 1.35443 0.805782 0
M  V30 4115 C 406.247 1.28507 1.55982 0
M  V30 4116 C 406.568 -0.140046 1.94496 0
M  V30 4117 O 405.838 -1.07666 1.63661 0
M  V30 4118 H 404.418 0.472676 0.578434 0
M  V30 4119 H 407.08 1.69555 0.961098 0
M  V30 4120 H 406.176 1.90148 2.47488 0
M  V30 4121 N 406.477 -1.02803 1.19454 0
M  V30 4122 C 407.407 -2.12999 0.956758 0
M  V30 4123 C 408.388 -1.69743 -0.110188 0
M  V30 4124 O 409.573 -1.94148 0.0450038 0
M  V30 4125 C 406.703 -3.43746 0.495553 0
M  V30 4126 C 405.657 -4.00688 1.50443 0
M  V30 4127 C 404.983 -5.27067 0.900275 0
M  V30 4128 C 406.283 -4.35397 2.8849 0
M  V30 4129 H 407.977 -2.33148 1.87836 0
M  V30 4130 H 405.523 -1.12045 0.904539 0
M  V30 4131 H 407.476 -4.2021 0.316493 0
M  V30 4132 H 406.2 -3.23321 -0.461646 0
M  V30 4133 H 404.859 -3.2632 1.67065 0
M  V30 4134 H 404.507 -5.02959 -0.064503 0
M  V30 4135 H 404.207 -5.66127 1.57397 0
M  V30 4136 H 405.731 -6.06196 0.73203 0
M  V30 4137 H 407.145 -5.02795 2.75446 0
M  V30 4138 H 405.542 -4.85541 3.52661 0
M  V30 4139 H 406.612 -3.44662 3.41081 0
M  V30 4140 N 407.956 -0.998596 -1.21925 0
M  V30 4141 C 408.866 -0.562736 -2.27751 0
M  V30 4142 C 409.882 0.391203 -1.69545 0
M  V30 4143 O 411.058 0.256625 -1.99758 0
M  V30 4144 C 408.123 0.11012 -3.46525 0
M  V30 4145 C 407.184 -0.887495 -4.20026 0
M  V30 4146 C 406.417 -0.246654 -5.3313 0
M  V30 4147 O 406.64 0.958088 -5.62296 0
M  V30 4148 O 405.574 -0.954374 -5.94286 0
M  V30 4149 H 409.4 -1.44329 -2.67213 0
M  V30 4150 H 406.985 -0.767135 -1.28201 0
M  V30 4151 H 408.867 0.486756 -4.18579 0
M  V30 4152 H 407.542 0.965154 -3.08976 0
M  V30 4153 H 406.449 -1.31517 -3.5022 0
M  V30 4154 H 407.782 -1.71191 -4.6147 0
M  V30 4155 N 409.434 1.37368 -0.772513 0
M  V30 4156 C 410.344 2.34053 -0.160081 0
M  V30 4157 C 411.36 1.60216 0.678728 0
M  V30 4158 O 412.536 1.92303 0.59847 0
M  V30 4159 C 409.601 3.3939 0.708182 0
M  V30 4160 C 408.662 4.29048 -0.147172 0
M  V30 4161 C 407.895 5.29354 0.679744 0
M  V30 4162 O 408.118 5.3723 1.91678 0
M  V30 4163 O 407.052 6.01835 0.0885444 0
M  V30 4164 H 410.878 2.88159 -0.959053 0
M  V30 4165 H 408.463 1.39543 -0.533685 0
M  V30 4166 H 410.345 4.03839 1.20384 0
M  V30 4167 H 409.02 2.8761 1.48533 0
M  V30 4168 H 407.927 3.67697 -0.689205 0
M  V30 4169 H 409.26 4.84134 -0.887423 0
M  V30 4170 N 410.912 0.523116 1.48665 0
M  V30 4171 C 412.158 -0.0134963 2.02796 0
M  V30 4172 C 412.491 -1.34582 1.40004 0
M  V30 4173 O 411.766 -1.86756 0.543381 0
M  V30 4174 C 412.049 -0.14276 3.59817 0
M  V30 4175 C 411.902 1.21425 4.331 0
M  V30 4176 C 413.221 -0.872856 4.31357 0
M  V30 4177 H 410.34 -0.00343074 0.736992 0
M  V30 4178 H 412.982 0.678816 1.7746 0
M  V30 4179 H 411.132 -0.732401 3.81534 0
M  V30 4180 H 412.804 1.84447 4.2282 0
M  V30 4181 H 411.047 1.79791 3.94788 0
M  V30 4182 H 411.718 1.07687 5.41394 0
M  V30 4183 H 414.194 -0.372555 4.14429 0
M  V30 4184 H 413.07 -0.932185 5.40927 0
M  V30 4185 H 413.331 -1.92161 3.98154 0
M  V30 4186 N 412.39 -1.55475 0.257931 0
M  V30 4187 C 413.639 -1.98383 -0.364275 0
M  V30 4188 C 413.952 -1.14952 -1.58258 0
M  V30 4189 O 415.158 -1.47924 -2.27664 0
M  V30 4190 C 413.614 -3.53037 -0.699479 0
M  V30 4191 C 413.222 -4.45223 0.498046 0
M  V30 4192 C 414.966 -4.04575 -1.28526 0
M  V30 4193 C 412.873 -5.91238 0.138383 0
M  V30 4194 H 411.803 -0.740911 -0.13988 0
M  V30 4195 H 414.454 -1.79936 0.359883 0
M  V30 4196 H 412.836 -3.6722 -1.48207 0
M  V30 4197 H 414.01 -4.42803 1.27522 0
M  V30 4198 H 412.325 -4.04226 0.999503 0
M  V30 4199 H 414.922 -5.11196 -1.56788 0
M  V30 4200 H 415.265 -3.5258 -2.21344 0
M  V30 4201 H 415.798 -3.93762 -0.565337 0
M  V30 4202 H 412.537 -6.47294 1.03398 0
M  V30 4203 H 412.057 -5.96768 -0.602374 0
M  V30 4204 H 413.736 -6.46413 -0.27553 0
M  V30 4205 N 413.868 0.0150385 -1.57593 0
M  V30 4206 C 415.096 0.714395 -1.94175 0
M  V30 4207 C 415.511 1.68135 -0.858841 0
M  V30 4208 O 414.868 1.81766 0.163567 0
M  V30 4209 C 414.919 1.45933 -3.30735 0
M  V30 4210 O 414.64 0.531167 -4.34868 0
M  V30 4211 C 416.141 2.25456 -3.81686 0
M  V30 4212 H 413.361 0.199923 -0.640525 0
M  V30 4213 H 415.905 -0.0316096 -2.04476 0
M  V30 4214 H 414.06 2.15709 -3.21789 0
M  V30 4215 H 414.474 1.05509 -5.13778 0
M  V30 4216 H 415.948 2.731 -4.79709 0
M  V30 4217 H 416.425 3.07485 -3.13607 0
M  V30 4218 H 417.031 1.60727 -3.9376 0
M  V30 4219 N 415.346 1.54954 0.287554 0
M  V30 4220 C 416.623 1.65569 1.04146 0
M  V30 4221 C 417.003 0.512672 2.0478 0
M  V30 4222 O 416.351 -0.489038 2.23205 0
M  V30 4223 C 416.561 3.04163 1.71131 0
M  V30 4224 C 417.909 3.61429 2.22832 0
M  V30 4225 O 418.933 3.06702 1.81141 0
M  V30 4226 O 417.792 4.57281 2.9926 0
M  V30 4227 H 414.886 0.671881 0.482188 0
M  V30 4228 H 417.432 1.67297 0.28457 0
M  V30 4229 H 416.204 3.78796 0.981303 0
M  V30 4230 H 415.827 3.06271 2.53543 0
M  V30 4231 N 416.824 -0.551391 1.4764 0
M  V30 4232 C 417.787 -1.64007 1.60107 0
M  V30 4233 C 418.787 -1.53601 0.47576 0
M  V30 4234 O 419.977 -1.57655 0.740988 0
M  V30 4235 C 417.109 -3.03569 1.55108 0
M  V30 4236 H 418.302 -1.543 2.57161 0
M  V30 4237 H 415.855 -0.771776 1.35917 0
M  V30 4238 H 416.59 -3.18804 0.594519 0
M  V30 4239 H 416.375 -3.12532 2.36783 0
M  V30 4240 H 417.865 -3.82762 1.66982 0
M  V30 4241 N 418.302 -1.35869 -0.798587 0
M  V30 4242 C 419.548 -1.2978 -1.55836 0
M  V30 4243 C 419.881 0.125322 -1.93795 0
M  V30 4244 O 419.156 1.07658 -1.61987 0
M  V30 4245 C 419.439 -2.21188 -2.84162 0
M  V30 4246 C 419.292 -3.72155 -2.52628 0
M  V30 4247 C 420.611 -2.11545 -3.85923 0
M  V30 4248 H 417.73 -0.472769 -0.565383 0
M  V30 4249 H 420.372 -1.66341 -0.918192 0
M  V30 4250 H 418.522 -1.90139 -3.38791 0
M  V30 4251 H 420.194 -4.13682 -2.04121 0
M  V30 4252 H 418.437 -3.92042 -1.85704 0
M  V30 4253 H 419.108 -4.31511 -3.44242 0
M  V30 4254 H 421.584 -2.38855 -3.40716 0
M  V30 4255 H 420.46 -2.77688 -4.73477 0
M  V30 4256 H 420.721 -1.09987 -4.282 0
M  V30 4257 N 419.78 1.02168 -1.19998 0
M  V30 4258 C 420.743 2.08765 -0.94604 0
M  V30 4259 C 421.743 1.60618 0.0763846 0
M  V30 4260 O 422.933 1.73472 -0.159135 0
M  V30 4261 C 420.065 3.38262 -0.423255 0
M  V30 4262 H 421.258 2.32726 -1.89153 0
M  V30 4263 H 418.811 1.1889 -1.01464 0
M  V30 4264 H 419.546 3.19974 0.527938 0
M  V30 4265 H 419.331 3.74532 -1.16053 0
M  V30 4266 H 420.821 4.16759 -0.264911 0
M  V30 4267 N 421.258 1.00505 1.21394 0
M  V30 4268 C 422.506 0.686415 1.90086 0
M  V30 4269 C 422.827 -0.785264 1.7849 0
M  V30 4270 O 422.097 -1.56387 1.17983 0
M  V30 4271 H 420.677 0.2509 0.703604 0
M  V30 4272 H 423.339 1.27417 1.47482 0
M  V30 4273 H 422.435 0.959621 2.96981 0
M  V30 4274 N 422.737 -1.36956 0.779787 0
M  V30 4275 C 423.667 -2.32761 0.185651 0
M  V30 4276 C 424.648 -1.56177 -0.673989 0
M  V30 4277 O 425.833 -1.84378 -0.609797 0
M  V30 4278 C 422.963 -3.40418 -0.687964 0
M  V30 4279 C 421.917 -4.27941 0.0710102 0
M  V30 4280 C 421.243 -5.26681 -0.922573 0
M  V30 4281 C 422.543 -5.07006 1.25467 0
M  V30 4282 H 424.237 -2.82698 0.986008 0
M  V30 4283 H 421.783 -1.3592 0.475592 0
M  V30 4284 H 423.736 -4.06423 -1.11348 0
M  V30 4285 H 422.46 -2.89025 -1.52093 0
M  V30 4286 H 421.119 -3.63478 0.47739 0
M  V30 4287 H 420.767 -4.71565 -1.7503 0
M  V30 4288 H 420.467 -5.86103 -0.419237 0
M  V30 4289 H 421.991 -5.9556 -1.34686 0
M  V30 4290 H 423.405 -5.66105 0.905401 0
M  V30 4291 H 421.802 -5.75793 1.69063 0
M  V30 4292 H 422.872 -4.3921 2.05481 0
M  V30 4293 N 424.215 -0.530993 -1.48385 0
M  V30 4294 C 425.626 -0.0907905 -1.86479 0
M  V30 4295 C 425.977 1.33213 -1.44044 0
M  V30 4296 O 425.102 1.99783 -0.831615 0
M  V30 4297 C 425.697 -0.157987 -3.38431 0
M  V30 4298 C 424.256 0.227026 -3.75715 0
M  V30 4299 C 423.403 -0.5173 -2.72432 0
M  V30 4300 H 426.354 -0.742186 -1.40276 0
M  V30 4301 H 426.375 0.630053 -3.75247 0
M  V30 4302 H 425.887 -1.19372 -3.69286 0
M  V30 4303 H 423.988 1.26486 -3.50474 0
M  V30 4304 H 424.101 -0.113288 -4.78966 0
M  V30 4305 H 422.465 0.0365527 -2.54674 0
M  V30 4306 H 423.248 -1.55368 -3.0613 0
M  V30 4307 N 425.693 1.55336 -0.266172 0
M  V30 4308 C 426.643 2.18848 0.639497 0
M  V30 4309 C 427.627 1.1503 1.12503 0
M  V30 4310 O 428.819 1.40875 1.0716 0
M  V30 4311 C 425.948 2.90626 1.82733 0
M  V30 4312 C 425.034 4.01723 1.35939 0
M  V30 4313 N 425.425 5.02145 0.606988 0
M  V30 4314 C 423.723 4.1463 1.6431 0
M  V30 4315 C 424.424 5.80572 0.362138 0
M  V30 4316 N 423.4 5.35551 0.931971 0
M  V30 4317 H 427.202 2.93845 0.0567057 0
M  V30 4318 H 424.716 1.62252 -0.0693312 0
M  V30 4319 H 426.713 3.34569 2.48735 0
M  V30 4320 H 425.373 2.17137 2.41416 0
M  V30 4321 H 426.384 5.17271 0.255198 0
M  V30 4322 H 423.061 3.52326 2.23993 0
M  V30 4323 H 424.451 6.71472 -0.239848 0
M  V30 4324 N 427.171 -0.0066808 1.57599 0
M  V30 4325 C 428.134 -0.985035 2.06953 0
M  V30 4326 C 429.134 -1.27663 0.977687 0
M  V30 4327 O 430.324 -1.22293 1.24057 0
M  V30 4328 C 427.456 -2.3118 2.50536 0
M  V30 4329 H 428.649 -0.558255 2.94658 0
M  V30 4330 H 426.202 -0.254011 1.54222 0
M  V30 4331 H 426.937 -2.78561 1.66054 0
M  V30 4332 H 426.722 -2.11338 3.3027 0
M  V30 4333 H 428.212 -3.01377 2.8907 0
M  V30 4334 N 428.649 -1.55105 -0.279332 0
M  V30 4335 C 429.895 -1.75672 -1.01327 0
M  V30 4336 C 430.228 -0.552739 -1.86168 0
M  V30 4337 O 429.503 0.449827 -1.89227 0
M  V30 4338 C 429.786 -3.05825 -1.90114 0
M  V30 4339 C 429.639 -4.36565 -1.08309 0
M  V30 4340 C 430.958 -3.31975 -2.8893 0
M  V30 4341 H 428.077 -0.639149 -0.366957 0
M  V30 4342 H 430.719 -1.87833 -0.286154 0
M  V30 4343 H 428.869 -2.95588 -2.52111 0
M  V30 4344 H 430.541 -4.58751 -0.484314 0
M  V30 4345 H 428.784 -4.32076 -0.386362 0
M  V30 4346 H 429.455 -5.23946 -1.73737 0
M  V30 4347 H 431.931 -3.41963 -2.37067 0
M  V30 4348 H 430.807 -4.2432 -3.48201 0
M  V30 4349 H 431.068 -2.51309 -3.63725 0
M  V30 4350 N 430.127 0.543554 -1.4793 0
M  V30 4351 C 431.543 0.870806 -1.3375 0
M  V30 4352 C 431.743 1.9864 -0.338261 0
M  V30 4353 O 430.799 2.51305 0.245371 0
M  V30 4354 C 432.112 1.25114 -2.73435 0
M  V30 4355 C 433.66 1.3618 -2.81823 0
M  V30 4356 C 434.135 1.77563 -4.22179 0
M  V30 4357 N 435.626 1.8469 -4.24787 0
M  V30 4358 C 436.361 2.18067 -5.30315 0
M  V30 4359 N 435.857 2.49963 -6.46135 0
M  V30 4360 N 437.65 2.18958 -5.17701 0
M  V30 4361 H 429.801 -0.19275 -2.11524 0
M  V30 4362 H 432.064 -0.0235777 -0.947707 0
M  V30 4363 H 431.77 0.50514 -3.48053 0
M  V30 4364 H 431.644 2.20431 -3.06088 0
M  V30 4365 H 434.031 2.09859 -2.07468 0
M  V30 4366 H 434.112 0.390169 -2.52807 0
M  V30 4367 H 433.756 1.04449 -4.97044 0
M  V30 4368 H 433.686 2.75753 -4.48629 0
M  V30 4369 H 436.177 1.62372 -3.41239 0
M  V30 4370 H 436.49 2.74497 -7.22406 0
M  V30 4371 H 434.835 2.47513 -6.49432 0
M  V30 4372 H 438.026 1.93488 -4.2624 0
M  V30 4373 H 438.199 2.44639 -6.00047 0
M  V30 4374 N 431.605 1.3629 0.791371 0
M  V30 4375 C 432.851 1.30605 1.55146 0
M  V30 4376 C 433.184 -0.115042 1.93859 0
M  V30 4377 O 432.459 -1.06798 1.62556 0
M  V30 4378 C 432.742 2.22692 2.82985 0
M  V30 4379 C 432.595 3.73489 2.50651 0
M  V30 4380 C 433.914 2.13588 3.84796 0
M  V30 4381 H 431.033 0.475761 0.562868 0
M  V30 4382 H 433.675 1.66825 0.909358 0
M  V30 4383 H 431.825 1.91933 3.37778 0
M  V30 4384 H 433.497 4.14758 2.01924 0
M  V30 4385 H 431.74 3.93021 1.83622 0
M  V30 4386 H 432.411 4.3333 3.41949 0
M  V30 4387 H 434.887 2.40659 3.39445 0
M  V30 4388 H 433.763 2.80195 4.71998 0
M  V30 4389 H 434.024 1.12256 4.27611 0
M  V30 4390 N 433.083 -1.0153 1.20538 0
M  V30 4391 C 434.308 -1.79283 1.04271 0
M  V30 4392 C 434.733 -1.8372 -0.403544 0
M  V30 4393 O 434.091 -1.27321 -1.2907 0
M  V30 4394 C 434.139 -3.21535 1.63241 0
M  V30 4395 O 433.243 -4.03099 0.870908 0
M  V30 4396 H 432.584 -0.55293 0.367647 0
M  V30 4397 H 435.114 -1.27696 1.59859 0
M  V30 4398 H 435.124 -3.72243 1.6703 0
M  V30 4399 H 433.799 -3.1762 2.68497 0
M  V30 4400 H 432.376 -3.61693 0.907323 0
M  V30 4401 N 434.561 -1.01147 -1.20859 0
M  V30 4402 C 435.524 -0.582224 -2.21682 0
M  V30 4403 C 436.524 0.344887 -1.57058 0
M  V30 4404 O 437.714 0.134281 -1.73682 0
M  V30 4405 C 434.846 0.150496 -3.40568 0
M  V30 4406 H 436.039 -1.47408 -2.61172 0
M  V30 4407 H 433.592 -0.800695 -1.34233 0
M  V30 4408 H 434.327 1.0575 -3.06574 0
M  V30 4409 H 434.112 -0.515444 -3.88697 0
M  V30 4410 H 435.602 0.438344 -4.15293 0
M  V30 4411 N 436.039 1.36541 -0.78704 0
M  V30 4412 C 437.455 1.52571 -0.46844 0
M  V30 4413 C 437.655 1.7415 1.01361 0
M  V30 4414 O 436.711 1.77163 1.79915 0
M  V30 4415 C 438.024 2.71299 -1.29682 0
M  V30 4416 C 439.572 2.85169 -1.29027 0
M  V30 4417 C 440.047 4.06898 -2.10233 0
M  V30 4418 N 441.538 4.1404 -2.07666 0
M  V30 4419 C 442.273 5.07301 -2.67271 0
M  V30 4420 N 441.769 6.06021 -3.35724 0
M  V30 4421 N 443.562 4.99898 -2.57018 0
M  V30 4422 H 435.713 1.20788 -1.74711 0
M  V30 4423 H 437.976 0.589364 -0.742532 0
M  V30 4424 H 437.682 2.61868 -2.34773 0
M  V30 4425 H 437.556 3.6539 -0.936479 0
M  V30 4426 H 439.943 2.94062 -0.247284 0
M  V30 4427 H 440.024 1.91992 -1.69035 0
M  V30 4428 H 439.668 3.98766 -3.1456 0
M  V30 4429 H 439.598 4.99218 -1.67597 0
M  V30 4430 H 442.089 3.43357 -1.57843 0
M  V30 4431 H 442.402 6.73741 -3.78541 0
M  V30 4432 H 440.747 6.06253 -3.39826 0
M  V30 4433 H 443.938 4.21724 -2.03142 0
M  V30 4434 H 444.111 5.72392 -3.03761 0
M  V30 4435 N 437.518 0.538854 1.48102 0
M  V30 4436 C 438.795 -0.0568108 1.95517 0
M  V30 4437 C 439.175 -1.50408 1.48124 0
M  V30 4438 O 438.523 -2.17133 0.711727 0
M  V30 4439 C 438.733 0.0696262 3.48931 0
M  V30 4440 C 440.081 -0.0851202 4.24515 0
M  V30 4441 O 441.105 -0.0037347 3.562 0
M  V30 4442 O 439.964 -0.257025 5.45895 0
M  V30 4443 H 437.058 -0.0743695 0.823649 0
M  V30 4444 H 439.604 0.604081 1.58584 0
M  V30 4445 H 438.376 1.07744 3.76174 0
M  V30 4446 H 437.999 -0.629714 3.92582 0
M  V30 4447 N 438.996 -1.55193 0.274407 0
M  V30 4448 C 440.243 -1.99581 -0.342579 0
M  V30 4449 C 440.571 -1.1628 -1.55914 0
M  V30 4450 O 439.826 -0.22029 -1.94456 0
M  V30 4451 C 440.125 -3.49019 -0.769458 0
M  V30 4452 C 439.791 -4.49598 0.342389 0
M  V30 4453 C 438.453 -4.76821 0.647686 0
M  V30 4454 C 440.805 -5.0964 1.09163 0
M  V30 4455 C 438.133 -5.61354 1.70581 0
M  V30 4456 C 440.485 -5.95323 2.13948 0
M  V30 4457 C 439.149 -6.20867 2.45113 0
M  V30 4458 H 438.419 -0.730319 -0.125358 0
M  V30 4459 H 441.066 -1.87529 0.387971 0
M  V30 4460 H 439.371 -3.58544 -1.57967 0
M  V30 4461 H 441.068 -3.8077 -1.25757 0
M  V30 4462 H 437.658 -4.28496 0.094318 0
M  V30 4463 H 441.842 -4.88632 0.869024 0
M  V30 4464 H 437.098 -5.79392 1.9523 0
M  V30 4465 H 441.272 -6.40881 2.72478 0
M  V30 4466 H 438.899 -6.86162 3.27239 0
M  V30 4467 N 440.474 -0.00167713 -1.576 0
M  V30 4468 C 441.404 0.988091 -2.11563 0
M  V30 4469 C 442.385 1.35736 -1.02517 0
M  V30 4470 O 443.57 1.44082 -1.30208 0
M  V30 4471 C 440.7 2.27941 -2.62031 0
M  V30 4472 C 439.654 2.0517 -3.75619 0
M  V30 4473 C 438.98 3.4033 -4.12407 0
M  V30 4474 C 440.28 1.41294 -5.02825 0
M  V30 4475 H 441.974 0.538771 -2.94513 0
M  V30 4476 H 439.52 0.257712 -1.41675 0
M  V30 4477 H 441.473 2.97539 -2.9841 0
M  V30 4478 H 440.197 2.74989 -1.76205 0
M  V30 4479 H 438.856 1.37998 -3.39635 0
M  V30 4480 H 438.504 3.85085 -3.23603 0
M  V30 4481 H 438.204 3.25909 -4.88935 0
M  V30 4482 H 439.728 4.1124 -4.51347 0
M  V30 4483 H 441.142 2.00851 -5.36965 0
M  V30 4484 H 439.539 1.37356 -5.84169 0
M  V30 4485 H 440.609 0.382362 -4.8339 0
M  V30 4486 N 441.952 1.55251 0.271103 0
M  V30 4487 C 443.229 1.66664 1.02384 0
M  V30 4488 C 443.609 0.534363 2.04225 0
M  V30 4489 O 442.957 -0.465337 2.23712 0
M  V30 4490 C 443.167 3.05961 1.67895 0
M  V30 4491 C 444.515 3.63772 2.18986 0
M  V30 4492 O 445.539 3.08606 1.77878 0
M  V30 4493 O 444.398 4.60429 2.94393 0
M  V30 4494 H 441.492 0.676957 0.475035 0
M  V30 4495 H 444.038 1.67589 0.26681 0
M  V30 4496 H 442.81 3.79815 0.941071 0
M  V30 4497 H 442.433 3.08943 2.5028 0
M  V30 4498 N 443.43 -0.535701 1.48216 0
M  V30 4499 C 444.393 -1.623 1.61838 0
M  V30 4500 C 445.393 -1.53087 0.492024 0
M  V30 4501 O 446.583 -1.5686 0.757668 0
M  V30 4502 C 443.715 -3.01907 1.58319 0
M  V30 4503 H 444.908 -1.51564 2.58783 0
M  V30 4504 H 442.461 -0.757317 1.36727 0
M  V30 4505 H 443.196 -3.18155 0.628299 0
M  V30 4506 H 442.981 -3.10003 2.40085 0
M  V30 4507 H 444.471 -3.80969 1.71033 0
M  V30 4508 N 444.908 -1.36708 -0.784132 0
M  V30 4509 C 446.156 -1.30972 -1.53918 0
M  V30 4510 C 446.477 0.109086 -1.94695 0
M  V30 4511 O 445.747 1.05048 -1.65353 0
M  V30 4512 H 444.327 -0.481819 -0.570841 0
M  V30 4513 H 446.989 -1.71063 -0.934002 0
M  V30 4514 H 446.085 -1.94061 -2.44431 0
M  V30 4515 N 446.386 1.0089 -1.21074 0
M  V30 4516 C 447.614 1.78191 -1.05145 0
M  V30 4517 C 448.029 1.84537 0.398952 0
M  V30 4518 O 447.386 1.30393 1.27687 0
M  V30 4519 C 447.437 3.22288 -1.63746 0
M  V30 4520 O 447.158 3.16315 -3.03111 0
M  V30 4521 C 448.659 4.16106 -1.52875 0
M  V30 4522 H 445.879 0.560129 -0.369454 0
M  V30 4523 H 448.423 1.26945 -1.60328 0
M  V30 4524 H 446.578 3.70655 -1.12664 0
M  V30 4525 H 446.992 4.06817 -3.31059 0
M  V30 4526 H 448.466 5.15026 -1.98626 0
M  V30 4527 H 448.943 4.36541 -0.482521 0
M  V30 4528 H 449.549 3.73625 -2.03185 0
M  V30 4529 N 447.864 1.01787 1.20321 0
M  V30 4530 C 449.11 0.718699 1.90279 0
M  V30 4531 C 449.465 -0.743669 1.77447 0
M  V30 4532 O 448.758 -1.53345 1.14874 0
M  V30 4533 C 448.952 1.09076 3.40349 0
M  V30 4534 C 448.781 2.58775 3.67784 0
M  V30 4535 C 447.551 3.25578 3.86428 0
M  V30 4536 C 449.749 3.56966 3.70243 0
M  V30 4537 N 447.731 4.64495 4.01395 0
M  V30 4538 C 449.102 4.8145 3.90649 0
M  V30 4539 C 451.157 3.5092 3.53213 0
M  V30 4540 C 449.86 6.00619 3.95789 0
M  V30 4541 C 451.886 4.69493 3.59625 0
M  V30 4542 C 451.248 5.92786 3.80505 0
M  V30 4543 H 447.347 0.31468 0.715891 0
M  V30 4544 H 449.931 1.30295 1.44677 0
M  V30 4545 H 448.102 0.534839 3.847 0
M  V30 4546 H 449.834 0.744997 3.97784 0
M  V30 4547 H 446.589 2.76003 3.84862 0
M  V30 4548 H 447.013 5.36624 4.12752 0
M  V30 4549 H 451.655 2.56593 3.36035 0
M  V30 4550 H 449.373 6.95326 4.11762 0
M  V30 4551 H 452.959 4.66432 3.47754 0
M  V30 4552 H 451.839 6.83003 3.85327 0
M  V30 4553 N 449.342 -1.36122 0.79427 0
M  V30 4554 C 450.567 -2.03891 0.379871 0
M  V30 4555 C 450.992 -1.59488 -0.997251 0
M  V30 4556 O 450.35 -0.765652 -1.64339 0
M  V30 4557 C 450.398 -3.57687 0.457442 0
M  V30 4558 O 449.502 -4.08931 -0.5338 0
M  V30 4559 H 448.843 -0.6443 0.160541 0
M  V30 4560 H 451.373 -1.73976 1.07673 0
M  V30 4561 H 451.383 -4.06721 0.322792 0
M  V30 4562 H 450.058 -3.89357 1.46199 0
M  V30 4563 H 448.635 -3.71154 -0.360409 0
M  V30 4564 N 450.82 -0.546701 -1.47814 0
M  V30 4565 C 452.048 -0.0232857 -2.06887 0
M  V30 4566 C 452.463 1.26571 -1.4009 0
M  V30 4567 O 451.82 1.7569 -0.493906 0
M  V30 4568 C 451.871 0.186975 -3.61016 0
M  V30 4569 O 451.592 -1.05097 -4.25307 0
M  V30 4570 C 453.093 0.748872 -4.36929 0
M  V30 4571 H 450.313 -0.0410763 -0.669742 0
M  V30 4572 H 452.857 -0.757117 -1.89968 0
M  V30 4573 H 451.012 0.870903 -3.77484 0
M  V30 4574 H 451.426 -0.842121 -5.17695 0
M  V30 4575 H 452.9 0.845334 -5.45489 0
M  V30 4576 H 453.377 1.75772 -4.02493 0
M  V30 4577 H 453.983 0.100979 -4.2518 0
M  V30 4578 N 452.299 1.55045 -0.282633 0
M  V30 4579 C 453.545 2.0078 0.325436 0
M  V30 4580 C 453.9 1.1676 1.52921 0
M  V30 4581 O 453.193 0.231475 1.90197 0
M  V30 4582 C 453.387 3.49422 0.750938 0
M  V30 4583 C 453.216 4.47827 -0.410056 0
M  V30 4584 C 451.986 4.97288 -0.896239 0
M  V30 4585 C 454.184 4.98903 -1.24902 0
M  V30 4586 N 452.166 5.79508 -2.02591 0
M  V30 4587 C 453.537 5.78644 -2.22646 0
M  V30 4588 C 455.592 4.81126 -1.2815 0
M  V30 4589 C 454.295 6.42502 -3.23393 0
M  V30 4590 C 456.321 5.45789 -2.27745 0
M  V30 4591 C 455.683 6.25348 -3.24222 0
M  V30 4592 H 451.782 0.77747 0.08405 0
M  V30 4593 H 454.366 1.90369 -0.408368 0
M  V30 4594 H 452.537 3.60159 1.45395 0
M  V30 4595 H 454.269 3.81978 1.33698 0
M  V30 4596 H 451.024 4.71219 -0.474277 0
M  V30 4597 H 451.448 6.25308 -2.59459 0
M  V30 4598 H 456.09 4.19215 -0.549397 0
M  V30 4599 H 453.808 7.03558 -3.97533 0
M  V30 4600 H 457.394 5.33972 -2.31009 0
M  V30 4601 H 456.274 6.74498 -4.00027 0
M  V30 4602 N 453.777 0.010035 1.57597 0
M  V30 4603 C 455.002 -0.687021 1.95691 0
M  V30 4604 C 455.427 -1.65952 0.885519 0
M  V30 4605 O 454.785 -1.80633 -0.15543 0
M  V30 4606 C 454.833 -1.3864 3.32884 0
M  V30 4607 O 453.937 -2.50115 3.27897 0
M  V30 4608 H 453.278 -0.181989 0.638573 0
M  V30 4609 H 455.808 0.0662122 2.04493 0
M  V30 4610 H 455.818 -1.74754 3.6868 0
M  V30 4611 H 454.493 -0.673411 4.10412 0
M  V30 4612 H 453.07 -2.16253 3.03791 0
M  V30 4613 N 455.255 -1.55392 -0.262866 0
M  V30 4614 C 456.666 -1.67079 -0.833158 0
M  V30 4615 C 457.017 -0.604539 -1.86654 0
M  V30 4616 O 456.142 0.252138 -2.14926 0
M  V30 4617 C 456.737 -3.02891 -1.51797 0
M  V30 4618 C 455.296 -3.16571 -2.03617 0
M  V30 4619 C 454.443 -2.62909 -0.881701 0
M  V30 4620 H 457.394 -1.58652 -0.0389986 0
M  V30 4621 H 457.415 -2.96445 -2.38538 0
M  V30 4622 H 456.927 -3.80473 -0.765619 0
M  V30 4623 H 455.028 -2.43782 -2.81782 0
M  V30 4624 H 455.141 -4.23271 -2.24452 0
M  V30 4625 H 453.505 -2.20324 -1.27786 0
M  V30 4626 H 454.288 -3.43003 -0.14269 0
M  V30 4627 N 456.733 0.527833 -1.48498 0
M  V30 4628 C 457.643 1.65907 -1.65867 0
M  V30 4629 C 458.659 1.6537 -0.541192 0
M  V30 4630 O 459.835 1.84282 -0.812534 0
M  V30 4631 C 456.9 3.02364 -1.69637 0
M  V30 4632 C 455.961 3.1374 -2.93028 0
M  V30 4633 C 455.194 4.43688 -2.96609 0
M  V30 4634 O 455.417 5.30913 -2.08538 0
M  V30 4635 O 454.351 4.59475 -3.88802 0
M  V30 4636 H 458.177 1.5419 -2.61647 0
M  V30 4637 H 455.762 0.701163 -1.31924 0
M  V30 4638 H 457.644 3.83515 -1.74625 0
M  V30 4639 H 456.319 3.14401 -0.770312 0
M  V30 4640 H 455.226 2.31877 -2.93571 0
M  V30 4641 H 456.559 3.06621 -3.85026 0
M  V30 4642 N 458.211 1.37122 0.776871 0
M  V30 4643 C 459.174 1.32301 1.8716 0
M  V30 4644 C 460.174 0.228099 1.59174 0
M  V30 4645 O 461.364 0.483642 1.67352 0
M  V30 4646 C 458.496 1.054 3.24197 0
M  V30 4647 H 459.689 2.29673 1.92848 0
M  V30 4648 H 457.242 1.22077 0.97606 0
M  V30 4649 H 457.977 0.0853872 3.24188 0
M  V30 4650 H 457.762 1.84648 3.45901 0
M  V30 4651 H 459.252 1.04664 4.04271 0
M  V30 4652 N 459.689 -1.00246 1.21608 0
M  V30 4653 C 460.935 -1.74417 1.04643 0
M  V30 4654 C 461.29 -1.87862 -0.415387 0
M  V30 4655 O 460.583 -1.40373 -1.30407 0
M  V30 4656 C 460.777 -3.15448 1.68009 0
M  V30 4657 C 460.606 -3.15755 3.20201 0
M  V30 4658 C 459.376 -3.2219 3.89258 0
M  V30 4659 C 461.574 -3.00668 4.17257 0
M  V30 4660 N 459.556 -3.1215 5.28617 0
M  V30 4661 C 460.927 -2.98553 5.43384 0
M  V30 4662 C 462.982 -2.84989 4.08272 0
M  V30 4663 C 461.685 -2.82364 6.61561 0
M  V30 4664 C 463.711 -2.70158 5.26088 0
M  V30 4665 C 463.073 -2.68721 6.51128 0
M  V30 4666 H 459.172 -0.648317 0.437274 0
M  V30 4667 H 461.756 -1.19129 1.54001 0
M  V30 4668 H 459.927 -3.69001 1.21215 0
M  V30 4669 H 461.659 -3.78128 1.44226 0
M  V30 4670 H 458.414 -3.29488 3.40198 0
M  V30 4671 H 458.838 -3.10465 6.01615 0
M  V30 4672 H 463.48 -2.84904 3.12393 0
M  V30 4673 H 461.198 -2.81196 7.57598 0
M  V30 4674 H 464.784 -2.59022 5.20959 0
M  V30 4675 H 463.664 -2.57382 7.40759 0
M  V30 4676 N 461.167 -1.02423 -1.1978 0
M  V30 4677 C 462.415 -0.716569 -1.8897 0
M  V30 4678 C 462.736 0.756769 -1.79716 0
M  V30 4679 O 462.006 1.5449 -1.20456 0
M  V30 4680 H 460.586 -0.262062 -0.699523 0
M  V30 4681 H 463.248 -1.29747 -1.45436 0
M  V30 4682 H 462.344 -1.00675 -2.95417 0
M  V30 4683 N 462.645 1.35699 -0.801477 0
M  V30 4684 C 463.873 2.03157 -0.391768 0
M  V30 4685 C 464.288 1.60412 0.995668 0
M  V30 4686 O 463.645 0.799228 1.64069 0
M  V30 4687 C 463.696 3.58566 -0.459671 0
M  V30 4688 O 463.417 3.99756 -1.7924 0
M  V30 4689 C 464.918 4.4328 -0.0421205 0
M  V30 4690 H 462.138 0.651688 -0.159825 0
M  V30 4691 H 464.682 1.73426 -1.08368 0
M  V30 4692 H 462.837 3.86963 0.183939 0
M  V30 4693 H 463.251 4.94387 -1.75162 0
M  V30 4694 H 464.725 5.51821 -0.140754 0
M  V30 4695 H 465.202 4.27383 1.01196 0
M  V30 4696 H 465.808 4.20168 -0.658687 0
M  V30 4697 N 464.123 0.554532 1.47522 0
M  V30 4698 C 465.534 0.120446 1.86311 0
M  V30 4699 C 465.885 -1.30904 1.46145 0
M  V30 4700 O 465.01 -1.98434 0.863294 0
M  V30 4701 C 465.605 0.211808 3.38137 0
M  V30 4702 C 464.164 -0.167224 3.76028 0
M  V30 4703 C 463.311 0.560576 2.71575 0
M  V30 4704 H 466.262 0.764408 1.39077 0
M  V30 4705 H 466.283 -0.570275 3.76202 0
M  V30 4706 H 465.795 1.25232 3.6734 0
M  V30 4707 H 463.896 -1.20894 3.52442 0
M  V30 4708 H 464.009 0.189473 4.78725 0
M  V30 4709 H 462.373 0.00396836 2.547 0
M  V30 4710 H 463.156 1.60219 3.0362 0
M  V30 4711 N 465.601 -1.54893 0.290851 0
M  V30 4712 C 466.826 -2.04804 -0.32712 0
M  V30 4713 C 467.251 -1.16721 -1.47506 0
M  V30 4714 O 466.609 -0.169107 -1.8051 0
M  V30 4715 C 466.657 -3.52268 -0.770689 0
M  V30 4716 O 465.761 -3.67236 -1.87647 0
M  V30 4717 H 465.102 -0.660789 -0.0652227 0
M  V30 4718 H 467.632 -2.00036 0.429739 0
M  V30 4719 H 467.642 -3.9393 -1.06223 0
M  V30 4720 H 466.317 -4.15843 0.069096 0
M  V30 4721 H 464.894 -3.37479 -1.58626 0
M  V30 4722 N 467.08 -0.0183926 -1.57589 0
M  V30 4723 C 468.308 0.673046 -1.95647 0
M  V30 4724 C 468.723 1.66275 -0.894312 0
M  V30 4725 O 468.08 1.82072 0.124975 0
M  V30 4726 C 468.131 1.38884 -3.33756 0
M  V30 4727 O 467.852 0.438806 -4.35897 0
M  V30 4728 C 469.353 2.1731 -3.86383 0
M  V30 4729 H 466.573 0.186292 -0.644621 0
M  V30 4730 H 469.117 -0.0749748 -2.04363 0
M  V30 4731 H 467.272 2.08835 -3.26293 0
M  V30 4732 H 467.686 0.945869 -5.15901 0
M  V30 4733 H 469.16 2.62863 -4.85394 0
M  V30 4734 H 469.637 3.00764 -3.20059 0
M  V30 4735 H 470.243 1.52339 -3.97081 0
M  V30 4736 N 468.558 1.5553 0.254621 0
M  V30 4737 C 469.806 1.7665 0.981793 0
M  V30 4738 C 470.127 0.580963 1.86145 0
M  V30 4739 O 469.397 -0.403537 1.91699 0
M  V30 4740 H 467.977 0.651475 0.365498 0
M  V30 4741 H 470.639 1.92958 0.274426 0
M  V30 4742 H 469.735 2.67486 1.60802 0
M  V30 4743 N 470.036 -0.519951 1.48776 0
M  V30 4744 C 471.264 -1.29971 1.60982 0
M  V30 4745 C 471.679 -1.86803 0.273885 0
M  V30 4746 O 471.036 -1.66904 -0.738193 0
M  V30 4747 C 471.087 -2.44346 2.66415 0
M  V30 4748 O 470.808 -1.89855 3.94825 0
M  V30 4749 C 472.309 -3.36014 2.89153 0
M  V30 4750 H 469.529 -0.394891 0.542496 0
M  V30 4751 H 472.073 -0.626214 1.94676 0
M  V30 4752 H 470.228 -3.07562 2.35552 0
M  V30 4753 H 470.642 -2.64798 4.5275 0
M  V30 4754 H 472.116 -4.12593 3.66703 0
M  V30 4755 H 472.593 -3.91859 1.98351 0
M  V30 4756 H 473.199 -2.78582 3.21359 0
M  V30 4757 N 471.514 -1.37532 -0.769588 0
M  V30 4758 C 472.763 -1.32183 -1.5235 0
M  V30 4759 C 473.076 0.0906555 -1.9539 0
M  V30 4760 O 474.282 0.266628 -2.70188 0
M  V30 4761 C 472.738 -2.32029 -2.75119 0
M  V30 4762 C 472.346 -3.78816 -2.3917 0
M  V30 4763 C 474.09 -2.35694 -3.53056 0
M  V30 4764 C 471.997 -4.70388 -3.58453 0
M  V30 4765 H 470.927 -0.491275 -0.571984 0
M  V30 4766 H 473.578 -1.63004 -0.842739 0
M  V30 4767 H 471.96 -1.94229 -3.45096 0
M  V30 4768 H 473.134 -4.25466 -1.76962 0
M  V30 4769 H 471.449 -3.78117 -1.74402 0
M  V30 4770 H 474.046 -3.01312 -4.41718 0
M  V30 4771 H 474.389 -1.37117 -3.93071 0
M  V30 4772 H 474.922 -2.72212 -2.90078 0
M  V30 4773 H 471.661 -5.70102 -3.23518 0
M  V30 4774 H 471.181 -4.28442 -4.19758 0
M  V30 4775 H 472.86 -4.87628 -4.25239 0
M  V30 4776 N 472.992 0.995999 -1.22138 0
M  V30 4777 C 474.403 1.54961 -1.04135 0
M  V30 4778 C 474.754 1.92159 0.396147 0
M  V30 4779 O 473.879 1.74435 1.28069 0
M  V30 4780 C 474.474 2.81581 -1.88408 0
M  V30 4781 C 473.033 3.33396 -1.74712 0
M  V30 4782 C 472.18 2.06509 -1.85066 0
M  V30 4783 H 475.131 0.817436 -1.36028 0
M  V30 4784 H 475.152 3.53822 -1.39966 0
M  V30 4785 H 474.664 2.54476 -2.93025 0
M  V30 4786 H 472.765 3.65416 -0.728159 0
M  V30 4787 H 472.878 4.04208 -2.57202 0
M  V30 4788 H 471.242 2.19925 -1.28472 0
M  V30 4789 H 472.025 1.81804 -2.91208 0
M  V30 4790 N 474.47 1.03057 1.19235 0
M  V30 4791 C 475.417 0.612832 2.22515 0
M  V30 4792 C 476.387 -0.374224 1.61829 0
M  V30 4793 O 477.572 -0.270501 1.88873 0
M  V30 4794 C 474.712 -0.028475 3.45088 0
M  V30 4795 C 473.825 1.00483 4.20151 0
M  V30 4796 C 472.96 0.333102 5.30155 0
M  V30 4797 C 471.999 1.3522 5.96977 0
M  V30 4798 N 471.136 0.70616 6.9854 0
M  V30 4799 H 475.976 1.49812 2.57605 0
M  V30 4800 H 473.513 0.749658 1.26564 0
M  V30 4801 H 475.471 -0.417548 4.15105 0
M  V30 4802 H 474.101 -0.877334 3.10649 0
M  V30 4803 H 473.153 1.51194 3.49062 0
M  V30 4804 H 474.465 1.77929 4.65986 0
M  V30 4805 H 473.619 -0.110725 6.06599 0
M  V30 4806 H 472.358 -0.473547 4.85396 0
M  V30 4807 H 471.363 1.80627 5.19282 0
M  V30 4808 H 472.588 2.16037 6.4382 0
M  V30 4809 H 470.534 -0.0803667 6.55951 0
M  V30 4810 H 470.451 1.41848 7.42573 0
M  V30 4811 H 471.719 0.286391 7.78974 0
M  V30 4812 N 475.948 -1.35272 0.808662 0
M  V30 4813 C 476.858 -2.33546 0.222079 0
M  V30 4814 C 477.874 -1.6196 -0.636011 0
M  V30 4815 O 479.05 -1.93822 -0.547274 0
M  V30 4816 C 476.115 -3.41148 -0.61795 0
M  V30 4817 C 475.176 -4.28507 0.260875 0
M  V30 4818 C 474.409 -5.3097 -0.539156 0
M  V30 4819 O 474.632 -5.42123 -1.77367 0
M  V30 4820 O 473.566 -6.01858 0.0710526 0
M  V30 4821 H 477.392 -2.85515 1.03512 0
M  V30 4822 H 474.977 -1.38079 0.570495 0
M  V30 4823 H 476.859 -4.06889 -1.09634 0
M  V30 4824 H 475.534 -2.91447 -1.40855 0
M  V30 4825 H 474.441 -3.6574 0.786451 0
M  V30 4826 H 475.774 -4.81611 1.01547 0
M  V30 4827 N 477.426 -0.562348 -1.47226 0
M  V30 4828 C 478.675 -0.038041 -2.01664 0
M  V30 4829 C 478.988 1.32199 -1.44162 0
M  V30 4830 O 480.194 1.9365 -1.90294 0
M  V30 4831 C 478.65 -0.0174958 -3.59896 0
M  V30 4832 C 478.258 -1.3746 -4.2639 0
M  V30 4833 C 480.002 0.453934 -4.22066 0
M  V30 4834 C 477.909 -1.31289 -5.76643 0
M  V30 4835 H 476.839 -0.0104511 -0.753928 0
M  V30 4836 H 479.49 -0.710966 -1.69167 0
M  V30 4837 H 477.872 0.721182 -3.89378 0
M  V30 4838 H 479.046 -2.1314 -4.08544 0
M  V30 4839 H 477.361 -1.78438 -3.7623 0
M  V30 4840 H 479.958 0.518584 -5.32179 0
M  V30 4841 H 480.301 1.46706 -3.89594 0
M  V30 4842 H 480.834 -0.230044 -3.97134 0
M  V30 4843 H 477.573 -2.30217 -6.13743 0
M  V30 4844 H 477.093 -0.597973 -5.96812 0
M  V30 4845 H 478.772 -1.01713 -6.38955 0
M  V30 4846 N 478.904 1.54736 -0.299062 0
M  V30 4847 C 480.315 1.8569 0.193971 0
M  V30 4848 C 480.666 1.22101 1.53577 0
M  V30 4849 O 479.791 0.51799 2.10109 0
M  V30 4850 C 480.386 3.36895 0.358733 0
M  V30 4851 C 478.945 3.67887 0.795986 0
M  V30 4852 C 478.092 2.77131 -0.096807 0
M  V30 4853 H 481.043 1.49934 -0.520134 0
M  V30 4854 H 481.064 3.61294 1.19361 0
M  V30 4855 H 480.576 3.83148 -0.617998 0
M  V30 4856 H 478.677 3.27151 1.78334 0
M  V30 4857 H 478.79 4.75114 0.616718 0
M  V30 4858 H 477.154 2.51153 0.423581 0
M  V30 4859 H 477.937 3.26204 -1.06986 0
M  V30 4860 N 480.382 0.0267497 1.57577 0
M  V30 4861 C 481.345 -0.940916 2.08996 0
M  V30 4862 C 482.345 -1.25561 1.00455 0
M  V30 4863 O 483.535 -1.19634 1.26623 0
M  V30 4864 C 480.667 -2.25814 2.55384 0
M  V30 4865 H 481.86 -0.495628 2.95776 0
M  V30 4866 H 479.413 -0.221241 1.54726 0
M  V30 4867 H 480.148 -2.74976 1.71926 0
M  V30 4868 H 479.933 -2.04285 3.34679 0
M  V30 4869 H 481.423 -2.95178 2.95398 0
M  V30 4870 N 481.861 -1.55662 -0.24637 0
M  V30 4871 C 483.107 -1.78698 -0.971525 0
M  V30 4872 C 483.462 -0.59577 -1.82944 0
M  V30 4873 O 482.755 0.41097 -1.87141 0
M  V30 4874 C 482.949 -3.04885 -1.86494 0
M  V30 4875 C 482.778 -4.36165 -1.09501 0
M  V30 4876 C 481.548 -4.98929 -0.799895 0
M  V30 4877 C 483.746 -5.12126 -0.472334 0
M  V30 4878 N 481.728 -6.139 -0.00595299 0
M  V30 4879 C 483.099 -6.1972 0.18616 0
M  V30 4880 C 485.154 -4.96426 -0.382854 0
M  V30 4881 C 483.857 -7.13321 0.925542 0
M  V30 4882 C 485.883 -5.90405 0.342999 0
M  V30 4883 C 485.245 -6.97407 0.990128 0
M  V30 4884 H 481.344 -0.705852 -0.336597 0
M  V30 4885 H 483.928 -1.93157 -0.244615 0
M  V30 4886 H 482.099 -2.91753 -2.56388 0
M  V30 4887 H 483.831 -3.16212 -2.5257 0
M  V30 4888 H 480.586 -4.60365 -1.11181 0
M  V30 4889 H 481.01 -6.75938 0.379127 0
M  V30 4890 H 485.652 -4.13777 -0.868834 0
M  V30 4891 H 483.37 -7.9547 1.42312 0
M  V30 4892 H 486.956 -5.80333 0.412907 0
M  V30 4893 H 485.836 -7.68874 1.54282 0
M  V30 4894 N 483.339 0.512053 -1.4905 0
M  V30 4895 C 484.587 1.26436 -1.57665 0
M  V30 4896 C 484.908 1.93255 -0.260293 0
M  V30 4897 O 484.178 1.82206 0.719564 0
M  V30 4898 H 482.758 0.469658 -0.580888 0
M  V30 4899 H 485.42 0.594398 -1.85615 0
M  V30 4900 H 484.516 2.03417 -2.36702 0
M  V30 4901 N 484.817 1.37938 0.762283 0
M  V30 4902 C 485.749 1.30349 1.88525 0
M  V30 4903 C 486.762 0.217402 1.61342 0
M  V30 4904 O 487.951 0.474291 1.72084 0
M  V30 4905 C 485.051 0.994844 3.23969 0
M  V30 4906 C 484.224 2.18829 3.78725 0
M  V30 4907 C 483.283 1.84844 4.92665 0
M  V30 4908 O 482.309 2.57244 5.07754 0
M  V30 4909 N 483.511 0.798201 5.74986 0
M  V30 4910 H 486.276 2.27114 1.95549 0
M  V30 4911 H 483.837 1.31686 0.941825 0
M  V30 4912 H 485.829 0.748168 3.97724 0
M  V30 4913 H 484.399 0.115446 3.12387 0
M  V30 4914 H 483.619 2.59615 2.96637 0
M  V30 4915 H 484.907 2.98497 4.1204 0
M  V30 4916 H 484.305 0.197611 5.65355 0
M  V30 4917 H 482.862 0.611396 6.48926 0
M  V30 4918 N 486.295 -0.989507 1.22664 0
M  V30 4919 C 487.225 -2.09847 1.02404 0
M  V30 4920 C 488.206 -1.70007 -0.0561303 0
M  V30 4921 O 489.391 -1.93906 0.106748 0
M  V30 4922 C 486.521 -3.41996 0.604663 0
M  V30 4923 C 485.475 -3.95699 1.63115 0
M  V30 4924 C 484.801 -5.23936 1.0675 0
M  V30 4925 C 486.101 -4.25999 3.02196 0
M  V30 4926 H 487.795 -2.27054 1.95158 0
M  V30 4927 H 485.341 -1.09111 0.939727 0
M  V30 4928 H 487.294 -4.1899 0.45002 0
M  V30 4929 H 486.018 -3.24626 -0.35855 0
M  V30 4930 H 484.677 -3.2084 1.77362 0
M  V30 4931 H 484.325 -5.02909 0.0955422 0
M  V30 4932 H 484.025 -5.60833 1.75328 0
M  V30 4933 H 485.549 -6.0356 0.924516 0
M  V30 4934 H 486.963 -4.93777 2.91303 0
M  V30 4935 H 485.36 -4.74076 3.67929 0
M  V30 4936 H 486.43 -3.33636 3.51873 0
M  V30 4937 N 487.773 -1.03688 -1.18687 0
M  V30 4938 C 488.723 -0.595067 -2.20098 0
M  V30 4939 C 489.707 0.360465 -1.5681 0
M  V30 4940 O 490.899 0.180136 -1.76081 0
M  V30 4941 C 488.028 0.0444495 -3.43271 0
M  V30 4942 C 487.114 -0.934002 -4.13687 0
M  V30 4943 N 487.505 -2.09957 -4.60165 0
M  V30 4944 C 485.803 -0.759177 -4.39491 0
M  V30 4945 C 486.504 -2.71735 -5.1433 0
M  V30 4946 N 485.48 -1.99638 -5.05614 0
M  V30 4947 H 489.282 -1.48336 -2.5372 0
M  V30 4948 H 486.796 -0.904949 -1.3485 0
M  V30 4949 H 488.793 0.37864 -4.15177 0
M  V30 4950 H 487.453 0.928325 -3.11147 0
M  V30 4951 H 488.464 -2.47863 -4.54735 0
M  V30 4952 H 485.141 0.0749292 -4.17433 0
M  V30 4953 H 486.531 -3.70492 -5.60523 0
M  V30 4954 N 489.251 1.34841 -0.815825 0
M  V30 4955 C 490.479 2.0273 -0.413294 0
M  V30 4956 C 490.894 1.61459 0.978599 0
M  V30 4957 O 490.251 0.816584 1.63212 0
M  V30 4958 C 490.302 3.58058 -0.497676 0
M  V30 4959 O 490.023 3.97832 -1.8347 0
M  V30 4960 C 491.524 4.4321 -0.0891339 0
M  V30 4961 H 488.744 0.649956 -0.166728 0
M  V30 4962 H 491.288 1.72267 -1.10201 0
M  V30 4963 H 489.443 3.87136 0.142886 0
M  V30 4964 H 489.857 4.92501 -1.80396 0
M  V30 4965 H 491.331 5.5164 -0.199274 0
M  V30 4966 H 491.808 4.28432 0.966571 0
M  V30 4967 H 492.414 4.19446 -0.703214 0
M  V30 4968 N 490.729 0.570148 1.46925 0
M  V30 4969 C 491.661 -0.207909 2.28255 0
M  V30 4970 C 492.674 -0.867301 1.37774 0
M  V30 4971 O 493.863 -0.738976 1.62485 0
M  V30 4972 C 490.963 -1.31298 3.12433 0
M  V30 4973 C 490.136 -0.747915 4.30958 0
M  V30 4974 C 489.195 -1.7391 4.9663 0
M  V30 4975 O 488.221 -1.2801 5.54619 0
M  V30 4976 N 489.423 -3.07288 4.92498 0
M  V30 4977 H 492.188 0.489794 2.95671 0
M  V30 4978 H 489.749 0.407076 1.56699 0
M  V30 4979 H 491.741 -1.97507 3.53232 0
M  V30 4980 H 490.311 -1.91373 2.47175 0
M  V30 4981 H 489.531 0.0913066 3.94094 0
M  V30 4982 H 490.819 -0.349958 5.07595 0
M  V30 4983 H 490.217 -3.47213 4.46609 0
M  V30 4984 H 488.774 -3.69021 5.37277 0
M  V30 4985 N 492.207 -1.54576 0.307264 0
M  V30 4986 C 493.618 -1.8579 -0.184121 0
M  V30 4987 C 493.969 -1.22914 -1.52927 0
M  V30 4988 O 493.094 -0.529126 -2.09831 0
M  V30 4989 C 493.689 -3.37081 -0.340862 0
M  V30 4990 C 492.248 -3.68304 -0.776465 0
M  V30 4991 C 491.395 -2.77076 0.111503 0
M  V30 4992 H 494.346 -1.49656 0.528078 0
M  V30 4993 H 494.367 -3.61922 -1.17443 0
M  V30 4994 H 493.879 -3.82815 0.638309 0
M  V30 4995 H 491.98 -3.28092 -1.76596 0
M  V30 4996 H 492.093 -4.75434 -0.591512 0
M  V30 4997 H 490.457 -2.51374 -0.410256 0
M  V30 4998 H 491.24 -3.25632 1.08714 0
M  V30 4999 N 493.685 -0.035106 -1.57561 0
M  V30 5000 C 494.595 0.960295 -2.14046 0
M  V30 5001 C 495.611 1.3529 -1.0942 0
M  V30 5002 O 496.787 1.43309 -1.41508 0
M  V30 5003 C 493.852 2.22214 -2.66124 0
M  V30 5004 C 492.913 1.8894 -3.85487 0
M  V30 5005 C 492.146 3.09109 -4.35072 0
M  V30 5006 O 492.369 4.21963 -3.83802 0
M  V30 5007 O 491.303 2.91058 -5.26848 0
M  V30 5008 H 495.129 0.509983 -2.99387 0
M  V30 5009 H 492.714 0.185853 -1.48239 0
M  V30 5010 H 494.596 2.96279 -2.99661 0
M  V30 5011 H 493.271 2.66414 -1.83862 0
M  V30 5012 H 492.178 1.12241 -3.56865 0
M  V30 5013 H 493.511 1.49551 -4.6893 0
M  V30 5014 N 495.163 1.55791 0.238111 0
M  V30 5015 C 496.409 1.78297 0.966337 0
M  V30 5016 C 496.742 0.601903 1.84637 0
M  V30 5017 O 496.017 -0.399499 1.90353 0
M  V30 5018 C 496.3 3.10758 1.81939 0
M  V30 5019 C 496.153 4.39283 0.966958 0
M  V30 5020 C 497.472 3.39519 2.80027 0
M  V30 5021 H 494.591 0.648654 0.349882 0
M  V30 5022 H 497.233 1.88525 0.236253 0
M  V30 5023 H 495.383 3.02168 2.44185 0
M  V30 5024 H 497.055 4.59873 0.362514 0
M  V30 5025 H 495.298 4.32948 0.271669 0
M  V30 5026 H 495.969 5.28368 1.59784 0
M  V30 5027 H 498.445 3.48128 2.27917 0
M  V30 5028 H 497.321 4.33402 3.36829 0
M  V30 5029 H 497.582 2.60864 3.56934 0
M  V30 5030 N 496.642 -0.504142 1.49319 0
M  V30 5031 C 497.552 -1.63248 1.68486 0
M  V30 5032 C 498.568 -1.64488 0.567432 0
M  V30 5033 O 499.744 -1.82966 0.841749 0
M  V30 5034 C 496.809 -2.99627 1.74426 0
M  V30 5035 C 495.87 -3.09039 2.97982 0
M  V30 5036 C 495.103 -4.38913 3.0363 0
M  V30 5037 O 495.326 -5.27528 2.16958 0
M  V30 5038 O 494.26 -4.53231 3.96062 0
M  V30 5039 H 498.086 -1.50008 2.64067 0
M  V30 5040 H 495.671 -0.680086 1.33023 0
M  V30 5041 H 497.553 -3.80689 1.80705 0
M  V30 5042 H 496.228 -3.13136 0.820233 0
M  V30 5043 H 495.135 -2.27177 2.97223 0
M  V30 5044 H 496.468 -3.00456 3.89855 0
M  V30 5045 N 498.12 -1.38341 -0.754957 0
M  V30 5046 C 499.531 -1.30803 -1.3322 0
M  V30 5047 C 499.882 0.0368 -1.96165 0
M  V30 5048 O 499.007 0.938844 -1.94974 0
M  V30 5049 C 499.602 -2.3688 -2.42225 0
M  V30 5050 C 498.161 -2.32925 -2.95674 0
M  V30 5051 C 497.308 -2.19819 -1.69042 0
M  V30 5052 H 500.259 -1.48719 -0.553937 0
M  V30 5053 H 500.28 -2.02517 -3.22129 0
M  V30 5054 H 499.792 -3.34747 -1.96383 0
M  V30 5055 H 497.893 -1.38635 -3.45848 0
M  V30 5056 H 498.006 -3.27008 -3.50146 0
M  V30 5057 H 496.37 -1.66648 -1.92615 0
M  V30 5058 H 497.153 -3.19625 -1.25279 0
M  V30 5059 N 499.598 0.982988 -1.23187 0
M  V30 5060 C 500.53 2.07729 -0.968572 0
M  V30 5061 C 501.543 1.62702 0.0564821 0
M  V30 5062 O 502.732 1.77603 -0.178733 0
M  V30 5063 C 499.832 3.36071 -0.436974 0
M  V30 5064 C 499.005 4.10081 -1.52159 0
M  V30 5065 C 498.064 5.16701 -0.99532 0
M  V30 5066 O 497.09 5.43727 -1.68373 0
M  V30 5067 N 498.292 5.80226 0.178192 0
M  V30 5068 H 501.057 2.30894 -1.9107 0
M  V30 5069 H 498.618 1.14949 -1.1401 0
M  V30 5070 H 500.61 4.04639 -0.0700051 0
M  V30 5071 H 499.18 3.09893 0.410509 0
M  V30 5072 H 498.4 3.36004 -2.06144 0
M  V30 5073 H 499.688 4.56295 -2.25105 0
M  V30 5074 H 499.086 5.60651 0.754096 0
M  V30 5075 H 497.643 6.49982 0.486449 0
M  V30 5076 N 501.076 1.04316 1.18135 0
M  V30 5077 C 502.322 0.749128 1.88457 0
M  V30 5078 C 502.655 -0.72149 1.803 0
M  V30 5079 O 501.93 -1.52676 1.205 0
M  V30 5080 C 502.213 1.21905 3.38838 0
M  V30 5081 C 502.066 2.75195 3.55792 0
M  V30 5082 C 503.385 0.811085 4.32561 0
M  V30 5083 H 500.504 0.273611 0.684329 0
M  V30 5084 H 503.146 1.29561 1.38975 0
M  V30 5085 H 501.296 0.754137 3.8111 0
M  V30 5086 H 502.968 3.29743 3.22595 0
M  V30 5087 H 501.211 3.14899 2.98364 0
M  V30 5088 H 501.882 3.03135 4.61317 0
M  V30 5089 H 504.358 1.21118 3.98082 0
M  V30 5090 H 503.234 1.16761 5.36338 0
M  V30 5091 H 503.495 -0.285596 4.41177 0
M  V30 5092 N 502.554 -1.34406 0.822964 0
M  V30 5093 C 503.831 -1.92733 0.333641 0
M  V30 5094 C 504.211 -1.75107 -1.17901 0
M  V30 5095 O 503.559 -1.12983 -1.98613 0
M  V30 5096 C 503.769 -3.40557 0.763023 0
M  V30 5097 C 505.117 -4.17709 0.761879 0
M  V30 5098 O 506.141 -3.49141 0.705606 0
M  V30 5099 O 505 -5.40082 0.835109 0
M  V30 5100 H 502.094 -0.821964 0.0911249 0
M  V30 5101 H 504.64 -1.4338 0.907757 0
M  V30 5102 H 503.412 -3.47187 1.8049 0
M  V30 5103 H 503.035 -3.97259 0.164605 0
M  V30 5104 N 504.032 -0.577932 -1.46621 0
M  V30 5105 C 505.257 -0.0652536 -2.07297 0
M  V30 5106 C 505.682 1.22828 -1.4246 0
M  V30 5107 O 505.04 1.74075 -0.506718 0
M  V30 5108 C 505.088 0.0920589 -3.60482 0
M  V30 5109 O 504.192 1.14972 -3.96049 0
M  V30 5110 H 503.533 -0.06065 -0.661224 0
M  V30 5111 H 506.063 -0.799515 -1.88332 0
M  V30 5112 H 506.073 0.299741 -4.06897 0
M  V30 5113 H 504.748 -0.852612 -4.07067 0
M  V30 5114 H 503.325 0.920879 -3.61351 0
M  V30 5115 N 505.51 1.54411 -0.315457 0
M  V30 5116 C 506.921 1.85885 0.174265 0
M  V30 5117 C 507.272 1.23723 1.52273 0
M  V30 5118 O 506.397 0.540246 2.09548 0
M  V30 5119 C 506.992 3.37257 0.322981 0
M  V30 5120 C 505.551 3.68711 0.756922 0
M  V30 5121 C 504.698 2.77013 -0.126195 0
M  V30 5122 H 507.649 1.49374 -0.536007 0
M  V30 5123 H 507.67 3.62539 1.15522 0
M  V30 5124 H 507.182 3.82471 -0.658602 0
M  V30 5125 H 505.283 3.29024 1.74854 0
M  V30 5126 H 505.396 4.75741 0.566291 0
M  V30 5127 H 503.76 2.51588 0.39692 0
M  V30 5128 H 504.543 3.25051 -1.1044 0
M  V30 5129 N 506.988 0.0434614 1.5754 0
M  V30 5130 C 507.951 -0.918696 2.09982 0
M  V30 5131 C 508.951 -1.24488 1.01781 0
M  V30 5132 O 510.141 -1.18284 1.27885 0
M  V30 5133 C 507.273 -2.23093 2.57764 0
M  V30 5134 H 508.466 -0.464229 2.96285 0
M  V30 5135 H 506.019 -0.204818 1.54952 0
M  V30 5136 H 506.754 -2.73137 1.74832 0
M  V30 5137 H 506.539 -2.00724 3.36827 0
M  V30 5138 H 508.029 -2.92028 2.98512 0
M  V30 5139 N 508.466 -1.55915 -0.229846 0
M  V30 5140 C 509.877 -1.68809 -0.797531 0
M  V30 5141 C 510.228 -0.643995 -1.8533 0
M  V30 5142 O 509.353 0.206492 -2.15413 0
M  V30 5143 C 509.948 -3.06043 -1.45338 0
M  V30 5144 C 508.507 -3.20819 -1.96856 0
M  V30 5145 C 507.654 -2.6472 -0.825736 0
M  V30 5146 H 510.605 -1.58699 -0.00533733 0
M  V30 5147 H 510.626 -3.01438 -2.32196 0
M  V30 5148 H 510.138 -3.82012 -0.684743 0
M  V30 5149 H 508.239 -2.49704 -2.76548 0
M  V30 5150 H 508.352 -4.27937 -2.15423 0
M  V30 5151 H 506.716 -2.22985 -1.23084 0
M  V30 5152 H 507.499 -3.43229 -0.0699019 0
M  V30 5153 N 509.944 0.496216 -1.49584 0
M  V30 5154 C 511.355 1.07765 -1.52459 0
M  V30 5155 C 511.706 1.93679 -0.31353 0
M  V30 5156 O 510.831 2.08588 0.576186 0
M  V30 5157 C 511.426 1.96111 -2.76271 0
M  V30 5158 C 509.985 2.49409 -2.81908 0
M  V30 5159 C 509.132 1.27142 -2.46435 0
M  V30 5160 H 512.083 0.279914 -1.56212 0
M  V30 5161 H 512.104 2.80862 -2.56704 0
M  V30 5162 H 511.616 1.33555 -3.64396 0
M  V30 5163 H 509.717 3.1559 -1.98074 0
M  V30 5164 H 509.83 2.86234 -3.84196 0
M  V30 5165 H 508.194 1.59818 -1.98319 0
M  V30 5166 H 508.977 0.662866 -3.3684 0
M  V30 5167 N 511.423 1.38739 0.74761 0
M  V30 5168 C 512.839 1.20067 1.05148 0
M  V30 5169 C 513.039 0.0534835 2.01429 0
M  V30 5170 O 512.095 -0.59886 2.45296 0
M  V30 5171 C 513.408 2.52957 1.62584 0
M  V30 5172 C 514.956 2.59692 1.74726 0
M  V30 5173 C 515.431 3.92772 2.35573 0
M  V30 5174 N 516.922 3.94343 2.42997 0
M  V30 5175 C 517.657 4.9408 2.90985 0
M  V30 5176 N 517.153 6.04214 3.38965 0
M  V30 5177 N 518.946 4.81466 2.9008 0
M  V30 5178 H 511.097 2.12121 0.108808 0
M  V30 5179 H 513.36 0.941491 0.110899 0
M  V30 5180 H 513.066 3.37389 0.993051 0
M  V30 5181 H 512.94 2.71779 2.61565 0
M  V30 5182 H 515.327 1.75651 2.3713 0
M  V30 5183 H 515.408 2.44731 0.744326 0
M  V30 5184 H 515.052 4.77238 1.738 0
M  V30 5185 H 514.982 4.05046 3.36519 0
M  V30 5186 H 517.473 3.14799 2.0907 0
M  V30 5187 H 517.786 6.76241 3.74056 0
M  V30 5188 H 516.131 6.07825 3.37007 0
M  V30 5189 H 519.322 3.94535 2.51912 0
M  V30 5190 H 519.495 5.59344 3.27166 0
M  V30 5191 N 512.901 -0.976442 1.23707 0
M  V30 5192 C 514.312 -1.53284 1.06587 0
M  V30 5193 C 514.663 -1.92765 -0.365526 0
M  V30 5194 O 513.788 -1.7645 -1.25277 0
M  V30 5195 C 514.383 -2.78548 1.92864 0
M  V30 5196 C 512.942 -3.30574 1.79994 0
M  V30 5197 C 512.089 -2.03538 1.88328 0
M  V30 5198 H 515.04 -0.795692 1.37311 0
M  V30 5199 H 515.061 -3.5155 1.45577 0
M  V30 5200 H 514.573 -2.49782 2.97037 0
M  V30 5201 H 512.674 -3.64211 0.786202 0
M  V30 5202 H 512.787 -4.00065 2.636 0
M  V30 5203 H 511.151 -2.17853 1.31954 0
M  V30 5204 H 511.934 -1.77149 2.94063 0
M  V30 5205 N 514.379 -1.04941 -1.1758 0
M  V30 5206 C 515.604 -0.778253 -1.92245 0
M  V30 5207 C 516.029 0.659707 -1.76152 0
M  V30 5208 O 515.387 1.45803 -1.07755 0
M  V30 5209 C 515.435 -1.16051 -3.41416 0
M  V30 5210 O 514.539 -0.291153 -4.11371 0
M  V30 5211 H 513.88 -0.285619 -0.599431 0
M  V30 5212 H 516.41 -1.40159 -1.49052 0
M  V30 5213 H 516.42 -1.12619 -3.92149 0
M  V30 5214 H 515.095 -2.208 -3.52449 0
M  V30 5215 H 513.672 -0.385851 -3.70898 0
M  V30 5216 N 515.857 1.33968 -0.830081 0
M  V30 5217 C 516.787 2.31911 -0.271911 0
M  V30 5218 C 517.768 1.58571 0.61556 0
M  V30 5219 O 518.953 1.86514 0.540946 0
M  V30 5220 C 516.083 3.42737 0.561146 0
M  V30 5221 C 515.037 4.27383 -0.229789 0
M  V30 5222 C 514.363 5.29742 0.726463 0
M  V30 5223 C 515.663 5.02 -1.44197 0
M  V30 5224 H 517.357 2.78844 -1.09025 0
M  V30 5225 H 514.903 1.34061 -0.52571 0
M  V30 5226 H 516.856 4.10276 0.961867 0
M  V30 5227 H 515.58 2.94471 1.41261 0
M  V30 5228 H 514.239 3.61456 -0.611964 0
M  V30 5229 H 513.887 4.77736 1.57408 0
M  V30 5230 H 513.587 5.87255 0.20142 0
M  V30 5231 H 515.111 6.00149 1.12489 0
M  V30 5232 H 516.525 5.62355 -1.11488 0
M  V30 5233 H 514.922 5.69122 -1.90317 0
M  V30 5234 H 515.992 4.31281 -2.2164 0
M  V30 5235 N 517.335 0.585699 1.46312 0
M  V30 5236 C 518.267 -0.183687 2.28463 0
M  V30 5237 C 519.28 -0.85264 1.38686 0
M  V30 5238 O 520.469 -0.721701 1.6326 0
M  V30 5239 C 517.569 -1.27977 3.13808 0
M  V30 5240 C 516.742 -0.702164 4.31727 0
M  V30 5241 C 515.801 -1.68633 4.98447 0
M  V30 5242 O 514.827 -1.22121 5.55945 0
M  V30 5243 N 516.029 -3.02047 4.95729 0
M  V30 5244 H 518.794 0.521127 2.95134 0
M  V30 5245 H 516.355 0.423673 1.56258 0
M  V30 5246 H 518.347 -1.9375 3.55307 0
M  V30 5247 H 516.917 -1.8874 2.4919 0
M  V30 5248 H 516.137 0.1331 3.93975 0
M  V30 5249 H 517.425 -0.296101 5.07938 0
M  V30 5250 H 516.823 -3.42457 4.50266 0
M  V30 5251 H 515.38 -3.63301 5.41161 0
M  V30 5252 N 518.813 -1.54241 0.323641 0
M  V30 5253 C 520.224 -1.85975 -0.164405 0
M  V30 5254 C 520.575 -1.24529 -1.51615 0
M  V30 5255 O 519.7 -0.551351 -2.09258 0
M  V30 5256 C 520.295 -3.37424 -0.305091 0
M  V30 5257 C 518.854 -3.69107 -0.737358 0
M  V30 5258 C 518.001 -2.76942 0.140884 0
M  V30 5259 H 520.952 -1.49088 0.543922 0
M  V30 5260 H 520.973 -3.63147 -1.13598 0
M  V30 5261 H 520.485 -3.82116 0.678876 0
M  V30 5262 H 518.586 -3.29947 -1.73107 0
M  V30 5263 H 518.699 -4.76035 -0.541053 0
M  V30 5264 H 517.063 -2.51795 -0.383572 0
M  V30 5265 H 517.846 -3.24461 1.12162 0
M  V30 5266 N 520.291 -0.0518155 -1.57515 0
M  V30 5267 C 521.241 0.932017 -2.0808 0
M  V30 5268 C 522.225 1.27141 -0.986098 0
M  V30 5269 O 523.417 1.25373 -1.24943 0
M  V30 5270 C 520.546 2.20665 -2.62986 0
M  V30 5271 C 519.632 1.89462 -3.79427 0
M  V30 5272 N 520.023 1.28621 -4.89173 0
M  V30 5273 C 518.321 2.19327 -3.88345 0
M  V30 5274 C 519.022 1.15062 -5.70207 0
M  V30 5275 N 517.998 1.65372 -5.17835 0
M  V30 5276 H 521.8 0.456964 -2.90326 0
M  V30 5277 H 519.314 0.152619 -1.61681 0
M  V30 5278 H 521.311 2.92044 -2.97516 0
M  V30 5279 H 519.971 2.68776 -1.8218 0
M  V30 5280 H 520.982 0.958341 -5.08956 0
M  V30 5281 H 517.659 2.69955 -3.18482 0
M  V30 5282 H 519.049 0.678243 -6.68468 0
M  V30 5283 N 521.769 1.56035 0.221574 0
M  V30 5284 C 523.18 1.69229 0.788567 0
M  V30 5285 C 523.531 0.653814 1.84986 0
M  V30 5286 O 522.656 -0.195065 2.15519 0
M  V30 5287 C 523.251 3.06809 1.43713 0
M  V30 5288 C 521.81 3.21858 1.95152 0
M  V30 5289 C 520.957 2.65155 0.811685 0
M  V30 5290 H 523.908 1.587 -0.00307894 0
M  V30 5291 H 523.929 3.02666 2.30594 0
M  V30 5292 H 523.441 3.82369 0.664475 0
M  V30 5293 H 521.542 2.51167 2.7522 0
M  V30 5294 H 521.655 4.29073 2.1315 0
M  V30 5295 H 520.019 2.23635 1.21899 0
M  V30 5296 H 520.802 3.43261 0.0516987 0
M  V30 5297 N 523.247 -0.488276 1.49845 0
M  V30 5298 C 524.663 -0.820566 1.3689 0
M  V30 5299 C 524.863 -1.97248 0.411752 0
M  V30 5300 O 523.919 -2.52042 -0.151931 0
M  V30 5301 C 525.232 -1.1488 2.77891 0
M  V30 5302 C 526.78 -1.25626 2.86683 0
M  V30 5303 C 527.255 -1.61772 4.28479 0
M  V30 5304 N 528.746 -1.68797 4.31349 0
M  V30 5305 C 529.481 -1.98235 5.38043 0
M  V30 5306 N 528.977 -2.2581 6.54967 0
M  V30 5307 N 530.77 -1.99593 5.2547 0
M  V30 5308 H 522.921 0.271123 2.10662 0
M  V30 5309 H 525.184 0.058735 0.946179 0
M  V30 5310 H 524.89 -0.375614 3.49688 0
M  V30 5311 H 524.764 -2.08919 3.14058 0
M  V30 5312 H 527.151 -2.02014 2.15114 0
M  V30 5313 H 527.232 -0.296072 2.54081 0
M  V30 5314 H 526.876 -0.859295 5.00578 0
M  V30 5315 H 526.806 -2.58912 4.58554 0
M  V30 5316 H 529.297 -1.49595 3.4703 0
M  V30 5317 H 529.61 -2.47497 7.32096 0
M  V30 5318 H 527.955 -2.23239 6.58171 0
M  V30 5319 H 531.146 -1.77535 4.33127 0
M  V30 5320 H 531.319 -2.222 6.08713 0
M  V30 5321 N 524.725 -1.39134 -0.740242 0
M  V30 5322 C 525.655 -1.40165 -1.86751 0
M  V30 5323 C 526.636 -0.265708 -1.68012 0
M  V30 5324 O 527.821 -0.47076 -1.88408 0
M  V30 5325 C 524.951 -1.2392 -3.2444 0
M  V30 5326 C 523.905 -2.34858 -3.57807 0
M  V30 5327 C 523.231 -2.03707 -4.94376 0
M  V30 5328 C 524.531 -3.77159 -3.61315 0
M  V30 5329 H 526.225 -2.345 -1.86145 0
M  V30 5330 H 523.771 -1.12875 -0.89416 0
M  V30 5331 H 525.724 -1.23263 -4.02969 0
M  V30 5332 H 524.448 -0.26051 -3.25559 0
M  V30 5333 H 523.107 -2.34723 -2.81604 0
M  V30 5334 H 522.755 -1.04289 -4.9207 0
M  V30 5335 H 522.455 -2.78016 -5.17669 0
M  V30 5336 H 523.979 -2.04691 -5.75268 0
M  V30 5337 H 525.393 -3.79252 -4.29931 0
M  V30 5338 H 523.79 -4.50784 -3.96124 0
M  V30 5339 H 524.86 -4.08513 -2.61238 0
M  V30 5340 N 526.204 0.969867 -1.24223 0
M  V30 5341 C 527.134 2.08191 -1.05729 0
M  V30 5342 C 528.115 1.70075 0.0290765 0
M  V30 5343 O 529.3 1.93712 -0.137583 0
M  V30 5344 C 526.43 3.40991 -0.658995 0
M  V30 5345 C 525.384 3.93054 -1.69389 0
M  V30 5346 C 524.71 5.22171 -1.15072 0
M  V30 5347 C 526.01 4.21137 -3.08935 0
M  V30 5348 H 527.704 2.23921 -1.98746 0
M  V30 5349 H 525.25 1.07602 -0.956967 0
M  V30 5350 H 527.203 4.18221 -0.51662 0
M  V30 5351 H 525.927 3.25155 0.30686 0
M  V30 5352 H 524.586 3.17977 -1.82444 0
M  V30 5353 H 524.234 5.02694 -0.175539 0
M  V30 5354 H 523.934 5.57973 -1.84229 0
M  V30 5355 H 525.458 6.02013 -1.02042 0
M  V30 5356 H 526.872 4.8908 -2.99121 0
M  V30 5357 H 525.269 4.68163 -3.75425 0
M  V30 5358 H 526.339 3.27996 -3.57137 0
M  V30 5359 N 527.682 1.05563 1.17022 0
M  V30 5360 C 528.959 0.68165 1.83338 0
M  V30 5361 C 529.339 -0.837665 1.93769 0
M  V30 5362 O 528.687 -1.74507 1.47511 0
M  V30 5363 C 528.897 1.375 3.20772 0
M  V30 5364 C 530.245 1.51545 3.96635 0
M  V30 5365 O 531.269 1.33431 3.30264 0
M  V30 5366 O 530.128 1.812 5.15586 0
M  V30 5367 H 527.222 0.240412 0.791285 0
M  V30 5368 H 529.768 1.15545 1.24288 0
M  V30 5369 H 528.54 2.41135 3.08171 0
M  V30 5370 H 528.163 0.890798 3.87493 0
M  V30 5371 N 529.16 -1.33526 0.837174 0
M  V30 5372 C 530.11 -2.2672 0.241269 0
M  V30 5373 C 531.094 -1.49183 -0.602756 0
M  V30 5374 O 532.286 -1.71052 -0.455002 0
M  V30 5375 C 529.415 -3.38294 -0.584125 0
M  V30 5376 C 528.501 -4.23231 0.271315 0
M  V30 5377 N 528.892 -4.87473 1.34922 0
M  V30 5378 C 527.19 -4.45962 0.0580589 0
M  V30 5379 C 527.891 -5.50685 1.87405 0
M  V30 5380 N 526.867 -5.30732 1.17578 0
M  V30 5381 H 530.669 -2.73903 1.06558 0
M  V30 5382 H 528.183 -1.47411 0.68145 0
M  V30 5383 H 530.18 -4.04044 -1.02731 0
M  V30 5384 H 528.84 -2.9266 -1.40643 0
M  V30 5385 H 529.851 -4.88077 1.7321 0
M  V30 5386 H 526.528 -4.11052 -0.730938 0
M  V30 5387 H 527.918 -6.11845 2.77661 0
M  V30 5388 N 530.638 -0.59345 -1.46 0
M  V30 5389 C 532.054 -0.255965 -1.57534 0
M  V30 5390 C 532.254 1.24167 -1.58697 0
M  V30 5391 O 531.31 2.02398 -1.50968 0
M  V30 5392 C 532.623 -0.91466 -2.86451 0
M  V30 5393 C 534.171 -0.889253 -3.00102 0
M  V30 5394 C 534.646 -1.52769 -4.3177 0
M  V30 5395 N 536.137 -1.49253 -4.38495 0
M  V30 5396 C 536.872 -1.9558 -5.39014 0
M  V30 5397 N 536.368 -2.49929 -6.46148 0
M  V30 5398 N 538.161 -1.86432 -5.30282 0
M  V30 5399 H 530.312 -1.56604 -1.43489 0
M  V30 5400 H 532.575 -0.655207 -0.685133 0
M  V30 5401 H 532.281 -1.96861 -2.91442 0
M  V30 5402 H 532.155 -0.429356 -3.74748 0
M  V30 5403 H 534.542 0.156111 -2.94687 0
M  V30 5404 H 534.623 -1.41268 -2.13253 0
M  V30 5405 H 534.267 -2.57231 -4.37944 0
M  V30 5406 H 534.197 -0.979398 -5.17412 0
M  V30 5407 H 536.688 -1.09536 -3.61677 0
M  V30 5408 H 537.001 -2.83109 -7.19075 0
M  V30 5409 H 535.346 -2.53961 -6.46938 0
M  V30 5410 H 538.537 -1.43722 -4.4549 0
M  V30 5411 H 538.71 -2.22852 -6.08474 0
M  V30 5412 N 532.116 1.54067 -0.331816 0
M  V30 5413 C 533.393 1.92915 0.322955 0
M  V30 5414 C 533.773 1.26225 1.69205 0
M  V30 5415 O 533.121 0.408919 2.24811 0
M  V30 5416 C 533.331 3.46619 0.406946 0
M  V30 5417 C 534.679 4.19386 0.663339 0
M  V30 5418 O 535.703 3.5282 0.489536 0
M  V30 5419 O 534.562 5.37288 0.999193 0
M  V30 5420 H 531.656 0.805808 0.186016 0
M  V30 5421 H 534.202 1.65342 -0.382135 0
M  V30 5422 H 532.974 3.87354 -0.554287 0
M  V30 5423 H 532.597 3.80324 1.15929 0
M  V30 5424 N 533.594 0.0601682 1.57485 0
M  V30 5425 C 534.819 -0.624416 1.97777 0
M  V30 5426 C 535.244 -1.63051 0.937867 0
M  V30 5427 O 534.602 -1.81036 -0.0978845 0
M  V30 5428 C 534.65 -1.27979 3.37126 0
M  V30 5429 O 533.754 -2.39556 3.35688 0
M  V30 5430 H 533.095 -0.161581 0.64404 0
M  V30 5431 H 535.625 0.131237 2.04179 0
M  V30 5432 H 535.635 -1.62937 3.74053 0
M  V30 5433 H 534.31 -0.542501 4.12347 0
M  V30 5434 H 532.887 -2.06478 3.10517 0
M  V30 5435 N 535.072 -1.5615 -0.213296 0
M  V30 5436 C 536.318 -1.79812 -0.937849 0
M  V30 5437 C 536.651 -0.631201 -1.83656 0
M  V30 5438 O 535.926 0.369165 -1.90964 0
M  V30 5439 C 536.209 -3.13613 -1.76972 0
M  V30 5440 C 536.062 -4.40766 -0.89695 0
M  V30 5441 C 537.381 -3.43931 -2.7459 0
M  V30 5442 H 534.5 -0.654138 -0.339518 0
M  V30 5443 H 537.142 -1.88877 -0.20623 0
M  V30 5444 H 535.292 -3.06015 -2.39347 0
M  V30 5445 H 536.964 -4.60392 -0.289306 0
M  V30 5446 H 535.207 -4.33326 -0.202756 0
M  V30 5447 H 535.878 -5.30843 -1.51358 0
M  V30 5448 H 538.354 -3.5171 -2.22349 0
M  V30 5449 H 537.23 -4.38706 -3.29891 0
M  V30 5450 H 537.491 -2.6651 -3.52739 0
M  V30 5451 N 536.55 0.480323 -1.50102 0
M  V30 5452 C 537.46 1.60547 -1.71061 0
M  V30 5453 C 538.476 1.63564 -0.593529 0
M  V30 5454 O 539.652 1.81604 -0.870751 0
M  V30 5455 C 536.717 2.96814 -1.79171 0
M  V30 5456 C 535.778 3.04259 -3.02861 0
M  V30 5457 C 535.011 4.34027 -3.10574 0
M  V30 5458 O 535.234 5.24009 -2.25323 0
M  V30 5459 O 534.168 4.46873 -4.03223 0
M  V30 5460 H 537.994 1.45788 -2.6642 0
M  V30 5461 H 535.579 0.658838 -1.34088 0
M  V30 5462 H 537.461 3.77765 -1.86738 0
M  V30 5463 H 536.136 3.11791 -0.869947 0
M  V30 5464 H 535.043 2.22419 -3.008 0
M  V30 5465 H 536.376 2.94216 -3.94586 0
M  V30 5466 N 538.028 1.39524 0.732853 0
M  V30 5467 C 538.96 1.34318 1.85718 0
M  V30 5468 C 539.973 0.251576 1.60844 0
M  V30 5469 O 541.162 0.510685 1.71039 0
M  V30 5470 C 538.262 1.06334 3.21786 0
M  V30 5471 C 537.435 2.26813 3.73998 0
M  V30 5472 C 536.494 1.95253 4.88634 0
M  V30 5473 O 535.52 2.67957 5.02183 0
M  V30 5474 N 536.722 0.919984 5.73164 0
M  V30 5475 H 539.487 2.3121 1.90688 0
M  V30 5476 H 537.048 1.33654 0.91368 0
M  V30 5477 H 539.04 0.832363 3.96048 0
M  V30 5478 H 537.61 0.181682 3.12072 0
M  V30 5479 H 536.83 2.65849 2.91064 0
M  V30 5480 H 538.118 3.0717 4.05616 0
M  V30 5481 H 537.516 0.317487 5.64808 0
M  V30 5482 H 536.073 0.748905 6.47483 0
M  V30 5483 N 539.506 -0.963266 1.24736 0
M  V30 5484 C 540.752 -1.70933 1.09131 0
M  V30 5485 C 541.085 -1.90676 -0.368273 0
M  V30 5486 O 540.36 -1.47147 -1.27193 0
M  V30 5487 C 540.643 -3.09744 1.83658 0
M  V30 5488 C 540.496 -2.97465 3.37394 0
M  V30 5489 C 541.815 -4.09483 1.61282 0
M  V30 5490 H 538.934 -0.620398 0.397838 0
M  V30 5491 H 541.576 -1.12028 1.53459 0
M  V30 5492 H 539.726 -3.60031 1.4598 0
M  V30 5493 H 541.398 -2.54571 3.84696 0
M  V30 5494 H 539.641 -2.33576 3.65547 0
M  V30 5495 H 540.312 -3.95822 3.84745 0
M  V30 5496 H 542.788 -3.68073 1.94066 0
M  V30 5497 H 541.664 -5.04666 2.15878 0
M  V30 5498 H 541.925 -4.38639 0.552102 0
M  V30 5499 N 540.985 -1.06182 -1.16461 0
M  V30 5500 C 541.948 -0.675723 -2.19013 0
M  V30 5501 C 542.948 0.277963 -1.58379 0
M  V30 5502 O 544.138 0.0604962 -1.74095 0
M  V30 5503 C 541.27 0.00591459 -3.40899 0
M  V30 5504 H 542.463 -1.58353 -2.54685 0
M  V30 5505 H 540.016 -0.856908 -1.30716 0
M  V30 5506 H 540.751 0.92652 -3.10783 0
M  V30 5507 H 540.536 -0.67984 -3.86161 0
M  V30 5508 H 542.026 0.26181 -4.16778 0
M  V30 5509 N 542.463 1.3308 -0.844243 0
M  V30 5510 C 543.709 1.97898 -0.443206 0
M  V30 5511 C 544.042 1.66699 0.99625 0
M  V30 5512 O 543.317 0.949704 1.69738 0
M  V30 5513 C 543.6 3.53801 -0.670606 0
M  V30 5514 C 543.453 3.94667 -2.15772 0
M  V30 5515 C 544.772 4.39936 -0.120226 0
M  V30 5516 H 541.891 0.718861 -0.162504 0
M  V30 5517 H 544.533 1.57633 -1.06075 0
M  V30 5518 H 542.683 3.88229 -0.14496 0
M  V30 5519 H 544.355 3.70469 -2.74865 0
M  V30 5520 H 542.598 3.44203 -2.6402 0
M  V30 5521 H 543.269 5.03275 -2.26757 0
M  V30 5522 H 545.745 4.12183 -0.5696 0
M  V30 5523 H 544.621 5.4803 -0.308984 0
M  V30 5524 H 544.882 4.31184 0.976347 0
M  V30 5525 N 543.941 0.601185 1.45683 0
M  V30 5526 C 544.871 -0.108824 2.33246 0
M  V30 5527 C 545.852 -0.865223 1.46451 0
M  V30 5528 O 547.037 -0.83704 1.75235 0
M  V30 5529 C 544.167 -1.11101 3.2905 0
M  V30 5530 C 543.121 -0.468244 4.25431 0
M  V30 5531 C 542.447 -1.57822 5.10878 0
M  V30 5532 C 543.747 0.606469 5.18767 0
M  V30 5533 H 545.441 0.622306 2.92861 0
M  V30 5534 H 542.987 0.300714 1.40825 0
M  V30 5535 H 544.94 -1.61622 3.89174 0
M  V30 5536 H 543.664 -1.87265 2.67581 0
M  V30 5537 H 542.323 0.0160484 3.66596 0
M  V30 5538 H 541.971 -2.32998 4.45781 0
M  V30 5539 H 541.671 -1.15369 5.76163 0
M  V30 5540 H 543.195 -2.08583 5.73869 0
M  V30 5541 H 544.609 0.185589 5.73 0
M  V30 5542 H 543.006 0.952381 5.92494 0
M  V30 5543 H 544.076 1.48559 4.61582 0
M  V30 5544 N 545.419 -1.53889 0.339982 0
M  V30 5545 C 546.382 -2.23547 -0.50592 0
M  V30 5546 C 547.382 -1.23445 -1.03044 0
M  V30 5547 O 548.572 -1.47909 -0.920253 0
M  V30 5548 C 545.704 -2.95234 -1.7044 0
M  V30 5549 H 546.897 -2.99722 0.103247 0
M  V30 5550 H 544.45 -1.56033 0.0912804 0
M  V30 5551 H 545.185 -2.23236 -2.35236 0
M  V30 5552 H 544.97 -3.68654 -1.33553 0
M  V30 5553 H 546.46 -3.48258 -2.30447 0
M  V30 5554 N 546.897 -0.0685191 -1.57451 0
M  V30 5555 C 548.122 0.613919 -1.98106 0
M  V30 5556 C 548.547 1.62551 -0.946501 0
M  V30 5557 O 547.905 1.81085 0.0882824 0
M  V30 5558 C 547.953 1.26189 -3.378 0
M  V30 5559 O 547.057 2.37773 -3.36954 0
M  V30 5560 H 546.398 0.158163 -0.644888 0
M  V30 5561 H 548.928 -0.142063 -2.04106 0
M  V30 5562 H 548.938 1.60951 -3.74912 0
M  V30 5563 H 547.613 0.520625 -4.12629 0
M  V30 5564 H 546.19 2.04829 -3.11608 0
M  V30 5565 N 548.375 1.56261 0.205012 0
M  V30 5566 C 549.305 1.96779 1.257 0
M  V30 5567 C 550.286 0.838309 1.48008 0
M  V30 5568 O 551.471 1.10189 1.59913 0
M  V30 5569 C 548.601 2.29876 2.60335 0
M  V30 5570 C 547.555 3.45469 2.52656 0
M  V30 5571 C 546.881 3.64215 3.91473 0
M  V30 5572 C 548.181 4.79954 2.06014 0
M  V30 5573 H 549.875 2.84904 0.920338 0
M  V30 5574 H 547.421 1.37072 0.441277 0
M  V30 5575 H 549.374 2.56814 3.34102 0
M  V30 5576 H 548.098 1.38622 2.95722 0
M  V30 5577 H 546.757 3.18605 1.81345 0
M  V30 5578 H 546.405 2.70309 4.24196 0
M  V30 5579 H 546.105 4.41973 3.87213 0
M  V30 5580 H 547.629 3.93519 4.66878 0
M  V30 5581 H 549.043 5.05989 2.69533 0
M  V30 5582 H 547.44 5.61111 2.12777 0
M  V30 5583 H 548.51 4.74201 1.01297 0
M  V30 5584 N 549.853 -0.472356 1.50355 0
M  V30 5585 C 551.101 -1.22211 1.60962 0
M  V30 5586 C 551.422 -1.92497 0.311439 0
M  V30 5587 O 550.692 -1.8405 -0.671002 0
M  V30 5588 H 549.272 -0.454092 0.593135 0
M  V30 5589 H 551.934 -0.544977 1.87126 0
M  V30 5590 H 551.03 -1.9707 2.42012 0
M  V30 5591 N 551.331 -1.39911 -0.725443 0
M  V30 5592 C 552.58 -1.36963 -1.48068 0
M  V30 5593 C 552.893 0.0284478 -1.95579 0
M  V30 5594 O 554.099 0.180535 -2.70899 0
M  V30 5595 C 552.555 -2.40664 -2.67598 0
M  V30 5596 C 552.163 -3.86234 -2.26997 0
M  V30 5597 C 553.907 -2.46807 -3.45379 0
M  V30 5598 C 551.814 -4.81554 -3.43307 0
M  V30 5599 H 550.744 -0.509223 -0.556065 0
M  V30 5600 H 553.395 -1.65602 -0.790454 0
M  V30 5601 H 551.777 -2.05109 -3.38742 0
M  V30 5602 H 552.951 -4.3088 -1.63337 0
M  V30 5603 H 551.266 -3.83475 -1.62284 0
M  V30 5604 H 553.863 -3.15213 -4.31909 0
M  V30 5605 H 554.206 -1.49552 -3.8851 0
M  V30 5606 H 554.739 -2.81303 -2.81271 0
M  V30 5607 H 551.478 -5.80106 -3.05217 0
M  V30 5608 H 550.998 -4.4158 -4.05915 0
M  V30 5609 H 552.677 -5.0091 -4.0951 0
M  V30 5610 N 552.809 0.956637 -1.25245 0
M  V30 5611 C 553.739 2.07058 -1.07931 0
M  V30 5612 C 554.72 1.70096 0.0110361 0
M  V30 5613 O 555.905 1.93555 -0.158121 0
M  V30 5614 C 553.035 3.40272 -0.695124 0
M  V30 5615 C 551.989 3.91235 -1.73549 0
M  V30 5616 C 551.315 5.20921 -1.20604 0
M  V30 5617 C 552.615 4.17837 -3.13385 0
M  V30 5618 H 554.309 2.218 -2.01109 0
M  V30 5619 H 551.855 1.06581 -0.968326 0
M  V30 5620 H 553.808 4.1765 -0.560949 0
M  V30 5621 H 552.532 3.25462 0.272355 0
M  V30 5622 H 551.191 3.16025 -1.85807 0
M  V30 5623 H 550.839 5.02479 -0.228846 0
M  V30 5624 H 550.539 5.55987 -1.90136 0
M  V30 5625 H 552.063 6.00897 -1.08421 0
M  V30 5626 H 553.477 4.8588 -3.04292 0
M  V30 5627 H 551.874 4.64154 -3.80369 0
M  V30 5628 H 552.944 3.2419 -3.60595 0
M  V30 5629 N 554.287 1.06798 1.15896 0
M  V30 5630 C 555.512 0.808739 1.90982 0
M  V30 5631 C 555.937 -0.6316 1.77179 0
M  V30 5632 O 555.295 -1.4407 1.10061 0
M  V30 5633 C 555.343 1.21468 3.39526 0
M  V30 5634 O 554.447 0.356562 4.10856 0
M  V30 5635 H 553.788 0.29512 0.594811 0
M  V30 5636 H 556.318 1.42513 1.46804 0
M  V30 5637 H 556.328 1.18844 3.90308 0
M  V30 5638 H 555.003 2.26379 3.48891 0
M  V30 5639 H 553.58 0.444808 3.70238 0
M  V30 5640 N 555.766 -1.3263 0.851289 0
M  V30 5641 C 557.013 -1.97368 0.453023 0
M  V30 5642 C 557.341 -1.67384 -0.990596 0
M  V30 5643 O 556.596 -0.952665 -1.70947 0
M  V30 5644 C 556.895 -3.51713 0.635015 0
M  V30 5645 C 556.561 -4.01676 2.04859 0
M  V30 5646 C 555.223 -4.15031 2.43522 0
M  V30 5647 C 557.575 -4.28206 2.97135 0
M  V30 5648 C 554.903 -4.52257 3.73739 0
M  V30 5649 C 557.255 -4.66889 4.26846 0
M  V30 5650 C 555.919 -4.7845 4.65448 0
M  V30 5651 H 555.189 -0.722219 0.165773 0
M  V30 5652 H 557.836 -1.58092 1.0807 0
M  V30 5653 H 556.141 -3.91726 -0.0759081 0
M  V30 5654 H 557.838 -3.99823 0.306964 0
M  V30 5655 H 554.428 -3.91764 1.73836 0
M  V30 5656 H 558.612 -4.174 2.68498 0
M  V30 5657 H 553.868 -4.59402 4.03435 0
M  V30 5658 H 558.042 -4.86372 4.98413 0
M  V30 5659 H 555.669 -5.07052 5.66395 0
M  V30 5660 N 557.244 -0.608902 -1.45362 0
M  V30 5661 C 558.174 0.0964526 -2.33301 0
M  V30 5662 C 559.155 0.857444 -1.46908 0
M  V30 5663 O 560.34 0.827735 -1.75676 0
M  V30 5664 C 557.47 1.09354 -3.29635 0
M  V30 5665 C 556.424 0.445676 -4.25673 0
M  V30 5666 C 555.75 1.5511 -5.11708 0
M  V30 5667 C 557.05 -0.633972 -5.18438 0
M  V30 5668 H 558.744 -0.637829 -2.92527 0
M  V30 5669 H 556.29 -0.308178 -1.40664 0
M  V30 5670 H 558.243 1.59556 -3.90025 0
M  V30 5671 H 556.967 1.85843 -2.6857 0
M  V30 5672 H 555.626 -0.0354897 -3.66583 0
M  V30 5673 H 555.274 2.30631 -4.4701 0
M  V30 5674 H 554.974 1.12311 -5.76767 0
M  V30 5675 H 556.498 2.05537 -5.74967 0
M  V30 5676 H 557.912 -0.215974 -5.72893 0
M  V30 5677 H 556.309 -0.983789 -5.91981 0
M  V30 5678 H 557.379 -1.51005 -4.60788 0
M  V30 5679 N 558.722 1.53707 -0.348139 0
M  V30 5680 C 559.97 2.00591 0.246478 0
M  V30 5681 C 560.291 1.23753 1.50699 0
M  V30 5682 O 559.561 0.345964 1.92821 0
M  V30 5683 H 558.141 0.741053 0.0940679 0
M  V30 5684 H 560.803 1.89139 -0.470354 0
M  V30 5685 H 559.899 3.08297 0.485714 0
M  V30 5686 N 560.2 0.0768682 1.57412 0
M  V30 5687 C 561.13 -0.886026 2.16037 0
M  V30 5688 C 562.111 -1.30691 1.08876 0
M  V30 5689 O 563.296 -1.37705 1.36934 0
M  V30 5690 C 560.426 -2.1518 2.72608 0
M  V30 5691 C 559.38 -1.87015 3.8498 0
M  V30 5692 C 558.706 -3.20266 4.28175 0
M  V30 5693 C 560.006 -1.17143 5.08994 0
M  V30 5694 H 561.7 -0.397642 2.96748 0
M  V30 5695 H 559.246 -0.189823 1.42743 0
M  V30 5696 H 561.199 -2.82962 3.12266 0
M  V30 5697 H 559.923 -2.66269 1.89125 0
M  V30 5698 H 558.582 -1.21636 3.45833 0
M  V30 5699 H 558.23 -3.69207 3.41607 0
M  V30 5700 H 557.93 -3.0221 5.03927 0
M  V30 5701 H 559.454 -3.89237 4.70454 0
M  V30 5702 H 560.868 -1.75003 5.45937 0
M  V30 5703 H 559.265 -1.09328 5.90057 0
M  V30 5704 H 560.335 -0.151295 4.84664 0
M  V30 5705 N 561.678 -1.56367 -0.196722 0
M  V30 5706 C 562.924 -1.80796 -0.918725 0
M  V30 5707 C 563.257 -0.650645 -1.82976 0
M  V30 5708 O 562.532 0.348889 -1.91345 0
M  V30 5709 C 562.815 -3.15472 -1.73636 0
M  V30 5710 C 562.668 -4.41693 -0.85015 0
M  V30 5711 C 563.987 -3.46824 -2.70927 0
M  V30 5712 H 561.106 -0.657702 -0.332561 0
M  V30 5713 H 563.748 -1.89086 -0.186186 0
M  V30 5714 H 561.898 -3.08536 -2.36088 0
M  V30 5715 H 563.57 -4.60673 -0.240459 0
M  V30 5716 H 561.813 -4.33517 -0.156785 0
M  V30 5717 H 562.484 -5.32419 -1.45719 0
M  V30 5718 H 564.96 -3.54049 -2.18607 0
M  V30 5719 H 563.836 -4.4218 -3.25219 0
M  V30 5720 H 564.097 -2.70236 -3.49893 0
M  V30 5721 N 563.156 0.464375 -1.50603 0
M  V30 5722 C 564.119 1.54393 -1.69397 0
M  V30 5723 C 565.119 1.50566 -0.564504 0
M  V30 5724 O 566.309 1.53066 -0.831645 0
M  V30 5725 C 563.441 2.9401 -1.72543 0
M  V30 5726 H 564.634 1.39044 -2.65719 0
M  V30 5727 H 562.187 0.69122 -1.40185 0
M  V30 5728 H 562.922 3.14795 -0.77938 0
M  V30 5729 H 562.707 2.98195 -2.54602 0
M  V30 5730 H 564.197 3.72375 -1.89015 0
M  V30 5731 N 564.634 1.40294 0.718013 0
M  V30 5732 C 565.882 1.38167 1.47494 0
M  V30 5733 C 566.203 -0.01607 1.94993 0
M  V30 5734 O 565.473 -0.970396 1.70177 0
M  V30 5735 H 564.053 0.508505 0.547203 0
M  V30 5736 H 566.715 1.75324 0.851322 0
M  V30 5737 H 565.811 2.05503 2.34894 0
M  V30 5738 N 566.112 -0.949982 1.2575 0
M  V30 5739 C 567.075 -2.02894 1.06615 0
M  V30 5740 C 568.075 -1.60791 0.0173905 0
M  V30 5741 O 569.265 -1.72249 0.260003 0
M  V30 5742 C 566.397 -3.35219 0.619751 0
M  V30 5743 H 567.59 -2.21302 2.02399 0
M  V30 5744 H 565.143 -1.12772 1.08223 0
M  V30 5745 H 565.878 -3.22508 -0.340486 0
M  V30 5746 H 565.663 -3.67129 1.37692 0
M  V30 5747 H 567.153 -4.14505 0.507443 0
M  V30 5748 N 567.59 -1.07411 -1.15328 0
M  V30 5749 C 568.52 -0.716472 -2.22236 0
M  V30 5750 C 569.501 0.296373 -1.67498 0
M  V30 5751 O 570.686 0.168989 -1.93463 0
M  V30 5752 C 567.816 -0.114142 -3.47112 0
M  V30 5753 C 566.77 -1.05421 -4.14814 0
M  V30 5754 C 566.096 -0.314604 -5.33774 0
M  V30 5755 C 567.396 -2.38808 -4.64508 0
M  V30 5756 H 569.09 -1.61029 -2.52408 0
M  V30 5757 H 566.636 -0.775702 -1.21321 0
M  V30 5758 H 568.589 0.148001 -4.2114 0
M  V30 5759 H 567.313 0.814755 -3.16274 0
M  V30 5760 H 565.972 -1.30128 -3.42728 0
M  V30 5761 H 565.62 0.617772 -4.99192 0
M  V30 5762 H 565.32 -0.941209 -5.80013 0
M  V30 5763 H 566.844 -0.0602747 -6.1057 0
M  V30 5764 H 568.258 -2.18424 -5.3006 0
M  V30 5765 H 566.655 -2.97069 -5.21412 0
M  V30 5766 H 567.725 -3.01067 -3.80114 0
M  V30 5767 N 569.068 1.32177 -0.85831 0
M  V30 5768 C 570.031 2.27086 -0.310588 0
M  V30 5769 C 571.031 1.51751 0.531806 0
M  V30 5770 O 572.221 1.70794 0.34279 0
M  V30 5771 C 569.353 3.36266 0.560179 0
M  V30 5772 H 570.546 2.77045 -1.1483 0
M  V30 5773 H 568.099 1.42911 -0.632942 0
M  V30 5774 H 568.834 2.9158 1.41956 0
M  V30 5775 H 568.619 3.92077 -0.0428473 0
M  V30 5776 H 570.109 4.06974 0.936056 0
M  V30 5777 N 570.547 0.616602 1.45037 0
M  V30 5778 C 571.477 -0.0840787 2.33349 0
M  V30 5779 C 572.458 -0.849641 1.4736 0
M  V30 5780 O 573.643 -0.818407 1.76113 0
M  V30 5781 C 570.773 -1.07604 3.3021 0
M  V30 5782 C 569.727 -0.423096 4.25904 0
M  V30 5783 C 569.053 -1.52394 5.12523 0
M  V30 5784 C 570.353 0.661457 5.18095 0
M  V30 5785 H 572.047 0.653333 2.92185 0
M  V30 5786 H 569.593 0.315634 1.40498 0
M  V30 5787 H 571.546 -1.57485 3.90866 0
M  V30 5788 H 570.27 -1.84416 2.69552 0
M  V30 5789 H 568.929 0.05493 3.66559 0
M  V30 5790 H 568.577 -2.28257 4.48227 0
M  V30 5791 H 568.277 -1.09251 5.77354 0
M  V30 5792 H 569.801 -2.02485 5.76049 0
M  V30 5793 H 571.215 0.246353 5.7277 0
M  V30 5794 H 569.612 1.01517 5.91451 0
M  V30 5795 H 570.682 1.53446 4.59981 0
M  V30 5796 N 572.025 -1.5352 0.356285 0
M  V30 5797 C 573.273 -2.00719 -0.235837 0
M  V30 5798 C 573.594 -1.24551 -1.5004 0
M  V30 5799 O 572.864 -0.356185 -1.92635 0
M  V30 5800 H 571.444 -0.741542 -0.0901366 0
M  V30 5801 H 574.106 -1.88887 0.480378 0
M  V30 5802 H 573.202 -3.08551 -0.469357 0
M  V30 5803 N 573.503 -0.0852151 -1.57369 0
M  V30 5804 C 574.433 0.874556 -2.16503 0
M  V30 5805 C 575.414 1.30111 -1.09568 0
M  V30 5806 O 576.599 1.36977 -1.37662 0
M  V30 5807 C 573.729 2.13731 -2.73745 0
M  V30 5808 C 572.683 1.84971 -3.85966 0
M  V30 5809 C 572.009 3.17991 -4.29867 0
M  V30 5810 C 573.309 1.14442 -5.09608 0
M  V30 5811 H 575.003 0.381899 -2.96954 0
M  V30 5812 H 572.549 0.18225 -1.42842 0
M  V30 5813 H 574.502 2.81302 -3.13763 0
M  V30 5814 H 573.226 2.65263 -1.90534 0
M  V30 5815 H 571.885 1.19801 -3.46473 0
M  V30 5816 H 571.533 3.6739 -3.4356 0
M  V30 5817 H 571.233 2.99534 -5.05523 0
M  V30 5818 H 572.757 3.86737 -4.72511 0
M  V30 5819 H 574.171 1.72105 -5.46857 0
M  V30 5820 H 572.568 1.06197 -5.90629 0
M  V30 5821 H 573.638 0.12559 -4.84737 0
M  V30 5822 N 574.981 1.5647 0.188427 0
M  V30 5823 C 576.227 1.82181 0.904534 0
M  V30 5824 C 576.582 0.663258 1.80606 0
M  V30 5825 O 575.875 -0.341231 1.88537 0
M  V30 5826 C 576.069 3.11596 1.7505 0
M  V30 5827 C 575.898 4.39928 0.932372 0
M  V30 5828 C 574.668 5.01554 0.61417 0
M  V30 5829 C 576.866 5.13527 0.281936 0
M  V30 5830 N 574.848 6.13499 -0.221896 0
M  V30 5831 C 576.219 6.18603 -0.416037 0
M  V30 5832 C 578.274 4.97505 0.198345 0
M  V30 5833 C 576.977 7.09394 -1.18965 0
M  V30 5834 C 579.003 5.88725 -0.561887 0
M  V30 5835 C 578.365 6.93251 -1.24828 0
M  V30 5836 H 574.464 0.717858 0.310168 0
M  V30 5837 H 577.048 1.93932 0.172757 0
M  V30 5838 H 575.219 3.01068 2.45383 0
M  V30 5839 H 576.951 3.25369 2.4066 0
M  V30 5840 H 573.706 4.64174 0.940187 0
M  V30 5841 H 574.13 6.74065 -0.629735 0
M  V30 5842 H 578.772 4.16716 0.714665 0
M  V30 5843 H 576.49 7.8964 -1.71737 0
M  V30 5844 H 580.076 5.78401 -0.628009 0
M  V30 5845 H 578.956 7.62618 -1.82712 0
M  V30 5846 N 576.459 -0.456382 1.50847 0
M  V30 5847 C 577.389 -1.56025 1.73719 0
M  V30 5848 C 578.37 -1.5967 0.586473 0
M  V30 5849 O 579.555 -1.75702 0.827185 0
M  V30 5850 C 576.685 -2.94251 1.84483 0
M  V30 5851 C 575.639 -3.05471 2.99786 0
M  V30 5852 C 574.965 -4.45489 2.95709 0
M  V30 5853 C 576.265 -2.81318 4.40065 0
M  V30 5854 H 577.959 -1.37138 2.66146 0
M  V30 5855 H 575.505 -0.658299 1.28072 0
M  V30 5856 H 577.458 -3.71417 1.99067 0
M  V30 5857 H 576.182 -3.14328 0.886891 0
M  V30 5858 H 574.841 -2.30741 2.84876 0
M  V30 5859 H 574.489 -4.62505 1.97732 0
M  V30 5860 H 574.189 -4.53929 3.73125 0
M  V30 5861 H 575.713 -5.24655 3.12362 0
M  V30 5862 H 577.127 -3.48226 4.55425 0
M  V30 5863 H 575.524 -3.01188 5.19043 0
M  V30 5864 H 576.594 -1.7706 4.51418 0
M  V30 5865 N 577.937 -1.40673 -0.710563 0
M  V30 5866 C 579.353 -1.22813 -1.01928 0
M  V30 5867 C 579.553 -0.10687 -2.01216 0
M  V30 5868 O 578.609 0.533614 -2.46797 0
M  V30 5869 C 579.922 -2.57178 -1.5582 0
M  V30 5870 C 581.47 -2.64233 -1.67779 0
M  V30 5871 C 581.945 -3.98879 -2.25076 0
M  V30 5872 N 583.436 -4.00647 -2.32456 0
M  V30 5873 C 584.171 -5.01621 -2.77784 0
M  V30 5874 N 583.667 -6.12989 -3.22826 0
M  V30 5875 N 585.46 -4.88988 -2.77213 0
M  V30 5876 H 577.611 -2.12335 -0.05253 0
M  V30 5877 H 579.874 -0.9441 -0.085898 0
M  V30 5878 H 579.58 -3.39903 -0.903249 0
M  V30 5879 H 579.454 -2.78618 -2.54267 0
M  V30 5880 H 581.841 -1.81876 -2.3239 0
M  V30 5881 H 581.922 -2.46619 -0.679178 0
M  V30 5882 H 581.566 -4.81678 -1.61086 0
M  V30 5883 H 581.496 -4.13826 -3.25661 0
M  V30 5884 H 583.987 -3.20231 -2.0065 0
M  V30 5885 H 584.3 -6.85921 -3.55995 0
M  V30 5886 H 582.645 -6.16547 -3.20773 0
M  V30 5887 H 585.836 -4.01075 -2.41363 0
M  V30 5888 H 586.009 -5.67822 -3.12221 0
M  V30 5889 N 579.415 0.9433 -1.26252 0
M  V30 5890 C 580.345 2.05902 -1.10122 0
M  V30 5891 C 581.326 1.70099 -0.00700552 0
M  V30 5892 O 582.511 1.93377 -0.178641 0
M  V30 5893 C 579.641 3.39516 -0.731175 0
M  V30 5894 C 578.595 3.89372 -1.77688 0
M  V30 5895 C 577.921 5.19613 -1.26122 0
M  V30 5896 C 579.221 4.14489 -3.17799 0
M  V30 5897 H 580.915 2.19655 -2.03451 0
M  V30 5898 H 578.461 1.05548 -0.979576 0
M  V30 5899 H 580.414 4.17031 -0.605215 0
M  V30 5900 H 579.138 3.25733 0.23782 0
M  V30 5901 H 577.797 3.14036 -1.89148 0
M  V30 5902 H 577.445 5.02208 -0.282128 0
M  V30 5903 H 577.145 5.53939 -1.96023 0
M  V30 5904 H 578.669 5.99713 -1.14789 0
M  V30 5905 H 580.083 4.82625 -3.09428 0
M  V30 5906 H 578.48 4.60094 -3.85271 0
M  V30 5907 H 579.55 3.20347 -3.64014 0
M  V30 5908 N 580.893 1.08022 1.14757 0
M  V30 5909 C 582.309 0.807072 1.3769 0
M  V30 5910 C 582.509 -0.585504 1.92806 0
M  V30 5911 O 581.565 -1.34301 2.13821 0
M  V30 5912 C 582.878 1.88651 2.34161 0
M  V30 5913 C 584.426 1.91206 2.47809 0
M  V30 5914 C 584.901 2.98253 3.47576 0
M  V30 5915 N 586.392 2.974 3.55117 0
M  V30 5916 C 587.127 3.76872 4.32152 0
M  V30 5917 N 586.623 4.66212 5.12463 0
M  V30 5918 N 588.416 3.6519 4.27309 0
M  V30 5919 H 580.567 1.97824 0.77326 0
M  V30 5920 H 582.83 0.85826 0.402608 0
M  V30 5921 H 582.536 2.88749 2.00791 0
M  V30 5922 H 582.41 1.75244 3.3402 0
M  V30 5923 H 584.797 0.917564 2.80472 0
M  V30 5924 H 584.878 2.08691 1.47925 0
M  V30 5925 H 584.522 3.97907 3.15646 0
M  V30 5926 H 584.452 2.78014 4.47231 0
M  V30 5927 H 586.943 2.32643 2.97801 0
M  V30 5928 H 587.256 5.23468 5.68508 0
M  V30 5929 H 585.601 4.70257 5.11745 0
M  V30 5930 H 588.792 2.94765 3.63636 0
M  V30 5931 H 588.965 4.27366 4.87095 0
M  V30 5932 N 582.371 -1.3172 0.865308 0
M  V30 5933 C 583.787 -1.4958 0.556596 0
M  V30 5934 C 583.987 -1.79763 -0.910353 0
M  V30 5935 O 583.043 -1.87351 -1.6928 0
M  V30 5936 C 584.356 -2.63277 1.45279 0
M  V30 5937 C 585.904 -2.77161 1.45433 0
M  V30 5938 C 586.379 -3.93949 2.33598 0
M  V30 5939 N 587.87 -4.01228 2.31453 0
M  V30 5940 C 588.605 -4.90855 2.96393 0
M  V30 5941 N 588.101 -5.85416 3.70486 0
M  V30 5942 N 589.894 -4.84063 2.85726 0
M  V30 5943 H 582.045 -1.10396 1.81456 0
M  V30 5944 H 584.308 -0.54507 0.775631 0
M  V30 5945 H 584.014 -2.47734 2.49641 0
M  V30 5946 H 583.888 -3.59309 1.14792 0
M  V30 5947 H 586.275 -2.9212 0.41831 0
M  V30 5948 H 586.356 -1.8181 1.79941 0
M  V30 5949 H 586 -3.79748 3.37274 0
M  V30 5950 H 585.93 -4.88598 1.96417 0
M  V30 5951 H 588.421 -3.3357 1.77593 0
M  V30 5952 H 588.734 -6.50525 4.17178 0
M  V30 5953 H 587.079 -5.85409 3.74594 0
M  V30 5954 H 590.27 -4.09163 2.27384 0
M  V30 5955 H 590.443 -5.53708 3.36617 0
M  V30 5956 N 583.85 -0.624285 -1.44708 0
M  V30 5957 C 585.098 -0.125802 -2.01708 0
M  V30 5958 C 585.418 1.2543 -1.49306 0
M  V30 5959 O 584.689 1.83198 -0.693924 0
M  V30 5960 H 583.269 -0.0435161 -0.745731 0
M  V30 5961 H 585.931 -0.809446 -1.77296 0
M  V30 5962 H 585.027 -0.0882734 -3.11975 0
M  V30 5963 N 585.328 1.53329 -0.364422 0
M  V30 5964 C 586.576 2.00842 0.225189 0
M  V30 5965 C 586.897 1.25345 1.49378 0
M  V30 5966 O 586.167 0.366396 1.92443 0
M  V30 5967 H 584.747 0.742009 0.0862027 0
M  V30 5968 H 587.409 1.8863 -0.490389 0
M  V30 5969 H 586.505 3.08795 0.452987 0
M  V30 5970 N 586.806 0.0935595 1.57322 0
M  V30 5971 C 587.753 -0.865935 2.1394 0
M  V30 5972 C 588.723 -1.28083 1.05754 0
M  V30 5973 O 589.908 -1.36285 1.33533 0
M  V30 5974 C 587.048 -2.12023 2.72287 0
M  V30 5975 C 586.161 -1.756 3.94701 0
M  V30 5976 C 585.296 -2.95804 4.41218 0
M  V30 5977 C 584.335 -2.555 5.56225 0
M  V30 5978 N 583.472 -3.68534 5.97601 0
M  V30 5979 H 588.312 -0.376261 2.95615 0
M  V30 5980 H 585.849 -0.174052 1.46067 0
M  V30 5981 H 587.807 -2.85477 3.04235 0
M  V30 5982 H 586.437 -2.58492 1.93343 0
M  V30 5983 H 585.489 -0.921208 3.69077 0
M  V30 5984 H 586.801 -1.41964 4.78171 0
M  V30 5985 H 585.955 -3.77513 4.74941 0
M  V30 5986 H 584.694 -3.32649 3.56645 0
M  V30 5987 H 583.699 -1.72218 5.22131 0
M  V30 5988 H 584.924 -2.19801 6.42545 0
M  V30 5989 H 582.87 -4.051 5.15974 0
M  V30 5990 H 582.787 -3.38737 6.75865 0
M  V30 5991 H 584.055 -4.50757 6.35955 0
M  V30 5992 N 588.284 -1.56567 -0.180126 0
M  V30 5993 C 589.561 -1.7235 -0.924931 0
M  V30 5994 C 589.941 -0.652523 -2.00762 0
M  V30 5995 O 589.289 0.334115 -2.26044 0
M  V30 5996 C 589.499 -3.1523 -1.49771 0
M  V30 5997 C 590.847 -3.75921 -1.97405 0
M  V30 5998 O 591.871 -3.18452 -1.59583 0
M  V30 5999 O 590.73 -4.7681 -2.67048 0
M  V30 6000 H 587.824 -0.703502 -0.434758 0
M  V30 6001 H 590.37 -1.6886 -0.168647 0
M  V30 6002 H 589.142 -3.84656 -0.718027 0
M  V30 6003 H 588.765 -3.23009 -2.31842 0
M  V30 6004 N 589.762 0.448376 -1.51087 0
M  V30 6005 C 591.01 1.19635 -1.62886 0
M  V30 6006 C 591.331 1.91977 -0.342024 0
M  V30 6007 O 590.601 1.85094 0.641636 0
M  V30 6008 H 589.181 0.444598 -0.600285 0
M  V30 6009 H 591.843 0.515138 -1.87969 0
M  V30 6010 H 590.939 1.93194 -2.45117 0
M  V30 6011 N 591.24 1.41047 0.703093 0
M  V30 6012 C 592.465 1.43537 1.49706 0
M  V30 6013 C 592.89 0.0401853 1.88057 0
M  V30 6014 O 592.248 -0.954785 1.54122 0
M  V30 6015 C 592.296 2.3433 2.74084 0
M  V30 6016 O 591.4 1.79515 3.71279 0
M  V30 6017 H 590.741 0.487454 0.450871 0
M  V30 6018 H 593.271 1.85422 0.86486 0
M  V30 6019 H 593.281 2.49947 3.22476 0
M  V30 6020 H 591.956 3.35708 2.45506 0
M  V30 6021 H 590.533 1.7331 3.30179 0
M  V30 6022 N 592.718 -0.936591 1.26751 0
M  V30 6023 C 594.129 -1.49816 1.1141 0
M  V30 6024 C 594.48 -1.9383 -0.304015 0
M  V30 6025 O 593.605 -1.80346 -1.196 0
M  V30 6026 C 594.2 -2.72271 2.01629 0
M  V30 6027 C 592.759 -3.2468 1.9042 0
M  V30 6028 C 591.906 -1.97444 1.94708 0
M  V30 6029 H 594.857 -0.751604 1.39773 0
M  V30 6030 H 594.878 -3.46741 1.56688 0
M  V30 6031 H 594.39 -2.40205 3.04833 0
M  V30 6032 H 592.491 -3.61525 0.901674 0
M  V30 6033 H 592.604 -3.91476 2.76195 0
M  V30 6034 H 590.968 -2.13545 1.38818 0
M  V30 6035 H 591.751 -1.67703 2.9955 0
M  V30 6036 N 594.196 -1.08629 -1.14182 0
M  V30 6037 C 595.143 -0.718299 -2.19338 0
M  V30 6038 C 596.113 0.296587 -1.63431 0
M  V30 6039 O 597.298 0.180079 -1.89948 0
M  V30 6040 C 594.438 -0.136203 -3.44831 0
M  V30 6041 C 593.551 -1.20414 -4.14879 0
M  V30 6042 C 592.686 -0.585666 -5.27962 0
M  V30 6043 C 591.725 -1.63548 -5.89846 0
M  V30 6044 N 590.862 -1.03864 -6.94375 0
M  V30 6045 H 595.702 -1.61932 -2.50164 0
M  V30 6046 H 593.239 -0.80919 -1.22844 0
M  V30 6047 H 595.197 0.219021 -4.16625 0
M  V30 6048 H 593.827 0.728121 -3.14481 0
M  V30 6049 H 592.879 -1.67676 -3.41451 0
M  V30 6050 H 594.191 -1.99959 -4.56966 0
M  V30 6051 H 593.345 -0.178818 -6.06436 0
M  V30 6052 H 592.084 0.24142 -4.87102 0
M  V30 6053 H 591.089 -2.05197 -5.10073 0
M  V30 6054 H 592.314 -2.46509 -6.3278 0
M  V30 6055 H 590.26 -0.232687 -6.55587 0
M  V30 6056 H 590.177 -1.77116 -7.3496 0
M  V30 6057 H 591.445 -0.657724 -7.7672 0
M  V30 6058 N 595.674 1.31259 -0.872281 0
M  V30 6059 C 597.085 1.78822 -0.536617 0
M  V30 6060 C 597.436 1.71855 0.946594 0
M  V30 6061 O 596.561 1.28769 1.73918 0
M  V30 6062 C 597.156 3.24698 -0.967294 0
M  V30 6063 C 595.715 3.70147 -0.683251 0
M  V30 6064 C 594.862 2.51994 -1.15733 0
M  V30 6065 H 597.813 1.18308 -1.05777 0
M  V30 6066 H 597.834 3.79386 -0.290929 0
M  V30 6067 H 597.346 3.29737 -2.04683 0
M  V30 6068 H 595.447 3.70607 0.384825 0
M  V30 6069 H 595.56 4.62183 -1.2619 0
M  V30 6070 H 593.924 2.48078 -0.577024 0
M  V30 6071 H 594.707 2.59778 -2.24434 0
M  V30 6072 N 597.152 0.631951 1.44375 0
M  V30 6073 C 598.4 0.136497 2.01639 0
M  V30 6074 C 598.721 -1.24637 1.49969 0
M  V30 6075 O 597.991 -1.82827 0.70363 0
M  V30 6076 H 596.571 0.0474703 0.74549 0
M  V30 6077 H 599.233 0.818837 1.76865 0
M  V30 6078 H 598.329 0.104817 3.11924 0
M  V30 6079 N 598.631 -1.53133 0.372548 0
M  V30 6080 C 599.878 -2.01356 -0.214959 0
M  V30 6081 C 600.206 -1.2596 -1.48204 0
M  V30 6082 O 599.461 -0.343511 -1.92662 0
M  V30 6083 C 599.76 -3.53206 -0.545938 0
M  V30 6084 C 599.426 -4.46511 0.627624 0
M  V30 6085 C 598.088 -4.71737 0.949615 0
M  V30 6086 C 600.44 -5.01666 1.41353 0
M  V30 6087 C 597.768 -5.4937 2.05936 0
M  V30 6088 C 600.12 -5.80511 2.51375 0
M  V30 6089 C 598.784 -6.04022 2.84101 0
M  V30 6090 H 598.054 -0.736813 -0.078659 0
M  V30 6091 H 600.701 -1.84682 0.506447 0
M  V30 6092 H 599.006 -3.67864 -1.34845 0
M  V30 6093 H 600.703 -3.87997 -1.01287 0
M  V30 6094 H 597.293 -4.27029 0.366635 0
M  V30 6095 H 601.477 -4.82117 1.17802 0
M  V30 6096 H 596.733 -5.65803 2.31682 0
M  V30 6097 H 600.907 -6.22255 3.12684 0
M  V30 6098 H 598.534 -6.63962 3.70214 0
M  V30 6099 N 600.109 -0.101901 -1.5727 0
M  V30 6100 C 601.039 0.851544 -2.17419 0
M  V30 6101 C 602.02 1.28942 -1.10941 0
M  V30 6102 O 603.205 1.35509 -1.39107 0
M  V30 6103 C 600.335 2.10816 -2.75996 0
M  V30 6104 C 599.289 1.80867 -3.87906 0
M  V30 6105 C 598.615 3.13413 -4.33216 0
M  V30 6106 C 599.915 1.0903 -5.10793 0
M  V30 6107 H 601.609 0.350381 -2.97343 0
M  V30 6108 H 599.155 0.16709 -1.43027 0
M  V30 6109 H 601.108 2.77959 -3.16729 0
M  V30 6110 H 599.832 2.63227 -1.93337 0
M  V30 6111 H 598.491 1.16119 -3.47724 0
M  V30 6112 H 598.139 3.63725 -3.47438 0
M  V30 6113 H 597.839 2.94155 -5.08671 0
M  V30 6114 H 599.363 3.81704 -4.76586 0
M  V30 6115 H 600.777 1.66295 -5.48652 0
M  V30 6116 H 599.174 0.99927 -5.91722 0
M  V30 6117 H 600.244 0.0741704 -4.84843 0
M  V30 6118 N 601.587 1.56661 0.17182 0
M  V30 6119 C 602.55 1.9549 1.19651 0
M  V30 6120 C 603.55 0.838501 1.37207 0
M  V30 6121 O 604.74 1.10556 1.34622 0
M  V30 6122 C 601.872 2.24927 2.56166 0
M  V30 6123 H 603.065 2.87184 0.864007 0
M  V30 6124 H 600.618 1.50711 0.41425 0
M  V30 6125 H 601.353 1.35944 2.94431 0
M  V30 6126 H 601.138 3.06301 2.4479 0
M  V30 6127 H 602.628 2.55891 3.30014 0
M  V30 6128 N 603.065 -0.440357 1.51323 0
M  V30 6129 C 604.29 -1.21716 1.67928 0
M  V30 6130 C 604.715 -1.84328 0.374826 0
M  V30 6131 O 604.073 -1.68675 -0.664706 0
M  V30 6132 C 604.121 -2.27914 2.79442 0
M  V30 6133 O 603.225 -3.33325 2.42834 0
M  V30 6134 H 602.566 -0.35674 0.560029 0
M  V30 6135 H 605.096 -0.520417 1.97871 0
M  V30 6136 H 605.106 -2.72746 3.03436 0
M  V30 6137 H 603.781 -1.8172 3.741 0
M  V30 6138 H 602.358 -2.9399 2.294 0
M  V30 6139 N 604.543 -1.41418 -0.695603 0
M  V30 6140 C 605.789 -1.40982 -1.4578 0
M  V30 6141 C 606.122 -0.0187763 -1.94191 0
M  V30 6142 O 605.397 0.95346 -1.69527 0
M  V30 6143 C 605.68 -2.41657 -2.66972 0
M  V30 6144 C 605.533 -3.89869 -2.24327 0
M  V30 6145 C 606.852 -2.39589 -3.69168 0
M  V30 6146 H 603.971 -0.513405 -0.528757 0
M  V30 6147 H 606.613 -1.72693 -0.792275 0
M  V30 6148 H 604.763 -2.14746 -3.23754 0
M  V30 6149 H 606.435 -4.27683 -1.72872 0
M  V30 6150 H 604.678 -4.04737 -1.56111 0
M  V30 6151 H 605.349 -4.55857 -3.11285 0
M  V30 6152 H 607.825 -2.63471 -3.2206 0
M  V30 6153 H 606.701 -3.12044 -4.51575 0
M  V30 6154 H 606.962 -1.41447 -4.18862 0
M  V30 6155 N 606.021 0.929856 -1.27246 0
M  V30 6156 C 607.27 1.67182 -1.12842 0
M  V30 6157 C 607.583 1.9287 0.325666 0
M  V30 6158 O 608.789 2.64999 0.590572 0
M  V30 6159 C 607.245 3.01097 -1.97151 0
M  V30 6160 C 606.853 2.83115 -3.47203 0
M  V30 6161 C 608.597 3.78907 -1.91389 0
M  V30 6162 C 606.504 4.12573 -4.23719 0
M  V30 6163 H 605.434 0.627064 -0.418697 0
M  V30 6164 H 608.085 1.0332 -1.51649 0
M  V30 6165 H 606.467 3.66004 -1.51186 0
M  V30 6166 H 607.641 2.26989 -4.01015 0
M  V30 6167 H 605.956 2.18736 -3.54321 0
M  V30 6168 H 608.553 4.74837 -2.45834 0
M  V30 6169 H 608.896 4.0674 -0.887047 0
M  V30 6170 H 609.429 3.20794 -2.35237 0
M  V30 6171 H 606.168 3.8992 -5.26918 0
M  V30 6172 H 605.688 4.68371 -3.74685 0
M  V30 6173 H 607.367 4.8095 -4.32777 0
M  V30 6174 N 607.499 1.09233 1.13605 0
M  V30 6175 C 608.91 0.846839 1.6639 0
M  V30 6176 C 609.261 -0.625031 1.85978 0
M  V30 6177 O 608.386 -1.48173 1.57714 0
M  V30 6178 C 608.981 1.5307 3.0225 0
M  V30 6179 C 607.54 1.33223 3.52035 0
M  V30 6180 C 606.687 1.58806 2.27323 0
M  V30 6181 H 609.638 1.25175 0.975541 0
M  V30 6182 H 609.659 0.96267 3.68121 0
M  V30 6183 H 609.171 2.60192 2.87961 0
M  V30 6184 H 607.272 0.282091 3.71531 0
M  V30 6185 H 607.385 2.0657 4.32279 0
M  V30 6186 H 605.749 1.01007 2.33815 0
M  V30 6187 H 606.532 2.67153 2.15602 0
M  V30 6188 N 608.977 -1.30795 0.87923 0
M  V30 6189 C 610.223 -1.96653 0.495519 0
M  V30 6190 C 610.556 -1.69282 -0.951703 0
M  V30 6191 O 609.831 -0.994374 -1.6716 0
M  V30 6192 C 610.114 -3.51898 0.764174 0
M  V30 6193 C 609.967 -3.88808 2.2616 0
M  V30 6194 C 611.286 -4.39462 0.236825 0
M  V30 6195 H 608.405 -0.7143 0.181507 0
M  V30 6196 H 611.047 -1.54765 1.10217 0
M  V30 6197 H 609.197 -3.87709 0.247841 0
M  V30 6198 H 610.869 -3.63051 2.8459 0
M  V30 6199 H 609.112 -3.37082 2.73053 0
M  V30 6200 H 609.783 -4.97086 2.4002 0
M  V30 6201 H 612.259 -4.10528 0.678683 0
M  V30 6202 H 611.135 -5.47018 0.454176 0
M  V30 6203 H 611.396 -4.33621 -0.861683 0
M  V30 6204 N 610.455 -0.639598 -1.44038 0
M  V30 6205 C 611.732 -0.078012 -1.95444 0
M  V30 6206 C 612.112 1.39847 -1.58133 0
M  V30 6207 O 611.46 2.11714 -0.859614 0
M  V30 6208 C 611.67 -0.309832 -3.47622 0
M  V30 6209 C 613.018 -0.207521 -4.24093 0
M  V30 6210 O 614.042 -0.241653 -3.55379 0
M  V30 6211 O 612.901 -0.119641 -5.46369 0
M  V30 6212 H 609.995 0.0174534 -0.826816 0
M  V30 6213 H 612.541 -0.711891 -1.54046 0
M  V30 6214 H 611.313 -1.33401 -3.67858 0
M  V30 6215 H 610.936 0.357777 -3.95987 0
M  V30 6216 N 611.933 1.52934 -0.380664 0
M  V30 6217 C 613.349 1.59571 -0.0302429 0
M  V30 6218 C 613.549 1.39509 1.45394 0
M  V30 6219 O 612.605 1.20777 2.21741 0
M  V30 6220 C 613.918 2.96519 -0.499691 0
M  V30 6221 C 615.466 3.09672 -0.455204 0
M  V30 6222 C 615.941 4.49056 -0.900703 0
M  V30 6223 N 617.432 4.55215 -0.856367 0
M  V30 6224 C 618.167 5.61282 -1.17259 0
M  V30 6225 N 617.663 6.75035 -1.55885 0
M  V30 6226 N 619.456 5.51343 -1.0944 0
M  V30 6227 H 611.607 1.64224 -1.347 0
M  V30 6228 H 613.87 0.771033 -0.551554 0
M  V30 6229 H 613.576 3.16388 -1.53595 0
M  V30 6230 H 613.45 3.77052 0.105789 0
M  V30 6231 H 615.837 2.89504 0.571949 0
M  V30 6232 H 615.918 2.31113 -1.09638 0
M  V30 6233 H 615.562 4.69964 -1.92604 0
M  V30 6234 H 615.492 5.26068 -0.236629 0
M  V30 6235 H 617.983 3.73546 -0.572013 0
M  V30 6236 H 618.296 7.51926 -1.784 0
M  V30 6237 H 616.641 6.76388 -1.59764 0
M  V30 6238 H 619.832 4.61356 -0.791713 0
M  V30 6239 H 620.005 6.33905 -1.34417 0
M  V30 6240 N 613.412 0.11024 1.57214 0
M  V30 6241 C 614.828 -0.24638 1.57687 0
M  V30 6242 C 615.028 -1.67344 1.12241 0
M  V30 6243 O 614.084 -2.39298 0.805783 0
M  V30 6244 C 615.397 -0.0210288 3.00693 0
M  V30 6245 C 616.945 -0.0876077 3.12877 0
M  V30 6246 C 617.42 0.10994 4.57868 0
M  V30 6247 N 618.911 0.0556135 4.63167 0
M  V30 6248 C 619.646 0.183495 5.73106 0
M  V30 6249 N 619.142 0.367058 6.91827 0
M  V30 6250 N 620.935 0.123689 5.61964 0
M  V30 6251 H 613.086 1.04246 1.85058 0
M  V30 6252 H 615.349 0.40979 0.854854 0
M  V30 6253 H 615.055 0.965203 3.38196 0
M  V30 6254 H 614.929 -0.756748 3.69531 0
M  V30 6255 H 617.316 -1.06436 2.75237 0
M  V30 6256 H 617.397 0.67985 2.466 0
M  V30 6257 H 617.041 1.08362 4.96206 0
M  V30 6258 H 616.971 -0.677397 5.22225 0
M  V30 6259 H 619.462 -0.0831062 3.77809 0
M  V30 6260 H 619.775 0.455739 7.71455 0
M  V30 6261 H 618.12 0.40292 6.93831 0
M  V30 6262 H 621.311 -0.0186928 4.68096 0
M  V30 6263 H 621.484 0.226797 6.47603 0
M  V30 6264 N 614.89 -1.56749 -0.16351 0
M  V30 6265 C 616.301 -1.72039 -0.725216 0
M  V30 6266 C 616.652 -0.72202 -1.82432 0
M  V30 6267 O 615.777 0.114942 -2.16095 0
M  V30 6268 C 616.372 -3.11932 -1.32227 0
M  V30 6269 C 614.931 -3.28879 -1.83072 0
M  V30 6270 C 614.078 -2.67984 -0.712716 0
M  V30 6271 H 617.029 -1.58579 0.0619772 0
M  V30 6272 H 617.05 -3.11015 -2.19202 0
M  V30 6273 H 616.562 -3.84572 -0.522103 0
M  V30 6274 H 614.663 -2.61209 -2.65708 0
M  V30 6275 H 614.776 -4.36688 -1.97079 0
M  V30 6276 H 613.14 -2.28005 -1.13515 0
M  V30 6277 H 613.923 -3.43216 0.0757361 0
M  V30 6278 N 616.368 0.432326 -1.51554 0
M  V30 6279 C 617.616 1.17901 -1.64146 0
M  V30 6280 C 617.937 1.91604 -0.362367 0
M  V30 6281 O 617.207 1.85764 0.621968 0
M  V30 6282 H 615.787 0.438206 -0.604966 0
M  V30 6283 H 618.449 0.495172 -1.88505 0
M  V30 6284 H 617.545 1.90584 -2.47152 0
M  V30 6285 N 617.846 1.41785 0.688094 0
M  V30 6286 C 618.809 1.43936 1.78368 0
M  V30 6287 C 619.809 0.328866 1.57401 0
M  V30 6288 O 620.999 0.589093 1.63937 0
M  V30 6289 C 618.131 1.25804 3.16838 0
M  V30 6290 H 619.324 2.41472 1.77852 0
M  V30 6291 H 616.877 1.28037 0.896448 0
M  V30 6292 H 617.612 0.291386 3.22988 0
M  V30 6293 H 617.397 2.06272 3.33458 0
M  V30 6294 H 618.887 1.30162 3.96797 0
M  V30 6295 N 619.324 -0.923095 1.27737 0
M  V30 6296 C 620.735 -1.48626 1.12993 0
M  V30 6297 C 621.086 -1.94142 -0.283439 0
M  V30 6298 O 620.211 -1.81605 -1.17681 0
M  V30 6299 C 620.806 -2.70117 2.04505 0
M  V30 6300 C 619.365 -3.22642 1.93853 0
M  V30 6301 C 618.512 -1.95368 1.96791 0
M  V30 6302 H 621.463 -0.736737 1.40563 0
M  V30 6303 H 621.484 -3.4506 1.60356 0
M  V30 6304 H 620.996 -2.36959 3.07363 0
M  V30 6305 H 619.097 -3.60549 0.939968 0
M  V30 6306 H 619.21 -3.88525 2.80331 0
M  V30 6307 H 617.574 -2.12061 1.41076 0
M  V30 6308 H 618.357 -1.64517 3.01312 0
M  V30 6309 N 620.802 -1.09834 -1.13024 0
M  V30 6310 C 621.75 -0.736283 -2.20639 0
M  V30 6311 C 622.744 0.264725 -1.67319 0
M  V30 6312 O 623.95 0.125745 -1.7956 0
M  V30 6313 H 620.325 -0.220136 -0.719058 0
M  V30 6314 H 622.296 -1.65295 -2.48436 0
M  V30 6315 C 621.045 -0.177544 -3.47246 0
M  V30 6316 H 620.368 -0.939009 -3.88616 0
M  V30 6317 H 621.808 0.0378007 -4.23983 0
M  V30 6318 C 620.267 1.08824 -3.1884 0
M  V30 6319 O 620.797 2.1708 -3.37993 0
M  V30 6320 N 619.003 1.00442 -2.7269 0
M  V30 6321 H 618.55 0.123383 -2.57304 0
M  V30 6322 H 618.508 1.85206 -2.5406 0
M  V30 6323 N 622.28 1.30327 -0.886154 0
M  V30 6324 C 623.21 2.30549 -0.370028 0
M  V30 6325 C 624.191 1.61039 0.547751 0
M  V30 6326 O 625.376 1.8864 0.461353 0
M  V30 6327 C 622.506 3.44808 0.415275 0
M  V30 6328 C 621.46 4.26024 -0.41085 0
M  V30 6329 C 620.786 5.32347 0.501128 0
M  V30 6330 C 622.086 4.95433 -1.65359 0
M  V30 6331 H 623.78 2.73969 -1.20754 0
M  V30 6332 H 621.326 1.3171 -0.582097 0
M  V30 6333 H 623.279 4.13986 0.78699 0
M  V30 6334 H 622.003 3.00197 1.28644 0
M  V30 6335 H 620.662 3.58535 -0.764719 0
M  V30 6336 H 620.31 4.83982 1.37004 0
M  V30 6337 H 620.01 5.87581 -0.0478356 0
M  V30 6338 H 621.534 6.0438 0.869333 0
M  V30 6339 H 622.948 5.5712 -1.35239 0
M  V30 6340 H 621.345 5.60537 -2.14284 0
M  V30 6341 H 622.415 4.21493 -2.39733 0
M  V30 6342 O 623.797 0.786908 1.41032 0
M  V30 6343 H 624.488 0.356185 1.90397 0
M  V30 END ATOM
M  V30 BEGIN BOND
M  V30 END BOND
M  V30 END CTAB
M  END
$$$$
