drugbank_target|Q14749 Glycine N-methyltransferase (DB00118; DB00145; DB01752)
 OpenBabel12092119303D

  0  0  0     0  0            999 V3000
M  V30 BEGIN CTAB
M  V30 COUNTS 4564 4618 0 0 0
M  V30 BEGIN ATOM
M  V30 1 H -0.908 1.98254 -0.117106 0
M  V30 2 N 0 1.576 0 0
M  V30 3 C 0.933 2.03868 1.02534 0
M  V30 4 C 1.911 0.928543 1.3348 0
M  V30 5 O 3.095 1.19667 1.45644 0
M  V30 6 C 0.222 2.43627 2.35294 0
M  V30 7 C -0.732 3.65373 2.2001 0
M  V30 8 S 0.101 5.13292 1.52614 0
M  V30 9 C 1.257 5.56322 2.86805 0
M  V30 10 H 1.49 2.90518 0.631377 0
M  V30 11 H -0.977 1.52953 0.210867 0
M  V30 12 H 0.981 2.67203 3.11629 0
M  V30 13 H -0.358 1.57376 2.7183 0
M  V30 14 H -1.165 3.90944 3.18086 0
M  V30 15 H -1.563 3.418 1.51819 0
M  V30 16 H 0.729 5.58782 3.83104 0
M  V30 17 H 1.672 6.56266 2.65933 0
M  V30 18 H 2.08 4.83886 2.90714 0
M  V30 19 N 1.4781 -0.272755 1.55222 0
M  V30 20 C 2.7241 -1.00581 1.761 0
M  V30 21 C 3.0571 -1.85932 0.560625 0
M  V30 22 O 2.3321 -1.89416 -0.441801 0
M  V30 23 C 2.6151 -1.88816 3.06628 0
M  V30 24 C 2.4681 -1.06457 4.37021 0
M  V30 25 C 3.7871 -2.8752 3.33197 0
M  V30 26 H 0.9061 -0.364244 0.640699 0
M  V30 27 H 3.5481 -0.278189 1.87952 0
M  V30 28 H 1.6981 -2.50856 2.96654 0
M  V30 29 H 3.3701 -0.464863 4.58952 0
M  V30 30 H 1.6131 -0.368043 4.32236 0
M  V30 31 H 2.2841 -1.71514 5.24678 0
M  V30 32 H 4.7601 -2.35615 3.42965 0
M  V30 33 H 3.6361 -3.46399 4.25792 0
M  V30 34 H 3.8971 -3.62657 2.52849 0
M  V30 35 N 2.9562 -1.48159 -0.537278 0
M  V30 36 C 4.2332 -1.46291 -1.29839 0
M  V30 37 C 4.6132 -0.170613 -2.10409 0
M  V30 38 O 3.9612 0.847746 -2.12192 0
M  V30 39 C 4.1712 -2.72055 -2.18603 0
M  V30 40 C 5.5192 -3.20087 -2.7898 0
M  V30 41 O 6.5432 -2.72921 -2.28894 0
M  V30 42 O 5.4022 -4.02138 -3.70064 0
M  V30 43 H 2.4962 -0.583906 -0.585647 0
M  V30 44 H 5.0422 -1.60384 -0.554534 0
M  V30 45 H 3.8142 -3.57628 -1.58801 0
M  V30 46 H 3.4372 -2.60646 -3.00249 0
M  V30 47 N 4.4343 0.785586 -1.36625 0
M  V30 48 C 5.6593 1.57963 -1.34397 0
M  V30 49 C 6.0843 1.87964 0.071526 0
M  V30 50 O 5.4423 1.48182 1.0446 0
M  V30 51 C 5.4903 2.87511 -2.17646 0
M  V30 52 O 4.5943 3.81281 -1.57158 0
M  V30 53 H 3.9353 0.479014 -0.459828 0
M  V30 54 H 6.4653 0.973411 -1.79961 0
M  V30 55 H 6.4753 3.36745 -2.30362 0
M  V30 56 H 5.1503 2.65002 -3.20541 0
M  V30 57 H 3.7273 3.39885 -1.53403 0
M  V30 58 N 5.9124 1.20967 1.01018 0
M  V30 59 C 7.1584 1.02526 1.74975 0
M  V30 60 C 7.4914 -0.4408 1.89131 0
M  V30 61 O 6.7664 -1.32718 1.42184 0
M  V30 62 C 7.0494 1.71699 3.1653 0
M  V30 63 C 6.9024 3.25791 3.10129 0
M  V30 64 C 8.2214 1.45531 4.15342 0
M  V30 65 H 5.3404 0.373863 0.635134 0
M  V30 66 H 7.9824 1.49071 1.17805 0
M  V30 67 H 6.1324 1.32128 3.65341 0
M  V30 68 H 7.8044 3.74697 2.69072 0
M  V30 69 H 6.0474 3.56363 2.47362 0
M  V30 70 H 6.7184 3.69353 4.10222 0
M  V30 71 H 9.1944 1.79872 3.75213 0
M  V30 72 H 8.0704 1.96453 5.1254 0
M  V30 73 H 8.3314 0.384237 4.40427 0
M  V30 74 N 7.3905 -1.2043 1.01659 0
M  V30 75 C 8.6205 -1.93496 0.724081 0
M  V30 76 C 9.0285 -1.74998 -0.71918 0
M  V30 77 O 8.3715 -1.06118 -1.49949 0
M  V30 78 C 8.4335 -3.45886 0.97994 0
M  V30 79 C 8.0975 -3.88145 2.41232 0
M  V30 80 C 9.0945 -3.93907 3.39313 0
M  V30 81 C 6.7795 -4.20134 2.75305 0
M  V30 82 C 8.7735 -4.31069 4.6953 0
M  V30 83 C 6.4605 -4.56971 4.05735 0
M  V30 84 C 7.4585 -4.62411 5.02658 0
M  V30 85 O 7.1465 -4.98403 6.30754 0
M  V30 86 H 6.8785 -0.621824 0.265162 0
M  V30 87 H 9.4325 -1.53867 1.36066 0
M  V30 88 H 7.6625 -3.85639 0.286198 0
M  V30 89 H 9.3515 -4.0018 0.679021 0
M  V30 90 H 10.1175 -3.69357 3.14325 0
M  V30 91 H 5.9965 -4.1509 2.00551 0
M  V30 92 H 9.5405 -4.3523 5.45179 0
M  V30 93 H 5.4375 -4.80977 4.30502 0
M  V30 94 H 6.2055 -5.16395 6.35042 0
M  V30 95 N 8.8686 -0.792821 -1.36206 0
M  V30 96 C 10.2846 -0.474903 -1.52371 0
M  V30 97 C 10.4846 1.00622 -1.74578 0
M  V30 98 O 9.5406 1.79162 -1.77924 0
M  V30 99 C 10.8536 -1.3083 -2.70747 0
M  V30 100 C 12.4016 -1.30234 -2.84619 0
M  V30 101 C 12.8766 -2.11956 -4.06004 0
M  V30 102 N 14.3676 -2.09419 -4.13156 0
M  V30 103 C 15.1026 -2.69419 -5.06163 0
M  V30 104 N 14.5986 -3.3829 -6.04592 0
M  V30 105 N 16.3916 -2.59134 -4.98804 0
M  V30 106 H 8.5426 -1.75222 -1.20046 0
M  V30 107 H 10.8056 -0.745024 -0.586211 0
M  V30 108 H 10.5116 -2.35881 -2.6087 0
M  V30 109 H 10.3856 -0.95196 -3.6499 0
M  V30 110 H 12.7726 -0.259748 -2.93955 0
M  V30 111 H 12.8536 -1.69847 -1.91274 0
M  V30 112 H 12.4976 -3.16248 -3.97429 0
M  V30 113 H 12.4276 -1.69711 -4.98503 0
M  V30 114 H 14.9186 -1.59297 -3.42685 0
M  V30 115 H 15.2316 -3.81394 -6.7213 0
M  V30 116 H 13.5766 -3.42393 -6.04807 0
M  V30 117 H 16.7676 -2.04927 -4.20859 0
M  V30 118 H 16.9406 -3.06185 -5.711 0
M  V30 119 N 10.3467 1.47872 -0.545128 0
M  V30 120 C 11.5747 2.06889 -0.021084 0
M  V30 121 C 11.9897 1.39955 1.2672 0
M  V30 122 O 11.3467 0.492036 1.75742 0
M  V30 123 C 11.3977 3.60996 0.190817 0
M  V30 124 O 11.1187 4.25419 -1.04644 0
M  V30 125 C 12.6197 4.36849 0.753521 0
M  V30 126 H 9.8397 0.669785 -0.0403635 0
M  V30 127 H 12.3837 1.90049 -0.755095 0
M  V30 128 H 10.5387 3.77391 0.87492 0
M  V30 129 H 10.9527 5.17785 -0.836611 0
M  V30 130 H 12.4267 5.45399 0.851139 0
M  V30 131 H 12.9037 4.02306 1.762 0
M  V30 132 H 13.5097 4.25169 0.105503 0
M  V30 133 N 11.8248 0.280983 1.55075 0
M  V30 134 C 13.2408 -0.0729964 1.59433 0
M  V30 135 C 13.4408 -1.5411 1.29817 0
M  V30 136 O 12.4968 -2.29086 1.06187 0
M  V30 137 C 13.8098 0.306921 2.9913 0
M  V30 138 C 15.3578 0.254023 3.11968 0
M  V30 139 C 15.8328 0.608467 4.5394 0
M  V30 140 N 17.3238 0.560241 4.59799 0
M  V30 141 C 18.0588 0.80722 5.6769 0
M  V30 142 N 17.5548 1.11912 6.83701 0
M  V30 143 N 19.3478 0.735623 5.57266 0
M  V30 144 H 11.4988 1.238 1.7259 0
M  V30 145 H 13.7618 0.500547 0.805082 0
M  V30 146 H 13.4678 1.32816 3.25657 0
M  V30 147 H 13.3418 -0.349363 3.75579 0
M  V30 148 H 15.7288 -0.75794 2.852 0
M  V30 149 H 15.8098 0.944649 2.37718 0
M  V30 150 H 15.4538 1.61814 4.81434 0
M  V30 151 H 15.3838 -0.104013 5.26497 0
M  V30 152 H 17.8748 0.329288 3.76463 0
M  V30 153 H 18.1878 1.29409 7.61888 0
M  V30 154 H 16.5328 1.15695 6.85303 0
M  V30 155 H 19.7238 0.491752 4.6551 0
M  V30 156 H 19.8968 0.931482 6.4127 0
M  V30 157 N 13.3029 -1.57598 0.00835791 0
M  V30 158 C 14.5279 -1.95617 -0.689103 0
M  V30 159 C 14.9529 -0.883753 -1.66046 0
M  V30 160 O 14.3109 0.157352 -1.80616 0
M  V30 161 C 14.3589 -3.32736 -1.38994 0
M  V30 162 O 13.4629 -3.27631 -2.50463 0
M  V30 163 H 12.8039 -0.638379 -0.182668 0
M  V30 164 H 15.3339 -2.045 0.064036 0
M  V30 165 H 15.3439 -3.68494 -1.75147 0
M  V30 166 H 14.0189 -4.1034 -0.677778 0
M  V30 167 H 12.5959 -3.03561 -2.16576 0
M  V30 168 N 14.781 0.264519 -1.55364 0
M  V30 169 C 15.711 1.33121 -1.91836 0
M  V30 170 C 16.692 1.51101 -0.781192 0
M  V30 171 O 17.877 1.64003 -1.04003 0
M  V30 172 C 15.007 2.68921 -2.19769 0
M  V30 173 C 13.961 2.65661 -3.35571 0
M  V30 174 C 13.287 4.05093 -3.49004 0
M  V30 175 C 14.587 2.24187 -4.71739 0
M  V30 176 H 16.281 1.02844 -2.81182 0
M  V30 177 H 13.827 0.493286 -1.35287 0
M  V30 178 H 15.78 3.43663 -2.43872 0
M  V30 179 H 14.504 3.00799 -1.27231 0
M  V30 180 H 13.163 1.93377 -3.1145 0
M  V30 181 H 12.811 4.34206 -2.53917 0
M  V30 182 H 12.511 4.03804 -4.26868 0
M  V30 183 H 14.035 4.81561 -3.75408 0
M  V30 184 H 15.449 2.88654 -4.9533 0
M  V30 185 H 13.846 2.34044 -5.52579 0
M  V30 186 H 14.916 1.19327 -4.69988 0
M  V30 187 N 16.2591 1.48442 0.529413 0
M  V30 188 C 17.5071 1.56179 1.28267 0
M  V30 189 C 17.8281 0.237721 1.93546 0
M  V30 190 O 17.0981 -0.740779 1.81354 0
M  V30 191 H 15.6781 0.575367 0.476405 0
M  V30 192 H 18.3401 1.84909 0.61602 0
M  V30 193 H 17.4361 2.34312 2.06165 0
M  V30 194 N 17.7372 -0.778329 1.37039 0
M  V30 195 C 18.9832 -1.53892 1.32079 0
M  V30 196 C 19.3162 -1.9396 -0.0965386 0
M  V30 197 O 18.5912 -1.63568 -1.05242 0
M  V30 198 C 18.8742 -2.80847 2.25382 0
M  V30 199 C 18.7272 -2.47076 3.75864 0
M  V30 200 C 20.0462 -3.82741 2.1725 0
M  V30 201 H 17.1652 -0.558303 0.48111 0
M  V30 202 H 19.8072 -0.893397 1.67685 0
M  V30 203 H 17.9572 -3.35931 1.95148 0
M  V30 204 H 19.6292 -1.97957 4.16666 0
M  V30 205 H 17.8722 -1.79863 3.94755 0
M  V30 206 H 18.5432 -3.37798 4.36574 0
M  V30 207 H 21.0192 -3.37133 2.43887 0
M  V30 208 H 19.8952 -4.69303 2.84686 0
M  V30 209 H 20.1562 -4.2652 1.16331 0
M  V30 210 N 19.2153 -1.21501 -1.00376 0
M  V30 211 C 20.1783 -0.976927 -2.07337 0
M  V30 212 C 21.1783 0.0525322 -1.60714 0
M  V30 213 O 22.3683 -0.184869 -1.73216 0
M  V30 214 C 19.5003 -0.473423 -3.37597 0
M  V30 215 H 20.6933 -1.92587 -2.29892 0
M  V30 216 H 18.2463 -1.03217 -1.17371 0
M  V30 217 H 18.9813 0.480379 -3.20722 0
M  V30 218 H 18.7663 -1.216 -3.72768 0
M  V30 219 H 20.2563 -0.32675 -4.1632 0
M  V30 220 N 20.6934 1.19889 -1.02296 0
M  V30 221 C 21.6564 2.21116 -0.603351 0
M  V30 222 C 22.6564 1.5738 0.329884 0
M  V30 223 O 23.8464 1.73802 0.117702 0
M  V30 224 C 20.9784 3.40696 0.117992 0
M  V30 225 H 22.1714 2.59754 -1.49893 0
M  V30 226 H 19.7244 1.33463 -0.813468 0
M  V30 227 H 20.4594 3.07569 1.0282 0
M  V30 228 H 20.2444 3.88188 -0.552511 0
M  V30 229 H 21.7344 4.15692 0.398696 0
M  V30 230 N 22.1715 0.800033 1.35784 0
M  V30 231 C 23.0815 0.207204 2.33683 0
M  V30 232 C 24.0975 -0.64631 1.61551 0
M  V30 233 O 25.2735 -0.559604 1.93469 0
M  V30 234 C 22.3385 -0.639659 3.40748 0
M  V30 235 C 21.3995 0.233585 4.28664 0
M  V30 236 C 20.6325 -0.572954 5.30616 0
M  V30 237 O 20.8555 -1.80816 5.40982 0
M  V30 238 O 19.7895 0.0327285 6.01891 0
M  V30 239 H 23.6155 1.01692 2.86169 0
M  V30 240 H 21.2005 0.561691 1.38439 0
M  V30 241 H 23.0825 -1.12223 4.06182 0
M  V30 242 H 21.7575 -1.42708 2.90544 0
M  V30 243 H 20.6645 0.763147 3.66233 0
M  V30 244 H 21.9975 0.984784 4.82248 0
M  V30 245 N 23.6496 -1.47581 0.552962 0
M  V30 246 C 24.8976 -2.02082 0.0272703 0
M  V30 247 C 25.2186 -1.4301 -1.32563 0
M  V30 248 O 24.4886 -0.603745 -1.86365 0
M  V30 249 H 23.0686 -0.746966 0.00709182 0
M  V30 250 H 25.7306 -1.81033 0.722008 0
M  V30 251 H 24.8266 -3.12034 -0.0639951 0
M  V30 252 N 25.1277 -0.289203 -1.54924 0
M  V30 253 C 26.0577 0.58549 -2.2604 0
M  V30 254 C 27.0387 1.14753 -1.25562 0
M  V30 255 O 28.2237 1.17906 -1.54311 0
M  V30 256 C 25.3537 1.76305 -2.99222 0
M  V30 257 C 24.3077 1.33191 -4.06748 0
M  V30 258 C 23.6337 2.5937 -4.6758 0
M  V30 259 C 24.9337 0.471775 -5.20165 0
M  V30 260 H 26.6277 -0.00763532 -2.99399 0
M  V30 261 H 24.1737 -0.00511229 -1.43999 0
M  V30 262 H 26.1267 2.38097 -3.47689 0
M  V30 263 H 24.8507 2.38223 -2.23422 0
M  V30 264 H 23.5097 0.737121 -3.59113 0
M  V30 265 H 23.1577 3.19576 -3.88433 0
M  V30 266 H 22.8577 2.31228 -5.40192 0
M  V30 267 H 24.3817 3.21985 -5.18804 0
M  V30 268 H 25.7957 0.995056 -5.64599 0
M  V30 269 H 24.1927 0.284639 -5.99425 0
M  V30 270 H 25.2627 -0.506041 -4.82252 0
M  V30 271 N 26.6058 1.57591 -0.0167156 0
M  V30 272 C 28.0168 1.79201 0.523834 0
M  V30 273 C 28.3678 0.925796 1.72984 0
M  V30 274 O 27.4928 0.132792 2.15992 0
M  V30 275 C 28.0878 3.25 0.957091 0
M  V30 276 C 26.6468 3.47648 1.44283 0
M  V30 277 C 25.7938 2.74374 0.401757 0
M  V30 278 H 28.7448 1.56831 -0.242816 0
M  V30 279 H 28.7658 3.34031 1.82219 0
M  V30 280 H 28.2778 3.88019 0.0791415 0
M  V30 281 H 26.3788 2.89866 2.34113 0
M  V30 282 H 26.4918 4.56352 1.45877 0
M  V30 283 H 24.8558 2.39485 0.867121 0
M  V30 284 H 25.6388 3.40102 -0.467513 0
M  V30 285 N 28.0839 -0.256276 1.55502 0
M  V30 286 C 29.3609 -1.00789 1.67633 0
M  V30 287 C 29.7409 -2.03706 0.553826 0
M  V30 288 O 29.0889 -2.24145 -0.443969 0
M  V30 289 C 29.2989 -1.64968 3.07549 0
M  V30 290 C 30.6469 -2.15505 3.65845 0
M  V30 291 O 31.6709 -1.74925 3.1029 0
M  V30 292 O 30.5299 -2.89986 4.63217 0
M  V30 293 H 27.6239 -0.468553 0.681459 0
M  V30 294 H 30.1699 -0.250806 1.67836 0
M  V30 295 H 28.9419 -0.904785 3.80696 0
M  V30 296 H 28.5649 -2.47321 3.11317 0
M  V30 297 N 29.562 -1.4872 -0.521534 0
M  V30 298 C 30.494 -1.59968 -1.64143 0
M  V30 299 C 31.507 -0.483463 -1.55456 0
M  V30 300 O 32.696 -0.75467 -1.61762 0
M  V30 301 C 29.796 -1.52127 -3.02838 0
M  V30 302 C 28.969 -2.78932 -3.36921 0
M  V30 303 C 28.028 -2.64428 -4.54933 0
M  V30 304 O 27.054 -3.38331 -4.57735 0
M  V30 305 N 28.256 -1.74606 -5.53618 0
M  V30 306 H 31.021 -2.56548 -1.54929 0
M  V30 307 H 28.582 -1.45551 -0.708988 0
M  V30 308 H 30.574 -1.40106 -3.79674 0
M  V30 309 H 29.144 -0.634868 -3.06085 0
M  V30 310 H 28.364 -3.05455 -2.4918 0
M  V30 311 H 29.652 -3.63041 -3.56481 0
M  V30 312 H 29.05 -1.13782 -5.54139 0
M  V30 313 H 27.607 -1.6852 -6.29638 0
M  V30 314 N 31.0401 0.771051 -1.3745 0
M  V30 315 C 32.2701 1.55789 -1.35696 0
M  V30 316 C 32.6781 1.89107 0.0594523 0
M  V30 317 O 32.0211 1.51984 1.03183 0
M  V30 318 C 32.0831 2.89515 -2.13123 0
M  V30 319 C 31.7471 2.78829 -3.62082 0
M  V30 320 C 32.7441 2.49812 -4.5595 0
M  V30 321 C 30.4291 2.9683 -4.05213 0
M  V30 322 C 32.4231 2.38923 -5.90927 0
M  V30 323 C 30.1101 2.85562 -5.40276 0
M  V30 324 C 31.1081 2.56649 -6.32946 0
M  V30 325 O 30.7961 2.45408 -7.65526 0
M  V30 326 H 30.5281 0.489257 -0.466481 0
M  V30 327 H 33.0821 0.963446 -1.81403 0
M  V30 328 H 31.3121 3.51081 -1.62107 0
M  V30 329 H 33.0011 3.50915 -2.03994 0
M  V30 330 H 33.7671 2.3559 -4.23937 0
M  V30 331 H 29.6461 3.18335 -3.33442 0
M  V30 332 H 33.1901 2.16277 -6.63227 0
M  V30 333 H 29.0871 2.99351 -5.71891 0
M  V30 334 H 29.8551 2.60753 -7.75855 0
M  V30 335 N 32.5182 1.22032 0.997298 0
M  V30 336 C 33.4812 0.987909 2.06816 0
M  V30 337 C 34.4812 -0.0440084 1.6074 0
M  V30 338 O 35.6712 0.194053 1.73116 0
M  V30 339 C 32.8032 0.49132 3.37341 0
M  V30 340 H 33.9962 1.93803 2.28868 0
M  V30 341 H 31.5492 1.03838 1.16822 0
M  V30 342 H 32.2842 -0.463364 3.20973 0
M  V30 343 H 32.0692 1.23575 3.72118 0
M  V30 344 H 33.5592 0.348824 4.16141 0
M  V30 345 N 33.9963 -1.19345 1.0293 0
M  V30 346 C 35.2733 -1.84811 0.640642 0
M  V30 347 C 35.6533 -1.91855 -0.88062 0
M  V30 348 O 35.0013 -1.43587 -1.7775 0
M  V30 349 C 35.2113 -3.23755 1.30321 0
M  V30 350 C 36.5593 -3.99912 1.42673 0
M  V30 351 O 37.5833 -3.33155 1.26041 0
M  V30 352 O 36.4423 -5.19494 1.6967 0
M  V30 353 H 33.5363 -0.796443 0.222726 0
M  V30 354 H 36.0823 -1.26831 1.12748 0
M  V30 355 H 34.8543 -3.13466 2.34211 0
M  V30 356 H 34.4773 -3.89381 0.804261 0
M  V30 357 N 35.4744 -0.807222 -1.35358 0
M  V30 358 C 36.7224 -0.387122 -1.98358 0
M  V30 359 C 37.0434 1.04942 -1.64354 0
M  V30 360 O 36.3134 1.72615 -0.926339 0
M  V30 361 H 34.8934 -0.140154 -0.733734 0
M  V30 362 H 37.5554 -1.0332 -1.6526 0
M  V30 363 H 36.6514 -0.493352 -3.08176 0
M  V30 364 N 36.9525 1.47285 -0.560781 0
M  V30 365 C 37.8625 2.33846 0.187954 0
M  V30 366 C 38.8785 1.48412 0.908293 0
M  V30 367 O 40.0545 1.81332 0.876388 0
M  V30 368 C 37.1195 3.25178 1.2025 0
M  V30 369 C 36.1805 4.26504 0.489208 0
M  V30 370 C 35.4135 5.13472 1.45542 0
M  V30 371 O 35.6365 5.02959 2.6905 0
M  V30 372 O 34.5705 5.93902 0.977963 0
M  V30 373 H 38.3965 2.99177 -0.522177 0
M  V30 374 H 35.9815 1.45903 -0.321364 0
M  V30 375 H 37.8635 3.81584 1.78805 0
M  V30 376 H 36.5385 2.6247 1.89449 0
M  V30 377 H 35.4455 3.73847 -0.137627 0
M  V30 378 H 36.7785 4.91935 -0.161399 0
M  V30 379 N 38.4306 0.297415 1.54768 0
M  V30 380 C 39.3936 -0.567375 2.22066 0
M  V30 381 C 40.3936 -1.06409 1.20556 0
M  V30 382 O 41.5836 -0.960691 1.45315 0
M  V30 383 C 38.7156 -1.78517 2.90421 0
M  V30 384 H 39.9086 0.0205534 2.99893 0
M  V30 385 H 37.4616 0.0482163 1.56226 0
M  V30 386 H 38.1966 -2.41303 2.16664 0
M  V30 387 H 37.9816 -1.43669 3.64831 0
M  V30 388 H 39.4716 -2.39964 3.41771 0
M  V30 389 N 39.9087 -1.5758 0.0250728 0
M  V30 390 C 40.8717 -2.08896 -0.943139 0
M  V30 391 C 41.8717 -1.00321 -1.25668 0
M  V30 392 O 43.0617 -1.26495 -1.19769 0
M  V30 393 C 40.1937 -2.55143 -2.26086 0
M  V30 394 H 41.3867 -2.95723 -0.498775 0
M  V30 395 H 38.9397 -1.54703 -0.222888 0
M  V30 396 H 39.6747 -1.71633 -2.75159 0
M  V30 397 H 39.4597 -3.34461 -2.04641 0
M  V30 398 H 40.9497 -2.95083 -2.95492 0
M  V30 399 N 41.3868 0.248026 -1.55636 0
M  V30 400 C 42.8028 0.596483 -1.48035 0
M  V30 401 C 43.0028 1.88386 -0.715039 0
M  V30 402 O 42.0588 2.51319 -0.243944 0
M  V30 403 C 43.3718 0.700258 -2.92433 0
M  V30 404 C 44.9198 0.792659 -3.02797 0
M  V30 405 C 45.3948 0.928005 -4.485 0
M  V30 406 N 46.8858 0.992903 -4.52433 0
M  V30 407 C 47.6208 1.11687 -5.62418 0
M  V30 408 N 47.1168 1.20645 -6.82214 0
M  V30 409 N 48.9098 1.14994 -5.50212 0
M  V30 410 H 41.0608 -0.597109 -2.03834 0
M  V30 411 H 43.3238 -0.205925 -0.925364 0
M  V30 412 H 43.0298 -0.175658 -3.51261 0
M  V30 413 H 42.9038 1.57255 -3.42857 0
M  V30 414 H 45.2908 1.65903 -2.4405 0
M  V30 415 H 45.3718 -0.104762 -2.55585 0
M  V30 416 H 45.0158 0.0661971 -5.07857 0
M  V30 417 H 44.9458 1.84045 -4.93391 0
M  V30 418 H 47.4368 0.935064 -3.66149 0
M  V30 419 H 47.7498 1.30008 -7.61786 0
M  V30 420 H 46.0948 1.17605 -6.84977 0
M  V30 421 H 49.2858 1.07643 -4.55555 0
M  V30 422 H 49.4588 1.24311 -6.35965 0
M  V30 423 N 42.8649 1.48995 0.513639 0
M  V30 424 C 44.1109 1.58076 1.27042 0
M  V30 425 C 44.4439 0.261026 1.92438 0
M  V30 426 O 43.7189 -0.734393 1.80103 0
M  V30 427 C 44.0019 2.73091 2.34719 0
M  V30 428 C 43.8549 4.14821 1.73907 0
M  V30 429 C 45.1739 2.83796 3.36375 0
M  V30 430 H 42.2929 0.575391 0.460536 0
M  V30 431 H 44.9349 1.81232 0.570516 0
M  V30 432 H 43.0849 2.53479 2.94416 0
M  V30 433 H 44.7569 4.45917 1.18135 0
M  V30 434 H 42.9999 4.21058 1.0437 0
M  V30 435 H 43.6709 4.91147 2.51949 0
M  V30 436 H 46.1469 3.01611 2.86653 0
M  V30 437 H 45.0229 3.65971 4.09093 0
M  V30 438 H 45.2839 1.92624 3.9793 0
M  V30 439 N 44.343 -0.763751 1.37857 0
M  V30 440 C 45.589 -1.52396 1.3471 0
M  V30 441 C 45.944 -1.92288 -0.0656435 0
M  V30 442 O 45.237 -1.6181 -1.02606 0
M  V30 443 C 45.431 -2.79499 2.22745 0
M  V30 444 C 45.26 -2.52031 3.72438 0
M  V30 445 C 44.03 -2.45759 4.4151 0
M  V30 446 C 46.228 -2.19489 4.65112 0
M  V30 447 N 44.21 -2.1046 5.76697 0
M  V30 448 C 45.581 -1.94396 5.88736 0
M  V30 449 C 47.636 -2.05712 4.53417 0
M  V30 450 C 46.339 -1.56917 7.01975 0
M  V30 451 C 48.365 -1.69634 5.66549 0
M  V30 452 C 47.727 -1.45407 6.89229 0
M  V30 453 H 43.826 -0.55765 0.548225 0
M  V30 454 H 46.41 -0.890302 1.73152 0
M  V30 455 H 44.581 -3.4069 1.86507 0
M  V30 456 H 46.313 -3.45465 2.10798 0
M  V30 457 H 43.068 -2.61885 3.94605 0
M  V30 458 H 43.492 -1.95484 6.48163 0
M  V30 459 H 48.134 -2.23123 3.59133 0
M  V30 460 H 45.852 -1.38246 7.96187 0
M  V30 461 H 49.438 -1.59621 5.59475 0
M  V30 462 H 48.318 -1.17904 7.75286 0
M  V30 463 N 45.8211 -1.22559 -0.990812 0
M  V30 464 C 46.7531 -0.955325 -2.08342 0
M  V30 465 C 47.7661 0.0668408 -1.62663 0
M  V30 466 O 48.9551 -0.167421 -1.77713 0
M  V30 467 C 46.0551 -0.415566 -3.36342 0
M  V30 468 C 45.2281 -1.49544 -4.11042 0
M  V30 469 C 44.2871 -0.962399 -5.17324 0
M  V30 470 O 43.3131 -1.64907 -5.44788 0
M  V30 471 N 44.5151 0.215134 -5.80101 0
M  V30 472 H 47.2801 -1.89596 -2.32106 0
M  V30 473 H 44.8411 -1.13276 -1.15673 0
M  V30 474 H 46.8331 -0.0442386 -4.04676 0
M  V30 475 H 45.4031 0.430232 -3.09625 0
M  V30 476 H 44.6231 -2.04 -3.37309 0
M  V30 477 H 45.9111 -2.22195 -4.57719 0
M  V30 478 H 45.3091 0.789779 -5.6016 0
M  V30 479 H 43.8661 0.527826 -6.49659 0
M  V30 480 N 47.2992 1.18797 -1.03562 0
M  V30 481 C 48.2292 2.24472 -0.643019 0
M  V30 482 C 49.2102 1.66433 0.351283 0
M  V30 483 O 50.3952 1.92803 0.232505 0
M  V30 484 C 47.5252 3.473 4.24935e-05 0
M  V30 485 C 46.4792 4.18055 -0.917257 0
M  V30 486 C 45.8052 5.34519 -0.138941 0
M  V30 487 C 47.1052 4.72109 -2.23407 0
M  V30 488 H 48.7992 2.57566 -1.52643 0
M  V30 489 H 46.3452 1.23806 -0.735394 0
M  V30 490 H 48.2982 4.20426 0.286383 0
M  V30 491 H 47.0222 3.13424 0.918299 0
M  V30 492 H 45.6812 3.46821 -1.1879 0
M  V30 493 H 45.3292 4.96891 0.781562 0
M  V30 494 H 45.0292 5.82794 -0.750005 0
M  V30 495 H 46.5532 6.10438 0.1405 0
M  V30 496 H 47.9672 5.36955 -2.00879 0
M  V30 497 H 46.3642 5.30897 -2.79765 0
M  V30 498 H 47.4342 3.89807 -2.88407 0
M  V30 499 N 48.7773 0.814389 1.34928 0
M  V30 500 C 50.0073 0.41054 2.0248 0
M  V30 501 C 50.4153 -0.985625 1.61499 0
M  V30 502 O 49.7583 -1.64781 0.811976 0
M  V30 503 C 49.8203 0.423384 3.56998 0
M  V30 504 C 49.4843 1.77141 4.21272 0
M  V30 505 C 50.4813 2.73093 4.42398 0
M  V30 506 C 48.1663 2.05755 4.58225 0
M  V30 507 C 50.1603 3.95838 4.9959 0
M  V30 508 C 47.8473 3.28762 5.1513 0
M  V30 509 C 48.8453 4.23621 5.35755 0
M  V30 510 O 48.5333 5.44456 5.91458 0
M  V30 511 H 48.2653 0.163997 0.655806 0
M  V30 512 H 50.8193 1.10155 1.73364 0
M  V30 513 H 49.0493 -0.324276 3.85338 0
M  V30 514 H 50.7383 0.0407683 4.0588 0
M  V30 515 H 51.5043 2.5228 4.14222 0
M  V30 516 H 47.3833 1.32727 4.4148 0
M  V30 517 H 50.9273 4.69891 5.15605 0
M  V30 518 H 46.8243 3.49443 5.42734 0
M  V30 519 H 47.5923 5.4586 6.09901 0
M  V30 520 N 50.2554 -1.46986 0.568584 0
M  V30 521 C 51.5044 -2.01646 0.0465894 0
M  V30 522 C 51.8174 -1.44721 -1.31587 0
M  V30 523 O 53.0234 -1.91113 -1.92842 0
M  V30 524 C 51.4794 -3.59885 0.032752 0
M  V30 525 C 51.0874 -4.25804 1.39266 0
M  V30 526 C 52.8314 -4.22255 -0.436038 0
M  V30 527 C 50.7384 -5.76081 1.33732 0
M  V30 528 H 49.6684 -0.753876 0.013647 0
M  V30 529 H 52.3194 -1.68864 0.718131 0
M  V30 530 H 50.7014 -3.8968 -0.704669 0
M  V30 531 H 51.8754 -4.07637 2.1487 0
M  V30 532 H 50.1904 -3.7547 1.80032 0
M  V30 533 H 52.7874 -5.32394 -0.49602 0
M  V30 534 H 53.1304 -3.90212 -1.45053 0
M  V30 535 H 53.6634 -3.97033 0.246877 0
M  V30 536 H 50.4024 -6.12761 2.32817 0
M  V30 537 H 49.9224 -5.96553 0.623267 0
M  V30 538 H 51.6014 -6.38518 1.0442 0
M  V30 539 N 51.7335 -0.305618 -1.54608 0
M  V30 540 C 52.9815 0.301701 -1.99835 0
M  V30 541 C 53.3025 1.54054 -1.19551 0
M  V30 542 O 52.5725 1.93702 -0.292658 0
M  V30 543 H 51.1525 0.114468 -0.738178 0
M  V30 544 H 53.8145 -0.418016 -1.90364 0
M  V30 545 H 52.9105 0.570548 -3.06841 0
M  V30 546 N 53.2116 1.57565 -0.0334293 0
M  V30 547 C 54.4886 1.83282 0.683163 0
M  V30 548 C 54.8686 0.91823 1.90084 0
M  V30 549 O 54.2166 -0.025113 2.28486 0
M  V30 550 C 54.4266 3.32599 1.0573 0
M  V30 551 C 55.7746 3.99179 1.44711 0
M  V30 552 O 56.7986 3.3712 1.15015 0
M  V30 553 O 55.6576 5.08565 2.0006 0
M  V30 554 H 52.7516 0.755869 0.335546 0
M  V30 555 H 55.2976 1.69589 -0.0614402 0
M  V30 556 H 54.0696 3.90834 0.190828 0
M  V30 557 H 53.6926 3.51415 1.85993 0
M  V30 558 N 54.6897 -0.239769 1.55765 0
M  V30 559 C 55.9177 -0.98417 1.81994 0
M  V30 560 C 56.3327 -1.7867 0.610124 0
M  V30 561 O 55.6897 -1.77571 -0.421271 0
M  V30 562 C 55.7407 -1.91635 3.06526 0
M  V30 563 O 55.4617 -1.14629 4.22838 0
M  V30 564 C 56.9627 -2.77616 3.45607 0
M  V30 565 H 54.1827 -0.28928 0.605441 0
M  V30 566 H 56.7267 -0.260499 2.02834 0
M  V30 567 H 54.8817 -2.5942 2.87715 0
M  V30 568 H 55.2957 -1.77745 4.93464 0
M  V30 569 H 56.7697 -3.38759 4.35828 0
M  V30 570 H 57.2467 -3.4909 2.6652 0
M  V30 571 H 57.8527 -2.15271 3.66795 0
M  V30 572 N 56.1678 -1.49265 -0.50573 0
M  V30 573 C 57.5838 -1.35923 -0.836486 0
M  V30 574 C 57.7838 -0.388704 -1.97715 0
M  V30 575 O 56.8398 0.181336 -2.51848 0
M  V30 576 C 58.1528 -2.76531 -1.18115 0
M  V30 577 C 59.7008 -2.85197 -1.28964 0
M  V30 578 C 60.1758 -4.26561 -1.66761 0
M  V30 579 N 61.6668 -4.2935 -1.73819 0
M  V30 580 C 62.4018 -5.35693 -2.045 0
M  V30 581 N 61.8978 -6.52287 -2.33438 0
M  V30 582 N 63.6908 -5.23105 -2.05711 0
M  V30 583 H 55.8418 -2.10965 0.246519 0
M  V30 584 H 58.1048 -0.9468 0.0476887 0
M  V30 585 H 57.8108 -3.49226 -0.416398 0
M  V30 586 H 57.6848 -3.11599 -2.1257 0
M  V30 587 H 60.0718 -2.12742 -2.04511 0
M  V30 588 H 60.1528 -2.53718 -0.325704 0
M  V30 589 H 59.7968 -4.99541 -0.917656 0
M  V30 590 H 59.7268 -4.55502 -2.64246 0
M  V30 591 H 62.2178 -3.4526 -1.53635 0
M  V30 592 H 62.5308 -7.29158 -2.56024 0
M  V30 593 H 60.8758 -6.55521 -2.30905 0
M  V30 594 H 64.0668 -4.31026 -1.82577 0
M  V30 595 H 64.2398 -6.06078 -2.29289 0
M  V30 596 N 57.6459 0.756429 -1.3826 0
M  V30 597 C 58.8709 1.55077 -1.37717 0
M  V30 598 C 59.2959 1.88073 0.03164 0
M  V30 599 O 58.6539 1.50364 1.01293 0
M  V30 600 C 58.7019 2.8283 -2.23695 0
M  V30 601 O 57.8059 3.77862 -1.6521 0
M  V30 602 H 57.1469 0.469152 -0.469885 0
M  V30 603 H 59.6769 0.935019 -1.81985 0
M  V30 604 H 59.6869 3.31783 -2.37453 0
M  V30 605 H 58.3619 2.58144 -3.2609 0
M  V30 606 H 56.9389 3.36555 -1.60578 0
M  V30 607 N 59.124 1.23083 0.984299 0
M  V30 608 C 60.54 0.992637 1.24975 0
M  V30 609 C 60.74 -0.308618 1.99123 0
M  V30 610 O 59.796 -1.02905 2.30579 0
M  V30 611 C 61.109 2.19698 2.05312 0
M  V30 612 C 62.657 2.24147 2.18465 0
M  V30 613 C 63.132 3.44157 3.02192 0
M  V30 614 N 64.623 3.44372 3.09777 0
M  V30 615 C 65.358 4.33886 3.74874 0
M  V30 616 N 64.854 5.3363 4.41827 0
M  V30 617 N 66.647 4.21639 3.71721 0
M  V30 618 H 58.798 2.06731 0.487453 0
M  V30 619 H 61.061 0.906339 0.277944 0
M  V30 620 H 60.767 3.1411 1.58201 0
M  V30 621 H 60.641 2.20465 3.06064 0
M  V30 622 H 63.028 1.30277 2.64786 0
M  V30 623 H 63.109 2.27415 1.17115 0
M  V30 624 H 62.753 4.38332 2.56568 0
M  V30 625 H 62.683 3.3813 4.03702 0
M  V30 626 H 65.174 2.72201 2.62135 0
M  V30 627 H 65.487 5.98196 4.89266 0
M  V30 628 H 63.832 5.37534 4.40548 0
M  V30 629 H 67.023 3.42962 3.18582 0
M  V30 630 H 67.196 4.91604 4.22173 0
M  V30 631 N 60.6021 -1.18246 1.0419 0
M  V30 632 C 61.8301 -1.92195 0.766072 0
M  V30 633 C 62.2451 -1.76247 -0.676933 0
M  V30 634 O 61.6021 -1.09293 -1.46155 0
M  V30 635 C 61.6531 -3.43568 1.12442 0
M  V30 636 O 61.3741 -3.59015 2.51078 0
M  V30 637 C 62.8751 -4.34613 0.873275 0
M  V30 638 H 60.0951 -0.610114 0.279288 0
M  V30 639 H 62.6391 -1.50007 1.38989 0
M  V30 640 H 60.7941 -3.8354 0.545542 0
M  V30 641 H 61.2081 -4.5273 2.64831 0
M  V30 642 H 62.6821 -5.39374 1.17385 0
M  V30 643 H 63.1591 -4.38781 -0.191909 0
M  V30 644 H 63.7651 -4.00341 1.43551 0
M  V30 645 N 62.0802 -0.821533 -1.34494 0
M  V30 646 C 63.0432 -0.247847 -2.27856 0
M  V30 647 C 64.0432 0.573453 -1.50227 0
M  V30 648 O 65.2332 0.389759 -1.69784 0
M  V30 649 C 62.3652 0.652698 -3.34593 0
M  V30 650 H 63.5582 -1.07146 -2.80107 0
M  V30 651 H 61.1112 -0.593291 -1.44602 0
M  V30 652 H 61.8462 1.49943 -2.87555 0
M  V30 653 H 61.6312 0.065292 -3.92046 0
M  V30 654 H 63.1212 1.04793 -4.04238 0
M  V30 655 N 63.5583 1.46682 -0.576371 0
M  V30 656 C 64.4683 2.34032 0.163141 0
M  V30 657 C 65.4843 1.49367 0.892501 0
M  V30 658 O 66.6603 1.82252 0.857106 0
M  V30 659 C 63.7253 3.26435 1.16795 0
M  V30 660 C 62.7863 4.26998 0.443944 0
M  V30 661 C 62.0193 5.14986 1.40088 0
M  V30 662 O 62.2423 5.05785 2.637 0
M  V30 663 O 61.1763 5.94906 0.914917 0
M  V30 664 H 65.0023 2.98607 -0.55388 0
M  V30 665 H 62.5873 1.45554 -0.336821 0
M  V30 666 H 64.4693 3.83459 1.74748 0
M  V30 667 H 63.1443 2.64465 1.86655 0
M  V30 668 H 62.0513 3.7368 -0.177271 0
M  V30 669 H 63.3843 4.91736 -0.213566 0
M  V30 670 N 65.0364 0.313813 1.54444 0
M  V30 671 C 66.2664 -0.293491 2.04505 0
M  V30 672 C 66.6744 -1.47086 1.19005 0
M  V30 673 O 66.0174 -1.82481 0.211257 0
M  V30 674 C 66.0794 -0.800455 3.50475 0
M  V30 675 C 65.7434 0.253322 4.56297 0
M  V30 676 C 66.7404 1.08612 5.08428 0
M  V30 677 C 64.4254 0.398708 5.00715 0
M  V30 678 C 66.4194 2.05013 6.0353 0
M  V30 679 C 64.1064 1.36614 5.95634 0
M  V30 680 C 65.1044 2.19033 6.46926 0
M  V30 681 O 64.7924 3.14134 7.39983 0
M  V30 682 H 64.5244 -0.0658325 0.672787 0
M  V30 683 H 67.0784 0.455177 2.00293 0
M  V30 684 H 65.3084 -1.59987 3.52053 0
M  V30 685 H 66.9974 -1.32504 3.83663 0
M  V30 686 H 67.7634 0.984736 4.74898 0
M  V30 687 H 63.6424 -0.23289 4.60411 0
M  V30 688 H 67.1864 2.69382 6.4349 0
M  V30 689 H 63.0834 1.4682 6.28581 0
M  V30 690 H 63.8514 3.0926 7.57826 0
M  V30 691 N 66.5145 -1.57545 0.0417849 0
M  V30 692 C 67.4615 -2.10977 -0.935805 0
M  V30 693 C 68.4315 -1.01486 -1.31491 0
M  V30 694 O 69.6165 -1.2898 -1.40602 0
M  V30 695 C 66.7565 -2.65169 -2.2086 0
M  V30 696 C 65.8695 -3.88714 -1.88482 0
M  V30 697 C 65.0045 -4.31254 -3.1015 0
M  V30 698 C 64.0435 -5.47524 -2.7365 0
M  V30 699 N 63.1805 -5.85162 -3.87982 0
M  V30 700 H 68.0205 -2.94218 -0.473249 0
M  V30 701 H 65.5575 -1.45415 -0.221981 0
M  V30 702 H 67.5155 -2.94685 -2.95325 0
M  V30 703 H 66.1455 -1.8474 -2.64709 0
M  V30 704 H 65.1975 -3.65849 -1.04205 0
M  V30 705 H 66.5095 -4.73245 -1.57608 0
M  V30 706 H 65.6635 -4.62273 -3.92923 0
M  V30 707 H 64.4025 -3.45516 -3.44195 0
M  V30 708 H 63.4075 -5.16187 -1.89291 0
M  V30 709 H 64.6325 -6.34971 -2.40807 0
M  V30 710 H 62.5785 -5.02377 -4.21846 0
M  V30 711 H 62.4955 -6.64362 -3.60775 0
M  V30 712 H 63.7635 -6.20791 -4.71422 0
M  V30 713 N 67.9926 0.231505 -1.5589 0
M  V30 714 C 68.9556 1.27028 -1.90779 0
M  V30 715 C 69.9556 1.40308 -0.785507 0
M  V30 716 O 71.1456 1.38744 -1.05336 0
M  V30 717 C 68.2776 2.64566 -2.14983 0
M  V30 718 H 69.4706 0.973017 -2.83677 0
M  V30 719 H 67.0236 0.471486 -1.49019 0
M  V30 720 H 67.7586 2.99406 -1.24604 0
M  V30 721 H 67.5436 2.56305 -2.96732 0
M  V30 722 H 69.0336 3.39543 -2.43105 0
M  V30 723 N 69.4707 1.49531 0.497807 0
M  V30 724 C 70.7167 1.60388 1.25089 0
M  V30 725 C 71.0717 0.288328 1.90227 0
M  V30 726 O 70.3647 -0.711706 1.77891 0
M  V30 727 C 70.5587 2.70252 2.33878 0
M  V30 728 C 70.3877 4.12363 1.79408 0
M  V30 729 C 69.1577 4.7911 1.60566 0
M  V30 730 C 71.3557 4.97491 1.30412 0
M  V30 731 N 69.3377 6.05525 1.01059 0
M  V30 732 C 70.7087 6.14411 0.830595 0
M  V30 733 C 72.7637 4.83466 1.19015 0
M  V30 734 C 71.4667 7.1885 0.254371 0
M  V30 735 C 73.4927 5.88057 0.627892 0
M  V30 736 C 72.8547 7.04208 0.16461 0
M  V30 737 H 68.9537 0.641246 0.447579 0
M  V30 738 H 71.5377 1.86549 0.557441 0
M  V30 739 H 69.7087 2.45858 3.0068 0
M  V30 740 H 71.4407 2.70613 3.00917 0
M  V30 741 H 68.1957 4.35961 1.85026 0
M  V30 742 H 68.6197 6.73028 0.732236 0
M  V30 743 H 73.2617 3.93978 1.53431 0
M  V30 744 H 70.9797 8.08036 -0.102052 0
M  V30 745 H 74.5657 5.79266 0.542444 0
M  V30 746 H 73.4457 7.83757 -0.263669 0
M  V30 747 N 70.9488 -0.749086 1.3866 0
M  V30 748 C 71.8788 -1.8764 1.38973 0
M  V30 749 C 72.8598 -1.68178 0.255004 0
M  V30 750 O 74.0448 -1.88704 0.458754 0
M  V30 751 C 71.1748 -3.25222 1.21851 0
M  V30 752 C 70.1288 -3.59295 2.32575 0
M  V30 753 C 69.4548 -4.95663 2.00555 0
M  V30 754 C 70.7548 -3.63709 3.7485 0
M  V30 755 H 72.4488 -1.87635 2.3331 0
M  V30 756 H 69.9948 -0.901329 1.12303 0
M  V30 757 H 71.9478 -4.03746 1.20695 0
M  V30 758 H 70.6718 -3.25719 0.239775 0
M  V30 759 H 69.3308 -2.83093 2.32925 0
M  V30 760 H 68.9788 -4.92724 1.01154 0
M  V30 761 H 68.6788 -5.19429 2.74714 0
M  V30 762 H 70.2028 -5.7656 2.01024 0
M  V30 763 H 71.6168 -4.32338 3.76506 0
M  V30 764 H 70.0138 -3.98986 4.48252 0
M  V30 765 H 71.0838 -2.63834 4.06841 0
M  V30 766 N 72.4269 -1.23603 -0.977757 0
M  V30 767 C 73.3569 -1.04401 -2.0886 0
M  V30 768 C 74.3379 0.0399052 -1.70053 0
M  V30 769 O 75.5229 -0.125246 -1.93796 0
M  V30 770 C 72.6529 -0.637269 -3.41403 0
M  V30 771 C 71.6069 -1.66883 -3.94124 0
M  V30 772 C 70.9329 -1.11745 -5.22893 0
M  V30 773 C 72.2329 -3.06247 -4.23096 0
M  V30 774 H 73.9269 -1.97316 -2.25182 0
M  V30 775 H 71.4729 -0.950096 -1.08209 0
M  V30 776 H 73.4259 -0.48998 -4.18542 0
M  V30 777 H 72.1499 0.327557 -3.24953 0
M  V30 778 H 70.8089 -1.80416 -3.19133 0
M  V30 779 H 70.4569 -0.143527 -5.02795 0
M  V30 780 H 70.1569 -1.80672 -5.59134 0
M  V30 781 H 71.6809 -0.982067 -6.02651 0
M  V30 782 H 73.0949 -2.96001 -4.90975 0
M  V30 783 H 71.4919 -3.72436 -4.70544 0
M  V30 784 H 72.5619 -3.55041 -3.30263 0
M  V30 785 N 73.905 1.17692 -1.04816 0
M  V30 786 C 75.153 1.87488 -0.754497 0
M  V30 787 C 75.474 1.81205 0.720407 0
M  V30 788 O 74.744 1.23544 1.52032 0
M  V30 789 H 73.324 0.694101 -0.276102 0
M  V30 790 H 75.986 1.42793 -1.32651 0
M  V30 791 H 75.082 2.93328 -1.06606 0
M  V30 792 N 75.3831 0.828654 1.34056 0
M  V30 793 C 76.3131 0.269443 2.3194 0
M  V30 794 C 77.2941 -0.617247 1.58506 0
M  V30 795 O 78.4791 -0.542931 1.86456 0
M  V30 796 C 75.6091 -0.564793 3.42677 0
M  V30 797 C 74.5631 0.225241 4.27407 0
M  V30 798 C 73.8891 -0.7321 5.29664 0
M  V30 799 C 75.1891 1.43663 5.02154 0
M  V30 800 H 76.8831 1.08728 2.7896 0
M  V30 801 H 74.4291 0.524283 1.34117 0
M  V30 802 H 76.3821 -0.966233 4.10173 0
M  V30 803 H 75.1061 -1.41574 2.9432 0
M  V30 804 H 73.7651 0.608117 3.61521 0
M  V30 805 H 73.4131 -1.57916 4.77568 0
M  V30 806 H 73.1131 -0.20767 5.87233 0
M  V30 807 H 74.6371 -1.13128 6.00029 0
M  V30 808 H 76.0511 1.1089 5.62473 0
M  V30 809 H 74.4481 1.89711 5.69324 0
M  V30 810 H 75.5181 2.21181 4.31517 0
M  V30 811 N 76.8612 -1.46375 0.584142 0
M  V30 812 C 77.7912 -2.33103 -0.136037 0
M  V30 813 C 78.7722 -1.45431 -0.882255 0
M  V30 814 O 79.9572 -1.74246 -0.857434 0
M  V30 815 C 77.0872 -3.27731 -1.14933 0
M  V30 816 C 76.0412 -4.24855 -0.517862 0
M  V30 817 C 75.3672 -5.09001 -1.63773 0
M  V30 818 C 76.6672 -5.19439 0.545886 0
M  V30 819 H 78.3612 -2.93568 0.588086 0
M  V30 820 H 75.9072 -1.41166 0.284259 0
M  V30 821 H 77.8602 -3.87261 -1.66153 0
M  V30 822 H 76.5842 -2.65377 -1.90375 0
M  V30 823 H 75.2432 -3.6659 -0.0267361 0
M  V30 824 H 74.8912 -4.43031 -2.38185 0
M  V30 825 H 74.5912 -5.74777 -1.22085 0
M  V30 826 H 76.1152 -5.71396 -2.15266 0
M  V30 827 H 77.5292 -5.73177 0.118704 0
M  V30 828 H 75.9262 -5.93566 0.88317 0
M  V30 829 H 76.9962 -4.63285 1.43162 0
M  V30 830 N 78.3393 -0.321999 -1.54275 0
M  V30 831 C 79.7553 0.0306999 -1.5957 0
M  V30 832 C 79.9553 1.50614 -1.33857 0
M  V30 833 O 79.0113 2.2619 -1.12223 0
M  V30 834 C 80.3243 -0.386122 -2.98211 0
M  V30 835 C 81.8723 -0.336647 -3.11184 0
M  V30 836 C 82.3473 -0.728607 -4.52167 0
M  V30 837 N 83.8383 -0.681952 -4.58152 0
M  V30 838 C 84.5733 -0.957449 -5.6535 0
M  V30 839 N 84.0693 -1.3 -6.80494 0
M  V30 840 N 85.8623 -0.883113 -5.55119 0
M  V30 841 H 78.0133 -1.28332 -1.69247 0
M  V30 842 H 80.2763 -0.521716 -0.791528 0
M  V30 843 H 79.9823 -1.41404 -3.22022 0
M  V30 844 H 79.8563 0.249662 -3.76373 0
M  V30 845 H 82.2433 0.682058 -2.8711 0
M  V30 846 H 82.3243 -1.00734 -2.3513 0
M  V30 847 H 81.9683 -1.74522 -4.76974 0
M  V30 848 H 81.8983 -0.0356152 -5.26588 0
M  V30 849 H 84.3893 -0.428985 -3.75457 0
M  V30 850 H 84.7023 -1.49563 -7.58189 0
M  V30 851 H 83.0473 -1.33824 -6.81994 0
M  V30 852 H 86.2383 -0.615001 -4.64042 0
M  V30 853 H 86.4113 -1.10118 -6.38575 0
M  V30 854 N 79.8174 1.5752 -0.0501392 0
M  V30 855 C 80.7494 2.08413 0.95376 0
M  V30 856 C 81.7624 1.01175 1.27544 0
M  V30 857 O 82.9514 1.28744 1.23641 0
M  V30 858 C 80.0514 2.51138 2.27559 0
M  V30 859 C 79.2244 3.817 2.13598 0
M  V30 860 C 78.2834 4.10749 3.28895 0
M  V30 861 O 77.3094 4.80685 3.04845 0
M  V30 862 N 78.5114 3.62579 4.5334 0
M  V30 863 H 81.2764 2.95165 0.519383 0
M  V30 864 H 78.8374 1.61327 0.136127 0
M  V30 865 H 80.8294 2.67648 3.03557 0
M  V30 866 H 79.3994 1.6964 2.62567 0
M  V30 867 H 78.6194 3.74782 1.22197 0
M  V30 868 H 79.9074 4.67201 2.01496 0
M  V30 869 H 79.3054 3.06039 4.75769 0
M  V30 870 H 77.8624 3.84329 5.26436 0
M  V30 871 N 81.2955 -0.223234 1.56011 0
M  V30 872 C 82.2455 -1.28008 1.88674 0
M  V30 873 C 83.2295 -1.42369 0.749663 0
M  V30 874 O 84.4215 -1.45212 1.01205 0
M  V30 875 C 81.5505 -2.63084 2.20548 0
M  V30 876 C 80.6365 -2.52632 3.40643 0
M  V30 877 N 81.0275 -2.11829 4.59306 0
M  V30 878 C 79.3255 -2.83594 3.44224 0
M  V30 879 C 80.0265 -2.12587 5.41463 0
M  V30 880 N 79.0025 -2.5301 4.81131 0
M  V30 881 H 82.8045 -0.955487 2.77935 0
M  V30 882 H 80.3185 -0.431801 1.56554 0
M  V30 883 H 82.3155 -3.39385 2.42122 0
M  V30 884 H 80.9755 -2.96391 1.32599 0
M  V30 885 H 81.9865 -1.82988 4.84496 0
M  V30 886 H 78.6635 -3.21284 2.66614 0
M  V30 887 H 80.0535 -1.83179 6.46448 0
M  V30 888 N 82.7736 -1.49793 -0.48987 0
M  V30 889 C 84.0216 -1.59525 -1.24081 0
M  V30 890 C 84.3426 -0.288953 -1.92847 0
M  V30 891 O 83.6126 0.692436 -1.83254 0
M  V30 892 H 82.1926 -0.587796 -0.460983 0
M  V30 893 H 84.8546 -1.86477 -0.566778 0
M  V30 894 H 83.9506 -2.39696 -1.99881 0
M  V30 895 N 84.2517 0.741722 -1.39055 0
M  V30 896 C 85.4917 1.51385 -1.37338 0
M  V30 897 C 85.8557 1.91972 0.0330513 0
M  V30 898 O 87.0567 2.68229 0.175174 0
M  V30 899 C 85.3277 2.72481 -2.31276 0
M  V30 900 S 86.8867 3.62211 -2.47687 0
M  V30 901 H 83.7047 0.517906 -0.487129 0
M  V30 902 H 86.3067 0.86969 -1.7509 0
M  V30 903 H 85.0107 2.40793 -3.32336 0
M  V30 904 H 84.5417 3.41832 -1.94716 0
M  V30 905 H 86.5567 4.65812 -1.70978 0
M  V30 906 N 85.7298 1.2412 0.971189 0
M  V30 907 C 86.6618 0.988349 2.06795 0
M  V30 908 C 87.6748 -0.0409541 1.62748 0
M  V30 909 O 88.8638 0.195673 1.77424 0
M  V30 910 C 85.9638 0.469023 3.35639 0
M  V30 911 C 85.1368 1.56065 4.08611 0
M  V30 912 C 84.1958 1.04458 5.15728 0
M  V30 913 O 83.2218 1.73553 5.42096 0
M  V30 914 N 84.4238 -0.122817 5.8037 0
M  V30 915 H 87.1888 1.93265 2.29061 0
M  V30 916 H 84.7498 1.15102 1.13856 0
M  V30 917 H 86.7418 0.108613 4.04554 0
M  V30 918 H 85.3118 -0.380919 3.1027 0
M  V30 919 H 84.5318 2.09341 3.34021 0
M  V30 920 H 85.8198 2.29449 4.54126 0
M  V30 921 H 85.2178 -0.700563 5.61345 0
M  V30 922 H 83.7748 -0.424404 6.50417 0
M  V30 923 N 87.2079 -1.17134 1.05439 0
M  V30 924 C 88.6239 -1.39454 0.776201 0
M  V30 925 C 88.8239 -1.91454 -0.628307 0
M  V30 926 O 87.8799 -2.10777 -1.39031 0
M  V30 927 C 89.1929 -2.38305 1.83388 0
M  V30 928 C 90.7409 -2.52006 1.85639 0
M  V30 929 C 91.2159 -3.54133 2.90437 0
M  V30 930 N 92.7069 -3.61653 2.89415 0
M  V30 931 C 93.4419 -4.4044 3.67152 0
M  V30 932 N 92.9379 -5.22721 4.54681 0
M  V30 933 N 94.7309 -4.35337 3.55581 0
M  V30 934 H 86.8819 -0.817134 1.96053 0
M  V30 935 H 89.1449 -0.421626 0.849079 0
M  V30 936 H 88.8509 -2.07173 2.84204 0
M  V30 937 H 88.7249 -3.37841 1.67761 0
M  V30 938 H 91.1119 -2.82447 0.85486 0
M  V30 939 H 91.1929 -1.52537 2.05344 0
M  V30 940 H 90.8369 -3.24431 3.90777 0
M  V30 941 H 90.7669 -4.53313 2.67983 0
M  V30 942 H 93.2579 -3.02909 2.25952 0
M  V30 943 H 93.5709 -5.80027 5.10674 0
M  V30 944 H 91.9159 -5.22093 4.58741 0
M  V30 945 H 95.1069 -3.70112 2.86592 0
M  V30 946 H 95.2799 -4.96494 4.1641 0
M  V30 947 N 88.686 -0.835752 -1.33615 0
M  V30 948 C 89.932 -0.430596 -1.98176 0
M  V30 949 C 90.265 1.00684 -1.66061 0
M  V30 950 O 89.54 1.70339 -0.938877 0
M  V30 951 C 89.823 -0.648065 -3.5422 0
M  V30 952 C 89.676 -2.13255 -3.96033 0
M  V30 953 C 90.995 -0.0922113 -4.40003 0
M  V30 954 H 88.114 -0.157924 -0.719881 0
M  V30 955 H 90.756 -1.05069 -1.58305 0
M  V30 956 H 88.906 -0.120237 -3.88314 0
M  V30 957 H 90.578 -2.725 -3.72211 0
M  V30 958 H 88.821 -2.61823 -3.45878 0
M  V30 959 H 89.492 -2.23547 -5.04708 0
M  V30 960 H 91.968 -0.543343 -4.12537 0
M  V30 961 H 90.844 -0.274083 -5.48215 0
M  V30 962 H 91.105 1.00378 -4.30554 0
M  V30 963 N 90.1641 1.46063 -0.591896 0
M  V30 964 C 91.0941 2.33172 0.123673 0
M  V30 965 C 92.0751 1.45897 0.87453 0
M  V30 966 O 93.2601 1.74698 0.848181 0
M  V30 967 C 90.3901 3.28336 1.13194 0
M  V30 968 C 89.3441 4.25124 0.495324 0
M  V30 969 C 88.6701 5.09863 1.61071 0
M  V30 970 C 89.9701 5.19143 -0.573425 0
M  V30 971 H 91.6641 2.93252 -0.603646 0
M  V30 972 H 89.2101 1.41014 -0.291741 0
M  V30 973 H 91.1631 3.88137 1.64097 0
M  V30 974 H 89.8871 2.66383 1.88965 0
M  V30 975 H 88.5461 3.66599 0.00729452 0
M  V30 976 H 88.1941 4.44288 2.35832 0
M  V30 977 H 87.8941 5.75417 1.19035 0
M  V30 978 H 89.4181 5.72529 2.12233 0
M  V30 979 H 90.8321 5.73106 -0.1491 0
M  V30 980 H 89.2291 5.93089 -0.914636 0
M  V30 981 H 90.2991 4.62519 -1.45617 0
M  V30 982 N 91.6422 0.330177 1.54103 0
M  V30 983 C 92.9192 -0.325007 1.92881 0
M  V30 984 C 93.2992 -1.6934 1.26045 0
M  V30 985 O 92.6472 -2.24855 0.406526 0
M  V30 986 C 92.8572 -0.410634 3.46576 0
M  V30 987 C 94.2052 -0.667801 4.19316 0
M  V30 988 O 95.2292 -0.49329 3.52768 0
M  V30 989 O 94.0882 -1.00491 5.37181 0
M  V30 990 H 91.1822 -0.186873 0.80561 0
M  V30 991 H 93.7282 0.380376 1.65382 0
M  V30 992 H 92.5002 0.550164 3.87413 0
M  V30 993 H 92.1232 -1.16333 3.802 0
M  V30 994 N 93.1203 -1.57491 0.0584922 0
M  V30 995 C 94.3663 -1.93264 -0.614558 0
M  V30 996 C 94.6993 -0.937717 -1.7006 0
M  V30 997 O 93.9743 0.0351652 -1.94468 0
M  V30 998 C 94.2573 -3.3938 -1.20386 0
M  V30 999 C 94.1103 -4.49625 -0.125375 0
M  V30 1000 C 95.4293 -3.86039 -2.11334 0
M  V30 1001 H 92.5483 -0.702791 -0.221933 0
M  V30 1002 H 95.1903 -1.8961 0.12175 0
M  V30 1003 H 93.3403 -3.42626 -1.83139 0
M  V30 1004 H 95.0123 -4.58506 0.506971 0
M  V30 1005 H 93.2553 -4.30354 0.545672 0
M  V30 1006 H 93.9263 -5.48967 -0.577861 0
M  V30 1007 H 96.4023 -3.84716 -1.58534 0
M  V30 1008 H 95.2783 -4.88914 -2.49507 0
M  V30 1009 H 95.5393 -3.23215 -3.01636 0
M  V30 1010 N 94.5984 0.214957 -1.56127 0
M  V30 1011 C 95.5614 1.24997 -1.92116 0
M  V30 1012 C 96.5614 1.39467 -0.800344 0
M  V30 1013 O 97.7514 1.37619 -1.06802 0
M  V30 1014 C 94.8834 2.62271 -2.17777 0
M  V30 1015 H 96.0764 0.942875 -2.84693 0
M  V30 1016 H 93.6294 0.455654 -1.49511 0
M  V30 1017 H 94.3644 2.98068 -1.27773 0
M  V30 1018 H 94.1494 2.53143 -2.99434 0
M  V30 1019 H 95.6394 3.36946 -2.46693 0
M  V30 1020 N 96.0765 1.50051 0.48192 0
M  V30 1021 C 97.3165 1.62128 1.24474 0
M  V30 1022 C 97.6805 0.309742 1.89485 0
M  V30 1023 O 98.8815 0.305854 2.67054 0
M  V30 1024 C 97.1525 2.76151 2.26882 0
M  V30 1025 S 98.7115 3.08297 3.12247 0
M  V30 1026 H 95.5295 0.571661 0.422759 0
M  V30 1027 H 98.1315 1.87791 0.54359 0
M  V30 1028 H 96.8355 3.69942 1.77683 0
M  V30 1029 H 96.3665 2.52541 3.0164 0
M  V30 1030 H 98.3815 2.51287 4.27866 0
M  V30 1031 N 97.5546 -0.734337 1.39446 0
M  V30 1032 C 98.8026 -1.49096 1.36436 0
M  V30 1033 C 99.1236 -1.94961 -0.0388255 0
M  V30 1034 O 98.3936 -1.69033 -0.990191 0
M  V30 1035 H 96.9736 -0.5531 0.502085 0
M  V30 1036 H 99.6356 -0.871725 1.74319 0
M  V30 1037 H 98.7316 -2.37276 2.02747 0
M  V30 1038 N 99.0327 -1.24633 -0.964593 0
M  V30 1039 C 100.261 -1.11501 -1.74285 0
M  V30 1040 C 100.676 0.332165 -1.85855 0
M  V30 1041 O 100.033 1.22903 -1.34911 0
M  V30 1042 C 100.084 -1.75258 -3.16175 0
M  V30 1043 O 99.8047 -3.14318 -3.05182 0
M  V30 1044 C 101.306 -1.67776 -4.10324 0
M  V30 1045 H 98.5257 -0.389407 -0.546446 0
M  V30 1046 H 101.07 -1.64801 -1.21083 0
M  V30 1047 H 99.2247 -1.25954 -3.66353 0
M  V30 1048 H 99.6387 -3.4551 -3.94618 0
M  V30 1049 H 101.113 -2.17064 -5.0753 0
M  V30 1050 H 101.59 -0.639584 -4.34518 0
M  V30 1051 H 102.196 -2.16522 -3.66058 0
M  V30 1052 N 100.511 1.16574 -1.06058 0
M  V30 1053 C 101.759 1.86677 -0.77434 0
M  V30 1054 C 102.08 1.81959 0.701147 0
M  V30 1055 O 101.35 1.2515 1.50713 0
M  V30 1056 H 99.9298 0.691134 -0.283449 0
M  V30 1057 H 102.592 1.41378 -1.34158 0
M  V30 1058 H 101.688 2.92181 -1.09711 0
M  V30 1059 N 101.989 0.842826 1.3317 0
M  V30 1060 C 103.235 0.441099 1.97945 0
M  V30 1061 C 103.568 -0.998024 1.66593 0
M  V30 1062 O 102.843 -1.69839 0.947898 0
M  V30 1063 C 103.126 0.666841 3.53872 0
M  V30 1064 C 102.979 2.15352 3.94897 0
M  V30 1065 C 104.298 0.115544 4.39948 0
M  V30 1066 H 101.417 0.161739 0.719034 0
M  V30 1067 H 104.059 1.05907 1.57746 0
M  V30 1068 H 102.209 0.140828 3.88245 0
M  V30 1069 H 103.881 2.7447 3.70761 0
M  V30 1070 H 102.124 2.63653 3.44484 0
M  V30 1071 H 102.795 2.26221 5.03516 0
M  V30 1072 H 105.271 0.565213 4.12243 0
M  V30 1073 H 104.147 0.303152 5.48062 0
M  V30 1074 H 104.408 -0.980935 4.3108 0
M  V30 1075 N 103.467 -1.45747 0.599634 0
M  V30 1076 C 104.744 -1.95585 0.0240846 0
M  V30 1077 C 105.124 -1.54217 -1.44154 0
M  V30 1078 O 104.472 -0.800903 -2.14004 0
M  V30 1079 C 104.682 -3.48344 0.21385 0
M  V30 1080 C 106.03 -4.24504 0.0904902 0
M  V30 1081 O 107.054 -3.55911 0.143558 0
M  V30 1082 O 105.913 -5.46491 -0.0310766 0
M  V30 1083 H 103.007 -0.82602 -0.0402478 0
M  V30 1084 H 105.553 -1.55951 0.669139 0
M  V30 1085 H 104.325 -3.71397 1.23206 0
M  V30 1086 H 103.948 -3.9485 -0.466842 0
M  V30 1087 N 104.945 -0.338344 -1.53925 0
M  V30 1088 C 106.17 0.263987 -2.05713 0
M  V30 1089 C 106.595 1.43847 -1.21201 0
M  V30 1090 O 105.953 1.79904 -0.224535 0
M  V30 1091 C 106.001 0.662 -3.54471 0
M  V30 1092 O 105.105 1.76265 -3.72833 0
M  V30 1093 H 104.446 0.0448722 -0.662482 0
M  V30 1094 H 106.976 -0.491048 -1.9862 0
M  V30 1095 H 106.986 0.940594 -3.9701 0
M  V30 1096 H 105.661 -0.196937 -4.15433 0
M  V30 1097 H 104.238 1.48173 -3.42198 0
M  V30 1098 N 106.423 1.57458 -0.0668435 0
M  V30 1099 C 107.672 1.92477 0.602947 0
M  V30 1100 C 107.985 0.948419 1.71068 0
M  V30 1101 O 109.191 1.19124 2.43971 0
M  V30 1102 C 107.647 3.41903 1.12383 0
M  V30 1103 C 107.255 4.47975 0.04737 0
M  V30 1104 C 108.999 3.85931 1.76797 0
M  V30 1105 C 106.906 5.88529 0.582022 0
M  V30 1106 H 105.836 0.718387 0.22899 0
M  V30 1107 H 108.487 1.82978 -0.138276 0
M  V30 1108 H 106.869 3.46459 1.91787 0
M  V30 1109 H 108.043 4.55029 -0.726978 0
M  V30 1110 H 106.358 4.13384 -0.500243 0
M  V30 1111 H 108.955 4.88322 2.17821 0
M  V30 1112 H 109.298 3.23029 2.62599 0
M  V30 1113 H 109.831 3.83958 1.04024 0
M  V30 1114 H 106.57 6.55065 -0.238721 0
M  V30 1115 H 106.09 5.85004 1.324 0
M  V30 1116 H 107.769 6.38258 1.05999 0
M  V30 1117 N 107.901 -0.206675 1.56239 0
M  V30 1118 C 108.834 -1.28383 1.88661 0
M  V30 1119 C 109.812 -1.44504 0.745481 0
M  V30 1120 O 110.996 -1.60079 0.995336 0
M  V30 1121 C 108.123 -2.65211 2.10667 0
M  V30 1122 C 107.169 -2.66025 3.33366 0
M  V30 1123 S 108.002 -2.18609 4.88846 0
M  V30 1124 C 109.158 -3.57283 5.13906 0
M  V30 1125 H 109.391 -1.00691 2.7973 0
M  V30 1126 H 106.924 -0.409627 1.48867 0
M  V30 1127 H 108.882 -3.43979 2.24029 0
M  V30 1128 H 107.543 -2.90121 1.20369 0
M  V30 1129 H 106.736 -3.66607 3.45855 0
M  V30 1130 H 106.338 -1.95331 3.18938 0
M  V30 1131 H 108.63 -4.53074 5.03717 0
M  V30 1132 H 109.573 -3.49699 6.15724 0
M  V30 1133 H 109.981 -3.51659 4.41583 0
M  V30 1134 N 109.379 -1.50304 -0.473955 0
M  V30 1135 C 110.309 -1.71886 -1.58042 0
M  V30 1136 C 111.29 -0.567799 -1.60344 0
M  V30 1137 O 112.475 -0.806623 -1.76656 0
M  V30 1138 C 109.605 -1.81036 -2.96384 0
M  V30 1139 C 108.559 -2.962 -3.08949 0
M  V30 1140 C 107.885 -2.9049 -4.48909 0
M  V30 1141 C 109.185 -4.36752 -2.86434 0
M  V30 1142 H 110.879 -2.64527 -1.40234 0
M  V30 1143 H 108.425 -1.27295 -0.673201 0
M  V30 1144 H 110.378 -1.94719 -3.73714 0
M  V30 1145 H 109.102 -0.850147 -3.15341 0
M  V30 1146 H 107.761 -2.82164 -2.3405 0
M  V30 1147 H 107.409 -1.92321 -4.64781 0
M  V30 1148 H 107.109 -3.67802 -4.58253 0
M  V30 1149 H 108.633 -3.06218 -5.28264 0
M  V30 1150 H 110.047 -4.5133 -3.53517 0
M  V30 1151 H 108.444 -5.15493 -3.07225 0
M  V30 1152 H 109.514 -4.49321 -1.82316 0
M  V30 1153 N 110.857 0.726932 -1.39834 0
M  V30 1154 C 112.103 1.48884 -1.377 0
M  V30 1155 C 112.436 1.94185 0.0244852 0
M  V30 1156 O 111.711 1.67361 0.990986 0
M  V30 1157 C 111.994 2.72288 -2.3565 0
M  V30 1158 C 111.847 2.32956 -3.84775 0
M  V30 1159 C 113.166 3.74414 -2.31306 0
M  V30 1160 H 110.285 0.540062 -0.5015 0
M  V30 1161 H 112.927 0.830547 -1.70886 0
M  V30 1162 H 111.077 3.28457 -2.07481 0
M  V30 1163 H 112.749 1.82356 -4.23726 0
M  V30 1164 H 110.992 1.65088 -4.01159 0
M  V30 1165 H 111.663 3.21362 -4.4881 0
M  V30 1166 H 114.139 3.27849 -2.56231 0
M  V30 1167 H 113.015 4.58414 -3.01907 0
M  V30 1168 H 113.276 4.21909 -1.32081 0
M  V30 1169 N 112.336 1.25143 0.95797 0
M  V30 1170 C 113.246 1.06968 2.08794 0
M  V30 1171 C 114.262 0.00773911 1.73998 0
M  V30 1172 O 115.438 0.207972 2.00323 0
M  V30 1173 C 112.503 0.68691 3.39827 0
M  V30 1174 C 111.564 1.82641 3.88511 0
M  V30 1175 C 110.797 1.46181 5.1329 0
M  V30 1176 O 111.02 0.355971 5.69288 0
M  V30 1177 O 109.954 2.29085 5.566 0
M  V30 1178 H 113.78 2.01723 2.27027 0
M  V30 1179 H 111.365 1.04051 1.07209 0
M  V30 1180 H 113.247 0.485417 4.18595 0
M  V30 1181 H 111.922 -0.231417 3.22872 0
M  V30 1182 H 110.829 2.08274 3.10762 0
M  V30 1183 H 112.162 2.72386 4.09959 0
M  V30 1184 N 113.814 -1.1601 1.06675 0
M  V30 1185 C 114.724 -2.24156 0.692179 0
M  V30 1186 C 115.74 -1.71507 -0.293513 0
M  V30 1187 O 116.916 -2.009 -0.141861 0
M  V30 1188 C 113.981 -3.46587 0.0884131 0
M  V30 1189 C 113.042 -4.14257 1.12646 0
M  V30 1190 C 112.275 -5.30844 0.551416 0
M  V30 1191 O 112.498 -5.66858 -0.634656 0
M  V30 1192 O 111.432 -5.87848 1.29298 0
M  V30 1193 H 115.258 -2.58513 1.59388 0
M  V30 1194 H 112.843 -1.23599 0.83926 0
M  V30 1195 H 114.725 -4.20679 -0.246361 0
M  V30 1196 H 113.4 -3.13994 -0.786712 0
M  V30 1197 H 112.307 -3.42118 1.51348 0
M  V30 1198 H 113.64 -4.50914 1.97325 0
M  V30 1199 N 115.292 -0.849877 -1.32721 0
M  V30 1200 C 116.54 -0.450032 -1.97026 0
M  V30 1201 C 116.861 0.996604 -1.67609 0
M  V30 1202 O 116.131 1.6958 -0.980786 0
M  V30 1203 H 114.711 -0.163426 -0.728904 0
M  V30 1204 H 117.373 -1.08526 -1.6189 0
M  V30 1205 H 116.469 -0.591146 -3.0645 0
M  V30 1206 N 116.77 1.45427 -0.607355 0
M  V30 1207 C 118.017 2.02241 -0.102455 0
M  V30 1208 C 118.345 1.4758 1.26691 0
M  V30 1209 O 117.6 0.640468 1.84923 0
M  V30 1210 C 117.899 3.57398 -0.0129263 0
M  V30 1211 C 117.565 4.3121 -1.31792 0
M  V30 1212 C 116.227 4.51092 -1.67539 0
M  V30 1213 C 118.579 4.73401 -2.18039 0
M  V30 1214 C 115.907 5.10422 -2.89285 0
M  V30 1215 C 118.259 5.34078 -3.39034 0
M  V30 1216 C 116.923 5.52184 -3.75033 0
M  V30 1217 H 116.193 0.740051 -0.037491 0
M  V30 1218 H 118.84 1.74494 -0.788926 0
M  V30 1219 H 117.145 3.84421 0.756806 0
M  V30 1220 H 118.842 3.99061 0.393881 0
M  V30 1221 H 115.432 4.16047 -1.02968 0
M  V30 1222 H 119.616 4.57774 -1.91721 0
M  V30 1223 H 114.872 5.22629 -3.17283 0
M  V30 1224 H 119.046 5.65724 -4.06115 0
M  V30 1225 H 116.673 5.97925 -4.69457 0
M  V30 1226 N 118.248 0.346503 1.53744 0
M  V30 1227 C 119.473 -0.253074 2.0585 0
M  V30 1228 C 119.898 -1.43202 1.21962 0
M  V30 1229 O 119.256 -1.79783 0.234073 0
M  V30 1230 C 119.304 -0.643193 3.54817 0
M  V30 1231 O 118.408 -1.74286 3.73762 0
M  V30 1232 H 117.749 -0.0413583 0.662711 0
M  V30 1233 H 120.279 0.501574 1.98357 0
M  V30 1234 H 120.289 -0.919526 3.97503 0
M  V30 1235 H 118.964 0.218966 4.15323 0
M  V30 1236 H 117.541 -1.46356 3.42979 0
M  V30 1237 N 119.726 -1.57421 0.075193 0
M  V30 1238 C 120.972 -1.93905 -0.594025 0
M  V30 1239 C 121.305 -0.955701 -1.69056 0
M  V30 1240 O 120.58 0.0145373 -1.94495 0
M  V30 1241 C 120.863 -3.40638 -1.1678 0
M  V30 1242 C 120.716 -4.49733 -0.0776792 0
M  V30 1243 C 122.035 -3.88259 -2.07228 0
M  V30 1244 H 119.154 -0.705105 -0.214466 0
M  V30 1245 H 121.796 -1.8947 0.141854 0
M  V30 1246 H 119.946 -3.44549 -1.79494 0
M  V30 1247 H 121.618 -4.57942 0.555573 0
M  V30 1248 H 119.861 -4.29751 0.591286 0
M  V30 1249 H 120.532 -5.49549 -0.519603 0
M  V30 1250 H 123.008 -3.86376 -1.54445 0
M  V30 1251 H 121.884 -4.91533 -2.44308 0
M  V30 1252 H 122.145 -3.26396 -2.98191 0
M  V30 1253 N 121.204 0.198386 -1.56346 0
M  V30 1254 C 122.432 0.935572 -1.84539 0
M  V30 1255 C 122.847 1.76989 -0.657281 0
M  V30 1256 O 122.204 1.78626 0.374043 0
M  V30 1257 C 122.255 1.8344 -3.11499 0
M  V30 1258 O 121.976 1.03377 -4.25728 0
M  V30 1259 C 123.477 2.68355 -3.52846 0
M  V30 1260 H 120.697 0.273126 -0.612897 0
M  V30 1261 H 123.241 0.20663 -2.03453 0
M  V30 1262 H 121.396 2.51701 -2.94492 0
M  V30 1263 H 121.81 1.64599 -4.98003 0
M  V30 1264 H 123.284 3.27085 -4.44657 0
M  V30 1265 H 123.761 3.41901 -2.75681 0
M  V30 1266 H 124.367 2.05471 -3.72373 0
M  V30 1267 N 122.682 1.50554 0.465978 0
M  V30 1268 C 123.907 1.65838 1.24549 0
M  V30 1269 C 124.332 0.343486 1.84937 0
M  V30 1270 O 123.69 -0.69324 1.67523 0
M  V30 1271 C 123.738 2.75533 2.32624 0
M  V30 1272 O 122.842 2.37142 3.37398 0
M  V30 1273 H 122.183 0.553893 0.366194 0
M  V30 1274 H 124.713 1.96959 0.553927 0
M  V30 1275 H 124.723 2.98763 2.77857 0
M  V30 1276 H 123.398 3.70962 1.88043 0
M  V30 1277 H 121.975 2.24377 2.97841 0
M  V30 1278 N 124.16 -0.719506 1.40217 0
M  V30 1279 C 125.406 -1.48152 1.38488 0
M  V30 1280 C 125.739 -1.94195 -0.0141867 0
M  V30 1281 O 125.014 -1.67884 -0.982096 0
M  V30 1282 C 125.297 -2.71035 2.37091 0
M  V30 1283 C 125.15 -2.30912 3.86005 0
M  V30 1284 C 126.469 -3.73182 2.33288 0
M  V30 1285 H 123.588 -0.537395 0.504357 0
M  V30 1286 H 126.23 -0.821472 1.71324 0
M  V30 1287 H 124.38 -3.27352 2.0922 0
M  V30 1288 H 126.052 -1.80107 4.24687 0
M  V30 1289 H 124.295 -1.62958 4.02029 0
M  V30 1290 H 124.966 -3.18978 4.50508 0
M  V30 1291 H 127.442 -3.26485 2.57966 0
M  V30 1292 H 126.318 -4.56806 3.04334 0
M  V30 1293 H 126.579 -4.21202 1.34317 0
M  V30 1294 N 125.638 -1.25649 -0.95132 0
M  V30 1295 C 126.915 -1.01361 -1.67288 0
M  V30 1296 C 127.295 0.459135 -2.06046 0
M  V30 1297 O 126.643 1.43723 -1.7764 0
M  V30 1298 C 126.853 -1.95256 -2.89268 0
M  V30 1299 C 128.201 -2.23289 -3.61147 0
M  V30 1300 O 129.225 -1.93041 -2.99355 0
M  V30 1301 O 128.084 -2.74741 -4.72419 0
M  V30 1302 H 125.178 -0.38464 -0.732107 0
M  V30 1303 H 127.724 -1.36817 -1.00395 0
M  V30 1304 H 126.496 -2.94685 -2.57442 0
M  V30 1305 H 126.119 -1.60218 -3.6389 0
M  V30 1306 N 127.117 1.15442 -1.07289 0
M  V30 1307 C 128.08 2.18358 -0.696591 0
M  V30 1308 C 129.08 1.58637 0.262837 0
M  V30 1309 O 130.27 1.74145 0.0438809 0
M  V30 1310 C 127.402 3.4089 -0.0266151 0
M  V30 1311 H 128.595 2.53162 -1.60776 0
M  V30 1312 H 126.148 1.29893 -0.869342 0
M  V30 1313 H 126.883 3.11653 0.896822 0
M  V30 1314 H 126.668 3.85495 -0.716657 0
M  V30 1315 H 128.158 4.17009 0.222028 0
M  V30 1316 N 128.595 0.856903 1.32268 0
M  V30 1317 C 129.82 0.474569 2.01897 0
M  V30 1318 C 130.245 -0.921766 1.63967 0
M  V30 1319 O 129.603 -1.60589 0.84148 0
M  V30 1320 C 129.651 0.623799 3.55164 0
M  V30 1321 O 128.755 -0.342459 4.10976 0
M  V30 1322 H 128.096 0.190422 0.63611 0
M  V30 1323 H 130.626 1.15672 1.68764 0
M  V30 1324 H 130.636 0.512169 4.04773 0
M  V30 1325 H 129.311 1.64202 3.82113 0
M  V30 1326 H 127.888 -0.18688 3.72431 0
M  V30 1327 N 130.073 -1.45103 0.615059 0
M  V30 1328 C 131.35 -1.95549 0.0448276 0
M  V30 1329 C 131.73 -1.55737 -1.4251 0
M  V30 1330 O 131.078 -0.823556 -2.13143 0
M  V30 1331 C 131.288 -3.48098 0.250785 0
M  V30 1332 C 132.636 -4.24384 0.135509 0
M  V30 1333 O 133.66 -3.55738 0.181299 0
M  V30 1334 O 132.519 -5.46493 0.0268878 0
M  V30 1335 H 129.613 -0.8264 -0.0314845 0
M  V30 1336 H 132.159 -1.55232 0.685642 0
M  V30 1337 H 130.931 -3.7007 1.27139 0
M  V30 1338 H 130.554 -3.95323 -0.424937 0
M  V30 1339 N 131.551 -0.354651 -1.53558 0
M  V30 1340 C 132.498 0.496968 -2.25386 0
M  V30 1341 C 133.468 1.0865 -1.25636 0
M  V30 1342 O 134.653 1.12104 -1.54394 0
M  V30 1343 C 131.793 1.63637 -3.03837 0
M  V30 1344 C 130.906 1.07307 -4.18461 0
M  V30 1345 C 130.041 2.18068 -4.84376 0
M  V30 1346 C 129.08 1.59147 -5.91049 0
M  V30 1347 N 128.217 2.63695 -6.50699 0
M  V30 1348 H 133.057 -0.122075 -2.9775 0
M  V30 1349 H 130.594 -0.0720154 -1.46924 0
M  V30 1350 H 132.552 2.30734 -3.47589 0
M  V30 1351 H 131.182 2.22623 -2.33749 0
M  V30 1352 H 130.234 0.292708 -3.79272 0
M  V30 1353 H 131.546 0.602193 -4.95152 0
M  V30 1354 H 130.7 2.93007 -5.31255 0
M  V30 1355 H 129.439 2.68504 -4.07133 0
M  V30 1356 H 128.444 0.827175 -5.43542 0
M  V30 1357 H 129.669 1.09549 -6.70206 0
M  V30 1358 H 127.615 3.13365 -5.76315 0
M  V30 1359 H 127.532 2.21263 -7.22896 0
M  V30 1360 H 128.8 3.3837 -7.02229 0
M  V30 1361 N 133.029 1.57378 -0.0835403 0
M  V30 1362 C 133.962 2.09016 0.915833 0
M  V30 1363 C 134.94 0.997993 1.2837 0
M  V30 1364 O 136.124 1.27219 1.39096 0
M  V30 1365 C 133.251 2.55757 2.22049 0
M  V30 1366 C 132.297 3.76522 2.00333 0
M  V30 1367 S 133.13 5.20661 1.25191 0
M  V30 1368 C 134.286 5.70743 2.56912 0
M  V30 1369 H 134.519 2.93457 0.476492 0
M  V30 1370 H 132.052 1.53856 0.129493 0
M  V30 1371 H 134.01 2.83346 2.97027 0
M  V30 1372 H 132.671 1.71564 2.63106 0
M  V30 1373 H 131.864 4.07256 2.96916 0
M  V30 1374 H 131.466 3.49367 1.33488 0
M  V30 1375 H 133.758 5.78304 3.52946 0
M  V30 1376 H 134.701 6.6944 2.30772 0
M  V30 1377 H 135.109 4.98616 2.64655 0
M  V30 1378 N 134.507 -0.190092 1.56449 0
M  V30 1379 C 135.437 -1.23816 1.97969 0
M  V30 1380 C 136.418 -1.47201 0.852395 0
M  V30 1381 O 137.603 -1.58854 1.1171 0
M  V30 1382 C 134.733 -2.5813 2.3235 0
M  V30 1383 C 133.687 -2.49348 3.47864 0
M  V30 1384 C 133.013 -3.8798 3.67934 0
M  V30 1385 C 134.313 -2.01424 4.81898 0
M  V30 1386 H 136.007 -0.89311 2.85769 0
M  V30 1387 H 133.553 -0.428177 1.37487 0
M  V30 1388 H 135.506 -3.31637 2.59991 0
M  V30 1389 H 134.23 -2.94386 1.41438 0
M  V30 1390 H 132.889 -1.78297 3.20321 0
M  V30 1391 H 132.537 -4.21597 2.74344 0
M  V30 1392 H 132.237 -3.82978 4.45648 0
M  V30 1393 H 133.761 -4.63101 3.97957 0
M  V30 1394 H 135.175 -2.64693 5.08538 0
M  V30 1395 H 133.572 -2.07413 5.63116 0
M  V30 1396 H 134.642 -0.967677 4.75146 0
M  V30 1397 N 135.985 -1.50799 -0.457987 0
M  V30 1398 C 136.932 -1.70617 -1.5543 0
M  V30 1399 C 137.902 -0.547562 -1.56815 0
M  V30 1400 O 139.087 -0.779647 -1.74144 0
M  V30 1401 C 136.227 -1.81831 -2.93311 0
M  V30 1402 C 135.34 -3.09278 -3.01615 0
M  V30 1403 C 134.475 -3.11209 -4.30491 0
M  V30 1404 C 133.514 -4.33055 -4.32585 0
M  V30 1405 N 132.651 -4.32652 -5.52952 0
M  V30 1406 H 137.491 -2.64207 -1.37836 0
M  V30 1407 H 135.028 -1.30959 -0.669937 0
M  V30 1408 H 136.986 -1.86314 -3.73287 0
M  V30 1409 H 135.616 -0.916685 -3.0951 0
M  V30 1410 H 134.668 -3.14203 -2.1443 0
M  V30 1411 H 135.98 -3.99233 -2.99022 0
M  V30 1412 H 135.134 -3.14494 -5.18824 0
M  V30 1413 H 133.873 -2.19106 -4.35711 0
M  V30 1414 H 132.878 -4.29969 -3.42647 0
M  V30 1415 H 134.103 -5.264 -4.29046 0
M  V30 1416 H 132.049 -3.43409 -5.58933 0
M  V30 1417 H 131.966 -5.16392 -5.52155 0
M  V30 1418 H 133.234 -4.40101 -6.43375 0
M  V30 1419 N 137.463 0.71206 -1.40597 0
M  V30 1420 C 138.693 1.49894 -1.42181 0
M  V30 1421 C 139.101 1.89189 -0.0208078 0
M  V30 1422 O 138.444 1.56223 0.966436 0
M  V30 1423 C 138.506 2.80215 -2.25211 0
M  V30 1424 C 138.17 2.63221 -3.73582 0
M  V30 1425 C 139.167 2.30249 -4.66135 0
M  V30 1426 C 136.852 2.79376 -4.17438 0
M  V30 1427 C 138.846 2.13645 -6.00529 0
M  V30 1428 C 136.533 2.6239 -5.51901 0
M  V30 1429 C 137.531 2.29573 -6.43262 0
M  V30 1430 O 137.219 2.12719 -7.75246 0
M  V30 1431 H 136.951 0.469031 -0.486812 0
M  V30 1432 H 139.505 0.88564 -1.85326 0
M  V30 1433 H 137.735 3.4389 -1.76852 0
M  V30 1434 H 139.424 3.41947 -2.18694 0
M  V30 1435 H 140.19 2.17398 -4.33547 0
M  V30 1436 H 136.069 3.03906 -3.46644 0
M  V30 1437 H 139.613 1.87953 -6.71803 0
M  V30 1438 H 135.51 2.74826 -5.84073 0
M  V30 1439 H 136.278 2.27611 -7.86216 0
M  V30 1440 N 138.941 1.26152 0.944643 0
M  V30 1441 C 139.904 1.07474 2.0244 0
M  V30 1442 C 140.904 0.0242064 1.60782 0
M  V30 1443 O 142.094 0.267302 1.72137 0
M  V30 1444 C 139.226 0.633956 3.34953 0
M  V30 1445 H 140.419 2.03336 2.20442 0
M  V30 1446 H 137.972 1.087 1.12312 0
M  V30 1447 H 138.707 -0.326811 3.22649 0
M  V30 1448 H 138.492 1.39247 3.66542 0
M  V30 1449 H 139.982 0.52501 4.14287 0
M  V30 1450 N 140.419 -1.14872 1.07899 0
M  V30 1451 C 141.349 -2.2193 0.725887 0
M  V30 1452 C 142.33 -1.67622 -0.28927 0
M  V30 1453 O 143.515 -1.93533 -0.160787 0
M  V30 1454 C 140.645 -3.47061 0.128856 0
M  V30 1455 C 139.599 -4.14363 1.07178 0
M  V30 1456 C 138.925 -5.33636 0.337229 0
M  V30 1457 C 140.225 -4.63492 2.40775 0
M  V30 1458 H 141.919 -2.51724 1.62097 0
M  V30 1459 H 139.465 -1.20991 0.780838 0
M  V30 1460 H 141.418 -4.21199 -0.130147 0
M  V30 1461 H 140.142 -3.16617 -0.80134 0
M  V30 1462 H 138.801 -3.42173 1.3158 0
M  V30 1463 H 138.449 -4.99449 -0.596606 0
M  V30 1464 H 138.149 -5.79609 0.965788 0
M  V30 1465 H 139.673 -6.10539 0.0861567 0
M  V30 1466 H 141.087 -5.2913 2.20669 0
M  V30 1467 H 139.484 -5.20148 2.99276 0
M  V30 1468 H 140.554 -3.78834 3.02676 0
M  V30 1469 N 141.898 -0.863906 -1.31812 0
M  V30 1470 C 142.845 -0.313303 -2.28664 0
M  V30 1471 C 143.815 0.584868 -1.55462 0
M  V30 1472 O 145 0.517805 -1.83639 0
M  V30 1473 C 142.14 0.48441 -3.41683 0
M  V30 1474 C 141.253 -0.440594 -4.29747 0
M  V30 1475 C 140.388 0.370652 -5.29905 0
M  V30 1476 C 139.427 -0.551164 -6.09613 0
M  V30 1477 N 138.564 0.223462 -7.01744 0
M  V30 1478 H 143.404 -1.14444 -2.75148 0
M  V30 1479 H 140.941 -0.575769 -1.35364 0
M  V30 1480 H 142.899 0.962627 -4.05943 0
M  V30 1481 H 141.529 1.28029 -2.96325 0
M  V30 1482 H 140.581 -1.03724 -3.65986 0
M  V30 1483 H 141.893 -1.14767 -4.85417 0
M  V30 1484 H 141.047 0.911638 -5.99812 0
M  V30 1485 H 139.786 1.11105 -4.74876 0
M  V30 1486 H 138.791 -1.10396 -5.38603 0
M  V30 1487 H 140.016 -1.29032 -6.66729 0
M  V30 1488 H 137.962 0.946787 -6.49132 0
M  V30 1489 H 137.879 -0.424399 -7.54808 0
M  V30 1490 H 139.147 0.745876 -7.75923 0
M  V30 1491 N 143.376 1.44774 -0.622745 0
M  V30 1492 C 144.286 2.34433 0.0886031 0
M  V30 1493 C 145.302 1.52131 0.844529 0
M  V30 1494 O 146.478 1.84886 0.798691 0
M  V30 1495 C 143.543 3.29986 1.0635 0
M  V30 1496 C 142.604 4.28195 0.307873 0
M  V30 1497 C 141.837 5.19183 1.23633 0
M  V30 1498 O 142.06 5.13918 2.47476 0
M  V30 1499 O 140.994 5.97515 0.725189 0
M  V30 1500 H 144.82 2.96693 -0.648599 0
M  V30 1501 H 142.405 1.44408 -0.382957 0
M  V30 1502 H 144.287 3.88825 1.6246 0
M  V30 1503 H 142.962 2.70269 1.78146 0
M  V30 1504 H 141.869 3.72927 -0.296064 0
M  V30 1505 H 143.202 4.90808 -0.3699 0
M  V30 1506 N 144.854 0.36279 1.53368 0
M  V30 1507 C 146.27 0.0116182 1.59596 0
M  V30 1508 C 146.47 -1.47012 1.37803 0
M  V30 1509 O 145.526 -2.23136 1.18181 0
M  V30 1510 C 146.839 0.465052 2.97082 0
M  V30 1511 C 148.387 0.419033 3.10182 0
M  V30 1512 C 148.862 0.848235 4.50077 0
M  V30 1513 N 150.353 0.803183 4.56183 0
M  V30 1514 C 151.088 1.107 5.62613 0
M  V30 1515 N 150.584 1.47996 6.76808 0
M  V30 1516 N 152.377 1.02998 5.52583 0
M  V30 1517 H 144.528 1.32775 1.65785 0
M  V30 1518 H 146.791 0.542518 0.777417 0
M  V30 1519 H 146.497 1.49892 3.18159 0
M  V30 1520 H 146.371 -0.149786 3.76902 0
M  V30 1521 H 148.758 -0.605696 2.88817 0
M  V30 1522 H 148.839 1.06933 2.32377 0
M  V30 1523 H 148.483 1.87107 4.7218 0
M  V30 1524 H 148.413 0.175218 5.26308 0
M  V30 1525 H 150.904 0.52838 3.74188 0
M  V30 1526 H 151.217 1.69613 7.53957 0
M  V30 1527 H 149.562 1.51859 6.78206 0
M  V30 1528 H 152.753 0.737817 4.62249 0
M  V30 1529 H 152.926 1.2701 6.35431 0
M  V30 1530 N 146.332 -1.57332 0.0918853 0
M  V30 1531 C 147.578 -1.95328 -0.567313 0
M  V30 1532 C 147.933 -0.972866 -1.65991 0
M  V30 1533 O 147.226 0.00166256 -1.916 0
M  V30 1534 C 147.42 -3.37689 -1.17051 0
M  V30 1535 C 147.249 -4.49489 -0.137875 0
M  V30 1536 C 146.019 -5.04498 0.284515 0
M  V30 1537 C 148.217 -5.10393 0.63271 0
M  V30 1538 N 146.199 -5.99853 1.30576 0
M  V30 1539 C 147.57 -6.01435 1.50587 0
M  V30 1540 C 149.625 -4.93143 0.68658 0
M  V30 1541 C 148.328 -6.77077 2.42815 0
M  V30 1542 C 150.354 -5.69445 1.59645 0
M  V30 1543 C 149.716 -6.60151 2.45725 0
M  V30 1544 H 145.815 -0.761467 -0.178023 0
M  V30 1545 H 148.399 -1.93924 0.173706 0
M  V30 1546 H 146.57 -3.39793 -1.88136 0
M  V30 1547 H 148.302 -3.62872 -1.79181 0
M  V30 1548 H 145.057 -4.73489 -0.102593 0
M  V30 1549 H 145.481 -6.52231 1.81449 0
M  V30 1550 H 150.123 -4.22785 0.035244 0
M  V30 1551 H 147.841 -7.46699 3.08975 0
M  V30 1552 H 151.427 -5.58112 1.64323 0
M  V30 1553 H 150.307 -7.18159 3.14987 0
M  V30 1554 N 147.81 0.181792 -1.56548 0
M  V30 1555 C 148.758 1.24461 -1.965 0
M  V30 1556 C 149.752 1.464 -0.852261 0
M  V30 1557 O 150.958 1.47103 -1.03733 0
M  V30 1558 H 147.333 0.418138 -0.625031 0
M  V30 1559 H 149.304 0.880714 -2.85107 0
M  V30 1560 C 148.053 2.57891 -2.33212 0
M  V30 1561 H 147.376 2.41829 -3.18369 0
M  V30 1562 H 148.816 3.3097 -2.65019 0
M  V30 1563 C 147.275 3.15871 -1.17163 0
M  V30 1564 O 147.805 3.9913 -0.453708 0
M  V30 1565 N 146.011 2.74808 -0.944936 0
M  V30 1566 H 145.558 2.07205 -1.53049 0
M  V30 1567 H 145.516 3.13939 -0.170286 0
M  V30 1568 N 149.288 1.51039 0.449983 0
M  V30 1569 C 150.704 1.38934 0.785462 0
M  V30 1570 C 150.904 0.461817 1.96136 0
M  V30 1571 O 149.96 -0.0877389 2.52348 0
M  V30 1572 C 151.273 2.80724 1.0777 0
M  V30 1573 C 152.821 2.89787 1.1829 0
M  V30 1574 C 153.296 4.32457 1.50815 0
M  V30 1575 N 154.787 4.35505 1.57764 0
M  V30 1576 C 155.522 5.42914 1.84477 0
M  V30 1577 N 155.018 6.60502 2.09068 0
M  V30 1578 N 156.811 5.3038 1.86155 0
M  V30 1579 H 148.962 2.09904 -0.324647 0
M  V30 1580 H 151.225 0.944378 -0.0827957 0
M  V30 1581 H 150.931 3.50531 0.286498 0
M  V30 1582 H 150.805 3.19273 2.00859 0
M  V30 1583 H 153.192 2.20186 1.96474 0
M  V30 1584 H 153.273 2.54752 0.231314 0
M  V30 1585 H 152.917 5.02603 0.731622 0
M  V30 1586 H 152.847 4.64995 2.47158 0
M  V30 1587 H 155.338 3.50724 1.40715 0
M  V30 1588 H 155.651 7.38158 2.28785 0
M  V30 1589 H 153.996 6.63639 2.06416 0
M  V30 1590 H 157.187 4.37505 1.66454 0
M  V30 1591 H 157.36 6.1417 2.06637 0
M  V30 1592 N 150.766 -0.704594 1.40972 0
M  V30 1593 C 152.182 -1.01406 1.23244 0
M  V30 1594 C 152.382 -2.01169 0.115399 0
M  V30 1595 O 151.438 -2.47021 -0.523147 0
M  V30 1596 C 152.751 -1.54728 2.57836 0
M  V30 1597 C 154.299 -1.66658 2.64942 0
M  V30 1598 C 154.774 -2.23383 3.9983 0
M  V30 1599 N 156.265 -2.30756 4.01629 0
M  V30 1600 C 157 -2.75655 5.02794 0
M  V30 1601 N 156.496 -3.20225 6.14352 0
M  V30 1602 N 158.289 -2.75138 4.90159 0
M  V30 1603 H 150.44 -0.0435285 2.12355 0
M  V30 1604 H 152.703 -0.0818951 0.944456 0
M  V30 1605 H 152.409 -0.888832 3.40283 0
M  V30 1606 H 152.283 -2.53084 2.79693 0
M  V30 1607 H 154.67 -2.31617 1.8286 0
M  V30 1608 H 154.751 -0.668717 2.46904 0
M  V30 1609 H 154.395 -1.59043 4.82357 0
M  V30 1610 H 154.325 -3.23904 4.15203 0
M  V30 1611 H 156.816 -1.99291 3.21079 0
M  V30 1612 H 157.129 -3.53084 6.87424 0
M  V30 1613 H 155.474 -3.18156 6.17901 0
M  V30 1614 H 158.665 -2.39661 4.02095 0
M  V30 1615 H 158.838 -3.09812 5.6914 0
M  V30 1616 N 152.244 -1.26651 -0.937939 0
M  V30 1617 C 153.194 -1.05156 -2.02302 0
M  V30 1618 C 154.178 0.0171233 -1.60891 0
M  V30 1619 O 155.37 -0.200213 -1.75864 0
M  V30 1620 C 152.499 -0.689962 -3.36295 0
M  V30 1621 C 151.585 -1.79626 -3.84181 0
M  V30 1622 N 151.976 -3.03422 -4.04684 0
M  V30 1623 C 150.274 -1.6806 -4.13124 0
M  V30 1624 C 150.975 -3.75345 -4.444 0
M  V30 1625 N 149.951 -3.03051 -4.51288 0
M  V30 1626 H 153.753 -1.99117 -2.1617 0
M  V30 1627 H 151.267 -1.17216 -1.12402 0
M  V30 1628 H 153.264 -0.517112 -4.13681 0
M  V30 1629 H 151.924 0.242139 -3.23796 0
M  V30 1630 H 152.935 -3.39293 -3.91281 0
M  V30 1631 H 149.612 -0.818629 -4.09396 0
M  V30 1632 H 151.002 -4.81691 -4.68427 0
M  V30 1633 N 153.722 1.14298 -1.08507 0
M  V30 1634 C 154.632 2.23027 -0.727753 0
M  V30 1635 C 155.648 1.71952 0.26619 0
M  V30 1636 O 156.824 2.011 0.109882 0
M  V30 1637 C 153.889 3.46403 -0.143541 0
M  V30 1638 C 152.95 4.12413 -1.19223 0
M  V30 1639 C 152.183 5.29899 -0.635798 0
M  V30 1640 O 152.406 5.67796 0.544393 0
M  V30 1641 O 151.34 5.85717 -1.38634 0
M  V30 1642 H 155.166 2.55945 -1.63481 0
M  V30 1643 H 152.751 1.22248 -0.858817 0
M  V30 1644 H 154.633 4.21018 0.179404 0
M  V30 1645 H 153.308 3.15206 0.736659 0
M  V30 1646 H 152.215 3.39667 -1.56772 0
M  V30 1647 H 153.548 4.47718 -2.04474 0
M  V30 1648 N 155.201 0.870884 1.31352 0
M  V30 1649 C 156.612 0.534714 1.78879 0
M  V30 1650 C 156.963 -0.948423 1.71754 0
M  V30 1651 O 156.088 -1.74055 1.28584 0
M  V30 1652 C 156.683 0.963839 3.24801 0
M  V30 1653 C 155.242 0.679311 3.70219 0
M  V30 1654 C 154.389 1.15465 2.52117 0
M  V30 1655 H 157.34 1.05651 1.18421 0
M  V30 1656 H 157.361 0.286892 3.79417 0
M  V30 1657 H 156.873 2.04332 3.29955 0
M  V30 1658 H 154.974 -0.388769 3.70566 0
M  V30 1659 H 155.087 1.25698 4.62317 0
M  V30 1660 H 153.451 0.574383 2.48139 0
M  V30 1661 H 154.234 2.24157 2.60016 0
M  V30 1662 N 156.679 -1.44442 0.630414 0
M  V30 1663 C 157.642 -2.29107 -0.0652523 0
M  V30 1664 C 158.642 -1.41002 -0.772995 0
M  V30 1665 O 159.832 -1.62881 -0.617692 0
M  V30 1666 C 156.964 -3.22564 -1.10296 0
M  V30 1667 H 158.157 -2.92103 0.679401 0
M  V30 1668 H 155.71 -1.51343 0.390517 0
M  V30 1669 H 156.445 -2.64416 -1.87762 0
M  V30 1670 H 156.23 -3.87491 -0.59941 0
M  V30 1671 H 157.72 -3.86167 -1.5895 0
M  V30 1672 N 158.157 -0.370918 -1.53173 0
M  V30 1673 C 159.404 0.217102 -2.01333 0
M  V30 1674 C 159.732 1.48338 -1.25802 0
M  V30 1675 O 158.987 1.92698 -0.34146 0
M  V30 1676 C 159.286 0.549696 -3.53147 0
M  V30 1677 C 158.952 -0.622872 -4.46577 0
M  V30 1678 C 157.614 -0.944595 -4.71838 0
M  V30 1679 C 159.966 -1.40819 -5.01816 0
M  V30 1680 C 157.294 -2.05351 -5.49589 0
M  V30 1681 C 159.646 -2.50757 -5.80778 0
M  V30 1682 C 158.31 -2.83458 -6.04324 0
M  V30 1683 H 157.58 0.0794431 -0.736729 0
M  V30 1684 H 160.227 -0.504481 -1.84736 0
M  V30 1685 H 158.532 1.35237 -3.6772 0
M  V30 1686 H 160.229 1.017 -3.87889 0
M  V30 1687 H 156.819 -0.36209 -4.27068 0
M  V30 1688 H 161.003 -1.17289 -4.82242 0
M  V30 1689 H 156.259 -2.3108 -5.6605 0
M  V30 1690 H 160.433 -3.12022 -6.22588 0
M  V30 1691 H 158.06 -3.69508 -6.64355 0
M  V30 1692 N 159.635 1.57281 -0.100228 0
M  V30 1693 C 160.912 1.86014 0.604812 0
M  V30 1694 C 161.292 0.998025 1.86018 0
M  V30 1695 O 160.64 0.0718184 2.28387 0
M  V30 1696 C 160.85 3.36784 0.915278 0
M  V30 1697 C 162.198 4.04957 1.27651 0
M  V30 1698 O 163.222 3.41695 1.00613 0
M  V30 1699 O 162.081 5.16593 1.7831 0
M  V30 1700 H 159.175 0.76942 0.303185 0
M  V30 1701 H 161.721 1.69176 -0.133313 0
M  V30 1702 H 160.493 3.91292 0.0248896 0
M  V30 1703 H 160.116 3.58987 1.70921 0
M  V30 1704 N 161.113 -0.173488 1.56642 0
M  V30 1705 C 162.06 -1.21482 1.96242 0
M  V30 1706 C 163.03 -1.44104 0.826027 0
M  V30 1707 O 164.215 -1.5688 1.08597 0
M  V30 1708 C 161.355 -2.54964 2.32567 0
M  V30 1709 C 160.468 -2.39739 3.59373 0
M  V30 1710 C 159.603 -3.66072 3.84921 0
M  V30 1711 C 158.642 -3.45771 5.05083 0
M  V30 1712 N 157.779 -4.64169 5.26775 0
M  V30 1713 H 162.619 -0.870123 2.85014 0
M  V30 1714 H 160.156 -0.418245 1.41029 0
M  V30 1715 H 162.114 -3.32758 2.5165 0
M  V30 1716 H 160.744 -2.87433 1.46908 0
M  V30 1717 H 159.796 -1.53131 3.48217 0
M  V30 1718 H 161.108 -2.20683 4.47326 0
M  V30 1719 H 160.262 -4.52303 4.0436 0
M  V30 1720 H 159.001 -3.88105 2.9534 0
M  V30 1721 H 158.006 -2.57927 4.85545 0
M  V30 1722 H 159.231 -3.25163 5.96193 0
M  V30 1723 H 157.177 -4.86425 4.40144 0
M  V30 1724 H 157.094 -4.48019 6.08946 0
M  V30 1725 H 158.362 -5.51689 5.5069 0
M  V30 1726 N 162.591 -1.51276 -0.441967 0
M  V30 1727 C 163.837 -1.6492 -1.1905 0
M  V30 1728 C 164.192 -0.358731 -1.89026 0
M  V30 1729 O 163.485 0.645193 -1.8041 0
M  V30 1730 C 163.679 -2.78746 -2.23686 0
M  V30 1731 C 163.508 -4.18737 -1.63979 0
M  V30 1732 C 162.278 -4.84739 -1.42674 0
M  V30 1733 C 164.476 -5.01988 -1.11858 0
M  V30 1734 N 162.458 -6.08858 -0.785159 0
M  V30 1735 C 163.829 -6.17071 -0.601989 0
M  V30 1736 C 165.884 -4.87551 -1.0099 0
M  V30 1737 C 164.587 -7.19299 0.0126012 0
M  V30 1738 C 166.613 -5.89983 -0.409206 0
M  V30 1739 C 165.975 -7.04333 0.0968651 0
M  V30 1740 H 162.074 -0.657416 -0.423471 0
M  V30 1741 H 164.658 -1.8849 -0.48782 0
M  V30 1742 H 162.829 -2.56848 -2.91348 0
M  V30 1743 H 164.561 -2.81595 -2.90666 0
M  V30 1744 H 161.316 -4.42528 -1.68719 0
M  V30 1745 H 161.74 -6.75282 -0.481942 0
M  V30 1746 H 166.382 -3.99401 -1.38703 0
M  V30 1747 H 164.1 -8.071 0.401879 0
M  V30 1748 H 167.686 -5.8088 -0.327079 0
M  V30 1749 H 166.566 -7.82238 0.554373 0
M  V30 1750 N 164.069 0.697108 -1.41344 0
M  V30 1751 C 165.315 1.4593 -1.40827 0
M  V30 1752 C 165.648 1.94193 -0.0167098 0
M  V30 1753 O 164.923 1.69425 0.955263 0
M  V30 1754 C 165.206 2.67229 -2.41373 0
M  V30 1755 C 165.059 2.24741 -3.8963 0
M  V30 1756 C 166.378 3.69423 -2.39196 0
M  V30 1757 H 163.497 0.529303 -0.512842 0
M  V30 1758 H 166.139 0.794112 -1.72609 0
M  V30 1759 H 164.289 3.23982 -2.14401 0
M  V30 1760 H 165.961 1.73327 -4.27499 0
M  V30 1761 H 164.204 1.56542 -4.0457 0
M  V30 1762 H 164.875 3.1177 -4.55525 0
M  V30 1763 H 167.351 3.2234 -2.63128 0
M  V30 1764 H 166.227 4.51907 -3.11563 0
M  V30 1765 H 166.488 4.19012 -1.41001 0
M  V30 1766 N 165.547 1.27147 0.931209 0
M  V30 1767 C 166.796 1.12664 1.67302 0
M  V30 1768 C 167.109 -0.327718 1.92835 0
M  V30 1769 O 168.315 -0.593392 2.64936 0
M  V30 1770 C 166.771 1.9683 3.01307 0
M  V30 1771 C 166.379 3.46901 2.83485 0
M  V30 1772 C 168.123 1.90985 3.79111 0
M  V30 1773 C 166.03 4.23279 4.13024 0
M  V30 1774 H 164.96 0.41803 0.627509 0
M  V30 1775 H 167.611 1.51539 1.03481 0
M  V30 1776 H 165.993 1.50797 3.66164 0
M  V30 1777 H 167.167 4.00773 2.27415 0
M  V30 1778 H 165.482 3.54088 2.19113 0
M  V30 1779 H 168.079 2.45328 4.75098 0
M  V30 1780 H 168.422 0.882718 4.06834 0
M  V30 1781 H 168.955 2.34895 3.21044 0
M  V30 1782 H 165.694 5.26503 3.90481 0
M  V30 1783 H 165.214 3.74186 4.6877 0
M  V30 1784 H 166.893 4.32265 4.81411 0
M  V30 1785 N 167.025 -1.13721 1.09112 0
M  V30 1786 C 167.935 -2.22638 0.73957 0
M  V30 1787 C 168.951 -1.72091 -0.257068 0
M  V30 1788 O 170.127 -2.01155 -0.0992154 0
M  V30 1789 C 167.192 -3.46322 0.16191 0
M  V30 1790 C 166.253 -4.11775 1.21408 0
M  V30 1791 C 165.486 -5.29555 0.663891 0
M  V30 1792 O 165.709 -5.68077 -0.514274 0
M  V30 1793 O 164.643 -5.84973 1.41738 0
M  V30 1794 H 168.469 -2.55074 1.64836 0
M  V30 1795 H 166.054 -1.21791 0.865289 0
M  V30 1796 H 167.936 -4.21107 -0.157073 0
M  V30 1797 H 166.611 -3.15593 -0.719932 0
M  V30 1798 H 165.518 -3.3883 1.58571 0
M  V30 1799 H 166.851 -4.46627 2.06845 0
M  V30 1800 N 168.503 -0.877838 -1.30888 0
M  V30 1801 C 169.413 -0.343096 -2.32078 0
M  V30 1802 C 170.429 0.551022 -1.65045 0
M  V30 1803 O 171.605 0.445854 -1.96403 0
M  V30 1804 C 168.67 0.439905 -3.43898 0
M  V30 1805 C 167.731 -0.483111 -4.26573 0
M  V30 1806 C 166.964 0.262616 -5.33053 0
M  V30 1807 O 167.187 1.48967 -5.50604 0
M  V30 1808 O 166.121 -0.383593 -6.00676 0
M  V30 1809 H 169.947 -1.18203 -2.79753 0
M  V30 1810 H 167.532 -0.64145 -1.34929 0
M  V30 1811 H 169.414 0.883504 -4.12034 0
M  V30 1812 H 168.089 1.25526 -2.98371 0
M  V30 1813 H 166.996 -0.975374 -3.61161 0
M  V30 1814 H 168.329 -1.26427 -4.75686 0
M  V30 1815 N 169.982 1.44106 -0.638065 0
M  V30 1816 C 170.945 2.29138 0.0531013 0
M  V30 1817 C 171.945 1.41409 0.765506 0
M  V30 1818 O 173.135 1.63206 0.609046 0
M  V30 1819 C 170.267 3.23144 1.08584 0
M  V30 1820 H 171.46 2.91739 -0.694883 0
M  V30 1821 H 169.013 1.51134 -0.398538 0
M  V30 1822 H 169.748 2.65408 1.86357 0
M  V30 1823 H 169.533 3.87804 0.578852 0
M  V30 1824 H 171.023 3.87004 1.56899 0
M  V30 1825 N 171.46 0.379036 1.52974 0
M  V30 1826 C 172.408 -0.476033 2.27677 0
M  V30 1827 C 173.402 -1.0719 1.31174 0
M  V30 1828 O 174.608 -1.01355 1.48752 0
M  V30 1829 H 170.983 -0.172255 0.732006 0
M  V30 1830 H 172.954 0.175615 2.97883 0
M  V30 1831 C 171.703 -1.5967 3.0887 0
M  V30 1832 H 171.026 -1.1475 3.82978 0
M  V30 1833 H 172.466 -2.16943 3.64296 0
M  V30 1834 C 170.925 -2.54682 2.20542 0
M  V30 1835 O 171.455 -3.57836 1.82527 0
M  V30 1836 N 169.661 -2.24183 1.84907 0
M  V30 1837 H 169.208 -1.40333 2.1602 0
M  V30 1838 H 169.166 -2.88006 1.26096 0
M  V30 1839 N 172.938 -1.57226 0.108567 0
M  V30 1840 C 174.184 -1.95919 -0.546564 0
M  V30 1841 C 174.539 -0.990417 -1.6495 0
M  V30 1842 O 173.832 -0.0186593 -1.91591 0
M  V30 1843 C 174.026 -3.38911 -1.13463 0
M  V30 1844 C 173.855 -4.4961 -0.0901926 0
M  V30 1845 C 172.625 -5.04168 0.338008 0
M  V30 1846 C 174.823 -5.09693 0.686808 0
M  V30 1847 N 172.805 -5.98434 1.36931 0
M  V30 1848 C 174.176 -5.99804 1.56958 0
M  V30 1849 C 176.231 -4.92388 0.738846 0
M  V30 1850 C 174.934 -6.74463 2.49983 0
M  V30 1851 C 176.96 -5.67719 1.65676 0
M  V30 1852 C 176.322 -6.57507 2.52713 0
M  V30 1853 H 172.421 -0.763312 -0.169936 0
M  V30 1854 H 175.005 -1.93728 0.194264 0
M  V30 1855 H 173.176 -3.41769 -1.84522 0
M  V30 1856 H 174.908 -3.64752 -1.75322 0
M  V30 1857 H 171.663 -4.73571 -0.0523673 0
M  V30 1858 H 172.087 -6.5027 1.88356 0
M  V30 1859 H 176.729 -4.22724 0.080084 0
M  V30 1860 H 174.447 -7.4338 3.16878 0
M  V30 1861 H 178.033 -5.56338 1.70233 0
M  V30 1862 H 176.913 -7.14778 3.22586 0
M  V30 1863 N 174.416 0.165178 -1.56732 0
M  V30 1864 C 175.349 1.23336 -1.91998 0
M  V30 1865 C 176.327 1.42476 -0.783531 0
M  V30 1866 O 177.511 1.57384 -1.03743 0
M  V30 1867 C 174.638 2.59533 -2.17625 0
M  V30 1868 C 173.684 2.57093 -3.40302 0
M  V30 1869 S 174.517 2.05571 -4.9447 0
M  V30 1870 C 175.673 3.43532 -5.23198 0
M  V30 1871 H 175.906 0.932387 -2.82301 0
M  V30 1872 H 173.439 0.370013 -1.49901 0
M  V30 1873 H 175.397 3.37918 -2.3307 0
M  V30 1874 H 174.058 2.86827 -1.28019 0
M  V30 1875 H 173.251 3.57308 -3.55453 0
M  V30 1876 H 172.853 1.86806 -3.24005 0
M  V30 1877 H 175.145 4.39559 -5.15552 0
M  V30 1878 H 176.088 3.33251 -6.2478 0
M  V30 1879 H 176.496 3.39828 -4.50752 0
M  V30 1880 N 175.894 1.51508 0.433938 0
M  V30 1881 C 177.122 1.68157 1.20543 0
M  V30 1882 C 177.537 0.380362 1.84929 0
M  V30 1883 O 176.894 -0.641446 1.70856 0
M  V30 1884 C 176.945 2.79965 2.28696 0
M  V30 1885 O 176.666 4.05045 1.66943 0
M  V30 1886 C 178.167 3.07912 3.18912 0
M  V30 1887 H 175.387 0.56421 0.363191 0
M  V30 1888 H 177.931 1.97941 0.513754 0
M  V30 1889 H 176.086 2.5277 2.93574 0
M  V30 1890 H 176.5 4.67165 2.38448 0
M  V30 1891 H 177.974 3.89719 3.90926 0
M  V30 1892 H 178.451 2.20456 3.79863 0
M  V30 1893 H 179.057 3.36779 2.59731 0
M  V30 1894 N 177.372 -0.689602 1.41712 0
M  V30 1895 C 178.302 -1.81577 1.46806 0
M  V30 1896 C 179.283 -1.66945 0.326105 0
M  V30 1897 O 180.468 -1.86588 0.538377 0
M  V30 1898 C 177.598 -3.19762 1.35535 0
M  V30 1899 C 176.552 -3.49107 2.47605 0
M  V30 1900 C 175.878 -4.86711 2.21397 0
M  V30 1901 C 177.178 -3.47483 3.89939 0
M  V30 1902 H 178.872 -1.7757 2.41058 0
M  V30 1903 H 176.418 -0.852887 1.16025 0
M  V30 1904 H 178.371 -3.98263 1.3771 0
M  V30 1905 H 177.095 -3.24409 0.377708 0
M  V30 1906 H 175.754 -2.72959 2.44722 0
M  V30 1907 H 175.402 -4.8799 1.21961 0
M  V30 1908 H 175.102 -5.0731 2.96497 0
M  V30 1909 H 176.626 -5.67515 2.25297 0
M  V30 1910 H 178.04 -4.1598 3.94505 0
M  V30 1911 H 176.437 -3.79615 4.64771 0
M  V30 1912 H 177.507 -2.46341 4.17665 0
M  V30 1913 N 178.85 -1.27639 -0.924453 0
M  V30 1914 C 180.127 -1.04887 -1.651 0
M  V30 1915 C 180.507 0.415327 -2.06974 0
M  V30 1916 O 179.855 1.39923 -1.80648 0
M  V30 1917 C 180.065 -2.01348 -2.85061 0
M  V30 1918 C 181.413 -2.30899 -3.56329 0
M  V30 1919 O 182.437 -1.99348 -2.95193 0
M  V30 1920 O 181.296 -2.84699 -4.66485 0
M  V30 1921 H 178.39 -0.400083 -0.723784 0
M  V30 1922 H 180.936 -1.38916 -0.974703 0
M  V30 1923 H 179.708 -3.0008 -2.51133 0
M  V30 1924 H 179.331 -1.679 -3.6041 0
M  V30 1925 N 180.328 1.1314 -1.09713 0
M  V30 1926 C 181.275 2.18642 -0.739196 0
M  V30 1927 C 182.245 1.63706 0.280978 0
M  V30 1928 O 183.43 1.90111 0.161946 0
M  V30 1929 C 180.57 3.44685 -0.169102 0
M  V30 1930 C 179.683 4.13711 -1.24367 0
M  V30 1931 C 178.818 5.27379 -0.636019 0
M  V30 1932 C 177.857 5.88259 -1.69169 0
M  V30 1933 N 176.994 6.93352 -1.10485 0
M  V30 1934 H 181.834 2.48607 -1.64312 0
M  V30 1935 H 179.371 1.22066 -0.820875 0
M  V30 1936 H 181.329 4.16815 0.179256 0
M  V30 1937 H 179.959 3.15161 0.698079 0
M  V30 1938 H 179.011 3.39835 -1.70927 0
M  V30 1939 H 180.323 4.55037 -2.04311 0
M  V30 1940 H 179.477 6.06238 -0.236677 0
M  V30 1941 H 178.216 4.8731 0.194928 0
M  V30 1942 H 177.221 5.08092 -2.10055 0
M  V30 1943 H 178.446 6.30399 -2.52536 0
M  V30 1944 H 176.392 6.55335 -0.295234 0
M  V30 1945 H 176.309 7.33236 -1.84121 0
M  V30 1946 H 177.577 7.76057 -0.73181 0
M  V30 1947 N 181.806 0.884767 1.30421 0
M  V30 1948 C 183.083 0.423185 1.90967 0
M  V30 1949 C 183.463 -1.09605 1.80416 0
M  V30 1950 O 182.811 -1.93126 1.22125 0
M  V30 1951 C 183.021 0.921056 3.36627 0
M  V30 1952 C 184.369 0.955903 4.137 0
M  V30 1953 O 185.393 0.867706 3.4547 0
M  V30 1954 O 184.252 1.08614 5.35598 0
M  V30 1955 H 181.346 0.129369 0.816819 0
M  V30 1956 H 183.892 0.973653 1.3899 0
M  V30 1957 H 182.664 1.96489 3.3839 0
M  V30 1958 H 182.287 0.349741 3.96059 0
M  V30 1959 N 183.284 -1.43765 0.645699 0
M  V30 1960 C 184.53 -2.02197 0.156271 0
M  V30 1961 C 184.863 -1.50776 -1.22393 0
M  V30 1962 O 184.138 -0.697771 -1.81553 0
M  V30 1963 C 184.421 -3.59749 0.158872 0
M  V30 1964 C 184.274 -4.21419 1.57245 0
M  V30 1965 C 185.593 -4.37149 -0.50879 0
M  V30 1966 H 182.712 -0.734694 0.0582602 0
M  V30 1967 H 185.354 -1.71157 0.824951 0
M  V30 1968 H 183.504 -3.86325 -0.410525 0
M  V30 1969 H 185.176 -4.059 2.19186 0
M  V30 1970 H 183.419 -3.78356 2.122 0
M  V30 1971 H 184.09 -5.30482 1.52619 0
M  V30 1972 H 186.566 -4.16093 -0.024412 0
M  V30 1973 H 185.442 -5.4683 -0.476213 0
M  V30 1974 H 185.703 -4.12839 -1.58165 0
M  V30 1975 N 184.763 -0.387143 -1.52771 0
M  V30 1976 C 186.174 0.0873634 -1.86495 0
M  V30 1977 C 186.525 1.46336 -1.30691 0
M  V30 1978 O 185.65 2.068 -0.637409 0
M  V30 1979 C 186.245 0.165305 -3.38396 0
M  V30 1980 C 184.804 0.584101 -3.7184 0
M  V30 1981 C 183.951 -0.255279 -2.76122 0
M  V30 1982 H 186.902 -0.605104 -1.46711 0
M  V30 1983 H 186.923 0.984848 -3.67534 0
M  V30 1984 H 186.435 -0.836301 -3.78982 0
M  V30 1985 H 184.536 1.59315 -3.36823 0
M  V30 1986 H 184.649 0.343749 -4.77865 0
M  V30 1987 H 183.013 0.279126 -2.53166 0
M  V30 1988 H 183.796 -1.25482 -3.19545 0
M  V30 1989 N 186.241 1.57166 -0.116904 0
M  V30 1990 C 187.173 2.12271 0.864507 0
M  V30 1991 C 188.186 1.06494 1.23138 0
M  V30 1992 O 189.375 1.33873 1.18069 0
M  V30 1993 C 186.475 2.60564 2.16702 0
M  V30 1994 C 185.648 3.90416 1.97216 0
M  V30 1995 C 184.707 4.24329 3.11178 0
M  V30 1996 O 183.733 4.93182 2.84184 0
M  V30 1997 N 184.935 3.8148 4.37554 0
M  V30 1998 H 187.7 2.97102 0.393726 0
M  V30 1999 H 185.261 1.61759 0.0675805 0
M  V30 2000 H 187.253 2.80282 2.91932 0
M  V30 2001 H 185.823 1.80623 2.55135 0
M  V30 2002 H 185.043 3.79627 1.06192 0
M  V30 2003 H 186.331 4.75327 1.81499 0
M  V30 2004 H 185.729 3.25943 4.62361 0
M  V30 2005 H 184.286 4.06311 5.09661 0
M  V30 2006 N 187.719 -0.156864 1.56817 0
M  V30 2007 C 188.944 -0.890331 1.87318 0
M  V30 2008 C 189.369 -1.74394 0.704855 0
M  V30 2009 O 188.727 -1.77972 -0.345786 0
M  V30 2010 C 188.775 -1.73102 3.16336 0
M  V30 2011 O 187.879 -2.83422 2.99576 0
M  V30 2012 H 187.22 -0.24857 0.615718 0
M  V30 2013 H 189.75 -0.150649 2.04045 0
M  V30 2014 H 189.76 -2.12803 3.48107 0
M  V30 2015 H 188.435 -1.10412 4.00976 0
M  V30 2016 H 187.012 -2.47199 2.7919 0
M  V30 2017 N 189.197 -1.51736 -0.425897 0
M  V30 2018 C 190.16 -1.73271 -1.50032 0
M  V30 2019 C 191.16 -0.602639 -1.4908 0
M  V30 2020 O 192.35 -0.87033 -1.509 0
M  V30 2021 C 189.482 -1.79969 -2.89523 0
M  V30 2022 H 190.675 -2.69172 -1.32237 0
M  V30 2023 H 188.228 -1.41899 -0.65532 0
M  V30 2024 H 188.963 -0.859241 -3.1271 0
M  V30 2025 H 188.748 -2.62109 -2.91619 0
M  V30 2026 H 190.238 -1.9843 -3.67444 0
M  V30 2027 N 190.675 0.682077 -1.42076 0
M  V30 2028 C 191.585 1.82535 -1.47371 0
M  V30 2029 C 192.601 1.7017 -0.363079 0
M  V30 2030 O 193.777 1.91848 -0.612875 0
M  V30 2031 C 190.842 3.18624 -1.36674 0
M  V30 2032 C 189.903 3.42999 -2.58167 0
M  V30 2033 C 189.136 4.72595 -2.4797 0
M  V30 2034 O 189.359 5.50006 -1.5116 0
M  V30 2035 O 188.293 4.98054 -3.37974 0
M  V30 2036 H 192.119 1.81023 -2.43853 0
M  V30 2037 H 189.704 0.836887 -1.2376 0
M  V30 2038 H 191.586 3.99847 -1.33043 0
M  V30 2039 H 190.261 3.20789 -0.433138 0
M  V30 2040 H 189.168 2.61653 -2.67373 0
M  V30 2041 H 190.501 3.45659 -3.50401 0
M  V30 2042 N 192.153 1.28127 0.917671 0
M  V30 2043 C 193.401 1.14825 1.66312 0
M  V30 2044 C 193.722 -0.304379 1.9261 0
M  V30 2045 O 192.992 -1.21149 1.53947 0
M  V30 2046 H 191.572 0.421953 0.616413 0
M  V30 2047 H 194.234 1.608 1.10134 0
M  V30 2048 H 193.33 1.68489 2.62712 0
M  V30 2049 N 193.631 -1.12557 1.10312 0
M  V30 2050 C 194.879 -1.83675 0.843091 0
M  V30 2051 C 195.2 -1.84435 -0.633131 0
M  V30 2052 O 194.47 -1.30657 -1.45964 0
M  V30 2053 H 193.05 -0.680138 0.308904 0
M  V30 2054 H 195.712 -1.36301 1.39313 0
M  V30 2055 H 194.808 -2.87908 1.2048 0
M  V30 2056 N 195.109 -0.891671 -1.2995 0
M  V30 2057 C 196.356 -0.513501 -1.95881 0
M  V30 2058 C 196.684 0.938655 -1.70351 0
M  V30 2059 O 195.939 1.67936 -1.00478 0
M  V30 2060 C 196.238 -0.742868 -3.49594 0
M  V30 2061 C 195.904 -2.17114 -3.95186 0
M  V30 2062 C 194.566 -2.56169 -4.07346 0
M  V30 2063 C 196.918 -3.10162 -4.18866 0
M  V30 2064 C 194.246 -3.87469 -4.4055 0
M  V30 2065 C 196.598 -4.41001 -4.53542 0
M  V30 2066 C 195.262 -4.79941 -4.63911 0
M  V30 2067 H 194.532 -0.187903 -0.71678 0
M  V30 2068 H 197.179 -1.1288 -1.54694 0
M  V30 2069 H 195.484 -0.044586 -3.91775 0
M  V30 2070 H 197.181 -0.429767 -3.9869 0
M  V30 2071 H 193.771 -1.85801 -3.86233 0
M  V30 2072 H 197.955 -2.81206 -4.08946 0
M  V30 2073 H 193.211 -4.17371 -4.46779 0
M  V30 2074 H 197.385 -5.13133 -4.70815 0
M  V30 2075 H 195.012 -5.81719 -4.89395 0
M  V30 2076 N 196.587 1.43421 -0.653314 0
M  V30 2077 C 197.864 1.95361 -0.0966581 0
M  V30 2078 C 198.244 1.59461 1.38331 0
M  V30 2079 O 197.592 0.879777 2.10884 0
M  V30 2080 C 197.802 3.47311 -0.342988 0
M  V30 2081 C 199.15 4.23875 -0.24798 0
M  V30 2082 O 200.174 3.55133 -0.275553 0
M  V30 2083 O 199.033 5.4623 -0.171771 0
M  V30 2084 H 196.127 0.826945 0.00956291 0
M  V30 2085 H 198.673 1.5336 -0.726558 0
M  V30 2086 H 197.445 3.66569 -1.36906 0
M  V30 2087 H 197.068 3.9631 0.319975 0
M  V30 2088 N 198.065 0.39524 1.52563 0
M  V30 2089 C 199.028 -0.425001 2.25225 0
M  V30 2090 C 200.028 -0.985266 1.27079 0
M  V30 2091 O 201.218 -0.866332 1.5113 0
M  V30 2092 C 198.35 -1.59686 3.01186 0
M  V30 2093 H 199.543 0.211233 2.99155 0
M  V30 2094 H 197.096 0.147472 1.55603 0
M  V30 2095 H 197.831 -2.27035 2.31572 0
M  V30 2096 H 197.616 -1.20176 3.73229 0
M  V30 2097 H 199.106 -2.17743 3.5634 0
M  V30 2098 N 199.544 -1.57102 0.125237 0
M  V30 2099 C 200.79 -1.95697 -0.532035 0
M  V30 2100 C 201.123 -1.009 -1.6593 0
M  V30 2101 O 200.398 -0.047347 -1.94442 0
M  V30 2102 C 200.681 -3.44181 -1.05884 0
M  V30 2103 C 200.534 -4.49752 0.0654392 0
M  V30 2104 C 201.853 -3.94655 -1.9477 0
M  V30 2105 H 198.972 -0.711571 -0.191925 0
M  V30 2106 H 201.614 -1.88923 0.20206 0
M  V30 2107 H 199.764 -3.50085 -1.68442 0
M  V30 2108 H 201.436 -4.55943 0.700982 0
M  V30 2109 H 199.679 -4.27653 0.727709 0
M  V30 2110 H 200.35 -5.50924 -0.344505 0
M  V30 2111 H 202.826 -3.91094 -1.42074 0
M  V30 2112 H 201.702 -4.99057 -2.28546 0
M  V30 2113 H 201.963 -3.35718 -2.87656 0
M  V30 2114 N 201.022 0.148545 -1.56898 0
M  V30 2115 C 202.271 0.85984 -1.82454 0
M  V30 2116 C 202.584 1.82406 -0.706229 0
M  V30 2117 O 203.79 2.57938 -0.847349 0
M  V30 2118 C 202.246 1.57967 -3.2338 0
M  V30 2119 C 201.854 0.65794 -4.43142 0
M  V30 2120 C 203.598 2.27784 -3.58211 0
M  V30 2121 C 201.505 1.3793 -5.75091 0
M  V30 2122 H 200.435 0.324834 -0.68044 0
M  V30 2123 H 203.086 0.112588 -1.83154 0
M  V30 2124 H 201.468 2.37249 -3.17063 0
M  V30 2125 H 202.642 -0.0995497 -4.60692 0
M  V30 2126 H 200.957 0.0682643 -4.16344 0
M  V30 2127 H 203.554 2.8239 -4.54048 0
M  V30 2128 H 203.897 3.04204 -2.84193 0
M  V30 2129 H 204.43 1.55421 -3.66182 0
M  V30 2130 H 201.169 0.656982 -6.52199 0
M  V30 2131 H 200.689 2.10954 -5.61479 0
M  V30 2132 H 202.368 1.92063 -6.17835 0
M  V30 2133 N 202.5 1.5196 0.417844 0
M  V30 2134 C 203.74 1.67262 1.17486 0
M  V30 2135 C 204.104 0.38983 1.88001 0
M  V30 2136 O 205.305 0.418845 2.65517 0
M  V30 2137 C 203.576 2.85526 2.14965 0
M  V30 2138 S 205.135 3.21263 2.98891 0
M  V30 2139 H 201.953 0.589077 0.398132 0
M  V30 2140 H 204.555 1.89927 0.463452 0
M  V30 2141 H 203.259 3.77145 1.61833 0
M  V30 2142 H 202.79 2.65107 2.90657 0
M  V30 2143 H 204.805 2.69208 4.16823 0
M  V30 2144 N 203.978 -0.674533 1.42435 0
M  V30 2145 C 204.908 -1.80009 1.48724 0
M  V30 2146 C 205.889 -1.6659 0.343793 0
M  V30 2147 O 207.074 -1.86007 0.558137 0
M  V30 2148 C 204.204 -3.18306 1.38919 0
M  V30 2149 C 203.158 -3.46461 2.51294 0
M  V30 2150 C 202.484 -4.84335 2.26547 0
M  V30 2151 C 203.784 -3.43328 3.93603 0
M  V30 2152 H 205.478 -1.75004 2.42928 0
M  V30 2153 H 203.024 -0.840533 1.16923 0
M  V30 2154 H 204.977 -3.9678 1.41927 0
M  V30 2155 H 203.701 -3.2399 0.412094 0
M  V30 2156 H 202.36 -2.70348 2.47604 0
M  V30 2157 H 202.008 -4.86669 1.2713 0
M  V30 2158 H 201.708 -5.04136 3.01861 0
M  V30 2159 H 203.232 -5.65094 2.31304 0
M  V30 2160 H 204.646 -4.11772 3.98894 0
M  V30 2161 H 203.043 -3.74664 4.68771 0
M  V30 2162 H 204.113 -2.41897 4.20255 0
M  V30 2163 N 205.456 -1.28612 -0.910864 0
M  V30 2164 C 206.704 -1.15705 -1.65701 0
M  V30 2165 C 207.025 0.29416 -1.92769 0
M  V30 2166 O 206.295 1.20331 -1.54588 0
M  V30 2167 H 204.875 -0.425216 -0.614167 0
M  V30 2168 H 207.537 -1.61381 -1.0928 0
M  V30 2169 H 206.633 -1.6988 -2.61815 0
M  V30 2170 N 206.934 1.1197 -1.10907 0
M  V30 2171 C 207.882 2.19927 -0.757303 0
M  V30 2172 C 208.876 1.67564 0.248747 0
M  V30 2173 O 210.082 1.79672 0.108605 0
M  V30 2174 H 206.457 0.716925 -0.226987 0
M  V30 2175 H 208.428 2.46847 -1.67658 0
M  V30 2176 C 207.177 3.47061 -0.210671 0
M  V30 2177 H 206.5 3.87703 -0.976049 0
M  V30 2178 H 207.94 4.24 -0.0026584 0
M  V30 2179 C 206.399 3.19864 1.05777 0
M  V30 2180 O 206.929 3.40049 2.13845 0
M  V30 2181 N 205.135 2.73636 0.978349 0
M  V30 2182 H 204.682 2.5741 0.0988246 0
M  V30 2183 H 204.64 2.55815 1.82773 0
M  V30 2184 N 208.412 0.89855 1.29475 0
M  V30 2185 C 209.637 0.538561 2.00285 0
M  V30 2186 C 210.062 -0.869135 1.66816 0
M  V30 2187 O 209.42 -1.57831 0.892145 0
M  V30 2188 C 209.468 0.736475 3.52999 0
M  V30 2189 O 208.572 -0.211537 4.11857 0
M  V30 2190 H 207.913 0.210563 0.62973 0
M  V30 2191 H 210.443 1.20982 1.64998 0
M  V30 2192 H 210.453 0.640685 4.02938 0
M  V30 2193 H 209.128 1.76276 3.76696 0
M  V30 2194 H 207.705 -0.0682991 3.72837 0
M  V30 2195 N 209.89 -1.43072 0.660911 0
M  V30 2196 C 211.137 -2.01721 0.177445 0
M  V30 2197 C 211.465 -1.5218 -1.21126 0
M  V30 2198 O 210.72 -0.708659 -1.82419 0
M  V30 2199 C 211.019 -3.57103 0.145563 0
M  V30 2200 C 210.685 -4.26021 1.47705 0
M  V30 2201 C 209.347 -4.44563 1.84165 0
M  V30 2202 C 211.699 -4.64983 2.35458 0
M  V30 2203 C 209.027 -4.99334 3.0803 0
M  V30 2204 C 211.379 -5.21127 3.58622 0
M  V30 2205 C 210.043 -5.37884 3.95268 0
M  V30 2206 H 209.313 -0.73815 0.0649317 0
M  V30 2207 H 211.96 -1.71446 0.853144 0
M  V30 2208 H 210.265 -3.86965 -0.61361 0
M  V30 2209 H 211.962 -4.00248 -0.2455 0
M  V30 2210 H 208.552 -4.11939 1.18339 0
M  V30 2211 H 212.736 -4.50343 2.08579 0
M  V30 2212 H 207.992 -5.10493 3.36462 0
M  V30 2213 H 212.166 -5.50262 4.26831 0
M  V30 2214 H 209.793 -5.80089 4.91325 0
M  V30 2215 N 211.368 -0.403325 -1.52352 0
M  V30 2216 C 212.331 0.413051 -2.25447 0
M  V30 2217 C 213.331 0.978513 -1.276 0
M  V30 2218 O 214.521 0.858305 -1.51587 0
M  V30 2219 C 211.653 1.58087 -3.02029 0
M  V30 2220 H 212.846 -0.227094 -2.99039 0
M  V30 2221 H 210.399 -0.155722 -1.55522 0
M  V30 2222 H 211.134 2.25804 -2.32772 0
M  V30 2223 H 210.919 1.18195 -3.73861 0
M  V30 2224 H 212.409 2.1585 -3.57489 0
M  V30 2225 N 212.846 1.57033 -0.133567 0
M  V30 2226 C 213.796 2.12641 0.822671 0
M  V30 2227 C 214.78 1.05081 1.21847 0
M  V30 2228 O 215.972 1.31287 1.18713 0
M  V30 2229 C 213.101 2.74094 2.06706 0
M  V30 2230 C 212.187 3.88757 1.69497 0
M  V30 2231 N 212.578 4.95194 1.03037 0
M  V30 2232 C 210.876 3.99213 1.98859 0
M  V30 2233 C 211.577 5.75414 0.852873 0
M  V30 2234 N 210.553 5.25726 1.3825 0
M  V30 2235 H 214.355 2.92308 0.305537 0
M  V30 2236 H 211.869 1.62256 0.0684276 0
M  V30 2237 H 213.866 3.12285 2.76195 0
M  V30 2238 H 212.526 1.95896 2.5895 0
M  V30 2239 H 213.537 5.13247 0.692669 0
M  V30 2240 H 210.214 3.32075 2.53047 0
M  V30 2241 H 211.604 6.71089 0.330091 0
M  V30 2242 N 214.325 -0.140222 1.56975 0
M  V30 2243 C 215.255 -1.17456 2.01808 0
M  V30 2244 C 216.236 -1.44415 0.898794 0
M  V30 2245 O 217.421 -1.5522 1.16707 0
M  V30 2246 C 214.551 -2.50607 2.40444 0
M  V30 2247 C 213.505 -2.38155 3.55621 0
M  V30 2248 C 212.831 -3.76078 3.80091 0
M  V30 2249 C 214.131 -1.85991 4.88062 0
M  V30 2250 H 215.825 -0.801743 2.88466 0
M  V30 2251 H 213.371 -0.38422 1.38779 0
M  V30 2252 H 215.324 -3.23197 2.7041 0
M  V30 2253 H 214.048 -2.89737 1.50732 0
M  V30 2254 H 212.707 -1.68016 3.25832 0
M  V30 2255 H 212.355 -4.12656 2.87618 0
M  V30 2256 H 212.055 -3.68606 4.57606 0
M  V30 2257 H 213.579 -4.50206 4.12488 0
M  V30 2258 H 214.993 -2.4838 5.16701 0
M  V30 2259 H 213.39 -1.89393 5.6943 0
M  V30 2260 H 214.46 -0.816023 4.77984 0
M  V30 2261 N 215.803 -1.52179 -0.40978 0
M  V30 2262 C 217.214 -1.58377 -0.988615 0
M  V30 2263 C 217.565 -0.423879 -1.91566 0
M  V30 2264 O 216.69 0.455844 -2.11544 0
M  V30 2265 C 217.285 -2.87044 -1.79976 0
M  V30 2266 C 215.844 -2.95722 -2.32863 0
M  V30 2267 C 214.991 -2.53309 -1.12828 0
M  V30 2268 H 217.942 -1.57558 -0.190039 0
M  V30 2269 H 217.963 -2.7236 -2.65707 0
M  V30 2270 H 217.475 -3.71444 -1.12478 0
M  V30 2271 H 215.576 -2.15814 -3.03735 0
M  V30 2272 H 215.689 -3.99951 -2.63773 0
M  V30 2273 H 214.053 -2.07142 -1.48204 0
M  V30 2274 H 214.836 -3.40082 -0.46897 0
M  V30 2275 N 217.281 0.66697 -1.42791 0
M  V30 2276 C 218.558 1.4234 -1.34159 0
M  V30 2277 C 218.938 2.11093 0.0172729 0
M  V30 2278 O 218.286 2.03808 1.03318 0
M  V30 2279 C 218.496 2.41942 -2.51526 0
M  V30 2280 C 219.844 3.06353 -2.93995 0
M  V30 2281 O 220.868 2.52269 -2.51473 0
M  V30 2282 O 219.727 4.04376 -3.67617 0
M  V30 2283 H 216.821 0.635277 -0.529483 0
M  V30 2284 H 219.367 0.695034 -1.54814 0
M  V30 2285 H 218.139 1.89991 -3.42081 0
M  V30 2286 H 217.762 3.22249 -2.32898 0
M  V30 2287 N 218.759 1.29093 0.90403 0
M  V30 2288 C 219.999 1.18076 1.66845 0
M  V30 2289 C 220.363 -0.26436 1.90171 0
M  V30 2290 O 221.564 -0.497423 2.64157 0
M  V30 2291 C 219.835 1.96722 2.98388 0
M  V30 2292 S 221.394 2.0219 3.89441 0
M  V30 2293 H 218.212 0.421104 0.572881 0
M  V30 2294 H 220.814 1.63322 1.07453 0
M  V30 2295 H 219.518 3.00866 2.7912 0
M  V30 2296 H 219.049 1.52064 3.62823 0
M  V30 2297 H 221.064 1.13545 4.83034 0
M  V30 2298 N 220.237 -1.11381 1.11499 0
M  V30 2299 C 221.184 -2.17439 0.773887 0
M  V30 2300 C 222.154 -1.64132 -0.254899 0
M  V30 2301 O 223.339 -1.90345 -0.13168 0
M  V30 2302 C 220.479 -3.44373 0.223917 0
M  V30 2303 C 219.592 -4.1168 1.30934 0
M  V30 2304 C 218.727 -5.263 0.71984 0
M  V30 2305 C 217.766 -5.85493 1.78507 0
M  V30 2306 N 216.903 -6.91507 1.21502 0
M  V30 2307 H 221.743 -2.45962 1.68246 0
M  V30 2308 H 219.28 -1.20744 0.840191 0
M  V30 2309 H 221.238 -4.17047 -0.112921 0
M  V30 2310 H 219.868 -3.16232 -0.647851 0
M  V30 2311 H 218.92 -3.37073 1.76312 0
M  V30 2312 H 220.232 -4.51729 2.11524 0
M  V30 2313 H 219.386 -6.05785 0.333094 0
M  V30 2314 H 218.125 -4.87559 -0.117377 0
M  V30 2315 H 217.13 -5.04686 2.18111 0
M  V30 2316 H 218.355 -6.26301 2.62533 0
M  V30 2317 H 216.301 -6.54783 0.399455 0
M  V30 2318 H 216.218 -7.30214 1.95763 0
M  V30 2319 H 217.486 -7.74795 0.855181 0
M  V30 2320 N 221.715 -0.905404 -1.28997 0
M  V30 2321 C 222.963 -0.533192 -1.9494 0
M  V30 2322 C 223.284 0.924618 -1.71685 0
M  V30 2323 O 222.554 1.65268 -1.05183 0
M  V30 2324 H 221.134 -0.194194 -0.721317 0
M  V30 2325 H 223.796 -1.15294 -1.57141 0
M  V30 2326 H 222.892 -0.72059 -3.03667 0
M  V30 2327 N 223.193 1.4272 -0.668489 0
M  V30 2328 C 224.47 1.95248 -0.117373 0
M  V30 2329 C 224.85 1.60919 1.36632 0
M  V30 2330 O 224.198 0.902095 2.09939 0
M  V30 2331 C 224.408 3.46927 -0.379806 0
M  V30 2332 C 225.756 4.23588 -0.292923 0
M  V30 2333 O 226.78 3.5482 -0.313204 0
M  V30 2334 O 225.639 5.46017 -0.229697 0
M  V30 2335 H 222.733 0.827 0.00079152 0
M  V30 2336 H 225.279 1.52581 -0.742783 0
M  V30 2337 H 224.051 3.65096 -1.40786 0
M  V30 2338 H 223.674 3.96627 0.277923 0
M  V30 2339 N 224.671 0.411399 1.52136 0
M  V30 2340 C 225.603 -0.448386 2.24771 0
M  V30 2341 C 226.616 -1.00828 1.27818 0
M  V30 2342 O 227.805 -0.906841 1.53749 0
M  V30 2343 C 224.905 -1.63636 2.96777 0
M  V30 2344 C 224.078 -1.19995 4.20618 0
M  V30 2345 C 223.137 -2.25509 4.75428 0
M  V30 2346 O 222.163 -1.86007 5.3795 0
M  V30 2347 N 223.365 -3.577 4.57199 0
M  V30 2348 H 226.13 0.174025 2.99194 0
M  V30 2349 H 223.691 0.238897 1.60128 0
M  V30 2350 H 225.683 -2.33793 3.30338 0
M  V30 2351 H 224.253 -2.16465 2.25526 0
M  V30 2352 H 223.473 -0.326421 3.92846 0
M  V30 2353 H 224.761 -0.885365 5.01038 0
M  V30 2354 H 224.159 -3.92543 4.07341 0
M  V30 2355 H 222.716 -4.23827 4.95191 0
M  V30 2356 N 226.149 -1.5696 0.141893 0
M  V30 2357 C 227.374 -2.00754 -0.520838 0
M  V30 2358 C 227.799 -1.0213 -1.57959 0
M  V30 2359 O 227.157 0.00371324 -1.813 0
M  V30 2360 C 227.205 -3.43318 -1.10294 0
M  V30 2361 O 226.309 -3.47679 -2.21795 0
M  V30 2362 H 225.65 -0.651564 -0.127908 0
M  V30 2363 H 228.18 -2.03221 0.23712 0
M  V30 2364 H 228.19 -3.82012 -1.43287 0
M  V30 2365 H 226.865 -4.14608 -0.327574 0
M  V30 2366 H 225.442 -3.20824 -1.9007 0
M  V30 2367 N 227.627 0.131896 -1.57047 0
M  V30 2368 C 228.537 1.1815 -2.02676 0
M  V30 2369 C 229.553 1.46113 -0.944824 0
M  V30 2370 O 230.729 1.57485 -1.25541 0
M  V30 2371 C 227.794 2.49139 -2.41103 0
M  V30 2372 C 226.855 2.28688 -3.63318 0
M  V30 2373 C 226.088 3.53431 -3.99903 0
M  V30 2374 O 226.311 4.60223 -3.36973 0
M  V30 2375 O 225.245 3.45198 -4.93074 0
M  V30 2376 H 229.071 0.824069 -2.92306 0
M  V30 2377 H 226.656 0.341745 -1.45439 0
M  V30 2378 H 228.538 3.26338 -2.66611 0
M  V30 2379 H 227.213 2.84382 -1.54624 0
M  V30 2380 H 226.12 1.4939 -3.42977 0
M  V30 2381 H 227.453 1.98355 -4.50462 0
M  V30 2382 N 229.106 1.52395 0.401703 0
M  V30 2383 C 230.056 1.72649 1.48917 0
M  V30 2384 C 231.04 0.580436 1.50066 0
M  V30 2385 O 232.232 0.83779 1.55917 0
M  V30 2386 C 229.361 1.88729 2.86769 0
M  V30 2387 C 228.447 3.09228 2.90239 0
M  V30 2388 N 228.838 4.31805 2.63396 0
M  V30 2389 C 227.136 3.09214 3.21408 0
M  V30 2390 C 227.837 5.13326 2.73625 0
M  V30 2391 N 226.813 4.48735 3.06819 0
M  V30 2392 H 230.615 2.65058 1.26971 0
M  V30 2393 H 228.129 1.50528 0.609504 0
M  V30 2394 H 230.126 2.01358 3.65049 0
M  V30 2395 H 228.786 0.975252 3.09708 0
M  V30 2396 H 229.797 4.60154 2.37653 0
M  V30 2397 H 226.474 2.27774 3.49893 0
M  V30 2398 H 227.864 6.21003 2.56524 0
M  V30 2399 N 230.584 -0.659388 1.43143 0
M  V30 2400 C 232 -0.974337 1.26407 0
M  V30 2401 C 232.2 -2.007 0.179341 0
M  V30 2402 O 231.256 -2.4856 -0.444295 0
M  V30 2403 C 232.569 -1.46447 2.62628 0
M  V30 2404 C 234.117 -1.58144 2.7011 0
M  V30 2405 C 234.592 -2.1055 4.06734 0
M  V30 2406 N 236.083 -2.17861 4.08767 0
M  V30 2407 C 236.818 -2.59519 5.1131 0
M  V30 2408 N 236.314 -3.00518 6.24228 0
M  V30 2409 N 238.107 -2.59404 4.98664 0
M  V30 2410 H 230.258 0.0240528 2.12386 0
M  V30 2411 H 232.521 -0.0518065 0.946583 0
M  V30 2412 H 232.227 -0.780123 3.42939 0
M  V30 2413 H 232.101 -2.44058 2.87603 0
M  V30 2414 H 234.488 -2.25682 1.90136 0
M  V30 2415 H 234.569 -0.589828 2.48907 0
M  V30 2416 H 234.213 -1.43616 4.87172 0
M  V30 2417 H 234.143 -3.10531 4.25298 0
M  V30 2418 H 236.634 -1.88975 3.27257 0
M  V30 2419 H 236.947 -3.31036 6.98309 0
M  V30 2420 H 235.292 -2.98337 6.2771 0
M  V30 2421 H 238.483 -2.26747 4.09516 0
M  V30 2422 H 238.656 -2.91548 5.78709 0
M  V30 2423 N 232.062 -1.29571 -0.897171 0
M  V30 2424 C 232.992 -1.17473 -2.01798 0
M  V30 2425 C 233.973 -0.068323 -1.69963 0
M  V30 2426 O 235.158 -0.248239 -1.92607 0
M  V30 2427 C 232.288 -0.853099 -3.36659 0
M  V30 2428 C 231.242 -1.9161 -3.82713 0
M  V30 2429 C 230.568 -1.44773 -5.14728 0
M  V30 2430 C 231.868 -3.32535 -4.02763 0
M  V30 2431 H 233.562 -2.11237 -2.12177 0
M  V30 2432 H 231.108 -1.01699 -1.01948 0
M  V30 2433 H 233.061 -0.755165 -4.14578 0
M  V30 2434 H 231.785 0.120236 -3.26379 0
M  V30 2435 H 230.444 -2.00346 -3.07013 0
M  V30 2436 H 230.092 -0.462995 -5.00865 0
M  V30 2437 H 229.792 -2.15865 -5.46513 0
M  V30 2438 H 231.316 -1.36334 -5.95185 0
M  V30 2439 H 232.73 -3.26626 -4.71156 0
M  V30 2440 H 231.127 -4.01607 -4.45905 0
M  V30 2441 H 232.197 -3.75326 -3.07016 0
M  V30 2442 N 233.54 1.10788 -1.12088 0
M  V30 2443 C 234.503 2.15207 -0.788577 0
M  V30 2444 C 235.503 1.59609 0.195317 0
M  V30 2445 O 236.693 1.74174 -0.0300193 0
M  V30 2446 C 233.825 3.4047 -0.171174 0
M  V30 2447 H 235.018 2.46116 -1.71368 0
M  V30 2448 H 232.571 1.26089 -0.923652 0
M  V30 2449 H 233.306 3.15176 0.763832 0
M  V30 2450 H 233.091 3.82109 -0.879514 0
M  V30 2451 H 234.581 4.17576 0.04496 0
M  V30 2452 N 235.018 0.912232 1.28515 0
M  V30 2453 C 235.948 0.416403 2.29757 0
M  V30 2454 C 236.929 -0.515194 1.6211 0
M  V30 2455 O 238.114 -0.423253 1.89532 0
M  V30 2456 C 235.244 -0.34572 3.45575 0
M  V30 2457 C 234.198 0.496599 4.25109 0
M  V30 2458 C 233.524 -0.393771 5.33248 0
M  V30 2459 C 234.824 1.75307 4.92001 0
M  V30 2460 H 236.518 1.26249 2.7148 0
M  V30 2461 H 234.064 0.608515 1.30511 0
M  V30 2462 H 236.017 -0.703422 4.15488 0
M  V30 2463 H 234.741 -1.2257 3.02728 0
M  V30 2464 H 233.4 0.8368 3.56922 0
M  V30 2465 H 233.048 -1.27225 4.86644 0
M  V30 2466 H 232.748 0.166209 5.87365 0
M  V30 2467 H 234.272 -0.747389 6.06009 0
M  V30 2468 H 235.686 1.46437 5.54283 0
M  V30 2469 H 234.083 2.25534 5.56106 0
M  V30 2470 H 235.153 2.48176 4.16577 0
M  V30 2471 N 236.496 -1.42363 0.676048 0
M  V30 2472 C 237.443 -2.308 -0.00150904 0
M  V30 2473 C 238.413 -1.46032 -0.791444 0
M  V30 2474 O 239.598 -1.74861 -0.76344 0
M  V30 2475 C 236.738 -3.31883 -0.945919 0
M  V30 2476 C 235.851 -4.31741 -0.149675 0
M  V30 2477 C 234.986 -5.19898 -1.08995 0
M  V30 2478 C 234.025 -6.11434 -0.285465 0
M  V30 2479 N 233.162 -6.92138 -1.17851 0
M  V30 2480 H 238.002 -2.88187 0.758455 0
M  V30 2481 H 235.539 -1.41952 0.38576 0
M  V30 2482 H 237.497 -3.89019 -1.50731 0
M  V30 2483 H 236.127 -2.76093 -1.6725 0
M  V30 2484 H 235.179 -3.76713 0.528359 0
M  V30 2485 H 236.491 -4.96534 0.474866 0
M  V30 2486 H 235.645 -5.81772 -1.72123 0
M  V30 2487 H 234.384 -4.55284 -1.74837 0
M  V30 2488 H 233.389 -5.48627 0.359018 0
M  V30 2489 H 234.614 -6.78097 0.368883 0
M  V30 2490 H 232.56 -6.30152 -1.82332 0
M  V30 2491 H 232.477 -7.53542 -0.609082 0
M  V30 2492 H 233.745 -7.58499 -1.79722 0
M  V30 2493 N 237.974 -0.419461 -1.51915 0
M  V30 2494 C 238.922 0.415502 -2.28859 0
M  V30 2495 C 239.916 1.03674 -1.3397 0
M  V30 2496 O 241.122 0.973757 -1.51387 0
M  V30 2497 H 237.497 0.152786 -0.736315 0
M  V30 2498 H 239.468 -0.254531 -2.97312 0
M  V30 2499 C 238.217 1.51425 -3.12995 0
M  V30 2500 H 237.54 1.04556 -3.85886 0
M  V30 2501 H 238.98 2.07208 -3.6992 0
M  V30 2502 C 237.439 2.48745 -2.27217 0
M  V30 2503 O 237.969 3.52871 -1.9195 0
M  V30 2504 N 236.175 2.19202 -1.90785 0
M  V30 2505 H 235.722 1.34556 -2.19664 0
M  V30 2506 H 235.68 2.84561 -1.33687 0
M  V30 2507 N 239.452 1.56882 -0.150215 0
M  V30 2508 C 240.701 1.95403 0.500071 0
M  V30 2509 C 241.014 1.03777 1.658 0
M  V30 2510 O 242.22 1.31889 2.37313 0
M  V30 2511 C 240.676 3.4738 0.941018 0
M  V30 2512 C 240.284 4.47596 -0.190158 0
M  V30 2513 C 242.028 3.9476 1.56091 0
M  V30 2514 C 239.935 5.90787 0.269237 0
M  V30 2515 H 238.865 0.729515 0.190588 0
M  V30 2516 H 241.516 1.81988 -0.235074 0
M  V30 2517 H 239.898 3.56138 1.73152 0
M  V30 2518 H 241.072 4.50536 -0.967157 0
M  V30 2519 H 239.387 4.10151 -0.718666 0
M  V30 2520 H 241.984 4.99181 1.9163 0
M  V30 2521 H 242.327 3.36494 2.45107 0
M  V30 2522 H 242.86 3.88932 0.835249 0
M  V30 2523 H 239.599 6.52879 -0.585621 0
M  V30 2524 H 239.119 5.912 1.01204 0
M  V30 2525 H 240.798 6.42979 0.720176 0
M  V30 2526 N 240.93 -0.123565 1.57115 0
M  V30 2527 C 241.893 -1.13583 1.99076 0
M  V30 2528 C 242.893 -1.34564 0.880296 0
M  V30 2529 O 244.083 -1.31158 1.14644 0
M  V30 2530 C 241.215 -2.49128 2.32698 0
M  V30 2531 H 242.408 -0.775287 2.89706 0
M  V30 2532 H 239.961 -0.36771 1.51913 0
M  V30 2533 H 240.696 -2.90111 1.44934 0
M  V30 2534 H 240.481 -2.35255 3.13684 0
M  V30 2535 H 241.971 -3.2199 2.65918 0
M  V30 2536 N 242.408 -1.52605 -0.393616 0
M  V30 2537 C 243.633 -1.71592 -1.16495 0
M  V30 2538 C 244.058 -0.43133 -1.83088 0
M  V30 2539 O 243.416 0.612523 -1.7064 0
M  V30 2540 C 243.464 -2.86318 -2.19213 0
M  V30 2541 O 242.568 -2.52969 -3.257 0
M  V30 2542 H 241.909 -0.570734 -0.33935 0
M  V30 2543 H 244.439 -1.99377 -0.459324 0
M  V30 2544 H 244.449 -3.1168 -2.63286 0
M  V30 2545 H 243.124 -3.79511 -1.7013 0
M  V30 2546 H 241.701 -2.38332 -2.86797 0
M  V30 2547 N 243.887 0.651787 -1.4349 0
M  V30 2548 C 244.82 1.77668 -1.43211 0
M  V30 2549 C 245.798 1.59931 -0.29338 0
M  V30 2550 O 246.982 1.82095 -0.487191 0
M  V30 2551 C 244.109 3.14986 -1.24505 0
M  V30 2552 C 243.155 3.51421 -2.41673 0
M  V30 2553 S 243.988 3.51234 -4.04222 0
M  V30 2554 C 245.144 4.91206 -3.87902 0
M  V30 2555 H 245.377 1.77635 -2.38397 0
M  V30 2556 H 242.91 0.824558 -1.30539 0
M  V30 2557 H 244.868 3.94237 -1.144 0
M  V30 2558 H 243.529 3.1258 -0.308651 0
M  V30 2559 H 242.722 4.51291 -2.24393 0
M  V30 2560 H 242.324 2.79585 -2.48411 0
M  V30 2561 H 244.616 5.79902 -3.50315 0
M  V30 2562 H 245.559 5.13537 -4.8753 0
M  V30 2563 H 245.967 4.64808 -3.20334 0
M  V30 2564 N 245.365 1.30045 0.890287 0
M  V30 2565 C 246.611 1.18737 1.64406 0
M  V30 2566 C 246.944 -0.258525 1.92472 0
M  V30 2567 O 246.219 -1.18562 1.54186 0
M  V30 2568 C 246.502 2.01087 2.98724 0
M  V30 2569 C 246.355 3.53867 2.77665 0
M  V30 2570 C 247.674 1.84457 3.9958 0
M  V30 2571 H 244.793 0.432698 0.596608 0
M  V30 2572 H 247.435 1.5962 1.0306 0
M  V30 2573 H 245.585 1.66349 3.51084 0
M  V30 2574 H 247.257 3.98637 2.32133 0
M  V30 2575 H 245.5 3.78318 2.12269 0
M  V30 2576 H 246.171 4.06772 3.7315 0
M  V30 2577 H 248.647 2.14817 3.56361 0
M  V30 2578 H 247.523 2.44411 4.91482 0
M  V30 2579 H 247.784 0.802276 4.3476 0
M  V30 2580 N 246.843 -1.10192 1.12674 0
M  V30 2581 C 248.259 -1.34235 0.863317 0
M  V30 2582 C 248.459 -1.95062 -0.505277 0
M  V30 2583 O 247.515 -2.19192 -1.25345 0
M  V30 2584 C 248.828 -2.2616 1.98172 0
M  V30 2585 C 250.376 -2.3969 2.0129 0
M  V30 2586 C 250.851 -3.34946 3.1237 0
M  V30 2587 N 252.342 -3.42515 3.11829 0
M  V30 2588 C 253.077 -4.16199 3.94419 0
M  V30 2589 N 252.573 -4.92747 4.87004 0
M  V30 2590 N 254.366 -4.11843 3.82547 0
M  V30 2591 H 246.517 -0.690798 2.00853 0
M  V30 2592 H 248.78 -0.366774 0.874174 0
M  V30 2593 H 248.486 -1.8868 2.96804 0
M  V30 2594 H 248.36 -3.26488 1.88906 0
M  V30 2595 H 250.747 -2.76438 1.03276 0
M  V30 2596 H 250.828 -1.39169 2.14629 0
M  V30 2597 H 250.472 -2.98923 4.10619 0
M  V30 2598 H 250.402 -4.35353 2.96269 0
M  V30 2599 H 252.893 -2.87926 2.44759 0
M  V30 2600 H 253.206 -5.46376 5.46528 0
M  V30 2601 H 251.551 -4.91862 4.91016 0
M  V30 2602 H 254.742 -3.51136 3.0955 0
M  V30 2603 H 254.915 -4.69007 4.47142 0
M  V30 2604 N 248.321 -0.919034 -1.28029 0
M  V30 2605 C 249.284 -0.416182 -2.2539 0
M  V30 2606 C 250.284 0.460438 -1.54067 0
M  V30 2607 O 251.474 0.262744 -1.72207 0
M  V30 2608 C 248.606 0.402707 -3.38513 0
M  V30 2609 H 249.799 -1.27629 -2.71387 0
M  V30 2610 H 247.352 -0.698919 -1.39803 0
M  V30 2611 H 248.087 1.282 -2.97885 0
M  V30 2612 H 247.872 -0.225698 -3.9145 0
M  V30 2613 H 249.362 0.745191 -4.10897 0
M  V30 2614 N 249.799 1.42003 -0.683588 0
M  V30 2615 C 251.047 2.01015 -0.209101 0
M  V30 2616 C 251.368 1.54365 1.19149 0
M  V30 2617 O 250.638 0.769083 1.80172 0
M  V30 2618 H 249.218 0.743294 -0.074315 0
M  V30 2619 H 251.88 1.73798 -0.882066 0
M  V30 2620 H 250.976 3.11343 -0.2172 0
M  V30 2621 N 251.277 0.427512 1.51691 0
M  V30 2622 C 252.525 -0.141948 2.01601 0
M  V30 2623 C 252.846 -1.44067 1.31414 0
M  V30 2624 O 252.116 -1.90763 0.445658 0
M  V30 2625 H 250.696 -0.0554468 0.744939 0
M  V30 2626 H 253.358 0.567968 1.86441 0
M  V30 2627 H 252.454 -0.324913 3.10404 0
M  V30 2628 N 252.755 -1.56801 0.158532 0
M  V30 2629 C 253.685 -2.20347 -0.772609 0
M  V30 2630 C 254.666 -1.15518 -1.24859 0
M  V30 2631 O 255.851 -1.43902 -1.30406 0
M  V30 2632 C 252.981 -2.83417 -2.00729 0
M  V30 2633 C 251.935 -3.94174 -1.66765 0
M  V30 2634 C 251.261 -4.44233 -2.97592 0
M  V30 2635 C 252.561 -5.14392 -0.905447 0
M  V30 2636 H 254.255 -2.98413 -0.242959 0
M  V30 2637 H 251.801 -1.43537 -0.115419 0
M  V30 2638 H 253.754 -3.26543 -2.6636 0
M  V30 2639 H 252.478 -2.02701 -2.56086 0
M  V30 2640 H 251.137 -3.51684 -1.03508 0
M  V30 2641 H 250.785 -3.60325 -3.50963 0
M  V30 2642 H 250.485 -5.18945 -2.75626 0
M  V30 2643 H 252.009 -4.90037 -3.64274 0
M  V30 2644 H 253.423 -5.5429 -1.46408 0
M  V30 2645 H 251.82 -5.9494 -0.7853 0
M  V30 2646 H 252.89 -4.84795 0.100668 0
M  V30 2647 N 254.233 0.115231 -1.57178 0
M  V30 2648 C 255.163 1.1423 -2.03651 0
M  V30 2649 C 256.144 1.42967 -0.921655 0
M  V30 2650 O 257.329 1.53343 -1.19162 0
M  V30 2651 C 254.459 2.4675 -2.44401 0
M  V30 2652 C 253.413 2.32467 -3.59365 0
M  V30 2653 C 252.739 3.69984 -3.86026 0
M  V30 2654 C 254.039 1.78203 -4.90959 0
M  V30 2655 H 255.733 0.755749 -2.89705 0
M  V30 2656 H 253.279 0.362093 -1.39373 0
M  V30 2657 H 255.232 3.18854 -2.75517 0
M  V30 2658 H 253.956 2.87302 -1.55322 0
M  V30 2659 H 252.615 1.62811 -3.28463 0
M  V30 2660 H 252.263 4.08028 -2.94147 0
M  V30 2661 H 251.963 3.61279 -4.63412 0
M  V30 2662 H 253.487 4.43587 -4.19599 0
M  V30 2663 H 254.901 2.40128 -5.20587 0
M  V30 2664 H 253.298 1.8031 -5.72371 0
M  V30 2665 H 254.368 0.739876 -4.79222 0
M  V30 2666 N 255.711 1.52812 0.385517 0
M  V30 2667 C 256.957 1.68275 1.13188 0
M  V30 2668 C 257.29 0.423179 1.89533 0
M  V30 2669 O 256.565 -0.579113 1.85679 0
M  V30 2670 C 256.848 2.92001 2.1073 0
M  V30 2671 C 256.701 4.28067 1.38125 0
M  V30 2672 C 258.02 3.11283 3.11113 0
M  V30 2673 H 255.139 0.612352 0.410115 0
M  V30 2674 H 257.781 1.85415 0.414869 0
M  V30 2675 H 255.931 2.77519 2.71874 0
M  V30 2676 H 257.603 4.54324 0.799187 0
M  V30 2677 H 255.846 4.28388 0.683092 0
M  V30 2678 H 256.517 5.10733 2.09417 0
M  V30 2679 H 258.993 3.2482 2.6006 0
M  V30 2680 H 257.869 3.99325 3.76605 0
M  V30 2681 H 258.13 2.25656 3.80173 0
M  V30 2682 N 257.189 -0.644168 1.43834 0
M  V30 2683 C 258.438 -1.39985 1.45214 0
M  V30 2684 C 258.751 -1.95421 0.0835494 0
M  V30 2685 O 259.957 -2.71488 -0.0251748 0
M  V30 2686 C 258.413 -2.53384 2.55587 0
M  V30 2687 C 258.021 -2.04517 3.98594 0
M  V30 2688 C 259.765 -3.30685 2.66172 0
M  V30 2689 C 257.672 -3.1518 5.00416 0
M  V30 2690 H 256.602 -0.526005 0.540218 0
M  V30 2691 H 259.253 -0.694367 1.69855 0
M  V30 2692 H 257.635 -3.26446 2.24163 0
M  V30 2693 H 258.809 -1.38405 4.39523 0
M  V30 2694 H 257.124 -1.40068 3.92135 0
M  V30 2695 H 259.721 -4.13158 3.39418 0
M  V30 2696 H 260.064 -3.79312 1.71546 0
M  V30 2697 H 260.597 -2.64708 2.96942 0
M  V30 2698 H 257.336 -2.71511 5.96625 0
M  V30 2699 H 256.856 -3.79974 4.64091 0
M  V30 2700 H 258.535 -3.80166 5.23529 0
M  V30 2701 N 258.668 -1.30515 -0.883378 0
M  V30 2702 C 259.945 -1.10086 -1.6168 0
M  V30 2703 C 260.325 0.349269 -2.08191 0
M  V30 2704 O 259.673 1.34105 -1.85008 0
M  V30 2705 C 259.883 -2.10315 -2.78511 0
M  V30 2706 C 261.231 -2.42119 -3.48803 0
M  V30 2707 O 262.255 -2.08638 -2.88702 0
M  V30 2708 O 261.114 -2.99396 -4.57192 0
M  V30 2709 H 258.208 -0.422907 -0.710689 0
M  V30 2710 H 260.754 -1.41947 -0.930015 0
M  V30 2711 H 259.526 -3.07917 -2.41459 0
M  V30 2712 H 259.149 -1.79282 -3.54886 0
M  V30 2713 N 260.146 1.09593 -1.13257 0
M  V30 2714 C 261.096 2.14345 -0.777179 0
M  V30 2715 C 262.08 1.59277 0.227966 0
M  V30 2716 O 263.272 1.76971 0.0321413 0
M  V30 2717 C 260.401 3.42439 -0.242991 0
M  V30 2718 C 259.487 4.04419 -1.27694 0
M  V30 2719 N 259.878 4.40979 -2.47732 0
M  V30 2720 C 258.176 4.31596 -1.12432 0
M  V30 2721 C 258.877 4.89784 -3.13826 0
M  V30 2722 N 257.853 4.87133 -2.41252 0
M  V30 2723 H 261.655 2.40415 -1.69049 0
M  V30 2724 H 259.169 1.26803 -1.01463 0
M  V30 2725 H 261.166 4.16889 0.0298496 0
M  V30 2726 H 259.826 3.17824 0.66467 0
M  V30 2727 H 260.837 4.32396 -2.85051 0
M  V30 2728 H 257.514 4.16595 -0.274684 0
M  V30 2729 H 258.904 5.2755 -4.16102 0
M  V30 2730 N 261.624 0.925811 1.2754 0
M  V30 2731 C 263.04 0.625767 1.46821 0
M  V30 2732 C 263.24 -0.825506 1.83814 0
M  V30 2733 O 262.296 -1.60356 1.95044 0
M  V30 2734 C 263.609 1.57402 2.56213 0
M  V30 2735 C 265.157 1.58204 2.70075 0
M  V30 2736 C 265.632 2.51721 3.82623 0
M  V30 2737 N 267.123 2.49917 3.89994 0
M  V30 2738 C 267.858 3.18968 4.76494 0
M  V30 2739 N 267.354 3.97391 5.67496 0
M  V30 2740 N 269.147 3.07996 4.70208 0
M  V30 2741 H 261.298 1.86409 1.01811 0
M  V30 2742 H 263.561 0.800213 0.508295 0
M  V30 2743 H 263.267 2.60925 2.35819 0
M  V30 2744 H 263.141 1.31428 3.53563 0
M  V30 2745 H 265.528 0.554124 2.89851 0
M  V30 2746 H 265.609 1.88226 1.73218 0
M  V30 2747 H 265.253 3.54622 3.63601 0
M  V30 2748 H 265.183 2.18996 4.78903 0
M  V30 2749 H 267.674 1.9296 3.24923 0
M  V30 2750 H 267.987 4.4707 6.30356 0
M  V30 2751 H 266.332 4.01495 5.67298 0
M  V30 2752 H 269.523 2.46223 3.9811 0
M  V30 2753 H 269.696 3.6208 5.37403 0
M  V30 2754 N 263.102 -1.41638 0.69111 0
M  V30 2755 C 264.05 -2.32597 0.0115199 0
M  V30 2756 C 265.044 -1.5072 -0.773296 0
M  V30 2757 O 266.25 -1.66685 -0.67942 0
M  V30 2758 H 262.625 -0.751849 -0.0150746 0
M  V30 2759 H 264.596 -2.87593 0.795791 0
M  V30 2760 C 263.345 -3.35467 -0.914172 0
M  V30 2761 H 262.668 -3.9852 -0.319687 0
M  V30 2762 H 264.108 -4.01662 -1.35808 0
M  V30 2763 C 262.567 -2.69004 -2.02826 0
M  V30 2764 O 263.097 -2.53444 -3.11655 0
M  V30 2765 N 261.303 -2.2777 -1.80469 0
M  V30 2766 H 260.85 -2.40626 -0.919615 0
M  V30 2767 H 260.808 -1.83635 -2.55197 0
M  V30 2768 N 264.58 -0.43555 -1.51462 0
M  V30 2769 C 265.81 0.130053 -2.0619 0
M  V30 2770 C 266.218 1.37164 -1.30317 0
M  V30 2771 O 265.561 1.80225 -0.355598 0
M  V30 2772 C 265.623 0.519418 -3.55728 0
M  V30 2773 C 265.287 -0.615119 -4.52841 0
M  V30 2774 C 266.284 -1.48671 -4.9819 0
M  V30 2775 C 263.969 -0.795341 -4.95963 0
M  V30 2776 C 265.963 -2.52324 -5.8533 0
M  V30 2777 C 263.65 -1.83514 -5.82894 0
M  V30 2778 C 264.648 -2.69748 -6.27475 0
M  V30 2779 O 264.336 -3.71944 -7.1268 0
M  V30 2780 H 264.068 0.0121612 -0.675891 0
M  V30 2781 H 266.622 -0.6129 -1.96043 0
M  V30 2782 H 264.852 1.31505 -3.63653 0
M  V30 2783 H 266.541 1.01597 -3.92979 0
M  V30 2784 H 267.307 -1.359 -4.65571 0
M  V30 2785 H 263.186 -0.133713 -4.60806 0
M  V30 2786 H 266.73 -3.19665 -6.20048 0
M  V30 2787 H 262.627 -1.96306 -6.14926 0
M  V30 2788 H 263.395 -3.68503 -7.30854 0
M  V30 2789 N 266.058 1.56714 -0.166846 0
M  V30 2790 C 267.335 1.88412 0.525373 0
M  V30 2791 C 267.715 1.07602 1.81618 0
M  V30 2792 O 267.063 0.168621 2.27877 0
M  V30 2793 C 267.273 3.40363 0.771613 0
M  V30 2794 C 268.621 4.10007 1.1036 0
M  V30 2795 O 269.645 3.45655 0.860304 0
M  V30 2796 O 268.504 5.2369 1.56239 0
M  V30 2797 H 265.598 0.781587 0.270278 0
M  V30 2798 H 268.144 1.68458 -0.204946 0
M  V30 2799 H 266.916 3.91046 -0.141093 0
M  V30 2800 H 266.539 3.65914 1.55541 0
M  V30 2801 N 267.536 -0.106894 1.57237 0
M  V30 2802 C 268.486 -1.1366 1.9765 0
M  V30 2803 C 269.47 -1.36416 0.853203 0
M  V30 2804 O 270.662 -1.37305 1.11697 0
M  V30 2805 C 267.791 -2.46 2.39455 0
M  V30 2806 C 266.877 -2.26668 3.58445 0
M  V30 2807 N 267.268 -1.77176 4.73754 0
M  V30 2808 C 265.566 -2.57279 3.64312 0
M  V30 2809 C 266.267 -1.71836 5.5574 0
M  V30 2810 N 265.243 -2.16623 4.98573 0
M  V30 2811 H 269.045 -0.74669 2.84256 0
M  V30 2812 H 266.559 -0.314483 1.59326 0
M  V30 2813 H 268.556 -3.2049 2.6663 0
M  V30 2814 H 267.216 -2.85738 1.54219 0
M  V30 2815 H 268.227 -1.46545 4.96734 0
M  V30 2816 H 264.904 -3.00622 2.89711 0
M  V30 2817 H 266.294 -1.34723 6.58255 0
M  V30 2818 N 269.014 -1.53014 -0.377408 0
M  V30 2819 C 270.263 -1.67845 -1.11853 0
M  V30 2820 C 270.576 -0.430625 -1.90801 0
M  V30 2821 O 271.782 -0.459261 -2.67587 0
M  V30 2822 C 270.238 -2.96668 -2.03756 0
M  V30 2823 C 269.846 -4.28671 -1.30175 0
M  V30 2824 C 271.59 -3.20865 -2.77932 0
M  V30 2825 C 269.497 -5.48591 -2.20911 0
M  V30 2826 H 268.427 -0.625343 -0.421263 0
M  V30 2827 H 271.078 -1.79514 -0.380409 0
M  V30 2828 H 269.46 -2.78773 -2.8125 0
M  V30 2829 H 270.634 -4.57157 -0.578259 0
M  V30 2830 H 268.949 -4.10825 -0.679108 0
M  V30 2831 H 271.546 -4.07642 -3.46024 0
M  V30 2832 H 271.889 -2.36424 -3.4265 0
M  V30 2833 H 272.422 -3.39379 -2.07525 0
M  V30 2834 H 269.161 -6.35474 -1.6079 0
M  V30 2835 H 268.681 -5.244 -2.91144 0
M  V30 2836 H 270.36 -5.8292 -2.80736 0
M  V30 2837 N 270.492 0.636531 -1.44174 0
M  V30 2838 C 271.422 1.76003 -1.53444 0
M  V30 2839 C 272.403 1.65619 -0.387841 0
M  V30 2840 O 273.588 1.84461 -0.607257 0
M  V30 2841 C 270.718 3.14511 -1.4731 0
M  V30 2842 C 269.672 3.39677 -2.60391 0
M  V30 2843 C 268.998 4.78159 -2.39308 0
M  V30 2844 C 270.298 3.32772 -4.02567 0
M  V30 2845 H 271.992 1.68501 -2.47483 0
M  V30 2846 H 269.538 0.809237 -1.19111 0
M  V30 2847 H 271.491 3.92878 -1.52397 0
M  V30 2848 H 270.215 3.22783 -0.49785 0
M  V30 2849 H 268.874 2.63688 -2.54684 0
M  V30 2850 H 268.522 4.83128 -1.39988 0
M  V30 2851 H 268.222 4.95956 -3.15122 0
M  V30 2852 H 269.746 5.58762 -2.46205 0
M  V30 2853 H 271.16 4.01051 -4.09672 0
M  V30 2854 H 269.557 3.62104 -4.7854 0
M  V30 2855 H 270.627 2.30669 -4.2652 0
M  V30 2856 N 271.97 1.30982 0.876444 0
M  V30 2857 C 273.195 1.23373 1.66715 0
M  V30 2858 C 273.62 -0.19885 1.87046 0
M  V30 2859 O 272.978 -1.1427 1.40756 0
M  V30 2860 C 273.026 1.97644 3.01611 0
M  V30 2861 O 272.13 1.30935 3.91062 0
M  V30 2862 H 271.471 0.426279 0.509099 0
M  V30 2863 H 274.001 1.72944 1.09323 0
M  V30 2864 H 274.011 2.06992 3.51594 0
M  V30 2865 H 272.686 3.01829 2.86133 0
M  V30 2866 H 271.263 1.29996 3.49507 0
M  V30 2867 N 273.449 -1.08991 1.13837 0
M  V30 2868 C 274.677 -1.85011 0.926202 0
M  V30 2869 C 275.092 -1.8135 -0.525127 0
M  V30 2870 O 274.449 -1.21287 -1.36366 0
M  V30 2871 C 274.5 -3.32802 1.41155 0
M  V30 2872 O 274.221 -3.36444 2.80601 0
M  V30 2873 C 275.722 -4.25649 1.23847 0
M  V30 2874 H 272.942 -0.584249 0.32999 0
M  V30 2875 H 275.486 -1.37688 1.51202 0
M  V30 2876 H 273.641 -3.77536 0.868631 0
M  V30 2877 H 274.055 -4.28657 3.02248 0
M  V30 2878 H 275.529 -5.27485 1.62675 0
M  V30 2879 H 276.006 -4.38828 0.18065 0
M  V30 2880 H 276.612 -3.86735 1.76964 0
M  V30 2881 N 274.927 -0.932562 -1.27047 0
M  V30 2882 C 276.175 -0.574422 -1.93765 0
M  V30 2883 C 276.496 0.887993 -1.73608 0
M  V30 2884 O 275.766 1.62999 -1.08665 0
M  V30 2885 H 274.346 -0.209451 -0.717035 0
M  V30 2886 H 277.008 -1.18601 -1.5466 0
M  V30 2887 H 276.104 -0.784841 -3.02071 0
M  V30 2888 N 276.405 1.4127 -0.698611 0
M  V30 2889 C 277.645 2.03044 -0.235062 0
M  V30 2890 C 278.009 1.54146 1.14468 0
M  V30 2891 O 279.21 2.07867 1.70425 0
M  V30 2892 C 277.481 3.56192 -0.293651 0
M  V30 2893 S 279.04 4.38696 0.0954053 0
M  V30 2894 H 275.858 0.704697 -0.0944648 0
M  V30 2895 H 278.46 1.72656 -0.917064 0
M  V30 2896 H 277.164 3.89274 -1.29977 0
M  V30 2897 H 276.695 3.91285 0.407397 0
M  V30 2898 H 278.71 4.78257 1.3223 0
M  V30 2899 N 277.883 0.443576 1.51229 0
M  V30 2900 C 278.846 -0.353132 2.26463 0
M  V30 2901 C 279.846 -0.944338 1.3015 0
M  V30 2902 O 281.036 -0.817813 1.5381 0
M  V30 2903 C 278.168 -1.50023 3.06114 0
M  V30 2904 H 279.361 0.3063 2.98332 0
M  V30 2905 H 276.914 0.196902 1.55055 0
M  V30 2906 H 277.649 -2.19553 2.38677 0
M  V30 2907 H 277.434 -1.08241 3.76864 0
M  V30 2908 H 278.924 -2.06296 3.63087 0
M  V30 2909 N 279.361 -1.56624 0.175154 0
M  V30 2910 C 280.772 -1.83561 -0.340916 0
M  V30 2911 C 281.123 -1.09511 -1.62794 0
M  V30 2912 O 280.248 -0.349389 -2.13561 0
M  V30 2913 C 280.843 -3.32979 -0.625313 0
M  V30 2914 C 279.402 -3.60399 -1.08581 0
M  V30 2915 C 278.549 -2.77024 -0.123722 0
M  V30 2916 H 281.5 -1.53593 0.399344 0
M  V30 2917 H 281.521 -3.50666 -1.47694 0
M  V30 2918 H 281.033 -3.86847 0.311575 0
M  V30 2919 H 279.134 -3.11945 -2.03767 0
M  V30 2920 H 279.247 -4.68711 -0.992317 0
M  V30 2921 H 277.611 -2.46993 -0.621821 0
M  V30 2922 H 278.394 -3.33674 0.807256 0
M  V30 2923 N 280.839 0.0985539 -1.57292 0
M  V30 2924 C 282.25 0.653457 -1.74891 0
M  V30 2925 C 282.601 1.7929 -0.796838 0
M  V30 2926 O 281.726 2.16385 0.0254886 0
M  V30 2927 C 282.321 1.19216 -3.17133 0
M  V30 2928 C 280.88 1.69316 -3.36168 0
M  V30 2929 C 280.027 0.601294 -2.70702 0
M  V30 2930 H 282.978 -0.127497 -1.58187 0
M  V30 2931 H 282.999 2.06154 -3.19814 0
M  V30 2932 H 282.511 0.362635 -3.86402 0
M  V30 2933 H 280.612 2.5468 -2.71972 0
M  V30 2934 H 280.725 1.78853 -4.44464 0
M  V30 2935 H 279.089 1.0399 -2.32504 0
M  V30 2936 H 279.872 -0.217592 -3.4261 0
M  V30 2937 N 282.317 1.53212 0.369288 0
M  V30 2938 C 283.565 1.68881 1.11012 0
M  V30 2939 C 283.886 0.441285 1.89941 0
M  V30 2940 O 283.156 -0.544623 1.88177 0
M  V30 2941 H 281.736 0.622569 0.412816 0
M  V30 2942 H 284.398 1.90391 0.416802 0
M  V30 2943 H 283.494 2.54822 1.80201 0
M  V30 2944 N 283.795 -0.628877 1.44509 0
M  V30 2945 C 284.742 -1.74074 1.51549 0
M  V30 2946 C 285.712 -1.62084 0.363021 0
M  V30 2947 O 286.897 -1.81975 0.573567 0
M  V30 2948 C 284.037 -3.12328 1.46784 0
M  V30 2949 C 283.15 -3.35277 2.72422 0
M  V30 2950 C 282.285 -4.63515 2.59475 0
M  V30 2951 C 281.324 -4.7965 3.80266 0
M  V30 2952 N 280.461 -5.99168 3.65981 0
M  V30 2953 H 285.301 -1.67392 2.46544 0
M  V30 2954 H 282.838 -0.816527 1.22357 0
M  V30 2955 H 284.796 -3.92286 1.42012 0
M  V30 2956 H 283.426 -3.18018 0.553544 0
M  V30 2957 H 282.478 -2.49242 2.87372 0
M  V30 2958 H 283.79 -3.43078 3.62076 0
M  V30 2959 H 282.944 -5.51638 2.52548 0
M  V30 2960 H 281.683 -4.58076 1.67384 0
M  V30 2961 H 280.688 -3.89957 3.87574 0
M  V30 2962 H 281.913 -4.86902 4.73395 0
M  V30 2963 H 279.859 -5.94814 2.76644 0
M  V30 2964 H 279.776 -6.08035 4.49254 0
M  V30 2965 H 281.044 -6.89846 3.6295 0
M  V30 2966 N 285.273 -1.31445 -0.869486 0
M  V30 2967 C 286.221 -1.19067 -1.99814 0
M  V30 2968 C 287.215 -0.0988569 -1.69111 0
M  V30 2969 O 288.421 -0.260781 -1.78101 0
M  V30 2970 H 284.796 -0.368677 -0.655425 0
M  V30 2971 H 286.767 -2.14555 -2.07385 0
M  V30 2972 C 285.516 -0.915323 -3.35436 0
M  V30 2973 H 284.839 -1.74759 -3.59582 0
M  V30 2974 H 286.279 -0.868895 -4.15001 0
M  V30 2975 C 284.738 0.381928 -3.34728 0
M  V30 2976 O 285.268 1.39857 -3.76567 0
M  V30 2977 N 283.474 0.398633 -2.87853 0
M  V30 2978 H 283.021 -0.429186 -2.54 0
M  V30 2979 H 282.979 1.26651 -2.87762 0
M  V30 2980 N 286.751 1.08385 -1.14413 0
M  V30 2981 C 288 1.80153 -0.907076 0
M  V30 2982 C 288.313 1.87176 0.567851 0
M  V30 2983 O 289.519 2.55359 0.922172 0
M  V30 2984 C 287.975 3.23687 -1.57336 0
M  V30 2985 C 287.583 3.24897 -3.08457 0
M  V30 2986 C 289.327 4.00136 -1.41744 0
M  V30 2987 C 287.234 4.6302 -3.67921 0
M  V30 2988 H 286.164 0.675139 -0.335714 0
M  V30 2989 H 288.815 1.21733 -1.37307 0
M  V30 2990 H 287.197 3.82234 -1.03505 0
M  V30 2991 H 288.371 2.76055 -3.68958 0
M  V30 2992 H 286.686 2.61943 -3.2369 0
M  V30 2993 H 289.283 5.02201 -1.83572 0
M  V30 2994 H 289.626 4.14709 -0.363576 0
M  V30 2995 H 290.159 3.48058 -1.92614 0
M  V30 2996 H 286.898 4.5365 -4.73161 0
M  V30 2997 H 286.418 5.12143 -3.12201 0
M  V30 2998 H 288.097 5.31994 -3.68227 0
M  V30 2999 N 288.23 0.939286 1.26551 0
M  V30 3000 C 289.46 0.601663 1.97645 0
M  V30 3001 C 289.868 -0.827206 1.70159 0
M  V30 3002 O 289.211 -1.56291 0.965338 0
M  V30 3003 C 289.273 0.761725 3.51337 0
M  V30 3004 C 288.937 2.16487 4.0247 0
M  V30 3005 C 289.934 3.14016 4.14355 0
M  V30 3006 C 287.619 2.48494 4.36527 0
M  V30 3007 C 289.613 4.41654 4.59587 0
M  V30 3008 C 287.3 3.76364 4.81449 0
M  V30 3009 C 288.298 4.72758 4.92939 0
M  V30 3010 O 287.986 5.98352 5.36871 0
M  V30 3011 H 287.718 0.225758 0.637189 0
M  V30 3012 H 290.272 1.26178 1.62075 0
M  V30 3013 H 288.502 0.0444808 3.86674 0
M  V30 3014 H 290.191 0.427442 4.03643 0
M  V30 3015 H 290.957 2.90613 3.8829 0
M  V30 3016 H 286.836 1.74202 4.26819 0
M  V30 3017 H 290.38 5.16896 4.68471 0
M  V30 3018 H 286.277 3.99582 5.06956 0
M  V30 3019 H 287.045 6.01507 5.55096 0
M  V30 3020 N 289.708 -1.40897 0.706093 0
M  V30 3021 C 290.938 -2.05075 0.250523 0
M  V30 3022 C 291.346 -1.53275 -1.10921 0
M  V30 3023 O 290.689 -0.680281 -1.7064 0
M  V30 3024 C 290.751 -3.59219 0.142178 0
M  V30 3025 C 290.415 -4.33864 1.43566 0
M  V30 3026 C 291.412 -4.62448 2.37566 0
M  V30 3027 C 289.097 -4.72946 1.69195 0
M  V30 3028 C 291.091 -5.29088 3.5545 0
M  V30 3029 C 288.778 -5.3932 2.87362 0
M  V30 3030 C 289.776 -5.6732 3.80312 0
M  V30 3031 O 289.464 -6.32325 4.96408 0
M  V30 3032 H 289.196 -0.666645 0.112074 0
M  V30 3033 H 291.75 -1.81467 0.962239 0
M  V30 3034 H 289.98 -3.81609 -0.6254 0
M  V30 3035 H 291.669 -4.0495 -0.277584 0
M  V30 3036 H 292.435 -4.32727 2.19027 0
M  V30 3037 H 288.314 -4.50527 0.977042 0
M  V30 3038 H 291.858 -5.50859 4.28018 0
M  V30 3039 H 287.755 -5.68461 3.05814 0
M  V30 3040 H 288.523 -6.50821 4.9636 0
M  V30 3041 N 291.186 -0.45159 -1.50991 0
M  V30 3042 C 292.133 0.352625 -2.2809 0
M  V30 3043 C 293.103 1.0044 -1.32291 0
M  V30 3044 O 294.288 1.02058 -1.6121 0
M  V30 3045 C 291.428 1.43983 -3.13629 0
M  V30 3046 C 290.541 0.804772 -4.24438 0
M  V30 3047 C 289.676 1.86822 -4.97263 0
M  V30 3048 C 288.715 1.21236 -5.99973 0
M  V30 3049 N 287.852 2.2178 -6.66152 0
M  V30 3050 H 292.692 -0.311186 -2.96371 0
M  V30 3051 H 290.229 -0.165308 -1.46168 0
M  V30 3052 H 292.187 2.08161 -3.61559 0
M  V30 3053 H 290.817 2.07307 -2.47434 0
M  V30 3054 H 289.869 0.0509129 -3.80366 0
M  V30 3055 H 291.181 0.286076 -4.97979 0
M  V30 3056 H 290.335 2.58628 -5.48813 0
M  V30 3057 H 289.074 2.42068 -4.23385 0
M  V30 3058 H 288.079 0.479828 -5.47702 0
M  V30 3059 H 289.304 0.667051 -6.75816 0
M  V30 3060 H 287.25 2.76079 -5.95077 0
M  V30 3061 H 287.167 1.74841 -7.35504 0
M  V30 3062 H 288.435 2.93026 -7.22327 0
M  V30 3063 N 292.664 1.56529 -0.183458 0
M  V30 3064 C 293.889 2.02064 0.467428 0
M  V30 3065 C 294.314 1.06282 1.55196 0
M  V30 3066 O 293.672 0.0443565 1.81246 0
M  V30 3067 C 293.72 3.46122 1.01153 0
M  V30 3068 O 292.824 3.53437 2.12499 0
M  V30 3069 H 292.165 0.654726 0.110588 0
M  V30 3070 H 294.695 2.02521 -0.290917 0
M  V30 3071 H 294.705 3.85676 1.33108 0
M  V30 3072 H 293.38 4.15331 0.217533 0
M  V30 3073 H 291.957 3.2575 1.81497 0
M  V30 3074 N 294.142 -0.090211 1.57342 0
M  V30 3075 C 295.419 -0.824761 1.77361 0
M  V30 3076 C 295.799 -1.96698 0.76637 0
M  V30 3077 O 295.147 -2.27586 -0.204179 0
M  V30 3078 C 295.357 -1.31481 3.23286 0
M  V30 3079 C 296.705 -1.75563 3.86604 0
M  V30 3080 O 297.729 -1.41093 3.27065 0
M  V30 3081 O 296.588 -2.39317 4.91314 0
M  V30 3082 H 293.682 -0.393776 0.727234 0
M  V30 3083 H 296.228 -0.0717138 1.69548 0
M  V30 3084 H 295 -0.496671 3.88135 0
M  V30 3085 H 294.623 -2.12973 3.35751 0
M  V30 3086 N 295.62 -1.53406 -0.361157 0
M  V30 3087 C 296.55 -1.83136 -1.44857 0
M  V30 3088 C 297.531 -0.685174 -1.5569 0
M  V30 3089 O 298.716 -0.93544 -1.70186 0
M  V30 3090 C 295.846 -2.02522 -2.82138 0
M  V30 3091 C 294.8 -3.18302 -2.86126 0
M  V30 3092 C 294.126 -3.22989 -4.26125 0
M  V30 3093 C 295.426 -4.56796 -2.53248 0
M  V30 3094 H 297.12 -2.74201 -1.20226 0
M  V30 3095 H 294.666 -1.31938 -0.576922 0
M  V30 3096 H 296.619 -2.21904 -3.58241 0
M  V30 3097 H 295.343 -1.08172 -3.08166 0
M  V30 3098 H 294.002 -2.98747 -2.12475 0
M  V30 3099 H 293.65 -2.26267 -4.49235 0
M  V30 3100 H 293.35 -4.00781 -4.29708 0
M  V30 3101 H 294.874 -3.44559 -5.04094 0
M  V30 3102 H 296.288 -4.7631 -3.19064 0
M  V30 3103 H 294.685 -5.36862 -2.68141 0
M  V30 3104 H 295.755 -4.61606 -1.48484 0
M  V30 3105 N 297.098 0.621204 -1.44841 0
M  V30 3106 C 298.326 1.40752 -1.51646 0
M  V30 3107 C 298.741 1.88246 -0.144549 0
M  V30 3108 O 298.098 1.61422 0.851416 0
M  V30 3109 C 298.149 2.62119 -2.4895 0
M  V30 3110 O 297.87 2.16602 -3.80808 0
M  V30 3111 C 299.371 3.55135 -2.65319 0
M  V30 3112 H 296.591 0.431325 -0.514004 0
M  V30 3113 H 299.135 0.758835 -1.899 0
M  V30 3114 H 297.29 3.23058 -2.13805 0
M  V30 3115 H 297.704 2.95358 -4.33433 0
M  V30 3116 H 299.178 4.36874 -3.37409 0
M  V30 3117 H 299.655 4.04592 -1.70886 0
M  V30 3118 H 300.261 3.00058 -3.01405 0
M  V30 3119 N 298.576 1.31904 0.862503 0
M  V30 3120 C 299.523 1.20182 1.9704 0
M  V30 3121 C 300.493 0.0858247 1.65878 0
M  V30 3122 O 301.678 0.26 1.8902 0
M  V30 3123 C 298.818 0.922797 3.32533 0
M  V30 3124 C 297.931 2.12284 3.76244 0
M  V30 3125 C 297.066 1.77996 5.00491 0
M  V30 3126 C 296.105 2.94366 5.36671 0
M  V30 3127 N 295.242 2.60223 6.52095 0
M  V30 3128 H 300.082 2.14951 2.06398 0
M  V30 3129 H 297.619 1.06917 1.01031 0
M  V30 3130 H 299.577 0.741548 4.10557 0
M  V30 3131 H 298.207 0.0119227 3.22798 0
M  V30 3132 H 297.259 2.41461 2.9394 0
M  V30 3133 H 298.571 2.99357 3.98982 0
M  V30 3134 H 297.725 1.56377 5.862 0
M  V30 3135 H 296.464 0.881252 4.79672 0
M  V30 3136 H 295.469 3.16625 4.49476 0
M  V30 3137 H 296.694 3.84957 5.59451 0
M  V30 3138 H 294.64 1.72884 6.32809 0
M  V30 3139 H 294.557 3.40827 6.74814 0
M  V30 3140 H 295.825 2.42016 7.40978 0
M  V30 3141 N 300.054 -1.07777 1.14986 0
M  V30 3142 C 301.331 -1.7699 0.832695 0
M  V30 3143 C 301.711 -2.001 -0.672561 0
M  V30 3144 O 301.059 -1.61598 -1.6155 0
M  V30 3145 C 301.269 -3.08139 1.63863 0
M  V30 3146 C 302.617 -3.8256 1.84208 0
M  V30 3147 O 303.641 -3.17939 1.60603 0
M  V30 3148 O 302.5 -4.98612 2.23714 0
M  V30 3149 H 299.594 -0.768389 0.305791 0
M  V30 3150 H 302.14 -1.14182 1.25541 0
M  V30 3151 H 300.912 -2.86909 2.6608 0
M  V30 3152 H 300.535 -3.78678 1.21197 0
M  V30 3153 N 301.532 -0.945985 -1.26051 0
M  V30 3154 C 302.778 -0.597002 -1.93814 0
M  V30 3155 C 303.111 0.862484 -1.73997 0
M  V30 3156 O 302.386 1.61769 -1.07986 0
M  V30 3157 C 302.669 -0.945937 -3.47454 0
M  V30 3158 C 302.522 -2.46052 -3.76535 0
M  V30 3159 C 303.841 -0.464785 -4.37639 0
M  V30 3160 H 300.96 -0.218366 -0.703907 0
M  V30 3161 H 303.602 -1.18107 -1.48831 0
M  V30 3162 H 301.752 -0.448902 -3.85898 0
M  V30 3163 H 303.424 -3.03065 -3.47778 0
M  V30 3164 H 301.667 -2.90194 -3.22444 0
M  V30 3165 H 302.338 -2.65517 -4.83947 0
M  V30 3166 H 304.814 -0.891016 -4.06448 0
M  V30 3167 H 303.69 -0.737712 -5.4392 0
M  V30 3168 H 303.951 0.635274 -4.37512 0
M  V30 3169 N 303.011 1.40521 -0.713556 0
M  V30 3170 C 304.239 2.05237 -0.261775 0
M  V30 3171 C 304.654 1.53755 1.09567 0
M  V30 3172 O 304.011 0.693268 1.6882 0
M  V30 3173 C 304.062 3.60763 -0.230706 0
M  V30 3174 O 303.783 4.10345 -1.53455 0
M  V30 3175 C 305.284 4.42651 0.239874 0
M  V30 3176 H 302.504 0.660533 -0.118057 0
M  V30 3177 H 305.048 1.79967 -0.971192 0
M  V30 3178 H 303.203 3.8501 0.429661 0
M  V30 3179 H 303.617 5.04526 -1.43366 0
M  V30 3180 H 305.091 5.51599 0.210468 0
M  V30 3181 H 305.568 4.20082 1.28171 0
M  V30 3182 H 306.174 4.23507 -0.390142 0
M  V30 3183 N 304.489 0.459591 1.5075 0
M  V30 3184 C 305.717 -0.0973749 2.06671 0
M  V30 3185 C 306.132 -1.34524 1.32472 0
M  V30 3186 O 305.489 -1.7827 0.390634 0
M  V30 3187 C 305.54 -0.39714 3.59312 0
M  V30 3188 O 305.261 0.801214 4.30711 0
M  V30 3189 C 306.762 -1.00234 4.31819 0
M  V30 3190 H 303.982 0.00195854 0.670997 0
M  V30 3191 H 306.526 0.645072 1.94059 0
M  V30 3192 H 304.681 -1.08951 3.71764 0
M  V30 3193 H 305.095 0.538857 5.21725 0
M  V30 3194 H 306.569 -1.16193 5.39632 0
M  V30 3195 H 307.046 -1.98939 3.91561 0
M  V30 3196 H 307.652 -0.348699 4.23868 0
M  V30 3197 N 305.967 -1.56429 0.191757 0
M  V30 3198 C 307.192 -2.02309 -0.456706 0
M  V30 3199 C 307.617 -1.07103 -1.5463 0
M  V30 3200 O 306.975 -0.0539677 -1.8122 0
M  V30 3201 C 307.023 -3.46654 -0.993159 0
M  V30 3202 O 306.127 -3.54559 -2.10622 0
M  V30 3203 H 305.468 -0.655303 -0.107114 0
M  V30 3204 H 307.998 -2.02364 0.301653 0
M  V30 3205 H 308.008 -3.86377 -1.31061 0
M  V30 3206 H 306.683 -4.1544 -0.195504 0
M  V30 3207 H 305.26 -3.26708 -1.79767 0
M  V30 3208 N 307.445 0.0818655 -1.57387 0
M  V30 3209 C 308.691 0.784074 -1.8703 0
M  V30 3210 C 309.024 1.77729 -0.782689 0
M  V30 3211 O 308.299 1.93384 0.208051 0
M  V30 3212 C 308.582 1.50105 -3.27323 0
M  V30 3213 C 308.435 0.524925 -4.46727 0
M  V30 3214 C 309.754 2.44843 -3.65705 0
M  V30 3215 H 306.873 0.283582 -0.680257 0
M  V30 3216 H 309.515 0.0474352 -1.89941 0
M  V30 3217 H 307.665 2.12897 -3.24972 0
M  V30 3218 H 309.337 -0.0970111 -4.61198 0
M  V30 3219 H 307.58 -0.160606 -4.33503 0
M  V30 3220 H 308.251 1.064 -5.41648 0
M  V30 3221 H 310.727 1.92135 -3.69085 0
M  V30 3222 H 309.603 2.92018 -4.64776 0
M  V30 3223 H 309.864 3.29197 -2.95096 0
M  V30 3224 N 308.923 1.53595 0.353017 0
M  V30 3225 C 309.853 1.83902 1.43883 0
M  V30 3226 C 310.834 0.693421 1.55324 0
M  V30 3227 O 312.019 0.944452 1.69687 0
M  V30 3228 C 309.149 2.04016 2.8106 0
M  V30 3229 C 308.103 3.19814 2.84434 0
M  V30 3230 C 307.429 3.25244 4.24406 0
M  V30 3231 C 308.729 4.58133 2.50822 0
M  V30 3232 H 310.423 2.74835 1.1877 0
M  V30 3233 H 307.969 1.32242 0.569917 0
M  V30 3234 H 309.922 2.238 3.57059 0
M  V30 3235 H 308.646 1.09804 3.07588 0
M  V30 3236 H 307.305 2.9987 2.10887 0
M  V30 3237 H 306.953 2.28646 4.48029 0
M  V30 3238 H 306.653 4.03054 4.27576 0
M  V30 3239 H 308.177 3.47228 5.0226 0
M  V30 3240 H 309.591 4.77995 3.16534 0
M  V30 3241 H 307.988 5.38276 2.6529 0
M  V30 3242 H 309.058 4.62387 1.46034 0
M  V30 3243 N 310.401 -0.613514 1.45168 0
M  V30 3244 C 311.65 -1.36874 1.4815 0
M  V30 3245 C 311.963 -1.952 0.124982 0
M  V30 3246 O 313.169 -2.71481 0.0324176 0
M  V30 3247 C 311.625 -2.47905 2.60904 0
M  V30 3248 C 311.233 -1.96016 4.02842 0
M  V30 3249 C 312.977 -3.24965 2.73126 0
M  V30 3250 C 310.884 -3.04494 5.06988 0
M  V30 3251 H 309.814 -0.514428 0.551253 0
M  V30 3252 H 312.465 -0.658182 1.7129 0
M  V30 3253 H 310.847 -3.21618 2.31037 0
M  V30 3254 H 312.021 -1.29051 4.4236 0
M  V30 3255 H 310.336 -1.31719 3.95018 0
M  V30 3256 H 312.933 -4.05865 3.48106 0
M  V30 3257 H 313.276 -3.75588 1.79553 0
M  V30 3258 H 313.809 -2.5835 3.0249 0
M  V30 3259 H 310.548 -2.58795 6.0225 0
M  V30 3260 H 310.068 -3.70044 4.72046 0
M  V30 3261 H 311.747 -3.68976 5.31475 0
M  V30 3262 N 311.879 -1.3236 -0.855495 0
M  V30 3263 C 313.125 -1.23054 -1.612 0
M  V30 3264 C 313.458 0.207404 -1.93089 0
M  V30 3265 O 312.733 1.14432 -1.57275 0
M  V30 3266 C 313.016 -2.08937 -2.93287 0
M  V30 3267 C 312.869 -3.61105 -2.68185 0
M  V30 3268 C 314.188 -1.94986 -3.94549 0
M  V30 3269 H 311.307 -0.448364 -0.584926 0
M  V30 3270 H 313.949 -1.62297 -0.987917 0
M  V30 3271 H 312.099 -1.75599 -3.46551 0
M  V30 3272 H 313.771 -4.04652 -2.21483 0
M  V30 3273 H 312.014 -3.83813 -2.02164 0
M  V30 3274 H 312.685 -4.16522 -3.62234 0
M  V30 3275 H 315.161 -2.24189 -3.5054 0
M  V30 3276 H 314.037 -2.57356 -4.84829 0
M  V30 3277 H 314.298 -0.917263 -4.3248 0
M  V30 3278 N 313.357 1.07166 -1.15556 0
M  V30 3279 C 314.305 2.16517 -0.8499 0
M  V30 3280 C 315.299 1.68468 0.177454 0
M  V30 3281 O 316.505 1.79971 0.0323026 0
M  V30 3282 H 312.88 0.706652 -0.25719 0
M  V30 3283 H 314.851 2.39514 -1.77976 0
M  V30 3284 C 313.6 3.45855 -0.357682 0
M  V30 3285 H 312.923 3.83214 -1.13961 0
M  V30 3286 H 314.363 4.23607 -0.182489 0
M  V30 3287 C 312.822 3.24062 0.921152 0
M  V30 3288 O 313.352 3.48813 1.9923 0
M  V30 3289 N 311.558 2.77539 0.86141 0
M  V30 3290 H 311.105 2.57598 -0.0104408 0
M  V30 3291 H 311.063 2.63337 1.71758 0
M  V30 3292 N 314.835 0.952656 1.25548 0
M  V30 3293 C 315.783 0.462354 2.27958 0
M  V30 3294 C 316.777 -0.46634 1.62855 0
M  V30 3295 O 317.983 -0.343287 1.76696 0
M  V30 3296 H 314.358 0.13101 0.7405 0
M  V30 3297 H 316.329 1.33839 2.66702 0
M  V30 3298 C 315.078 -0.24628 3.46827 0
M  V30 3299 H 314.401 0.459192 3.97154 0
M  V30 3300 H 315.841 -0.553393 4.20373 0
M  V30 3301 C 314.3 -1.4681 3.0323 0
M  V30 3302 O 314.83 -2.56591 3.09069 0
M  V30 3303 N 313.036 -1.32874 2.58443 0
M  V30 3304 H 312.583 -0.435536 2.53891 0
M  V30 3305 H 312.541 -2.14742 2.29637 0
M  V30 3306 N 316.313 -1.40141 0.720998 0
M  V30 3307 C 317.26 -2.30688 0.071919 0
M  V30 3308 C 318.23 -1.48476 -0.744584 0
M  V30 3309 O 319.415 -1.77201 -0.707423 0
M  V30 3310 C 316.555 -3.34724 -0.839855 0
M  V30 3311 C 315.668 -4.31998 -0.0122438 0
M  V30 3312 C 314.803 -5.23102 -0.923995 0
M  V30 3313 C 313.842 -6.12033 -0.0907969 0
M  V30 3314 N 312.979 -6.95537 -0.957718 0
M  V30 3315 H 317.819 -2.85628 0.849755 0
M  V30 3316 H 315.356 -1.40653 0.430726 0
M  V30 3317 H 317.314 -3.93618 -1.38279 0
M  V30 3318 H 315.944 -2.81274 -1.58381 0
M  V30 3319 H 314.996 -3.74841 0.64794 0
M  V30 3320 H 316.308 -4.94772 0.632595 0
M  V30 3321 H 315.462 -5.86953 -1.53527 0
M  V30 3322 H 314.201 -4.60615 -1.60264 0
M  V30 3323 H 313.206 -5.47207 0.533377 0
M  V30 3324 H 314.431 -6.76581 0.584428 0
M  V30 3325 H 312.377 -6.35633 -1.62192 0
M  V30 3326 H 312.294 -7.55099 -0.36904 0
M  V30 3327 H 313.562 -7.63832 -1.555 0
M  V30 3328 N 317.792 -0.46758 -1.50504 0
M  V30 3329 C 318.755 0.317059 -2.26996 0
M  V30 3330 C 319.755 0.923513 -1.31635 0
M  V30 3331 O 320.945 0.793239 -1.55091 0
M  V30 3332 C 318.077 1.45134 -3.08462 0
M  V30 3333 H 319.27 -0.353723 -2.97807 0
M  V30 3334 H 316.823 -0.221545 -1.54722 0
M  V30 3335 H 317.558 2.15728 -2.4214 0
M  V30 3336 H 317.343 1.02232 -3.78538 0
M  V30 3337 H 318.833 2.00493 -3.66323 0
M  V30 3338 N 319.27 1.56325 -0.20005 0
M  V30 3339 C 320.22 2.15939 0.731743 0
M  V30 3340 C 321.204 1.10154 1.17281 0
M  V30 3341 O 322.396 1.36203 1.13038 0
M  V30 3342 C 319.525 2.82614 1.94895 0
M  V30 3343 C 318.611 3.95596 1.52855 0
M  V30 3344 N 319.002 4.99118 0.819418 0
M  V30 3345 C 317.3 4.07288 1.81748 0
M  V30 3346 C 318.001 5.78513 0.608053 0
M  V30 3347 N 316.977 5.31117 1.15828 0
M  V30 3348 H 320.779 2.9334 0.181285 0
M  V30 3349 H 318.293 1.624 -0.000452172 0
M  V30 3350 H 320.29 3.23718 2.62702 0
M  V30 3351 H 318.95 2.06702 2.50408 0
M  V30 3352 H 319.961 5.15723 0.47436 0
M  V30 3353 H 316.638 3.42509 2.38734 0
M  V30 3354 H 318.028 6.71885 0.0451619 0
M  V30 3355 N 320.748 -0.0735177 1.57428 0
M  V30 3356 C 321.681 -1.11932 1.98863 0
M  V30 3357 C 322.659 -1.37666 0.865266 0
M  V30 3358 O 323.843 -1.51068 1.12742 0
M  V30 3359 C 320.97 -2.46403 2.32386 0
M  V30 3360 C 320.016 -2.36815 3.54713 0
M  V30 3361 S 320.849 -1.76392 5.05614 0
M  V30 3362 C 322.005 -3.12444 5.42337 0
M  V30 3363 H 322.238 -0.766212 2.87257 0
M  V30 3364 H 319.771 -0.281987 1.51803 0
M  V30 3365 H 321.729 -3.23755 2.52375 0
M  V30 3366 H 320.39 -2.78876 1.44524 0
M  V30 3367 H 319.583 -3.35977 3.7568 0
M  V30 3368 H 319.185 -1.67598 3.34345 0
M  V30 3369 H 321.477 -4.08753 5.40303 0
M  V30 3370 H 322.42 -2.96258 6.43146 0
M  V30 3371 H 322.828 -3.1297 4.69798 0
M  V30 3372 N 322.226 -1.5378 -0.344866 0
M  V30 3373 C 323.472 -1.71216 -1.08687 0
M  V30 3374 C 323.805 -0.473281 -1.88345 0
M  V30 3375 O 323.08 0.52968 -1.87149 0
M  V30 3376 C 323.363 -2.97486 -2.02914 0
M  V30 3377 C 323.216 -4.31579 -1.26727 0
M  V30 3378 C 324.535 -3.19422 -3.0275 0
M  V30 3379 H 321.654 -0.62301 -0.393735 0
M  V30 3380 H 324.296 -1.8645 -0.365563 0
M  V30 3381 H 322.446 -2.84629 -2.64421 0
M  V30 3382 H 324.118 -4.56284 -0.67845 0
M  V30 3383 H 322.361 -4.30049 -0.569273 0
M  V30 3384 H 323.032 -5.16106 -1.95803 0
M  V30 3385 H 325.508 -3.316 -2.51357 0
M  V30 3386 H 324.384 -4.09169 -3.65885 0
M  V30 3387 H 324.645 -2.35656 -3.74057 0
M  V30 3388 N 323.704 0.605807 -1.45491 0
M  V30 3389 C 324.932 1.39136 -1.5313 0
M  V30 3390 C 325.347 1.88082 -0.164507 0
M  V30 3391 O 324.704 1.62316 0.834247 0
M  V30 3392 C 324.755 2.59463 -2.51716 0
M  V30 3393 O 324.476 2.12551 -3.83084 0
M  V30 3394 C 325.977 3.52301 -2.6907 0
M  V30 3395 H 323.197 0.425849 -0.51855 0
M  V30 3396 H 325.741 0.73865 -1.90694 0
M  V30 3397 H 323.896 3.20772 -2.17219 0
M  V30 3398 H 324.31 2.90744 -4.36541 0
M  V30 3399 H 325.784 4.33271 -3.42024 0
M  V30 3400 H 326.261 4.02757 -1.75167 0
M  V30 3401 H 326.867 2.96845 -3.04571 0
M  V30 3402 N 325.182 1.32811 0.848464 0
M  V30 3403 C 326.112 1.24882 1.97299 0
M  V30 3404 C 327.093 0.131357 1.69592 0
M  V30 3405 O 328.278 0.319553 1.91553 0
M  V30 3406 C 325.408 0.97746 3.33261 0
M  V30 3407 C 324.362 2.05682 3.75338 0
M  V30 3408 C 323.688 1.63777 5.09 0
M  V30 3409 C 324.988 3.47254 3.90144 0
M  V30 3410 H 326.682 2.18966 2.04191 0
M  V30 3411 H 324.228 1.05413 0.981029 0
M  V30 3412 H 326.181 0.908513 4.1149 0
M  V30 3413 H 324.905 0.000980011 3.266 0
M  V30 3414 H 323.564 2.11603 2.99366 0
M  V30 3415 H 323.212 0.648569 4.98801 0
M  V30 3416 H 322.912 2.36 5.38124 0
M  V30 3417 H 324.436 1.5833 5.89715 0
M  V30 3418 H 325.85 3.43888 4.58709 0
M  V30 3419 H 324.247 4.1788 4.30693 0
M  V30 3420 H 325.317 3.86462 2.92874 0
M  V30 3421 N 326.66 -1.06551 1.16123 0
M  V30 3422 C 327.937 -1.76097 0.85142 0
M  V30 3423 C 328.317 -2.00802 -0.6513 0
M  V30 3424 O 327.665 -1.63302 -1.59827 0
M  V30 3425 C 327.875 -3.06384 1.67122 0
M  V30 3426 C 329.223 -3.80585 1.88255 0
M  V30 3427 O 330.247 -3.16218 1.63966 0
M  V30 3428 O 329.106 -4.96212 2.2899 0
M  V30 3429 H 326.2 -0.765102 0.313923 0
M  V30 3430 H 328.746 -1.12844 1.26745 0
M  V30 3431 H 327.518 -2.84071 2.69108 0
M  V30 3432 H 327.141 -3.77371 1.25206 0
M  V30 3433 N 328.138 -0.959301 -1.25041 0
M  V30 3434 C 329.368 -0.63303 -1.96663 0
M  V30 3435 C 329.776 0.800031 -1.71453 0
M  V30 3436 O 329.119 1.54736 -0.99008 0
M  V30 3437 C 329.181 -0.817523 -3.50081 0
M  V30 3438 C 328.845 -2.22863 -3.98975 0
M  V30 3439 C 329.842 -3.20569 -4.09306 0
M  V30 3440 C 327.527 -2.55407 -4.32519 0
M  V30 3441 C 329.521 -4.4891 -4.52503 0
M  V30 3442 C 327.208 -3.83976 -4.754 0
M  V30 3443 C 328.206 -4.8054 -4.85356 0
M  V30 3444 O 327.894 -6.06817 -5.27284 0
M  V30 3445 H 327.626 -0.235866 -0.633516 0
M  V30 3446 H 330.18 -1.2874 -1.60047 0
M  V30 3447 H 328.41 -0.105992 -3.86555 0
M  V30 3448 H 330.099 -0.491604 -4.02912 0
M  V30 3449 H 330.865 -2.96753 -3.83618 0
M  V30 3450 H 326.744 -1.8097 -4.23994 0
M  V30 3451 H 330.288 -5.24283 -4.60188 0
M  V30 3452 H 326.185 -4.07596 -5.00535 0
M  V30 3453 H 326.953 -6.10262 -5.45457 0
M  V30 3454 N 329.616 1.39756 -0.72842 0
M  V30 3455 C 330.844 2.04948 -0.283528 0
M  V30 3456 C 331.259 1.54908 1.0793 0
M  V30 3457 O 330.616 0.711135 1.68075 0
M  V30 3458 C 330.667 3.60498 -0.268957 0
M  V30 3459 O 330.388 4.08695 -1.57798 0
M  V30 3460 C 331.889 4.4288 0.192912 0
M  V30 3461 H 329.109 0.659243 -0.125056 0
M  V30 3462 H 331.653 1.78927 -0.990226 0
M  V30 3463 H 329.808 3.85444 0.388801 0
M  V30 3464 H 330.222 5.02977 -1.48709 0
M  V30 3465 H 331.696 5.51791 0.151952 0
M  V30 3466 H 332.173 4.21418 1.23708 0
M  V30 3467 H 332.779 4.23069 -0.435039 0
M  V30 3468 N 331.094 0.475555 1.50254 0
M  V30 3469 C 332.34 -0.0780073 2.0265 0
M  V30 3470 C 332.673 -1.38968 1.35652 0
M  V30 3471 O 331.948 -1.8839 0.483691 0
M  V30 3472 C 332.231 -0.257161 3.59181 0
M  V30 3473 C 332.084 1.07585 4.36744 0
M  V30 3474 C 333.403 -1.00965 4.28362 0
M  V30 3475 H 330.522 -0.0268758 0.73651 0
M  V30 3476 H 333.164 0.622015 1.7953 0
M  V30 3477 H 331.314 -0.853412 3.79011 0
M  V30 3478 H 332.986 1.70902 4.28474 0
M  V30 3479 H 331.229 1.6714 4.00308 0
M  V30 3480 H 331.9 0.904088 5.44546 0
M  V30 3481 H 334.376 -0.504214 4.13034 0
M  V30 3482 H 333.252 -1.10381 5.37687 0
M  V30 3483 H 333.513 -2.04731 3.91839 0
M  V30 3484 N 332.573 -1.56217 0.208337 0
M  V30 3485 C 333.505 -2.1695 -0.739276 0
M  V30 3486 C 334.518 -1.13492 -1.1672 0
M  V30 3487 O 335.707 -1.40529 -1.10063 0
M  V30 3488 C 332.807 -2.72755 -2.01142 0
M  V30 3489 C 331.98 -4.0125 -1.74118 0
M  V30 3490 C 331.039 -4.41749 -2.85909 0
M  V30 3491 O 330.065 -5.08912 -2.54946 0
M  V30 3492 N 331.267 -4.06342 -4.14568 0
M  V30 3493 H 334.032 -2.98893 -0.219837 0
M  V30 3494 H 331.593 -1.61878 0.0268445 0
M  V30 3495 H 333.585 -2.96826 -2.75094 0
M  V30 3496 H 332.155 -1.95191 -2.4417 0
M  V30 3497 H 331.375 -3.85173 -0.838775 0
M  V30 3498 H 332.663 -4.851 -1.53477 0
M  V30 3499 H 332.061 -3.52345 -4.42571 0
M  V30 3500 H 330.618 -4.35335 -4.85105 0
M  V30 3501 N 334.051 0.0651679 -1.57465 0
M  V30 3502 C 335.297 0.764193 -1.87851 0
M  V30 3503 C 335.63 1.76889 -0.801495 0
M  V30 3504 O 334.905 1.93594 0.187528 0
M  V30 3505 C 335.188 1.46625 -3.28897 0
M  V30 3506 C 335.041 0.477515 -4.47258 0
M  V30 3507 C 336.36 2.4095 -3.68281 0
M  V30 3508 H 333.479 0.276351 -0.683227 0
M  V30 3509 H 336.121 0.0272868 -1.8998 0
M  V30 3510 H 334.271 2.09438 -3.27212 0
M  V30 3511 H 335.943 -0.145922 -4.61069 0
M  V30 3512 H 334.186 -0.206576 -4.33308 0
M  V30 3513 H 334.857 1.0065 -5.42746 0
M  V30 3514 H 337.333 1.88209 -3.71102 0
M  V30 3515 H 336.209 2.87072 -4.67847 0
M  V30 3516 H 336.47 3.26049 -2.98571 0
M  V30 3517 N 335.529 1.53961 0.336706 0
M  V30 3518 C 336.94 1.62914 0.911925 0
M  V30 3519 C 337.291 0.514795 1.89326 0
M  V30 3520 O 336.416 -0.354395 2.13478 0
M  V30 3521 C 337.011 2.95304 1.66076 0
M  V30 3522 C 335.57 3.06496 2.18489 0
M  V30 3523 C 334.717 2.58403 1.00613 0
M  V30 3524 H 337.668 1.58285 0.114649 0
M  V30 3525 H 337.689 2.84727 2.5241 0
M  V30 3526 H 337.201 3.76387 0.946276 0
M  V30 3527 H 335.302 2.3006 2.93092 0
M  V30 3528 H 335.415 4.1208 2.44391 0
M  V30 3529 H 333.779 2.13977 1.38152 0
M  V30 3530 H 334.562 3.41932 0.306179 0
M  V30 3531 N 337.007 -0.598083 1.45811 0
M  V30 3532 C 338.255 -1.35413 1.50026 0
M  V30 3533 C 338.576 -1.94444 0.147177 0
M  V30 3534 O 337.846 -1.77701 -0.824571 0
M  V30 3535 H 336.426 -0.502727 0.552517 0
M  V30 3536 H 339.088 -0.701606 1.81834 0
M  V30 3537 H 338.184 -2.16871 2.2444 0
M  V30 3538 N 338.485 -1.33259 -0.841409 0
M  V30 3539 C 339.448 -1.23221 -1.9326 0
M  V30 3540 C 340.448 -0.151895 -1.60081 0
M  V30 3541 O 341.638 -0.403246 -1.69468 0
M  V30 3542 C 338.77 -0.898123 -3.28856 0
M  V30 3543 H 339.963 -2.2021 -2.03587 0
M  V30 3544 H 337.516 -1.17281 -1.03319 0
M  V30 3545 H 338.251 0.0693841 -3.24226 0
M  V30 3546 H 338.036 -1.67934 -3.54317 0
M  V30 3547 H 339.526 -0.852563 -4.08805 0
M  V30 3548 N 339.963 1.05934 -1.16686 0
M  V30 3549 C 341.211 1.78447 -0.948744 0
M  V30 3550 C 341.532 1.87813 0.524523 0
M  V30 3551 O 340.802 1.38945 1.38098 0
M  V30 3552 H 339.382 0.660971 -0.348033 0
M  V30 3553 H 342.044 1.27947 -1.47022 0
M  V30 3554 H 341.14 2.80394 -1.37061 0
M  V30 3555 N 341.441 0.965919 1.2453 0
M  V30 3556 C 342.373 0.452465 2.2469 0
M  V30 3557 C 343.386 -0.437821 1.56802 0
M  V30 3558 O 344.575 -0.244283 1.76821 0
M  V30 3559 C 341.675 -0.366258 3.36915 0
M  V30 3560 C 340.848 0.513701 4.34373 0
M  V30 3561 C 339.907 -0.248716 5.25612 0
M  V30 3562 O 338.933 0.356745 5.68081 0
M  V30 3563 N 340.135 -1.53877 5.59734 0
M  V30 3564 H 342.9 1.31361 2.69378 0
M  V30 3565 H 340.461 0.837541 1.38553 0
M  V30 3566 H 342.453 -0.884297 3.94921 0
M  V30 3567 H 341.023 -1.12832 2.91526 0
M  V30 3568 H 340.243 1.21273 3.75082 0
M  V30 3569 H 341.531 1.11391 4.96457 0
M  V30 3570 H 340.929 -2.05243 5.27154 0
M  V30 3571 H 339.486 -2.00254 6.20275 0
M  V30 3572 N 342.919 -1.39368 0.735821 0
M  V30 3573 C 344.196 -1.94465 0.210395 0
M  V30 3574 C 344.576 -1.67254 -1.28799 0
M  V30 3575 O 343.924 -1.00123 -2.05396 0
M  V30 3576 C 344.134 -3.4472 0.544897 0
M  V30 3577 C 345.482 -4.21708 0.494689 0
M  V30 3578 O 346.506 -3.52922 0.482136 0
M  V30 3579 O 345.365 -5.44299 0.489947 0
M  V30 3580 H 342.459 -0.826096 0.0386666 0
M  V30 3581 H 345.005 -1.48863 0.814735 0
M  V30 3582 H 343.777 -3.57963 1.58045 0
M  V30 3583 H 343.4 -3.97502 -0.08837 0
M  V30 3584 N 344.397 -0.483516 -1.5 0
M  V30 3585 C 345.645 0.067027 -2.01989 0
M  V30 3586 C 345.966 1.3909 -1.36671 0
M  V30 3587 O 345.236 1.88978 -0.516152 0
M  V30 3588 H 343.816 0.0277606 -0.746484 0
M  V30 3589 H 346.478 -0.636773 -1.84204 0
M  V30 3590 H 345.574 0.209484 -3.11396 0
M  V30 3591 N 345.875 1.56104 -0.216619 0
M  V30 3592 C 347.1 2.0301 0.424462 0
M  V30 3593 C 347.525 1.0955 1.52907 0
M  V30 3594 O 346.883 0.0827914 1.81111 0
M  V30 3595 C 346.931 3.4819 0.937883 0
M  V30 3596 O 346.035 3.57865 2.04955 0
M  V30 3597 H 345.376 0.656925 0.0966755 0
M  V30 3598 H 347.906 2.01859 -0.33381 0
M  V30 3599 H 347.916 3.88413 1.24897 0
M  V30 3600 H 346.591 4.15699 0.129387 0
M  V30 3601 H 345.168 3.29527 1.74546 0
M  V30 3602 N 347.353 -0.0568162 1.57498 0
M  V30 3603 C 348.764 -0.606858 1.76562 0
M  V30 3604 C 349.115 -1.77114 0.844094 0
M  V30 3605 O 348.24 -2.16376 0.0318911 0
M  V30 3606 C 348.835 -1.10766 3.20182 0
M  V30 3607 C 347.394 -1.60344 3.40539 0
M  V30 3608 C 346.541 -0.529311 2.72201 0
M  V30 3609 H 349.492 0.169393 1.57793 0
M  V30 3610 H 349.513 -1.97602 3.25167 0
M  V30 3611 H 349.025 -0.26006 3.87228 0
M  V30 3612 H 347.126 -2.47379 2.78629 0
M  V30 3613 H 347.239 -1.67006 4.4905 0
M  V30 3614 H 345.603 -0.977893 2.35179 0
M  V30 3615 H 346.386 0.308352 3.41912 0
M  V30 3616 N 348.832 -1.54138 -0.328536 0
M  V30 3617 C 350.08 -1.71765 -1.06496 0
M  V30 3618 C 350.401 -0.49149 -1.88704 0
M  V30 3619 O 349.671 0.494539 -1.89555 0
M  V30 3620 H 348.251 -0.633295 -0.396164 0
M  V30 3621 H 350.913 -1.91429 -0.366176 0
M  V30 3622 H 350.009 -2.5951 -1.73381 0
M  V30 3623 N 350.31 0.590341 -1.46126 0
M  V30 3624 C 351.24 1.71032 -1.58966 0
M  V30 3625 C 352.221 1.64302 -0.440335 0
M  V30 3626 O 353.406 1.82436 -0.665634 0
M  V30 3627 C 350.536 3.09665 -1.57241 0
M  V30 3628 C 349.49 3.31221 -2.71066 0
M  V30 3629 C 348.816 4.70303 -2.54399 0
M  V30 3630 C 350.116 3.19796 -4.1295 0
M  V30 3631 H 351.81 1.60543 -2.52718 0
M  V30 3632 H 349.356 0.770933 -1.21625 0
M  V30 3633 H 351.309 3.87831 -1.64819 0
M  V30 3634 H 350.033 3.21036 -0.600289 0
M  V30 3635 H 348.692 2.55452 -2.62944 0
M  V30 3636 H 348.34 4.78429 -1.55288 0
M  V30 3637 H 348.04 4.85679 -3.30741 0
M  V30 3638 H 349.564 5.50647 -2.63857 0
M  V30 3639 H 350.978 3.87815 -4.22223 0
M  V30 3640 H 349.375 3.46696 -4.89818 0
M  V30 3641 H 350.445 2.16983 -4.33643 0
M  V30 3642 N 351.788 1.33704 0.83433 0
M  V30 3643 C 353.013 1.28615 1.62705 0
M  V30 3644 C 353.438 -0.139242 1.87584 0
M  V30 3645 O 352.796 -1.09734 1.4432 0
M  V30 3646 C 352.844 2.07139 2.95171 0
M  V30 3647 O 351.948 1.4331 3.86699 0
M  V30 3648 H 351.289 0.44226 0.49528 0
M  V30 3649 H 353.819 1.76335 1.03766 0
M  V30 3650 H 353.829 2.18073 3.44831 0
M  V30 3651 H 352.504 3.10779 2.76386 0
M  V30 3652 H 351.081 1.4105 3.45195 0
M  V30 3653 N 353.266 -1.05314 1.17247 0
M  V30 3654 C 354.213 -2.13031 0.888058 0
M  V30 3655 C 355.183 -1.65253 -0.167537 0
M  V30 3656 O 356.368 -1.90775 -0.0305974 0
M  V30 3657 C 353.508 -3.42702 0.406147 0
M  V30 3658 C 352.621 -4.04161 1.52572 0
M  V30 3659 C 351.756 -5.21744 0.997808 0
M  V30 3660 C 350.795 -5.75207 2.09291 0
M  V30 3661 N 349.932 -6.84094 1.57986 0
M  V30 3662 H 354.772 -2.36698 1.81048 0
M  V30 3663 H 352.309 -1.16121 0.903013 0
M  V30 3664 H 354.267 -4.17059 0.108305 0
M  V30 3665 H 352.897 -3.19222 -0.479313 0
M  V30 3666 H 351.949 -3.27253 1.93931 0
M  V30 3667 H 353.261 -4.39881 2.35172 0
M  V30 3668 H 352.415 -6.03168 0.653739 0
M  V30 3669 H 351.154 -4.87495 0.141232 0
M  V30 3670 H 350.159 -4.92414 2.44557 0
M  V30 3671 H 351.384 -6.11505 2.95362 0
M  V30 3672 H 349.33 -6.51745 0.74598 0
M  V30 3673 H 349.247 -7.18811 2.34195 0
M  V30 3674 H 350.515 -7.69172 1.26468 0
M  V30 3675 N 354.744 -0.972509 -1.24016 0
M  V30 3676 C 355.991 -0.637034 -1.92219 0
M  V30 3677 C 356.319 0.828418 -1.75976 0
M  V30 3678 O 355.574 1.61206 -1.10955 0
M  V30 3679 C 355.873 -0.963694 -3.44162 0
M  V30 3680 C 355.539 -2.41807 -3.80579 0
M  V30 3681 C 354.201 -2.81556 -3.9023 0
M  V30 3682 C 356.553 -3.36172 -3.98293 0
M  V30 3683 C 353.881 -4.14702 -4.15017 0
M  V30 3684 C 356.233 -4.68952 -4.24578 0
M  V30 3685 C 354.897 -5.08472 -4.32449 0
M  V30 3686 H 354.167 -0.233107 -0.703379 0
M  V30 3687 H 356.814 -1.2249 -1.47202 0
M  V30 3688 H 355.119 -0.29365 -3.90698 0
M  V30 3689 H 356.816 -0.682449 -3.9515 0
M  V30 3690 H 353.406 -2.09988 -3.73635 0
M  V30 3691 H 357.59 -3.06644 -3.90234 0
M  V30 3692 H 352.846 -4.4494 -4.19331 0
M  V30 3693 H 357.02 -5.42037 -4.37229 0
M  V30 3694 H 354.647 -6.11665 -4.51409 0
M  V30 3695 N 356.222 1.38976 -0.743202 0
M  V30 3696 C 357.638 1.53984 -0.419664 0
M  V30 3697 C 357.838 1.70837 1.0685 0
M  V30 3698 O 356.894 1.7135 1.8546 0
M  V30 3699 C 358.207 2.75287 -1.20985 0
M  V30 3700 C 359.755 2.89129 -1.19889 0
M  V30 3701 C 360.23 4.13381 -1.97181 0
M  V30 3702 N 361.721 4.20437 -1.94389 0
M  V30 3703 C 362.456 5.15547 -2.50996 0
M  V30 3704 N 361.952 6.16395 -3.16274 0
M  V30 3705 N 363.745 5.07822 -2.40984 0
M  V30 3706 H 355.896 1.26285 -1.7078 0
M  V30 3707 H 358.159 0.612689 -0.723406 0
M  V30 3708 H 357.865 2.69204 -2.26323 0
M  V30 3709 H 357.739 3.68184 -0.819759 0
M  V30 3710 H 360.126 2.947 -0.153606 0
M  V30 3711 H 360.207 1.97272 -1.62841 0
M  V30 3712 H 359.851 4.08572 -3.01714 0
M  V30 3713 H 359.781 5.04298 -1.51629 0
M  V30 3714 H 362.272 3.48205 -1.46839 0
M  V30 3715 H 362.585 6.85443 -3.56915 0
M  V30 3716 H 360.93 6.16758 -3.20367 0
M  V30 3717 H 364.121 4.27973 -1.89622 0
M  V30 3718 H 364.294 5.81767 -2.85397 0
M  V30 3719 N 357.7 0.491464 1.49741 0
M  V30 3720 C 358.63 -0.28154 2.31796 0
M  V30 3721 C 359.611 -0.971473 1.3963 0
M  V30 3722 O 360.796 -0.964719 1.68543 0
M  V30 3723 C 357.926 -1.35203 3.19902 0
M  V30 3724 C 356.88 -0.782529 4.20786 0
M  V30 3725 C 356.206 -1.95283 4.97764 0
M  V30 3726 C 357.506 0.21999 5.21837 0
M  V30 3727 H 359.2 0.403355 2.96671 0
M  V30 3728 H 356.746 0.195425 1.42668 0
M  V30 3729 H 358.699 -1.90045 3.76113 0
M  V30 3730 H 357.423 -2.06598 2.52953 0
M  V30 3731 H 356.082 -0.255928 3.65706 0
M  V30 3732 H 355.73 -2.65423 4.2727 0
M  V30 3733 H 355.43 -1.57789 5.66018 0
M  V30 3734 H 356.954 -2.50577 5.56816 0
M  V30 3735 H 358.368 -0.23996 5.72798 0
M  V30 3736 H 356.765 0.51026 5.97927 0
M  V30 3737 H 357.835 1.13911 4.7133 0
M  V30 3738 N 359.178 -1.55987 0.224894 0
M  V30 3739 C 360.403 -2.03232 -0.41369 0
M  V30 3740 C 360.828 -1.10359 -1.52323 0
M  V30 3741 O 360.186 -0.092395 -1.81064 0
M  V30 3742 C 360.234 -3.48682 -0.919405 0
M  V30 3743 O 359.338 -3.58947 -2.03054 0
M  V30 3744 H 358.679 -0.657428 -0.0931903 0
M  V30 3745 H 361.209 -2.01679 0.34451 0
M  V30 3746 H 361.219 -3.8907 -1.22835 0
M  V30 3747 H 359.894 -4.15761 -0.107339 0
M  V30 3748 H 358.471 -3.30448 -1.72796 0
M  V30 3749 N 360.656 0.0484629 -1.57525 0
M  V30 3750 C 361.886 0.754326 -1.92337 0
M  V30 3751 C 362.294 1.70443 -0.82132 0
M  V30 3752 O 361.637 1.82466 0.21254 0
M  V30 3753 C 361.699 1.58231 -3.22805 0
M  V30 3754 C 361.363 0.799074 -4.4996 0
M  V30 3755 C 362.36 0.1079 -5.19788 0
M  V30 3756 C 360.045 0.759345 -4.96527 0
M  V30 3757 C 362.039 -0.612516 -6.3445 0
M  V30 3758 C 359.726 0.0351713 -6.1109 0
M  V30 3759 C 360.724 -0.649537 -6.79904 0
M  V30 3760 O 360.412 -1.36199 -7.92278 0
M  V30 3761 H 360.144 0.218257 -0.639797 0
M  V30 3762 H 362.698 0.0159295 -2.05394 0
M  V30 3763 H 360.928 2.36406 -3.06021 0
M  V30 3764 H 362.617 2.16898 -3.43089 0
M  V30 3765 H 363.383 0.129748 -4.84826 0
M  V30 3766 H 359.262 1.28177 -4.42822 0
M  V30 3767 H 362.806 -1.14751 -6.88097 0
M  V30 3768 H 358.703 0.0113314 -6.45499 0
M  V30 3769 H 359.471 -1.27366 -8.0853 0
M  V30 3770 N 362.134 1.5431 0.320358 0
M  V30 3771 C 363.364 1.7638 1.07582 0
M  V30 3772 C 363.772 0.513944 1.82086 0
M  V30 3773 O 363.115 -0.525123 1.76035 0
M  V30 3774 C 363.177 2.9055 2.1171 0
M  V30 3775 C 362.841 4.2934 1.56575 0
M  V30 3776 C 363.838 5.10077 1.00586 0
M  V30 3777 C 361.523 4.75893 1.60722 0
M  V30 3778 C 363.517 6.35477 0.494756 0
M  V30 3779 C 361.204 6.0126 1.09224 0
M  V30 3780 C 362.202 6.80886 0.53696 0
M  V30 3781 O 361.89 8.03894 0.0297371 0
M  V30 3782 H 361.622 0.592369 0.325692 0
M  V30 3783 H 364.176 2.02019 0.37116 0
M  V30 3784 H 362.406 2.60489 2.85801 0
M  V30 3785 H 364.095 3.00373 2.73003 0
M  V30 3786 H 364.861 4.75265 0.966869 0
M  V30 3787 H 360.74 4.13957 2.02882 0
M  V30 3788 H 364.284 6.97574 0.0606842 0
M  V30 3789 H 360.181 6.35562 1.12831 0
M  V30 3790 H 360.949 8.18372 0.14486 0
M  V30 3791 N 363.613 -0.582584 1.46437 0
M  V30 3792 C 365.024 -1.1647 1.45916 0
M  V30 3793 C 365.375 -1.95177 0.200077 0
M  V30 3794 O 364.5 -2.04874 -0.696819 0
M  V30 3795 C 365.095 -2.11885 2.64367 0
M  V30 3796 C 363.654 -2.65421 2.66887 0
M  V30 3797 C 362.801 -1.41294 2.38603 0
M  V30 3798 H 365.752 -0.370514 1.54314 0
M  V30 3799 H 365.773 -2.9535 2.39892 0
M  V30 3800 H 365.285 -1.54573 3.5599 0
M  V30 3801 H 363.386 -3.26602 1.79338 0
M  V30 3802 H 363.499 -3.08147 3.66854 0
M  V30 3803 H 361.863 -1.71109 1.88663 0
M  V30 3804 H 362.646 -0.858125 3.32402 0
M  V30 3805 N 365.091 -1.34144 -0.827227 0
M  V30 3806 C 366.041 -1.21923 -1.92663 0
M  V30 3807 C 367.025 -0.119294 -1.60457 0
M  V30 3808 O 368.217 -0.348539 -1.73534 0
M  V30 3809 C 365.346 -0.972492 -3.29238 0
M  V30 3810 C 364.432 -2.1154 -3.67576 0
M  V30 3811 N 364.823 -3.36627 -3.77512 0
M  V30 3812 C 363.121 -2.02468 -3.97395 0
M  V30 3813 C 363.822 -4.11658 -4.1099 0
M  V30 3814 N 362.798 -3.40207 -4.23981 0
M  V30 3815 H 366.6 -2.16721 -1.98517 0
M  V30 3816 H 364.114 -1.2632 -1.02064 0
M  V30 3817 H 366.111 -0.865847 -4.0781 0
M  V30 3818 H 364.771 -0.0331509 -3.24683 0
M  V30 3819 H 365.782 -3.71234 -3.61118 0
M  V30 3820 H 362.459 -1.16265 -4.00985 0
M  V30 3821 H 363.849 -5.19657 -4.25918 0
M  V30 3822 N 366.569 1.04691 -1.17803 0
M  V30 3823 C 367.809 1.79352 -0.980423 0
M  V30 3824 C 368.173 1.85853 0.481958 0
M  V30 3825 O 369.374 2.56656 0.798809 0
M  V30 3826 C 367.645 3.19088 -1.6099 0
M  V30 3827 S 369.204 4.10164 -1.55918 0
M  V30 3828 H 366.022 0.617631 -0.352211 0
M  V30 3829 H 368.624 1.25575 -1.49837 0
M  V30 3830 H 367.328 3.11962 -2.66661 0
M  V30 3831 H 366.859 3.77941 -1.09197 0
M  V30 3832 H 368.874 4.92907 -0.570685 0
M  V30 3833 N 368.047 0.979072 1.23499 0
M  V30 3834 C 368.977 0.537606 2.27227 0
M  V30 3835 C 369.958 -0.428539 1.64613 0
M  V30 3836 O 371.143 -0.322191 1.91509 0
M  V30 3837 C 368.273 -0.162052 3.46922 0
M  V30 3838 C 367.227 0.721242 4.21879 0
M  V30 3839 C 366.553 -0.110555 5.34586 0
M  V30 3840 C 367.853 2.01141 4.82016 0
M  V30 3841 H 369.547 1.40462 2.64406 0
M  V30 3842 H 367.093 0.67684 1.27102 0
M  V30 3843 H 369.046 -0.482192 4.18632 0
M  V30 3844 H 367.77 -1.06351 3.08799 0
M  V30 3845 H 366.429 1.02482 3.51984 0
M  V30 3846 H 366.077 -1.0125 4.92704 0
M  V30 3847 H 365.777 0.477325 5.85658 0
M  V30 3848 H 367.301 -0.425107 6.09118 0
M  V30 3849 H 368.715 1.75612 5.45741 0
M  V30 3850 H 367.112 2.54695 5.43369 0
M  V30 3851 H 368.182 2.69909 4.02836 0
M  V30 3852 N 369.525 -1.3858 0.750561 0
M  V30 3853 C 370.488 -2.28836 0.129152 0
M  V30 3854 C 371.488 -1.47045 -0.650714 0
M  V30 3855 O 372.678 -1.6753 -0.477428 0
M  V30 3856 C 369.81 -3.30751 -0.825622 0
M  V30 3857 H 371.003 -2.85294 0.924516 0
M  V30 3858 H 368.556 -1.47489 0.517376 0
M  V30 3859 H 369.291 -2.79378 -1.64677 0
M  V30 3860 H 369.076 -3.91177 -0.268852 0
M  V30 3861 H 370.566 -3.98249 -1.2565 0
M  V30 3862 N 371.003 -0.499398 -1.49478 0
M  V30 3863 C 372.228 0.044722 -2.07352 0
M  V30 3864 C 372.653 1.30207 -1.35749 0
M  V30 3865 O 372.011 1.76516 -0.413732 0
M  V30 3866 C 372.059 0.283013 -3.59488 0
M  V30 3867 O 371.163 1.35804 -3.89398 0
M  V30 3868 H 370.504 -0.0255147 -0.66351 0
M  V30 3869 H 373.034 -0.698561 -1.92305 0
M  V30 3870 H 373.044 0.515007 -4.04737 0
M  V30 3871 H 371.719 -0.635636 -4.11014 0
M  V30 3872 H 370.296 1.11113 -3.55961 0
M  V30 3873 N 372.481 1.55866 -0.233164 0
M  V30 3874 C 373.728 1.98603 0.395374 0
M  V30 3875 C 374.056 1.12105 1.58942 0
M  V30 3876 O 373.311 0.168656 1.94972 0
M  V30 3877 C 373.61 3.46856 0.861724 0
M  V30 3878 C 373.276 4.50348 -0.223066 0
M  V30 3879 C 371.938 4.78371 -0.521038 0
M  V30 3880 C 374.29 5.12355 -0.956124 0
M  V30 3881 C 371.618 5.6568 -1.55638 0
M  V30 3882 C 373.97 6.00786 -1.98089 0
M  V30 3883 C 372.634 6.27148 -2.28565 0
M  V30 3884 H 371.904 0.726739 0.144677 0
M  V30 3885 H 374.551 1.88491 -0.338114 0
M  V30 3886 H 372.856 3.5423 1.67418 0
M  V30 3887 H 374.553 3.77302 1.35809 0
M  V30 3888 H 371.143 4.28596 0.0193234 0
M  V30 3889 H 375.327 4.90765 -0.739166 0
M  V30 3890 H 370.583 5.84365 -1.798 0
M  V30 3891 H 374.757 6.4788 -2.55391 0
M  V30 3892 H 372.384 6.94597 -3.08932 0
M  V30 3893 N 373.959 -0.0401083 1.57549 0
M  V30 3894 C 375.187 -0.745196 1.93014 0
M  V30 3895 C 375.602 -1.6948 0.831984 0
M  V30 3896 O 374.959 -1.81482 -0.192463 0
M  V30 3897 C 375.01 -1.51176 3.28372 0
M  V30 3898 O 374.731 -0.600284 4.33968 0
M  V30 3899 C 376.232 -2.315 3.78051 0
M  V30 3900 H 373.452 -0.210088 0.637263 0
M  V30 3901 H 375.996 -0.000924689 2.045 0
M  V30 3902 H 374.151 -2.20801 3.18317 0
M  V30 3903 H 374.565 -1.13669 5.12035 0
M  V30 3904 H 376.039 -2.80697 4.75303 0
M  V30 3905 H 376.516 -3.12436 3.08675 0
M  V30 3906 H 377.122 -1.66971 3.91153 0
M  V30 3907 N 375.437 -1.54477 -0.31217 0
M  V30 3908 C 376.347 -1.87695 -1.4074 0
M  V30 3909 C 377.363 -0.769975 -1.56036 0
M  V30 3910 O 378.539 -1.06537 -1.70915 0
M  V30 3911 C 375.604 -2.10755 -2.75287 0
M  V30 3912 C 374.665 -3.34514 -2.69071 0
M  V30 3913 C 373.898 -3.56465 -3.97201 0
M  V30 3914 O 374.121 -2.81637 -4.96021 0
M  V30 3915 O 373.055 -4.49964 -3.9977 0
M  V30 3916 H 376.881 -2.80849 -1.15574 0
M  V30 3917 H 374.466 -1.40526 -0.507228 0
M  V30 3918 H 376.348 -2.27188 -3.54913 0
M  V30 3919 H 375.023 -1.20788 -3.0032 0
M  V30 3920 H 373.93 -3.23456 -1.87955 0
M  V30 3921 H 375.263 -4.24575 -2.48992 0
M  V30 3922 N 376.915 0.57481 -1.46744 0
M  V30 3923 C 377.845 1.69337 -1.60771 0
M  V30 3924 C 378.826 1.63825 -0.457736 0
M  V30 3925 O 380.011 1.8172 -0.684947 0
M  V30 3926 C 377.141 3.0798 -1.60517 0
M  V30 3927 C 376.095 3.28327 -2.74564 0
M  V30 3928 C 375.421 4.67578 -2.59373 0
M  V30 3929 C 376.721 3.15398 -4.16319 0
M  V30 3930 H 378.415 1.57853 -2.54407 0
M  V30 3931 H 375.961 0.75799 -1.22436 0
M  V30 3932 H 377.914 3.86061 -1.68923 0
M  V30 3933 H 376.638 3.20381 -0.634305 0
M  V30 3934 H 375.297 2.52649 -2.65639 0
M  V30 3935 H 374.945 4.76755 -1.60353 0
M  V30 3936 H 374.645 4.82144 -3.35873 0
M  V30 3937 H 376.169 5.47817 -2.69682 0
M  V30 3938 H 377.583 3.83315 -4.26313 0
M  V30 3939 H 375.98 3.41482 -4.93468 0
M  V30 3940 H 377.05 2.12372 -4.3592 0
M  V30 3941 N 378.394 1.34581 0.820102 0
M  V30 3942 C 379.324 1.29038 1.94606 0
M  V30 3943 C 380.305 0.1673 1.69275 0
M  V30 3944 O 381.49 0.360112 1.90832 0
M  V30 3945 C 378.62 1.04793 3.31113 0
M  V30 3946 C 377.574 2.13597 3.70891 0
M  V30 3947 C 376.9 1.74537 5.05412 0
M  V30 3948 C 378.2 3.55451 3.8269 0
M  V30 3949 H 379.894 2.23248 1.99501 0
M  V30 3950 H 377.44 1.0747 0.958449 0
M  V30 3951 H 379.393 0.995592 4.0947 0
M  V30 3952 H 378.117 0.0702565 3.26524 0
M  V30 3953 H 376.776 2.17905 2.9481 0
M  V30 3954 H 376.424 0.754226 4.97313 0
M  V30 3955 H 376.124 2.47361 5.32997 0
M  V30 3956 H 377.648 1.70803 5.86224 0
M  V30 3957 H 379.062 3.5354 4.51312 0
M  V30 3958 H 377.459 4.26922 4.21732 0
M  V30 3959 H 378.529 3.92587 2.84611 0
M  V30 3960 N 379.872 -1.04064 1.18357 0
M  V30 3961 C 380.804 -2.12114 0.868358 0
M  V30 3962 C 381.817 -1.62247 -0.134045 0
M  V30 3963 O 383.006 -1.78253 0.0937933 0
M  V30 3964 C 380.106 -3.37773 0.276132 0
M  V30 3965 C 379.279 -4.16874 1.3242 0
M  V30 3966 C 378.338 -5.20861 0.747662 0
M  V30 3967 O 377.364 -5.51141 1.42239 0
M  V30 3968 N 378.566 -5.78715 -0.454823 0
M  V30 3969 H 381.331 -2.39748 1.79836 0
M  V30 3970 H 378.892 -1.20258 1.08396 0
M  V30 3971 H 380.884 -4.04513 -0.123133 0
M  V30 3972 H 379.454 -3.07581 -0.557895 0
M  V30 3973 H 378.674 -3.45456 1.89878 0
M  V30 3974 H 379.962 -4.66516 2.03078 0
M  V30 3975 H 379.36 -5.56415 -1.02073 0
M  V30 3976 H 377.917 -6.46921 -0.79601 0
M  V30 3977 N 381.35 -0.985608 -1.22978 0
M  V30 3978 C 382.313 -0.535071 -2.22867 0
M  V30 3979 C 383.313 0.378123 -1.56291 0
M  V30 3980 O 384.503 0.171092 -1.73358 0
M  V30 3981 C 381.635 0.222702 -3.40172 0
M  V30 3982 H 382.828 -1.41835 -2.6424 0
M  V30 3983 H 380.381 -0.772042 -1.35901 0
M  V30 3984 H 381.116 1.12229 -3.04262 0
M  V30 3985 H 380.901 -0.43288 -3.89703 0
M  V30 3986 H 382.391 0.526335 -4.1427 0
M  V30 3987 N 382.828 1.3818 -0.7579 0
M  V30 3988 C 383.791 2.28764 -0.141286 0
M  V30 3989 C 384.791 1.47388 0.642907 0
M  V30 3990 O 385.981 1.67781 0.468536 0
M  V30 3991 C 383.113 3.31184 0.808069 0
M  V30 3992 H 384.306 2.848 -0.939633 0
M  V30 3993 H 381.859 1.47212 -0.525191 0
M  V30 3994 H 382.594 2.80247 1.63193 0
M  V30 3995 H 382.379 3.91314 0.248104 0
M  V30 3996 H 383.869 3.98909 1.23536 0
M  V30 3997 N 384.306 0.507319 1.49211 0
M  V30 3998 C 385.553 -0.0349529 2.0247 0
M  V30 3999 C 385.881 -1.36409 1.38647 0
M  V30 4000 O 385.136 -1.88841 0.513566 0
M  V30 4001 C 385.435 -0.229513 3.56662 0
M  V30 4002 C 385.101 1.02241 4.39156 0
M  V30 4003 C 383.763 1.36557 4.61417 0
M  V30 4004 C 386.115 1.85428 4.871 0
M  V30 4005 C 383.443 2.53999 5.28868 0
M  V30 4006 C 385.795 3.02028 5.55843 0
M  V30 4007 C 384.459 3.36717 5.76349 0
M  V30 4008 H 383.729 -0.0127902 0.74089 0
M  V30 4009 H 386.376 0.668756 1.79443 0
M  V30 4010 H 384.681 -1.0158 3.78403 0
M  V30 4011 H 386.378 -0.663641 3.9547 0
M  V30 4012 H 382.968 0.745124 4.22073 0
M  V30 4013 H 387.152 1.6023 4.69723 0
M  V30 4014 H 382.408 2.81105 5.42946 0
M  V30 4015 H 386.582 3.66808 5.91967 0
M  V30 4016 H 384.209 4.27821 6.28389 0
M  V30 4017 N 385.784 -1.5574 0.241426 0
M  V30 4018 C 387.032 -1.98417 -0.384075 0
M  V30 4019 C 387.353 -1.13078 -1.58866 0
M  V30 4020 O 386.623 -0.212312 -1.94746 0
M  V30 4021 H 385.203 -0.732813 -0.144894 0
M  V30 4022 H 387.865 -1.9193 0.338943 0
M  V30 4023 H 386.961 -3.04219 -0.696939 0
M  V30 4024 N 387.262 0.0317525 -1.57568 0
M  V30 4025 C 388.51 0.721676 -1.88776 0
M  V30 4026 C 388.831 1.76039 -0.838772 0
M  V30 4027 O 388.101 1.95482 0.127935 0
M  V30 4028 H 386.681 0.269534 -0.696678 0
M  V30 4029 H 389.343 -0.00165879 -1.949 0
M  V30 4030 H 388.439 1.21293 -2.87566 0
M  V30 4031 N 388.74 1.54641 0.303973 0
M  V30 4032 C 389.687 1.85386 1.37479 0
M  V30 4033 C 390.657 0.702528 1.50512 0
M  V30 4034 O 391.842 0.950867 1.65418 0
M  V30 4035 C 388.982 2.10413 2.73533 0
M  V30 4036 C 388.095 3.38049 2.68974 0
M  V30 4037 C 387.23 3.52934 3.97002 0
M  V30 4038 C 386.269 4.74373 3.86829 0
M  V30 4039 N 385.406 4.8608 5.06627 0
M  V30 4040 H 390.246 2.76732 1.1056 0
M  V30 4041 H 387.783 1.37034 0.534805 0
M  V30 4042 H 389.741 2.22919 3.52652 0
M  V30 4043 H 388.371 1.22338 2.98719 0
M  V30 4044 H 387.423 3.3418 1.81736 0
M  V30 4045 H 388.735 4.27288 2.57346 0
M  V30 4046 H 387.889 3.65088 4.84557 0
M  V30 4047 H 386.628 2.61824 4.1146 0
M  V30 4048 H 385.633 4.62255 2.97658 0
M  V30 4049 H 386.858 5.66888 3.73918 0
M  V30 4050 H 384.804 3.97891 5.21554 0
M  V30 4051 H 384.721 5.69315 4.9741 0
M  V30 4052 H 385.989 5.02587 5.95841 0
M  V30 4053 N 390.218 -0.567019 1.47046 0
M  V30 4054 C 391.458 -1.3355 1.54738 0
M  V30 4055 C 391.822 -1.90947 0.200772 0
M  V30 4056 O 393.023 -2.68367 0.152489 0
M  V30 4057 C 391.294 -2.42317 2.62712 0
M  V30 4058 S 392.853 -3.29383 2.89918 0
M  V30 4059 H 389.671 -0.454788 0.546525 0
M  V30 4060 H 392.273 -0.650191 1.84371 0
M  V30 4061 H 390.977 -1.98568 3.59164 0
M  V30 4062 H 390.508 -3.15601 2.34861 0
M  V30 4063 H 392.523 -4.41548 2.26384 0
M  V30 4064 N 391.696 -1.35014 -0.812953 0
M  V30 4065 C 392.628 -1.23262 -1.93233 0
M  V30 4066 C 393.641 -0.157371 -1.62038 0
M  V30 4067 O 394.83 -0.410096 -1.73725 0
M  V30 4068 C 391.93 -0.87392 -3.27438 0
M  V30 4069 C 391.103 -2.04622 -3.86586 0
M  V30 4070 C 390.162 -1.66432 -4.99186 0
M  V30 4071 O 389.188 -2.38222 -5.16951 0
M  V30 4072 N 390.39 -0.584248 -5.77552 0
M  V30 4073 H 393.155 -2.19699 -2.03844 0
M  V30 4074 H 390.716 -1.281 -0.99005 0
M  V30 4075 H 392.708 -0.600039 -4.00227 0
M  V30 4076 H 391.278 0.00057392 -3.126 0
M  V30 4077 H 390.498 -2.48427 -3.06068 0
M  V30 4078 H 391.786 -2.82999 -4.22835 0
M  V30 4079 H 391.184 0.0123526 -5.65699 0
M  V30 4080 H 389.741 -0.37013 -6.50748 0
M  V30 4081 N 393.175 1.03435 -1.18907 0
M  V30 4082 C 394.125 2.09924 -0.889706 0
M  V30 4083 C 395.109 1.60261 0.143216 0
M  V30 4084 O 396.301 1.76892 -0.0617122 0
M  V30 4085 C 393.43 3.40669 -0.424168 0
M  V30 4086 C 392.516 3.97082 -1.48952 0
M  V30 4087 N 392.907 4.27227 -2.70759 0
M  V30 4088 C 391.205 4.25029 -1.35152 0
M  V30 4089 C 391.906 4.7246 -3.39347 0
M  V30 4090 N 390.882 4.7366 -2.66735 0
M  V30 4091 H 394.684 2.31116 -1.81555 0
M  V30 4092 H 392.198 1.21246 -1.08042 0
M  V30 4093 H 394.195 4.16461 -0.191176 0
M  V30 4094 H 392.855 3.20901 0.495263 0
M  V30 4095 H 393.866 4.16678 -3.0757 0
M  V30 4096 H 390.543 4.14554 -0.495126 0
M  V30 4097 H 391.933 5.04751 -4.43481 0
M  V30 4098 N 394.653 0.992116 1.22453 0
M  V30 4099 C 395.878 0.685644 1.95739 0
M  V30 4100 C 396.303 -0.743 1.72804 0
M  V30 4101 O 395.661 -1.50778 1.00676 0
M  V30 4102 C 395.709 0.996293 3.46564 0
M  V30 4103 O 394.813 0.0945512 4.12292 0
M  V30 4104 H 394.154 0.256694 0.612376 0
M  V30 4105 H 396.684 1.32888 1.5557 0
M  V30 4106 H 396.694 0.93781 3.97076 0
M  V30 4107 H 395.369 2.03733 3.62582 0
M  V30 4108 H 393.946 0.208451 3.72317 0
M  V30 4109 N 396.131 -1.37776 0.765217 0
M  V30 4110 C 397.377 -2.00145 0.327072 0
M  V30 4111 C 397.71 -1.60607 -1.09175 0
M  V30 4112 O 396.985 -0.849127 -1.74986 0
M  V30 4113 C 397.268 -3.57109 0.46319 0
M  V30 4114 C 397.121 -4.06576 1.92395 0
M  V30 4115 C 398.44 -4.39888 -0.136473 0
M  V30 4116 H 395.559 -0.727113 0.120316 0
M  V30 4117 H 398.201 -1.63549 0.967039 0
M  V30 4118 H 396.351 -3.88414 -0.0816358 0
M  V30 4119 H 398.023 -3.85864 2.52798 0
M  V30 4120 H 396.266 -3.59011 2.43503 0
M  V30 4121 H 396.937 -5.15639 1.97028 0
M  V30 4122 H 399.413 -4.14803 0.328317 0
M  V30 4123 H 398.289 -5.48899 -0.0110582 0
M  V30 4124 H 398.55 -4.24758 -1.22608 0
M  V30 4125 N 397.609 -0.515225 -1.4894 0
M  V30 4126 C 398.539 0.244628 -2.32215 0
M  V30 4127 C 399.52 0.949136 -1.41157 0
M  V30 4128 O 400.705 0.937783 -1.70057 0
M  V30 4129 C 397.835 1.30096 -3.22013 0
M  V30 4130 C 396.789 0.715486 -4.21977 0
M  V30 4131 C 396.115 1.87339 -5.00808 0
M  V30 4132 C 397.415 -0.302982 -5.2142 0
M  V30 4133 H 399.109 -0.450501 -2.95991 0
M  V30 4134 H 396.655 -0.218098 -1.42339 0
M  V30 4135 H 398.608 1.84037 -3.79089 0
M  V30 4136 H 397.332 2.02547 -2.56207 0
M  V30 4137 H 395.991 0.197715 -3.66066 0
M  V30 4138 H 395.639 2.58592 -4.31438 0
M  V30 4139 H 395.339 1.48764 -5.68457 0
M  V30 4140 H 396.863 2.41686 -5.60732 0
M  V30 4141 H 398.277 0.148802 -5.73107 0
M  V30 4142 H 396.674 -0.60532 -5.97039 0
M  V30 4143 H 397.744 -1.21395 -4.69459 0
M  V30 4144 N 399.087 1.5561 -0.249682 0
M  V30 4145 C 400.335 1.98618 0.373548 0
M  V30 4146 C 400.656 1.13919 1.58264 0
M  V30 4147 O 399.926 0.222637 1.94631 0
M  V30 4148 H 398.506 0.733571 0.141006 0
M  V30 4149 H 401.168 1.91748 -0.349117 0
M  V30 4150 H 400.264 3.04584 0.680796 0
M  V30 4151 N 400.565 -0.0233959 1.57583 0
M  V30 4152 C 401.842 -0.748794 1.807 0
M  V30 4153 C 402.222 -1.9327 0.849106 0
M  V30 4154 O 401.57 -2.28247 -0.107468 0
M  V30 4155 C 401.78 -1.17651 3.28571 0
M  V30 4156 C 403.128 -1.59008 3.93702 0
M  V30 4157 O 404.152 -1.27094 3.32755 0
M  V30 4158 O 403.011 -2.18264 5.01022 0
M  V30 4159 H 400.105 -0.362578 0.743281 0
M  V30 4160 H 402.651 0.000261958 1.697 0
M  V30 4161 H 401.423 -0.331603 3.89892 0
M  V30 4162 H 401.046 -1.98541 3.44481 0
M  V30 4163 N 402.043 -1.548 -0.295768 0
M  V30 4164 C 403.29 -1.74329 -1.03032 0
M  V30 4165 C 403.618 -0.531915 -1.87085 0
M  V30 4166 O 402.873 0.486052 -1.89568 0
M  V30 4167 C 403.172 -2.98797 -1.961 0
M  V30 4168 C 402.838 -4.32356 -1.2798 0
M  V30 4169 C 401.5 -4.68661 -1.09135 0
M  V30 4170 C 403.852 -5.15128 -0.793243 0
M  V30 4171 C 401.18 -5.85312 -0.403269 0
M  V30 4172 C 403.532 -6.32488 -0.118854 0
M  V30 4173 C 402.196 -6.6745 0.0815043 0
M  V30 4174 H 401.466 -0.637916 -0.37702 0
M  V30 4175 H 404.113 -1.8906 -0.304696 0
M  V30 4176 H 402.418 -2.78869 -2.75207 0
M  V30 4177 H 404.115 -3.11102 -2.53015 0
M  V30 4178 H 400.705 -4.03808 -1.43655 0
M  V30 4179 H 404.889 -4.87575 -0.92653 0
M  V30 4180 H 400.145 -6.1094 -0.237098 0
M  V30 4181 H 404.319 -6.95892 0.266035 0
M  V30 4182 H 401.946 -7.57695 0.616685 0
M  V30 4183 N 403.521 0.559213 -1.47345 0
M  V30 4184 C 404.468 1.66645 -1.59682 0
M  V30 4185 C 405.438 1.60168 -0.43994 0
M  V30 4186 O 406.623 1.79031 -0.659736 0
M  V30 4187 C 403.763 3.04969 -1.61518 0
M  V30 4188 C 402.876 3.21897 -2.88108 0
M  V30 4189 C 402.011 4.50608 -2.81294 0
M  V30 4190 C 401.05 4.60961 -4.02717 0
M  V30 4191 N 400.187 5.81024 -3.94151 0
M  V30 4192 H 405.027 1.55439 -2.54249 0
M  V30 4193 H 402.564 0.757219 -1.26113 0
M  V30 4194 H 404.522 3.85064 -1.60566 0
M  V30 4195 H 403.152 3.15015 -0.704645 0
M  V30 4196 H 402.204 2.35248 -2.98936 0
M  V30 4197 H 403.516 3.25412 -3.78032 0
M  V30 4198 H 402.67 5.3896 -2.7858 0
M  V30 4199 H 401.409 4.49568 -1.89049 0
M  V30 4200 H 400.414 3.71021 -4.05738 0
M  V30 4201 H 401.639 4.63761 -4.96087 0
M  V30 4202 H 399.585 5.80938 -3.04708 0
M  V30 4203 H 399.502 5.85909 -4.77752 0
M  V30 4204 H 400.77 6.71744 -3.9545 0
M  V30 4205 N 404.999 1.35443 0.805782 0
M  V30 4206 C 406.41 1.25768 1.37983 0
M  V30 4207 C 406.761 -0.10958 1.95894 0
M  V30 4208 O 405.886 -1.01056 1.91355 0
M  V30 4209 C 406.481 2.27727 2.5085 0
M  V30 4210 C 405.04 2.2179 3.04115 0
M  V30 4211 C 404.187 2.13393 1.77084 0
M  V30 4212 H 407.138 1.4656 0.608752 0
M  V30 4213 H 407.159 1.90422 3.29424 0
M  V30 4214 H 406.671 3.27227 2.08671 0
M  V30 4215 H 404.772 1.25703 3.50756 0
M  V30 4216 H 404.885 3.13788 3.62042 0
M  V30 4217 H 403.249 1.59384 1.98668 0
M  V30 4218 H 404.032 3.14755 1.37056 0
M  V30 4219 N 406.477 -1.02803 1.19454 0
M  V30 4220 C 407.707 -1.79581 1.02149 0
M  V30 4221 C 408.115 -1.84182 -0.432851 0
M  V30 4222 O 407.458 -1.28534 -1.31243 0
M  V30 4223 C 407.52 -3.25993 1.51554 0
M  V30 4224 C 407.184 -3.45025 2.99678 0
M  V30 4225 C 408.181 -3.35175 3.97434 0
M  V30 4226 C 405.866 -3.71212 3.38389 0
M  V30 4227 C 407.86 -3.51238 5.31893 0
M  V30 4228 C 405.547 -3.8692 4.73008 0
M  V30 4229 C 406.545 -3.76936 5.69569 0
M  V30 4230 O 406.233 -3.92179 7.01748 0
M  V30 4231 H 405.965 -0.571962 0.360327 0
M  V30 4232 H 408.519 -1.30367 1.58725 0
M  V30 4233 H 406.749 -3.76235 0.893543 0
M  V30 4234 H 408.438 -3.84368 1.30444 0
M  V30 4235 H 409.204 -3.14895 3.68872 0
M  V30 4236 H 405.083 -3.78075 2.6378 0
M  V30 4237 H 408.627 -3.43362 6.07247 0
M  V30 4238 H 404.524 -4.06699 5.01265 0
M  V30 4239 H 405.292 -4.09265 7.08833 0
M  V30 4240 N 407.956 -0.998596 -1.21925 0
M  V30 4241 C 408.903 -0.553621 -2.24062 0
M  V30 4242 C 409.873 0.416999 -1.6078 0
M  V30 4243 O 411.058 0.320482 -1.88089 0
M  V30 4244 C 408.198 0.119959 -3.44891 0
M  V30 4245 C 407.311 -0.893077 -4.22668 0
M  V30 4246 C 406.446 -0.192424 -5.30851 0
M  V30 4247 C 405.485 -1.19344 -6.00353 0
M  V30 4248 N 404.622 -0.520707 -7.00166 0
M  V30 4249 H 409.462 -1.4293 -2.61486 0
M  V30 4250 H 406.999 -0.715838 -1.28507 0
M  V30 4251 H 408.957 0.527459 -4.13852 0
M  V30 4252 H 407.587 0.959389 -3.08214 0
M  V30 4253 H 406.639 -1.41886 -3.52948 0
M  V30 4254 H 407.951 -1.65512 -4.70539 0
M  V30 4255 H 407.105 0.271515 -6.06092 0
M  V30 4256 H 405.844 0.602075 -4.83969 0
M  V30 4257 H 404.849 -1.66795 -5.23889 0
M  V30 4258 H 406.074 -1.98891 -6.49322 0
M  V30 4259 H 404.02 0.254252 -6.55507 0
M  V30 4260 H 403.937 -1.2211 -7.46073 0
M  V30 4261 H 405.205 -0.0797596 -7.79459 0
M  V30 4262 N 409.434 1.37368 -0.772513 0
M  V30 4263 C 410.845 1.8231 -0.402493 0
M  V30 4264 C 411.196 1.6436 1.07146 0
M  V30 4265 O 410.321 1.15514 1.82991 0
M  V30 4266 C 410.916 3.30979 -0.723776 0
M  V30 4267 C 409.475 3.74195 -0.406802 0
M  V30 4268 C 408.622 2.59885 -0.967218 0
M  V30 4269 H 411.573 1.25829 -0.967099 0
M  V30 4270 H 411.594 3.80499 -0.00870832 0
M  V30 4271 H 411.106 3.44011 -1.7966 0
M  V30 4272 H 409.207 3.66732 0.658673 0
M  V30 4273 H 409.32 4.7027 -0.915588 0
M  V30 4274 H 407.684 2.51674 -0.391416 0
M  V30 4275 H 408.467 2.7571 -2.04546 0
M  V30 4276 N 410.912 0.523116 1.48665 0
M  V30 4277 C 412.16 -0.0134497 2.02096 0
M  V30 4278 C 412.481 -1.35418 1.40311 0
M  V30 4279 O 411.751 -1.87543 0.566074 0
M  V30 4280 H 410.331 -0.00795915 0.746958 0
M  V30 4281 H 412.993 0.685388 1.82451 0
M  V30 4282 H 412.089 -0.126849 3.11842 0
M  V30 4283 N 412.39 -1.55475 0.257931 0
M  V30 4284 C 413.322 -2.19192 -0.669881 0
M  V30 4285 C 414.335 -1.17148 -1.1305 0
M  V30 4286 O 415.524 -1.43959 -1.05537 0
M  V30 4287 C 412.624 -2.79016 -1.92363 0
M  V30 4288 C 411.797 -4.06586 -1.61265 0
M  V30 4289 C 410.856 -4.50622 -2.7171 0
M  V30 4290 O 409.882 -5.16765 -2.38627 0
M  V30 4291 N 411.084 -4.19325 -4.01431 0
M  V30 4292 H 413.849 -2.99441 -0.124635 0
M  V30 4293 H 411.41 -1.6171 0.0783311 0
M  V30 4294 H 413.402 -3.05427 -2.65511 0
M  V30 4295 H 411.972 -2.0286 -2.37837 0
M  V30 4296 H 411.192 -3.87646 -0.715811 0
M  V30 4297 H 412.48 -4.89737 -1.37967 0
M  V30 4298 H 411.878 -3.66247 -4.31138 0
M  V30 4299 H 410.435 -4.50547 -4.7101 0
M  V30 4300 N 413.868 0.0150385 -1.57593 0
M  V30 4301 C 415.096 0.714395 -1.94175 0
M  V30 4302 C 415.511 1.68135 -0.858841 0
M  V30 4303 O 414.868 1.81766 0.163567 0
M  V30 4304 C 414.919 1.45933 -3.30735 0
M  V30 4305 O 414.64 0.531167 -4.34868 0
M  V30 4306 C 416.141 2.25456 -3.81686 0
M  V30 4307 H 413.361 0.199923 -0.640525 0
M  V30 4308 H 415.905 -0.0316096 -2.04476 0
M  V30 4309 H 414.06 2.15709 -3.21789 0
M  V30 4310 H 414.474 1.05509 -5.13778 0
M  V30 4311 H 415.948 2.731 -4.79709 0
M  V30 4312 H 416.425 3.07485 -3.13607 0
M  V30 4313 H 417.031 1.60727 -3.9376 0
M  V30 4314 N 415.346 1.54954 0.287554 0
M  V30 4315 C 416.576 1.78622 1.03816 0
M  V30 4316 C 416.984 0.552451 1.80955 0
M  V30 4317 O 416.327 -0.487665 1.77109 0
M  V30 4318 C 416.389 2.94975 2.055 0
M  V30 4319 C 416.053 4.32565 1.47433 0
M  V30 4320 C 417.05 5.12096 0.897436 0
M  V30 4321 C 414.735 4.79195 1.50591 0
M  V30 4322 C 416.729 6.36383 0.359851 0
M  V30 4323 C 414.416 6.03441 0.964459 0
M  V30 4324 C 415.414 6.81872 0.392413 0
M  V30 4325 O 415.102 8.03777 -0.140788 0
M  V30 4326 H 414.834 0.599144 0.313053 0
M  V30 4327 H 417.388 2.02761 0.328225 0
M  V30 4328 H 415.618 2.66493 2.80211 0
M  V30 4329 H 417.307 3.06097 2.6657 0
M  V30 4330 H 418.073 4.77209 0.865841 0
M  V30 4331 H 413.952 4.18167 1.94055 0
M  V30 4332 H 417.496 6.97545 -0.0872951 0
M  V30 4333 H 413.393 6.37813 0.993246 0
M  V30 4334 H 414.161 8.18495 -0.0287617 0
M  V30 4335 N 416.824 -0.551391 1.4764 0
M  V30 4336 C 418.073 -1.30467 1.53822 0
M  V30 4337 C 418.386 -1.94495 0.207661 0
M  V30 4338 O 419.592 -2.71099 0.147533 0
M  V30 4339 C 418.048 -2.36616 2.71184 0
M  V30 4340 C 417.656 -1.78754 4.10793 0
M  V30 4341 C 419.4 -3.13088 2.86663 0
M  V30 4342 C 417.307 -2.82717 5.19447 0
M  V30 4343 H 416.237 -0.490584 0.572576 0
M  V30 4344 H 418.888 -0.58494 1.73927 0
M  V30 4345 H 417.27 -3.11529 2.4447 0
M  V30 4346 H 418.444 -1.10173 4.47435 0
M  V30 4347 H 416.759 -1.14846 4.00249 0
M  V30 4348 H 419.356 -3.90736 3.65007 0
M  V30 4349 H 419.699 -3.67635 1.95321 0
M  V30 4350 H 420.232 -2.45288 3.13175 0
M  V30 4351 H 416.971 -2.33018 6.12685 0
M  V30 4352 H 416.491 -3.4969 4.87316 0
M  V30 4353 H 418.17 -3.46102 5.46646 0
M  V30 4354 N 418.302 -1.35869 -0.798587 0
M  V30 4355 C 419.713 -1.26498 -1.37314 0
M  V30 4356 C 420.064 0.0991899 -1.95949 0
M  V30 4357 O 419.189 1.0004 -1.91888 0
M  V30 4358 C 419.784 -2.29054 -2.49639 0
M  V30 4359 C 418.343 -2.234 -3.02935 0
M  V30 4360 C 417.49 -2.14329 -1.75949 0
M  V30 4361 H 420.441 -1.46881 -0.600971 0
M  V30 4362 H 420.462 -1.92166 -3.28409 0
M  V30 4363 H 419.974 -3.2833 -2.06933 0
M  V30 4364 H 418.075 -1.27562 -3.50084 0
M  V30 4365 H 418.188 -3.15703 -3.60372 0
M  V30 4366 H 416.552 -1.60435 -1.9782 0
M  V30 4367 H 417.335 -3.15477 -1.35384 0
M  V30 4368 N 419.78 1.02168 -1.19998 0
M  V30 4369 C 421.02 1.77232 -1.01825 0
M  V30 4370 C 421.384 1.86833 0.442428 0
M  V30 4371 O 422.585 2.58293 0.744189 0
M  V30 4372 C 420.856 3.15601 -1.67722 0
M  V30 4373 S 422.415 4.06765 -1.64584 0
M  V30 4374 H 419.233 0.610021 -0.365233 0
M  V30 4375 H 421.835 1.22368 -1.52467 0
M  V30 4376 H 420.539 3.06235 -2.73218 0
M  V30 4377 H 420.07 3.7554 -1.17189 0
M  V30 4378 H 422.085 4.91586 -0.67511 0
M  V30 4379 N 421.258 1.00505 1.21394 0
M  V30 4380 C 422.488 0.705584 1.94178 0
M  V30 4381 C 422.896 -0.735846 1.74304 0
M  V30 4382 O 422.239 -1.50954 1.04683 0
M  V30 4383 C 422.301 0.94689 3.46806 0
M  V30 4384 C 421.965 2.37517 3.90429 0
M  V30 4385 C 422.962 3.35539 3.97127 0
M  V30 4386 C 420.647 2.71284 4.22742 0
M  V30 4387 C 422.641 4.65395 4.3553 0
M  V30 4388 C 420.328 4.01356 4.60822 0
M  V30 4389 C 421.326 4.98223 4.67186 0
M  V30 4390 O 421.014 6.25969 5.04399 0
M  V30 4391 H 420.746 0.259216 0.624326 0
M  V30 4392 H 423.3 1.34592 1.55159 0
M  V30 4393 H 421.53 0.249386 3.85895 0
M  V30 4394 H 423.219 0.640804 4.0081 0
M  V30 4395 H 423.985 3.10786 3.7234 0
M  V30 4396 H 419.864 1.96581 4.16985 0
M  V30 4397 H 423.408 5.41002 4.40412 0
M  V30 4398 H 419.305 4.25893 4.85063 0
M  V30 4399 H 420.073 6.30085 5.22431 0
M  V30 4400 N 422.737 -1.36956 0.779787 0
M  V30 4401 C 423.984 -1.99491 0.347766 0
M  V30 4402 C 424.312 -1.61898 -1.07793 0
M  V30 4403 O 423.567 -0.86071 -1.75756 0
M  V30 4404 C 423.866 -3.54585 0.447686 0
M  V30 4405 C 423.532 -4.1197 1.83279 0
M  V30 4406 C 422.194 -4.27356 2.2118 0
M  V30 4407 C 424.546 -4.43354 2.74019 0
M  V30 4408 C 421.874 -4.71432 3.4924 0
M  V30 4409 C 424.226 -4.88858 4.01497 0
M  V30 4410 C 422.89 -5.0245 4.39432 0
M  V30 4411 H 422.16 -0.729991 0.127257 0
M  V30 4412 H 424.807 -1.63599 0.995376 0
M  V30 4413 H 423.112 -3.90773 -0.283447 0
M  V30 4414 H 424.809 -4.00888 0.0945948 0
M  V30 4415 H 421.399 -4.00428 1.52825 0
M  V30 4416 H 425.583 -4.31045 2.45995 0
M  V30 4417 H 420.839 -4.80141 3.78516 0
M  V30 4418 H 425.013 -5.12108 4.71931 0
M  V30 4419 H 422.64 -5.36362 5.38721 0
M  V30 4420 N 424.215 -0.530993 -1.48385 0
M  V30 4421 C 425.464 0.00474348 -2.01699 0
M  V30 4422 C 425.777 1.35227 -1.41325 0
M  V30 4423 O 426.983 1.97643 -1.86144 0
M  V30 4424 C 425.439 0.0588473 -3.59852 0
M  V30 4425 C 425.047 -1.28385 -4.2921 0
M  V30 4426 C 426.791 0.543358 -4.21008 0
M  V30 4427 C 424.698 -1.19028 -5.79298 0
M  V30 4428 H 423.628 0.00554317 -0.75398 0
M  V30 4429 H 426.279 -0.674924 -1.70637 0
M  V30 4430 H 424.661 0.803612 -3.8776 0
M  V30 4431 H 425.835 -2.04426 -4.12973 0
M  V30 4432 H 424.15 -1.70418 -3.7993 0
M  V30 4433 H 426.747 0.631351 -5.3096 0
M  V30 4434 H 427.09 1.54937 -3.86394 0
M  V30 4435 H 427.623 -0.145754 -3.97533 0
M  V30 4436 H 424.362 -2.17147 -6.18488 0
M  V30 4437 H 423.882 -0.471246 -5.97946 0
M  V30 4438 H 425.561 -0.881365 -6.40969 0
M  V30 4439 N 425.693 1.55336 -0.266172 0
M  V30 4440 C 426.643 2.18848 0.639497 0
M  V30 4441 C 427.627 1.1503 1.12503 0
M  V30 4442 O 428.819 1.40875 1.0716 0
M  V30 4443 C 425.948 2.90626 1.82733 0
M  V30 4444 C 425.034 4.01723 1.35939 0
M  V30 4445 N 425.425 5.02145 0.606988 0
M  V30 4446 C 423.723 4.1463 1.6431 0
M  V30 4447 C 424.424 5.80572 0.362138 0
M  V30 4448 N 423.4 5.35551 0.931971 0
M  V30 4449 H 427.202 2.93845 0.0567057 0
M  V30 4450 H 424.716 1.62252 -0.0693312 0
M  V30 4451 H 426.713 3.34569 2.48735 0
M  V30 4452 H 425.373 2.17137 2.41416 0
M  V30 4453 H 426.384 5.17271 0.255198 0
M  V30 4454 H 423.061 3.52326 2.23993 0
M  V30 4455 H 424.451 6.71472 -0.239848 0
M  V30 4456 N 427.171 -0.0066808 1.57599 0
M  V30 4457 C 428.417 -0.693947 1.90558 0
M  V30 4458 C 428.75 -1.73792 0.866594 0
M  V30 4459 O 428.025 -1.94156 -0.115548 0
M  V30 4460 C 428.308 -1.34317 3.34112 0
M  V30 4461 C 428.161 -0.311189 4.48722 0
M  V30 4462 C 429.48 -2.27116 3.7697 0
M  V30 4463 H 426.599 -0.250803 0.693013 0
M  V30 4464 H 429.241 0.043242 1.89951 0
M  V30 4465 H 427.391 -1.9715 3.3476 0
M  V30 4466 H 429.063 0.316944 4.6021 0
M  V30 4467 H 427.306 0.367253 4.32243 0
M  V30 4468 H 427.977 -0.804366 5.46108 0
M  V30 4469 H 430.453 -1.74306 3.77831 0
M  V30 4470 H 429.329 -2.69511 4.78179 0
M  V30 4471 H 429.59 -3.14743 3.10466 0
M  V30 4472 N 428.649 -1.55105 -0.279332 0
M  V30 4473 C 429.579 -1.90557 -1.34945 0
M  V30 4474 C 430.56 -0.766738 -1.51839 0
M  V30 4475 O 431.745 -1.02434 -1.64988 0
M  V30 4476 C 428.875 -2.17193 -2.71006 0
M  V30 4477 C 427.829 -3.33021 -2.68851 0
M  V30 4478 C 427.155 -3.45123 -4.08405 0
M  V30 4479 C 428.455 -4.69578 -2.28678 0
M  V30 4480 H 430.149 -2.80188 -1.05522 0
M  V30 4481 H 427.695 -1.34811 -0.506173 0
M  V30 4482 H 429.648 -2.40581 -3.45975 0
M  V30 4483 H 428.372 -1.24355 -3.01999 0
M  V30 4484 H 427.031 -3.0959 -1.9634 0
M  V30 4485 H 426.679 -2.49762 -4.3661 0
M  V30 4486 H 426.379 -4.22995 -4.07859 0
M  V30 4487 H 427.903 -3.70796 -4.85121 0
M  V30 4488 H 429.317 -4.92553 -2.93368 0
M  V30 4489 H 427.714 -5.5032 -2.39306 0
M  V30 4490 H 428.784 -4.68828 -1.23807 0
M  V30 4491 N 430.127 0.543554 -1.4793 0
M  V30 4492 C 431.074 1.64942 -1.6144 0
M  V30 4493 C 432.044 1.59692 -0.456903 0
M  V30 4494 O 433.229 1.78321 -0.678688 0
M  V30 4495 C 430.369 3.03238 -1.64744 0
M  V30 4496 C 429.482 3.18823 -2.91506 0
M  V30 4497 C 428.617 4.47599 -2.86057 0
M  V30 4498 C 427.656 4.56664 -4.07584 0
M  V30 4499 N 426.793 5.76811 -4.00292 0
M  V30 4500 H 431.633 1.52733 -2.55884 0
M  V30 4501 H 429.17 0.7438 -1.2691 0
M  V30 4502 H 431.128 3.83339 -1.64641 0
M  V30 4503 H 429.758 3.1425 -0.738017 0
M  V30 4504 H 428.81 2.32064 -3.01414 0
M  V30 4505 H 430.122 3.21384 -3.81463 0
M  V30 4506 H 429.276 5.35975 -2.84281 0
M  V30 4507 H 428.015 4.47538 -1.93807 0
M  V30 4508 H 427.02 3.66697 -4.09651 0
M  V30 4509 H 428.245 4.58474 -5.00978 0
M  V30 4510 H 426.191 5.77673 -3.10853 0
M  V30 4511 H 426.108 5.80808 -4.8394 0
M  V30 4512 H 427.376 6.67512 -4.02553 0
M  V30 4513 N 431.605 1.3629 0.791371 0
M  V30 4514 C 433.021 1.16661 1.08914 0
M  V30 4515 C 433.221 -0.0106266 2.01497 0
M  V30 4516 O 432.277 -0.676596 2.43266 0
M  V30 4517 C 433.59 2.47656 1.70549 0
M  V30 4518 C 435.138 2.54002 1.82899 0
M  V30 4519 C 435.613 3.85078 2.47949 0
M  V30 4520 N 437.104 3.86413 2.5542 0
M  V30 4521 C 437.839 4.84572 3.06557 0
M  V30 4522 N 437.335 5.93124 3.58016 0
M  V30 4523 N 439.128 4.71994 3.05251 0
M  V30 4524 H 431.279 2.11668 0.176238 0
M  V30 4525 H 433.542 0.937486 0.140796 0
M  V30 4526 H 433.248 3.34059 1.09989 0
M  V30 4527 H 433.122 2.63319 2.70079 0
M  V30 4528 H 435.509 1.68018 2.42598 0
M  V30 4529 H 435.59 2.42239 0.821808 0
M  V30 4530 H 435.234 4.71467 1.88895 0
M  V30 4531 H 435.164 3.94135 3.49235 0
M  V30 4532 H 437.655 3.07988 2.18979 0
M  V30 4533 H 437.968 6.63999 3.95381 0
M  V30 4534 H 436.313 5.96796 3.56173 0
M  V30 4535 H 439.504 3.86321 2.64336 0
M  V30 4536 H 439.677 5.48653 3.44796 0
M  V30 4537 N 433.083 -1.0153 1.20538 0
M  V30 4538 C 434.311 -1.78746 1.04199 0
M  V30 4539 C 434.726 -1.84323 -0.408733 0
M  V30 4540 O 434.083 -1.29714 -1.28377 0
M  V30 4541 C 434.134 -3.23152 1.62035 0
M  V30 4542 O 433.855 -3.17918 3.0143 0
M  V30 4543 C 435.356 -4.16911 1.50666 0
M  V30 4544 H 432.576 -0.56208 0.366479 0
M  V30 4545 H 435.12 -1.27794 1.59653 0
M  V30 4546 H 433.275 -3.71248 1.10697 0
M  V30 4547 H 433.689 -4.08567 3.28897 0
M  V30 4548 H 435.163 -5.16072 1.95892 0
M  V30 4549 H 435.64 -4.36791 0.459363 0
M  V30 4550 H 436.246 -3.74698 2.01201 0
M  V30 4551 N 434.561 -1.01147 -1.20859 0
M  V30 4552 C 435.838 -0.613136 -1.85742 0
M  V30 4553 C 436.218 0.909004 -1.90526 0
M  V30 4554 O 435.566 1.79862 -1.40932 0
M  V30 4555 C 435.776 -1.255 -3.25654 0
M  V30 4556 C 437.124 -1.3672 -4.01986 0
M  V30 4557 O 438.148 -1.21082 -3.34989 0
M  V30 4558 O 437.007 -1.6194 -5.21956 0
M  V30 4559 H 434.101 -0.210878 -0.799662 0
M  V30 4560 H 436.647 -1.10853 -1.2849 0
M  V30 4561 H 435.419 -2.29532 -3.16908 0
M  V30 4562 H 435.042 -0.746369 -3.90532 0
M  V30 4563 O 436.078 1.32499 -0.923373 0
M  V30 4564 H 436.769 1.85906 -0.543924 0
M  V30 END ATOM
M  V30 BEGIN BOND
M  V30 END BOND
M  V30 END CTAB
M  END
$$$$
