drugbank_target|Q14832 Metabotropic glutamate receptor 3 (DB05096)
 OpenBabel12092120093D

  0  0  0     0  0            999 V3000
M  V30 BEGIN CTAB
M  V30 COUNTS 13862 14019 0 0 0
M  V30 BEGIN ATOM
M  V30 1 H -0.908 1.98254 -0.117106 0
M  V30 2 N 0 1.576 0 0
M  V30 3 C 0.933 2.03868 1.02534 0
M  V30 4 C 1.911 0.928543 1.3348 0
M  V30 5 O 3.095 1.19667 1.45644 0
M  V30 6 C 0.222 2.43627 2.35294 0
M  V30 7 C -0.732 3.65373 2.2001 0
M  V30 8 S 0.101 5.13292 1.52614 0
M  V30 9 C 1.257 5.56322 2.86805 0
M  V30 10 H 1.49 2.90518 0.631377 0
M  V30 11 H -0.977 1.52953 0.210867 0
M  V30 12 H 0.981 2.67203 3.11629 0
M  V30 13 H -0.358 1.57376 2.7183 0
M  V30 14 H -1.165 3.90944 3.18086 0
M  V30 15 H -1.563 3.418 1.51819 0
M  V30 16 H 0.729 5.58782 3.83104 0
M  V30 17 H 1.672 6.56266 2.65933 0
M  V30 18 H 2.08 4.83886 2.90714 0
M  V30 19 N 1.4781 -0.272755 1.55222 0
M  V30 20 C 2.4251 -1.33716 1.88119 0
M  V30 21 C 3.3951 -1.49066 0.73271 0
M  V30 22 O 4.5801 -1.63469 0.984002 0
M  V30 23 C 1.7201 -2.69238 2.15882 0
M  V30 24 C 0.8331 -2.62108 3.43399 0
M  V30 25 C -0.0319 -3.89811 3.60861 0
M  V30 26 C -0.9929 -3.77193 4.8207 0
M  V30 27 N -1.8559 -4.9673 4.96189 0
M  V30 28 H 2.9841 -1.04962 2.78903 0
M  V30 29 H 0.5211 -0.507088 1.38083 0
M  V30 30 H 2.4791 -3.48089 2.29978 0
M  V30 31 H 1.1091 -2.96194 1.28331 0
M  V30 32 H 0.1611 -1.74967 3.37773 0
M  V30 33 H 1.4731 -2.48685 4.32386 0
M  V30 34 H 0.6271 -4.77103 3.74777 0
M  V30 35 H -0.6339 -4.06102 2.7006 0
M  V30 36 H -1.6289 -2.88284 4.68159 0
M  V30 37 H -0.4039 -3.62421 5.74307 0
M  V30 38 H -2.4579 -5.13431 4.08319 0
M  V30 39 H -2.5409 -4.85839 5.79221 0
M  V30 40 H -1.2729 -5.85594 5.1449 0
M  V30 41 N 2.9562 -1.48159 -0.537278 0
M  V30 42 C 3.8892 -1.567 -1.65893 0
M  V30 43 C 4.8672 -0.41787 -1.57139 0
M  V30 44 O 6.0512 -0.628461 -1.77715 0
M  V30 45 C 3.1782 -1.48818 -3.04255 0
M  V30 46 C 2.2242 -2.68482 -3.31391 0
M  V30 47 S 3.0572 -4.30516 -3.1846 0
M  V30 48 C 4.2132 -4.2522 -4.59281 0
M  V30 49 H 4.4462 -2.5159 -1.58397 0
M  V30 50 H 1.9792 -1.36602 -0.719672 0
M  V30 51 H 3.9372 -1.44958 -3.84054 0
M  V30 52 H 2.5982 -0.552777 -3.09198 0
M  V30 53 H 1.7912 -2.59085 -4.32309 0
M  V30 54 H 1.3932 -2.69567 -2.59248 0
M  V30 55 H 3.6852 -3.94703 -5.5065 0
M  V30 56 H 4.6282 -5.26292 -4.73732 0
M  V30 57 H 5.0362 -3.55791 -4.38261 0
M  V30 58 N 4.4343 0.785586 -1.36625 0
M  V30 59 C 5.3643 1.91259 -1.33949 0
M  V30 60 C 6.3453 1.68795 -0.210325 0
M  V30 61 O 7.5303 1.89854 -0.408561 0
M  V30 62 C 4.6603 3.28339 -1.13186 0
M  V30 63 C 3.6143 3.65335 -2.22967 0
M  V30 64 C 2.9403 5.00806 -1.87342 0
M  V30 65 C 4.2403 3.7352 -3.65075 0
M  V30 66 H 5.9343 1.93755 -2.28253 0
M  V30 67 H 3.4803 0.930788 -1.09874 0
M  V30 68 H 5.4333 4.06804 -1.09948 0
M  V30 69 H 4.1573 3.2624 -0.153332 0
M  V30 70 H 2.8163 2.89169 -2.25337 0
M  V30 71 H 2.4643 4.95233 -0.880545 0
M  V30 72 H 2.1643 5.26529 -2.60846 0
M  V30 73 H 3.6883 5.81687 -1.85667 0
M  V30 74 H 5.1023 4.42168 -3.64911 0
M  V30 75 H 3.4993 4.10731 -4.37516 0
M  V30 76 H 4.5693 2.74527 -3.99703 0
M  V30 77 N 5.9124 1.20967 1.01018 0
M  V30 78 C 7.1404 1.04956 1.78303 0
M  V30 79 C 7.5554 -0.400915 1.84494 0
M  V30 80 O 6.9124 -1.27826 1.30257 0
M  V30 81 C 6.9634 1.63403 3.22462 0
M  V30 82 O 6.6844 3.02775 3.16637 0
M  V30 83 C 8.1854 1.52432 4.16268 0
M  V30 84 H 5.4054 0.368858 0.560522 0
M  V30 85 H 7.9494 1.60193 1.27116 0
M  V30 86 H 6.1044 1.1227 3.70775 0
M  V30 87 H 6.5184 3.30626 4.07169 0
M  V30 88 H 7.9924 1.98078 5.15237 0
M  V30 89 H 8.4694 0.477875 4.36592 0
M  V30 90 H 9.0754 2.02787 3.73841 0
M  V30 91 N 7.3905 -1.2043 1.01659 0
M  V30 92 C 8.8065 -1.41852 0.731442 0
M  V30 93 C 9.0065 -1.89358 -0.688898 0
M  V30 94 O 8.0625 -2.06247 -1.45666 0
M  V30 95 C 9.3755 -2.44019 1.75714 0
M  V30 96 C 10.9235 -2.57785 1.77527 0
M  V30 97 C 11.3985 -3.63194 2.79023 0
M  V30 98 N 12.8895 -3.70678 2.77763 0
M  V30 99 C 13.6245 -4.51897 3.52954 0
M  V30 100 N 13.1205 -5.36921 4.37821 0
M  V30 101 N 14.9135 -4.4643 3.41551 0
M  V30 102 H 7.0645 -0.879093 1.93354 0
M  V30 103 H 9.3275 -0.448425 0.835236 0
M  V30 104 H 9.0335 -2.1611 2.77469 0
M  V30 105 H 8.9075 -3.43007 1.56927 0
M  V30 106 H 11.2945 -2.85023 0.764569 0
M  V30 107 H 11.3755 -1.58992 2.00387 0
M  V30 108 H 11.0195 -3.36699 3.80258 0
M  V30 109 H 10.9495 -4.61609 2.53425 0
M  V30 110 H 13.4405 -3.09944 2.16201 0
M  V30 111 H 13.7535 -5.95981 4.91962 0
M  V30 112 H 12.0985 -5.36424 4.41899 0
M  V30 113 H 15.2895 -3.79042 2.74672 0
M  V30 114 H 15.4625 -5.09491 4.00404 0
M  V30 115 N 8.8686 -0.792821 -1.36206 0
M  V30 116 C 9.7986 -0.207853 -2.32573 0
M  V30 117 C 10.7796 0.659055 -1.56813 0
M  V30 118 O 11.9646 0.592176 -1.84951 0
M  V30 119 C 9.0946 0.655449 -3.41059 0
M  V30 120 C 8.0486 -0.111842 -4.27854 0
M  V30 121 C 7.3746 0.872274 -5.27537 0
M  V30 122 C 8.6746 -1.30299 -5.05786 0
M  V30 123 H 10.3686 -1.01294 -2.81744 0
M  V30 124 H 7.9146 -0.48854 -1.3546 0
M  V30 125 H 9.8676 1.07464 -4.07467 0
M  V30 126 H 8.5916 1.49328 -2.90463 0
M  V30 127 H 7.2506 -0.512053 -3.63006 0
M  V30 128 H 6.8986 1.70523 -4.73214 0
M  V30 129 H 6.5986 0.363291 -5.86476 0
M  V30 130 H 8.1226 1.28996 -5.96818 0
M  V30 131 H 9.5366 -0.959379 -5.65216 0
M  V30 132 H 7.9336 -1.7455 -5.74154 0
M  V30 133 H 9.0036 -2.09663 -4.37229 0
M  V30 134 N 10.3467 1.47872 -0.545128 0
M  V30 135 C 11.2787 2.27869 0.246621 0
M  V30 136 C 12.2917 1.36282 0.890561 0
M  V30 137 O 13.4807 1.61207 0.766449 0
M  V30 138 C 10.5807 3.10159 1.36582 0
M  V30 139 C 9.7537 4.29627 0.820954 0
M  V30 140 C 8.8127 4.93607 1.82314 0
M  V30 141 O 7.8387 5.52366 1.37406 0
M  V30 142 N 9.0407 4.87211 3.15603 0
M  V30 143 H 11.8057 2.96459 -0.439539 0
M  V30 144 H 9.3667 1.57367 -0.380421 0
M  V30 145 H 11.3587 3.49829 2.03474 0
M  V30 146 H 9.9287 2.43891 1.9554 0
M  V30 147 H 9.1487 3.94192 -0.0244032 0
M  V30 148 H 10.4367 5.06928 0.436063 0
M  V30 149 H 9.8347 4.40651 3.54744 0
M  V30 150 H 8.3917 5.30937 3.78087 0
M  V30 151 N 11.8248 0.280983 1.55075 0
M  V30 152 C 13.0708 -0.33461 2.00021 0
M  V30 153 C 13.4038 -1.55063 1.16915 0
M  V30 154 O 12.6788 -1.93006 0.240646 0
M  V30 155 C 12.9618 -0.711007 3.53011 0
M  V30 156 C 12.8148 0.512766 4.46868 0
M  V30 157 C 14.1338 -1.54522 4.12081 0
M  V30 158 H 11.2528 -0.120147 0.727141 0
M  V30 159 H 13.8948 0.389097 1.85973 0
M  V30 160 H 12.0448 -1.32761 3.65112 0
M  V30 161 H 13.7168 1.15131 4.46702 0
M  V30 162 H 11.9598 1.14975 4.18286 0
M  V30 163 H 12.6308 0.205556 5.51617 0
M  V30 164 H 15.1068 -1.02442 4.03293 0
M  V30 165 H 13.9828 -1.77739 5.19327 0
M  V30 166 H 14.2438 -2.52813 3.62682 0
M  V30 167 N 13.3029 -1.57598 0.00835791 0
M  V30 168 C 14.2329 -2.1198 -0.979113 0
M  V30 169 C 15.2139 -1.03091 -1.35301 0
M  V30 170 O 16.3989 -1.30818 -1.43528 0
M  V30 171 C 13.5289 -2.62995 -2.26828 0
M  V30 172 C 12.4829 -3.76485 -2.03576 0
M  V30 173 C 11.8089 -4.13846 -3.38579 0
M  V30 174 C 13.1089 -5.0342 -1.39161 0
M  V30 175 H 14.8029 -2.94738 -0.526281 0
M  V30 176 H 12.3489 -1.41783 -0.251704 0
M  V30 177 H 14.3019 -2.99669 -2.96271 0
M  V30 178 H 13.0259 -1.7737 -2.7424 0
M  V30 179 H 11.6849 -3.40217 -1.36557 0
M  V30 180 H 11.3329 -3.25232 -3.83709 0
M  V30 181 H 11.0329 -4.90312 -3.23834 0
M  V30 182 H 12.5569 -4.53086 -4.09323 0
M  V30 183 H 13.9709 -5.37812 -1.98573 0
M  V30 184 H 12.3679 -5.84746 -1.34878 0
M  V30 185 H 13.4379 -4.83548 -0.361868 0
M  V30 186 N 14.781 0.264519 -1.55364 0
M  V30 187 C 16.009 1.013 -1.80405 0
M  V30 188 C 16.424 1.79618 -0.581622 0
M  V30 189 O 15.781 1.76879 0.449468 0
M  V30 190 C 15.832 1.96487 -3.03439 0
M  V30 191 O 15.553 1.21341 -4.20961 0
M  V30 192 C 17.054 2.83079 -3.41147 0
M  V30 193 H 14.274 0.298875 -0.600762 0
M  V30 194 H 16.818 0.292736 -2.02394 0
M  V30 195 H 14.973 2.63965 -2.83551 0
M  V30 196 H 15.387 1.85573 -4.90574 0
M  V30 197 H 16.861 3.4565 -4.30384 0
M  V30 198 H 17.338 3.53286 -2.60932 0
M  V30 199 H 17.944 2.2108 -3.63323 0
M  V30 200 N 16.2591 1.48442 0.529413 0
M  V30 201 C 17.1891 1.65902 1.64313 0
M  V30 202 C 18.1701 0.507897 1.6234 0
M  V30 203 O 19.3551 0.740503 1.79528 0
M  V30 204 C 16.4851 1.69911 3.02898 0
M  V30 205 C 15.4391 2.8453 3.19729 0
M  V30 206 C 14.7651 2.73629 4.59381 0
M  V30 207 C 16.0651 4.25821 3.02447 0
M  V30 208 H 17.7591 2.5914 1.49955 0
M  V30 209 H 15.3051 1.24709 0.719982 0
M  V30 210 H 17.2581 1.80715 3.80684 0
M  V30 211 H 15.9821 0.732524 3.18279 0
M  V30 212 H 14.6411 2.73283 2.44361 0
M  V30 213 H 14.2891 1.74938 4.71599 0
M  V30 214 H 13.9891 3.50541 4.71588 0
M  V30 215 H 15.5131 2.86401 5.39265 0
M  V30 216 H 16.9271 4.37898 3.70024 0
M  V30 217 H 15.3241 5.03735 3.26146 0
M  V30 218 H 16.3941 4.42244 1.98867 0
M  V30 219 N 17.7372 -0.778329 1.37039 0
M  V30 220 C 18.7002 -1.87301 1.32102 0
M  V30 221 C 19.7002 -1.59198 0.226405 0
M  V30 222 O 20.8902 -1.67403 0.481861 0
M  V30 223 C 18.0222 -3.24309 1.05055 0
M  V30 224 H 19.2152 -1.93093 2.29467 0
M  V30 225 H 16.7682 -0.977358 1.21973 0
M  V30 226 H 17.5032 -3.24196 0.0819373 0
M  V30 227 H 17.2882 -3.46098 1.84279 0
M  V30 228 H 18.7782 -4.04382 1.04234 0
M  V30 229 N 19.2153 -1.21501 -1.00376 0
M  V30 230 C 20.1453 -0.999478 -2.11028 0
M  V30 231 C 21.1263 0.0759671 -1.6993 0
M  V30 232 O 22.3113 -0.0841106 -1.94018 0
M  V30 233 C 19.4413 -0.564709 -3.42678 0
M  V30 234 C 18.3953 -1.58486 -3.97576 0
M  V30 235 C 17.7213 -1.00628 -5.25146 0
M  V30 236 C 19.0213 -2.97204 -4.29496 0
M  V30 237 H 20.7153 -1.92495 -2.29317 0
M  V30 238 H 18.2613 -0.92693 -1.102 0
M  V30 239 H 20.2143 -0.401091 -4.19487 0
M  V30 240 H 18.9383 0.396411 -3.24185 0
M  V30 241 H 17.5973 -1.73606 -3.22888 0
M  V30 242 H 17.2453 -0.0368439 -5.02987 0
M  V30 243 H 16.9453 -1.68771 -5.62841 0
M  V30 244 H 18.4693 -0.854015 -6.04598 0
M  V30 245 H 19.8833 -2.8552 -4.97143 0
M  V30 246 H 18.2803 -3.62372 -4.78338 0
M  V30 247 H 19.3503 -3.47956 -3.3772 0
M  V30 248 N 20.6934 1.19889 -1.02296 0
M  V30 249 C 21.9404 1.8942 -0.715972 0
M  V30 250 C 22.2684 1.79251 0.754944 0
M  V30 251 O 21.5234 1.17526 1.56481 0
M  V30 252 C 21.8224 3.39883 -1.10518 0
M  V30 253 C 21.4884 3.70254 -2.57337 0
M  V30 254 C 20.1504 3.78254 -2.97452 0
M  V30 255 C 22.5024 3.84052 -3.52354 0
M  V30 256 C 19.8304 3.97514 -4.31509 0
M  V30 257 C 22.1824 4.04824 -4.86108 0
M  V30 258 C 20.8464 4.11054 -5.25919 0
M  V30 259 H 20.1164 0.693138 -0.261993 0
M  V30 260 H 22.7634 1.42012 -1.28472 0
M  V30 261 H 21.0684 3.8915 -0.454953 0
M  V30 262 H 22.7654 3.9199 -0.845261 0
M  V30 263 H 19.3554 3.64632 -2.25258 0
M  V30 264 H 23.5394 3.77221 -3.22518 0
M  V30 265 H 18.7954 4.00574 -4.61898 0
M  V30 266 H 22.9694 4.14442 -5.59653 0
M  V30 267 H 20.5964 4.2573 -6.29808 0
M  V30 268 N 22.1715 0.800033 1.35784 0
M  V30 269 C 23.3965 0.388511 2.03729 0
M  V30 270 C 23.8215 -0.990481 1.5991 0
M  V30 271 O 23.1795 -1.64013 0.772612 0
M  V30 272 C 23.2275 0.4726 3.5749 0
M  V30 273 O 22.3315 -0.51646 4.09153 0
M  V30 274 H 21.6725 0.163271 0.643614 0
M  V30 275 H 24.2025 1.0841 1.73518 0
M  V30 276 H 24.2125 0.34003 4.06581 0
M  V30 277 H 22.8875 1.47848 3.88734 0
M  V30 278 H 21.4645 -0.344673 3.71304 0
M  V30 279 N 23.6496 -1.47581 0.552962 0
M  V30 280 C 24.5966 -2.29957 -0.197108 0
M  V30 281 C 25.5666 -1.38799 -0.912359 0
M  V30 282 O 26.7516 -1.67761 -0.908888 0
M  V30 283 C 23.8916 -3.22672 -1.22379 0
M  V30 284 C 23.0046 -4.28919 -0.515038 0
M  V30 285 C 22.1396 -5.0879 -1.52664 0
M  V30 286 C 21.1786 -6.06815 -0.802631 0
M  V30 287 N 20.3156 -6.7966 -1.76086 0
M  V30 288 H 25.1556 -2.93578 0.511486 0
M  V30 289 H 22.6926 -1.4471 0.264067 0
M  V30 290 H 24.6506 -3.74845 -1.83159 0
M  V30 291 H 23.2806 -2.60925 -1.90047 0
M  V30 292 H 22.3326 -3.79835 0.207192 0
M  V30 293 H 23.6446 -4.98773 0.0523425 0
M  V30 294 H 22.7986 -5.65091 -2.20809 0
M  V30 295 H 21.5376 -4.38828 -2.12794 0
M  V30 296 H 20.5426 -5.49695 -0.107238 0
M  V30 297 H 21.7676 -6.78784 -0.207135 0
M  V30 298 H 19.7136 -6.12432 -2.35081 0
M  V30 299 H 19.6306 -7.45669 -1.24552 0
M  V30 300 H 20.8986 -7.40538 -2.43359 0
M  V30 301 N 25.1277 -0.289203 -1.54924 0
M  V30 302 C 26.3757 0.322879 -1.99504 0
M  V30 303 C 26.6967 1.55313 -1.1791 0
M  V30 304 O 25.9667 1.94001 -0.272097 0
M  V30 305 H 24.5467 0.122291 -0.736922 0
M  V30 306 H 27.2087 -0.397802 -1.90797 0
M  V30 307 H 26.3047 0.603061 -3.06218 0
M  V30 308 N 26.6058 1.57591 -0.0167156 0
M  V30 309 C 27.8528 1.91283 0.664597 0
M  V30 310 C 28.1808 0.891949 1.72842 0
M  V30 311 O 27.4358 -0.100931 1.9544 0
M  V30 312 C 27.7348 3.3172 1.33029 0
M  V30 313 C 27.4008 4.4914 0.398047 0
M  V30 314 C 26.0628 4.80992 0.141421 0
M  V30 315 C 28.4148 5.20634 -0.242825 0
M  V30 316 C 25.7428 5.81703 -0.764092 0
M  V30 317 C 28.0948 6.22311 -1.13632 0
M  V30 318 C 26.7588 6.52611 -1.40196 0
M  V30 319 H 26.0288 0.699956 0.243193 0
M  V30 320 H 28.6758 1.9135 -0.0758267 0
M  V30 321 H 26.9808 3.27856 2.14517 0
M  V30 322 H 28.6778 3.55055 1.86379 0
M  V30 323 H 25.2678 4.24262 0.608238 0
M  V30 324 H 29.4518 4.96267 -0.0576019 0
M  V30 325 H 24.7078 6.03532 -0.977732 0
M  V30 326 H 28.8818 6.76834 -1.63917 0
M  V30 327 H 26.5088 7.30467 -2.10529 0
M  V30 328 N 28.0839 -0.256276 1.55502 0
M  V30 329 C 29.0139 -1.32102 1.92539 0
M  V30 330 C 29.9949 -1.50684 0.789194 0
M  V30 331 O 31.1799 -1.63449 1.04872 0
M  V30 332 C 28.3099 -2.67752 2.21192 0
M  V30 333 C 27.2639 -2.63878 3.36975 0
M  V30 334 C 26.5899 -4.03236 3.51147 0
M  V30 335 C 27.8899 -2.21682 4.72921 0
M  V30 336 H 29.5839 -1.01351 2.81724 0
M  V30 337 H 27.1299 -0.486105 1.35547 0
M  V30 338 H 29.0829 -3.42365 2.45691 0
M  V30 339 H 27.8069 -3.0012 1.28824 0
M  V30 340 H 26.4659 -1.91722 3.12471 0
M  V30 341 H 26.1139 -4.32854 2.56216 0
M  V30 342 H 25.8139 -4.01535 4.29003 0
M  V30 343 H 27.3379 -4.79563 3.77957 0
M  V30 344 H 28.7519 -2.86023 4.96854 0
M  V30 345 H 27.1489 -2.3111 5.53812 0
M  V30 346 H 28.2189 -1.16833 4.70615 0
M  V30 347 N 29.562 -1.4872 -0.521534 0
M  V30 348 C 30.492 -1.66771 -1.63431 0
M  V30 349 C 31.473 -0.516499 -1.62069 0
M  V30 350 O 32.658 -0.750013 -1.79132 0
M  V30 351 C 29.788 -1.71515 -3.01993 0
M  V30 352 C 28.742 -2.86222 -3.18216 0
M  V30 353 C 28.068 -2.76061 -4.57924 0
M  V30 354 C 29.368 -4.27419 -3.00184 0
M  V30 355 H 31.062 -2.59932 -1.48579 0
M  V30 356 H 28.608 -1.25089 -0.713358 0
M  V30 357 H 30.561 -1.82731 -3.7972 0
M  V30 358 H 29.285 -0.749393 -3.17886 0
M  V30 359 H 27.944 -2.74575 -2.42908 0
M  V30 360 H 27.592 -1.77437 -4.70665 0
M  V30 361 H 27.292 -3.53037 -4.69722 0
M  V30 362 H 28.816 -2.89256 -5.37739 0
M  V30 363 H 30.23 -4.39855 -3.67697 0
M  V30 364 H 28.627 -5.05458 -3.2347 0
M  V30 365 H 29.697 -4.43293 -1.96518 0
M  V30 366 N 31.0401 0.771051 -1.3745 0
M  V30 367 C 32.2651 1.56529 -1.36065 0
M  V30 368 C 32.6901 1.88029 0.0515859 0
M  V30 369 O 32.0481 1.49282 1.02882 0
M  V30 370 C 32.0961 2.85187 -2.20683 0
M  V30 371 O 31.2001 3.79593 -1.61193 0
M  V30 372 H 30.5411 0.47411 -0.464883 0
M  V30 373 H 33.0711 0.954269 -1.80983 0
M  V30 374 H 33.0811 3.34283 -2.33921 0
M  V30 375 H 31.7561 2.61588 -3.23334 0
M  V30 376 H 30.3331 3.38239 -1.56999 0
M  V30 377 N 32.5182 1.22032 0.997298 0
M  V30 378 C 33.4482 1.01065 2.10495 0
M  V30 379 C 34.4292 -0.0669542 1.69968 0
M  V30 380 O 35.6142 0.0943987 1.9397 0
M  V30 381 C 32.7442 0.582874 3.42374 0
M  V30 382 C 31.6982 1.60592 3.96729 0
M  V30 383 C 31.0242 1.03412 5.24605 0
M  V30 384 C 32.3242 2.99478 4.27914 0
M  V30 385 H 34.0182 1.93708 2.28292 0
M  V30 386 H 31.5642 0.932761 1.09707 0
M  V30 387 H 33.5172 0.423332 4.19268 0
M  V30 388 H 32.2412 -0.379213 3.24391 0
M  V30 389 H 30.9002 1.75316 3.21963 0
M  V30 390 H 30.5482 0.063518 5.0296 0
M  V30 391 H 30.2482 1.71754 5.61938 0
M  V30 392 H 31.7722 0.886066 6.04137 0
M  V30 393 H 33.1862 2.88153 4.95622 0
M  V30 394 H 31.5832 3.64903 4.76409 0
M  V30 395 H 32.6532 3.49742 3.3587 0
M  V30 396 N 33.9963 -1.19345 1.0293 0
M  V30 397 C 35.2443 -1.88665 0.724574 0
M  V30 398 C 35.5653 -1.80036 -0.749144 0
M  V30 399 O 34.8353 -1.2111 -1.53978 0
M  V30 400 H 33.4153 -0.698406 0.265025 0
M  V30 401 H 36.0773 -1.44885 1.30362 0
M  V30 402 H 35.1733 -2.94987 1.01926 0
M  V30 403 N 35.4744 -0.807222 -1.35358 0
M  V30 404 C 36.7514 -0.311126 -1.9311 0
M  V30 405 C 37.1314 1.19937 -1.73719 0
M  V30 406 O 36.4794 1.99918 -1.10657 0
M  V30 407 C 36.6894 -0.723226 -3.41424 0
M  V30 408 C 38.0374 -0.713078 -4.18569 0
M  V30 409 O 39.0614 -0.664811 -3.49941 0
M  V30 410 O 37.9204 -0.772022 -5.41019 0
M  V30 411 H 35.0144 -0.081526 -0.822972 0
M  V30 412 H 37.5604 -0.890962 -1.4443 0
M  V30 413 H 36.3324 -1.76426 -3.4927 0
M  V30 414 H 35.9554 -0.118232 -3.97424 0
M  V30 415 N 36.9525 1.47285 -0.560781 0
M  V30 416 C 37.9025 2.27073 0.205384 0
M  V30 417 C 38.8865 1.34569 0.882044 0
M  V30 418 O 40.0785 1.58899 0.77976 0
M  V30 419 C 37.2075 3.20414 1.23247 0
M  V30 420 C 36.2935 4.20399 0.559041 0
M  V30 421 N 36.6845 5.04423 -0.372927 0
M  V30 422 C 34.9825 4.38536 0.812522 0
M  V30 423 C 35.6835 5.76655 -0.764446 0
M  V30 424 N 34.6595 5.43471 -0.11848 0
M  V30 425 H 38.4615 2.89422 -0.511117 0
M  V30 426 H 35.9755 1.57868 -0.380975 0
M  V30 427 H 37.9725 3.76262 1.79534 0
M  V30 428 H 36.6325 2.59623 1.95002 0
M  V30 429 H 37.6435 5.1248 -0.747287 0
M  V30 430 H 34.3205 3.88913 1.51832 0
M  V30 431 H 35.7105 6.54238 -1.53045 0
M  V30 432 N 38.4306 0.297415 1.54768 0
M  V30 433 C 39.3786 -0.596051 2.24833 0
M  V30 434 C 40.3726 -1.13992 1.25308 0
M  V30 435 O 41.5786 -1.09098 1.4317 0
M  V30 436 H 37.9536 -0.210814 0.721846 0
M  V30 437 H 39.9246 0.0174667 2.98395 0
M  V30 438 C 38.6736 -1.75818 2.99972 0
M  V30 439 H 37.9966 -1.3489 3.76357 0
M  V30 440 H 39.4366 -2.35949 3.52284 0
M  V30 441 C 37.8956 -2.66014 2.06732 0
M  V30 442 O 38.4256 -3.67009 1.63302 0
M  V30 443 N 36.6316 -2.33669 1.72763 0
M  V30 444 H 36.1786 -1.51586 2.08277 0
M  V30 445 H 36.1366 -2.94285 1.10652 0
M  V30 446 N 39.9087 -1.5758 0.0250728 0
M  V30 447 C 41.1557 -1.91633 -0.654444 0
M  V30 448 C 41.4837 -0.901103 -1.72367 0
M  V30 449 O 40.7387 0.0905647 -1.9549 0
M  V30 450 C 41.0377 -3.32421 -1.31268 0
M  V30 451 C 40.7037 -4.49344 -0.374223 0
M  V30 452 C 39.3657 -4.8106 -0.115911 0
M  V30 453 C 41.7177 -5.20498 0.270432 0
M  V30 454 C 39.0457 -5.8129 0.79493 0
M  V30 455 C 41.3977 -6.21699 1.1693 0
M  V30 456 C 40.0617 -6.51859 1.43655 0
M  V30 457 H 39.3317 -0.701236 -0.239478 0
M  V30 458 H 41.9787 -1.91307 0.0859734 0
M  V30 459 H 40.2837 -3.28989 -2.12775 0
M  V30 460 H 41.9807 -3.56038 -1.84494 0
M  V30 461 H 38.5707 -4.24579 -0.58573 0
M  V30 462 H 42.7547 -4.96229 0.0839194 0
M  V30 463 H 38.0107 -6.03005 1.00973 0
M  V30 464 H 42.1847 -6.75955 1.67504 0
M  V30 465 H 39.8117 -7.2934 2.144 0
M  V30 466 N 41.3868 0.248026 -1.55636 0
M  V30 467 C 42.3168 1.31079 -1.93237 0
M  V30 468 C 43.2978 1.50264 -0.797174 0
M  V30 469 O 44.4828 1.62891 -1.05737 0
M  V30 470 C 41.6128 2.66575 -2.22609 0
M  V30 471 C 40.5668 2.62087 -3.3837 0
M  V30 472 C 39.8928 4.01369 -3.53281 0
M  V30 473 C 41.1928 2.19171 -4.7409 0
M  V30 474 H 42.8868 0.998556 -2.82257 0
M  V30 475 H 40.4328 0.47891 -1.35803 0
M  V30 476 H 42.3858 3.41057 -2.47503 0
M  V30 477 H 41.1098 2.99432 -1.30414 0
M  V30 478 H 39.7688 1.90063 -3.13483 0
M  V30 479 H 39.4168 4.31489 -2.58508 0
M  V30 480 H 39.1168 3.99254 -4.31127 0
M  V30 481 H 40.6408 4.77552 -3.80495 0
M  V30 482 H 42.0548 2.83384 -4.98363 0
M  V30 483 H 40.4518 2.2817 -5.5503 0
M  V30 484 H 41.5218 1.14336 -4.71227 0
M  V30 485 N 42.8649 1.48995 0.513639 0
M  V30 486 C 44.2809 1.35478 0.843682 0
M  V30 487 C 44.4809 0.378213 1.97919 0
M  V30 488 O 43.5369 -0.194689 2.51748 0
M  V30 489 C 44.8499 2.75901 1.1958 0
M  V30 490 C 46.3979 2.84509 1.30474 0
M  V30 491 C 46.8729 4.25671 1.69021 0
M  V30 492 N 48.3639 4.28422 1.76094 0
M  V30 493 C 49.0989 5.34601 2.07338 0
M  V30 494 N 48.5949 6.5104 2.36894 0
M  V30 495 N 50.3879 5.22007 2.08483 0
M  V30 496 H 42.5389 2.11092 -0.235328 0
M  V30 497 H 44.8019 0.947039 -0.0426669 0
M  V30 498 H 44.5079 3.49001 0.434913 0
M  V30 499 H 44.3819 3.10467 2.1422 0
M  V30 500 H 46.7689 2.11655 2.05637 0
M  V30 501 H 46.8499 2.53542 0.339155 0
M  V30 502 H 46.4939 4.99048 0.944135 0
M  V30 503 H 46.4239 4.54094 2.66658 0
M  V30 504 H 48.9149 3.44441 1.55464 0
M  V30 505 H 49.2279 7.2779 2.59887 0
M  V30 506 H 47.5729 6.54287 2.34378 0
M  V30 507 H 50.7639 4.30051 1.84861 0
M  V30 508 H 50.9369 6.04854 2.325 0
M  V30 509 N 44.343 -0.763751 1.37857 0
M  V30 510 C 45.759 -1.06542 1.18832 0
M  V30 511 C 45.959 -2.01478 0.0299722 0
M  V30 512 O 45.015 -2.4458 -0.627447 0
M  V30 513 C 46.328 -1.65525 2.51042 0
M  V30 514 C 47.876 -1.77745 2.57635 0
M  V30 515 C 48.351 -2.4014 3.89996 0
M  V30 516 N 49.842 -2.47582 3.91481 0
M  V30 517 C 50.577 -2.96732 4.9065 0
M  V30 518 N 50.073 -3.45993 6.00217 0
M  V30 519 N 51.866 -2.95679 4.78048 0
M  V30 520 H 44.017 -0.133556 2.1198 0
M  V30 521 H 46.28 -0.121879 0.940133 0
M  V30 522 H 45.986 -1.03236 3.36207 0
M  V30 523 H 45.86 -2.64719 2.68707 0
M  V30 524 H 48.247 -2.39164 1.72872 0
M  V30 525 H 48.328 -0.772836 2.43846 0
M  V30 526 H 47.972 -1.79358 4.75177 0
M  V30 527 H 47.902 -3.41223 4.01092 0
M  V30 528 H 50.393 -2.1273 3.12337 0
M  V30 529 H 50.706 -3.81922 6.7183 0
M  V30 530 H 49.051 -3.44077 6.03851 0
M  V30 531 H 52.242 -2.56499 3.91568 0
M  V30 532 H 52.415 -3.33672 5.55488 0
M  V30 533 N 45.8211 -1.22559 -0.990812 0
M  V30 534 C 46.7311 -1.01394 -2.11557 0
M  V30 535 C 47.7471 0.0383962 -1.73958 0
M  V30 536 O 48.9231 -0.154787 -2.00804 0
M  V30 537 C 45.9881 -0.596569 -3.41529 0
M  V30 538 C 45.0491 -1.72276 -3.93217 0
M  V30 539 C 44.2821 -1.32521 -5.16985 0
M  V30 540 O 44.5051 -0.204909 -5.70032 0
M  V30 541 O 43.4391 -2.14247 -5.62478 0
M  V30 542 H 47.2651 -1.95633 -2.32296 0
M  V30 543 H 44.8501 -1.01172 -1.0993 0
M  V30 544 H 46.7321 -0.374263 -4.19735 0
M  V30 545 H 45.4071 0.316939 -3.22145 0
M  V30 546 H 44.3141 -1.99961 -3.16174 0
M  V30 547 H 45.6471 -2.61421 -4.17037 0
M  V30 548 N 47.2992 1.18797 -1.03562 0
M  V30 549 C 48.5482 1.87978 -0.731235 0
M  V30 550 C 48.8612 1.80911 0.743671 0
M  V30 551 O 50.0672 2.45407 1.16137 0
M  V30 552 C 48.5232 3.3721 -1.25768 0
M  V30 553 C 48.1312 3.52818 -2.76085 0
M  V30 554 C 49.8752 4.11825 -1.0296 0
M  V30 555 C 47.7822 4.9598 -3.22114 0
M  V30 556 H 46.7122 0.704063 -0.269835 0
M  V30 557 H 49.3632 1.34266 -1.25079 0
M  V30 558 H 47.7452 3.90359 -0.666011 0
M  V30 559 H 48.9192 3.09965 -3.40966 0
M  V30 560 H 47.2342 2.91602 -2.97249 0
M  V30 561 H 49.8312 5.17411 -1.34869 0
M  V30 562 H 50.1742 4.16287 0.0333546 0
M  V30 563 H 50.7072 3.64833 -1.58562 0
M  V30 564 H 47.4462 4.96684 -4.27768 0
M  V30 565 H 46.9662 5.39569 -2.61965 0
M  V30 566 H 48.6452 5.6467 -3.15844 0
M  V30 567 N 48.7773 0.814389 1.34928 0
M  V30 568 C 49.7243 0.22822 2.29669 0
M  V30 569 C 50.6943 -0.642164 1.53184 0
M  V30 570 O 51.8793 -0.585605 1.81591 0
M  V30 571 C 49.0193 -0.61089 3.3965 0
M  V30 572 C 48.1323 0.280792 4.31086 0
M  V30 573 C 47.2673 -0.567067 5.28165 0
M  V30 574 C 46.3063 0.324531 6.11239 0
M  V30 575 N 45.4433 -0.483756 7.00431 0
M  V30 576 H 50.2833 1.04153 2.79206 0
M  V30 577 H 47.8203 0.525133 1.37407 0
M  V30 578 H 49.7783 -1.11263 4.0209 0
M  V30 579 H 48.4083 -1.38939 2.91369 0
M  V30 580 H 47.4603 0.900688 3.69583 0
M  V30 581 H 48.7723 0.966723 4.89342 0
M  V30 582 H 47.9263 -1.13363 5.96015 0
M  V30 583 H 46.6653 -1.28654 4.70425 0
M  V30 584 H 45.6703 0.903298 5.42329 0
M  V30 585 H 46.8953 1.04198 6.71059 0
M  V30 586 H 44.8413 -1.18706 6.45171 0
M  V30 587 H 44.7583 0.143965 7.55863 0
M  V30 588 H 46.0263 -1.03334 7.7262 0
M  V30 589 N 50.2554 -1.46986 0.568584 0
M  V30 590 C 51.5044 -2.01646 0.0465894 0
M  V30 591 C 51.8174 -1.44721 -1.31587 0
M  V30 592 O 53.0234 -1.91113 -1.92842 0
M  V30 593 C 51.4794 -3.59885 0.032752 0
M  V30 594 C 51.0874 -4.25804 1.39266 0
M  V30 595 C 52.8314 -4.22255 -0.436038 0
M  V30 596 C 50.7384 -5.76081 1.33732 0
M  V30 597 H 49.6684 -0.753876 0.013647 0
M  V30 598 H 52.3194 -1.68864 0.718131 0
M  V30 599 H 50.7014 -3.8968 -0.704669 0
M  V30 600 H 51.8754 -4.07637 2.1487 0
M  V30 601 H 50.1904 -3.7547 1.80032 0
M  V30 602 H 52.7874 -5.32394 -0.49602 0
M  V30 603 H 53.1304 -3.90212 -1.45053 0
M  V30 604 H 53.6634 -3.97033 0.246877 0
M  V30 605 H 50.4024 -6.12761 2.32817 0
M  V30 606 H 49.9224 -5.96553 0.623267 0
M  V30 607 H 51.6014 -6.38518 1.0442 0
M  V30 608 N 51.7335 -0.305618 -1.54608 0
M  V30 609 C 52.6435 0.57778 -2.27374 0
M  V30 610 C 53.6595 1.14451 -1.31061 0
M  V30 611 O 54.8355 1.16831 -1.6405 0
M  V30 612 C 51.9005 1.73123 -3.00382 0
M  V30 613 C 50.9615 1.19812 -4.12242 0
M  V30 614 C 50.1945 2.2966 -4.81759 0
M  V30 615 O 50.4175 3.49651 -4.50666 0
M  V30 616 O 49.3515 1.96091 -5.69062 0
M  V30 617 H 53.1775 -0.012624 -3.03697 0
M  V30 618 H 50.7625 -0.0719184 -1.49227 0
M  V30 619 H 52.6445 2.40315 -3.4616 0
M  V30 620 H 51.3195 2.30815 -2.26949 0
M  V30 621 H 50.2265 0.491798 -3.70853 0
M  V30 622 H 51.5595 0.666566 -4.87666 0
M  V30 623 N 53.2116 1.57565 -0.0334293 0
M  V30 624 C 54.4596 1.91598 0.642999 0
M  V30 625 C 54.7806 0.910847 1.7242 0
M  V30 626 O 54.0506 -0.0469931 1.95844 0
M  V30 627 H 52.6306 0.707228 0.240496 0
M  V30 628 H 55.2926 1.94726 -0.0822488 0
M  V30 629 H 54.3886 2.92336 1.09298 0
M  V30 630 N 54.6897 -0.239769 1.55765 0
M  V30 631 C 55.9667 -0.990056 1.68693 0
M  V30 632 C 56.3467 -2.03107 0.5754 0
M  V30 633 O 55.6947 -2.24604 -0.42017 0
M  V30 634 C 55.9047 -1.61696 3.09282 0
M  V30 635 C 57.2527 -2.11613 3.6811 0
M  V30 636 O 58.2767 -1.71624 3.12127 0
M  V30 637 O 57.1357 -2.85057 4.66267 0
M  V30 638 H 54.2297 -0.461299 0.686391 0
M  V30 639 H 56.7757 -0.232991 1.68093 0
M  V30 640 H 55.5477 -0.864357 3.81634 0
M  V30 641 H 55.1707 -2.44005 3.13923 0
M  V30 642 N 56.1678 -1.49265 -0.50573 0
M  V30 643 C 57.0978 -1.68495 -1.61653 0
M  V30 644 C 58.0788 -0.53366 -1.61512 0
M  V30 645 O 59.2638 -0.76897 -1.78327 0
M  V30 646 C 56.3938 -1.74709 -3.00157 0
M  V30 647 C 55.3478 -2.89581 -3.15162 0
M  V30 648 C 54.6738 -2.80903 -4.5497 0
M  V30 649 C 55.9738 -4.30578 -2.95634 0
M  V30 650 H 57.6678 -2.61493 -1.45814 0
M  V30 651 H 55.2138 -1.25838 -0.70005 0
M  V30 652 H 57.1668 -1.86748 -3.77761 0
M  V30 653 H 55.8908 -0.783067 -3.17074 0
M  V30 654 H 54.5498 -2.77136 -2.39982 0
M  V30 655 H 54.1978 -1.82419 -4.68756 0
M  V30 656 H 53.8978 -3.57999 -4.65951 0
M  V30 657 H 55.4218 -2.94944 -5.34641 0
M  V30 658 H 56.8358 -4.4373 -3.63011 0
M  V30 659 H 55.2328 -5.0886 -3.18091 0
M  V30 660 H 56.3028 -4.45352 -1.91806 0
M  V30 661 N 57.6459 0.756429 -1.3826 0
M  V30 662 C 58.8919 1.51772 -1.34511 0
M  V30 663 C 59.2249 1.94089 0.0656691 0
M  V30 664 O 58.4999 1.65221 1.02626 0
M  V30 665 C 58.7829 2.77226 -2.29821 0
M  V30 666 C 58.6359 2.41065 -3.79747 0
M  V30 667 C 59.9549 3.79236 -2.23312 0
M  V30 668 H 57.0739 0.550578 -0.489931 0
M  V30 669 H 59.7159 0.866607 -1.69086 0
M  V30 670 H 57.8659 3.32784 -2.00467 0
M  V30 671 H 59.5379 1.91303 -4.19763 0
M  V30 672 H 57.7809 1.7356 -3.97567 0
M  V30 673 H 58.4519 3.3081 -4.41892 0
M  V30 674 H 60.9279 3.3321 -2.49219 0
M  V30 675 H 59.8039 4.64714 -2.92116 0
M  V30 676 H 60.0649 4.24615 -1.23102 0
M  V30 677 N 59.124 1.23083 0.984299 0
M  V30 678 C 60.054 1.03292 2.09411 0
M  V30 679 C 61.035 -0.048923 1.7003 0
M  V30 680 O 62.22 0.114967 1.93859 0
M  V30 681 C 59.35 0.619155 3.41736 0
M  V30 682 C 58.304 1.64791 3.95004 0
M  V30 683 C 57.63 1.0897 5.23478 0
M  V30 684 C 58.93 3.03999 4.24714 0
M  V30 685 H 60.624 1.96119 2.26225 0
M  V30 686 H 58.17 0.944344 1.08711 0
M  V30 687 H 60.123 0.467777 4.18796 0
M  V30 688 H 58.847 -0.344786 3.24775 0
M  V30 689 H 57.506 1.78721 3.20085 0
M  V30 690 H 57.154 0.11686 5.02864 0
M  V30 691 H 56.854 1.77704 5.60085 0
M  V30 692 H 58.378 0.950093 6.03163 0
M  V30 693 H 59.792 2.93393 4.92538 0
M  V30 694 H 58.189 3.69936 4.72512 0
M  V30 695 H 59.259 3.53285 3.32142 0
M  V30 696 N 60.6021 -1.18246 1.0419 0
M  V30 697 C 61.8501 -1.87886 0.744543 0
M  V30 698 C 62.1711 -1.8082 -0.730006 0
M  V30 699 O 61.4411 -1.22736 -1.52685 0
M  V30 700 H 60.0211 -0.695556 0.272417 0
M  V30 701 H 62.6831 -1.43494 1.31892 0
M  V30 702 H 61.7791 -2.9389 1.05049 0
M  V30 703 N 62.0802 -0.821533 -1.34494 0
M  V30 704 C 63.3282 -0.408139 -1.97936 0
M  V30 705 C 63.6492 1.03193 -1.65457 0
M  V30 706 O 62.9192 1.71622 -0.944595 0
M  V30 707 H 61.4992 -0.147928 -0.732206 0
M  V30 708 H 64.1612 -1.05067 -1.64155 0
M  V30 709 H 63.2572 -0.52601 -3.07635 0
M  V30 710 N 63.5583 1.46682 -0.576371 0
M  V30 711 C 64.4883 2.33028 0.148397 0
M  V30 712 C 65.4693 1.44961 0.889956 0
M  V30 713 O 66.6543 1.73789 0.866662 0
M  V30 714 C 63.7843 3.27117 1.1667 0
M  V30 715 C 62.7383 4.24575 0.540386 0
M  V30 716 C 62.0643 5.08126 1.6647 0
M  V30 717 C 63.3643 5.19722 -0.518331 0
M  V30 718 H 65.0583 2.93875 -0.572509 0
M  V30 719 H 62.6043 1.41315 -0.276768 0
M  V30 720 H 64.5573 3.86374 1.68204 0
M  V30 721 H 63.2813 2.64364 1.9178 0
M  V30 722 H 61.9403 3.66571 0.0461769 0
M  V30 723 H 61.5883 4.41762 2.40531 0
M  V30 724 H 61.2883 5.74122 1.25131 0
M  V30 725 H 62.8123 5.70246 2.18293 0
M  V30 726 H 64.2263 5.73232 -0.0883058 0
M  V30 727 H 62.6233 5.94026 -0.851679 0
M  V30 728 H 63.6933 4.64037 -1.40703 0
M  V30 729 N 65.0364 0.313813 1.54444 0
M  V30 730 C 66.2834 -0.291675 2.00388 0
M  V30 731 C 66.6114 -1.52904 1.2021 0
M  V30 732 O 65.8664 -1.93833 0.269707 0
M  V30 733 C 66.1654 -0.680386 3.50864 0
M  V30 734 C 65.8314 0.456699 4.48581 0
M  V30 735 C 64.4934 0.768824 4.75018 0
M  V30 736 C 66.8454 1.22098 5.06697 0
M  V30 737 C 64.1734 1.84812 5.56831 0
M  V30 738 C 66.5254 2.29029 5.89685 0
M  V30 739 C 65.1894 2.60834 6.14428 0
M  V30 740 H 64.4594 -0.106732 0.733273 0
M  V30 741 H 67.1064 0.43557 1.86481 0
M  V30 742 H 65.4114 -1.48791 3.62448 0
M  V30 743 H 67.1084 -1.16026 3.83847 0
M  V30 744 H 63.6984 0.203337 4.28117 0
M  V30 745 H 67.8824 0.993096 4.86263 0
M  V30 746 H 63.1384 2.09912 5.74236 0
M  V30 747 H 67.3124 2.887 6.33739 0
M  V30 748 H 64.9394 3.44596 6.77612 0
M  V30 749 N 66.5145 -1.57545 0.0417849 0
M  V30 750 C 67.9255 -1.80011 -0.495259 0
M  V30 751 C 68.2765 -0.953199 -1.71489 0
M  V30 752 O 67.4015 -0.167138 -2.15754 0
M  V30 753 C 67.9965 -3.26482 -0.905265 0
M  V30 754 C 66.5555 -3.499 -1.38734 0
M  V30 755 C 65.7025 -2.74979 -0.358056 0
M  V30 756 H 68.6535 -1.56425 0.267736 0
M  V30 757 H 68.6745 -3.36887 -1.76882 0
M  V30 758 H 68.1865 -3.88096 -0.017401 0
M  V30 759 H 66.2875 -2.93553 -2.29471 0
M  V30 760 H 66.4005 -4.58615 -1.38598 0
M  V30 761 H 64.7645 -2.40834 -0.828912 0
M  V30 762 H 65.5475 -3.39315 0.521561 0
M  V30 763 N 67.9926 0.231505 -1.5589 0
M  V30 764 C 69.2416 0.955346 -1.7764 0
M  V30 765 C 69.5546 1.85893 -0.608546 0
M  V30 766 O 70.7606 2.62067 -0.70943 0
M  V30 767 C 69.2166 1.74886 -3.14552 0
M  V30 768 C 68.8246 0.891915 -4.39032 0
M  V30 769 C 70.5686 2.46452 -3.45633 0
M  V30 770 C 68.4756 1.68221 -5.66971 0
M  V30 771 H 67.4056 0.360446 -0.662265 0
M  V30 772 H 70.0566 0.209516 -1.823 0
M  V30 773 H 68.4386 2.53723 -3.04041 0
M  V30 774 H 69.6126 0.144793 -4.60572 0
M  V30 775 H 67.9276 0.288863 -4.15397 0
M  V30 776 H 70.5246 3.06061 -4.38441 0
M  V30 777 H 70.8676 3.18841 -2.67668 0
M  V30 778 H 71.4006 1.74613 -3.57428 0
M  V30 779 H 68.1396 1.00178 -6.478 0
M  V30 780 H 67.6596 2.4042 -5.49507 0
M  V30 781 H 69.3386 2.24544 -6.06786 0
M  V30 782 N 69.4707 1.49531 0.497807 0
M  V30 783 C 70.4187 1.66926 1.61983 0
M  V30 784 C 71.4127 0.535167 1.60724 0
M  V30 785 O 72.6187 0.714896 1.65195 0
M  V30 786 H 68.9937 0.526415 0.537021 0
M  V30 787 H 70.9647 2.61098 1.44465 0
M  V30 788 C 69.7137 1.75602 3.00099 0
M  V30 789 H 69.0367 2.62244 3.01775 0
M  V30 790 H 70.4767 1.91807 3.78135 0
M  V30 791 C 68.9357 0.501543 3.33146 0
M  V30 792 O 69.4657 -0.371342 3.9998 0
M  V30 793 N 67.6717 0.363531 2.88317 0
M  V30 794 H 67.2187 1.07485 2.34104 0
M  V30 795 H 67.1767 -0.474728 3.10795 0
M  V30 796 N 70.9488 -0.749086 1.3866 0
M  V30 797 C 71.8588 -1.89358 1.38494 0
M  V30 798 C 72.8748 -1.71708 0.281476 0
M  V30 799 O 74.0508 -1.94554 0.520643 0
M  V30 800 C 71.1158 -3.24782 1.21316 0
M  V30 801 C 70.1768 -3.54926 2.41508 0
M  V30 802 C 69.4098 -4.83888 2.2514 0
M  V30 803 O 69.6328 -5.56592 1.24746 0
M  V30 804 O 68.5668 -5.13612 3.13826 0
M  V30 805 H 72.3928 -1.92452 2.34938 0
M  V30 806 H 69.9778 -0.894981 1.19626 0
M  V30 807 H 71.8598 -4.05739 1.13814 0
M  V30 808 H 70.5348 -3.2249 0.279592 0
M  V30 809 H 69.4418 -2.74112 2.54585 0
M  V30 810 H 70.7748 -3.61983 3.3351 0
M  V30 811 N 72.4269 -1.23603 -0.977757 0
M  V30 812 C 73.3739 -1.01954 -2.07061 0
M  V30 813 C 74.3439 0.0638697 -1.65977 0
M  V30 814 O 75.5289 -0.0887624 -1.90593 0
M  V30 815 C 72.6689 -0.619658 -3.39491 0
M  V30 816 C 71.7819 -1.77547 -3.93829 0
M  V30 817 C 70.9169 -1.32212 -5.14484 0
M  V30 818 C 69.9559 -2.44852 -5.60994 0
M  V30 819 N 69.0929 -2.00456 -6.72876 0
M  V30 820 H 73.9329 -1.95495 -2.24913 0
M  V30 821 H 71.4699 -0.973861 -1.10247 0
M  V30 822 H 73.4279 -0.368898 -4.15566 0
M  V30 823 H 72.0579 0.278752 -3.21594 0
M  V30 824 H 71.1099 -2.14016 -3.14486 0
M  V30 825 H 72.4219 -2.62219 -4.24314 0
M  V30 826 H 71.5759 -1.02965 -5.97899 0
M  V30 827 H 70.3149 -0.445808 -4.85658 0
M  V30 828 H 69.3199 -2.74871 -4.76157 0
M  V30 829 H 70.5449 -3.33024 -5.91837 0
M  V30 830 H 68.4909 -1.15208 -6.45804 0
M  V30 831 H 68.4079 -2.78687 -7.02759 0
M  V30 832 H 69.6759 -1.7432 -7.59758 0
M  V30 833 N 73.905 1.17692 -1.04816 0
M  V30 834 C 75.153 1.87488 -0.754497 0
M  V30 835 C 75.474 1.81205 0.720407 0
M  V30 836 O 74.744 1.23544 1.52032 0
M  V30 837 H 73.324 0.694101 -0.276102 0
M  V30 838 H 75.986 1.42793 -1.32651 0
M  V30 839 H 75.082 2.93328 -1.06606 0
M  V30 840 N 75.3831 0.828654 1.34056 0
M  V30 841 C 76.6111 0.43262 2.02326 0
M  V30 842 C 77.0261 -0.963147 1.62385 0
M  V30 843 O 76.3831 -1.62425 0.832121 0
M  V30 844 C 76.4341 0.53182 3.57567 0
M  V30 845 O 76.1551 1.87258 3.96063 0
M  V30 846 C 77.6561 0.131422 4.43105 0
M  V30 847 H 74.8761 0.172923 0.648335 0
M  V30 848 H 77.4201 1.1184 1.71208 0
M  V30 849 H 75.5751 -0.105938 3.87255 0
M  V30 850 H 75.9891 1.85087 4.90758 0
M  V30 851 H 77.4631 0.251904 5.51425 0
M  V30 852 H 77.9401 -0.925645 4.29335 0
M  V30 853 H 78.5461 0.743207 4.18756 0
M  V30 854 N 76.8612 -1.46375 0.584142 0
M  V30 855 C 78.1092 -2.01978 0.0701287 0
M  V30 856 C 78.4302 -1.4579 -1.295 0
M  V30 857 O 77.7002 -0.64314 -1.85042 0
M  V30 858 H 76.2802 -0.746648 0.0229345 0
M  V30 859 H 78.9422 -1.79461 0.760245 0
M  V30 860 H 78.0382 -3.121 0.0022064 0
M  V30 861 N 78.3393 -0.321999 -1.54275 0
M  V30 862 C 79.5673 0.283052 -2.04955 0
M  V30 863 C 79.9823 1.45904 -1.19823 0
M  V30 864 O 79.3393 1.81063 -0.228545 0
M  V30 865 C 79.3903 0.719028 -3.54277 0
M  V30 866 O 79.1113 -0.410175 -4.36176 0
M  V30 867 C 80.6123 1.38705 -4.21041 0
M  V30 868 H 77.8323 0.0584616 -0.668448 0
M  V30 869 H 80.3763 -0.467734 -1.99079 0
M  V30 870 H 78.5313 1.41979 -3.60445 0
M  V30 871 H 78.9453 -0.0669416 -5.24457 0
M  V30 872 H 80.4193 1.64306 -5.2698 0
M  V30 873 H 80.8963 2.33385 -3.72059 0
M  V30 874 H 81.5023 0.728906 -4.19007 0
M  V30 875 N 79.8174 1.5752 -0.0501392 0
M  V30 876 C 80.7274 2.14952 0.939827 0
M  V30 877 C 81.7434 1.10706 1.34239 0
M  V30 878 O 82.9194 1.42869 1.41952 0
M  V30 879 C 79.9844 2.68232 2.19665 0
M  V30 880 C 79.0454 3.87272 1.85253 0
M  V30 881 C 78.2784 4.38002 3.04943 0
M  V30 882 O 78.5014 3.87811 4.18281 0
M  V30 883 O 77.4354 5.29602 2.86017 0
M  V30 884 H 81.2614 2.9986 0.481392 0
M  V30 885 H 78.8464 1.4841 0.171699 0
M  V30 886 H 80.7284 3.02475 2.93406 0
M  V30 887 H 79.4034 1.86395 2.64648 0
M  V30 888 H 78.3104 3.5792 1.0883 0
M  V30 889 H 79.6434 4.70336 1.4507 0
M  V30 890 N 81.2955 -0.223234 1.56011 0
M  V30 891 C 82.2055 -1.29766 1.95443 0
M  V30 892 C 83.2215 -1.51373 0.858028 0
M  V30 893 O 84.3975 -1.64536 1.16146 0
M  V30 894 C 81.4625 -2.62772 2.26167 0
M  V30 895 C 80.5235 -2.49482 3.49367 0
M  V30 896 C 79.7565 -3.76145 3.78616 0
M  V30 897 O 79.9795 -4.79087 3.09568 0
M  V30 898 O 78.9135 -3.73358 4.72109 0
M  V30 899 H 82.7395 -0.99309 2.87004 0
M  V30 900 H 80.3245 -0.425958 1.43199 0
M  V30 901 H 82.2065 -3.41327 2.47131 0
M  V30 902 H 80.8815 -2.92913 1.37781 0
M  V30 903 H 79.7885 -1.69133 3.33684 0
M  V30 904 H 81.1215 -2.2428 4.38131 0
M  V30 905 N 82.7736 -1.49793 -0.48987 0
M  V30 906 C 84.0136 -1.61466 -1.25332 0
M  V30 907 C 84.3776 -0.299688 -1.89647 0
M  V30 908 O 85.5786 -0.291687 -2.67213 0
M  V30 909 C 83.8496 -2.74944 -2.28343 0
M  V30 910 S 85.4086 -3.06637 -3.13878 0
M  V30 911 H 82.2266 -0.569411 -0.425784 0
M  V30 912 H 84.8286 -1.875 -0.553541 0
M  V30 913 H 83.5326 -3.68994 -1.79643 0
M  V30 914 H 83.0636 -2.50938 -3.02975 0
M  V30 915 H 85.0786 -2.49015 -4.29192 0
M  V30 916 N 84.2517 0.741722 -1.39055 0
M  V30 917 C 85.4997 1.49818 -1.35643 0
M  V30 918 C 85.8207 1.94938 0.0491642 0
M  V30 919 O 85.0907 1.68505 0.999141 0
M  V30 920 H 83.6707 0.555755 -0.499144 0
M  V30 921 H 86.3327 0.880957 -1.73854 0
M  V30 922 H 85.4287 2.38348 -2.01486 0
M  V30 923 N 85.7298 1.2412 0.971189 0
M  V30 924 C 87.1458 1.00584 1.23916 0
M  V30 925 C 87.3458 -0.287481 1.99439 0
M  V30 926 O 86.4018 -1.00454 2.31658 0
M  V30 927 C 87.7148 2.21864 2.0297 0
M  V30 928 C 89.2628 2.26452 2.16076 0
M  V30 929 C 89.7378 3.47343 2.98524 0
M  V30 930 N 91.2288 3.47639 3.06107 0
M  V30 931 C 91.9638 4.37837 3.70251 0
M  V30 932 N 91.4598 5.38286 4.36142 0
M  V30 933 N 93.2528 4.25558 3.67228 0
M  V30 934 H 85.4038 2.07236 0.465499 0
M  V30 935 H 87.6668 0.909236 0.268315 0
M  V30 936 H 87.3728 3.15771 1.54861 0
M  V30 937 H 87.2468 2.23698 3.03709 0
M  V30 938 H 89.6338 1.33078 2.6339 0
M  V30 939 H 89.7148 2.28645 1.14696 0
M  V30 940 H 89.3588 4.41029 2.51905 0
M  V30 941 H 89.2888 3.42393 4.00093 0
M  V30 942 H 91.7798 2.74966 2.59233 0
M  V30 943 H 92.0928 6.03352 4.82894 0
M  V30 944 H 90.4378 5.42176 4.34822 0
M  V30 945 H 93.6288 3.46322 3.14927 0
M  V30 946 H 93.8018 4.96054 4.16935 0
M  V30 947 N 87.2079 -1.17134 1.05439 0
M  V30 948 C 88.4569 -1.86791 0.761049 0
M  V30 949 C 88.7699 -1.82072 -0.714795 0
M  V30 950 O 89.9759 -2.47223 -1.12218 0
M  V30 951 C 88.4319 -3.35166 1.31117 0
M  V30 952 C 88.0399 -3.48381 2.81664 0
M  V30 953 C 89.7839 -4.10134 1.09499 0
M  V30 954 C 87.6909 -4.90793 3.29964 0
M  V30 955 H 86.6209 -0.699681 0.281002 0
M  V30 956 H 89.2719 -1.3226 1.27199 0
M  V30 957 H 87.6539 -3.8925 0.72803 0
M  V30 958 H 88.8279 -3.04502 3.45855 0
M  V30 959 H 87.1429 -2.86836 3.01851 0
M  V30 960 H 89.7399 -5.152 1.43084 0
M  V30 961 H 90.0829 -4.16287 0.0328772 0
M  V30 962 H 90.6159 -3.62264 1.64346 0
M  V30 963 H 87.3549 -4.89816 4.35616 0
M  V30 964 H 86.8749 -5.35333 2.70516 0
M  V30 965 H 88.5539 -5.59573 3.24787 0
M  V30 966 N 88.686 -0.835752 -1.33615 0
M  V30 967 C 89.634 -0.255238 -2.31195 0
M  V30 968 C 90.628 0.61107 -1.57995 0
M  V30 969 O 91.834 0.500979 -1.72888 0
M  V30 970 H 88.209 -0.0638085 -0.749288 0
M  V30 971 H 90.18 -1.09283 -2.77669 0
M  V30 972 C 88.929 0.55754 -3.43201 0
M  V30 973 H 88.252 -0.0997553 -3.99676 0
M  V30 974 H 89.692 0.929622 -4.13683 0
M  V30 975 C 88.151 1.73515 -2.88781 0
M  V30 976 O 88.681 2.83376 -2.84712 0
M  V30 977 N 86.887 1.55603 -2.4543 0
M  V30 978 H 86.434 0.662354 -2.48939 0
M  V30 979 H 86.392 2.34545 -2.09371 0
M  V30 980 N 90.1641 1.46063 -0.591896 0
M  V30 981 C 91.0741 2.34192 0.13831 0
M  V30 982 C 92.0901 1.50305 0.876608 0
M  V30 983 O 93.2661 1.8315 0.837728 0
M  V30 984 C 90.3311 3.27656 1.13326 0
M  V30 985 C 89.3921 4.27445 0.39863 0
M  V30 986 C 88.6251 5.16443 1.34618 0
M  V30 987 O 88.8481 5.08553 2.58321 0
M  V30 988 O 87.7821 5.95843 0.851768 0
M  V30 989 H 91.6081 2.98002 -0.58552 0
M  V30 990 H 89.1931 1.45188 -0.352239 0
M  V30 991 H 91.0751 3.85291 1.70671 0
M  V30 992 H 89.7501 2.6643 1.83839 0
M  V30 993 H 88.6571 3.73471 -0.216895 0
M  V30 994 H 89.9901 4.91482 -0.265709 0
M  V30 995 N 91.6422 0.330177 1.54103 0
M  V30 996 C 92.9192 -0.325007 1.92881 0
M  V30 997 C 93.2992 -1.6934 1.26045 0
M  V30 998 O 92.6472 -2.24855 0.406526 0
M  V30 999 C 92.8572 -0.410634 3.46576 0
M  V30 1000 C 94.2052 -0.667801 4.19316 0
M  V30 1001 O 95.2292 -0.49329 3.52768 0
M  V30 1002 O 94.0882 -1.00491 5.37181 0
M  V30 1003 H 91.1822 -0.186873 0.80561 0
M  V30 1004 H 93.7282 0.380376 1.65382 0
M  V30 1005 H 92.5002 0.550164 3.87413 0
M  V30 1006 H 92.1232 -1.16333 3.802 0
M  V30 1007 N 93.1203 -1.57491 0.0584922 0
M  V30 1008 C 94.5363 -1.56792 -0.298091 0
M  V30 1009 C 94.7363 -1.06679 -1.70944 0
M  V30 1010 O 93.7923 -0.726672 -2.41818 0
M  V30 1011 C 95.1053 -3.00461 -0.119879 0
M  V30 1012 C 96.6533 -3.1242 -0.190428 0
M  V30 1013 C 97.1283 -4.57982 -0.0406567 0
M  V30 1014 N 98.6193 -4.63099 -0.0966958 0
M  V30 1015 C 99.3543 -5.734 -0.00502943 0
M  V30 1016 N 98.8503 -6.9266 0.139402 0
M  V30 1017 N 100.643 -5.62067 -0.0611391 0
M  V30 1018 H 92.7943 -1.88386 0.98105 0
M  V30 1019 H 95.0573 -0.867865 0.381463 0
M  V30 1020 H 94.7633 -3.41187 0.85349 0
M  V30 1021 H 94.6373 -3.66843 -0.877833 0
M  V30 1022 H 97.0243 -2.71589 -1.15427 0
M  V30 1023 H 97.1053 -2.48702 0.598405 0
M  V30 1024 H 96.7493 -4.995 0.919897 0
M  V30 1025 H 96.6793 -5.19715 -0.848727 0
M  V30 1026 H 99.1703 -3.77331 -0.207277 0
M  V30 1027 H 99.4833 -7.72536 0.201855 0
M  V30 1028 H 97.8283 -6.94781 0.174586 0
M  V30 1029 H 101.019 -4.67782 -0.172583 0
M  V30 1030 H 101.192 -6.47999 0.0137562 0
M  V30 1031 N 94.5984 0.214957 -1.56127 0
M  V30 1032 C 95.8464 0.936518 -1.79091 0
M  V30 1033 C 96.1674 1.84606 -0.628148 0
M  V30 1034 O 95.4374 1.92664 0.35462 0
M  V30 1035 H 94.0174 0.3488 -0.660566 0
M  V30 1036 H 96.6794 0.22523 -1.93594 0
M  V30 1037 H 95.7754 1.53943 -2.71492 0
M  V30 1038 N 96.0765 1.50051 0.48192 0
M  V30 1039 C 97.3255 1.59741 1.23149 0
M  V30 1040 C 97.6385 0.298163 1.93314 0
M  V30 1041 O 98.8445 0.273835 2.70116 0
M  V30 1042 C 97.3005 2.81926 2.23708 0
M  V30 1043 C 96.9085 4.18685 1.59396 0
M  V30 1044 C 98.6525 3.00956 2.99375 0
M  V30 1045 C 96.5595 5.3207 2.58178 0
M  V30 1046 H 95.4895 0.594838 0.46334 0
M  V30 1047 H 98.1405 1.76467 0.503169 0
M  V30 1048 H 96.5225 2.58736 2.99786 0
M  V30 1049 H 97.6965 4.52088 0.891811 0
M  V30 1050 H 96.0115 4.05171 0.960503 0
M  V30 1051 H 98.6085 3.82836 3.73283 0
M  V30 1052 H 98.9515 2.12258 3.58123 0
M  V30 1053 H 99.4845 3.24277 2.30411 0
M  V30 1054 H 96.2235 6.22888 2.04184 0
M  V30 1055 H 95.7435 5.03098 3.26577 0
M  V30 1056 H 97.4225 5.62196 3.20225 0
M  V30 1057 N 97.5546 -0.734337 1.39446 0
M  V30 1058 C 98.4866 -1.85861 1.34121 0
M  V30 1059 C 99.4996 -1.60871 0.249864 0
M  V30 1060 O 100.689 -1.71093 0.508865 0
M  V30 1061 C 97.7886 -3.21899 1.05991 0
M  V30 1062 C 96.9616 -3.74239 2.26415 0
M  V30 1063 C 96.0206 -4.88841 1.94733 0
M  V30 1064 O 95.0466 -5.02468 2.67422 0
M  V30 1065 N 96.2486 -5.73261 0.913884 0
M  V30 1066 H 99.0136 -1.90934 2.31007 0
M  V30 1067 H 96.5746 -0.915102 1.33557 0
M  V30 1068 H 98.5666 -3.96136 0.828147 0
M  V30 1069 H 97.1366 -3.12091 0.178361 0
M  V30 1070 H 96.3566 -2.91347 2.65539 0
M  V30 1071 H 97.6446 -4.05942 3.06738 0
M  V30 1072 H 97.0426 -5.64842 0.311476 0
M  V30 1073 H 95.5996 -6.47563 0.742015 0
M  V30 1074 N 99.0327 -1.24633 -0.964593 0
M  V30 1075 C 100.449 -1.01239 -1.2338 0
M  V30 1076 C 100.649 0.2769 -1.99588 0
M  V30 1077 O 99.7047 0.992241 -2.32187 0
M  V30 1078 C 101.018 -2.22937 -2.01791 0
M  V30 1079 C 102.566 -2.27594 -2.14872 0
M  V30 1080 C 103.041 -3.48921 -2.96678 0
M  V30 1081 N 104.532 -3.49257 -3.04259 0
M  V30 1082 C 105.267 -4.39795 -3.67924 0
M  V30 1083 N 104.763 -5.40591 -4.33281 0
M  V30 1084 N 106.556 -4.275 -3.64966 0
M  V30 1085 H 98.7067 -2.0748 -0.454502 0
M  V30 1086 H 100.97 -0.910647 -0.26349 0
M  V30 1087 H 100.676 -3.16587 -1.53184 0
M  V30 1088 H 100.55 -2.25306 -3.02518 0
M  V30 1089 H 102.937 -1.34473 -2.6268 0
M  V30 1090 H 103.018 -2.2925 -1.13482 0
M  V30 1091 H 102.662 -4.42359 -2.49562 0
M  V30 1092 H 102.592 -3.4451 -3.98272 0
M  V30 1093 H 105.083 -2.76337 -2.57771 0
M  V30 1094 H 105.396 -6.05904 -4.79687 0
M  V30 1095 H 103.741 -5.44475 -4.3194 0
M  V30 1096 H 106.932 -3.47987 -3.13086 0
M  V30 1097 H 107.105 -4.98258 -4.14298 0
M  V30 1098 N 100.511 1.16574 -1.06058 0
M  V30 1099 C 101.441 2.23057 -0.690488 0
M  V30 1100 C 102.422 1.67141 0.315901 0
M  V30 1101 O 103.607 1.93253 0.191556 0
M  V30 1102 C 100.737 3.47222 -0.073625 0
M  V30 1103 C 99.6908 4.16016 -1.00573 0
M  V30 1104 C 99.0168 5.34104 -0.252289 0
M  V30 1105 C 100.317 4.67264 -2.33371 0
M  V30 1106 H 102.011 2.54271 -1.58072 0
M  V30 1107 H 99.5568 1.22218 -0.76149 0
M  V30 1108 H 101.51 4.20939 0.19714 0
M  V30 1109 H 100.234 3.15302 0.85161 0
M  V30 1110 H 98.8928 3.44223 -1.2612 0
M  V30 1111 H 98.5408 4.98437 0.675988 0
M  V30 1112 H 98.2408 5.81072 -0.873455 0
M  V30 1113 H 99.7648 6.10599 0.0109857 0
M  V30 1114 H 101.179 5.32573 -2.12223 0
M  V30 1115 H 99.5758 5.24843 -2.90963 0
M  V30 1116 H 100.646 3.83602 -2.96611 0
M  V30 1117 N 101.989 0.842826 1.3317 0
M  V30 1118 C 102.899 0.281444 2.32906 0
M  V30 1119 C 103.915 -0.594587 1.63526 0
M  V30 1120 O 105.091 -0.49777 1.95152 0
M  V30 1121 C 102.156 -0.530929 3.42611 0
M  V30 1122 C 101.217 0.369843 4.27704 0
M  V30 1123 C 100.45 -0.403853 5.3217 0
M  V30 1124 O 100.673 -1.63513 5.46461 0
M  V30 1125 O 99.6069 0.224199 6.01482 0
M  V30 1126 H 103.433 1.10744 2.82789 0
M  V30 1127 H 101.018 0.60545 1.36582 0
M  V30 1128 H 102.9 -0.992437 4.09547 0
M  V30 1129 H 101.575 -1.33392 2.94938 0
M  V30 1130 H 100.482 0.879275 3.6362 0
M  V30 1131 H 101.815 1.13771 4.78871 0
M  V30 1132 N 103.467 -1.45747 0.599634 0
M  V30 1133 C 104.43 -2.28917 -0.113835 0
M  V30 1134 C 105.43 -1.3933 -0.802729 0
M  V30 1135 O 106.62 -1.61534 -0.652103 0
M  V30 1136 C 103.752 -3.20152 -1.17114 0
M  V30 1137 H 104.945 -2.93478 0.617289 0
M  V30 1138 H 102.498 -1.52137 0.358327 0
M  V30 1139 H 103.233 -2.60374 -1.93329 0
M  V30 1140 H 103.018 -3.86133 -0.681468 0
M  V30 1141 H 104.508 -3.82708 -1.67105 0
M  V30 1142 N 104.945 -0.338344 -1.53925 0
M  V30 1143 C 105.878 0.563758 -2.21127 0
M  V30 1144 C 106.856 1.10433 -1.19345 0
M  V30 1145 O 108.04 1.16557 -1.48144 0
M  V30 1146 C 105.167 1.77505 -2.88461 0
M  V30 1147 C 104.213 1.3644 -4.04087 0
M  V30 1148 S 105.046 0.388593 -5.34088 0
M  V30 1149 C 106.202 1.60683 -6.04923 0
M  V30 1150 H 106.435 -0.00704546 -2.97299 0
M  V30 1151 H 103.968 -0.122418 -1.53914 0
M  V30 1152 H 105.926 2.46999 -3.27875 0
M  V30 1153 H 104.587 2.31706 -2.12064 0
M  V30 1154 H 103.78 2.26739 -4.50117 0
M  V30 1155 H 103.382 0.748998 -3.66423 0
M  V30 1156 H 105.674 2.54209 -6.28 0
M  V30 1157 H 106.617 1.18842 -6.98056 0
M  V30 1158 H 107.025 1.80052 -5.35015 0
M  V30 1159 N 106.423 1.57458 -0.0668435 0
M  V30 1160 C 107.353 2.15468 0.899764 0
M  V30 1161 C 108.334 1.08042 1.31381 0
M  V30 1162 O 109.519 1.36054 1.38574 0
M  V30 1163 C 106.649 2.71232 2.16911 0
M  V30 1164 C 105.603 3.83781 1.89463 0
M  V30 1165 C 104.929 4.26127 3.22986 0
M  V30 1166 C 106.229 5.08238 1.20381 0
M  V30 1167 H 107.923 2.96488 0.416529 0
M  V30 1168 H 105.469 1.4262 0.198908 0
M  V30 1169 H 107.422 3.10458 2.84945 0
M  V30 1170 H 106.146 1.87426 2.67468 0
M  V30 1171 H 104.805 3.45051 1.23836 0
M  V30 1172 H 104.453 3.39249 3.71374 0
M  V30 1173 H 104.153 5.01993 3.05413 0
M  V30 1174 H 105.677 4.67966 3.92225 0
M  V30 1175 H 107.091 5.44811 1.78475 0
M  V30 1176 H 105.488 5.89349 1.13083 0
M  V30 1177 H 106.558 4.84558 0.182153 0
M  V30 1178 N 107.901 -0.206675 1.56239 0
M  V30 1179 C 109.148 -0.928842 1.79941 0
M  V30 1180 C 109.476 -1.83734 0.638131 0
M  V30 1181 O 108.731 -1.92039 -0.376746 0
M  V30 1182 C 109.03 -1.78675 3.09532 0
M  V30 1183 C 108.696 -1.03022 4.38973 0
M  V30 1184 C 107.358 -0.821302 4.74139 0
M  V30 1185 C 109.71 -0.497081 5.18824 0
M  V30 1186 C 107.038 -0.0675719 5.86661 0
M  V30 1187 C 109.39 0.24338 6.32132 0
M  V30 1188 C 108.054 0.463422 6.65889 0
M  V30 1189 H 107.324 -0.339887 0.658451 0
M  V30 1190 H 109.971 -0.195977 1.90495 0
M  V30 1191 H 108.276 -2.58794 2.94165 0
M  V30 1192 H 109.973 -2.34792 3.25075 0
M  V30 1193 H 106.563 -1.20306 4.11369 0
M  V30 1194 H 110.747 -0.645921 4.92079 0
M  V30 1195 H 106.003 0.112995 6.11296 0
M  V30 1196 H 110.177 0.66393 6.93228 0
M  V30 1197 H 107.804 1.04938 7.52922 0
M  V30 1198 N 109.379 -1.50304 -0.473955 0
M  V30 1199 C 110.342 -1.6841 -1.55469 0
M  V30 1200 C 111.342 -0.554905 -1.50922 0
M  V30 1201 O 112.532 -0.821882 -1.53593 0
M  V30 1202 C 109.664 -1.70667 -2.95102 0
M  V30 1203 H 110.857 -2.64828 -1.40733 0
M  V30 1204 H 108.41 -1.39742 -0.700132 0
M  V30 1205 H 109.145 -0.75932 -3.15285 0
M  V30 1206 H 108.93 -2.52698 -2.9981 0
M  V30 1207 H 110.42 -1.8664 -3.73571 0
M  V30 1208 N 110.857 0.726932 -1.39834 0
M  V30 1209 C 112.106 1.48214 -1.36805 0
M  V30 1210 C 112.419 1.95576 0.0305291 0
M  V30 1211 O 113.625 2.7088 0.183417 0
M  V30 1212 C 112.081 2.67854 -2.40379 0
M  V30 1213 C 111.689 2.27408 -3.85992 0
M  V30 1214 C 113.433 3.45641 -2.46439 0
M  V30 1215 C 111.34 3.43819 -4.81189 0
M  V30 1216 H 110.27 0.556606 -0.508631 0
M  V30 1217 H 112.921 0.792216 -1.65518 0
M  V30 1218 H 111.303 3.3896 -2.04749 0
M  V30 1219 H 112.477 1.63795 -4.30706 0
M  V30 1220 H 110.792 1.62692 -3.83302 0
M  V30 1221 H 113.389 4.32244 -3.14753 0
M  V30 1222 H 113.732 3.88669 -1.49139 0
M  V30 1223 H 114.265 2.8157 -2.81004 0
M  V30 1224 H 111.004 3.05834 -5.79781 0
M  V30 1225 H 110.524 4.06385 -4.41148 0
M  V30 1226 H 112.203 4.10043 -5.00474 0
M  V30 1227 N 112.336 1.25143 0.95797 0
M  V30 1228 C 113.613 1.00472 1.67823 0
M  V30 1229 C 113.993 -0.470056 2.058 0
M  V30 1230 O 113.341 -1.44663 1.76875 0
M  V30 1231 C 113.551 1.9372 2.90299 0
M  V30 1232 C 114.899 2.21371 3.62326 0
M  V30 1233 O 115.923 1.91451 3.00375 0
M  V30 1234 O 114.782 2.72231 4.7387 0
M  V30 1235 H 111.876 0.380752 0.734137 0
M  V30 1236 H 114.422 1.36283 1.01119 0
M  V30 1237 H 113.194 2.93316 2.59001 0
M  V30 1238 H 112.817 1.58286 3.64735 0
M  V30 1239 N 113.814 -1.1601 1.06675 0
M  V30 1240 C 114.724 -2.24156 0.692179 0
M  V30 1241 C 115.74 -1.71507 -0.293513 0
M  V30 1242 O 116.916 -2.009 -0.141861 0
M  V30 1243 C 113.981 -3.46587 0.0884131 0
M  V30 1244 C 113.042 -4.14257 1.12646 0
M  V30 1245 C 112.275 -5.30844 0.551416 0
M  V30 1246 O 112.498 -5.66858 -0.634656 0
M  V30 1247 O 111.432 -5.87848 1.29298 0
M  V30 1248 H 115.258 -2.58513 1.59388 0
M  V30 1249 H 112.843 -1.23599 0.83926 0
M  V30 1250 H 114.725 -4.20679 -0.246361 0
M  V30 1251 H 113.4 -3.13994 -0.786712 0
M  V30 1252 H 112.307 -3.42118 1.51348 0
M  V30 1253 H 113.64 -4.50914 1.97325 0
M  V30 1254 N 115.292 -0.849877 -1.32721 0
M  V30 1255 C 116.541 -0.447175 -1.96681 0
M  V30 1256 C 116.854 1.00135 -1.68025 0
M  V30 1257 O 118.06 1.50926 -2.25685 0
M  V30 1258 C 116.516 -0.7487 -3.52026 0
M  V30 1259 C 116.124 -2.21264 -3.89546 0
M  V30 1260 C 117.868 -0.413487 -4.22481 0
M  V30 1261 C 115.775 -2.45763 -5.37917 0
M  V30 1262 H 114.705 -0.163486 -0.736063 0
M  V30 1263 H 117.356 -1.03999 -1.51183 0
M  V30 1264 H 115.738 -0.0853727 -3.95908 0
M  V30 1265 H 116.912 -2.91736 -3.56689 0
M  V30 1266 H 115.227 -2.5119 -3.32103 0
M  V30 1267 H 117.824 -0.574017 -5.3161 0
M  V30 1268 H 118.167 0.644492 -4.11281 0
M  V30 1269 H 118.7 -1.03251 -3.84167 0
M  V30 1270 H 115.439 -3.50168 -5.54132 0
M  V30 1271 H 114.959 -1.79864 -5.72197 0
M  V30 1272 H 116.638 -2.29471 -6.0494 0
M  V30 1273 N 116.77 1.45427 -0.607355 0
M  V30 1274 C 117.718 2.32269 0.12411 0
M  V30 1275 C 118.712 1.45955 0.859854 0
M  V30 1276 O 119.918 1.6244 0.775447 0
M  V30 1277 H 116.293 0.749691 0.0588839 0
M  V30 1278 H 118.264 2.91743 -0.626762 0
M  V30 1279 C 117.013 3.29567 1.1082 0
M  V30 1280 H 116.336 3.95978 0.551492 0
M  V30 1281 H 117.776 3.93061 1.58995 0
M  V30 1282 C 116.235 2.56722 2.18164 0
M  V30 1283 O 116.765 2.34842 3.25902 0
M  V30 1284 N 114.971 2.16861 1.93442 0
M  V30 1285 H 114.518 2.34855 1.05834 0
M  V30 1286 H 114.476 1.68444 2.65469 0
M  V30 1287 N 118.248 0.346503 1.53744 0
M  V30 1288 C 119.195 -0.508914 2.25119 0
M  V30 1289 C 120.165 -1.09315 1.25058 0
M  V30 1290 O 121.35 -1.12921 1.53797 0
M  V30 1291 C 118.49 -1.65246 3.02965 0
M  V30 1292 C 117.603 -1.09525 4.17886 0
M  V30 1293 C 116.738 -2.20634 4.83212 0
M  V30 1294 C 115.777 -1.62279 5.90196 0
M  V30 1295 N 114.914 -2.67143 6.49291 0
M  V30 1296 H 119.754 0.106283 2.9781 0
M  V30 1297 H 117.291 0.0642227 1.4696 0
M  V30 1298 H 119.249 -2.32574 3.4636 0
M  V30 1299 H 117.879 -2.2386 2.32565 0
M  V30 1300 H 116.931 -0.312818 3.79112 0
M  V30 1301 H 118.243 -0.628444 4.94825 0
M  V30 1302 H 117.397 -2.95821 5.29693 0
M  V30 1303 H 116.136 -2.70659 4.05703 0
M  V30 1304 H 115.141 -0.855989 5.43096 0
M  V30 1305 H 116.366 -1.13102 6.69615 0
M  V30 1306 H 114.312 -3.16417 5.74645 0
M  V30 1307 H 114.229 -2.25093 7.21713 0
M  V30 1308 H 115.497 -3.4209 7.00425 0
M  V30 1309 N 119.726 -1.57421 0.075193 0
M  V30 1310 C 121.003 -1.85029 -0.634329 0
M  V30 1311 C 121.383 -0.968305 -1.87582 0
M  V30 1312 O 120.731 -0.0354749 -2.28472 0
M  V30 1313 C 120.941 -3.35286 -0.968742 0
M  V30 1314 C 122.289 -4.02875 -1.34077 0
M  V30 1315 O 123.313 -3.40051 -1.06037 0
M  V30 1316 O 122.172 -5.13691 -1.86506 0
M  V30 1317 H 119.266 -0.7645 -0.315387 0
M  V30 1318 H 121.812 -1.69366 0.106382 0
M  V30 1319 H 120.584 -3.91203 -0.0871376 0
M  V30 1320 H 120.207 -3.56223 -1.7661 0
M  V30 1321 N 121.204 0.198386 -1.56346 0
M  V30 1322 C 122.481 0.944982 -1.71258 0
M  V30 1323 C 122.861 2.0151 -0.629048 0
M  V30 1324 O 122.209 2.25639 0.360473 0
M  V30 1325 C 122.419 1.5344 -3.1346 0
M  V30 1326 C 123.767 2.01778 -3.73591 0
M  V30 1327 O 124.791 1.63288 -3.16568 0
M  V30 1328 O 123.65 2.72594 -4.73661 0
M  V30 1329 H 120.744 0.442939 -0.69838 0
M  V30 1330 H 123.29 0.188342 -1.68652 0
M  V30 1331 H 122.062 0.762869 -3.83792 0
M  V30 1332 H 121.685 2.35596 -3.20282 0
M  V30 1333 N 122.682 1.50554 0.465978 0
M  V30 1334 C 123.912 1.65323 1.23903 0
M  V30 1335 C 124.32 0.338051 1.86155 0
M  V30 1336 O 123.663 -0.690518 1.70228 0
M  V30 1337 C 123.725 2.69048 2.3844 0
M  V30 1338 C 123.389 4.12462 1.96784 0
M  V30 1339 C 124.386 4.98168 1.48745 0
M  V30 1340 C 122.071 4.58407 2.05349 0
M  V30 1341 C 124.065 6.27868 1.0982 0
M  V30 1342 C 121.752 5.88112 1.66035 0
M  V30 1343 C 122.75 6.72668 1.18349 0
M  V30 1344 O 122.438 7.99951 0.795825 0
M  V30 1345 H 122.17 0.558629 0.38067 0
M  V30 1346 H 124.724 1.97561 0.562022 0
M  V30 1347 H 122.954 2.32062 3.09328 0
M  V30 1348 H 124.643 2.72985 3.0039 0
M  V30 1349 H 125.409 4.63885 1.41546 0
M  V30 1350 H 121.288 3.92735 2.41414 0
M  V30 1351 H 124.832 6.93819 0.725293 0
M  V30 1352 H 120.729 6.21914 1.72895 0
M  V30 1353 H 121.497 8.13265 0.924222 0
M  V30 1354 N 124.16 -0.719506 1.40217 0
M  V30 1355 C 125.09 -1.8465 1.42922 0
M  V30 1356 C 126.071 -1.67599 0.29062 0
M  V30 1357 O 127.256 -1.87688 0.498677 0
M  V30 1358 C 124.386 -3.22565 1.28722 0
M  V30 1359 C 123.34 -3.54281 2.40144 0
M  V30 1360 C 122.666 -4.91298 2.11023 0
M  V30 1361 C 123.966 -3.55676 3.82481 0
M  V30 1362 H 125.66 -1.82644 2.37237 0
M  V30 1363 H 123.206 -0.877305 1.1419 0
M  V30 1364 H 125.159 -4.01095 1.29232 0
M  V30 1365 H 123.883 -3.25137 0.308811 0
M  V30 1366 H 122.542 -2.78088 2.38877 0
M  V30 1367 H 122.19 -4.90468 1.11582 0
M  V30 1368 H 121.89 -5.13485 2.8567 0
M  V30 1369 H 123.414 -5.72166 2.13209 0
M  V30 1370 H 124.828 -4.24254 3.85592 0
M  V30 1371 H 123.225 -3.89388 4.56614 0
M  V30 1372 H 124.295 -2.55144 4.12346 0
M  V30 1373 N 125.638 -1.25649 -0.95132 0
M  V30 1374 C 126.568 -1.08808 -2.06599 0
M  V30 1375 C 127.549 0.00382547 -1.701 0
M  V30 1376 O 128.734 -0.166325 -1.93486 0
M  V30 1377 C 125.864 -0.709542 -3.39975 0
M  V30 1378 C 124.818 -1.75206 -3.90496 0
M  V30 1379 C 124.144 -1.22811 -5.20405 0
M  V30 1380 C 125.444 -3.15153 -4.16504 0
M  V30 1381 H 127.138 -2.02048 -2.20946 0
M  V30 1382 H 124.684 -0.972835 -1.06169 0
M  V30 1383 H 126.637 -0.578649 -4.17408 0
M  V30 1384 H 125.361 0.258556 -3.25575 0
M  V30 1385 H 124.02 -1.87145 -3.15234 0
M  V30 1386 H 123.668 -0.250145 -5.02378 0
M  V30 1387 H 123.368 -1.92492 -5.55176 0
M  V30 1388 H 124.892 -1.10968 -6.00432 0
M  V30 1389 H 126.306 -3.06349 -4.84586 0
M  V30 1390 H 124.703 -3.82333 -4.62538 0
M  V30 1391 H 125.773 -3.61966 -3.22658 0
M  V30 1392 N 127.117 1.15442 -1.07289 0
M  V30 1393 C 128.528 1.67803 -0.818475 0
M  V30 1394 C 128.879 1.8489 0.656507 0
M  V30 1395 O 128.004 1.55176 1.50829 0
M  V30 1396 C 128.599 3.04805 -1.47917 0
M  V30 1397 C 127.158 3.54245 -1.27229 0
M  V30 1398 C 126.305 2.29986 -1.54925 0
M  V30 1399 H 129.256 0.996646 -1.23502 0
M  V30 1400 H 129.277 3.69702 -0.90005 0
M  V30 1401 H 128.789 2.92336 -2.55267 0
M  V30 1402 H 126.89 3.71956 -0.21899 0
M  V30 1403 H 127.003 4.35723 -1.99203 0
M  V30 1404 H 125.367 2.35496 -0.970242 0
M  V30 1405 H 126.15 2.20105 -2.63455 0
M  V30 1406 N 128.595 0.856903 1.32268 0
M  V30 1407 C 129.843 0.460474 1.96784 0
M  V30 1408 C 130.164 -0.987701 1.68135 0
M  V30 1409 O 129.434 -1.69058 0.989765 0
M  V30 1410 H 128.014 0.167289 0.728027 0
M  V30 1411 H 130.676 1.09383 1.61312 0
M  V30 1412 H 129.772 0.60739 3.06133 0
M  V30 1413 N 130.073 -1.45103 0.615059 0
M  V30 1414 C 131.319 -2.02483 0.113347 0
M  V30 1415 C 131.652 -1.48146 -1.25564 0
M  V30 1416 O 130.927 -0.659104 -1.82992 0
M  V30 1417 C 131.21 -3.60005 0.0825278 0
M  V30 1418 C 131.063 -4.2466 1.48271 0
M  V30 1419 C 132.382 -4.35972 -0.601401 0
M  V30 1420 H 129.501 -0.735764 0.0426632 0
M  V30 1421 H 132.143 -1.72868 0.788461 0
M  V30 1422 H 130.293 -3.85367 -0.492378 0
M  V30 1423 H 131.965 -4.10458 2.10527 0
M  V30 1424 H 130.208 -3.82772 2.04127 0
M  V30 1425 H 130.879 -5.336 1.41332 0
M  V30 1426 H 133.355 -4.15947 -0.112666 0
M  V30 1427 H 132.231 -5.45697 -0.592097 0
M  V30 1428 H 132.492 -4.09391 -1.66887 0
M  V30 1429 N 131.551 -0.354651 -1.53558 0
M  V30 1430 C 132.498 0.496968 -2.25386 0
M  V30 1431 C 133.468 1.0865 -1.25636 0
M  V30 1432 O 134.653 1.12104 -1.54394 0
M  V30 1433 C 131.793 1.63637 -3.03837 0
M  V30 1434 C 130.906 1.07307 -4.18461 0
M  V30 1435 C 130.041 2.18068 -4.84376 0
M  V30 1436 C 129.08 1.59147 -5.91049 0
M  V30 1437 N 128.217 2.63695 -6.50699 0
M  V30 1438 H 133.057 -0.122075 -2.9775 0
M  V30 1439 H 130.594 -0.0720154 -1.46924 0
M  V30 1440 H 132.552 2.30734 -3.47589 0
M  V30 1441 H 131.182 2.22623 -2.33749 0
M  V30 1442 H 130.234 0.292708 -3.79272 0
M  V30 1443 H 131.546 0.602193 -4.95152 0
M  V30 1444 H 130.7 2.93007 -5.31255 0
M  V30 1445 H 129.439 2.68504 -4.07133 0
M  V30 1446 H 128.444 0.827175 -5.43542 0
M  V30 1447 H 129.669 1.09549 -6.70206 0
M  V30 1448 H 127.615 3.13365 -5.76315 0
M  V30 1449 H 127.532 2.21263 -7.22896 0
M  V30 1450 H 128.8 3.3837 -7.02229 0
M  V30 1451 N 133.029 1.57378 -0.0835403 0
M  V30 1452 C 133.959 2.1641 0.87686 0
M  V30 1453 C 134.94 1.09429 1.30228 0
M  V30 1454 O 136.125 1.37516 1.37124 0
M  V30 1455 C 133.255 2.73517 2.14022 0
M  V30 1456 C 132.209 3.85769 1.85381 0
M  V30 1457 C 131.535 4.29529 3.18448 0
M  V30 1458 C 132.835 5.09486 1.14984 0
M  V30 1459 H 134.529 2.96914 0.385059 0
M  V30 1460 H 132.075 1.42823 0.18377 0
M  V30 1461 H 134.028 3.13463 2.81636 0
M  V30 1462 H 132.752 1.90252 2.65465 0
M  V30 1463 H 131.411 3.46345 1.20169 0
M  V30 1464 H 131.059 3.43169 3.67755 0
M  V30 1465 H 130.759 5.05204 3.00071 0
M  V30 1466 H 132.283 4.72099 3.8724 0
M  V30 1467 H 133.697 5.46674 1.72687 0
M  V30 1468 H 132.094 5.90515 1.06826 0
M  V30 1469 H 133.164 4.84724 0.130749 0
M  V30 1470 N 134.507 -0.190092 1.56449 0
M  V30 1471 C 135.755 -0.907908 1.80559 0
M  V30 1472 C 136.076 -1.83583 0.657438 0
M  V30 1473 O 135.346 -1.93203 -0.323924 0
M  V30 1474 H 133.926 -0.338247 0.666032 0
M  V30 1475 H 136.588 -0.194403 1.93928 0
M  V30 1476 H 135.684 -1.49604 2.73907 0
M  V30 1477 N 135.985 -1.50799 -0.457987 0
M  V30 1478 C 137.231 -1.62683 -1.21088 0
M  V30 1479 C 137.564 -0.332268 -1.91336 0
M  V30 1480 O 136.839 0.667043 -1.82704 0
M  V30 1481 C 137.122 -2.81615 -2.24422 0
M  V30 1482 C 136.975 -4.20989 -1.58392 0
M  V30 1483 C 138.294 -2.96085 -3.2561 0
M  V30 1484 H 135.413 -0.592087 -0.438864 0
M  V30 1485 H 138.055 -1.83225 -0.50286 0
M  V30 1486 H 136.205 -2.64231 -2.84806 0
M  V30 1487 H 137.877 -4.49994 -1.01504 0
M  V30 1488 H 136.12 -4.24641 -0.886704 0
M  V30 1489 H 136.791 -5.0016 -2.33547 0
M  V30 1490 H 139.267 -3.12042 -2.75262 0
M  V30 1491 H 138.143 -3.80902 -3.95228 0
M  V30 1492 H 138.404 -2.0726 -3.90507 0
M  V30 1493 N 137.463 0.71206 -1.40597 0
M  V30 1494 C 138.413 1.81783 -1.37619 0
M  V30 1495 C 139.397 1.58896 -0.253162 0
M  V30 1496 O 140.589 1.70009 -0.492547 0
M  V30 1497 C 137.718 3.19944 -1.24462 0
M  V30 1498 C 136.804 3.48582 -2.4156 0
M  V30 1499 N 137.195 3.48016 -3.67041 0
M  V30 1500 C 135.493 3.79056 -2.35016 0
M  V30 1501 C 136.194 3.75096 -4.44609 0
M  V30 1502 N 135.17 3.94022 -3.74497 0
M  V30 1503 H 138.972 1.79683 -2.32575 0
M  V30 1504 H 136.486 0.91134 -1.34419 0
M  V30 1505 H 138.483 3.99133 -1.20411 0
M  V30 1506 H 137.143 3.23267 -0.304762 0
M  V30 1507 H 138.154 3.28782 -4.00153 0
M  V30 1508 H 134.831 3.89848 -1.49415 0
M  V30 1509 H 136.221 3.80934 -5.53479 0
M  V30 1510 N 138.941 1.26152 0.944643 0
M  V30 1511 C 140.19 1.10883 1.68487 0
M  V30 1512 C 140.503 -0.348153 1.92477 0
M  V30 1513 O 141.709 -0.621459 2.64292 0
M  V30 1514 C 140.165 1.93624 3.03377 0
M  V30 1515 C 139.773 3.43875 2.87148 0
M  V30 1516 C 141.517 1.86954 3.81115 0
M  V30 1517 C 139.424 4.18875 4.1749 0
M  V30 1518 H 138.354 0.41135 0.631907 0
M  V30 1519 H 141.005 1.50433 1.05082 0
M  V30 1520 H 139.387 1.46904 3.67743 0
M  V30 1521 H 140.561 3.98338 2.31653 0
M  V30 1522 H 138.876 3.51744 2.22856 0
M  V30 1523 H 141.473 2.40275 4.77673 0
M  V30 1524 H 141.816 0.839518 4.07747 0
M  V30 1525 H 142.349 2.31477 3.23517 0
M  V30 1526 H 139.088 5.22332 3.96043 0
M  V30 1527 H 138.608 3.69193 4.72712 0
M  V30 1528 H 140.287 4.27134 4.85968 0
M  V30 1529 N 140.419 -1.14872 1.07899 0
M  V30 1530 C 141.349 -2.2193 0.725887 0
M  V30 1531 C 142.33 -1.67622 -0.28927 0
M  V30 1532 O 143.515 -1.93533 -0.160787 0
M  V30 1533 C 140.645 -3.47061 0.128856 0
M  V30 1534 C 139.599 -4.14363 1.07178 0
M  V30 1535 C 138.925 -5.33636 0.337229 0
M  V30 1536 C 140.225 -4.63492 2.40775 0
M  V30 1537 H 141.919 -2.51724 1.62097 0
M  V30 1538 H 139.465 -1.20991 0.780838 0
M  V30 1539 H 141.418 -4.21199 -0.130147 0
M  V30 1540 H 140.142 -3.16617 -0.80134 0
M  V30 1541 H 138.801 -3.42173 1.3158 0
M  V30 1542 H 138.449 -4.99449 -0.596606 0
M  V30 1543 H 138.149 -5.79609 0.965788 0
M  V30 1544 H 139.673 -6.10539 0.0861567 0
M  V30 1545 H 141.087 -5.2913 2.20669 0
M  V30 1546 H 139.484 -5.20148 2.99276 0
M  V30 1547 H 140.554 -3.78834 3.02676 0
M  V30 1548 N 141.898 -0.863906 -1.31812 0
M  V30 1549 C 143.175 -0.39275 -1.91616 0
M  V30 1550 C 143.555 1.12461 -1.7865 0
M  V30 1551 O 142.903 1.95045 -1.19037 0
M  V30 1552 C 143.113 -0.867385 -3.38049 0
M  V30 1553 C 144.461 -0.889966 -4.15168 0
M  V30 1554 O 145.485 -0.812635 -3.46806 0
M  V30 1555 O 144.344 -1.00079 -5.37258 0
M  V30 1556 H 141.438 -0.116358 -0.818773 0
M  V30 1557 H 143.984 -0.951418 -1.40521 0
M  V30 1558 H 142.756 -1.91081 -3.41473 0
M  V30 1559 H 142.379 -0.286687 -3.96565 0
M  V30 1560 N 143.376 1.44774 -0.622745 0
M  V30 1561 C 144.604 2.06487 -0.130722 0
M  V30 1562 C 145.019 1.46476 1.19123 0
M  V30 1563 O 144.376 0.584502 1.72887 0
M  V30 1564 C 144.427 3.615 -0.000807207 0
M  V30 1565 O 144.148 4.19274 -1.27048 0
M  V30 1566 C 145.649 4.40229 0.520898 0
M  V30 1567 H 142.869 0.666704 -0.0758106 0
M  V30 1568 H 145.413 1.85779 -0.854774 0
M  V30 1569 H 143.568 3.81498 0.673643 0
M  V30 1570 H 143.982 5.12622 -1.1099 0
M  V30 1571 H 145.456 5.49144 0.560838 0
M  V30 1572 H 145.933 4.1108 1.54627 0
M  V30 1573 H 146.539 4.25131 -0.120018 0
M  V30 1574 N 144.854 0.36279 1.53368 0
M  V30 1575 C 146.094 -0.227882 2.03126 0
M  V30 1576 C 146.458 -1.4622 1.24434 0
M  V30 1577 O 147.659 -2.12831 1.64184 0
M  V30 1578 C 145.93 -0.515427 3.53664 0
M  V30 1579 S 147.489 -1.08017 4.25297 0
M  V30 1580 H 144.307 -0.0665377 0.70788 0
M  V30 1581 H 146.909 0.50501 1.88865 0
M  V30 1582 H 145.613 0.390436 4.08539 0
M  V30 1583 H 145.144 -1.27747 3.72081 0
M  V30 1584 H 147.159 -2.36462 4.36234 0
M  V30 1585 N 146.332 -1.57332 0.0918853 0
M  V30 1586 C 147.557 -1.98995 -0.584442 0
M  V30 1587 C 147.982 -0.970528 -1.61128 0
M  V30 1588 O 147.34 0.0613904 -1.81196 0
M  V30 1589 C 147.388 -3.39636 -1.21161 0
M  V30 1590 O 146.492 -3.40447 -2.32744 0
M  V30 1591 H 145.833 -0.647165 -0.148572 0
M  V30 1592 H 148.363 -2.03873 0.172347 0
M  V30 1593 H 148.373 -3.7726 -1.55367 0
M  V30 1594 H 147.048 -4.13356 -0.459313 0
M  V30 1595 H 145.625 -3.14614 -2.0018 0
M  V30 1596 N 147.81 0.181792 -1.56548 0
M  V30 1597 C 149.226 0.53316 -1.50431 0
M  V30 1598 C 149.426 1.85184 -0.794297 0
M  V30 1599 O 148.482 2.50058 -0.350318 0
M  V30 1600 C 149.795 0.575597 -2.9514 0
M  V30 1601 C 151.343 0.663519 -3.05886 0
M  V30 1602 C 151.818 0.736946 -4.52032 0
M  V30 1603 N 153.309 0.800118 -4.56237 0
M  V30 1604 C 154.044 0.877327 -5.66649 0
M  V30 1605 N 153.54 0.916016 -6.86718 0
M  V30 1606 N 155.333 0.915542 -5.54594 0
M  V30 1607 H 147.484 -0.683025 -2.01118 0
M  V30 1608 H 149.747 -0.244988 -0.915797 0
M  V30 1609 H 149.453 -0.324482 -3.502 0
M  V30 1610 H 149.327 1.42572 -3.49218 0
M  V30 1611 H 151.714 1.55403 -2.50867 0
M  V30 1612 H 151.795 -0.21307 -2.54911 0
M  V30 1613 H 151.439 -0.149262 -5.07681 0
M  V30 1614 H 151.369 1.62953 -5.00753 0
M  V30 1615 H 153.86 0.778926 -3.69785 0
M  V30 1616 H 154.173 0.975813 -7.66614 0
M  V30 1617 H 152.518 0.884469 -6.89349 0
M  V30 1618 H 155.709 0.882245 -4.59711 0
M  V30 1619 H 155.882 0.972253 -6.40665 0
M  V30 1620 N 149.288 1.51039 0.449983 0
M  V30 1621 C 150.565 1.53612 1.21089 0
M  V30 1622 C 150.945 0.292997 2.09057 0
M  V30 1623 O 150.293 -0.72259 2.16774 0
M  V30 1624 C 150.503 2.84337 2.0237 0
M  V30 1625 C 151.851 3.35807 2.59843 0
M  V30 1626 O 152.875 2.85802 2.12593 0
M  V30 1627 O 151.734 4.23029 3.45989 0
M  V30 1628 H 148.828 0.617057 0.550608 0
M  V30 1629 H 151.374 1.63344 0.460082 0
M  V30 1630 H 150.146 3.66278 1.37681 0
M  V30 1631 H 149.769 2.77708 2.84542 0
M  V30 1632 N 150.766 -0.704594 1.40972 0
M  V30 1633 C 151.994 -1.49354 1.43182 0
M  V30 1634 C 152.409 -1.88768 0.0345508 0
M  V30 1635 O 151.766 -1.56184 -0.944081 0
M  V30 1636 C 151.817 -2.76187 2.33244 0
M  V30 1637 O 151.538 -2.38436 3.67532 0
M  V30 1638 C 153.039 -3.7 2.44162 0
M  V30 1639 H 150.259 -0.460559 0.487982 0
M  V30 1640 H 152.803 -0.868261 1.85153 0
M  V30 1641 H 150.958 -3.34974 1.94606 0
M  V30 1642 H 151.372 -3.20126 4.15475 0
M  V30 1643 H 152.846 -4.55803 3.11364 0
M  V30 1644 H 153.323 -4.13867 1.47006 0
M  V30 1645 H 153.929 -3.17121 2.83398 0
M  V30 1646 N 152.244 -1.26651 -0.937939 0
M  V30 1647 C 153.474 -1.15006 -1.71631 0
M  V30 1648 C 153.882 0.297026 -1.86854 0
M  V30 1649 O 153.225 1.21493 -1.37786 0
M  V30 1650 C 153.287 -1.74984 -3.14039 0
M  V30 1651 C 152.951 -3.24103 -3.2219 0
M  V30 1652 C 153.948 -4.20877 -3.05219 0
M  V30 1653 C 151.633 -3.64625 -3.45476 0
M  V30 1654 C 153.627 -5.56151 -3.11408 0
M  V30 1655 C 151.314 -5.00032 -3.513 0
M  V30 1656 C 152.312 -5.95604 -3.34282 0
M  V30 1657 O 152 -7.28545 -3.3982 0
M  V30 1658 H 151.732 -0.401183 -0.544085 0
M  V30 1659 H 154.286 -1.67832 -1.18413 0
M  V30 1660 H 152.516 -1.16624 -3.68695 0
M  V30 1661 H 154.205 -1.58199 -3.73802 0
M  V30 1662 H 154.971 -3.90908 -2.87081 0
M  V30 1663 H 150.85 -2.90718 -3.57777 0
M  V30 1664 H 154.394 -6.30727 -2.98043 0
M  V30 1665 H 150.291 -5.29659 -3.68959 0
M  V30 1666 H 151.059 -7.3686 -3.56343 0
M  V30 1667 N 153.722 1.14298 -1.08507 0
M  V30 1668 C 154.685 2.17607 -0.719711 0
M  V30 1669 C 155.685 1.58907 0.245997 0
M  V30 1670 O 156.875 1.74181 0.0254081 0
M  V30 1671 C 154.007 3.40842 -0.0627695 0
M  V30 1672 H 155.2 2.51443 -1.63452 0
M  V30 1673 H 152.753 1.28963 -0.88307 0
M  V30 1674 H 153.488 3.12587 0.863716 0
M  V30 1675 H 153.273 3.84713 -0.757504 0
M  V30 1676 H 154.763 4.17221 0.177786 0
M  V30 1677 N 155.201 0.870884 1.31352 0
M  V30 1678 C 156.131 0.343096 2.30966 0
M  V30 1679 C 157.112 -0.566507 1.60389 0
M  V30 1680 O 158.297 -0.483336 1.88089 0
M  V30 1681 C 155.427 -0.455487 3.443 0
M  V30 1682 C 154.381 0.361103 4.26474 0
M  V30 1683 C 153.707 -0.563221 5.31725 0
M  V30 1684 C 155.007 1.59566 4.97329 0
M  V30 1685 H 156.701 1.17548 2.75359 0
M  V30 1686 H 154.247 0.566686 1.32381 0
M  V30 1687 H 156.2 -0.83525 4.13039 0
M  V30 1688 H 154.924 -1.32139 2.98675 0
M  V30 1689 H 153.583 0.722825 3.59403 0
M  V30 1690 H 153.231 -1.42643 4.82351 0
M  V30 1691 H 152.931 -0.0207409 5.87596 0
M  V30 1692 H 154.455 -0.939808 6.03324 0
M  V30 1693 H 155.869 1.28728 5.58661 0
M  V30 1694 H 154.266 2.07728 5.63 0
M  V30 1695 H 155.336 2.34798 4.24262 0
M  V30 1696 N 156.679 -1.44442 0.630414 0
M  V30 1697 C 157.589 -2.34476 -0.0761693 0
M  V30 1698 C 158.605 -1.52576 -0.836449 0
M  V30 1699 O 159.781 -1.85307 -0.788874 0
M  V30 1700 C 156.846 -3.30545 -1.04599 0
M  V30 1701 C 155.907 -4.28352 -0.28516 0
M  V30 1702 C 155.14 -5.19831 -1.20878 0
M  V30 1703 O 155.363 -5.15223 -2.44747 0
M  V30 1704 O 154.297 -5.97892 -0.693491 0
M  V30 1705 H 158.123 -2.96345 0.664324 0
M  V30 1706 H 155.708 -1.44203 0.39061 0
M  V30 1707 H 157.59 -3.89681 -1.60396 0
M  V30 1708 H 156.265 -2.7121 -1.76711 0
M  V30 1709 H 155.172 -3.72764 0.315837 0
M  V30 1710 H 156.505 -4.90605 0.395924 0
M  V30 1711 N 158.157 -0.370918 -1.53173 0
M  V30 1712 C 159.089 0.507823 -2.23503 0
M  V30 1713 C 160.102 1.04182 -1.251 0
M  V30 1714 O 161.291 0.947286 -1.5129 0
M  V30 1715 C 158.391 1.71447 -2.92334 0
M  V30 1716 C 157.564 1.31105 -4.17289 0
M  V30 1717 C 156.623 2.38035 -4.69282 0
M  V30 1718 O 155.649 2.00204 -5.32829 0
M  V30 1719 N 156.851 3.69697 -4.47554 0
M  V30 1720 H 159.616 -0.0946382 -2.99551 0
M  V30 1721 H 157.177 -0.196358 -1.60705 0
M  V30 1722 H 159.169 2.42469 -3.24023 0
M  V30 1723 H 157.739 2.22368 -2.19707 0
M  V30 1724 H 156.959 0.430462 -3.91843 0
M  V30 1725 H 158.247 1.0179 -4.98514 0
M  V30 1726 H 157.645 4.03205 -3.9679 0
M  V30 1727 H 156.202 4.36807 -4.8378 0
M  V30 1728 N 159.635 1.57281 -0.100228 0
M  V30 1729 C 160.86 1.99302 0.573881 0
M  V30 1730 C 161.285 0.979059 1.60611 0
M  V30 1731 O 160.643 -0.0517803 1.81226 0
M  V30 1732 C 160.691 3.40274 1.19358 0
M  V30 1733 O 159.795 3.41676 2.30935 0
M  V30 1734 H 159.136 0.647944 0.145138 0
M  V30 1735 H 161.666 2.03779 -0.183156 0
M  V30 1736 H 161.676 3.78078 1.53365 0
M  V30 1737 H 160.351 4.13594 0.437385 0
M  V30 1738 H 158.928 3.15672 1.98509 0
M  V30 1739 N 161.113 -0.173488 1.56642 0
M  V30 1740 C 162.043 -1.2171 1.99271 0
M  V30 1741 C 163.024 -1.46289 0.867959 0
M  V30 1742 O 164.209 -1.5766 1.13388 0
M  V30 1743 C 161.339 -2.55651 2.35074 0
M  V30 1744 C 160.293 -2.45645 3.50489 0
M  V30 1745 C 159.619 -3.84056 3.72028 0
M  V30 1746 C 160.919 -1.96302 4.84007 0
M  V30 1747 H 162.613 -0.86275 2.867 0
M  V30 1748 H 160.159 -0.413571 1.37933 0
M  V30 1749 H 162.112 -3.2886 2.63494 0
M  V30 1750 H 160.836 -2.92869 1.44552 0
M  V30 1751 H 159.495 -1.7489 3.22194 0
M  V30 1752 H 159.143 -4.18664 2.788 0
M  V30 1753 H 158.843 -3.7823 4.49684 0
M  V30 1754 H 160.367 -4.58854 4.02846 0
M  V30 1755 H 161.781 -2.59284 5.11317 0
M  V30 1756 H 160.178 -2.01429 5.65284 0
M  V30 1757 H 161.248 -0.917226 4.76146 0
M  V30 1758 N 162.591 -1.51276 -0.441967 0
M  V30 1759 C 163.501 -1.75092 -1.56141 0
M  V30 1760 C 164.517 -0.634963 -1.62001 0
M  V30 1761 O 165.693 -0.916686 -1.79329 0
M  V30 1762 C 162.758 -1.86666 -2.92158 0
M  V30 1763 C 161.819 -3.10506 -2.96453 0
M  V30 1764 C 161.052 -3.21519 -4.25982 0
M  V30 1765 O 161.275 -2.38586 -5.18105 0
M  V30 1766 O 160.209 -4.14465 -4.36466 0
M  V30 1767 H 164.035 -2.70044 -1.38961 0
M  V30 1768 H 161.62 -1.35722 -0.624499 0
M  V30 1769 H 163.502 -1.96292 -3.72891 0
M  V30 1770 H 162.177 -0.949014 -3.09476 0
M  V30 1771 H 161.084 -3.06363 -2.14692 0
M  V30 1772 H 162.417 -4.01945 -2.84079 0
M  V30 1773 N 164.069 0.697108 -1.41344 0
M  V30 1774 C 165.316 1.45714 -1.40619 0
M  V30 1775 C 165.644 1.94494 -0.0147907 0
M  V30 1776 O 164.899 1.69794 0.973066 0
M  V30 1777 C 165.198 2.68553 -2.35826 0
M  V30 1778 C 164.864 2.38438 -3.82698 0
M  V30 1779 C 163.526 2.29936 -4.22709 0
M  V30 1780 C 165.878 2.13567 -4.75435 0
M  V30 1781 C 163.206 1.94656 -5.53467 0
M  V30 1782 C 165.558 1.79797 -6.06511 0
M  V30 1783 C 164.222 1.69789 -6.45545 0
M  V30 1784 H 163.492 0.533206 -0.51456 0
M  V30 1785 H 166.139 0.796901 -1.74131 0
M  V30 1786 H 164.444 3.39503 -1.95563 0
M  V30 1787 H 166.141 3.2669 -2.32539 0
M  V30 1788 H 162.731 2.4595 -3.51008 0
M  V30 1789 H 166.915 2.19082 -4.45328 0
M  V30 1790 H 162.171 1.8546 -5.82593 0
M  V30 1791 H 166.345 1.59572 -6.77872 0
M  V30 1792 H 163.972 1.4222 -7.46778 0
M  V30 1793 N 165.547 1.27147 0.931209 0
M  V30 1794 C 166.793 1.13446 1.68101 0
M  V30 1795 C 167.126 -0.319628 1.91552 0
M  V30 1796 O 166.401 -1.23407 1.50336 0
M  V30 1797 C 166.684 1.91482 3.0497 0
M  V30 1798 C 166.537 3.44855 2.88782 0
M  V30 1799 C 167.856 1.71651 4.05246 0
M  V30 1800 H 164.975 0.413498 0.610072 0
M  V30 1801 H 167.617 1.56261 1.08086 0
M  V30 1802 H 165.767 1.55095 3.56199 0
M  V30 1803 H 167.439 3.9105 2.44698 0
M  V30 1804 H 165.682 3.71373 2.24198 0
M  V30 1805 H 166.353 3.94694 3.85902 0
M  V30 1806 H 168.829 2.0337 3.63015 0
M  V30 1807 H 167.705 2.28651 4.99009 0
M  V30 1808 H 167.966 0.663555 4.37092 0
M  V30 1809 N 167.025 -1.13721 1.09112 0
M  V30 1810 C 168.441 -1.36914 0.820174 0
M  V30 1811 C 168.641 -1.93356 -0.567079 0
M  V30 1812 O 167.697 -2.15093 -1.32255 0
M  V30 1813 C 169.01 -2.3235 1.90877 0
M  V30 1814 C 170.558 -2.45973 1.93562 0
M  V30 1815 C 171.033 -3.44714 3.01556 0
M  V30 1816 N 172.524 -3.52263 3.00775 0
M  V30 1817 C 173.259 -4.28536 3.80978 0
M  V30 1818 N 172.755 -5.07991 4.71081 0
M  V30 1819 N 174.548 -4.23804 3.69251 0
M  V30 1820 H 166.699 -0.754348 1.98553 0
M  V30 1821 H 168.962 -0.3944 0.862063 0
M  V30 1822 H 168.668 -1.98027 2.90651 0
M  V30 1823 H 168.542 -3.32332 1.78424 0
M  V30 1824 H 170.929 -2.79584 0.944286 0
M  V30 1825 H 171.01 -1.45926 2.10093 0
M  V30 1826 H 170.654 -3.11835 4.00901 0
M  V30 1827 H 170.584 -4.44558 2.82269 0
M  V30 1828 H 173.075 -2.95567 2.35475 0
M  V30 1829 H 173.388 -5.63487 5.28869 0
M  V30 1830 H 171.733 -5.07235 4.75119 0
M  V30 1831 H 174.924 -3.60806 2.98222 0
M  V30 1832 H 175.097 -4.82995 4.31995 0
M  V30 1833 N 168.503 -0.877838 -1.30888 0
M  V30 1834 C 169.466 -0.344265 -2.266 0
M  V30 1835 C 170.466 0.50922 -1.52524 0
M  V30 1836 O 171.656 0.317398 -1.71284 0
M  V30 1837 C 168.788 0.510198 -3.37061 0
M  V30 1838 H 169.981 -1.1893 -2.7531 0
M  V30 1839 H 167.534 -0.654088 -1.41956 0
M  V30 1840 H 168.269 1.37612 -2.93655 0
M  V30 1841 H 168.054 -0.101047 -3.9197 0
M  V30 1842 H 169.544 0.875537 -4.08319 0
M  V30 1843 N 169.982 1.44106 -0.638065 0
M  V30 1844 C 171.207 2.0685 -0.150916 0
M  V30 1845 C 171.632 1.47417 1.16833 0
M  V30 1846 O 170.99 0.578264 1.71831 0
M  V30 1847 C 171.038 3.60555 -0.05708 0
M  V30 1848 O 170.142 4.00465 0.984972 0
M  V30 1849 H 169.483 0.658151 -0.0879399 0
M  V30 1850 H 172.013 1.84865 -0.876707 0
M  V30 1851 H 172.023 4.07789 0.131232 0
M  V30 1852 H 170.698 4.03193 -1.02021 0
M  V30 1853 H 169.275 3.64849 0.770672 0
M  V30 1854 N 171.46 0.379036 1.52974 0
M  V30 1855 C 172.39 -0.452706 2.29069 0
M  V30 1856 C 173.371 -1.07237 1.32039 0
M  V30 1857 O 174.556 -1.08708 1.60923 0
M  V30 1858 C 171.686 -1.5856 3.08992 0
M  V30 1859 C 170.64 -1.0925 4.13822 0
M  V30 1860 C 169.966 -2.31668 4.81907 0
M  V30 1861 C 171.266 -0.167702 5.22031 0
M  V30 1862 H 172.96 0.182181 2.98845 0
M  V30 1863 H 170.506 0.0890592 1.43724 0
M  V30 1864 H 172.459 -2.1742 3.6098 0
M  V30 1865 H 171.183 -2.24792 2.36931 0
M  V30 1866 H 169.842 -0.526494 3.628 0
M  V30 1867 H 169.49 -2.96386 4.06404 0
M  V30 1868 H 169.19 -1.9934 5.52754 0
M  V30 1869 H 170.714 -2.91189 5.36695 0
M  V30 1870 H 172.128 -0.664186 5.6944 0
M  V30 1871 H 170.525 0.0653265 6.00064 0
M  V30 1872 H 171.595 0.786347 4.78482 0
M  V30 1873 N 172.938 -1.57226 0.108567 0
M  V30 1874 C 174.166 -1.99179 -0.559954 0
M  V30 1875 C 174.581 -0.988022 -1.60884 0
M  V30 1876 O 173.938 0.0205512 -1.82488 0
M  V30 1877 C 173.989 -3.41159 -1.19552 0
M  V30 1878 O 173.71 -4.37694 -0.188577 0
M  V30 1879 C 175.211 -3.98188 -1.94837 0
M  V30 1880 H 172.431 -0.654228 -0.149088 0
M  V30 1881 H 174.975 -2.03598 0.19183 0
M  V30 1882 H 173.13 -3.37711 -1.89815 0
M  V30 1883 H 173.544 -5.20469 -0.649014 0
M  V30 1884 H 175.018 -4.99644 -2.34648 0
M  V30 1885 H 175.495 -3.3675 -2.81951 0
M  V30 1886 H 176.101 -4.0515 -1.2936 0
M  V30 1887 N 174.416 0.165178 -1.56732 0
M  V30 1888 C 175.363 1.2044 -1.96883 0
M  V30 1889 C 176.333 1.43664 -0.833657 0
M  V30 1890 O 177.518 1.56302 -1.09427 0
M  V30 1891 C 174.658 2.53727 -2.33916 0
M  V30 1892 C 173.771 2.3783 -3.6064 0
M  V30 1893 C 172.906 3.64026 -3.86857 0
M  V30 1894 C 171.945 3.43088 -5.06909 0
M  V30 1895 N 171.082 4.61369 -5.29229 0
M  V30 1896 H 175.922 0.854996 -2.85471 0
M  V30 1897 H 173.459 0.41076 -1.41249 0
M  V30 1898 H 175.417 3.31419 -2.53411 0
M  V30 1899 H 174.047 2.8665 -1.48431 0
M  V30 1900 H 173.099 1.51282 -3.49024 0
M  V30 1901 H 174.411 2.18308 -4.4849 0
M  V30 1902 H 173.565 4.50152 -4.06753 0
M  V30 1903 H 172.304 3.86533 -2.97394 0
M  V30 1904 H 171.309 2.55349 -4.86906 0
M  V30 1905 H 172.534 3.21997 -5.97909 0
M  V30 1906 H 170.48 4.84084 -4.42718 0
M  V30 1907 H 170.397 4.44783 -6.11313 0
M  V30 1908 H 171.665 5.48761 -5.53608 0
M  V30 1909 N 175.894 1.51508 0.433938 0
M  V30 1910 C 177.14 1.64588 1.18484 0
M  V30 1911 C 177.473 0.362666 1.90784 0
M  V30 1912 O 176.748 -0.637892 1.83742 0
M  V30 1913 C 177.031 2.85149 2.19913 0
M  V30 1914 C 176.884 4.23456 1.51674 0
M  V30 1915 C 178.203 3.01227 3.20858 0
M  V30 1916 H 175.322 0.598994 0.429389 0
M  V30 1917 H 177.964 1.84002 0.473647 0
M  V30 1918 H 176.114 2.68729 2.80566 0
M  V30 1919 H 177.786 4.51552 0.943322 0
M  V30 1920 H 176.029 4.25998 0.819035 0
M  V30 1921 H 176.7 5.03812 2.2556 0
M  V30 1922 H 179.176 3.16382 2.70263 0
M  V30 1923 H 178.052 3.87141 3.89118 0
M  V30 1924 H 178.313 2.13447 3.8716 0
M  V30 1925 N 177.372 -0.689602 1.41712 0
M  V30 1926 C 178.649 -1.44457 1.31877 0
M  V30 1927 C 179.029 -2.11039 -0.0508537 0
M  V30 1928 O 178.377 -2.02138 -1.06547 0
M  V30 1929 C 178.587 -2.45913 2.47645 0
M  V30 1930 C 179.935 -3.10991 2.89084 0
M  V30 1931 O 180.959 -2.56238 2.47428 0
M  V30 1932 O 179.818 -4.10174 3.61137 0
M  V30 1933 H 176.912 -0.64362 0.519309 0
M  V30 1934 H 179.458 -0.719576 1.53689 0
M  V30 1935 H 178.23 -1.95409 3.39015 0
M  V30 1936 H 177.853 -3.25913 2.27742 0
M  V30 1937 N 178.85 -1.27639 -0.924453 0
M  V30 1938 C 179.76 -1.12466 -2.05885 0
M  V30 1939 C 180.776 -0.053869 -1.73917 0
M  V30 1940 O 181.952 -0.261012 -1.99702 0
M  V30 1941 C 179.017 -0.776768 -3.37886 0
M  V30 1942 C 178.078 -1.92878 -3.83532 0
M  V30 1943 C 177.311 -1.59739 -5.09234 0
M  V30 1944 O 177.534 -0.506782 -5.68144 0
M  V30 1945 O 176.468 -2.43761 -5.50331 0
M  V30 1946 H 180.294 -2.07671 -2.21599 0
M  V30 1947 H 177.879 -1.06857 -1.04413 0
M  V30 1948 H 179.761 -0.596229 -4.17161 0
M  V30 1949 H 178.436 0.145732 -3.23372 0
M  V30 1950 H 177.343 -2.1644 -3.0513 0
M  V30 1951 H 178.676 -2.8316 -4.02593 0
M  V30 1952 N 180.328 1.1314 -1.09713 0
M  V30 1953 C 181.291 2.16831 -0.742751 0
M  V30 1954 C 182.291 1.59159 0.229129 0
M  V30 1955 O 183.481 1.74199 0.00693237 0
M  V30 1956 C 180.613 3.40756 -0.0989168 0
M  V30 1957 H 181.806 2.49695 -1.66109 0
M  V30 1958 H 179.359 1.2802 -0.896699 0
M  V30 1959 H 180.094 3.13485 0.830514 0
M  V30 1960 H 179.879 3.83888 -0.798265 0
M  V30 1961 H 181.369 4.17386 0.133524 0
M  V30 1962 N 181.806 0.884767 1.30421 0
M  V30 1963 C 182.716 0.355398 2.31892 0
M  V30 1964 C 183.732 -0.542261 1.65335 0
M  V30 1965 O 184.908 -0.435432 1.96637 0
M  V30 1966 C 181.973 -0.421661 3.44126 0
M  V30 1967 C 181.034 0.505727 4.26311 0
M  V30 1968 C 180.267 -0.234343 5.33185 0
M  V30 1969 O 180.49 -1.46045 5.51386 0
M  V30 1970 O 179.424 0.415443 6.00465 0
M  V30 1971 H 183.25 1.19685 2.79122 0
M  V30 1972 H 180.835 0.648596 1.34587 0
M  V30 1973 H 182.717 -0.861641 4.12497 0
M  V30 1974 H 181.392 -1.23942 2.99032 0
M  V30 1975 H 180.299 0.994513 3.60639 0
M  V30 1976 H 181.632 1.28948 4.75009 0
M  V30 1977 N 183.284 -1.43765 0.645699 0
M  V30 1978 C 184.514 -2.05953 0.163318 0
M  V30 1979 C 184.922 -1.48432 -1.17322 0
M  V30 1980 O 184.265 -0.607295 -1.73371 0
M  V30 1981 C 184.327 -3.59499 -0.0103065 0
M  V30 1982 C 183.991 -4.39563 1.25035 0
M  V30 1983 C 184.988 -4.72108 2.17739 0
M  V30 1984 C 182.673 -4.79697 1.48983 0
M  V30 1985 C 184.667 -5.43688 3.3269 0
M  V30 1986 C 182.354 -5.51023 2.64229 0
M  V30 1987 C 183.352 -5.8294 3.55908 0
M  V30 1988 O 183.04 -6.5281 4.69142 0
M  V30 1989 H 182.772 -0.670798 0.0836986 0
M  V30 1990 H 185.326 -1.85384 0.884407 0
M  V30 1991 H 183.556 -3.78613 -0.78669 0
M  V30 1992 H 185.245 -4.03408 -0.449087 0
M  V30 1993 H 186.011 -4.41627 2.00476 0
M  V30 1994 H 181.89 -4.54266 0.785078 0
M  V30 1995 H 185.434 -5.68517 4.04269 0
M  V30 1996 H 181.331 -5.8092 2.81429 0
M  V30 1997 H 182.099 -6.71288 4.6831 0
M  V30 1998 N 184.763 -0.387143 -1.52771 0
M  V30 1999 C 185.696 0.493123 -2.22808 0
M  V30 2000 C 186.674 1.0658 -1.22798 0
M  V30 2001 O 187.858 1.11785 -1.51777 0
M  V30 2002 C 184.985 1.68238 -2.93962 0
M  V30 2003 C 184.031 1.23515 -4.08223 0
M  V30 2004 S 184.864 0.21848 -5.35054 0
M  V30 2005 C 186.02 1.41357 -6.09729 0
M  V30 2006 H 186.253 -0.101625 -2.97126 0
M  V30 2007 H 183.786 -0.171323 -1.53447 0
M  V30 2008 H 185.744 2.36443 -3.35567 0
M  V30 2009 H 184.405 2.24842 -2.19328 0
M  V30 2010 H 183.598 2.12304 -4.57103 0
M  V30 2011 H 183.2 0.632044 -3.68621 0
M  V30 2012 H 185.492 2.34101 -6.3577 0
M  V30 2013 H 186.435 0.965736 -7.01484 0
M  V30 2014 H 186.843 1.6294 -5.40473 0
M  V30 2015 N 186.241 1.57166 -0.116904 0
M  V30 2016 C 187.481 1.97008 0.544715 0
M  V30 2017 C 187.845 0.998713 1.63981 0
M  V30 2018 O 189.046 1.28644 2.36018 0
M  V30 2019 C 187.317 3.41145 1.06559 0
M  V30 2020 S 188.876 4.02998 1.73603 0
M  V30 2021 H 185.694 0.688587 0.177112 0
M  V30 2022 H 188.296 1.94459 -0.201487 0
M  V30 2023 H 187 4.09592 0.257374 0
M  V30 2024 H 186.531 3.4734 1.84712 0
M  V30 2025 H 188.546 3.93585 3.02168 0
M  V30 2026 N 187.719 -0.156864 1.56817 0
M  V30 2027 C 189.13 -0.717916 1.72345 0
M  V30 2028 C 189.481 -1.82124 0.729747 0
M  V30 2029 O 188.606 -2.16141 -0.105781 0
M  V30 2030 C 189.201 -1.30904 3.12489 0
M  V30 2031 C 187.76 -1.81676 3.29653 0
M  V30 2032 C 186.907 -0.701349 2.68284 0
M  V30 2033 H 189.858 0.0686989 1.58551 0
M  V30 2034 H 189.879 -2.17882 3.11942 0
M  V30 2035 H 189.391 -0.505796 3.8479 0
M  V30 2036 H 187.492 -2.64598 2.62333 0
M  V30 2037 H 187.605 -1.95226 4.3752 0
M  V30 2038 H 185.969 -1.12548 2.28484 0
M  V30 2039 H 186.752 0.0902846 3.43181 0
M  V30 2040 N 189.197 -1.51736 -0.425897 0
M  V30 2041 C 190.474 -1.55519 -1.1863 0
M  V30 2042 C 190.854 -0.326219 -2.08564 0
M  V30 2043 O 190.202 0.688012 -2.17896 0
M  V30 2044 C 190.412 -2.87521 -1.9782 0
M  V30 2045 C 191.76 -3.39899 -2.54468 0
M  V30 2046 O 192.784 -2.89148 -2.08019 0
M  V30 2047 O 191.643 -4.2848 -3.39215 0
M  V30 2048 H 188.737 -0.625739 -0.540721 0
M  V30 2049 H 191.283 -1.64055 -0.434038 0
M  V30 2050 H 190.055 -3.68422 -1.31836 0
M  V30 2051 H 189.678 -2.822 -2.80088 0
M  V30 2052 N 190.675 0.682077 -1.42076 0
M  V30 2053 C 191.923 1.4393 -1.41876 0
M  V30 2054 C 192.244 1.94971 -0.0335599 0
M  V30 2055 O 191.514 1.72591 0.926773 0
M  V30 2056 H 190.094 0.534085 -0.522267 0
M  V30 2057 H 192.756 0.806427 -1.77434 0
M  V30 2058 H 191.852 2.29588 -2.11414 0
M  V30 2059 N 192.153 1.28127 0.917671 0
M  V30 2060 C 193.378 1.18007 1.70555 0
M  V30 2061 C 193.803 -0.258257 1.86319 0
M  V30 2062 O 193.161 -1.1869 1.37049 0
M  V30 2063 C 193.209 1.87948 3.07746 0
M  V30 2064 O 192.313 1.18427 3.9503 0
M  V30 2065 H 191.654 0.409867 0.522403 0
M  V30 2066 H 194.184 1.69379 1.1477 0
M  V30 2067 H 194.194 1.95701 3.58001 0
M  V30 2068 H 192.869 2.92573 2.95591 0
M  V30 2069 H 191.446 1.18811 3.53466 0
M  V30 2070 N 193.631 -1.12557 1.10312 0
M  V30 2071 C 194.861 -1.87592 0.865617 0
M  V30 2072 C 195.269 -1.79851 -0.587389 0
M  V30 2073 O 194.612 -1.16949 -1.41664 0
M  V30 2074 C 194.674 -3.37665 1.23381 0
M  V30 2075 C 194.338 -3.69181 2.69359 0
M  V30 2076 C 195.335 -3.67652 3.67597 0
M  V30 2077 C 193.02 -3.98555 3.05711 0
M  V30 2078 C 195.014 -3.95053 5.00212 0
M  V30 2079 C 192.701 -4.25616 4.38514 0
M  V30 2080 C 193.699 -4.23851 5.35574 0
M  V30 2081 O 193.387 -4.50242 6.65986 0
M  V30 2082 H 193.119 -0.600442 0.310557 0
M  V30 2083 H 195.673 -1.4335 1.47105 0
M  V30 2084 H 193.903 -3.82454 0.571467 0
M  V30 2085 H 195.592 -3.94041 0.973994 0
M  V30 2086 H 196.358 -3.45024 3.40857 0
M  V30 2087 H 192.237 -3.99071 2.30789 0
M  V30 2088 H 195.781 -3.93591 5.75962 0
M  V30 2089 H 191.678 -4.47718 4.64994 0
M  V30 2090 H 192.446 -4.67867 6.71597 0
M  V30 2091 N 195.109 -0.891671 -1.2995 0
M  V30 2092 C 196.072 -0.36828 -2.26222 0
M  V30 2093 C 197.072 0.493014 -1.53056 0
M  V30 2094 O 198.262 0.299213 -1.71611 0
M  V30 2095 C 195.394 0.47442 -3.37583 0
M  V30 2096 H 196.587 -1.21844 -2.74033 0
M  V30 2097 H 194.14 -0.669107 -1.41254 0
M  V30 2098 H 194.875 1.34489 -2.95099 0
M  V30 2099 H 194.66 -0.142615 -3.91841 0
M  V30 2100 H 196.15 0.83218 -4.09224 0
M  V30 2101 N 196.587 1.43421 -0.653314 0
M  V30 2102 C 197.836 2.01032 -0.164076 0
M  V30 2103 C 198.149 1.52147 1.22926 0
M  V30 2104 O 199.355 2.02031 1.81371 0
M  V30 2105 C 197.811 3.59082 -0.24252 0
M  V30 2106 C 197.419 4.1696 -1.63855 0
M  V30 2107 C 199.163 4.24079 0.18911 0
M  V30 2108 C 197.07 5.67304 -1.67092 0
M  V30 2109 H 196 0.751798 -0.0575769 0
M  V30 2110 H 198.651 1.6439 -0.815362 0
M  V30 2111 H 197.033 3.93125 0.476276 0
M  V30 2112 H 198.207 3.94416 -2.38271 0
M  V30 2113 H 196.522 3.64335 -2.01616 0
M  V30 2114 H 199.119 5.34381 0.184775 0
M  V30 2115 H 199.462 3.98005 1.22056 0
M  V30 2116 H 199.995 3.94918 -0.477938 0
M  V30 2117 H 196.734 5.98145 -2.68146 0
M  V30 2118 H 196.254 5.91904 -0.970014 0
M  V30 2119 H 197.933 6.31344 -1.4147 0
M  V30 2120 N 198.065 0.39524 1.52563 0
M  V30 2121 C 198.997 -0.472201 2.24283 0
M  V30 2122 C 200.01 -1.02178 1.26742 0
M  V30 2123 O 201.199 -0.923097 1.52778 0
M  V30 2124 C 198.299 -1.66775 2.95024 0
M  V30 2125 C 197.472 -1.2445 4.19322 0
M  V30 2126 C 196.531 -2.30539 4.7301 0
M  V30 2127 O 195.557 -1.91702 5.35947 0
M  V30 2128 N 196.759 -3.6253 4.53379 0
M  V30 2129 H 199.524 0.142282 2.99362 0
M  V30 2130 H 197.085 0.2219 1.60372 0
M  V30 2131 H 199.077 -2.37283 3.27839 0
M  V30 2132 H 197.647 -2.18845 2.23217 0
M  V30 2133 H 196.867 -0.368069 3.92478 0
M  V30 2134 H 198.155 -0.938457 5.0007 0
M  V30 2135 H 197.553 -3.96841 4.03154 0
M  V30 2136 H 196.11 -4.29055 4.90668 0
M  V30 2137 N 199.544 -1.57102 0.125237 0
M  V30 2138 C 200.454 -2.19191 -0.8362 0
M  V30 2139 C 201.47 -1.16985 -1.28805 0
M  V30 2140 O 202.646 -1.49479 -1.34974 0
M  V30 2141 C 199.711 -2.78407 -2.06617 0
M  V30 2142 C 198.772 -3.9567 -1.66565 0
M  V30 2143 C 198.005 -4.52052 -2.83698 0
M  V30 2144 O 198.228 -4.07326 -3.99302 0
M  V30 2145 O 197.162 -5.42645 -2.60423 0
M  V30 2146 H 200.988 -3.01816 -0.337776 0
M  V30 2147 H 198.573 -1.4906 -0.100695 0
M  V30 2148 H 200.455 -3.16129 -2.7864 0
M  V30 2149 H 199.13 -1.9881 -2.55453 0
M  V30 2150 H 198.037 -3.62705 -0.916296 0
M  V30 2151 H 199.37 -4.76722 -1.22464 0
M  V30 2152 N 201.022 0.148545 -1.56898 0
M  V30 2153 C 201.97 1.20265 -1.99096 0
M  V30 2154 C 202.964 1.44559 -0.883123 0
M  V30 2155 O 204.17 1.4487 -1.0683 0
M  V30 2156 H 200.545 0.404786 -0.63376 0
M  V30 2157 H 202.516 0.82004 -2.86911 0
M  V30 2158 C 201.265 2.52886 -2.3863 0
M  V30 2159 H 200.588 2.35021 -3.23427 0
M  V30 2160 H 202.028 3.25274 -2.7198 0
M  V30 2161 C 200.487 3.13315 -1.23837 0
M  V30 2162 O 201.017 3.98077 -0.538268 0
M  V30 2163 N 199.223 2.72742 -1.00301 0
M  V30 2164 H 198.77 2.03912 -1.5741 0
M  V30 2165 H 198.728 3.13507 -0.236838 0
M  V30 2166 N 202.5 1.5196 0.417844 0
M  V30 2167 C 203.749 1.6482 1.16264 0
M  V30 2168 C 204.062 0.379886 1.91876 0
M  V30 2169 O 205.268 0.388154 2.68711 0
M  V30 2170 C 203.724 2.91161 2.1155 0
M  V30 2171 C 203.332 4.25068 1.41495 0
M  V30 2172 C 205.076 3.13383 2.86341 0
M  V30 2173 C 202.983 5.42541 2.35379 0
M  V30 2174 H 201.913 0.613954 0.437694 0
M  V30 2175 H 204.564 1.78442 0.427871 0
M  V30 2176 H 202.946 2.71218 2.88543 0
M  V30 2177 H 204.12 4.55463 0.699263 0
M  V30 2178 H 202.435 4.0888 0.787792 0
M  V30 2179 H 205.032 3.98324 3.5671 0
M  V30 2180 H 205.375 2.27256 3.48798 0
M  V30 2181 H 205.908 3.33757 2.1645 0
M  V30 2182 H 202.647 6.30987 1.77582 0
M  V30 2183 H 202.167 5.16497 3.04945 0
M  V30 2184 H 203.846 5.75272 2.96093 0
M  V30 2185 N 203.978 -0.674533 1.42435 0
M  V30 2186 C 205.389 -1.25514 1.38214 0
M  V30 2187 C 205.74 -1.96055 0.0755464 0
M  V30 2188 O 204.865 -2.00028 -0.8257 0
M  V30 2189 C 205.46 -2.28269 2.50357 0
M  V30 2190 C 204.019 -2.81856 2.49467 0
M  V30 2191 C 203.166 -1.56182 2.29134 0
M  V30 2192 H 206.117 -0.467902 1.51646 0
M  V30 2193 H 206.138 -3.10009 2.20624 0
M  V30 2194 H 205.65 -1.769 3.45439 0
M  V30 2195 H 203.751 -3.37346 1.58204 0
M  V30 2196 H 203.864 -3.30854 3.46515 0
M  V30 2197 H 202.228 -1.82761 1.774 0
M  V30 2198 H 203.011 -1.06778 3.26272 0
M  V30 2199 N 205.456 -1.28612 -0.910864 0
M  V30 2200 C 206.386 -1.15326 -2.03032 0
M  V30 2201 C 207.367 -0.0502924 -1.70026 0
M  V30 2202 O 208.552 -0.227797 -1.92859 0
M  V30 2203 C 205.682 -0.817343 -3.37545 0
M  V30 2204 C 204.636 -1.8754 -3.84724 0
M  V30 2205 C 203.962 -1.39305 -5.16235 0
M  V30 2206 C 205.262 -3.28244 -4.06267 0
M  V30 2207 H 206.956 -2.08975 -2.14406 0
M  V30 2208 H 204.502 -1.00612 -1.03021 0
M  V30 2209 H 206.455 -0.711151 -4.15356 0
M  V30 2210 H 205.179 0.154846 -3.26233 0
M  V30 2211 H 203.838 -1.97079 -3.09121 0
M  V30 2212 H 203.486 -0.409846 -5.01328 0
M  V30 2213 H 203.186 -2.10057 -5.48771 0
M  V30 2214 H 204.71 -1.30014 -5.96598 0
M  V30 2215 H 206.124 -3.21611 -4.74594 0
M  V30 2216 H 204.521 -3.96855 -4.5014 0
M  V30 2217 H 205.591 -3.72048 -3.10979 0
M  V30 2218 N 206.934 1.1197 -1.10907 0
M  V30 2219 C 207.864 2.19928 -0.784473 0
M  V30 2220 C 208.845 1.6833 0.244726 0
M  V30 2221 O 210.03 1.93892 0.109418 0
M  V30 2222 C 207.16 3.46597 -0.220827 0
M  V30 2223 C 206.114 4.11376 -1.18127 0
M  V30 2224 C 205.44 5.32554 -0.478594 0
M  V30 2225 C 206.74 4.56945 -2.52979 0
M  V30 2226 H 208.434 2.47337 -1.68715 0
M  V30 2227 H 205.98 1.18879 -0.812642 0
M  V30 2228 H 207.933 4.21396 0.0184278 0
M  V30 2229 H 206.657 3.1863 0.717113 0
M  V30 2230 H 205.316 3.38564 -1.40606 0
M  V30 2231 H 204.964 5.00856 0.463976 0
M  V30 2232 H 204.664 5.76844 -1.11912 0
M  V30 2233 H 206.188 6.10096 -0.248 0
M  V30 2234 H 207.602 5.23093 -2.3462 0
M  V30 2235 H 205.999 5.1203 -3.12962 0
M  V30 2236 H 207.069 3.70676 -3.12614 0
M  V30 2237 N 208.412 0.89855 1.29475 0
M  V30 2238 C 209.661 0.519863 1.94885 0
M  V30 2239 C 209.974 -0.9383 1.71625 0
M  V30 2240 O 211.18 -1.42445 2.31131 0
M  V30 2241 C 209.636 0.878836 3.49005 0
M  V30 2242 C 209.244 2.35569 3.81066 0
M  V30 2243 C 210.988 0.570004 4.20656 0
M  V30 2244 C 208.895 2.65558 5.28425 0
M  V30 2245 H 207.825 0.190692 0.729488 0
M  V30 2246 H 210.476 1.09539 1.47219 0
M  V30 2247 H 208.858 0.232253 3.95318 0
M  V30 2248 H 210.032 3.04773 3.45616 0
M  V30 2249 H 208.347 2.63343 3.22552 0
M  V30 2250 H 210.944 0.770925 5.29113 0
M  V30 2251 H 211.287 -0.491404 4.1339 0
M  V30 2252 H 211.82 1.17438 3.8007 0
M  V30 2253 H 208.559 3.70493 5.40754 0
M  V30 2254 H 208.079 2.00977 5.65127 0
M  V30 2255 H 209.758 2.51765 5.96006 0
M  V30 2256 N 209.89 -1.43072 0.660911 0
M  V30 2257 C 210.853 -2.29194 -0.0166406 0
M  V30 2258 C 211.853 -1.42609 -0.742912 0
M  V30 2259 O 213.043 -1.64155 -0.583004 0
M  V30 2260 C 210.175 -3.24831 -1.0343 0
M  V30 2261 H 211.368 -2.90596 0.741208 0
M  V30 2262 H 208.921 -1.5048 0.422532 0
M  V30 2263 H 209.656 -2.68339 -1.82111 0
M  V30 2264 H 209.441 -3.88676 -0.517082 0
M  V30 2265 H 210.931 -3.89451 -1.50723 0
M  V30 2266 N 211.368 -0.403325 -1.52352 0
M  V30 2267 C 212.616 0.174003 -2.0135 0
M  V30 2268 C 212.937 1.46139 -1.29106 0
M  V30 2269 O 212.207 1.91448 -0.415253 0
M  V30 2270 H 210.787 0.0672911 -0.743963 0
M  V30 2271 H 213.449 -0.538235 -1.87321 0
M  V30 2272 H 212.545 0.374254 -3.09848 0
M  V30 2273 N 212.846 1.57033 -0.133567 0
M  V30 2274 C 214.092 1.95976 0.521649 0
M  V30 2275 C 214.425 1.01779 1.65393 0
M  V30 2276 O 213.7 0.0576581 1.94415 0
M  V30 2277 C 213.983 3.44738 1.04057 0
M  V30 2278 C 213.836 4.49711 -0.0892897 0
M  V30 2279 C 215.155 3.95682 1.92675 0
M  V30 2280 H 212.274 0.712579 0.188149 0
M  V30 2281 H 214.916 1.88813 -0.212076 0
M  V30 2282 H 213.066 3.50973 1.66583 0
M  V30 2283 H 214.738 4.55565 -0.725152 0
M  V30 2284 H 212.981 4.27261 -0.750378 0
M  V30 2285 H 213.652 5.51099 0.315284 0
M  V30 2286 H 216.128 3.91841 1.39998 0
M  V30 2287 H 215.004 5.00262 2.25897 0
M  V30 2288 H 215.265 3.37239 2.85872 0
M  V30 2289 N 214.325 -0.140222 1.56975 0
M  V30 2290 C 215.574 -0.850152 1.82908 0
M  V30 2291 C 215.887 -1.82028 0.715892 0
M  V30 2292 O 217.093 -2.57485 0.861016 0
M  V30 2293 C 215.549 -1.5625 3.24213 0
M  V30 2294 C 215.157 -0.63443 4.43485 0
M  V30 2295 C 216.901 -2.25881 3.59413 0
M  V30 2296 C 214.808 -1.34879 5.75814 0
M  V30 2297 H 213.738 -0.321221 0.682153 0
M  V30 2298 H 216.389 -0.102874 1.83211 0
M  V30 2299 H 214.771 -2.35565 3.18316 0
M  V30 2300 H 215.945 0.12398 4.60633 0
M  V30 2301 H 214.26 -0.0461836 4.16374 0
M  V30 2302 H 216.857 -2.79978 4.5554 0
M  V30 2303 H 217.2 -3.02693 2.85802 0
M  V30 2304 H 217.733 -1.53477 3.67001 0
M  V30 2305 H 214.472 -0.622385 6.52539 0
M  V30 2306 H 213.992 -2.07974 5.6259 0
M  V30 2307 H 215.671 -1.88784 6.18845 0
M  V30 2308 N 215.803 -1.52179 -0.40978 0
M  V30 2309 C 217.051 -1.65878 -1.15451 0
M  V30 2310 C 217.372 -0.390771 -1.91044 0
M  V30 2311 O 216.642 0.594323 -1.86667 0
M  V30 2312 H 215.222 -0.611405 -0.429177 0
M  V30 2313 H 217.884 -1.89219 -0.467134 0
M  V30 2314 H 216.98 -2.49954 -1.86894 0
M  V30 2315 N 217.281 0.66697 -1.42791 0
M  V30 2316 C 218.529 1.42417 -1.43394 0
M  V30 2317 C 218.85 1.94925 -0.0542373 0
M  V30 2318 O 218.12 1.73564 0.908415 0
M  V30 2319 H 216.7 0.528515 -0.527902 0
M  V30 2320 H 219.362 0.787562 -1.78279 0
M  V30 2321 H 218.458 2.27333 -2.13837 0
M  V30 2322 N 218.759 1.29093 0.90403 0
M  V30 2323 C 219.984 1.19809 1.69294 0
M  V30 2324 C 220.409 -0.238481 1.86582 0
M  V30 2325 O 219.767 -1.1723 1.383 0
M  V30 2326 C 219.815 1.91202 3.05736 0
M  V30 2327 O 218.919 1.22611 3.93752 0
M  V30 2328 H 218.26 0.415385 0.518027 0
M  V30 2329 H 220.79 1.70586 1.12967 0
M  V30 2330 H 220.8 1.99487 3.55906 0
M  V30 2331 H 219.475 2.95692 2.92471 0
M  V30 2332 H 218.052 1.22554 3.52186 0
M  V30 2333 N 220.237 -1.11381 1.11499 0
M  V30 2334 C 221.467 -1.86663 0.885464 0
M  V30 2335 C 221.875 -1.80464 -0.568281 0
M  V30 2336 O 221.218 -1.18445 -1.40415 0
M  V30 2337 C 221.28 -3.36337 1.26956 0
M  V30 2338 C 220.944 -3.66304 2.73259 0
M  V30 2339 C 221.941 -3.63733 3.71476 0
M  V30 2340 C 219.626 -3.9529 3.09921 0
M  V30 2341 C 221.62 -3.89725 5.04374 0
M  V30 2342 C 219.307 -4.20941 4.43004 0
M  V30 2343 C 220.305 -4.18147 5.40039 0
M  V30 2344 O 219.993 -4.43153 6.70724 0
M  V30 2345 H 219.725 -0.597114 0.316908 0
M  V30 2346 H 222.279 -1.41782 1.48617 0
M  V30 2347 H 220.509 -3.81826 0.611999 0
M  V30 2348 H 222.198 -3.92986 1.01573 0
M  V30 2349 H 222.964 -3.41389 3.44498 0
M  V30 2350 H 218.843 -3.966 2.35009 0
M  V30 2351 H 222.387 -3.8746 5.80104 0
M  V30 2352 H 218.284 -4.42761 4.69716 0
M  V30 2353 H 219.052 -4.60717 6.76522 0
M  V30 2354 N 221.715 -0.905404 -1.28997 0
M  V30 2355 C 222.94 -0.549175 -1.99997 0
M  V30 2356 C 223.365 0.860276 -1.67275 0
M  V30 2357 O 222.723 1.57355 -0.900502 0
M  V30 2358 C 222.771 -0.755185 -3.52604 0
M  V30 2359 O 221.875 0.189692 -4.11964 0
M  V30 2360 H 221.216 -0.213899 -0.628604 0
M  V30 2361 H 223.746 -1.21856 -1.64354 0
M  V30 2362 H 223.756 -0.662045 -4.02593 0
M  V30 2363 H 222.431 -1.78271 -3.75755 0
M  V30 2364 H 221.008 0.0485257 -3.72868 0
M  V30 2365 N 223.193 1.4272 -0.668489 0
M  V30 2366 C 224.418 2.06484 -0.194758 0
M  V30 2367 C 224.843 1.49862 1.13679 0
M  V30 2368 O 224.201 0.614582 1.70565 0
M  V30 2369 C 224.249 3.60353 -0.133546 0
M  V30 2370 O 223.353 4.02464 0.899806 0
M  V30 2371 H 222.694 0.656137 -0.10188 0
M  V30 2372 H 225.224 1.82964 -0.915722 0
M  V30 2373 H 225.234 4.07976 0.0447041 0
M  V30 2374 H 223.909 4.00938 -1.1055 0
M  V30 2375 H 222.486 3.66402 0.693109 0
M  V30 2376 N 224.671 0.411399 1.52136 0
M  V30 2377 C 225.917 -0.163888 2.02137 0
M  V30 2378 C 226.25 -1.44597 1.29636 0
M  V30 2379 O 225.525 -1.90272 0.403353 0
M  V30 2380 C 225.808 -0.40927 3.57767 0
M  V30 2381 C 225.661 0.889643 4.40914 0
M  V30 2382 C 226.98 -1.19042 4.23694 0
M  V30 2383 H 224.099 -0.0580896 0.734707 0
M  V30 2384 H 226.741 0.54531 1.82007 0
M  V30 2385 H 224.891 -1.0134 3.7505 0
M  V30 2386 H 226.563 1.52575 4.35337 0
M  V30 2387 H 224.806 1.50011 4.07037 0
M  V30 2388 H 225.477 0.672314 5.4789 0
M  V30 2389 H 227.953 -0.678942 4.10524 0
M  V30 2390 H 226.829 -1.33086 5.32522 0
M  V30 2391 H 227.09 -2.21166 3.82803 0
M  V30 2392 N 226.149 -1.5696 0.141893 0
M  V30 2393 C 227.374 -2.00754 -0.520838 0
M  V30 2394 C 227.799 -1.0213 -1.57959 0
M  V30 2395 O 227.157 0.00371324 -1.813 0
M  V30 2396 C 227.205 -3.43318 -1.10294 0
M  V30 2397 O 226.309 -3.47679 -2.21795 0
M  V30 2398 H 225.65 -0.651564 -0.127908 0
M  V30 2399 H 228.18 -2.03221 0.23712 0
M  V30 2400 H 228.19 -3.82012 -1.43287 0
M  V30 2401 H 226.865 -4.14608 -0.327574 0
M  V30 2402 H 225.442 -3.20824 -1.9007 0
M  V30 2403 N 227.627 0.131896 -1.57047 0
M  V30 2404 C 228.876 0.84044 -1.83356 0
M  V30 2405 C 229.189 1.81646 -0.725535 0
M  V30 2406 O 230.395 2.57025 -0.874659 0
M  V30 2407 C 228.851 1.54528 -3.25037 0
M  V30 2408 C 228.459 0.610902 -4.43815 0
M  V30 2409 C 230.203 2.23972 -3.60606 0
M  V30 2410 C 228.11 1.31823 -5.76521 0
M  V30 2411 H 227.04 0.317599 -0.683847 0
M  V30 2412 H 229.691 0.0931561 -1.83263 0
M  V30 2413 H 228.073 2.33873 -3.19561 0
M  V30 2414 H 229.247 -0.148407 -4.60561 0
M  V30 2415 H 227.562 0.0241016 -4.16393 0
M  V30 2416 H 230.159 2.77558 -4.57018 0
M  V30 2417 H 230.502 3.01173 -2.87403 0
M  V30 2418 H 231.035 1.51529 -3.6781 0
M  V30 2419 H 227.774 0.587771 -6.52859 0
M  V30 2420 H 227.294 2.04987 -5.63685 0
M  V30 2421 H 228.973 1.855 -6.19838 0
M  V30 2422 N 229.106 1.52395 0.401703 0
M  V30 2423 C 230.038 1.72505 1.50912 0
M  V30 2424 C 231.051 0.605468 1.51122 0
M  V30 2425 O 232.24 0.880828 1.55254 0
M  V30 2426 C 229.34 1.75711 2.89791 0
M  V30 2427 C 228.513 3.04824 3.1369 0
M  V30 2428 C 227.572 2.99743 4.32482 0
M  V30 2429 O 226.598 3.73635 4.29402 0
M  V30 2430 N 227.8 2.18047 5.37992 0
M  V30 2431 H 230.565 2.68049 1.34052 0
M  V30 2432 H 228.126 1.50724 0.591084 0
M  V30 2433 H 230.118 1.69834 3.6734 0
M  V30 2434 H 228.688 0.876092 3.00072 0
M  V30 2435 H 227.908 3.2429 2.24119 0
M  V30 2436 H 229.196 3.90221 3.26504 0
M  V30 2437 H 228.594 1.57456 5.43345 0
M  V30 2438 H 227.151 2.18021 6.14256 0
M  V30 2439 N 230.584 -0.659388 1.43143 0
M  V30 2440 C 231.83 -1.42145 1.44647 0
M  V30 2441 C 232.163 -1.9408 0.0681907 0
M  V30 2442 O 231.438 -1.71899 -0.910007 0
M  V30 2443 C 231.721 -2.60735 2.48373 0
M  V30 2444 C 231.574 -2.14332 3.95451 0
M  V30 2445 C 232.893 -3.62951 2.48906 0
M  V30 2446 H 230.012 -0.51552 0.526696 0
M  V30 2447 H 232.654 -0.748069 1.74654 0
M  V30 2448 H 230.804 -3.18184 2.22916 0
M  V30 2449 H 232.476 -1.61932 4.31944 0
M  V30 2450 H 230.719 -1.4576 4.08578 0
M  V30 2451 H 231.39 -2.99583 4.63631 0
M  V30 2452 H 233.866 -3.1525 2.71582 0
M  V30 2453 H 232.742 -4.43487 3.23435 0
M  V30 2454 H 233.003 -4.15126 1.52061 0
M  V30 2455 N 232.062 -1.29571 -0.897171 0
M  V30 2456 C 233.025 -1.14913 -1.98312 0
M  V30 2457 C 234.025 -0.0838629 -1.60581 0
M  V30 2458 O 235.215 -0.331006 -1.71026 0
M  V30 2459 C 232.347 -0.757835 -3.3237 0
M  V30 2460 H 233.54 -2.11377 -2.12743 0
M  V30 2461 H 231.093 -1.12793 -1.08201 0
M  V30 2462 H 231.828 0.206837 -3.2364 0
M  V30 2463 H 231.613 -1.52755 -3.61121 0
M  V30 2464 H 233.103 -0.678408 -4.12053 0
M  V30 2465 N 233.54 1.10788 -1.12088 0
M  V30 2466 C 234.488 2.19111 -0.780587 0
M  V30 2467 C 235.482 1.67818 0.230961 0
M  V30 2468 O 236.688 1.79777 0.0895427 0
M  V30 2469 H 233.063 0.714477 -0.234578 0
M  V30 2470 H 235.034 2.45055 -1.70266 0
M  V30 2471 C 233.783 3.46818 -0.24747 0
M  V30 2472 H 233.106 3.86646 -1.01712 0
M  V30 2473 H 234.546 4.23973 -0.0476291 0
M  V30 2474 C 233.005 3.20968 1.02378 0
M  V30 2475 O 233.535 3.42298 2.10226 0
M  V30 2476 N 231.741 2.74658 0.949271 0
M  V30 2477 H 231.288 2.57501 0.0715173 0
M  V30 2478 H 231.246 2.57739 1.80049 0
M  V30 2479 N 235.018 0.912232 1.28515 0
M  V30 2480 C 235.948 0.416403 2.29757 0
M  V30 2481 C 236.929 -0.515194 1.6211 0
M  V30 2482 O 238.114 -0.423253 1.89532 0
M  V30 2483 C 235.244 -0.34572 3.45575 0
M  V30 2484 C 234.198 0.496599 4.25109 0
M  V30 2485 C 233.524 -0.393771 5.33248 0
M  V30 2486 C 234.824 1.75307 4.92001 0
M  V30 2487 H 236.518 1.26249 2.7148 0
M  V30 2488 H 234.064 0.608515 1.30511 0
M  V30 2489 H 236.017 -0.703422 4.15488 0
M  V30 2490 H 234.741 -1.2257 3.02728 0
M  V30 2491 H 233.4 0.8368 3.56922 0
M  V30 2492 H 233.048 -1.27225 4.86644 0
M  V30 2493 H 232.748 0.166209 5.87365 0
M  V30 2494 H 234.272 -0.747389 6.06009 0
M  V30 2495 H 235.686 1.46437 5.54283 0
M  V30 2496 H 234.083 2.25534 5.56106 0
M  V30 2497 H 235.153 2.48176 4.16577 0
M  V30 2498 N 236.496 -1.42363 0.676048 0
M  V30 2499 C 237.426 -2.33497 0.0124832 0
M  V30 2500 C 238.407 -1.50748 -0.787981 0
M  V30 2501 O 239.592 -1.79346 -0.744884 0
M  V30 2502 C 236.722 -3.34377 -0.938582 0
M  V30 2503 C 235.676 -4.27289 -0.246622 0
M  V30 2504 C 235.002 -5.18386 -1.31071 0
M  V30 2505 C 236.302 -5.14916 0.875125 0
M  V30 2506 H 237.996 -2.89233 0.773593 0
M  V30 2507 H 235.542 -1.39073 0.37346 0
M  V30 2508 H 237.495 -3.97044 -1.41188 0
M  V30 2509 H 236.219 -2.76947 -1.73113 0
M  V30 2510 H 234.878 -3.66018 0.206456 0
M  V30 2511 H 234.526 -4.57282 -2.09528 0
M  V30 2512 H 234.226 -5.81378 -0.852839 0
M  V30 2513 H 235.75 -5.83929 -1.78492 0
M  V30 2514 H 237.164 -5.71262 0.482983 0
M  V30 2515 H 235.561 -5.86747 1.25887 0
M  V30 2516 H 236.631 -4.53242 1.72335 0
M  V30 2517 N 237.974 -0.419461 -1.51915 0
M  V30 2518 C 239.39 -0.0708431 -1.59443 0
M  V30 2519 C 239.59 1.41796 -1.43164 0
M  V30 2520 O 238.646 2.18596 -1.26381 0
M  V30 2521 C 239.959 -0.574991 -2.95151 0
M  V30 2522 C 241.507 -0.533867 -3.08413 0
M  V30 2523 C 241.982 -1.01469 -4.46618 0
M  V30 2524 N 243.473 -0.971939 -4.52888 0
M  V30 2525 C 244.208 -1.31505 -5.58116 0
M  V30 2526 N 243.704 -1.73014 -6.70849 0
M  V30 2527 N 245.497 -1.23436 -5.48379 0
M  V30 2528 H 237.648 -1.38836 -1.60743 0
M  V30 2529 H 239.911 -0.570998 -0.756747 0
M  V30 2530 H 239.617 -1.61597 -3.12377 0
M  V30 2531 H 239.491 0.00979777 -3.77199 0
M  V30 2532 H 241.878 0.498086 -2.90866 0
M  V30 2533 H 241.959 -1.15484 -2.28248 0
M  V30 2534 H 241.603 -2.04502 -4.6491 0
M  V30 2535 H 241.533 -0.370433 -5.25295 0
M  V30 2536 H 244.024 -0.666893 -3.71969 0
M  V30 2537 H 244.337 -1.97479 -7.47143 0
M  V30 2538 H 242.682 -1.76926 -6.72103 0
M  V30 2539 H 245.873 -0.908869 -4.59192 0
M  V30 2540 H 246.046 -1.50506 -6.30279 0
M  V30 2541 N 239.452 1.56882 -0.150215 0
M  V30 2542 C 240.382 2.19935 0.784284 0
M  V30 2543 C 241.363 1.14854 1.25469 0
M  V30 2544 O 242.548 1.43209 1.31168 0
M  V30 2545 C 239.678 2.82349 2.02229 0
M  V30 2546 C 238.632 3.93285 1.68853 0
M  V30 2547 C 237.958 4.42649 2.99944 0
M  V30 2548 C 239.258 5.13904 0.932714 0
M  V30 2549 H 240.952 2.9828 0.258781 0
M  V30 2550 H 238.498 1.43473 0.123029 0
M  V30 2551 H 240.451 3.25126 2.68088 0
M  V30 2552 H 239.175 2.0134 2.57157 0
M  V30 2553 H 237.834 3.5113 1.05371 0
M  V30 2554 H 237.482 3.58458 3.52869 0
M  V30 2555 H 237.182 5.17476 2.78374 0
M  V30 2556 H 238.706 4.88099 3.66868 0
M  V30 2557 H 240.12 5.53506 1.49345 0
M  V30 2558 H 238.517 5.94515 0.81684 0
M  V30 2559 H 239.587 4.84842 -0.0749568 0
M  V30 2560 N 240.93 -0.123565 1.57115 0
M  V30 2561 C 242.177 -0.832153 1.84612 0
M  V30 2562 C 242.505 -1.80093 0.734627 0
M  V30 2563 O 241.76 -1.93766 -0.27442 0
M  V30 2564 C 242.059 -1.62016 3.18568 0
M  V30 2565 C 241.725 -0.796084 4.43817 0
M  V30 2566 C 240.387 -0.568816 4.77826 0
M  V30 2567 C 242.739 -0.221364 5.2073 0
M  V30 2568 C 240.067 0.243499 5.86194 0
M  V30 2569 C 242.419 0.578117 6.29953 0
M  V30 2570 C 241.083 0.815744 6.62497 0
M  V30 2571 H 240.353 -0.304507 0.675542 0
M  V30 2572 H 243 -0.0947248 1.91266 0
M  V30 2573 H 241.305 -2.42837 3.0747 0
M  V30 2574 H 243.002 -2.17231 3.37064 0
M  V30 2575 H 239.592 -0.983307 4.17168 0
M  V30 2576 H 243.776 -0.384173 4.94811 0
M  V30 2577 H 239.032 0.436871 6.09837 0
M  V30 2578 H 243.206 1.03046 6.88734 0
M  V30 2579 H 240.833 1.44701 7.46301 0
M  V30 2580 N 242.408 -1.52605 -0.393616 0
M  V30 2581 C 243.34 -1.73303 -1.49995 0
M  V30 2582 C 244.353 -0.613473 -1.50799 0
M  V30 2583 O 245.542 -0.889049 -1.54784 0
M  V30 2584 C 242.642 -1.77245 -2.88855 0
M  V30 2585 C 241.815 -3.06483 -3.12069 0
M  V30 2586 C 240.874 -3.02033 -4.30886 0
M  V30 2587 O 239.9 -3.75907 -4.27414 0
M  V30 2588 N 241.102 -2.20897 -5.36828 0
M  V30 2589 H 243.867 -2.68756 -1.32629 0
M  V30 2590 H 241.428 -1.51036 -0.583083 0
M  V30 2591 H 243.42 -1.7178 -3.66434 0
M  V30 2592 H 241.99 -0.891993 -2.99603 0
M  V30 2593 H 241.21 -3.25474 -2.22396 0
M  V30 2594 H 242.498 -3.91947 -3.2443 0
M  V30 2595 H 241.896 -1.60336 -5.42502 0
M  V30 2596 H 240.453 -2.21275 -6.13091 0
M  V30 2597 N 243.887 0.651787 -1.4349 0
M  V30 2598 C 245.136 1.40754 -1.44469 0
M  V30 2599 C 245.449 1.95463 -0.0731845 0
M  V30 2600 O 246.655 2.71471 0.0395721 0
M  V30 2601 C 245.111 2.54735 -2.5424 0
M  V30 2602 C 244.719 2.06628 -3.97504 0
M  V30 2603 C 246.463 3.32092 -2.64414 0
M  V30 2604 C 244.37 3.17829 -4.98737 0
M  V30 2605 H 243.3 0.528862 -0.53742 0
M  V30 2606 H 245.951 0.703365 -1.69485 0
M  V30 2607 H 244.333 3.2763 -2.22428 0
M  V30 2608 H 245.507 1.40734 -4.38783 0
M  V30 2609 H 243.822 1.42146 -3.91387 0
M  V30 2610 H 246.419 4.14952 -3.37223 0
M  V30 2611 H 246.762 3.80217 -1.69532 0
M  V30 2612 H 247.295 2.66279 -2.95534 0
M  V30 2613 H 244.034 2.74671 -5.95177 0
M  V30 2614 H 243.554 3.82429 -4.62069 0
M  V30 2615 H 245.233 3.82937 -5.21505 0
M  V30 2616 N 245.365 1.30045 0.890287 0
M  V30 2617 C 246.776 1.16738 1.45702 0
M  V30 2618 C 247.127 -0.233939 1.948 0
M  V30 2619 O 246.252 -1.13021 1.84541 0
M  V30 2620 C 246.847 2.11313 2.64825 0
M  V30 2621 C 245.406 2.02001 3.17604 0
M  V30 2622 C 244.553 2.01699 1.90296 0
M  V30 2623 H 247.504 1.42392 0.700726 0
M  V30 2624 H 247.525 1.69086 3.40867 0
M  V30 2625 H 247.037 3.13294 2.2906 0
M  V30 2626 H 245.138 1.03142 3.5804 0
M  V30 2627 H 245.251 2.90128 3.81264 0
M  V30 2628 H 243.615 1.46427 2.08402 0
M  V30 2629 H 244.398 3.05402 1.56795 0
M  V30 2630 N 246.843 -1.10192 1.12674 0
M  V30 2631 C 247.775 -2.16418 0.754701 0
M  V30 2632 C 248.788 -1.61309 -0.21986 0
M  V30 2633 O 249.977 -1.785 -0.000826841 0
M  V30 2634 C 247.077 -3.38762 0.096698 0
M  V30 2635 C 246.25 -4.23307 1.10136 0
M  V30 2636 C 245.309 -5.24092 0.470513 0
M  V30 2637 O 244.335 -5.57906 1.12824 0
M  V30 2638 N 245.537 -5.75491 -0.760948 0
M  V30 2639 H 248.302 -2.48943 1.66875 0
M  V30 2640 H 245.863 -1.25834 1.01869 0
M  V30 2641 H 247.855 -4.03291 -0.337384 0
M  V30 2642 H 246.425 -3.04192 -0.720153 0
M  V30 2643 H 245.645 -3.55036 1.71299 0
M  V30 2644 H 246.933 -4.76624 1.78064 0
M  V30 2645 H 246.331 -5.50222 -1.31424 0
M  V30 2646 H 244.888 -6.41792 -1.13781 0
M  V30 2647 N 248.321 -0.919034 -1.28029 0
M  V30 2648 C 249.57 -0.550802 -1.94034 0
M  V30 2649 C 249.883 0.910877 -1.73096 0
M  V30 2650 O 251.089 1.3875 -2.33368 0
M  V30 2651 C 249.545 -0.934249 -3.47563 0
M  V30 2652 C 249.153 -2.41602 -3.7727 0
M  V30 2653 C 250.897 -0.636854 -4.19696 0
M  V30 2654 C 248.804 -2.73932 -5.24133 0
M  V30 2655 H 247.734 -0.202273 -0.726362 0
M  V30 2656 H 250.385 -1.11867 -1.45458 0
M  V30 2657 H 248.767 -0.295115 -3.94899 0
M  V30 2658 H 249.941 -3.10233 -3.40723 0
M  V30 2659 H 248.256 -2.68441 -3.18321 0
M  V30 2660 H 250.853 -0.855005 -5.2782 0
M  V30 2661 H 251.196 0.425575 -4.14119 0
M  V30 2662 H 251.729 -1.23469 -3.78154 0
M  V30 2663 H 248.468 -3.79049 -5.34792 0
M  V30 2664 H 247.988 -2.09942 -5.61858 0
M  V30 2665 H 249.667 -2.61215 -5.91925 0
M  V30 2666 N 249.799 1.42003 -0.683588 0
M  V30 2667 C 251.024 2.06265 -0.216647 0
M  V30 2668 C 251.449 1.51059 1.12083 0
M  V30 2669 O 250.807 0.632638 1.69904 0
M  V30 2670 C 250.855 3.60191 -0.171759 0
M  V30 2671 O 249.959 4.03396 0.857069 0
M  V30 2672 H 249.3 0.65502 -0.108834 0
M  V30 2673 H 251.83 1.81982 -0.935077 0
M  V30 2674 H 251.84 4.08 0.0014303 0
M  V30 2675 H 250.515 3.99743 -1.14796 0
M  V30 2676 H 249.092 3.67117 0.654208 0
M  V30 2677 N 251.277 0.427512 1.51691 0
M  V30 2678 C 252.507 -0.140986 2.06118 0
M  V30 2679 C 252.915 -1.37854 1.29588 0
M  V30 2680 O 252.258 -1.80411 0.346036 0
M  V30 2681 C 252.32 -0.538276 3.55447 0
M  V30 2682 C 251.984 0.591095 4.53161 0
M  V30 2683 C 252.981 1.46027 4.98971 0
M  V30 2684 C 250.666 0.769028 4.96378 0
M  V30 2685 C 252.66 2.49216 5.8666 0
M  V30 2686 C 250.347 1.80421 5.83859 0
M  V30 2687 C 251.345 2.66417 6.28897 0
M  V30 2688 O 251.033 3.68159 7.14643 0
M  V30 2689 H 250.765 -0.0157455 0.675817 0
M  V30 2690 H 253.319 0.602495 1.96365 0
M  V30 2691 H 251.549 -1.33432 3.6295 0
M  V30 2692 H 253.238 -1.0368 3.92435 0
M  V30 2693 H 254.004 1.33429 4.66285 0
M  V30 2694 H 249.883 0.109273 4.6087 0
M  V30 2695 H 253.427 3.16372 6.21735 0
M  V30 2696 H 249.324 1.93042 6.15959 0
M  V30 2697 H 250.092 3.64622 7.32798 0
M  V30 2698 N 252.755 -1.56801 0.158532 0
M  V30 2699 C 253.718 -2.16138 -0.762705 0
M  V30 2700 C 254.718 -1.1061 -1.16713 0
M  V30 2701 O 255.908 -1.36191 -1.08617 0
M  V30 2702 C 253.04 -2.73386 -2.03649 0
M  V30 2703 H 254.233 -2.98886 -0.246354 0
M  V30 2704 H 251.786 -1.56035 -0.0909744 0
M  V30 2705 H 252.521 -1.94335 -2.59623 0
M  V30 2706 H 252.306 -3.50601 -1.75559 0
M  V30 2707 H 253.796 -3.19065 -2.6942 0
M  V30 2708 N 254.233 0.115231 -1.57178 0
M  V30 2709 C 255.458 0.840354 -1.89612 0
M  V30 2710 C 255.883 1.72464 -0.750845 0
M  V30 2711 O 255.241 1.78826 0.298478 0
M  V30 2712 C 255.289 1.64654 -3.20814 0
M  V30 2713 O 254.393 2.7538 -3.06985 0
M  V30 2714 H 253.734 0.232158 -0.622092 0
M  V30 2715 H 256.264 0.0964977 -2.04372 0
M  V30 2716 H 256.274 2.03499 -3.53627 0
M  V30 2717 H 254.949 0.997416 -4.03763 0
M  V30 2718 H 253.526 2.3971 -2.85646 0
M  V30 2719 N 255.711 1.52812 0.385517 0
M  V30 2720 C 256.939 1.71907 1.15133 0
M  V30 2721 C 257.354 0.439004 1.83625 0
M  V30 2722 O 256.711 -0.586765 1.7281 0
M  V30 2723 C 256.762 2.87099 2.19673 0
M  V30 2724 O 256.483 4.10151 1.53973 0
M  V30 2725 C 257.984 3.17902 3.08955 0
M  V30 2726 H 255.204 0.575479 0.345057 0
M  V30 2727 H 257.748 1.99476 0.45052 0
M  V30 2728 H 255.903 2.61982 2.85384 0
M  V30 2729 H 256.317 4.74514 2.23465 0
M  V30 2730 H 257.791 4.01959 3.7833 0
M  V30 2731 H 258.268 2.3243 3.72657 0
M  V30 2732 H 258.874 3.44871 2.48885 0
M  V30 2733 N 257.189 -0.644168 1.43834 0
M  V30 2734 C 258.414 -1.43642 1.49605 0
M  V30 2735 C 258.839 -1.8773 0.117913 0
M  V30 2736 O 258.197 -1.57938 -0.890239 0
M  V30 2737 C 258.245 -2.6416 2.45463 0
M  V30 2738 O 257.349 -3.63538 1.94714 0
M  V30 2739 H 256.69 -0.430329 0.50568 0
M  V30 2740 H 259.22 -0.787448 1.8884 0
M  V30 2741 H 259.23 -3.11864 2.63068 0
M  V30 2742 H 257.905 -2.31414 3.45572 0
M  V30 2743 H 256.482 -3.2273 1.86814 0
M  V30 2744 N 258.668 -1.30515 -0.883378 0
M  V30 2745 C 259.631 -1.1701 -1.97082 0
M  V30 2746 C 260.631 -0.10089 -1.60483 0
M  V30 2747 O 261.821 -0.349127 -1.70666 0
M  V30 2748 C 258.953 -0.793045 -3.31547 0
M  V30 2749 H 260.146 -2.13622 -2.10489 0
M  V30 2750 H 257.699 -1.13935 -1.06998 0
M  V30 2751 H 258.434 0.172499 -3.23841 0
M  V30 2752 H 258.219 -1.56576 -3.5948 0
M  V30 2753 H 259.709 -0.722073 -4.1131 0
M  V30 2754 N 260.146 1.09593 -1.13257 0
M  V30 2755 C 261.093 2.1618 -0.808381 0
M  V30 2756 C 262.063 1.64517 0.228754 0
M  V30 2757 O 263.248 1.9053 0.101381 0
M  V30 2758 C 260.388 3.43973 -0.278675 0
M  V30 2759 C 259.501 4.09545 -1.37466 0
M  V30 2760 C 258.636 5.25088 -0.803479 0
M  V30 2761 C 257.675 5.82579 -1.87799 0
M  V30 2762 N 256.812 6.89486 -1.32488 0
M  V30 2763 H 261.652 2.43254 -1.72138 0
M  V30 2764 H 259.189 1.19392 -0.859294 0
M  V30 2765 H 261.147 4.17174 0.0465583 0
M  V30 2766 H 259.777 3.17223 0.597459 0
M  V30 2767 H 258.829 3.34226 -1.81652 0
M  V30 2768 H 260.141 4.48307 -2.18684 0
M  V30 2769 H 259.295 6.05178 -0.429427 0
M  V30 2770 H 258.034 4.87684 0.0397956 0
M  V30 2771 H 257.039 5.01152 -2.26113 0
M  V30 2772 H 258.264 6.22045 -2.72463 0
M  V30 2773 H 256.21 6.54064 -0.503575 0
M  V30 2774 H 256.127 7.27007 -2.07355 0
M  V30 2775 H 257.395 7.73336 -0.978336 0
M  V30 2776 N 261.624 0.925811 1.2754 0
M  V30 2777 C 262.554 0.440748 2.29303 0
M  V30 2778 C 263.535 -0.497971 1.62648 0
M  V30 2779 O 264.72 -0.403126 1.8997 0
M  V30 2780 C 261.85 -0.309048 3.45922 0
M  V30 2781 C 260.804 0.54166 4.24559 0
M  V30 2782 C 260.13 -0.337191 5.33636 0
M  V30 2783 C 261.43 1.80516 4.90114 0
M  V30 2784 H 263.124 1.29121 2.70126 0
M  V30 2785 H 260.67 0.622323 1.29858 0
M  V30 2786 H 262.623 -0.659315 4.1621 0
M  V30 2787 H 261.347 -1.19352 3.04011 0
M  V30 2788 H 260.006 0.874609 3.56014 0
M  V30 2789 H 259.654 -1.22056 4.87966 0
M  V30 2790 H 259.354 0.228497 5.87156 0
M  V30 2791 H 260.878 -0.683072 6.06767 0
M  V30 2792 H 262.292 1.52307 5.52698 0
M  V30 2793 H 260.689 2.3142 5.53683 0
M  V30 2794 H 261.759 2.52581 4.13921 0
M  V30 2795 N 263.102 -1.41638 0.69111 0
M  V30 2796 C 264.327 -2.06148 0.227583 0
M  V30 2797 C 264.752 -1.51652 -1.11281 0
M  V30 2798 O 264.11 -0.64164 -1.69566 0
M  V30 2799 C 264.158 -3.60095 0.190858 0
M  V30 2800 O 263.262 -4.03845 -0.835664 0
M  V30 2801 H 262.603 -0.654434 0.112306 0
M  V30 2802 H 265.133 -1.81484 0.944714 0
M  V30 2803 H 265.143 -4.07995 0.020207 0
M  V30 2804 H 263.818 -3.99129 1.16915 0
M  V30 2805 H 262.395 -3.67458 -0.63473 0
M  V30 2806 N 264.58 -0.43555 -1.51462 0
M  V30 2807 C 265.857 0.191364 -1.94662 0
M  V30 2808 C 266.237 1.60254 -1.37411 0
M  V30 2809 O 265.585 2.2152 -0.560458 0
M  V30 2810 C 265.795 0.17091 -3.48581 0
M  V30 2811 C 267.143 0.377357 -4.2292 0
M  V30 2812 O 268.167 0.249104 -3.55328 0
M  V30 2813 O 267.026 0.63247 -5.42828 0
M  V30 2814 H 264.12 0.130932 -0.816569 0
M  V30 2815 H 266.666 -0.4934 -1.62369 0
M  V30 2816 H 265.438 -0.815738 -3.82703 0
M  V30 2817 H 265.061 0.898659 -3.87311 0
M  V30 2818 N 266.058 1.56714 -0.166846 0
M  V30 2819 C 267.005 2.17746 0.765193 0
M  V30 2820 C 267.975 1.11614 1.23011 0
M  V30 2821 O 269.16 1.39745 1.29908 0
M  V30 2822 C 266.3 2.81882 1.9909 0
M  V30 2823 C 265.413 4.02462 1.56997 0
M  V30 2824 C 264.548 4.54537 2.749 0
M  V30 2825 C 263.587 5.67538 2.29275 0
M  V30 2826 N 262.724 6.14142 3.40255 0
M  V30 2827 H 267.564 2.97048 0.237952 0
M  V30 2828 H 265.101 1.4672 0.105725 0
M  V30 2829 H 267.059 3.17221 2.70974 0
M  V30 2830 H 265.689 2.05191 2.49192 0
M  V30 2831 H 264.741 3.72973 0.748037 0
M  V30 2832 H 266.053 4.84273 1.19503 0
M  V30 2833 H 265.207 4.92035 3.54946 0
M  V30 2834 H 263.946 3.71774 3.1565 0
M  V30 2835 H 262.951 5.29597 1.47674 0
M  V30 2836 H 264.176 6.52099 1.89588 0
M  V30 2837 H 262.122 5.3431 3.8059 0
M  V30 2838 H 262.039 6.9093 3.06841 0
M  V30 2839 H 263.307 6.56289 4.206 0
M  V30 2840 N 267.536 -0.106894 1.57237 0
M  V30 2841 C 268.761 -0.830287 1.90055 0
M  V30 2842 C 269.186 -1.72064 0.75998 0
M  V30 2843 O 268.544 -1.78982 -0.288991 0
M  V30 2844 C 268.592 -1.6295 3.21683 0
M  V30 2845 O 267.696 -2.73748 3.08441 0
M  V30 2846 H 267.037 -0.228855 0.623315 0
M  V30 2847 H 269.567 -0.085658 2.04421 0
M  V30 2848 H 269.577 -2.01621 3.54701 0
M  V30 2849 H 268.252 -0.975989 4.04286 0
M  V30 2850 H 266.829 -2.38192 2.86913 0
M  V30 2851 N 269.014 -1.53014 -0.377408 0
M  V30 2852 C 270.43 -1.42523 -0.718281 0
M  V30 2853 C 270.63 -0.55487 -1.9371 0
M  V30 2854 O 269.686 -0.0327593 -2.52479 0
M  V30 2855 C 270.999 -2.85546 -0.942539 0
M  V30 2856 C 272.547 -2.95101 -1.04329 0
M  V30 2857 C 273.022 -4.3916 -1.3001 0
M  V30 2858 N 274.513 -4.42536 -1.36806 0
M  V30 2859 C 275.248 -5.51097 -1.58364 0
M  V30 2860 N 274.744 -6.69724 -1.77317 0
M  V30 2861 N 276.537 -5.38657 -1.60638 0
M  V30 2862 H 268.688 -2.08116 0.424426 0
M  V30 2863 H 270.951 -0.939352 0.127759 0
M  V30 2864 H 270.657 -3.51499 -0.118929 0
M  V30 2865 H 270.531 -3.28493 -1.85397 0
M  V30 2866 H 272.918 -2.29309 -1.85745 0
M  V30 2867 H 272.999 -2.55566 -0.109505 0
M  V30 2868 H 272.643 -5.05521 -0.490991 0
M  V30 2869 H 272.573 -4.76258 -2.24691 0
M  V30 2870 H 275.064 -3.57039 -1.23821 0
M  V30 2871 H 275.377 -7.48233 -1.93306 0
M  V30 2872 H 273.722 -6.72732 -1.74518 0
M  V30 2873 H 276.913 -4.44948 -1.45391 0
M  V30 2874 H 277.086 -6.2333 -1.77098 0
M  V30 2875 N 270.492 0.636531 -1.44174 0
M  V30 2876 C 271.722 1.42146 -1.49927 0
M  V30 2877 C 272.13 1.88812 -0.121063 0
M  V30 2878 O 271.473 1.61126 0.882267 0
M  V30 2879 C 271.535 2.67883 -2.39748 0
M  V30 2880 C 271.199 2.43048 -3.8701 0
M  V30 2881 C 272.196 2.05216 -4.77684 0
M  V30 2882 C 269.881 2.56856 -4.3166 0
M  V30 2883 C 271.875 1.81512 -6.11009 0
M  V30 2884 C 269.562 2.32766 -5.65034 0
M  V30 2885 C 270.56 1.95152 -6.54526 0
M  V30 2886 O 270.248 1.71326 -7.85431 0
M  V30 2887 H 269.98 0.442567 -0.51099 0
M  V30 2888 H 272.534 0.786158 -1.8976 0
M  V30 2889 H 270.764 3.34032 -1.94832 0
M  V30 2890 H 272.453 3.29874 -2.36513 0
M  V30 2891 H 273.219 1.94111 -4.44462 0
M  V30 2892 H 269.098 2.85104 -3.62266 0
M  V30 2893 H 272.642 1.52077 -6.80822 0
M  V30 2894 H 268.539 2.43479 -5.97819 0
M  V30 2895 H 269.307 1.85616 -7.97176 0
M  V30 2896 N 271.97 1.30982 0.876444 0
M  V30 2897 C 273.247 1.10942 1.61094 0
M  V30 2898 C 273.627 -0.338223 2.08373 0
M  V30 2899 O 272.975 -1.33122 1.85717 0
M  V30 2900 C 273.185 2.11789 2.77392 0
M  V30 2901 C 274.533 2.43965 3.47514 0
M  V30 2902 O 275.557 2.10166 2.87591 0
M  V30 2903 O 274.416 3.01817 4.55597 0
M  V30 2904 H 271.51 0.42667 0.708436 0
M  V30 2905 H 274.056 1.42438 0.922474 0
M  V30 2906 H 272.828 3.09194 2.39823 0
M  V30 2907 H 272.451 1.81161 3.5393 0
M  V30 2908 N 273.449 -1.08991 1.13837 0
M  V30 2909 C 274.679 -1.84743 0.924859 0
M  V30 2910 C 275.087 -1.81629 -0.529874 0
M  V30 2911 O 274.43 -1.21397 -1.37872 0
M  V30 2912 C 274.492 -3.33568 1.34061 0
M  V30 2913 C 274.156 -3.60425 2.80968 0
M  V30 2914 C 275.153 -3.55771 3.79108 0
M  V30 2915 C 272.838 -3.88627 3.18236 0
M  V30 2916 C 274.832 -3.78939 5.12527 0
M  V30 2917 C 272.519 -4.11449 4.51833 0
M  V30 2918 C 273.517 -4.06598 5.48787 0
M  V30 2919 O 273.205 -4.28826 6.79973 0
M  V30 2920 H 272.937 -0.590258 0.329502 0
M  V30 2921 H 275.491 -1.38598 1.51591 0
M  V30 2922 H 273.721 -3.80442 0.692853 0
M  V30 2923 H 275.41 -3.90743 1.09886 0
M  V30 2924 H 276.176 -3.34005 3.51661 0
M  V30 2925 H 272.055 -3.91526 2.43369 0
M  V30 2926 H 275.599 -3.75068 5.88192 0
M  V30 2927 H 271.496 -4.32698 4.79002 0
M  V30 2928 H 272.264 -4.46264 6.86142 0
M  V30 2929 N 274.927 -0.932562 -1.27047 0
M  V30 2930 C 276.174 -0.575559 -1.94148 0
M  V30 2931 C 276.502 0.883984 -1.73251 0
M  V30 2932 O 275.757 1.64655 -1.0577 0
M  V30 2933 C 276.056 -0.853713 -3.47054 0
M  V30 2934 C 275.722 -2.29577 -3.88079 0
M  V30 2935 C 274.384 -2.68999 -3.9899 0
M  V30 2936 C 276.736 -3.23331 -4.08787 0
M  V30 2937 C 274.064 -4.01289 -4.28 0
M  V30 2938 C 276.416 -4.55207 -4.39282 0
M  V30 2939 C 275.08 -4.94457 -4.48407 0
M  V30 2940 H 274.35 -0.210612 -0.710439 0
M  V30 2941 H 276.997 -1.17744 -1.51025 0
M  V30 2942 H 275.302 -0.169204 -3.91434 0
M  V30 2943 H 276.999 -0.55639 -3.97121 0
M  V30 2944 H 273.589 -1.97994 -3.80127 0
M  V30 2945 H 277.773 -2.94074 -3.99793 0
M  V30 2946 H 273.029 -4.31374 -4.33275 0
M  V30 2947 H 277.203 -5.27852 -4.54252 0
M  V30 2948 H 274.83 -5.96994 -4.7064 0
M  V30 2949 N 276.405 1.4127 -0.698611 0
M  V30 2950 C 277.368 2.29158 -0.044132 0
M  V30 2951 C 278.368 1.44529 0.704841 0
M  V30 2952 O 279.558 1.65643 0.539276 0
M  V30 2953 C 276.69 3.27459 0.947809 0
M  V30 2954 H 277.883 2.88529 -0.817994 0
M  V30 2955 H 275.436 1.49307 -0.46228 0
M  V30 2956 H 276.171 2.73073 1.74933 0
M  V30 2957 H 275.956 3.8991 0.41385 0
M  V30 2958 H 277.446 3.93311 1.40344 0
M  V30 2959 N 277.883 0.443576 1.51229 0
M  V30 2960 C 279.299 0.0962001 1.5931 0
M  V30 2961 C 279.499 -1.39501 1.45402 0
M  V30 2962 O 278.555 -2.16557 1.29843 0
M  V30 2963 C 279.868 0.621875 2.94199 0
M  V30 2964 C 281.416 0.582865 3.07525 0
M  V30 2965 C 281.891 1.08562 4.44948 0
M  V30 2966 N 283.382 1.04387 4.51284 0
M  V30 2967 C 284.117 1.40368 5.55954 0
M  V30 2968 N 283.613 1.83664 6.68011 0
M  V30 2969 N 285.406 1.32145 5.46346 0
M  V30 2970 H 277.557 1.41376 1.58514 0
M  V30 2971 H 279.82 0.582965 0.747567 0
M  V30 2972 H 279.526 1.66546 3.09767 0
M  V30 2973 H 279.4 0.0502125 3.77167 0
M  V30 2974 H 281.787 -0.451749 2.91622 0
M  V30 2975 H 281.868 1.191 2.26382 0
M  V30 2976 H 281.512 2.11873 4.61598 0
M  V30 2977 H 281.442 0.453956 5.2464 0
M  V30 2978 H 283.933 0.725986 3.70861 0
M  V30 2979 H 284.246 2.0934 7.43906 0
M  V30 2980 H 282.591 1.87596 6.69203 0
M  V30 2981 H 285.782 0.981808 4.57688 0
M  V30 2982 H 285.955 1.60514 6.27805 0
M  V30 2983 N 279.361 -1.56624 0.175154 0
M  V30 2984 C 280.589 -2.01374 -0.474971 0
M  V30 2985 C 281.004 -1.05537 -1.56548 0
M  V30 2986 O 280.361 -0.0568668 -1.82411 0
M  V30 2987 C 280.412 -3.45923 -1.04975 0
M  V30 2988 O 280.133 -4.381 -0.00276605 0
M  V30 2989 C 281.634 -4.06093 -1.77773 0
M  V30 2990 H 278.854 -0.659962 -0.121206 0
M  V30 2991 H 281.398 -2.02601 0.27801 0
M  V30 2992 H 279.553 -3.45458 -1.75321 0
M  V30 2993 H 279.967 -5.22753 -0.427681 0
M  V30 2994 H 281.441 -5.09147 -2.13245 0
M  V30 2995 H 281.918 -3.48405 -2.67414 0
M  V30 2996 H 282.524 -4.10272 -1.12059 0
M  V30 2997 N 280.839 0.0985539 -1.57292 0
M  V30 2998 C 282.085 0.803867 -1.86188 0
M  V30 2999 C 282.418 1.78549 -0.763794 0
M  V30 3000 O 281.693 1.93153 0.22855 0
M  V30 3001 C 281.976 1.53568 -3.25713 0
M  V30 3002 C 281.829 0.572277 -4.46145 0
M  V30 3003 C 283.148 2.48708 -3.63087 0
M  V30 3004 H 280.267 0.290781 -0.677211 0
M  V30 3005 H 282.909 0.0675783 -1.8988 0
M  V30 3006 H 281.059 2.16332 -3.22696 0
M  V30 3007 H 282.731 -0.0480894 -4.61275 0
M  V30 3008 H 280.974 -0.114618 -4.33649 0
M  V30 3009 H 281.645 1.12139 -5.40489 0
M  V30 3010 H 284.121 1.96039 -3.67026 0
M  V30 3011 H 282.997 2.96932 -4.61652 0
M  V30 3012 H 283.258 3.32309 -2.91588 0
M  V30 3013 N 282.317 1.53212 0.369288 0
M  V30 3014 C 283.728 1.60943 0.946276 0
M  V30 3015 C 284.079 0.47452 1.90375 0
M  V30 3016 O 283.204 -0.399597 2.12679 0
M  V30 3017 C 283.799 2.91715 1.72302 0
M  V30 3018 C 282.358 3.01792 2.24941 0
M  V30 3019 C 281.505 2.56211 1.06072 0
M  V30 3020 H 284.456 1.58007 0.148198 0
M  V30 3021 H 284.477 2.79309 2.58393 0
M  V30 3022 H 283.989 3.74295 1.0259 0
M  V30 3023 H 282.09 2.23791 2.97906 0
M  V30 3024 H 282.203 4.06803 2.53077 0
M  V30 3025 H 280.567 2.10998 1.4266 0
M  V30 3026 H 281.35 3.41206 0.378639 0
M  V30 3027 N 283.795 -0.628877 1.44509 0
M  V30 3028 C 285.206 -1.21054 1.42137 0
M  V30 3029 C 285.557 -1.95715 0.137881 0
M  V30 3030 O 284.682 -2.02554 -0.761645 0
M  V30 3031 C 285.277 -2.20189 2.57493 0
M  V30 3032 C 283.836 -2.73777 2.58308 0
M  V30 3033 C 282.983 -1.48813 2.33987 0
M  V30 3034 H 285.934 -0.41942 1.53057 0
M  V30 3035 H 285.955 -3.02833 2.30375 0
M  V30 3036 H 285.467 -1.6582 3.50892 0
M  V30 3037 H 283.568 -3.32142 1.68856 0
M  V30 3038 H 283.681 -3.19662 3.56865 0
M  V30 3039 H 282.045 -1.77024 1.83124 0
M  V30 3040 H 282.828 -0.963442 3.29504 0
M  V30 3041 N 285.273 -1.31445 -0.869486 0
M  V30 3042 C 286.55 -1.11795 -1.60503 0
M  V30 3043 C 286.93 0.327168 -2.08549 0
M  V30 3044 O 286.278 1.32135 -1.8642 0
M  V30 3045 C 286.488 -2.13258 -2.76265 0
M  V30 3046 C 287.836 -2.45805 -3.46215 0
M  V30 3047 O 288.86 -2.11688 -2.86473 0
M  V30 3048 O 287.719 -3.04228 -4.5399 0
M  V30 3049 H 284.813 -0.430421 -0.706163 0
M  V30 3050 H 287.359 -1.42925 -0.914907 0
M  V30 3051 H 286.131 -3.10461 -2.3818 0
M  V30 3052 H 285.754 -1.83035 -3.52964 0
M  V30 3053 N 286.751 1.08385 -1.14413 0
M  V30 3054 C 287.998 1.80776 -0.912482 0
M  V30 3055 C 288.326 1.86236 0.560934 0
M  V30 3056 O 287.581 1.33431 1.43159 0
M  V30 3057 C 287.88 3.26273 -1.45879 0
M  V30 3058 C 287.546 3.4093 -2.95089 0
M  V30 3059 C 286.208 3.44638 -3.35824 0
M  V30 3060 C 288.56 3.44591 -3.91033 0
M  V30 3061 C 285.888 3.49597 -4.71167 0
M  V30 3062 C 288.24 3.51086 -5.26233 0
M  V30 3063 C 286.904 3.53067 -5.6648 0
M  V30 3064 H 286.174 0.661507 -0.333901 0
M  V30 3065 H 288.821 1.27613 -1.42784 0
M  V30 3066 H 287.126 3.82146 -0.864376 0
M  V30 3067 H 288.823 3.80839 -1.2555 0
M  V30 3068 H 285.413 3.38736 -2.62594 0
M  V30 3069 H 289.597 3.40957 -3.60641 0
M  V30 3070 H 284.853 3.49424 -5.0171 0
M  V30 3071 H 289.027 3.52864 -6.00383 0
M  V30 3072 H 286.654 3.56662 -6.71339 0
M  V30 3073 N 288.23 0.939286 1.26551 0
M  V30 3074 C 289.46 0.601663 1.97645 0
M  V30 3075 C 289.868 -0.827206 1.70159 0
M  V30 3076 O 289.211 -1.56291 0.965338 0
M  V30 3077 C 289.273 0.761725 3.51337 0
M  V30 3078 C 288.937 2.16487 4.0247 0
M  V30 3079 C 289.934 3.14016 4.14355 0
M  V30 3080 C 287.619 2.48494 4.36527 0
M  V30 3081 C 289.613 4.41654 4.59587 0
M  V30 3082 C 287.3 3.76364 4.81449 0
M  V30 3083 C 288.298 4.72758 4.92939 0
M  V30 3084 O 287.986 5.98352 5.36871 0
M  V30 3085 H 287.718 0.225758 0.637189 0
M  V30 3086 H 290.272 1.26178 1.62075 0
M  V30 3087 H 288.502 0.0444808 3.86674 0
M  V30 3088 H 290.191 0.427442 4.03643 0
M  V30 3089 H 290.957 2.90613 3.8829 0
M  V30 3090 H 286.836 1.74202 4.26819 0
M  V30 3091 H 290.38 5.16896 4.68471 0
M  V30 3092 H 286.277 3.99582 5.06956 0
M  V30 3093 H 287.045 6.01507 5.55096 0
M  V30 3094 N 289.708 -1.40897 0.706093 0
M  V30 3095 C 290.64 -2.29199 0.00815776 0
M  V30 3096 C 291.653 -1.45336 -0.733582 0
M  V30 3097 O 292.842 -1.68727 -0.582537 0
M  V30 3098 C 289.942 -3.23417 -1.01265 0
M  V30 3099 C 289.115 -4.36089 -0.338387 0
M  V30 3100 C 288.174 -5.10811 -1.26326 0
M  V30 3101 O 287.2 -5.64215 -0.751651 0
M  V30 3102 N 288.402 -5.19269 -2.595 0
M  V30 3103 H 291.167 -2.89738 0.766297 0
M  V30 3104 H 288.728 -1.52164 0.55296 0
M  V30 3105 H 290.72 -3.70276 -1.63334 0
M  V30 3106 H 289.29 -2.64112 -1.67223 0
M  V30 3107 H 288.51 -3.91479 0.462352 0
M  V30 3108 H 289.798 -5.08634 0.130031 0
M  V30 3109 H 289.196 -4.77347 -3.03573 0
M  V30 3110 H 287.753 -5.69667 -3.16737 0
M  V30 3111 N 291.186 -0.45159 -1.50991 0
M  V30 3112 C 292.149 0.341117 -2.26647 0
M  V30 3113 C 293.149 0.937422 -1.30649 0
M  V30 3114 O 294.339 0.809644 -1.54241 0
M  V30 3115 C 291.471 1.48398 -3.06905 0
M  V30 3116 H 292.664 -0.322117 -2.98165 0
M  V30 3117 H 290.217 -0.205122 -1.54948 0
M  V30 3118 H 290.952 2.18284 -2.39838 0
M  V30 3119 H 290.737 1.06241 -3.77432 0
M  V30 3120 H 292.227 2.04367 -3.64176 0
M  V30 3121 N 292.664 1.56529 -0.183458 0
M  V30 3122 C 293.611 2.18546 0.742055 0
M  V30 3123 C 294.581 1.12912 1.2182 0
M  V30 3124 O 295.766 1.41115 1.28418 0
M  V30 3125 C 292.906 2.83977 1.96089 0
M  V30 3126 C 292.019 4.04105 1.52719 0
M  V30 3127 C 291.154 4.57427 2.70063 0
M  V30 3128 C 290.193 5.69938 2.23243 0
M  V30 3129 N 289.33 6.17717 3.33722 0
M  V30 3130 H 294.17 2.97284 0.206432 0
M  V30 3131 H 291.707 1.46823 0.0901571 0
M  V30 3132 H 293.665 3.20077 2.67594 0
M  V30 3133 H 292.295 2.07822 2.47002 0
M  V30 3134 H 291.347 3.73745 0.708436 0
M  V30 3135 H 292.659 4.85513 1.1436 0
M  V30 3136 H 291.813 4.95772 3.49708 0
M  V30 3137 H 290.552 3.75101 3.11689 0
M  V30 3138 H 289.557 5.31133 1.42048 0
M  V30 3139 H 290.782 6.54073 1.82661 0
M  V30 3140 H 288.728 5.38317 3.74902 0
M  V30 3141 H 288.645 6.94146 2.99495 0
M  V30 3142 H 289.913 6.60713 4.13616 0
M  V30 3143 N 294.142 -0.090211 1.57342 0
M  V30 3144 C 295.105 -1.09335 2.01441 0
M  V30 3145 C 296.105 -1.32666 0.908641 0
M  V30 3146 O 297.295 -1.28697 1.174 0
M  V30 3147 C 294.427 -2.44136 2.3793 0
M  V30 3148 H 295.62 -0.713662 2.91285 0
M  V30 3149 H 293.173 -0.335404 1.52659 0
M  V30 3150 H 293.908 -2.86972 1.51055 0
M  V30 3151 H 293.693 -2.28548 3.18603 0
M  V30 3152 H 295.183 -3.16277 2.72688 0
M  V30 3153 N 295.62 -1.53406 -0.361157 0
M  V30 3154 C 296.553 -1.74946 -1.46524 0
M  V30 3155 C 297.531 -0.59795 -1.51206 0
M  V30 3156 O 298.715 -0.831062 -1.69191 0
M  V30 3157 C 295.842 -1.83224 -2.84863 0
M  V30 3158 C 294.888 -3.05233 -2.97885 0
M  V30 3159 S 295.721 -4.6466 -2.66179 0
M  V30 3160 C 296.877 -4.75793 -4.06659 0
M  V30 3161 H 297.11 -2.68319 -1.28033 0
M  V30 3162 H 294.643 -1.44051 -0.555764 0
M  V30 3163 H 296.601 -1.88679 -3.64569 0
M  V30 3164 H 295.262 -0.908948 -3.00661 0
M  V30 3165 H 294.455 -3.07648 -3.9921 0
M  V30 3166 H 294.057 -2.97913 -2.26106 0
M  V30 3167 H 296.349 -4.5612 -5.0096 0
M  V30 3168 H 297.292 -5.7786 -4.09247 0
M  V30 3169 H 297.7 -4.04389 -3.93865 0
M  V30 3170 N 297.098 0.621204 -1.44841 0
M  V30 3171 C 298.061 1.71459 -1.521 0
M  V30 3172 C 299.061 1.55696 -0.401933 0
M  V30 3173 O 300.251 1.61011 -0.664925 0
M  V30 3174 C 297.383 3.10624 -1.40447 0
M  V30 3175 H 298.576 1.66394 -2.49506 0
M  V30 3176 H 296.129 0.835745 -1.3208 0
M  V30 3177 H 296.864 3.21277 -0.441737 0
M  V30 3178 H 296.649 3.23473 -2.21602 0
M  V30 3179 H 298.139 3.90293 -1.4853 0
M  V30 3180 N 298.576 1.31904 0.862503 0
M  V30 3181 C 299.486 1.22161 2.00285 0
M  V30 3182 C 300.502 0.136785 1.73462 0
M  V30 3183 O 301.678 0.355994 1.98229 0
M  V30 3184 C 298.743 0.937093 3.33796 0
M  V30 3185 C 297.804 2.10957 3.73893 0
M  V30 3186 C 297.037 1.83853 5.01033 0
M  V30 3187 O 297.26 0.777274 5.65079 0
M  V30 3188 O 296.194 2.69741 5.38074 0
M  V30 3189 H 300.02 2.18008 2.11439 0
M  V30 3190 H 297.605 1.11716 0.991957 0
M  V30 3191 H 299.487 0.794583 4.13841 0
M  V30 3192 H 298.162 0.00871894 3.23699 0
M  V30 3193 H 297.069 2.30752 2.94456 0
M  V30 3194 H 298.402 3.02046 3.88625 0
M  V30 3195 N 300.054 -1.07777 1.14986 0
M  V30 3196 C 301.303 -1.79669 0.916617 0
M  V30 3197 C 301.616 -1.87474 -0.557917 0
M  V30 3198 O 302.822 -2.55845 -0.908617 0
M  V30 3199 C 301.278 -3.22848 1.59051 0
M  V30 3200 C 300.886 -3.23257 3.10176 0
M  V30 3201 C 302.63 -3.99379 1.43864 0
M  V30 3202 C 300.537 -4.61063 3.70372 0
M  V30 3203 H 299.467 -0.673349 0.33929 0
M  V30 3204 H 302.118 -1.21003 1.37951 0
M  V30 3205 H 300.5 -3.8168 1.0553 0
M  V30 3206 H 301.674 -2.74095 3.70417 0
M  V30 3207 H 299.989 -2.60222 3.25074 0
M  V30 3208 H 302.586 -5.0122 1.86232 0
M  V30 3209 H 302.929 -4.14511 0.385564 0
M  V30 3210 H 303.462 -3.47032 1.94457 0
M  V30 3211 H 300.201 -4.51135 4.7556 0
M  V30 3212 H 299.721 -5.1048 3.14913 0
M  V30 3213 H 301.4 -5.30034 3.71043 0
M  V30 3214 N 301.532 -0.945985 -1.26051 0
M  V30 3215 C 302.462 -0.477172 -2.28572 0
M  V30 3216 C 303.443 0.472032 -1.63419 0
M  V30 3217 O 304.628 0.372853 -1.90587 0
M  V30 3218 C 301.758 0.253975 -3.4637 0
M  V30 3219 C 300.712 -0.609135 -4.23643 0
M  V30 3220 C 300.038 0.252252 -5.34105 0
M  V30 3221 C 301.338 -1.8829 -4.8718 0
M  V30 3222 H 303.032 -1.33402 -2.68038 0
M  V30 3223 H 300.578 -0.642904 -1.28852 0
M  V30 3224 H 302.531 0.593016 -4.17207 0
M  V30 3225 H 301.255 1.145 -3.05871 0
M  V30 3226 H 299.914 -0.931138 -3.54578 0
M  V30 3227 H 299.562 1.14278 -4.89846 0
M  V30 3228 H 299.262 -0.32188 -5.86718 0
M  V30 3229 H 300.786 0.586454 -6.07777 0
M  V30 3230 H 302.2 -1.61081 -5.50205 0
M  V30 3231 H 300.597 -2.40199 -5.49931 0
M  V30 3232 H 301.667 -2.59134 -4.09851 0
M  V30 3233 N 303.011 1.40521 -0.713556 0
M  V30 3234 C 304.427 1.54839 -0.386907 0
M  V30 3235 C 304.627 1.68532 1.1045 0
M  V30 3236 O 303.683 1.67377 1.89053 0
M  V30 3237 C 304.996 2.77792 -1.15118 0
M  V30 3238 C 306.544 2.91607 -1.13729 0
M  V30 3239 C 307.019 4.1747 -1.88368 0
M  V30 3240 N 308.51 4.24466 -1.85427 0
M  V30 3241 C 309.245 5.20755 -2.40004 0
M  V30 3242 N 308.741 6.22965 -3.03129 0
M  V30 3243 N 310.534 5.1282 -2.30158 0
M  V30 3244 H 302.685 1.29879 -1.68063 0
M  V30 3245 H 304.948 0.627896 -0.710247 0
M  V30 3246 H 304.654 2.73944 -2.20561 0
M  V30 3247 H 304.528 3.6984 -0.741477 0
M  V30 3248 H 306.915 2.94959 -0.0910608 0
M  V30 3249 H 306.996 2.00682 -1.5862 0
M  V30 3250 H 306.64 4.1488 -2.9298 0
M  V30 3251 H 306.57 5.074 -1.40898 0
M  V30 3252 H 309.061 3.51241 -1.3942 0
M  V30 3253 H 309.374 6.92859 -3.42295 0
M  V30 3254 H 307.719 6.23415 -3.07212 0
M  V30 3255 H 310.91 4.31899 -1.80501 0
M  V30 3256 H 311.083 5.87689 -2.72993 0
M  V30 3257 N 304.489 0.459591 1.5075 0
M  V30 3258 C 305.736 -0.0993495 2.02256 0
M  V30 3259 C 306.064 -1.40751 1.34237 0
M  V30 3260 O 305.319 -1.90379 0.453228 0
M  V30 3261 C 305.618 -0.342866 3.55752 0
M  V30 3262 C 305.284 0.88218 4.42186 0
M  V30 3263 C 303.946 1.21808 4.65528 0
M  V30 3264 C 306.298 1.69837 4.92752 0
M  V30 3265 C 303.626 2.37045 5.36681 0
M  V30 3266 C 305.978 2.84192 5.65171 0
M  V30 3267 C 304.642 3.1821 5.8677 0
M  V30 3268 H 303.912 -0.0363545 0.740108 0
M  V30 3269 H 306.559 0.611329 1.8148 0
M  V30 3270 H 304.864 -1.13567 3.7498 0
M  V30 3271 H 306.561 -0.789121 3.93159 0
M  V30 3272 H 303.151 0.610467 4.2423 0
M  V30 3273 H 307.335 1.45205 4.74583 0
M  V30 3274 H 302.591 2.63689 5.51614 0
M  V30 3275 H 306.765 3.4779 6.03337 0
M  V30 3276 H 304.392 4.07613 6.41682 0
M  V30 3277 N 305.967 -1.56429 0.191757 0
M  V30 3278 C 307.214 -1.97485 -0.447891 0
M  V30 3279 C 307.542 -1.07852 -1.61859 0
M  V30 3280 O 306.797 -0.116903 -1.95351 0
M  V30 3281 C 307.096 -3.44449 -0.953384 0
M  V30 3282 C 306.762 -4.50781 0.103586 0
M  V30 3283 C 305.424 -4.79584 0.394023 0
M  V30 3284 C 307.776 -5.1471 0.819946 0
M  V30 3285 C 305.104 -5.69607 1.40585 0
M  V30 3286 C 307.456 -6.05827 1.8209 0
M  V30 3287 C 306.12 -6.32987 2.11857 0
M  V30 3288 H 305.39 -0.722648 -0.163895 0
M  V30 3289 H 308.037 -1.89322 0.28802 0
M  V30 3290 H 306.342 -3.49666 -1.76751 0
M  V30 3291 H 308.039 -3.73569 -1.45765 0
M  V30 3292 H 304.629 -4.28394 -0.132951 0
M  V30 3293 H 308.813 -4.92552 0.608789 0
M  V30 3294 H 304.069 -5.88926 1.64243 0
M  V30 3295 H 308.243 -6.54424 2.38123 0
M  V30 3296 H 305.87 -7.02544 2.90407 0
M  V30 3297 N 307.445 0.0818655 -1.57387 0
M  V30 3298 C 308.393 1.11712 -2.04018 0
M  V30 3299 C 309.387 1.40683 -0.94364 0
M  V30 3300 O 310.593 1.40209 -1.12878 0
M  V30 3301 H 306.968 0.377542 -0.650358 0
M  V30 3302 H 308.939 0.697614 -2.90131 0
M  V30 3303 C 307.688 2.42537 -2.49141 0
M  V30 3304 H 307.011 2.21092 -3.33104 0
M  V30 3305 H 308.451 3.13446 -2.85531 0
M  V30 3306 C 306.91 3.0778 -1.37014 0
M  V30 3307 O 307.44 3.95436 -0.706621 0
M  V30 3308 N 305.646 2.68242 -1.11779 0
M  V30 3309 H 305.193 1.97052 -1.65917 0
M  V30 3310 H 305.151 3.1222 -0.369594 0
M  V30 3311 N 308.923 1.53595 0.353017 0
M  V30 3312 C 310.169 1.71581 1.09232 0
M  V30 3313 C 310.524 0.468328 1.86613 0
M  V30 3314 O 309.817 -0.538911 1.83865 0
M  V30 3315 C 310.011 2.91313 2.07054 0
M  V30 3316 C 309.84 4.27585 1.39287 0
M  V30 3317 C 308.61 4.92233 1.1417 0
M  V30 3318 C 310.808 5.07656 0.824005 0
M  V30 3319 N 308.79 6.124 0.428841 0
M  V30 3320 C 310.161 6.19531 0.241195 0
M  V30 3321 C 312.216 4.92609 0.723922 0
M  V30 3322 C 310.919 7.18002 -0.431952 0
M  V30 3323 C 312.945 5.91365 0.0645334 0
M  V30 3324 C 312.307 7.02571 -0.507347 0
M  V30 3325 H 308.406 0.680987 0.384422 0
M  V30 3326 H 310.99 1.91013 0.377096 0
M  V30 3327 H 309.161 2.73398 2.75877 0
M  V30 3328 H 310.893 2.98062 2.73753 0
M  V30 3329 H 307.648 4.51612 1.42631 0
M  V30 3330 H 308.072 6.76944 0.0874131 0
M  V30 3331 H 312.714 4.06808 1.15181 0
M  V30 3332 H 310.432 8.03384 -0.871758 0
M  V30 3333 H 314.018 5.81799 -0.0121469 0
M  V30 3334 H 312.898 7.77675 -1.0095 0
M  V30 3335 N 310.401 -0.613514 1.45168 0
M  V30 3336 C 311.629 -1.39946 1.5239 0
M  V30 3337 C 312.044 -1.88167 0.154531 0
M  V30 3338 O 311.401 -1.61872 -0.842843 0
M  V30 3339 C 311.452 -2.60795 2.50337 0
M  V30 3340 O 311.173 -2.1458 3.81952 0
M  V30 3341 C 312.674 -3.53723 2.67198 0
M  V30 3342 H 309.894 -0.428593 0.516284 0
M  V30 3343 H 312.438 -0.748753 1.903 0
M  V30 3344 H 310.593 -3.21919 2.15515 0
M  V30 3345 H 311.007 -2.93055 4.34993 0
M  V30 3346 H 312.481 -4.35079 3.39721 0
M  V30 3347 H 312.958 -4.0368 1.73029 0
M  V30 3348 H 313.564 -2.98456 3.02992 0
M  V30 3349 N 311.879 -1.3236 -0.855495 0
M  V30 3350 C 313.109 -1.25688 -1.6397 0
M  V30 3351 C 313.517 0.177592 -1.88365 0
M  V30 3352 O 312.86 1.12485 -1.45234 0
M  V30 3353 C 312.922 -1.94602 -3.02275 0
M  V30 3354 C 312.586 -3.43937 -3.00926 0
M  V30 3355 C 313.583 -4.39435 -2.77835 0
M  V30 3356 C 311.268 -3.85858 -3.21588 0
M  V30 3357 C 313.262 -5.74829 -2.75409 0
M  V30 3358 C 310.949 -5.21361 -3.18789 0
M  V30 3359 C 311.947 -6.15658 -2.95727 0
M  V30 3360 O 311.635 -7.48681 -2.928 0
M  V30 3361 H 311.367 -0.434972 -0.51747 0
M  V30 3362 H 313.921 -1.75023 -1.075 0
M  V30 3363 H 312.151 -1.39836 -3.60531 0
M  V30 3364 H 313.84 -1.81651 -3.62985 0
M  V30 3365 H 314.606 -4.08374 -2.6164 0
M  V30 3366 H 310.485 -3.12883 -3.38564 0
M  V30 3367 H 314.029 -6.48404 -2.57328 0
M  V30 3368 H 309.926 -5.52052 -3.34528 0
M  V30 3369 H 310.694 -7.5803 -3.0876 0
M  V30 3370 N 313.357 1.07166 -1.15556 0
M  V30 3371 C 314.603 1.80065 -0.932984 0
M  V30 3372 C 314.936 1.86586 0.53845 0
M  V30 3373 O 314.211 1.35098 1.39924 0
M  V30 3374 C 314.494 3.25022 -1.55025 0
M  V30 3375 C 314.347 3.26634 -3.09242 0
M  V30 3376 C 315.666 4.22341 -1.2376 0
M  V30 3377 H 312.785 0.653697 -0.340366 0
M  V30 3378 H 315.427 1.25389 -1.4275 0
M  V30 3379 H 313.577 3.71712 -1.12972 0
M  V30 3380 H 315.249 2.88173 -3.60214 0
M  V30 3381 H 313.492 2.65539 -3.43033 0
M  V30 3382 H 314.163 4.28854 -3.47546 0
M  V30 3383 H 316.639 3.8405 -1.60139 0
M  V30 3384 H 315.515 5.22053 -1.69564 0
M  V30 3385 H 315.776 4.41828 -0.154938 0
M  V30 3386 N 314.835 0.952656 1.25548 0
M  V30 3387 C 316.06 0.623025 1.97821 0
M  V30 3388 C 316.485 -0.7976 1.70352 0
M  V30 3389 O 315.843 -1.53905 0.958283 0
M  V30 3390 C 315.891 0.885532 3.49558 0
M  V30 3391 O 314.995 -0.0366641 4.12384 0
M  V30 3392 H 314.336 0.237082 0.620232 0
M  V30 3393 H 316.866 1.27871 1.59719 0
M  V30 3394 H 316.876 0.811009 3.99858 0
M  V30 3395 H 315.551 1.92094 3.6888 0
M  V30 3396 H 314.128 0.0898954 3.72792 0
M  V30 3397 N 316.313 -1.40141 0.720998 0
M  V30 3398 C 317.541 -2.05096 0.272656 0
M  V30 3399 C 317.956 -1.54334 -1.0875 0
M  V30 3400 O 317.313 -0.702211 -1.6845 0
M  V30 3401 C 317.364 -3.60636 0.249835 0
M  V30 3402 O 317.085 -4.09526 1.55629 0
M  V30 3403 C 318.586 -4.42772 -0.216396 0
M  V30 3404 H 315.806 -0.659897 0.121558 0
M  V30 3405 H 318.35 -1.79449 0.980723 0
M  V30 3406 H 316.505 -3.85232 -0.409237 0
M  V30 3407 H 316.919 -5.03758 1.4604 0
M  V30 3408 H 318.393 -5.51702 -0.181212 0
M  V30 3409 H 318.87 -4.20756 -1.25941 0
M  V30 3410 H 319.476 -4.23294 0.412596 0
M  V30 3411 N 317.792 -0.46758 -1.50504 0
M  V30 3412 C 319.038 0.0887532 -2.02606 0
M  V30 3413 C 319.371 1.39686 -1.34913 0
M  V30 3414 O 318.646 1.88644 -0.473694 0
M  V30 3415 C 318.929 0.276206 -3.59039 0
M  V30 3416 C 318.782 -1.05267 -4.37309 0
M  V30 3417 C 320.101 1.03235 -4.27821 0
M  V30 3418 H 317.22 0.0307814 -0.736357 0
M  V30 3419 H 319.862 -0.612485 -1.79857 0
M  V30 3420 H 318.012 0.8735 -3.78553 0
M  V30 3421 H 319.684 -1.68628 -4.29374 0
M  V30 3422 H 317.927 -1.65015 -4.01189 0
M  V30 3423 H 318.598 -0.875197 -5.45018 0
M  V30 3424 H 321.074 0.526111 -4.12761 0
M  V30 3425 H 319.95 1.1323 -5.37094 0
M  V30 3426 H 320.211 2.06806 -3.90748 0
M  V30 3427 N 319.27 1.56325 -0.20005 0
M  V30 3428 C 320.233 2.18084 0.705132 0
M  V30 3429 C 321.233 1.13666 1.1374 0
M  V30 3430 O 322.423 1.39023 1.04968 0
M  V30 3431 C 319.555 2.78689 1.96329 0
M  V30 3432 H 320.748 2.99435 0.167023 0
M  V30 3433 H 318.301 1.56221 0.0495725 0
M  V30 3434 H 319.036 2.0115 2.5438 0
M  V30 3435 H 318.821 3.55133 1.66202 0
M  V30 3436 H 320.311 3.26096 2.60866 0
M  V30 3437 N 320.748 -0.0735177 1.57428 0
M  V30 3438 C 321.973 -0.789787 1.91774 0
M  V30 3439 C 322.398 -1.70413 0.796306 0
M  V30 3440 O 321.756 -1.79555 -0.250961 0
M  V30 3441 C 321.804 -1.5609 3.25067 0
M  V30 3442 O 320.908 -2.67144 3.14178 0
M  V30 3443 H 320.249 -0.215582 0.628029 0
M  V30 3444 H 322.779 -0.0422781 2.04556 0
M  V30 3445 H 322.789 -1.94052 3.58898 0
M  V30 3446 H 321.464 -0.890015 4.06265 0
M  V30 3447 H 320.041 -2.32052 2.91901 0
M  V30 3448 N 322.226 -1.5378 -0.344866 0
M  V30 3449 C 323.136 -1.84667 -1.4469 0
M  V30 3450 C 324.152 -0.736704 -1.57635 0
M  V30 3451 O 325.328 -1.02888 -1.73136 0
M  V30 3452 C 322.393 -2.04869 -2.79696 0
M  V30 3453 C 321.454 -3.28731 -2.76106 0
M  V30 3454 C 320.687 -3.4796 -4.04673 0
M  V30 3455 O 320.91 -2.71052 -5.01883 0
M  V30 3456 O 319.844 -4.41383 -4.09224 0
M  V30 3457 H 323.67 -2.78334 -1.21506 0
M  V30 3458 H 321.255 -1.39418 -0.536921 0
M  V30 3459 H 323.137 -2.19609 -3.59652 0
M  V30 3460 H 321.812 -1.14391 -3.02814 0
M  V30 3461 H 320.719 -3.19396 -1.94774 0
M  V30 3462 H 322.052 -4.19198 -2.57941 0
M  V30 3463 N 323.704 0.605807 -1.45491 0
M  V30 3464 C 324.952 1.36207 -1.49305 0
M  V30 3465 C 325.273 1.94519 -0.136863 0
M  V30 3466 O 324.543 1.77261 0.833983 0
M  V30 3467 H 323.123 0.50565 -0.549843 0
M  V30 3468 H 325.785 0.711239 -1.81459 0
M  V30 3469 H 324.881 2.18058 -2.23287 0
M  V30 3470 N 325.182 1.32811 0.848464 0
M  V30 3471 C 326.459 1.14334 1.58704 0
M  V30 3472 C 326.839 -0.293948 2.09043 0
M  V30 3473 O 326.187 -1.29153 1.88499 0
M  V30 3474 C 326.397 2.17626 2.72837 0
M  V30 3475 C 327.745 2.51282 3.42261 0
M  V30 3476 O 328.769 2.16219 2.83068 0
M  V30 3477 O 327.628 3.11413 4.49093 0
M  V30 3478 H 324.722 0.441601 0.699226 0
M  V30 3479 H 327.268 1.44362 0.892053 0
M  V30 3480 H 326.04 3.14211 2.3321 0
M  V30 3481 H 325.663 1.88628 3.50008 0
M  V30 3482 N 326.66 -1.06551 1.16123 0
M  V30 3483 C 327.89 -1.8274 0.963838 0
M  V30 3484 C 328.298 -1.82712 -0.491228 0
M  V30 3485 O 327.641 -1.24294 -1.35265 0
M  V30 3486 C 327.703 -3.3065 1.41106 0
M  V30 3487 C 327.367 -3.54384 2.88549 0
M  V30 3488 C 328.364 -3.4765 3.86569 0
M  V30 3489 C 326.049 -3.81789 3.26408 0
M  V30 3490 C 328.043 -3.67982 5.2045 0
M  V30 3491 C 325.73 -4.01772 4.60459 0
M  V30 3492 C 326.728 -3.94866 5.57288 0
M  V30 3493 O 326.416 -4.14306 6.88916 0
M  V30 3494 H 326.148 -0.583136 0.341948 0
M  V30 3495 H 328.702 -1.35351 1.54497 0
M  V30 3496 H 326.932 -3.78887 0.773394 0
M  V30 3497 H 328.621 -3.88324 1.1815 0
M  V30 3498 H 329.387 -3.2647 3.58667 0
M  V30 3499 H 325.266 -3.86276 2.51619 0
M  V30 3500 H 328.81 -3.62507 5.96015 0
M  V30 3501 H 324.707 -4.2244 4.88072 0
M  V30 3502 H 325.475 -4.31609 6.95454 0
M  V30 3503 N 328.138 -0.959301 -1.25041 0
M  V30 3504 C 329.386 -0.615393 -1.92503 0
M  V30 3505 C 329.707 0.850969 -1.75452 0
M  V30 3506 O 328.977 1.60658 -1.12098 0
M  V30 3507 H 327.557 -0.224613 -0.712431 0
M  V30 3508 H 330.219 -1.21855 -1.5211 0
M  V30 3509 H 329.315 -0.848738 -3.00338 0
M  V30 3510 N 329.616 1.39756 -0.72842 0
M  V30 3511 C 330.526 2.34444 -0.0855374 0
M  V30 3512 C 331.542 1.57976 0.729356 0
M  V30 3513 O 332.718 1.90301 0.659346 0
M  V30 3514 C 329.783 3.36965 0.815798 0
M  V30 3515 C 328.844 4.29299 -0.0105996 0
M  V30 3516 C 328.077 5.26923 0.84781 0
M  V30 3517 O 328.3 5.30859 2.08673 0
M  V30 3518 O 327.234 6.01249 0.279969 0
M  V30 3519 H 331.06 2.91065 -0.866892 0
M  V30 3520 H 328.645 1.4117 -0.48902 0
M  V30 3521 H 330.527 3.99804 1.33171 0
M  V30 3522 H 329.202 2.82739 1.57608 0
M  V30 3523 H 328.109 3.69703 -0.571877 0
M  V30 3524 H 329.442 4.86712 -0.73295 0
M  V30 3525 N 331.094 0.475555 1.50254 0
M  V30 3526 C 332.322 -0.0754493 2.06762 0
M  V30 3527 C 332.737 -1.33111 1.33891 0
M  V30 3528 O 332.094 -1.77846 0.40952 0
M  V30 3529 C 332.145 -0.359008 3.59713 0
M  V30 3530 O 331.866 0.846851 4.29837 0
M  V30 3531 C 333.367 -0.956484 4.32858 0
M  V30 3532 H 330.587 0.00907525 0.670939 0
M  V30 3533 H 333.131 0.665618 1.93364 0
M  V30 3534 H 331.286 -1.05001 3.72899 0
M  V30 3535 H 331.7 0.594162 5.21124 0
M  V30 3536 H 333.174 -1.10463 5.40834 0
M  V30 3537 H 333.651 -1.94775 3.93649 0
M  V30 3538 H 334.257 -0.303723 4.24214 0
M  V30 3539 N 332.573 -1.56217 0.208337 0
M  V30 3540 C 333.821 -1.97558 -0.426076 0
M  V30 3541 C 334.142 -1.09683 -1.61229 0
M  V30 3542 O 333.412 -0.170956 -1.95153 0
M  V30 3543 H 331.992 -0.729575 -0.160405 0
M  V30 3544 H 334.654 -1.92606 0.298155 0
M  V30 3545 H 333.75 -3.02672 -0.761312 0
M  V30 3546 N 334.051 0.0651679 -1.57465 0
M  V30 3547 C 335.3 0.761916 -1.86756 0
M  V30 3548 C 335.613 1.78406 -0.801925 0
M  V30 3549 O 336.819 2.53084 -0.982885 0
M  V30 3550 C 335.275 1.40603 -3.31299 0
M  V30 3551 C 334.883 0.422115 -4.46007 0
M  V30 3552 C 336.627 2.08476 -3.69781 0
M  V30 3553 C 334.534 1.07252 -5.81593 0
M  V30 3554 H 333.464 0.288308 -0.696702 0
M  V30 3555 H 336.115 0.015344 -1.83494 0
M  V30 3556 H 334.497 2.20109 -3.29193 0
M  V30 3557 H 335.671 -0.343613 -4.59517 0
M  V30 3558 H 333.986 -0.152527 -4.16121 0
M  V30 3559 H 336.583 2.57925 -4.68379 0
M  V30 3560 H 336.926 2.88712 -2.99919 0
M  V30 3561 H 337.459 1.35792 -3.73905 0
M  V30 3562 H 334.198 0.310342 -6.54765 0
M  V30 3563 H 333.718 1.80895 -5.71872 0
M  V30 3564 H 335.397 1.59043 -6.27148 0
M  V30 3565 N 335.529 1.53961 0.336706 0
M  V30 3566 C 336.439 1.85432 1.43708 0
M  V30 3567 C 337.455 0.745053 1.57242 0
M  V30 3568 O 338.631 1.03804 1.72588 0
M  V30 3569 C 335.696 2.06349 2.78605 0
M  V30 3570 C 334.757 3.30191 2.74358 0
M  V30 3571 C 333.99 3.50101 4.02822 0
M  V30 3572 O 334.213 2.7371 5.00439 0
M  V30 3573 O 333.147 4.43547 4.06878 0
M  V30 3574 H 336.973 2.78975 1.20028 0
M  V30 3575 H 334.558 1.39701 0.52952 0
M  V30 3576 H 336.44 2.21513 3.58483 0
M  V30 3577 H 335.115 1.15995 3.02203 0
M  V30 3578 H 334.022 3.20425 1.93078 0
M  V30 3579 H 335.355 4.2056 2.55715 0
M  V30 3580 N 337.007 -0.598083 1.45811 0
M  V30 3581 C 337.97 -1.69018 1.54808 0
M  V30 3582 C 338.97 -1.55037 0.426652 0
M  V30 3583 O 340.16 -1.59932 0.690456 0
M  V30 3584 C 337.292 -3.0835 1.45371 0
M  V30 3585 H 338.485 -1.62403 2.52121 0
M  V30 3586 H 336.038 -0.814626 1.33392 0
M  V30 3587 H 336.773 -3.20534 0.492793 0
M  V30 3588 H 336.558 -3.19907 2.26721 0
M  V30 3589 H 338.048 -3.8788 1.54721 0
M  V30 3590 N 338.485 -1.33259 -0.841409 0
M  V30 3591 C 339.732 -1.24572 -1.5965 0
M  V30 3592 C 340.06 0.189137 -1.93578 0
M  V30 3593 O 339.315 1.14566 -1.5866 0
M  V30 3594 C 339.614 -2.06381 -2.9179 0
M  V30 3595 C 339.28 -3.556 -2.77235 0
M  V30 3596 C 337.942 -3.96282 -2.72973 0
M  V30 3597 C 340.294 -4.50433 -2.62221 0
M  V30 3598 C 337.622 -5.30017 -2.51592 0
M  V30 3599 C 339.974 -5.84327 -2.42374 0
M  V30 3600 C 338.638 -6.24194 -2.36512 0
M  V30 3601 H 337.908 -0.455842 -0.5842 0
M  V30 3602 H 340.555 -1.6482 -0.975016 0
M  V30 3603 H 338.86 -1.58903 -3.5813 0
M  V30 3604 H 340.557 -1.97019 -3.49263 0
M  V30 3605 H 337.147 -3.23298 -2.81384 0
M  V30 3606 H 341.331 -4.19914 -2.64549 0
M  V30 3607 H 336.587 -5.59947 -2.45499 0
M  V30 3608 H 340.761 -6.57414 -2.29739 0
M  V30 3609 H 338.388 -7.27759 -2.19706 0
M  V30 3610 N 339.963 1.05934 -1.16686 0
M  V30 3611 C 340.873 2.17014 -0.891183 0
M  V30 3612 C 341.889 1.73453 0.137907 0
M  V30 3613 O 343.065 2.01361 -0.039592 0
M  V30 3614 C 340.13 3.44384 -0.400099 0
M  V30 3615 C 339.191 4.02433 -1.49486 0
M  V30 3616 C 338.424 5.23723 -1.02711 0
M  V30 3617 O 338.647 5.7027 0.121716 0
M  V30 3618 O 337.581 5.7382 -1.81699 0
M  V30 3619 H 341.407 2.43113 -1.82015 0
M  V30 3620 H 338.992 1.15541 -0.947132 0
M  V30 3621 H 340.874 4.21189 -0.133392 0
M  V30 3622 H 339.549 3.19802 0.500817 0
M  V30 3623 H 338.456 3.27102 -1.81535 0
M  V30 3624 H 339.789 4.31317 -2.37121 0
M  V30 3625 N 341.441 0.965919 1.2453 0
M  V30 3626 C 342.373 0.452465 2.2469 0
M  V30 3627 C 343.386 -0.437821 1.56802 0
M  V30 3628 O 344.575 -0.244283 1.76821 0
M  V30 3629 C 341.675 -0.366258 3.36915 0
M  V30 3630 C 340.848 0.513701 4.34373 0
M  V30 3631 C 339.907 -0.248716 5.25612 0
M  V30 3632 O 338.933 0.356745 5.68081 0
M  V30 3633 N 340.135 -1.53877 5.59734 0
M  V30 3634 H 342.9 1.31361 2.69378 0
M  V30 3635 H 340.461 0.837541 1.38553 0
M  V30 3636 H 342.453 -0.884297 3.94921 0
M  V30 3637 H 341.023 -1.12832 2.91526 0
M  V30 3638 H 340.243 1.21273 3.75082 0
M  V30 3639 H 341.531 1.11391 4.96457 0
M  V30 3640 H 340.929 -2.05243 5.27154 0
M  V30 3641 H 339.486 -2.00254 6.20275 0
M  V30 3642 N 342.919 -1.39368 0.735821 0
M  V30 3643 C 343.829 -2.34395 0.0979693 0
M  V30 3644 C 344.845 -1.58361 -0.720968 0
M  V30 3645 O 346.021 -1.90648 -0.649245 0
M  V30 3646 C 343.086 -3.37393 -0.797916 0
M  V30 3647 C 342.147 -4.29287 0.0333662 0
M  V30 3648 C 341.38 -5.27365 -0.819854 0
M  V30 3649 O 341.603 -5.31959 -2.05855 0
M  V30 3650 O 340.537 -6.01389 -0.248079 0
M  V30 3651 H 344.363 -2.90601 0.882315 0
M  V30 3652 H 341.948 -1.40909 0.4965 0
M  V30 3653 H 343.83 -4.00505 -1.31048 0
M  V30 3654 H 342.505 -2.83571 -1.56106 0
M  V30 3655 H 341.412 -3.69395 0.591475 0
M  V30 3656 H 342.745 -4.86317 0.758752 0
M  V30 3657 N 344.397 -0.483516 -1.5 0
M  V30 3658 C 345.36 0.292965 -2.2732 0
M  V30 3659 C 346.36 0.909499 -1.32608 0
M  V30 3660 O 347.55 0.776745 -1.55924 0
M  V30 3661 C 344.682 1.41854 -3.09984 0
M  V30 3662 H 345.875 -0.385289 -2.97415 0
M  V30 3663 H 343.428 -0.237942 -1.54478 0
M  V30 3664 H 344.163 2.13148 -2.44414 0
M  V30 3665 H 343.948 0.982114 -3.79601 0
M  V30 3666 H 345.438 1.96597 -3.68429 0
M  V30 3667 N 345.875 1.56104 -0.216619 0
M  V30 3668 C 347.291 1.58995 0.13886 0
M  V30 3669 C 347.491 1.23333 1.59346 0
M  V30 3670 O 346.547 0.966234 2.33281 0
M  V30 3671 C 347.86 3.00143 -0.182968 0
M  V30 3672 C 349.408 3.12751 -0.124807 0
M  V30 3673 C 349.883 4.56068 -0.420241 0
M  V30 3674 N 351.374 4.61723 -0.369634 0
M  V30 3675 C 352.109 5.70542 -0.571789 0
M  V30 3676 N 351.605 6.87744 -0.835453 0
M  V30 3677 N 353.398 5.59831 -0.504563 0
M  V30 3678 H 345.549 1.77562 -1.16557 0
M  V30 3679 H 347.812 0.825091 -0.466828 0
M  V30 3680 H 347.518 3.30871 -1.19237 0
M  V30 3681 H 347.392 3.73813 0.504367 0
M  V30 3682 H 349.779 2.81822 0.875223 0
M  V30 3683 H 349.86 2.41421 -0.845544 0
M  V30 3684 H 349.504 4.87713 -1.41769 0
M  V30 3685 H 349.434 5.25617 0.321631 0
M  V30 3686 H 351.925 3.77502 -0.173338 0
M  V30 3687 H 352.238 7.66587 -0.977938 0
M  V30 3688 H 350.583 6.895 -0.872592 0
M  V30 3689 H 353.774 4.67145 -0.298842 0
M  V30 3690 H 353.947 6.44573 -0.665519 0
M  V30 3691 N 347.353 -0.0568162 1.57498 0
M  V30 3692 C 348.283 -1.06593 2.0775 0
M  V30 3693 C 349.264 -1.39448 0.974082 0
M  V30 3694 O 350.449 -1.48815 1.24771 0
M  V30 3695 C 347.579 -2.37509 2.5339 0
M  V30 3696 C 346.533 -2.1897 3.67745 0
M  V30 3697 C 345.859 -3.55402 3.99492 0
M  V30 3698 C 347.159 -1.59859 4.97235 0
M  V30 3699 H 348.853 -0.647706 2.9231 0
M  V30 3700 H 346.399 -0.310116 1.40621 0
M  V30 3701 H 348.352 -3.08409 2.87162 0
M  V30 3702 H 347.076 -2.8134 1.65878 0
M  V30 3703 H 345.735 -1.50508 3.3428 0
M  V30 3704 H 345.383 -3.9683 3.09088 0
M  V30 3705 H 345.083 -3.43831 4.76502 0
M  V30 3706 H 346.607 -4.27708 4.35773 0
M  V30 3707 H 348.021 -2.20642 5.29141 0
M  V30 3708 H 346.418 -1.58942 5.78669 0
M  V30 3709 H 347.488 -0.561506 4.81638 0
M  V30 3710 N 348.832 -1.54138 -0.328536 0
M  V30 3711 C 350.248 -1.44736 -0.672574 0
M  V30 3712 C 350.448 -0.616217 -1.91846 0
M  V30 3713 O 349.504 -0.113067 -2.52247 0
M  V30 3714 C 350.817 -2.884 -0.851217 0
M  V30 3715 C 352.365 -2.98271 -0.948877 0
M  V30 3716 C 352.84 -4.43074 -1.15973 0
M  V30 3717 N 354.331 -4.46665 -1.22658 0
M  V30 3718 C 355.066 -5.55857 -1.40751 0
M  V30 3719 N 354.562 -6.75026 -1.5592 0
M  V30 3720 N 356.355 -5.43495 -1.4342 0
M  V30 3721 H 348.506 -2.06661 0.490421 0
M  V30 3722 H 350.769 -0.934812 0.157579 0
M  V30 3723 H 350.475 -3.51699 -0.00704236 0
M  V30 3724 H 350.349 -3.34225 -1.74853 0
M  V30 3725 H 352.736 -2.35102 -1.78356 0
M  V30 3726 H 352.817 -2.55785 -0.0281435 0
M  V30 3727 H 352.461 -5.06827 -0.329915 0
M  V30 3728 H 352.391 -4.83165 -2.09426 0
M  V30 3729 H 354.882 -3.60797 -1.124 0
M  V30 3730 H 355.195 -7.54004 -1.69404 0
M  V30 3731 H 353.54 -6.77944 -1.53027 0
M  V30 3732 H 356.731 -4.49349 -1.31162 0
M  V30 3733 H 356.904 -6.28649 -1.57178 0
M  V30 3734 N 350.31 0.590341 -1.46126 0
M  V30 3735 C 351.258 1.72105 -1.5647 0
M  V30 3736 C 352.252 1.63756 -0.433612 0
M  V30 3737 O 353.458 1.69342 -0.610194 0
M  V30 3738 H 349.833 0.568889 -0.491802 0
M  V30 3739 H 351.804 1.6051 -2.51553 0
M  V30 3740 C 350.553 3.10493 -1.56491 0
M  V30 3741 H 349.876 3.17583 -2.4286 0
M  V30 3742 H 351.316 3.8939 -1.67785 0
M  V30 3743 C 349.775 3.3563 -0.292231 0
M  V30 3744 O 350.305 3.96875 0.620739 0
M  V30 3745 N 348.511 2.90026 -0.182523 0
M  V30 3746 H 348.058 2.40367 -0.926356 0
M  V30 3747 H 348.016 3.07218 0.668152 0
M  V30 3748 N 351.788 1.33704 0.83433 0
M  V30 3749 C 353.037 1.24763 1.58484 0
M  V30 3750 C 353.35 -0.183775 1.94735 0
M  V30 3751 O 354.556 -0.395234 2.68608 0
M  V30 3752 C 353.012 2.18638 2.85876 0
M  V30 3753 C 352.62 3.66974 2.56971 0
M  V30 3754 C 354.364 2.18581 3.63899 0
M  V30 3755 C 352.271 4.5275 3.80488 0
M  V30 3756 H 351.201 0.463425 0.594772 0
M  V30 3757 H 353.852 1.58797 0.919551 0
M  V30 3758 H 352.234 1.77542 3.5397 0
M  V30 3759 H 353.408 4.16538 1.9706 0
M  V30 3760 H 351.723 3.69366 1.92244 0
M  V30 3761 H 354.32 2.79894 4.55591 0
M  V30 3762 H 354.663 1.18207 3.99165 0
M  V30 3763 H 355.196 2.58062 3.02735 0
M  V30 3764 H 351.935 5.54017 3.5035 0
M  V30 3765 H 351.455 4.07927 4.39722 0
M  V30 3766 H 353.134 4.66784 4.4802 0
M  V30 3767 N 353.266 -1.05314 1.17247 0
M  V30 3768 C 354.506 -1.79869 0.970898 0
M  V30 3769 C 354.87 -1.85594 -0.491808 0
M  V30 3770 O 356.071 -2.56229 -0.812409 0
M  V30 3771 C 354.342 -3.19937 1.59295 0
M  V30 3772 S 355.901 -4.10986 1.53741 0
M  V30 3773 H 352.719 -0.61949 0.348931 0
M  V30 3774 H 355.321 -1.26368 1.49169 0
M  V30 3775 H 354.025 -3.13372 2.65003 0
M  V30 3776 H 353.556 -3.78515 1.07191 0
M  V30 3777 H 355.571 -4.93203 0.544537 0
M  V30 3778 N 354.744 -0.972509 -1.24016 0
M  V30 3779 C 355.993 -0.632603 -1.91523 0
M  V30 3780 C 356.306 0.836641 -1.76804 0
M  V30 3781 O 357.512 1.28728 -2.39043 0
M  V30 3782 C 355.968 -1.08082 -3.43287 0
M  V30 3783 C 355.576 -2.57386 -3.66683 0
M  V30 3784 C 357.32 -0.814288 -4.16617 0
M  V30 3785 C 355.227 -2.95915 -5.12043 0
M  V30 3786 H 354.157 -0.232898 -0.717129 0
M  V30 3787 H 356.808 -1.17936 -1.40582 0
M  V30 3788 H 355.19 -0.462339 -3.93292 0
M  V30 3789 H 356.364 -3.24405 -3.27258 0
M  V30 3790 H 354.679 -2.81701 -3.06649 0
M  V30 3791 H 357.276 -1.0781 -5.23718 0
M  V30 3792 H 357.619 0.24955 -4.15551 0
M  V30 3793 H 358.152 -1.39397 -3.72577 0
M  V30 3794 H 354.891 -4.0139 -5.18234 0
M  V30 3795 H 354.411 -2.33584 -5.52448 0
M  V30 3796 H 356.09 -2.86086 -5.80314 0
M  V30 3797 N 356.222 1.38976 -0.743202 0
M  V30 3798 C 357.185 2.28901 -0.117014 0
M  V30 3799 C 358.185 1.46698 0.658503 0
M  V30 3800 O 359.375 1.67274 0.486305 0
M  V30 3801 C 356.507 3.30309 0.84315 0
M  V30 3802 H 357.7 2.8578 -0.909373 0
M  V30 3803 H 355.253 1.47761 -0.509547 0
M  V30 3804 H 355.988 2.785 1.66157 0
M  V30 3805 H 355.773 3.91029 0.289594 0
M  V30 3806 H 357.263 3.97577 1.2776 0
M  V30 3807 N 357.7 0.491464 1.49741 0
M  V30 3808 C 358.928 -0.0535151 2.06831 0
M  V30 3809 C 359.343 -1.31683 1.35296 0
M  V30 3810 O 358.7 -1.77402 0.42836 0
M  V30 3811 C 358.751 -0.320835 3.60073 0
M  V30 3812 O 358.472 0.892394 4.28915 0
M  V30 3813 C 359.973 -0.910519 4.33848 0
M  V30 3814 H 357.193 0.0161909 0.670805 0
M  V30 3815 H 359.737 0.68609 1.92647 0
M  V30 3816 H 357.892 -1.0104 3.73991 0
M  V30 3817 H 358.306 0.649401 5.20464 0
M  V30 3818 H 359.78 -1.04721 5.41976 0
M  V30 3819 H 360.257 -1.90589 3.95692 0
M  V30 3820 H 360.863 -0.258712 4.24512 0
M  V30 3821 N 359.178 -1.55987 0.224894 0
M  V30 3822 C 360.141 -2.19178 -0.670348 0
M  V30 3823 C 361.141 -1.15461 -1.11917 0
M  V30 3824 O 362.331 -1.40675 -1.02743 0
M  V30 3825 C 359.463 -2.81777 -1.9187 0
M  V30 3826 H 360.656 -2.99662 -0.119364 0
M  V30 3827 H 358.209 -1.5628 -0.0247128 0
M  V30 3828 H 358.944 -2.05172 -2.51147 0
M  V30 3829 H 358.729 -3.57732 -1.60531 0
M  V30 3830 H 360.219 -3.30205 -2.55645 0
M  V30 3831 N 360.656 0.0484629 -1.57525 0
M  V30 3832 C 361.566 1.07241 -2.08654 0
M  V30 3833 C 362.582 1.409 -1.02095 0
M  V30 3834 O 363.758 1.50609 -1.33712 0
M  V30 3835 C 360.823 2.36008 -2.5397 0
M  V30 3836 C 359.884 2.09108 -3.7493 0
M  V30 3837 C 359.117 3.31736 -4.18075 0
M  V30 3838 O 359.34 4.41714 -3.60895 0
M  V30 3839 O 358.274 3.18576 -5.10679 0
M  V30 3840 H 362.1 0.667965 -2.96263 0
M  V30 3841 H 359.685 0.26417 -1.47046 0
M  V30 3842 H 361.567 3.11747 -2.83535 0
M  V30 3843 H 360.242 2.75786 -1.69481 0
M  V30 3844 H 359.149 1.31 -3.50414 0
M  V30 3845 H 360.482 1.74198 -4.60343 0
M  V30 3846 N 362.134 1.5431 0.320358 0
M  V30 3847 C 363.081 1.83918 1.39438 0
M  V30 3848 C 364.051 0.686525 1.51248 0
M  V30 3849 O 365.236 0.933269 1.66417 0
M  V30 3850 C 362.376 2.075 2.75749 0
M  V30 3851 C 361.489 3.35177 2.72544 0
M  V30 3852 C 360.624 3.48704 4.00723 0
M  V30 3853 C 359.663 4.70244 3.91838 0
M  V30 3854 N 358.8 4.80679 5.11754 0
M  V30 3855 H 363.64 2.75544 1.13489 0
M  V30 3856 H 361.177 1.36459 0.549309 0
M  V30 3857 H 363.135 2.19166 3.54996 0
M  V30 3858 H 361.765 1.19163 3 0
M  V30 3859 H 360.817 3.32233 1.85271 0
M  V30 3860 H 362.129 4.24534 2.61863 0
M  V30 3861 H 361.283 3.59928 4.88402 0
M  V30 3862 H 360.022 2.57445 4.14214 0
M  V30 3863 H 359.027 4.59072 3.02544 0
M  V30 3864 H 360.252 5.6289 3.7991 0
M  V30 3865 H 358.198 3.92337 5.25745 0
M  V30 3866 H 358.115 5.64007 5.0342 0
M  V30 3867 H 359.383 4.96239 6.01138 0
M  V30 3868 N 363.613 -0.582584 1.46437 0
M  V30 3869 C 364.859 -1.34278 1.51978 0
M  V30 3870 C 365.192 -1.93446 0.170973 0
M  V30 3871 O 364.467 -1.76481 -0.817608 0
M  V30 3872 C 364.75 -2.47203 2.61845 0
M  V30 3873 C 364.603 -1.93069 4.06257 0
M  V30 3874 C 365.922 -3.49247 2.67795 0
M  V30 3875 H 363.041 -0.486876 0.553282 0
M  V30 3876 H 365.683 -0.654437 1.78374 0
M  V30 3877 H 363.833 -3.0592 2.39469 0
M  V30 3878 H 365.505 -1.38808 4.3992 0
M  V30 3879 H 363.748 -1.23898 4.1573 0
M  V30 3880 H 364.419 -2.74586 4.7886 0
M  V30 3881 H 366.895 -3.00411 2.8791 0
M  V30 3882 H 365.771 -4.25719 3.46489 0
M  V30 3883 H 366.032 -4.06482 1.73852 0
M  V30 3884 N 365.091 -1.34144 -0.827227 0
M  V30 3885 C 366.339 -1.26009 -1.58007 0
M  V30 3886 C 366.66 0.170971 -1.94249 0
M  V30 3887 O 365.93 1.10256 -1.61927 0
M  V30 3888 H 364.51 -0.463414 -0.585881 0
M  V30 3889 H 367.172 -1.68005 -0.987951 0
M  V30 3890 H 366.268 -1.86187 -2.50481 0
M  V30 3891 N 366.569 1.04691 -1.17803 0
M  V30 3892 C 367.985 1.29963 -0.926379 0
M  V30 3893 C 368.185 1.97251 0.411635 0
M  V30 3894 O 367.241 2.24922 1.14744 0
M  V30 3895 C 368.554 2.16447 -2.08737 0
M  V30 3896 C 370.102 2.29814 -2.12496 0
M  V30 3897 C 370.577 3.19661 -3.27995 0
M  V30 3898 N 372.068 3.27247 -3.27816 0
M  V30 3899 C 372.803 3.96906 -4.13827 0
M  V30 3900 N 372.299 4.6895 -5.09959 0
M  V30 3901 N 374.092 3.93122 -4.01761 0
M  V30 3902 H 366.243 0.594182 -2.0392 0
M  V30 3903 H 368.506 0.324649 -0.890678 0
M  V30 3904 H 368.212 1.74304 -3.05469 0
M  V30 3905 H 368.086 3.17103 -2.04268 0
M  V30 3906 H 370.473 2.71196 -1.16347 0
M  V30 3907 H 370.554 1.2877 -2.21025 0
M  V30 3908 H 370.198 2.78991 -4.24413 0
M  V30 3909 H 370.128 4.20722 -3.16703 0
M  V30 3910 H 372.619 2.75921 -2.58217 0
M  V30 3911 H 372.932 5.19679 -5.71974 0
M  V30 3912 H 371.277 4.67875 -5.13924 0
M  V30 3913 H 374.468 3.35967 -3.2595 0
M  V30 3914 H 374.641 4.47139 -4.6901 0
M  V30 3915 N 368.047 0.979072 1.23499 0
M  V30 3916 C 369.272 0.664845 1.96455 0
M  V30 3917 C 369.697 -0.761287 1.72006 0
M  V30 3918 O 369.055 -1.51837 0.990713 0
M  V30 3919 C 369.103 0.959479 3.47601 0
M  V30 3920 O 368.207 0.0508168 4.12369 0
M  V30 3921 H 367.548 0.250185 0.615064 0
M  V30 3922 H 370.078 1.31231 1.5697 0
M  V30 3923 H 370.088 0.895642 3.98048 0
M  V30 3924 H 368.763 1.99876 3.64723 0
M  V30 3925 H 367.34 0.16895 3.72517 0
M  V30 3926 N 369.525 -1.3858 0.750561 0
M  V30 3927 C 370.473 -2.32339 0.110162 0
M  V30 3928 C 371.467 -1.53864 -0.708674 0
M  V30 3929 O 372.673 -1.69417 -0.608112 0
M  V30 3930 H 369.048 -0.751812 0.0168275 0
M  V30 3931 H 371.019 -2.83959 0.917053 0
M  V30 3932 C 369.768 -3.39043 -0.771067 0
M  V30 3933 H 369.091 -3.99517 -0.150374 0
M  V30 3934 H 370.531 -4.07061 -1.1865 0
M  V30 3935 C 368.99 -2.77365 -1.91234 0
M  V30 3936 O 369.52 -2.66434 -3.00626 0
M  V30 3937 N 367.726 -2.35219 -1.70646 0
M  V30 3938 H 367.273 -2.4431 -0.81673 0
M  V30 3939 H 367.231 -1.94294 -2.47178 0
M  V30 3940 N 371.003 -0.499398 -1.49478 0
M  V30 3941 C 372.252 0.0475259 -2.01644 0
M  V30 3942 C 372.565 1.38195 -1.38425 0
M  V30 3943 O 373.771 2.01547 -1.8191 0
M  V30 3944 C 372.227 0.135164 -3.59646 0
M  V30 3945 C 371.835 -1.19252 -4.31837 0
M  V30 3946 C 373.579 0.632538 -4.19761 0
M  V30 3947 C 371.486 -1.06713 -5.81693 0
M  V30 3948 H 370.416 0.0215349 -0.753692 0
M  V30 3949 H 373.067 -0.638577 -1.7203 0
M  V30 3950 H 371.449 0.885681 -3.85969 0
M  V30 3951 H 372.623 -1.9562 -4.17216 0
M  V30 3952 H 370.938 -1.62321 -3.83459 0
M  V30 3953 H 373.535 0.743833 -5.29501 0
M  V30 3954 H 373.878 1.63098 -3.83021 0
M  V30 3955 H 374.411 -0.0613987 -3.97753 0
M  V30 3956 H 371.15 -2.03979 -6.22955 0
M  V30 3957 H 370.67 -0.344307 -5.98811 0
M  V30 3958 H 372.349 -0.745208 -6.42694 0
M  V30 3959 N 372.481 1.55866 -0.233164 0
M  V30 3960 C 373.897 1.59133 0.121988 0
M  V30 3961 C 374.097 1.25016 1.58029 0
M  V30 3962 O 373.153 0.990922 2.32243 0
M  V30 3963 C 374.466 2.99932 -0.214792 0
M  V30 3964 C 376.014 3.12601 -0.157971 0
M  V30 3965 C 376.489 4.55597 -0.46859 0
M  V30 3966 N 377.98 4.61305 -0.418585 0
M  V30 3967 C 378.715 5.69903 -0.63227 0
M  V30 3968 N 378.211 6.86819 -0.90835 0
M  V30 3969 N 380.004 5.59264 -0.563913 0
M  V30 3970 H 372.155 1.76315 -1.18434 0
M  V30 3971 H 374.418 0.820093 -0.475553 0
M  V30 3972 H 374.124 3.29588 -1.22739 0
M  V30 3973 H 373.998 3.74327 0.464691 0
M  V30 3974 H 376.385 2.82735 0.845283 0
M  V30 3975 H 376.466 2.40511 -0.871102 0
M  V30 3976 H 376.11 4.86182 -1.46934 0
M  V30 3977 H 376.04 5.25928 0.265865 0
M  V30 3978 H 378.531 3.77297 -0.213368 0
M  V30 3979 H 378.844 7.65507 -1.05919 0
M  V30 3980 H 377.189 6.88536 -0.945673 0
M  V30 3981 H 380.38 4.66802 -0.348372 0
M  V30 3982 H 380.553 6.43831 -0.733847 0
M  V30 3983 N 373.959 -0.0401083 1.57549 0
M  V30 3984 C 374.906 -1.04413 2.05831 0
M  V30 3985 C 375.876 -1.36585 0.945184 0
M  V30 3986 O 377.061 -1.47112 1.21502 0
M  V30 3987 C 374.201 -2.34336 2.53339 0
M  V30 3988 C 373.314 -2.08419 3.78398 0
M  V30 3989 C 372.449 -3.32133 4.14561 0
M  V30 3990 C 371.488 -3.01721 5.3257 0
M  V30 3991 N 370.625 -4.17855 5.64218 0
M  V30 3992 H 375.465 -0.625442 2.91363 0
M  V30 3993 H 373.002 -0.297218 1.44066 0
M  V30 3994 H 374.96 -3.10234 2.78946 0
M  V30 3995 H 373.59 -2.73948 1.7074 0
M  V30 3996 H 372.642 -1.23069 3.59942 0
M  V30 3997 H 373.954 -1.81978 4.64419 0
M  V30 3998 H 373.108 -4.16406 4.41238 0
M  V30 3999 H 371.847 -3.61678 3.2717 0
M  V30 4000 H 370.852 -2.15849 5.05657 0
M  V30 4001 H 372.077 -2.73466 6.21605 0
M  V30 4002 H 370.023 -4.47372 4.79786 0
M  V30 4003 H 369.94 -3.94798 6.44725 0
M  V30 4004 H 371.208 -5.03033 5.95465 0
M  V30 4005 N 375.437 -1.54477 -0.31217 0
M  V30 4006 C 376.662 -1.77526 -1.07235 0
M  V30 4007 C 377.087 -0.527775 -1.80544 0
M  V30 4008 O 376.445 0.52121 -1.73646 0
M  V30 4009 C 376.493 -2.97535 -2.03728 0
M  V30 4010 O 375.597 -2.69878 -3.11833 0
M  V30 4011 H 374.938 -0.58792 -0.30862 0
M  V30 4012 H 377.468 -2.01532 -0.352993 0
M  V30 4013 H 377.478 -3.25198 -2.46395 0
M  V30 4014 H 376.153 -3.87996 -1.49774 0
M  V30 4015 H 374.73 -2.53199 -2.7376 0
M  V30 4016 N 376.915 0.57481 -1.46744 0
M  V30 4017 C 378.145 1.35659 -1.55821 0
M  V30 4018 C 378.553 1.88129 -0.201036 0
M  V30 4019 O 377.896 1.64723 0.813134 0
M  V30 4020 C 377.958 2.57473 -2.50894 0
M  V30 4021 C 377.622 2.26415 -3.9697 0
M  V30 4022 C 378.619 1.84771 -4.85958 0
M  V30 4023 C 376.304 2.38316 -4.42166 0
M  V30 4024 C 378.298 1.55434 -6.18158 0
M  V30 4025 C 375.985 2.08591 -5.74398 0
M  V30 4026 C 376.983 1.67216 -6.62214 0
M  V30 4027 O 376.671 1.37859 -7.91991 0
M  V30 4028 H 376.403 0.420496 -0.529301 0
M  V30 4029 H 378.957 0.704967 -1.92923 0
M  V30 4030 H 377.187 3.25468 -2.08824 0
M  V30 4031 H 378.876 3.19546 -2.50291 0
M  V30 4032 H 379.642 1.75085 -4.52295 0
M  V30 4033 H 375.521 2.69483 -3.74032 0
M  V30 4034 H 379.065 1.23065 -6.86659 0
M  V30 4035 H 374.962 2.17905 -6.07608 0
M  V30 4036 H 375.73 1.51638 -8.04331 0
M  V30 4037 N 378.394 1.34581 0.820102 0
M  V30 4038 C 379.671 1.17675 1.56244 0
M  V30 4039 C 380.051 -0.249541 2.0962 0
M  V30 4040 O 379.399 -1.25125 1.91196 0
M  V30 4041 C 379.609 2.23364 2.6816 0
M  V30 4042 C 380.957 2.58485 3.36854 0
M  V30 4043 O 381.981 2.22175 2.78418 0
M  V30 4044 O 380.84 3.20868 4.42386 0
M  V30 4045 H 377.934 0.456333 0.689702 0
M  V30 4046 H 380.48 1.46222 0.861231 0
M  V30 4047 H 379.252 3.19087 2.26493 0
M  V30 4048 H 378.875 1.96009 3.45928 0
M  V30 4049 N 379.872 -1.04064 1.18357 0
M  V30 4050 C 381.097 -1.81454 1.00445 0
M  V30 4051 C 381.522 -1.82823 -0.442423 0
M  V30 4052 O 380.88 -1.24555 -1.31741 0
M  V30 4053 C 380.928 -3.24925 1.56384 0
M  V30 4054 O 380.032 -4.04856 0.785209 0
M  V30 4055 H 379.373 -0.560604 0.355835 0
M  V30 4056 H 381.903 -1.31059 1.57114 0
M  V30 4057 H 381.913 -3.75702 1.59097 0
M  V30 4058 H 380.588 -3.23244 2.61699 0
M  V30 4059 H 379.165 -3.63537 0.830399 0
M  V30 4060 N 381.35 -0.985608 -1.22978 0
M  V30 4061 C 382.596 -0.65836 -1.91816 0
M  V30 4062 C 382.929 0.806692 -1.76653 0
M  V30 4063 O 382.204 1.58252 -1.13078 0
M  V30 4064 C 382.487 -1.056 -3.44268 0
M  V30 4065 C 382.34 -2.57906 -3.68516 0
M  V30 4066 C 383.659 -0.603781 -4.35939 0
M  V30 4067 H 380.778 -0.24065 -0.696604 0
M  V30 4068 H 383.42 -1.22783 -1.44998 0
M  V30 4069 H 381.57 -0.571445 -3.84274 0
M  V30 4070 H 383.242 -3.13976 -3.3796 0
M  V30 4071 H 381.485 -3.00305 -3.13048 0
M  V30 4072 H 382.156 -2.80779 -4.75255 0
M  V30 4073 H 384.632 -1.01987 -4.03408 0
M  V30 4074 H 383.508 -0.910383 -5.41298 0
M  V30 4075 H 383.769 0.495761 -4.39312 0
M  V30 4076 N 382.828 1.3818 -0.7579 0
M  V30 4077 C 384.077 1.99261 -0.312744 0
M  V30 4078 C 384.39 1.60846 1.11301 0
M  V30 4079 O 385.596 2.14929 1.65885 0
M  V30 4080 C 384.052 3.56294 -0.50821 0
M  V30 4081 C 383.66 4.03657 -1.94333 0
M  V30 4082 C 385.404 4.24313 -0.125982 0
M  V30 4083 C 383.311 5.53347 -2.08712 0
M  V30 4084 H 382.241 0.745456 -0.113185 0
M  V30 4085 H 384.892 1.57889 -0.935056 0
M  V30 4086 H 383.274 3.95575 0.183353 0
M  V30 4087 H 384.448 3.75655 -2.66871 0
M  V30 4088 H 382.763 3.48376 -2.28086 0
M  V30 4089 H 385.36 5.34279 -0.212125 0
M  V30 4090 H 385.703 4.05962 0.921964 0
M  V30 4091 H 386.236 3.90285 -0.769563 0
M  V30 4092 H 382.975 5.76607 -3.11777 0
M  V30 4093 H 382.495 5.83078 -1.4064 0
M  V30 4094 H 384.174 6.19111 -1.87912 0
M  V30 4095 N 384.306 0.507319 1.49211 0
M  V30 4096 C 385.722 0.163682 1.58758 0
M  V30 4097 C 385.922 -1.33208 1.51188 0
M  V30 4098 O 384.978 -2.10855 1.38911 0
M  V30 4099 C 386.291 0.746095 2.91297 0
M  V30 4100 C 387.839 0.712773 3.04776 0
M  V30 4101 C 388.314 1.27336 4.39943 0
M  V30 4102 N 389.805 1.23433 4.46451 0
M  V30 4103 C 390.54 1.63821 5.495 0
M  V30 4104 N 390.036 2.11832 6.5962 0
M  V30 4105 N 391.829 1.55198 5.4025 0
M  V30 4106 H 383.98 1.47972 1.52375 0
M  V30 4107 H 386.243 0.614147 0.722168 0
M  V30 4108 H 385.949 1.79534 3.02424 0
M  V30 4109 H 385.823 0.210137 3.76614 0
M  V30 4110 H 388.21 -0.327656 2.93275 0
M  V30 4111 H 388.291 1.28595 2.21127 0
M  V30 4112 H 387.935 2.3126 4.52196 0
M  V30 4113 H 387.865 0.676066 5.22242 0
M  V30 4114 H 390.356 0.882627 3.67448 0
M  V30 4115 H 390.669 2.40703 7.34358 0
M  V30 4116 H 389.014 2.1581 6.60644 0
M  V30 4117 H 392.205 1.17505 4.53112 0
M  V30 4118 H 392.378 1.86997 6.20432 0
M  V30 4119 N 385.784 -1.5574 0.241426 0
M  V30 4120 C 386.694 -2.2479 -0.671305 0
M  V30 4121 C 387.71 -1.26217 -1.19772 0
M  V30 4122 O 388.886 -1.59079 -1.23514 0
M  V30 4123 C 385.951 -2.92966 -1.85396 0
M  V30 4124 C 385.012 -4.06935 -1.36756 0
M  V30 4125 C 384.245 -4.71851 -2.49384 0
M  V30 4126 O 384.468 -4.35823 -3.67987 0
M  V30 4127 O 383.402 -5.60467 -2.19454 0
M  V30 4128 H 387.228 -3.0349 -0.112966 0
M  V30 4129 H 384.813 -1.49397 0.0101513 0
M  V30 4130 H 386.695 -3.35927 -2.54423 0
M  V30 4131 H 385.37 -2.17211 -2.40002 0
M  V30 4132 H 384.277 -3.68503 -0.644726 0
M  V30 4133 H 385.61 -4.84492 -0.867647 0
M  V30 4134 N 387.262 0.0317525 -1.57568 0
M  V30 4135 C 388.192 1.03274 -2.0942 0
M  V30 4136 C 389.173 1.3788 -0.996143 0
M  V30 4137 O 390.358 1.46811 -1.27122 0
M  V30 4138 C 387.488 2.33448 -2.57137 0
M  V30 4139 C 386.442 2.13091 -3.71182 0
M  V30 4140 C 385.768 3.49001 -4.05095 0
M  V30 4141 C 387.068 1.51928 -4.99715 0
M  V30 4142 H 388.762 0.60112 -2.93303 0
M  V30 4143 H 386.308 0.287705 -1.41097 0
M  V30 4144 H 388.261 3.03802 -2.92032 0
M  V30 4145 H 386.985 2.78665 -1.70333 0
M  V30 4146 H 385.644 1.45171 -3.36632 0
M  V30 4147 H 385.292 3.91862 -3.15362 0
M  V30 4148 H 384.992 3.36207 -4.81911 0
M  V30 4149 H 386.516 4.20721 -4.42522 0
M  V30 4150 H 387.93 2.12196 -5.32584 0
M  V30 4151 H 386.327 1.49716 -5.81124 0
M  V30 4152 H 387.397 0.484811 -4.8247 0
M  V30 4153 N 388.74 1.54641 0.303973 0
M  V30 4154 C 389.67 1.88386 1.3796 0
M  V30 4155 C 390.651 0.742485 1.5304 0
M  V30 4156 O 391.836 0.997959 1.66597 0
M  V30 4157 C 388.966 2.12854 2.74427 0
M  V30 4158 C 387.92 3.28702 2.74115 0
M  V30 4159 C 387.246 3.38582 4.13844 0
M  V30 4160 C 388.546 4.65881 2.3612 0
M  V30 4161 H 390.24 2.78474 1.09966 0
M  V30 4162 H 387.786 1.33988 0.527556 0
M  V30 4163 H 389.739 2.35047 3.49758 0
M  V30 4164 H 388.463 1.19535 3.03939 0
M  V30 4165 H 387.122 3.06428 2.0124 0
M  V30 4166 H 386.77 2.42784 4.40528 0
M  V30 4167 H 386.47 4.16453 4.14537 0
M  V30 4168 H 387.994 3.63031 4.90959 0
M  V30 4169 H 389.408 4.87823 3.01167 0
M  V30 4170 H 387.805 5.46444 2.48031 0
M  V30 4171 H 388.875 4.66799 1.3125 0
M  V30 4172 N 390.218 -0.567019 1.47046 0
M  V30 4173 C 391.15 -1.68985 1.54844 0
M  V30 4174 C 392.163 -1.56869 0.435431 0
M  V30 4175 O 393.352 -1.64006 0.70457 0
M  V30 4176 C 390.452 -3.07373 1.42742 0
M  V30 4177 C 389.625 -3.45339 2.6844 0
M  V30 4178 C 388.684 -4.62849 2.50314 0
M  V30 4179 O 387.71 -4.67922 3.24095 0
M  V30 4180 N 388.912 -5.58726 1.57499 0
M  V30 4181 H 391.677 -1.62745 2.51663 0
M  V30 4182 H 389.238 -0.753411 1.43302 0
M  V30 4183 H 391.23 -3.83803 1.28365 0
M  V30 4184 H 389.8 -3.07893 0.540445 0
M  V30 4185 H 389.02 -2.58455 2.97648 0
M  V30 4186 H 390.308 -3.67476 3.51907 0
M  V30 4187 H 389.706 -5.57376 0.966876 0
M  V30 4188 H 388.263 -6.34523 1.49078 0
M  V30 4189 N 391.696 -1.35014 -0.812953 0
M  V30 4190 C 392.643 -1.27412 -1.92444 0
M  V30 4191 C 393.613 -0.14733 -1.65445 0
M  V30 4192 O 394.798 -0.329974 -1.87925 0
M  V30 4193 C 391.938 -1.04558 -3.28879 0
M  V30 4194 C 391.051 -2.26101 -3.68106 0
M  V30 4195 C 390.186 -1.96449 -4.9354 0
M  V30 4196 C 389.225 -3.14081 -5.25376 0
M  V30 4197 N 388.362 -2.84246 -6.41988 0
M  V30 4198 H 393.202 -2.22463 -1.98278 0
M  V30 4199 H 390.739 -1.10593 -0.969933 0
M  V30 4200 H 392.697 -0.893413 -4.07522 0
M  V30 4201 H 391.327 -0.131719 -3.22531 0
M  V30 4202 H 390.379 -2.52204 -2.84775 0
M  V30 4203 H 391.691 -3.13959 -3.87597 0
M  V30 4204 H 390.845 -1.78026 -5.79993 0
M  V30 4205 H 389.584 -1.05867 -4.76071 0
M  V30 4206 H 388.589 -3.33089 -4.37415 0
M  V30 4207 H 389.814 -4.05455 -5.44778 0
M  V30 4208 H 387.76 -1.96252 -6.25956 0
M  V30 4209 H 387.677 -3.65637 -6.61699 0
M  V30 4210 H 388.945 -2.6935 -7.31485 0
M  V30 4211 N 393.175 1.03435 -1.18907 0
M  V30 4212 C 394.586 1.58195 -0.991523 0
M  V30 4213 C 394.937 1.90801 0.457081 0
M  V30 4214 O 394.062 1.70272 1.33553 0
M  V30 4215 C 394.657 2.87432 -1.79355 0
M  V30 4216 C 393.216 3.38785 -1.64017 0
M  V30 4217 C 392.363 2.12292 -1.78402 0
M  V30 4218 H 395.314 0.860299 -1.33359 0
M  V30 4219 H 395.335 3.58096 -1.28638 0
M  V30 4220 H 394.847 2.63669 -2.84781 0
M  V30 4221 H 392.948 3.67547 -0.611536 0
M  V30 4222 H 393.061 4.12186 -2.44212 0
M  V30 4223 H 391.425 2.23901 -1.2141 0
M  V30 4224 H 392.208 1.90977 -2.85277 0
M  V30 4225 N 394.653 0.992116 1.22453 0
M  V30 4226 C 395.601 0.534644 2.26372 0
M  V30 4227 C 396.595 -0.414293 1.64256 0
M  V30 4228 O 397.801 -0.286899 1.77699 0
M  V30 4229 H 394.176 0.154502 0.735957 0
M  V30 4230 H 396.147 1.42256 2.62309 0
M  V30 4231 C 394.896 -0.135815 3.47435 0
M  V30 4232 H 394.219 0.585311 3.95492 0
M  V30 4233 H 395.659 -0.419374 4.21921 0
M  V30 4234 C 394.118 -1.37089 3.07747 0
M  V30 4235 O 394.648 -2.46629 3.17076 0
M  V30 4236 N 392.854 -1.24585 2.62539 0
M  V30 4237 H 392.401 -0.354542 2.55149 0
M  V30 4238 H 392.359 -2.07327 2.36353 0
M  V30 4239 N 396.131 -1.37776 0.765217 0
M  V30 4240 C 397.094 -2.28686 0.153416 0
M  V30 4241 C 398.094 -1.47727 -0.635081 0
M  V30 4242 O 399.284 -1.68027 -0.459632 0
M  V30 4243 C 396.416 -3.31608 -0.790495 0
M  V30 4244 H 397.609 -2.84297 0.954723 0
M  V30 4245 H 395.162 -1.46932 0.53299 0
M  V30 4246 H 395.897 -2.81109 -1.61705 0
M  V30 4247 H 395.682 -3.9144 -0.227348 0
M  V30 4248 H 397.172 -3.99559 -1.21419 0
M  V30 4249 N 397.609 -0.515225 -1.4894 0
M  V30 4250 C 399.025 -0.172099 -1.58669 0
M  V30 4251 C 399.225 1.32405 -1.51892 0
M  V30 4252 O 398.281 2.10116 -1.40027 0
M  V30 4253 C 399.594 -0.761533 -2.90897 0
M  V30 4254 C 401.142 -0.728926 -3.04394 0
M  V30 4255 C 401.617 -1.29667 -4.39261 0
M  V30 4256 N 403.108 -1.25799 -4.4579 0
M  V30 4257 C 403.843 -1.66733 -5.48623 0
M  V30 4258 N 403.339 -2.15327 -6.58488 0
M  V30 4259 N 405.132 -1.58061 -5.39419 0
M  V30 4260 H 397.283 -1.48778 -1.51588 0
M  V30 4261 H 399.546 -0.617968 -0.718901 0
M  V30 4262 H 399.252 -1.81136 -3.01468 0
M  V30 4263 H 399.126 -0.230106 -3.76497 0
M  V30 4264 H 401.513 0.312098 -2.93445 0
M  V30 4265 H 401.594 -1.29766 -2.20442 0
M  V30 4266 H 401.238 -2.33655 -4.50963 0
M  V30 4267 H 401.168 -0.703752 -5.21876 0
M  V30 4268 H 403.659 -0.902102 -3.66975 0
M  V30 4269 H 403.972 -2.44594 -7.33071 0
M  V30 4270 H 402.317 -2.19311 -6.59491 0
M  V30 4271 H 405.508 -1.19906 -4.52482 0
M  V30 4272 H 405.681 -1.90284 -6.19432 0
M  V30 4273 N 399.087 1.5561 -0.249682 0
M  V30 4274 C 400.333 1.99306 0.374841 0
M  V30 4275 C 400.666 1.13767 1.57387 0
M  V30 4276 O 399.941 0.201711 1.93451 0
M  V30 4277 C 400.224 3.51507 0.781986 0
M  V30 4278 C 400.077 4.4781 -0.422629 0
M  V30 4279 C 401.396 4.08884 1.62793 0
M  V30 4280 H 398.515 0.724572 0.134773 0
M  V30 4281 H 401.157 1.86719 -0.351549 0
M  V30 4282 H 399.307 3.62363 1.4009 0
M  V30 4283 H 400.979 4.48931 -1.06108 0
M  V30 4284 H 399.222 4.20518 -1.06524 0
M  V30 4285 H 399.893 5.51919 -0.0943766 0
M  V30 4286 H 402.369 4.01147 1.10547 0
M  V30 4287 H 401.245 5.1564 1.88166 0
M  V30 4288 H 401.506 3.57515 2.60068 0
M  V30 4289 N 400.565 -0.0233959 1.57583 0
M  V30 4290 C 401.811 -0.714119 1.89811 0
M  V30 4291 C 402.144 -1.74702 0.848113 0
M  V30 4292 O 401.419 -1.94023 -0.136135 0
M  V30 4293 C 401.702 -1.37853 3.32669 0
M  V30 4294 C 401.555 -0.358764 4.48367 0
M  V30 4295 C 402.874 -2.31101 3.7454 0
M  V30 4296 H 399.993 -0.25814 0.690314 0
M  V30 4297 H 402.635 0.0230927 1.89986 0
M  V30 4298 H 400.785 -2.00689 3.3265 0
M  V30 4299 H 402.457 0.268115 4.6052 0
M  V30 4300 H 400.7 0.321387 4.32608 0
M  V30 4301 H 401.371 -0.862242 5.45224 0
M  V30 4302 H 403.847 -1.78304 3.75961 0
M  V30 4303 H 402.723 -2.74567 4.75294 0
M  V30 4304 H 402.984 -3.18018 3.0711 0
M  V30 4305 N 402.043 -1.548 -0.295768 0
M  V30 4306 C 403.289 -1.74588 -1.03184 0
M  V30 4307 C 403.622 -0.532962 -1.86744 0
M  V30 4308 O 402.897 0.469872 -1.88739 0
M  V30 4309 C 403.18 -3.03791 -1.93347 0
M  V30 4310 C 403.033 -4.35392 -1.12933 0
M  V30 4311 C 404.352 -3.28892 -2.92435 0
M  V30 4312 H 401.471 -0.635221 -0.373715 0
M  V30 4313 H 404.113 -1.87519 -0.30606 0
M  V30 4314 H 402.263 -2.92898 -2.55232 0
M  V30 4315 H 403.935 -4.58211 -0.532943 0
M  V30 4316 H 402.178 -4.31642 -0.432168 0
M  V30 4317 H 402.849 -5.22074 -1.79284 0
M  V30 4318 H 405.325 -3.39429 -2.4068 0
M  V30 4319 H 404.201 -4.20603 -3.52682 0
M  V30 4320 H 404.462 -2.47437 -3.6637 0
M  V30 4321 N 403.521 0.559213 -1.47345 0
M  V30 4322 C 404.451 1.67622 -1.62558 0
M  V30 4323 C 405.432 1.63331 -0.475087 0
M  V30 4324 O 406.617 1.80983 -0.704182 0
M  V30 4325 C 403.747 3.0626 -1.63774 0
M  V30 4326 C 402.701 3.25397 -2.7803 0
M  V30 4327 C 402.027 4.64801 -2.64318 0
M  V30 4328 C 403.327 3.10965 -4.19641 0
M  V30 4329 H 405.021 1.55146 -2.56067 0
M  V30 4330 H 402.567 0.744961 -1.23233 0
M  V30 4331 H 404.52 3.84247 -1.73008 0
M  V30 4332 H 403.244 3.1969 -0.66825 0
M  V30 4333 H 401.903 2.49817 -2.68304 0
M  V30 4334 H 401.551 4.75028 -1.65401 0
M  V30 4335 H 401.251 4.78555 -3.40968 0
M  V30 4336 H 402.775 5.44926 -2.75478 0
M  V30 4337 H 404.189 3.78772 -4.30354 0
M  V30 4338 H 402.586 3.36229 -4.97062 0
M  V30 4339 H 403.656 2.07736 -4.38148 0
M  V30 4340 N 404.999 1.35443 0.805782 0
M  V30 4341 C 406.246 1.28761 1.56291 0
M  V30 4342 C 406.574 -0.137747 1.94012 0
M  V30 4343 O 405.829 -1.1032 1.61642 0
M  V30 4344 C 406.128 2.14045 2.86216 0
M  V30 4345 C 405.794 3.62826 2.67709 0
M  V30 4346 C 404.456 4.0338 2.6237 0
M  V30 4347 C 406.808 4.57227 2.50186 0
M  V30 4348 C 404.136 5.36501 2.37451 0
M  V30 4349 C 406.488 5.90547 2.26797 0
M  V30 4350 C 405.152 6.30245 2.1988 0
M  V30 4351 H 404.422 0.471171 0.571908 0
M  V30 4352 H 407.069 1.67347 0.930974 0
M  V30 4353 H 405.374 1.68342 3.53791 0
M  V30 4354 H 407.071 2.0621 3.43917 0
M  V30 4355 H 403.661 3.30644 2.72713 0
M  V30 4356 H 407.845 4.2678 2.53323 0
M  V30 4357 H 403.101 5.66259 2.30567 0
M  V30 4358 H 407.275 6.63274 2.12228 0
M  V30 4359 H 404.902 7.33328 2.00333 0
M  V30 4360 N 406.477 -1.02803 1.19454 0
M  V30 4361 C 407.41 -2.107 0.876396 0
M  V30 4362 C 408.388 -1.61741 -0.166897 0
M  V30 4363 O 409.572 -1.88451 -0.0430195 0
M  V30 4364 C 406.699 -3.37262 0.311758 0
M  V30 4365 C 405.745 -4.05093 1.33424 0
M  V30 4366 S 406.578 -4.50498 2.89503 0
M  V30 4367 C 407.734 -5.80277 2.34584 0
M  V30 4368 H 407.967 -2.37362 1.79016 0
M  V30 4369 H 405.5 -1.15755 1.02177 0
M  V30 4370 H 407.458 -4.10499 -0.00748752 0
M  V30 4371 H 406.119 -3.08693 -0.58032 0
M  V30 4372 H 405.312 -4.9611 0.888302 0
M  V30 4373 H 404.914 -3.3803 1.60037 0
M  V30 4374 H 407.206 -6.54873 1.73633 0
M  V30 4375 H 408.149 -6.29651 3.23952 0
M  V30 4376 H 408.557 -5.3599 1.77131 0
M  V30 4377 N 407.956 -0.998596 -1.21925 0
M  V30 4378 C 409.372 -0.710303 -1.42923 0
M  V30 4379 C 409.572 0.716933 -1.88314 0
M  V30 4380 O 408.628 1.48712 -2.04062 0
M  V30 4381 C 409.941 -1.72072 -2.466 0
M  V30 4382 C 411.489 -1.73681 -2.60392 0
M  V30 4383 C 411.964 -2.73601 -3.67296 0
M  V30 4384 N 413.455 -2.7223 -3.7476 0
M  V30 4385 C 414.19 -3.46206 -4.57087 0
M  V30 4386 N 413.686 -4.29802 -5.43362 0
M  V30 4387 N 415.479 -3.34886 -4.51451 0
M  V30 4388 H 407.63 -1.92028 -0.9077 0
M  V30 4389 H 409.893 -0.828487 -0.460775 0
M  V30 4390 H 409.599 -2.74231 -2.20206 0
M  V30 4391 H 409.473 -1.51818 -3.45299 0
M  V30 4392 H 411.86 -0.722173 -2.86127 0
M  V30 4393 H 411.941 -1.98005 -1.61949 0
M  V30 4394 H 411.585 -3.75217 -3.42307 0
M  V30 4395 H 411.515 -2.46545 -4.65321 0
M  V30 4396 H 414.006 -2.11576 -3.1312 0
M  V30 4397 H 414.319 -4.83061 -6.03218 0
M  V30 4398 H 412.664 -4.33887 -5.42925 0
M  V30 4399 H 415.855 -2.69015 -3.83078 0
M  V30 4400 H 416.028 -3.92796 -5.15379 0
M  V30 4401 N 409.434 1.37368 -0.772513 0
M  V30 4402 C 410.659 2.0447 -0.347386 0
M  V30 4403 C 411.084 1.57882 1.0225 0
M  V30 4404 O 410.442 0.73941 1.65537 0
M  V30 4405 C 410.49 3.58369 -0.400479 0
M  V30 4406 O 409.594 4.0803 0.598789 0
M  V30 4407 H 408.935 0.646773 -0.15027 0
M  V30 4408 H 411.465 1.75667 -1.04892 0
M  V30 4409 H 411.475 4.07183 -0.258045 0
M  V30 4410 H 410.15 3.91633 -1.39986 0
M  V30 4411 H 408.727 3.70534 0.419411 0
M  V30 4412 N 410.912 0.523116 1.48665 0
M  V30 4413 C 412.189 -0.0775449 1.95446 0
M  V30 4414 C 412.569 -1.5197 1.4652 0
M  V30 4415 O 411.917 -2.17876 0.688657 0
M  V30 4416 C 412.127 0.0326135 3.48985 0
M  V30 4417 C 413.475 -0.130141 4.24401 0
M  V30 4418 O 414.499 -0.0415142 3.56176 0
M  V30 4419 O 413.358 -0.31491 5.45592 0
M  V30 4420 H 410.452 -0.0831012 0.822814 0
M  V30 4421 H 412.998 0.587227 1.59216 0
M  V30 4422 H 411.77 1.03748 3.77296 0
M  V30 4423 H 411.393 -0.671317 3.91892 0
M  V30 4424 N 412.39 -1.55475 0.257931 0
M  V30 4425 C 413.667 -1.91155 -0.414629 0
M  V30 4426 C 414.047 -1.18008 -1.75035 0
M  V30 4427 O 413.395 -0.301193 -2.26506 0
M  V30 4428 C 413.605 -3.44283 -0.571859 0
M  V30 4429 C 414.953 -4.15744 -0.862678 0
M  V30 4430 O 415.977 -3.50083 -0.657314 0
M  V30 4431 O 414.836 -5.31909 -1.2544 0
M  V30 4432 H 411.93 -0.796016 -0.22425 0
M  V30 4433 H 414.476 -1.66976 0.302814 0
M  V30 4434 H 413.248 -3.89558 0.368844 0
M  V30 4435 H 412.871 -3.7436 -1.33943 0
M  V30 4436 N 413.868 0.0150385 -1.57593 0
M  V30 4437 C 415.093 0.718067 -1.94573 0
M  V30 4438 C 415.518 1.6734 -0.859005 0
M  V30 4439 O 414.876 1.80362 0.184147 0
M  V30 4440 C 414.924 1.43918 -3.30636 0
M  V30 4441 O 414.028 2.55299 -3.23876 0
M  V30 4442 H 413.369 0.192125 -0.635597 0
M  V30 4443 H 415.899 -0.0336708 -2.04572 0
M  V30 4444 H 415.909 1.80598 -3.65853 0
M  V30 4445 H 414.584 0.738619 -4.09289 0
M  V30 4446 H 413.161 2.21058 -3.00312 0
M  V30 4447 N 415.346 1.54954 0.287554 0
M  V30 4448 C 416.762 1.46469 0.633964 0
M  V30 4449 C 416.962 0.666865 1.90145 0
M  V30 4450 O 416.018 0.179906 2.51858 0
M  V30 4451 C 417.331 2.90556 0.774454 0
M  V30 4452 C 418.879 3.00681 0.869462 0
M  V30 4453 C 419.354 4.45993 1.04184 0
M  V30 4454 N 420.845 4.4976 1.10772 0
M  V30 4455 C 421.58 5.59393 1.25964 0
M  V30 4456 N 421.076 6.78923 1.37968 0
M  V30 4457 N 422.869 5.47107 1.28959 0
M  V30 4458 H 415.02 2.05288 -0.545041 0
M  V30 4459 H 417.283 0.930305 -0.182308 0
M  V30 4460 H 416.989 3.51594 -0.086207 0
M  V30 4461 H 416.863 3.38743 1.6593 0
M  V30 4462 H 419.25 2.39749 1.7206 0
M  V30 4463 H 419.331 2.55769 -0.0396831 0
M  V30 4464 H 418.975 5.07524 0.195422 0
M  V30 4465 H 418.905 4.88548 1.96542 0
M  V30 4466 H 421.396 3.63651 1.02794 0
M  V30 4467 H 421.709 7.58231 1.49353 0
M  V30 4468 H 420.054 6.81763 1.34999 0
M  V30 4469 H 423.245 4.52668 1.19202 0
M  V30 4470 H 423.418 6.32595 1.40455 0
M  V30 4471 N 416.824 -0.551391 1.4764 0
M  V30 4472 C 417.734 -1.68525 1.63207 0
M  V30 4473 C 418.75 -1.6621 0.514815 0
M  V30 4474 O 419.926 -1.85551 0.783113 0
M  V30 4475 C 416.991 -3.05025 1.64805 0
M  V30 4476 C 416.052 -3.18362 2.88 0
M  V30 4477 C 415.285 -4.4835 2.89513 0
M  V30 4478 O 415.508 -5.34163 2.00065 0
M  V30 4479 O 414.442 -4.65602 3.81443 0
M  V30 4480 H 418.268 -1.58333 2.59161 0
M  V30 4481 H 415.853 -0.722063 1.30792 0
M  V30 4482 H 417.735 -3.86245 1.68502 0
M  V30 4483 H 416.41 -3.15587 0.720197 0
M  V30 4484 H 415.317 -2.36518 2.89845 0
M  V30 4485 H 416.65 -3.12707 3.80099 0
M  V30 4486 N 418.302 -1.35869 -0.798587 0
M  V30 4487 C 419.232 -1.32118 -1.92528 0
M  V30 4488 C 420.213 -0.194209 -1.68988 0
M  V30 4489 O 421.398 -0.390426 -1.90235 0
M  V30 4490 C 418.528 -1.10047 -3.29404 0
M  V30 4491 C 417.482 -2.19471 -3.67446 0
M  V30 4492 C 416.808 -1.82555 -5.02571 0
M  V30 4493 C 418.108 -3.61495 -3.76987 0
M  V30 4494 H 419.802 -2.26394 -1.95924 0
M  V30 4495 H 417.348 -1.08981 -0.94123 0
M  V30 4496 H 419.301 -1.06061 -4.07835 0
M  V30 4497 H 418.025 -0.122195 -3.26371 0
M  V30 4498 H 416.684 -2.22568 -2.91306 0
M  V30 4499 H 416.332 -0.833249 -4.9605 0
M  V30 4500 H 416.032 -2.5581 -5.28995 0
M  V30 4501 H 417.556 -1.80108 -5.83432 0
M  V30 4502 H 418.97 -3.60676 -4.4563 0
M  V30 4503 H 417.367 -4.33577 -4.14887 0
M  V30 4504 H 418.437 -3.97065 -2.78329 0
M  V30 4505 N 419.78 1.02168 -1.19998 0
M  V30 4506 C 421.029 1.75091 -1.0013 0
M  V30 4507 C 421.342 1.89923 0.467835 0
M  V30 4508 O 422.548 2.59888 0.785515 0
M  V30 4509 C 421.004 3.14892 -1.74273 0
M  V30 4510 C 420.612 3.0809 -3.25245 0
M  V30 4511 C 422.356 3.9206 -1.62755 0
M  V30 4512 C 420.263 4.42867 -3.91948 0
M  V30 4513 H 419.193 0.656394 -0.37103 0
M  V30 4514 H 421.844 1.14284 -1.43567 0
M  V30 4515 H 420.226 3.7621 -1.2362 0
M  V30 4516 H 421.4 2.5611 -3.83072 0
M  V30 4517 H 419.715 2.44416 -3.3712 0
M  V30 4518 H 422.312 4.91764 -2.09934 0
M  V30 4519 H 422.655 4.12199 -0.582894 0
M  V30 4520 H 423.188 3.37359 -2.10793 0
M  V30 4521 H 419.927 4.27931 -4.96543 0
M  V30 4522 H 419.447 4.94874 -3.3891 0
M  V30 4523 H 421.126 5.11728 -3.95909 0
M  V30 4524 N 421.258 1.00505 1.21394 0
M  V30 4525 C 422.221 0.570459 2.21987 0
M  V30 4526 C 423.221 -0.353211 1.56873 0
M  V30 4527 O 424.411 -0.14349 1.73608 0
M  V30 4528 C 421.543 -0.168555 3.40483 0
M  V30 4529 H 422.736 1.46021 2.6195 0
M  V30 4530 H 420.289 0.793565 1.34656 0
M  V30 4531 H 421.024 -1.07374 3.06009 0
M  V30 4532 H 420.809 0.494823 3.88965 0
M  V30 4533 H 422.299 -0.460362 4.15055 0
M  V30 4534 N 422.737 -1.36956 0.779787 0
M  V30 4535 C 423.7 -2.2851 0.177662 0
M  V30 4536 C 424.7 -1.48393 -0.619377 0
M  V30 4537 O 425.89 -1.68505 -0.441785 0
M  V30 4538 C 423.022 -3.32428 -0.755279 0
M  V30 4539 H 424.215 -2.83269 0.984823 0
M  V30 4540 H 421.768 -1.46358 0.548544 0
M  V30 4541 H 422.503 -2.82808 -1.58714 0
M  V30 4542 H 422.288 -3.91659 -0.185817 0
M  V30 4543 H 423.778 -4.00824 -1.17174 0
M  V30 4544 N 424.215 -0.530993 -1.48385 0
M  V30 4545 C 425.178 0.220497 -2.28137 0
M  V30 4546 C 426.178 0.866851 -1.35434 0
M  V30 4547 O 427.368 0.726746 -1.58316 0
M  V30 4548 C 424.5 1.31921 -3.1434 0
M  V30 4549 H 425.693 -0.479714 -2.96038 0
M  V30 4550 H 423.246 -0.286968 -1.53643 0
M  V30 4551 H 423.981 2.05264 -2.51072 0
M  V30 4552 H 423.766 0.86085 -3.82533 0
M  V30 4553 H 425.256 1.84776 -3.74497 0
M  V30 4554 N 425.693 1.55336 -0.266172 0
M  V30 4555 C 426.918 2.04258 0.359661 0
M  V30 4556 C 427.343 1.14359 1.49344 0
M  V30 4557 O 426.701 0.140369 1.80756 0
M  V30 4558 C 426.749 3.50997 0.826635 0
M  V30 4559 O 425.853 3.64204 1.93466 0
M  V30 4560 H 425.194 0.659668 0.075727 0
M  V30 4561 H 427.724 2.00694 -0.39786 0
M  V30 4562 H 427.734 3.9219 1.12477 0
M  V30 4563 H 426.409 4.159 -0.00293032 0
M  V30 4564 H 424.986 3.34913 1.63974 0
M  V30 4565 N 427.171 -0.0066808 1.57599 0
M  V30 4566 C 428.587 -0.36267 1.55425 0
M  V30 4567 C 428.787 -1.75209 0.995187 0
M  V30 4568 O 427.843 -2.44616 0.626058 0
M  V30 4569 C 429.156 -0.244017 2.99708 0
M  V30 4570 C 430.704 -0.319451 3.11366 0
M  V30 4571 C 431.179 -0.229998 4.57422 0
M  V30 4572 N 432.67 -0.288105 4.62303 0
M  V30 4573 C 433.405 -0.242127 5.72889 0
M  V30 4574 N 432.901 -0.147133 6.92644 0
M  V30 4575 N 434.694 -0.293502 5.61333 0
M  V30 4576 H 426.845 0.902314 1.92281 0
M  V30 4577 H 429.108 0.34525 0.882896 0
M  V30 4578 H 428.814 0.711678 3.44424 0
M  V30 4579 H 428.688 -1.02877 3.629 0
M  V30 4580 H 431.075 -1.26559 2.66584 0
M  V30 4581 H 431.156 0.495055 2.50964 0
M  V30 4582 H 430.8 0.712566 5.02877 0
M  V30 4583 H 430.73 -1.0629 5.15761 0
M  V30 4584 H 433.221 -0.363126 3.76151 0
M  V30 4585 H 433.534 -0.117763 7.7271 0
M  V30 4586 H 431.879 -0.112857 6.94908 0
M  V30 4587 H 435.07 -0.365864 4.66668 0
M  V30 4588 H 435.243 -0.254204 6.47501 0
M  V30 4589 N 428.649 -1.55105 -0.279332 0
M  V30 4590 C 429.612 -1.86783 -1.32834 0
M  V30 4591 C 430.612 -0.74199 -1.42657 0
M  V30 4592 O 431.802 -1.0102 -1.41918 0
M  V30 4593 C 428.934 -2.06746 -2.71052 0
M  V30 4594 H 430.127 -2.8055 -1.05979 0
M  V30 4595 H 427.68 -1.47499 -0.517087 0
M  V30 4596 H 428.415 -1.15339 -3.03097 0
M  V30 4597 H 428.2 -2.88711 -2.65309 0
M  V30 4598 H 429.69 -2.32549 -3.46858 0
M  V30 4599 N 430.127 0.543554 -1.4793 0
M  V30 4600 C 431.075 1.67039 -1.61866 0
M  V30 4601 C 432.069 1.62294 -0.48549 0
M  V30 4602 O 433.275 1.67315 -0.66376 0
M  V30 4603 H 429.65 0.552954 -0.509652 0
M  V30 4604 H 431.621 1.52426 -2.56533 0
M  V30 4605 C 430.37 3.05357 -1.6629 0
M  V30 4606 H 429.693 3.09696 -2.5284 0
M  V30 4607 H 431.133 3.83855 -1.80088 0
M  V30 4608 C 429.592 3.34531 -0.398861 0
M  V30 4609 O 430.122 3.98649 0.494162 0
M  V30 4610 N 428.328 2.89299 -0.2747 0
M  V30 4611 H 427.875 2.37298 -1.00236 0
M  V30 4612 H 427.833 3.09188 0.570075 0
M  V30 4613 N 431.605 1.3629 0.791371 0
M  V30 4614 C 432.568 1.30309 1.88553 0
M  V30 4615 C 433.568 0.211204 1.59407 0
M  V30 4616 O 434.758 0.465865 1.67855 0
M  V30 4617 C 431.89 1.01956 3.25297 0
M  V30 4618 H 433.083 2.27614 1.95273 0
M  V30 4619 H 430.636 1.21035 0.988953 0
M  V30 4620 H 431.371 0.050998 3.2426 0
M  V30 4621 H 431.156 1.80968 3.4784 0
M  V30 4622 H 432.646 1.0037 4.05359 0
M  V30 4623 N 433.083 -1.0153 1.20538 0
M  V30 4624 C 434.308 -1.79283 1.04271 0
M  V30 4625 C 434.733 -1.8372 -0.403544 0
M  V30 4626 O 434.091 -1.27321 -1.2907 0
M  V30 4627 C 434.139 -3.21535 1.63241 0
M  V30 4628 O 433.243 -4.03099 0.870908 0
M  V30 4629 H 432.584 -0.55293 0.367647 0
M  V30 4630 H 435.114 -1.27696 1.59859 0
M  V30 4631 H 435.124 -3.72243 1.6703 0
M  V30 4632 H 433.799 -3.1762 2.68497 0
M  V30 4633 H 432.376 -3.61693 0.907323 0
M  V30 4634 N 434.561 -1.01147 -1.20859 0
M  V30 4635 C 435.808 -0.697865 -1.90095 0
M  V30 4636 C 436.136 0.772014 -1.78522 0
M  V30 4637 O 435.391 1.57595 -1.16027 0
M  V30 4638 C 435.69 -1.0727 -3.40922 0
M  V30 4639 C 435.356 -2.53792 -3.72693 0
M  V30 4640 C 434.018 -2.93829 -3.81075 0
M  V30 4641 C 436.37 -3.48674 -3.87397 0
M  V30 4642 C 433.698 -4.27696 -4.01613 0
M  V30 4643 C 436.05 -4.82223 -4.09444 0
M  V30 4644 C 434.714 -5.21973 -4.16054 0
M  V30 4645 H 433.984 -0.255367 -0.695607 0
M  V30 4646 H 436.631 -1.27111 -1.43231 0
M  V30 4647 H 434.936 -0.417799 -3.89566 0
M  V30 4648 H 436.633 -0.807818 -3.92779 0
M  V30 4649 H 433.223 -2.21768 -3.66765 0
M  V30 4650 H 437.407 -3.18904 -3.80281 0
M  V30 4651 H 432.663 -4.58055 -4.04964 0
M  V30 4652 H 436.837 -5.55672 -4.19763 0
M  V30 4653 H 434.464 -6.25717 -4.31721 0
M  V30 4654 N 436.039 1.36541 -0.78704 0
M  V30 4655 C 437.267 2.03561 -0.370199 0
M  V30 4656 C 437.682 1.59347 1.01263 0
M  V30 4657 O 437.039 0.781781 1.64907 0
M  V30 4658 C 437.09 3.59033 -0.421614 0
M  V30 4659 O 436.811 4.01634 -1.7499 0
M  V30 4660 C 438.312 4.433 0.00489763 0
M  V30 4661 H 435.532 0.653346 -0.152904 0
M  V30 4662 H 438.076 1.74566 -1.06522 0
M  V30 4663 H 436.231 3.86746 0.224971 0
M  V30 4664 H 436.645 4.96217 -1.69909 0
M  V30 4665 H 438.119 5.51939 -0.0822184 0
M  V30 4666 H 438.596 4.26285 1.05723 0
M  V30 4667 H 439.202 4.20843 -0.614085 0
M  V30 4668 N 437.518 0.538854 1.48102 0
M  V30 4669 C 438.764 0.0161732 2.03394 0
M  V30 4670 C 439.119 -1.31154 1.40771 0
M  V30 4671 O 438.412 -1.83613 0.547421 0
M  V30 4672 C 438.606 -0.153808 3.57069 0
M  V30 4673 C 438.435 1.15588 4.34591 0
M  V30 4674 C 437.205 1.71818 4.75191 0
M  V30 4675 C 439.403 2.06867 4.70861 0
M  V30 4676 N 437.385 2.96983 5.37284 0
M  V30 4677 C 438.756 3.16609 5.33066 0
M  V30 4678 C 440.811 2.07085 4.52791 0
M  V30 4679 C 439.514 4.26645 5.79109 0
M  V30 4680 C 441.54 3.16121 4.99821 0
M  V30 4681 C 440.902 4.24582 5.62058 0
M  V30 4682 H 437.001 0.0476346 0.780548 0
M  V30 4683 H 439.585 0.722094 1.80815 0
M  V30 4684 H 437.756 -0.828825 3.79454 0
M  V30 4685 H 439.488 -0.676896 3.98999 0
M  V30 4686 H 436.243 1.25845 4.56574 0
M  V30 4687 H 436.667 3.60732 5.72889 0
M  V30 4688 H 441.309 1.24522 4.04047 0
M  V30 4689 H 439.027 5.0998 6.26854 0
M  V30 4690 H 442.613 3.17355 4.87624 0
M  V30 4691 H 441.493 5.07562 5.97788 0
M  V30 4692 N 438.996 -1.55193 0.274407 0
M  V30 4693 C 440.242 -1.99877 -0.343086 0
M  V30 4694 C 440.575 -1.16256 -1.55558 0
M  V30 4695 O 439.85 -0.232462 -1.93106 0
M  V30 4696 C 440.133 -3.52706 -0.725965 0
M  V30 4697 C 439.986 -4.47081 0.493818 0
M  V30 4698 C 441.305 -4.11422 -1.56268 0
M  V30 4699 H 438.424 -0.726625 -0.123229 0
M  V30 4700 H 441.066 -1.86136 0.38121 0
M  V30 4701 H 439.216 -3.64546 -1.34307 0
M  V30 4702 H 440.888 -4.47186 1.13237 0
M  V30 4703 H 439.131 -4.1877 1.13201 0
M  V30 4704 H 439.802 -5.51699 0.18217 0
M  V30 4705 H 442.278 -4.02855 -1.04151 0
M  V30 4706 H 441.154 -5.18568 -1.79939 0
M  V30 4707 H 441.415 -3.61607 -2.54348 0
M  V30 4708 N 440.474 -0.00167713 -1.576 0
M  V30 4709 C 441.437 0.974046 -2.07473 0
M  V30 4710 C 442.437 1.27143 -0.984444 0
M  V30 4711 O 443.627 1.21633 -1.24703 0
M  V30 4712 C 440.759 2.29849 -2.51759 0
M  V30 4713 H 441.952 0.54262 -2.9495 0
M  V30 4714 H 439.505 0.245829 -1.54355 0
M  V30 4715 H 440.24 2.77677 -1.67529 0
M  V30 4716 H 440.025 2.09584 -3.31386 0
M  V30 4717 H 441.515 2.9984 -2.90664 0
M  V30 4718 N 441.952 1.55251 0.271103 0
M  V30 4719 C 443.177 1.80306 1.02491 0
M  V30 4720 C 443.602 0.575457 1.79081 0
M  V30 4721 O 442.96 -0.474987 1.74967 0
M  V30 4722 C 443.008 3.02832 1.95768 0
M  V30 4723 O 442.112 2.78051 3.04568 0
M  V30 4724 H 441.453 0.595896 0.292923 0
M  V30 4725 H 443.983 2.02397 0.299436 0
M  V30 4726 H 443.993 3.31616 2.37686 0
M  V30 4727 H 442.668 3.9183 1.39434 0
M  V30 4728 H 441.245 2.60369 2.66951 0
M  V30 4729 N 443.43 -0.535701 1.48216 0
M  V30 4730 C 444.707 -1.29683 1.46429 0
M  V30 4731 C 445.087 -2.10391 0.172852 0
M  V30 4732 O 444.435 -2.12282 -0.845488 0
M  V30 4733 C 444.645 -2.18313 2.72287 0
M  V30 4734 C 445.993 -2.78639 3.20383 0
M  V30 4735 O 447.017 -2.28604 2.73164 0
M  V30 4736 O 445.876 -3.69636 4.02531 0
M  V30 4737 H 442.97 -0.585026 0.584529 0
M  V30 4738 H 445.516 -0.552827 1.60443 0
M  V30 4739 H 444.288 -1.58421 3.57797 0
M  V30 4740 H 443.911 -2.99971 2.60966 0
M  V30 4741 N 444.908 -1.36708 -0.784132 0
M  V30 4742 C 446.156 -1.30972 -1.53918 0
M  V30 4743 C 446.477 0.109086 -1.94695 0
M  V30 4744 O 445.747 1.05048 -1.65353 0
M  V30 4745 H 444.327 -0.481819 -0.570841 0
M  V30 4746 H 446.989 -1.71063 -0.934002 0
M  V30 4747 H 446.085 -1.94061 -2.44431 0
M  V30 4748 N 446.386 1.0089 -1.21074 0
M  V30 4749 C 447.632 1.7497 -1.03717 0
M  V30 4750 C 447.987 1.8764 0.425344 0
M  V30 4751 O 447.28 1.39679 1.3115 0
M  V30 4752 C 447.474 3.16335 -1.66334 0
M  V30 4753 C 447.303 3.17449 -3.18522 0
M  V30 4754 C 446.073 3.2425 -3.87543 0
M  V30 4755 C 448.271 3.02877 -4.15656 0
M  V30 4756 N 446.253 3.14949 -5.26954 0
M  V30 4757 C 447.624 3.0143 -5.41793 0
M  V30 4758 C 449.679 2.8715 -4.06755 0
M  V30 4759 C 448.382 2.85869 -6.60054 0
M  V30 4760 C 450.408 2.72944 -5.24648 0
M  V30 4761 C 449.77 2.72171 -6.49694 0
M  V30 4762 H 445.869 0.650627 -0.43383 0
M  V30 4763 H 448.453 1.19944 -1.53367 0
M  V30 4764 H 446.624 3.69638 -1.19256 0
M  V30 4765 H 448.356 3.78888 -1.42219 0
M  V30 4766 H 445.111 3.31288 -3.38446 0
M  V30 4767 H 445.535 3.13651 -5.9996 0
M  V30 4768 H 450.177 2.86557 -3.10878 0
M  V30 4769 H 447.895 2.8521 -7.56096 0
M  V30 4770 H 451.481 2.61782 -5.19578 0
M  V30 4771 H 450.361 2.61307 -7.39384 0
M  V30 4772 N 447.864 1.01787 1.20321 0
M  V30 4773 C 449.112 0.706538 1.89347 0
M  V30 4774 C 449.433 -0.766289 1.79313 0
M  V30 4775 O 448.703 -1.55126 1.19635 0
M  V30 4776 H 447.283 0.258348 0.700903 0
M  V30 4777 H 449.945 1.28974 1.46122 0
M  V30 4778 H 449.041 0.991066 2.95946 0
M  V30 4779 N 449.342 -1.36122 0.79427 0
M  V30 4780 C 450.305 -2.28309 0.201889 0
M  V30 4781 C 451.305 -1.49041 -0.603603 0
M  V30 4782 O 452.495 -1.68964 -0.423888 0
M  V30 4783 C 449.627 -3.3321 -0.719978 0
M  V30 4784 H 450.82 -2.82208 1.01481 0
M  V30 4785 H 448.373 -1.45768 0.564037 0
M  V30 4786 H 449.108 -2.84475 -1.55706 0
M  V30 4787 H 448.893 -3.91835 -0.144266 0
M  V30 4788 H 450.383 -4.02044 -1.12916 0
M  V30 4789 N 450.82 -0.546701 -1.47814 0
M  V30 4790 C 451.752 0.244196 -2.27895 0
M  V30 4791 C 452.765 0.88911 -1.36377 0
M  V30 4792 O 453.954 0.764733 -1.61289 0
M  V30 4793 C 451.054 1.36252 -3.10304 0
M  V30 4794 C 450.227 0.816382 -4.29714 0
M  V30 4795 C 449.286 1.81789 -4.93801 0
M  V30 4796 O 448.312 1.36818 -5.52512 0
M  V30 4797 N 449.514 3.15085 -4.87547 0
M  V30 4798 H 452.279 -0.442694 -2.96412 0
M  V30 4799 H 449.84 -0.382095 -1.57327 0
M  V30 4800 H 451.832 2.03102 -3.50045 0
M  V30 4801 H 450.402 1.95281 -2.44099 0
M  V30 4802 H 449.622 -0.0285981 -3.9419 0
M  V30 4803 H 450.91 0.430668 -5.06974 0
M  V30 4804 H 450.308 3.54275 -4.41028 0
M  V30 4805 H 448.865 3.77522 -5.31339 0
M  V30 4806 N 452.299 1.55045 -0.282633 0
M  V30 4807 C 453.209 2.26491 0.61147 0
M  V30 4808 C 454.225 1.29348 1.16384 0
M  V30 4809 O 455.401 1.62298 1.19253 0
M  V30 4810 C 452.466 2.97779 1.77563 0
M  V30 4811 C 451.527 4.10418 1.25919 0
M  V30 4812 C 450.76 4.78297 2.36786 0
M  V30 4813 O 450.983 4.45426 3.56303 0
M  V30 4814 O 449.917 5.66089 2.04517 0
M  V30 4815 H 453.743 3.03683 0.0324615 0
M  V30 4816 H 451.328 1.49317 -0.0497576 0
M  V30 4817 H 453.21 3.42554 2.45427 0
M  V30 4818 H 451.885 2.23498 2.34159 0
M  V30 4819 H 450.792 3.70082 0.546797 0
M  V30 4820 H 452.125 4.86622 0.738887 0
M  V30 4821 N 453.777 0.010035 1.57597 0
M  V30 4822 C 455.002 -0.687021 1.95691 0
M  V30 4823 C 455.427 -1.65952 0.885519 0
M  V30 4824 O 454.785 -1.80633 -0.15543 0
M  V30 4825 C 454.833 -1.3864 3.32884 0
M  V30 4826 O 453.937 -2.50115 3.27897 0
M  V30 4827 H 453.278 -0.181989 0.638573 0
M  V30 4828 H 455.808 0.0662122 2.04493 0
M  V30 4829 H 455.818 -1.74754 3.6868 0
M  V30 4830 H 454.493 -0.673411 4.10412 0
M  V30 4831 H 453.07 -2.16253 3.03791 0
M  V30 4832 N 455.255 -1.55392 -0.262866 0
M  V30 4833 C 456.504 -1.75679 -0.990943 0
M  V30 4834 C 456.817 -0.57097 -1.87081 0
M  V30 4835 O 458.023 -0.656486 -2.63444 0
M  V30 4836 C 456.479 -3.10964 -1.81188 0
M  V30 4837 C 456.087 -4.37146 -0.980188 0
M  V30 4838 C 457.831 -3.40597 -2.53365 0
M  V30 4839 C 455.738 -5.63466 -1.7961 0
M  V30 4840 H 454.668 -0.654868 -0.373716 0
M  V30 4841 H 457.319 -1.81841 -0.246203 0
M  V30 4842 H 455.701 -2.98867 -2.59797 0
M  V30 4843 H 456.875 -4.60187 -0.237558 0
M  V30 4844 H 455.19 -4.14731 -0.372497 0
M  V30 4845 H 457.787 -4.32186 -3.14833 0
M  V30 4846 H 458.13 -2.6119 -3.24169 0
M  V30 4847 H 458.663 -3.53838 -1.81779 0
M  V30 4848 H 455.402 -6.4565 -1.13209 0
M  V30 4849 H 454.922 -5.44552 -2.51443 0
M  V30 4850 H 456.601 -6.02139 -2.36723 0
M  V30 4851 N 456.733 0.527833 -1.48498 0
M  V30 4852 C 457.982 1.28003 -1.55878 0
M  V30 4853 C 458.295 1.9414 -0.238577 0
M  V30 4854 O 459.501 2.7083 -0.190643 0
M  V30 4855 C 457.957 2.32272 -2.74914 0
M  V30 4856 C 457.565 1.72196 -4.13585 0
M  V30 4857 C 459.309 3.08488 -2.91608 0
M  V30 4858 C 457.216 2.74417 -5.23879 0
M  V30 4859 H 456.146 0.481413 -0.580308 0
M  V30 4860 H 458.797 0.557195 -1.74836 0
M  V30 4861 H 457.179 3.07601 -2.49395 0
M  V30 4862 H 458.353 1.03041 -4.49132 0
M  V30 4863 H 456.668 1.08464 -4.02025 0
M  V30 4864 H 459.265 3.84879 -3.71177 0
M  V30 4865 H 459.608 3.64481 -2.01145 0
M  V30 4866 H 460.141 2.40274 -3.17038 0
M  V30 4867 H 456.88 2.23242 -6.16314 0
M  V30 4868 H 456.4 3.41893 -4.92818 0
M  V30 4869 H 458.079 3.37362 -5.52083 0
M  V30 4870 N 458.211 1.37122 0.776871 0
M  V30 4871 C 459.158 1.3247 1.88998 0
M  V30 4872 C 460.128 0.191143 1.64997 0
M  V30 4873 O 461.313 0.379683 1.86984 0
M  V30 4874 C 458.453 1.13241 3.25992 0
M  V30 4875 C 457.566 2.35782 3.61982 0
M  V30 4876 C 456.701 2.09465 4.88158 0
M  V30 4877 C 455.74 3.279 5.16864 0
M  V30 4878 N 454.877 3.01167 6.34226 0
M  V30 4879 H 459.717 2.27642 1.9231 0
M  V30 4880 H 457.254 1.13125 0.94027 0
M  V30 4881 H 459.212 1.00115 4.0501 0
M  V30 4882 H 457.842 0.217186 3.22069 0
M  V30 4883 H 456.894 2.59666 2.77989 0
M  V30 4884 H 458.206 3.24125 3.79137 0
M  V30 4885 H 457.36 1.93341 5.75069 0
M  V30 4886 H 456.099 1.18452 4.73097 0
M  V30 4887 H 455.104 3.44569 4.2843 0
M  V30 4888 H 456.329 4.19757 5.33836 0
M  V30 4889 H 454.275 2.12779 6.20533 0
M  V30 4890 H 454.192 3.83052 6.51772 0
M  V30 4891 H 455.46 2.88649 7.24087 0
M  V30 4892 N 459.689 -1.00246 1.21608 0
M  V30 4893 C 460.937 -1.73717 1.0328 0
M  V30 4894 C 461.258 -1.90102 -0.434318 0
M  V30 4895 O 460.528 -1.45376 -1.31311 0
M  V30 4896 H 459.108 -0.643613 0.379172 0
M  V30 4897 H 461.77 -1.20787 1.52959 0
M  V30 4898 H 460.866 -2.73535 1.50283 0
M  V30 4899 N 461.167 -1.02423 -1.1978 0
M  V30 4900 C 462.392 -0.7373 -1.93852 0
M  V30 4901 C 462.817 0.696923 -1.74713 0
M  V30 4902 O 462.175 1.48056 -1.04638 0
M  V30 4903 C 462.223 -1.08783 -3.438 0
M  V30 4904 O 461.327 -0.20383 -4.11896 0
M  V30 4905 H 460.668 -0.27284 -0.605355 0
M  V30 4906 H 463.198 -1.36966 -1.51992 0
M  V30 4907 H 463.208 -1.04276 -3.9445 0
M  V30 4908 H 461.883 -2.13274 -3.57053 0
M  V30 4909 H 460.46 -0.307091 -3.71633 0
M  V30 4910 N 462.645 1.35699 -0.801477 0
M  V30 4911 C 463.555 2.33661 -0.209691 0
M  V30 4912 C 464.571 1.6162 0.644591 0
M  V30 4913 O 465.747 1.93529 0.557545 0
M  V30 4914 C 462.812 3.40816 0.636033 0
M  V30 4915 C 461.873 4.28639 -0.238147 0
M  V30 4916 C 461.106 5.30676 0.567307 0
M  V30 4917 O 461.329 5.41174 1.8024 0
M  V30 4918 O 460.263 6.01887 -0.0391336 0
M  V30 4919 H 464.089 2.8606 -1.01996 0
M  V30 4920 H 461.674 1.38379 -0.563164 0
M  V30 4921 H 463.556 4.06301 1.11791 0
M  V30 4922 H 462.231 2.90696 1.42399 0
M  V30 4923 H 461.138 3.66152 -0.767044 0
M  V30 4924 H 462.471 4.82143 -0.989915 0
M  V30 4925 N 464.123 0.554532 1.47522 0
M  V30 4926 C 465.073 -0.215008 2.26984 0
M  V30 4927 C 466.057 -0.88774 1.34194 0
M  V30 4928 O 467.249 -0.786489 1.58567 0
M  V30 4929 C 464.378 -1.24604 3.19889 0
M  V30 4930 C 463.464 -0.576857 4.20159 0
M  V30 4931 N 463.855 0.351541 5.04577 0
M  V30 4932 C 462.153 -0.831104 4.38188 0
M  V30 4933 C 462.854 0.739995 5.76974 0
M  V30 4934 N 461.83 0.0954407 5.43516 0
M  V30 4935 H 465.632 0.498843 2.89636 0
M  V30 4936 H 463.146 0.374279 1.58028 0
M  V30 4937 H 465.143 -1.81128 3.75498 0
M  V30 4938 H 463.803 -1.96101 2.58794 0
M  V30 4939 H 464.814 0.725556 5.12792 0
M  V30 4940 H 461.491 -1.53479 3.88266 0
M  V30 4941 H 462.881 1.50271 6.5488 0
M  V30 4942 N 465.601 -1.54893 0.290851 0
M  V30 4943 C 466.847 -2.0023 -0.321867 0
M  V30 4944 C 467.18 -1.179 -1.54316 0
M  V30 4945 O 466.455 -0.25293 -1.92848 0
M  V30 4946 C 466.738 -3.53456 -0.688515 0
M  V30 4947 C 466.591 -4.46532 0.541209 0
M  V30 4948 C 467.91 -4.13057 -1.51895 0
M  V30 4949 H 465.029 -0.727891 -0.115515 0
M  V30 4950 H 467.671 -1.85722 0.400931 0
M  V30 4951 H 465.821 -3.6595 -1.30433 0
M  V30 4952 H 467.493 -4.4596 1.17973 0
M  V30 4953 H 465.736 -4.17545 1.17636 0
M  V30 4954 H 466.407 -5.51475 0.240675 0
M  V30 4955 H 468.883 -4.03937 -0.99872 0
M  V30 4956 H 467.759 -5.20448 -1.74429 0
M  V30 4957 H 468.02 -3.64284 -2.50498 0
M  V30 4958 N 467.08 -0.0183926 -1.57589 0
M  V30 4959 C 468.043 0.951986 -2.08494 0
M  V30 4960 C 469.043 1.26092 -0.997874 0
M  V30 4961 O 470.233 1.20304 -1.25987 0
M  V30 4962 C 467.365 2.27165 -2.54182 0
M  V30 4963 H 468.558 0.511307 -2.95509 0
M  V30 4964 H 466.111 0.229444 -1.54607 0
M  V30 4965 H 466.846 2.75884 -1.70465 0
M  V30 4966 H 466.631 2.06057 -3.33591 0
M  V30 4967 H 468.121 2.9674 -2.93828 0
M  V30 4968 N 468.558 1.5553 0.254621 0
M  V30 4969 C 469.788 1.80784 1.00004 0
M  V30 4970 C 470.196 0.59071 1.79742 0
M  V30 4971 O 469.539 -0.449988 1.78103 0
M  V30 4972 C 469.601 2.99268 1.99196 0
M  V30 4973 C 469.265 4.35595 1.38224 0
M  V30 4974 C 470.262 5.13884 0.788611 0
M  V30 4975 C 467.947 4.82281 1.40393 0
M  V30 4976 C 469.941 6.37004 0.224783 0
M  V30 4977 C 467.628 6.05351 0.836243 0
M  V30 4978 C 468.626 6.82551 0.24769 0
M  V30 4979 O 468.314 8.03297 -0.311249 0
M  V30 4980 H 468.046 0.60565 0.300274 0
M  V30 4981 H 470.6 2.03411 0.285143 0
M  V30 4982 H 468.83 2.72377 2.74496 0
M  V30 4983 H 470.519 3.11682 2.60018 0
M  V30 4984 H 471.285 4.78938 0.764423 0
M  V30 4985 H 467.164 4.22189 1.85142 0
M  V30 4986 H 470.708 6.97203 -0.235235 0
M  V30 4987 H 466.605 6.39776 0.857733 0
M  V30 4988 H 467.373 8.1825 -0.20237 0
M  V30 4989 N 470.036 -0.519951 1.48776 0
M  V30 4990 C 471.284 -1.2727 1.56993 0
M  V30 4991 C 471.605 -1.9339 0.25004 0
M  V30 4992 O 470.875 -1.81822 -0.729216 0
M  V30 4993 H 469.455 -0.472732 0.578389 0
M  V30 4994 H 472.117 -0.604234 1.85297 0
M  V30 4995 H 471.213 -2.04669 2.3562 0
M  V30 4996 N 471.514 -1.37532 -0.769588 0
M  V30 4997 C 472.477 -1.33292 -1.86456 0
M  V30 4998 C 473.477 -0.236537 -1.59051 0
M  V30 4999 O 474.667 -0.492511 -1.67093 0
M  V30 5000 C 471.799 -1.07118 -3.23633 0
M  V30 5001 H 472.992 -2.30692 -1.91628 0
M  V30 5002 H 470.545 -1.22593 -0.969572 0
M  V30 5003 H 471.28 -0.102578 -3.24138 0
M  V30 5004 H 471.065 -1.86479 -3.44917 0
M  V30 5005 H 472.555 -1.06806 -4.03711 0
M  V30 5006 N 472.992 0.995999 -1.22138 0
M  V30 5007 C 474.241 1.72928 -1.03821 0
M  V30 5008 C 474.554 1.90872 0.427444 0
M  V30 5009 O 475.76 2.61496 0.730212 0
M  V30 5010 C 474.216 3.11124 -1.80913 0
M  V30 5011 C 473.824 3.01122 -3.31707 0
M  V30 5012 C 475.568 3.8852 -1.71035 0
M  V30 5013 C 473.475 4.34453 -4.01253 0
M  V30 5014 H 472.405 0.648376 -0.384869 0
M  V30 5015 H 475.056 1.11213 -1.45959 0
M  V30 5016 H 473.438 3.73503 -1.31573 0
M  V30 5017 H 474.612 2.47926 -3.88419 0
M  V30 5018 H 472.927 2.3721 -3.42228 0
M  V30 5019 H 475.524 4.872 -2.20318 0
M  V30 5020 H 475.867 4.1087 -0.670196 0
M  V30 5021 H 476.4 3.32812 -2.17902 0
M  V30 5022 H 473.139 4.17303 -5.05508 0
M  V30 5023 H 472.659 4.87574 -3.49331 0
M  V30 5024 H 474.338 5.03215 -4.06674 0
M  V30 5025 N 474.47 1.03057 1.19235 0
M  V30 5026 C 475.698 0.747697 1.92917 0
M  V30 5027 C 476.113 -0.69372 1.75593 0
M  V30 5028 O 475.47 -1.47191 1.07894 0
M  V30 5029 C 475.521 1.09159 3.44625 0
M  V30 5030 O 475.242 2.47641 3.61394 0
M  V30 5031 C 476.743 0.831763 4.35427 0
M  V30 5032 H 473.963 0.273453 0.612751 0
M  V30 5033 H 476.507 1.37552 1.51327 0
M  V30 5034 H 474.662 0.508919 3.84043 0
M  V30 5035 H 475.076 2.60499 4.55237 0
M  V30 5036 H 476.55 1.12233 5.4047 0
M  V30 5037 H 477.027 -0.233769 4.38577 0
M  V30 5038 H 477.633 1.39725 4.01693 0
M  V30 5039 N 475.948 -1.35272 0.808662 0
M  V30 5040 C 476.878 -2.32315 0.234981 0
M  V30 5041 C 477.859 -1.57572 -0.64071 0
M  V30 5042 O 479.044 -1.8563 -0.570551 0
M  V30 5043 C 476.174 -3.41801 -0.615601 0
M  V30 5044 C 475.128 -4.27694 0.161767 0
M  V30 5045 C 474.454 -5.28519 -0.810649 0
M  V30 5046 C 475.754 -5.04231 1.36193 0
M  V30 5047 H 477.448 -2.80543 1.04575 0
M  V30 5048 H 474.994 -1.3488 0.504315 0
M  V30 5049 H 476.947 -4.08693 -1.02702 0
M  V30 5050 H 475.671 -2.92186 -1.45928 0
M  V30 5051 H 474.33 -3.62384 0.554382 0
M  V30 5052 H 473.978 -4.75171 -1.64988 0
M  V30 5053 H 473.678 -5.8686 -0.294822 0
M  V30 5054 H 475.202 -5.98283 -1.22023 0
M  V30 5055 H 476.616 -5.64058 1.02528 0
M  V30 5056 H 475.013 -5.72077 1.81239 0
M  V30 5057 H 476.083 -4.34753 2.14751 0
M  V30 5058 N 477.426 -0.562348 -1.47226 0
M  V30 5059 C 478.336 0.185466 -2.33866 0
M  V30 5060 C 479.352 0.906713 -1.48508 0
M  V30 5061 O 480.528 0.874458 -1.81425 0
M  V30 5062 C 477.593 1.19904 -3.25306 0
M  V30 5063 C 476.654 0.484669 -4.26555 0
M  V30 5064 C 475.887 1.44996 -5.13626 0
M  V30 5065 O 476.11 2.68515 -5.03245 0
M  V30 5066 O 475.044 0.971642 -5.94006 0
M  V30 5067 H 478.87 -0.525361 -2.99121 0
M  V30 5068 H 476.455 -0.322916 -1.45868 0
M  V30 5069 H 478.337 1.78399 -3.81774 0
M  V30 5070 H 477.012 1.8917 -2.62672 0
M  V30 5071 H 475.919 -0.141605 -3.73832 0
M  V30 5072 H 477.252 -0.166634 -4.91918 0
M  V30 5073 N 478.904 1.54736 -0.299062 0
M  V30 5074 C 479.834 2.26409 0.571085 0
M  V30 5075 C 480.815 1.2629 1.13951 0
M  V30 5076 O 482 1.55059 1.16921 0
M  V30 5077 C 479.13 3.00338 1.74396 0
M  V30 5078 C 478.084 4.07588 1.30599 0
M  V30 5079 C 477.41 4.69222 2.56387 0
M  V30 5080 C 478.71 5.20455 0.438645 0
M  V30 5081 H 480.404 2.99388 -0.0266991 0
M  V30 5082 H 477.95 1.43993 -0.0142812 0
M  V30 5083 H 479.903 3.49198 2.35878 0
M  V30 5084 H 478.627 2.24934 2.36796 0
M  V30 5085 H 477.286 3.59575 0.71424 0
M  V30 5086 H 476.934 3.9046 3.17097 0
M  V30 5087 H 476.634 5.41653 2.27784 0
M  V30 5088 H 478.158 5.20844 3.18675 0
M  V30 5089 H 479.572 5.65221 0.959085 0
M  V30 5090 H 477.969 5.99594 0.246466 0
M  V30 5091 H 479.039 4.8192 -0.536738 0
M  V30 5092 N 480.382 0.0267497 1.57577 0
M  V30 5093 C 481.345 -0.940916 2.08996 0
M  V30 5094 C 482.345 -1.25561 1.00455 0
M  V30 5095 O 483.535 -1.19634 1.26623 0
M  V30 5096 C 480.667 -2.25814 2.55384 0
M  V30 5097 H 481.86 -0.495628 2.95776 0
M  V30 5098 H 479.413 -0.221241 1.54726 0
M  V30 5099 H 480.148 -2.74976 1.71926 0
M  V30 5100 H 479.933 -2.04285 3.34679 0
M  V30 5101 H 481.423 -2.95178 2.95398 0
M  V30 5102 N 481.861 -1.55662 -0.24637 0
M  V30 5103 C 483.086 -1.81914 -0.996093 0
M  V30 5104 C 483.511 -0.603875 -1.78143 0
M  V30 5105 O 482.869 0.447091 -1.75701 0
M  V30 5106 C 482.917 -3.05908 -1.90925 0
M  V30 5107 O 482.021 -2.82861 -3.00105 0
M  V30 5108 H 481.362 -0.600481 -0.283406 0
M  V30 5109 H 483.892 -2.02848 -0.267199 0
M  V30 5110 H 483.902 -3.35356 -2.3238 0
M  V30 5111 H 482.577 -3.93999 -1.33183 0
M  V30 5112 H 481.154 -2.64583 -2.62775 0
M  V30 5113 N 483.339 0.512053 -1.4905 0
M  V30 5114 C 484.271 1.63121 -1.6101 0
M  V30 5115 C 485.284 1.55145 -0.493352 0
M  V30 5116 O 486.473 1.61278 -0.764955 0
M  V30 5117 C 483.573 3.01863 -1.54052 0
M  V30 5118 C 482.746 3.35138 -2.81072 0
M  V30 5119 C 481.805 4.5324 -2.67319 0
M  V30 5120 O 480.831 4.55571 -3.41238 0
M  V30 5121 N 482.033 5.52495 -1.78127 0
M  V30 5122 H 484.798 1.53292 -2.5753 0
M  V30 5123 H 482.359 0.699706 -1.45999 0
M  V30 5124 H 484.351 3.78774 -1.42521 0
M  V30 5125 H 482.921 3.05675 -0.654345 0
M  V30 5126 H 482.141 2.4723 -3.07036 0
M  V30 5127 H 483.429 3.54162 -3.65304 0
M  V30 5128 H 482.827 5.53403 -1.17308 0
M  V30 5129 H 481.384 6.28553 -1.72525 0
M  V30 5130 N 484.817 1.37938 0.762283 0
M  V30 5131 C 486.228 1.30094 1.33912 0
M  V30 5132 C 486.579 -0.0472026 1.96143 0
M  V30 5133 O 485.704 -0.94917 1.94473 0
M  V30 5134 C 486.299 2.35592 2.43478 0
M  V30 5135 C 484.858 2.31353 2.96905 0
M  V30 5136 C 484.005 2.18919 1.70205 0
M  V30 5137 H 486.956 1.48423 0.561816 0
M  V30 5138 H 486.977 2.00806 3.23199 0
M  V30 5139 H 486.489 3.33701 1.98155 0
M  V30 5140 H 484.59 1.36799 3.46579 0
M  V30 5141 H 484.703 3.25147 3.51875 0
M  V30 5142 H 483.067 1.65624 1.93496 0
M  V30 5143 H 483.85 3.18956 1.26973 0
M  V30 5144 N 486.295 -0.989507 1.22664 0
M  V30 5145 C 487.541 -1.7321 1.05481 0
M  V30 5146 C 487.874 -1.89852 -0.408635 0
M  V30 5147 O 487.149 -1.44416 -1.30285 0
M  V30 5148 C 487.432 -3.1357 1.77047 0
M  V30 5149 C 487.285 -3.04555 3.31008 0
M  V30 5150 C 488.604 -4.12812 1.5256 0
M  V30 5151 H 485.723 -0.628697 0.384589 0
M  V30 5152 H 488.365 -1.15258 1.51049 0
M  V30 5153 H 486.515 -3.63046 1.3831 0
M  V30 5154 H 488.187 -2.62674 3.7921 0
M  V30 5155 H 486.43 -2.41278 3.6051 0
M  V30 5156 H 487.101 -4.03894 3.76263 0
M  V30 5157 H 489.577 -3.72106 1.86215 0
M  V30 5158 H 488.453 -5.09132 2.05124 0
M  V30 5159 H 488.714 -4.39711 0.458936 0
M  V30 5160 N 487.773 -1.03688 -1.18687 0
M  V30 5161 C 489.189 -0.755413 -1.4059 0
M  V30 5162 C 489.389 0.656659 -1.905 0
M  V30 5163 O 488.445 1.42144 -2.08689 0
M  V30 5164 C 489.758 -1.7983 -2.41001 0
M  V30 5165 C 491.306 -1.81877 -2.54735 0
M  V30 5166 C 491.781 -2.85148 -3.58406 0
M  V30 5167 N 493.272 -2.84015 -3.6591 0
M  V30 5168 C 494.007 -3.60573 -4.45841 0
M  V30 5169 N 493.503 -4.46871 -5.29413 0
M  V30 5170 N 495.296 -3.49079 -4.40568 0
M  V30 5171 H 487.447 -1.94818 -0.846148 0
M  V30 5172 H 489.71 -0.842727 -0.434184 0
M  V30 5173 H 489.416 -2.81097 -2.1137 0
M  V30 5174 H 489.29 -1.62727 -3.40294 0
M  V30 5175 H 491.677 -0.812836 -2.83685 0
M  V30 5176 H 491.758 -2.03057 -1.55568 0
M  V30 5177 H 491.402 -3.85918 -3.30197 0
M  V30 5178 H 491.332 -2.61224 -4.57241 0
M  V30 5179 H 493.823 -2.21431 -3.0623 0
M  V30 5180 H 494.136 -5.02007 -5.87545 0
M  V30 5181 H 492.481 -4.5094 -5.28846 0
M  V30 5182 H 495.672 -2.81066 -3.74325 0
M  V30 5183 H 495.845 -4.08994 -5.02621 0
M  V30 5184 N 489.251 1.34841 -0.815825 0
M  V30 5185 C 490.183 2.28409 -0.190265 0
M  V30 5186 C 491.196 1.50705 0.615771 0
M  V30 5187 O 492.385 1.72822 0.446616 0
M  V30 5188 C 489.485 3.30441 0.752446 0
M  V30 5189 C 488.658 4.37399 -0.00922152 0
M  V30 5190 C 487.717 5.19234 0.853351 0
M  V30 5191 O 486.743 5.68404 0.300919 0
M  V30 5192 N 487.945 5.38248 2.17416 0
M  V30 5193 H 490.71 2.82732 -0.994114 0
M  V30 5194 H 488.271 1.47289 -0.672129 0
M  V30 5195 H 490.263 3.82084 1.33394 0
M  V30 5196 H 488.833 2.76565 1.45707 0
M  V30 5197 H 488.053 3.86567 -0.771979 0
M  V30 5198 H 489.341 5.05992 -0.533807 0
M  V30 5199 H 488.739 4.99961 2.6468 0
M  V30 5200 H 487.296 5.93035 2.70467 0
M  V30 5201 N 490.729 0.570148 1.46925 0
M  V30 5202 C 491.976 0.0509529 2.02436 0
M  V30 5203 C 492.304 -1.30405 1.44308 0
M  V30 5204 O 491.559 -1.86493 0.593198 0
M  V30 5205 C 491.858 -0.0780336 3.57315 0
M  V30 5206 C 491.524 1.20775 4.34424 0
M  V30 5207 C 490.186 1.56004 4.5521 0
M  V30 5208 C 492.538 2.0592 4.78797 0
M  V30 5209 C 489.866 2.76201 5.17619 0
M  V30 5210 C 492.218 3.25332 5.42533 0
M  V30 5211 C 490.882 3.60859 5.61549 0
M  V30 5212 H 490.152 0.018645 0.740765 0
M  V30 5213 H 492.799 0.744262 1.76445 0
M  V30 5214 H 491.104 -0.854394 3.82371 0
M  V30 5215 H 492.801 -0.495312 3.97929 0
M  V30 5216 H 489.391 0.923469 4.18533 0
M  V30 5217 H 493.575 1.80008 4.62505 0
M  V30 5218 H 488.831 3.0388 5.30535 0
M  V30 5219 H 493.005 3.91586 5.75876 0
M  V30 5220 H 490.632 4.54088 6.09678 0
M  V30 5221 N 492.207 -1.54576 0.307264 0
M  V30 5222 C 493.484 -1.92377 -0.353605 0
M  V30 5223 C 493.864 -1.23517 -1.71192 0
M  V30 5224 O 493.212 -0.373101 -2.25433 0
M  V30 5225 C 493.422 -3.45928 -0.462039 0
M  V30 5226 C 494.77 -4.18278 -0.729975 0
M  V30 5227 O 495.794 -3.51997 -0.545605 0
M  V30 5228 O 494.653 -5.3563 -1.08454 0
M  V30 5229 H 491.747 -0.802747 -0.198812 0
M  V30 5230 H 494.293 -1.65929 0.355783 0
M  V30 5231 H 493.065 -3.88187 0.492592 0
M  V30 5232 H 492.688 -3.78431 -1.21965 0
M  V30 5233 N 493.685 -0.035106 -1.57561 0
M  V30 5234 C 495.101 0.321334 -1.56332 0
M  V30 5235 C 495.301 1.72509 -1.04129 0
M  V30 5236 O 494.357 2.4287 -0.690694 0
M  V30 5237 C 495.67 0.164469 -3.0025 0
M  V30 5238 C 497.218 0.236786 -3.12103 0
M  V30 5239 C 497.693 0.10864 -4.57871 0
M  V30 5240 N 499.184 0.165433 -4.62904 0
M  V30 5241 C 499.919 0.0901506 -5.73329 0
M  V30 5242 N 499.415 -0.0365606 -6.9279 0
M  V30 5243 N 501.208 0.144572 -5.61914 0
M  V30 5244 H 493.359 -0.952976 -1.89821 0
M  V30 5245 H 495.622 -0.368537 -0.873432 0
M  V30 5246 H 495.328 -0.802746 -3.42416 0
M  V30 5247 H 495.202 0.932194 -3.655 0
M  V30 5248 H 497.589 1.19446 -2.69845 0
M  V30 5249 H 497.67 -0.561419 -2.49563 0
M  V30 5250 H 497.314 -0.845644 -5.00811 0
M  V30 5251 H 497.244 0.925786 -5.18398 0
M  V30 5252 H 499.735 0.263269 -3.76982 0
M  V30 5253 H 500.048 -0.0871487 -7.72751 0
M  V30 5254 H 498.393 -0.0714256 -6.94963 0
M  V30 5255 H 501.584 0.242006 -4.67474 0
M  V30 5256 H 501.757 0.0824413 -6.47948 0
M  V30 5257 N 495.163 1.55791 0.238111 0
M  V30 5258 C 496.393 1.81834 0.980809 0
M  V30 5259 C 496.801 0.609741 1.79106 0
M  V30 5260 O 496.144 -0.431073 1.78571 0
M  V30 5261 C 496.206 3.01363 1.96011 0
M  V30 5262 C 495.87 4.37037 1.33597 0
M  V30 5263 C 496.867 5.14692 0.734063 0
M  V30 5264 C 494.552 4.83743 1.3527 0
M  V30 5265 C 496.546 6.37206 0.157208 0
M  V30 5266 C 494.233 6.06204 0.77199 0
M  V30 5267 C 495.231 6.82775 0.175282 0
M  V30 5268 O 494.919 8.02922 -0.396432 0
M  V30 5269 H 494.651 0.6088 0.293834 0
M  V30 5270 H 497.205 2.03702 0.263552 0
M  V30 5271 H 495.435 2.75273 2.71591 0
M  V30 5272 H 497.124 3.14422 2.56697 0
M  V30 5273 H 497.89 4.79722 0.713582 0
M  V30 5274 H 493.769 4.24129 1.80653 0
M  V30 5275 H 497.313 6.96915 -0.30917 0
M  V30 5276 H 493.21 6.4065 0.789828 0
M  V30 5277 H 493.978 8.17989 -0.289145 0
M  V30 5278 N 496.642 -0.504142 1.49319 0
M  V30 5279 C 497.889 -1.25846 1.58647 0
M  V30 5280 C 498.217 -1.92592 0.27177 0
M  V30 5281 O 497.472 -1.81167 -0.74007 0
M  V30 5282 C 497.771 -2.35021 2.69258 0
M  V30 5283 C 497.437 -1.85755 4.1086 0
M  V30 5284 C 496.099 -1.72038 4.49395 0
M  V30 5285 C 498.451 -1.48844 4.99495 0
M  V30 5286 C 495.779 -1.19783 5.74342 0
M  V30 5287 C 498.131 -0.980422 6.24956 0
M  V30 5288 C 496.795 -0.829622 6.62324 0
M  V30 5289 H 496.065 -0.460505 0.580531 0
M  V30 5290 H 498.712 -0.559716 1.83138 0
M  V30 5291 H 497.017 -3.10672 2.38726 0
M  V30 5292 H 498.714 -2.93083 2.73685 0
M  V30 5293 H 495.304 -1.9739 3.80441 0
M  V30 5294 H 499.488 -1.5829 4.70381 0
M  V30 5295 H 494.744 -1.06817 6.01997 0
M  V30 5296 H 498.918 -0.685608 6.93017 0
M  V30 5297 H 496.545 -0.42253 7.59025 0
M  V30 5298 N 498.12 -1.38341 -0.754957 0
M  V30 5299 C 499.052 -1.31347 -1.87831 0
M  V30 5300 C 500.065 -0.225955 -1.61224 0
M  V30 5301 O 501.254 -0.48341 -1.7183 0
M  V30 5302 C 498.354 -1.01201 -3.23437 0
M  V30 5303 C 497.527 -2.20834 -3.77559 0
M  V30 5304 C 496.586 -1.87454 -4.91678 0
M  V30 5305 O 495.612 -2.59934 -5.06382 0
M  V30 5306 N 496.814 -0.828682 -5.74555 0
M  V30 5307 H 499.579 -2.28147 -1.94342 0
M  V30 5308 H 497.14 -1.32184 -0.934828 0
M  V30 5309 H 499.132 -0.769249 -3.97322 0
M  V30 5310 H 497.702 -0.132011 -3.12321 0
M  V30 5311 H 496.922 -2.61184 -2.95256 0
M  V30 5312 H 498.21 -3.00678 -4.10451 0
M  V30 5313 H 497.608 -0.227591 -5.65242 0
M  V30 5314 H 496.165 -0.645802 -6.48593 0
M  V30 5315 N 499.598 0.982988 -1.23187 0
M  V30 5316 C 500.823 1.76455 -1.08988 0
M  V30 5317 C 501.248 1.84726 0.354691 0
M  V30 5318 O 500.606 1.30699 1.25649 0
M  V30 5319 C 500.654 3.17094 -1.71708 0
M  V30 5320 O 499.758 4.00648 -0.977477 0
M  V30 5321 H 499.099 0.542988 -0.382177 0
M  V30 5322 H 501.629 1.23413 -1.63188 0
M  V30 5323 H 501.639 3.67684 -1.76841 0
M  V30 5324 H 500.314 3.10389 -2.76823 0
M  V30 5325 H 498.891 3.59161 -1.0029 0
M  V30 5326 N 501.076 1.04316 1.18135 0
M  V30 5327 C 502.006 0.657299 2.24058 0
M  V30 5328 C 502.987 -0.340678 1.66654 0
M  V30 5329 O 504.172 -0.220223 1.92947 0
M  V30 5330 C 501.302 0.0220715 3.47293 0
M  V30 5331 C 500.256 0.943857 4.17463 0
M  V30 5332 C 499.582 0.172973 5.3442 0
M  V30 5333 C 500.882 2.26409 4.70677 0
M  V30 5334 H 502.576 1.5428 2.56589 0
M  V30 5335 H 500.122 0.743263 1.23335 0
M  V30 5336 H 502.075 -0.259607 4.206 0
M  V30 5337 H 500.799 -0.898323 3.14003 0
M  V30 5338 H 499.458 1.20996 3.46057 0
M  V30 5339 H 499.106 -0.749907 4.97379 0
M  V30 5340 H 498.806 0.787098 5.82304 0
M  V30 5341 H 500.33 -0.101628 6.10515 0
M  V30 5342 H 501.744 2.04294 5.35665 0
M  V30 5343 H 500.141 2.8314 5.29105 0
M  V30 5344 H 501.211 2.90883 3.87962 0
M  V30 5345 N 502.554 -1.34406 0.822964 0
M  V30 5346 C 503.502 -2.31428 0.233165 0
M  V30 5347 C 504.496 -1.57404 -0.626118 0
M  V30 5348 O 505.702 -1.72402 -0.517453 0
M  V30 5349 H 502.077 -0.749863 0.0566557 0
M  V30 5350 H 504.048 -2.78699 1.06628 0
M  V30 5351 C 502.797 -3.42653 -0.590264 0
M  V30 5352 H 502.12 -3.99753 0.0616129 0
M  V30 5353 H 503.56 -4.12778 -0.969054 0
M  V30 5354 C 502.019 -2.87112 -1.76262 0
M  V30 5355 O 502.549 -2.81995 -2.8608 0
M  V30 5356 N 500.755 -2.43934 -1.57938 0
M  V30 5357 H 500.302 -2.48296 -0.686078 0
M  V30 5358 H 500.26 -2.07123 -2.36532 0
M  V30 5359 N 504.032 -0.577932 -1.46621 0
M  V30 5360 C 505.443 -0.150071 -1.86096 0
M  V30 5361 C 505.794 1.28563 -1.48209 0
M  V30 5362 O 504.919 1.97036 -0.894754 0
M  V30 5363 C 505.514 -0.265576 -3.37758 0
M  V30 5364 C 504.073 0.10738 -3.76247 0
M  V30 5365 C 503.22 -0.603711 -2.70649 0
M  V30 5366 H 506.171 -0.786438 -1.37844 0
M  V30 5367 H 506.192 0.510352 -3.77062 0
M  V30 5368 H 505.704 -1.3106 -3.65301 0
M  V30 5369 H 503.805 1.15272 -3.54321 0
M  V30 5370 H 503.918 -0.26561 -4.78363 0
M  V30 5371 H 502.282 -0.0444884 -2.54661 0
M  V30 5372 H 503.065 -1.65029 -3.01032 0
M  V30 5373 N 505.51 1.54411 -0.315457 0
M  V30 5374 C 506.74 2.04536 0.291315 0
M  V30 5375 C 507.148 1.19162 1.4696 0
M  V30 5376 O 506.491 0.213199 1.82459 0
M  V30 5377 C 506.553 3.5056 0.796725 0
M  V30 5378 C 506.217 4.5627 -0.258178 0
M  V30 5379 C 507.214 5.08312 -1.09153 0
M  V30 5380 C 504.899 5.00672 -0.404036 0
M  V30 5381 C 506.893 6.03312 -2.05655 0
M  V30 5382 C 504.58 5.95488 -1.37248 0
M  V30 5383 C 505.578 6.46693 -2.19721 0
M  V30 5384 O 505.266 7.39648 -3.14921 0
M  V30 5385 H 504.998 0.672856 0.0651165 0
M  V30 5386 H 507.552 2.00244 -0.457308 0
M  V30 5387 H 505.782 3.52223 1.59612 0
M  V30 5388 H 507.471 3.83804 1.32096 0
M  V30 5389 H 508.237 4.74793 -0.98979 0
M  V30 5390 H 504.116 4.60436 0.22799 0
M  V30 5391 H 507.66 6.43203 -2.70067 0
M  V30 5392 H 503.557 6.28424 -1.47489 0
M  V30 5393 H 504.325 7.57496 -3.10067 0
M  V30 5394 N 506.988 0.0434614 1.5754 0
M  V30 5395 C 507.936 -0.951465 2.1225 0
M  V30 5396 C 508.93 -1.3274 1.05245 0
M  V30 5397 O 510.136 -1.30795 1.23663 0
M  V30 5398 H 506.511 -0.324667 0.678303 0
M  V30 5399 H 508.482 -0.464855 2.94757 0
M  V30 5400 C 507.231 -2.21972 2.67626 0
M  V30 5401 H 506.554 -1.93923 3.4962 0
M  V30 5402 H 507.994 -2.89765 3.09536 0
M  V30 5403 C 506.453 -2.95919 1.61038 0
M  V30 5404 O 506.983 -3.8857 1.01862 0
M  V30 5405 N 505.189 -2.58511 1.32741 0
M  V30 5406 H 504.736 -1.83244 1.81051 0
M  V30 5407 H 504.694 -3.08296 0.616531 0
M  V30 5408 N 508.466 -1.55915 -0.229846 0
M  V30 5409 C 509.414 -1.9258 -1.30444 0
M  V30 5410 C 510.408 -0.806839 -1.48951 0
M  V30 5411 O 511.614 -0.991606 -1.50224 0
M  V30 5412 H 507.989 -0.611878 -0.437161 0
M  V30 5413 H 509.96 -2.82264 -0.96797 0
M  V30 5414 C 508.709 -2.25171 -2.6494 0
M  V30 5415 H 508.032 -3.10782 -2.51504 0
M  V30 5416 H 509.472 -2.54716 -3.38963 0
M  V30 5417 C 507.931 -1.07394 -3.19324 0
M  V30 5418 O 508.461 -0.330759 -4.00336 0
M  V30 5419 N 506.667 -0.859984 -2.77584 0
M  V30 5420 H 506.214 -1.46605 -2.11813 0
M  V30 5421 H 506.172 -0.0736671 -3.14314 0
M  V30 5422 N 509.944 0.496216 -1.49584 0
M  V30 5423 C 510.894 1.59422 -1.62999 0
M  V30 5424 C 511.878 1.53402 -0.485457 0
M  V30 5425 O 513.07 1.60851 -0.738649 0
M  V30 5426 C 510.199 2.98009 -1.70427 0
M  V30 5427 C 509.285 3.09008 -2.90473 0
M  V30 5428 N 509.676 2.89884 -4.14489 0
M  V30 5429 C 507.974 3.40115 -2.8851 0
M  V30 5430 C 508.675 3.0519 -4.95211 0
M  V30 5431 N 507.651 3.3428 -4.2867 0
M  V30 5432 H 511.453 1.43297 -2.56599 0
M  V30 5433 H 508.967 0.702443 -1.46422 0
M  V30 5434 H 510.964 3.76926 -1.78136 0
M  V30 5435 H 509.624 3.152 -0.77967 0
M  V30 5436 H 510.635 2.65963 -4.44392 0
M  V30 5437 H 507.312 3.63452 -2.05448 0
M  V30 5438 H 508.702 2.94856 -6.03746 0
M  V30 5439 N 511.423 1.38739 0.74761 0
M  V30 5440 C 512.839 1.20067 1.05148 0
M  V30 5441 C 513.039 0.0534835 2.01429 0
M  V30 5442 O 512.095 -0.59886 2.45296 0
M  V30 5443 C 513.408 2.52957 1.62584 0
M  V30 5444 C 514.956 2.59692 1.74726 0
M  V30 5445 C 515.431 3.92772 2.35573 0
M  V30 5446 N 516.922 3.94343 2.42997 0
M  V30 5447 C 517.657 4.9408 2.90985 0
M  V30 5448 N 517.153 6.04214 3.38965 0
M  V30 5449 N 518.946 4.81466 2.9008 0
M  V30 5450 H 511.097 2.12121 0.108808 0
M  V30 5451 H 513.36 0.941491 0.110899 0
M  V30 5452 H 513.066 3.37389 0.993051 0
M  V30 5453 H 512.94 2.71779 2.61565 0
M  V30 5454 H 515.327 1.75651 2.3713 0
M  V30 5455 H 515.408 2.44731 0.744326 0
M  V30 5456 H 515.052 4.77238 1.738 0
M  V30 5457 H 514.982 4.05046 3.36519 0
M  V30 5458 H 517.473 3.14799 2.0907 0
M  V30 5459 H 517.786 6.76241 3.74056 0
M  V30 5460 H 516.131 6.07825 3.37007 0
M  V30 5461 H 519.322 3.94535 2.51912 0
M  V30 5462 H 519.495 5.59344 3.27166 0
M  V30 5463 N 512.901 -0.976442 1.23707 0
M  V30 5464 C 513.849 -2.09078 1.01927 0
M  V30 5465 C 514.843 -1.69345 -0.0430193 0
M  V30 5466 O 516.049 -1.79659 0.110814 0
M  V30 5467 H 512.424 -0.68398 0.312531 0
M  V30 5468 H 514.395 -2.24614 1.96447 0
M  V30 5469 C 513.144 -3.41919 0.631385 0
M  V30 5470 H 512.467 -3.72946 1.44053 0
M  V30 5471 H 513.907 -4.20817 0.518532 0
M  V30 5472 C 512.366 -3.30357 -0.660723 0
M  V30 5473 O 512.896 -3.63542 -1.70881 0
M  V30 5474 N 511.102 -2.83507 -0.638139 0
M  V30 5475 H 510.649 -2.567 0.215108 0
M  V30 5476 H 510.607 -2.76153 -1.50289 0
M  V30 5477 N 514.379 -1.04941 -1.1758 0
M  V30 5478 C 515.79 -0.784501 -1.69418 0
M  V30 5479 C 516.141 0.693625 -1.8353 0
M  V30 5480 O 515.266 1.53925 -1.52106 0
M  V30 5481 C 515.861 -1.41746 -3.07723 0
M  V30 5482 C 514.42 -1.20066 -3.56737 0
M  V30 5483 C 513.567 -1.5026 -2.33061 0
M  V30 5484 H 516.518 -1.21469 -1.02133 0
M  V30 5485 H 516.539 -0.825381 -3.7144 0
M  V30 5486 H 516.051 -2.49325 -2.9742 0
M  V30 5487 H 514.152 -0.144006 -3.72322 0
M  V30 5488 H 514.265 -1.90384 -4.39648 0
M  V30 5489 H 512.629 -0.922598 -2.37403 0
M  V30 5490 H 513.412 -2.58967 -2.25368 0
M  V30 5491 N 515.857 1.33968 -0.830081 0
M  V30 5492 C 517.103 1.98773 -0.431394 0
M  V30 5493 C 517.458 1.64598 0.99626 0
M  V30 5494 O 516.751 0.911022 1.68555 0
M  V30 5495 C 516.945 3.52679 -0.57898 0
M  V30 5496 C 516.774 4.01807 -2.01943 0
M  V30 5497 C 515.544 4.30062 -2.65282 0
M  V30 5498 C 517.742 4.18663 -2.98707 0
M  V30 5499 N 515.724 4.65272 -4.00493 0
M  V30 5500 C 517.095 4.57133 -4.18843 0
M  V30 5501 C 519.15 4.00929 -2.95229 0
M  V30 5502 C 517.853 4.79723 -5.35965 0
M  V30 5503 C 519.879 4.2469 -4.11573 0
M  V30 5504 C 519.241 4.63454 -5.30462 0
M  V30 5505 H 515.34 0.75435 -0.206107 0
M  V30 5506 H 517.924 1.62247 -1.07629 0
M  V30 5507 H 516.095 3.88383 0.0360632 0
M  V30 5508 H 517.827 4.04412 -0.152596 0
M  V30 5509 H 514.582 4.21231 -2.16475 0
M  V30 5510 H 515.006 4.87101 -4.70172 0
M  V30 5511 H 519.648 3.70082 -2.04448 0
M  V30 5512 H 517.366 5.09434 -6.27297 0
M  V30 5513 H 520.952 4.12497 -4.10289 0
M  V30 5514 H 519.832 4.81476 -6.18992 0
M  V30 5515 N 517.335 0.585699 1.46312 0
M  V30 5516 C 518.582 0.0724211 2.0237 0
M  V30 5517 C 518.91 -1.28868 1.45683 0
M  V30 5518 O 518.165 -1.85853 0.612945 0
M  V30 5519 C 518.464 -0.0401312 3.57377 0
M  V30 5520 C 518.13 1.25376 4.33119 0
M  V30 5521 C 516.792 1.60824 4.5353 0
M  V30 5522 C 519.144 2.10987 4.76586 0
M  V30 5523 C 516.472 2.81676 5.14661 0
M  V30 5524 C 518.824 3.31068 5.39052 0
M  V30 5525 C 517.488 3.66794 5.5769 0
M  V30 5526 H 516.758 0.0265007 0.740526 0
M  V30 5527 H 519.405 0.762935 1.75646 0
M  V30 5528 H 517.71 -0.813791 3.83255 0
M  V30 5529 H 519.407 -0.453078 3.98432 0
M  V30 5530 H 515.997 0.967808 4.1753 0
M  V30 5531 H 520.181 1.84904 4.60569 0
M  V30 5532 H 515.437 3.0949 5.27282 0
M  V30 5533 H 519.611 3.97672 5.71691 0
M  V30 5534 H 517.238 4.60529 6.04828 0
M  V30 5535 N 518.813 -1.54241 0.323641 0
M  V30 5536 C 520.229 -1.59574 -0.0290018 0
M  V30 5537 C 520.429 -1.34017 -1.50472 0
M  V30 5538 O 519.485 -1.12464 -2.26071 0
M  V30 5539 C 520.798 -2.98169 0.389295 0
M  V30 5540 C 522.346 -3.11148 0.339958 0
M  V30 5541 C 522.821 -4.5209 0.733418 0
M  V30 5542 N 524.312 -4.5808 0.686827 0
M  V30 5543 C 525.047 -5.65248 0.963464 0
M  V30 5544 N 524.543 -6.80355 1.30724 0
M  V30 5545 N 526.336 -5.55025 0.88902 0
M  V30 5546 H 518.487 -1.6911 1.28512 0
M  V30 5547 H 520.75 -0.790972 0.522558 0
M  V30 5548 H 520.456 -3.21871 1.41746 0
M  V30 5549 H 520.33 -3.76399 -0.245657 0
M  V30 5550 H 522.717 -2.87182 -0.679002 0
M  V30 5551 H 522.798 -2.35023 1.00985 0
M  V30 5552 H 522.442 -4.76788 1.75029 0
M  V30 5553 H 522.372 -5.26584 0.0412189 0
M  V30 5554 H 524.863 -3.75411 0.43298 0
M  V30 5555 H 525.176 -7.58029 1.5037 0
M  V30 5556 H 523.521 -6.81851 1.3455 0
M  V30 5557 H 526.712 -4.63977 0.619939 0
M  V30 5558 H 526.885 -6.38458 1.10797 0
M  V30 5559 N 520.291 -0.0518155 -1.57515 0
M  V30 5560 C 521.568 0.661727 -1.84067 0
M  V30 5561 C 521.948 1.88999 -0.940351 0
M  V30 5562 O 521.296 2.285 -0.00155404 0
M  V30 5563 C 521.506 1.01841 -3.3381 0
M  V30 5564 C 522.854 1.40043 -4.00841 0
M  V30 5565 O 523.878 1.11073 -3.38439 0
M  V30 5566 O 522.737 1.94111 -5.10865 0
M  V30 5567 H 519.831 0.326702 -0.759733 0
M  V30 5568 H 522.377 -0.0812277 -1.69505 0
M  V30 5569 H 521.149 0.145202 -3.91031 0
M  V30 5570 H 520.772 1.81879 -3.53562 0
M  V30 5571 N 521.769 1.56035 0.221574 0
M  V30 5572 C 523.016 1.79047 0.94597 0
M  V30 5573 C 523.344 0.62057 1.84334 0
M  V30 5574 O 522.599 -0.395053 1.91671 0
M  V30 5575 C 522.898 3.07813 1.8162 0
M  V30 5576 C 522.564 4.3797 1.07206 0
M  V30 5577 C 521.226 4.73334 0.866508 0
M  V30 5578 C 523.578 5.18326 0.546565 0
M  V30 5579 C 520.906 5.8657 0.123549 0
M  V30 5580 C 523.258 6.32335 -0.18305 0
M  V30 5581 C 521.922 6.66301 -0.399861 0
M  V30 5582 H 521.192 0.655178 0.346155 0
M  V30 5583 H 523.839 1.90299 0.214146 0
M  V30 5584 H 522.144 2.91682 2.61589 0
M  V30 5585 H 523.841 3.2282 2.37884 0
M  V30 5586 H 520.431 4.10202 1.24226 0
M  V30 5587 H 524.615 4.9144 0.692847 0
M  V30 5588 H 519.871 6.11376 -0.0546591 0
M  V30 5589 H 524.045 6.9383 -0.59775 0
M  V30 5590 H 521.672 7.53889 -0.977489 0
M  V30 5591 N 523.247 -0.488276 1.49845 0
M  V30 5592 C 524.493 -1.24065 1.61182 0
M  V30 5593 C 524.848 -1.9004 0.300435 0
M  V30 5594 O 524.141 -1.78341 -0.700365 0
M  V30 5595 C 524.335 -2.32152 2.71735 0
M  V30 5596 C 524.164 -1.76778 4.13497 0
M  V30 5597 C 522.934 -1.57513 4.80123 0
M  V30 5598 C 525.132 -1.27242 4.98311 0
M  V30 5599 N 523.114 -0.972015 6.06156 0
M  V30 5600 C 524.485 -0.791457 6.14928 0
M  V30 5601 C 526.54 -1.15934 4.84214 0
M  V30 5602 C 525.243 -0.208593 7.18997 0
M  V30 5603 C 527.269 -0.590436 5.88445 0
M  V30 5604 C 526.631 -0.119767 7.04298 0
M  V30 5605 H 522.73 -0.443487 0.644083 0
M  V30 5606 H 525.314 -0.545551 1.86901 0
M  V30 5607 H 523.485 -2.99108 2.47768 0
M  V30 5608 H 525.217 -2.99187 2.72523 0
M  V30 5609 H 521.972 -1.82247 4.37131 0
M  V30 5610 H 522.396 -0.689367 6.73481 0
M  V30 5611 H 527.038 -1.5092 3.94947 0
M  V30 5612 H 524.756 0.153501 8.07954 0
M  V30 5613 H 528.342 -0.505548 5.79599 0
M  V30 5614 H 527.222 0.313568 7.83573 0
M  V30 5615 N 524.725 -1.39134 -0.740242 0
M  V30 5616 C 525.635 -1.39697 -1.88473 0
M  V30 5617 C 526.651 -0.292403 -1.71526 0
M  V30 5618 O 527.827 -0.533021 -1.94219 0
M  V30 5619 C 524.892 -1.23382 -3.24003 0
M  V30 5620 C 523.953 -2.43763 -3.53381 0
M  V30 5621 C 523.186 -2.28216 -4.82445 0
M  V30 5622 O 523.409 -1.28288 -5.55786 0
M  V30 5623 O 522.343 -3.1709 -5.11603 0
M  V30 5624 H 526.169 -2.36159 -1.90952 0
M  V30 5625 H 523.754 -1.20194 -0.887346 0
M  V30 5626 H 525.636 -1.16395 -4.05006 0
M  V30 5627 H 524.311 -0.300121 -3.22306 0
M  V30 5628 H 523.218 -2.56325 -2.72485 0
M  V30 5629 H 524.551 -3.35808 -3.59852 0
M  V30 5630 N 526.204 0.969867 -1.24223 0
M  V30 5631 C 527.136 2.0669 -0.99055 0
M  V30 5632 C 528.149 1.62753 0.0392222 0
M  V30 5633 O 529.338 1.77403 -0.197561 0
M  V30 5634 C 526.438 3.35589 -0.472594 0
M  V30 5635 C 525.611 4.08444 -1.56499 0
M  V30 5636 C 524.67 5.15616 -1.05007 0
M  V30 5637 O 523.696 5.41911 -1.7413 0
M  V30 5638 N 524.898 5.80383 0.116641 0
M  V30 5639 H 527.663 2.28855 -1.93508 0
M  V30 5640 H 525.224 1.13733 -1.15223 0
M  V30 5641 H 527.216 4.04542 -0.112919 0
M  V30 5642 H 525.786 3.10311 0.377617 0
M  V30 5643 H 525.006 3.33798 -2.09696 0
M  V30 5644 H 526.294 4.53882 -2.29932 0
M  V30 5645 H 525.692 5.6142 0.694589 0
M  V30 5646 H 524.249 6.50462 0.417483 0
M  V30 5647 N 527.682 1.05563 1.17022 0
M  V30 5648 C 528.629 0.659893 2.21165 0
M  V30 5649 C 529.599 -0.339813 1.62587 0
M  V30 5650 O 530.784 -0.230378 1.89404 0
M  V30 5651 C 527.924 0.0447297 3.45071 0
M  V30 5652 C 527.037 1.09372 4.17926 0
M  V30 5653 C 526.172 0.445481 5.29329 0
M  V30 5654 C 525.211 1.47852 5.93975 0
M  V30 5655 N 524.348 0.854172 6.96885 0
M  V30 5656 H 529.188 1.55243 2.54369 0
M  V30 5657 H 526.725 0.776336 1.24946 0
M  V30 5658 H 528.683 -0.329404 4.15898 0
M  V30 5659 H 527.313 -0.811244 3.1244 0
M  V30 5660 H 526.365 1.58564 3.45777 0
M  V30 5661 H 527.677 1.87773 4.62107 0
M  V30 5662 H 526.831 0.0179688 6.06697 0
M  V30 5663 H 525.57 -0.370481 4.86291 0
M  V30 5664 H 524.575 1.91601 5.15334 0
M  V30 5665 H 525.8 2.29645 6.39093 0
M  V30 5666 H 523.746 0.0587882 6.55974 0
M  V30 5667 H 523.663 1.57567 7.39397 0
M  V30 5668 H 524.931 0.451559 7.78191 0
M  V30 5669 N 529.16 -1.33526 0.837174 0
M  V30 5670 C 530.407 -1.97837 0.432064 0
M  V30 5671 C 530.735 -1.66324 -1.00829 0
M  V30 5672 O 529.99 -0.93448 -1.71948 0
M  V30 5673 C 530.289 -3.52367 0.597675 0
M  V30 5674 C 529.955 -4.03826 2.00587 0
M  V30 5675 C 528.617 -4.1759 2.39106 0
M  V30 5676 C 530.969 -4.31333 2.92576 0
M  V30 5677 C 528.297 -4.56195 3.68921 0
M  V30 5678 C 530.649 -4.7139 4.2187 0
M  V30 5679 C 529.313 -4.8336 4.60347 0
M  V30 5680 H 528.583 -0.723937 0.158104 0
M  V30 5681 H 531.23 -1.5923 1.06387 0
M  V30 5682 H 529.535 -3.91624 -0.117452 0
M  V30 5683 H 531.232 -4.00126 0.26454 0
M  V30 5684 H 527.822 -3.93586 1.69671 0
M  V30 5685 H 532.006 -4.20224 2.64056 0
M  V30 5686 H 527.262 -4.63655 3.9854 0
M  V30 5687 H 531.436 -4.91631 4.93226 0
M  V30 5688 H 529.063 -5.1303 5.60985 0
M  V30 5689 N 530.638 -0.59345 -1.46 0
M  V30 5690 C 531.57 0.171569 -2.28557 0
M  V30 5691 C 532.583 0.845273 -1.39137 0
M  V30 5692 O 533.772 0.713033 -1.6364 0
M  V30 5693 C 530.872 1.26311 -3.14482 0
M  V30 5694 C 530.045 0.679258 -4.32094 0
M  V30 5695 C 529.104 1.65987 -4.99334 0
M  V30 5696 O 528.13 1.19171 -5.56585 0
M  V30 5697 N 529.332 2.99414 -4.97324 0
M  V30 5698 H 532.097 -0.536771 -2.94854 0
M  V30 5699 H 529.658 -0.431954 -1.56031 0
M  V30 5700 H 531.65 1.91863 -3.5633 0
M  V30 5701 H 530.22 1.87416 -2.50188 0
M  V30 5702 H 529.44 -0.153992 -3.93899 0
M  V30 5703 H 530.728 0.26916 -5.08088 0
M  V30 5704 H 530.126 3.40064 -4.52076 0
M  V30 5705 H 528.683 3.60426 -5.4308 0
M  V30 5706 N 532.116 1.54067 -0.331816 0
M  V30 5707 C 533.356 2.02625 0.26876 0
M  V30 5708 C 533.72 1.21462 1.48697 0
M  V30 5709 O 534.921 1.59863 2.16096 0
M  V30 5710 C 533.192 3.52554 0.586577 0
M  V30 5711 S 534.751 4.23035 1.16563 0
M  V30 5712 H 531.569 0.706395 0.0807862 0
M  V30 5713 H 534.171 1.89844 -0.466856 0
M  V30 5714 H 532.875 4.09242 -0.308046 0
M  V30 5715 H 532.406 3.69432 1.35217 0
M  V30 5716 H 534.421 4.31382 2.45203 0
M  V30 5717 N 533.594 0.0601682 1.57485 0
M  V30 5718 C 534.819 -0.624416 1.97777 0
M  V30 5719 C 535.244 -1.63051 0.937867 0
M  V30 5720 O 534.602 -1.81036 -0.0978845 0
M  V30 5721 C 534.65 -1.27979 3.37126 0
M  V30 5722 O 533.754 -2.39556 3.35688 0
M  V30 5723 H 533.095 -0.161581 0.64404 0
M  V30 5724 H 535.625 0.131237 2.04179 0
M  V30 5725 H 535.635 -1.62937 3.74053 0
M  V30 5726 H 534.31 -0.542501 4.12347 0
M  V30 5727 H 532.887 -2.06478 3.10517 0
M  V30 5728 N 535.072 -1.5615 -0.213296 0
M  V30 5729 C 536.002 -1.96109 -1.26742 0
M  V30 5730 C 536.983 -0.830448 -1.48451 0
M  V30 5731 O 538.168 -1.09339 -1.60495 0
M  V30 5732 C 535.298 -2.28492 -2.61551 0
M  V30 5733 C 534.252 -3.44124 -2.54485 0
M  V30 5734 C 533.578 -3.62134 -3.93399 0
M  V30 5735 C 534.878 -4.78855 -2.08556 0
M  V30 5736 H 536.572 -2.84412 -0.935434 0
M  V30 5737 H 534.118 -1.36836 -0.44854 0
M  V30 5738 H 536.071 -2.55039 -3.3546 0
M  V30 5739 H 534.795 -1.37052 -2.96453 0
M  V30 5740 H 533.454 -3.17639 -1.83033 0
M  V30 5741 H 533.102 -2.68055 -4.25623 0
M  V30 5742 H 532.802 -4.39913 -3.89551 0
M  V30 5743 H 534.326 -3.91038 -4.68958 0
M  V30 5744 H 535.74 -5.04552 -2.72213 0
M  V30 5745 H 534.137 -5.59975 -2.1575 0
M  V30 5746 H 535.207 -4.73657 -1.03811 0
M  V30 5747 N 536.55 0.480323 -1.50102 0
M  V30 5748 C 537.482 1.59669 -1.64433 0
M  V30 5749 C 538.495 1.54063 -0.52615 0
M  V30 5750 O 539.684 1.59619 -0.798992 0
M  V30 5751 C 536.784 2.98527 -1.6042 0
M  V30 5752 C 535.957 3.291 -2.88117 0
M  V30 5753 C 535.016 4.47468 -2.76873 0
M  V30 5754 O 534.042 4.4823 -3.50825 0
M  V30 5755 N 535.244 5.48593 -1.89806 0
M  V30 5756 H 538.009 1.47795 -2.60723 0
M  V30 5757 H 535.57 0.66858 -1.4745 0
M  V30 5758 H 537.562 3.75666 -1.50523 0
M  V30 5759 H 536.132 3.04218 -0.719036 0
M  V30 5760 H 535.352 2.40662 -3.12211 0
M  V30 5761 H 536.64 3.46334 -3.72734 0
M  V30 5762 H 536.038 5.50791 -1.2902 0
M  V30 5763 H 534.595 6.24752 -1.85819 0
M  V30 5764 N 538.028 1.39524 0.732853 0
M  V30 5765 C 538.976 1.38563 1.86824 0
M  V30 5766 C 539.97 0.268467 1.67259 0
M  V30 5767 O 541.176 0.438613 1.74574 0
M  V30 5768 H 537.551 0.432737 0.615014 0
M  V30 5769 H 539.522 2.34328 1.84751 0
M  V30 5770 C 538.271 1.2481 3.24527 0
M  V30 5771 H 537.594 2.10044 3.40179 0
M  V30 5772 H 539.034 1.28194 4.04156 0
M  V30 5773 C 537.493 -0.0432825 3.36872 0
M  V30 5774 O 538.023 -1.01268 3.88726 0
M  V30 5775 N 536.229 -0.107055 2.90403 0
M  V30 5776 H 535.776 0.682512 2.48394 0
M  V30 5777 H 535.734 -0.970618 2.99042 0
M  V30 5778 N 539.506 -0.963266 1.24736 0
M  V30 5779 C 540.453 -2.05857 1.04363 0
M  V30 5780 C 541.423 -1.6604 -0.0444951 0
M  V30 5781 O 542.608 -1.90477 0.110999 0
M  V30 5782 C 539.748 -3.38745 0.659235 0
M  V30 5783 C 538.861 -3.9173 1.82131 0
M  V30 5784 C 537.996 -5.12906 1.38208 0
M  V30 5785 C 537.035 -5.58098 2.51382 0
M  V30 5786 N 536.172 -6.7049 2.08295 0
M  V30 5787 H 541.012 -2.22616 1.98107 0
M  V30 5788 H 538.549 -1.09103 0.986661 0
M  V30 5789 H 540.507 -4.15107 0.417371 0
M  V30 5790 H 539.137 -3.21898 -0.241201 0
M  V30 5791 H 538.189 -3.11966 2.17672 0
M  V30 5792 H 539.501 -4.21225 2.67153 0
M  V30 5793 H 538.655 -5.96657 1.09935 0
M  V30 5794 H 537.394 -4.85105 0.502456 0
M  V30 5795 H 536.399 -4.72917 2.80409 0
M  V30 5796 H 537.624 -5.87911 3.39909 0
M  V30 5797 H 535.57 -6.44416 1.22737 0
M  V30 5798 H 535.487 -6.99458 2.86869 0
M  V30 5799 H 536.755 -7.57672 1.83175 0
M  V30 5800 N 540.985 -1.06182 -1.16461 0
M  V30 5801 C 542.401 -0.785065 -1.38956 0
M  V30 5802 C 542.601 0.616103 -1.9185 0
M  V30 5803 O 541.657 1.37686 -2.11657 0
M  V30 5804 C 542.97 -1.84902 -2.37132 0
M  V30 5805 C 544.518 -1.8724 -2.50819 0
M  V30 5806 C 544.993 -2.92686 -3.52277 0
M  V30 5807 N 546.484 -2.91712 -3.59803 0
M  V30 5808 C 547.219 -3.69949 -4.38093 0
M  V30 5809 N 546.715 -4.58 -5.19815 0
M  V30 5810 N 548.508 -3.58346 -4.33064 0
M  V30 5811 H 540.659 -1.96569 -0.804634 0
M  V30 5812 H 542.922 -0.851747 -0.416211 0
M  V30 5813 H 542.628 -2.85518 -2.0536 0
M  V30 5814 H 542.502 -1.69908 -3.36766 0
M  V30 5815 H 544.889 -0.872827 -2.81897 0
M  V30 5816 H 544.97 -2.06311 -1.51226 0
M  V30 5817 H 544.614 -3.92835 -3.21937 0
M  V30 5818 H 544.544 -2.70864 -4.51598 0
M  V30 5819 H 547.035 -2.27876 -3.01464 0
M  V30 5820 H 547.348 -5.14357 -5.76764 0
M  V30 5821 H 545.693 -4.62056 -5.19162 0
M  V30 5822 H 548.884 -2.88943 -3.68279 0
M  V30 5823 H 549.057 -4.19563 -4.93833 0
M  V30 5824 N 542.463 1.3308 -0.844243 0
M  V30 5825 C 543.411 2.31028 -0.269954 0
M  V30 5826 C 544.405 1.58381 0.600997 0
M  V30 5827 O 545.611 1.73203 0.48996 0
M  V30 5828 H 541.986 0.748866 -0.0685782 0
M  V30 5829 H 543.957 2.76967 -1.11049 0
M  V30 5830 C 542.706 3.43549 0.535676 0
M  V30 5831 H 542.029 3.99604 -0.125202 0
M  V30 5832 H 543.469 4.14267 0.903262 0
M  V30 5833 C 541.928 2.8988 1.71672 0
M  V30 5834 O 542.458 2.86511 2.81557 0
M  V30 5835 N 540.664 2.46416 1.54037 0
M  V30 5836 H 540.211 2.49356 0.64649 0
M  V30 5837 H 540.169 2.1086 2.33207 0
M  V30 5838 N 543.941 0.601185 1.45683 0
M  V30 5839 C 544.891 -0.142686 2.27553 0
M  V30 5840 C 545.875 -0.844598 1.3695 0
M  V30 5841 O 547.067 -0.735644 1.60988 0
M  V30 5842 C 544.196 -1.14364 3.23691 0
M  V30 5843 C 543.282 -0.442894 4.21781 0
M  V30 5844 N 543.673 0.51189 5.03203 0
M  V30 5845 C 541.971 -0.691277 4.4061 0
M  V30 5846 C 542.672 0.92318 5.74328 0
M  V30 5847 N 541.648 0.268308 5.42937 0
M  V30 5848 H 545.45 0.590736 2.87902 0
M  V30 5849 H 542.964 0.424365 1.56757 0
M  V30 5850 H 544.961 -1.6909 3.8107 0
M  V30 5851 H 543.621 -1.87768 2.64902 0
M  V30 5852 H 544.632 0.888329 5.10225 0
M  V30 5853 H 541.309 -1.41049 3.92952 0
M  V30 5854 H 542.699 1.71029 6.49768 0
M  V30 5855 N 545.419 -1.53889 0.339982 0
M  V30 5856 C 546.835 -1.59595 -0.0120752 0
M  V30 5857 C 547.035 -1.35605 -1.49042 0
M  V30 5858 O 546.091 -1.14856 -2.24865 0
M  V30 5859 C 547.404 -2.9774 0.420898 0
M  V30 5860 C 548.952 -3.1077 0.37294 0
M  V30 5861 C 549.427 -4.51286 0.781327 0
M  V30 5862 N 550.918 -4.57325 0.735374 0
M  V30 5863 C 551.653 -5.64194 1.02336 0
M  V30 5864 N 551.149 -6.7893 1.37933 0
M  V30 5865 N 552.942 -5.54051 0.947838 0
M  V30 5866 H 545.093 -1.67738 1.30299 0
M  V30 5867 H 547.356 -0.785385 0.530918 0
M  V30 5868 H 547.062 -3.20349 1.45152 0
M  V30 5869 H 546.936 -3.76639 -0.205721 0
M  V30 5870 H 549.323 -2.87886 -0.648505 0
M  V30 5871 H 549.404 -2.33939 1.03472 0
M  V30 5872 H 549.048 -4.74905 1.80077 0
M  V30 5873 H 548.978 -5.26511 0.0970679 0
M  V30 5874 H 551.469 -3.74931 0.472773 0
M  V30 5875 H 551.782 -7.56392 1.58402 0
M  V30 5876 H 550.127 -6.80386 1.41774 0
M  V30 5877 H 553.318 -4.63293 0.669115 0
M  V30 5878 H 553.491 -6.37246 1.17563 0
M  V30 5879 N 546.897 -0.0685191 -1.57451 0
M  V30 5880 C 548.313 0.288101 -1.56978 0
M  V30 5881 C 548.513 1.70262 -1.07765 0
M  V30 5882 O 547.569 2.4135 -0.742054 0
M  V30 5883 C 548.882 0.100745 -3.00531 0
M  V30 5884 C 550.43 0.170531 -3.12535 0
M  V30 5885 C 550.905 0.0114944 -4.57999 0
M  V30 5886 N 552.396 0.0672065 -4.63151 0
M  V30 5887 C 553.131 -0.0314813 -5.73391 0
M  V30 5888 N 552.627 -0.183503 -6.92557 0
M  V30 5889 N 554.42 0.0253489 -5.62094 0
M  V30 5890 H 546.571 -0.993026 -1.87757 0
M  V30 5891 H 548.834 -0.386981 -0.865419 0
M  V30 5892 H 548.54 -0.875197 -3.40636 0
M  V30 5893 H 548.414 0.854457 -3.67395 0
M  V30 5894 H 550.801 1.13696 -2.72318 0
M  V30 5895 H 550.882 -0.614229 -2.48316 0
M  V30 5896 H 550.526 -0.951684 -4.98904 0
M  V30 5897 H 550.456 0.815617 -5.20245 0
M  V30 5898 H 552.947 0.183246 -3.77455 0
M  V30 5899 H 553.26 -0.251041 -7.72392 0
M  V30 5900 H 551.605 -0.218822 -6.94655 0
M  V30 5901 H 554.796 0.142794 -4.67882 0
M  V30 5902 H 554.969 -0.0550166 -6.47977 0
M  V30 5903 N 548.375 1.56261 0.205012 0
M  V30 5904 C 549.621 1.80306 0.9283 0
M  V30 5905 C 549.954 0.640932 1.83319 0
M  V30 5906 O 549.229 -0.359032 1.91158 0
M  V30 5907 C 549.512 3.14547 1.75306 0
M  V30 5908 C 549.365 4.41236 0.873562 0
M  V30 5909 C 550.684 3.45382 2.72762 0
M  V30 5910 H 547.803 0.655929 0.336044 0
M  V30 5911 H 550.445 1.88984 0.196211 0
M  V30 5912 H 548.595 3.0728 2.37721 0
M  V30 5913 H 550.267 4.60539 0.264887 0
M  V30 5914 H 548.51 4.33427 0.179773 0
M  V30 5915 H 549.181 5.31639 1.48541 0
M  V30 5916 H 551.657 3.52884 2.20481 0
M  V30 5917 H 550.533 4.40449 3.2756 0
M  V30 5918 H 550.794 2.68377 3.51321 0
M  V30 5919 N 549.853 -0.472356 1.50355 0
M  V30 5920 C 551.093 -1.23439 1.62918 0
M  V30 5921 C 551.457 -1.89284 0.321801 0
M  V30 5922 O 552.658 -2.66854 0.322852 0
M  V30 5923 C 550.929 -2.25119 2.7759 0
M  V30 5924 S 552.488 -3.10278 3.10279 0
M  V30 5925 H 549.306 -0.41911 0.574341 0
M  V30 5926 H 551.908 -0.531621 1.88133 0
M  V30 5927 H 550.612 -1.75324 3.71066 0
M  V30 5928 H 550.143 -3.00026 2.54457 0
M  V30 5929 H 552.158 -4.26257 2.54007 0
M  V30 5930 N 551.331 -1.39911 -0.725443 0
M  V30 5931 C 552.608 -1.28158 -1.47766 0
M  V30 5932 C 552.988 0.104545 -2.10841 0
M  V30 5933 O 552.336 1.11657 -1.99361 0
M  V30 5934 C 552.546 -2.41306 -2.52135 0
M  V30 5935 C 553.894 -2.81076 -3.18247 0
M  V30 5936 O 554.918 -2.40827 -2.62452 0
M  V30 5937 O 553.777 -3.50581 -4.19231 0
M  V30 5938 H 550.871 -0.502761 -0.656628 0
M  V30 5939 H 553.417 -1.51808 -0.758456 0
M  V30 5940 H 552.189 -3.33932 -2.03974 0
M  V30 5941 H 551.812 -2.19374 -3.31603 0
M  V30 5942 N 552.809 0.956637 -1.25245 0
M  V30 5943 C 553.756 2.053 -1.05454 0
M  V30 5944 C 554.726 1.66062 0.0356889 0
M  V30 5945 O 555.911 1.90415 -0.121099 0
M  V30 5946 C 553.051 3.38391 -0.677191 0
M  V30 5947 C 552.164 3.90758 -1.84206 0
M  V30 5948 C 551.299 5.12165 -1.40926 0
M  V30 5949 C 550.338 5.56757 -2.54338 0
M  V30 5950 N 549.475 6.69376 -2.11848 0
M  V30 5951 H 554.315 2.21562 -1.99284 0
M  V30 5952 H 551.852 1.08578 -0.992434 0
M  V30 5953 H 553.81 4.1488 -0.43938 0
M  V30 5954 H 552.44 3.22021 0.224127 0
M  V30 5955 H 551.492 3.10808 -2.19323 0
M  V30 5956 H 552.804 4.19802 -2.69383 0
M  V30 5957 H 551.958 5.96065 -1.13098 0
M  V30 5958 H 550.697 4.84832 -0.528175 0
M  V30 5959 H 549.702 4.71423 -2.82913 0
M  V30 5960 H 550.927 5.861 -3.43022 0
M  V30 5961 H 548.873 6.43756 -1.26153 0
M  V30 5962 H 548.79 6.97927 -2.90574 0
M  V30 5963 H 550.058 7.5669 -1.87191 0
M  V30 5964 N 554.287 1.06798 1.15896 0
M  V30 5965 C 555.237 0.653213 2.18443 0
M  V30 5966 C 556.221 -0.318763 1.57711 0
M  V30 5967 O 557.413 -0.133388 1.76497 0
M  V30 5968 C 554.542 0.0465785 3.43268 0
M  V30 5969 C 553.628 1.04336 4.11066 0
M  V30 5970 N 554.019 2.22084 4.54436 0
M  V30 5971 C 552.317 0.875433 4.37324 0
M  V30 5972 C 553.018 2.85276 5.06944 0
M  V30 5973 N 551.994 2.12973 5.00143 0
M  V30 5974 H 555.796 1.55011 2.49698 0
M  V30 5975 H 553.31 0.940384 1.32403 0
M  V30 5976 H 555.307 -0.26843 4.16035 0
M  V30 5977 H 553.967 -0.845504 3.13499 0
M  V30 5978 H 554.978 2.59833 4.48004 0
M  V30 5979 H 551.655 0.0357721 4.17485 0
M  V30 5980 H 553.045 3.85223 5.50503 0
M  V30 5981 N 555.766 -1.3263 0.851289 0
M  V30 5982 C 556.696 -2.31449 0.308771 0
M  V30 5983 C 557.677 -1.59531 -0.590255 0
M  V30 5984 O 558.862 -1.87351 -0.511205 0
M  V30 5985 C 555.992 -3.43586 -0.506548 0
M  V30 5986 C 554.946 -4.26963 0.297753 0
M  V30 5987 C 554.272 -5.30831 -0.642094 0
M  V30 5988 C 555.572 -4.99643 1.52166 0
M  V30 5989 H 557.266 -2.77074 1.13447 0
M  V30 5990 H 554.812 -1.33207 0.546971 0
M  V30 5991 H 556.765 -4.11754 -0.896474 0
M  V30 5992 H 555.489 -2.96681 -1.36558 0
M  V30 5993 H 554.148 -3.60437 0.669391 0
M  V30 5994 H 553.796 -4.8018 -1.49788 0
M  V30 5995 H 553.496 -5.87501 -0.107968 0
M  V30 5996 H 555.02 -6.01862 -1.02927 0
M  V30 5997 H 556.434 -5.6051 1.20421 0
M  V30 5998 H 554.831 -5.66022 1.99347 0
M  V30 5999 H 555.901 -4.27701 2.28474 0
M  V30 6000 N 557.244 -0.608902 -1.45362 0
M  V30 6001 C 558.207 0.0992563 -2.28985 0
M  V30 6002 C 559.207 0.793841 -1.39838 0
M  V30 6003 O 560.397 0.641804 -1.61946 0
M  V30 6004 C 557.529 1.15073 -3.20891 0
M  V30 6005 H 558.722 -0.635964 -2.93079 0
M  V30 6006 H 556.275 -0.368007 -1.51906 0
M  V30 6007 H 557.01 1.91667 -2.616 0
M  V30 6008 H 556.795 0.656867 -3.86559 0
M  V30 6009 H 558.285 1.64665 -3.83765 0
M  V30 6010 N 558.722 1.53707 -0.348139 0
M  V30 6011 C 559.971 2.0017 0.247992 0
M  V30 6012 C 560.284 1.23983 1.51286 0
M  V30 6013 O 561.49 1.60946 2.18652 0
M  V30 6014 C 559.946 3.56515 0.492459 0
M  V30 6015 C 559.554 4.41562 -0.756777 0
M  V30 6016 C 561.298 4.11381 1.0472 0
M  V30 6017 C 559.205 5.89426 -0.482856 0
M  V30 6018 H 558.135 0.747806 0.0964452 0
M  V30 6019 H 560.786 1.77532 -0.464179 0
M  V30 6020 H 559.168 3.75236 1.26545 0
M  V30 6021 H 560.342 4.34615 -1.53122 0
M  V30 6022 H 558.657 3.97711 -1.23348 0
M  V30 6023 H 561.254 5.19468 1.26717 0
M  V30 6024 H 561.597 3.64885 2.00411 0
M  V30 6025 H 562.13 3.96389 0.334801 0
M  V30 6026 H 558.869 6.40164 -1.40962 0
M  V30 6027 H 558.389 5.99264 0.253416 0
M  V30 6028 H 560.068 6.4692 -0.101816 0
M  V30 6029 N 560.2 0.0768682 1.57412 0
M  V30 6030 C 561.477 -0.632359 1.85096 0
M  V30 6031 C 561.857 -1.87479 0.9703 0
M  V30 6032 O 561.205 -2.28469 0.0379062 0
M  V30 6033 C 561.415 -0.965174 3.35388 0
M  V30 6034 C 562.763 -1.33648 4.03018 0
M  V30 6035 O 563.787 -1.05675 3.40164 0
M  V30 6036 O 562.646 -1.85959 5.13889 0
M  V30 6037 H 559.74 -0.314574 0.764835 0
M  V30 6038 H 562.286 0.108184 1.69355 0
M  V30 6039 H 561.058 -0.0829745 3.91212 0
M  V30 6040 H 560.681 -1.76231 3.5641 0
M  V30 6041 N 561.678 -1.56367 -0.196722 0
M  V30 6042 C 562.903 -1.84991 -0.937714 0
M  V30 6043 C 563.328 -0.660244 -1.76132 0
M  V30 6044 O 562.686 0.390967 -1.77034 0
M  V30 6045 C 562.734 -3.11828 -1.81096 0
M  V30 6046 O 561.838 -2.92266 -2.90955 0
M  V30 6047 H 561.179 -0.609193 -0.264159 0
M  V30 6048 H 563.709 -2.03595 -0.202529 0
M  V30 6049 H 563.719 -3.42579 -2.21594 0
M  V30 6050 H 562.394 -3.98037 -1.2058 0
M  V30 6051 H 560.971 -2.72809 -2.54224 0
M  V30 6052 N 563.156 0.464375 -1.50603 0
M  V30 6053 C 564.381 1.24372 -1.65971 0
M  V30 6054 C 564.806 1.84901 -0.345453 0
M  V30 6055 O 564.164 1.67596 0.691457 0
M  V30 6056 C 564.212 2.32331 -2.7578 0
M  V30 6057 O 563.316 3.37146 -2.375 0
M  V30 6058 H 562.657 0.365604 -0.554283 0
M  V30 6059 H 565.187 0.55183 -1.97018 0
M  V30 6060 H 565.197 2.77539 -2.99059 0
M  V30 6061 H 563.872 1.87648 -3.71162 0
M  V30 6062 H 562.449 2.97602 -2.24694 0
M  V30 6063 N 564.634 1.40294 0.718013 0
M  V30 6064 C 565.582 1.40536 1.85344 0
M  V30 6065 C 566.576 0.286192 1.66965 0
M  V30 6066 O 567.782 0.457105 1.74099 0
M  V30 6067 H 564.157 0.439236 0.61039 0
M  V30 6068 H 566.128 2.36275 1.82255 0
M  V30 6069 C 564.877 1.28245 3.23185 0
M  V30 6070 H 564.2 2.1364 3.37932 0
M  V30 6071 H 565.64 1.32474 4.02774 0
M  V30 6072 C 564.099 -0.0075503 3.36899 0
M  V30 6073 O 564.629 -0.971391 3.89778 0
M  V30 6074 N 562.835 -0.0762479 2.905 0
M  V30 6075 H 562.382 0.708819 2.47656 0
M  V30 6076 H 562.34 -0.938846 3.00055 0
M  V30 6077 N 566.112 -0.949982 1.2575 0
M  V30 6078 C 567.342 -1.72721 1.13363 0
M  V30 6079 C 567.75 -1.86562 -0.314842 0
M  V30 6080 O 567.093 -1.36621 -1.22803 0
M  V30 6081 C 567.155 -3.15695 1.7198 0
M  V30 6082 C 566.819 -3.25268 3.21014 0
M  V30 6083 C 567.816 -3.09222 4.17945 0
M  V30 6084 C 565.501 -3.4894 3.61312 0
M  V30 6085 C 567.495 -3.16701 5.53154 0
M  V30 6086 C 565.182 -3.56055 4.96657 0
M  V30 6087 C 566.18 -3.3995 5.92387 0
M  V30 6088 O 565.868 -3.46757 7.25269 0
M  V30 6089 H 565.6 -0.547888 0.395973 0
M  V30 6090 H 568.154 -1.20009 1.66694 0
M  V30 6091 H 566.384 -3.69791 1.13101 0
M  V30 6092 H 568.073 -3.75295 1.54624 0
M  V30 6093 H 568.839 -2.90798 3.88151 0
M  V30 6094 H 564.718 -3.60534 2.87291 0
M  V30 6095 H 568.262 -3.04048 6.27854 0
M  V30 6096 H 564.159 -3.73997 5.26115 0
M  V30 6097 H 564.927 -3.63358 7.33426 0
M  V30 6098 N 567.59 -1.07411 -1.15328 0
M  V30 6099 C 568.5 -0.706438 -2.23711 0
M  V30 6100 C 569.516 0.282586 -1.7169 0
M  V30 6101 O 570.692 0.129066 -2.00986 0
M  V30 6102 C 567.757 -0.11048 -3.46524 0
M  V30 6103 C 566.818 -1.15282 -4.13532 0
M  V30 6104 C 566.051 -0.585205 -5.30482 0
M  V30 6105 O 566.274 0.598549 -5.67251 0
M  V30 6106 O 565.208 -1.33039 -5.87013 0
M  V30 6107 H 569.034 -1.61031 -2.57493 0
M  V30 6108 H 566.619 -0.847113 -1.23062 0
M  V30 6109 H 568.501 0.21957 -4.20828 0
M  V30 6110 H 567.176 0.766703 -3.14489 0
M  V30 6111 H 566.083 -1.53523 -3.41147 0
M  V30 6112 H 567.416 -2.00192 -4.49649 0
M  V30 6113 N 569.068 1.32177 -0.85831 0
M  V30 6114 C 570 2.27688 -0.262835 0
M  V30 6115 C 571.013 1.52588 0.567513 0
M  V30 6116 O 572.202 1.74156 0.391407 0
M  V30 6117 C 569.302 3.32668 0.646937 0
M  V30 6118 C 568.475 4.37148 -0.148372 0
M  V30 6119 C 567.534 5.21686 0.687728 0
M  V30 6120 O 566.56 5.69074 0.119934 0
M  V30 6121 N 567.762 5.44892 2.00182 0
M  V30 6122 H 570.527 2.79426 -1.08356 0
M  V30 6123 H 568.088 1.45076 -0.718647 0
M  V30 6124 H 570.08 3.86134 1.2117 0
M  V30 6125 H 568.65 2.81061 1.36834 0
M  V30 6126 H 567.87 3.83915 -0.894572 0
M  V30 6127 H 569.158 5.04038 -0.694514 0
M  V30 6128 H 568.556 5.08128 2.4864 0
M  V30 6129 H 567.113 6.0134 2.51463 0
M  V30 6130 N 570.547 0.616602 1.45037 0
M  V30 6131 C 571.457 -0.0985401 2.34393 0
M  V30 6132 C 572.473 -0.850971 1.51771 0
M  V30 6133 O 573.649 -0.806521 1.84546 0
M  V30 6134 C 570.714 -1.07748 3.29532 0
M  V30 6135 C 569.775 -0.326022 4.2806 0
M  V30 6136 C 569.008 -1.25833 5.18654 0
M  V30 6137 O 569.231 -2.49652 5.12864 0
M  V30 6138 O 568.165 -0.750512 5.97203 0
M  V30 6139 H 571.991 0.636016 2.96966 0
M  V30 6140 H 569.576 0.376832 1.44569 0
M  V30 6141 H 571.458 -1.64107 3.88133 0
M  V30 6142 H 570.133 -1.79291 2.69512 0
M  V30 6143 H 569.04 0.280253 3.73049 0
M  V30 6144 H 570.373 0.349091 4.9096 0
M  V30 6145 N 572.025 -1.5352 0.356285 0
M  V30 6146 C 573.25 -2.06007 -0.239961 0
M  V30 6147 C 573.675 -1.22872 -1.42422 0
M  V30 6148 O 573.033 -0.245516 -1.7963 0
M  V30 6149 C 573.081 -3.5522 -0.620587 0
M  V30 6150 O 572.185 -3.74864 -1.71902 0
M  V30 6151 H 571.526 -0.662961 -0.0371377 0
M  V30 6152 H 574.056 -1.98033 0.514194 0
M  V30 6153 H 574.066 -3.98081 -0.894197 0
M  V30 6154 H 572.741 -4.15175 0.245407 0
M  V30 6155 H 571.318 -3.43904 -1.44169 0
M  V30 6156 N 573.503 -0.0852151 -1.57369 0
M  V30 6157 C 574.45 0.877268 -2.13478 0
M  V30 6158 C 575.42 1.28642 -1.05073 0
M  V30 6159 O 576.605 1.36992 -1.32808 0
M  V30 6160 C 573.745 2.13464 -2.71159 0
M  V30 6161 C 572.858 1.77691 -3.93764 0
M  V30 6162 C 571.993 2.98139 -4.39643 0
M  V30 6163 C 571.032 2.58447 -5.54862 0
M  V30 6164 N 570.169 3.71698 -5.95639 0
M  V30 6165 H 575.009 0.391933 -2.95411 0
M  V30 6166 H 572.546 0.181796 -1.45972 0
M  V30 6167 H 574.504 2.87086 -3.02717 0
M  V30 6168 H 573.134 2.59514 -1.91969 0
M  V30 6169 H 572.186 0.940768 -3.68583 0
M  V30 6170 H 573.498 1.44497 -4.77412 0
M  V30 6171 H 572.652 3.80026 -4.72933 0
M  V30 6172 H 571.391 3.34536 -3.54876 0
M  V30 6173 H 570.396 1.74984 -5.21211 0
M  V30 6174 H 571.621 2.23205 -6.41371 0
M  V30 6175 H 569.567 4.07831 -5.13819 0
M  V30 6176 H 569.484 3.42317 -6.74059 0
M  V30 6177 H 570.752 4.54123 -6.33555 0
M  V30 6178 N 574.981 1.5647 0.188427 0
M  V30 6179 C 576.23 1.80207 0.905995 0
M  V30 6180 C 576.543 0.659579 1.84144 0
M  V30 6181 O 577.749 0.781431 2.60011 0
M  V30 6182 C 576.205 3.19255 1.66145 0
M  V30 6183 C 575.813 4.41324 0.770504 0
M  V30 6184 C 577.557 3.52298 2.36826 0
M  V30 6185 C 575.464 5.71394 1.52521 0
M  V30 6186 H 574.394 0.671953 0.342045 0
M  V30 6187 H 577.045 1.82808 0.159164 0
M  V30 6188 H 575.427 3.10922 2.45242 0
M  V30 6189 H 576.601 4.60797 0.0177261 0
M  V30 6190 H 574.916 4.16035 0.174199 0
M  V30 6191 H 577.513 4.46715 2.93854 0
M  V30 6192 H 577.856 2.76359 3.11338 0
M  V30 6193 H 578.389 3.62108 1.6469 0
M  V30 6194 H 575.128 6.50316 0.82275 0
M  V30 6195 H 574.648 5.55928 2.25175 0
M  V30 6196 H 576.327 6.12747 2.07725 0
M  V30 6197 N 576.459 -0.456382 1.50847 0
M  V30 6198 C 577.392 -1.57177 1.65441 0
M  V30 6199 C 578.37 -1.54649 0.502224 0
M  V30 6200 O 579.554 -1.74057 0.723633 0
M  V30 6201 C 576.681 -2.95763 1.65052 0
M  V30 6202 C 575.727 -3.16389 2.86007 0
M  V30 6203 S 576.56 -2.94716 4.47105 0
M  V30 6204 C 577.716 -4.35617 4.49432 0
M  V30 6205 H 577.949 -1.44561 2.59787 0
M  V30 6206 H 575.482 -0.644758 1.40293 0
M  V30 6207 H 577.44 -3.75654 1.65512 0
M  V30 6208 H 576.101 -3.05756 0.719153 0
M  V30 6209 H 575.294 -4.17667 2.82081 0
M  V30 6210 H 574.896 -2.44293 2.8319 0
M  V30 6211 H 577.188 -5.28503 4.239 0
M  V30 6212 H 578.131 -4.44582 5.51137 0
M  V30 6213 H 578.539 -4.18382 3.78967 0
M  V30 6214 N 577.937 -1.40673 -0.710563 0
M  V30 6215 C 579.184 -1.39222 -1.47049 0
M  V30 6216 C 579.512 0.0037691 -1.945 0
M  V30 6217 O 578.767 0.989224 -1.68857 0
M  V30 6218 C 579.066 -2.33253 -2.70791 0
M  V30 6219 C 578.732 -3.80406 -2.42079 0
M  V30 6220 C 577.394 -4.20496 -2.33959 0
M  V30 6221 C 579.746 -4.73375 -2.18094 0
M  V30 6222 C 577.074 -5.51584 -1.99929 0
M  V30 6223 C 579.426 -6.04768 -1.85576 0
M  V30 6224 C 578.09 -6.43895 -1.75941 0
M  V30 6225 H 577.36 -0.509449 -0.538092 0
M  V30 6226 H 580.007 -1.73363 -0.81348 0
M  V30 6227 H 578.312 -1.92314 -3.41354 0
M  V30 6228 H 580.009 -2.29412 -3.28894 0
M  V30 6229 H 576.599 -3.48645 -2.49288 0
M  V30 6230 H 580.783 -4.43217 -2.23321 0
M  V30 6231 H 576.039 -5.80797 -1.91011 0
M  V30 6232 H 580.213 -6.76318 -1.66033 0
M  V30 6233 H 577.84 -7.45387 -1.4934 0
M  V30 6234 N 579.415 0.9433 -1.26252 0
M  V30 6235 C 580.661 1.69175 -1.11837 0
M  V30 6236 C 580.994 1.91238 0.337891 0
M  V30 6237 O 580.269 1.49152 1.24836 0
M  V30 6238 C 580.552 3.06783 -1.88563 0
M  V30 6239 C 580.405 2.9206 -3.42083 0
M  V30 6240 C 581.724 4.06865 -1.67776 0
M  V30 6241 H 578.843 0.61399 -0.407658 0
M  V30 6242 H 581.485 1.09572 -1.55222 0
M  V30 6243 H 579.635 3.57663 -1.51689 0
M  V30 6244 H 581.307 2.48419 -3.88698 0
M  V30 6245 H 579.55 2.27731 -3.69217 0
M  V30 6246 H 580.221 3.89651 -3.90994 0
M  V30 6247 H 582.697 3.64939 -1.99897 0
M  V30 6248 H 581.573 5.01168 -2.23879 0
M  V30 6249 H 581.834 4.37705 -0.621816 0
M  V30 6250 N 580.893 1.08022 1.14757 0
M  V30 6251 C 582.139 0.808705 1.85978 0
M  V30 6252 C 582.472 -0.663764 1.82504 0
M  V30 6253 O 581.747 -1.48765 1.25296 0
M  V30 6254 C 582.03 1.32623 3.34788 0
M  V30 6255 C 581.883 2.86375 3.46856 0
M  V30 6256 C 583.202 0.948291 4.29762 0
M  V30 6257 H 580.321 0.295244 0.675278 0
M  V30 6258 H 582.963 1.33917 1.34783 0
M  V30 6259 H 581.113 0.875002 3.78518 0
M  V30 6260 H 582.785 3.39839 3.11941 0
M  V30 6261 H 581.028 3.24232 2.88194 0
M  V30 6262 H 581.699 3.17658 4.51439 0
M  V30 6263 H 584.175 1.33722 3.94028 0
M  V30 6264 H 583.051 1.33765 5.32352 0
M  V30 6265 H 583.312 -0.145094 4.41862 0
M  V30 6266 N 582.371 -1.3172 0.865308 0
M  V30 6267 C 583.319 -2.30569 0.306674 0
M  V30 6268 C 584.313 -1.59317 -0.575724 0
M  V30 6269 O 585.519 -1.73961 -0.462343 0
M  V30 6270 H 581.894 -0.747681 0.0804834 0
M  V30 6271 H 583.865 -2.75165 1.15441 0
M  V30 6272 C 582.614 -3.44358 -0.480952 0
M  V30 6273 H 581.937 -3.99354 0.18876 0
M  V30 6274 H 583.377 -4.15652 -0.837241 0
M  V30 6275 C 581.836 -2.92574 -1.67039 0
M  V30 6276 O 582.366 -2.90954 -2.76964 0
M  V30 6277 N 580.572 -2.48835 -1.50097 0
M  V30 6278 H 580.119 -2.50353 -0.606738 0
M  V30 6279 H 580.077 -2.14543 -2.29823 0
M  V30 6280 N 583.85 -0.624285 -1.44708 0
M  V30 6281 C 584.812 0.0749638 -2.29077 0
M  V30 6282 C 585.812 0.778965 -1.40673 0
M  V30 6283 O 587.003 0.624591 -1.62618 0
M  V30 6284 C 584.135 1.11663 -3.22094 0
M  V30 6285 H 585.327 -0.667013 -2.92388 0
M  V30 6286 H 582.88 -0.384098 -1.51507 0
M  V30 6287 H 583.615 1.88881 -2.63618 0
M  V30 6288 H 583.401 0.61583 -3.87234 0
M  V30 6289 H 584.891 1.60585 -3.8549 0
M  V30 6290 N 585.328 1.53329 -0.364422 0
M  V30 6291 C 586.574 2.01537 0.225969 0
M  V30 6292 C 586.907 1.25128 1.48515 0
M  V30 6293 O 586.182 0.344653 1.91422 0
M  V30 6294 C 586.465 3.56339 0.519092 0
M  V30 6295 C 586.318 4.43441 -0.753639 0
M  V30 6296 C 587.637 4.19833 1.32015 0
M  V30 6297 H 584.756 0.732573 0.0806548 0
M  V30 6298 H 587.398 1.83597 -0.489084 0
M  V30 6299 H 585.548 3.71756 1.12825 0
M  V30 6300 H 587.22 4.39823 -1.39116 0
M  V30 6301 H 585.463 4.11457 -1.37424 0
M  V30 6302 H 586.134 5.49699 -0.503517 0
M  V30 6303 H 588.61 4.08242 0.804859 0
M  V30 6304 H 587.486 5.28177 1.49399 0
M  V30 6305 H 587.747 3.75821 2.32832 0
M  V30 6306 N 586.806 0.0935595 1.57322 0
M  V30 6307 C 588.036 -0.578095 1.98347 0
M  V30 6308 C 588.444 -1.62357 0.971441 0
M  V30 6309 O 587.787 -1.83639 -0.0473959 0
M  V30 6310 C 587.849 -1.28525 3.3574 0
M  V30 6311 C 587.513 -0.390714 4.55327 0
M  V30 6312 C 588.51 0.360522 5.18648 0
M  V30 6313 C 586.195 -0.309221 5.01347 0
M  V30 6314 C 588.189 1.18125 6.26359 0
M  V30 6315 C 585.876 0.515157 6.08925 0
M  V30 6316 C 586.874 1.25904 6.71295 0
M  V30 6317 O 586.562 2.06978 7.76798 0
M  V30 6318 H 586.294 -0.159767 0.656849 0
M  V30 6319 H 588.848 0.169058 2.04703 0
M  V30 6320 H 587.078 -2.07894 3.26063 0
M  V30 6321 H 588.767 -1.85128 3.61223 0
M  V30 6322 H 589.533 0.307285 4.84026 0
M  V30 6323 H 585.412 -0.877881 4.52564 0
M  V30 6324 H 588.956 1.76236 6.74971 0
M  V30 6325 H 584.853 0.56988 6.42979 0
M  V30 6326 H 585.621 1.99644 7.93779 0
M  V30 6327 N 588.284 -1.56567 -0.180126 0
M  V30 6328 C 589.247 -1.94852 -1.20686 0
M  V30 6329 C 590.247 -0.831212 -1.3765 0
M  V30 6330 O 591.437 -1.09841 -1.35206 0
M  V30 6331 C 588.569 -2.23565 -2.57355 0
M  V30 6332 H 589.762 -2.86722 -0.879225 0
M  V30 6333 H 587.315 -1.50489 -0.422237 0
M  V30 6334 H 588.05 -1.34381 -2.95148 0
M  V30 6335 H 587.835 -3.04999 -2.46411 0
M  V30 6336 H 589.325 -2.54137 -3.31367 0
M  V30 6337 N 589.762 0.448376 -1.51087 0
M  V30 6338 C 590.695 1.56298 -1.66272 0
M  V30 6339 C 591.673 1.54381 -0.510419 0
M  V30 6340 O 592.857 1.73671 -0.732854 0
M  V30 6341 C 589.984 2.94883 -1.66618 0
M  V30 6342 C 589.03 3.14868 -2.87681 0
M  V30 6343 S 589.863 2.9234 -4.48662 0
M  V30 6344 C 591.019 4.33227 -4.51735 0
M  V30 6345 H 591.252 1.43182 -2.6055 0
M  V30 6346 H 588.785 0.637309 -1.40633 0
M  V30 6347 H 590.743 3.74771 -1.67502 0
M  V30 6348 H 589.404 3.05371 -0.735358 0
M  V30 6349 H 588.597 4.16166 -2.84292 0
M  V30 6350 H 588.199 2.42788 -2.84482 0
M  V30 6351 H 590.491 5.26247 -4.26697 0
M  V30 6352 H 591.434 4.41653 -5.53487 0
M  V30 6353 H 591.842 4.16367 -3.81181 0
M  V30 6354 N 591.24 1.41047 0.703093 0
M  V30 6355 C 592.203 1.42036 1.79884 0
M  V30 6356 C 593.203 0.312153 1.57741 0
M  V30 6357 O 594.393 0.571672 1.64553 0
M  V30 6358 C 591.525 1.22437 3.18154 0
M  V30 6359 H 592.718 2.39572 1.80403 0
M  V30 6360 H 590.271 1.27079 0.909977 0
M  V30 6361 H 591.006 0.257112 3.23279 0
M  V30 6362 H 590.791 2.02723 3.35627 0
M  V30 6363 H 592.281 1.25946 3.98155 0
M  V30 6364 N 592.718 -0.936591 1.26751 0
M  V30 6365 C 593.668 -2.0219 1.05371 0
M  V30 6366 C 594.652 -1.60893 -0.0154112 0
M  V30 6367 O 595.844 -1.75843 0.202085 0
M  V30 6368 C 592.973 -3.36222 0.693541 0
M  V30 6369 C 592.059 -3.8399 1.80035 0
M  V30 6370 N 592.45 -4.0436 3.03852 0
M  V30 6371 C 590.748 -4.12945 1.685 0
M  V30 6372 C 591.449 -4.44 3.75818 0
M  V30 6373 N 590.425 -4.50966 3.03531 0
M  V30 6374 H 594.227 -2.15958 1.99347 0
M  V30 6375 H 591.741 -1.12277 1.17335 0
M  V30 6376 H 593.738 -4.13625 0.521513 0
M  V30 6377 H 592.398 -3.23821 -0.238693 0
M  V30 6378 H 593.409 -3.9092 3.39709 0
M  V30 6379 H 590.086 -4.09308 0.822986 0
M  V30 6380 H 591.476 -4.67914 4.82189 0
M  V30 6381 N 594.196 -1.08629 -1.14182 0
M  V30 6382 C 595.159 -0.722027 -2.1753 0
M  V30 6383 C 596.159 0.244305 -1.58933 0
M  V30 6384 O 597.349 0.0235545 -1.74184 0
M  V30 6385 C 594.481 -0.0663966 -3.40835 0
M  V30 6386 H 595.674 -1.63719 -2.51269 0
M  V30 6387 H 593.227 -0.884442 -1.28869 0
M  V30 6388 H 593.962 0.860389 -3.12678 0
M  V30 6389 H 593.747 -0.761598 -3.84632 0
M  V30 6390 H 595.237 0.173346 -4.1724 0
M  V30 6391 N 595.674 1.31259 -0.872281 0
M  V30 6392 C 596.604 2.30929 -0.345554 0
M  V30 6393 C 597.585 1.60449 0.5648 0
M  V30 6394 O 598.77 1.8814 0.481335 0
M  V30 6395 C 595.9 3.44348 0.451823 0
M  V30 6396 C 594.854 4.26435 -0.365641 0
M  V30 6397 C 594.18 5.31785 0.557562 0
M  V30 6398 C 595.48 4.97159 -1.60095 0
M  V30 6399 H 597.174 2.75234 -1.17841 0
M  V30 6400 H 594.72 1.3232 -0.568094 0
M  V30 6401 H 596.673 4.13128 0.830854 0
M  V30 6402 H 595.397 2.98816 1.31821 0
M  V30 6403 H 594.056 3.59326 -0.726649 0
M  V30 6404 H 593.704 4.82502 1.4213 0
M  V30 6405 H 593.404 5.87598 0.0144878 0
M  V30 6406 H 594.928 6.03424 0.933387 0
M  V30 6407 H 596.342 5.58523 -1.29323 0
M  V30 6408 H 594.739 5.62779 -2.08327 0
M  V30 6409 H 595.809 4.24012 -2.35249 0
M  V30 6410 N 597.152 0.631951 1.44375 0
M  V30 6411 C 598.102 -0.0943862 2.27805 0
M  V30 6412 C 599.086 -0.815359 1.38711 0
M  V30 6413 O 600.278 -0.701331 1.62513 0
M  V30 6414 C 597.407 -1.07472 3.26044 0
M  V30 6415 C 596.493 -0.353329 4.22626 0
M  V30 6416 N 596.884 0.618512 5.02004 0
M  V30 6417 C 595.182 -0.597662 4.41977 0
M  V30 6418 C 595.883 1.0448 5.7224 0
M  V30 6419 N 594.859 0.383413 5.42246 0
M  V30 6420 H 598.661 0.651672 2.86584 0
M  V30 6421 H 596.175 0.45752 1.55822 0
M  V30 6422 H 598.172 -1.60969 3.84571 0
M  V30 6423 H 596.832 -1.82107 2.68825 0
M  V30 6424 H 597.843 0.996356 5.08226 0
M  V30 6425 H 594.52 -1.32682 3.95856 0
M  V30 6426 H 595.91 1.84773 6.45994 0
M  V30 6427 N 598.631 -1.53133 0.372548 0
M  V30 6428 C 599.578 -2.25951 -0.470631 0
M  V30 6429 C 600.548 -1.26895 -1.07176 0
M  V30 6430 O 601.733 -1.55691 -1.10294 0
M  V30 6431 C 598.873 -3.05726 -1.6008 0
M  V30 6432 C 597.986 -4.19684 -1.02416 0
M  V30 6433 C 597.121 -4.86888 -2.124 0
M  V30 6434 C 596.16 -5.92866 -1.52238 0
M  V30 6435 N 595.297 -6.53732 -2.56084 0
M  V30 6436 H 600.137 -2.97587 0.156816 0
M  V30 6437 H 597.674 -1.4683 0.0891571 0
M  V30 6438 H 599.632 -3.50258 -2.26661 0
M  V30 6439 H 598.262 -2.36331 -2.1988 0
M  V30 6440 H 597.314 -3.79588 -0.248426 0
M  V30 6441 H 598.626 -4.95821 -0.544366 0
M  V30 6442 H 597.78 -5.34638 -2.86787 0
M  V30 6443 H 596.519 -4.10239 -2.63734 0
M  V30 6444 H 595.524 -5.4447 -0.763685 0
M  V30 6445 H 596.749 -6.71439 -1.0172 0
M  V30 6446 H 594.695 -5.79932 -3.06618 0
M  V30 6447 H 594.612 -7.25429 -2.12811 0
M  V30 6448 H 595.88 -7.0613 -3.30152 0
M  V30 6449 N 600.109 -0.101901 -1.5727 0
M  V30 6450 C 601.042 0.891377 -2.10071 0
M  V30 6451 C 602.02 1.27197 -1.01291 0
M  V30 6452 O 603.204 1.37602 -1.28833 0
M  V30 6453 C 600.331 2.19049 -2.58331 0
M  V30 6454 C 599.377 1.95925 -3.78834 0
M  V30 6455 S 600.21 1.19106 -5.22086 0
M  V30 6456 C 601.366 2.50234 -5.73702 0
M  V30 6457 H 601.599 0.442212 -2.93993 0
M  V30 6458 H 599.132 0.111529 -1.53997 0
M  V30 6459 H 601.09 2.937 -2.86793 0
M  V30 6460 H 599.751 2.61086 -1.74622 0
M  V30 6461 H 598.944 2.92143 -4.10693 0
M  V30 6462 H 598.546 1.29401 -3.50901 0
M  V30 6463 H 600.838 3.46173 -5.82384 0
M  V30 6464 H 601.781 2.22944 -6.72088 0
M  V30 6465 H 602.189 2.58818 -5.01671 0
M  V30 6466 N 601.587 1.56661 0.17182 0
M  V30 6467 C 602.519 1.92934 1.2373 0
M  V30 6468 C 603.532 0.822385 1.40502 0
M  V30 6469 O 604.721 1.10083 1.40514 0
M  V30 6470 C 601.821 2.16651 2.60607 0
M  V30 6471 C 600.994 3.47878 2.6514 0
M  V30 6472 C 600.053 3.60429 3.83377 0
M  V30 6473 O 599.079 4.33051 3.69398 0
M  V30 6474 N 600.281 2.95241 4.99813 0
M  V30 6475 H 603.046 2.84931 0.929205 0
M  V30 6476 H 600.607 1.5781 0.361588 0
M  V30 6477 H 602.599 2.22312 3.38171 0
M  V30 6478 H 601.169 1.3104 2.83809 0
M  V30 6479 H 600.389 3.53879 1.73675 0
M  V30 6480 H 601.677 4.34232 2.6518 0
M  V30 6481 H 601.075 2.3611 5.14071 0
M  V30 6482 H 599.632 3.06499 5.75241 0
M  V30 6483 N 603.065 -0.440357 1.51323 0
M  V30 6484 C 604.481 -0.7766 1.39431 0
M  V30 6485 C 604.681 -1.95838 0.474296 0
M  V30 6486 O 603.737 -2.52398 -0.0716692 0
M  V30 6487 C 605.05 -1.05981 2.81405 0
M  V30 6488 C 606.598 -1.16442 2.90534 0
M  V30 6489 C 607.073 -1.48058 4.33408 0
M  V30 6490 N 608.564 -1.54988 4.36501 0
M  V30 6491 C 609.299 -1.81017 5.44078 0
M  V30 6492 N 608.795 -2.04858 6.61819 0
M  V30 6493 N 610.588 -1.82774 5.31554 0
M  V30 6494 H 602.739 0.338006 2.09693 0
M  V30 6495 H 605.002 0.0888072 0.943831 0
M  V30 6496 H 604.708 -0.264173 3.50706 0
M  V30 6497 H 604.582 -1.98822 3.20546 0
M  V30 6498 H 606.969 -1.95068 2.21432 0
M  V30 6499 H 607.05 -0.215088 2.54894 0
M  V30 6500 H 606.694 -0.699605 5.03059 0
M  V30 6501 H 606.624 -2.44192 4.66559 0
M  V30 6502 H 609.115 -1.38479 3.51613 0
M  V30 6503 H 609.428 -2.2408 7.396 0
M  V30 6504 H 607.773 -2.02187 6.6494 0
M  V30 6505 H 610.964 -1.63665 4.38556 0
M  V30 6506 H 611.137 -2.02722 6.15474 0
M  V30 6507 N 604.543 -1.41418 -0.695603 0
M  V30 6508 C 605.771 -1.4413 -1.48439 0
M  V30 6509 C 606.186 -0.0465698 -1.88743 0
M  V30 6510 O 605.543 0.934117 -1.56782 0
M  V30 6511 C 605.594 -2.34998 -2.74696 0
M  V30 6512 O 605.315 -3.69043 -2.36091 0
M  V30 6513 C 606.816 -2.46513 -3.68438 0
M  V30 6514 H 604.036 -0.490905 -0.457442 0
M  V30 6515 H 606.58 -1.85702 -0.856454 0
M  V30 6516 H 604.735 -1.96735 -3.33728 0
M  V30 6517 H 605.149 -4.17505 -3.17474 0
M  V30 6518 H 606.623 -3.1426 -4.53811 0
M  V30 6519 H 607.1 -1.49638 -4.12922 0
M  V30 6520 H 607.706 -2.85412 -3.1531 0
M  V30 6521 N 606.021 0.929856 -1.27246 0
M  V30 6522 C 606.951 2.04722 -1.12299 0
M  V30 6523 C 607.932 1.70082 -0.0250464 0
M  V30 6524 O 609.117 1.93176 -0.199141 0
M  V30 6525 C 606.247 3.38721 -0.767145 0
M  V30 6526 C 605.201 3.87466 -1.81808 0
M  V30 6527 C 604.527 5.18246 -1.31626 0
M  V30 6528 C 605.827 4.11095 -3.22177 0
M  V30 6529 H 607.521 2.17485 -2.05769 0
M  V30 6530 H 605.067 1.04503 -0.990715 0
M  V30 6531 H 607.02 4.16366 -0.649413 0
M  V30 6532 H 605.744 3.25967 0.203259 0
M  V30 6533 H 604.403 3.12012 -1.92468 0
M  V30 6534 H 604.051 5.01881 -0.335378 0
M  V30 6535 H 603.751 5.51829 -2.01887 0
M  V30 6536 H 605.275 5.98462 -1.21143 0
M  V30 6537 H 606.689 4.79316 -3.1453 0
M  V30 6538 H 605.086 4.55982 -3.90129 0
M  V30 6539 H 606.156 3.16468 -3.67391 0
M  V30 6540 N 607.499 1.09233 1.13605 0
M  V30 6541 C 608.739 0.836786 1.86487 0
M  V30 6542 C 609.103 -0.626191 1.81502 0
M  V30 6543 O 610.304 -0.99758 2.49603 0
M  V30 6544 C 608.575 1.35476 3.30728 0
M  V30 6545 S 610.134 1.2328 4.21126 0
M  V30 6546 H 606.952 0.302702 0.643345 0
M  V30 6547 H 609.554 1.3953 1.36936 0
M  V30 6548 H 608.258 2.41381 3.31909 0
M  V30 6549 H 607.789 0.792286 3.85339 0
M  V30 6550 H 609.804 0.182468 4.95864 0
M  V30 6551 N 608.977 -1.30795 0.87923 0
M  V30 6552 C 610.388 -1.78535 0.546093 0
M  V30 6553 C 610.739 -1.72354 -0.937467 0
M  V30 6554 O 609.864 -1.2969 -1.73233 0
M  V30 6555 C 610.459 -3.24181 0.9845 0
M  V30 6556 C 609.018 -3.69779 0.702871 0
M  V30 6557 C 608.165 -2.51377 1.17068 0
M  V30 6558 H 611.116 -1.17746 1.06403 0
M  V30 6559 H 611.137 -3.79227 0.311045 0
M  V30 6560 H 610.649 -3.28647 2.06429 0
M  V30 6561 H 608.75 -3.70806 -0.365166 0
M  V30 6562 H 608.863 -4.61507 1.28639 0
M  V30 6563 H 607.227 -2.47768 0.590172 0
M  V30 6564 H 608.01 -2.58584 2.25808 0
M  V30 6565 N 610.455 -0.639598 -1.44038 0
M  V30 6566 C 611.403 0.0723409 -2.32487 0
M  V30 6567 C 612.397 0.827129 -1.47834 0
M  V30 6568 O 613.603 0.73907 -1.64127 0
M  V30 6569 H 609.978 0.0421696 -0.750817 0
M  V30 6570 H 611.949 -0.691593 -2.90275 0
M  V30 6571 C 610.698 1.03452 -3.31953 0
M  V30 6572 H 610.021 0.46315 -3.97108 0
M  V30 6573 H 611.461 1.502 -3.96505 0
M  V30 6574 C 609.92 2.12392 -2.61518 0
M  V30 6575 O 610.45 3.2059 -2.42044 0
M  V30 6576 N 608.656 1.88563 -2.21116 0
M  V30 6577 H 608.203 1.00577 -2.37154 0
M  V30 6578 H 608.161 2.61651 -1.74316 0
M  V30 6579 N 611.933 1.52934 -0.380664 0
M  V30 6580 C 613.161 2.05886 0.204599 0
M  V30 6581 C 613.576 1.25305 1.41223 0
M  V30 6582 O 612.933 0.297504 1.80059 0
M  V30 6583 C 612.984 3.56764 0.583249 0
M  V30 6584 O 612.705 4.34292 -0.576398 0
M  V30 6585 C 614.206 4.2603 1.2253 0
M  V30 6586 H 611.426 0.670193 0.0328991 0
M  V30 6587 H 613.97 1.97148 -0.543397 0
M  V30 6588 H 612.125 3.65603 1.28115 0
M  V30 6589 H 612.539 5.23819 -0.267119 0
M  V30 6590 H 614.013 5.32868 1.44068 0
M  V30 6591 H 614.49 3.80698 2.19011 0
M  V30 6592 H 615.096 4.21485 0.568407 0
M  V30 6593 N 613.412 0.11024 1.57214 0
M  V30 6594 C 614.64 -0.557834 1.99238 0
M  V30 6595 C 615.055 -1.60778 0.989734 0
M  V30 6596 O 614.412 -1.82491 -0.0186092 0
M  V30 6597 C 614.463 -1.19189 3.41286 0
M  V30 6598 O 614.184 -0.183919 4.37714 0
M  V30 6599 C 615.685 -1.94413 3.98395 0
M  V30 6600 H 612.905 -0.148392 0.654386 0
M  V30 6601 H 615.449 0.193996 2.03578 0
M  V30 6602 H 613.604 -1.89456 3.37913 0
M  V30 6603 H 614.018 -0.643475 5.20538 0
M  V30 6604 H 615.492 -2.34116 4.99894 0
M  V30 6605 H 615.969 -2.81592 3.3705 0
M  V30 6606 H 616.575 -1.28928 4.05287 0
M  V30 6607 N 614.89 -1.56749 -0.16351 0
M  V30 6608 C 615.837 -1.97011 -1.2023 0
M  V30 6609 C 616.807 -0.835186 -1.43575 0
M  V30 6610 O 617.992 -1.09594 -1.56185 0
M  V30 6611 C 615.132 -2.34186 -2.53478 0
M  V30 6612 C 614.245 -3.60893 -2.37446 0
M  V30 6613 C 613.38 -3.87245 -3.63614 0
M  V30 6614 C 612.419 -5.07274 -3.42548 0
M  V30 6615 N 611.556 -5.29719 -4.60806 0
M  V30 6616 H 616.396 -2.85562 -0.851958 0
M  V30 6617 H 613.933 -1.41292 -0.409257 0
M  V30 6618 H 615.891 -2.53764 -3.31149 0
M  V30 6619 H 614.521 -1.48736 -2.86492 0
M  V30 6620 H 613.573 -3.49185 -1.50911 0
M  V30 6621 H 614.885 -4.48722 -2.1783 0
M  V30 6622 H 614.039 -4.07232 -4.49719 0
M  V30 6623 H 612.778 -2.97806 -3.86216 0
M  V30 6624 H 611.783 -4.87177 -2.5483 0
M  V30 6625 H 613.008 -5.98251 -3.2136 0
M  V30 6626 H 610.954 -4.43233 -4.83612 0
M  V30 6627 H 610.871 -6.11786 -4.44132 0
M  V30 6628 H 612.139 -5.54192 -5.48171 0
M  V30 6629 N 616.368 0.432326 -1.51554 0
M  V30 6630 C 617.298 1.53242 -1.76179 0
M  V30 6631 C 618.279 1.58717 -0.611801 0
M  V30 6632 O 619.464 1.74364 -0.855033 0
M  V30 6633 C 616.594 2.91278 -1.89141 0
M  V30 6634 C 615.548 3.00663 -3.04608 0
M  V30 6635 C 614.874 4.40728 -3.02759 0
M  V30 6636 C 616.174 2.74281 -4.44485 0
M  V30 6637 H 617.868 1.32886 -2.68294 0
M  V30 6638 H 615.414 0.637841 -1.29103 0
M  V30 6639 H 617.367 3.68203 -2.04951 0
M  V30 6640 H 616.091 3.12877 -0.936785 0
M  V30 6641 H 614.75 2.26179 -2.88511 0
M  V30 6642 H 614.398 4.59301 -2.05065 0
M  V30 6643 H 614.098 4.47936 -3.80299 0
M  V30 6644 H 615.622 5.19619 -3.20669 0
M  V30 6645 H 617.036 3.40936 -4.60907 0
M  V30 6646 H 615.433 2.92893 -5.23769 0
M  V30 6647 H 616.503 1.69856 -4.54177 0
M  V30 6648 N 617.846 1.41785 0.688094 0
M  V30 6649 C 619.086 1.43018 1.46032 0
M  V30 6650 C 619.45 0.0402632 1.91958 0
M  V30 6651 O 620.651 -0.0726425 2.68702 0
M  V30 6652 C 618.922 2.4151 2.63453 0
M  V30 6653 S 620.481 2.61335 3.5249 0
M  V30 6654 H 617.299 0.506546 0.498931 0
M  V30 6655 H 619.901 1.78283 0.80221 0
M  V30 6656 H 618.605 3.41286 2.27929 0
M  V30 6657 H 618.136 2.07624 3.34149 0
M  V30 6658 H 620.151 1.88637 4.58945 0
M  V30 6659 N 619.324 -0.923095 1.27737 0
M  V30 6660 C 620.601 -1.64989 1.05062 0
M  V30 6661 C 620.981 -2.07018 -0.413124 0
M  V30 6662 O 620.329 -1.80797 -1.39731 0
M  V30 6663 C 620.539 -2.84847 2.01652 0
M  V30 6664 C 621.887 -3.56083 2.31279 0
M  V30 6665 O 622.911 -2.94981 1.99662 0
M  V30 6666 O 621.77 -4.66182 2.85196 0
M  V30 6667 H 618.864 -0.723357 0.400853 0
M  V30 6668 H 621.41 -0.973224 1.3902 0
M  V30 6669 H 620.182 -2.50814 3.00347 0
M  V30 6670 H 619.805 -3.60231 1.68284 0
M  V30 6671 N 620.802 -1.09834 -1.13024 0
M  V30 6672 C 621.765 -0.745058 -2.16752 0
M  V30 6673 C 622.765 0.227435 -1.59183 0
M  V30 6674 O 623.955 0.0050786 -1.74199 0
M  V30 6675 C 621.087 -0.102543 -3.40746 0
M  V30 6676 H 622.28 -1.66375 -2.49518 0
M  V30 6677 H 619.833 -0.898061 -1.27924 0
M  V30 6678 H 620.568 0.827177 -3.13573 0
M  V30 6679 H 620.353 -0.80235 -3.83803 0
M  V30 6680 H 621.843 0.129082 -4.174 0
M  V30 6681 N 622.28 1.30327 -0.886154 0
M  V30 6682 C 623.213 2.26241 -0.298407 0
M  V30 6683 C 624.191 1.51839 0.581704 0
M  V30 6684 O 625.375 1.80851 0.531536 0
M  V30 6685 C 622.502 3.33768 0.575888 0
M  V30 6686 C 621.548 4.25852 -0.235057 0
M  V30 6687 S 622.381 5.10277 -1.62411 0
M  V30 6688 C 623.537 6.21313 -0.756368 0
M  V30 6689 H 623.77 2.75744 -1.11141 0
M  V30 6690 H 621.303 1.38341 -0.685651 0
M  V30 6691 H 623.261 3.96186 1.07458 0
M  V30 6692 H 621.922 2.82986 1.363 0
M  V30 6693 H 621.115 5.02143 0.432198 0
M  V30 6694 H 620.717 3.68015 -0.666409 0
M  V30 6695 H 623.009 6.77495 0.0261451 0
M  V30 6696 H 623.952 6.92226 -1.49093 0
M  V30 6697 H 624.36 5.63611 -0.316749 0
M  V30 6698 N 623.758 0.647228 1.43697 0
M  V30 6699 C 624.705 -0.0480092 2.3075 0
M  V30 6700 C 625.675 -0.820705 1.44408 0
M  V30 6701 O 626.86 -0.798515 1.73287 0
M  V30 6702 C 624 -1.01259 3.2991 0
M  V30 6703 C 623.113 -0.236629 4.31351 0
M  V30 6704 C 622.248 -1.19447 5.17596 0
M  V30 6705 C 621.287 -0.408595 6.10735 0
M  V30 6706 N 620.424 -1.31772 6.89623 0
M  V30 6707 H 625.264 0.700238 2.89656 0
M  V30 6708 H 622.801 0.357082 1.427 0
M  V30 6709 H 624.759 -1.58538 3.85903 0
M  V30 6710 H 623.389 -1.72778 2.72667 0
M  V30 6711 H 622.441 0.452353 3.77701 0
M  V30 6712 H 623.753 0.374731 4.9739 0
M  V30 6713 H 622.907 -1.83809 5.78186 0
M  V30 6714 H 621.646 -1.83975 4.51669 0
M  V30 6715 H 620.651 0.24841 5.49239 0
M  V30 6716 H 621.876 0.232188 6.78703 0
M  V30 6717 H 619.822 -1.94991 6.2635 0
M  V30 6718 H 619.739 -0.760779 7.52162 0
M  V30 6719 H 621.007 -1.94967 7.54724 0
M  V30 6720 N 625.236 -1.5273 0.388769 0
M  V30 6721 C 626.485 -2.00757 -0.194833 0
M  V30 6722 C 626.798 -1.27951 -1.47946 0
M  V30 6723 O 628.004 -1.66686 -2.14308 0
M  V30 6724 C 626.46 -3.57695 -0.397762 0
M  V30 6725 C 626.068 -4.394 0.873583 0
M  V30 6726 C 627.812 -4.14012 -0.937759 0
M  V30 6727 C 625.719 -5.87938 0.638962 0
M  V30 6728 H 624.649 -0.750101 -0.0765845 0
M  V30 6729 H 627.3 -1.76239 0.511086 0
M  V30 6730 H 625.682 -3.7846 -1.16552 0
M  V30 6731 H 626.856 -4.30403 1.64591 0
M  V30 6732 H 625.171 -3.94301 1.33849 0
M  V30 6733 H 627.768 -5.22645 -1.12899 0
M  V30 6734 H 628.111 -3.7007 -1.90666 0
M  V30 6735 H 628.644 -3.97137 -0.229588 0
M  V30 6736 H 625.383 -6.36202 1.57885 0
M  V30 6737 H 624.903 -5.99726 -0.094443 0
M  V30 6738 H 626.582 -6.46423 0.273299 0
M  V30 6739 N 626.714 -0.118576 -1.57153 0
M  V30 6740 C 627.644 0.828436 -2.1831 0
M  V30 6741 C 628.625 1.27758 -1.12303 0
M  V30 6742 O 629.81 1.34026 -1.40537 0
M  V30 6743 C 626.94 2.07876 -2.78217 0
M  V30 6744 C 625.894 1.76742 -3.89803 0
M  V30 6745 C 625.22 3.08801 -4.36516 0
M  V30 6746 C 626.52 1.03606 -5.11921 0
M  V30 6747 H 628.214 0.318824 -2.97698 0
M  V30 6748 H 625.76 0.151911 -1.43196 0
M  V30 6749 H 627.713 2.74584 -3.19659 0
M  V30 6750 H 626.437 2.61161 -1.96118 0
M  V30 6751 H 625.096 1.12424 -3.48936 0
M  V30 6752 H 624.744 3.6002 -3.51276 0
M  V30 6753 H 624.444 2.88743 -5.11763 0
M  V30 6754 H 625.968 3.76627 -4.80608 0
M  V30 6755 H 627.382 1.60467 -5.50385 0
M  V30 6756 H 625.779 0.936454 -5.92748 0
M  V30 6757 H 626.849 0.0227421 -4.84895 0
M  V30 6758 N 628.193 1.56834 0.155195 0
M  V30 6759 C 629.47 1.73799 0.897395 0
M  V30 6760 C 629.85 0.684379 1.99698 0
M  V30 6761 O 629.198 -0.298111 2.26547 0
M  V30 6762 C 629.408 3.17572 1.44737 0
M  V30 6763 C 630.756 3.79014 1.91399 0
M  V30 6764 O 631.78 3.20951 1.54496 0
M  V30 6765 O 630.639 4.80998 2.59429 0
M  V30 6766 H 627.733 0.710329 0.423511 0
M  V30 6767 H 630.279 1.69107 0.141761 0
M  V30 6768 H 629.051 3.85749 0.656741 0
M  V30 6769 H 628.674 3.26657 2.26674 0
M  V30 6770 N 629.671 -0.424282 1.51781 0
M  V30 6771 C 630.919 -1.17028 1.64769 0
M  V30 6772 C 631.24 -1.91409 0.372523 0
M  V30 6773 O 630.51 -1.86091 -0.612108 0
M  V30 6774 H 629.09 -0.434992 0.607282 0
M  V30 6775 H 631.752 -0.485169 1.88765 0
M  V30 6776 H 630.848 -1.8927 2.4816 0
M  V30 6777 N 631.149 -1.42148 -0.680565 0
M  V30 6778 C 632.096 -1.45175 -1.79424 0
M  V30 6779 C 633.066 -0.304352 -1.63288 0
M  V30 6780 O 634.251 -0.507591 -1.83924 0
M  V30 6781 C 631.391 -1.35429 -3.17416 0
M  V30 6782 C 630.504 -2.60158 -3.4488 0
M  V30 6783 C 629.639 -2.42596 -4.72568 0
M  V30 6784 C 628.678 -3.62727 -4.93047 0
M  V30 6785 N 627.815 -3.44143 -6.11973 0
M  V30 6786 H 632.655 -2.40349 -1.76172 0
M  V30 6787 H 630.192 -1.19334 -0.860107 0
M  V30 6788 H 632.15 -1.27777 -3.97151 0
M  V30 6789 H 630.78 -0.438536 -3.19807 0
M  V30 6790 H 629.832 -2.78199 -2.5944 0
M  V30 6791 H 631.144 -3.49473 -3.55908 0
M  V30 6792 H 630.298 -2.32497 -5.60384 0
M  V30 6793 H 629.037 -1.50761 -4.63813 0
M  V30 6794 H 628.042 -3.73264 -4.03676 0
M  V30 6795 H 629.267 -4.55534 -5.03652 0
M  V30 6796 H 627.213 -2.5502 -6.04401 0
M  V30 6797 H 627.13 -4.27041 -6.23836 0
M  V30 6798 H 628.398 -3.37845 -7.02482 0
M  V30 6799 N 632.627 0.916307 -1.28225 0
M  V30 6800 C 633.574 2.01841 -1.11932 0
M  V30 6801 C 634.544 1.66091 -0.0171604 0
M  V30 6802 O 635.729 1.89934 -0.181617 0
M  V30 6803 C 632.869 3.36065 -0.784504 0
M  V30 6804 C 631.982 3.847 -1.96544 0
M  V30 6805 C 631.117 5.07423 -1.57149 0
M  V30 6806 C 630.156 5.48384 -2.71922 0
M  V30 6807 N 629.293 6.62298 -2.33037 0
M  V30 6808 H 634.133 2.1511 -2.06232 0
M  V30 6809 H 631.67 1.05366 -1.02647 0
M  V30 6810 H 633.628 4.13272 -0.571148 0
M  V30 6811 H 632.258 3.22571 0.121565 0
M  V30 6812 H 631.31 3.03673 -2.291 0
M  V30 6813 H 632.622 4.1102 -2.82603 0
M  V30 6814 H 631.776 5.92165 -1.32004 0
M  V30 6815 H 630.515 4.82906 -0.682153 0
M  V30 6816 H 629.52 4.62184 -2.97768 0
M  V30 6817 H 630.745 5.7489 -3.61494 0
M  V30 6818 H 628.691 6.39416 -1.4657 0
M  V30 6819 H 628.608 6.8833 -3.12631 0
M  V30 6820 H 629.876 7.50352 -2.11169 0
M  V30 6821 N 634.105 1.10431 1.1244 0
M  V30 6822 C 635.035 0.775143 2.20258 0
M  V30 6823 C 636.016 -0.25186 1.68225 0
M  V30 6824 O 637.201 -0.117637 1.93843 0
M  V30 6825 C 634.331 0.206133 3.46688 0
M  V30 6826 C 633.285 1.16382 4.11873 0
M  V30 6827 C 632.611 0.456014 5.32752 0
M  V30 6828 C 633.911 2.5104 4.58013 0
M  V30 6829 H 635.605 1.67665 2.4805 0
M  V30 6830 H 633.151 0.807595 1.19222 0
M  V30 6831 H 635.104 -0.036291 4.21384 0
M  V30 6832 H 633.828 -0.730614 3.18323 0
M  V30 6833 H 632.487 1.39169 3.39157 0
M  V30 6834 H 632.135 -0.485203 5.00654 0
M  V30 6835 H 631.835 1.09466 5.77314 0
M  V30 6836 H 633.359 0.222135 6.10196 0
M  V30 6837 H 634.773 2.32401 5.24083 0
M  V30 6838 H 633.17 3.10789 5.13352 0
M  V30 6839 H 634.24 3.11039 3.71998 0
M  V30 6840 N 635.583 -1.29855 0.893053 0
M  V30 6841 C 636.813 -1.99686 0.530019 0
M  V30 6842 C 637.221 -1.67066 -0.888012 0
M  V30 6843 O 636.564 -0.908366 -1.5967 0
M  V30 6844 C 636.626 -3.53855 0.63457 0
M  V30 6845 C 636.29 -4.10013 2.01837 0
M  V30 6846 C 637.287 -4.25406 2.98874 0
M  V30 6847 C 634.972 -4.45202 2.32595 0
M  V30 6848 C 636.966 -4.7521 4.24799 0
M  V30 6849 C 634.653 -4.94704 3.58763 0
M  V30 6850 C 635.651 -5.09662 4.5468 0
M  V30 6851 O 635.339 -5.58093 5.78608 0
M  V30 6852 H 635.071 -0.644913 0.20264 0
M  V30 6853 H 637.625 -1.66518 1.20253 0
M  V30 6854 H 635.855 -3.86583 -0.0949477 0
M  V30 6855 H 637.544 -4.04922 0.281648 0
M  V30 6856 H 638.31 -3.98515 2.76425 0
M  V30 6857 H 634.189 -4.32822 1.58701 0
M  V30 6858 H 637.733 -4.86801 4.99671 0
M  V30 6859 H 633.63 -5.21032 3.81046 0
M  V30 6860 H 634.398 -5.7642 5.81104 0
M  V30 6861 N 637.061 -0.65484 -1.43351 0
M  V30 6862 C 638.008 0.0357713 -2.30772 0
M  V30 6863 C 638.978 0.813035 -1.44841 0
M  V30 6864 O 640.163 0.789314 -1.73708 0
M  V30 6865 C 637.303 0.995084 -3.30442 0
M  V30 6866 C 636.416 0.21375 -4.31471 0
M  V30 6867 C 635.551 1.16701 -5.18222 0
M  V30 6868 C 634.59 0.376201 -6.10943 0
M  V30 6869 N 633.727 1.28113 -6.90313 0
M  V30 6870 H 638.567 -0.71559 -2.89281 0
M  V30 6871 H 636.104 -0.364645 -1.42509 0
M  V30 6872 H 638.062 1.5649 -3.86739 0
M  V30 6873 H 636.692 1.7133 -2.7358 0
M  V30 6874 H 635.744 -0.472377 -3.77456 0
M  V30 6875 H 637.056 -0.401103 -4.97185 0
M  V30 6876 H 636.21 1.8074 -5.79153 0
M  V30 6877 H 634.949 1.81577 -4.52638 0
M  V30 6878 H 633.954 -0.277534 -5.49099 0
M  V30 6879 H 635.179 -0.268178 -6.7857 0
M  V30 6880 H 633.125 1.91666 -6.27376 0
M  V30 6881 H 633.042 0.720879 -7.52555 0
M  V30 6882 H 634.31 1.90962 -7.55747 0
M  V30 6883 N 638.539 1.52521 -0.396863 0
M  V30 6884 C 639.816 1.94112 0.240842 0
M  V30 6885 C 640.196 1.33288 1.637 0
M  V30 6886 O 639.544 0.503901 2.22875 0
M  V30 6887 C 639.754 3.48033 0.259567 0
M  V30 6888 C 641.102 4.21822 0.484866 0
M  V30 6889 O 642.126 3.54579 0.339453 0
M  V30 6890 O 640.985 5.41042 0.770412 0
M  V30 6891 H 638.079 0.812973 0.151671 0
M  V30 6892 H 640.625 1.63572 -0.451918 0
M  V30 6893 H 639.397 3.84655 -0.718078 0
M  V30 6894 H 639.02 3.84899 0.996937 0
M  V30 6895 N 640.017 0.126909 1.57088 0
M  V30 6896 C 641.247 -0.535892 1.99529 0
M  V30 6897 C 641.655 -1.60259 1.00566 0
M  V30 6898 O 640.998 -1.83698 -0.00843269 0
M  V30 6899 C 641.06 -1.21374 3.38391 0
M  V30 6900 C 640.724 -0.294044 4.56053 0
M  V30 6901 C 641.721 0.470454 5.17767 0
M  V30 6902 C 639.406 -0.202808 5.0189 0
M  V30 6903 C 641.4 1.31384 6.23712 0
M  V30 6904 C 639.087 0.644203 6.07695 0
M  V30 6905 C 640.085 1.40115 6.68473 0
M  V30 6906 O 639.773 2.23408 7.72233 0
M  V30 6907 H 639.505 -0.145799 0.66009 0
M  V30 6908 H 642.059 0.212441 2.04298 0
M  V30 6909 H 640.289 -2.00931 3.30399 0
M  V30 6910 H 641.978 -1.77424 3.65069 0
M  V30 6911 H 642.744 0.409884 4.83265 0
M  V30 6912 H 638.623 -0.781688 4.54324 0
M  V30 6913 H 642.167 1.90514 6.71081 0
M  V30 6914 H 638.064 0.706137 6.41626 0
M  V30 6915 H 638.832 2.16436 7.89365 0
M  V30 6916 N 641.495 -1.56914 -0.146875 0
M  V30 6917 C 642.425 -2.01308 -1.1831 0
M  V30 6918 C 643.406 -0.892664 -1.44795 0
M  V30 6919 O 644.591 -1.16048 -1.55713 0
M  V30 6920 C 641.721 -2.3938 -2.51624 0
M  V30 6921 C 640.675 -3.54608 -2.3966 0
M  V30 6922 C 640.001 -3.78493 -3.77686 0
M  V30 6923 C 641.301 -4.87269 -1.88058 0
M  V30 6924 H 642.995 -2.88123 -0.813964 0
M  V30 6925 H 640.541 -1.38615 -0.3901 0
M  V30 6926 H 642.494 -2.69037 -3.24341 0
M  V30 6927 H 641.218 -1.49502 -2.90373 0
M  V30 6928 H 639.877 -3.25116 -1.69396 0
M  V30 6929 H 639.525 -2.85866 -4.13871 0
M  V30 6930 H 639.225 -4.56039 -3.70543 0
M  V30 6931 H 640.749 -4.10576 -4.51951 0
M  V30 6932 H 642.163 -5.15644 -2.50568 0
M  V30 6933 H 640.56 -5.68622 -1.91805 0
M  V30 6934 H 641.63 -4.77634 -0.836277 0
M  V30 6935 N 642.974 0.416227 -1.52004 0
M  V30 6936 C 643.904 1.51365 -1.77795 0
M  V30 6937 C 644.885 1.58059 -0.628601 0
M  V30 6938 O 646.07 1.73447 -0.873478 0
M  V30 6939 C 643.2 2.89256 -1.92219 0
M  V30 6940 C 642.154 2.97415 -3.0778 0
M  V30 6941 C 641.48 4.37492 -3.07417 0
M  V30 6942 C 642.78 2.69551 -4.47369 0
M  V30 6943 H 644.474 1.30033 -2.69688 0
M  V30 6944 H 642.02 0.624112 -1.29772 0
M  V30 6945 H 643.973 3.66008 -2.08845 0
M  V30 6946 H 642.697 3.11866 -0.969917 0
M  V30 6947 H 641.356 2.23107 -2.90893 0
M  V30 6948 H 641.004 4.571 -2.09925 0
M  V30 6949 H 640.704 4.43877 -3.85029 0
M  V30 6950 H 642.228 5.16188 -3.26162 0
M  V30 6951 H 643.642 3.36028 -4.64497 0
M  V30 6952 H 642.039 2.87321 -5.26846 0
M  V30 6953 H 643.109 1.65029 -4.55953 0
M  V30 6954 N 644.452 1.42507 0.673017 0
M  V30 6955 C 645.399 1.46124 1.78651 0
M  V30 6956 C 646.369 0.313007 1.63124 0
M  V30 6957 O 647.554 0.517337 1.83653 0
M  V30 6958 C 644.694 1.3711 3.16694 0
M  V30 6959 C 643.807 2.61983 3.43495 0
M  V30 6960 C 642.942 2.45098 4.71275 0
M  V30 6961 C 641.981 3.65336 4.91117 0
M  V30 6962 N 641.118 3.47383 6.10139 0
M  V30 6963 H 645.958 2.4128 1.74895 0
M  V30 6964 H 643.495 1.19788 0.853766 0
M  V30 6965 H 645.453 1.29881 3.96468 0
M  V30 6966 H 644.083 0.45549 3.1957 0
M  V30 6967 H 643.135 2.79571 2.57961 0
M  V30 6968 H 644.447 3.51355 3.5405 0
M  V30 6969 H 643.601 2.35466 5.59143 0
M  V30 6970 H 642.34 1.53219 4.63007 0
M  V30 6971 H 641.345 3.754 4.0169 0
M  V30 6972 H 642.57 4.58199 5.01229 0
M  V30 6973 H 640.516 2.58222 6.0304 0
M  V30 6974 H 640.433 4.30344 6.21563 0
M  V30 6975 H 641.701 3.41565 7.00681 0
M  V30 6976 N 645.93 -0.909495 1.28709 0
M  V30 6977 C 647.179 -1.65365 1.15487 0
M  V30 6978 C 647.492 -1.93364 -0.294941 0
M  V30 6979 O 648.698 -2.65905 -0.548338 0
M  V30 6980 C 647.154 -2.97923 2.01916 0
M  V30 6981 C 646.762 -2.77556 3.51663 0
M  V30 6982 C 648.506 -3.75814 1.97393 0
M  V30 6983 C 646.413 -4.0578 4.30229 0
M  V30 6984 H 645.343 -0.620323 0.42862 0
M  V30 6985 H 647.994 -1.00894 1.53273 0
M  V30 6986 H 646.376 -3.63552 1.5699 0
M  V30 6987 H 647.55 -2.2058 4.04575 0
M  V30 6988 H 645.865 -2.13072 3.57756 0
M  V30 6989 H 648.462 -4.70866 2.53357 0
M  V30 6990 H 648.805 -4.05277 0.951643 0
M  V30 6991 H 649.338 -3.1701 2.40311 0
M  V30 6992 H 646.077 -3.81488 5.33055 0
M  V30 6993 H 645.597 -4.62351 3.82089 0
M  V30 6994 H 647.276 -4.74004 4.40374 0
M  V30 6995 N 647.408 -1.11026 -1.11852 0
M  V30 6996 C 648.356 -0.759643 -2.19846 0
M  V30 6997 C 649.35 0.246964 -1.6759 0
M  V30 6998 O 650.556 0.106693 -1.79684 0
M  V30 6999 H 646.931 -0.22775 -0.716683 0
M  V30 7000 H 648.902 -1.6792 -2.46669 0
M  V30 7001 C 647.651 -0.214364 -3.47039 0
M  V30 7002 H 646.974 -0.980175 -3.87599 0
M  V30 7003 H 648.414 -0.00717047 -4.23999 0
M  V30 7004 C 646.873 1.05436 -3.19976 0
M  V30 7005 O 647.403 2.13483 -3.40276 0
M  V30 7006 N 645.609 0.975436 -2.7374 0
M  V30 7007 H 645.156 0.0960853 -2.57421 0
M  V30 7008 H 645.114 1.82501 -2.5601 0
M  V30 7009 N 648.886 1.2938 -0.899927 0
M  V30 7010 C 650.133 1.9555 -0.525963 0
M  V30 7011 C 650.461 1.70945 0.927789 0
M  V30 7012 O 649.716 1.01545 1.67293 0
M  V30 7013 C 650.015 3.49114 -0.765113 0
M  V30 7014 C 649.681 3.93796 -2.19626 0
M  V30 7015 C 648.343 4.05707 -2.58758 0
M  V30 7016 C 650.695 4.16883 -3.12823 0
M  V30 7017 C 648.023 4.38074 -3.90267 0
M  V30 7018 C 650.375 4.50725 -4.4388 0
M  V30 7019 C 649.039 4.60845 -4.82885 0
M  V30 7020 H 648.309 0.715569 -0.192463 0
M  V30 7021 H 650.956 1.53972 -1.13863 0
M  V30 7022 H 649.261 3.91738 -0.069531 0
M  V30 7023 H 650.958 3.98409 -0.455144 0
M  V30 7024 H 647.548 3.85042 -1.88256 0
M  V30 7025 H 651.732 4.07147 -2.83804 0
M  V30 7026 H 646.988 4.44112 -4.20207 0
M  V30 7027 H 651.162 4.67538 -5.16121 0
M  V30 7028 H 648.789 4.85681 -5.84823 0
M  V30 7029 N 650.364 0.662433 1.43002 0
M  V30 7030 C 651.592 0.187615 2.06048 0
M  V30 7031 C 652.007 -1.15039 1.49705 0
M  V30 7032 O 651.364 -1.71209 0.631956 0
M  V30 7033 C 651.415 0.100498 3.6136 0
M  V30 7034 O 651.136 1.38562 4.15611 0
M  V30 7035 C 652.637 -0.399298 4.41498 0
M  V30 7036 H 649.857 0.0941675 0.664359 0
M  V30 7037 H 652.401 0.905681 1.83351 0
M  V30 7038 H 650.556 -0.568181 3.83211 0
M  V30 7039 H 650.97 1.25084 5.09366 0
M  V30 7040 H 652.444 -0.409187 5.50481 0
M  V30 7041 H 652.921 -1.43232 4.15188 0
M  V30 7042 H 653.527 0.23721 4.24638 0
M  V30 7043 N 651.842 -1.52309 0.404946 0
M  V30 7044 C 652.805 -2.25491 -0.410651 0
M  V30 7045 C 653.805 -1.27704 -0.977154 0
M  V30 7046 O 654.995 -1.51679 -0.856691 0
M  V30 7047 C 652.127 -3.02197 -1.57765 0
M  V30 7048 H 653.32 -2.99015 0.230277 0
M  V30 7049 H 650.873 -1.55506 0.157377 0
M  V30 7050 H 651.608 -2.33013 -2.25556 0
M  V30 7051 H 651.393 -3.73987 -1.17797 0
M  V30 7052 H 652.883 -3.57719 -2.15469 0
M  V30 7053 N 653.32 -0.135238 -1.57019 0
M  V30 7054 C 654.731 0.387521 -1.82634 0
M  V30 7055 C 655.082 1.65528 -1.05332 0
M  V30 7056 O 654.207 2.14381 -0.294926 0
M  V30 7057 C 654.802 0.709852 -3.3128 0
M  V30 7058 C 653.361 1.17718 -3.57518 0
M  V30 7059 C 652.508 0.194183 -2.76619 0
M  V30 7060 H 655.459 -0.360126 -1.5456 0
M  V30 7061 H 655.48 1.5657 -3.46794 0
M  V30 7062 H 654.992 -0.213024 -3.87515 0
M  V30 7063 H 653.093 2.1164 -3.06658 0
M  V30 7064 H 653.206 1.11128 -4.66034 0
M  V30 7065 H 651.57 0.684478 -2.4533 0
M  V30 7066 H 652.353 -0.722076 -3.3562 0
M  V30 7067 N 654.798 1.5699 0.138552 0
M  V30 7068 C 656.045 1.83809 0.849732 0
M  V30 7069 C 656.373 0.717409 1.80786 0
M  V30 7070 O 655.628 -0.292897 1.93496 0
M  V30 7071 C 655.927 3.17007 1.65049 0
M  V30 7072 C 655.593 4.43037 0.838398 0
M  V30 7073 C 654.255 4.77262 0.614385 0
M  V30 7074 C 656.607 5.20495 0.271044 0
M  V30 7075 C 653.935 5.864 -0.187552 0
M  V30 7076 C 656.287 6.30476 -0.517979 0
M  V30 7077 C 654.951 6.63245 -0.75249 0
M  V30 7078 H 654.221 0.672605 0.310939 0
M  V30 7079 H 656.868 1.91166 0.112971 0
M  V30 7080 H 655.173 3.05138 2.4576 0
M  V30 7081 H 656.87 3.34975 2.20437 0
M  V30 7082 H 653.46 4.16211 1.02307 0
M  V30 7083 H 657.644 4.94422 0.431371 0
M  V30 7084 H 652.9 6.10226 -0.378659 0
M  V30 7085 H 657.074 6.89686 -0.964694 0
M  V30 7086 H 654.701 7.47648 -1.37573 0
M  V30 7087 N 656.276 -0.40816 1.52223 0
M  V30 7088 C 657.224 -1.51788 1.76248 0
M  V30 7089 C 658.218 -1.57264 0.629638 0
M  V30 7090 O 659.424 -1.60659 0.811704 0
M  V30 7091 H 655.799 -0.504823 0.557367 0
M  V30 7092 H 657.77 -1.2871 2.69214 0
M  V30 7093 C 656.519 -2.89145 1.93107 0
M  V30 7094 H 655.842 -2.85674 2.79697 0
M  V30 7095 H 657.282 -3.66082 2.13916 0
M  V30 7096 C 655.741 -3.29581 0.698431 0
M  V30 7097 O 656.271 -4.01479 -0.133238 0
M  V30 7098 N 654.477 -2.85651 0.53405 0
M  V30 7099 H 654.024 -2.2731 1.21194 0
M  V30 7100 H 653.982 -3.13065 -0.289387 0
M  V30 7101 N 657.755 -1.42862 -0.66545 0
M  V30 7102 C 659.166 -1.3901 -1.24632 0
M  V30 7103 C 659.517 -0.0880285 -1.96002 0
M  V30 7104 O 658.642 0.812947 -2.0055 0
M  V30 7105 C 659.237 -2.51806 -2.2667 0
M  V30 7106 C 657.796 -2.51257 -2.80262 0
M  V30 7107 C 656.943 -2.30124 -1.5472 0
M  V30 7108 H 659.894 -1.5194 -0.458237 0
M  V30 7109 H 659.915 -2.22593 -3.08598 0
M  V30 7110 H 659.427 -3.46558 -1.74697 0
M  V30 7111 H 657.528 -1.60349 -3.36332 0
M  V30 7112 H 657.641 -3.48614 -3.28641 0
M  V30 7113 H 656.005 -1.7856 -1.81627 0
M  V30 7114 H 656.788 -3.26945 -1.04699 0
M  V30 7115 N 659.233 0.902656 -1.29189 0
M  V30 7116 C 660.181 2.0278 -1.13943 0
M  V30 7117 C 661.175 1.69308 -0.055787 0
M  V30 7118 O 662.381 1.78707 -0.215371 0
M  V30 7119 H 658.756 0.664595 -0.351877 0
M  V30 7120 H 660.727 2.12778 -2.09208 0
M  V30 7121 C 659.476 3.37657 -0.82966 0
M  V30 7122 H 658.799 3.63913 -1.65551 0
M  V30 7123 H 660.239 4.17078 -0.762998 0
M  V30 7124 C 658.698 3.33648 0.466991 0
M  V30 7125 O 659.228 3.72886 1.49395 0
M  V30 7126 N 657.434 2.86745 0.471761 0
M  V30 7127 H 656.981 2.55009 -0.364406 0
M  V30 7128 H 656.939 2.84446 1.33933 0
M  V30 7129 N 660.711 1.11618 1.11262 0
M  V30 7130 C 661.658 0.7762 2.17356 0
M  V30 7131 C 662.628 -0.253152 1.6416 0
M  V30 7132 O 663.813 -0.129655 1.90359 0
M  V30 7133 C 660.953 0.227581 3.44349 0
M  V30 7134 C 660.066 1.31372 4.1154 0
M  V30 7135 C 659.201 0.72544 5.26223 0
M  V30 7136 C 658.24 1.7913 5.85302 0
M  V30 7137 N 657.377 1.22237 6.91377 0
M  V30 7138 H 662.217 1.68508 2.45783 0
M  V30 7139 H 659.754 0.841475 1.20655 0
M  V30 7140 H 661.712 -0.108483 4.17059 0
M  V30 7141 H 660.342 -0.644486 3.16301 0
M  V30 7142 H 659.394 1.7667 3.36885 0
M  V30 7143 H 660.706 2.12005 4.51504 0
M  V30 7144 H 659.86 0.339541 6.05749 0
M  V30 7145 H 658.599 -0.112188 4.87571 0
M  V30 7146 H 657.604 2.18648 5.04453 0
M  V30 7147 H 658.829 2.63199 6.26022 0
M  V30 7148 H 656.775 0.406423 6.5474 0
M  V30 7149 H 656.692 1.9654 7.30006 0
M  V30 7150 H 657.96 0.863426 7.74703 0
M  V30 7151 N 662.189 -1.289 0.906776 0
M  V30 7152 C 663.466 -1.90221 0.455537 0
M  V30 7153 C 663.846 -1.82251 -1.06527 0
M  V30 7154 O 663.194 -1.25385 -1.91026 0
M  V30 7155 C 663.404 -3.35015 0.97806 0
M  V30 7156 C 664.752 -4.12018 1.02598 0
M  V30 7157 O 665.776 -3.43947 0.926218 0
M  V30 7158 O 664.635 -5.33677 1.17689 0
M  V30 7159 H 661.729 -0.814505 0.143214 0
M  V30 7160 H 664.275 -1.37317 0.997104 0
M  V30 7161 H 663.047 -3.35006 2.02204 0
M  V30 7162 H 662.67 -3.95408 0.416914 0
M  V30 7163 N 663.667 -0.670007 -1.42649 0
M  V30 7164 C 664.63 0.00204659 -2.292 0
M  V30 7165 C 665.63 0.733817 -1.4308 0
M  V30 7166 O 666.82 0.57254 -1.64522 0
M  V30 7167 C 663.952 1.01359 -3.25483 0
M  V30 7168 H 665.145 -0.759696 -2.90118 0
M  V30 7169 H 662.698 -0.432105 -1.50208 0
M  V30 7170 H 663.433 1.80399 -2.69493 0
M  V30 7171 H 663.218 0.492323 -3.88997 0
M  V30 7172 H 664.708 1.4824 -3.90403 0
M  V30 7173 N 665.145 1.52092 -0.413018 0
M  V30 7174 C 666.422 1.94356 0.22024 0
M  V30 7175 C 666.802 1.35017 1.62277 0
M  V30 7176 O 666.15 0.527511 2.22328 0
M  V30 7177 C 666.36 3.48289 0.222638 0
M  V30 7178 C 667.708 4.22313 0.440098 0
M  V30 7179 O 668.732 3.54919 0.301826 0
M  V30 7180 O 667.591 5.41829 0.712984 0
M  V30 7181 H 664.685 0.814536 0.14304 0
M  V30 7182 H 667.231 1.63083 -0.469242 0
M  V30 7183 H 666.003 3.83872 -0.758836 0
M  V30 7184 H 665.626 3.85934 0.956057 0
M  V30 7185 N 666.623 0.143563 1.56945 0
M  V30 7186 C 667.848 -0.518701 2.00809 0
M  V30 7187 C 668.273 -1.5785 1.02298 0
M  V30 7188 O 667.631 -1.813 -0.0017839 0
M  V30 7189 C 667.679 -1.09929 3.43436 0
M  V30 7190 O 666.783 -2.21425 3.47915 0
M  V30 7191 H 666.124 -0.127215 0.6517 0
M  V30 7192 H 668.654 0.239283 2.03196 0
M  V30 7193 H 668.664 -1.4288 3.82164 0
M  V30 7194 H 667.339 -0.323162 4.14643 0
M  V30 7195 H 665.916 -1.89728 3.21026 0
M  V30 7196 N 668.101 -1.57061 -0.130224 0
M  V30 7197 C 669.35 -1.83446 -0.838488 0
M  V30 7198 C 669.663 -0.727468 -1.81569 0
M  V30 7199 O 670.869 -0.877394 -2.56932 0
M  V30 7200 C 669.325 -3.25201 -1.54182 0
M  V30 7201 C 668.933 -4.4388 -0.606178 0
M  V30 7202 C 670.677 -3.60844 -2.23588 0
M  V30 7203 C 668.584 -5.76661 -1.31209 0
M  V30 7204 H 667.514 -0.684185 -0.316871 0
M  V30 7205 H 670.165 -1.83273 -0.0912059 0
M  V30 7206 H 668.547 -3.1981 -2.33533 0
M  V30 7207 H 669.721 -4.60545 0.153308 0
M  V30 7208 H 668.036 -4.16395 -0.0196705 0
M  V30 7209 H 670.633 -4.57313 -2.77072 0
M  V30 7210 H 670.976 -2.87724 -3.00867 0
M  V30 7211 H 671.509 -3.67971 -1.51137 0
M  V30 7212 H 668.248 -6.52922 -0.580823 0
M  V30 7213 H 667.768 -5.63902 -2.04387 0
M  V30 7214 H 669.447 -6.20035 -1.8484 0
M  V30 7215 N 669.579 0.400081 -1.52437 0
M  V30 7216 C 670.825 1.14788 -1.67187 0
M  V30 7217 C 671.158 1.89928 -0.405074 0
M  V30 7218 O 670.433 1.85118 0.596804 0
M  V30 7219 C 670.716 2.13507 -2.89977 0
M  V30 7220 C 670.569 1.42204 -4.2673 0
M  V30 7221 C 671.888 3.14069 -3.083 0
M  V30 7222 H 669.007 0.415939 -0.608411 0
M  V30 7223 H 671.649 0.432542 -1.85011 0
M  V30 7224 H 669.799 2.7451 -2.74912 0
M  V30 7225 H 671.471 0.842503 -4.53541 0
M  V30 7226 H 669.714 0.723939 -4.27717 0
M  V30 7227 H 670.385 2.14281 -5.08712 0
M  V30 7228 H 672.861 2.63148 -3.22323 0
M  V30 7229 H 671.737 3.80398 -3.95713 0
M  V30 7230 H 671.998 3.82309 -2.22018 0
M  V30 7231 N 671.057 1.43213 0.657864 0
M  V30 7232 C 672.004 1.48011 1.77092 0
M  V30 7233 C 672.974 0.330291 1.62783 0
M  V30 7234 O 674.159 0.536787 1.83094 0
M  V30 7235 C 671.299 1.40461 3.15222 0
M  V30 7236 C 670.412 2.65612 3.40697 0
M  V30 7237 C 669.547 2.50083 4.68649 0
M  V30 7238 C 668.586 3.70525 4.87214 0
M  V30 7239 N 667.723 3.53835 6.0642 0
M  V30 7240 H 672.563 2.43121 1.72326 0
M  V30 7241 H 670.1 1.20687 0.841013 0
M  V30 7242 H 672.058 1.34079 3.95068 0
M  V30 7243 H 670.688 0.489359 3.19069 0
M  V30 7244 H 669.74 2.82292 2.54982 0
M  V30 7245 H 671.052 3.5509 3.50303 0
M  V30 7246 H 670.206 2.41383 5.56614 0
M  V30 7247 H 668.945 1.58121 4.61356 0
M  V30 7248 H 667.95 3.79639 3.97686 0
M  V30 7249 H 669.175 4.63489 4.96341 0
M  V30 7250 H 667.121 2.64604 6.00267 0
M  V30 7251 H 667.038 4.36912 6.16963 0
M  V30 7252 H 668.306 3.48978 6.97019 0
M  V30 7253 N 672.536 -0.895792 1.29666 0
M  V30 7254 C 673.783 -1.64664 1.17864 0
M  V30 7255 C 674.111 -1.92631 -0.26902 0
M  V30 7256 O 673.366 -1.53787 -1.21029 0
M  V30 7257 C 673.665 -3.00075 1.94139 0
M  V30 7258 C 673.331 -2.91702 3.43833 0
M  V30 7259 C 671.993 -2.89126 3.84656 0
M  V30 7260 C 674.345 -2.80622 4.39205 0
M  V30 7261 C 671.673 -2.73293 5.1916 0
M  V30 7262 C 674.025 -2.66329 5.73805 0
M  V30 7263 C 672.689 -2.62121 6.1388 0
M  V30 7264 H 671.959 -0.602549 0.431295 0
M  V30 7265 H 674.606 -1.04234 1.60648 0
M  V30 7266 H 672.911 -3.64394 1.43958 0
M  V30 7267 H 674.608 -3.57111 1.82408 0
M  V30 7268 H 671.198 -2.94511 3.11386 0
M  V30 7269 H 675.382 -2.81686 4.08615 0
M  V30 7270 H 670.638 -2.68443 5.49316 0
M  V30 7271 H 674.812 -2.56727 6.47352 0
M  V30 7272 H 672.439 -2.49611 7.18052 0
M  V30 7273 N 674.014 -1.12206 -1.10668 0
M  V30 7274 C 675.291 -0.787382 -1.79052 0
M  V30 7275 C 675.671 0.723267 -1.98323 0
M  V30 7276 O 675.019 1.6561 -1.57434 0
M  V30 7277 C 675.229 -1.55968 -3.1221 0
M  V30 7278 C 676.577 -1.74413 -3.87125 0
M  V30 7279 O 677.601 -1.5246 -3.21923 0
M  V30 7280 O 676.46 -2.10952 -5.04144 0
M  V30 7281 H 673.554 -0.286137 -0.775922 0
M  V30 7282 H 676.1 -1.22595 -1.1734 0
M  V30 7283 H 674.872 -2.58692 -2.93588 0
M  V30 7284 H 674.495 -1.1152 -3.8164 0
M  V30 7285 N 675.492 1.28418 -0.913599 0
M  V30 7286 C 676.72 1.99106 -0.562536 0
M  V30 7287 C 677.135 1.68273 0.856137 0
M  V30 7288 O 676.492 0.935401 1.56705 0
M  V30 7289 C 676.543 3.5338 -0.761903 0
M  V30 7290 O 676.264 3.83127 -2.12475 0
M  V30 7291 C 677.765 4.41328 -0.417651 0
M  V30 7292 H 674.985 0.635798 -0.214481 0
M  V30 7293 H 677.529 1.63618 -1.22676 0
M  V30 7294 H 675.684 3.8713 -0.144676 0
M  V30 7295 H 676.098 4.77763 -2.16431 0
M  V30 7296 H 677.572 5.48642 -0.607919 0
M  V30 7297 H 678.049 4.34422 0.646108 0
M  V30 7298 H 678.655 4.13074 -1.01241 0
M  V30 7299 N 676.97 0.677563 1.42291 0
M  V30 7300 C 678.217 0.200975 2.015 0
M  V30 7301 C 678.545 -1.19342 1.53583 0
M  V30 7302 O 677.8 -1.81579 0.7299 0
M  V30 7303 C 678.099 0.187229 3.56909 0
M  V30 7304 C 677.765 1.52667 4.24268 0
M  V30 7305 C 676.427 1.89341 4.42384 0
M  V30 7306 C 678.779 2.40869 4.62203 0
M  V30 7307 C 676.107 3.13836 4.95705 0
M  V30 7308 C 678.459 3.64679 5.16906 0
M  V30 7309 C 677.123 4.01519 5.33234 0
M  V30 7310 H 676.393 0.0735418 0.737342 0
M  V30 7311 H 679.04 0.873095 1.70439 0
M  V30 7312 H 677.345 -0.568407 3.87655 0
M  V30 7313 H 679.042 -0.198773 4.00507 0
M  V30 7314 H 675.632 1.23138 4.1053 0
M  V30 7315 H 679.816 2.1382 4.47878 0
M  V30 7316 H 675.072 3.42396 5.06532 0
M  V30 7317 H 679.246 4.33224 5.45243 0
M  V30 7318 H 676.873 4.98062 5.74316 0
M  V30 7319 N 678.448 -1.51871 0.421078 0
M  V30 7320 C 679.696 -2.01539 -0.150492 0
M  V30 7321 C 680.017 -1.30803 -1.44623 0
M  V30 7322 O 679.287 -0.437568 -1.90951 0
M  V30 7323 H 677.867 -0.744698 -0.0586041 0
M  V30 7324 H 680.529 -1.8668 0.560059 0
M  V30 7325 H 679.625 -3.10264 -0.338068 0
M  V30 7326 N 679.926 -0.151884 -1.56866 0
M  V30 7327 C 681.203 0.543328 -1.87902 0
M  V30 7328 C 681.583 1.82636 -1.05864 0
M  V30 7329 O 680.931 2.28028 -0.146868 0
M  V30 7330 C 681.141 0.804056 -3.39611 0
M  V30 7331 C 682.489 1.14267 -4.08935 0
M  V30 7332 O 683.513 0.893248 -3.44818 0
M  V30 7333 O 682.372 1.61229 -5.22176 0
M  V30 7334 H 679.466 0.277724 -0.778973 0
M  V30 7335 H 682.012 -0.188862 -1.68646 0
M  V30 7336 H 680.784 -0.103772 -3.91162 0
M  V30 7337 H 680.407 1.59025 -3.64413 0
M  V30 7338 N 681.404 1.57128 0.121893 0
M  V30 7339 C 682.652 1.84335 0.828548 0
M  V30 7340 C 682.973 0.736632 1.80551 0
M  V30 7341 O 682.243 -0.23962 1.94429 0
M  V30 7342 H 680.823 0.680108 0.30897 0
M  V30 7343 H 683.485 1.9459 0.109906 0
M  V30 7344 H 682.581 2.80152 1.37554 0
M  V30 7345 N 682.882 -0.391992 1.52647 0
M  V30 7346 C 683.815 -1.50019 1.71958 0
M  V30 7347 C 684.793 -1.5238 0.567365 0
M  V30 7348 O 685.977 -1.70831 0.796806 0
M  V30 7349 C 683.104 -2.88496 1.77447 0
M  V30 7350 C 682.15 -3.03974 2.99169 0
M  V30 7351 S 682.983 -2.75487 4.59203 0
M  V30 7352 C 684.139 -4.16163 4.67503 0
M  V30 7353 H 684.372 -1.33413 2.65685 0
M  V30 7354 H 681.905 -0.584674 1.42902 0
M  V30 7355 H 683.863 -3.68296 1.81296 0
M  V30 7356 H 682.524 -3.02431 0.848188 0
M  V30 7357 H 681.717 -4.05328 2.99542 0
M  V30 7358 H 681.319 -2.32062 2.93297 0
M  V30 7359 H 683.611 -5.10048 4.45934 0
M  V30 7360 H 684.554 -4.20806 5.69498 0
M  V30 7361 H 684.962 -4.01933 3.96371 0
M  V30 7362 N 684.36 -1.4356 -0.65026 0
M  V30 7363 C 685.608 -1.45046 -1.40734 0
M  V30 7364 C 685.929 -0.0769822 -1.94848 0
M  V30 7365 O 685.199 0.888098 -1.74613 0
M  V30 7366 H 683.779 -0.534034 -0.522318 0
M  V30 7367 H 686.441 -1.79186 -0.766703 0
M  V30 7368 H 685.537 -2.16476 -2.24822 0
M  V30 7369 N 685.838 0.888903 -1.30139 0
M  V30 7370 C 687.254 1.17153 -1.08385 0
M  V30 7371 C 687.454 2.0088 0.157925 0
M  V30 7372 O 686.51 2.37668 0.852652 0
M  V30 7373 C 687.823 1.882 -2.34523 0
M  V30 7374 C 689.371 2.00981 -2.39949 0
M  V30 7375 C 689.846 2.75441 -3.65918 0
M  V30 7376 N 691.337 2.82989 -3.66704 0
M  V30 7377 C 692.072 3.41167 -4.60861 0
M  V30 7378 N 691.568 4.00425 -5.6536 0
M  V30 7379 N 693.361 3.38944 -4.48412 0
M  V30 7380 H 685.512 0.33053 -2.09812 0
M  V30 7381 H 687.775 0.208964 -0.924683 0
M  V30 7382 H 687.481 1.34119 -3.25123 0
M  V30 7383 H 687.355 2.88609 -2.42868 0
M  V30 7384 H 689.742 2.54234 -1.4983 0
M  V30 7385 H 689.823 0.996725 -2.35582 0
M  V30 7386 H 689.467 2.22861 -4.56394 0
M  V30 7387 H 689.397 3.77118 -3.67546 0
M  V30 7388 H 691.888 2.40912 -2.91153 0
M  V30 7389 H 692.201 4.42871 -6.33313 0
M  V30 7390 H 690.546 3.98856 -5.69157 0
M  V30 7391 H 693.737 2.91875 -3.6596 0
M  V30 7392 H 693.91 3.83989 -5.21974 0
M  V30 7393 N 687.317 1.12792 1.10072 0
M  V30 7394 C 688.547 0.907189 1.85617 0
M  V30 7395 C 688.955 -0.547181 1.81115 0
M  V30 7396 O 688.298 -1.39024 1.20075 0
M  V30 7397 C 688.36 1.30872 3.34832 0
M  V30 7398 C 688.024 2.77516 3.6309 0
M  V30 7399 C 689.021 3.75696 3.59373 0
M  V30 7400 C 686.706 3.14513 3.91646 0
M  V30 7401 C 688.7 5.08888 3.83812 0
M  V30 7402 C 686.387 4.47886 4.15742 0
M  V30 7403 C 687.385 5.44882 4.11816 0
M  V30 7404 O 687.073 6.7585 4.35295 0
M  V30 7405 H 686.805 0.323855 0.593375 0
M  V30 7406 H 689.359 1.50262 1.40038 0
M  V30 7407 H 687.589 0.656518 3.81086 0
M  V30 7408 H 689.278 1.06153 3.91773 0
M  V30 7409 H 690.044 3.48458 3.37345 0
M  V30 7410 H 685.923 2.39622 3.93831 0
M  V30 7411 H 689.467 5.84586 3.80663 0
M  V30 7412 H 685.364 4.74851 4.37249 0
M  V30 7413 H 686.132 6.81853 4.52791 0
M  V30 7414 N 688.795 -1.27931 0.920396 0
M  V30 7415 C 689.743 -2.29061 0.404191 0
M  V30 7416 C 690.737 -1.61615 -0.507634 0
M  V30 7417 O 691.943 -1.75765 -0.388144 0
M  V30 7418 H 688.318 -0.743594 0.112123 0
M  V30 7419 H 690.289 -2.70021 1.27008 0
M  V30 7420 C 689.038 -3.46088 -0.334466 0
M  V30 7421 H 688.361 -3.98194 0.35797 0
M  V30 7422 H 689.801 -4.18829 -0.660196 0
M  V30 7423 C 688.26 -2.99396 -1.54479 0
M  V30 7424 O 688.79 -3.02439 -2.64374 0
M  V30 7425 N 686.996 -2.54978 -1.39408 0
M  V30 7426 H 686.543 -2.52701 -0.500009 0
M  V30 7427 H 686.501 -2.24098 -2.20516 0
M  V30 7428 N 690.273 -0.685099 -1.4193 0
M  V30 7429 C 691.519 -0.211971 -2.01689 0
M  V30 7430 C 691.852 1.18189 -1.54094 0
M  V30 7431 O 691.127 1.79559 -0.747572 0
M  V30 7432 C 691.41 -0.258019 -3.59174 0
M  V30 7433 C 691.263 -1.68807 -4.16922 0
M  V30 7434 C 692.582 0.388044 -4.38386 0
M  V30 7435 H 689.701 -0.0784987 -0.732808 0
M  V30 7436 H 692.343 -0.871837 -1.68816 0
M  V30 7437 H 690.493 0.303832 -3.8731 0
M  V30 7438 H 692.165 -2.30296 -3.99702 0
M  V30 7439 H 690.408 -2.22553 -3.72361 0
M  V30 7440 H 691.079 -1.6719 -5.26072 0
M  V30 7441 H 693.555 -0.0903432 -4.16002 0
M  V30 7442 H 692.431 0.325232 -5.47936 0
M  V30 7443 H 692.692 1.4672 -4.17044 0
M  V30 7444 N 691.751 1.51645 -0.429126 0
M  V30 7445 C 692.998 2.02015 0.140079 0
M  V30 7446 C 693.326 1.31374 1.43427 0
M  V30 7447 O 692.581 0.414779 1.91254 0
M  V30 7448 C 692.88 3.54989 0.414472 0
M  V30 7449 C 692.546 4.43874 -0.792911 0
M  V30 7450 C 691.208 4.67887 -1.12404 0
M  V30 7451 C 693.56 4.96074 -1.59875 0
M  V30 7452 C 690.888 5.41348 -2.26184 0
M  V30 7453 C 693.24 5.70782 -2.72747 0
M  V30 7454 C 691.904 5.93062 -3.06324 0
M  V30 7455 H 691.174 0.739225 0.0512585 0
M  V30 7456 H 693.821 1.82675 -0.574641 0
M  V30 7457 H 692.126 3.72615 1.21099 0
M  V30 7458 H 693.823 3.91489 0.868173 0
M  V30 7459 H 690.413 4.25374 -0.524871 0
M  V30 7460 H 694.597 4.77412 -1.35614 0
M  V30 7461 H 689.853 5.56815 -2.52522 0
M  V30 7462 H 694.027 6.10221 -3.35564 0
M  V30 7463 H 691.654 6.49764 -3.94602 0
M  V30 7464 N 693.229 0.160201 1.56784 0
M  V30 7465 C 694.177 -0.791402 2.18723 0
M  V30 7466 C 695.171 -1.24567 1.14801 0
M  V30 7467 O 696.377 -1.21262 1.33025 0
M  V30 7468 H 692.752 -0.273458 0.700517 0
M  V30 7469 H 694.723 -0.244931 2.97393 0
M  V30 7470 C 693.472 -2.01509 2.83354 0
M  V30 7471 H 692.795 -1.67454 3.63041 0
M  V30 7472 H 694.235 -2.66006 3.30177 0
M  V30 7473 C 692.694 -2.83159 1.82545 0
M  V30 7474 O 693.224 -3.79944 1.30405 0
M  V30 7475 N 691.43 -2.47953 1.51552 0
M  V30 7476 H 690.977 -1.69309 1.94144 0
M  V30 7477 H 690.935 -3.02873 0.843519 0
M  V30 7478 N 694.707 -1.5719 -0.113559 0
M  V30 7479 C 695.954 -1.85138 -0.820382 0
M  V30 7480 C 696.282 -0.74608 -1.79622 0
M  V30 7481 O 695.537 0.262077 -1.93937 0
M  V30 7482 C 695.836 -3.19593 -1.59984 0
M  V30 7483 C 695.502 -4.44315 -0.767809 0
M  V30 7484 C 694.164 -4.78179 -0.538379 0
M  V30 7485 C 696.516 -5.2086 -0.188203 0
M  V30 7486 C 693.844 -5.86028 0.28082 0
M  V30 7487 C 696.196 -6.29572 0.618217 0
M  V30 7488 C 694.86 -6.61964 0.857912 0
M  V30 7489 H 694.13 -0.677467 -0.300199 0
M  V30 7490 H 696.777 -1.91322 -0.0825443 0
M  V30 7491 H 695.082 -3.0901 -2.40874 0
M  V30 7492 H 696.779 -3.3844 -2.1508 0
M  V30 7493 H 693.369 -4.17786 -0.956724 0
M  V30 7494 H 697.553 -4.95045 -0.352658 0
M  V30 7495 H 692.809 -6.09547 0.475693 0
M  V30 7496 H 696.983 -6.88064 1.0743 0
M  V30 7497 H 694.61 -7.45365 1.49451 0
M  V30 7498 N 696.185 0.383891 -1.52853 0
M  V30 7499 C 697.117 1.48889 -1.74255 0
M  V30 7500 C 698.13 1.50405 -0.623063 0
M  V30 7501 O 699.319 1.54215 -0.898887 0
M  V30 7502 C 696.419 2.87721 -1.79081 0
M  V30 7503 C 695.592 3.10111 -3.08464 0
M  V30 7504 C 694.651 4.28954 -3.0477 0
M  V30 7505 O 693.677 4.25012 -3.78621 0
M  V30 7506 N 694.879 5.35411 -2.24311 0
M  V30 7507 H 697.644 1.30915 -2.69595 0
M  V30 7508 H 695.205 0.573454 -1.51404 0
M  V30 7509 H 697.197 3.65333 -1.7411 0
M  V30 7510 H 695.767 2.99029 -0.911052 0
M  V30 7511 H 694.987 2.20319 -3.26884 0
M  V30 7512 H 696.275 3.21928 -3.94005 0
M  V30 7513 H 695.673 5.41471 -1.63787 0
M  V30 7514 H 694.23 6.1167 -2.25175 0
M  V30 7515 N 697.663 1.43903 0.642637 0
M  V30 7516 C 698.611 1.50164 1.77634 0
M  V30 7517 C 699.605 0.374294 1.65213 0
M  V30 7518 O 700.811 0.548748 1.71431 0
M  V30 7519 H 697.186 0.470974 0.586249 0
M  V30 7520 H 699.157 2.45603 1.69474 0
M  V30 7521 C 697.906 1.45196 3.15933 0
M  V30 7522 H 697.229 2.31253 3.26132 0
M  V30 7523 H 698.669 1.53638 3.95185 0
M  V30 7524 C 697.128 0.171043 3.36466 0
M  V30 7525 O 697.658 -0.763413 3.94379 0
M  V30 7526 N 695.864 0.077847 2.90496 0
M  V30 7527 H 695.411 0.8391 2.43551 0
M  V30 7528 H 695.369 -0.778473 3.0461 0
M  V30 7529 N 699.141 -0.881989 1.30609 0
M  V30 7530 C 700.387 -1.63647 1.19781 0
M  V30 7531 C 700.72 -1.92632 -0.246265 0
M  V30 7532 O 699.995 -1.54938 -1.17577 0
M  V30 7533 C 700.278 -2.97437 2.02985 0
M  V30 7534 C 700.131 -2.75406 3.55628 0
M  V30 7535 C 701.45 -3.98397 1.86997 0
M  V30 7536 H 698.569 -0.593841 0.436488 0
M  V30 7537 H 701.211 -1.02041 1.60273 0
M  V30 7538 H 699.361 -3.50018 1.68581 0
M  V30 7539 H 701.033 -2.2959 4.00107 0
M  V30 7540 H 699.276 -2.09856 3.79662 0
M  V30 7541 H 699.947 -3.70552 4.09139 0
M  V30 7542 H 702.423 -3.54986 2.17081 0
M  V30 7543 H 701.299 -4.89916 2.47536 0
M  V30 7544 H 701.56 -4.3424 0.829943 0
M  V30 7545 N 700.619 -1.13374 -1.09472 0
M  V30 7546 C 701.867 -0.893422 -1.8128 0
M  V30 7547 C 702.188 0.582029 -1.86111 0
M  V30 7548 O 701.458 1.42305 -1.34633 0
M  V30 7549 H 700.038 -0.327543 -0.67136 0
M  V30 7550 H 702.7 -1.43018 -1.32408 0
M  V30 7551 H 701.796 -1.28374 -2.84476 0
M  V30 7552 N 702.098 1.27442 -0.927168 0
M  V30 7553 C 703.346 1.94007 -0.566203 0
M  V30 7554 C 703.667 1.7323 0.895345 0
M  V30 7555 O 702.937 1.07973 1.63459 0
M  V30 7556 H 701.517 0.717917 -0.206409 0
M  V30 7557 H 704.179 1.55161 -1.17945 0
M  V30 7558 H 703.275 3.02401 -0.772028 0
M  V30 7559 N 703.576 0.692616 1.41565 0
M  V30 7560 C 704.523 0.0254264 2.30786 0
M  V30 7561 C 705.493 -0.774347 1.46946 0
M  V30 7562 O 706.678 -0.742981 1.7574 0
M  V30 7563 C 703.818 -0.907123 3.32964 0
M  V30 7564 C 702.931 -0.0992784 4.31886 0
M  V30 7565 C 702.066 -1.0292 5.21134 0
M  V30 7566 C 701.105 -0.214088 6.11725 0
M  V30 7567 N 700.242 -1.09766 6.93467 0
M  V30 7568 H 705.082 0.792036 2.87282 0
M  V30 7569 H 702.619 0.4023 1.41492 0
M  V30 7570 H 704.577 -1.46181 3.90752 0
M  V30 7571 H 703.207 -1.64016 2.78026 0
M  V30 7572 H 702.259 0.572287 3.76071 0
M  V30 7573 H 703.571 0.532782 4.95946 0
M  V30 7574 H 702.725 -1.65321 5.83741 0
M  V30 7575 H 701.464 -1.69512 4.57293 0
M  V30 7576 H 700.469 0.42302 5.4817 0
M  V30 7577 H 701.694 0.447995 6.77621 0
M  V30 7578 H 699.64 -1.74965 6.32237 0
M  V30 7579 H 699.557 -0.521099 7.54202 0
M  V30 7580 H 700.825 -1.70858 7.60544 0
M  V30 7581 N 705.054 -1.51416 0.437162 0
M  V30 7582 C 706.284 -2.06204 -0.127859 0
M  V30 7583 C 706.692 -1.30463 -1.37026 0
M  V30 7584 O 706.035 -0.357516 -1.80187 0
M  V30 7585 C 706.097 -3.55783 -0.515632 0
M  V30 7586 C 705.761 -4.52776 0.619937 0
M  V30 7587 C 706.758 -4.98031 1.49201 0
M  V30 7588 C 704.443 -4.95878 0.800618 0
M  V30 7589 C 706.437 -5.85061 2.52947 0
M  V30 7590 C 704.124 -5.82699 1.84135 0
M  V30 7591 C 705.122 -6.27188 2.70416 0
M  V30 7592 O 704.81 -7.12284 3.72702 0
M  V30 7593 H 704.542 -0.675903 -0.011442 0
M  V30 7594 H 707.096 -1.95977 0.614986 0
M  V30 7595 H 705.326 -3.63793 -1.31118 0
M  V30 7596 H 707.015 -3.93087 -1.01179 0
M  V30 7597 H 707.781 -4.65426 1.36395 0
M  V30 7598 H 703.66 -4.60792 0.138617 0
M  V30 7599 H 707.204 -6.19708 3.20325 0
M  V30 7600 H 703.101 -6.14717 1.9696 0
M  V30 7601 H 703.869 -7.30462 3.69281 0
M  V30 7602 N 706.532 -0.168513 -1.56696 0
M  V30 7603 C 707.757 0.486688 -2.01609 0
M  V30 7604 C 708.182 1.56203 -1.04796 0
M  V30 7605 O 707.54 1.8128 -0.0270596 0
M  V30 7606 C 707.588 1.04451 -3.45141 0
M  V30 7607 O 706.692 2.15862 -3.51393 0
M  V30 7608 H 706.033 0.116831 -0.653641 0
M  V30 7609 H 708.563 -0.271579 -2.0279 0
M  V30 7610 H 708.573 1.36782 -3.84389 0
M  V30 7611 H 707.248 0.257155 -4.15104 0
M  V30 7612 H 705.825 1.84597 -3.24004 0
M  V30 7613 N 708.01 1.57248 0.105221 0
M  V30 7614 C 709.24 1.89492 0.823175 0
M  V30 7615 C 709.648 0.75934 1.73294 0
M  V30 7616 O 708.991 -0.278182 1.81581 0
M  V30 7617 C 709.053 3.16891 1.69765 0
M  V30 7618 C 708.717 4.46787 0.960769 0
M  V30 7619 C 709.714 5.19061 0.295218 0
M  V30 7620 C 707.399 4.93467 0.937854 0
M  V30 7621 C 709.393 6.36246 -0.383393 0
M  V30 7622 C 707.08 6.10566 0.255452 0
M  V30 7623 C 708.078 6.81804 -0.404003 0
M  V30 7624 O 707.766 7.96673 -1.07549 0
M  V30 7625 H 707.498 0.631512 0.24118 0
M  V30 7626 H 710.052 2.05203 0.0899655 0
M  V30 7627 H 708.282 2.973 2.47285 0
M  V30 7628 H 709.971 3.35046 2.29126 0
M  V30 7629 H 710.737 4.84044 0.304448 0
M  V30 7630 H 706.616 4.37913 1.44058 0
M  V30 7631 H 710.16 6.91787 -0.898696 0
M  V30 7632 H 706.057 6.45039 0.244032 0
M  V30 7633 H 706.825 8.12596 -0.981355 0
M  V30 7634 N 709.488 -0.375779 1.53054 0
M  V30 7635 C 710.418 -1.46598 1.81745 0
M  V30 7636 C 711.399 -1.56337 0.670286 0
M  V30 7637 O 712.584 -1.71071 0.919158 0
M  V30 7638 C 709.714 -2.84058 1.99821 0
M  V30 7639 C 708.668 -2.8915 3.15557 0
M  V30 7640 C 707.994 -4.29187 3.18908 0
M  V30 7641 C 709.294 -2.57595 4.54359 0
M  V30 7642 H 710.988 -1.22837 2.73041 0
M  V30 7643 H 708.534 -0.589485 1.31381 0
M  V30 7644 H 710.487 -3.60342 2.18475 0
M  V30 7645 H 709.211 -3.09184 1.05226 0
M  V30 7646 H 707.87 -2.15316 2.96706 0
M  V30 7647 H 707.518 -4.51374 2.2197 0
M  V30 7648 H 707.218 -4.33512 3.96662 0
M  V30 7649 H 708.742 -5.07359 3.39734 0
M  V30 7650 H 710.156 -3.23595 4.73243 0
M  V30 7651 H 708.553 -2.73252 5.34279 0
M  V30 7652 H 709.623 -1.52882 4.60169 0
M  V30 7653 N 710.966 -1.44241 -0.634997 0
M  V30 7654 C 711.913 -1.5081 -1.74714 0
M  V30 7655 C 712.883 -0.356147 -1.62237 0
M  V30 7656 O 714.068 -0.565848 -1.82216 0
M  V30 7657 C 711.208 -1.45458 -3.12947 0
M  V30 7658 C 710.321 -2.70998 -3.36428 0
M  V30 7659 C 709.456 -2.57507 -4.64611 0
M  V30 7660 C 708.495 -3.78229 -4.81258 0
M  V30 7661 N 707.632 -3.63438 -6.00714 0
M  V30 7662 H 712.472 -2.45832 -1.68436 0
M  V30 7663 H 710.009 -1.2201 -0.821706 0
M  V30 7664 H 711.967 -1.40347 -3.92885 0
M  V30 7665 H 710.597 -0.540058 -3.1825 0
M  V30 7666 H 709.649 -2.86312 -2.50458 0
M  V30 7667 H 710.961 -3.60619 -3.44609 0
M  V30 7668 H 710.115 -2.50207 -5.52703 0
M  V30 7669 H 708.854 -1.65441 -4.58782 0
M  V30 7670 H 707.859 -3.85918 -3.91596 0
M  V30 7671 H 709.084 -4.71327 -4.88904 0
M  V30 7672 H 707.03 -2.7412 -5.95982 0
M  V30 7673 H 706.947 -4.46672 -6.09934 0
M  V30 7674 H 708.215 -3.60022 -6.91378 0
M  V30 7675 N 712.444 0.87505 -1.31075 0
M  V30 7676 C 713.69 1.63009 -1.20647 0
M  V30 7677 C 714.023 1.9276 0.236045 0
M  V30 7678 O 713.298 1.55559 1.16754 0
M  V30 7679 C 713.581 2.96357 -2.0456 0
M  V30 7680 C 713.434 2.73516 -3.57084 0
M  V30 7681 C 714.753 3.974 -1.89107 0
M  V30 7682 H 711.872 0.591518 -0.439631 0
M  V30 7683 H 714.514 1.0119 -1.60812 0
M  V30 7684 H 712.664 3.49119 -1.70435 0
M  V30 7685 H 714.336 2.27465 -4.01319 0
M  V30 7686 H 712.579 2.0784 -3.80769 0
M  V30 7687 H 713.25 3.68377 -4.11099 0
M  V30 7688 H 715.726 3.5383 -2.18961 0
M  V30 7689 H 714.602 4.88596 -2.5013 0
M  V30 7690 H 714.863 4.33794 -0.85296 0
M  V30 7691 N 713.922 1.13953 1.08869 0
M  V30 7692 C 715.17 0.903023 1.80803 0
M  V30 7693 C 715.491 -0.572151 1.86417 0
M  V30 7694 O 714.761 -1.41589 1.35386 0
M  V30 7695 H 713.341 0.331099 0.669614 0
M  V30 7696 H 716.003 1.43719 1.31647 0
M  V30 7697 H 715.099 1.29881 2.83791 0
M  V30 7698 N 715.4 -1.26948 0.933913 0
M  V30 7699 C 716.35 -2.24306 0.408779 0
M  V30 7700 C 717.334 -1.53243 -0.490435 0
M  V30 7701 O 718.526 -1.73956 -0.326866 0
M  V30 7702 C 715.655 -3.41695 -0.331578 0
M  V30 7703 C 714.741 -4.20053 0.58451 0
M  V30 7704 N 715.132 -4.76122 1.70709 0
M  V30 7705 C 713.43 -4.44303 0.388703 0
M  V30 7706 C 714.131 -5.35267 2.27737 0
M  V30 7707 N 713.107 -5.20548 1.56622 0
M  V30 7708 H 716.909 -2.65244 1.26582 0
M  V30 7709 H 714.423 -1.4195 0.788919 0
M  V30 7710 H 716.42 -4.10552 -0.724774 0
M  V30 7711 H 715.08 -3.02286 -1.18547 0
M  V30 7712 H 716.091 -4.73884 2.08937 0
M  V30 7713 H 712.768 -4.15341 -0.424016 0
M  V30 7714 H 714.158 -5.89563 3.22282 0
M  V30 7715 N 716.879 -0.700114 -1.41195 0
M  V30 7716 C 718.125 -0.242122 -2.01954 0
M  V30 7717 C 718.48 1.14697 -1.54475 0
M  V30 7718 O 717.773 1.76392 -0.748095 0
M  V30 7719 C 717.967 -0.243986 -3.56566 0
M  V30 7720 C 717.796 -1.63172 -4.19053 0
M  V30 7721 C 716.566 -2.23566 -4.53152 0
M  V30 7722 C 718.764 -2.57916 -4.44954 0
M  V30 7723 N 716.746 -3.54856 -5.00949 0
M  V30 7724 C 718.117 -3.73892 -4.94576 0
M  V30 7725 C 720.172 -2.56125 -4.26971 0
M  V30 7726 C 718.875 -4.88363 -5.28104 0
M  V30 7727 C 720.901 -3.69712 -4.61592 0
M  V30 7728 C 720.263 -4.84418 -5.11389 0
M  V30 7729 H 716.362 -0.134088 -0.770418 0
M  V30 7730 H 718.946 -0.918576 -1.71669 0
M  V30 7731 H 717.117 0.401971 -3.86314 0
M  V30 7732 H 718.849 0.229261 -4.0405 0
M  V30 7733 H 715.604 -1.75809 -4.39759 0
M  V30 7734 H 716.028 -4.22167 -5.29249 0
M  V30 7735 H 720.67 -1.68656 -3.87705 0
M  V30 7736 H 718.388 -5.76488 -5.66292 0
M  V30 7737 H 721.974 -3.69583 -4.49332 0
M  V30 7738 H 720.854 -5.70855 -5.37675 0
M  V30 7739 N 718.357 1.51182 -0.445186 0
M  V30 7740 C 719.32 2.26501 0.350722 0
M  V30 7741 C 720.32 1.3025 0.942952 0
M  V30 7742 O 721.51 1.53897 0.816175 0
M  V30 7743 C 718.642 3.06274 1.49697 0
M  V30 7744 H 719.835 2.98299 -0.309474 0
M  V30 7745 H 717.388 1.55034 -0.198551 0
M  V30 7746 H 718.123 2.38911 2.19299 0
M  V30 7747 H 717.908 3.76979 1.0784 0
M  V30 7748 H 719.398 3.63306 2.05909 0
M  V30 7749 N 719.835 0.176821 1.56605 0
M  V30 7750 C 720.745 -0.763682 2.21822 0
M  V30 7751 C 721.761 -1.24889 1.21156 0
M  V30 7752 O 722.937 -1.29987 1.53836 0
M  V30 7753 C 720.002 -1.97352 2.8505 0
M  V30 7754 C 719.063 -1.53466 4.00932 0
M  V30 7755 C 718.296 -2.68682 4.61135 0
M  V30 7756 O 718.519 -3.85694 4.20234 0
M  V30 7757 O 717.453 -2.42442 5.50913 0
M  V30 7758 H 721.279 -0.238363 3.02763 0
M  V30 7759 H 718.864 -0.0516331 1.49311 0
M  V30 7760 H 720.746 -2.68096 3.25119 0
M  V30 7761 H 719.421 -2.48779 2.07101 0
M  V30 7762 H 718.328 -0.796551 3.65521 0
M  V30 7763 H 719.661 -1.06724 4.8049 0
M  V30 7764 N 721.313 -1.57302 -0.09688 0
M  V30 7765 C 722.541 -1.90202 -0.814295 0
M  V30 7766 C 722.956 -0.770344 -1.72369 0
M  V30 7767 O 722.313 0.257764 -1.8067 0
M  V30 7768 C 722.364 -3.22708 -1.62916 0
M  V30 7769 O 722.085 -4.31522 -0.756343 0
M  V30 7770 C 723.586 -3.69459 -2.44979 0
M  V30 7771 H 720.806 -0.629275 -0.232925 0
M  V30 7772 H 723.35 -2.04364 -0.0746482 0
M  V30 7773 H 721.505 -3.1015 -2.32133 0
M  V30 7774 H 721.919 -5.07604 -1.32054 0
M  V30 7775 H 723.393 -4.64875 -2.9765 0
M  V30 7776 H 723.87 -2.97211 -3.23361 0
M  V30 7777 H 724.476 -3.84879 -1.80964 0
M  V30 7778 N 722.791 0.367657 -1.53252 0
M  V30 7779 C 723.721 1.45632 -1.8252 0
M  V30 7780 C 724.702 1.55979 -0.678568 0
M  V30 7781 O 725.887 1.70581 -0.928217 0
M  V30 7782 C 723.017 2.82994 -2.01325 0
M  V30 7783 C 721.971 2.87473 -3.17086 0
M  V30 7784 C 721.297 4.2749 -3.21179 0
M  V30 7785 C 722.597 2.55182 -4.55719 0
M  V30 7786 H 724.291 1.21387 -2.73689 0
M  V30 7787 H 721.837 0.58251 -1.31692 0
M  V30 7788 H 723.79 3.59179 -2.20383 0
M  V30 7789 H 722.514 3.08622 -1.06864 0
M  V30 7790 H 721.173 2.13739 -2.97844 0
M  V30 7791 H 720.821 4.5019 -2.24361 0
M  V30 7792 H 720.521 4.31403 -3.98955 0
M  V30 7793 H 722.045 5.0555 -3.42419 0
M  V30 7794 H 723.459 3.21081 -4.74953 0
M  V30 7795 H 721.856 2.70414 -5.3572 0
M  V30 7796 H 722.926 1.5044 -4.60973 0
M  V30 7797 N 724.269 1.44576 0.627338 0
M  V30 7798 C 725.494 1.51271 1.41887 0
M  V30 7799 C 725.919 0.139814 1.8758 0
M  V30 7800 O 725.277 -0.871746 1.58966 0
M  V30 7801 C 725.325 2.48529 2.61277 0
M  V30 7802 O 724.429 1.98944 3.61241 0
M  V30 7803 H 723.77 0.510668 0.424399 0
M  V30 7804 H 726.3 1.89746 0.765356 0
M  V30 7805 H 726.31 2.66689 3.08773 0
M  V30 7806 H 724.985 3.48249 2.27366 0
M  V30 7807 H 723.562 1.90568 3.20528 0
M  V30 7808 N 725.747 -0.868086 1.31537 0
M  V30 7809 C 726.677 -1.99131 1.21939 0
M  V30 7810 C 727.658 -1.69768 0.106166 0
M  V30 7811 O 728.843 -1.92006 0.291081 0
M  V30 7812 C 725.973 -3.34676 0.927879 0
M  V30 7813 C 724.927 -3.7835 2.00088 0
M  V30 7814 C 724.253 -5.11375 1.56203 0
M  V30 7815 C 725.553 -3.95256 3.41424 0
M  V30 7816 H 727.247 -2.07419 2.15911 0
M  V30 7817 H 724.793 -0.996569 1.03945 0
M  V30 7818 H 726.746 -4.12793 0.847327 0
M  V30 7819 H 725.47 -3.26565 -0.0475042 0
M  V30 7820 H 724.129 -3.02474 2.07135 0
M  V30 7821 H 723.777 -4.99709 0.57445 0
M  V30 7822 H 723.477 -5.41568 2.27985 0
M  V30 7823 H 725.001 -5.92001 1.49558 0
M  V30 7824 H 726.415 -4.63764 3.3704 0
M  V30 7825 H 724.812 -4.36849 4.1144 0
M  V30 7826 H 725.882 -2.98579 3.82072 0
M  V30 7827 N 727.225 -1.14528 -1.08264 0
M  V30 7828 C 728.502 -0.825185 -1.77342 0
M  V30 7829 C 728.882 0.681037 -1.99813 0
M  V30 7830 O 728.23 1.62234 -1.60912 0
M  V30 7831 C 728.44 -1.62556 -3.08831 0
M  V30 7832 C 729.788 -1.82585 -3.83338 0
M  V30 7833 O 730.812 -1.59254 -3.18617 0
M  V30 7834 O 729.671 -2.21598 -4.99556 0
M  V30 7835 H 726.765 -0.302531 -0.769678 0
M  V30 7836 H 729.311 -1.25056 -1.14713 0
M  V30 7837 H 728.083 -2.64862 -2.88035 0
M  V30 7838 H 727.706 -1.1959 -3.79189 0
M  V30 7839 N 728.703 1.26451 -0.940633 0
M  V30 7840 C 729.949 1.94065 -0.58878 0
M  V30 7841 C 730.282 1.7363 0.869853 0
M  V30 7842 O 729.557 1.073 1.62225 0
M  V30 7843 C 729.84 3.47852 -0.931199 0
M  V30 7844 C 729.693 3.77575 -2.44453 0
M  V30 7845 C 731.012 4.37832 -0.446229 0
M  V30 7846 H 728.131 0.704827 -0.21538 0
M  V30 7847 H 730.773 1.4933 -1.17475 0
M  V30 7848 H 728.923 3.86085 -0.432539 0
M  V30 7849 H 730.595 3.49059 -3.01588 0
M  V30 7850 H 728.838 3.23671 -2.88825 0
M  V30 7851 H 729.509 4.85068 -2.63464 0
M  V30 7852 H 731.985 4.06822 -0.873778 0
M  V30 7853 H 730.861 5.44228 -0.714648 0
M  V30 7854 H 731.122 4.37239 0.653815 0
M  V30 7855 N 730.181 0.707592 1.40822 0
M  V30 7856 C 731.129 0.0386643 2.32568 0
M  V30 7857 C 732.123 -0.755653 1.51612 0
M  V30 7858 O 733.329 -0.659921 1.67467 0
M  V30 7859 H 729.704 -0.00629912 0.751974 0
M  V30 7860 H 731.675 0.8293 2.86645 0
M  V30 7861 C 730.424 -0.87496 3.36511 0
M  V30 7862 H 729.747 -0.273157 3.98866 0
M  V30 7863 H 731.187 -1.31111 4.03219 0
M  V30 7864 C 729.646 -1.99672 2.71353 0
M  V30 7865 O 730.176 -3.08676 2.57064 0
M  V30 7866 N 728.382 -1.77799 2.29861 0
M  V30 7867 H 727.929 -0.89147 2.41683 0
M  V30 7868 H 727.887 -2.53036 1.86601 0
M  V30 7869 N 731.66 -1.50943 0.453197 0
M  V30 7870 C 732.885 -2.07116 -0.108463 0
M  V30 7871 C 733.31 -1.31681 -1.3432 0
M  V30 7872 O 732.668 -0.359256 -1.77705 0
M  V30 7873 C 732.716 -3.58447 -0.393424 0
M  V30 7874 O 731.82 -3.85038 -1.47714 0
M  V30 7875 H 731.161 -0.66398 0.0050993 0
M  V30 7876 H 733.691 -1.94362 0.639095 0
M  V30 7877 H 733.701 -4.02961 -0.639222 0
M  V30 7878 H 732.376 -4.12774 0.508946 0
M  V30 7879 H 730.953 -3.52376 -1.22006 0
M  V30 7880 N 733.138 -0.185124 -1.56509 0
M  V30 7881 C 734.387 0.456421 -1.96468 0
M  V30 7882 C 734.7 1.63448 -1.07444 0
M  V30 7883 O 735.906 2.34316 -1.37143 0
M  V30 7884 C 734.362 0.863404 -3.4939 0
M  V30 7885 C 733.97 -0.289815 -4.47062 0
M  V30 7886 C 735.714 1.47259 -3.98139 0
M  V30 7887 C 733.621 0.137571 -5.9124 0
M  V30 7888 H 732.551 0.17429 -0.733579 0
M  V30 7889 H 735.202 -0.275554 -1.81419 0
M  V30 7890 H 733.584 1.65176 -3.59907 0
M  V30 7891 H 734.758 -1.06728 -4.4827 0
M  V30 7892 H 733.073 -0.809851 -4.08449 0
M  V30 7893 H 735.67 1.80463 -5.03326 0
M  V30 7894 H 736.013 2.3755 -3.41871 0
M  V30 7895 H 736.546 0.748405 -3.90696 0
M  V30 7896 H 733.285 -0.730907 -6.51412 0
M  V30 7897 H 732.805 0.8801 -5.93308 0
M  V30 7898 H 734.484 0.576771 -6.44424 0
M  V30 7899 N 734.616 1.57351 0.0885366 0
M  V30 7900 C 735.566 1.98963 1.11346 0
M  V30 7901 C 736.55 0.869065 1.35411 0
M  V30 7902 O 737.742 1.13292 1.35992 0
M  V30 7903 C 734.871 2.4231 2.43189 0
M  V30 7904 C 733.957 3.61065 2.22469 0
M  V30 7905 N 734.348 4.75789 1.71635 0
M  V30 7906 C 732.646 3.6729 2.5301 0
M  V30 7907 C 733.347 5.57708 1.65339 0
M  V30 7908 N 732.323 5.01067 2.1079 0
M  V30 7909 H 736.125 2.85109 0.713465 0
M  V30 7910 H 733.639 1.59682 0.295868 0
M  V30 7911 H 735.636 2.70352 3.17357 0
M  V30 7912 H 734.296 1.57544 2.83919 0
M  V30 7913 H 735.307 4.98411 1.40738 0
M  V30 7914 H 731.984 2.932 2.9722 0
M  V30 7915 H 733.374 6.59782 1.27031 0
M  V30 7916 N 736.094 -0.359525 1.53444 0
M  V30 7917 C 737.34 -1.09958 1.71116 0
M  V30 7918 C 737.695 -1.8681 0.460414 0
M  V30 7919 O 736.988 -1.83635 -0.5467 0
M  V30 7920 C 737.182 -2.08287 2.90433 0
M  V30 7921 C 737.011 -1.41098 4.26991 0
M  V30 7922 C 735.781 -1.16255 4.91745 0
M  V30 7923 C 737.979 -0.845517 5.07302 0
M  V30 7924 N 735.961 -0.454798 6.12213 0
M  V30 7925 C 737.332 -0.267455 6.19423 0
M  V30 7926 C 739.387 -0.744797 4.92298 0
M  V30 7927 C 738.09 0.401511 7.18179 0
M  V30 7928 C 740.116 -0.0896013 5.91332 0
M  V30 7929 C 739.478 0.47756 7.02779 0
M  V30 7930 H 735.577 -0.387305 0.679352 0
M  V30 7931 H 738.161 -0.38519 1.90852 0
M  V30 7932 H 736.332 -2.77034 2.72226 0
M  V30 7933 H 738.064 -2.75015 2.96899 0
M  V30 7934 H 734.819 -1.44544 4.51003 0
M  V30 7935 H 735.243 -0.116108 6.769 0
M  V30 7936 H 739.885 -1.16905 4.06317 0
M  V30 7937 H 737.603 0.837694 8.03746 0
M  V30 7938 H 741.189 -0.0125162 5.81799 0
M  V30 7939 H 740.069 0.976522 7.78096 0
M  V30 7940 N 737.572 -1.44907 -0.619662 0
M  V30 7941 C 738.797 -1.52021 -1.41083 0
M  V30 7942 C 739.222 -0.14976 -1.87503 0
M  V30 7943 O 738.58 0.863303 -1.59426 0
M  V30 7944 C 738.628 -2.49911 -2.59955 0
M  V30 7945 O 737.732 -2.00857 -3.60181 0
M  V30 7946 H 737.073 -0.512912 -0.421684 0
M  V30 7947 H 739.603 -1.90149 -0.755282 0
M  V30 7948 H 739.613 -2.68323 -3.07354 0
M  V30 7949 H 738.288 -3.4945 -2.25516 0
M  V30 7950 H 736.865 -1.92265 -3.19513 0
M  V30 7951 N 739.05 0.861098 -1.31996 0
M  V30 7952 C 740.466 1.14827 -1.10846 0
M  V30 7953 C 740.666 2.0117 0.11528 0
M  V30 7954 O 739.722 2.39423 0.802048 0
M  V30 7955 C 741.035 1.83183 -2.38462 0
M  V30 7956 C 742.583 1.95847 -2.44158 0
M  V30 7957 C 743.058 2.67617 -3.71679 0
M  V30 7958 N 744.549 2.75147 -3.72624 0
M  V30 7959 C 745.284 3.31314 -4.67994 0
M  V30 7960 N 744.78 3.88343 -5.73726 0
M  V30 7961 N 746.573 3.29356 -4.55501 0
M  V30 7962 H 738.724 0.285951 -2.10466 0
M  V30 7963 H 740.987 0.189303 -0.928907 0
M  V30 7964 H 740.693 1.27193 -3.27895 0
M  V30 7965 H 740.567 2.83393 -2.48935 0
M  V30 7966 H 742.954 2.50999 -1.55189 0
M  V30 7967 H 743.035 0.94653 -2.37644 0
M  V30 7968 H 742.679 2.13131 -4.61018 0
M  V30 7969 H 742.609 3.69237 -3.75462 0
M  V30 7970 H 745.1 2.34682 -2.96197 0
M  V30 7971 H 745.413 4.29338 -6.42564 0
M  V30 7972 H 743.758 3.86693 -5.77489 0
M  V30 7973 H 746.949 2.84047 -3.72069 0
M  V30 7974 H 747.122 3.7283 -5.30001 0
M  V30 7975 N 740.528 1.15101 1.07655 0
M  V30 7976 C 741.476 0.840714 2.16875 0
M  V30 7977 C 742.47 -0.184594 1.68391 0
M  V30 7978 O 743.676 -0.0399315 1.79956 0
M  V30 7979 H 740.051 0.254192 0.707736 0
M  V30 7980 H 742.022 1.76959 2.40266 0
M  V30 7981 C 740.771 0.343018 3.46004 0
M  V30 7982 H 740.094 1.12335 3.83694 0
M  V30 7983 H 741.534 0.16453 4.23681 0
M  V30 7984 C 739.993 -0.934881 3.23669 0
M  V30 7985 O 740.523 -2.00706 3.47965 0
M  V30 7986 N 738.729 -0.873167 2.77172 0
M  V30 7987 H 738.276 -0.000479072 2.576 0
M  V30 7988 H 738.234 -1.72873 2.62607 0
M  V30 7989 N 742.006 -1.2595 0.947325 0
M  V30 7990 C 743.231 -1.98083 0.614633 0
M  V30 7991 C 743.656 -1.70013 -0.804815 0
M  V30 7992 O 743.014 -0.95175 -1.54309 0
M  V30 7993 C 743.062 -3.4993 0.870706 0
M  V30 7994 O 742.166 -4.12364 -0.0541451 0
M  V30 7995 H 741.507 -0.621232 0.234451 0
M  V30 7996 H 744.037 -1.60259 1.27193 0
M  V30 7997 H 744.047 -4.00198 0.794051 0
M  V30 7998 H 742.722 -3.69691 1.90529 0
M  V30 7999 H 741.299 -3.72826 0.0740917 0
M  V30 8000 N 743.484 -0.715051 -1.40445 0
M  V30 8001 C 744.73 -0.254705 -2.01194 0
M  V30 8002 C 745.063 1.14894 -1.56567 0
M  V30 8003 O 744.338 1.77933 -0.785491 0
M  V30 8004 C 744.621 -0.334148 -3.58546 0
M  V30 8005 C 744.474 -1.77613 -4.13248 0
M  V30 8006 C 745.793 0.294968 -4.3911 0
M  V30 8007 H 742.912 -0.094025 -0.730978 0
M  V30 8008 H 745.554 -0.907449 -1.66929 0
M  V30 8009 H 743.704 0.221609 -3.87867 0
M  V30 8010 H 745.376 -2.38723 -3.94727 0
M  V30 8011 H 743.619 -2.30402 -3.67556 0
M  V30 8012 H 744.29 -1.78311 -5.22407 0
M  V30 8013 H 746.766 -0.178563 -4.15717 0
M  V30 8014 H 745.642 0.208934 -5.48502 0
M  V30 8015 H 745.903 1.37841 -4.20062 0
M  V30 8016 N 744.962 1.50701 -0.461195 0
M  V30 8017 C 746.373 1.867 -0.00370227 0
M  V30 8018 C 746.724 1.37673 1.39787 0
M  V30 8019 O 745.849 0.737515 2.03445 0
M  V30 8020 C 746.444 3.388 5.75786e-05 0
M  V30 8021 C 745.003 3.74247 0.402044 0
M  V30 8022 C 744.15 2.74549 -0.389652 0
M  V30 8023 H 747.101 1.43585 -0.675942 0
M  V30 8024 H 747.122 3.719 0.804414 0
M  V30 8025 H 746.634 3.74452 -1.02015 0
M  V30 8026 H 744.735 3.44192 1.42697 0
M  V30 8027 H 744.848 4.78973 0.110265 0
M  V30 8028 H 743.212 2.54226 0.155314 0
M  V30 8029 H 743.995 3.13044 -1.40919 0
M  V30 8030 N 746.441 0.193421 1.56409 0
M  V30 8031 C 747.669 -0.451438 2.01915 0
M  V30 8032 C 748.084 -1.55306 1.07357 0
M  V30 8033 O 747.441 -1.82333 0.0781512 0
M  V30 8034 C 747.492 -1.00931 3.47124 0
M  V30 8035 O 747.213 0.0483623 4.38073 0
M  V30 8036 C 748.714 -1.73021 4.0814 0
M  V30 8037 H 745.934 -0.113495 0.661332 0
M  V30 8038 H 748.478 0.301636 2.02263 0
M  V30 8039 H 746.633 -1.71277 3.47481 0
M  V30 8040 H 747.047 -0.366644 5.23217 0
M  V30 8041 H 748.521 -2.07289 5.11601 0
M  V30 8042 H 748.998 -2.6333 3.51502 0
M  V30 8043 H 749.604 -1.07264 4.11551 0
M  V30 8044 N 747.919 -1.57396 -0.0801906 0
M  V30 8045 C 749.144 -1.91437 -0.797909 0
M  V30 8046 C 749.569 -0.789075 -1.70749 0
M  V30 8047 O 748.927 0.25857 -1.79447 0
M  V30 8048 C 748.975 -3.24402 -1.57467 0
M  V30 8049 O 748.079 -3.13043 -2.68473 0
M  V30 8050 H 747.42 -0.627109 -0.218243 0
M  V30 8051 H 749.95 -2.04537 -0.050949 0
M  V30 8052 H 749.96 -3.58072 -1.95571 0
M  V30 8053 H 748.635 -4.05884 -0.907229 0
M  V30 8054 H 747.212 -2.90915 -2.33287 0
M  V30 8055 N 749.397 0.351382 -1.53633 0
M  V30 8056 C 750.329 1.45159 -1.77374 0
M  V30 8057 C 751.342 1.4905 -0.654826 0
M  V30 8058 O 752.531 1.52274 -0.931396 0
M  V30 8059 C 749.631 2.83858 -1.85143 0
M  V30 8060 C 748.804 3.03498 -3.14972 0
M  V30 8061 C 747.863 4.22393 -3.138 0
M  V30 8062 O 746.889 4.16885 -3.87551 0
M  V30 8063 N 748.091 5.30533 -2.35617 0
M  V30 8064 H 750.856 1.25167 -2.72311 0
M  V30 8065 H 748.417 0.54121 -1.52586 0
M  V30 8066 H 750.409 3.61557 -1.8182 0
M  V30 8067 H 748.979 2.9703 -0.974275 0
M  V30 8068 H 748.199 2.13336 -3.31484 0
M  V30 8069 H 749.487 3.13498 -4.00745 0
M  V30 8070 H 748.885 5.37875 -1.75235 0
M  V30 8071 H 747.442 6.06756 -2.38098 0
M  V30 8072 N 750.875 1.45233 0.611969 0
M  V30 8073 C 752.115 1.50558 1.38245 0
M  V30 8074 C 752.479 0.141959 1.91474 0
M  V30 8075 O 753.68 0.0698926 2.68709 0
M  V30 8076 C 751.951 2.55136 2.50281 0
M  V30 8077 S 753.51 2.79652 3.38142 0
M  V30 8078 H 750.328 0.532281 0.471378 0
M  V30 8079 H 752.93 1.82285 0.706578 0
M  V30 8080 H 751.634 3.52888 2.09518 0
M  V30 8081 H 751.165 2.25045 3.22674 0
M  V30 8082 H 753.18 2.12699 4.48301 0
M  V30 8083 N 752.353 -0.854086 1.3245 0
M  V30 8084 C 753.578 -1.64597 1.26185 0
M  V30 8085 C 754.003 -1.87357 -0.167074 0
M  V30 8086 O 753.361 -1.42675 -1.11864 0
M  V30 8087 C 753.409 -2.98213 2.02734 0
M  V30 8088 O 752.513 -3.88784 1.37554 0
M  V30 8089 H 751.854 -0.50179 0.434859 0
M  V30 8090 H 754.384 -1.06372 1.74775 0
M  V30 8091 H 754.394 -3.4803 2.1293 0
M  V30 8092 H 753.069 -2.80969 3.06642 0
M  V30 8093 H 751.646 -3.4725 1.3591 0
M  V30 8094 N 753.831 -1.1567 -1.07043 0
M  V30 8095 C 755.108 -0.843948 -1.76456 0
M  V30 8096 C 755.488 0.659806 -2.00524 0
M  V30 8097 O 754.836 1.60518 -1.62623 0
M  V30 8098 C 755.046 -1.65822 -3.0709 0
M  V30 8099 C 756.394 -1.8664 -3.8138 0
M  V30 8100 O 757.418 -1.62624 -3.1691 0
M  V30 8101 O 756.277 -2.26884 -4.97178 0
M  V30 8102 H 753.371 -0.310677 -0.766426 0
M  V30 8103 H 755.917 -1.26266 -1.1338 0
M  V30 8104 H 754.689 -2.67902 -2.85209 0
M  V30 8105 H 754.312 -1.23605 -3.77899 0
M  V30 8106 N 755.309 1.25446 -0.953992 0
M  V30 8107 C 756.72 1.75047 -0.649255 0
M  V30 8108 C 757.071 1.77527 0.835385 0
M  V30 8109 O 756.196 1.39569 1.65377 0
M  V30 8110 C 756.791 3.17889 -1.17183 0
M  V30 8111 C 755.35 3.65052 -0.917267 0
M  V30 8112 C 754.497 2.44124 -1.31525 0
M  V30 8113 H 757.448 1.11342 -1.13087 0
M  V30 8114 H 757.469 3.76768 -0.531616 0
M  V30 8115 H 756.981 3.16052 -2.25239 0
M  V30 8116 H 755.082 3.72305 0.148354 0
M  V30 8117 H 755.195 4.53222 -1.55328 0
M  V30 8118 H 753.559 2.43906 -0.733624 0
M  V30 8119 H 754.342 2.44979 -2.405 0
M  V30 8120 N 756.787 0.722489 1.40064 0
M  V30 8121 C 758.027 0.269491 2.02616 0
M  V30 8122 C 758.391 -1.11835 1.56067 0
M  V30 8123 O 759.592 -1.66873 2.1073 0
M  V30 8124 C 757.863 0.354066 3.55642 0
M  V30 8125 S 759.422 -0.0209309 4.38795 0
M  V30 8126 H 756.24 0.106412 0.702992 0
M  V30 8127 H 758.842 0.946237 1.71075 0
M  V30 8128 H 757.546 1.36565 3.87012 0
M  V30 8129 H 757.077 -0.340925 3.9192 0
M  V30 8130 H 759.092 -1.24093 4.80432 0
M  V30 8131 N 758.265 -1.50454 0.469181 0
M  V30 8132 C 759.228 -2.2703 -0.314643 0
M  V30 8133 C 760.228 -1.31734 -0.922111 0
M  V30 8134 O 761.418 -1.55176 -0.791588 0
M  V30 8135 C 758.55 -3.08616 -1.44806 0
M  V30 8136 H 759.743 -2.97769 0.356892 0
M  V30 8137 H 757.296 -1.54698 0.223191 0
M  V30 8138 H 758.031 -2.42369 -2.1547 0
M  V30 8139 H 757.816 -3.78647 -1.01829 0
M  V30 8140 H 759.306 -3.66536 -2.00103 0
M  V30 8141 N 759.743 -0.201713 -1.56304 0
M  V30 8142 C 761.154 0.309711 -1.84113 0
M  V30 8143 C 761.505 1.60912 -1.12258 0
M  V30 8144 O 760.63 2.12937 -0.385587 0
M  V30 8145 C 761.225 0.568706 -3.33993 0
M  V30 8146 C 759.784 1.02448 -3.6219 0
M  V30 8147 C 758.931 0.0766842 -2.77194 0
M  V30 8148 H 761.882 -0.425356 -1.52893 0
M  V30 8149 H 761.903 1.41721 -3.53122 0
M  V30 8150 H 761.415 -0.37719 -3.86263 0
M  V30 8151 H 759.516 1.98443 -3.15359 0
M  V30 8152 H 759.629 0.912619 -4.70328 0
M  V30 8153 H 757.993 0.579809 -2.48013 0
M  V30 8154 H 758.776 -0.863774 -3.32256 0
M  V30 8155 N 761.222 1.57436 0.0718424 0
M  V30 8156 C 762.17 2.04725 1.10411 0
M  V30 8157 C 763.164 0.952579 1.4008 0
M  V30 8158 O 764.37 1.13769 1.39487 0
M  V30 8159 H 760.745 0.652749 0.373393 0
M  V30 8160 H 762.716 2.90569 0.679126 0
M  V30 8161 C 761.465 2.5068 2.40946 0
M  V30 8162 H 760.788 3.34505 2.18967 0
M  V30 8163 H 762.228 2.87521 3.11621 0
M  V30 8164 C 760.687 1.38971 3.06902 0
M  V30 8165 O 761.217 0.731786 3.94978 0
M  V30 8166 N 759.423 1.13485 2.67525 0
M  V30 8167 H 758.97 1.67168 1.95991 0
M  V30 8168 H 758.928 0.389467 3.11978 0
M  V30 8169 N 762.7 -0.34323 1.53817 0
M  V30 8170 C 763.61 -1.44493 1.84821 0
M  V30 8171 C 764.626 -1.57556 0.738381 0
M  V30 8172 O 765.802 -1.73026 1.03072 0
M  V30 8173 C 762.867 -2.79478 2.05166 0
M  V30 8174 C 761.928 -2.75756 3.29025 0
M  V30 8175 C 761.161 -4.04302 3.4839 0
M  V30 8176 O 761.384 -5.01595 2.71586 0
M  V30 8177 O 760.318 -4.08754 4.41819 0
M  V30 8178 H 764.144 -1.21209 2.78464 0
M  V30 8179 H 761.729 -0.535437 1.39476 0
M  V30 8180 H 763.611 -3.59419 2.19991 0
M  V30 8181 H 762.286 -3.02692 1.14713 0
M  V30 8182 H 761.193 -1.94434 3.19603 0
M  V30 8183 H 762.526 -2.57495 4.19472 0
M  V30 8184 N 764.178 -1.45556 -0.604258 0
M  V30 8185 C 765.111 -1.48975 -1.72863 0
M  V30 8186 C 766.089 -0.345803 -1.5888 0
M  V30 8187 O 767.273 -0.546796 -1.80395 0
M  V30 8188 C 764.4 -1.34794 -3.10722 0
M  V30 8189 C 763.446 -2.53096 -3.43285 0
M  V30 8190 S 764.279 -4.15551 -3.37754 0
M  V30 8191 C 765.435 -4.03842 -4.78187 0
M  V30 8192 H 765.668 -2.44108 -1.69701 0
M  V30 8193 H 763.201 -1.33179 -0.781194 0
M  V30 8194 H 765.159 -1.273 -3.90263 0
M  V30 8195 H 763.82 -0.411254 -3.11396 0
M  V30 8196 H 763.013 -2.39109 -4.4367 0
M  V30 8197 H 762.615 -2.57469 -2.71267 0
M  V30 8198 H 764.907 -3.69191 -5.6807 0
M  V30 8199 H 765.85 -5.0415 -4.97231 0
M  V30 8200 H 766.258 -3.35443 -4.54025 0
M  V30 8201 N 765.656 0.84705 -1.32902 0
M  V30 8202 C 766.603 1.95624 -1.22473 0
M  V30 8203 C 767.573 1.65767 -0.105178 0
M  V30 8204 O 768.758 1.88704 -0.282042 0
M  V30 8205 C 765.898 3.31434 -0.961542 0
M  V30 8206 C 765.011 3.73741 -2.1666 0
M  V30 8207 C 764.146 4.98379 -1.83825 0
M  V30 8208 C 763.185 5.33199 -3.00609 0
M  V30 8209 N 762.322 6.49014 -2.67816 0
M  V30 8210 H 767.162 2.03875 -2.17345 0
M  V30 8211 H 764.699 0.997764 -1.08088 0
M  V30 8212 H 766.657 4.09663 -0.789411 0
M  V30 8213 H 765.287 3.22762 -0.0495938 0
M  V30 8214 H 764.339 2.91102 -2.44875 0
M  V30 8215 H 765.651 3.95462 -3.03993 0
M  V30 8216 H 764.805 5.84336 -1.63208 0
M  V30 8217 H 763.544 4.78611 -0.937172 0
M  V30 8218 H 762.549 4.4575 -3.21849 0
M  V30 8219 H 763.774 5.5492 -3.9146 0
M  V30 8220 H 761.72 6.30748 -1.80258 0
M  V30 8221 H 761.637 6.7079 -3.48679 0
M  V30 8222 H 762.905 7.38103 -2.50647 0
M  V30 8223 N 767.134 1.16236 1.06428 0
M  V30 8224 C 768.082 0.863669 2.15971 0
M  V30 8225 C 769.076 -0.166723 1.68578 0
M  V30 8226 O 770.282 -0.0208425 1.79988 0
M  V30 8227 H 766.657 0.261684 0.705 0
M  V30 8228 H 768.628 1.79498 2.38376 0
M  V30 8229 C 767.377 0.379697 3.45621 0
M  V30 8230 H 766.7 1.16399 3.82481 0
M  V30 8231 H 768.14 0.209458 4.23482 0
M  V30 8232 C 766.599 -0.900499 3.24642 0
M  V30 8233 O 767.129 -1.97004 3.50074 0
M  V30 8234 N 765.335 -0.843721 2.78082 0
M  V30 8235 H 764.882 0.0268429 2.57586 0
M  V30 8236 H 764.84 -1.70078 2.64425 0
M  V30 8237 N 768.612 -1.24939 0.960631 0
M  V30 8238 C 769.545 -2.24116 0.429804 0
M  V30 8239 C 770.523 -1.54972 -0.492188 0
M  V30 8240 O 771.707 -1.83642 -0.42519 0
M  V30 8241 C 768.834 -3.36558 -0.380312 0
M  V30 8242 C 767.88 -4.23757 0.482941 0
M  V30 8243 S 768.713 -4.9994 1.91885 0
M  V30 8244 C 769.869 -6.15846 1.11732 0
M  V30 8245 H 770.102 -2.68795 1.27029 0
M  V30 8246 H 767.635 -1.34108 0.765141 0
M  V30 8247 H 769.593 -4.01777 -0.841764 0
M  V30 8248 H 768.254 -2.90451 -1.19569 0
M  V30 8249 H 767.447 -5.03809 -0.138699 0
M  V30 8250 H 767.049 -3.63504 0.879839 0
M  V30 8251 H 769.341 -6.76495 0.368898 0
M  V30 8252 H 770.284 -6.82356 1.89198 0
M  V30 8253 H 770.692 -5.60805 0.644812 0
M  V30 8254 N 770.09 -0.729906 -1.39679 0
M  V30 8255 C 771.022 -0.0470588 -2.29152 0
M  V30 8256 C 772.035 0.708808 -1.4656 0
M  V30 8257 O 773.224 0.553815 -1.69691 0
M  V30 8258 C 770.324 0.957612 -3.25089 0
M  V30 8259 C 769.497 0.264321 -4.36601 0
M  V30 8260 C 768.556 1.17638 -5.12882 0
M  V30 8261 O 767.582 0.655777 -5.6541 0
M  V30 8262 N 768.784 2.50649 -5.23598 0
M  V30 8263 H 771.549 -0.815364 -2.88395 0
M  V30 8264 H 769.11 -0.578707 -1.51204 0
M  V30 8265 H 771.102 1.57026 -3.72995 0
M  V30 8266 H 769.672 1.62716 -2.66912 0
M  V30 8267 H 768.892 -0.528732 -3.90638 0
M  V30 8268 H 770.18 -0.216344 -5.0834 0
M  V30 8269 H 769.578 2.95427 -4.82431 0
M  V30 8270 H 768.135 3.07022 -5.74961 0
M  V30 8271 N 771.568 1.50203 -0.477153 0
M  V30 8272 C 772.979 1.86685 -0.0235041 0
M  V30 8273 C 773.33 1.39148 1.38319 0
M  V30 8274 O 772.455 0.759051 2.02651 0
M  V30 8275 C 773.05 3.38781 -0.0358767 0
M  V30 8276 C 771.609 3.74652 0.362327 0
M  V30 8277 C 770.756 2.7412 -0.41875 0
M  V30 8278 H 773.707 1.4286 -0.691133 0
M  V30 8279 H 773.728 3.72732 0.764924 0
M  V30 8280 H 773.24 3.73349 -1.05981 0
M  V30 8281 H 771.341 3.45686 1.39039 0
M  V30 8282 H 771.454 4.79063 0.059457 0
M  V30 8283 H 769.818 2.54376 0.128341 0
M  V30 8284 H 770.601 3.11532 -1.44231 0
M  V30 8285 N 773.046 0.209999 1.56195 0
M  V30 8286 C 774.294 -0.423974 1.97603 0
M  V30 8287 C 774.615 -1.61112 1.09854 0
M  V30 8288 O 773.885 -1.95134 0.173032 0
M  V30 8289 H 772.465 -0.159629 0.729745 0
M  V30 8290 H 775.127 0.300205 1.92574 0
M  V30 8291 H 774.223 -0.75809 3.02753 0
M  V30 8292 N 774.524 -1.57472 -0.0634922 0
M  V30 8293 C 775.801 -1.78736 -0.794538 0
M  V30 8294 C 776.181 -0.799645 -1.95369 0
M  V30 8295 O 775.529 0.165521 -2.279 0
M  V30 8296 C 775.739 -3.25471 -1.25975 0
M  V30 8297 C 777.087 -3.89528 -1.68976 0
M  V30 8298 O 778.111 -3.29412 -1.35521 0
M  V30 8299 O 776.97 -4.95305 -2.30944 0
M  V30 8300 H 774.064 -0.733813 -0.381376 0
M  V30 8301 H 776.61 -1.69646 -0.0429258 0
M  V30 8302 H 775.382 -3.88922 -0.430721 0
M  V30 8303 H 775.005 -3.39317 -2.07243 0
M  V30 8304 N 776.003 0.335068 -1.53997 0
M  V30 8305 C 777.249 1.07594 -1.71905 0
M  V30 8306 C 777.582 1.88039 -0.485264 0
M  V30 8307 O 776.857 1.87482 0.517752 0
M  V30 8308 C 777.14 2.01016 -2.98772 0
M  V30 8309 C 776.993 1.23977 -4.32377 0
M  V30 8310 C 778.312 3.0071 -3.21343 0
M  V30 8311 H 775.431 0.38976 -0.625505 0
M  V30 8312 H 778.073 0.353684 -1.86679 0
M  V30 8313 H 776.223 2.62603 -2.86307 0
M  V30 8314 H 777.895 0.649383 -4.56706 0
M  V30 8315 H 776.138 0.541878 -4.30402 0
M  V30 8316 H 776.809 1.92512 -5.17342 0
M  V30 8317 H 779.285 2.4924 -3.33194 0
M  V30 8318 H 778.161 3.63272 -4.11491 0
M  V30 8319 H 778.422 3.72549 -2.38033 0
M  V30 8320 N 777.481 1.45874 0.596531 0
M  V30 8321 C 778.721 1.52015 1.36641 0
M  V30 8322 C 779.085 0.16226 1.91313 0
M  V30 8323 O 780.286 0.0983889 2.6862 0
M  V30 8324 C 778.557 2.57776 2.4756 0
M  V30 8325 S 780.116 2.83223 3.35157 0
M  V30 8326 H 776.934 0.537251 0.465706 0
M  V30 8327 H 779.536 1.83024 0.687205 0
M  V30 8328 H 778.24 3.55091 2.05764 0
M  V30 8329 H 777.771 2.28455 3.20269 0
M  V30 8330 H 779.786 2.17442 4.4602 0
M  V30 8331 N 778.959 -0.83999 1.33349 0
M  V30 8332 C 780.199 -1.60888 1.26073 0
M  V30 8333 C 780.563 -1.91234 -0.17129 0
M  V30 8334 O 781.764 -2.66269 -0.36799 0
M  V30 8335 C 780.035 -2.88438 2.11042 0
M  V30 8336 S 781.594 -3.79116 2.20944 0
M  V30 8337 H 778.412 -0.55166 0.448545 0
M  V30 8338 H 781.014 -0.99359 1.68369 0
M  V30 8339 H 779.718 -2.64113 3.14121 0
M  V30 8340 H 779.249 -3.54974 1.69579 0
M  V30 8341 H 781.264 -4.76921 1.36969 0
M  V30 8342 N 780.437 -1.16799 -1.0581 0
M  V30 8343 C 781.683 -0.963929 -1.79109 0
M  V30 8344 C 782.038 0.502569 -1.8572 0
M  V30 8345 O 781.331 1.36813 -1.34137 0
M  V30 8346 C 781.525 -1.53111 -3.22942 0
M  V30 8347 C 781.354 -3.05123 -3.30348 0
M  V30 8348 C 780.124 -3.73804 -3.39998 0
M  V30 8349 C 782.322 -4.02777 -3.19805 0
M  V30 8350 N 780.304 -5.1348 -3.36469 0
M  V30 8351 C 781.675 -5.28866 -3.23576 0
M  V30 8352 C 783.73 -3.94533 -3.03724 0
M  V30 8353 C 782.433 -6.47669 -3.12918 0
M  V30 8354 C 784.459 -5.12913 -2.94405 0
M  V30 8355 C 783.821 -6.37884 -2.98803 0
M  V30 8356 H 779.92 -0.406555 -0.66801 0
M  V30 8357 H 782.504 -1.48277 -1.26183 0
M  V30 8358 H 780.675 -1.03869 -3.74254 0
M  V30 8359 H 782.407 -1.2643 -3.84444 0
M  V30 8360 H 779.162 -3.24457 -3.44999 0
M  V30 8361 H 779.586 -5.86477 -3.38191 0
M  V30 8362 H 784.228 -2.98763 -2.99166 0
M  V30 8363 H 781.946 -7.43656 -3.16231 0
M  V30 8364 H 785.532 -5.08309 -2.83042 0
M  V30 8365 H 784.412 -7.27946 -2.91657 0
M  V30 8366 N 781.915 1.24427 -0.967243 0
M  V30 8367 C 783.164 1.91789 -0.624478 0
M  V30 8368 C 783.477 1.76448 0.844129 0
M  V30 8369 O 784.683 2.38495 1.2974 0
M  V30 8370 C 783.139 3.43743 -1.06626 0
M  V30 8371 C 782.747 3.67771 -2.55829 0
M  V30 8372 C 784.491 4.16958 -0.79662 0
M  V30 8373 C 782.398 5.13293 -2.93742 0
M  V30 8374 H 781.328 0.71811 -0.229856 0
M  V30 8375 H 783.979 1.41081 -1.17339 0
M  V30 8376 H 782.361 3.93484 -0.445663 0
M  V30 8377 H 783.535 3.28631 -3.23015 0
M  V30 8378 H 781.85 3.07841 -2.80398 0
M  V30 8379 H 784.447 5.24171 -1.05589 0
M  V30 8380 H 784.79 4.15442 0.267163 0
M  V30 8381 H 785.323 3.73164 -1.37816 0
M  V30 8382 H 782.062 5.19931 -3.9919 0
M  V30 8383 H 781.582 5.53433 -2.3124 0
M  V30 8384 H 783.261 5.81521 -2.83623 0
M  V30 8385 N 783.393 0.737304 1.3929 0
M  V30 8386 C 784.633 0.290966 2.02318 0
M  V30 8387 C 784.997 -1.10174 1.57244 0
M  V30 8388 O 786.198 -1.64628 2.12488 0
M  V30 8389 C 784.469 0.391767 3.55246 0
M  V30 8390 S 786.028 0.0256103 4.38793 0
M  V30 8391 H 782.846 0.113862 0.701824 0
M  V30 8392 H 785.448 0.964329 1.70062 0
M  V30 8393 H 784.152 1.40662 3.85542 0
M  V30 8394 H 783.683 -0.299338 3.9226 0
M  V30 8395 H 785.698 -1.18991 4.81722 0
M  V30 8396 N 784.871 -1.49948 0.485112 0
M  V30 8397 C 786.12 -2.01589 -0.066765 0
M  V30 8398 C 786.433 -1.371 -1.39509 0
M  V30 8399 O 787.639 -1.79978 -2.03274 0
M  V30 8400 C 786.095 -3.59501 -0.169476 0
M  V30 8401 C 785.703 -4.32955 1.15126 0
M  V30 8402 C 787.447 -4.19138 -0.672564 0
M  V30 8403 C 785.354 -5.82684 1.01158 0
M  V30 8404 H 784.284 -0.753453 -0.0287259 0
M  V30 8405 H 786.935 -1.72632 0.622132 0
M  V30 8406 H 785.317 -3.85106 -0.922471 0
M  V30 8407 H 786.491 -4.19064 1.9163 0
M  V30 8408 H 784.806 -3.84991 1.58654 0
M  V30 8409 H 787.403 -5.28767 -0.794325 0
M  V30 8410 H 787.746 -3.81447 -1.66745 0
M  V30 8411 H 788.279 -3.97793 0.0234415 0
M  V30 8412 H 785.018 -6.24873 1.98025 0
M  V30 8413 H 784.538 -5.99112 0.287151 0
M  V30 8414 H 786.217 -6.43376 0.683847 0
M  V30 8415 N 786.349 -0.21828 -1.56081 0
M  V30 8416 C 787.76 0.290166 -1.84431 0
M  V30 8417 C 788.111 1.59712 -1.13958 0
M  V30 8418 O 787.236 2.12516 -0.40815 0
M  V30 8419 C 787.831 0.53325 -3.34577 0
M  V30 8420 C 786.39 0.986011 -3.63256 0
M  V30 8421 C 785.537 0.0472798 -2.7726 0
M  V30 8422 H 788.488 -0.441548 -1.52434 0
M  V30 8423 H 788.509 1.37967 -3.54606 0
M  V30 8424 H 788.021 -0.418137 -3.85841 0
M  V30 8425 H 786.122 1.95087 -3.17446 0
M  V30 8426 H 786.235 0.862684 -4.71269 0
M  V30 8427 H 784.599 0.553471 -2.48614 0
M  V30 8428 H 785.382 -0.898966 -3.31321 0
M  V30 8429 N 787.827 1.57504 0.0551401 0
M  V30 8430 C 789.067 1.89895 0.756252 0
M  V30 8431 C 789.431 0.813983 1.73892 0
M  V30 8432 O 790.632 1.02145 2.48636 0
M  V30 8433 C 788.903 3.27494 1.43116 0
M  V30 8434 S 790.462 3.81669 2.16504 0
M  V30 8435 H 787.28 0.665173 0.251129 0
M  V30 8436 H 789.882 1.95496 0.0117193 0
M  V30 8437 H 788.586 4.04345 0.702391 0
M  V30 8438 H 788.117 3.25132 2.21479 0
M  V30 8439 H 790.132 3.58295 3.43277 0
M  V30 8440 N 789.305 -0.326896 1.54172 0
M  V30 8441 C 790.215 -1.42525 1.86343 0
M  V30 8442 C 791.231 -1.56764 0.75505 0
M  V30 8443 O 792.407 -1.71924 1.04901 0
M  V30 8444 C 789.472 -2.77286 2.08119 0
M  V30 8445 C 788.533 -2.7225 3.31931 0
M  V30 8446 C 787.766 -4.00584 3.52659 0
M  V30 8447 O 787.989 -4.98686 2.76891 0
M  V30 8448 O 786.923 -4.04045 4.46129 0
M  V30 8449 H 790.749 -1.18249 2.79734 0
M  V30 8450 H 788.334 -0.520614 1.40036 0
M  V30 8451 H 790.216 -3.57065 2.23791 0
M  V30 8452 H 788.891 -3.01459 1.17917 0
M  V30 8453 H 787.798 -1.91033 3.21647 0
M  V30 8454 H 789.131 -2.53032 4.2218 0
M  V30 8455 N 790.784 -1.46188 -0.588786 0
M  V30 8456 C 792.195 -1.45421 -1.17088 0
M  V30 8457 C 792.546 -0.191801 -1.9526 0
M  V30 8458 O 791.671 0.705497 -2.04577 0
M  V30 8459 C 792.266 -2.63467 -2.13004 0
M  V30 8460 C 790.825 -2.6576 -2.6655 0
M  V30 8461 C 789.972 -2.38002 -1.42304 0
M  V30 8462 H 792.923 -1.54156 -0.377052 0
M  V30 8463 H 792.944 -2.38638 -2.96365 0
M  V30 8464 H 792.456 -3.55331 -1.56081 0
M  V30 8465 H 790.557 -1.77952 -3.27359 0
M  V30 8466 H 790.67 -3.65545 -3.09699 0
M  V30 8467 H 789.034 -1.87936 -1.71907 0
M  V30 8468 H 789.817 -3.32035 -0.872209 0
M  V30 8469 N 792.262 0.832906 -1.33792 0
M  V30 8470 C 793.492 1.61813 -1.28453 0
M  V30 8471 C 793.9 1.88639 0.145595 0
M  V30 8472 O 793.243 1.47122 1.10004 0
M  V30 8473 C 793.305 2.98929 -1.99704 0
M  V30 8474 C 792.969 2.95045 -3.48995 0
M  V30 8475 C 793.966 2.70337 -4.44088 0
M  V30 8476 C 791.651 3.14993 -3.91261 0
M  V30 8477 C 793.645 2.65612 -5.79421 0
M  V30 8478 C 791.332 3.09893 -5.26697 0
M  V30 8479 C 792.33 2.85235 -6.20588 0
M  V30 8480 O 792.018 2.8005 -7.53543 0
M  V30 8481 H 791.75 0.510013 -0.443693 0
M  V30 8482 H 794.304 1.04514 -1.76822 0
M  V30 8483 H 792.534 3.58106 -1.45935 0
M  V30 8484 H 794.223 3.59849 -1.87786 0
M  V30 8485 H 794.989 2.54671 -4.12756 0
M  V30 8486 H 790.868 3.33204 -3.18584 0
M  V30 8487 H 794.412 2.46285 -6.52679 0
M  V30 8488 H 790.309 3.2511 -5.5765 0
M  V30 8489 H 791.077 2.95849 -7.63162 0
M  V30 8490 N 793.74 1.17359 1.05189 0
M  V30 8491 C 794.65 0.904984 2.16442 0
M  V30 8492 C 795.666 -0.12686 1.73537 0
M  V30 8493 O 796.842 0.0524127 2.01332 0
M  V30 8494 C 793.907 0.422019 3.44122 0
M  V30 8495 C 792.968 1.52045 4.01473 0
M  V30 8496 C 792.201 1.06044 5.23059 0
M  V30 8497 O 792.424 -0.0854023 5.70336 0
M  V30 8498 O 791.358 1.85349 5.72651 0
M  V30 8499 H 795.184 1.8356 2.41949 0
M  V30 8500 H 792.769 0.95447 1.14936 0
M  V30 8501 H 794.651 0.160208 4.21095 0
M  V30 8502 H 793.326 -0.480444 3.20115 0
M  V30 8503 H 792.233 1.83615 3.25939 0
M  V30 8504 H 793.566 2.39863 4.29798 0
M  V30 8505 N 795.218 -1.23913 0.973828 0
M  V30 8506 C 796.448 -1.95911 0.655938 0
M  V30 8507 C 796.856 -1.72375 -0.779967 0
M  V30 8508 O 796.199 -1.00807 -1.5357 0
M  V30 8509 C 796.261 -3.49103 0.858324 0
M  V30 8510 C 795.925 -3.96347 2.27504 0
M  V30 8511 C 796.922 -4.05537 3.25324 0
M  V30 8512 C 794.607 -4.29509 2.60437 0
M  V30 8513 C 796.601 -4.47233 4.5416 0
M  V30 8514 C 794.288 -4.70887 3.89498 0
M  V30 8515 C 795.286 -4.79714 4.86172 0
M  V30 8516 O 794.974 -5.20166 6.1293 0
M  V30 8517 H 794.706 -0.630721 0.243244 0
M  V30 8518 H 797.26 -1.58534 1.30599 0
M  V30 8519 H 795.49 -3.86405 0.151097 0
M  V30 8520 H 797.179 -4.02311 0.538592 0
M  V30 8521 H 797.945 -3.80128 3.0121 0
M  V30 8522 H 793.824 -4.21853 1.85906 0
M  V30 8523 H 797.368 -4.54038 5.29618 0
M  V30 8524 H 793.265 -4.95744 4.1341 0
M  V30 8525 H 794.033 -5.38298 6.16586 0
M  V30 8526 N 796.696 -0.74468 -1.38897 0
M  V30 8527 C 797.626 -0.126355 -2.33158 0
M  V30 8528 C 798.607 0.713517 -1.54412 0
M  V30 8529 O 799.792 0.656523 -1.82766 0
M  V30 8530 C 796.922 0.774375 -3.38557 0
M  V30 8531 C 795.876 0.0379214 -4.27983 0
M  V30 8532 C 795.202 1.05631 -5.24162 0
M  V30 8533 C 796.502 -1.12523 -5.10035 0
M  V30 8534 H 798.196 -0.913744 -2.85116 0
M  V30 8535 H 795.742 -0.440847 -1.37086 0
M  V30 8536 H 797.695 1.21655 -4.03458 0
M  V30 8537 H 796.419 1.59399 -2.85061 0
M  V30 8538 H 795.078 -0.384733 -3.64576 0
M  V30 8539 H 794.726 1.86975 -4.66958 0
M  V30 8540 H 794.426 0.568261 -5.84846 0
M  V30 8541 H 795.95 1.49799 -5.9194 0
M  V30 8542 H 797.364 -0.761037 -5.68226 0
M  V30 8543 H 795.761 -1.54355 -5.79909 0
M  V30 8544 H 796.831 -1.94237 -4.44297 0
M  V30 8545 N 798.174 1.49689 -0.493057 0
M  V30 8546 C 799.137 2.27502 0.278485 0
M  V30 8547 C 800.137 1.33184 0.901037 0
M  V30 8548 O 801.327 1.56415 0.766801 0
M  V30 8549 C 798.459 3.10881 1.39878 0
M  V30 8550 H 799.652 2.97163 -0.404219 0
M  V30 8551 H 797.205 1.54324 -0.247774 0
M  V30 8552 H 797.94 2.45767 2.11587 0
M  V30 8553 H 797.725 3.80219 0.957924 0
M  V30 8554 H 799.215 3.69673 1.94247 0
M  V30 8555 N 799.652 0.226554 1.55963 0
M  V30 8556 C 800.929 -0.453058 1.90281 0
M  V30 8557 C 801.309 -1.77377 1.14458 0
M  V30 8558 O 800.657 -2.27067 0.255496 0
M  V30 8559 C 800.867 -0.641108 3.43061 0
M  V30 8560 C 802.215 -0.946265 4.13921 0
M  V30 8561 O 803.239 -0.727713 3.48687 0
M  V30 8562 O 802.098 -1.36131 5.29274 0
M  V30 8563 H 799.192 -0.240242 0.791336 0
M  V30 8564 H 801.738 0.26911 1.67553 0
M  V30 8565 H 800.51 0.290283 3.90222 0
M  V30 8566 H 800.133 -1.41458 3.71585 0
M  V30 8567 N 801.13 -1.57531 -0.0467866 0
M  V30 8568 C 802.04 -2.08768 -1.07018 0
M  V30 8569 C 803.056 -1.02245 -1.40791 0
M  V30 8570 O 804.232 -1.33873 -1.50466 0
M  V30 8571 C 801.297 -2.54221 -2.35738 0
M  V30 8572 C 800.358 -3.75152 -2.08709 0
M  V30 8573 C 799.591 -4.18428 -3.31291 0
M  V30 8574 O 799.814 -3.61365 -4.4133 0
M  V30 8575 O 798.748 -5.11018 -3.18032 0
M  V30 8576 H 802.574 -2.96334 -0.664812 0
M  V30 8577 H 800.159 -1.47074 -0.262605 0
M  V30 8578 H 802.041 -2.83866 -3.11445 0
M  V30 8579 H 800.716 -1.69774 -2.75605 0
M  V30 8580 H 799.623 -3.50553 -1.30627 0
M  V30 8581 H 800.956 -4.60528 -1.73708 0
M  V30 8582 N 802.608 0.318715 -1.54344 0
M  V30 8583 C 803.855 1.05608 -1.72781 0
M  V30 8584 C 804.183 1.87854 -0.504083 0
M  V30 8585 O 803.438 1.88826 0.51414 0
M  V30 8586 C 803.737 2.00514 -2.95853 0
M  V30 8587 C 803.403 1.34385 -4.30409 0
M  V30 8588 C 802.065 1.16081 -4.66989 0
M  V30 8589 C 804.417 0.869627 -5.13894 0
M  V30 8590 C 801.745 0.490114 -5.84649 0
M  V30 8591 C 804.097 0.212735 -6.32242 0
M  V30 8592 C 802.761 0.0175882 -6.67498 0
M  V30 8593 H 802.031 0.386449 -0.632249 0
M  V30 8594 H 804.678 0.332729 -1.88587 0
M  V30 8595 H 802.983 2.79317 -2.74753 0
M  V30 8596 H 804.68 2.57605 -3.07312 0
M  V30 8597 H 801.27 1.49634 -4.01631 0
M  V30 8598 H 805.454 0.998809 -4.86146 0
M  V30 8599 H 800.71 0.327767 -6.10521 0
M  V30 8600 H 804.884 -0.162699 -6.9621 0
M  V30 8601 H 802.511 -0.504137 -7.58527 0
M  V30 8602 N 804.086 1.46499 0.581025 0
M  V30 8603 C 805.314 1.5547 1.36517 0
M  V30 8604 C 805.729 0.196407 1.87776 0
M  V30 8605 O 805.086 -0.806577 1.63709 0
M  V30 8606 C 805.137 2.56084 2.55154 0
M  V30 8607 O 804.858 3.86637 2.06018 0
M  V30 8608 C 806.359 2.75011 3.47683 0
M  V30 8609 H 803.579 0.525703 0.416986 0
M  V30 8610 H 806.123 1.9192 0.706177 0
M  V30 8611 H 804.278 2.22633 3.17039 0
M  V30 8612 H 804.692 4.41413 2.83292 0
M  V30 8613 H 806.166 3.49329 4.27403 0
M  V30 8614 H 806.643 1.81978 3.99726 0
M  V30 8615 H 807.249 3.09565 2.91632 0
M  V30 8616 N 805.565 -0.825799 1.34232 0
M  V30 8617 C 806.805 -1.59541 1.27773 0
M  V30 8618 C 807.169 -1.91405 -0.150998 0
M  V30 8619 O 808.37 -2.66644 -0.339728 0
M  V30 8620 C 806.641 -2.86183 2.14089 0
M  V30 8621 S 808.2 -3.76751 2.24953 0
M  V30 8622 H 805.018 -0.546871 0.454371 0
M  V30 8623 H 807.62 -0.975677 1.69413 0
M  V30 8624 H 806.324 -2.60767 3.16905 0
M  V30 8625 H 805.855 -3.53155 1.73335 0
M  V30 8626 H 807.87 -4.75442 1.4202 0
M  V30 8627 N 807.043 -1.17915 -1.04565 0
M  V30 8628 C 807.976 -0.845021 -2.11978 0
M  V30 8629 C 808.954 0.19089 -1.61476 0
M  V30 8630 O 810.138 0.0709905 -1.88366 0
M  V30 8631 C 807.265 -0.261657 -3.37688 0
M  V30 8632 C 806.311 -1.27396 -4.07029 0
M  V30 8633 S 807.144 -2.82783 -4.54746 0
M  V30 8634 C 808.3 -2.25944 -5.83695 0
M  V30 8635 H 808.533 -1.75472 -2.39993 0
M  V30 8636 H 806.066 -1.00447 -1.17259 0
M  V30 8637 H 808.024 0.0684257 -4.10443 0
M  V30 8638 H 806.685 0.626082 -3.07797 0
M  V30 8639 H 805.878 -0.814557 -4.97374 0
M  V30 8640 H 805.48 -1.55002 -3.40368 0
M  V30 8641 H 807.772 -1.63892 -6.57378 0
M  V30 8642 H 808.715 -3.14569 -6.34391 0
M  V30 8643 H 809.123 -1.69155 -5.3856 0
M  V30 8644 N 808.521 1.23394 -0.980386 0
M  V30 8645 C 809.798 1.87242 -0.565667 0
M  V30 8646 C 810.178 1.88151 0.957197 0
M  V30 8647 O 809.526 1.36309 1.8339 0
M  V30 8648 C 809.736 3.28743 -1.17172 0
M  V30 8649 C 811.084 4.05335 -1.26446 0
M  V30 8650 O 812.108 3.37962 -1.12517 0
M  V30 8651 O 810.967 5.25908 -1.48604 0
M  V30 8652 H 808.061 0.80477 -0.190459 0
M  V30 8653 H 810.607 1.3127 -1.07547 0
M  V30 8654 H 809.379 3.22647 -2.21392 0
M  V30 8655 H 809.002 3.92305 -0.646739 0
M  V30 8656 N 809.999 0.752036 1.385 0
M  V30 8657 C 811.239 0.312408 2.01998 0
M  V30 8658 C 811.603 -1.085 1.58404 0
M  V30 8659 O 812.804 -1.62365 2.14222 0
M  V30 8660 C 811.075 0.429423 3.54811 0
M  V30 8661 S 812.634 0.0721487 4.38741 0
M  V30 8662 H 809.452 0.1213 0.700576 0
M  V30 8663 H 812.054 0.982312 1.69029 0
M  V30 8664 H 810.758 1.44743 3.84028 0
M  V30 8665 H 810.289 -0.257716 3.92555 0
M  V30 8666 H 812.304 -1.13875 4.82957 0
M  V30 8667 N 811.477 -1.49425 0.500989 0
M  V30 8668 C 812.725 -2.02053 -0.0434495 0
M  V30 8669 C 813.046 -1.38285 -1.37486 0
M  V30 8670 O 812.316 -0.538171 -1.88363 0
M  V30 8671 H 810.896 -0.746757 -0.0190469 0
M  V30 8672 H 813.558 -1.83449 0.658227 0
M  V30 8673 H 812.654 -3.11619 -0.173129 0
M  V30 8674 N 812.955 -0.234822 -1.55841 0
M  V30 8675 C 814.18 0.400741 -2.03492 0
M  V30 8676 C 814.605 1.51618 -1.11327 0
M  V30 8677 O 813.963 1.81002 -0.103922 0
M  V30 8678 C 814.011 0.897184 -3.49261 0
M  V30 8679 O 813.115 2.00764 -3.60233 0
M  V30 8680 H 812.456 0.0890023 -0.658008 0
M  V30 8681 H 814.986 -0.357345 -2.01455 0
M  V30 8682 H 814.996 1.20356 -3.89844 0
M  V30 8683 H 813.671 0.0808639 -4.15821 0
M  V30 8684 H 812.248 1.70689 -3.31541 0
M  V30 8685 N 814.433 1.57553 0.0384317 0
M  V30 8686 C 815.681 1.88468 0.729672 0
M  V30 8687 C 816.002 0.831302 1.76393 0
M  V30 8688 O 815.272 -0.13622 1.95426 0
M  V30 8689 H 813.852 0.695529 0.272485 0
M  V30 8690 H 816.514 1.94899 0.0066032 0
M  V30 8691 H 815.61 2.8705 1.22511 0
M  V30 8692 N 815.911 -0.310526 1.54511 0
M  V30 8693 C 816.843 -1.40405 1.8116 0
M  V30 8694 C 817.856 -1.47261 0.694114 0
M  V30 8695 O 819.045 -1.49751 0.971441 0
M  V30 8696 C 816.145 -2.78849 1.92604 0
M  V30 8697 C 815.318 -2.95041 3.22908 0
M  V30 8698 C 814.377 -4.13925 3.24889 0
M  V30 8699 O 813.403 -4.06463 3.98467 0
M  V30 8700 N 814.605 -5.24099 2.496 0
M  V30 8701 H 817.37 -1.17903 2.75534 0
M  V30 8702 H 814.931 -0.500564 1.53967 0
M  V30 8703 H 816.923 -3.5661 1.91342 0
M  V30 8704 H 815.493 -2.94342 1.05268 0
M  V30 8705 H 814.713 -2.04472 3.37023 0
M  V30 8706 H 816.001 -3.02763 4.08916 0
M  V30 8707 H 815.399 -5.33039 1.89435 0
M  V30 8708 H 813.956 -6.0023 2.54102 0
M  V30 8709 N 817.389 -1.46805 -0.573248 0
M  V30 8710 C 818.635 -1.53816 -1.33088 0
M  V30 8711 C 818.99 -0.191162 -1.91448 0
M  V30 8712 O 818.283 0.801299 -1.7404 0
M  V30 8713 C 818.477 -2.58001 -2.47326 0
M  V30 8714 C 818.306 -4.027 -2.00157 0
M  V30 8715 C 817.076 -4.70319 -1.84737 0
M  V30 8716 C 819.274 -4.90211 -1.55557 0
M  V30 8717 N 817.256 -5.99598 -1.31739 0
M  V30 8718 C 818.627 -6.09389 -1.14215 0
M  V30 8719 C 820.682 -4.76784 -1.43461 0
M  V30 8720 C 819.385 -7.16625 -0.619809 0
M  V30 8721 C 821.411 -5.84101 -0.926297 0
M  V30 8722 C 820.773 -7.02458 -0.522715 0
M  V30 8723 H 816.872 -0.617642 -0.479627 0
M  V30 8724 H 819.456 -1.83471 -0.65164 0
M  V30 8725 H 817.627 -2.3024 -3.128 0
M  V30 8726 H 819.359 -2.54951 -3.14296 0
M  V30 8727 H 816.114 -4.25982 -2.06969 0
M  V30 8728 H 816.538 -6.68431 -1.07374 0
M  V30 8729 H 821.18 -3.85661 -1.73279 0
M  V30 8730 H 818.898 -8.07508 -0.309228 0
M  V30 8731 H 822.484 -5.75755 -0.836485 0
M  V30 8732 H 821.364 -7.84083 -0.135467 0
M  V30 8733 N 818.867 0.818669 -1.34668 0
M  V30 8734 C 820.278 1.39177 -1.24446 0
M  V30 8735 C 820.629 1.9578 0.128268 0
M  V30 8736 O 819.754 1.90382 1.02877 0
M  V30 8737 C 820.349 2.53012 -2.25323 0
M  V30 8738 C 818.908 3.06218 -2.18878 0
M  V30 8739 C 818.055 1.79112 -2.11694 0
M  V30 8740 H 821.006 0.622709 -1.45973 0
M  V30 8741 H 821.027 3.31226 -1.8727 0
M  V30 8742 H 820.539 2.11784 -3.25221 0
M  V30 8743 H 818.64 3.51939 -1.22351 0
M  V30 8744 H 818.753 3.65019 -3.10319 0
M  V30 8745 H 817.117 2.0018 -1.57481 0
M  V30 8746 H 817.9 1.40053 -3.13433 0
M  V30 8747 N 820.346 1.18468 1.03938 0
M  V30 8748 C 821.574 1.00576 1.80809 0
M  V30 8749 C 821.989 -0.445786 1.83462 0
M  V30 8750 O 821.346 -1.30964 1.27101 0
M  V30 8751 C 821.397 1.55491 3.26351 0
M  V30 8752 O 821.118 2.94963 3.23926 0
M  V30 8753 C 822.619 1.42236 4.19862 0
M  V30 8754 H 819.839 0.35508 0.56935 0
M  V30 8755 H 822.383 1.57046 1.30984 0
M  V30 8756 H 820.538 1.03195 3.73403 0
M  V30 8757 H 820.952 3.20598 4.15111 0
M  V30 8758 H 822.426 1.85455 5.19914 0
M  V30 8759 H 822.903 0.371267 4.37628 0
M  V30 8760 H 823.509 1.9361 3.78675 0
M  V30 8761 N 821.824 -1.22873 0.986916 0
M  V30 8762 C 822.787 -2.2281 0.537442 0
M  V30 8763 C 823.787 -1.56331 -0.37646 0
M  V30 8764 O 824.977 -1.73376 -0.169247 0
M  V30 8765 C 822.109 -3.40195 -0.219082 0
M  V30 8766 H 823.302 -2.64089 1.42116 0
M  V30 8767 H 820.855 -1.35819 0.773488 0
M  V30 8768 H 821.59 -3.04381 -1.11905 0
M  V30 8769 H 821.375 -3.89657 0.437026 0
M  V30 8770 H 822.865 -4.14326 -0.521926 0
M  V30 8771 N 823.302 -0.75937 -1.38099 0
M  V30 8772 C 824.579 -0.243371 -1.9408 0
M  V30 8773 C 824.959 1.25942 -1.69416 0
M  V30 8774 O 824.307 2.03667 -1.03595 0
M  V30 8775 C 824.517 -0.603328 -3.43745 0
M  V30 8776 C 825.865 -0.566195 -4.20808 0
M  V30 8777 O 826.889 -0.541969 -3.52053 0
M  V30 8778 O 825.748 -0.582261 -5.43389 0
M  V30 8779 H 822.842 -0.0526825 -0.82532 0
M  V30 8780 H 825.388 -0.839884 -1.47459 0
M  V30 8781 H 824.16 -1.64098 -3.55229 0
M  V30 8782 H 823.783 0.0208887 -3.97595 0
M  V30 8783 N 824.78 1.49157 -0.508906 0
M  V30 8784 C 825.71 2.32109 0.254469 0
M  V30 8785 C 826.691 1.40754 0.955111 0
M  V30 8786 O 827.876 1.69658 0.944983 0
M  V30 8787 C 825.006 3.21458 1.3146 0
M  V30 8788 C 823.96 4.2167 0.733368 0
M  V30 8789 C 823.286 5.00009 1.8946 0
M  V30 8790 C 824.586 5.21544 -0.280875 0
M  V30 8791 H 826.28 2.9618 -0.43795 0
M  V30 8792 H 823.826 1.4243 -0.212062 0
M  V30 8793 H 825.779 3.78305 1.85643 0
M  V30 8794 H 824.503 2.55346 2.03632 0
M  V30 8795 H 823.162 3.65979 0.213231 0
M  V30 8796 H 822.81 4.30338 2.60419 0
M  V30 8797 H 822.51 5.67821 1.51173 0
M  V30 8798 H 824.034 5.59702 2.44061 0
M  V30 8799 H 825.448 5.73039 0.173095 0
M  V30 8800 H 823.845 5.97291 -0.580006 0
M  V30 8801 H 824.915 4.69969 -1.19404 0
M  V30 8802 N 826.258 0.243083 1.55714 0
M  V30 8803 C 827.486 -0.386971 2.03249 0
M  V30 8804 C 827.901 -1.51812 1.12243 0
M  V30 8805 O 827.258 -1.81992 0.136119 0
M  V30 8806 C 827.309 -0.898361 3.5016 0
M  V30 8807 O 827.03 0.187708 4.37698 0
M  V30 8808 C 828.531 -1.59949 4.13438 0
M  V30 8809 H 825.751 -0.0923981 0.664608 0
M  V30 8810 H 828.295 0.365832 2.01201 0
M  V30 8811 H 826.45 -1.60136 3.52754 0
M  V30 8812 H 826.864 -0.200001 5.24119 0
M  V30 8813 H 828.338 -1.90907 5.17937 0
M  V30 8814 H 828.815 -2.52014 3.59702 0
M  V30 8815 H 829.421 -0.941163 4.14756 0
M  V30 8816 N 827.736 -1.57571 -0.0300757 0
M  V30 8817 C 828.984 -1.88852 -0.719666 0
M  V30 8818 C 829.305 -0.840645 -1.75949 0
M  V30 8819 O 828.575 0.125854 -1.95495 0
M  V30 8820 H 827.155 -0.696965 -0.268792 0
M  V30 8821 H 829.817 -1.949 0.00373285 0
M  V30 8822 H 828.913 -2.87695 -1.20987 0
M  V30 8823 N 829.214 0.302327 -1.54673 0
M  V30 8824 C 830.454 1.04568 -1.75627 0
M  V30 8825 C 830.818 1.84535 -0.530175 0
M  V30 8826 O 832.019 2.61613 -0.61743 0
M  V30 8827 C 830.29 1.92873 -3.0089 0
M  V30 8828 S 831.849 2.73872 -3.4284 0
M  V30 8829 H 828.667 0.352682 -0.617362 0
M  V30 8830 H 831.269 0.319239 -1.92876 0
M  V30 8831 H 829.973 1.32998 -3.88252 0
M  V30 8832 H 829.504 2.69887 -2.86225 0
M  V30 8833 H 831.519 3.95386 -2.99807 0
M  V30 8834 N 830.692 1.47107 0.565454 0
M  V30 8835 C 831.922 1.56681 1.34664 0
M  V30 8836 C 832.33 0.213011 1.87997 0
M  V30 8837 O 831.673 -0.802629 1.65238 0
M  V30 8838 C 831.735 2.52528 2.55871 0
M  V30 8839 C 831.399 3.98403 2.23883 0
M  V30 8840 C 832.396 4.87125 1.81673 0
M  V30 8841 C 830.081 4.43674 2.35496 0
M  V30 8842 C 832.075 6.19135 1.51494 0
M  V30 8843 C 829.762 5.75714 2.0493 0
M  V30 8844 C 830.76 6.63266 1.62996 0
M  V30 8845 O 830.448 7.92853 1.32813 0
M  V30 8846 H 830.18 0.531967 0.417117 0
M  V30 8847 H 832.734 1.93368 0.692669 0
M  V30 8848 H 830.964 2.10893 3.24131 0
M  V30 8849 H 832.653 2.5232 3.17945 0
M  V30 8850 H 833.419 4.534 1.72201 0
M  V30 8851 H 829.298 3.7574 2.67096 0
M  V30 8852 H 832.842 6.87429 1.1869 0
M  V30 8853 H 828.739 6.08983 2.14031 0
M  V30 8854 H 829.507 8.0528 1.46513 0
M  V30 8855 N 832.17 -0.811516 1.35101 0
M  V30 8856 C 833.447 -1.55491 1.18667 0
M  V30 8857 C 833.827 -2.09775 -0.236189 0
M  V30 8858 O 833.175 -1.91989 -1.23905 0
M  V30 8859 C 833.385 -2.66732 2.25067 0
M  V30 8860 C 834.733 -3.35201 2.60625 0
M  V30 8861 O 835.757 -2.76998 2.23943 0
M  V30 8862 O 834.616 -4.40334 3.23679 0
M  V30 8863 H 831.71 -0.686783 0.460716 0
M  V30 8864 H 834.256 -0.851903 1.46768 0
M  V30 8865 H 833.028 -2.24457 3.20523 0
M  V30 8866 H 832.651 -3.44673 1.98208 0
M  V30 8867 N 833.648 -1.19017 -1.03309 0
M  V30 8868 C 834.578 -0.94772 -2.13402 0
M  V30 8869 C 835.559 0.117383 -1.69694 0
M  V30 8870 O 836.744 -0.0367733 -1.94165 0
M  V30 8871 C 833.874 -0.480977 -3.43953 0
M  V30 8872 C 832.828 -1.48743 -4.01322 0
M  V30 8873 C 832.154 -0.877924 -5.27443 0
M  V30 8874 C 833.454 -2.86642 -4.36616 0
M  V30 8875 H 835.148 -1.86846 -2.33942 0
M  V30 8876 H 832.694 -0.899781 -1.12427 0
M  V30 8877 H 834.647 -0.298677 -4.2034 0
M  V30 8878 H 833.371 0.475348 -3.23122 0
M  V30 8879 H 832.03 -1.65681 -3.27025 0
M  V30 8880 H 831.678 0.0858232 -5.02927 0
M  V30 8881 H 831.378 -1.54996 -5.66789 0
M  V30 8882 H 832.902 -0.706326 -6.06501 0
M  V30 8883 H 834.316 -2.73312 -5.03958 0
M  V30 8884 H 832.713 -3.50599 -4.87032 0
M  V30 8885 H 833.783 -3.39617 -3.46105 0
M  V30 8886 N 835.127 1.22348 -0.993418 0
M  V30 8887 C 836.538 1.72893 -0.704616 0
M  V30 8888 C 836.889 1.80095 0.778483 0
M  V30 8889 O 836.014 1.4476 1.60853 0
M  V30 8890 C 836.609 3.14 -1.27237 0
M  V30 8891 C 835.168 3.61949 -1.03294 0
M  V30 8892 C 834.315 2.39816 -1.39225 0
M  V30 8893 H 837.266 1.07688 -1.16572 0
M  V30 8894 H 837.287 3.74886 -0.651212 0
M  V30 8895 H 836.799 3.08727 -2.3518 0
M  V30 8896 H 834.9 3.72588 0.0298329 0
M  V30 8897 H 835.013 4.48051 -1.69668 0
M  V30 8898 H 833.377 2.41448 -0.810849 0
M  V30 8899 H 834.16 2.37203 -2.48172 0
M  V30 8900 N 836.605 0.766683 1.37694 0
M  V30 8901 C 837.515 0.150158 2.34119 0
M  V30 8902 C 838.531 -0.685513 1.59927 0
M  V30 8903 O 839.707 -0.606616 1.92047 0
M  V30 8904 C 836.772 -0.722562 3.39087 0
M  V30 8905 C 835.833 0.128983 4.29106 0
M  V30 8906 C 835.066 -0.702178 5.29061 0
M  V30 8907 O 835.289 -1.93954 5.36412 0
M  V30 8908 O 834.223 -0.114056 6.01792 0
M  V30 8909 H 838.049 0.946829 2.88563 0
M  V30 8910 H 835.634 0.527765 1.39768 0
M  V30 8911 H 837.516 -1.22095 4.03325 0
M  V30 8912 H 836.191 -1.49751 2.86978 0
M  V30 8913 H 835.098 0.673612 3.67985 0
M  V30 8914 H 836.431 0.866892 4.84506 0
M  V30 8915 N 838.083 -1.48885 0.516809 0
M  V30 8916 C 839.36 -1.95412 -0.0858293 0
M  V30 8917 C 839.74 -1.45875 -1.5259 0
M  V30 8918 O 839.088 -0.679415 -2.18166 0
M  V30 8919 C 839.298 -3.48995 0.0178194 0
M  V30 8920 C 840.646 -4.24342 -0.14813 0
M  V30 8921 O 841.67 -3.56155 -0.0566125 0
M  V30 8922 O 840.529 -5.45454 -0.338035 0
M  V30 8923 H 837.623 -0.822455 -0.0865884 0
M  V30 8924 H 840.169 -1.59464 0.580472 0
M  V30 8925 H 838.941 -3.77732 1.02147 0
M  V30 8926 H 838.564 -3.91604 -0.687924 0
M  V30 8927 N 839.561 -0.251338 -1.55583 0
M  V30 8928 C 840.791 0.375642 -2.03156 0
M  V30 8929 C 841.199 1.51761 -1.12983 0
M  V30 8930 O 840.542 1.83184 -0.13757 0
M  V30 8931 C 840.604 0.941001 -3.46966 0
M  V30 8932 C 840.268 -0.0692886 -4.56947 0
M  V30 8933 C 841.265 -0.88041 -5.12391 0
M  V30 8934 C 838.95 -0.196661 -5.01915 0
M  V30 8935 C 840.944 -1.80532 -6.11299 0
M  V30 8936 C 838.631 -1.12507 -6.00654 0
M  V30 8937 C 839.629 -1.92792 -6.55225 0
M  V30 8938 O 839.317 -2.84067 -7.52038 0
M  V30 8939 H 839.049 0.0928836 -0.669588 0
M  V30 8940 H 841.603 -0.374115 -2.01964 0
M  V30 8941 H 839.833 1.7404 -3.45322 0
M  V30 8942 H 841.522 1.47853 -3.78014 0
M  V30 8943 H 842.288 -0.792615 -4.78479 0
M  V30 8944 H 838.167 0.418187 -4.59099 0
M  V30 8945 H 841.711 -2.43239 -6.5382 0
M  V30 8946 H 837.608 -1.21377 -6.33986 0
M  V30 8947 H 838.376 -2.78479 -7.6967 0
M  V30 8948 N 841.039 1.57585 0.0217189 0
M  V30 8949 C 842.288 1.88786 0.710125 0
M  V30 8950 C 842.601 0.850819 1.76126 0
M  V30 8951 O 843.807 1.0523 2.50277 0
M  V30 8952 C 842.263 3.3505 1.31413 0
M  V30 8953 C 841.871 4.47001 0.298959 0
M  V30 8954 C 843.615 3.7539 1.98199 0
M  V30 8955 C 841.522 5.8433 0.911727 0
M  V30 8956 H 840.452 0.704388 0.268986 0
M  V30 8957 H 843.103 1.83466 -0.0352638 0
M  V30 8958 H 841.485 3.35138 2.10947 0
M  V30 8959 H 842.659 4.58395 -0.470203 0
M  V30 8960 H 840.974 4.15542 -0.267222 0
M  V30 8961 H 843.571 4.75314 2.4491 0
M  V30 8962 H 843.914 3.07766 2.80331 0
M  V30 8963 H 844.447 3.77508 1.2543 0
M  V30 8964 H 841.186 6.55372 0.129659 0
M  V30 8965 H 840.706 5.76643 1.65056 0
M  V30 8966 H 842.385 6.31295 1.41688 0
M  V30 8967 N 842.517 -0.29412 1.54831 0
M  V30 8968 C 843.933 -0.640167 1.46199 0
M  V30 8969 C 844.133 -1.90426 0.658798 0
M  V30 8970 O 843.189 -2.51932 0.169228 0
M  V30 8971 C 844.502 -0.786763 2.90225 0
M  V30 8972 C 846.05 -0.882201 3.0031 0
M  V30 8973 C 846.525 -1.06074 4.45547 0
M  V30 8974 N 848.016 -1.12678 4.49286 0
M  V30 8975 C 848.751 -1.28334 5.58854 0
M  V30 8976 N 848.247 -1.40845 6.78332 0
M  V30 8977 N 850.04 -1.31277 5.46555 0
M  V30 8978 H 842.191 0.536334 2.05517 0
M  V30 8979 H 844.454 0.178363 0.93107 0
M  V30 8980 H 844.16 0.0713018 3.51628 0
M  V30 8981 H 844.034 -1.67364 3.38037 0
M  V30 8982 H 846.421 -1.73075 2.39017 0
M  V30 8983 H 846.502 0.0288405 2.55784 0
M  V30 8984 H 846.146 -0.216935 5.07437 0
M  V30 8985 H 846.076 -1.98611 4.8771 0
M  V30 8986 H 848.567 -1.04335 3.63212 0
M  V30 8987 H 848.88 -1.52566 7.57591 0
M  V30 8988 H 847.225 -1.37888 6.81184 0
M  V30 8989 H 850.416 -1.2112 4.52159 0
M  V30 8990 H 850.589 -1.43136 6.31994 0
M  V30 8991 N 843.995 -1.47404 -0.557645 0
M  V30 8992 C 845.241 -1.55219 -1.31449 0
M  V30 8993 C 845.596 -0.211457 -1.91234 0
M  V30 8994 O 844.889 0.782795 -1.7488 0
M  V30 8995 C 845.083 -2.6061 -2.44575 0
M  V30 8996 C 844.912 -4.048 -1.95875 0
M  V30 8997 C 843.682 -4.72252 -1.79738 0
M  V30 8998 C 845.88 -4.91833 -1.50348 0
M  V30 8999 N 843.862 -6.00962 -1.25372 0
M  V30 9000 C 845.233 -6.10566 -1.07745 0
M  V30 9001 C 847.288 -4.78279 -1.38396 0
M  V30 9002 C 845.991 -7.17242 -0.543767 0
M  V30 9003 C 848.017 -5.8505 -0.864293 0
M  V30 9004 C 847.379 -7.02973 -0.44818 0
M  V30 9005 H 843.478 -0.622694 -0.47305 0
M  V30 9006 H 846.062 -1.84152 -0.632144 0
M  V30 9007 H 844.233 -2.33545 -3.10341 0
M  V30 9008 H 845.965 -2.5827 -3.11574 0
M  V30 9009 H 842.72 -4.28153 -2.0244 0
M  V30 9010 H 843.144 -6.69532 -1.00278 0
M  V30 9011 H 847.786 -3.87477 -1.69179 0
M  V30 9012 H 845.504 -8.07791 -0.223563 0
M  V30 9013 H 849.09 -5.7661 -0.775371 0
M  V30 9014 H 847.97 -7.84183 -0.0522964 0
M  V30 9015 N 845.473 0.80434 -1.35529 0
M  V30 9016 C 846.383 1.94784 -1.30753 0
M  V30 9017 C 847.399 1.72703 -0.212071 0
M  V30 9018 O 848.575 1.96494 -0.441841 0
M  V30 9019 C 845.64 3.29406 -1.08133 0
M  V30 9020 C 844.701 3.64367 -2.27013 0
M  V30 9021 C 843.934 4.92566 -2.05463 0
M  V30 9022 O 844.157 5.61166 -1.02222 0
M  V30 9023 O 843.091 5.25838 -2.92879 0
M  V30 9024 H 846.917 2.01761 -2.26994 0
M  V30 9025 H 844.502 0.942448 -1.15924 0
M  V30 9026 H 846.384 4.09995 -0.973756 0
M  V30 9027 H 845.059 3.23355 -0.149444 0
M  V30 9028 H 843.966 2.84146 -2.43335 0
M  V30 9029 H 845.299 3.75125 -3.18656 0
M  V30 9030 N 846.951 1.19563 1.02676 0
M  V30 9031 C 848.228 0.908857 1.73203 0
M  V30 9032 C 848.608 -0.584928 2.02834 0
M  V30 9033 O 847.956 -1.54372 1.68469 0
M  V30 9034 C 848.166 1.77105 3.00724 0
M  V30 9035 C 849.514 2.00667 3.7419 0
M  V30 9036 O 850.538 1.74274 3.10656 0
M  V30 9037 O 849.397 2.4518 4.88415 0
M  V30 9038 H 846.491 0.338909 0.754367 0
M  V30 9039 H 849.037 1.30387 1.08616 0
M  V30 9040 H 847.809 2.78303 2.7507 0
M  V30 9041 H 847.432 1.37546 3.73051 0
M  V30 9042 N 848.429 -1.21819 0.999893 0
M  V30 9043 C 849.392 -2.22227 0.561044 0
M  V30 9044 C 850.392 -1.56722 -0.359858 0
M  V30 9045 O 851.582 -1.73546 -0.150848 0
M  V30 9046 C 848.714 -3.40409 -0.182987 0
M  V30 9047 H 849.907 -2.62567 1.44909 0
M  V30 9048 H 847.46 -1.34991 0.78785 0
M  V30 9049 H 848.195 -3.05551 -1.08671 0
M  V30 9050 H 847.98 -3.89171 0.47833 0
M  V30 9051 H 849.47 -4.14856 -0.477952 0
M  V30 9052 N 849.908 -0.773975 -1.37286 0
M  V30 9053 C 851.154 -0.348833 -2.00386 0
M  V30 9054 C 851.509 1.06347 -1.60337 0
M  V30 9055 O 850.802 1.72178 -0.840545 0
M  V30 9056 C 850.996 -0.432651 -3.54772 0
M  V30 9057 C 850.825 -1.85155 -4.09814 0
M  V30 9058 C 849.595 -2.47272 -4.40664 0
M  V30 9059 C 851.793 -2.8114 -4.30656 0
M  V30 9060 N 849.775 -3.80912 -4.81435 0
M  V30 9061 C 851.146 -3.99582 -4.74061 0
M  V30 9062 C 853.201 -2.78398 -4.12794 0
M  V30 9063 C 851.904 -5.1567 -5.01475 0
M  V30 9064 C 853.93 -3.9366 -4.41345 0
M  V30 9065 C 853.292 -5.10844 -4.84992 0
M  V30 9066 H 849.391 -0.174738 -0.762227 0
M  V30 9067 H 851.975 -1.00828 -1.66559 0
M  V30 9068 H 850.146 0.19663 -3.87902 0
M  V30 9069 H 851.878 0.0147601 -4.04697 0
M  V30 9070 H 848.633 -1.98872 -4.29822 0
M  V30 9071 H 849.057 -4.49628 -5.06126 0
M  V30 9072 H 853.699 -1.8897 -3.7822 0
M  V30 9073 H 851.417 -6.05696 -5.34938 0
M  V30 9074 H 855.003 -3.92882 -4.2911 0
M  V30 9075 H 853.883 -5.98553 -5.0666 0
M  V30 9076 N 851.386 1.48609 -0.524698 0
M  V30 9077 C 852.349 2.28041 0.230166 0
M  V30 9078 C 853.349 1.35065 0.872584 0
M  V30 9079 O 854.539 1.58007 0.73345 0
M  V30 9080 C 851.671 3.13778 1.33252 0
M  V30 9081 H 852.864 2.96239 -0.467161 0
M  V30 9082 H 850.417 1.53763 -0.280452 0
M  V30 9083 H 851.152 2.502 2.06327 0
M  V30 9084 H 850.937 3.82165 0.877058 0
M  V30 9085 H 852.427 3.7371 1.86362 0
M  V30 9086 N 852.864 0.259585 1.55447 0
M  V30 9087 C 854.113 -0.362163 1.98422 0
M  V30 9088 C 854.426 -1.58135 1.1512 0
M  V30 9089 O 855.632 -2.27506 1.48166 0
M  V30 9090 C 854.088 -0.695722 3.53111 0
M  V30 9091 C 853.696 0.502784 4.4517 0
M  V30 9092 C 855.44 -1.28096 4.04712 0
M  V30 9093 C 853.347 0.144674 5.91223 0
M  V30 9094 H 852.277 -0.139092 0.74106 0
M  V30 9095 H 854.928 0.361798 1.79898 0
M  V30 9096 H 853.31 -1.47816 3.67378 0
M  V30 9097 H 854.484 1.27994 4.42667 0
M  V30 9098 H 852.799 1.0038 4.0412 0
M  V30 9099 H 855.396 -1.56243 5.11363 0
M  V30 9100 H 855.739 -2.20969 3.52815 0
M  V30 9101 H 856.272 -0.561146 3.93822 0
M  V30 9102 H 853.011 1.04087 6.47183 0
M  V30 9103 H 852.531 -0.596023 5.96831 0
M  V30 9104 H 854.21 -0.268651 6.46442 0
M  V30 9105 N 854.342 -1.57594 -0.0133615 0
M  V30 9106 C 855.59 -1.89605 -0.699596 0
M  V30 9107 C 855.911 -0.85926 -1.75048 0
M  V30 9108 O 855.181 0.105112 -1.95618 0
M  V30 9109 H 853.761 -0.699776 -0.261385 0
M  V30 9110 H 856.423 -1.94885 0.0244044 0
M  V30 9111 H 855.519 -2.88962 -1.17928 0
M  V30 9112 N 855.82 0.285905 -1.54985 0
M  V30 9113 C 857.231 0.857869 -1.65824 0
M  V30 9114 C 857.582 1.87531 -0.576763 0
M  V30 9115 O 856.707 2.14528 0.284016 0
M  V30 9116 C 857.302 1.56277 -3.00604 0
M  V30 9117 C 855.861 2.08294 -3.13513 0
M  V30 9118 C 855.008 0.920633 -2.61571 0
M  V30 9119 H 857.959 0.0625463 -1.58577 0
M  V30 9120 H 857.98 2.42912 -2.92872 0
M  V30 9121 H 857.492 0.822017 -3.79295 0
M  V30 9122 H 855.593 2.8537 -2.39572 0
M  V30 9123 H 855.706 2.3071 -4.19892 0
M  V30 9124 H 854.07 1.31043 -2.18403 0
M  V30 9125 H 854.853 0.193594 -3.42754 0
M  V30 9126 N 857.298 1.47698 0.54982 0
M  V30 9127 C 858.544 1.54931 1.30859 0
M  V30 9128 C 858.877 0.214021 1.93017 0
M  V30 9129 O 858.152 -0.778093 1.78258 0
M  V30 9130 C 858.435 2.67286 2.41309 0
M  V30 9131 C 858.288 4.10457 1.83971 0
M  V30 9132 C 859.607 2.75509 3.43195 0
M  V30 9133 H 856.726 0.56399 0.474431 0
M  V30 9134 H 859.368 1.79787 0.614541 0
M  V30 9135 H 857.518 2.46224 3.0051 0
M  V30 9136 H 859.19 4.42903 1.28974 0
M  V30 9137 H 857.433 4.18387 1.14606 0
M  V30 9138 H 858.104 4.84857 2.63851 0
M  V30 9139 H 860.58 2.94531 2.93923 0
M  V30 9140 H 859.456 3.55886 4.17895 0
M  V30 9141 H 859.717 1.82863 4.02509 0
M  V30 9142 N 858.776 -0.797141 1.35954 0
M  V30 9143 C 860.004 -1.5858 1.32891 0
M  V30 9144 C 860.419 -1.88578 -0.0915564 0
M  V30 9145 O 859.776 -1.49532 -1.04625 0
M  V30 9146 C 859.827 -2.91143 2.14284 0
M  V30 9147 O 859.548 -2.62442 3.50793 0
M  V30 9148 C 861.049 -3.85476 2.18914 0
M  V30 9149 H 858.269 -0.492111 0.456144 0
M  V30 9150 H 860.813 -0.98994 1.78943 0
M  V30 9151 H 858.968 -3.47219 1.71807 0
M  V30 9152 H 859.382 -3.4715 3.93175 0
M  V30 9153 H 860.856 -4.75574 2.80238 0
M  V30 9154 H 861.333 -4.22758 1.19047 0
M  V30 9155 H 861.939 -3.35334 2.61593 0
M  V30 9156 N 860.254 -1.20106 -1.0204 0
M  V30 9157 C 861.503 -1.00316 -1.74985 0
M  V30 9158 C 861.816 0.465814 -1.89972 0
M  V30 9159 O 863.022 0.782749 -2.59972 0
M  V30 9160 C 861.478 -1.74608 -3.14706 0
M  V30 9161 C 861.086 -3.25573 -3.07744 0
M  V30 9162 C 862.83 -1.63172 -3.91887 0
M  V30 9163 C 860.737 -3.92419 -4.42449 0
M  V30 9164 H 859.667 -0.371728 -0.655999 0
M  V30 9165 H 862.318 -1.43688 -1.14131 0
M  V30 9166 H 860.7 -1.24021 -3.76078 0
M  V30 9167 H 861.874 -3.83345 -2.55702 0
M  V30 9168 H 860.189 -3.3738 -2.44057 0
M  V30 9169 H 862.786 -2.10457 -4.9154 0
M  V30 9170 H 863.129 -0.58728 -4.12137 0
M  V30 9171 H 863.662 -2.11152 -3.37135 0
M  V30 9172 H 860.401 -4.96998 -4.27403 0
M  V30 9173 H 859.921 -3.39436 -4.94513 0
M  V30 9174 H 861.6 -3.96453 -5.11306 0
M  V30 9175 N 861.732 1.21287 -1.00634 0
M  V30 9176 C 862.695 2.21927 -0.572821 0
M  V30 9177 C 863.695 1.5691 0.351541 0
M  V30 9178 O 864.885 1.73623 0.141643 0
M  V30 9179 C 862.017 3.40501 0.164932 0
M  V30 9180 H 863.21 2.61795 -1.463 0
M  V30 9181 H 860.763 1.34571 -0.794998 0
M  V30 9182 H 861.498 3.06123 1.07049 0
M  V30 9183 H 861.283 3.88912 -0.498962 0
M  V30 9184 H 862.773 4.15103 0.455945 0
M  V30 9185 N 863.21 0.781244 1.36873 0
M  V30 9186 C 864.45 0.355185 2.0129 0
M  V30 9187 C 864.814 -1.05115 1.6067 0
M  V30 9188 O 866.015 -1.57785 2.17618 0
M  V30 9189 C 864.286 0.504587 3.5382 0
M  V30 9190 S 865.845 0.165196 4.38489 0
M  V30 9191 H 862.663 0.136133 0.697846 0
M  V30 9192 H 865.265 1.01794 1.66908 0
M  V30 9193 H 863.969 1.52857 3.80871 0
M  V30 9194 H 863.5 -0.174392 3.93013 0
M  V30 9195 H 865.515 -1.03605 4.85263 0
M  V30 9196 N 864.689 -1.48329 0.532571 0
M  V30 9197 C 865.619 -2.32485 -0.217511 0
M  V30 9198 C 866.6 -1.42255 -0.932598 0
M  V30 9199 O 867.785 -1.7114 -0.917873 0
M  V30 9200 C 864.915 -3.23509 -1.26329 0
M  V30 9201 C 863.869 -4.22784 -0.666191 0
M  V30 9202 C 863.195 -5.0296 -1.81482 0
M  V30 9203 C 864.495 -5.21031 0.363813 0
M  V30 9204 H 866.189 -2.95445 0.485014 0
M  V30 9205 H 863.735 -1.42075 0.234694 0
M  V30 9206 H 865.688 -3.81211 -1.79601 0
M  V30 9207 H 864.412 -2.58554 -1.99543 0
M  V30 9208 H 863.071 -3.66272 -0.15498 0
M  V30 9209 H 862.719 -4.34427 -2.5354 0
M  V30 9210 H 862.419 -5.70154 -1.4212 0
M  V30 9211 H 863.943 -5.63514 -2.35126 0
M  V30 9212 H 865.357 -5.73241 -0.0819079 0
M  V30 9213 H 863.754 -5.96292 0.674956 0
M  V30 9214 H 864.824 -4.6801 1.26865 0
M  V30 9215 N 866.167 -0.267825 -1.55308 0
M  V30 9216 C 867.415 0.350343 -1.9904 0
M  V30 9217 C 867.736 1.56924 -1.15758 0
M  V30 9218 O 867.006 1.94358 -0.245336 0
M  V30 9219 H 865.586 0.132435 -0.735167 0
M  V30 9220 H 868.248 -0.371471 -1.91327 0
M  V30 9221 H 867.344 0.645203 -3.05358 0
M  V30 9222 N 867.645 1.57599 0.00500368 0
M  V30 9223 C 868.892 1.90349 0.690895 0
M  V30 9224 C 869.22 0.868045 1.74055 0
M  V30 9225 O 868.475 -0.127855 1.95282 0
M  V30 9226 C 868.774 3.29855 1.37588 0
M  V30 9227 C 868.44 4.48548 0.459906 0
M  V30 9228 C 867.102 4.80752 0.207693 0
M  V30 9229 C 869.454 5.20919 -0.171054 0
M  V30 9230 C 866.782 5.82701 -0.683855 0
M  V30 9231 C 869.134 6.23818 -1.05045 0
M  V30 9232 C 867.798 6.54481 -1.31189 0
M  V30 9233 H 867.068 0.696538 0.252816 0
M  V30 9234 H 869.715 1.91436 -0.0494495 0
M  V30 9235 H 868.02 3.24869 2.19015 0
M  V30 9236 H 869.717 3.52452 1.91255 0
M  V30 9237 H 866.307 4.23384 0.666648 0
M  V30 9238 H 870.491 4.96299 0.0107942 0
M  V30 9239 H 865.747 6.04822 -0.894467 0
M  V30 9240 H 869.921 6.79029 -1.54574 0
M  V30 9241 H 867.548 7.33299 -2.00442 0
M  V30 9242 N 869.123 -0.277682 1.55134 0
M  V30 9243 C 870.056 -1.3685 1.82612 0
M  V30 9244 C 871.034 -1.47752 0.678833 0
M  V30 9245 O 872.218 -1.6445 0.921329 0
M  V30 9246 C 869.345 -2.74539 1.98359 0
M  V30 9247 C 868.391 -2.80945 3.20893 0
M  V30 9248 S 869.224 -2.40666 4.78373 0
M  V30 9249 C 870.38 -3.80338 4.97085 0
M  V30 9250 H 870.613 -1.13338 2.74849 0
M  V30 9251 H 868.146 -0.477063 1.46845 0
M  V30 9252 H 870.104 -3.53834 2.08115 0
M  V30 9253 H 868.765 -2.95306 1.07019 0
M  V30 9254 H 867.958 -3.81992 3.28783 0
M  V30 9255 H 867.56 -2.09667 3.09703 0
M  V30 9256 H 869.852 -4.75565 4.8254 0
M  V30 9257 H 870.795 -3.77403 5.99143 0
M  V30 9258 H 871.203 -3.71424 4.25094 0
M  V30 9259 N 870.601 -1.47988 -0.541979 0
M  V30 9260 C 871.841 -1.56982 -1.30905 0
M  V30 9261 C 872.205 -0.233153 -1.90579 0
M  V30 9262 O 873.406 -0.198018 -2.6807 0
M  V30 9263 C 871.677 -2.66787 -2.37823 0
M  V30 9264 S 873.236 -2.95467 -3.24414 0
M  V30 9265 H 870.054 -0.554165 -0.445446 0
M  V30 9266 H 872.656 -1.85448 -0.618803 0
M  V30 9267 H 871.36 -3.62483 -1.92443 0
M  V30 9268 H 870.891 -2.40184 -3.11569 0
M  V30 9269 H 872.906 -2.33846 -4.37642 0
M  V30 9270 N 872.079 0.78992 -1.36375 0
M  V30 9271 C 873.307 1.57873 -1.3373 0
M  V30 9272 C 873.722 1.88624 0.0815544 0
M  V30 9273 O 873.079 1.50085 1.03831 0
M  V30 9274 C 873.13 2.90003 -2.15825 0
M  V30 9275 O 872.851 2.60578 -3.5218 0
M  V30 9276 C 874.352 3.84309 -2.20955 0
M  V30 9277 H 871.572 0.489685 -0.458748 0
M  V30 9278 H 874.116 0.980436 -1.79465 0
M  V30 9279 H 872.271 3.46303 -1.73646 0
M  V30 9280 H 872.685 3.4506 -3.95011 0
M  V30 9281 H 874.159 4.74081 -2.82756 0
M  V30 9282 H 874.636 4.22121 -1.21287 0
M  V30 9283 H 875.242 3.33942 -2.63368 0
M  V30 9284 N 873.557 1.20646 1.01402 0
M  V30 9285 C 874.797 1.02951 1.7658 0
M  V30 9286 C 875.161 -0.430522 1.87111 0
M  V30 9287 O 876.362 -0.727727 2.58762 0
M  V30 9288 C 874.633 1.69728 3.14527 0
M  V30 9289 S 876.192 1.6717 4.05709 0
M  V30 9290 H 873.01 0.36911 0.607683 0
M  V30 9291 H 875.612 1.53243 1.21395 0
M  V30 9292 H 874.316 2.75162 3.0449 0
M  V30 9293 H 873.847 1.19578 3.74786 0
M  V30 9294 H 875.862 0.706397 4.91146 0
M  V30 9295 N 875.035 -1.20752 1.01276 0
M  V30 9296 C 875.968 -2.22091 0.524472 0
M  V30 9297 C 876.946 -1.5692 -0.426017 0
M  V30 9298 O 878.13 -1.8528 -0.346919 0
M  V30 9299 C 875.257 -3.37868 -0.237224 0
M  V30 9300 C 874.303 -4.21327 0.662236 0
M  V30 9301 S 875.136 -4.91352 2.12916 0
M  V30 9302 C 876.292 -6.10553 1.37752 0
M  V30 9303 H 876.525 -2.63166 1.38315 0
M  V30 9304 H 874.058 -1.30742 0.821332 0
M  V30 9305 H 876.016 -4.04985 -0.670599 0
M  V30 9306 H 874.677 -2.95261 -1.07143 0
M  V30 9307 H 873.87 -5.03944 0.0751085 0
M  V30 9308 H 873.472 -3.59445 1.03322 0
M  V30 9309 H 875.764 -6.74322 0.655491 0
M  V30 9310 H 876.707 -6.73717 2.17969 0
M  V30 9311 H 877.115 -5.57566 0.882088 0
M  V30 9312 N 876.513 -0.788492 -1.36457 0
M  V30 9313 C 877.759 -0.360995 -1.99561 0
M  V30 9314 C 878.092 1.06433 -1.62437 0
M  V30 9315 O 877.367 1.7352 -0.878705 0
M  V30 9316 C 877.65 -0.523735 -3.56271 0
M  V30 9317 C 877.503 -1.99268 -4.03252 0
M  V30 9318 C 878.822 0.0617908 -4.40057 0
M  V30 9319 H 875.941 -0.13264 -0.724966 0
M  V30 9320 H 878.583 -0.994659 -1.61884 0
M  V30 9321 H 876.733 0.0156979 -3.88497 0
M  V30 9322 H 878.405 -2.59311 -3.81518 0
M  V30 9323 H 876.648 -2.49561 -3.54826 0
M  V30 9324 H 877.319 -2.05752 -5.12221 0
M  V30 9325 H 879.795 -0.398674 -4.14186 0
M  V30 9326 H 878.671 -0.0821089 -5.48839 0
M  V30 9327 H 878.932 1.15381 -4.26778 0
M  V30 9328 N 877.991 1.48044 -0.54043 0
M  V30 9329 C 879.237 2.02797 -0.0101718 0
M  V30 9330 C 879.57 1.41565 1.32939 0
M  V30 9331 O 878.845 0.565139 1.86109 0
M  V30 9332 C 879.128 3.59959 0.100758 0
M  V30 9333 C 878.981 4.31654 -1.26471 0
M  V30 9334 C 880.3 4.32347 0.822455 0
M  V30 9335 H 877.419 0.736982 -0.00517052 0
M  V30 9336 H 880.061 1.76656 -0.69948 0
M  V30 9337 H 878.211 3.82363 0.687824 0
M  V30 9338 H 879.883 4.20639 -1.89369 0
M  V30 9339 H 878.126 3.92663 -1.84386 0
M  V30 9340 H 878.797 5.401 -1.13998 0
M  V30 9341 H 881.273 4.14835 0.324164 0
M  V30 9342 H 880.149 5.41978 0.868993 0
M  V30 9343 H 880.41 4.00369 1.87501 0
M  V30 9344 N 879.47 0.276058 1.55163 0
M  V30 9345 C 880.698 -0.343772 2.04024 0
M  V30 9346 C 881.113 -1.49397 1.15438 0
M  V30 9347 O 880.47 -1.81662 0.174692 0
M  V30 9348 C 880.521 -0.823885 3.51986 0
M  V30 9349 O 880.242 0.280507 4.37201 0
M  V30 9350 C 881.743 -1.51143 4.16738 0
M  V30 9351 H 878.963 -0.07828 0.666418 0
M  V30 9352 H 881.507 0.408427 2.0038 0
M  V30 9353 H 879.662 -1.52617 3.56071 0
M  V30 9354 H 880.076 -0.0887831 5.24425 0
M  V30 9355 H 881.55 -1.79878 5.2187 0
M  V30 9356 H 882.027 -2.44327 3.64967 0
M  V30 9357 H 882.633 -0.852975 4.16659 0
M  V30 9358 N 880.948 -1.576 0.00335426 0
M  V30 9359 C 882.194 -1.90996 -0.681799 0
M  V30 9360 C 882.527 -0.877643 -1.73237 0
M  V30 9361 O 881.802 0.103183 -1.94226 0
M  V30 9362 C 882.085 -3.34961 -1.32187 0
M  V30 9363 C 881.938 -4.48911 -0.28261 0
M  V30 9364 C 883.257 -3.78408 -2.24711 0
M  V30 9365 H 880.376 -0.694596 -0.246386 0
M  V30 9366 H 883.018 -1.89919 0.055336 0
M  V30 9367 H 881.168 -3.36008 -1.95014 0
M  V30 9368 H 882.84 -4.59999 0.346241 0
M  V30 9369 H 881.083 -4.32 0.394768 0
M  V30 9370 H 881.754 -5.46609 -0.769576 0
M  V30 9371 H 884.23 -3.78934 -1.71897 0
M  V30 9372 H 883.106 -4.79885 -2.66461 0
M  V30 9373 H 883.367 -3.12464 -3.1276 0
M  V30 9374 N 882.426 0.269451 -1.5528 0
M  V30 9375 C 883.673 1.00058 -1.76053 0
M  V30 9376 C 884.001 1.86156 -0.563592 0
M  V30 9377 O 883.256 1.90366 0.453806 0
M  V30 9378 C 883.555 1.91 -3.02082 0
M  V30 9379 C 883.221 1.20623 -4.34466 0
M  V30 9380 C 881.883 1.01165 -4.70446 0
M  V30 9381 C 884.235 0.705695 -5.164 0
M  V30 9382 C 881.563 0.303865 -5.85913 0
M  V30 9383 C 883.915 0.0114838 -6.32599 0
M  V30 9384 C 882.579 -0.19478 -6.67216 0
M  V30 9385 H 881.849 0.366138 -0.644223 0
M  V30 9386 H 884.496 0.272563 -1.8955 0
M  V30 9387 H 882.801 2.70435 -2.835 0
M  V30 9388 H 884.498 2.47698 -3.15352 0
M  V30 9389 H 881.088 1.36781 -4.06188 0
M  V30 9390 H 885.272 0.84364 -4.89077 0
M  V30 9391 H 880.528 0.133368 -6.11255 0
M  V30 9392 H 884.702 -0.384111 -6.9534 0
M  V30 9393 H 882.329 -0.745201 -7.56539 0
M  V30 9394 N 883.904 1.48273 0.534124 0
M  V30 9395 C 885.153 1.55334 1.28663 0
M  V30 9396 C 885.466 0.230345 1.94239 0
M  V30 9397 O 886.672 0.179161 2.70908 0
M  V30 9398 C 885.128 2.73927 2.33435 0
M  V30 9399 C 884.736 4.12852 1.73947 0
M  V30 9400 C 886.48 2.90298 3.09722 0
M  V30 9401 C 884.387 5.22711 2.76636 0
M  V30 9402 H 883.317 0.578262 0.483869 0
M  V30 9403 H 885.968 1.74598 0.564602 0
M  V30 9404 H 884.35 2.48089 3.08655 0
M  V30 9405 H 885.524 4.48691 1.04944 0
M  V30 9406 H 883.839 4.01562 1.10167 0
M  V30 9407 H 886.436 3.69542 3.86449 0
M  V30 9408 H 886.779 1.99598 3.6533 0
M  V30 9409 H 887.312 3.16017 2.41616 0
M  V30 9410 H 884.051 6.15362 2.25852 0
M  V30 9411 H 883.571 4.91364 3.43979 0
M  V30 9412 H 885.25 5.50648 3.39699 0
M  V30 9413 N 885.382 -0.782676 1.36792 0
M  V30 9414 C 886.329 -1.89558 1.31667 0
M  V30 9415 C 887.299 -1.65076 0.184147 0
M  V30 9416 O 888.484 -1.87143 0.371753 0
M  V30 9417 C 885.624 -3.26469 1.11858 0
M  V30 9418 C 884.737 -3.62978 2.34245 0
M  V30 9419 C 883.872 -4.89041 2.07394 0
M  V30 9420 C 882.911 -5.18249 3.25706 0
M  V30 9421 N 882.048 -6.35497 2.98476 0
M  V30 9422 H 886.888 -1.93274 2.26824 0
M  V30 9423 H 884.425 -0.945057 1.12726 0
M  V30 9424 H 886.383 -4.05431 0.983968 0
M  V30 9425 H 885.013 -3.22158 0.203531 0
M  V30 9426 H 884.065 -2.79087 2.58485 0
M  V30 9427 H 885.377 -3.80507 3.22514 0
M  V30 9428 H 884.531 -5.75883 1.90901 0
M  V30 9429 H 883.27 -4.73594 1.16446 0
M  V30 9430 H 882.275 -4.29887 3.4275 0
M  V30 9431 H 883.5 -5.35611 4.1749 0
M  V30 9432 H 881.446 -6.21429 2.10146 0
M  V30 9433 H 881.363 -6.5339 3.80286 0
M  V30 9434 H 882.631 -7.25304 2.85577 0
M  V30 9435 N 886.86 -1.21182 -1.00761 0
M  V30 9436 C 887.81 -0.936247 -2.0789 0
M  V30 9437 C 888.794 0.107482 -1.60541 0
M  V30 9438 O 889.986 -0.1011 -1.76711 0
M  V30 9439 C 887.115 -0.499949 -3.3964 0
M  V30 9440 C 886.201 -1.5776 -3.93666 0
M  V30 9441 N 886.592 -2.80208 -4.2109 0
M  V30 9442 C 884.89 -1.44586 -4.21913 0
M  V30 9443 C 885.591 -3.49787 -4.64784 0
M  V30 9444 N 884.567 -2.7722 -4.676 0
M  V30 9445 H 888.369 -1.86659 -2.27015 0
M  V30 9446 H 885.883 -1.10716 -1.1881 0
M  V30 9447 H 887.88 -0.283897 -4.15932 0
M  V30 9448 H 886.54 0.423659 -3.21924 0
M  V30 9449 H 887.551 -3.16776 -4.09724 0
M  V30 9450 H 884.228 -0.587346 -4.13348 0
M  V30 9451 H 885.618 -4.54615 -4.94747 0
M  V30 9452 N 888.338 1.20213 -1.01915 0
M  V30 9453 C 889.286 2.25125 -0.584936 0
M  V30 9454 C 890.28 1.65138 0.377602 0
M  V30 9455 O 891.486 1.78294 0.247245 0
M  V30 9456 H 887.861 0.732333 -0.170858 0
M  V30 9457 H 889.832 2.59075 -1.48063 0
M  V30 9458 C 888.581 3.47651 0.058389 0
M  V30 9459 H 887.904 3.9409 -0.673263 0
M  V30 9460 H 889.344 4.2275 0.325285 0
M  V30 9461 C 887.803 3.10725 1.30199 0
M  V30 9462 O 888.333 3.22491 2.39505 0
M  V30 9463 N 886.539 2.6525 1.18706 0
M  V30 9464 H 886.086 2.55875 0.297618 0
M  V30 9465 H 886.044 2.40913 2.02011 0
M  V30 9466 N 889.816 0.795718 1.36037 0
M  V30 9467 C 890.764 0.18649 2.31851 0
M  V30 9468 C 891.758 -0.657704 1.56111 0
M  V30 9469 O 892.964 -0.552083 1.71324 0
M  V30 9470 H 889.339 0.0415363 0.750852 0
M  V30 9471 H 891.31 1.00992 2.8079 0
M  V30 9472 C 890.059 -0.65918 3.41394 0
M  V30 9473 H 889.382 -0.01894 3.99796 0
M  V30 9474 H 890.822 -1.05202 4.10741 0
M  V30 9475 C 889.281 -1.82011 2.83502 0
M  V30 9476 O 889.811 -2.91703 2.76174 0
M  V30 9477 N 888.017 -1.62821 2.40703 0
M  V30 9478 H 887.564 -0.735965 2.46863 0
M  V30 9479 H 887.522 -2.40657 2.02316 0
M  V30 9480 N 891.294 -1.47756 0.548274 0
M  V30 9481 C 892.522 -2.06884 0.0254873 0
M  V30 9482 C 892.937 -1.40225 -1.26422 0
M  V30 9483 O 892.294 -0.495776 -1.75637 0
M  V30 9484 C 892.345 -3.61036 -0.183134 0
M  V30 9485 O 892.066 -4.25195 1.05549 0
M  V30 9486 C 893.567 -4.37008 -0.744222 0
M  V30 9487 H 890.787 -0.669697 0.041789 0
M  V30 9488 H 893.331 -1.89888 0.759138 0
M  V30 9489 H 891.486 -3.77576 -0.866886 0
M  V30 9490 H 891.9 -5.17606 0.847629 0
M  V30 9491 H 893.374 -5.45579 -0.839529 0
M  V30 9492 H 893.851 -4.0268 -1.75344 0
M  V30 9493 H 894.457 -4.25191 -0.0964542 0
M  V30 9494 N 892.772 -0.284283 -1.55015 0
M  V30 9495 C 894.183 0.211681 -1.85496 0
M  V30 9496 C 894.534 1.54735 -1.2063 0
M  V30 9497 O 893.659 2.10594 -0.497918 0
M  V30 9498 C 894.254 0.390864 -3.36538 0
M  V30 9499 C 892.813 0.831055 -3.67111 0
M  V30 9500 C 891.96 -0.0703581 -2.77211 0
M  V30 9501 H 894.911 -0.505803 -1.50424 0
M  V30 9502 H 894.932 1.22803 -3.60138 0
M  V30 9503 H 894.444 -0.581409 -3.8372 0
M  V30 9504 H 892.545 1.81447 -3.25434 0
M  V30 9505 H 892.658 0.662026 -4.74504 0
M  V30 9506 H 891.022 0.447528 -2.50737 0
M  V30 9507 H 891.805 -1.03868 -3.2721 0
M  V30 9508 N 894.251 1.57596 -0.0117121 0
M  V30 9509 C 895.181 2.12188 0.9746 0
M  V30 9510 C 896.162 1.03379 1.35081 0
M  V30 9511 O 897.347 1.31123 1.4325 0
M  V30 9512 C 894.477 2.63477 2.26268 0
M  V30 9513 C 893.431 3.76917 2.02774 0
M  V30 9514 C 892.757 4.14566 3.37697 0
M  V30 9515 C 894.057 5.03715 1.38089 0
M  V30 9516 H 895.751 2.9485 0.520007 0
M  V30 9517 H 893.297 1.41836 0.248685 0
M  V30 9518 H 895.25 3.00299 2.95633 0
M  V30 9519 H 893.974 1.77953 2.73862 0
M  V30 9520 H 892.633 3.40507 1.35832 0
M  V30 9521 H 892.281 3.26048 3.83016 0
M  V30 9522 H 891.981 4.91 3.22789 0
M  V30 9523 H 893.505 4.53956 4.08358 0
M  V30 9524 H 894.919 5.38233 1.97428 0
M  V30 9525 H 893.316 5.85032 1.33634 0
M  V30 9526 H 894.386 4.83624 0.351575 0
M  V30 9527 N 895.729 -0.261212 1.5542 0
M  V30 9528 C 896.975 -0.992699 1.76843 0
M  V30 9529 C 897.308 -1.8551 0.574428 0
M  V30 9530 O 896.583 -1.89739 -0.427713 0
M  V30 9531 C 896.866 -1.86532 3.08022 0
M  V30 9532 C 896.719 -1.03206 4.378 0
M  V30 9533 C 898.038 -2.85036 3.35324 0
M  V30 9534 H 895.157 -0.359473 0.643388 0
M  V30 9535 H 897.799 -0.264214 1.88154 0
M  V30 9536 H 895.949 -2.48644 2.9851 0
M  V30 9537 H 897.621 -0.430743 4.59285 0
M  V30 9538 H 895.864 -0.335911 4.32497 0
M  V30 9539 H 896.535 -1.6761 5.25938 0
M  V30 9540 H 899.011 -2.3306 3.44706 0
M  V30 9541 H 897.887 -3.43226 4.28354 0
M  V30 9542 H 898.148 -3.60768 2.55537 0
M  V30 9543 N 897.207 -1.48554 -0.526253 0
M  V30 9544 C 898.154 -1.63354 -1.63046 0
M  V30 9545 C 899.124 -0.475509 -1.59148 0
M  V30 9546 O 900.309 -0.699453 -1.77517 0
M  V30 9547 C 897.449 -1.68271 -3.01295 0
M  V30 9548 C 896.562 -2.95207 -3.15399 0
M  V30 9549 C 895.697 -2.91262 -4.4423 0
M  V30 9550 C 894.736 -4.12886 -4.51876 0
M  V30 9551 N 893.873 -4.06996 -5.721 0
M  V30 9552 H 898.713 -2.57649 -1.49737 0
M  V30 9553 H 896.25 -1.27769 -0.728938 0
M  V30 9554 H 898.208 -1.69104 -3.81392 0
M  V30 9555 H 896.838 -0.774641 -3.13367 0
M  V30 9556 H 895.89 -3.04102 -2.2853 0
M  V30 9557 H 897.202 -3.85187 -3.1691 0
M  V30 9558 H 896.356 -2.90516 -5.32621 0
M  V30 9559 H 895.095 -1.99016 -4.45246 0
M  V30 9560 H 894.1 -4.13902 -3.61891 0
M  V30 9561 H 895.325 -5.06294 -4.52596 0
M  V30 9562 H 893.271 -3.17573 -5.74006 0
M  V30 9563 H 893.188 -4.90685 -5.75121 0
M  V30 9564 H 894.456 -4.10315 -6.62768 0
M  V30 9565 N 898.685 0.775411 -1.37205 0
M  V30 9566 C 899.648 1.8702 -1.325 0
M  V30 9567 C 900.648 1.5915 -0.229793 0
M  V30 9568 O 901.838 1.673 -0.485423 0
M  V30 9569 C 898.97 3.24085 -1.05745 0
M  V30 9570 H 900.163 1.92604 -2.29878 0
M  V30 9571 H 897.716 0.97476 -1.22181 0
M  V30 9572 H 898.451 3.24178 -0.0888371 0
M  V30 9573 H 898.236 3.45705 -1.85016 0
M  V30 9574 H 899.726 4.0416 -1.05094 0
M  V30 9575 N 900.163 1.21714 1.00117 0
M  V30 9576 C 901.388 1.06357 1.78054 0
M  V30 9577 C 901.813 -0.382075 1.84179 0
M  V30 9578 O 901.171 -1.27575 1.28819 0
M  V30 9579 C 901.219 1.66982 3.19608 0
M  V30 9580 O 900.323 0.917892 4.02055 0
M  V30 9581 H 899.664 0.374074 0.548602 0
M  V30 9582 H 902.194 1.61338 1.25822 0
M  V30 9583 H 902.204 1.71363 3.70268 0
M  V30 9584 H 900.879 2.72185 3.14465 0
M  V30 9585 H 899.456 0.949473 3.6061 0
M  V30 9586 N 901.641 -1.19671 1.02551 0
M  V30 9587 C 902.889 -1.88894 0.71858 0
M  V30 9588 C 903.21 -1.79797 -0.754856 0
M  V30 9589 O 902.48 -1.20621 -1.54362 0
M  V30 9590 H 901.06 -0.699244 0.262806 0
M  V30 9591 H 903.722 -1.45298 1.29902 0
M  V30 9592 H 902.818 -2.95309 1.00989 0
M  V30 9593 N 903.119 -0.802921 -1.35613 0
M  V30 9594 C 904.535 -0.486214 -1.52014 0
M  V30 9595 C 904.735 0.993219 -1.75321 0
M  V30 9596 O 903.791 1.77835 -1.79251 0
M  V30 9597 C 905.104 -1.32839 -2.69767 0
M  V30 9598 C 906.652 -1.32346 -2.83643 0
M  V30 9599 C 907.127 -2.14967 -4.04417 0
M  V30 9600 N 908.618 -2.12484 -4.11588 0
M  V30 9601 C 909.353 -2.73173 -5.04147 0
M  V30 9602 N 908.849 -3.42774 -6.02061 0
M  V30 9603 N 910.642 -2.62834 -4.96865 0
M  V30 9604 H 902.793 -1.76109 -1.18741 0
M  V30 9605 H 905.056 -0.74936 -0.580658 0
M  V30 9606 H 904.762 -2.37813 -2.5911 0
M  V30 9607 H 904.636 -0.979058 -3.64272 0
M  V30 9608 H 907.023 -0.281586 -2.93753 0
M  V30 9609 H 907.104 -1.71264 -1.90006 0
M  V30 9610 H 906.748 -3.19193 -3.95068 0
M  V30 9611 H 906.678 -1.73411 -4.97228 0
M  V30 9612 H 909.169 -1.61839 -3.41492 0
M  V30 9613 H 909.482 -3.86378 -6.69277 0
M  V30 9614 H 907.827 -3.46878 -6.02246 0
M  V30 9615 H 911.018 -2.08049 -4.19325 0
M  V30 9616 H 911.191 -3.10421 -5.68808 0
M  V30 9617 N 904.597 1.47463 -0.556102 0
M  V30 9618 C 905.507 2.33785 0.195378 0
M  V30 9619 C 906.523 1.48123 0.913 0
M  V30 9620 O 907.699 1.81053 0.882141 0
M  V30 9621 C 904.764 3.24795 1.21282 0
M  V30 9622 C 903.825 4.26346 0.502747 0
M  V30 9623 C 903.058 5.13007 1.47172 0
M  V30 9624 O 903.281 5.02103 2.70646 0
M  V30 9625 O 902.215 5.93588 0.996814 0
M  V30 9626 H 906.041 2.99341 -0.512676 0
M  V30 9627 H 903.626 1.46004 -0.31673 0
M  V30 9628 H 905.508 3.81015 1.80016 0
M  V30 9629 H 904.183 2.61868 1.90282 0
M  V30 9630 H 903.09 3.73889 -0.125757 0
M  V30 9631 H 904.423 4.91984 -0.145779 0
M  V30 9632 N 906.075 0.2925 1.54862 0
M  V30 9633 C 907.005 -0.580677 2.26165 0
M  V30 9634 C 907.986 -1.14485 1.25806 0
M  V30 9635 O 909.171 -1.17577 1.54562 0
M  V30 9636 C 906.301 -1.75668 2.99596 0
M  V30 9637 C 905.255 -1.32325 4.07031 0
M  V30 9638 C 904.581 -2.58374 4.68131 0
M  V30 9639 C 905.881 -0.460703 5.20264 0
M  V30 9640 H 907.575 0.0140075 2.99397 0
M  V30 9641 H 905.121 0.00817706 1.43998 0
M  V30 9642 H 907.074 -2.37356 3.48195 0
M  V30 9643 H 905.798 -2.37747 2.23928 0
M  V30 9644 H 904.457 -0.729477 3.59269 0
M  V30 9645 H 904.105 -3.18749 3.89112 0
M  V30 9646 H 903.805 -2.30078 5.40683 0
M  V30 9647 H 905.329 -3.2088 5.19489 0
M  V30 9648 H 906.743 -0.983037 5.64809 0
M  V30 9649 H 905.14 -0.271881 5.99484 0
M  V30 9650 H 906.21 0.516304 4.82143 0
M  V30 9651 N 907.553 -1.57587 0.0200696 0
M  V30 9652 C 908.793 -1.93287 -0.66479 0
M  V30 9653 C 909.157 -0.896022 -1.6981 0
M  V30 9654 O 910.358 -1.13892 -2.43479 0
M  V30 9655 C 908.629 -3.33949 -1.27328 0
M  V30 9656 S 910.188 -3.91564 -1.98047 0
M  V30 9657 H 907.006 -0.676397 -0.219106 0
M  V30 9658 H 909.608 -1.9533 0.081568 0
M  V30 9659 H 908.312 -4.07235 -0.508673 0
M  V30 9660 H 907.843 -3.35329 -2.05714 0
M  V30 9661 H 909.858 -3.74265 -3.25791 0
M  V30 9662 N 909.032 0.252966 -1.55557 0
M  V30 9663 C 910.262 0.998115 -1.8089 0
M  V30 9664 C 910.67 1.79679 -0.592623 0
M  V30 9665 O 910.013 1.78151 0.448093 0
M  V30 9666 C 910.075 1.98878 -2.99479 0
M  V30 9667 C 909.739 1.37761 -4.35742 0
M  V30 9668 C 910.736 0.783142 -5.13968 0
M  V30 9669 C 908.421 1.39879 -4.8243 0
M  V30 9670 C 910.415 0.218004 -6.37027 0
M  V30 9671 C 908.102 0.829801 -6.0544 0
M  V30 9672 C 909.1 0.240426 -6.82577 0
M  V30 9673 O 908.788 -0.319797 -8.03264 0
M  V30 9674 H 908.52 0.29963 -0.605969 0
M  V30 9675 H 911.074 0.282978 -2.03441 0
M  V30 9676 H 909.304 2.74206 -2.72669 0
M  V30 9677 H 910.993 2.59686 -3.11959 0
M  V30 9678 H 911.759 0.759326 -4.79019 0
M  V30 9679 H 907.638 1.84692 -4.22386 0
M  V30 9680 H 911.182 -0.242654 -6.97178 0
M  V30 9681 H 907.079 0.850924 -6.39867 0
M  V30 9682 H 907.847 -0.211078 -8.18228 0
M  V30 9683 N 910.51 1.48831 0.518367 0
M  V30 9684 C 911.759 1.5669 1.27008 0
M  V30 9685 C 912.072 0.250934 1.93984 0
M  V30 9686 O 913.278 0.207884 2.70703 0
M  V30 9687 C 911.734 2.76387 2.30517 0
M  V30 9688 C 911.342 4.14673 1.69559 0
M  V30 9689 C 913.086 2.93566 3.06625 0
M  V30 9690 C 910.993 5.25616 2.71076 0
M  V30 9691 H 909.923 0.583362 0.477708 0
M  V30 9692 H 912.574 1.75187 0.546052 0
M  V30 9693 H 910.956 2.51348 3.06006 0
M  V30 9694 H 912.13 4.49779 1.00179 0
M  V30 9695 H 910.445 4.02708 1.05902 0
M  V30 9696 H 913.042 3.7362 3.82508 0
M  V30 9697 H 913.385 2.03462 3.63193 0
M  V30 9698 H 913.918 3.18562 2.38251 0
M  V30 9699 H 910.657 6.17723 2.19313 0
M  V30 9700 H 910.177 4.94985 3.38748 0
M  V30 9701 H 911.856 5.5422 3.3384 0
M  V30 9702 N 911.988 -0.768124 1.37614 0
M  V30 9703 C 912.918 -1.89537 1.36374 0
M  V30 9704 C 913.899 -1.68513 0.231803 0
M  V30 9705 O 915.084 -1.89318 0.432705 0
M  V30 9706 C 912.214 -3.26871 1.17358 0
M  V30 9707 C 911.168 -3.62466 2.27602 0
M  V30 9708 C 910.494 -4.9838 1.93705 0
M  V30 9709 C 911.794 -3.68841 3.69802 0
M  V30 9710 H 913.488 -1.90832 2.30702 0
M  V30 9711 H 911.034 -0.91672 1.11051 0
M  V30 9712 H 912.987 -4.05371 1.15119 0
M  V30 9713 H 911.711 -3.26018 0.194865 0
M  V30 9714 H 910.37 -2.86276 2.29002 0
M  V30 9715 H 910.018 -4.94071 0.943539 0
M  V30 9716 H 909.718 -5.23165 2.6753 0
M  V30 9717 H 911.242 -5.79276 1.93059 0
M  V30 9718 H 912.656 -4.37485 3.70513 0
M  V30 9719 H 911.053 -4.05126 4.42711 0
M  V30 9720 H 912.123 -2.69415 4.03167 0
M  V30 9721 N 913.466 -1.22244 -0.994698 0
M  V30 9722 C 914.396 -1.01513 -2.10279 0
M  V30 9723 C 915.377 0.0633365 -1.69982 0
M  V30 9724 O 916.562 -0.0985268 -1.9395 0
M  V30 9725 C 913.692 -0.59016 -3.42249 0
M  V30 9726 C 912.646 -1.61436 -3.96387 0
M  V30 9727 C 911.972 -1.04528 -5.24383 0
M  V30 9728 C 913.272 -3.00388 -4.27276 0
M  V30 9729 H 914.966 -1.94194 -2.2788 0
M  V30 9730 H 912.512 -0.935094 -1.09508 0
M  V30 9731 H 914.465 -0.432254 -4.19177 0
M  V30 9732 H 913.189 0.372308 -3.24471 0
M  V30 9733 H 911.848 -1.76001 -3.21589 0
M  V30 9734 H 911.496 -0.0742225 -5.02945 0
M  V30 9735 H 911.196 -1.72949 -5.61571 0
M  V30 9736 H 912.72 -0.898922 -6.03947 0
M  V30 9737 H 914.134 -2.89207 -4.95007 0
M  V30 9738 H 912.531 -3.65916 -4.75631 0
M  V30 9739 H 913.601 -3.50456 -3.35125 0
M  V30 9740 N 914.944 1.19125 -1.03184 0
M  V30 9741 C 916.191 1.88883 -0.730029 0
M  V30 9742 C 916.519 1.79807 0.741602 0
M  V30 9743 O 915.774 1.18686 1.55603 0
M  V30 9744 C 916.073 3.39052 -1.13041 0
M  V30 9745 C 915.739 3.68332 -2.60082 0
M  V30 9746 C 914.401 3.76033 -3.00254 0
M  V30 9747 C 916.753 3.81423 -3.55199 0
M  V30 9748 C 914.081 3.94296 -4.34451 0
M  V30 9749 C 916.433 4.012 -4.89103 0
M  V30 9750 C 915.097 4.07134 -5.28959 0
M  V30 9751 H 914.367 0.691172 -0.267137 0
M  V30 9752 H 917.014 1.41053 -1.29523 0
M  V30 9753 H 915.319 3.88801 -0.48386 0
M  V30 9754 H 917.016 3.91351 -0.874368 0
M  V30 9755 H 913.606 3.62948 -2.27961 0
M  V30 9756 H 917.79 3.74814 -3.25313 0
M  V30 9757 H 913.046 3.97131 -4.64863 0
M  V30 9758 H 917.22 4.10271 -5.62717 0
M  V30 9759 H 914.847 4.21038 -6.32954 0
M  V30 9760 N 916.422 0.810101 1.35185 0
M  V30 9761 C 917.67 0.391343 1.98275 0
M  V30 9762 C 917.991 -1.04592 1.64577 0
M  V30 9763 O 917.261 -1.72417 0.93001 0
M  V30 9764 H 915.841 0.141715 0.733434 0
M  V30 9765 H 918.503 1.03672 1.6504 0
M  V30 9766 H 917.599 0.49991 3.0807 0
M  V30 9767 N 917.9 -1.47166 0.563914 0
M  V30 9768 C 919.146 -2.02756 0.0424338 0
M  V30 9769 C 919.479 -1.43662 -1.3067 0
M  V30 9770 O 918.754 -0.594676 -1.85186 0
M  V30 9771 C 919.037 -3.60074 -0.0434793 0
M  V30 9772 C 918.89 -4.29587 1.33323 0
M  V30 9773 C 920.209 -4.336 -0.753568 0
M  V30 9774 H 917.328 -0.736806 0.0168946 0
M  V30 9775 H 919.97 -1.75521 0.727496 0
M  V30 9776 H 918.12 -3.83409 -0.626906 0
M  V30 9777 H 919.792 -4.17573 1.96037 0
M  V30 9778 H 918.035 -3.8968 1.9061 0
M  V30 9779 H 918.706 -5.38218 1.22576 0
M  V30 9780 H 921.182 -4.15299 -0.258126 0
M  V30 9781 H 920.058 -5.43291 -0.782659 0
M  V30 9782 H 920.319 -4.03302 -1.81108 0
M  V30 9783 N 919.378 -0.300708 -1.54705 0
M  V30 9784 C 920.626 0.308044 -1.99739 0
M  V30 9785 C 920.947 1.54433 -1.19061 0
M  V30 9786 O 920.217 1.93794 -0.286507 0
M  V30 9787 H 918.797 0.116811 -0.73781 0
M  V30 9788 H 921.459 -0.41197 -1.90496 0
M  V30 9789 H 920.555 0.580287 -3.06658 0
M  V30 9790 N 920.856 1.57574 -0.0284266 0
M  V30 9791 C 921.786 2.1321 0.952039 0
M  V30 9792 C 922.767 1.04806 1.33977 0
M  V30 9793 O 923.952 1.32635 1.41851 0
M  V30 9794 C 921.082 2.65862 2.23461 0
M  V30 9795 C 920.036 3.79047 1.98765 0
M  V30 9796 C 919.362 4.18124 3.33281 0
M  V30 9797 C 920.662 5.05151 1.32739 0
M  V30 9798 H 922.356 2.95385 0.488705 0
M  V30 9799 H 919.902 1.42092 0.233628 0
M  V30 9800 H 921.855 3.03417 2.92431 0
M  V30 9801 H 920.579 1.80848 2.71959 0
M  V30 9802 H 919.238 3.41929 1.32213 0
M  V30 9803 H 918.886 3.30092 3.79537 0
M  V30 9804 H 918.586 4.94396 3.17563 0
M  V30 9805 H 920.11 4.58262 4.0352 0
M  V30 9806 H 921.524 5.40297 1.91708 0
M  V30 9807 H 919.921 5.86416 1.27421 0
M  V30 9808 H 920.991 4.83969 0.300261 0
M  V30 9809 N 922.334 -0.244713 1.55689 0
M  V30 9810 C 923.559 -0.994157 1.8202 0
M  V30 9811 C 923.984 -1.78079 0.60577 0
M  V30 9812 O 923.342 -1.75748 -0.445221 0
M  V30 9813 C 923.39 -1.90599 3.06111 0
M  V30 9814 O 922.494 -2.99804 2.8318 0
M  V30 9815 H 921.835 -0.282767 0.600782 0
M  V30 9816 H 924.365 -0.26504 2.02876 0
M  V30 9817 H 924.375 -2.32023 3.35603 0
M  V30 9818 H 923.05 -1.32763 3.9414 0
M  V30 9819 H 921.627 -2.62493 2.64862 0
M  V30 9820 N 923.813 -1.49104 -0.510467 0
M  V30 9821 C 925.043 -1.61571 -1.28757 0
M  V30 9822 C 925.451 -0.282638 -1.87077 0
M  V30 9823 O 924.794 0.740749 -1.68103 0
M  V30 9824 C 924.856 -2.61851 -2.46322 0
M  V30 9825 C 924.52 -4.06438 -2.08942 0
M  V30 9826 C 925.517 -4.93532 -1.63469 0
M  V30 9827 C 923.202 -4.52109 -2.18867 0
M  V30 9828 C 925.196 -6.24331 -1.28411 0
M  V30 9829 C 922.883 -5.82924 -1.83421 0
M  V30 9830 C 923.881 -6.68858 -1.38267 0
M  V30 9831 O 923.569 -7.97236 -1.03296 0
M  V30 9832 H 923.301 -0.547082 -0.397086 0
M  V30 9833 H 925.855 -1.95806 -0.620424 0
M  V30 9834 H 924.085 -2.22777 -3.16081 0
M  V30 9835 H 925.774 -2.63947 -3.08362 0
M  V30 9836 H 926.54 -4.59479 -1.55255 0
M  V30 9837 H 922.419 -3.85395 -2.52966 0
M  V30 9838 H 925.963 -6.9136 -0.930946 0
M  V30 9839 H 921.86 -6.16507 -1.91282 0
M  V30 9840 H 922.628 -8.10163 -1.16525 0
M  V30 9841 N 925.291 0.760815 -1.38019 0
M  V30 9842 C 926.531 1.53264 -1.35239 0
M  V30 9843 C 926.895 1.91908 0.0595038 0
M  V30 9844 O 928.096 2.67962 0.212122 0
M  V30 9845 C 926.367 2.75643 -2.27499 0
M  V30 9846 S 927.926 3.6559 -2.42672 0
M  V30 9847 H 924.744 0.52457 -0.479945 0
M  V30 9848 H 927.346 0.893737 -1.73875 0
M  V30 9849 H 926.05 2.4535 -3.28986 0
M  V30 9850 H 925.581 3.44483 -1.89987 0
M  V30 9851 H 927.596 4.68124 -1.64542 0
M  V30 9852 N 926.769 1.22769 0.988202 0
M  V30 9853 C 927.702 0.945196 2.07705 0
M  V30 9854 C 928.68 -0.11363 1.62202 0
M  V30 9855 O 929.864 0.0189624 1.8849 0
M  V30 9856 C 926.991 0.422474 3.36055 0
M  V30 9857 C 926.037 1.4667 4.00487 0
M  V30 9858 S 926.87 3.04158 4.40736 0
M  V30 9859 C 928.026 2.53536 5.7225 0
M  V30 9860 H 928.259 1.86723 2.31348 0
M  V30 9861 H 925.792 1.05928 1.12333 0
M  V30 9862 H 927.75 0.12748 4.10302 0
M  V30 9863 H 926.411 -0.478515 3.10434 0
M  V30 9864 H 925.604 1.05093 4.92921 0
M  V30 9865 H 925.206 1.71064 3.32585 0
M  V30 9866 H 927.498 1.95069 6.4881 0
M  V30 9867 H 928.441 3.44479 6.1866 0
M  V30 9868 H 928.849 1.94658 5.29876 0
M  V30 9869 N 928.247 -1.18576 1.03814 0
M  V30 9870 C 929.475 -1.92437 0.759966 0
M  V30 9871 C 929.89 -1.76031 -0.682526 0
M  V30 9872 O 929.247 -1.08829 -1.46501 0
M  V30 9873 C 929.298 -3.43923 1.11351 0
M  V30 9874 O 929.019 -3.5981 2.49937 0
M  V30 9875 C 930.52 -4.34888 0.859472 0
M  V30 9876 H 927.74 -0.610998 0.277349 0
M  V30 9877 H 930.284 -1.50448 1.38512 0
M  V30 9878 H 928.439 -3.83711 0.533362 0
M  V30 9879 H 928.853 -4.53569 2.63393 0
M  V30 9880 H 930.327 -5.39744 1.15672 0
M  V30 9881 H 930.804 -4.38717 -0.205839 0
M  V30 9882 H 931.41 -4.00795 1.42279 0
M  V30 9883 N 929.725 -0.817259 -1.34754 0
M  V30 9884 C 930.972 -0.402648 -1.98457 0
M  V30 9885 C 931.3 1.03287 -1.64809 0
M  V30 9886 O 930.555 1.73316 -0.908851 0
M  V30 9887 C 930.854 -0.5453 -3.53216 0
M  V30 9888 C 930.52 -1.9457 -4.06759 0
M  V30 9889 C 929.182 -2.32881 -4.21094 0
M  V30 9890 C 931.534 -2.86141 -4.35629 0
M  V30 9891 C 928.862 -3.62108 -4.61622 0
M  V30 9892 C 931.214 -4.14826 -4.776 0
M  V30 9893 C 929.878 -4.53121 -4.9014 0
M  V30 9894 H 929.148 -0.147339 -0.726204 0
M  V30 9895 H 931.795 -1.04011 -1.60791 0
M  V30 9896 H 930.1 0.175576 -3.91406 0
M  V30 9897 H 931.797 -0.205112 -4.00475 0
M  V30 9898 H 928.387 -1.6381 -3.96061 0
M  V30 9899 H 932.571 -2.57788 -4.24098 0
M  V30 9900 H 927.827 -3.91613 -4.69521 0
M  V30 9901 H 932.001 -4.85874 -4.98899 0
M  V30 9902 H 929.628 -5.53307 -5.21302 0
M  V30 9903 N 931.203 1.46865 -0.571711 0
M  V30 9904 C 932.45 2.0243 -0.0531071 0
M  V30 9905 C 932.778 1.44446 1.30252 0
M  V30 9906 O 932.033 0.595182 1.8643 0
M  V30 9907 C 932.332 3.57323 0.0742311 0
M  V30 9908 C 931.998 4.34295 -1.21237 0
M  V30 9909 C 930.66 4.55044 -1.56489 0
M  V30 9910 C 933.012 4.78577 -2.0643 0
M  V30 9911 C 930.34 5.17325 -2.76752 0
M  V30 9912 C 932.692 5.42186 -3.25909 0
M  V30 9913 C 931.356 5.61165 -3.61456 0
M  V30 9914 H 930.626 0.740745 -0.0194333 0
M  V30 9915 H 933.273 1.76366 -0.74614 0
M  V30 9916 H 931.578 3.82461 0.850325 0
M  V30 9917 H 933.275 3.97982 0.491077 0
M  V30 9918 H 929.865 4.18435 -0.927922 0
M  V30 9919 H 934.049 4.62313 -1.80501 0
M  V30 9920 H 929.305 5.30211 -3.04444 0
M  V30 9921 H 933.479 5.75459 -3.92198 0
M  V30 9922 H 931.106 6.09195 -4.54737 0
M  V30 9923 N 932.681 0.308908 1.54543 0
M  V30 9924 C 933.928 -0.298036 2.00295 0
M  V30 9925 C 934.256 -1.53285 1.19724 0
M  V30 9926 O 933.511 -1.93917 0.263551 0
M  V30 9927 C 933.81 -0.691522 3.50646 0
M  V30 9928 C 933.476 0.442454 4.48724 0
M  V30 9929 C 932.138 0.753739 4.7526 0
M  V30 9930 C 934.49 1.20488 5.07082 0
M  V30 9931 C 931.818 1.83044 5.57415 0
M  V30 9932 C 934.17 2.27156 5.90409 0
M  V30 9933 C 932.834 2.58882 6.15253 0
M  V30 9934 H 932.104 -0.109059 0.73293 0
M  V30 9935 H 934.751 0.429647 1.86618 0
M  V30 9936 H 933.056 -1.49941 3.61974 0
M  V30 9937 H 934.753 -1.17244 3.83477 0
M  V30 9938 H 931.343 0.189744 4.2818 0
M  V30 9939 H 935.527 0.977653 4.86575 0
M  V30 9940 H 930.783 2.08088 5.749 0
M  V30 9941 H 934.957 2.86687 6.34652 0
M  V30 9942 H 932.584 3.42443 6.78702 0
M  V30 9943 N 934.159 -1.57557 0.0367827 0
M  V30 9944 C 935.408 -1.91291 -0.639569 0
M  V30 9945 C 935.721 -0.915601 -1.72847 0
M  V30 9946 O 936.927 -1.14447 -2.46199 0
M  V30 9947 C 935.383 -3.39697 -1.18888 0
M  V30 9948 C 934.991 -4.47803 -0.132851 0
M  V30 9949 C 936.735 -3.82487 -1.8413 0
M  V30 9950 C 934.642 -5.87311 -0.694229 0
M  V30 9951 H 933.572 -0.713886 -0.242658 0
M  V30 9952 H 936.223 -1.83209 0.103332 0
M  V30 9953 H 934.605 -3.42736 -1.98363 0
M  V30 9954 H 935.779 -4.56334 0.640009 0
M  V30 9955 H 934.094 -4.14264 0.421264 0
M  V30 9956 H 936.691 -4.84076 -2.27101 0
M  V30 9957 H 937.034 -3.17959 -2.68716 0
M  V30 9958 H 937.567 -3.81903 -1.11332 0
M  V30 9959 H 934.306 -6.55401 0.113667 0
M  V30 9960 H 933.826 -5.82371 -1.4354 0
M  V30 9961 H 935.505 -6.36119 -1.1816 0
M  V30 9962 N 935.637 0.236453 -1.55816 0
M  V30 9963 C 936.6 1.27633 -1.90375 0
M  V30 9964 C 937.6 1.40557 -0.781048 0
M  V30 9965 O 938.79 1.39078 -1.04895 0
M  V30 9966 C 935.922 2.65247 -2.14142 0
M  V30 9967 H 937.115 0.982019 -2.83366 0
M  V30 9968 H 934.668 0.476215 -1.48869 0
M  V30 9969 H 935.403 2.99801 -1.23653 0
M  V30 9970 H 935.188 2.57246 -2.95917 0
M  V30 9971 H 936.678 3.40313 -2.42026 0
M  V30 9972 N 937.115 1.49373 0.502552 0
M  V30 9973 C 938.062 1.65927 1.60427 0
M  V30 9974 C 939.032 0.500768 1.58371 0
M  V30 9975 O 940.217 0.727606 1.76382 0
M  V30 9976 C 937.357 1.73043 2.9858 0
M  V30 9977 C 936.47 3.00187 3.10663 0
M  V30 9978 C 935.605 2.98292 4.3954 0
M  V30 9979 C 934.644 4.20022 4.4525 0
M  V30 9980 N 933.781 4.16046 5.65553 0
M  V30 9981 H 938.621 2.59998 1.45619 0
M  V30 9982 H 936.158 1.28912 0.708519 0
M  V30 9983 H 938.116 1.7515 3.78653 0
M  V30 9984 H 936.746 0.824397 3.12095 0
M  V30 9985 H 935.798 3.07699 2.23663 0
M  V30 9986 H 937.11 3.9018 3.10742 0
M  V30 9987 H 936.264 2.98953 5.27932 0
M  V30 9988 H 935.003 2.06075 4.42023 0
M  V30 9989 H 934.008 4.19607 3.5526 0
M  V30 9990 H 935.233 5.13431 4.44484 0
M  V30 9991 H 933.179 3.26665 5.68881 0
M  V30 9992 H 933.096 4.99773 5.67242 0
M  V30 9993 H 934.364 4.20807 6.56156 0
M  V30 9994 N 938.594 -0.753485 1.38421 0
M  V30 9995 C 940.005 -1.33081 1.30944 0
M  V30 9996 C 940.356 -1.96169 -0.0347124 0
M  V30 9997 O 939.481 -1.95073 -0.936768 0
M  V30 9998 C 940.076 -2.41973 2.37138 0
M  V30 9999 C 938.635 -2.95426 2.33239 0
M  V30 10000 C 937.782 -1.68808 2.19998 0
M  V30 10001 H 940.733 -0.552354 1.48777 0
M  V30 10002 H 940.754 -3.21913 2.02859 0
M  V30 10003 H 940.266 -1.96027 3.34956 0
M  V30 10004 H 938.367 -3.45701 1.39003 0
M  V30 10005 H 938.48 -3.49798 3.27381 0
M  V30 10006 H 936.844 -1.92438 1.66852 0
M  V30 10007 H 937.627 -1.24939 3.19758 0
M  V30 10008 N 940.072 -1.23292 -0.981677 0
M  V30 10009 C 941.297 -1.09176 -1.76339 0
M  V30 10010 C 941.722 0.352726 -1.84763 0
M  V30 10011 O 941.08 1.25509 -1.30832 0
M  V30 10012 C 941.128 -1.72046 -3.16911 0
M  V30 10013 O 940.232 -0.98174 -4.00544 0
M  V30 10014 H 939.573 -0.382755 -0.542581 0
M  V30 10015 H 942.103 -1.63319 -1.23239 0
M  V30 10016 H 942.113 -1.77232 -3.67495 0
M  V30 10017 H 940.788 -2.77154 -3.10095 0
M  V30 10018 H 939.365 -1.00672 -3.59054 0
M  V30 10019 N 941.55 1.18024 -1.04442 0
M  V30 10020 C 942.961 1.69749 -0.777312 0
M  V30 10021 C 943.312 1.83234 0.701399 0
M  V30 10022 O 942.437 1.51452 1.54568 0
M  V30 10023 C 943.032 3.08321 -1.40441 0
M  V30 10024 C 941.591 3.57243 -1.18553 0
M  V30 10025 C 940.738 2.33695 -1.49271 0
M  V30 10026 H 943.689 1.02647 -1.21035 0
M  V30 10027 H 943.71 3.71787 -0.809628 0
M  V30 10028 H 943.222 2.98474 -2.48062 0
M  V30 10029 H 941.323 3.72379 -0.128221 0
M  V30 10030 H 941.436 4.40451 -1.88519 0
M  V30 10031 H 939.8 2.37792 -0.912526 0
M  V30 10032 H 940.583 2.26464 -2.5801 0
M  V30 10033 N 943.028 0.824394 1.34319 0
M  V30 10034 C 944.274 0.413779 1.98534 0
M  V30 10035 C 944.607 -1.02089 1.65201 0
M  V30 10036 O 943.882 -1.71129 0.924402 0
M  V30 10037 C 944.165 0.61801 3.54757 0
M  V30 10038 C 944.018 2.0989 3.97827 0
M  V30 10039 C 945.337 0.0549041 4.40066 0
M  V30 10040 H 942.456 0.151815 0.721194 0
M  V30 10041 H 945.098 1.03723 1.5919 0
M  V30 10042 H 943.248 0.0873107 3.88402 0
M  V30 10043 H 944.92 2.69335 3.74508 0
M  V30 10044 H 943.163 2.58881 3.48085 0
M  V30 10045 H 943.834 2.1926 5.06586 0
M  V30 10046 H 946.31 0.508348 4.12983 0
M  V30 10047 H 945.186 0.227595 5.48428 0
M  V30 10048 H 945.447 -1.04025 4.29687 0
M  V30 10049 N 944.506 -1.46559 0.579492 0
M  V30 10050 C 945.755 -2.01606 0.0615735 0
M  V30 10051 C 946.068 -1.45695 -1.30508 0
M  V30 10052 O 947.274 -1.92541 -1.91416 0
M  V30 10053 C 945.73 -3.59851 0.059496 0
M  V30 10054 C 945.338 -4.24757 1.42427 0
M  V30 10055 C 947.082 -4.22567 -0.404646 0
M  V30 10056 C 944.989 -5.75072 1.38009 0
M  V30 10057 H 943.919 -0.753754 0.0192491 0
M  V30 10058 H 946.57 -1.68326 0.73066 0
M  V30 10059 H 944.952 -3.90193 -0.675691 0
M  V30 10060 H 946.126 -4.06029 2.17893 0
M  V30 10061 H 944.441 -3.74121 1.82817 0
M  V30 10062 H 947.038 -5.32748 -0.456441 0
M  V30 10063 H 947.381 -3.91279 -1.42149 0
M  V30 10064 H 947.914 -3.96839 0.276376 0
M  V30 10065 H 944.653 -6.11014 2.37364 0
M  V30 10066 H 944.173 -5.96073 0.667583 0
M  V30 10067 H 945.852 -6.37724 1.09163 0
M  V30 10068 N 945.984 -0.3171 -1.54377 0
M  V30 10069 C 947.224 0.288083 -2.0236 0
M  V30 10070 C 947.588 1.4985 -1.20038 0
M  V30 10071 O 948.789 2.17611 -1.57794 0
M  V30 10072 C 947.06 0.620192 -3.51978 0
M  V30 10073 S 948.619 1.20595 -4.21903 0
M  V30 10074 H 945.437 0.0875231 -0.705592 0
M  V30 10075 H 948.039 -0.448719 -1.90281 0
M  V30 10076 H 946.743 -0.268982 -4.09518 0
M  V30 10077 H 946.274 1.38736 -3.68125 0
M  V30 10078 H 948.289 2.49308 -4.29022 0
M  V30 10079 N 947.462 1.57535 -0.0451378 0
M  V30 10080 C 948.425 2.1008 0.916461 0
M  V30 10081 C 949.425 1.01913 1.2438 0
M  V30 10082 O 950.615 1.2801 1.18148 0
M  V30 10083 C 947.747 2.58001 2.22818 0
M  V30 10084 H 948.94 2.96334 0.461076 0
M  V30 10085 H 946.493 1.54974 0.203169 0
M  V30 10086 H 947.228 1.75123 2.72951 0
M  V30 10087 H 947.013 3.3704 2.00366 0
M  V30 10088 H 948.503 2.98822 2.9171 0
M  V30 10089 N 948.94 -0.228186 1.55939 0
M  V30 10090 C 949.87 -1.28607 1.94891 0
M  V30 10091 C 950.851 -1.49236 0.816245 0
M  V30 10092 O 952.036 -1.61531 1.07803 0
M  V30 10093 C 949.166 -2.63719 2.25986 0
M  V30 10094 C 948.12 -2.57757 3.4168 0
M  V30 10095 C 947.446 -3.96837 3.58364 0
M  V30 10096 C 948.746 -2.13116 4.76843 0
M  V30 10097 H 950.44 -0.962531 2.83506 0
M  V30 10098 H 947.986 -0.461577 1.36402 0
M  V30 10099 H 949.939 -3.37878 2.51826 0
M  V30 10100 H 948.663 -2.97747 1.34217 0
M  V30 10101 H 947.322 -1.86055 3.15878 0
M  V30 10102 H 946.97 -4.28162 2.63982 0
M  V30 10103 H 946.67 -3.93731 4.36176 0
M  V30 10104 H 948.194 -4.72668 3.86545 0
M  V30 10105 H 949.608 -2.77015 5.01932 0
M  V30 10106 H 948.005 -2.21083 5.57891 0
M  V30 10107 H 949.075 -1.08326 4.72645 0
M  V30 10108 N 950.418 -1.49637 -0.494624 0
M  V30 10109 C 951.834 -1.36541 -0.826361 0
M  V30 10110 C 952.034 -0.403386 -1.97421 0
M  V30 10111 O 951.09 0.162614 -2.51976 0
M  V30 10112 C 952.403 -2.77401 -1.16057 0
M  V30 10113 C 953.951 -2.86148 -1.26841 0
M  V30 10114 C 954.426 -4.27789 -1.63587 0
M  V30 10115 N 955.917 -4.3063 -1.70624 0
M  V30 10116 C 956.652 -5.37198 -2.00514 0
M  V30 10117 N 956.148 -6.54004 -2.28584 0
M  V30 10118 N 957.941 -5.2462 -2.01818 0
M  V30 10119 H 950.092 -2.10776 0.26219 0
M  V30 10120 H 952.355 -0.946419 0.0547235 0
M  V30 10121 H 952.061 -3.49526 -0.390434 0
M  V30 10122 H 951.935 -3.1317 -2.10249 0
M  V30 10123 H 954.322 -2.14256 -2.02925 0
M  V30 10124 H 954.403 -2.53953 -0.30684 0
M  V30 10125 H 954.047 -5.00209 -0.880507 0
M  V30 10126 H 953.977 -4.57453 -2.60854 0
M  V30 10127 H 956.468 -3.46393 -1.51065 0
M  V30 10128 H 956.781 -7.31041 -2.50598 0
M  V30 10129 H 955.126 -6.57219 -2.26027 0
M  V30 10130 H 958.317 -4.32371 -1.79369 0
M  V30 10131 H 958.49 -6.07765 -2.24778 0
M  V30 10132 N 951.896 0.746133 -1.38819 0
M  V30 10133 C 953.312 1.0502 -1.20179 0
M  V30 10134 C 953.512 2.01423 -0.0556271 0
M  V30 10135 O 952.568 2.45359 0.59625 0
M  V30 10136 C 953.881 1.62315 -2.53129 0
M  V30 10137 C 955.429 1.74449 -2.59878 0
M  V30 10138 C 955.904 2.35155 -3.93022 0
M  V30 10139 N 957.395 2.42577 -3.94602 0
M  V30 10140 C 958.13 2.9046 -4.94389 0
M  V30 10141 N 957.626 3.38322 -6.04574 0
M  V30 10142 N 959.419 2.89568 -4.81775 0
M  V30 10143 H 951.57 0.106551 -2.12133 0
M  V30 10144 H 953.833 0.109897 -0.941609 0
M  V30 10145 H 953.539 0.98946 -3.37495 0
M  V30 10146 H 953.413 2.61276 -2.72057 0
M  V30 10147 H 955.8 2.36943 -1.75903 0
M  V30 10148 H 955.881 0.741721 -2.4481 0
M  V30 10149 H 955.525 1.73292 -4.77422 0
M  V30 10150 H 955.455 3.36088 -4.05404 0
M  V30 10151 H 957.946 2.08735 -3.15021 0
M  V30 10152 H 958.259 3.73336 -6.76639 0
M  V30 10153 H 956.604 3.3636 -6.08184 0
M  V30 10154 H 959.795 2.51492 -3.94803 0
M  V30 10155 H 959.968 3.26571 -5.59692 0
M  V30 10156 N 953.375 1.23811 0.975125 0
M  V30 10157 C 954.305 1.04846 2.08638 0
M  V30 10158 C 955.286 -0.0362859 1.70061 0
M  V30 10159 O 956.471 0.12937 1.93769 0
M  V30 10160 C 953.601 0.644534 3.41267 0
M  V30 10161 C 952.555 1.67722 3.93768 0
M  V30 10162 C 951.881 1.12857 5.22654 0
M  V30 10163 C 953.181 3.07147 4.22443 0
M  V30 10164 H 954.875 1.97795 2.24761 0
M  V30 10165 H 952.421 0.952397 1.08006 0
M  V30 10166 H 954.374 0.498887 4.18436 0
M  V30 10167 H 953.098 -0.320641 3.25022 0
M  V30 10168 H 951.757 1.81095 3.18748 0
M  V30 10169 H 951.405 0.154227 5.02764 0
M  V30 10170 H 951.105 1.81862 5.58749 0
M  V30 10171 H 952.629 0.994891 6.0244 0
M  V30 10172 H 954.043 2.97045 4.90344 0
M  V30 10173 H 952.44 3.73437 4.6975 0
M  V30 10174 H 953.51 3.55743 3.29507 0
M  V30 10175 N 954.853 -1.17469 1.05066 0
M  V30 10176 C 956.101 -1.87327 0.758485 0
M  V30 10177 C 956.422 -1.81358 -0.716549 0
M  V30 10178 O 955.692 -1.23868 -1.51768 0
M  V30 10179 H 954.272 -0.693512 0.277579 0
M  V30 10180 H 956.934 -1.4251 1.32954 0
M  V30 10181 H 956.03 -2.93101 1.0723 0
M  V30 10182 N 956.331 -0.831506 -1.3388 0
M  V30 10183 C 957.261 -0.274378 -2.31882 0
M  V30 10184 C 958.242 0.613872 -1.58637 0
M  V30 10185 O 959.427 0.538961 -1.86571 0
M  V30 10186 C 956.557 0.557498 -3.42796 0
M  V30 10187 C 955.511 -0.234337 -4.27358 0
M  V30 10188 C 954.837 0.720825 -5.29819 0
M  V30 10189 C 956.137 -1.44732 -5.01847 0
M  V30 10190 H 957.831 -1.09322 -2.78728 0
M  V30 10191 H 955.377 -0.527136 -1.34005 0
M  V30 10192 H 957.33 0.957501 -4.10378 0
M  V30 10193 H 956.054 1.40947 -2.94621 0
M  V30 10194 H 954.713 -0.61581 -3.61391 0
M  V30 10195 H 954.361 1.569 -4.77903 0
M  V30 10196 H 954.061 0.195171 -5.87276 0
M  V30 10197 H 955.585 1.1185 -6.00268 0
M  V30 10198 H 956.999 -1.12087 -5.62236 0
M  V30 10199 H 955.396 -1.90923 -5.68919 0
M  V30 10200 H 956.466 -2.22099 -4.31045 0
M  V30 10201 N 957.809 1.4625 -0.587256 0
M  V30 10202 C 959.057 2.01963 -0.0744273 0
M  V30 10203 C 959.378 1.46065 1.29189 0
M  V30 10204 O 958.648 0.647077 1.84905 0
M  V30 10205 H 957.228 0.746597 -0.0245236 0
M  V30 10206 H 959.89 1.79299 -0.764063 0
M  V30 10207 H 958.986 3.12099 -0.00884894 0
M  V30 10208 N 959.287 0.325282 1.54207 0
M  V30 10209 C 960.512 -0.281418 2.05482 0
M  V30 10210 C 960.937 -1.44869 1.19977 0
M  V30 10211 O 960.295 -1.80088 0.209275 0
M  V30 10212 C 960.343 -0.692029 3.53897 0
M  V30 10213 O 959.447 -1.7942 3.71325 0
M  V30 10214 H 958.788 -0.0504872 0.662078 0
M  V30 10215 H 961.318 0.474191 1.99029 0
M  V30 10216 H 961.328 -0.974219 3.96198 0
M  V30 10217 H 960.003 0.161709 4.15586 0
M  V30 10218 H 958.58 -1.51069 3.40929 0
M  V30 10219 N 960.765 -1.57509 0.0534917 0
M  V30 10220 C 961.99 -1.97511 -0.632794 0
M  V30 10221 C 962.415 -0.930947 -1.63447 0
M  V30 10222 O 961.773 0.105558 -1.80992 0
M  V30 10223 C 961.821 -3.3658 -1.29407 0
M  V30 10224 O 960.925 -3.3467 -2.40977 0
M  V30 10225 H 960.266 -0.643349 -0.16431 0
M  V30 10226 H 962.796 -2.04232 0.12258 0
M  V30 10227 H 962.806 -3.73359 -1.64521 0
M  V30 10228 H 961.481 -4.12113 -0.559976 0
M  V30 10229 H 960.058 -3.09639 -2.07793 0
M  V30 10230 N 962.243 0.219913 -1.56058 0
M  V30 10231 C 963.49 0.944064 -1.79147 0
M  V30 10232 C 963.818 1.84268 -0.622531 0
M  V30 10233 O 963.073 1.91713 0.393013 0
M  V30 10234 C 963.372 1.81293 -3.08006 0
M  V30 10235 C 963.038 1.0674 -4.38084 0
M  V30 10236 C 961.7 0.86147 -4.73426 0
M  V30 10237 C 964.052 0.541049 -5.18384 0
M  V30 10238 C 961.38 0.117307 -5.86583 0
M  V30 10239 C 963.732 -0.189779 -6.32315 0
M  V30 10240 C 962.396 -0.406951 -6.66258 0
M  V30 10241 H 961.666 0.345458 -0.655546 0
M  V30 10242 H 964.313 0.212121 -1.90322 0
M  V30 10243 H 962.618 2.61278 -2.9196 0
M  V30 10244 H 964.315 2.3754 -3.23072 0
M  V30 10245 H 960.905 1.23789 -4.10334 0
M  V30 10246 H 965.089 0.687617 -4.91514 0
M  V30 10247 H 960.345 -0.0611651 -6.11369 0
M  V30 10248 H 964.519 -0.605134 -6.93766 0
M  V30 10249 H 962.146 -0.985511 -7.53785 0
M  V30 10250 N 963.721 1.49897 0.486681 0
M  V30 10251 C 964.684 1.67086 1.56891 0
M  V30 10252 C 965.684 0.54209 1.51387 0
M  V30 10253 O 966.874 0.80883 1.54284 0
M  V30 10254 C 964.006 1.68159 2.96539 0
M  V30 10255 H 965.199 2.63626 1.42974 0
M  V30 10256 H 962.752 1.39143 0.711954 0
M  V30 10257 H 963.487 0.732562 3.15918 0
M  V30 10258 H 963.272 2.50147 3.01942 0
M  V30 10259 H 964.762 1.83466 3.7514 0
M  V30 10260 N 965.199 -0.738761 1.39212 0
M  V30 10261 C 966.448 -1.49368 1.35543 0
M  V30 10262 C 966.761 -1.95543 -0.0471091 0
M  V30 10263 O 967.967 -2.70714 -0.206376 0
M  V30 10264 C 966.423 -2.69882 2.381 0
M  V30 10265 C 966.031 -2.30672 3.8405 0
M  V30 10266 C 967.775 -3.47718 2.435 0
M  V30 10267 C 965.682 -3.47886 4.78256 0
M  V30 10268 H 964.612 -0.560898 0.503894 0
M  V30 10269 H 967.263 -0.806221 1.6484 0
M  V30 10270 H 965.645 -3.40684 2.01867 0
M  V30 10271 H 966.819 -1.67441 4.29302 0
M  V30 10272 H 965.134 -1.65936 3.81909 0
M  V30 10273 H 967.731 -4.34897 3.11077 0
M  V30 10274 H 968.074 -3.89919 1.45838 0
M  V30 10275 H 968.607 -2.83942 2.78606 0
M  V30 10276 H 965.346 -3.10739 5.77167 0
M  V30 10277 H 964.866 -4.10111 4.37686 0
M  V30 10278 H 966.545 -4.14271 4.96979 0
M  V30 10279 N 966.677 -1.24326 -0.968545 0
M  V30 10280 C 967.917 -1.09434 -1.72637 0
M  V30 10281 C 968.281 0.360781 -1.8858 0
M  V30 10282 O 969.482 0.631188 -2.61284 0
M  V30 10283 C 967.753 -1.81285 -3.08011 0
M  V30 10284 S 969.312 -1.82113 -3.99225 0
M  V30 10285 H 966.13 -0.391409 -0.593565 0
M  V30 10286 H 968.732 -1.57643 -1.15624 0
M  V30 10287 H 967.436 -2.86274 -2.94067 0
M  V30 10288 H 966.967 -1.33405 -3.7009 0
M  V30 10289 H 968.982 -0.888196 -4.88186 0
M  V30 10290 N 968.156 1.1691 -1.05688 0
M  V30 10291 C 969.386 1.90927 -0.789339 0
M  V30 10292 C 969.794 1.77339 0.659369 0
M  V30 10293 O 969.137 1.11147 1.4626 0
M  V30 10294 C 969.199 3.42361 -1.09677 0
M  V30 10295 C 968.863 3.79733 -2.54267 0
M  V30 10296 C 969.86 3.82163 -3.52487 0
M  V30 10297 C 967.545 4.10547 -2.89406 0
M  V30 10298 C 969.539 4.14884 -4.8389 0
M  V30 10299 C 967.226 4.42936 -4.21011 0
M  V30 10300 C 968.224 4.45084 -5.18063 0
M  V30 10301 O 967.912 4.76707 -6.47307 0
M  V30 10302 H 967.644 0.612466 -0.286115 0
M  V30 10303 H 970.198 1.4916 -1.4121 0
M  V30 10304 H 968.428 3.84446 -0.416924 0
M  V30 10305 H 970.117 3.97645 -0.814456 0
M  V30 10306 H 970.883 3.58476 -3.26681 0
M  V30 10307 H 966.762 4.08044 -2.14525 0
M  V30 10308 H 970.306 4.16475 -5.59638 0
M  V30 10309 H 966.203 4.66088 -4.46579 0
M  V30 10310 H 966.971 4.94544 -6.52203 0
M  V30 10311 N 969.634 0.838594 1.33437 0
M  V30 10312 C 970.859 0.446701 2.02532 0
M  V30 10313 C 971.284 -0.944275 1.62681 0
M  V30 10314 O 970.642 -1.61733 0.81927 0
M  V30 10315 C 970.69 0.574794 3.55989 0
M  V30 10316 O 969.794 -0.399063 4.10465 0
M  V30 10317 H 969.135 0.181637 0.638674 0
M  V30 10318 H 971.665 1.13335 1.70342 0
M  V30 10319 H 971.675 0.456339 4.0544 0
M  V30 10320 H 970.35 1.58921 3.8434 0
M  V30 10321 H 968.927 -0.238187 3.72139 0
M  V30 10322 N 971.112 -1.45937 0.595003 0
M  V30 10323 C 972.075 -2.2888 -0.121102 0
M  V30 10324 C 973.075 -1.39075 -0.807149 0
M  V30 10325 O 974.265 -1.61326 -0.657228 0
M  V30 10326 C 971.397 -3.19778 -1.1813 0
M  V30 10327 H 972.59 -2.93673 0.607968 0
M  V30 10328 H 970.143 -1.5225 0.353495 0
M  V30 10329 H 970.878 -2.59759 -1.94154 0
M  V30 10330 H 970.663 -3.85914 -0.693724 0
M  V30 10331 H 972.153 -3.82176 -1.68319 0
M  V30 10332 N 972.59 -0.333456 -1.54032 0
M  V30 10333 C 973.52 0.52051 -2.27625 0
M  V30 10334 C 974.501 1.1111 -1.28797 0
M  V30 10335 O 975.686 1.13438 -1.57625 0
M  V30 10336 C 972.816 1.67663 -3.04149 0
M  V30 10337 C 971.77 1.21487 -4.10396 0
M  V30 10338 C 971.096 2.45872 -4.74817 0
M  V30 10339 C 972.396 0.322603 -5.21303 0
M  V30 10340 H 974.09 -0.0933823 -2.99254 0
M  V30 10341 H 971.636 -0.0463526 -1.43925 0
M  V30 10342 H 973.589 2.28041 -3.54366 0
M  V30 10343 H 972.313 2.31727 -2.30153 0
M  V30 10344 H 970.972 0.633966 -3.61077 0
M  V30 10345 H 970.62 3.0832 -3.97426 0
M  V30 10346 H 970.32 2.15662 -5.46593 0
M  V30 10347 H 971.844 3.06994 -5.27814 0
M  V30 10348 H 973.258 0.832942 -5.67217 0
M  V30 10349 H 971.655 0.112843 -5.99994 0
M  V30 10350 H 972.725 -0.643954 -4.80605 0
M  V30 10351 N 974.068 1.57479 -0.061844 0
M  V30 10352 C 974.998 2.15181 0.9066 0
M  V30 10353 C 975.979 1.07624 1.31724 0
M  V30 10354 O 977.164 1.35614 1.39006 0
M  V30 10355 C 974.294 2.70542 2.17771 0
M  V30 10356 C 973.248 3.83178 1.9068 0
M  V30 10357 C 972.574 4.25099 3.24337 0
M  V30 10358 C 973.874 5.07853 1.21994 0
M  V30 10359 H 975.568 2.96355 0.42594 0
M  V30 10360 H 973.114 1.42556 0.203435 0
M  V30 10361 H 975.067 3.09552 2.85929 0
M  V30 10362 H 973.791 1.86575 2.68062 0
M  V30 10363 H 972.45 3.44656 1.24931 0
M  V30 10364 H 972.098 3.38069 3.72449 0
M  V30 10365 H 971.798 5.01021 3.07005 0
M  V30 10366 H 973.322 4.66718 3.93709 0
M  V30 10367 H 974.736 5.44242 1.80204 0
M  V30 10368 H 973.133 5.88987 1.14954 0
M  V30 10369 H 974.203 4.84497 0.197536 0
M  V30 10370 N 975.546 -0.211634 1.56173 0
M  V30 10371 C 976.774 -0.951184 1.83739 0
M  V30 10372 C 977.189 -1.7754 0.642252 0
M  V30 10373 O 976.546 -1.78302 -0.389174 0
M  V30 10374 C 976.597 -1.86075 3.09933 0
M  V30 10375 O 976.318 -1.06983 4.24837 0
M  V30 10376 C 977.819 -2.71337 3.50559 0
M  V30 10377 H 975.039 -0.278312 0.61056 0
M  V30 10378 H 977.583 -0.223871 2.03271 0
M  V30 10379 H 975.738 -2.54189 2.92347 0
M  V30 10380 H 976.152 -1.68815 4.9659 0
M  V30 10381 H 977.626 -3.30843 4.41868 0
M  V30 10382 H 978.103 -3.44226 2.72773 0
M  V30 10383 H 978.709 -2.0862 3.70618 0
M  V30 10384 N 977.024 -1.50153 -0.478725 0
M  V30 10385 C 977.971 -1.68458 -1.57767 0
M  V30 10386 C 978.941 -0.5259 -1.57555 0
M  V30 10387 O 980.126 -0.755574 -1.75202 0
M  V30 10388 C 977.266 -1.77772 -2.95789 0
M  V30 10389 C 976.379 -3.05092 -3.05848 0
M  V30 10390 C 975.514 -3.05247 -4.34739 0
M  V30 10391 C 974.553 -4.27053 -4.38512 0
M  V30 10392 N 973.69 -4.24991 -5.58862 0
M  V30 10393 H 978.53 -2.62282 -1.41464 0
M  V30 10394 H 976.067 -1.30023 -0.687921 0
M  V30 10395 H 978.025 -1.81152 -3.75819 0
M  V30 10396 H 976.655 -0.873944 -3.10744 0
M  V30 10397 H 975.707 -3.11219 -2.1874 0
M  V30 10398 H 977.019 -3.95075 -3.04495 0
M  V30 10399 H 976.173 -3.07314 -5.23109 0
M  V30 10400 H 974.912 -2.13081 -4.38689 0
M  V30 10401 H 973.917 -4.25206 -3.4854 0
M  V30 10402 H 975.142 -5.20437 -4.36259 0
M  V30 10403 H 973.088 -3.35674 -5.63612 0
M  V30 10404 H 973.005 -5.08734 -5.59219 0
M  V30 10405 H 974.273 -4.31193 -6.49379 0
M  V30 10406 N 978.502 0.731368 -1.39602 0
M  V30 10407 C 979.73 1.52059 -1.40305 0
M  V30 10408 C 980.145 1.888 0.00147921 0
M  V30 10409 O 979.502 1.54354 0.973715 0
M  V30 10410 C 979.553 2.80588 -2.27931 0
M  V30 10411 O 979.274 2.45406 -3.62915 0
M  V30 10412 C 980.775 3.74592 -2.37056 0
M  V30 10413 H 977.995 0.469787 -0.479104 0
M  V30 10414 H 980.539 0.903436 -1.83462 0
M  V30 10415 H 978.694 3.38626 -1.88178 0
M  V30 10416 H 979.108 3.27996 -4.09291 0
M  V30 10417 H 980.582 4.61662 -3.02609 0
M  V30 10418 H 981.059 4.16597 -1.39081 0
M  V30 10419 H 981.665 3.22471 -2.77295 0
M  V30 10420 N 979.98 1.24838 0.961938 0
M  V30 10421 C 980.928 1.0436 2.07874 0
M  V30 10422 C 981.922 -0.0232531 1.69384 0
M  V30 10423 O 983.128 0.131773 1.79517 0
M  V30 10424 H 979.503 0.320492 0.680286 0
M  V30 10425 H 981.474 1.99055 2.22306 0
M  V30 10426 C 980.223 0.671246 3.41159 0
M  V30 10427 H 979.546 1.48395 3.7124 0
M  V30 10428 H 980.986 0.567608 4.20184 0
M  V30 10429 C 979.445 -0.622124 3.31106 0
M  V30 10430 O 979.975 -1.66627 3.65511 0
M  V30 10431 N 978.181 -0.605009 2.84232 0
M  V30 10432 H 977.728 0.245052 2.56432 0
M  V30 10433 H 977.686 -1.47056 2.77888 0
M  V30 10434 N 981.458 -1.16348 1.06306 0
M  V30 10435 C 982.698 -1.88556 0.789055 0
M  V30 10436 C 983.062 -1.79849 -0.672179 0
M  V30 10437 O 984.263 -2.46984 -1.06078 0
M  V30 10438 C 982.534 -3.34069 1.27016 0
M  V30 10439 S 984.093 -4.24128 1.12522 0
M  V30 10440 H 980.911 -0.65084 0.286232 0
M  V30 10441 H 983.513 -1.40443 1.36 0
M  V30 10442 H 982.217 -3.37944 2.32856 0
M  V30 10443 H 981.748 -3.87231 0.693963 0
M  V30 10444 H 983.763 -4.96168 0.0562142 0
M  V30 10445 N 982.937 -0.845659 -1.3299 0
M  V30 10446 C 984.186 -0.440928 -1.96822 0
M  V30 10447 C 984.499 1.00668 -1.67706 0
M  V30 10448 O 985.705 1.51641 -2.25205 0
M  V30 10449 C 984.161 -0.73752 -3.52262 0
M  V30 10450 C 983.769 -2.20026 -3.90247 0
M  V30 10451 C 985.513 -0.400072 -4.22611 0
M  V30 10452 C 983.42 -2.44054 -5.38694 0
M  V30 10453 H 982.35 -0.161148 -0.736578 0
M  V30 10454 H 985.001 -1.03519 -1.51513 0
M  V30 10455 H 983.383 -0.0728025 -3.95933 0
M  V30 10456 H 984.557 -2.90602 -3.57613 0
M  V30 10457 H 982.872 -2.50135 -3.32899 0
M  V30 10458 H 985.469 -0.557136 -5.3179 0
M  V30 10459 H 985.812 0.657547 -4.11074 0
M  V30 10460 H 986.345 -1.0203 -3.84493 0
M  V30 10461 H 983.084 -3.48407 -5.55241 0
M  V30 10462 H 982.604 -1.78047 -5.72765 0
M  V30 10463 H 984.283 -2.27549 -6.05665 0
M  V30 10464 N 984.415 1.45619 -0.602734 0
M  V30 10465 C 985.378 2.28941 0.108962 0
M  V30 10466 C 986.378 1.39501 0.799762 0
M  V30 10467 O 987.568 1.61673 0.648663 0
M  V30 10468 C 984.7 3.204 1.16432 0
M  V30 10469 H 985.893 2.93346 -0.623534 0
M  V30 10470 H 983.446 1.52061 -0.361565 0
M  V30 10471 H 984.181 2.60785 1.92774 0
M  V30 10472 H 983.966 3.86277 0.673248 0
M  V30 10473 H 985.456 3.83063 1.6629 0
M  V30 10474 N 985.893 0.34162 1.53853 0
M  V30 10475 C 987.309 -0.0103769 1.59597 0
M  V30 10476 C 987.509 -1.48897 1.35764 0
M  V30 10477 O 986.565 -2.24743 1.15095 0
M  V30 10478 C 987.878 0.424067 2.97695 0
M  V30 10479 C 989.426 0.376247 3.1073 0
M  V30 10480 C 989.901 0.786129 4.51203 0
M  V30 10481 N 991.392 0.74024 4.57247 0
M  V30 10482 C 992.127 1.02937 5.64085 0
M  V30 10483 N 991.623 1.38655 6.78783 0
M  V30 10484 N 993.416 0.953734 5.5395 0
M  V30 10485 H 985.567 1.30477 1.67599 0
M  V30 10486 H 987.83 0.531753 0.78482 0
M  V30 10487 H 987.536 1.45493 3.20195 0
M  V30 10488 H 987.41 -0.201713 3.7666 0
M  V30 10489 H 989.797 -0.645441 2.87955 0
M  V30 10490 H 989.878 1.0372 2.33828 0
M  V30 10491 H 989.522 1.80582 4.74713 0
M  V30 10492 H 989.452 0.102671 5.265 0
M  V30 10493 H 991.943 0.476763 3.7488 0
M  V30 10494 H 992.256 1.59206 7.56223 0
M  V30 10495 H 990.601 1.42498 6.80235 0
M  V30 10496 H 993.792 0.674044 4.63222 0
M  V30 10497 H 993.965 1.18241 6.37121 0
M  V30 10498 N 987.371 -1.57444 0.0701946 0
M  V30 10499 C 988.62 -1.92605 -0.598849 0
M  V30 10500 C 988.933 -0.952058 -1.70866 0
M  V30 10501 O 990.139 -1.19643 -2.43716 0
M  V30 10502 C 988.595 -3.42142 -1.11655 0
M  V30 10503 C 988.203 -4.47984 -0.0378355 0
M  V30 10504 C 989.947 -3.86307 -1.75975 0
M  V30 10505 C 987.854 -5.88652 -0.569495 0
M  V30 10506 H 986.784 -0.718873 -0.22746 0
M  V30 10507 H 989.435 -1.82948 0.14217 0
M  V30 10508 H 987.817 -3.46866 -1.91049 0
M  V30 10509 H 988.991 -4.54874 0.736661 0
M  V30 10510 H 987.306 -4.13277 0.50904 0
M  V30 10511 H 989.903 -4.88784 -2.16782 0
M  V30 10512 H 990.246 -3.23587 -2.61911 0
M  V30 10513 H 990.779 -3.84179 -1.03206 0
M  V30 10514 H 987.518 -6.55013 0.252662 0
M  V30 10515 H 987.038 -5.85285 -1.31155 0
M  V30 10516 H 988.717 -6.38482 -1.04641 0
M  V30 10517 N 988.849 0.203349 -1.56283 0
M  V30 10518 C 990.096 0.92501 -1.80138 0
M  V30 10519 C 990.424 1.83598 -0.64204 0
M  V30 10520 O 989.679 1.92119 0.372658 0
M  V30 10521 C 989.978 1.78016 -3.09912 0
M  V30 10522 C 989.644 1.02088 -4.39191 0
M  V30 10523 C 988.306 0.811208 -4.74313 0
M  V30 10524 C 990.658 0.486037 -5.18929 0
M  V30 10525 C 987.986 0.0550856 -5.86674 0
M  V30 10526 C 990.338 -0.256833 -6.32078 0
M  V30 10527 C 989.002 -0.477594 -6.65789 0
M  V30 10528 H 988.272 0.338485 -0.659173 0
M  V30 10529 H 990.919 0.191923 -1.90536 0
M  V30 10530 H 989.224 2.58167 -2.94715 0
M  V30 10531 H 990.921 2.341 -3.25574 0
M  V30 10532 H 987.511 1.1943 -4.11624 0
M  V30 10533 H 991.695 0.635446 -4.92215 0
M  V30 10534 H 986.951 -0.126006 -6.1127 0
M  V30 10535 H 991.125 -0.678683 -6.93085 0
M  V30 10536 H 988.752 -1.0654 -7.52697 0
M  V30 10537 N 990.327 1.50405 0.470755 0
M  V30 10538 C 991.604 1.51929 1.23195 0
M  V30 10539 C 991.984 0.264159 2.09441 0
M  V30 10540 O 991.332 -0.752395 2.15757 0
M  V30 10541 C 991.542 2.81521 2.06269 0
M  V30 10542 C 992.89 3.32195 2.64446 0
M  V30 10543 O 993.914 2.82845 2.16511 0
M  V30 10544 O 992.773 4.18221 3.51786 0
M  V30 10545 H 989.867 0.609411 0.559059 0
M  V30 10546 H 992.413 1.62695 0.482549 0
M  V30 10547 H 991.185 3.64346 1.42715 0
M  V30 10548 H 990.808 2.7376 2.88342 0
M  V30 10549 N 991.805 -0.723954 1.39988 0
M  V30 10550 C 993.053 -1.48078 1.3754 0
M  V30 10551 C 993.374 -1.94985 -0.0243358 0
M  V30 10552 O 992.644 -1.69764 -0.977602 0
M  V30 10553 H 991.224 -0.549354 0.506181 0
M  V30 10554 H 993.886 -0.858746 1.74962 0
M  V30 10555 H 992.982 -2.35763 2.04505 0
M  V30 10556 N 993.283 -1.25346 -0.955304 0
M  V30 10557 C 994.529 -1.10218 -1.70235 0
M  V30 10558 C 994.862 0.356124 -1.90907 0
M  V30 10559 O 994.137 1.26253 -1.47954 0
M  V30 10560 C 994.42 -1.85627 -3.08569 0
M  V30 10561 C 994.273 -3.39281 -2.95311 0
M  V30 10562 C 995.592 -1.63886 -4.08448 0
M  V30 10563 H 992.711 -0.401781 -0.617852 0
M  V30 10564 H 995.353 -1.5417 -1.11048 0
M  V30 10565 H 993.503 -1.48269 -3.59094 0
M  V30 10566 H 995.175 -3.8631 -2.52116 0
M  V30 10567 H 993.418 -3.67027 -2.31244 0
M  V30 10568 H 994.089 -3.87258 -3.93364 0
M  V30 10569 H 996.565 -1.96406 -3.6683 0
M  V30 10570 H 995.441 -2.19087 -5.03281 0
M  V30 10571 H 995.702 -0.580021 -4.38279 0
M  V30 10572 N 994.761 1.15782 -1.06922 0
M  V30 10573 C 995.708 2.2038 -0.685659 0
M  V30 10574 C 996.678 1.62972 0.320816 0
M  V30 10575 O 997.863 1.8966 0.208258 0
M  V30 10576 C 995.003 3.44995 -0.084998 0
M  V30 10577 C 994.116 4.16621 -1.14242 0
M  V30 10578 C 993.251 5.28773 -0.507226 0
M  V30 10579 C 992.29 5.92209 -1.54774 0
M  V30 10580 N 991.427 6.9584 -0.935443 0
M  V30 10581 H 996.267 2.5254 -1.58201 0
M  V30 10582 H 993.804 1.24031 -0.790864 0
M  V30 10583 H 995.762 4.16254 0.280845 0
M  V30 10584 H 994.392 3.13365 0.774725 0
M  V30 10585 H 993.444 3.43903 -1.62589 0
M  V30 10586 H 994.756 4.59884 -1.93154 0
M  V30 10587 H 993.91 6.06635 -0.0887719 0
M  V30 10588 H 992.649 4.8669 0.313704 0
M  V30 10589 H 991.654 5.13063 -1.97602 0
M  V30 10590 H 992.879 6.3637 -2.37088 0
M  V30 10591 H 990.825 6.5586 -0.135339 0
M  V30 10592 H 990.742 7.37508 -1.66186 0
M  V30 10593 H 992.01 7.77611 -0.542346 0
M  V30 10594 N 996.239 0.8527 1.3254 0
M  V30 10595 C 997.187 0.284659 2.30852 0
M  V30 10596 C 998.181 -0.5909 1.5876 0
M  V30 10597 O 999.387 -0.478922 1.73512 0
M  V30 10598 H 995.762 0.0733452 0.748415 0
M  V30 10599 H 997.733 1.1281 2.76254 0
M  V30 10600 C 996.482 -0.51379 3.43883 0
M  V30 10601 H 995.805 0.150644 3.99516 0
M  V30 10602 H 997.245 -0.876866 4.14834 0
M  V30 10603 C 995.704 -1.69823 2.90967 0
M  V30 10604 O 996.234 -2.79727 2.88298 0
M  V30 10605 N 994.44 -1.52465 2.47392 0
M  V30 10606 H 993.987 -0.630599 2.49762 0
M  V30 10607 H 993.945 -2.31859 2.12341 0
M  V30 10608 N 997.718 -1.45297 0.610449 0
M  V30 10609 C 998.966 -2.01819 0.106548 0
M  V30 10610 C 999.287 -1.48102 -1.26849 0
M  V30 10611 O 998.557 -0.676411 -1.83852 0
M  V30 10612 H 997.137 -0.746113 0.0363982 0
M  V30 10613 H 999.799 -1.78061 0.792491 0
M  V30 10614 H 998.895 -3.12045 0.0585 0
M  V30 10615 N 999.196 -0.349774 -1.5367 0
M  V30 10616 C 1000.16 0.491676 -2.23864 0
M  V30 10617 C 1001.16 1.02256 -1.24098 0
M  V30 10618 O 1002.35 0.910816 -1.48492 0
M  V30 10619 C 999.481 1.68557 -2.96313 0
M  V30 10620 H 1000.67 -0.12233 -2.9965 0
M  V30 10621 H 998.227 -0.101214 -1.55972 0
M  V30 10622 H 998.962 2.3381 -2.2473 0
M  V30 10623 H 998.747 1.31203 -3.69497 0
M  V30 10624 H 1000.24 2.28225 -3.49718 0
M  V30 10625 N 1000.67 1.57404 -0.0785433 0
M  V30 10626 C 1001.61 2.101 0.916013 0
M  V30 10627 C 1002.62 1.03459 1.25698 0
M  V30 10628 O 1003.81 1.30954 1.21299 0
M  V30 10629 C 1000.91 2.55202 2.22992 0
M  V30 10630 C 1000.08 3.85491 2.06678 0
M  V30 10631 C 999.14 4.16614 3.21433 0
M  V30 10632 O 998.166 4.86105 2.96126 0
M  V30 10633 N 999.368 3.70697 4.46726 0
M  V30 10634 H 1002.13 2.96054 0.466059 0
M  V30 10635 H 999.694 1.61546 0.107006 0
M  V30 10636 H 1001.69 2.7308 2.9868 0
M  V30 10637 H 1000.26 1.74348 2.59464 0
M  V30 10638 H 999.476 3.76925 1.15417 0
M  V30 10639 H 1000.76 4.70759 1.93036 0
M  V30 10640 H 1000.16 3.14571 4.70172 0
M  V30 10641 H 998.719 3.93762 5.19418 0
M  V30 10642 N 1002.15 -0.195058 1.56388 0
M  V30 10643 C 1003.57 -0.545894 1.49974 0
M  V30 10644 C 1003.77 -1.85851 0.778568 0
M  V30 10645 O 1002.82 -2.50346 0.329105 0
M  V30 10646 C 1004.14 -0.600599 2.94641 0
M  V30 10647 C 1005.68 -0.689429 3.05313 0
M  V30 10648 C 1006.16 -0.775243 4.51391 0
M  V30 10649 N 1007.65 -0.838769 4.55542 0
M  V30 10650 C 1008.39 -0.925337 5.65884 0
M  V30 10651 N 1007.88 -0.974204 6.85916 0
M  V30 10652 N 1009.67 -0.962528 5.53798 0
M  V30 10653 H 1001.83 0.66595 2.0169 0
M  V30 10654 H 1004.09 0.237215 0.917842 0
M  V30 10655 H 1003.79 0.29478 3.50462 0
M  V30 10656 H 1003.67 -1.45528 3.47996 0
M  V30 10657 H 1006.06 -1.57524 2.4954 0
M  V30 10658 H 1006.14 0.191451 2.55083 0
M  V30 10659 H 1005.78 0.106215 5.07789 0
M  V30 10660 H 1005.71 -1.67193 4.99354 0
M  V30 10661 H 1008.2 -0.810249 3.69112 0
M  V30 10662 H 1008.51 -1.04077 7.6576 0
M  V30 10663 H 1006.86 -0.942881 6.88574 0
M  V30 10664 H 1010.05 -0.921188 4.58946 0
M  V30 10665 H 1010.22 -1.02653 6.39817 0
M  V30 10666 N 1003.63 -1.50653 -0.462772 0
M  V30 10667 C 1005.04 -1.54821 -1.04342 0
M  V30 10668 C 1005.39 -0.356595 -1.92932 0
M  V30 10669 O 1004.52 0.529579 -2.0982 0
M  V30 10670 C 1005.11 -2.80571 -1.89909 0
M  V30 10671 C 1003.67 -2.87394 -2.43067 0
M  V30 10672 C 1002.82 -2.49206 -1.21621 0
M  V30 10673 H 1005.77 -1.56797 -0.245048 0
M  V30 10674 H 1005.79 -2.62897 -2.75074 0
M  V30 10675 H 1005.3 -3.67281 -1.25405 0
M  V30 10676 H 1003.4 -2.05055 -3.111 0
M  V30 10677 H 1003.52 -3.90477 -2.77605 0
M  V30 10678 H 1001.88 -2.01829 -1.55361 0
M  V30 10679 H 1002.66 -3.38233 -0.587669 0
M  V30 10680 N 1005.11 0.71652 -1.4037 0
M  V30 10681 C 1006.06 1.8306 -1.40562 0
M  V30 10682 C 1007.03 1.64009 -0.262697 0
M  V30 10683 O 1008.21 1.85157 -0.460619 0
M  V30 10684 C 1005.35 3.2076 -1.27307 0
M  V30 10685 C 1004.46 3.51389 -2.51296 0
M  V30 10686 C 1003.6 4.78589 -2.30491 0
M  V30 10687 C 1002.64 5.02119 -3.50061 0
M  V30 10688 N 1001.77 6.20533 -3.28457 0
M  V30 10689 H 1006.61 1.82231 -2.35788 0
M  V30 10690 H 1004.15 0.890198 -1.17106 0
M  V30 10691 H 1006.11 4.00274 -1.17628 0
M  V30 10692 H 1004.74 3.2082 -0.357005 0
M  V30 10693 H 1003.79 2.66436 -2.71507 0
M  V30 10694 H 1005.1 3.64686 -3.40302 0
M  V30 10695 H 1004.26 5.66119 -2.1816 0
M  V30 10696 H 1003 4.67499 -1.38909 0
M  V30 10697 H 1002 4.13044 -3.6287 0
M  V30 10698 H 1003.23 5.15082 -4.42569 0
M  V30 10699 H 1001.17 6.10695 -2.39556 0
M  V30 10700 H 1001.09 6.34502 -4.11027 0
M  V30 10701 H 1002.36 7.10853 -3.19857 0
M  V30 10702 N 1006.59 1.25851 0.948643 0
M  V30 10703 C 1007.83 1.10954 1.69397 0
M  V30 10704 C 1008.16 -0.348443 1.91353 0
M  V30 10705 O 1007.42 -1.27285 1.48651 0
M  V30 10706 C 1007.72 1.81565 3.07846 0
M  V30 10707 C 1007.38 3.31477 3.0567 0
M  V30 10708 C 1006.04 3.72371 3.04784 0
M  V30 10709 C 1008.4 4.27225 2.98543 0
M  V30 10710 C 1005.72 5.07416 2.94527 0
M  V30 10711 C 1008.08 5.62301 2.89828 0
M  V30 10712 C 1006.74 6.02516 2.87281 0
M  V30 10713 H 1006.01 0.406011 0.619868 0
M  V30 10714 H 1008.66 1.562 1.10787 0
M  V30 10715 H 1006.96 1.28767 3.70035 0
M  V30 10716 H 1008.66 1.67486 3.64348 0
M  V30 10717 H 1005.25 2.98941 3.07135 0
M  V30 10718 H 1009.43 3.96618 2.98342 0
M  V30 10719 H 1004.69 5.37746 2.90928 0
M  V30 10720 H 1008.86 6.36182 2.83276 0
M  V30 10721 H 1006.49 7.07116 2.79089 0
M  V30 10722 N 1008.06 -1.15214 1.07534 0
M  V30 10723 C 1009.31 -1.85388 0.794617 0
M  V30 10724 C 1009.63 -1.83331 -0.681838 0
M  V30 10725 O 1010.83 -2.49207 -1.0774 0
M  V30 10726 C 1009.29 -3.32747 1.37141 0
M  V30 10727 C 1008.9 -3.43244 2.87902 0
M  V30 10728 C 1010.64 -4.08093 1.16879 0
M  V30 10729 C 1008.55 -4.84762 3.38763 0
M  V30 10730 H 1007.48 -0.694499 0.293577 0
M  V30 10731 H 1010.13 -1.29944 1.29564 0
M  V30 10732 H 1008.51 -3.87874 0.798121 0
M  V30 10733 H 1009.68 -2.98214 3.51291 0
M  V30 10734 H 1008 -2.81345 3.06975 0
M  V30 10735 H 1010.6 -5.12535 1.52353 0
M  V30 10736 H 1010.94 -4.1616 0.107958 0
M  V30 10737 H 1011.47 -3.59241 1.70854 0
M  V30 10738 H 1008.21 -4.81879 4.4438 0
M  V30 10739 H 1007.73 -5.30366 2.80128 0
M  V30 10740 H 1009.41 -5.53624 3.34827 0
M  V30 10741 N 1009.54 -0.859717 -1.32086 0
M  V30 10742 C 1010.77 -0.478865 -2.01796 0
M  V30 10743 C 1011.19 0.918274 -1.64163 0
M  V30 10744 O 1010.55 1.60409 -0.844896 0
M  V30 10745 C 1010.6 -0.631356 -3.5503 0
M  V30 10746 O 1009.7 0.333712 -4.11048 0
M  V30 10747 H 1009.04 -0.191775 -0.635703 0
M  V30 10748 H 1011.57 -1.16031 -1.68517 0
M  V30 10749 H 1011.58 -0.520783 -4.04663 0
M  V30 10750 H 1010.26 -1.65015 -3.81763 0
M  V30 10751 H 1008.84 0.178953 -3.7247 0
M  V30 10752 N 1011.02 1.44971 -0.618145 0
M  V30 10753 C 1012.43 1.85611 -0.201334 0
M  V30 10754 C 1012.78 1.51698 1.24427 0
M  V30 10755 O 1011.91 0.94875 1.94493 0
M  V30 10756 C 1012.5 3.36897 -0.358619 0
M  V30 10757 C 1011.06 3.764 0.00358196 0
M  V30 10758 C 1010.21 2.68881 -0.678118 0
M  V30 10759 H 1013.16 1.35622 -0.824152 0
M  V30 10760 H 1013.18 3.78326 0.406176 0
M  V30 10761 H 1012.69 3.61548 -1.41084 0
M  V30 10762 H 1010.79 3.57365 1.05457 0
M  V30 10763 H 1010.91 4.77449 -0.397427 0
M  V30 10764 H 1009.27 2.54442 -0.114699 0
M  V30 10765 H 1010.05 2.96367 -1.73268 0
M  V30 10766 N 1012.5 0.357919 1.53482 0
M  V30 10767 C 1013.72 -0.237769 2.06033 0
M  V30 10768 C 1014.15 -1.42292 1.23023 0
M  V30 10769 O 1013.51 -1.79604 0.247427 0
M  V30 10770 C 1013.55 -0.616806 3.55286 0
M  V30 10771 O 1012.66 -1.71503 3.75047 0
M  V30 10772 H 1012 -0.0364322 0.663 0
M  V30 10773 H 1014.53 0.516301 1.97979 0
M  V30 10774 H 1014.54 -0.88996 3.98175 0
M  V30 10775 H 1013.21 0.249825 4.15149 0
M  V30 10776 H 1011.79 -1.43803 3.44057 0
M  V30 10777 N 1013.98 -1.5736 0.0868897 0
M  V30 10778 C 1015.2 -1.98809 -0.590757 0
M  V30 10779 C 1015.63 -0.965407 -1.61436 0
M  V30 10780 O 1014.98 0.067143 -1.81176 0
M  V30 10781 C 1015.03 -3.39249 -1.22238 0
M  V30 10782 O 1014.14 -3.39706 -2.33824 0
M  V30 10783 H 1013.48 -0.64669 -0.150626 0
M  V30 10784 H 1016.01 -2.03927 0.165873 0
M  V30 10785 H 1016.02 -3.76765 -1.56564 0
M  V30 10786 H 1014.69 -4.13208 -0.472434 0
M  V30 10787 H 1013.27 -3.13977 -2.01178 0
M  V30 10788 N 1015.45 0.186762 -1.56489 0
M  V30 10789 C 1016.39 1.25565 -1.91745 0
M  V30 10790 C 1017.4 1.4128 -0.80894 0
M  V30 10791 O 1018.59 1.41558 -1.08737 0
M  V30 10792 C 1015.69 2.62662 -2.14154 0
M  V30 10793 C 1014.86 2.68448 -3.45333 0
M  V30 10794 C 1013.92 3.86798 -3.56754 0
M  V30 10795 O 1012.95 3.73514 -4.29507 0
M  V30 10796 N 1014.15 5.02607 -2.90459 0
M  V30 10797 H 1016.91 0.956351 -2.84032 0
M  V30 10798 H 1014.47 0.376631 -1.57458 0
M  V30 10799 H 1016.47 3.40277 -2.19075 0
M  V30 10800 H 1015.04 2.85046 -1.28326 0
M  V30 10801 H 1014.26 1.77044 -3.52206 0
M  V30 10802 H 1015.54 2.69311 -4.31682 0
M  V30 10803 H 1014.94 5.163 -2.31194 0
M  V30 10804 H 1013.5 5.78139 -3.00996 0
M  V30 10805 N 1016.93 1.50896 0.454776 0
M  V30 10806 C 1018.18 1.6294 1.20741 0
M  V30 10807 C 1018.51 0.336339 1.91265 0
M  V30 10808 O 1017.79 -0.663153 1.82846 0
M  V30 10809 C 1018.07 2.82092 2.23822 0
M  V30 10810 C 1017.92 4.21326 1.57495 0
M  V30 10811 C 1019.24 2.96777 3.24979 0
M  V30 10812 H 1016.36 0.59302 0.437603 0
M  V30 10813 H 1019 1.83331 0.498959 0
M  V30 10814 H 1017.15 2.64837 2.84243 0
M  V30 10815 H 1018.82 4.50209 1.00546 0
M  V30 10816 H 1017.07 4.24829 0.877664 0
M  V30 10817 H 1017.74 5.00656 2.32482 0
M  V30 10818 H 1020.21 3.12627 2.74597 0
M  V30 10819 H 1019.09 3.81742 3.94416 0
M  V30 10820 H 1019.35 2.08091 3.90065 0
M  V30 10821 N 1018.41 -0.709066 1.40748 0
M  V30 10822 C 1019.66 -1.46901 1.39378 0
M  V30 10823 C 1019.99 -1.945 -0.0016993 0
M  V30 10824 O 1019.24 -1.68963 -0.987426 0
M  V30 10825 C 1019.54 -2.70543 2.33541 0
M  V30 10826 C 1019.21 -2.41674 3.80663 0
M  V30 10827 C 1017.87 -2.33511 4.20745 0
M  V30 10828 C 1020.22 -2.1759 4.73607 0
M  V30 10829 C 1017.55 -1.99342 5.51797 0
M  V30 10830 C 1019.9 -1.84933 6.04965 0
M  V30 10831 C 1018.56 -1.75256 6.44082 0
M  V30 10832 H 1017.83 -0.537549 0.510021 0
M  V30 10833 H 1020.48 -0.811635 1.7345 0
M  V30 10834 H 1018.79 -3.41149 1.92677 0
M  V30 10835 H 1020.48 -3.2865 2.29761 0
M  V30 10836 H 1017.07 -2.48917 3.4891 0
M  V30 10837 H 1021.26 -2.22849 4.43454 0
M  V30 10838 H 1016.51 -1.90392 5.81 0
M  V30 10839 H 1020.69 -1.65313 6.76494 0
M  V30 10840 H 1018.31 -1.48547 7.45545 0
M  V30 10841 N 1019.89 -1.26353 -0.941956 0
M  V30 10842 C 1021.14 -1.11241 -1.68251 0
M  V30 10843 C 1021.45 0.344055 -1.9255 0
M  V30 10844 O 1022.66 0.615832 -2.64423 0
M  V30 10845 C 1021.11 -1.94269 -3.02965 0
M  V30 10846 C 1020.72 -3.44485 -2.86415 0
M  V30 10847 C 1022.47 -1.87764 -3.80716 0
M  V30 10848 C 1020.37 -4.19763 -4.16597 0
M  V30 10849 H 1019.3 -0.412694 -0.63103 0
M  V30 10850 H 1021.95 -1.50656 -1.04762 0
M  V30 10851 H 1020.34 -1.47687 -3.6743 0
M  V30 10852 H 1021.51 -3.9883 -2.30805 0
M  V30 10853 H 1019.82 -3.52218 -2.22107 0
M  V30 10854 H 1022.42 -2.41292 -4.77161 0
M  V30 10855 H 1022.76 -0.848195 -4.07568 0
M  V30 10856 H 1023.3 -2.32165 -3.23024 0
M  V30 10857 H 1020.04 -5.23173 -3.9493 0
M  V30 10858 H 1019.56 -3.70198 -4.71925 0
M  V30 10859 H 1021.24 -4.28168 -4.85058 0
M  V30 10860 N 1021.37 1.14642 -1.08144 0
M  V30 10861 C 1022.61 1.87277 -0.818953 0
M  V30 10862 C 1022.97 1.80896 0.643482 0
M  V30 10863 O 1024.17 2.4864 1.02135 0
M  V30 10864 C 1022.44 3.32006 -1.32314 0
M  V30 10865 S 1024 4.22284 -1.19256 0
M  V30 10866 H 1020.82 0.646204 -0.29655 0
M  V30 10867 H 1023.42 1.38261 -1.38217 0
M  V30 10868 H 1022.13 3.34197 -2.38203 0
M  V30 10869 H 1021.66 3.86078 -0.75548 0
M  V30 10870 H 1023.67 4.96016 -0.135143 0
M  V30 10871 N 1022.85 0.866709 1.31628 0
M  V30 10872 C 1023.78 0.335762 2.31073 0
M  V30 10873 C 1024.76 -0.571597 1.60209 0
M  V30 10874 O 1025.94 -0.489306 1.87935 0
M  V30 10875 C 1023.07 -0.466416 3.44154 0
M  V30 10876 C 1022.03 0.347561 4.26586 0
M  V30 10877 C 1021.35 -0.5801 5.31544 0
M  V30 10878 C 1022.65 1.57986 4.97833 0
M  V30 10879 H 1024.35 1.16673 2.75731 0
M  V30 10880 H 1021.89 0.56248 1.3256 0
M  V30 10881 H 1023.84 -0.84836 4.12772 0
M  V30 10882 H 1022.57 -1.33086 2.98254 0
M  V30 10883 H 1021.23 0.71141 3.59631 0
M  V30 10884 H 1020.88 -1.44174 4.81895 0
M  V30 10885 H 1020.58 -0.0393965 5.87587 0
M  V30 10886 H 1022.1 -0.958958 6.03023 0
M  V30 10887 H 1023.51 1.26954 5.59067 0
M  V30 10888 H 1021.91 2.05939 5.63657 0
M  V30 10889 H 1022.98 2.3345 4.25005 0
M  V30 10890 N 1024.32 -1.44642 0.625825 0
M  V30 10891 C 1025.57 -2.01695 0.127948 0
M  V30 10892 C 1025.89 -1.49439 -1.25271 0
M  V30 10893 O 1025.16 -0.695873 -1.83124 0
M  V30 10894 H 1023.74 -0.745685 0.0443096 0
M  V30 10895 H 1026.4 -1.7721 0.811332 0
M  V30 10896 H 1025.5 -3.11966 0.0915933 0
M  V30 10897 N 1025.8 -0.366053 -1.5329 0
M  V30 10898 C 1026.73 0.47211 -2.28677 0
M  V30 10899 C 1027.71 1.08353 -1.31125 0
M  V30 10900 O 1028.9 1.10069 -1.59995 0
M  V30 10901 C 1026.03 1.61174 -3.07637 0
M  V30 10902 C 1024.98 1.12755 -4.12881 0
M  V30 10903 C 1024.31 2.35745 -4.79925 0
M  V30 10904 C 1025.61 0.211954 -5.2187 0
M  V30 10905 H 1027.3 -0.156838 -2.98989 0
M  V30 10906 H 1024.85 -0.0768709 -1.43795 0
M  V30 10907 H 1026.8 2.20473 -3.59123 0
M  V30 10908 H 1025.52 2.26793 -2.35016 0
M  V30 10909 H 1024.18 0.557234 -3.6234 0
M  V30 10910 H 1023.83 2.99821 -4.03877 0
M  V30 10911 H 1023.53 2.04019 -5.51044 0
M  V30 10912 H 1025.06 2.95729 -5.34207 0
M  V30 10913 H 1026.47 0.71244 -5.68856 0
M  V30 10914 H 1024.87 -0.0144501 -6.00098 0
M  V30 10915 H 1025.94 -0.745753 -4.79131 0
M  V30 10916 N 1027.28 1.57312 -0.0952337 0
M  V30 10917 C 1028.53 1.93533 0.568131 0
M  V30 10918 C 1028.84 0.979121 1.6933 0
M  V30 10919 O 1030.05 1.23506 2.41782 0
M  V30 10920 C 1028.5 3.43875 1.06198 0
M  V30 10921 C 1028.11 4.47988 -0.0334397 0
M  V30 10922 C 1029.86 3.89057 1.69807 0
M  V30 10923 C 1027.76 5.89483 0.475774 0
M  V30 10924 H 1026.69 0.7224 0.215995 0
M  V30 10925 H 1029.34 1.82699 -0.171257 0
M  V30 10926 H 1027.73 3.49862 1.85506 0
M  V30 10927 H 1028.9 4.53644 -0.808934 0
M  V30 10928 H 1027.21 4.12415 -0.574725 0
M  V30 10929 H 1029.81 4.92171 2.08978 0
M  V30 10930 H 1030.15 3.27713 2.5673 0
M  V30 10931 H 1030.69 3.85772 0.970815 0
M  V30 10932 H 1027.43 6.54528 -0.356837 0
M  V30 10933 H 1026.95 5.87297 1.21827 0
M  V30 10934 H 1028.63 6.40066 0.944697 0
M  V30 10935 N 1028.76 -0.17846 1.56586 0
M  V30 10936 C 1029.69 -1.22342 1.98884 0
M  V30 10937 C 1030.67 -1.46564 0.86331 0
M  V30 10938 O 1031.85 -1.58019 1.12887 0
M  V30 10939 C 1028.98 -2.56396 2.34261 0
M  V30 10940 C 1027.94 -2.46756 3.49708 0
M  V30 10941 C 1027.26 -3.85235 3.70807 0
M  V30 10942 C 1028.56 -1.97838 4.83381 0
M  V30 10943 H 1030.26 -0.871848 2.86425 0
M  V30 10944 H 1027.8 -0.417948 1.37801 0
M  V30 10945 H 1029.76 -3.29695 2.62448 0
M  V30 10946 H 1028.48 -2.93327 1.43621 0
M  V30 10947 H 1027.14 -1.75912 3.21637 0
M  V30 10948 H 1026.79 -4.19547 2.7747 0
M  V30 10949 H 1026.49 -3.79655 4.48481 0
M  V30 10950 H 1028.01 -4.60131 4.01387 0
M  V30 10951 H 1029.43 -2.60906 5.10491 0
M  V30 10952 H 1027.82 -2.03223 5.64642 0
M  V30 10953 H 1028.89 -0.932339 4.75852 0
M  V30 10954 N 1030.24 -1.51135 -0.446768 0
M  V30 10955 C 1031.48 -1.63578 -1.19875 0
M  V30 10956 C 1031.81 -0.346478 -1.91084 0
M  V30 10957 O 1031.09 0.653447 -1.83195 0
M  V30 10958 C 1031.37 -2.83275 -2.22323 0
M  V30 10959 C 1031.23 -4.22155 -1.55259 0
M  V30 10960 C 1032.54 -2.98496 -3.23401 0
M  V30 10961 H 1029.66 -0.595333 -0.434452 0
M  V30 10962 H 1032.31 -1.83593 -0.48923 0
M  V30 10963 H 1030.46 -2.6634 -2.82834 0
M  V30 10964 H 1032.13 -4.50736 -0.981571 0
M  V30 10965 H 1030.37 -4.25288 -0.855122 0
M  V30 10966 H 1031.04 -5.01882 -2.29823 0
M  V30 10967 H 1033.52 -3.14079 -2.72935 0
M  V30 10968 H 1032.39 -3.83828 -3.92386 0
M  V30 10969 H 1032.65 -2.10157 -3.88956 0
M  V30 10970 N 1031.71 0.701592 -1.41122 0
M  V30 10971 C 1032.65 1.8268 -1.38422 0
M  V30 10972 C 1033.66 1.60244 -0.287342 0
M  V30 10973 O 1034.85 1.69859 -0.548658 0
M  V30 10974 C 1031.95 3.19338 -1.13475 0
M  V30 10975 C 1031.12 3.68853 -2.35088 0
M  V30 10976 C 1030.18 4.84163 -2.06089 0
M  V30 10977 O 1029.21 4.9609 -2.79077 0
M  V30 10978 N 1030.41 5.70972 -1.04743 0
M  V30 10979 H 1033.17 1.8549 -2.35401 0
M  V30 10980 H 1030.73 0.883682 -1.35656 0
M  V30 10981 H 1032.73 3.94095 -0.920377 0
M  V30 10982 H 1031.3 3.11589 -0.251152 0
M  V30 10983 H 1030.52 2.8507 -2.72266 0
M  V30 10984 H 1031.8 3.98673 -3.16129 0
M  V30 10985 H 1031.2 5.63961 -0.443221 0
M  V30 10986 H 1029.76 6.45654 -0.892949 0
M  V30 10987 N 1033.19 1.2685 0.935242 0
M  V30 10988 C 1034.44 1.12132 1.67658 0
M  V30 10989 C 1034.75 -0.333839 1.9273 0
M  V30 10990 O 1035.96 -0.601801 2.64746 0
M  V30 10991 C 1034.42 1.95873 3.0193 0
M  V30 10992 C 1034.02 3.46 2.84584 0
M  V30 10993 C 1035.77 1.89781 3.79715 0
M  V30 10994 C 1033.67 4.21966 4.14365 0
M  V30 10995 H 1032.6 0.416035 0.628833 0
M  V30 10996 H 1035.26 1.51209 1.03962 0
M  V30 10997 H 1033.64 1.49633 3.66641 0
M  V30 10998 H 1034.81 4.00049 2.28687 0
M  V30 10999 H 1033.13 3.53391 2.20236 0
M  V30 11000 H 1035.72 2.43819 4.75875 0
M  V30 11001 H 1036.07 0.869797 4.07112 0
M  V30 11002 H 1036.6 2.33875 3.21788 0
M  V30 11003 H 1033.34 5.2526 3.9215 0
M  V30 11004 H 1032.86 3.72696 4.69955 0
M  V30 11005 H 1034.54 4.30734 4.82781 0
M  V30 11006 N 1034.67 -1.14067 1.0875 0
M  V30 11007 C 1035.92 -1.85459 0.82053 0
M  V30 11008 C 1036.25 -1.82923 -0.65213 0
M  V30 11009 O 1035.52 -1.26241 -1.47965 0
M  V30 11010 C 1035.81 -3.33937 1.34752 0
M  V30 11011 C 1035.66 -3.45026 2.88578 0
M  V30 11012 C 1036.98 -4.2915 0.975636 0
M  V30 11013 H 1034.1 -0.673384 0.299538 0
M  V30 11014 H 1036.74 -1.33927 1.34772 0
M  V30 11015 H 1034.89 -3.77953 0.899086 0
M  V30 11016 H 1036.56 -3.09771 3.41818 0
M  V30 11017 H 1034.81 -2.86124 3.26061 0
M  V30 11018 H 1035.48 -4.49408 3.20526 0
M  V30 11019 H 1037.95 -3.93168 1.36228 0
M  V30 11020 H 1036.83 -5.31489 1.37152 0
M  V30 11021 H 1037.09 -4.41945 -0.116956 0
M  V30 11022 N 1036.15 -0.873678 -1.31166 0
M  V30 11023 C 1037.08 -0.276805 -2.26515 0
M  V30 11024 C 1038.06 0.596166 -1.51277 0
M  V30 11025 O 1039.24 0.548769 -1.80335 0
M  V30 11026 C 1036.37 0.607711 -3.33203 0
M  V30 11027 C 1035.42 -0.194411 -4.26057 0
M  V30 11028 S 1036.25 -1.57534 -5.11804 0
M  V30 11029 C 1037.41 -0.697047 -6.22006 0
M  V30 11030 H 1037.64 -1.08505 -2.76792 0
M  V30 11031 H 1035.17 -0.672419 -1.38989 0
M  V30 11032 H 1037.13 1.11234 -3.95142 0
M  V30 11033 H 1035.79 1.38994 -2.81673 0
M  V30 11034 H 1034.98 0.480094 -5.01708 0
M  V30 11035 H 1034.59 -0.631262 -3.68634 0
M  V30 11036 H 1036.88 0.0907919 -6.77439 0
M  V30 11037 H 1037.82 -1.42481 -6.93617 0
M  V30 11038 H 1038.23 -0.262954 -5.63887 0
M  V30 11039 N 1037.63 1.44308 -0.633487 0
M  V30 11040 C 1038.87 2.02322 -0.139123 0
M  V30 11041 C 1039.21 1.49733 1.23667 0
M  V30 11042 O 1038.48 0.682353 1.82138 0
M  V30 11043 C 1038.76 3.59871 -0.128366 0
M  V30 11044 C 1038.62 4.22737 -1.53667 0
M  V30 11045 C 1039.94 4.36702 0.545834 0
M  V30 11046 H 1037.05 0.735161 -0.0520293 0
M  V30 11047 H 1039.7 1.7185 -0.810411 0
M  V30 11048 H 1037.85 3.85963 0.443263 0
M  V30 11049 H 1039.52 4.07744 -2.15737 0
M  V30 11050 H 1037.76 3.80142 -2.08985 0
M  V30 11051 H 1038.43 5.31757 -1.48116 0
M  V30 11052 H 1040.91 4.16057 0.0596879 0
M  V30 11053 H 1039.78 5.46407 0.522557 0
M  V30 11054 H 1040.05 4.11483 1.6166 0
M  V30 11055 N 1039.1 0.374177 1.53094 0
M  V30 11056 C 1040.33 -0.215903 2.06273 0
M  V30 11057 C 1040.75 -1.40979 1.24526 0
M  V30 11058 O 1040.11 -1.79331 0.266462 0
M  V30 11059 C 1040.16 -0.579089 3.5592 0
M  V30 11060 O 1039.26 -1.67516 3.76845 0
M  V30 11061 H 1038.61 -0.0293981 0.663349 0
M  V30 11062 H 1041.14 0.537271 1.9742 0
M  V30 11063 H 1041.15 -0.847678 3.99097 0
M  V30 11064 H 1039.82 0.293843 4.14861 0
M  V30 11065 H 1038.4 -1.40146 3.45563 0
M  V30 11066 N 1040.58 -1.57259 0.103575 0
M  V30 11067 C 1041.83 -1.94945 -0.558953 0
M  V30 11068 C 1042.16 -0.986038 -1.67305 0
M  V30 11069 O 1041.44 -0.0205464 -1.94489 0
M  V30 11070 C 1041.72 -3.42689 -1.10617 0
M  V30 11071 C 1041.57 -4.498 0.00345246 0
M  V30 11072 C 1042.89 -3.91933 -2.00191 0
M  V30 11073 H 1040.01 -0.708859 -0.201713 0
M  V30 11074 H 1042.65 -1.89183 0.176006 0
M  V30 11075 H 1040.8 -3.4773 -1.73251 0
M  V30 11076 H 1042.47 -4.56866 0.638082 0
M  V30 11077 H 1040.72 -4.28615 0.668705 0
M  V30 11078 H 1041.39 -5.50397 -0.420396 0
M  V30 11079 H 1043.86 -3.89098 -1.4745 0
M  V30 11080 H 1042.74 -4.9586 -2.35402 0
M  V30 11081 H 1043 -3.31722 -2.92255 0
M  V30 11082 N 1042.06 0.170153 -1.56679 0
M  V30 11083 C 1043.31 0.883211 -1.83224 0
M  V30 11084 C 1043.66 1.7982 -0.68429 0
M  V30 11085 O 1042.95 1.88922 0.319204 0
M  V30 11086 C 1043.15 1.71402 -3.13618 0
M  V30 11087 C 1042.98 0.880967 -4.40986 0
M  V30 11088 C 1041.75 0.555594 -5.02236 0
M  V30 11089 C 1043.95 0.221986 -5.13821 0
M  V30 11090 N 1041.93 -0.293479 -6.13198 0
M  V30 11091 C 1043.3 -0.488202 -6.18075 0
M  V30 11092 C 1045.35 0.14027 -4.97702 0
M  V30 11093 C 1044.06 -1.27236 -7.07957 0
M  V30 11094 C 1046.08 -0.630556 -5.88029 0
M  V30 11095 C 1045.44 -1.3291 -6.91747 0
M  V30 11096 H 1041.54 0.301769 -0.721429 0
M  V30 11097 H 1044.13 0.150113 -1.9412 0
M  V30 11098 H 1042.3 2.41853 -3.03911 0
M  V30 11099 H 1044.03 2.36847 -3.28155 0
M  V30 11100 H 1040.79 0.885952 -4.6524 0
M  V30 11101 H 1041.21 -0.708359 -6.73284 0
M  V30 11102 H 1045.85 0.665983 -4.17522 0
M  V30 11103 H 1043.57 -1.80941 -7.87582 0
M  V30 11104 H 1047.16 -0.695468 -5.77628 0
M  V30 11105 H 1046.04 -1.916 -7.60433 0
M  V30 11106 N 1043.54 1.5137 0.438746 0
M  V30 11107 C 1044.47 1.75528 1.53987 0
M  V30 11108 C 1045.45 0.605067 1.58975 0
M  V30 11109 O 1046.63 0.847634 1.74725 0
M  V30 11110 C 1043.76 1.87904 2.92078 0
M  V30 11111 C 1042.72 3.0333 3.01951 0
M  V30 11112 C 1042.04 3.00888 4.42007 0
M  V30 11113 C 1043.34 4.43319 2.76163 0
M  V30 11114 H 1045.04 2.67728 1.34022 0
M  V30 11115 H 1042.58 1.28831 0.643308 0
M  V30 11116 H 1044.54 2.03388 3.69068 0
M  V30 11117 H 1043.26 0.923514 3.13271 0
M  V30 11118 H 1041.92 2.87549 2.274 0
M  V30 11119 H 1041.57 2.03116 4.60166 0
M  V30 11120 H 1041.27 3.78397 4.49544 0
M  V30 11121 H 1042.79 3.18464 5.20973 0
M  V30 11122 H 1044.21 4.59458 3.42887 0
M  V30 11123 H 1042.6 5.22523 2.9511 0
M  V30 11124 H 1043.67 4.53453 1.71779 0
M  V30 11125 N 1045.02 -0.694098 1.41492 0
M  V30 11126 C 1046.27 -1.4498 1.40227 0
M  V30 11127 C 1046.58 -1.95594 0.0151253 0
M  V30 11128 O 1047.78 -2.71234 -0.120146 0
M  V30 11129 C 1046.24 -2.62171 2.46565 0
M  V30 11130 C 1045.85 -2.18337 3.91194 0
M  V30 11131 C 1047.59 -3.39796 2.54439 0
M  V30 11132 C 1045.5 -3.32495 4.89082 0
M  V30 11133 H 1044.43 -0.544584 0.521483 0
M  V30 11134 H 1047.08 -0.75337 1.67322 0
M  V30 11135 H 1045.46 -3.34089 2.12604 0
M  V30 11136 H 1046.64 -1.53698 4.34412 0
M  V30 11137 H 1044.95 -1.53702 3.86994 0
M  V30 11138 H 1047.55 -4.2478 3.24755 0
M  V30 11139 H 1047.89 -3.85082 1.5817 0
M  V30 11140 H 1048.42 -2.74935 2.87499 0
M  V30 11141 H 1045.16 -2.92219 5.86761 0
M  V30 11142 H 1044.68 -3.95978 4.50512 0
M  V30 11143 H 1046.36 -3.98251 5.09907 0
M  V30 11144 N 1046.49 -1.27344 -0.928501 0
M  V30 11145 C 1047.42 -1.12517 -2.04602 0
M  V30 11146 C 1048.41 -0.0268563 -1.70079 0
M  V30 11147 O 1049.59 -0.201197 -1.93155 0
M  V30 11148 C 1046.72 -0.770749 -3.3864 0
M  V30 11149 C 1045.67 -1.8222 -3.87272 0
M  V30 11150 C 1045 -1.32178 -5.18105 0
M  V30 11151 C 1046.3 -3.22614 -4.10752 0
M  V30 11152 H 1047.99 -2.06 -2.17265 0
M  V30 11153 H 1045.54 -0.991827 -1.04397 0
M  V30 11154 H 1047.49 -0.653843 -4.16297 0
M  V30 11155 H 1046.22 0.19979 -3.25988 0
M  V30 11156 H 1044.88 -1.928 -3.11807 0
M  V30 11157 H 1044.52 -0.340719 -5.01845 0
M  V30 11158 H 1044.22 -2.02474 -5.51614 0
M  V30 11159 H 1045.75 -1.2178 -5.98333 0
M  V30 11160 H 1047.16 -3.1504 -4.78981 0
M  V30 11161 H 1045.56 -3.90614 -4.55566 0
M  V30 11162 H 1046.63 -3.67727 -3.16077 0
M  V30 11163 N 1047.97 1.13488 -1.09353 0
M  V30 11164 C 1048.88 2.2248 -0.744307 0
M  V30 11165 C 1049.9 1.72145 0.253404 0
M  V30 11166 O 1051.07 2.01176 0.0949339 0
M  V30 11167 C 1048.14 3.46286 -0.16928 0
M  V30 11168 C 1047.2 4.11516 -1.22284 0
M  V30 11169 C 1046.43 5.29412 -0.675161 0
M  V30 11170 O 1046.66 5.68185 0.502182 0
M  V30 11171 O 1045.59 5.8467 -1.42983 0
M  V30 11172 H 1049.42 2.54723 -1.65378 0
M  V30 11173 H 1047 1.21607 -0.867879 0
M  V30 11174 H 1048.88 4.2114 0.14811 0
M  V30 11175 H 1047.56 3.15745 0.713214 0
M  V30 11176 H 1046.47 3.38492 -1.59292 0
M  V30 11177 H 1047.8 4.46186 -2.07796 0
M  V30 11178 N 1049.45 0.880621 1.30701 0
M  V30 11179 C 1050.41 0.349087 2.26526 0
M  V30 11180 C 1051.41 -0.505973 1.52632 0
M  V30 11181 O 1052.6 -0.313751 1.71351 0
M  V30 11182 C 1049.74 -0.503023 3.37168 0
M  V30 11183 H 1050.93 1.19516 2.75056 0
M  V30 11184 H 1048.48 0.657107 1.41816 0
M  V30 11185 H 1049.22 -1.36986 2.93948 0
M  V30 11186 H 1049 0.109389 3.91947 0
M  V30 11187 H 1050.49 -0.866845 4.08504 0
M  V30 11188 N 1050.93 -1.4397 0.641131 0
M  V30 11189 C 1052.34 -1.85267 0.230838 0
M  V30 11190 C 1052.69 -1.53659 -1.21998 0
M  V30 11191 O 1051.82 -0.979572 -1.92959 0
M  V30 11192 C 1052.41 -3.36284 0.412171 0
M  V30 11193 C 1050.97 -3.76358 0.0563004 0
M  V30 11194 C 1050.12 -2.67768 0.720809 0
M  V30 11195 H 1053.07 -1.34294 0.845624 0
M  V30 11196 H 1053.09 -3.78924 -0.345936 0
M  V30 11197 H 1052.6 -3.59258 1.46818 0
M  V30 11198 H 1050.7 -3.58997 -0.997582 0
M  V30 11199 H 1050.82 -4.76756 0.473335 0
M  V30 11200 H 1049.18 -2.54227 0.155164 0
M  V30 11201 H 1049.96 -2.93573 1.77961 0
M  V30 11202 N 1052.41 -0.382291 -1.52893 0
M  V30 11203 C 1053.66 0.201734 -2.01091 0
M  V30 11204 C 1053.98 1.47905 -1.2708 0
M  V30 11205 O 1053.25 1.92002 -0.38883 0
M  V30 11206 H 1051.83 0.0775373 -0.742965 0
M  V30 11207 H 1054.49 -0.512369 -1.88045 0
M  V30 11208 H 1053.58 0.416919 -3.09303 0
M  V30 11209 N 1053.89 1.57202 -0.111913 0
M  V30 11210 C 1055.11 1.99297 0.555713 0
M  V30 11211 C 1055.53 0.991444 1.60673 0
M  V30 11212 O 1054.89 -0.0166672 1.82492 0
M  V30 11213 C 1054.94 3.41413 1.18826 0
M  V30 11214 O 1054.66 4.37733 0.179261 0
M  V30 11215 C 1056.16 3.98602 1.93989 0
M  V30 11216 H 1053.38 0.654543 0.147695 0
M  V30 11217 H 1055.92 2.03557 -0.196163 0
M  V30 11218 H 1054.08 3.38115 1.89096 0
M  V30 11219 H 1054.49 5.20606 0.637935 0
M  V30 11220 H 1055.97 5.00143 2.33584 0
M  V30 11221 H 1056.44 3.37349 2.81233 0
M  V30 11222 H 1057.05 4.05424 1.28497 0
M  V30 11223 N 1055.36 -0.161842 1.56767 0
M  V30 11224 C 1056.78 -0.51396 1.51098 0
M  V30 11225 C 1056.98 -1.84158 0.817815 0
M  V30 11226 O 1056.04 -2.49592 0.382133 0
M  V30 11227 C 1057.35 -0.537966 2.95849 0
M  V30 11228 C 1058.9 -0.624512 3.06706 0
M  V30 11229 C 1059.37 -0.679322 4.52934 0
M  V30 11230 N 1060.86 -0.741953 4.57219 0
M  V30 11231 C 1061.6 -0.805096 5.6772 0
M  V30 11232 N 1061.09 -0.828492 6.87828 0
M  V30 11233 N 1062.89 -0.844843 5.55715 0
M  V30 11234 H 1055.04 0.708581 2.00232 0
M  V30 11235 H 1057.3 0.25663 0.912603 0
M  V30 11236 H 1057.01 0.369052 3.49758 0
M  V30 11237 H 1056.88 -1.38113 3.51005 0
M  V30 11238 H 1059.27 -1.52195 2.52825 0
M  V30 11239 H 1059.35 0.245515 2.54619 0
M  V30 11240 H 1058.99 0.213901 5.07449 0
M  V30 11241 H 1058.92 -1.56563 5.02788 0
M  V30 11242 H 1061.41 -0.731772 3.70747 0
M  V30 11243 H 1061.73 -0.878109 7.67795 0
M  V30 11244 H 1060.07 -0.796612 6.9042 0
M  V30 11245 H 1063.26 -0.823632 4.60797 0
M  V30 11246 H 1063.44 -0.890588 6.41851 0
M  V30 11247 N 1056.84 -1.516 -0.430713 0
M  V30 11248 C 1058.26 -1.39923 -0.767706 0
M  V30 11249 C 1058.46 -0.486756 -1.95532 0
M  V30 11250 O 1057.51 0.0555965 -2.52439 0
M  V30 11251 C 1058.83 -2.82074 -1.04187 0
M  V30 11252 C 1060.37 -2.9127 -1.1459 0
M  V30 11253 C 1060.85 -4.34342 -1.45295 0
M  V30 11254 N 1062.34 -4.37479 -1.52206 0
M  V30 11255 C 1063.08 -5.45219 -1.77549 0
M  V30 11256 N 1062.57 -6.6311 -2.0064 0
M  V30 11257 N 1064.36 -5.32707 -1.79386 0
M  V30 11258 H 1056.52 -2.09474 0.351351 0
M  V30 11259 H 1058.78 -0.943247 0.0948151 0
M  V30 11260 H 1058.48 -3.50868 -0.241837 0
M  V30 11261 H 1058.36 -3.21805 -1.96777 0
M  V30 11262 H 1060.75 -2.2267 -1.93655 0
M  V30 11263 H 1060.83 -2.55026 -0.198854 0
M  V30 11264 H 1060.47 -5.03494 -0.667559 0
M  V30 11265 H 1060.4 -4.68105 -2.41217 0
M  V30 11266 H 1062.89 -3.52488 -1.36237 0
M  V30 11267 H 1063.2 -7.41012 -2.19366 0
M  V30 11268 H 1061.55 -6.66214 -1.97948 0
M  V30 11269 H 1064.74 -4.39589 -1.60869 0
M  V30 11270 H 1064.91 -6.16752 -1.98799 0
M  V30 11271 N 1058.32 0.686584 -1.41858 0
M  V30 11272 C 1059.55 1.47305 -1.44862 0
M  V30 11273 C 1059.96 1.8912 -0.0549286 0
M  V30 11274 O 1059.3 1.57941 0.938101 0
M  V30 11275 C 1059.36 2.76107 -2.30229 0
M  V30 11276 C 1059.03 2.5644 -3.78269 0
M  V30 11277 C 1060.02 2.21803 -4.70212 0
M  V30 11278 C 1057.71 2.71801 -4.22409 0
M  V30 11279 C 1059.7 2.02778 -6.04284 0
M  V30 11280 C 1057.39 2.52392 -5.56544 0
M  V30 11281 C 1058.39 2.17933 -6.47298 0
M  V30 11282 O 1058.08 1.98701 -7.78956 0
M  V30 11283 H 1057.81 0.460174 -0.495193 0
M  V30 11284 H 1060.36 0.852069 -1.86893 0
M  V30 11285 H 1058.59 3.40644 -1.83026 0
M  V30 11286 H 1060.28 3.37947 -2.24826 0
M  V30 11287 H 1061.05 2.09542 -4.37398 0
M  V30 11288 H 1056.93 2.97605 -3.52069 0
M  V30 11289 H 1060.47 1.75805 -6.75084 0
M  V30 11290 H 1056.37 2.64246 -5.88935 0
M  V30 11291 H 1057.13 2.13393 -7.90193 0
M  V30 11292 N 1059.8 1.27835 0.921735 0
M  V30 11293 C 1061.03 1.17352 1.704 0
M  V30 11294 C 1061.44 -0.268892 1.86875 0
M  V30 11295 O 1060.8 -1.18253 1.39005 0
M  V30 11296 C 1060.85 1.85889 3.10045 0
M  V30 11297 O 1060.57 3.24495 2.94338 0
M  V30 11298 C 1062.07 1.81607 4.04393 0
M  V30 11299 H 1059.29 0.40773 0.532914 0
M  V30 11300 H 1061.83 1.68815 1.15419 0
M  V30 11301 H 1059.99 1.38316 3.61867 0
M  V30 11302 H 1060.4 3.58705 3.82663 0
M  V30 11303 H 1061.88 2.34165 4.99871 0
M  V30 11304 H 1062.35 0.786697 4.32097 0
M  V30 11305 H 1062.96 2.28822 3.58498 0
M  V30 11306 N 1061.28 -1.12907 1.09954 0
M  V30 11307 C 1062.21 -2.20585 0.765799 0
M  V30 11308 C 1063.19 -1.68117 -0.258989 0
M  V30 11309 O 1064.37 -1.93792 -0.125853 0
M  V30 11310 C 1061.5 -3.46772 0.191435 0
M  V30 11311 C 1060.46 -4.12363 1.14635 0
M  V30 11312 C 1059.78 -5.3294 0.433426 0
M  V30 11313 C 1061.08 -4.59073 2.49096 0
M  V30 11314 H 1062.78 -2.48759 1.66612 0
M  V30 11315 H 1060.32 -1.19563 0.802534 0
M  V30 11316 H 1062.27 -4.21365 -0.0541535 0
M  V30 11317 H 1061 -3.18011 -0.744101 0
M  V30 11318 H 1059.66 -3.39744 1.37731 0
M  V30 11319 H 1059.31 -5.00444 -0.506422 0
M  V30 11320 H 1059.01 -5.77772 1.07018 0
M  V30 11321 H 1060.53 -6.10284 0.196267 0
M  V30 11322 H 1061.94 -5.25063 2.30177 0
M  V30 11323 H 1060.34 -5.14665 3.0861 0
M  V30 11324 H 1061.41 -3.73313 3.0946 0
M  V30 11325 N 1062.75 -0.88754 -1.30232 0
M  V30 11326 C 1063.72 -0.361095 -2.26338 0
M  V30 11327 C 1064.72 0.497871 -1.52898 0
M  V30 11328 O 1065.91 0.30466 -1.71515 0
M  V30 11329 C 1063.04 0.485135 -3.3743 0
M  V30 11330 H 1064.23 -1.20973 -2.74419 0
M  V30 11331 H 1061.78 -0.664619 -1.41466 0
M  V30 11332 H 1062.52 1.35425 -2.9467 0
M  V30 11333 H 1062.3 -0.130173 -3.91884 0
M  V30 11334 H 1063.79 0.845169 -4.08958 0
M  V30 11335 N 1064.23 1.43628 -0.648757 0
M  V30 11336 C 1065.14 2.34554 0.0463037 0
M  V30 11337 C 1066.16 1.53629 0.816952 0
M  V30 11338 O 1067.33 1.86297 0.765212 0
M  V30 11339 C 1064.4 3.3185 1.00381 0
M  V30 11340 C 1063.46 4.2868 0.230589 0
M  V30 11341 C 1062.69 5.21328 1.14249 0
M  V30 11342 O 1062.92 5.18298 2.38166 0
M  V30 11343 O 1061.85 5.98726 0.617296 0
M  V30 11344 H 1065.68 2.95475 -0.702008 0
M  V30 11345 H 1063.26 1.43694 -0.408942 0
M  V30 11346 H 1065.14 3.91692 1.5542 0
M  V30 11347 H 1063.82 2.73439 1.73243 0
M  V30 11348 H 1062.73 3.72332 -0.363282 0
M  V30 11349 H 1064.06 4.90061 -0.458368 0
M  V30 11350 N 1065.71 0.390394 1.52688 0
M  V30 11351 C 1066.66 -0.444229 2.26485 0
M  V30 11352 C 1067.63 -1.05688 1.28138 0
M  V30 11353 O 1068.81 -1.0847 1.56968 0
M  V30 11354 C 1065.95 -1.56501 3.07574 0
M  V30 11355 C 1065.07 -0.975111 4.20851 0
M  V30 11356 C 1064.2 -2.06704 4.89333 0
M  V30 11357 C 1063.24 -1.45309 5.94602 0
M  V30 11358 N 1062.38 -2.48437 6.56676 0
M  V30 11359 H 1067.22 0.191535 2.97384 0
M  V30 11360 H 1064.75 0.106287 1.46716 0
M  V30 11361 H 1066.71 -2.22558 3.52879 0
M  V30 11362 H 1065.34 -2.17107 2.38881 0
M  V30 11363 H 1064.39 -0.204109 3.79852 0
M  V30 11364 H 1065.71 -0.486465 4.96422 0
M  V30 11365 H 1064.86 -2.80528 5.37949 0
M  V30 11366 H 1063.6 -2.58928 4.13289 0
M  V30 11367 H 1062.6 -0.700091 5.45324 0
M  V30 11368 H 1063.83 -0.938775 6.7258 0
M  V30 11369 H 1061.77 -2.99829 5.83471 0
M  V30 11370 H 1061.69 -2.04331 7.27863 0
M  V30 11371 H 1062.96 -3.21888 7.09935 0
M  V30 11372 N 1067.19 -1.57141 0.120249 0
M  V30 11373 C 1068.6 -1.5784 -0.236335 0
M  V30 11374 C 1068.8 -1.13304 -1.66626 0
M  V30 11375 O 1067.86 -0.821004 -2.3878 0
M  V30 11376 C 1069.17 -3.007 -0.00188211 0
M  V30 11377 C 1070.72 -3.12927 -0.0676838 0
M  V30 11378 C 1071.2 -4.57789 0.139092 0
M  V30 11379 N 1072.69 -4.63122 0.085104 0
M  V30 11380 C 1073.42 -5.72978 0.219983 0
M  V30 11381 N 1072.92 -6.91579 0.411102 0
M  V30 11382 N 1074.71 -5.61874 0.159469 0
M  V30 11383 H 1066.86 -1.84391 1.05422 0
M  V30 11384 H 1069.13 -0.852228 0.415225 0
M  V30 11385 H 1068.83 -3.37575 0.986718 0
M  V30 11386 H 1068.71 -3.70005 -0.733203 0
M  V30 11387 H 1071.09 -2.75909 -1.04681 0
M  V30 11388 H 1071.17 -2.46162 0.695538 0
M  V30 11389 H 1070.82 -4.95506 1.1152 0
M  V30 11390 H 1070.75 -5.22646 -0.644131 0
M  V30 11391 H 1073.24 -3.77854 -0.0590479 0
M  V30 11392 H 1073.55 -7.71149 0.504851 0
M  V30 11393 H 1071.9 -6.9356 0.447091 0
M  V30 11394 H 1075.09 -4.68099 0.0111131 0
M  V30 11395 H 1075.26 -6.47445 0.268028 0
M  V30 11396 N 1068.67 0.153526 -1.5685 0
M  V30 11397 C 1069.58 1.20932 -2.01029 0
M  V30 11398 C 1070.59 1.47401 -0.924598 0
M  V30 11399 O 1071.77 1.592 -1.23359 0
M  V30 11400 C 1068.83 2.52438 -2.37647 0
M  V30 11401 C 1067.89 2.33673 -3.60132 0
M  V30 11402 C 1067.13 3.58909 -3.94994 0
M  V30 11403 O 1067.35 4.64823 -3.30599 0
M  V30 11404 O 1066.28 3.5196 -4.8827 0
M  V30 11405 H 1070.11 0.864273 -2.91143 0
M  V30 11406 H 1067.7 0.361755 -1.44954 0
M  V30 11407 H 1069.58 3.29981 -2.62088 0
M  V30 11408 H 1068.25 2.86486 -1.5069 0
M  V30 11409 H 1067.16 1.54102 -3.40886 0
M  V30 11410 H 1068.49 2.04544 -4.47686 0
M  V30 11411 N 1070.14 1.51827 0.422667 0
M  V30 11412 C 1071.37 1.69049 1.1929 0
M  V30 11413 C 1071.79 0.394095 1.84641 0
M  V30 11414 O 1071.14 -0.628731 1.71328 0
M  V30 11415 C 1071.2 2.81657 2.26609 0
M  V30 11416 O 1070.92 4.06275 1.63929 0
M  V30 11417 C 1072.42 3.10274 3.16615 0
M  V30 11418 H 1069.64 0.566894 0.358988 0
M  V30 11419 H 1072.18 1.98318 0.499029 0
M  V30 11420 H 1070.34 2.54945 2.91688 0
M  V30 11421 H 1070.75 4.68924 2.3497 0
M  V30 11422 H 1072.22 3.92613 3.88019 0
M  V30 11423 H 1072.7 2.23273 3.78214 0
M  V30 11424 H 1073.31 3.387 2.57221 0
M  V30 11425 N 1071.62 -0.679052 1.4222 0
M  V30 11426 C 1072.87 -1.44125 1.42674 0
M  V30 11427 C 1073.2 -1.94156 0.041438 0
M  V30 11428 O 1072.48 -1.70628 -0.93361 0
M  V30 11429 C 1072.76 -2.64133 2.44756 0
M  V30 11430 C 1072.61 -2.19761 3.9246 0
M  V30 11431 C 1073.93 -3.66347 2.43881 0
M  V30 11432 H 1071.05 -0.522729 0.519541 0
M  V30 11433 H 1073.69 -0.772067 1.73606 0
M  V30 11434 H 1071.84 -3.21225 2.1851 0
M  V30 11435 H 1073.51 -1.67869 4.29671 0
M  V30 11436 H 1071.76 -1.51377 4.06531 0
M  V30 11437 H 1072.43 -3.05944 4.59459 0
M  V30 11438 H 1074.9 -3.18963 2.67211 0
M  V30 11439 H 1073.78 -4.47902 3.17293 0
M  V30 11440 H 1074.04 -4.17183 1.46325 0
M  V30 11441 N 1073.1 -1.28322 -0.914942 0
M  V30 11442 C 1074.35 -1.14785 -1.65853 0
M  V30 11443 C 1074.66 0.303135 -1.93237 0
M  V30 11444 O 1075.87 0.559606 -2.6567 0
M  V30 11445 C 1074.32 -2.00652 -2.98776 0
M  V30 11446 C 1073.93 -3.50483 -2.79044 0
M  V30 11447 C 1075.68 -1.95798 -3.76648 0
M  V30 11448 C 1073.58 -4.28505 -4.076 0
M  V30 11449 H 1072.51 -0.425987 -0.622135 0
M  V30 11450 H 1075.16 -1.52844 -1.01543 0
M  V30 11451 H 1073.55 -1.55447 -3.64214 0
M  V30 11452 H 1074.72 -4.03636 -2.22293 0
M  V30 11453 H 1073.04 -3.5685 -2.14586 0
M  V30 11454 H 1075.63 -2.51359 -4.71935 0
M  V30 11455 H 1075.98 -0.934455 -4.05677 0
M  V30 11456 H 1076.51 -2.38965 -3.18026 0
M  V30 11457 H 1073.25 -5.31433 -3.83744 0
M  V30 11458 H 1072.77 -3.80125 -4.63966 0
M  V30 11459 H 1074.45 -4.3836 -4.75867 0
M  V30 11460 N 1074.58 1.12322 -1.10551 0
M  V30 11461 C 1075.51 2.20176 -0.777486 0
M  V30 11462 C 1076.49 1.68252 0.250069 0
M  V30 11463 O 1077.67 1.93856 0.115574 0
M  V30 11464 C 1074.8 3.46666 -0.209822 0
M  V30 11465 C 1073.76 4.11749 -1.1682 0
M  V30 11466 C 1073.08 5.32703 -0.461684 0
M  V30 11467 C 1074.38 4.57746 -2.51527 0
M  V30 11468 H 1076.08 2.47872 -1.67928 0
M  V30 11469 H 1073.62 1.19136 -0.808863 0
M  V30 11470 H 1075.58 4.21388 0.0318068 0
M  V30 11471 H 1074.3 3.18401 0.727226 0
M  V30 11472 H 1072.96 3.39009 -1.3953 0
M  V30 11473 H 1072.61 5.00706 0.479875 0
M  V30 11474 H 1072.31 5.77197 -1.1008 0
M  V30 11475 H 1073.83 6.10172 -0.228629 0
M  V30 11476 H 1075.25 5.23835 -2.32958 0
M  V30 11477 H 1073.64 5.13021 -3.11335 0
M  V30 11478 H 1074.71 3.71667 -3.11435 0
M  V30 11479 N 1076.06 0.894434 1.2976 0
M  V30 11480 C 1077 0.366586 2.2787 0
M  V30 11481 C 1077.97 -0.548425 1.56785 0
M  V30 11482 O 1079.16 -0.474804 1.84798 0
M  V30 11483 C 1076.3 -0.404531 3.42721 0
M  V30 11484 C 1075.41 0.540774 4.28602 0
M  V30 11485 C 1074.55 -0.246875 5.30626 0
M  V30 11486 C 1073.59 0.693294 6.08161 0
M  V30 11487 N 1072.72 -0.059619 7.02075 0
M  V30 11488 H 1077.56 1.20834 2.72402 0
M  V30 11489 H 1075.1 0.607205 1.33983 0
M  V30 11490 H 1077.06 -0.86762 4.08079 0
M  V30 11491 H 1075.69 -1.21078 2.99232 0
M  V30 11492 H 1074.74 1.12237 3.63465 0
M  V30 11493 H 1076.05 1.26065 4.82606 0
M  V30 11494 H 1075.21 -0.771398 6.01776 0
M  V30 11495 H 1073.94 -0.999918 4.77339 0
M  V30 11496 H 1072.95 1.22936 5.35879 0
M  V30 11497 H 1074.17 1.44558 6.63536 0
M  V30 11498 H 1072.12 -0.795026 6.51165 0
M  V30 11499 H 1072.04 0.60045 7.53612 0
M  V30 11500 H 1073.31 -0.564577 7.77453 0
M  V30 11501 N 1077.53 -1.43282 0.656365 0
M  V30 11502 C 1078.77 -2.03652 0.174681 0
M  V30 11503 C 1079.14 -1.5068 -1.18994 0
M  V30 11504 O 1080.34 -2.02716 -1.76521 0
M  V30 11505 C 1078.61 -3.56906 0.18778 0
M  V30 11506 S 1080.17 -4.3822 -0.225599 0
M  V30 11507 H 1076.99 -0.70719 0.0735029 0
M  V30 11508 H 1079.59 -1.75303 0.865403 0
M  V30 11509 H 1078.29 -3.92961 1.18363 0
M  V30 11510 H 1077.82 -3.89903 -0.523378 0
M  V30 11511 H 1079.84 -4.74121 -1.46369 0
M  V30 11512 N 1079.01 -0.398486 -1.52479 0
M  V30 11513 C 1079.96 0.447001 -2.28264 0
M  V30 11514 C 1080.96 1.05511 -1.32529 0
M  V30 11515 O 1082.16 0.994528 -1.5003 0
M  V30 11516 H 1078.54 0.162919 -0.73414 0
M  V30 11517 H 1080.51 -0.213534 -2.97635 0
M  V30 11518 C 1079.26 1.55724 -3.10879 0
M  V30 11519 H 1078.58 1.09864 -3.84409 0
M  V30 11520 H 1080.02 2.12286 -3.67029 0
M  V30 11521 C 1078.48 2.51853 -2.23768 0
M  V30 11522 O 1079.01 3.55483 -1.87069 0
M  V30 11523 N 1077.21 2.2181 -1.87746 0
M  V30 11524 H 1076.76 1.3757 -2.17789 0
M  V30 11525 H 1076.72 2.86376 -1.29753 0
M  V30 11526 N 1080.49 1.57075 -0.12858 0
M  V30 11527 C 1081.74 1.9581 0.527868 0
M  V30 11528 C 1082.07 1.01253 1.65715 0
M  V30 11529 O 1081.35 0.0514853 1.94432 0
M  V30 11530 C 1081.63 3.44406 1.05151 0
M  V30 11531 C 1081.48 4.49737 -0.0750113 0
M  V30 11532 C 1082.8 3.95069 1.9393 0
M  V30 11533 H 1079.92 0.711978 0.19041 0
M  V30 11534 H 1082.56 1.88879 -0.206081 0
M  V30 11535 H 1080.71 3.50443 1.67697 0
M  V30 11536 H 1082.38 4.55793 -0.710685 0
M  V30 11537 H 1080.63 4.27497 -0.736809 0
M  V30 11538 H 1081.3 5.50996 0.332779 0
M  V30 11539 H 1083.77 3.91395 1.41241 0
M  V30 11540 H 1082.65 4.99542 2.27484 0
M  V30 11541 H 1082.91 3.36329 2.86941 0
M  V30 11542 N 1081.97 -0.145205 1.5693 0
M  V30 11543 C 1082.92 -1.17923 1.98401 0
M  V30 11544 C 1083.89 -1.42591 0.851885 0
M  V30 11545 O 1085.07 -1.54896 1.11409 0
M  V30 11546 C 1082.21 -2.50727 2.37128 0
M  V30 11547 C 1081.32 -2.33218 3.63639 0
M  V30 11548 C 1080.46 -3.5907 3.91462 0
M  V30 11549 C 1079.5 -3.36605 5.11237 0
M  V30 11550 N 1078.64 -4.54592 5.35061 0
M  V30 11551 H 1083.48 -0.818573 2.86537 0
M  V30 11552 H 1081.01 -0.392739 1.4176 0
M  V30 11553 H 1082.97 -3.28165 2.57611 0
M  V30 11554 H 1081.6 -2.84736 1.52069 0
M  V30 11555 H 1080.65 -1.46826 3.50922 0
M  V30 11556 H 1081.96 -2.12579 4.51234 0
M  V30 11557 H 1081.12 -4.44936 4.12453 0
M  V30 11558 H 1079.86 -3.82715 3.02293 0
M  V30 11559 H 1078.86 -2.49127 4.90118 0
M  V30 11560 H 1080.09 -3.14357 6.01961 0
M  V30 11561 H 1078.03 -4.78406 4.48847 0
M  V30 11562 H 1077.95 -4.36962 6.16928 0
M  V30 11563 H 1079.22 -5.41666 5.60551 0
M  V30 11564 N 1083.45 -1.52049 -0.414609 0
M  V30 11565 C 1084.72 -1.56397 -1.17471 0
M  V30 11566 C 1085.1 -0.34171 -2.08316 0
M  V30 11567 O 1084.45 0.6718 -2.18401 0
M  V30 11568 C 1084.66 -2.88983 -1.95678 0
M  V30 11569 C 1086.01 -3.41781 -2.51935 0
M  V30 11570 O 1087.03 -2.90686 -2.05865 0
M  V30 11571 O 1085.89 -4.30989 -3.36022 0
M  V30 11572 H 1082.99 -0.62974 -0.536056 0
M  V30 11573 H 1085.53 -1.64374 -0.421834 0
M  V30 11574 H 1084.31 -3.69392 -1.29094 0
M  V30 11575 H 1083.93 -2.84274 -2.77983 0
M  V30 11576 N 1084.93 0.6715 -1.42579 0
M  V30 11577 C 1086.15 1.46471 -1.46836 0
M  V30 11578 C 1086.58 1.87921 -0.0820658 0
M  V30 11579 O 1085.93 1.5621 0.920217 0
M  V30 11580 C 1085.98 2.68796 -2.40377 0
M  V30 11581 O 1085.09 3.67188 -1.87741 0
M  V30 11582 H 1084.43 0.439901 -0.497376 0
M  V30 11583 H 1086.96 0.823342 -1.87303 0
M  V30 11584 H 1086.97 3.16828 -2.57068 0
M  V30 11585 H 1085.64 2.37967 -3.41093 0
M  V30 11586 H 1084.22 3.26237 -1.80621 0
M  V30 11587 N 1086.4 1.28806 0.908124 0
M  V30 11588 C 1087.63 1.19271 1.69674 0
M  V30 11589 C 1088.05 -0.244403 1.86505 0
M  V30 11590 O 1087.41 -1.17668 1.37927 0
M  V30 11591 C 1087.46 1.9023 3.06341 0
M  V30 11592 O 1086.56 1.2136 3.94139 0
M  V30 11593 H 1085.9 0.413738 0.519343 0
M  V30 11594 H 1088.43 1.70227 1.13508 0
M  V30 11595 H 1088.44 1.98356 3.56537 0
M  V30 11596 H 1087.12 2.94762 2.93408 0
M  V30 11597 H 1085.7 1.21435 3.52573 0
M  V30 11598 N 1087.88 -1.11734 1.11145 0
M  V30 11599 C 1088.81 -2.16847 0.710809 0
M  V30 11600 C 1089.79 -1.59966 -0.291494 0
M  V30 11601 O 1090.98 -1.87554 -0.188645 0
M  V30 11602 C 1088.1 -3.38663 0.0499744 0
M  V30 11603 C 1087.15 -4.14199 1.01693 0
M  V30 11604 S 1087.98 -4.7154 2.53793 0
M  V30 11605 C 1089.14 -5.96682 1.89001 0
M  V30 11606 H 1089.37 -2.50497 1.60121 0
M  V30 11607 H 1086.9 -1.23311 0.929182 0
M  V30 11608 H 1088.86 -4.09212 -0.324959 0
M  V30 11609 H 1087.52 -3.03279 -0.817335 0
M  V30 11610 H 1086.72 -5.01494 0.501933 0
M  V30 11611 H 1086.32 -3.49395 1.33414 0
M  V30 11612 H 1088.61 -6.6634 1.22462 0
M  V30 11613 H 1089.55 -6.52821 2.74282 0
M  V30 11614 H 1089.96 -5.48084 1.35145 0
M  V30 11615 N 1089.36 -0.901303 -1.29284 0
M  V30 11616 C 1090.29 -0.396909 -2.30102 0
M  V30 11617 C 1091.27 0.528919 -1.61668 0
M  V30 11618 O 1092.46 0.439306 -1.89166 0
M  V30 11619 C 1089.59 0.375006 -3.45269 0
M  V30 11620 C 1088.54 -0.46054 -4.25515 0
M  V30 11621 C 1087.87 0.438967 -5.32895 0
M  V30 11622 C 1089.17 -1.7113 -4.93469 0
M  V30 11623 H 1090.86 -1.23943 -2.72541 0
M  V30 11624 H 1088.41 -0.597428 -1.31022 0
M  V30 11625 H 1090.36 0.738622 -4.14876 0
M  V30 11626 H 1089.08 1.25132 -3.01678 0
M  V30 11627 H 1087.74 -0.80651 -3.57618 0
M  V30 11628 H 1087.39 1.31346 -4.85548 0
M  V30 11629 H 1087.09 -0.116406 -5.87485 0
M  V30 11630 H 1088.61 0.79874 -6.05353 0
M  V30 11631 H 1090.03 -1.41732 -5.55504 0
M  V30 11632 H 1088.42 -2.20811 -5.57999 0
M  V30 11633 H 1089.49 -2.44636 -4.18666 0
M  V30 11634 N 1090.84 1.42931 -0.663954 0
M  V30 11635 C 1092.09 2.00904 -0.179011 0
M  V30 11636 C 1092.4 1.53056 1.21791 0
M  V30 11637 O 1093.61 2.03374 1.79865 0
M  V30 11638 C 1092.06 3.58892 -0.269198 0
M  V30 11639 C 1091.67 4.15731 -1.66949 0
M  V30 11640 C 1093.41 4.24207 0.157589 0
M  V30 11641 C 1091.32 5.66047 -1.71303 0
M  V30 11642 H 1090.25 0.75135 -0.0631623 0
M  V30 11643 H 1092.9 1.6378 -0.827556 0
M  V30 11644 H 1091.28 3.93469 0.447048 0
M  V30 11645 H 1092.46 3.92634 -2.41195 0
M  V30 11646 H 1090.77 3.62826 -2.04318 0
M  V30 11647 H 1093.37 5.34503 0.145057 0
M  V30 11648 H 1093.71 3.98901 1.19095 0
M  V30 11649 H 1094.25 3.94552 -0.507274 0
M  V30 11650 H 1090.98 5.96136 -2.72584 0
M  V30 11651 H 1090.5 5.91167 -1.01398 0
M  V30 11652 H 1092.18 6.30275 -1.46158 0
M  V30 11653 N 1092.32 0.406567 1.52266 0
M  V30 11654 C 1093.54 -0.172101 2.06685 0
M  V30 11655 C 1093.97 -1.38306 1.27488 0
M  V30 11656 O 1093.32 -1.78726 0.304441 0
M  V30 11657 C 1093.37 -0.503463 3.57068 0
M  V30 11658 O 1092.48 -1.59485 3.80314 0
M  V30 11659 H 1091.82 -0.0153209 0.663823 0
M  V30 11660 H 1094.35 0.579025 1.96236 0
M  V30 11661 H 1094.36 -0.762833 4.00805 0
M  V30 11662 H 1093.03 0.381775 4.14144 0
M  V30 11663 H 1091.61 -1.32784 3.48458 0
M  V30 11664 N 1093.79 -1.57004 0.136909 0
M  V30 11665 C 1094.72 -2.19262 -0.802902 0
M  V30 11666 C 1095.71 -1.13786 -1.26439 0
M  V30 11667 O 1096.89 -1.42091 -1.32377 0
M  V30 11668 C 1094.02 -2.80624 -2.04615 0
M  V30 11669 C 1092.97 -3.91839 -1.72181 0
M  V30 11670 C 1092.3 -4.4009 -3.03686 0
M  V30 11671 C 1093.6 -5.13095 -0.976249 0
M  V30 11672 H 1095.29 -2.98049 -0.28406 0
M  V30 11673 H 1092.84 -1.43364 -0.135189 0
M  V30 11674 H 1094.79 -3.22842 -2.70834 0
M  V30 11675 H 1093.52 -1.99153 -2.58855 0
M  V30 11676 H 1092.18 -3.50224 -1.08344 0
M  V30 11677 H 1091.82 -3.55454 -3.55896 0
M  V30 11678 H 1091.52 -5.15098 -2.82751 0
M  V30 11679 H 1093.05 -4.84971 -3.70993 0
M  V30 11680 H 1094.46 -5.5222 -1.54033 0
M  V30 11681 H 1092.86 -5.93801 -0.867214 0
M  V30 11682 H 1093.93 -4.84888 0.0338488 0
M  V30 11683 N 1095.27 0.136881 -1.57004 0
M  V30 11684 C 1096.5 0.862436 -1.88068 0
M  V30 11685 C 1096.92 1.74274 -0.726227 0
M  V30 11686 O 1096.27 1.79956 0.30366 0
M  V30 11687 C 1096.32 1.71076 -3.18458 0
M  V30 11688 O 1096.04 0.865918 -4.29457 0
M  V30 11689 C 1097.55 2.54302 -3.63105 0
M  V30 11690 H 1094.77 0.248865 -0.623143 0
M  V30 11691 H 1097.31 0.126633 -2.04108 0
M  V30 11692 H 1095.46 2.39951 -3.04142 0
M  V30 11693 H 1095.88 1.4493 -5.04079 0
M  V30 11694 H 1097.35 3.09384 -4.57149 0
M  V30 11695 H 1097.83 3.3082 -2.88886 0
M  V30 11696 H 1098.44 1.907 -3.80149 0
M  V30 11697 N 1096.75 1.52266 0.40654 0
M  V30 11698 C 1097.98 1.70057 1.1732 0
M  V30 11699 C 1098.39 0.41084 1.84686 0
M  V30 11700 O 1097.73 -0.623187 1.72806 0
M  V30 11701 C 1097.79 2.78197 2.27698 0
M  V30 11702 C 1097.46 4.19866 1.80447 0
M  V30 11703 C 1098.45 5.03621 1.29082 0
M  V30 11704 C 1096.14 4.66112 1.87202 0
M  V30 11705 C 1098.13 6.31694 0.850973 0
M  V30 11706 C 1095.82 5.94174 1.42829 0
M  V30 11707 C 1096.82 6.76794 0.918621 0
M  V30 11708 O 1096.51 8.02458 0.481302 0
M  V30 11709 H 1096.24 0.573137 0.358455 0
M  V30 11710 H 1098.79 1.99615 0.484064 0
M  V30 11711 H 1097.02 2.44022 2.99983 0
M  V30 11712 H 1098.71 2.84562 2.89446 0
M  V30 11713 H 1099.48 4.69083 1.23234 0
M  V30 11714 H 1095.36 4.01905 2.25816 0
M  V30 11715 H 1098.9 6.96131 0.452471 0
M  V30 11716 H 1094.8 6.2822 1.48358 0
M  V30 11717 H 1095.57 8.16266 0.604376 0
M  V30 11718 N 1098.23 -0.663929 1.42933 0
M  V30 11719 C 1099.51 -1.42054 1.34462 0
M  V30 11720 C 1099.89 -2.11096 -0.0127801 0
M  V30 11721 O 1099.23 -2.04027 -1.02884 0
M  V30 11722 C 1099.44 -2.41406 2.5204 0
M  V30 11723 C 1100.79 -3.05726 2.94647 0
M  V30 11724 O 1101.82 -2.51733 2.52009 0
M  V30 11725 O 1100.67 -4.03593 3.68477 0
M  V30 11726 H 1097.77 -0.634149 0.530834 0
M  V30 11727 H 1100.31 -0.691738 1.54962 0
M  V30 11728 H 1099.09 -1.89263 3.42484 0
M  V30 11729 H 1098.71 -3.21752 2.33584 0
M  V30 11730 N 1099.71 -1.29285 -0.901281 0
M  V30 11731 C 1100.95 -1.17339 -1.65407 0
M  V30 11732 C 1101.29 0.274834 -1.92245 0
M  V30 11733 O 1100.56 1.19865 -1.53176 0
M  V30 11734 C 1100.84 -1.98547 -3.00418 0
M  V30 11735 C 1100.7 -3.51501 -2.80655 0
M  V30 11736 C 1102.02 -1.81062 -4.01129 0
M  V30 11737 H 1099.13 -0.427624 -0.600255 0
M  V30 11738 H 1101.78 -1.58741 -1.0441 0
M  V30 11739 H 1099.93 -1.63366 -3.52482 0
M  V30 11740 H 1101.6 -3.96655 -2.35505 0
M  V30 11741 H 1099.84 -3.76504 -2.15469 0
M  V30 11742 H 1100.51 -4.03593 -3.76585 0
M  V30 11743 H 1102.99 -2.11788 -3.58169 0
M  V30 11744 H 1101.86 -2.40235 -4.93536 0
M  V30 11745 H 1102.13 -0.765388 -4.35424 0
M  V30 11746 N 1101.18 1.11143 -1.11736 0
M  V30 11747 C 1102.43 1.82311 -0.862875 0
M  V30 11748 C 1102.75 1.85735 0.613326 0
M  V30 11749 O 1103.95 2.53034 0.984168 0
M  V30 11750 C 1102.41 3.27427 -1.49396 0
M  V30 11751 C 1102.02 3.32323 -3.00443 0
M  V30 11752 C 1103.76 4.03474 -1.31944 0
M  V30 11753 C 1101.67 4.71855 -3.56521 0
M  V30 11754 H 1100.6 0.683124 -0.31915 0
M  V30 11755 H 1103.25 1.25045 -1.34298 0
M  V30 11756 H 1101.63 3.84644 -0.941528 0
M  V30 11757 H 1102.8 2.84971 -3.62117 0
M  V30 11758 H 1101.12 2.69758 -3.17206 0
M  V30 11759 H 1103.72 5.06528 -1.71271 0
M  V30 11760 H 1104.06 4.15473 -0.262339 0
M  V30 11761 H 1104.59 3.52652 -1.84069 0
M  V30 11762 H 1101.33 4.65054 -4.61958 0
M  V30 11763 H 1100.85 5.19604 -2.99619 0
M  V30 11764 H 1102.53 5.40816 -3.55144 0
M  V30 11765 N 1102.66 0.908147 1.28804 0
M  V30 11766 C 1103.59 0.409106 2.29888 0
M  V30 11767 C 1104.57 -0.520338 1.61946 0
M  V30 11768 O 1105.76 -0.429268 1.89396 0
M  V30 11769 C 1102.89 -0.35669 3.45463 0
M  V30 11770 C 1101.84 0.4831 4.25265 0
M  V30 11771 C 1101.17 -0.4107 5.3312 0
M  V30 11772 C 1102.47 1.73744 4.92555 0
M  V30 11773 H 1104.16 1.25386 2.7188 0
M  V30 11774 H 1101.71 0.604368 1.30703 0
M  V30 11775 H 1103.66 -0.71661 4.15262 0
M  V30 11776 H 1102.39 -1.2353 3.02337 0
M  V30 11777 H 1101.04 0.825464 3.57186 0
M  V30 11778 H 1100.69 -1.28769 4.86238 0
M  V30 11779 H 1100.39 0.14756 5.87415 0
M  V30 11780 H 1101.92 -0.766626 6.05768 0
M  V30 11781 H 1103.33 1.44676 5.54745 0
M  V30 11782 H 1101.73 2.23767 5.5682 0
M  V30 11783 H 1102.8 2.46853 4.17363 0
M  V30 11784 N 1104.14 -1.42577 0.671525 0
M  V30 11785 C 1105.39 -2.01882 0.192716 0
M  V30 11786 C 1105.72 -1.52959 -1.19654 0
M  V30 11787 O 1104.99 -0.730404 -1.80265 0
M  V30 11788 C 1105.28 -3.59404 0.223734 0
M  V30 11789 C 1105.13 -4.18514 1.64821 0
M  V30 11790 C 1106.45 -4.37996 -0.429858 0
M  V30 11791 H 1103.57 -0.733523 0.0715026 0
M  V30 11792 H 1106.21 -1.69641 0.855689 0
M  V30 11793 H 1104.36 -3.87003 -0.340776 0
M  V30 11794 H 1106.03 -4.01881 2.26472 0
M  V30 11795 H 1104.28 -3.74467 2.1899 0
M  V30 11796 H 1104.95 -5.27643 1.62162 0
M  V30 11797 H 1107.42 -4.16069 0.0506433 0
M  V30 11798 H 1106.3 -5.476 -0.377503 0
M  V30 11799 H 1106.56 -4.15625 -1.50693 0
M  V30 11800 N 1105.62 -0.414636 -1.52048 0
M  V30 11801 C 1106.87 0.16073 -2.01059 0
M  V30 11802 C 1107.18 1.45753 -1.30443 0
M  V30 11803 O 1108.39 2.11448 -1.703 0
M  V30 11804 C 1106.84 0.336993 -3.58319 0
M  V30 11805 C 1106.45 -0.948037 -4.37854 0
M  V30 11806 C 1108.19 0.867353 -4.15545 0
M  V30 11807 C 1106.1 -0.738662 -5.86769 0
M  V30 11808 H 1105.03 0.0638419 -0.751292 0
M  V30 11809 H 1107.68 -0.540925 -1.75346 0
M  V30 11810 H 1106.06 1.10111 -3.80383 0
M  V30 11811 H 1107.24 -1.71873 -4.27547 0
M  V30 11812 H 1105.55 -1.40522 -3.91972 0
M  V30 11813 H 1108.15 1.04012 -5.24486 0
M  V30 11814 H 1108.49 1.84358 -3.73253 0
M  V30 11815 H 1109.03 0.162148 -3.97469 0
M  V30 11816 H 1105.77 -1.6866 -6.3343 0
M  V30 11817 H 1105.29 -0.00736294 -5.998 0
M  V30 11818 H 1106.96 -0.382978 -6.45866 0
M  V30 11819 N 1107.1 1.56929 -0.145233 0
M  V30 11820 C 1108.03 2.19685 0.791263 0
M  V30 11821 C 1109.01 1.14455 1.25833 0
M  V30 11822 O 1110.19 1.42791 1.31622 0
M  V30 11823 C 1107.32 2.81705 2.03124 0
M  V30 11824 C 1106.28 3.92746 1.70101 0
M  V30 11825 C 1105.6 4.41694 3.01347 0
M  V30 11826 C 1106.9 5.13606 0.949025 0
M  V30 11827 H 1108.6 2.98196 0.26825 0
M  V30 11828 H 1106.14 1.43434 0.127584 0
M  V30 11829 H 1108.1 3.24273 2.69119 0
M  V30 11830 H 1106.82 2.00523 2.57795 0
M  V30 11831 H 1105.48 3.50794 1.06486 0
M  V30 11832 H 1105.13 3.57336 3.54006 0
M  V30 11833 H 1104.83 5.1659 2.80016 0
M  V30 11834 H 1106.35 4.86931 3.68416 0
M  V30 11835 H 1107.76 5.53029 1.51102 0
M  V30 11836 H 1106.16 5.94252 0.835711 0
M  V30 11837 H 1107.23 4.84863 -0.0595631 0
M  V30 11838 N 1108.58 -0.128553 1.57075 0
M  V30 11839 C 1109.82 -0.844012 1.86161 0
M  V30 11840 C 1110.18 -1.77499 0.73198 0
M  V30 11841 O 1111.38 -2.5313 0.904357 0
M  V30 11842 C 1109.65 -1.58238 3.20462 0
M  V30 11843 S 1111.21 -2.34073 3.71154 0
M  V30 11844 H 1108.03 -0.281884 0.652734 0
M  V30 11845 H 1110.63 -0.102902 1.95229 0
M  V30 11846 H 1109.33 -0.890246 4.00628 0
M  V30 11847 H 1108.87 -2.36404 3.14446 0
M  V30 11848 H 1110.88 -3.59617 3.41892 0
M  V30 11849 N 1110.05 -1.5248 -0.398459 0
M  V30 11850 C 1111.28 -1.70925 -1.16586 0
M  V30 11851 C 1111.7 -0.42342 -1.83991 0
M  V30 11852 O 1111.05 0.601395 -1.72306 0
M  V30 11853 C 1111.1 -2.85226 -2.22099 0
M  V30 11854 O 1110.83 -4.08831 -1.57444 0
M  V30 11855 C 1112.33 -3.15272 -3.11639 0
M  V30 11856 H 1109.55 -0.572533 -0.349924 0
M  V30 11857 H 1112.09 -1.99087 -0.467416 0
M  V30 11858 H 1110.25 -2.59553 -2.87595 0
M  V30 11859 H 1110.66 -4.72603 -2.2748 0
M  V30 11860 H 1112.13 -3.98737 -3.81724 0
M  V30 11861 H 1112.61 -2.29262 -3.74614 0
M  V30 11862 H 1113.22 -3.42749 -2.518 0
M  V30 11863 N 1111.53 0.65634 -1.43283 0
M  V30 11864 C 1112.78 1.41837 -1.44949 0
M  V30 11865 C 1113.11 1.94065 -0.0723212 0
M  V30 11866 O 1112.39 1.72092 0.906346 0
M  V30 11867 C 1112.67 2.60206 -2.48927 0
M  V30 11868 C 1112.52 2.1349 -3.95907 0
M  V30 11869 C 1113.84 3.62421 -2.49678 0
M  V30 11870 H 1110.96 0.514398 -0.527792 0
M  V30 11871 H 1113.6 0.74435 -1.74813 0
M  V30 11872 H 1111.75 3.17708 -2.23592 0
M  V30 11873 H 1113.42 1.61012 -4.32288 0
M  V30 11874 H 1111.67 1.4489 -4.08888 0
M  V30 11875 H 1112.34 2.98596 -4.64268 0
M  V30 11876 H 1114.81 3.14671 -2.72252 0
M  V30 11877 H 1113.69 4.42798 -3.24378 0
M  V30 11878 H 1113.95 4.14802 -1.52944 0
M  V30 11879 N 1113.01 1.29761 0.894412 0
M  V30 11880 C 1114.24 1.20765 1.67629 0
M  V30 11881 C 1114.65 -0.233434 1.87754 0
M  V30 11882 O 1113.99 -1.16747 1.4183 0
M  V30 11883 C 1114.05 1.85542 3.07919 0
M  V30 11884 C 1113.72 3.34852 3.11004 0
M  V30 11885 C 1114.71 4.30994 2.90758 0
M  V30 11886 C 1112.4 3.76141 3.32901 0
M  V30 11887 C 1114.39 5.664 2.92352 0
M  V30 11888 C 1112.08 5.11667 3.34126 0
M  V30 11889 C 1113.08 6.06607 3.13874 0
M  V30 11890 O 1112.77 7.39659 3.14897 0
M  V30 11891 H 1112.5 0.419418 0.530155 0
M  V30 11892 H 1115.05 1.71754 1.12648 0
M  V30 11893 H 1113.28 1.29071 3.64524 0
M  V30 11894 H 1114.97 1.70795 3.68217 0
M  V30 11895 H 1115.74 4.00427 2.73648 0
M  V30 11896 H 1111.62 3.02694 3.47703 0
M  V30 11897 H 1115.16 6.40479 2.76464 0
M  V30 11898 H 1111.06 5.41877 3.50769 0
M  V30 11899 H 1111.82 7.4853 3.31127 0
M  V30 11900 N 1114.49 -1.10549 1.12324 0
M  V30 11901 C 1115.45 -2.15039 0.793156 0
M  V30 11902 C 1116.45 -1.59651 -0.19192 0
M  V30 11903 O 1117.64 -1.74167 0.0337262 0
M  V30 11904 C 1114.77 -3.40433 0.17842 0
M  V30 11905 H 1115.97 -2.4575 1.71892 0
M  V30 11906 H 1113.52 -1.25892 0.926333 0
M  V30 11907 H 1114.25 -3.15338 -0.757122 0
M  V30 11908 H 1114.04 -3.81921 0.887645 0
M  V30 11909 H 1115.53 -4.17584 -0.0360724 0
M  V30 11910 N 1115.97 -0.914965 -1.28321 0
M  V30 11911 C 1117.21 -0.548749 -1.94923 0
M  V30 11912 C 1117.54 0.907776 -1.72016 0
M  V30 11913 O 1116.8 1.66097 -1.03491 0
M  V30 11914 C 1117.09 -0.805805 -3.48198 0
M  V30 11915 C 1116.76 -2.24207 -3.91206 0
M  V30 11916 C 1115.42 -2.63475 -4.02659 0
M  V30 11917 C 1117.77 -3.17667 -4.13204 0
M  V30 11918 C 1115.1 -3.95353 -4.3349 0
M  V30 11919 C 1117.45 -4.4911 -4.45514 0
M  V30 11920 C 1116.12 -4.8823 -4.55179 0
M  V30 11921 H 1115.39 -0.200801 -0.713274 0
M  V30 11922 H 1118.04 -1.15652 -1.52633 0
M  V30 11923 H 1116.34 -0.115244 -3.9163 0
M  V30 11924 H 1118.04 -0.501609 -3.9785 0
M  V30 11925 H 1114.63 -1.92737 -3.82819 0
M  V30 11926 H 1118.81 -2.88537 -4.03807 0
M  V30 11927 H 1114.07 -4.25362 -4.39178 0
M  V30 11928 H 1118.24 -5.21542 -4.61483 0
M  V30 11929 H 1115.87 -5.90451 -4.78823 0
M  V30 11930 N 1117.44 1.42219 -0.679077 0
M  V30 11931 C 1118.39 2.308 -0.00340316 0
M  V30 11932 C 1119.36 1.462 0.788334 0
M  V30 11933 O 1120.55 1.75023 0.759716 0
M  V30 11934 C 1117.69 3.32084 0.938854 0
M  V30 11935 C 1116.8 4.31772 0.140485 0
M  V30 11936 C 1115.93 5.20128 1.07888 0
M  V30 11937 C 1114.97 6.11493 0.27245 0
M  V30 11938 N 1114.11 6.92388 1.16378 0
M  V30 11939 H 1118.95 2.88024 -0.764587 0
M  V30 11940 H 1116.49 1.41869 -0.38878 0
M  V30 11941 H 1118.44 3.89339 1.49903 0
M  V30 11942 H 1117.07 2.76448 1.66662 0
M  V30 11943 H 1116.13 3.76599 -0.536376 0
M  V30 11944 H 1117.44 4.96432 -0.485433 0
M  V30 11945 H 1116.59 5.82137 1.70884 0
M  V30 11946 H 1115.33 4.55655 1.73868 0
M  V30 11947 H 1114.34 5.48549 -0.370693 0
M  V30 11948 H 1115.56 6.78017 -0.383315 0
M  V30 11949 H 1113.51 6.30538 1.8099 0
M  V30 11950 H 1113.42 7.5367 0.593043 0
M  V30 11951 H 1114.69 7.58879 1.78107 0
M  V30 11952 N 1118.92 0.422693 1.51826 0
M  V30 11953 C 1120.15 -0.147744 2.06372 0
M  V30 11954 C 1120.56 -1.37714 1.29152 0
M  V30 11955 O 1119.92 -1.7917 0.347046 0
M  V30 11956 C 1119.97 -0.484642 3.58237 0
M  V30 11957 O 1119.69 0.695944 4.32537 0
M  V30 11958 C 1121.19 -1.10734 4.29247 0
M  V30 11959 H 1118.41 -0.0144047 0.670845 0
M  V30 11960 H 1120.96 0.597558 1.95575 0
M  V30 11961 H 1119.11 -1.17984 3.68997 0
M  V30 11962 H 1119.53 0.411471 5.22884 0
M  V30 11963 H 1121 -1.29318 5.36639 0
M  V30 11964 H 1121.48 -2.08429 3.86593 0
M  V30 11965 H 1122.08 -0.451958 4.22892 0
M  V30 11966 N 1120.4 -1.5685 0.153553 0
M  V30 11967 C 1121.82 -1.58306 -0.202801 0
M  V30 11968 C 1122.02 -1.16813 -1.64186 0
M  V30 11969 O 1121.07 -0.871468 -2.36985 0
M  V30 11970 C 1122.38 -3.00636 0.0619012 0
M  V30 11971 C 1123.93 -3.13 -0.00129219 0
M  V30 11972 C 1124.41 -4.57391 0.236164 0
M  V30 11973 N 1125.9 -4.62837 0.18332 0
M  V30 11974 C 1126.63 -5.72382 0.341471 0
M  V30 11975 N 1126.13 -6.90552 0.557704 0
M  V30 11976 N 1127.92 -5.61409 0.278615 0
M  V30 11977 H 1120.07 -1.82113 1.09309 0
M  V30 11978 H 1122.34 -0.843228 0.433209 0
M  V30 11979 H 1122.04 -3.35406 1.0581 0
M  V30 11980 H 1121.92 -3.71477 -0.654555 0
M  V30 11981 H 1124.3 -2.78068 -0.98805 0
M  V30 11982 H 1124.38 -2.44632 0.747596 0
M  V30 11983 H 1124.03 -4.93029 1.22005 0
M  V30 11984 H 1123.96 -5.23894 -0.533125 0
M  V30 11985 H 1126.45 -3.77894 0.0211138 0
M  V30 11986 H 1126.76 -7.69905 0.66831 0
M  V30 11987 H 1125.11 -6.92456 0.594105 0
M  V30 11988 H 1128.3 -4.6797 0.110401 0
M  V30 11989 H 1128.47 -6.46731 0.4053 0
M  V30 11990 N 1121.88 0.120221 -1.57141 0
M  V30 11991 C 1122.82 1.14751 -2.00252 0
M  V30 11992 C 1123.79 1.41217 -0.874462 0
M  V30 11993 O 1124.98 1.53104 -1.13859 0
M  V30 11994 C 1122.12 2.46923 -2.41087 0
M  V30 11995 C 1121.23 2.27403 -3.67303 0
M  V30 11996 C 1120.37 3.52797 -3.97125 0
M  V30 11997 C 1119.41 3.28429 -5.16528 0
M  V30 11998 N 1118.54 4.46022 -5.42226 0
M  V30 11999 H 1123.38 0.772884 -2.87803 0
M  V30 12000 H 1120.92 0.370137 -1.42367 0
M  V30 12001 H 1122.88 3.24025 -2.62799 0
M  V30 12002 H 1121.51 2.82281 -1.5658 0
M  V30 12003 H 1120.56 1.41224 -3.53214 0
M  V30 12004 H 1121.87 2.05373 -4.54558 0
M  V30 12005 H 1121.03 4.38318 -4.19479 0
M  V30 12006 H 1119.77 3.77857 -3.08343 0
M  V30 12007 H 1118.77 2.41299 -4.94019 0
M  V30 12008 H 1120 3.0474 -6.06886 0
M  V30 12009 H 1117.94 4.71205 -4.56401 0
M  V30 12010 H 1117.86 4.27092 -6.23802 0
M  V30 12011 H 1119.13 5.3268 -5.69098 0
M  V30 12012 N 1123.36 1.52689 0.390367 0
M  V30 12013 C 1124.6 1.69354 1.1445 0
M  V30 12014 C 1124.96 0.423677 1.87267 0
M  V30 12015 O 1126.16 0.466669 2.64718 0
M  V30 12016 C 1124.43 2.89356 2.0978 0
M  V30 12017 S 1125.99 3.26602 2.93047 0
M  V30 12018 H 1122.81 0.596162 0.387442 0
M  V30 12019 H 1125.41 1.90732 0.429119 0
M  V30 12020 H 1124.12 3.80003 1.55004 0
M  V30 12021 H 1123.65 2.70307 2.85828 0
M  V30 12022 H 1125.66 2.76683 4.11899 0
M  V30 12023 N 1124.83 -0.648732 1.43629 0
M  V30 12024 C 1126.25 -1.23001 1.40455 0
M  V30 12025 C 1126.6 -1.95886 0.110897 0
M  V30 12026 O 1125.72 -2.01485 -0.789487 0
M  V30 12027 C 1126.32 -2.23716 2.54434 0
M  V30 12028 C 1124.88 -2.77311 2.54511 0
M  V30 12029 C 1124.02 -1.52024 2.31914 0
M  V30 12030 H 1126.97 -0.440473 1.52465 0
M  V30 12031 H 1126.99 -3.05979 2.26179 0
M  V30 12032 H 1126.51 -1.7064 3.48574 0
M  V30 12033 H 1124.61 -3.34437 1.64263 0
M  V30 12034 H 1124.72 -3.2455 3.52426 0
M  V30 12035 H 1123.08 -1.79531 1.80667 0
M  V30 12036 H 1123.87 -1.00876 3.28145 0
M  V30 12037 N 1126.31 -1.30234 -0.887518 0
M  V30 12038 C 1127.22 -1.18316 -2.02579 0
M  V30 12039 C 1128.24 -0.103658 -1.73691 0
M  V30 12040 O 1129.41 -0.3181 -1.98872 0
M  V30 12041 C 1126.48 -0.873222 -3.35523 0
M  V30 12042 C 1125.54 -2.03783 -3.7785 0
M  V30 12043 C 1124.77 -1.74258 -5.0445 0
M  V30 12044 O 1125 -0.669295 -5.6646 0
M  V30 12045 O 1123.93 -2.59423 -5.43124 0
M  V30 12046 H 1127.76 -2.13933 -2.15561 0
M  V30 12047 H 1125.34 -1.09803 -1.0131 0
M  V30 12048 H 1127.22 -0.715463 -4.15282 0
M  V30 12049 H 1125.9 0.053056 -3.23657 0
M  V30 12050 H 1124.81 -2.2509 -2.98806 0
M  V30 12051 H 1126.14 -2.94574 -3.94318 0
M  V30 12052 N 1127.79 1.09952 -1.12909 0
M  V30 12053 C 1128.74 2.18525 -0.796849 0
M  V30 12054 C 1129.73 1.67985 0.218483 0
M  V30 12055 O 1130.94 1.79839 0.07618 0
M  V30 12056 H 1127.31 0.712714 -0.239882 0
M  V30 12057 H 1129.28 2.43783 -1.72083 0
M  V30 12058 C 1128.03 3.46625 -0.273237 0
M  V30 12059 H 1127.36 3.85879 -1.04582 0
M  V30 12060 H 1128.8 4.23926 -0.0791355 0
M  V30 12061 C 1127.26 3.2172 0.999903 0
M  V30 12062 O 1127.79 3.43851 2.07676 0
M  V30 12063 N 1125.99 2.75356 0.928833 0
M  V30 12064 H 1125.54 2.57547 0.052379 0
M  V30 12065 H 1125.5 2.5907 1.78129 0
M  V30 12066 N 1129.27 0.921757 1.27833 0
M  V30 12067 C 1130.52 0.559078 1.94629 0
M  V30 12068 C 1130.84 -0.898641 1.72495 0
M  V30 12069 O 1130.1 -1.65546 1.0437 0
M  V30 12070 C 1130.4 0.824259 3.47765 0
M  V30 12071 C 1130.06 2.26278 3.90011 0
M  V30 12072 C 1128.73 2.65607 4.01256 0
M  V30 12073 C 1131.08 3.19853 4.11513 0
M  V30 12074 C 1128.41 3.97646 4.31387 0
M  V30 12075 C 1130.76 4.51467 4.43126 0
M  V30 12076 C 1129.42 4.90637 4.52583 0
M  V30 12077 H 1128.69 0.204581 0.712199 0
M  V30 12078 H 1131.34 1.1646 1.52018 0
M  V30 12079 H 1129.64 0.136011 3.91564 0
M  V30 12080 H 1131.34 0.522701 3.97579 0
M  V30 12081 H 1127.93 1.94765 3.81791 0
M  V30 12082 H 1132.11 2.90674 4.02271 0
M  V30 12083 H 1127.37 4.27685 4.36916 0
M  V30 12084 H 1131.54 5.23982 4.58711 0
M  V30 12085 H 1129.17 5.92982 4.75685 0
M  V30 12086 N 1130.75 -1.41857 0.686609 0
M  V30 12087 C 1131.69 -2.326 0.0041351 0
M  V30 12088 C 1132.69 -1.50474 -0.778077 0
M  V30 12089 O 1133.89 -1.66468 -0.684709 0
M  V30 12090 H 1130.27 -0.751797 -0.0174615 0
M  V30 12091 H 1132.24 -2.87844 0.786656 0
M  V30 12092 C 1130.99 -3.35175 -0.924819 0
M  V30 12093 H 1130.31 -3.98416 -0.332339 0
M  V30 12094 H 1131.75 -4.01229 -1.37082 0
M  V30 12095 C 1130.21 -2.68359 -2.03679 0
M  V30 12096 O 1130.74 -2.52453 -3.12459 0
M  V30 12097 N 1128.95 -2.27196 -1.81192 0
M  V30 12098 H 1128.49 -2.40333 -0.92725 0
M  V30 12099 H 1128.45 -1.82824 -2.55778 0
M  V30 12100 N 1132.22 -0.430739 -1.51599 0
M  V30 12101 C 1133.13 0.390347 -2.3133 0
M  V30 12102 C 1134.15 1.03376 -1.39962 0
M  V30 12103 O 1135.33 1.03057 -1.73035 0
M  V30 12104 C 1132.39 1.48039 -3.13505 0
M  V30 12105 C 1131.45 0.857792 -4.20643 0
M  V30 12106 C 1130.69 1.89589 -4.9889 0
M  V30 12107 O 1130.91 3.11717 -4.77691 0
M  V30 12108 O 1129.84 1.49009 -5.83164 0
M  V30 12109 H 1133.67 -0.260358 -3.02582 0
M  V30 12110 H 1131.25 -0.193428 -1.48143 0
M  V30 12111 H 1133.14 2.11272 -3.64612 0
M  V30 12112 H 1131.81 2.1153 -2.45024 0
M  V30 12113 H 1130.72 0.187592 -3.73629 0
M  V30 12114 H 1132.05 0.266474 -4.91478 0
M  V30 12115 N 1133.7 1.56767 -0.161869 0
M  V30 12116 C 1134.67 2.16299 0.758104 0
M  V30 12117 C 1135.67 1.10859 1.16478 0
M  V30 12118 O 1136.86 1.36422 1.08327 0
M  V30 12119 C 1133.99 2.73819 2.03067 0
M  V30 12120 H 1135.18 2.98938 0.239992 0
M  V30 12121 H 1132.73 1.56054 0.0876532 0
M  V30 12122 H 1133.47 1.94887 2.59209 0
M  V30 12123 H 1133.25 3.50974 1.74813 0
M  V30 12124 H 1134.74 3.19638 2.68741 0
M  V30 12125 N 1135.18 -0.111886 1.57202 0
M  V30 12126 C 1136.13 -1.13688 2.00858 0
M  V30 12127 C 1137.1 -1.40752 0.881939 0
M  V30 12128 O 1138.28 -1.52498 1.14669 0
M  V30 12129 C 1135.42 -2.45641 2.42393 0
M  V30 12130 C 1134.54 -2.25452 3.68504 0
M  V30 12131 C 1133.67 -3.50686 3.9899 0
M  V30 12132 C 1132.71 -3.25685 5.18262 0
M  V30 12133 N 1131.85 -4.4314 5.44583 0
M  V30 12134 H 1136.69 -0.757611 2.88209 0
M  V30 12135 H 1134.22 -0.362582 1.42561 0
M  V30 12136 H 1136.18 -3.22627 2.64514 0
M  V30 12137 H 1134.81 -2.81447 1.58074 0
M  V30 12138 H 1133.86 -1.39349 3.53958 0
M  V30 12139 H 1135.18 -2.0296 4.55641 0
M  V30 12140 H 1134.33 -4.36087 4.21797 0
M  V30 12141 H 1133.07 -3.76216 3.10343 0
M  V30 12142 H 1132.07 -2.38675 4.95292 0
M  V30 12143 H 1133.3 -3.01518 6.08493 0
M  V30 12144 H 1131.24 -4.68778 4.58893 0
M  V30 12145 H 1131.16 -4.23778 6.26058 0
M  V30 12146 H 1132.43 -5.29654 5.71915 0
M  V30 12147 N 1136.66 -1.52894 -0.382264 0
M  V30 12148 C 1137.91 -1.68266 -1.12663 0
M  V30 12149 C 1138.23 -0.425974 -1.89778 0
M  V30 12150 O 1137.49 0.59178 -1.86538 0
M  V30 12151 C 1137.79 -2.87309 -2.12576 0
M  V30 12152 C 1137.45 -4.24484 -1.52067 0
M  V30 12153 C 1136.12 -4.6179 -1.35292 0
M  V30 12154 C 1138.47 -5.09858 -1.08138 0
M  V30 12155 C 1135.8 -5.82123 -0.731449 0
M  V30 12156 C 1138.15 -6.30822 -0.473986 0
M  V30 12157 C 1136.81 -6.66854 -0.293585 0
M  V30 12158 H 1136.08 -0.615728 -0.412262 0
M  V30 12159 H 1138.73 -1.8705 -0.410425 0
M  V30 12160 H 1137.03 -2.62968 -2.90439 0
M  V30 12161 H 1138.73 -2.96397 -2.70092 0
M  V30 12162 H 1135.32 -3.951 -1.66114 0
M  V30 12163 H 1139.5 -4.816 -1.19898 0
M  V30 12164 H 1134.76 -6.08643 -0.579938 0
M  V30 12165 H 1138.93 -6.96287 -0.125324 0
M  V30 12166 H 1136.56 -7.59962 0.190054 0
M  V30 12167 N 1138.14 0.641106 -1.43971 0
M  V30 12168 C 1139.39 1.39676 -1.45511 0
M  V30 12169 C 1139.7 1.95403 -0.0877084 0
M  V30 12170 O 1140.91 2.71493 0.0193965 0
M  V30 12171 C 1139.36 2.52839 -2.56126 0
M  V30 12172 C 1138.97 2.03668 -3.99028 0
M  V30 12173 C 1140.71 3.30118 -2.66875 0
M  V30 12174 C 1138.62 3.14114 -5.01085 0
M  V30 12175 H 1137.55 0.524854 -0.541336 0
M  V30 12176 H 1140.2 0.69075 -1.70003 0
M  V30 12177 H 1138.58 3.25968 -2.24857 0
M  V30 12178 H 1139.76 1.3747 -4.39817 0
M  V30 12179 H 1138.07 1.39233 -3.92432 0
M  V30 12180 H 1140.67 4.12434 -3.40297 0
M  V30 12181 H 1141.01 3.78946 -1.72353 0
M  V30 12182 H 1141.55 2.64075 -2.97505 0
M  V30 12183 H 1138.28 2.70241 -5.97202 0
M  V30 12184 H 1137.8 3.78985 -4.64898 0
M  V30 12185 H 1139.48 3.79051 -5.24337 0
M  V30 12186 N 1139.62 1.30703 0.880598 0
M  V30 12187 C 1140.86 1.19541 1.62955 0
M  V30 12188 C 1141.18 -0.249089 1.93403 0
M  V30 12189 O 1140.45 -1.1669 1.57354 0
M  V30 12190 H 1139.03 0.439434 0.604075 0
M  V30 12191 H 1141.7 1.63888 1.05483 0
M  V30 12192 H 1140.79 1.75945 2.57779 0
M  V30 12193 N 1141.09 -1.09351 1.1349 0
M  V30 12194 C 1142.34 -1.81543 0.897123 0
M  V30 12195 C 1142.67 -1.85754 -0.576703 0
M  V30 12196 O 1141.92 -1.32213 -1.44285 0
M  V30 12197 C 1142.22 -3.27498 1.43108 0
M  V30 12198 C 1141.89 -3.4342 2.92188 0
M  V30 12199 C 1140.55 -3.47473 3.32891 0
M  V30 12200 C 1142.9 -3.47894 3.88097 0
M  V30 12201 C 1140.23 -3.5358 4.68186 0
M  V30 12202 C 1142.58 -3.55535 5.23238 0
M  V30 12203 C 1141.25 -3.57857 5.63467 0
M  V30 12204 H 1140.52 -0.664314 0.32828 0
M  V30 12205 H 1143.16 -1.28819 1.41697 0
M  V30 12206 H 1141.47 -3.82865 0.831946 0
M  V30 12207 H 1143.17 -3.8189 1.22316 0
M  V30 12208 H 1139.76 -3.4095 2.59713 0
M  V30 12209 H 1143.94 -3.44002 3.57737 0
M  V30 12210 H 1139.2 -3.53665 4.9873 0
M  V30 12211 H 1143.37 -3.57942 5.9737 0
M  V30 12212 H 1141 -3.62341 6.68291 0
M  V30 12213 N 1142.57 -0.928524 -1.27343 0
M  V30 12214 C 1143.8 -0.585734 -1.98436 0
M  V30 12215 C 1144.21 0.83644 -1.69261 0
M  V30 12216 O 1143.57 1.55603 -0.953626 0
M  V30 12217 C 1143.62 -0.803092 -3.52467 0
M  V30 12218 O 1143.34 -2.16932 -3.80621 0
M  V30 12219 C 1144.84 -0.469127 -4.40811 0
M  V30 12220 H 1142.06 -0.221887 -0.633251 0
M  V30 12221 H 1144.61 -1.24577 -1.62175 0
M  V30 12222 H 1142.76 -0.189846 -3.86935 0
M  V30 12223 H 1143.18 -2.21992 -4.75205 0
M  V30 12224 H 1144.65 -0.671906 -5.47895 0
M  V30 12225 H 1145.13 0.595365 -4.35146 0
M  V30 12226 H 1145.73 -1.06055 -4.11865 0
M  V30 12227 N 1144.05 1.41491 -0.694123 0
M  V30 12228 C 1144.98 2.28189 0.0226347 0
M  V30 12229 C 1145.96 1.42152 0.7894 0
M  V30 12230 O 1147.14 1.71581 0.780519 0
M  V30 12231 C 1144.27 3.22357 1.03942 0
M  V30 12232 C 1143.32 4.24927 0.365994 0
M  V30 12233 S 1144.15 5.28043 -0.890562 0
M  V30 12234 C 1145.31 6.25776 0.124665 0
M  V30 12235 H 1145.54 2.88631 -0.712698 0
M  V30 12236 H 1143.07 1.46607 -0.484344 0
M  V30 12237 H 1145.03 3.77143 1.62091 0
M  V30 12238 H 1143.69 2.61013 1.74732 0
M  V30 12239 H 1142.88 4.9108 1.13388 0
M  V30 12240 H 1142.49 3.73729 -0.142389 0
M  V30 12241 H 1144.78 6.70398 0.978393 0
M  V30 12242 H 1145.72 7.06312 -0.502901 0
M  V30 12243 H 1146.13 5.62466 0.478792 0
M  V30 12244 N 1145.53 0.438773 1.51369 0
M  V30 12245 C 1146.76 -0.125665 2.06217 0
M  V30 12246 C 1147.17 -1.36887 1.30609 0
M  V30 12247 O 1146.51 -1.80149 0.359433 0
M  V30 12248 C 1146.57 -0.511846 3.55838 0
M  V30 12249 C 1146.23 0.624755 4.52709 0
M  V30 12250 C 1147.23 1.49731 4.97872 0
M  V30 12251 C 1144.92 0.805895 4.95793 0
M  V30 12252 C 1146.91 2.53569 5.84792 0
M  V30 12253 C 1144.6 1.84755 5.82502 0
M  V30 12254 C 1145.6 2.71083 6.269 0
M  V30 12255 O 1145.28 3.7346 7.11887 0
M  V30 12256 H 1145.02 -0.0107227 0.675915 0
M  V30 12257 H 1147.57 0.617071 1.95912 0
M  V30 12258 H 1145.8 -1.30731 3.63932 0
M  V30 12259 H 1147.49 -1.0076 3.93195 0
M  V30 12260 H 1148.25 1.36891 4.65281 0
M  V30 12261 H 1144.13 0.14352 4.60777 0
M  V30 12262 H 1147.68 3.20984 6.19367 0
M  V30 12263 H 1143.57 1.97614 6.14507 0
M  V30 12264 H 1144.34 3.70058 7.30068 0
M  V30 12265 N 1147.01 -1.56678 0.170181 0
M  V30 12266 C 1148.23 -2.01223 -0.481362 0
M  V30 12267 C 1148.65 -1.05039 -1.56883 0
M  V30 12268 O 1148.01 -0.0510751 -1.82429 0
M  V30 12269 C 1148.06 -3.45588 -1.06073 0
M  V30 12270 O 1147.78 -4.38097 -0.0166754 0
M  V30 12271 C 1149.28 -4.05527 -1.79061 0
M  V30 12272 H 1146.5 -0.659574 -0.1233 0
M  V30 12273 H 1149.04 -2.02689 0.271576 0
M  V30 12274 H 1147.2 -3.449 -1.76417 0
M  V30 12275 H 1147.61 -5.22615 -0.444276 0
M  V30 12276 H 1149.09 -5.08467 -2.1486 0
M  V30 12277 H 1149.56 -3.47554 -2.68519 0
M  V30 12278 H 1150.17 -4.09914 -1.13361 0
M  V30 12279 N 1148.48 0.103547 -1.57259 0
M  V30 12280 C 1149.71 0.82235 -1.89855 0
M  V30 12281 C 1150.13 1.72694 -0.76303 0
M  V30 12282 O 1149.48 1.8056 0.265421 0
M  V30 12283 C 1149.53 1.64282 -3.22015 0
M  V30 12284 O 1149.26 0.774628 -4.31197 0
M  V30 12285 C 1150.76 2.46543 -3.68418 0
M  V30 12286 H 1147.98 0.235591 -0.628282 0
M  V30 12287 H 1150.52 0.0833106 -2.0433 0
M  V30 12288 H 1148.68 2.33446 -3.09163 0
M  V30 12289 H 1149.09 1.34205 -5.0704 0
M  V30 12290 H 1150.56 2.99618 -4.63609 0
M  V30 12291 H 1151.04 3.24618 -2.95838 0
M  V30 12292 H 1151.65 1.82594 -3.84109 0
M  V30 12293 N 1149.96 1.53094 0.37415 0
M  V30 12294 C 1151.2 1.70558 1.12647 0
M  V30 12295 C 1151.57 0.443515 1.86807 0
M  V30 12296 O 1152.77 0.49472 2.64208 0
M  V30 12297 C 1151.04 2.91565 2.06699 0
M  V30 12298 S 1152.6 3.29692 2.89567 0
M  V30 12299 H 1149.41 0.600238 0.381097 0
M  V30 12300 H 1152.02 1.91177 0.408865 0
M  V30 12301 H 1150.72 3.81625 1.50965 0
M  V30 12302 H 1150.25 2.73323 2.82945 0
M  V30 12303 H 1152.27 2.81036 4.08942 0
M  V30 12304 N 1151.44 -0.633461 1.44309 0
M  V30 12305 C 1152.69 -1.38902 1.4625 0
M  V30 12306 C 1153 -1.95354 0.0980699 0
M  V30 12307 O 1154.21 -2.715 -0.0049983 0
M  V30 12308 C 1152.66 -2.51477 2.57463 0
M  V30 12309 C 1152.27 -2.01549 4.00103 0
M  V30 12310 C 1154.02 -3.28698 2.68622 0
M  V30 12311 C 1151.92 -3.11452 5.02744 0
M  V30 12312 H 1150.85 -0.521976 0.544112 0
M  V30 12313 H 1153.5 -0.681725 1.70367 0
M  V30 12314 H 1151.89 -3.24771 2.26582 0
M  V30 12315 H 1153.06 -1.35135 4.4054 0
M  V30 12316 H 1151.37 -1.3715 3.93165 0
M  V30 12317 H 1153.97 -4.10624 3.42479 0
M  V30 12318 H 1154.31 -3.78027 1.7436 0
M  V30 12319 H 1154.85 -2.62494 2.98901 0
M  V30 12320 H 1151.59 -2.6707 5.98627 0
M  V30 12321 H 1151.11 -3.76514 4.66902 0
M  V30 12322 H 1152.79 -3.76265 5.2634 0
M  V30 12323 N 1152.92 -1.31168 -0.873655 0
M  V30 12324 C 1154.17 -1.20003 -1.62118 0
M  V30 12325 C 1154.48 0.241505 -1.94103 0
M  V30 12326 O 1155.69 0.474801 -2.67316 0
M  V30 12327 C 1154.14 -2.10055 -2.92241 0
M  V30 12328 C 1153.75 -3.59183 -2.67752 0
M  V30 12329 C 1155.49 -2.07681 -3.70228 0
M  V30 12330 C 1153.4 -4.41255 -3.93761 0
M  V30 12331 H 1152.33 -0.445564 -0.608267 0
M  V30 12332 H 1154.98 -1.55997 -0.966287 0
M  V30 12333 H 1153.36 -1.66956 -3.59085 0
M  V30 12334 H 1154.54 -4.10504 -2.09339 0
M  V30 12335 H 1152.85 -3.63496 -2.03125 0
M  V30 12336 H 1155.45 -2.66246 -4.637 0
M  V30 12337 H 1155.79 -1.06304 -4.02499 0
M  V30 12338 H 1156.33 -2.48961 -3.10263 0
M  V30 12339 H 1153.07 -5.43372 -3.66643 0
M  V30 12340 H 1152.59 -3.94694 -4.51638 0
M  V30 12341 H 1154.26 -4.53278 -4.6168 0
M  V30 12342 N 1154.4 1.08748 -1.14068 0
M  V30 12343 C 1155.64 1.81504 -0.918035 0
M  V30 12344 C 1156 1.84381 0.549671 0
M  V30 12345 O 1155.29 1.30612 1.40183 0
M  V30 12346 C 1155.48 3.26734 -1.44843 0
M  V30 12347 C 1155.31 3.38006 -2.96617 0
M  V30 12348 C 1154.08 3.49401 -3.6503 0
M  V30 12349 C 1156.28 3.29952 -3.94507 0
M  V30 12350 N 1154.26 3.49428 -5.04751 0
M  V30 12351 C 1155.63 3.3693 -5.20459 0
M  V30 12352 C 1157.69 3.13666 -3.86676 0
M  V30 12353 C 1156.39 3.29299 -6.39496 0
M  V30 12354 C 1158.42 3.07363 -5.05254 0
M  V30 12355 C 1157.78 3.1494 -6.30073 0
M  V30 12356 H 1153.88 0.67814 -0.389423 0
M  V30 12357 H 1156.46 1.29916 -1.45017 0
M  V30 12358 H 1154.63 3.76776 -0.943112 0
M  V30 12359 H 1156.37 3.87537 -1.16606 0
M  V30 12360 H 1153.12 3.53145 -3.15572 0
M  V30 12361 H 1153.55 3.53007 -5.77681 0
M  V30 12362 H 1158.19 3.06673 -2.91053 0
M  V30 12363 H 1155.91 3.35054 -7.35367 0
M  V30 12364 H 1159.49 2.95887 -5.00941 0
M  V30 12365 H 1158.37 3.10088 -7.20288 0
M  V30 12366 N 1155.87 0.935264 1.26849 0
M  V30 12367 C 1156.8 0.457776 2.28969 0
M  V30 12368 C 1157.79 -0.48587 1.63013 0
M  V30 12369 O 1158.97 -0.388998 1.90264 0
M  V30 12370 C 1156.1 -0.283332 3.46142 0
M  V30 12371 C 1155.05 0.573196 4.24144 0
M  V30 12372 C 1154.38 -0.297525 5.33872 0
M  V30 12373 C 1155.68 1.84153 4.88759 0
M  V30 12374 H 1157.37 1.31125 2.69159 0
M  V30 12375 H 1154.92 0.631956 1.29392 0
M  V30 12376 H 1156.87 -0.628366 4.16689 0
M  V30 12377 H 1155.6 -1.1709 3.04889 0
M  V30 12378 H 1154.26 0.901043 3.55354 0
M  V30 12379 H 1153.9 -1.18427 4.8886 0
M  V30 12380 H 1153.6 0.272126 5.8697 0
M  V30 12381 H 1155.13 -0.637961 6.07258 0
M  V30 12382 H 1156.54 1.5641 5.51551 0
M  V30 12383 H 1154.94 2.35528 5.51948 0
M  V30 12384 H 1156.01 2.5565 4.12033 0
M  V30 12385 N 1157.35 -1.41121 0.701616 0
M  V30 12386 C 1158.32 -2.29148 0.0490091 0
M  V30 12387 C 1159.32 -1.44679 -0.701763 0
M  V30 12388 O 1160.51 -1.65757 -0.53575 0
M  V30 12389 C 1157.64 -3.2766 -0.940837 0
M  V30 12390 H 1158.83 -2.88354 0.824133 0
M  V30 12391 H 1156.38 -1.49209 0.465457 0
M  V30 12392 H 1157.12 -2.73445 -1.74351 0
M  V30 12393 H 1156.9 -3.89997 -0.405551 0
M  V30 12394 H 1158.39 -3.93609 -1.39507 0
M  V30 12395 N 1158.83 -0.446794 -1.51134 0
M  V30 12396 C 1160.08 0.116493 -2.02165 0
M  V30 12397 C 1160.41 1.41884 -1.33039 0
M  V30 12398 O 1159.66 1.90757 -0.437071 0
M  V30 12399 C 1159.96 0.373015 -3.55448 0
M  V30 12400 C 1159.63 -0.844659 -4.42918 0
M  V30 12401 C 1158.29 -1.17857 -4.66544 0
M  V30 12402 C 1160.64 -1.65653 -4.94174 0
M  V30 12403 C 1157.97 -2.32486 -5.38672 0
M  V30 12404 C 1160.32 -2.7939 -5.6756 0
M  V30 12405 C 1158.98 -3.13224 -5.89446 0
M  V30 12406 H 1158.25 0.0426279 -0.739773 0
M  V30 12407 H 1160.9 -0.595921 -1.81992 0
M  V30 12408 H 1159.21 1.16742 -3.74003 0
M  V30 12409 H 1160.9 0.822425 -3.92476 0
M  V30 12410 H 1157.49 -0.574478 -4.24733 0
M  V30 12411 H 1161.68 -1.41176 -4.75797 0
M  V30 12412 H 1156.93 -2.59003 -5.5383 0
M  V30 12413 H 1161.11 -3.42662 -6.06264 0
M  V30 12414 H 1158.73 -4.02158 -6.45115 0
M  V30 12415 N 1160.31 1.56586 -0.178487 0
M  V30 12416 C 1161.24 2.21313 0.744486 0
M  V30 12417 C 1162.22 1.17098 1.23377 0
M  V30 12418 O 1163.4 1.45551 1.28563 0
M  V30 12419 C 1160.53 2.8595 1.97103 0
M  V30 12420 C 1159.49 3.96266 1.61732 0
M  V30 12421 C 1158.81 4.47987 2.91911 0
M  V30 12422 C 1160.11 5.15503 0.839868 0
M  V30 12423 H 1161.81 2.98698 0.204938 0
M  V30 12424 H 1159.35 1.43672 0.0971306 0
M  V30 12425 H 1161.31 3.29909 2.6218 0
M  V30 12426 H 1160.03 2.05946 2.53484 0
M  V30 12427 H 1158.69 3.52974 0.990208 0
M  V30 12428 H 1158.34 3.64765 3.46346 0
M  V30 12429 H 1158.04 5.22413 2.68995 0
M  V30 12430 H 1159.56 4.94637 3.58004 0
M  V30 12431 H 1160.98 5.5611 1.39337 0
M  V30 12432 H 1159.37 5.95891 0.709473 0
M  V30 12433 H 1160.44 4.84628 -0.162396 0
M  V30 12434 N 1161.79 -0.095206 1.57312 0
M  V30 12435 C 1163.2 -0.649733 1.7503 0
M  V30 12436 C 1163.55 -1.7912 0.800652 0
M  V30 12437 O 1162.67 -2.1639 -0.0208831 0
M  V30 12438 C 1163.27 -1.18541 3.17386 0
M  V30 12439 C 1161.83 -1.686 3.36528 0
M  V30 12440 C 1160.97 -0.595531 2.7083 0
M  V30 12441 H 1163.93 0.130863 1.5816 0
M  V30 12442 H 1163.95 -2.05473 3.20252 0
M  V30 12443 H 1163.46 -0.35441 3.86478 0
M  V30 12444 H 1161.56 -2.541 2.72514 0
M  V30 12445 H 1161.67 -1.77907 4.44844 0
M  V30 12446 H 1160.04 -1.03495 2.32725 0
M  V30 12447 H 1160.82 0.224883 3.42563 0
M  V30 12448 N 1163.26 -1.53291 -0.366026 0
M  V30 12449 C 1164.51 -1.68671 -1.10602 0
M  V30 12450 C 1164.83 -0.444793 -1.90476 0
M  V30 12451 O 1166.03 -0.479135 -2.67239 0
M  V30 12452 C 1164.49 -2.98174 -2.01545 0
M  V30 12453 C 1164.1 -4.29626 -1.26986 0
M  V30 12454 C 1165.84 -3.22921 -2.7554 0
M  V30 12455 C 1163.75 -5.50218 -2.16828 0
M  V30 12456 H 1162.68 -0.628456 -0.416604 0
M  V30 12457 H 1165.33 -1.79791 -0.367058 0
M  V30 12458 H 1163.71 -2.80855 -2.79171 0
M  V30 12459 H 1164.88 -4.57574 -0.544269 0
M  V30 12460 H 1163.2 -4.11318 -0.648558 0
M  V30 12461 H 1165.8 -4.10202 -3.42985 0
M  V30 12462 H 1166.14 -2.38964 -3.40884 0
M  V30 12463 H 1166.67 -3.40912 -2.04997 0
M  V30 12464 H 1163.41 -6.36651 -1.56063 0
M  V30 12465 H 1162.93 -5.26549 -2.87238 0
M  V30 12466 H 1164.61 -5.84991 -2.76396 0
M  V30 12467 N 1164.74 0.6258 -1.44643 0
M  V30 12468 C 1165.99 1.38525 -1.47706 0
M  V30 12469 C 1166.32 1.94179 -0.111703 0
M  V30 12470 O 1165.57 1.74432 0.887237 0
M  V30 12471 C 1165.87 2.56466 -2.48917 0
M  V30 12472 C 1165.54 2.19069 -3.94106 0
M  V30 12473 C 1164.2 2.08583 -4.33643 0
M  V30 12474 C 1166.55 1.89608 -4.85488 0
M  V30 12475 C 1163.88 1.66831 -5.6248 0
M  V30 12476 C 1166.23 1.49347 -6.14718 0
M  V30 12477 C 1164.9 1.37406 -6.53204 0
M  V30 12478 H 1164.17 0.506899 -0.540494 0
M  V30 12479 H 1166.81 0.709128 -1.77887 0
M  V30 12480 H 1165.12 3.29335 -2.12239 0
M  V30 12481 H 1166.81 3.14695 -2.48532 0
M  V30 12482 H 1163.4 2.28151 -3.62829 0
M  V30 12483 H 1167.59 1.96616 -4.55693 0
M  V30 12484 H 1162.84 1.56195 -5.91112 0
M  V30 12485 H 1167.02 1.2559 -6.84982 0
M  V30 12486 H 1164.65 1.04826 -7.52938 0
M  V30 12487 N 1166.22 1.31629 0.866686 0
M  V30 12488 C 1167.45 1.24293 1.6503 0
M  V30 12489 C 1167.86 -0.193556 1.88207 0
M  V30 12490 O 1167.2 -1.13712 1.44275 0
M  V30 12491 C 1167.26 1.92032 3.03914 0
M  V30 12492 C 1166.93 3.41373 3.03831 0
M  V30 12493 C 1167.92 4.37064 2.81551 0
M  V30 12494 C 1165.61 3.83118 3.24848 0
M  V30 12495 C 1167.6 5.72474 2.80272 0
M  V30 12496 C 1165.29 5.18639 3.23197 0
M  V30 12497 C 1166.29 6.13128 3.00936 0
M  V30 12498 O 1165.98 7.46172 2.99137 0
M  V30 12499 H 1165.71 0.430569 0.521139 0
M  V30 12500 H 1168.26 1.74105 1.0898 0
M  V30 12501 H 1166.49 1.36774 3.61704 0
M  V30 12502 H 1168.18 1.78567 3.64512 0
M  V30 12503 H 1168.95 4.06142 2.65093 0
M  V30 12504 H 1164.83 3.10001 3.41204 0
M  V30 12505 H 1168.37 6.46199 2.62816 0
M  V30 12506 H 1164.27 5.49196 3.39197 0
M  V30 12507 H 1165.04 7.55385 3.15175 0
M  V30 12508 N 1167.7 -1.08142 1.14644 0
M  V30 12509 C 1168.95 -1.80849 0.917685 0
M  V30 12510 C 1169.28 -1.86123 -0.554249 0
M  V30 12511 O 1168.55 -1.33907 -1.41065 0
M  V30 12512 C 1168.84 -3.26325 1.52264 0
M  V30 12513 C 1168.69 -3.29244 3.06461 0
M  V30 12514 C 1170.01 -4.23375 1.20175 0
M  V30 12515 H 1167.13 -0.656559 0.334812 0
M  V30 12516 H 1169.77 -1.26595 1.41682 0
M  V30 12517 H 1167.92 -3.72656 1.09817 0
M  V30 12518 H 1169.59 -2.91216 3.57758 0
M  V30 12519 H 1167.83 -2.68438 3.40769 0
M  V30 12520 H 1168.51 -4.31785 3.43897 0
M  V30 12521 H 1170.98 -3.85394 1.56877 0
M  V30 12522 H 1169.86 -5.23472 1.65132 0
M  V30 12523 H 1170.12 -4.41944 0.117474 0
M  V30 12524 N 1169.18 -0.941978 -1.26351 0
M  V30 12525 C 1170.41 -0.606748 -1.97803 0
M  V30 12526 C 1170.82 0.818441 -1.70138 0
M  V30 12527 O 1170.18 1.54583 -0.970076 0
M  V30 12528 C 1170.23 -0.840431 -3.51595 0
M  V30 12529 O 1169.95 -2.20957 -3.78299 0
M  V30 12530 C 1171.45 -0.515855 -4.40288 0
M  V30 12531 H 1168.67 -0.228591 -0.630862 0
M  V30 12532 H 1171.21 -1.2629 -1.60845 0
M  V30 12533 H 1169.37 -0.230875 -3.86711 0
M  V30 12534 H 1169.78 -2.2702 -4.72824 0
M  V30 12535 H 1171.26 -0.72998 -5.47152 0
M  V30 12536 H 1171.73 0.549178 -4.35753 0
M  V30 12537 H 1172.34 -1.10417 -4.10717 0
M  V30 12538 N 1170.66 1.40747 -0.709091 0
M  V30 12539 C 1171.88 2.05841 -0.253816 0
M  V30 12540 C 1172.31 1.53056 1.09341 0
M  V30 12541 O 1171.66 0.663181 1.68735 0
M  V30 12542 C 1171.71 3.59822 -0.236699 0
M  V30 12543 O 1170.82 4.04876 0.784168 0
M  V30 12544 H 1170.16 0.65295 -0.120631 0
M  V30 12545 H 1172.69 1.80266 -0.967749 0
M  V30 12546 H 1172.7 4.07936 -0.0721616 0
M  V30 12547 H 1171.37 3.97608 -1.21988 0
M  V30 12548 H 1169.95 3.68237 0.587884 0
M  V30 12549 N 1172.13 0.454803 1.50895 0
M  V30 12550 C 1173.36 -0.106259 2.07128 0
M  V30 12551 C 1173.78 -1.3418 1.31823 0
M  V30 12552 O 1173.14 -1.77667 0.361147 0
M  V30 12553 C 1173.19 -0.389609 3.58489 0
M  V30 12554 O 1172.29 -1.47305 3.85195 0
M  V30 12555 H 1171.63 0.00580588 0.663975 0
M  V30 12556 H 1174.16 0.641163 1.94294 0
M  V30 12557 H 1174.17 -0.634934 4.03029 0
M  V30 12558 H 1172.85 0.513338 4.1272 0
M  V30 12559 H 1171.43 -1.21631 3.52506 0
M  V30 12560 N 1173.61 -1.56489 0.186789 0
M  V30 12561 C 1174.89 -1.89066 -0.501337 0
M  V30 12562 C 1175.27 -1.09906 -1.80233 0
M  V30 12563 O 1174.62 -0.197626 -2.27644 0
M  V30 12564 C 1174.83 -3.41318 -0.728207 0
M  V30 12565 C 1176.17 -4.11379 -1.0513 0
M  V30 12566 O 1177.2 -3.46722 -0.816216 0
M  V30 12567 O 1176.06 -5.25638 -1.49557 0
M  V30 12568 H 1173.15 -0.784966 -0.260303 0
M  V30 12569 H 1175.7 -1.68183 0.226382 0
M  V30 12570 H 1174.47 -3.90834 0.19088 0
M  V30 12571 H 1174.09 -3.67865 -1.50869 0
M  V30 12572 N 1175.09 0.086862 -1.5736 0
M  V30 12573 C 1176.32 0.801004 -1.9044 0
M  V30 12574 C 1176.73 1.72396 -0.779513 0
M  V30 12575 O 1176.07 1.81894 0.256972 0
M  V30 12576 C 1176.13 1.66055 -3.18851 0
M  V30 12577 C 1175.8 0.908561 -4.47877 0
M  V30 12578 C 1176.79 0.234621 -5.1937 0
M  V30 12579 C 1174.48 0.8802 -4.94528 0
M  V30 12580 C 1176.47 -0.45762 -6.35755 0
M  V30 12581 C 1174.16 0.184179 -6.10822 0
M  V30 12582 C 1175.16 -0.483545 -6.81286 0
M  V30 12583 O 1174.85 -1.16839 -7.95364 0
M  V30 12584 H 1174.58 0.233794 -0.634284 0
M  V30 12585 H 1177.13 0.0660113 -2.05294 0
M  V30 12586 H 1175.36 2.43798 -3.00165 0
M  V30 12587 H 1177.05 2.252 -3.37698 0
M  V30 12588 H 1177.82 0.247938 -4.84366 0
M  V30 12589 H 1173.7 1.38938 -4.39565 0
M  V30 12590 H 1177.24 -0.979369 -6.90691 0
M  V30 12591 H 1173.14 0.168737 -6.45279 0
M  V30 12592 H 1173.9 -1.07612 -8.11395 0
M  V30 12593 N 1176.57 1.53483 0.357892 0
M  V30 12594 C 1177.98 1.43426 0.700073 0
M  V30 12595 C 1178.18 0.579493 1.92987 0
M  V30 12596 O 1177.24 0.0649086 2.52417 0
M  V30 12597 C 1178.55 2.86723 0.906099 0
M  V30 12598 C 1180.1 2.96405 1.00563 0
M  V30 12599 C 1180.58 4.4078 1.24407 0
M  V30 12600 N 1182.07 4.44243 1.3116 0
M  V30 12601 C 1182.8 5.53069 1.51333 0
M  V30 12602 N 1182.3 6.71928 1.68774 0
M  V30 12603 N 1184.09 5.40659 1.53765 0
M  V30 12604 H 1176.24 2.07559 -0.450894 0
M  V30 12605 H 1178.5 0.937649 -0.139711 0
M  V30 12606 H 1178.21 3.51622 0.0741579 0
M  V30 12607 H 1178.08 3.30827 1.81199 0
M  V30 12608 H 1180.47 2.31656 1.8281 0
M  V30 12609 H 1180.55 2.55684 0.0769512 0
M  V30 12610 H 1180.2 5.06105 0.426575 0
M  V30 12611 H 1180.13 4.7908 2.18608 0
M  V30 12612 H 1182.62 3.58587 1.19265 0
M  V30 12613 H 1182.93 7.50634 1.83762 0
M  V30 12614 H 1181.28 6.749 1.65937 0
M  V30 12615 H 1184.47 4.46764 1.39713 0
M  V30 12616 H 1184.64 6.25535 1.69146 0
M  V30 12617 N 1178.05 -0.61812 1.44973 0
M  V30 12618 C 1179.29 -1.37944 1.48658 0
M  V30 12619 C 1179.62 -1.93805 0.123749 0
M  V30 12620 O 1178.9 -1.74434 -0.860401 0
M  V30 12621 C 1179.18 -2.53515 2.55739 0
M  V30 12622 C 1179.04 -2.02918 4.01428 0
M  V30 12623 C 1180.35 -3.55674 2.59199 0
M  V30 12624 H 1177.47 -0.500223 0.541244 0
M  V30 12625 H 1180.12 -0.69774 1.76725 0
M  V30 12626 H 1178.27 -3.11669 2.31937 0
M  V30 12627 H 1179.94 -1.49494 4.36405 0
M  V30 12628 H 1178.18 -1.33999 4.12586 0
M  V30 12629 H 1178.85 -2.86181 4.72021 0
M  V30 12630 H 1181.33 -3.07343 2.80499 0
M  V30 12631 H 1180.2 -4.34042 3.36004 0
M  V30 12632 H 1180.46 -4.10601 1.63888 0
M  V30 12633 N 1179.52 -1.32087 -0.859693 0
M  V30 12634 C 1180.46 -1.16426 -1.97428 0
M  V30 12635 C 1181.47 -0.100582 -1.62489 0
M  V30 12636 O 1182.66 -0.349063 -1.75054 0
M  V30 12637 C 1179.76 -0.758822 -3.30295 0
M  V30 12638 C 1178.93 -1.90971 -3.93508 0
M  V30 12639 C 1177.99 -1.48865 -5.04704 0
M  V30 12640 O 1177.02 -2.1999 -5.2497 0
M  V30 12641 N 1178.22 -0.38182 -5.79243 0
M  V30 12642 H 1180.98 -2.12433 -2.11406 0
M  V30 12643 H 1178.54 -1.24558 -1.03426 0
M  V30 12644 H 1180.54 -0.459643 -4.02081 0
M  V30 12645 H 1179.11 0.109944 -3.12407 0
M  V30 12646 H 1178.33 -2.37566 -3.14573 0
M  V30 12647 H 1179.61 -2.68032 -4.32477 0
M  V30 12648 H 1179.01 0.210268 -5.65309 0
M  V30 12649 H 1177.57 -0.142224 -6.51645 0
M  V30 12650 N 1181 1.07532 -1.15215 0
M  V30 12651 C 1182.23 1.83817 -0.949687 0
M  V30 12652 C 1182.64 1.82004 0.501991 0
M  V30 12653 O 1182 1.23014 1.34811 0
M  V30 12654 C 1182.05 3.30978 -1.45382 0
M  V30 12655 O 1181.77 3.32844 -2.84863 0
M  V30 12656 C 1183.27 4.24037 -1.29257 0
M  V30 12657 H 1180.49 0.58 -0.337404 0
M  V30 12658 H 1183.04 1.35752 -1.52944 0
M  V30 12659 H 1181.19 3.76399 -0.916638 0
M  V30 12660 H 1181.61 4.24773 -3.07682 0
M  V30 12661 H 1183.08 5.25371 -1.69379 0
M  V30 12662 H 1183.56 4.38563 -0.236519 0
M  V30 12663 H 1184.16 3.8445 -1.81874 0
M  V30 12664 N 1182.48 0.948665 1.2585 0
M  V30 12665 C 1183.71 0.617229 1.97479 0
M  V30 12666 C 1184.12 -0.809406 1.7057 0
M  V30 12667 O 1183.48 -1.54066 0.97826 0
M  V30 12668 C 1183.53 0.859065 3.51144 0
M  V30 12669 O 1183.25 2.2296 3.77121 0
M  V30 12670 C 1184.75 0.539197 4.40009 0
M  V30 12671 H 1181.97 0.231933 0.629641 0
M  V30 12672 H 1184.52 1.27141 1.60173 0
M  V30 12673 H 1182.67 0.25138 3.86584 0
M  V30 12674 H 1183.09 2.29524 4.71613 0
M  V30 12675 H 1184.56 0.758986 5.46757 0
M  V30 12676 H 1185.04 -0.526062 4.36038 0
M  V30 12677 H 1185.64 1.12594 4.10125 0
M  V30 12678 N 1183.96 -1.40369 0.716545 0
M  V30 12679 C 1185.19 -2.05181 0.266143 0
M  V30 12680 C 1185.6 -1.53988 -1.09239 0
M  V30 12681 O 1184.96 -0.696859 -1.68672 0
M  V30 12682 C 1185.01 -3.60713 0.238384 0
M  V30 12683 O 1184.73 -4.10018 1.54328 0
M  V30 12684 C 1186.23 -4.42701 -0.230453 0
M  V30 12685 H 1183.45 -0.66028 0.119463 0
M  V30 12686 H 1186 -1.7976 0.97502 0
M  V30 12687 H 1184.15 -3.85101 -0.421466 0
M  V30 12688 H 1184.56 -5.0422 1.4444 0
M  V30 12689 H 1186.04 -5.51642 -0.198728 0
M  V30 12690 H 1186.52 -4.20354 -1.27276 0
M  V30 12691 H 1187.12 -4.23423 0.399155 0
M  V30 12692 N 1185.44 -0.462799 -1.50652 0
M  V30 12693 C 1186.37 0.381469 -2.24989 0
M  V30 12694 C 1187.35 1.00328 -1.27957 0
M  V30 12695 O 1188.53 1.04082 -1.5716 0
M  V30 12696 C 1185.66 1.53378 -3.01981 0
M  V30 12697 C 1184.7 1.03017 -4.13872 0
M  V30 12698 S 1185.54 -0.048447 -5.35478 0
M  V30 12699 C 1186.69 1.10794 -6.16016 0
M  V30 12700 H 1186.93 -0.249578 -2.96251 0
M  V30 12701 H 1184.46 -0.247583 -1.52402 0
M  V30 12702 H 1186.42 2.19425 -3.46934 0
M  V30 12703 H 1185.08 2.13632 -2.30261 0
M  V30 12704 H 1184.27 1.8926 -4.67115 0
M  V30 12705 H 1183.87 0.447548 -3.71313 0
M  V30 12706 H 1186.17 2.02125 -6.46646 0
M  V30 12707 H 1187.11 0.614937 -7.05425 0
M  V30 12708 H 1187.52 1.35802 -5.47922 0
M  V30 12709 N 1186.91 1.56388 -0.195085 0
M  V30 12710 C 1188.15 1.99478 0.445855 0
M  V30 12711 C 1188.52 1.0792 1.588 0
M  V30 12712 O 1189.72 1.40246 2.29313 0
M  V30 12713 C 1187.99 3.46032 0.894248 0
M  V30 12714 S 1189.55 4.11149 1.53303 0
M  V30 12715 H 1186.37 0.696558 0.142575 0
M  V30 12716 H 1188.97 1.93213 -0.298149 0
M  V30 12717 H 1187.67 4.10366 0.0529258 0
M  V30 12718 H 1187.2 3.56114 1.67172 0
M  V30 12719 H 1189.22 4.08155 2.82177 0
M  V30 12720 N 1188.39 -0.0785156 1.57404 0
M  V30 12721 C 1189.64 -0.777722 1.86103 0
M  V30 12722 C 1189.95 -1.79079 0.786771 0
M  V30 12723 O 1191.16 -2.53908 0.961393 0
M  V30 12724 C 1189.62 -1.43407 3.30095 0
M  V30 12725 C 1189.22 -0.459912 4.45633 0
M  V30 12726 C 1190.97 -2.11603 3.68 0
M  V30 12727 C 1188.88 -1.12179 5.80663 0
M  V30 12728 H 1187.81 -0.294205 0.694233 0
M  V30 12729 H 1190.46 -0.0309003 1.83474 0
M  V30 12730 H 1188.84 -2.22892 3.27315 0
M  V30 12731 H 1190.01 0.304642 4.59792 0
M  V30 12732 H 1188.33 0.117242 4.16235 0
M  V30 12733 H 1190.92 -2.61887 4.66175 0
M  V30 12734 H 1191.27 -2.91244 2.9746 0
M  V30 12735 H 1191.8 -1.38958 3.72741 0
M  V30 12736 H 1188.54 -0.365842 6.54478 0
M  V30 12737 H 1188.06 -1.85737 5.70317 0
M  V30 12738 H 1189.74 -1.64355 6.25777 0
M  V30 12739 N 1189.87 -1.5367 -0.349747 0
M  V30 12740 C 1191.1 -1.74858 -1.11532 0
M  V30 12741 C 1191.52 -0.483591 -1.81777 0
M  V30 12742 O 1190.88 0.563399 -1.72324 0
M  V30 12743 C 1190.93 -2.92479 -2.10923 0
M  V30 12744 O 1190.03 -2.62194 -3.18321 0
M  V30 12745 H 1189.37 -0.580219 -0.322865 0
M  V30 12746 H 1191.9 -2.00611 -0.402033 0
M  V30 12747 H 1191.91 -3.19093 -2.54252 0
M  V30 12748 H 1190.59 -3.84228 -1.59191 0
M  V30 12749 H 1189.16 -2.46448 -2.79853 0
M  V30 12750 N 1191.35 0.610423 -1.45298 0
M  V30 12751 C 1192.59 1.37154 -1.49388 0
M  V30 12752 C 1192.93 1.93737 -0.134025 0
M  V30 12753 O 1192.2 1.74888 0.851138 0
M  V30 12754 C 1192.49 2.52155 -2.5708 0
M  V30 12755 C 1192.34 2.00786 -4.02498 0
M  V30 12756 C 1193.66 3.54294 -2.61082 0
M  V30 12757 H 1190.78 0.497346 -0.54389 0
M  V30 12758 H 1193.42 0.688358 -1.77092 0
M  V30 12759 H 1191.57 3.10434 -2.33587 0
M  V30 12760 H 1193.24 1.47178 -4.37191 0
M  V30 12761 H 1191.48 1.31809 -4.1329 0
M  V30 12762 H 1192.15 2.83674 -4.73533 0
M  V30 12763 H 1194.63 3.05851 -2.82125 0
M  V30 12764 H 1193.51 4.32254 -3.38301 0
M  V30 12765 H 1193.77 4.09726 -1.66063 0
M  V30 12766 N 1192.83 1.32541 0.852676 0
M  V30 12767 C 1194.05 1.2636 1.64462 0
M  V30 12768 C 1194.48 -0.16508 1.87374 0
M  V30 12769 O 1193.83 -1.11712 1.42794 0
M  V30 12770 C 1193.88 2.03052 2.97997 0
M  V30 12771 O 1192.99 1.37967 3.88637 0
M  V30 12772 H 1192.33 0.435393 0.501327 0
M  V30 12773 H 1194.86 1.74888 1.06186 0
M  V30 12774 H 1194.87 2.133 3.47803 0
M  V30 12775 H 1193.54 3.06941 2.80642 0
M  V30 12776 H 1192.12 1.36279 3.47106 0
M  V30 12777 N 1194.3 -1.0692 1.15784 0
M  V30 12778 C 1195.23 -2.16216 0.881649 0
M  V30 12779 C 1196.22 -1.69253 -0.16951 0
M  V30 12780 O 1197.4 -1.94186 -0.0229511 0
M  V30 12781 C 1194.53 -3.4527 0.374982 0
M  V30 12782 C 1193.48 -4.05706 1.36332 0
M  V30 12783 C 1192.81 -5.29894 0.715317 0
M  V30 12784 C 1194.11 -4.45224 2.7308 0
M  V30 12785 H 1195.8 -2.39577 1.79563 0
M  V30 12786 H 1193.35 -1.15141 0.864784 0
M  V30 12787 H 1195.3 -4.2106 0.169279 0
M  V30 12788 H 1194.03 -3.21508 -0.574485 0
M  V30 12789 H 1192.69 -3.31965 1.55546 0
M  V30 12790 H 1192.33 -5.02425 -0.240436 0
M  V30 12791 H 1192.03 -5.71287 1.37494 0
M  V30 12792 H 1193.56 -6.08386 0.519489 0
M  V30 12793 H 1194.97 -5.12124 2.57686 0
M  V30 12794 H 1193.37 -4.97583 3.35457 0
M  V30 12795 H 1194.44 -3.56384 3.28813 0
M  V30 12796 N 1195.78 -0.955326 -1.25345 0
M  V30 12797 C 1197.01 -0.627233 -1.97688 0
M  V30 12798 C 1197.43 0.793973 -1.70522 0
M  V30 12799 O 1196.79 1.537 -0.961556 0
M  V30 12800 C 1196.84 -0.892969 -3.49369 0
M  V30 12801 O 1195.94 0.0278871 -4.12391 0
M  V30 12802 H 1195.28 -0.238402 -0.619726 0
M  V30 12803 H 1197.81 -1.28211 -1.59446 0
M  V30 12804 H 1197.82 -0.819517 -3.99685 0
M  V30 12805 H 1196.5 -1.92879 -3.6847 0
M  V30 12806 H 1195.08 -0.0978295 -3.72772 0
M  V30 12807 N 1197.26 1.39987 -0.723979 0
M  V30 12808 C 1198.51 2.00334 -0.266587 0
M  V30 12809 C 1198.83 1.57714 1.14679 0
M  V30 12810 O 1198.1 0.82037 1.77895 0
M  V30 12811 H 1196.68 0.740861 -0.095573 0
M  V30 12812 H 1199.34 1.712 -0.931481 0
M  V30 12813 H 1198.44 3.10594 -0.306282 0
M  V30 12814 N 1198.74 0.470782 1.50404 0
M  V30 12815 C 1199.99 -0.084316 2.02324 0
M  V30 12816 C 1200.31 -1.39749 1.35279 0
M  V30 12817 O 1199.57 -1.90037 0.467364 0
M  V30 12818 C 1199.87 -0.316419 3.55997 0
M  V30 12819 C 1199.53 0.915017 4.41518 0
M  V30 12820 C 1198.2 1.25265 4.6461 0
M  V30 12821 C 1200.55 1.73494 4.91477 0
M  V30 12822 C 1197.88 2.41027 5.34905 0
M  V30 12823 C 1200.23 2.88384 5.63043 0
M  V30 12824 C 1198.89 3.22562 5.84389 0
M  V30 12825 H 1198.16 -0.0308534 0.740357 0
M  V30 12826 H 1200.81 0.624799 1.81021 0
M  V30 12827 H 1199.11 -1.10778 3.75813 0
M  V30 12828 H 1200.81 -0.759882 3.93734 0
M  V30 12829 H 1197.4 0.641977 4.23765 0
M  V30 12830 H 1201.59 1.48728 4.73491 0
M  V30 12831 H 1196.84 2.67781 5.49639 0
M  V30 12832 H 1201.02 3.52264 6.00735 0
M  V30 12833 H 1198.64 4.1237 6.38635 0
M  V30 12834 N 1200.22 -1.56282 0.203376 0
M  V30 12835 C 1201.46 -1.98105 -0.433844 0
M  V30 12836 C 1201.8 -1.09044 -1.60695 0
M  V30 12837 O 1201.07 -0.144193 -1.93965 0
M  V30 12838 C 1201.35 -3.4903 -0.885992 0
M  V30 12839 C 1201.21 -4.48867 0.289501 0
M  V30 12840 C 1202.53 -4.03871 -1.7486 0
M  V30 12841 H 1199.65 -0.720252 -0.156224 0
M  V30 12842 H 1202.29 -1.87681 0.295963 0
M  V30 12843 H 1200.44 -3.58045 -1.50785 0
M  V30 12844 H 1202.11 -4.51883 0.92734 0
M  V30 12845 H 1200.35 -4.23495 0.939934 0
M  V30 12846 H 1201.02 -5.51956 -0.0695128 0
M  V30 12847 H 1203.5 -3.97688 -1.22407 0
M  V30 12848 H 1202.38 -5.09827 -2.03391 0
M  V30 12849 H 1202.64 -3.49637 -2.70567 0
M  V30 12850 N 1201.7 0.070167 -1.57444 0
M  V30 12851 C 1202.94 0.770153 -1.87607 0
M  V30 12852 C 1203.27 1.77143 -0.795875 0
M  V30 12853 O 1202.55 1.93533 0.193674 0
M  V30 12854 C 1202.83 1.47668 -3.2843 0
M  V30 12855 C 1202.69 0.491712 -4.47104 0
M  V30 12856 C 1204 2.42118 -3.67514 0
M  V30 12857 H 1201.12 0.278519 -0.682346 0
M  V30 12858 H 1203.77 0.0333184 -1.89971 0
M  V30 12859 H 1201.92 2.10476 -3.26546 0
M  V30 12860 H 1203.59 -0.131283 -4.61113 0
M  V30 12861 H 1201.83 -0.192817 -4.33371 0
M  V30 12862 H 1202.5 1.02372 -5.42424 0
M  V30 12863 H 1204.98 1.89387 -3.70502 0
M  V30 12864 H 1203.85 2.88556 -4.66933 0
M  V30 12865 H 1204.11 3.26995 -2.97534 0
M  V30 12866 N 1203.17 1.53854 0.341593 0
M  V30 12867 C 1204.1 1.84966 1.42513 0
M  V30 12868 C 1205.08 0.704944 1.54805 0
M  V30 12869 O 1206.27 0.957036 1.68981 0
M  V30 12870 C 1203.4 2.06099 2.79536 0
M  V30 12871 C 1202.35 3.21919 2.82049 0
M  V30 12872 C 1201.68 3.28389 4.21977 0
M  V30 12873 C 1202.98 4.59984 2.4741 0
M  V30 12874 H 1204.67 2.7571 1.16724 0
M  V30 12875 H 1202.22 1.32662 0.560073 0
M  V30 12876 H 1204.17 2.26448 3.55386 0
M  V30 12877 H 1202.9 1.12087 3.06764 0
M  V30 12878 H 1201.56 3.01429 2.08653 0
M  V30 12879 H 1201.2 2.3197 4.46317 0
M  V30 12880 H 1200.9 4.0622 4.24569 0
M  V30 12881 H 1202.43 3.50951 4.99666 0
M  V30 12882 H 1203.84 4.80334 3.12973 0
M  V30 12883 H 1202.24 5.40233 2.61282 0
M  V30 12884 H 1203.31 4.6346 1.42594 0
M  V30 12885 N 1204.65 -0.602709 1.4562 0
M  V30 12886 C 1205.9 -1.35889 1.49595 0
M  V30 12887 C 1206.22 -1.9449 0.141002 0
M  V30 12888 O 1205.49 -1.77438 -0.830209 0
M  V30 12889 H 1204.07 -0.504478 0.550918 0
M  V30 12890 H 1206.73 -0.707376 1.8161 0
M  V30 12891 H 1205.83 -2.17583 2.2375 0
M  V30 12892 N 1206.13 -1.32992 -0.845635 0
M  V30 12893 C 1207.37 -1.2539 -1.61421 0
M  V30 12894 C 1207.73 0.179395 -1.9116 0
M  V30 12895 O 1208.93 0.379275 -2.66111 0
M  V30 12896 C 1207.21 -2.09817 -2.8933 0
M  V30 12897 S 1208.76 -2.19335 -3.80049 0
M  V30 12898 H 1205.58 -0.446202 -0.553556 0
M  V30 12899 H 1208.18 -1.67946 -1.00072 0
M  V30 12900 H 1206.89 -3.12999 -2.65443 0
M  V30 12901 H 1206.42 -1.68073 -3.5569 0
M  V30 12902 H 1208.43 -1.34946 -4.77498 0
M  V30 12903 N 1207.61 1.06304 -1.1635 0
M  V30 12904 C 1208.54 2.15745 -0.893103 0
M  V30 12905 C 1209.52 1.69341 0.160531 0
M  V30 12906 O 1210.7 1.94196 0.0126526 0
M  V30 12907 C 1207.83 3.45066 -0.393287 0
M  V30 12908 C 1206.79 4.04978 -1.38482 0
M  V30 12909 C 1206.11 5.29507 -0.743409 0
M  V30 12910 C 1207.41 4.4377 -2.75438 0
M  V30 12911 H 1209.11 2.38622 -1.80831 0
M  V30 12912 H 1206.65 1.14681 -0.870878 0
M  V30 12913 H 1208.61 4.20964 -0.191607 0
M  V30 12914 H 1207.33 3.21808 0.557426 0
M  V30 12915 H 1205.99 3.31136 -1.57304 0
M  V30 12916 H 1205.64 5.02545 0.213787 0
M  V30 12917 H 1205.34 5.7055 -1.40521 0
M  V30 12918 H 1206.86 6.08102 -0.551746 0
M  V30 12919 H 1208.28 5.1075 -2.60398 0
M  V30 12920 H 1206.67 4.95797 -3.38091 0
M  V30 12921 H 1207.74 3.54636 -3.30699 0
M  V30 12922 N 1209.09 0.96196 1.24836 0
M  V30 12923 C 1210.33 0.620715 1.92752 0
M  V30 12924 C 1210.66 -0.843308 1.75267 0
M  V30 12925 O 1209.92 -1.62141 1.09584 0
M  V30 12926 C 1210.21 0.934481 3.44967 0
M  V30 12927 C 1209.88 2.38572 3.82615 0
M  V30 12928 C 1208.54 2.78238 3.92603 0
M  V30 12929 C 1210.89 3.32784 4.01129 0
M  V30 12930 C 1208.22 4.11169 4.18518 0
M  V30 12931 C 1210.57 4.65336 4.28539 0
M  V30 12932 C 1209.24 5.04788 4.36745 0
M  V30 12933 H 1208.51 0.227136 0.70533 0
M  V30 12934 H 1211.16 1.21237 1.48236 0
M  V30 12935 H 1209.46 0.260516 3.90933 0
M  V30 12936 H 1211.16 0.648923 3.95715 0
M  V30 12937 H 1207.75 2.06812 3.75402 0
M  V30 12938 H 1211.93 3.03325 3.9282 0
M  V30 12939 H 1207.19 4.41368 4.23089 0
M  V30 12940 H 1211.36 5.3831 4.41809 0
M  V30 12941 H 1208.99 6.07816 4.56579 0
M  V30 12942 N 1210.56 -1.39601 0.731392 0
M  V30 12943 C 1211.53 -2.28992 0.0976037 0
M  V30 12944 C 1212.53 -1.46135 -0.670917 0
M  V30 12945 O 1213.72 -1.66856 -0.50047 0
M  V30 12946 C 1210.85 -3.29582 -0.871124 0
M  V30 12947 H 1212.04 -2.86541 0.885112 0
M  V30 12948 H 1209.59 -1.48188 0.497002 0
M  V30 12949 H 1210.33 -2.77082 -1.68512 0
M  V30 12950 H 1210.11 -3.9077 -0.322735 0
M  V30 12951 H 1211.6 -3.96479 -1.31126 0
M  V30 12952 N 1212.04 -0.478751 -1.50152 0
M  V30 12953 C 1213.45 -0.0254907 -1.86683 0
M  V30 12954 C 1213.8 1.38171 -1.39295 0
M  V30 12955 O 1212.93 2.0257 -0.761207 0
M  V30 12956 C 1213.52 -0.0394819 -3.38777 0
M  V30 12957 C 1212.08 0.35834 -3.7469 0
M  V30 12958 C 1211.23 -0.421667 -2.74075 0
M  V30 12959 H 1214.18 -0.692653 -1.42787 0
M  V30 12960 H 1214.2 0.760957 -3.72813 0
M  V30 12961 H 1213.71 -1.06378 -3.73236 0
M  V30 12962 H 1211.82 1.38671 -3.45834 0
M  V30 12963 H 1211.93 0.0543589 -4.79069 0
M  V30 12964 H 1210.29 0.125634 -2.5439 0
M  V30 12965 H 1211.08 -1.44562 -3.11379 0
M  V30 12966 N 1213.52 1.56172 -0.211661 0
M  V30 12967 C 1214.47 2.19849 0.702515 0
M  V30 12968 C 1215.44 1.15091 1.19763 0
M  V30 12969 O 1216.62 1.43408 1.25852 0
M  V30 12970 C 1213.76 2.87468 1.90935 0
M  V30 12971 C 1212.88 4.06794 1.45406 0
M  V30 12972 C 1212.01 4.62224 2.61769 0
M  V30 12973 C 1211.05 5.73872 2.12926 0
M  V30 12974 N 1210.19 6.23635 3.22526 0
M  V30 12975 H 1215.03 2.97608 0.152777 0
M  V30 12976 H 1212.56 1.46962 0.0636596 0
M  V30 12977 H 1214.52 3.24851 2.61777 0
M  V30 12978 H 1213.15 2.12244 2.43213 0
M  V30 12979 H 1212.2 3.74962 0.640907 0
M  V30 12980 H 1213.52 4.87497 1.05584 0
M  V30 12981 H 1212.67 5.01999 3.40709 0
M  V30 12982 H 1211.41 3.80662 3.04873 0
M  V30 12983 H 1210.41 5.33609 1.32445 0
M  V30 12984 H 1211.64 6.57262 1.70833 0
M  V30 12985 H 1209.58 5.44991 3.65131 0
M  V30 12986 H 1209.5 6.99435 2.86926 0
M  V30 12987 H 1210.77 6.68066 4.01631 0
M  V30 12988 N 1215 -0.0618163 1.57479 0
M  V30 12989 C 1216.24 -0.760193 1.88013 0
M  V30 12990 C 1216.58 -1.76718 0.805258 0
M  V30 12991 O 1215.85 -1.93633 -0.183408 0
M  V30 12992 C 1216.14 -1.45924 3.29208 0
M  V30 12993 C 1215.99 -0.467994 4.47359 0
M  V30 12994 C 1217.31 -2.40166 3.68793 0
M  V30 12995 H 1214.43 -0.274896 0.683814 0
M  V30 12996 H 1217.07 -0.0232433 1.89986 0
M  V30 12997 H 1215.22 -2.08741 3.27657 0
M  V30 12998 H 1216.89 0.155735 4.61037 0
M  V30 12999 H 1215.13 0.215797 4.33263 0
M  V30 13000 H 1215.8 -0.994942 5.42959 0
M  V30 13001 H 1218.28 -1.87419 3.71501 0
M  V30 13002 H 1217.16 -2.86076 4.68457 0
M  V30 13003 H 1217.42 -3.25413 2.99264 0
M  V30 13004 N 1216.48 -1.54033 -0.333429 0
M  V30 13005 C 1217.43 -1.7911 -1.4108 0
M  V30 13006 C 1218.41 -0.646699 -1.47332 0
M  V30 13007 O 1219.6 -0.906403 -1.52031 0
M  V30 13008 C 1216.73 -2.01314 -2.78078 0
M  V30 13009 C 1215.82 -3.21849 -2.76178 0
M  V30 13010 N 1216.21 -4.43109 -2.43903 0
M  V30 13011 C 1214.51 -3.23222 -3.07316 0
M  V30 13012 C 1215.21 -5.25004 -2.5049 0
M  V30 13013 N 1214.18 -4.61955 -2.86528 0
M  V30 13014 H 1217.99 -2.7045 -1.15039 0
M  V30 13015 H 1215.5 -1.53094 -0.541854 0
M  V30 13016 H 1217.5 -2.17417 -3.55718 0
M  V30 13017 H 1216.16 -1.11223 -3.05057 0
M  V30 13018 H 1217.17 -4.70282 -2.16922 0
M  V30 13019 H 1213.84 -2.43132 -3.39401 0
M  V30 13020 H 1215.23 -6.31812 -2.28611 0
M  V30 13021 N 1217.95 0.594978 -1.45938 0
M  V30 13022 C 1219.2 1.34976 -1.49881 0
M  V30 13023 C 1219.52 1.95025 -0.14983 0
M  V30 13024 O 1220.72 2.71417 -0.0669868 0
M  V30 13025 C 1219.18 2.44563 -2.6404 0
M  V30 13026 C 1218.79 1.9087 -4.05306 0
M  V30 13027 C 1220.53 3.21461 -2.77242 0
M  V30 13028 C 1218.44 2.98013 -5.10825 0
M  V30 13029 H 1217.37 0.507366 -0.55776 0
M  V30 13030 H 1220.02 0.636316 -1.72114 0
M  V30 13031 H 1218.4 3.1865 -2.35114 0
M  V30 13032 H 1219.57 1.23408 -4.43968 0
M  V30 13033 H 1217.89 1.26678 -3.96663 0
M  V30 13034 H 1220.49 4.01399 -3.53246 0
M  V30 13035 H 1220.83 3.73271 -1.84321 0
M  V30 13036 H 1221.36 2.54477 -3.05756 0
M  V30 13037 H 1218.1 2.51104 -6.05497 0
M  V30 13038 H 1217.62 3.64003 -4.7672 0
M  V30 13039 H 1219.3 3.62178 -5.36131 0
M  V30 13040 N 1219.43 1.33438 0.838571 0
M  V30 13041 C 1220.68 1.24259 1.58879 0
M  V30 13042 C 1220.99 -0.189957 1.94675 0
M  V30 13043 O 1222.2 -0.40376 2.68481 0
M  V30 13044 C 1220.66 2.1773 2.86569 0
M  V30 13045 C 1220.26 3.66156 2.58135 0
M  V30 13046 C 1222.01 2.17424 3.64591 0
M  V30 13047 C 1219.92 4.5154 3.81923 0
M  V30 13048 H 1218.85 0.461534 0.59624 0
M  V30 13049 H 1221.5 1.58504 0.924588 0
M  V30 13050 H 1219.88 1.76418 3.54532 0
M  V30 13051 H 1221.05 4.1591 1.98382 0
M  V30 13052 H 1219.37 3.68754 1.93416 0
M  V30 13053 H 1221.96 2.78446 4.56478 0
M  V30 13054 H 1222.31 1.16939 3.99539 0
M  V30 13055 H 1222.84 2.571 3.03553 0
M  V30 13056 H 1219.58 5.52902 3.52107 0
M  V30 13057 H 1219.1 4.06529 4.41015 0
M  V30 13058 H 1220.78 4.65359 4.495 0
M  V30 13059 N 1220.91 -1.05686 1.16912 0
M  V30 13060 C 1221.84 -2.15268 0.904532 0
M  V30 13061 C 1222.82 -1.69424 -0.151548 0
M  V30 13062 O 1224.01 -1.942 -0.00235371 0
M  V30 13063 C 1221.14 -3.44853 0.411581 0
M  V30 13064 C 1220.09 -4.04237 1.40628 0
M  V30 13065 C 1219.42 -5.29105 0.771479 0
M  V30 13066 C 1220.72 -4.42303 2.77787 0
M  V30 13067 H 1222.41 -2.37659 1.82094 0
M  V30 13068 H 1219.96 -1.14217 0.876947 0
M  V30 13069 H 1221.91 -4.20857 0.213929 0
M  V30 13070 H 1220.63 -3.22099 -0.540352 0
M  V30 13071 H 1219.29 -3.30297 1.59058 0
M  V30 13072 H 1218.94 -5.02652 -0.187133 0
M  V30 13073 H 1218.64 -5.69797 1.43545 0
M  V30 13074 H 1220.16 -6.07801 0.583988 0
M  V30 13075 H 1221.58 -5.09362 2.63103 0
M  V30 13076 H 1219.98 -4.93997 3.40716 0
M  V30 13077 H 1221.05 -3.52877 3.32575 0
M  V30 13078 N 1222.39 -0.968567 -1.24324 0
M  V30 13079 C 1223.64 -0.630928 -1.9242 0
M  V30 13080 C 1223.96 0.834001 -1.75712 0
M  V30 13081 O 1223.22 1.61558 -1.10442 0
M  V30 13082 C 1223.52 -0.952762 -3.44467 0
M  V30 13083 C 1223.18 -2.40597 -3.81345 0
M  V30 13084 C 1221.85 -2.80316 -3.91122 0
M  V30 13085 C 1224.2 -3.34906 -3.99359 0
M  V30 13086 C 1221.53 -4.13383 -4.16331 0
M  V30 13087 C 1223.88 -4.67602 -4.26065 0
M  V30 13088 C 1222.54 -5.07097 -4.34061 0
M  V30 13089 H 1221.81 -0.230873 -0.704116 0
M  V30 13090 H 1224.46 -1.22022 -1.47591 0
M  V30 13091 H 1222.76 -0.281244 -3.90789 0
M  V30 13092 H 1224.46 -0.6699 -3.95365 0
M  V30 13093 H 1221.05 -2.088 -3.743 0
M  V30 13094 H 1225.23 -3.05404 -3.91206 0
M  V30 13095 H 1220.49 -4.43606 -4.20742 0
M  V30 13096 H 1224.66 -5.40646 -4.38948 0
M  V30 13097 H 1222.29 -6.10229 -4.53349 0
M  V30 13098 N 1223.87 1.39211 -0.738786 0
M  V30 13099 C 1224.8 2.29117 -0.0616489 0
M  V30 13100 C 1225.81 1.47008 0.699462 0
M  V30 13101 O 1227 1.70041 0.542998 0
M  V30 13102 C 1224.1 3.25692 0.936893 0
M  V30 13103 C 1223.27 4.3676 0.236515 0
M  V30 13104 C 1222.33 5.1362 1.1437 0
M  V30 13105 O 1221.36 5.65816 0.619762 0
M  V30 13106 N 1222.56 5.25184 2.4731 0
M  V30 13107 H 1225.33 2.8787 -0.833711 0
M  V30 13108 H 1222.89 1.50832 -0.588323 0
M  V30 13109 H 1224.88 3.73987 1.54648 0
M  V30 13110 H 1223.45 2.67943 1.61014 0
M  V30 13111 H 1222.67 3.90293 -0.553594 0
M  V30 13112 H 1223.96 5.08192 -0.248707 0
M  V30 13113 H 1223.35 4.84302 2.92349 0
M  V30 13114 H 1221.91 5.76905 3.03355 0
M  V30 13115 N 1225.34 0.486708 1.49896 0
M  V30 13116 C 1226.76 0.0353906 1.86666 0
M  V30 13117 C 1227.11 -1.3743 1.40026 0
M  V30 13118 O 1226.23 -2.02163 0.77194 0
M  V30 13119 C 1226.83 0.0574475 3.38751 0
M  V30 13120 C 1225.39 -0.338464 3.74875 0
M  V30 13121 C 1224.53 0.436196 2.73848 0
M  V30 13122 H 1227.48 0.700215 1.42417 0
M  V30 13123 H 1227.5 -0.741175 3.73212 0
M  V30 13124 H 1227.02 1.08356 3.72667 0
M  V30 13125 H 1225.12 -1.36835 3.46565 0
M  V30 13126 H 1225.23 -0.0289519 4.79091 0
M  V30 13127 H 1223.59 -0.112141 2.54453 0
M  V30 13128 H 1224.38 1.46212 3.10608 0
M  V30 13129 N 1226.82 -1.56058 0.219941 0
M  V30 13130 C 1227.76 -2.17494 -0.723133 0
M  V30 13131 C 1228.77 -1.14356 -1.15873 0
M  V30 13132 O 1229.96 -1.41343 -1.09016 0
M  V30 13133 C 1227.06 -2.74242 -1.99109 0
M  V30 13134 C 1226.23 -4.02533 -1.71132 0
M  V30 13135 C 1225.29 -4.43862 -2.82618 0
M  V30 13136 O 1224.32 -5.10792 -2.51157 0
M  V30 13137 N 1225.52 -4.09412 -4.11537 0
M  V30 13138 H 1228.28 -2.99048 -0.197619 0
M  V30 13139 H 1225.84 -1.61853 0.0388738 0
M  V30 13140 H 1227.84 -2.98862 -2.7288 0
M  V30 13141 H 1226.41 -1.97 -2.42713 0
M  V30 13142 H 1225.63 -3.85786 -0.810128 0
M  V30 13143 H 1226.91 -4.86227 -1.49868 0
M  V30 13144 H 1226.31 -3.55624 -4.39941 0
M  V30 13145 H 1224.87 -4.38928 -4.81857 0
M  V30 13146 N 1228.3 0.053464 -1.57509 0
M  V30 13147 C 1229.25 1.06155 -2.04939 0
M  V30 13148 C 1230.22 1.37382 -0.93357 0
M  V30 13149 O 1231.4 1.48137 -1.2025 0
M  V30 13150 C 1228.54 2.36476 -2.51343 0
M  V30 13151 C 1227.66 2.1162 -3.76618 0
M  V30 13152 C 1226.79 3.35636 -4.11731 0
M  V30 13153 C 1225.83 3.06226 -5.29993 0
M  V30 13154 N 1224.97 4.22623 -5.60655 0
M  V30 13155 H 1229.81 0.650122 -2.90822 0
M  V30 13156 H 1227.34 0.309421 -1.43809 0
M  V30 13157 H 1229.3 3.12588 -2.76306 0
M  V30 13158 H 1227.93 2.75386 -1.68411 0
M  V30 13159 H 1226.98 1.26116 -3.58886 0
M  V30 13160 H 1228.3 1.85909 -4.6286 0
M  V30 13161 H 1227.45 4.20132 -4.37692 0
M  V30 13162 H 1226.19 3.64439 -3.24092 0
M  V30 13163 H 1225.19 2.20128 -5.03809 0
M  V30 13164 H 1226.42 2.78726 -6.19265 0
M  V30 13165 H 1224.37 4.51424 -4.75976 0
M  V30 13166 H 1224.28 4.0025 -6.41355 0
M  V30 13167 H 1225.55 5.08063 -5.91178 0
M  V30 13168 N 1229.78 1.54207 0.325255 0
M  V30 13169 C 1230.73 1.84197 1.42036 0
M  V30 13170 C 1231.72 0.71375 1.53629 0
M  V30 13171 O 1232.93 0.897385 1.56035 0
M  V30 13172 H 1229.3 0.583848 0.473947 0
M  V30 13173 H 1231.27 2.7578 1.13965 0
M  V30 13174 C 1230.02 2.08459 2.78281 0
M  V30 13175 H 1229.35 2.94734 2.70133 0
M  V30 13176 H 1230.79 2.33398 3.5398 0
M  V30 13177 C 1229.24 0.875615 3.25322 0
M  V30 13178 O 1229.77 0.0840387 4.01612 0
M  V30 13179 N 1227.98 0.687721 2.82345 0
M  V30 13180 H 1227.53 1.33307 2.20425 0
M  V30 13181 H 1227.49 -0.119687 3.14172 0
M  V30 13182 N 1231.26 -0.58723 1.46251 0
M  V30 13183 C 1232.5 -1.3476 1.51551 0
M  V30 13184 C 1232.84 -1.93499 0.16483 0
M  V30 13185 O 1232.11 -1.7622 -0.823207 0
M  V30 13186 C 1232.39 -2.48033 2.61059 0
M  V30 13187 C 1232.25 -1.94358 4.05642 0
M  V30 13188 C 1233.57 -3.50096 2.66685 0
M  V30 13189 H 1230.69 -0.48863 0.551733 0
M  V30 13190 H 1233.33 -0.660097 1.78165 0
M  V30 13191 H 1231.48 -3.06679 2.38496 0
M  V30 13192 H 1233.15 -1.40204 4.39478 0
M  V30 13193 H 1231.39 -1.25217 4.15335 0
M  V30 13194 H 1232.06 -2.76105 4.77986 0
M  V30 13195 H 1234.54 -3.01324 2.86955 0
M  V30 13196 H 1233.42 -4.26817 3.45135 0
M  V30 13197 H 1233.68 -4.07032 1.7256 0
M  V30 13198 N 1232.74 -1.33881 -0.831482 0
M  V30 13199 C 1233.98 -1.25942 -1.58955 0
M  V30 13200 C 1234.31 0.172542 -1.93432 0
M  V30 13201 O 1233.59 1.11577 -1.59314 0
M  V30 13202 C 1233.87 -2.14193 -2.89471 0
M  V30 13203 C 1233.73 -3.65883 -2.61628 0
M  V30 13204 C 1235.04 -2.02071 -3.90967 0
M  V30 13205 H 1232.16 -0.458841 -0.576744 0
M  V30 13206 H 1234.81 -1.64052 -0.958482 0
M  V30 13207 H 1232.96 -1.81821 -3.43327 0
M  V30 13208 H 1234.63 -4.08581 -2.14148 0
M  V30 13209 H 1232.87 -3.87397 -1.95208 0
M  V30 13210 H 1233.54 -4.22988 -3.54662 0
M  V30 13211 H 1236.02 -2.30476 -3.46439 0
M  V30 13212 H 1234.89 -2.66059 -4.80108 0
M  V30 13213 H 1235.15 -0.995121 -4.30755 0
M  V30 13214 N 1234.21 1.05064 -1.1747 0
M  V30 13215 C 1235.44 1.81761 -0.988464 0
M  V30 13216 C 1235.86 1.83028 0.463272 0
M  V30 13217 O 1235.21 1.25846 1.32171 0
M  V30 13218 C 1235.26 3.2782 -1.5237 0
M  V30 13219 O 1234.99 3.26726 -2.91859 0
M  V30 13220 C 1236.49 4.212 -1.38223 0
M  V30 13221 H 1233.71 0.572712 -0.349631 0
M  V30 13222 H 1236.25 1.32477 -1.55789 0
M  V30 13223 H 1234.41 3.7437 -0.996272 0
M  V30 13224 H 1234.82 4.18151 -3.16623 0
M  V30 13225 H 1236.29 5.2166 -1.80485 0
M  V30 13226 H 1236.77 4.37962 -0.329491 0
M  V30 13227 H 1237.38 3.80506 -1.89988 0
M  V30 13228 N 1235.69 0.975146 1.23809 0
M  V30 13229 C 1236.64 0.482305 2.2284 0
M  V30 13230 C 1237.63 -0.439787 1.54773 0
M  V30 13231 O 1238.82 -0.269496 1.74936 0
M  V30 13232 C 1235.95 -0.219056 3.426 0
M  V30 13233 C 1235.03 0.722299 4.17904 0
M  V30 13234 N 1235.42 1.86271 4.70252 0
M  V30 13235 C 1233.72 0.53457 4.42785 0
M  V30 13236 C 1234.42 2.45212 5.2749 0
M  V30 13237 N 1233.4 1.73652 5.15117 0
M  V30 13238 H 1237.2 1.35234 2.60939 0
M  V30 13239 H 1234.71 0.835162 1.3928 0
M  V30 13240 H 1236.71 -0.589401 4.12713 0
M  V30 13241 H 1235.37 -1.08544 3.0602 0
M  V30 13242 H 1236.38 2.24404 4.66758 0
M  V30 13243 H 1233.06 -0.287232 4.16511 0
M  V30 13244 H 1234.45 3.41491 5.78648 0
M  V30 13245 N 1237.17 -1.38817 0.746158 0
M  V30 13246 C 1238.59 -1.53894 0.42294 0
M  V30 13247 C 1238.79 -1.71064 -1.06486 0
M  V30 13248 O 1237.84 -1.71744 -1.85095 0
M  V30 13249 C 1239.15 -2.75029 1.2157 0
M  V30 13250 C 1240.7 -2.88873 1.20504 0
M  V30 13251 C 1241.18 -4.1296 1.9806 0
M  V30 13252 N 1242.67 -4.20022 1.95283 0
M  V30 13253 C 1243.4 -5.15011 2.52093 0
M  V30 13254 N 1242.9 -6.1572 3.17586 0
M  V30 13255 N 1244.69 -5.07308 2.42064 0
M  V30 13256 H 1236.84 -1.25921 1.71049 0
M  V30 13257 H 1239.11 -0.611148 0.724708 0
M  V30 13258 H 1238.81 -2.68722 2.26895 0
M  V30 13259 H 1238.69 -3.68009 0.827593 0
M  V30 13260 H 1241.07 -2.94667 0.159877 0
M  V30 13261 H 1241.15 -1.96925 1.63261 0
M  V30 13262 H 1240.8 -4.07929 3.02583 0
M  V30 13263 H 1240.73 -5.03974 1.52702 0
M  V30 13264 H 1243.22 -3.47892 1.4758 0
M  V30 13265 H 1243.53 -6.84682 3.58373 0
M  V30 13266 H 1241.88 -6.16075 3.21678 0
M  V30 13267 H 1245.07 -4.27569 1.90532 0
M  V30 13268 H 1245.24 -5.81158 2.86635 0
M  V30 13269 N 1238.65 -0.49465 -1.49636 0
M  V30 13270 C 1239.58 0.276606 -2.31856 0
M  V30 13271 C 1240.56 0.968499 -1.39836 0
M  V30 13272 O 1241.74 0.96113 -1.68748 0
M  V30 13273 C 1238.87 1.34522 -3.20189 0
M  V30 13274 C 1237.83 0.773571 -4.20951 0
M  V30 13275 C 1237.15 1.94223 -4.98178 0
M  V30 13276 C 1238.45 -0.231096 -5.21788 0
M  V30 13277 H 1240.15 -0.409668 -2.96584 0
M  V30 13278 H 1237.69 -0.198461 -1.42626 0
M  V30 13279 H 1239.65 1.89244 -3.76517 0
M  V30 13280 H 1238.37 2.06059 -2.53392 0
M  V30 13281 H 1237.03 0.248144 -3.65759 0
M  V30 13282 H 1236.68 2.64514 -4.27834 0
M  V30 13283 H 1236.38 1.56584 -5.66353 0
M  V30 13284 H 1237.9 2.49391 -5.57348 0
M  V30 13285 H 1239.32 0.227768 -5.72847 0
M  V30 13286 H 1237.71 -0.522984 -5.97817 0
M  V30 13287 H 1238.78 -1.14914 -4.71087 0
M  V30 13288 N 1240.13 1.55939 -0.228214 0
M  V30 13289 C 1241.08 2.17223 0.692674 0
M  V30 13290 C 1242.06 1.12252 1.15275 0
M  V30 13291 O 1243.25 1.3822 1.10563 0
M  V30 13292 C 1240.38 2.86084 1.89766 0
M  V30 13293 C 1239.47 3.98288 1.45695 0
M  V30 13294 N 1239.86 5.00515 0.729258 0
M  V30 13295 C 1238.16 4.105 1.74372 0
M  V30 13296 C 1238.86 5.79516 0.503606 0
M  V30 13297 N 1237.83 5.33119 1.06229 0
M  V30 13298 H 1241.63 2.9362 0.128345 0
M  V30 13299 H 1239.15 1.62373 -0.0297445 0
M  V30 13300 H 1241.15 3.28404 2.5682 0
M  V30 13301 H 1239.81 2.11185 2.46639 0
M  V30 13302 H 1240.82 5.16495 0.381261 0
M  V30 13303 H 1237.49 3.46759 2.32518 0
M  V30 13304 H 1238.88 6.71857 -0.0760344 0
M  V30 13305 N 1241.6 -0.0451101 1.57535 0
M  V30 13306 C 1242.53 -1.05046 2.08537 0
M  V30 13307 C 1243.52 -1.3872 0.984418 0
M  V30 13308 O 1244.7 -1.47884 1.25873 0
M  V30 13309 C 1241.83 -2.3562 2.55148 0
M  V30 13310 C 1240.78 -2.16231 3.69362 0
M  V30 13311 C 1240.11 -3.52423 4.02122 0
M  V30 13312 C 1241.41 -1.56159 4.98409 0
M  V30 13313 H 1243.1 -0.625965 2.92783 0
M  V30 13314 H 1240.65 -0.299657 1.40848 0
M  V30 13315 H 1242.6 -3.06266 2.89446 0
M  V30 13316 H 1241.33 -2.80099 1.67964 0
M  V30 13317 H 1239.99 -1.4802 3.35389 0
M  V30 13318 H 1239.63 -3.94522 3.12028 0
M  V30 13319 H 1239.33 -3.4028 4.79044 0
M  V30 13320 H 1240.86 -4.24458 4.38939 0
M  V30 13321 H 1242.27 -2.16703 5.30766 0
M  V30 13322 H 1240.67 -1.54638 5.79834 0
M  V30 13323 H 1241.74 -0.525698 4.82042 0
M  V30 13324 N 1243.08 -1.54377 -0.317073 0
M  V30 13325 C 1244.03 -1.84948 -1.41057 0
M  V30 13326 C 1245.02 -0.721887 -1.53249 0
M  V30 13327 O 1246.23 -0.905648 -1.55557 0
M  V30 13328 H 1242.61 -0.586353 -0.470844 0
M  V30 13329 H 1244.58 -2.7638 -1.12501 0
M  V30 13330 C 1243.33 -2.09932 -2.77171 0
M  V30 13331 H 1242.65 -2.96162 -2.68566 0
M  V30 13332 H 1244.09 -2.35272 -3.52737 0
M  V30 13333 C 1242.55 -0.892855 -3.24853 0
M  V30 13334 O 1243.08 -0.105336 -4.01562 0
M  V30 13335 N 1241.28 -0.702685 -2.81976 0
M  V30 13336 H 1240.83 -1.34474 -2.19715 0
M  V30 13337 H 1240.79 0.103024 -3.14231 0
M  V30 13338 N 1244.56 0.579466 -1.4656 0
M  V30 13339 C 1245.98 0.903163 -1.31587 0
M  V30 13340 C 1246.18 1.99406 -0.28972 0
M  V30 13341 O 1245.23 2.50632 0.30658 0
M  V30 13342 C 1246.55 1.31745 -2.70303 0
M  V30 13343 C 1248.09 1.43012 -2.78418 0
M  V30 13344 C 1248.57 1.87805 -4.17724 0
M  V30 13345 N 1250.06 1.94993 -4.20157 0
M  V30 13346 C 1250.79 2.30934 -5.2484 0
M  V30 13347 N 1250.29 2.65645 -6.39847 0
M  V30 13348 N 1252.08 2.31517 -5.12207 0
M  V30 13349 H 1244.23 -0.141111 -2.11931 0
M  V30 13350 H 1246.5 -0.000460304 -0.948 0
M  V30 13351 H 1246.2 0.589864 -3.46718 0
M  V30 13352 H 1246.08 2.2783 -3.00622 0
M  V30 13353 H 1248.46 2.14856 -2.02289 0
M  V30 13354 H 1248.55 0.451701 -2.5178 0
M  V30 13355 H 1248.19 1.16539 -4.94349 0
M  V30 13356 H 1248.12 2.86611 -4.41771 0
M  V30 13357 H 1250.61 1.70645 -3.37178 0
M  V30 13358 H 1250.92 2.92032 -7.15498 0
M  V30 13359 H 1249.27 2.63276 -6.43204 0
M  V30 13360 H 1252.46 2.03824 -4.21394 0
M  V30 13361 H 1252.63 2.59199 -5.93902 0
M  V30 13362 N 1246.04 1.3432 0.824371 0
M  V30 13363 C 1247.29 1.26595 1.5805 0
M  V30 13364 C 1247.61 -0.164471 1.93803 0
M  V30 13365 O 1246.87 -1.12537 1.60106 0
M  V30 13366 C 1247.17 2.1008 2.89139 0
M  V30 13367 C 1246.83 3.59102 2.72684 0
M  V30 13368 C 1245.5 3.99726 2.67904 0
M  V30 13369 C 1247.85 4.53736 2.56463 0
M  V30 13370 C 1245.18 5.33178 2.44822 0
M  V30 13371 C 1247.53 5.87366 2.34913 0
M  V30 13372 C 1246.19 6.27155 2.28544 0
M  V30 13373 H 1245.46 0.463245 0.578347 0
M  V30 13374 H 1248.11 1.66048 0.953948 0
M  V30 13375 H 1246.41 1.6345 3.56078 0
M  V30 13376 H 1248.11 2.01451 3.46726 0
M  V30 13377 H 1244.7 3.26855 2.77244 0
M  V30 13378 H 1248.88 4.23248 2.5918 0
M  V30 13379 H 1244.14 5.63028 2.38348 0
M  V30 13380 H 1248.31 6.60286 2.21349 0
M  V30 13381 H 1245.94 7.30498 2.1042 0
M  V30 13382 N 1247.52 -1.0444 1.18026 0
M  V30 13383 C 1248.74 -1.81772 0.998684 0
M  V30 13384 C 1249.17 -1.82682 -0.448225 0
M  V30 13385 O 1248.52 -1.24136 -1.32136 0
M  V30 13386 C 1248.57 -3.2542 1.55352 0
M  V30 13387 O 1247.68 -4.05103 0.772351 0
M  V30 13388 H 1247.02 -0.561731 0.354054 0
M  V30 13389 H 1249.55 -1.31557 1.56697 0
M  V30 13390 H 1249.56 -3.76206 1.57903 0
M  V30 13391 H 1248.23 -3.24073 2.60672 0
M  V30 13392 H 1246.81 -3.63798 0.818852 0
M  V30 13393 N 1248.99 -0.981699 -1.2329 0
M  V30 13394 C 1250.24 -0.652266 -1.92024 0
M  V30 13395 C 1250.57 0.812297 -1.76396 0
M  V30 13396 O 1249.85 1.5861 -1.12575 0
M  V30 13397 C 1250.13 -1.04506 -3.44602 0
M  V30 13398 C 1249.98 -2.56735 -3.69333 0
M  V30 13399 C 1251.3 -0.589937 -4.36128 0
M  V30 13400 H 1248.42 -0.238437 -0.697364 0
M  V30 13401 H 1251.06 -1.22322 -1.45387 0
M  V30 13402 H 1249.21 -0.559242 -3.84454 0
M  V30 13403 H 1250.89 -3.12901 -3.38955 0
M  V30 13404 H 1249.13 -2.9931 -3.14 0
M  V30 13405 H 1249.8 -2.79269 -4.76144 0
M  V30 13406 H 1252.28 -1.00706 -4.0373 0
M  V30 13407 H 1251.15 -0.893192 -5.41584 0
M  V30 13408 H 1251.41 0.509707 -4.39152 0
M  V30 13409 N 1250.47 1.3842 -0.753509 0
M  V30 13410 C 1251.7 2.04929 -0.319174 0
M  V30 13411 C 1252.12 1.56457 1.04416 0
M  V30 13412 O 1251.48 0.716527 1.6654 0
M  V30 13413 C 1251.53 3.58887 -0.351054 0
M  V30 13414 O 1250.63 4.07166 0.654963 0
M  V30 13415 H 1249.97 0.648782 -0.141343 0
M  V30 13416 H 1252.5 1.77096 -1.02461 0
M  V30 13417 H 1252.51 4.075 -0.201907 0
M  V30 13418 H 1251.19 3.93525 -1.34576 0
M  V30 13419 H 1249.77 3.69921 0.470435 0
M  V30 13420 N 1251.95 0.502579 1.49372 0
M  V30 13421 C 1253.2 -0.0412993 2.02058 0
M  V30 13422 C 1253.52 -1.37338 1.38431 0
M  V30 13423 O 1252.79 -1.88305 0.540175 0
M  V30 13424 H 1251.37 -0.0182522 0.746777 0
M  V30 13425 H 1254.03 0.660179 1.83378 0
M  V30 13426 H 1253.13 -0.169812 3.11638 0
M  V30 13427 N 1253.43 -1.55816 0.23648 0
M  V30 13428 C 1254.66 -2.03083 -0.395584 0
M  V30 13429 C 1255.07 -1.11599 -1.52286 0
M  V30 13430 O 1254.43 -0.128403 -1.82048 0
M  V30 13431 C 1254.48 -3.49776 -0.913197 0
M  V30 13432 O 1254.2 -4.37773 0.169151 0
M  V30 13433 C 1255.7 -4.12756 -1.617 0
M  V30 13434 H 1252.92 -0.66421 -0.0952146 0
M  V30 13435 H 1255.47 -2.01354 0.357299 0
M  V30 13436 H 1253.62 -3.52072 -1.6163 0
M  V30 13437 H 1254.03 -5.24029 -0.222217 0
M  V30 13438 H 1255.51 -5.17123 -1.93101 0
M  V30 13439 H 1255.99 -3.58631 -2.53537 0
M  V30 13440 H 1256.59 -4.14353 -0.958736 0
M  V30 13441 N 1254.91 0.036755 -1.57557 0
M  V30 13442 C 1256.15 0.727665 -1.88546 0
M  V30 13443 C 1256.48 1.76304 -0.833179 0
M  V30 13444 O 1255.75 1.9544 0.13414 0
M  V30 13445 H 1254.33 0.271744 -0.695819 0
M  V30 13446 H 1256.99 0.00452915 -1.94899 0
M  V30 13447 H 1256.08 1.22205 -2.8718 0
M  V30 13448 N 1256.39 1.54543 0.308881 0
M  V30 13449 C 1257.61 1.77431 1.06422 0
M  V30 13450 C 1258.03 0.529972 1.81209 0
M  V30 13451 O 1257.39 -0.499912 1.7552 0
M  V30 13452 C 1257.44 2.9769 2.05092 0
M  V30 13453 O 1257.16 4.17315 1.33341 0
M  V30 13454 C 1258.66 3.32905 2.92727 0
M  V30 13455 H 1255.88 0.591961 0.315948 0
M  V30 13456 H 1258.42 2.01473 0.350547 0
M  V30 13457 H 1256.58 2.7588 2.71973 0
M  V30 13458 H 1256.99 4.85061 1.99539 0
M  V30 13459 H 1258.47 4.20314 3.57827 0
M  V30 13460 H 1258.94 2.50713 3.6061 0
M  V30 13461 H 1259.55 3.56847 2.31388 0
M  V30 13462 N 1257.86 -0.571685 1.46866 0
M  V30 13463 C 1259.09 -1.35524 1.56336 0
M  V30 13464 C 1259.51 -1.87647 0.208359 0
M  V30 13465 O 1258.86 -1.64219 -0.796136 0
M  V30 13466 C 1258.91 -2.53518 2.57703 0
M  V30 13467 O 1258.64 -2.03552 3.87941 0
M  V30 13468 C 1260.14 -3.45925 2.77219 0
M  V30 13469 H 1257.36 -0.41363 0.528348 0
M  V30 13470 H 1259.9 -0.693943 1.92366 0
M  V30 13471 H 1258.06 -3.15615 2.24647 0
M  V30 13472 H 1258.47 -2.80476 4.43208 0
M  V30 13473 H 1259.94 -4.2517 3.52043 0
M  V30 13474 H 1260.42 -3.98559 1.8452 0
M  V30 13475 H 1261.03 -2.89655 3.11416 0
M  V30 13476 N 1259.34 -1.34755 -0.817236 0
M  V30 13477 C 1260.57 -1.30333 -1.60303 0
M  V30 13478 C 1260.98 0.12357 -1.88796 0
M  V30 13479 O 1260.32 1.08279 -1.48396 0
M  V30 13480 C 1260.38 -2.03179 -2.96578 0
M  V30 13481 C 1260.05 -3.52414 -2.90952 0
M  V30 13482 C 1261.05 -4.47213 -2.65136 0
M  V30 13483 C 1258.73 -3.9491 -3.10405 0
M  V30 13484 C 1260.72 -5.82481 -2.58832 0
M  V30 13485 C 1258.41 -5.30277 -3.03726 0
M  V30 13486 C 1259.41 -6.23875 -2.77973 0
M  V30 13487 O 1259.1 -7.5676 -2.71237 0
M  V30 13488 H 1258.83 -0.449615 -0.5048 0
M  V30 13489 H 1261.38 -1.7803 -1.02443 0
M  V30 13490 H 1259.61 -1.50104 -3.56379 0
M  V30 13491 H 1261.3 -1.91972 -3.57633 0
M  V30 13492 H 1262.07 -4.157 -2.49836 0
M  V30 13493 H 1257.95 -3.22451 -3.29464 0
M  V30 13494 H 1261.49 -6.55508 -2.38652 0
M  V30 13495 H 1257.39 -5.61406 -3.1858 0
M  V30 13496 H 1258.16 -7.66562 -2.86923 0
M  V30 13497 N 1260.82 1.03812 -1.18578 0
M  V30 13498 C 1262.04 1.8124 -1.00831 0
M  V30 13499 C 1262.47 1.82917 0.43853 0
M  V30 13500 O 1261.83 1.24835 1.31476 0
M  V30 13501 C 1261.88 3.24592 -1.57075 0
M  V30 13502 O 1260.98 4.04688 -0.793824 0
M  V30 13503 H 1260.32 0.559846 -0.357028 0
M  V30 13504 H 1262.85 1.30724 -1.57393 0
M  V30 13505 H 1262.86 3.75363 -1.59896 0
M  V30 13506 H 1261.54 3.22686 -2.62387 0
M  V30 13507 H 1260.11 3.63359 -0.838134 0
M  V30 13508 N 1262.3 0.988223 1.22768 0
M  V30 13509 C 1263.23 0.492919 2.23837 0
M  V30 13510 C 1264.24 -0.409467 1.57567 0
M  V30 13511 O 1265.43 -0.21235 1.77232 0
M  V30 13512 C 1262.53 -0.305428 3.37521 0
M  V30 13513 C 1261.7 0.591966 4.33376 0
M  V30 13514 C 1260.76 -0.15387 5.25975 0
M  V30 13515 O 1259.79 0.459153 5.67345 0
M  V30 13516 N 1260.99 -1.43756 5.62418 0
M  V30 13517 H 1263.76 1.36199 2.66965 0
M  V30 13518 H 1261.32 0.862395 1.3702 0
M  V30 13519 H 1263.31 -0.812921 3.96451 0
M  V30 13520 H 1261.88 -1.07556 2.93514 0
M  V30 13521 H 1261.1 1.28019 3.72833 0
M  V30 13522 H 1262.39 1.20327 4.94367 0
M  V30 13523 H 1261.79 -1.95701 5.30771 0
M  V30 13524 H 1260.34 -1.89034 6.23786 0
M  V30 13525 N 1263.78 -1.38018 0.760839 0
M  V30 13526 C 1265 -2.04757 0.330038 0
M  V30 13527 C 1265.43 -1.57009 -1.03585 0
M  V30 13528 O 1264.78 -0.725349 -1.66158 0
M  V30 13529 C 1264.83 -3.58696 0.370082 0
M  V30 13530 O 1263.94 -4.07507 -0.633361 0
M  V30 13531 H 1263.28 -0.648023 0.144782 0
M  V30 13532 H 1265.81 -1.7655 1.03399 0
M  V30 13533 H 1265.82 -4.07387 0.223515 0
M  V30 13534 H 1264.49 -3.92806 1.36661 0
M  V30 13535 H 1263.07 -3.70165 -0.45081 0
M  V30 13536 N 1265.25 -0.510493 -1.49103 0
M  V30 13537 C 1266.48 0.0293113 -2.07379 0
M  V30 13538 C 1266.9 1.29195 -1.36713 0
M  V30 13539 O 1266.26 1.76204 -0.426838 0
M  V30 13540 C 1266.31 0.25629 -3.59688 0
M  V30 13541 O 1265.41 1.32907 -3.90397 0
M  V30 13542 H 1264.75 -0.0304449 -0.663302 0
M  V30 13543 H 1267.28 -0.712832 -1.91781 0
M  V30 13544 H 1267.29 0.484915 -4.05108 0
M  V30 13545 H 1265.97 -0.666163 -4.1053 0
M  V30 13546 H 1264.55 1.08464 -3.56777 0
M  V30 13547 N 1266.73 1.55688 -0.24474 0
M  V30 13548 C 1267.69 2.20014 0.642382 0
M  V30 13549 C 1268.69 1.16877 1.10437 0
M  V30 13550 O 1269.88 1.41972 1.00943 0
M  V30 13551 C 1267.02 2.84198 1.88267 0
M  V30 13552 H 1268.21 2.9979 0.0811937 0
M  V30 13553 H 1265.76 1.56299 0.00480917 0
M  V30 13554 H 1266.5 2.08354 2.48514 0
M  V30 13555 H 1266.28 3.59747 1.55963 0
M  V30 13556 H 1267.77 3.33434 2.5142 0
M  V30 13557 N 1268.21 -0.0283989 1.57574 0
M  V30 13558 C 1269.43 -0.734537 1.93957 0
M  V30 13559 C 1269.86 -1.68062 0.844787 0
M  V30 13560 O 1269.22 -1.802 -0.199432 0
M  V30 13561 C 1269.27 -1.46716 3.29404 0
M  V30 13562 O 1268.37 -2.58036 3.217 0
M  V30 13563 H 1267.71 -0.197507 0.633946 0
M  V30 13564 H 1270.24 0.0163258 2.04593 0
M  V30 13565 H 1270.25 -1.83693 3.64309 0
M  V30 13566 H 1268.93 -0.773292 4.08648 0
M  V30 13567 H 1267.5 -2.23597 2.98427 0
M  V30 13568 N 1269.69 -1.54705 -0.300681 0
M  V30 13569 C 1270.92 -1.77993 -1.0548 0
M  V30 13570 C 1271.33 -0.539574 -1.80926 0
M  V30 13571 O 1270.69 0.490597 -1.75782 0
M  V30 13572 C 1270.74 -2.98774 -2.0351 0
M  V30 13573 O 1270.46 -4.18016 -1.31126 0
M  V30 13574 C 1271.96 -3.34452 -2.90958 0
M  V30 13575 H 1269.18 -0.593628 -0.312805 0
M  V30 13576 H 1271.72 -2.01656 -0.339858 0
M  V30 13577 H 1269.88 -2.77318 -2.70506 0
M  V30 13578 H 1270.29 -4.86113 -1.96963 0
M  V30 13579 H 1271.77 -4.22206 -3.55593 0
M  V30 13580 H 1272.24 -2.52622 -3.59275 0
M  V30 13581 H 1272.85 -3.58069 -2.29493 0
M  V30 13582 N 1271.17 0.563888 -1.47167 0
M  V30 13583 C 1272.4 1.34498 -1.56825 0
M  V30 13584 C 1272.8 1.87974 -0.215011 0
M  V30 13585 O 1272.15 1.65323 0.80087 0
M  V30 13586 C 1272.21 2.55602 -2.528 0
M  V30 13587 C 1271.87 2.23459 -3.98642 0
M  V30 13588 C 1272.87 1.81155 -4.87318 0
M  V30 13589 C 1270.56 2.35024 -4.43925 0
M  V30 13590 C 1272.55 1.50835 -6.19296 0
M  V30 13591 C 1270.24 2.04317 -5.75932 0
M  V30 13592 C 1271.23 1.6229 -6.63439 0
M  V30 13593 O 1270.92 1.31969 -7.92994 0
M  V30 13594 H 1270.65 0.416551 -0.532411 0
M  V30 13595 H 1273.21 0.690611 -1.93442 0
M  V30 13596 H 1271.44 3.23907 -2.11237 0
M  V30 13597 H 1273.13 3.17677 -2.52659 0
M  V30 13598 H 1273.89 1.71719 -4.53583 0
M  V30 13599 H 1269.77 2.66696 -3.76024 0
M  V30 13600 H 1273.32 1.17958 -6.87555 0
M  V30 13601 H 1269.21 2.13383 -6.09211 0
M  V30 13602 H 1269.98 1.45656 -8.05436 0
M  V30 13603 N 1272.64 1.35187 0.810078 0
M  V30 13604 C 1273.89 1.28454 1.56931 0
M  V30 13605 C 1274.22 -0.141747 1.93682 0
M  V30 13606 O 1273.5 -1.09028 1.61069 0
M  V30 13607 C 1273.78 2.18771 2.86027 0
M  V30 13608 C 1273.63 3.69999 2.55774 0
M  V30 13609 C 1274.95 2.08265 3.87703 0
M  V30 13610 H 1272.07 0.467959 0.569371 0
M  V30 13611 H 1274.71 1.65556 0.932262 0
M  V30 13612 H 1272.86 1.8726 3.40391 0
M  V30 13613 H 1274.54 4.11936 2.07621 0
M  V30 13614 H 1272.78 3.90453 1.89021 0
M  V30 13615 H 1273.45 4.28577 3.47888 0
M  V30 13616 H 1275.93 2.35958 3.42729 0
M  V30 13617 H 1274.8 2.73663 4.75815 0
M  V30 13618 H 1275.06 1.06352 4.29117 0
M  V30 13619 N 1274.12 -1.03182 1.19127 0
M  V30 13620 C 1275.53 -1.57984 0.994888 0
M  V30 13621 C 1275.88 -1.90898 -0.453019 0
M  V30 13622 O 1275.01 -1.70556 -1.33191 0
M  V30 13623 C 1275.6 -2.8705 1.79966 0
M  V30 13624 C 1274.16 -3.38435 1.64737 0
M  V30 13625 C 1273.31 -2.11912 1.78854 0
M  V30 13626 H 1276.26 -0.857458 1.33542 0
M  V30 13627 H 1276.28 -3.57821 1.294 0
M  V30 13628 H 1275.79 -2.63062 2.85341 0
M  V30 13629 H 1273.9 -3.67416 0.619358 0
M  V30 13630 H 1274.01 -4.11665 2.45089 0
M  V30 13631 H 1272.37 -2.23642 1.21886 0
M  V30 13632 H 1273.16 -1.90369 2.85682 0
M  V30 13633 N 1275.6 -0.99472 -1.22242 0
M  V30 13634 C 1276.83 -0.690097 -1.95052 0
M  V30 13635 C 1277.24 0.745543 -1.73456 0
M  V30 13636 O 1276.6 1.50329 -1.03477 0
M  V30 13637 C 1276.65 -0.988798 -3.47714 0
M  V30 13638 O 1276.37 -2.36803 -3.68587 0
M  V30 13639 C 1277.87 -0.702132 -4.37704 0
M  V30 13640 H 1275.09 -0.255142 -0.620599 0
M  V30 13641 H 1277.64 -1.32998 -1.55344 0
M  V30 13642 H 1275.79 -0.394684 -3.85384 0
M  V30 13643 H 1276.21 -2.4687 -4.62769 0
M  V30 13644 H 1277.68 -0.961389 -5.43564 0
M  V30 13645 H 1278.16 0.363866 -4.3769 0
M  V30 13646 H 1278.76 -1.27738 -4.05664 0
M  V30 13647 N 1277.08 1.37613 -0.768148 0
M  V30 13648 C 1278.32 2.00075 -0.331331 0
M  V30 13649 C 1278.66 1.60839 1.08833 0
M  V30 13650 O 1277.93 0.852849 1.74805 0
M  V30 13651 C 1278.22 3.57009 -0.470789 0
M  V30 13652 C 1278.07 4.06166 -1.9326 0
M  V30 13653 C 1279.39 4.39916 0.127111 0
M  V30 13654 H 1276.51 0.726855 -0.121864 0
M  V30 13655 H 1279.15 1.63343 -0.970518 0
M  V30 13656 H 1277.3 3.88431 0.0733688 0
M  V30 13657 H 1278.97 3.85325 -2.53618 0
M  V30 13658 H 1277.21 3.58492 -2.44266 0
M  V30 13659 H 1277.88 5.15219 -1.98125 0
M  V30 13660 H 1280.36 4.14732 -0.337144 0
M  V30 13661 H 1279.24 5.489 -0.000624226 0
M  V30 13662 H 1279.5 4.25018 1.21704 0
M  V30 13663 N 1278.56 0.518393 1.4883 0
M  V30 13664 C 1279.8 -0.0180482 2.04392 0
M  V30 13665 C 1280.16 -1.32666 1.38794 0
M  V30 13666 O 1281.36 -1.94842 1.85176 0
M  V30 13667 C 1279.63 -0.149457 3.57087 0
M  V30 13668 S 1281.19 -0.637636 4.34142 0
M  V30 13669 H 1278.01 0.00651981 0.71097 0
M  V30 13670 H 1280.61 0.69632 1.82679 0
M  V30 13671 H 1279.32 0.807977 4.02368 0
M  V30 13672 H 1278.85 -0.888549 3.83234 0
M  V30 13673 H 1280.86 -1.90406 4.58214 0
M  V30 13674 N 1280.03 -1.55556 0.252993 0
M  V30 13675 C 1280.98 -2.23035 -0.660161 0
M  V30 13676 C 1281.98 -1.21994 -1.17532 0
M  V30 13677 O 1283.18 -1.39989 -1.13151 0
M  V30 13678 H 1279.56 -0.715516 -0.23139 0
M  V30 13679 H 1281.53 -2.98323 -0.0679506 0
M  V30 13680 C 1280.28 -2.94817 -1.84332 0
M  V30 13681 H 1279.6 -3.72342 -1.45607 0
M  V30 13682 H 1281.04 -3.45386 -2.45936 0
M  V30 13683 C 1279.5 -1.99033 -2.71822 0
M  V30 13684 O 1280.03 -1.5273 -3.71533 0
M  V30 13685 N 1278.24 -1.66004 -2.38518 0
M  V30 13686 H 1277.78 -2.03853 -1.57485 0
M  V30 13687 H 1277.74 -1.02183 -2.97331 0
M  V30 13688 N 1281.51 0.0200419 -1.57587 0
M  V30 13689 C 1282.76 0.707627 -1.89307 0
M  V30 13690 C 1283.08 1.7541 -0.851831 0
M  V30 13691 O 1282.35 1.95571 0.113404 0
M  V30 13692 H 1280.93 0.264349 -0.698662 0
M  V30 13693 H 1283.59 -0.0161428 -1.94893 0
M  V30 13694 H 1282.69 1.19152 -2.8846 0
M  V30 13695 N 1282.99 1.54862 0.292472 0
M  V30 13696 C 1284.41 1.46267 0.638611 0
M  V30 13697 C 1284.61 0.660824 1.90356 0
M  V30 13698 O 1283.66 0.171909 2.51914 0
M  V30 13699 C 1284.98 2.90309 0.783675 0
M  V30 13700 C 1286.52 3.00404 0.879004 0
M  V30 13701 C 1287 4.4566 1.056 0
M  V30 13702 N 1288.49 4.49406 1.122 0
M  V30 13703 C 1289.22 5.5899 1.2774 0
M  V30 13704 N 1288.72 6.78482 1.40123 0
M  V30 13705 N 1290.51 5.46695 1.30696 0
M  V30 13706 H 1282.66 2.0546 -0.538521 0
M  V30 13707 H 1284.93 0.930879 -0.179354 0
M  V30 13708 H 1284.63 3.5162 -0.0750437 0
M  V30 13709 H 1284.51 3.38215 1.67004 0
M  V30 13710 H 1286.89 2.39201 1.7282 0
M  V30 13711 H 1286.98 2.55781 -0.0315624 0
M  V30 13712 H 1286.62 5.07459 0.211535 0
M  V30 13713 H 1286.55 4.87921 1.98092 0
M  V30 13714 H 1289.04 3.63322 1.03948 0
M  V30 13715 H 1289.35 7.57752 1.5176 0
M  V30 13716 H 1287.7 6.81331 1.37163 0
M  V30 13717 H 1290.89 4.52288 1.20638 0
M  V30 13718 H 1291.06 6.32146 1.42463 0
M  V30 13719 N 1284.47 -0.556076 1.47464 0
M  V30 13720 C 1285.38 -1.69043 1.62671 0
M  V30 13721 C 1286.39 -1.66372 0.509535 0
M  V30 13722 O 1287.57 -1.85799 0.777218 0
M  V30 13723 C 1284.64 -3.05546 1.63836 0
M  V30 13724 C 1283.7 -3.19275 2.86988 0
M  V30 13725 C 1282.93 -4.49267 2.88088 0
M  V30 13726 O 1283.15 -5.34796 1.98368 0
M  V30 13727 O 1282.09 -4.66811 3.79962 0
M  V30 13728 H 1285.91 -1.59155 2.58657 0
M  V30 13729 H 1283.5 -0.726211 1.30562 0
M  V30 13730 H 1285.38 -3.86778 1.67275 0
M  V30 13731 H 1284.05 -3.15814 0.710173 0
M  V30 13732 H 1282.96 -2.37437 2.89093 0
M  V30 13733 H 1284.29 -3.13912 3.79104 0
M  V30 13734 N 1285.95 -1.35615 -0.802897 0
M  V30 13735 C 1287.19 -1.29285 -1.56247 0
M  V30 13736 C 1287.53 0.131474 -1.93754 0
M  V30 13737 O 1286.8 1.08172 -1.61645 0
M  V30 13738 C 1287.08 -2.20285 -2.84863 0
M  V30 13739 C 1286.94 -3.71351 -2.53808 0
M  V30 13740 C 1288.26 -2.10318 -3.86593 0
M  V30 13741 H 1285.38 -0.470972 -0.566882 0
M  V30 13742 H 1288.02 -1.66048 -0.923469 0
M  V30 13743 H 1286.17 -1.89063 -3.39393 0
M  V30 13744 H 1287.84 -4.13031 -2.05433 0
M  V30 13745 H 1286.08 -3.9145 -1.86947 0
M  V30 13746 H 1286.75 -4.30416 -3.4561 0
M  V30 13747 H 1289.23 -2.37772 -3.41473 0
M  V30 13748 H 1288.11 -2.76183 -4.74357 0
M  V30 13749 H 1288.37 -1.08627 -4.28547 0
M  V30 13750 N 1287.43 1.02549 -1.19673 0
M  V30 13751 C 1288.36 2.12794 -0.961289 0
M  V30 13752 C 1289.34 1.69766 0.106575 0
M  V30 13753 O 1290.52 1.94138 -0.0491358 0
M  V30 13754 C 1287.65 3.4364 -0.502868 0
M  V30 13755 C 1286.61 4.00367 -1.51296 0
M  V30 13756 C 1285.93 5.26874 -0.911491 0
M  V30 13757 C 1287.23 4.34782 -2.89416 0
M  V30 13758 H 1288.93 2.32748 -1.88331 0
M  V30 13759 H 1286.47 1.11852 -0.906922 0
M  V30 13760 H 1288.42 4.20141 -0.325436 0
M  V30 13761 H 1287.15 3.23418 0.454764 0
M  V30 13762 H 1285.81 3.25964 -1.67759 0
M  V30 13763 H 1285.46 5.02971 0.0537982 0
M  V30 13764 H 1285.16 5.65791 -1.58602 0
M  V30 13765 H 1286.68 6.06039 -0.74493 0
M  V30 13766 H 1288.09 5.02207 -2.76516 0
M  V30 13767 H 1286.49 4.8479 -3.53693 0
M  V30 13768 H 1287.56 3.43935 -3.41814 0
M  V30 13769 N 1288.9 1.00119 1.21713 0
M  V30 13770 C 1290.18 0.597366 1.86255 0
M  V30 13771 C 1290.56 -0.925124 1.89749 0
M  V30 13772 O 1289.91 -1.8105 1.39402 0
M  V30 13773 C 1290.12 1.22735 3.26707 0
M  V30 13774 C 1291.47 1.33307 4.03131 0
M  V30 13775 O 1292.49 1.18237 3.36003 0
M  V30 13776 O 1291.35 1.57509 5.2331 0
M  V30 13777 H 1288.44 0.204091 0.801421 0
M  V30 13778 H 1290.99 1.09759 1.29426 0
M  V30 13779 H 1289.76 2.26837 3.18843 0
M  V30 13780 H 1289.38 0.713232 3.91151 0
M  V30 13781 N 1290.38 -1.37203 0.775435 0
M  V30 13782 C 1291.61 -2.04396 0.351737 0
M  V30 13783 C 1292.03 -1.58099 -1.01913 0
M  V30 13784 O 1291.39 -0.742932 -1.65379 0
M  V30 13785 C 1291.44 -3.58283 0.408105 0
M  V30 13786 O 1290.54 -4.08156 -0.590104 0
M  V30 13787 H 1289.88 -0.646451 0.151647 0
M  V30 13788 H 1292.41 -1.75443 1.05265 0
M  V30 13789 H 1292.42 -4.07127 0.266711 0
M  V30 13790 H 1291.1 -3.91335 1.40819 0
M  V30 13791 H 1289.67 -3.70622 -0.411524 0
M  V30 13792 N 1291.86 -0.526279 -1.48553 0
M  V30 13793 C 1293.09 0.0052277 -2.06899 0
M  V30 13794 C 1293.5 1.2849 -1.38332 0
M  V30 13795 O 1292.86 1.76354 -0.469648 0
M  V30 13796 C 1292.91 0.236709 -3.60724 0
M  V30 13797 O 1292.63 -0.992256 -4.26715 0
M  V30 13798 C 1294.13 0.809014 -4.35855 0
M  V30 13799 H 1291.35 -0.0318426 -0.670244 0
M  V30 13800 H 1293.9 -0.730865 -1.90994 0
M  V30 13801 H 1292.05 0.922842 -3.76248 0
M  V30 13802 H 1292.47 -0.770697 -5.18807 0
M  V30 13803 H 1293.94 0.920428 -5.44272 0
M  V30 13804 H 1294.42 1.81302 -4.00033 0
M  V30 13805 H 1295.02 0.159564 -4.25001 0
M  V30 13806 N 1293.34 1.5542 -0.261239 0
M  V30 13807 C 1294.57 2.03687 0.363225 0
M  V30 13808 C 1294.98 1.14007 1.50492 0
M  V30 13809 O 1294.34 0.157349 1.8182 0
M  V30 13810 C 1294.39 3.51184 0.857435 0
M  V30 13811 O 1294.11 4.37449 -0.238776 0
M  V30 13812 C 1295.61 4.15277 1.55113 0
M  V30 13813 H 1292.83 0.665641 0.0846356 0
M  V30 13814 H 1295.37 2.00761 -0.389288 0
M  V30 13815 H 1293.53 3.54599 1.56008 0
M  V30 13816 H 1293.94 5.24316 0.138821 0
M  V30 13817 H 1295.42 5.20129 1.8485 0
M  V30 13818 H 1295.89 3.62619 2.47799 0
M  V30 13819 H 1296.5 4.15826 0.892695 0
M  V30 13820 N 1294.82 -0.0116844 1.57596 0
M  V30 13821 C 1296.04 -0.713924 1.94725 0
M  V30 13822 C 1296.47 -1.67157 0.862565 0
M  V30 13823 O 1295.82 -1.80401 -0.180308 0
M  V30 13824 C 1295.87 -1.43214 3.30941 0
M  V30 13825 O 1294.98 -2.5461 3.24419 0
M  V30 13826 H 1294.32 -0.190772 0.636005 0
M  V30 13827 H 1296.85 0.0380247 2.04565 0
M  V30 13828 H 1296.86 -1.79819 3.66237 0
M  V30 13829 H 1295.53 -0.729906 4.09445 0
M  V30 13830 H 1294.11 -2.20419 3.00782 0
M  V30 13831 N 1296.29 -1.55015 -0.284256 0
M  V30 13832 C 1297.52 -1.79431 -1.04016 0
M  V30 13833 C 1297.94 -0.560254 -1.79563 0
M  V30 13834 O 1297.3 0.489804 -1.74558 0
M  V30 13835 C 1297.35 -3.01162 -1.98328 0
M  V30 13836 O 1296.45 -2.75459 -3.06914 0
M  V30 13837 H 1295.79 -0.593391 -0.297965 0
M  V30 13838 H 1298.32 -2.02136 -0.316585 0
M  V30 13839 H 1298.33 -3.29589 -2.40489 0
M  V30 13840 H 1297.01 -3.90634 -1.42751 0
M  V30 13841 H 1295.59 -2.58096 -2.69148 0
M  V30 13842 N 1297.77 0.548248 -1.47757 0
M  V30 13843 C 1298.7 1.66409 -1.63799 0
M  V30 13844 C 1299.68 1.62973 -0.487211 0
M  V30 13845 O 1300.87 1.80455 -0.717612 0
M  V30 13846 C 1298 3.05035 -1.66046 0
M  V30 13847 C 1296.95 3.23322 -2.80441 0
M  V30 13848 C 1296.28 4.62824 -2.67765 0
M  V30 13849 C 1297.58 3.07837 -4.2194 0
M  V30 13850 H 1299.27 1.53239 -2.57212 0
M  V30 13851 H 1296.82 0.735783 -1.23783 0
M  V30 13852 H 1298.77 3.82951 -1.75859 0
M  V30 13853 H 1297.49 3.19185 -0.69199 0
M  V30 13854 H 1296.15 2.47816 -2.70153 0
M  V30 13855 H 1295.8 4.73786 -1.68927 0
M  V30 13856 H 1295.5 4.76007 -3.44515 0
M  V30 13857 H 1297.03 5.42864 -2.7952 0
M  V30 13858 H 1298.44 3.75563 -4.33157 0
M  V30 13859 H 1296.84 3.32525 -4.99547 0
M  V30 13860 H 1297.91 2.04474 -4.3968 0
M  V30 13861 O 1299.29 1.45875 0.693009 0
M  V30 13862 H 1299.98 1.39395 1.34494 0
M  V30 END ATOM
M  V30 BEGIN BOND
M  V30 END BOND
M  V30 END CTAB
M  END
$$$$
