drugbank_target|Q14894 Ketimine reductase mu-crystallin (DB05235)
 OpenBabel12092119243D

  0  0  0     0  0            999 V3000
M  V30 BEGIN CTAB
M  V30 COUNTS 4764 4811 0 0 0
M  V30 BEGIN ATOM
M  V30 1 H -0.908 1.98254 -0.117106 0
M  V30 2 N 0 1.576 0 0
M  V30 3 C 0.933 2.03868 1.02534 0
M  V30 4 C 1.911 0.928543 1.3348 0
M  V30 5 O 3.095 1.19667 1.45644 0
M  V30 6 C 0.222 2.43627 2.35294 0
M  V30 7 C -0.732 3.65373 2.2001 0
M  V30 8 S 0.101 5.13292 1.52614 0
M  V30 9 C 1.257 5.56322 2.86805 0
M  V30 10 H 1.49 2.90518 0.631377 0
M  V30 11 H -0.977 1.52953 0.210867 0
M  V30 12 H 0.981 2.67203 3.11629 0
M  V30 13 H -0.358 1.57376 2.7183 0
M  V30 14 H -1.165 3.90944 3.18086 0
M  V30 15 H -1.563 3.418 1.51819 0
M  V30 16 H 0.729 5.58782 3.83104 0
M  V30 17 H 1.672 6.56266 2.65933 0
M  V30 18 H 2.08 4.83886 2.90714 0
M  V30 19 N 1.4781 -0.272755 1.55222 0
M  V30 20 C 2.7031 -1.02683 1.80197 0
M  V30 21 C 3.1281 -1.79142 0.573551 0
M  V30 22 O 2.4861 -1.74917 -0.476849 0
M  V30 23 C 2.5341 -1.9609 3.02624 0
M  V30 24 O 1.6381 -3.04863 2.77727 0
M  V30 25 H 0.9791 -0.293557 0.595584 0
M  V30 26 H 3.5091 -0.30159 2.02365 0
M  V30 27 H 3.5191 -2.38039 3.31363 0
M  V30 28 H 2.1941 -1.39851 3.91682 0
M  V30 29 H 0.7711 -2.67228 2.60084 0
M  V30 30 N 2.9562 -1.48159 -0.537278 0
M  V30 31 C 4.3722 -1.34118 -0.865129 0
M  V30 32 C 4.5722 -0.346678 -1.98495 0
M  V30 33 O 3.6282 0.234715 -2.51407 0
M  V30 34 C 4.9412 -2.73963 -1.23954 0
M  V30 35 C 6.4892 -2.82397 -1.34984 0
M  V30 36 C 6.9642 -4.22928 -1.75772 0
M  V30 37 N 8.4552 -4.25566 -1.82887 0
M  V30 38 C 9.1902 -5.31235 -2.15817 0
M  V30 39 N 8.6862 -6.47189 -2.47222 0
M  V30 40 N 10.4792 -5.18624 -2.16761 0
M  V30 41 H 2.6302 -2.1144 0.201715 0
M  V30 42 H 4.8932 -0.947598 0.0275949 0
M  V30 43 H 4.5992 -3.48264 -0.490381 0
M  V30 44 H 4.4732 -3.0702 -2.19132 0
M  V30 45 H 6.8602 -2.08356 -2.08978 0
M  V30 46 H 6.9412 -2.5297 -0.379448 0
M  V30 47 H 6.5852 -4.97482 -1.02341 0
M  V30 48 H 6.5152 -4.49794 -2.73848 0
M  V30 49 H 9.0062 -3.41924 -1.60924 0
M  V30 50 H 9.3192 -7.23564 -2.71433 0
M  V30 51 H 7.6642 -6.50476 -2.44757 0
M  V30 52 H 10.8552 -4.27056 -1.91679 0
M  V30 53 H 11.0282 -6.01078 -2.42093 0
M  V30 54 N 4.4343 0.785586 -1.36625 0
M  V30 55 C 5.6803 1.54591 -1.31261 0
M  V30 56 C 6.0133 1.93906 0.106823 0
M  V30 57 O 5.2883 1.63007 1.06108 0
M  V30 58 C 5.5713 2.82038 -2.23889 0
M  V30 59 C 5.4243 2.49066 -3.74548 0
M  V30 60 C 6.7433 3.83887 -2.15217 0
M  V30 61 H 3.8623 0.560846 -0.478143 0
M  V30 62 H 6.5043 0.902278 -1.67209 0
M  V30 63 H 4.6543 3.36961 -1.93363 0
M  V30 64 H 6.3263 2.00164 -4.15611 0
M  V30 65 H 4.5693 1.81954 -3.93796 0
M  V30 66 H 5.2403 3.40109 -4.34776 0
M  V30 67 H 7.7163 3.38421 -2.42096 0
M  V30 68 H 6.5923 4.70806 -2.82193 0
M  V30 69 H 6.8533 4.27131 -1.14068 0
M  V30 70 N 5.9124 1.20967 1.01018 0
M  V30 71 C 7.3234 1.02319 1.56165 0
M  V30 72 C 7.6744 -0.418546 1.91684 0
M  V30 73 O 6.7994 -1.30096 1.72928 0
M  V30 74 C 7.3944 1.85109 2.8376 0
M  V30 75 C 5.9534 1.70809 3.35412 0
M  V30 76 C 5.1004 1.82643 2.08655 0
M  V30 77 H 8.0514 1.35065 0.833255 0
M  V30 78 H 8.0724 1.35827 3.55431 0
M  V30 79 H 7.5844 2.90035 2.57878 0
M  V30 80 H 5.6854 0.685464 3.66241 0
M  V30 81 H 5.7984 2.52467 4.07182 0
M  V30 82 H 4.1624 1.25896 2.21409 0
M  V30 83 H 4.9454 2.89066 1.85191 0
M  V30 84 N 7.3905 -1.2043 1.01659 0
M  V30 85 C 8.3535 -2.21433 0.591616 0
M  V30 86 C 9.3535 -1.57203 -0.338226 0
M  V30 87 O 10.5435 -1.73737 -0.126918 0
M  V30 88 C 7.6755 -3.40628 -0.136058 0
M  V30 89 H 8.8685 -2.60545 1.48514 0
M  V30 90 H 6.4215 -1.33893 0.806379 0
M  V30 91 H 7.1565 -3.07019 -1.04449 0
M  V30 92 H 6.9415 -3.88475 0.531917 0
M  V30 93 H 8.4315 -4.15475 -0.420735 0
M  V30 94 N 8.8686 -0.792821 -1.36206 0
M  V30 95 C 10.1156 -0.366786 -1.99151 0
M  V30 96 C 10.4436 1.06243 -1.62919 0
M  V30 97 O 9.6986 1.74927 -0.877442 0
M  V30 98 C 9.9976 -0.481501 -3.54142 0
M  V30 99 C 9.6636 -1.87202 -4.10203 0
M  V30 100 C 8.3256 -2.25248 -4.25226 0
M  V30 101 C 10.6776 -2.78237 -4.40719 0
M  V30 102 C 8.0056 -3.53723 -4.68078 0
M  V30 103 C 10.3576 -4.06144 -4.85005 0
M  V30 104 C 9.0216 -4.44207 -4.98234 0
M  V30 105 H 8.2916 -0.134217 -0.728743 0
M  V30 106 H 10.9386 -1.01094 -1.62641 0
M  V30 107 H 9.2436 0.246146 -3.91026 0
M  V30 108 H 10.9406 -0.132844 -4.0078 0
M  V30 109 H 7.5306 -1.56639 -3.98951 0
M  V30 110 H 11.7146 -2.50097 -4.28679 0
M  V30 111 H 6.9706 -3.8308 -4.76508 0
M  V30 112 H 11.1446 -4.76796 -5.07581 0
M  V30 113 H 8.7716 -5.43814 -5.31197 0
M  V30 114 N 10.3467 1.47872 -0.545128 0
M  V30 115 C 11.2767 2.32661 0.197793 0
M  V30 116 C 12.2577 1.43041 0.920504 0
M  V30 117 O 13.4427 1.71912 0.90333 0
M  V30 118 C 10.5727 3.24569 1.23582 0
M  V30 119 C 9.5267 4.23333 0.630323 0
M  V30 120 C 8.8527 5.0448 1.77211 0
M  V30 121 C 10.1527 5.20704 -0.407974 0
M  V30 122 H 11.8467 2.95024 -0.510045 0
M  V30 123 H 9.3927 1.4187 -0.246731 0
M  V30 124 H 11.3457 3.8272 1.76362 0
M  V30 125 H 10.0697 2.60236 1.97344 0
M  V30 126 H 8.7287 3.6639 0.123922 0
M  V30 127 H 8.3767 4.36561 2.49847 0
M  V30 128 H 8.0767 5.71339 1.37281 0
M  V30 129 H 9.6007 5.65487 2.3034 0
M  V30 130 H 11.0147 5.7329 0.033305 0
M  V30 131 H 9.4117 5.95699 -0.725486 0
M  V30 132 H 10.4817 4.66917 -1.30828 0
M  V30 133 N 11.8248 0.280983 1.55075 0
M  V30 134 C 13.0498 -0.340154 2.04592 0
M  V30 135 C 13.4748 -1.48246 1.15779 0
M  V30 136 O 12.8328 -1.80614 0.15761 0
M  V30 137 C 12.8808 -0.793104 3.5177 0
M  V30 138 O 11.9848 -1.89981 3.66034 0
M  V30 139 H 11.3258 -0.0694289 0.66036 0
M  V30 140 H 13.8558 0.416993 2.00306 0
M  V30 141 H 13.8658 -1.08729 3.93245 0
M  V30 142 H 12.5408 0.0426163 4.15878 0
M  V30 143 H 11.1178 -1.60771 3.36463 0
M  V30 144 N 13.3029 -1.57598 0.00835791 0
M  V30 145 C 14.2659 -2.07884 -0.965242 0
M  V30 146 C 15.2659 -0.989825 -1.26725 0
M  V30 147 O 16.4559 -1.25218 -1.21104 0
M  V30 148 C 13.5879 -2.52731 -2.28779 0
M  V30 149 H 14.7809 -2.95178 -0.530112 0
M  V30 150 H 12.3339 -1.54458 -0.239283 0
M  V30 151 H 13.0689 -1.68705 -2.76964 0
M  V30 152 H 12.8539 -3.32272 -2.08177 0
M  V30 153 H 14.3439 -2.91933 -2.98605 0
M  V30 154 N 14.781 0.264519 -1.55364 0
M  V30 155 C 15.744 1.31046 -1.88042 0
M  V30 156 C 16.744 1.41943 -0.755569 0
M  V30 157 O 17.934 1.40947 -1.02369 0
M  V30 158 C 15.066 2.69067 -2.09323 0
M  V30 159 H 16.259 1.03297 -2.81549 0
M  V30 160 H 13.812 0.502989 -1.47986 0
M  V30 161 H 14.547 3.01982 -1.18226 0
M  V30 162 H 14.332 2.62542 -2.91229 0
M  V30 163 H 15.822 3.44623 -2.35848 0
M  V30 164 N 16.2591 1.48442 0.529413 0
M  V30 165 C 17.1691 1.6569 1.66084 0
M  V30 166 C 18.1851 0.539432 1.65427 0
M  V30 167 O 19.3611 0.810572 1.84368 0
M  V30 168 C 16.4261 1.69315 3.02545 0
M  V30 169 C 15.4871 2.92694 3.14052 0
M  V30 170 C 14.7201 2.96137 4.44003 0
M  V30 171 O 14.9431 2.07973 5.31134 0
M  V30 172 O 13.8771 3.88312 4.59888 0
M  V30 173 H 17.7031 2.61483 1.54469 0
M  V30 174 H 15.2881 1.3185 0.702567 0
M  V30 175 H 17.1701 1.74217 3.83701 0
M  V30 176 H 15.8451 0.766966 3.14483 0
M  V30 177 H 14.7521 2.93324 2.32189 0
M  V30 178 H 16.0851 3.84699 3.0703 0
M  V30 179 N 17.7372 -0.778329 1.37039 0
M  V30 180 C 18.9832 -1.53892 1.32079 0
M  V30 181 C 19.3162 -1.9396 -0.0965386 0
M  V30 182 O 18.5912 -1.63568 -1.05242 0
M  V30 183 C 18.8742 -2.80847 2.25382 0
M  V30 184 C 18.7272 -2.47076 3.75864 0
M  V30 185 C 20.0462 -3.82741 2.1725 0
M  V30 186 H 17.1652 -0.558303 0.48111 0
M  V30 187 H 19.8072 -0.893397 1.67685 0
M  V30 188 H 17.9572 -3.35931 1.95148 0
M  V30 189 H 19.6292 -1.97957 4.16666 0
M  V30 190 H 17.8722 -1.79863 3.94755 0
M  V30 191 H 18.5432 -3.37798 4.36574 0
M  V30 192 H 21.0192 -3.37133 2.43887 0
M  V30 193 H 19.8952 -4.69303 2.84686 0
M  V30 194 H 20.1562 -4.2652 1.16331 0
M  V30 195 N 19.2153 -1.21501 -1.00376 0
M  V30 196 C 20.1253 -0.991447 -2.12621 0
M  V30 197 C 21.1413 0.0568446 -1.73907 0
M  V30 198 O 22.3173 -0.13348 -2.00957 0
M  V30 199 C 19.3823 -0.560312 -3.42142 0
M  V30 200 C 18.4433 -1.68096 -3.95022 0
M  V30 201 C 17.6763 -1.2703 -5.18362 0
M  V30 202 O 17.8993 -0.144438 -5.70217 0
M  V30 203 O 16.8333 -2.08269 -5.64719 0
M  V30 204 H 20.6593 -1.93158 -2.34358 0
M  V30 205 H 18.2443 -0.999999 -1.10997 0
M  V30 206 H 20.1263 -0.329724 -4.20108 0
M  V30 207 H 18.8013 0.351089 -3.2179 0
M  V30 208 H 17.7083 -1.96597 -3.18278 0
M  V30 209 H 19.0413 -2.56983 -4.19786 0
M  V30 210 N 20.6934 1.19889 -1.02296 0
M  V30 211 C 21.6034 2.26571 -0.608508 0
M  V30 212 C 22.6194 1.70299 0.356964 0
M  V30 213 O 23.7954 2.00235 0.216326 0
M  V30 214 C 20.8604 3.46677 0.0402814 0
M  V30 215 C 19.9214 4.18153 -0.97194 0
M  V30 216 C 19.1544 5.32525 -0.354016 0
M  V30 217 O 19.3774 5.64112 0.844604 0
M  V30 218 O 18.3114 5.92242 -1.07391 0
M  V30 219 H 22.1374 2.64251 -1.49684 0
M  V30 220 H 19.7224 1.26629 -0.792809 0
M  V30 221 H 21.6044 4.19475 0.402324 0
M  V30 222 H 20.2794 3.10858 0.902707 0
M  V30 223 H 19.1864 3.47499 -1.38546 0
M  V30 224 H 20.5194 4.57927 -1.80454 0
M  V30 225 N 22.1715 0.800033 1.35784 0
M  V30 226 C 23.1215 0.178654 2.27299 0
M  V30 227 C 24.1055 -0.643667 1.47464 0
M  V30 228 O 25.2975 -0.502 1.69732 0
M  V30 229 C 22.4265 -0.677194 3.36555 0
M  V30 230 C 21.5125 0.154497 4.23818 0
M  V30 231 N 21.9035 1.21427 4.91008 0
M  V30 232 C 20.2015 -0.0649462 4.45953 0
M  V30 233 C 20.9025 1.72147 5.55644 0
M  V30 234 N 19.8785 1.02897 5.33773 0
M  V30 235 H 23.6805 0.989637 2.76737 0
M  V30 236 H 21.1945 0.64054 1.49234 0
M  V30 237 H 23.1915 -1.13835 4.01058 0
M  V30 238 H 21.8515 -1.4866 2.8867 0
M  V30 239 H 22.8625 1.59684 4.92668 0
M  V30 240 H 19.5395 -0.844016 4.0888 0
M  V30 241 H 20.9295 2.60683 6.19269 0
M  V30 242 N 23.6496 -1.47581 0.552962 0
M  V30 243 C 24.5796 -2.32762 -0.185451 0
M  V30 244 C 25.5606 -1.43527 -0.912905 0
M  V30 245 O 26.7456 -1.72388 -0.894201 0
M  V30 246 C 23.8756 -3.25219 -1.21859 0
M  V30 247 C 22.8296 -4.23661 -0.607864 0
M  V30 248 C 22.1556 -5.05413 -1.74533 0
M  V30 249 C 23.4556 -5.20481 0.435582 0
M  V30 250 H 25.1496 -2.94749 0.525684 0
M  V30 251 H 22.6956 -1.41738 0.254251 0
M  V30 252 H 24.6486 -3.8365 -1.7433 0
M  V30 253 H 23.3726 -2.61279 -1.95961 0
M  V30 254 H 22.0316 -3.66451 -0.104489 0
M  V30 255 H 21.6796 -4.3788 -2.47529 0
M  V30 256 H 21.3796 -5.72059 -1.34249 0
M  V30 257 H 22.9036 -5.66701 -2.27338 0
M  V30 258 H 24.3176 -5.733 -0.00290157 0
M  V30 259 H 22.7146 -5.95305 0.757067 0
M  V30 260 H 23.7846 -4.66217 1.33303 0
M  V30 261 N 25.1277 -0.289203 -1.54924 0
M  V30 262 C 26.5437 0.0645403 -1.59469 0
M  V30 263 C 26.7437 1.53419 -1.30632 0
M  V30 264 O 25.7997 2.2852 -1.074 0
M  V30 265 C 27.1127 -0.32278 -2.98963 0
M  V30 266 C 28.6607 -0.270564 -3.11828 0
M  V30 267 C 29.1357 -0.632532 -4.53611 0
M  V30 268 N 30.6267 -0.584617 -4.59496 0
M  V30 269 C 31.3617 -0.837314 -5.67254 0
M  V30 270 N 30.8577 -1.15536 -6.83098 0
M  V30 271 N 32.6507 -0.765166 -5.56868 0
M  V30 272 H 24.8017 -1.24714 -1.71931 0
M  V30 273 H 27.0647 -0.504809 -0.802416 0
M  V30 274 H 26.7707 -1.34541 -3.24948 0
M  V30 275 H 26.6447 0.32944 -3.75759 0
M  V30 276 H 29.0317 0.742805 -2.85598 0
M  V30 277 H 29.1127 -0.957242 -2.37214 0
M  V30 278 H 28.7567 -1.64365 -4.80569 0
M  V30 279 H 28.6867 0.07609 -5.26545 0
M  V30 280 H 31.1777 -0.349248 -3.76283 0
M  V30 281 H 31.4907 -1.33447 -7.61191 0
M  V30 282 H 29.8357 -1.19328 -6.84679 0
M  V30 283 H 33.0267 -0.516432 -4.65243 0
M  V30 284 H 33.1997 -0.965477 -6.40767 0
M  V30 285 N 26.6058 1.57591 -0.0167156 0
M  V30 286 C 27.8308 1.9598 0.67872 0
M  V30 287 C 28.2558 0.892546 1.65575 0
M  V30 288 O 27.6138 -0.147772 1.80697 0
M  V30 289 C 27.6618 3.33468 1.37227 0
M  V30 290 O 26.7658 3.28954 2.48722 0
M  V30 291 H 26.1068 0.639339 0.17928 0
M  V30 292 H 28.6368 2.04463 -0.0748802 0
M  V30 293 H 28.6468 3.69417 1.7319 0
M  V30 294 H 27.3218 4.10694 0.656007 0
M  V30 295 H 25.8988 3.04705 2.14963 0
M  V30 296 N 28.0839 -0.256276 1.55502 0
M  V30 297 C 29.3089 -1.00766 1.81276 0
M  V30 298 C 29.7339 -1.78524 0.59252 0
M  V30 299 O 29.0919 -1.75413 -0.45827 0
M  V30 300 C 29.1399 -1.92869 3.04687 0
M  V30 301 O 28.2439 -3.019 2.80945 0
M  V30 302 H 27.5849 -0.287224 0.598664 0
M  V30 303 H 30.1149 -0.280109 2.02674 0
M  V30 304 H 30.1249 -2.34511 3.33869 0
M  V30 305 H 28.7999 -1.35689 3.93143 0
M  V30 306 H 27.3769 -2.64454 2.62904 0
M  V30 307 N 29.562 -1.4872 -0.521534 0
M  V30 308 C 30.787 -1.61101 -1.30618 0
M  V30 309 C 31.212 -0.274611 -1.86085 0
M  V30 310 O 30.57 0.754937 -1.64834 0
M  V30 311 C 30.618 -2.66709 -2.4269 0
M  V30 312 O 29.722 -2.24456 -3.45967 0
M  V30 313 H 29.063 -0.539921 -0.386499 0
M  V30 314 H 31.593 -1.94767 -0.626645 0
M  V30 315 H 31.603 -2.88245 -2.88754 0
M  V30 316 H 30.278 -3.63727 -2.01682 0
M  V30 317 H 28.855 -2.13168 -3.05964 0
M  V30 318 N 31.0401 0.771051 -1.3745 0
M  V30 319 C 31.9701 1.89827 -1.3597 0
M  V30 320 C 32.9511 1.68562 -0.228216 0
M  V30 321 O 34.1361 1.8941 -0.428675 0
M  V30 322 C 31.2661 3.2712 -1.16662 0
M  V30 323 C 30.2201 3.6295 -2.2683 0
M  V30 324 C 29.5461 4.98791 -1.92644 0
M  V30 325 C 30.8461 3.69627 -3.69017 0
M  V30 326 H 32.5401 1.91323 -2.30295 0
M  V30 327 H 30.0861 0.919082 -1.10855 0
M  V30 328 H 32.0391 4.05615 -1.14256 0
M  V30 329 H 30.7631 3.26059 -0.187926 0
M  V30 330 H 29.4221 2.86763 -2.28392 0
M  V30 331 H 29.0701 4.94271 -0.933021 0
M  V30 332 H 28.7701 5.23733 -2.66416 0
M  V30 333 H 30.2941 5.79685 -1.91826 0
M  V30 334 H 31.7081 4.38273 -3.69581 0
M  V30 335 H 30.1051 4.06067 -4.41848 0
M  V30 336 H 31.1751 2.70273 -4.02592 0
M  V30 337 N 32.5182 1.22032 0.997298 0
M  V30 338 C 33.4482 1.01065 2.10495 0
M  V30 339 C 34.4292 -0.0669542 1.69968 0
M  V30 340 O 35.6142 0.0943987 1.9397 0
M  V30 341 C 32.7442 0.582874 3.42374 0
M  V30 342 C 31.6982 1.60592 3.96729 0
M  V30 343 C 31.0242 1.03412 5.24605 0
M  V30 344 C 32.3242 2.99478 4.27914 0
M  V30 345 H 34.0182 1.93708 2.28292 0
M  V30 346 H 31.5642 0.932761 1.09707 0
M  V30 347 H 33.5172 0.423332 4.19268 0
M  V30 348 H 32.2412 -0.379213 3.24391 0
M  V30 349 H 30.9002 1.75316 3.21963 0
M  V30 350 H 30.5482 0.063518 5.0296 0
M  V30 351 H 30.2482 1.71754 5.61938 0
M  V30 352 H 31.7722 0.886066 6.04137 0
M  V30 353 H 33.1862 2.88153 4.95622 0
M  V30 354 H 31.5832 3.64903 4.76409 0
M  V30 355 H 32.6532 3.49742 3.3587 0
M  V30 356 N 33.9963 -1.19345 1.0293 0
M  V30 357 C 35.2453 -1.88363 0.721256 0
M  V30 358 C 35.5583 -1.80514 -0.753254 0
M  V30 359 O 36.7643 -2.44788 -1.17436 0
M  V30 360 C 35.2203 -3.37872 1.23978 0
M  V30 361 C 34.8283 -3.54278 2.74211 0
M  V30 362 C 36.5723 -4.12365 1.00775 0
M  V30 363 C 34.4793 -4.97682 3.19479 0
M  V30 364 H 33.4093 -0.705484 0.266098 0
M  V30 365 H 36.0603 -1.34928 1.24365 0
M  V30 366 H 34.4423 -3.90707 0.6453 0
M  V30 367 H 35.6163 -3.11769 3.39318 0
M  V30 368 H 33.9313 -2.93174 2.95699 0
M  V30 369 H 36.5283 -5.18119 1.32123 0
M  V30 370 H 36.8713 -4.16263 -0.0554308 0
M  V30 371 H 37.4043 -3.65668 1.56625 0
M  V30 372 H 34.1433 -4.98945 4.25128 0
M  V30 373 H 33.6633 -5.4095 2.591 0
M  V30 374 H 35.3423 -5.66337 3.12845 0
M  V30 375 N 35.4744 -0.807222 -1.35358 0
M  V30 376 C 36.8854 -0.44876 -1.81226 0
M  V30 377 C 37.2364 1.02929 -1.67033 0
M  V30 378 O 36.3614 1.79991 -1.20133 0
M  V30 379 C 36.9564 -0.807774 -3.2903 0
M  V30 380 C 35.5154 -0.501901 -3.73039 0
M  V30 381 C 34.6624 -1.03304 -2.57339 0
M  V30 382 H 37.6134 -0.998808 -1.23327 0
M  V30 383 H 37.6344 -0.10554 -3.80354 0
M  V30 384 H 37.1464 -1.88357 -3.39328 0
M  V30 385 H 35.2474 0.565128 -3.68289 0
M  V30 386 H 35.3604 -1.03497 -4.67787 0
M  V30 387 H 33.7244 -0.455339 -2.50597 0
M  V30 388 H 34.5074 -2.11496 -2.70415 0
M  V30 389 N 36.9525 1.47285 -0.560781 0
M  V30 390 C 38.3635 1.86258 -0.128343 0
M  V30 391 C 38.7145 1.46699 1.30284 0
M  V30 392 O 37.8395 0.871698 1.98067 0
M  V30 393 C 38.4345 3.38044 -0.22614 0
M  V30 394 C 36.9935 3.76096 0.151283 0
M  V30 395 C 36.1405 2.71335 -0.572084 0
M  V30 396 H 39.0915 1.38752 -0.770297 0
M  V30 397 H 39.1125 3.76441 0.554322 0
M  V30 398 H 38.6245 3.66806 -1.26788 0
M  V30 399 H 36.7255 3.52951 1.19399 0
M  V30 400 H 36.8385 4.78641 -0.209765 0
M  V30 401 H 35.2025 2.54696 -0.0147653 0
M  V30 402 H 35.9855 3.02938 -1.61504 0
M  V30 403 N 38.4306 0.297415 1.54768 0
M  V30 404 C 39.3606 -0.573494 2.26348 0
M  V30 405 C 40.3416 -1.14085 1.26169 0
M  V30 406 O 41.5266 -1.17086 1.54934 0
M  V30 407 C 38.6566 -1.74716 3.00153 0
M  V30 408 C 37.6106 -1.31032 4.07449 0
M  V30 409 C 36.9366 -2.56887 4.68949 0
M  V30 410 C 38.2366 -0.444183 5.20408 0
M  V30 411 H 39.9306 0.0235131 2.99391 0
M  V30 412 H 37.4766 0.0127488 1.43994 0
M  V30 413 H 39.4296 -2.3625 3.48947 0
M  V30 414 H 38.1536 -2.37035 2.24682 0
M  V30 415 H 36.8126 -0.718066 3.59499 0
M  V30 416 H 36.4606 -3.17512 3.90122 0
M  V30 417 H 36.1606 -2.2836 5.41411 0
M  V30 418 H 37.6846 -3.19229 5.20505 0
M  V30 419 H 39.0986 -0.9651 5.65118 0
M  V30 420 H 37.4956 -0.252846 5.99567 0
M  V30 421 H 38.5656 0.531609 4.81977 0
M  V30 422 N 39.9087 -1.5758 0.0250728 0
M  V30 423 C 40.8187 -2.1343 -0.973905 0
M  V30 424 C 41.8347 -1.08556 -1.35984 0
M  V30 425 O 43.0107 -1.40592 -1.44207 0
M  V30 426 C 40.0757 -2.64703 -2.23904 0
M  V30 427 C 39.1367 -3.84276 -1.91391 0
M  V30 428 C 38.3697 -4.33095 -3.11873 0
M  V30 429 O 38.5927 -3.81107 -4.24398 0
M  V30 430 O 37.5267 -5.24984 -2.94406 0
M  V30 431 H 41.3527 -2.99057 -0.529036 0
M  V30 432 H 38.9377 -1.48118 -0.195288 0
M  V30 433 H 40.8197 -2.97769 -2.98181 0
M  V30 434 H 39.4947 -1.82161 -2.6758 0
M  V30 435 H 38.4017 -3.56143 -1.14511 0
M  V30 436 H 39.7347 -4.67968 -1.52534 0
M  V30 437 N 41.3868 0.248026 -1.55636 0
M  V30 438 C 42.6148 0.993808 -1.81469 0
M  V30 439 C 43.0298 1.78991 -0.60064 0
M  V30 440 O 42.3868 1.77345 0.430682 0
M  V30 441 C 42.4378 1.93258 -3.05506 0
M  V30 442 O 42.1588 1.16869 -4.22224 0
M  V30 443 C 43.6598 2.79444 -3.4413 0
M  V30 444 H 40.8798 0.292486 -0.603898 0
M  V30 445 H 43.4238 0.271253 -2.02693 0
M  V30 446 H 41.5788 2.60943 -2.86335 0
M  V30 447 H 41.9928 1.80359 -4.92515 0
M  V30 448 H 43.4668 3.41066 -4.34026 0
M  V30 449 H 43.9438 3.50499 -2.64665 0
M  V30 450 H 44.5498 2.17214 -3.65648 0
M  V30 451 N 42.8649 1.48995 0.513639 0
M  V30 452 C 43.8279 1.64229 1.59879 0
M  V30 453 C 44.8279 0.514696 1.5234 0
M  V30 454 O 46.0179 0.78087 1.55718 0
M  V30 455 C 43.1499 1.62783 2.99524 0
M  V30 456 H 44.3429 2.61004 1.47705 0
M  V30 457 H 41.8959 1.37837 0.736936 0
M  V30 458 H 42.6309 0.675461 3.17188 0
M  V30 459 H 42.4159 2.4466 3.06404 0
M  V30 460 H 43.9059 1.76669 3.78388 0
M  V30 461 N 44.343 -0.763751 1.37857 0
M  V30 462 C 45.273 -1.89103 1.36975 0
M  V30 463 C 46.254 -1.68439 0.237152 0
M  V30 464 O 47.439 -1.8918 0.438713 0
M  V30 465 C 44.569 -3.26496 1.18395 0
M  V30 466 C 43.523 -3.61741 2.28751 0
M  V30 467 C 42.849 -4.97762 1.95286 0
M  V30 468 C 44.149 -3.67665 3.70972 0
M  V30 469 H 45.843 -1.90099 2.31307 0
M  V30 470 H 43.389 -0.91319 1.11341 0
M  V30 471 H 45.342 -4.05003 1.16406 0
M  V30 472 H 44.066 -3.25955 0.205215 0
M  V30 473 H 42.725 -2.85547 2.29909 0
M  V30 474 H 42.373 -4.93769 0.959221 0
M  V30 475 H 42.073 -5.22313 2.69189 0
M  V30 476 H 43.597 -5.7866 1.94898 0
M  V30 477 H 45.011 -4.36307 3.719 0
M  V30 478 H 43.408 -4.03718 4.43995 0
M  V30 479 H 44.478 -2.68134 4.0402 0
M  V30 480 N 45.8211 -1.22559 -0.990812 0
M  V30 481 C 46.7841 -0.998863 -2.0629 0
M  V30 482 C 47.7841 0.0354834 -1.60761 0
M  V30 483 O 48.9741 -0.203231 -1.7301 0
M  V30 484 C 46.1061 -0.509203 -3.37076 0
M  V30 485 H 47.2991 -1.95014 -2.27837 0
M  V30 486 H 44.8521 -1.04456 -1.16269 0
M  V30 487 H 45.5871 0.446335 -3.21214 0
M  V30 488 H 45.3721 -1.25547 -3.71457 0
M  V30 489 H 46.8621 -0.370888 -4.1595 0
M  V30 490 N 47.2992 1.18797 -1.03562 0
M  V30 491 C 48.2472 2.24297 -0.615905 0
M  V30 492 C 49.2412 1.65643 0.354808 0
M  V30 493 O 50.4472 1.78618 0.22265 0
M  V30 494 H 46.8222 0.729909 -0.180934 0
M  V30 495 H 48.7932 2.5701 -1.5162 0
M  V30 496 C 47.5422 3.47698 0.0104735 0
M  V30 497 H 46.8652 3.93125 -0.727509 0
M  V30 498 H 48.3052 4.23159 0.266995 0
M  V30 499 C 46.7642 3.12489 1.25905 0
M  V30 500 O 47.2942 3.25761 2.35038 0
M  V30 501 N 45.5002 2.6686 1.15039 0
M  V30 502 H 45.0472 2.56261 0.262328 0
M  V30 503 H 45.0052 2.43674 1.98672 0
M  V30 504 N 48.7773 0.814389 1.34928 0
M  V30 505 C 50.0243 0.398423 1.98542 0
M  V30 506 C 50.3523 -1.03638 1.64589 0
M  V30 507 O 49.6073 -1.73509 0.90516 0
M  V30 508 C 49.9063 0.537781 3.53331 0
M  V30 509 C 49.5723 1.93704 4.07172 0
M  V30 510 C 48.2343 2.31984 4.21589 0
M  V30 511 C 50.5863 2.85213 4.36237 0
M  V30 512 C 47.9143 3.61125 4.62391 0
M  V30 513 C 50.2663 4.13809 4.78482 0
M  V30 514 C 48.9303 4.52077 4.91104 0
M  V30 515 H 48.2003 0.145793 0.726516 0
M  V30 516 H 50.8473 1.03669 1.61012 0
M  V30 517 H 49.1523 -0.183906 3.91368 0
M  V30 518 H 50.8493 0.196588 4.00518 0
M  V30 519 H 47.4393 1.62966 3.96409 0
M  V30 520 H 51.6233 2.56885 4.24645 0
M  V30 521 H 46.8793 3.90612 4.70353 0
M  V30 522 H 51.0533 4.84811 4.99932 0
M  V30 523 H 48.6803 5.52196 5.22478 0
M  V30 524 N 50.2554 -1.46986 0.568584 0
M  V30 525 C 51.4804 -2.07335 0.0520528 0
M  V30 526 C 51.9054 -1.41675 -1.23733 0
M  V30 527 O 51.2634 -0.495623 -1.74394 0
M  V30 528 C 51.3114 -3.60417 -0.11501 0
M  V30 529 O 50.4154 -3.95309 -1.17492 0
M  V30 530 H 49.7564 -0.661597 0.0564385 0
M  V30 531 H 52.2864 -1.88837 0.787507 0
M  V30 532 H 52.2964 -4.06698 -0.325644 0
M  V30 533 H 50.9714 -4.07601 0.826675 0
M  V30 534 H 49.5484 -3.60757 -0.943869 0
M  V30 535 N 51.7335 -0.305618 -1.54608 0
M  V30 536 C 52.9585 0.307562 -2.05107 0
M  V30 537 C 53.3835 1.46385 -1.18123 0
M  V30 538 O 52.7415 1.8034 -0.186324 0
M  V30 539 C 52.7895 0.73704 -3.52987 0
M  V30 540 O 51.8935 1.84134 -3.6901 0
M  V30 541 H 51.2345 0.0589143 -0.661381 0
M  V30 542 H 53.7645 -0.448807 -1.99617 0
M  V30 543 H 53.7745 1.02459 -3.94925 0
M  V30 544 H 52.4495 -0.108773 -4.15758 0
M  V30 545 H 51.0265 1.55398 -3.38978 0
M  V30 546 N 53.2116 1.57565 -0.0334293 0
M  V30 547 C 54.4596 1.91598 0.642999 0
M  V30 548 C 54.7806 0.910847 1.7242 0
M  V30 549 O 54.0506 -0.0469931 1.95844 0
M  V30 550 H 52.6306 0.707228 0.240496 0
M  V30 551 H 55.2926 1.94726 -0.0822488 0
M  V30 552 H 54.3886 2.92336 1.09298 0
M  V30 553 N 54.6897 -0.239769 1.55765 0
M  V30 554 C 56.1007 -0.808263 1.68297 0
M  V30 555 C 56.4517 -1.85736 0.632181 0
M  V30 556 O 55.5767 -2.15277 -0.220204 0
M  V30 557 C 56.1717 -1.47284 3.05111 0
M  V30 558 C 54.7307 -1.98895 3.19559 0
M  V30 559 C 53.8777 -0.842575 2.64189 0
M  V30 560 H 56.8287 -0.0154422 1.58692 0
M  V30 561 H 56.8497 -2.34111 2.99954 0
M  V30 562 H 56.3617 -0.709053 3.81568 0
M  V30 563 H 54.4627 -2.78132 2.47938 0
M  V30 564 H 54.5757 -2.18143 4.26556 0
M  V30 565 H 52.9397 -1.24501 2.22197 0
M  V30 566 H 53.7227 -0.0917552 3.43177 0
M  V30 567 N 56.1678 -1.49265 -0.50573 0
M  V30 568 C 57.0778 -1.68312 -1.63427 0
M  V30 569 C 58.0938 -0.565682 -1.64548 0
M  V30 570 O 59.2698 -0.839801 -1.83055 0
M  V30 571 C 56.3348 -1.74107 -2.99813 0
M  V30 572 C 55.3958 -2.97653 -3.09356 0
M  V30 573 C 54.6288 -3.03163 -4.39236 0
M  V30 574 O 54.8518 -2.16396 -5.27758 0
M  V30 575 O 53.7858 -3.9558 -4.53652 0
M  V30 576 H 57.6118 -2.63907 -1.50289 0
M  V30 577 H 55.1968 -1.32951 -0.681502 0
M  V30 578 H 57.0788 -1.803 -3.80881 0
M  V30 579 H 55.7538 -0.816901 -3.13223 0
M  V30 580 H 54.6608 -2.96981 -2.27493 0
M  V30 581 H 55.9938 -3.89535 -3.00871 0
M  V30 582 N 57.6459 0.756429 -1.3826 0
M  V30 583 C 58.8939 1.51248 -1.34047 0
M  V30 584 C 59.2149 1.94875 0.0698372 0
M  V30 585 O 58.4849 1.67436 1.01696 0
M  V30 586 H 57.0649 0.561018 -0.493222 0
M  V30 587 H 59.7269 0.899347 -1.7291 0
M  V30 588 H 58.8229 2.40472 -1.98947 0
M  V30 589 N 59.124 1.23083 0.984299 0
M  V30 590 C 60.372 1.05848 1.72165 0
M  V30 591 C 60.693 -0.406049 1.90726 0
M  V30 592 O 59.963 -1.29139 1.47309 0
M  V30 593 H 58.543 0.388685 0.637913 0
M  V30 594 H 61.205 1.54736 1.18503 0
M  V30 595 H 60.301 1.54327 2.71274 0
M  V30 596 N 60.6021 -1.18246 1.0419 0
M  V30 597 C 61.8481 -1.88536 0.747122 0
M  V30 598 C 62.1811 -1.80223 -0.723409 0
M  V30 599 O 61.4561 -1.20337 -1.52804 0
M  V30 600 C 61.7391 -3.38968 1.21544 0
M  V30 601 C 61.5921 -3.56084 2.74816 0
M  V30 602 C 62.9111 -4.32648 0.806482 0
M  V30 603 H 60.0301 -0.684619 0.272883 0
M  V30 604 H 62.6721 -1.39113 1.29413 0
M  V30 605 H 60.8221 -3.8119 0.750081 0
M  V30 606 H 62.4941 -3.22946 3.29399 0
M  V30 607 H 60.7371 -2.98699 3.14582 0
M  V30 608 H 61.4081 -4.61639 3.02644 0
M  V30 609 H 63.8841 -3.98211 1.20695 0
M  V30 610 H 62.7601 -5.36462 1.1619 0
M  V30 611 H 63.0211 -4.41146 -0.29029 0
M  V30 612 N 62.0802 -0.821533 -1.34494 0
M  V30 613 C 63.0132 -0.187704 -2.27427 0
M  V30 614 C 63.9912 0.65507 -1.48821 0
M  V30 615 O 65.1752 0.619111 -1.78043 0
M  V30 616 C 62.3022 0.737996 -3.30562 0
M  V30 617 C 61.3482 -0.0270713 -4.26491 0
M  V30 618 S 62.1812 -1.37329 -5.17592 0
M  V30 619 C 63.3372 -0.452427 -6.24263 0
M  V30 620 H 63.5702 -0.975598 -2.80837 0
M  V30 621 H 61.1032 -0.61736 -1.4152 0
M  V30 622 H 63.0612 1.26654 -3.90473 0
M  V30 623 H 61.7222 1.4994 -2.76001 0
M  V30 624 H 60.9152 0.6766 -4.99438 0
M  V30 625 H 60.5172 -0.48612 -3.70827 0
M  V30 626 H 62.8092 0.356557 -6.76561 0
M  V30 627 H 63.7522 -1.15153 -6.98674 0
M  V30 628 H 64.1602 -0.0414755 -5.64485 0
M  V30 629 N 63.5583 1.46682 -0.576371 0
M  V30 630 C 64.4903 2.28341 0.198231 0
M  V30 631 C 65.5033 1.38141 0.861453 0
M  V30 632 O 66.6923 1.62797 0.732082 0
M  V30 633 C 63.7923 3.12986 1.29972 0
M  V30 634 C 62.9653 4.31271 0.729639 0
M  V30 635 C 62.0243 4.97363 1.71803 0
M  V30 636 O 61.0503 5.55156 1.25658 0
M  V30 637 N 62.2523 4.93796 3.05198 0
M  V30 638 H 65.0173 2.9546 -0.502324 0
M  V30 639 H 62.5783 1.56525 -0.413715 0
M  V30 640 H 64.5703 3.54066 1.96008 0
M  V30 641 H 63.1403 2.47984 1.90323 0
M  V30 642 H 62.3603 3.94052 -0.108012 0
M  V30 643 H 63.6483 5.07739 0.328438 0
M  V30 644 H 63.0463 4.48077 3.45317 0
M  V30 645 H 61.6033 5.38837 3.6674 0
M  V30 646 N 65.0364 0.313813 1.54444 0
M  V30 647 C 66.4474 -0.176243 1.85866 0
M  V30 648 C 66.7984 -1.52405 1.23561 0
M  V30 649 O 65.9234 -2.09605 0.538016 0
M  V30 650 C 66.5184 -0.32657 3.37222 0
M  V30 651 C 65.0774 -0.760846 3.6863 0
M  V30 652 C 64.2244 0.123247 2.77026 0
M  V30 653 H 67.1754 0.534418 1.49431 0
M  V30 654 H 67.1964 -1.15908 3.62416 0
M  V30 655 H 66.7084 0.654531 3.82541 0
M  V30 656 H 64.8094 -1.75204 3.28838 0
M  V30 657 H 64.9224 -0.571353 4.75681 0
M  V30 658 H 63.2864 -0.399597 2.51546 0
M  V30 659 H 64.0694 1.10094 3.25168 0
M  V30 660 N 66.5145 -1.57545 0.0417849 0
M  V30 661 C 67.7605 -1.92601 -0.635021 0
M  V30 662 C 68.0935 -0.919627 -1.71045 0
M  V30 663 O 67.3685 0.0557892 -1.9442 0
M  V30 664 C 67.6515 -3.38085 -1.23979 0
M  V30 665 C 67.5045 -4.49467 -0.173057 0
M  V30 666 C 68.8235 -3.83776 -2.15416 0
M  V30 667 H 65.9425 -0.700397 -0.229374 0
M  V30 668 H 68.5845 -1.89728 0.101633 0
M  V30 669 H 66.7345 -3.40664 -1.86762 0
M  V30 670 H 68.4065 -4.59018 0.458312 0
M  V30 671 H 66.6495 -4.30909 0.499996 0
M  V30 672 H 67.3205 -5.48323 -0.636054 0
M  V30 673 H 69.7965 -3.83013 -1.62605 0
M  V30 674 H 68.6725 -4.8624 -2.54679 0
M  V30 675 H 68.9335 -3.19998 -3.05047 0
M  V30 676 N 67.9926 0.231505 -1.5589 0
M  V30 677 C 69.4086 0.580748 -1.48659 0
M  V30 678 C 69.6086 1.87617 -0.73498 0
M  V30 679 O 68.6646 2.51046 -0.270586 0
M  V30 680 C 69.9776 0.669202 -2.93159 0
M  V30 681 C 71.5256 0.760499 -3.03621 0
M  V30 682 C 72.0006 0.880383 -4.49459 0
M  V30 683 N 73.4916 0.944861 -4.53461 0
M  V30 684 C 74.2266 1.05716 -5.63571 0
M  V30 685 N 73.7226 1.13403 -6.83456 0
M  V30 686 N 75.5156 1.09152 -5.514 0
M  V30 687 H 67.6666 -0.618695 -2.03189 0
M  V30 688 H 69.9296 -0.215728 -0.923128 0
M  V30 689 H 69.6356 -0.212904 -3.51055 0
M  V30 690 H 69.5096 1.5361 -3.44505 0
M  V30 691 H 71.8966 1.63305 -2.45796 0
M  V30 692 H 71.9776 -0.131864 -2.5546 0
M  V30 693 H 71.6216 0.0123284 -5.07899 0
M  V30 694 H 71.5516 1.78802 -4.95316 0
M  V30 695 H 74.0426 0.896176 -3.6712 0
M  V30 696 H 74.3556 1.21921 -7.63122 0
M  V30 697 H 72.7006 1.10333 -6.86186 0
M  V30 698 H 75.8916 1.02805 -4.56671 0
M  V30 699 H 76.0646 1.17558 -6.37247 0
M  V30 700 N 69.4707 1.49531 0.497807 0
M  V30 701 C 70.6987 1.62893 1.27567 0
M  V30 702 C 71.1137 0.301585 1.86376 0
M  V30 703 O 70.4707 -0.713335 1.67982 0
M  V30 704 C 70.5217 2.70013 2.40364 0
M  V30 705 O 70.2427 3.976 1.83972 0
M  V30 706 C 71.7437 2.94109 3.31685 0
M  V30 707 H 68.9637 0.548298 0.386794 0
M  V30 708 H 71.5077 1.95584 0.597245 0
M  V30 709 H 69.6627 2.40092 3.04031 0
M  V30 710 H 70.0767 4.56631 2.58047 0
M  V30 711 H 71.5507 3.72788 4.07104 0
M  V30 712 H 72.0277 2.04147 3.88871 0
M  V30 713 H 72.6337 3.2546 2.73781 0
M  V30 714 N 70.9488 -0.749086 1.3866 0
M  V30 715 C 72.1948 -1.51056 1.35314 0
M  V30 716 C 72.5278 -1.94121 -0.0553751 0
M  V30 717 O 71.8028 -1.65763 -1.01749 0
M  V30 718 C 72.0858 -2.76003 2.31288 0
M  V30 719 C 71.9388 -2.39047 3.8102 0
M  V30 720 C 73.2578 -3.78046 2.2532 0
M  V30 721 H 70.3768 -0.547972 0.492844 0
M  V30 722 H 73.0188 -0.857628 1.69543 0
M  V30 723 H 71.1688 -3.31716 2.02229 0
M  V30 724 H 72.8408 -1.89074 4.20771 0
M  V30 725 H 71.0838 -1.71449 3.98482 0
M  V30 726 H 71.7548 -3.28462 4.4364 0
M  V30 727 H 74.2308 -3.31884 2.50983 0
M  V30 728 H 73.1068 -4.63159 2.94576 0
M  V30 729 H 73.3678 -4.23957 1.25352 0
M  V30 730 N 72.4269 -1.23603 -0.977757 0
M  V30 731 C 73.6729 -1.07129 -1.72195 0
M  V30 732 C 74.0059 0.390501 -1.90233 0
M  V30 733 O 73.2809 1.28902 -1.45653 0
M  V30 734 C 73.5639 -1.80031 -3.11867 0
M  V30 735 C 73.4169 -3.33899 -3.01383 0
M  V30 736 C 74.7359 -1.56492 -4.11337 0
M  V30 737 H 71.8549 -0.390571 -0.624999 0
M  V30 738 H 74.4969 -1.52142 -1.13811 0
M  V30 739 H 72.6469 -1.41768 -3.6171 0
M  V30 740 H 74.3189 -3.81699 -2.59043 0
M  V30 741 H 72.5619 -3.62796 -2.37827 0
M  V30 742 H 73.2329 -3.801 -4.00285 0
M  V30 743 H 75.7089 -1.89757 -3.70313 0
M  V30 744 H 74.5849 -2.09973 -5.07151 0
M  V30 745 H 74.8459 -0.500874 -4.39254 0
M  V30 746 N 73.905 1.17692 -1.04816 0
M  V30 747 C 75.316 1.69501 -0.782698 0
M  V30 748 C 75.667 1.83456 0.695577 0
M  V30 749 O 74.792 1.51942 1.54086 0
M  V30 750 C 75.387 3.07874 -1.41419 0
M  V30 751 C 73.946 3.56864 -1.19686 0
M  V30 752 C 73.093 2.3322 -1.50012 0
M  V30 753 H 76.044 1.02262 -1.2136 0
M  V30 754 H 76.065 3.71528 -0.821428 0
M  V30 755 H 75.577 2.97685 -2.49009 0
M  V30 756 H 73.678 3.72337 -0.140043 0
M  V30 757 H 73.791 4.39851 -1.89916 0
M  V30 758 H 72.155 2.37501 -0.920071 0
M  V30 759 H 72.938 2.25644 -2.58727 0
M  V30 760 N 75.3831 0.828654 1.34056 0
M  V30 761 C 76.6291 0.42008 1.98402 0
M  V30 762 C 76.9621 -1.01564 1.65525 0
M  V30 763 O 76.2371 -1.70834 0.929831 0
M  V30 764 C 76.5201 0.62927 3.54559 0
M  V30 765 C 76.3731 2.11152 3.97159 0
M  V30 766 C 77.6921 0.0688756 4.40046 0
M  V30 767 H 74.8111 0.154104 0.720709 0
M  V30 768 H 77.4531 1.04228 1.5886 0
M  V30 769 H 75.6031 0.0996418 3.88372 0
M  V30 770 H 77.2751 2.70522 3.73651 0
M  V30 771 H 75.5181 2.59985 3.47261 0
M  V30 772 H 76.1891 2.20868 5.05887 0
M  V30 773 H 78.6651 0.521458 4.1282 0
M  V30 774 H 77.5411 0.245006 5.48353 0
M  V30 775 H 77.8021 -1.0266 4.30015 0
M  V30 776 N 76.8612 -1.46375 0.584142 0
M  V30 777 C 78.0892 -2.06761 0.0759296 0
M  V30 778 C 78.5042 -1.43266 -1.22965 0
M  V30 779 O 77.8612 -0.538458 -1.74376 0
M  V30 780 C 77.9122 -3.61375 -0.0950384 0
M  V30 781 O 77.6332 -4.22495 1.15887 0
M  V30 782 C 79.1342 -4.38693 -0.637434 0
M  V30 783 H 76.3542 -0.668479 0.0581075 0
M  V30 784 H 78.8982 -1.8798 0.805218 0
M  V30 785 H 77.0532 -3.79578 -0.774554 0
M  V30 786 H 77.4672 -5.15385 0.973598 0
M  V30 787 H 78.9412 -5.47464 -0.706237 0
M  V30 788 H 79.4182 -4.06836 -1.65472 0
M  V30 789 H 80.0242 -4.25299 0.00725967 0
M  V30 790 N 78.3393 -0.321999 -1.54275 0
M  V30 791 C 79.2863 0.544664 -2.24281 0
M  V30 792 C 80.2563 1.1129 -1.23303 0
M  V30 793 O 81.4413 1.15354 -1.51981 0
M  V30 794 C 78.5813 1.70045 -3.00298 0
M  V30 795 C 77.6943 1.16159 -4.1609 0
M  V30 796 C 76.8293 2.28293 -4.79641 0
M  V30 797 C 75.8683 1.71648 -5.8754 0
M  V30 798 N 75.0053 2.77438 -6.44959 0
M  V30 799 H 79.8453 -0.0588907 -2.97942 0
M  V30 800 H 77.3823 -0.0408345 -1.47043 0
M  V30 801 H 79.3403 2.38054 -3.42616 0
M  V30 802 H 77.9703 2.27531 -2.28975 0
M  V30 803 H 77.0223 0.373092 -3.78566 0
M  V30 804 H 78.3343 0.707087 -4.93763 0
M  V30 805 H 77.4883 3.0421 -5.2492 0
M  V30 806 H 76.2273 2.77079 -4.01346 0
M  V30 807 H 75.2323 0.942282 -5.41665 0
M  V30 808 H 76.4573 1.23741 -6.67731 0
M  V30 809 H 74.4033 3.25519 -5.69538 0
M  V30 810 H 74.3203 2.36547 -7.1804 0
M  V30 811 H 75.5883 3.53189 -6.94894 0
M  V30 812 N 79.8174 1.5752 -0.0501392 0
M  V30 813 C 80.7674 2.07981 0.934231 0
M  V30 814 C 81.7514 0.984745 1.27246 0
M  V30 815 O 82.9434 1.24809 1.25506 0
M  V30 816 C 80.0724 2.62751 2.20945 0
M  V30 817 C 79.1584 3.79225 1.89865 0
M  V30 818 N 79.5494 4.89036 1.29142 0
M  V30 819 C 77.8474 3.88111 2.19741 0
M  V30 820 C 78.5484 5.70084 1.15669 0
M  V30 821 N 77.5244 5.17659 1.65923 0
M  V30 822 H 81.3264 2.90277 0.460053 0
M  V30 823 H 78.8404 1.61665 0.15434 0
M  V30 824 H 80.8374 2.97205 2.9236 0
M  V30 825 H 79.4974 1.81894 2.6897 0
M  V30 826 H 80.5084 5.08854 0.963756 0
M  V30 827 H 77.1854 3.18194 2.70293 0
M  V30 828 H 78.5754 6.68395 0.685356 0
M  V30 829 N 81.2955 -0.223234 1.56011 0
M  V30 830 C 82.7115 -0.572856 1.48965 0
M  V30 831 C 82.9115 -1.87225 0.74492 0
M  V30 832 O 81.9675 -2.50899 0.283896 0
M  V30 833 C 83.2805 -0.653646 2.9351 0
M  V30 834 C 84.8285 -0.744386 3.0402 0
M  V30 835 C 85.3035 -0.856535 4.49919 0
M  V30 836 N 86.7945 -0.9208 4.53955 0
M  V30 837 C 87.5295 -1.02726 5.64123 0
M  V30 838 N 87.0255 -1.09777 6.84047 0
M  V30 839 N 88.8185 -1.06226 5.51971 0
M  V30 840 H 80.9695 0.629462 2.02858 0
M  V30 841 H 83.2325 0.220621 0.921971 0
M  V30 842 H 82.9385 0.231518 3.50937 0
M  V30 843 H 82.8125 -1.51781 3.45315 0
M  V30 844 H 85.1995 -1.61999 2.46658 0
M  V30 845 H 85.2805 0.14541 2.55386 0
M  V30 846 H 84.9245 0.0146069 5.07898 0
M  V30 847 H 84.8545 -1.76172 4.96257 0
M  V30 848 H 87.3455 -0.876694 3.6759 0
M  V30 849 H 87.6585 -1.17872 7.63758 0
M  V30 850 H 86.0035 -1.06693 6.86762 0
M  V30 851 H 89.1945 -1.00382 4.5721 0
M  V30 852 H 89.3675 -1.14177 6.37862 0
M  V30 853 N 82.7736 -1.49793 -0.48987 0
M  V30 854 C 84.0216 -1.59525 -1.24081 0
M  V30 855 C 84.3426 -0.288953 -1.92847 0
M  V30 856 O 83.6126 0.692436 -1.83254 0
M  V30 857 H 82.1926 -0.587796 -0.460983 0
M  V30 858 H 84.8546 -1.86477 -0.566778 0
M  V30 859 H 83.9506 -2.39696 -1.99881 0
M  V30 860 N 84.2517 0.741722 -1.39055 0
M  V30 861 C 85.4817 1.52876 -1.3897 0
M  V30 862 C 85.8897 1.8919 0.0193266 0
M  V30 863 O 85.2327 1.54138 0.999356 0
M  V30 864 C 85.2947 2.84929 -2.19216 0
M  V30 865 C 84.9587 2.71086 -3.67915 0
M  V30 866 C 85.9557 2.40084 -4.61146 0
M  V30 867 C 83.6407 2.88168 -4.11418 0
M  V30 868 C 85.6347 2.26335 -5.95862 0
M  V30 869 C 83.3217 2.74037 -5.46211 0
M  V30 870 C 84.3197 2.43166 -6.38247 0
M  V30 871 O 84.0077 2.29115 -7.70559 0
M  V30 872 H 83.7397 0.479252 -0.476753 0
M  V30 873 H 86.2937 0.924751 -1.83405 0
M  V30 874 H 84.5237 3.47564 -1.69518 0
M  V30 875 H 86.2127 3.46509 -2.11392 0
M  V30 876 H 86.9787 2.26545 -4.28838 0
M  V30 877 H 82.8577 3.11191 -3.40119 0
M  V30 878 H 86.4017 2.0216 -6.67665 0
M  V30 879 H 82.2987 2.87153 -5.78112 0
M  V30 880 H 83.0667 2.44237 -7.81211 0
M  V30 881 N 85.7298 1.2412 0.971189 0
M  V30 882 C 86.6598 1.05508 2.08304 0
M  V30 883 C 87.6408 -0.0308864 1.70072 0
M  V30 884 O 88.8258 0.135521 1.93727 0
M  V30 885 C 85.9558 0.655365 3.4106 0
M  V30 886 C 84.9098 1.68971 3.93234 0
M  V30 887 C 84.2358 1.14516 5.22293 0
M  V30 888 C 85.5358 3.08487 4.21465 0
M  V30 889 H 87.2298 1.98507 2.24132 0
M  V30 890 H 84.7758 0.955821 1.07704 0
M  V30 891 H 86.7288 0.51217 4.18276 0
M  V30 892 H 85.4528 -0.31032 3.25122 0
M  V30 893 H 84.1118 1.82106 3.18171 0
M  V30 894 H 83.7598 0.170189 5.02712 0
M  V30 895 H 83.4598 1.83635 5.58168 0
M  V30 896 H 84.9838 1.01401 6.02121 0
M  V30 897 H 86.3978 2.98601 4.89398 0
M  V30 898 H 84.7948 3.74926 4.68562 0
M  V30 899 H 85.8648 3.56787 3.28376 0
M  V30 900 N 87.2079 -1.17134 1.05439 0
M  V30 901 C 88.4559 -1.87085 0.764429 0
M  V30 902 C 88.7769 -1.81584 -0.710787 0
M  V30 903 O 88.0469 -1.24349 -1.51374 0
M  V30 904 H 86.6269 -0.692627 0.279779 0
M  V30 905 H 89.2889 -1.42087 1.33406 0
M  V30 906 H 88.3849 -2.92759 1.0816 0
M  V30 907 N 88.686 -0.835752 -1.33615 0
M  V30 908 C 89.932 -0.430596 -1.98176 0
M  V30 909 C 90.265 1.00684 -1.66061 0
M  V30 910 O 89.54 1.70339 -0.938877 0
M  V30 911 C 89.823 -0.648065 -3.5422 0
M  V30 912 C 89.676 -2.13255 -3.96033 0
M  V30 913 C 90.995 -0.0922113 -4.40003 0
M  V30 914 H 88.114 -0.157924 -0.719881 0
M  V30 915 H 90.756 -1.05069 -1.58305 0
M  V30 916 H 88.906 -0.120237 -3.88314 0
M  V30 917 H 90.578 -2.725 -3.72211 0
M  V30 918 H 88.821 -2.61823 -3.45878 0
M  V30 919 H 89.492 -2.23547 -5.04708 0
M  V30 920 H 91.968 -0.543343 -4.12537 0
M  V30 921 H 90.844 -0.274083 -5.48215 0
M  V30 922 H 91.105 1.00378 -4.30554 0
M  V30 923 N 90.1641 1.46063 -0.591896 0
M  V30 924 C 91.0971 2.27452 0.184617 0
M  V30 925 C 92.0751 1.36188 0.888351 0
M  V30 926 O 93.2591 1.65606 0.90039 0
M  V30 927 C 90.3861 3.14162 1.26571 0
M  V30 928 C 89.4321 4.21255 0.666814 0
M  V30 929 S 90.2651 5.33034 -0.513345 0
M  V30 930 C 91.4211 6.23311 0.56872 0
M  V30 931 H 91.6541 2.92963 -0.505939 0
M  V30 932 H 89.1871 1.49676 -0.379014 0
M  V30 933 H 91.1451 3.6468 1.88463 0
M  V30 934 H 89.8061 2.47946 1.92826 0
M  V30 935 H 88.9991 4.81788 1.47974 0
M  V30 936 H 88.6011 3.73797 0.123359 0
M  V30 937 H 90.8931 6.61758 1.45198 0
M  V30 938 H 91.8361 7.081 -7.23824e-05 0
M  V30 939 H 92.2441 5.57646 0.876996 0
M  V30 940 N 91.6422 0.330177 1.54103 0
M  V30 941 C 93.0532 -0.15652 1.86043 0
M  V30 942 C 93.4042 -1.51086 1.2517 0
M  V30 943 O 92.5292 -2.09023 0.560217 0
M  V30 944 C 93.1242 -0.290784 3.3755 0
M  V30 945 C 91.6832 -0.721705 3.69416 0
M  V30 946 C 90.8302 0.152622 2.7688 0
M  V30 947 H 93.7812 0.550237 1.48856 0
M  V30 948 H 93.8022 -1.12058 3.63625 0
M  V30 949 H 93.3142 0.695068 3.81825 0
M  V30 950 H 91.4152 -1.71706 3.30678 0
M  V30 951 H 91.5282 -0.520869 4.7626 0
M  V30 952 H 89.8922 -0.372894 2.51956 0
M  V30 953 H 90.6752 1.13536 3.23982 0
M  V30 954 N 93.1203 -1.57491 0.0584922 0
M  V30 955 C 94.0833 -2.1085 -0.898617 0
M  V30 956 C 95.0833 -1.02964 -1.23511 0
M  V30 957 O 96.2733 -1.29007 -1.17059 0
M  V30 958 C 93.4053 -2.59881 -2.20623 0
M  V30 959 H 94.5983 -2.96715 -0.435936 0
M  V30 960 H 92.1513 -1.55141 -0.190023 0
M  V30 961 H 92.8863 -1.77431 -2.71457 0
M  V30 962 H 92.6713 -3.38727 -1.97501 0
M  V30 963 H 94.1613 -3.01285 -2.89166 0
M  V30 964 N 94.5984 0.214957 -1.56127 0
M  V30 965 C 95.8284 0.953707 -1.8327 0
M  V30 966 C 96.2364 1.78181 -0.636262 0
M  V30 967 O 95.5794 1.79191 0.404516 0
M  V30 968 C 95.6414 1.91516 -3.0424 0
M  V30 969 C 95.3054 1.27094 -4.38972 0
M  V30 970 C 96.3024 0.657575 -5.15725 0
M  V30 971 C 93.9874 1.28073 -4.85698 0
M  V30 972 C 95.9814 0.0625968 -6.37369 0
M  V30 973 C 93.6684 0.681914 -6.07283 0
M  V30 974 C 94.6664 0.0739046 -6.8296 0
M  V30 975 O 94.3544 -0.515582 -8.02245 0
M  V30 976 H 94.0864 0.284764 -0.613095 0
M  V30 977 H 96.6404 0.233283 -2.04071 0
M  V30 978 H 94.8704 2.67475 -2.79274 0
M  V30 979 H 96.5594 2.52001 -3.18198 0
M  V30 980 H 97.3254 0.642288 -4.80728 0
M  V30 981 H 93.2044 1.74337 -4.26764 0
M  V30 982 H 96.7484 -0.412593 -6.96379 0
M  V30 983 H 92.6454 0.694636 -6.41752 0
M  V30 984 H 93.4134 -0.410544 -8.1747 0
M  V30 985 N 96.0765 1.50051 0.48192 0
M  V30 986 C 97.3015 1.64508 1.26301 0
M  V30 987 C 97.7265 0.323851 1.85291 0
M  V30 988 O 97.0845 -0.710969 1.66778 0
M  V30 989 C 97.1325 2.7305 2.35533 0
M  V30 990 O 96.2365 2.3355 3.39895 0
M  V30 991 H 95.5775 0.549978 0.372048 0
M  V30 992 H 98.1075 1.9636 0.574786 0
M  V30 993 H 98.1175 2.95799 2.8101 0
M  V30 994 H 96.7925 3.68946 1.91967 0
M  V30 995 H 95.3695 2.21205 3.00204 0
M  V30 996 N 97.5546 -0.734337 1.39446 0
M  V30 997 C 98.5176 -1.83004 1.37994 0
M  V30 998 C 99.5176 -1.58397 0.276938 0
M  V30 999 O 100.708 -1.65785 0.534875 0
M  V30 1000 C 97.8396 -3.20802 1.1532 0
M  V30 1001 H 99.0326 -1.85694 2.35494 0
M  V30 1002 H 96.5856 -0.938059 1.25021 0
M  V30 1003 H 97.3206 -3.23772 0.185036 0
M  V30 1004 H 97.1056 -3.4006 1.95197 0
M  V30 1005 H 98.5956 -4.00862 1.17046 0
M  V30 1006 N 99.0327 -1.24633 -0.964593 0
M  V30 1007 C 99.9957 -1.0424 -2.04124 0
M  V30 1008 C 100.996 0.00137563 -1.608 0
M  V30 1009 O 102.186 -0.239883 -1.7254 0
M  V30 1010 C 99.3177 -0.580588 -3.3592 0
M  V30 1011 H 100.511 -1.99803 -2.23649 0
M  V30 1012 H 98.0637 -1.06899 -1.14027 0
M  V30 1013 H 98.7987 0.3781 -3.22088 0
M  V30 1014 H 98.5837 -1.33398 -3.6871 0
M  V30 1015 H 100.074 -0.459034 -4.15069 0
M  V30 1016 N 100.511 1.16574 -1.06058 0
M  V30 1017 C 101.421 2.2452 -0.680282 0
M  V30 1018 C 102.437 1.71348 0.302604 0
M  V30 1019 O 103.613 2.00822 0.152513 0
M  V30 1020 C 100.678 3.46629 -0.0700315 0
M  V30 1021 C 99.7388 4.14849 -1.10448 0
M  V30 1022 C 98.9718 5.31129 -0.523256 0
M  V30 1023 O 99.1948 5.66514 0.664709 0
M  V30 1024 O 98.1288 5.88526 -1.26179 0
M  V30 1025 H 101.955 2.59355 -1.58015 0
M  V30 1026 H 99.5398 1.24043 -0.832694 0
M  V30 1027 H 101.422 4.20543 0.268667 0
M  V30 1028 H 100.097 3.13573 0.803353 0
M  V30 1029 H 99.0038 3.42916 -1.49532 0
M  V30 1030 H 100.337 4.51954 -1.94931 0
M  V30 1031 N 101.989 0.842826 1.3317 0
M  V30 1032 C 103.266 0.362216 1.92217 0
M  V30 1033 C 103.646 -1.15289 1.76838 0
M  V30 1034 O 102.994 -1.96914 1.15919 0
M  V30 1035 C 103.204 0.813495 3.39387 0
M  V30 1036 C 104.552 0.823804 4.16532 0
M  V30 1037 O 105.576 0.757358 3.48055 0
M  V30 1038 O 104.435 0.915193 5.38782 0
M  V30 1039 H 101.529 0.103317 0.820521 0
M  V30 1040 H 104.075 0.928942 1.42017 0
M  V30 1041 H 102.847 1.85624 3.4447 0
M  V30 1042 H 102.47 0.223561 3.96971 0
M  V30 1043 N 103.467 -1.45747 0.599634 0
M  V30 1044 C 104.43 -2.28917 -0.113835 0
M  V30 1045 C 105.43 -1.3933 -0.802729 0
M  V30 1046 O 106.62 -1.61534 -0.652103 0
M  V30 1047 C 103.752 -3.20152 -1.17114 0
M  V30 1048 H 104.945 -2.93478 0.617289 0
M  V30 1049 H 102.498 -1.52137 0.358327 0
M  V30 1050 H 103.233 -2.60374 -1.93329 0
M  V30 1051 H 103.018 -3.86133 -0.681468 0
M  V30 1052 H 104.508 -3.82708 -1.67105 0
M  V30 1053 N 104.945 -0.338344 -1.53925 0
M  V30 1054 C 105.875 0.51328 -2.27789 0
M  V30 1055 C 106.856 1.107 -1.29149 0
M  V30 1056 O 108.041 1.12937 -1.57984 0
M  V30 1057 C 105.171 1.66697 -3.04679 0
M  V30 1058 C 104.125 1.20183 -4.1078 0
M  V30 1059 C 103.451 2.44363 -4.75595 0
M  V30 1060 C 104.751 0.30605 -5.21403 0
M  V30 1061 H 106.445 -0.102883 -2.99223 0
M  V30 1062 H 103.991 -0.0509219 -1.4391 0
M  V30 1063 H 105.944 2.26915 -3.55088 0
M  V30 1064 H 104.668 2.30995 -2.30887 0
M  V30 1065 H 103.327 0.622499 -3.61276 0
M  V30 1066 H 102.975 3.07057 -3.98403 0
M  V30 1067 H 102.675 2.13925 -5.47275 0
M  V30 1068 H 104.199 3.05317 -5.28786 0
M  V30 1069 H 105.613 0.814929 -5.67478 0
M  V30 1070 H 104.01 0.0937929 -6.00027 0
M  V30 1071 H 105.08 -0.65921 -4.80398 0
M  V30 1072 N 106.423 1.57458 -0.0668435 0
M  V30 1073 C 107.651 1.97624 0.612565 0
M  V30 1074 C 108.066 0.94502 1.63447 0
M  V30 1075 O 107.423 -0.0689276 1.8237 0
M  V30 1076 C 107.474 3.37869 1.28555 0
M  V30 1077 O 107.195 4.3704 0.304557 0
M  V30 1078 C 108.696 3.92882 2.05325 0
M  V30 1079 H 105.916 0.650045 0.166381 0
M  V30 1080 H 108.46 2.04035 -0.137782 0
M  V30 1081 H 106.615 3.3256 1.98702 0
M  V30 1082 H 107.029 5.18565 0.786779 0
M  V30 1083 H 108.503 4.93247 2.47812 0
M  V30 1084 H 108.98 3.29156 2.9078 0
M  V30 1085 H 109.586 4.01577 1.40056 0
M  V30 1086 N 107.901 -0.206675 1.56239 0
M  V30 1087 C 109.129 -0.945345 1.8404 0
M  V30 1088 C 109.544 -1.77336 0.647885 0
M  V30 1089 O 108.901 -1.78425 -0.383511 0
M  V30 1090 C 108.952 -1.8509 3.10522 0
M  V30 1091 O 108.673 -1.05634 4.25174 0
M  V30 1092 C 110.174 -2.70222 3.51418 0
M  V30 1093 H 107.394 -0.276372 0.61144 0
M  V30 1094 H 109.938 -0.217417 2.03341 0
M  V30 1095 H 108.093 -2.53259 2.93153 0
M  V30 1096 H 108.507 -1.67238 4.97124 0
M  V30 1097 H 109.981 -3.29438 4.42916 0
M  V30 1098 H 110.458 -3.43358 2.73864 0
M  V30 1099 H 111.064 -2.07443 3.71278 0
M  V30 1100 N 109.379 -1.50304 -0.473955 0
M  V30 1101 C 110.326 -1.68959 -1.57231 0
M  V30 1102 C 111.296 -0.530899 -1.57387 0
M  V30 1103 O 112.481 -0.761133 -1.74961 0
M  V30 1104 C 109.621 -1.7871 -2.95223 0
M  V30 1105 C 108.734 -3.06061 -3.04878 0
M  V30 1106 C 107.869 -3.06626 -4.33767 0
M  V30 1107 C 106.908 -4.28443 -4.37154 0
M  V30 1108 N 106.045 -4.26763 -5.5751 0
M  V30 1109 H 110.885 -2.6273 -1.40631 0
M  V30 1110 H 108.422 -1.30241 -0.683789 0
M  V30 1111 H 110.38 -1.82344 -3.75242 0
M  V30 1112 H 109.01 -0.883806 -3.10465 0
M  V30 1113 H 108.062 -3.11911 -2.17751 0
M  V30 1114 H 109.374 -3.96039 -3.0324 0
M  V30 1115 H 108.528 -3.08973 -5.22131 0
M  V30 1116 H 107.267 -2.14473 -4.3801 0
M  V30 1117 H 106.272 -4.2631 -3.47188 0
M  V30 1118 H 107.497 -5.2182 -4.34605 0
M  V30 1119 H 105.443 -3.37462 -5.62544 0
M  V30 1120 H 105.36 -5.10507 -5.57601 0
M  V30 1121 H 106.628 -4.33253 -6.48006 0
M  V30 1122 N 110.857 0.726932 -1.39834 0
M  V30 1123 C 111.787 1.85405 -1.41941 0
M  V30 1124 C 112.768 1.67751 -0.281728 0
M  V30 1125 O 113.953 1.8795 -0.488717 0
M  V30 1126 C 111.083 3.23243 -1.2701 0
M  V30 1127 C 110.037 3.55549 -2.38262 0
M  V30 1128 C 109.363 4.9241 -2.08415 0
M  V30 1129 C 110.663 3.577 -3.80589 0
M  V30 1130 H 112.357 1.83899 -2.36266 0
M  V30 1131 H 109.903 0.883349 -1.13723 0
M  V30 1132 H 111.856 4.01775 -1.27103 0
M  V30 1133 H 110.58 3.25296 -0.291564 0
M  V30 1134 H 109.239 2.79351 -2.37399 0
M  V30 1135 H 108.887 4.91052 -1.0898 0
M  V30 1136 H 108.587 5.14992 -2.82943 0
M  V30 1137 H 110.111 5.73289 -2.10171 0
M  V30 1138 H 111.525 4.26293 -3.83337 0
M  V30 1139 H 109.922 3.91804 -4.54543 0
M  V30 1140 H 110.992 2.57328 -4.10987 0
M  V30 1141 N 112.336 1.25143 0.95797 0
M  V30 1142 C 113.582 1.09855 1.70469 0
M  V30 1143 C 113.915 -0.360187 1.90831 0
M  V30 1144 O 113.19 -1.26568 1.47685 0
M  V30 1145 C 113.473 1.8497 3.08963 0
M  V30 1146 C 113.326 3.38652 2.96032 0
M  V30 1147 C 114.645 1.63016 4.08795 0
M  V30 1148 H 111.764 0.400465 0.618706 0
M  V30 1149 H 114.406 1.53933 1.11376 0
M  V30 1150 H 112.556 1.47505 3.59409 0
M  V30 1151 H 114.228 3.85772 2.52938 0
M  V30 1152 H 112.471 3.66534 2.32025 0
M  V30 1153 H 113.142 3.8642 3.94187 0
M  V30 1154 H 115.618 1.95625 3.67247 0
M  V30 1155 H 114.494 2.18015 5.03747 0
M  V30 1156 H 114.755 0.570692 4.38401 0
M  V30 1157 N 113.814 -1.1601 1.06675 0
M  V30 1158 C 115.042 -1.90527 0.806667 0
M  V30 1159 C 115.457 -1.77643 -0.639396 0
M  V30 1160 O 114.814 -1.12369 -1.43803 0
M  V30 1161 C 114.865 -3.41106 1.19705 0
M  V30 1162 O 114.586 -3.53608 2.58636 0
M  V30 1163 C 116.087 -4.32663 0.965266 0
M  V30 1164 H 113.307 -0.604053 0.292166 0
M  V30 1165 H 115.851 -1.47026 1.4214 0
M  V30 1166 H 114.006 -3.82296 0.626774 0
M  V30 1167 H 114.42 -4.47011 2.74375 0
M  V30 1168 H 115.894 -5.36763 1.288 0
M  V30 1169 H 116.371 -4.39089 -0.0987936 0
M  V30 1170 H 116.977 -3.97206 1.52011 0
M  V30 1171 N 115.292 -0.849877 -1.32721 0
M  V30 1172 C 116.539 -0.450923 -1.97416 0
M  V30 1173 C 116.867 0.992376 -1.67279 0
M  V30 1174 O 116.122 1.71048 -0.950845 0
M  V30 1175 C 116.421 -0.631272 -3.51781 0
M  V30 1176 C 116.087 -2.04432 -4.01894 0
M  V30 1177 C 114.749 -2.4308 -4.1529 0
M  V30 1178 C 117.101 -2.96679 -4.28522 0
M  V30 1179 C 114.429 -3.73257 -4.52654 0
M  V30 1180 C 116.781 -4.26349 -4.67343 0
M  V30 1181 C 115.445 -4.64939 -4.78945 0
M  V30 1182 H 114.715 -0.165004 -0.722395 0
M  V30 1183 H 117.362 -1.07901 -1.58207 0
M  V30 1184 H 115.667 0.0800767 -3.91718 0
M  V30 1185 H 117.364 -0.302709 -3.99856 0
M  V30 1186 H 113.954 -1.73419 -3.91949 0
M  V30 1187 H 118.138 -2.68054 -4.17685 0
M  V30 1188 H 113.394 -4.02946 -4.59831 0
M  V30 1189 H 117.568 -4.97895 -4.86902 0
M  V30 1190 H 115.195 -5.65855 -5.07654 0
M  V30 1191 N 116.77 1.45427 -0.607355 0
M  V30 1192 C 118 2.06314 -0.108656 0
M  V30 1193 C 118.408 1.45269 1.21217 0
M  V30 1194 O 117.751 0.561115 1.74921 0
M  V30 1195 C 117.813 3.59345 0.105618 0
M  V30 1196 C 117.477 4.42723 -1.13337 0
M  V30 1197 C 118.474 4.77715 -2.05145 0
M  V30 1198 C 116.159 4.83478 -1.36213 0
M  V30 1199 C 118.153 5.52317 -3.18158 0
M  V30 1200 C 115.84 5.57835 -2.49527 0
M  V30 1201 C 116.838 5.92171 -3.40327 0
M  V30 1202 O 116.526 6.65019 -4.51669 0
M  V30 1203 H 116.258 0.672782 -0.0658842 0
M  V30 1204 H 118.812 1.87664 -0.834945 0
M  V30 1205 H 117.042 3.76394 0.886796 0
M  V30 1206 H 118.731 4.02076 0.555886 0
M  V30 1207 H 119.497 4.46787 -1.88697 0
M  V30 1208 H 115.376 4.56188 -0.664362 0
M  V30 1209 H 118.92 5.79036 -3.89054 0
M  V30 1210 H 114.817 5.88177 -2.65928 0
M  V30 1211 H 115.585 6.83469 -4.50348 0
M  V30 1212 N 118.248 0.346503 1.53744 0
M  V30 1213 C 119.158 -0.517293 2.28826 0
M  V30 1214 C 120.174 -1.10935 1.3405 0
M  V30 1215 O 121.35 -1.1244 1.6709 0
M  V30 1216 C 118.415 -1.65098 3.04866 0
M  V30 1217 C 117.476 -1.0884 4.15274 0
M  V30 1218 C 116.709 -2.16806 4.87679 0
M  V30 1219 O 116.932 -3.3758 4.59778 0
M  V30 1220 O 115.866 -1.80934 5.74061 0
M  V30 1221 H 119.692 0.0931396 3.03557 0
M  V30 1222 H 117.277 0.111458 1.48984 0
M  V30 1223 H 119.159 -2.31053 3.5241 0
M  V30 1224 H 117.834 -2.24717 2.32989 0
M  V30 1225 H 116.741 -0.3933 3.72027 0
M  V30 1226 H 118.074 -0.537036 4.89261 0
M  V30 1227 N 119.726 -1.57421 0.075193 0
M  V30 1228 C 121.003 -1.85029 -0.634329 0
M  V30 1229 C 121.383 -0.968305 -1.87582 0
M  V30 1230 O 120.731 -0.0354749 -2.28472 0
M  V30 1231 C 120.941 -3.35286 -0.968742 0
M  V30 1232 C 122.289 -4.02875 -1.34077 0
M  V30 1233 O 123.313 -3.40051 -1.06037 0
M  V30 1234 O 122.172 -5.13691 -1.86506 0
M  V30 1235 H 119.266 -0.7645 -0.315387 0
M  V30 1236 H 121.812 -1.69366 0.106382 0
M  V30 1237 H 120.584 -3.91203 -0.0871376 0
M  V30 1238 H 120.207 -3.56223 -1.7661 0
M  V30 1239 N 121.204 0.198386 -1.56346 0
M  V30 1240 C 122.62 0.549085 -1.49857 0
M  V30 1241 C 122.82 1.86016 -0.774611 0
M  V30 1242 O 121.876 2.50416 -0.323776 0
M  V30 1243 C 123.189 0.606868 -2.94512 0
M  V30 1244 C 124.737 0.695925 -3.05165 0
M  V30 1245 C 125.212 0.784848 -4.51225 0
M  V30 1246 N 126.703 0.848463 -4.55363 0
M  V30 1247 C 127.438 0.937378 -5.65686 0
M  V30 1248 N 126.934 0.9888 -6.85707 0
M  V30 1249 N 128.727 0.974312 -5.53592 0
M  V30 1250 H 120.878 -0.661655 -2.01831 0
M  V30 1251 H 123.141 -0.235261 -0.918344 0
M  V30 1252 H 122.847 -0.28732 -3.50524 0
M  V30 1253 H 122.721 1.46268 -3.47686 0
M  V30 1254 H 125.108 1.58055 -2.49204 0
M  V30 1255 H 125.189 -0.186022 -2.55123 0
M  V30 1256 H 124.833 -0.0954072 -5.0781 0
M  V30 1257 H 124.763 1.68255 -4.98997 0
M  V30 1258 H 127.254 0.818103 -3.68938 0
M  V30 1259 H 127.567 1.05707 -7.65536 0
M  V30 1260 H 125.912 0.957534 -6.88372 0
M  V30 1261 H 129.103 0.930954 -4.58749 0
M  V30 1262 H 129.276 1.04015 -6.39597 0
M  V30 1263 N 122.682 1.50554 0.465978 0
M  V30 1264 C 123.93 1.61479 1.21528 0
M  V30 1265 C 124.251 0.319596 1.92363 0
M  V30 1266 O 123.521 -0.663194 1.84333 0
M  V30 1267 H 122.101 0.595055 0.451573 0
M  V30 1268 H 124.763 1.87355 0.53704 0
M  V30 1269 H 123.859 2.42846 1.96042 0
M  V30 1270 N 124.16 -0.719506 1.40217 0
M  V30 1271 C 125.409 -1.47486 1.37589 0
M  V30 1272 C 125.722 -1.9559 -0.0201568 0
M  V30 1273 O 126.928 -2.70973 -0.169049 0
M  V30 1274 C 125.384 -2.66575 2.41796 0
M  V30 1275 C 124.992 -2.25358 3.87192 0
M  V30 1276 C 126.736 -3.4433 2.48269 0
M  V30 1277 C 124.643 -3.41262 4.83005 0
M  V30 1278 H 123.573 -0.553901 0.511576 0
M  V30 1279 H 126.224 -0.783427 1.65936 0
M  V30 1280 H 124.606 -3.3787 2.06543 0
M  V30 1281 H 125.78 -1.61509 4.31569 0
M  V30 1282 H 124.095 -1.60657 3.84159 0
M  V30 1283 H 126.692 -4.30569 3.17041 0
M  V30 1284 H 127.035 -3.87872 1.51198 0
M  V30 1285 H 127.568 -2.80076 2.82493 0
M  V30 1286 H 124.307 -3.02755 5.81394 0
M  V30 1287 H 123.827 -4.0404 4.43297 0
M  V30 1288 H 125.506 -4.07383 5.02641 0
M  V30 1289 N 125.638 -1.25649 -0.95132 0
M  V30 1290 C 126.866 -1.13343 -1.73092 0
M  V30 1291 C 127.281 0.312434 -1.86197 0
M  V30 1292 O 126.638 1.21465 -1.36207 0
M  V30 1293 C 126.689 -1.78602 -3.14299 0
M  V30 1294 O 126.41 -3.17537 -3.01831 0
M  V30 1295 C 127.911 -1.72119 -4.08522 0
M  V30 1296 H 125.131 -0.395181 -0.542285 0
M  V30 1297 H 127.675 -1.66076 -1.19328 0
M  V30 1298 H 125.83 -1.29832 -3.64996 0
M  V30 1299 H 126.244 -3.49676 -3.90931 0
M  V30 1300 H 127.718 -2.22435 -5.052 0
M  V30 1301 H 128.195 -0.685635 -4.33815 0
M  V30 1302 H 128.801 -2.20393 -3.63741 0
M  V30 1303 N 127.117 1.15442 -1.07289 0
M  V30 1304 C 128.342 1.90638 -0.816828 0
M  V30 1305 C 128.767 1.77445 0.624083 0
M  V30 1306 O 128.125 1.10671 1.43602 0
M  V30 1307 C 128.173 3.39008 -1.22906 0
M  V30 1308 O 127.277 4.10701 -0.373975 0
M  V30 1309 H 126.618 0.593555 -0.297638 0
M  V30 1310 H 129.148 1.46198 -1.43134 0
M  V30 1311 H 129.158 3.89801 -1.20497 0
M  V30 1312 H 127.833 3.47929 -2.27856 0
M  V30 1313 H 126.41 3.70046 -0.460499 0
M  V30 1314 N 128.595 0.856903 1.32268 0
M  V30 1315 C 129.841 0.462069 1.97466 0
M  V30 1316 C 130.174 -0.980298 1.67642 0
M  V30 1317 O 129.449 -1.68824 0.965858 0
M  V30 1318 C 129.732 0.704336 3.53145 0
M  V30 1319 C 129.585 2.19529 3.9259 0
M  V30 1320 C 130.904 0.1622 4.39801 0
M  V30 1321 H 128.023 0.169357 0.717278 0
M  V30 1322 H 130.665 1.07574 1.56614 0
M  V30 1323 H 128.815 0.181999 3.88073 0
M  V30 1324 H 130.487 2.78387 3.67829 0
M  V30 1325 H 128.73 2.67292 3.41668 0
M  V30 1326 H 129.401 2.31549 5.01088 0
M  V30 1327 H 131.877 0.608905 4.11621 0
M  V30 1328 H 130.753 0.361265 5.4771 0
M  V30 1329 H 131.014 -0.935158 4.32096 0
M  V30 1330 N 130.073 -1.45103 0.615059 0
M  V30 1331 C 131.319 -2.02483 0.113347 0
M  V30 1332 C 131.652 -1.48146 -1.25564 0
M  V30 1333 O 130.927 -0.659104 -1.82992 0
M  V30 1334 C 131.21 -3.60005 0.0825278 0
M  V30 1335 C 131.063 -4.2466 1.48271 0
M  V30 1336 C 132.382 -4.35972 -0.601401 0
M  V30 1337 H 129.501 -0.735764 0.0426632 0
M  V30 1338 H 132.143 -1.72868 0.788461 0
M  V30 1339 H 130.293 -3.85367 -0.492378 0
M  V30 1340 H 131.965 -4.10458 2.10527 0
M  V30 1341 H 130.208 -3.82772 2.04127 0
M  V30 1342 H 130.879 -5.336 1.41332 0
M  V30 1343 H 133.355 -4.15947 -0.112666 0
M  V30 1344 H 132.231 -5.45697 -0.592097 0
M  V30 1345 H 132.492 -4.09391 -1.66887 0
M  V30 1346 N 131.551 -0.354651 -1.53558 0
M  V30 1347 C 132.962 0.126902 -1.86268 0
M  V30 1348 C 133.313 1.49075 -1.27558 0
M  V30 1349 O 132.438 2.08105 -0.5934 0
M  V30 1350 C 133.033 0.237046 -3.3797 0
M  V30 1351 C 131.592 0.662842 -3.70518 0
M  V30 1352 C 130.739 -0.196652 -2.76602 0
M  V30 1353 H 133.69 -0.573849 -1.47962 0
M  V30 1354 H 133.711 1.06259 -3.65362 0
M  V30 1355 H 133.223 -0.755725 -3.80671 0
M  V30 1356 H 131.324 1.66424 -3.33367 0
M  V30 1357 H 131.437 0.445034 -4.77029 0
M  V30 1358 H 129.801 0.332763 -2.52517 0
M  V30 1359 H 130.584 -1.18676 -3.22135 0
M  V30 1360 N 133.029 1.57378 -0.0835403 0
M  V30 1361 C 134.254 1.98682 0.594987 0
M  V30 1362 C 134.679 0.961969 1.61641 0
M  V30 1363 O 134.037 -0.0709989 1.81161 0
M  V30 1364 C 134.085 3.38988 1.2296 0
M  V30 1365 O 133.189 3.39208 2.34546 0
M  V30 1366 H 132.53 0.646368 0.152002 0
M  V30 1367 H 135.06 2.03961 -0.161533 0
M  V30 1368 H 135.07 3.76431 1.57366 0
M  V30 1369 H 133.745 4.13107 0.481228 0
M  V30 1370 H 132.322 3.13548 2.01846 0
M  V30 1371 N 134.507 -0.190092 1.56449 0
M  V30 1372 C 135.457 -1.23977 1.91347 0
M  V30 1373 C 136.441 -1.40747 0.779693 0
M  V30 1374 O 137.633 -1.43033 1.04262 0
M  V30 1375 C 134.762 -2.58347 2.26079 0
M  V30 1376 C 133.848 -2.4535 3.45925 0
M  V30 1377 N 134.239 -2.02039 4.63696 0
M  V30 1378 C 132.537 -2.76229 3.50162 0
M  V30 1379 C 133.238 -2.01053 5.4585 0
M  V30 1380 N 132.214 -2.42747 4.8639 0
M  V30 1381 H 136.016 -0.896318 2.79899 0
M  V30 1382 H 133.53 -0.398496 1.57435 0
M  V30 1383 H 135.527 -3.34173 2.49267 0
M  V30 1384 H 134.187 -2.93512 1.38856 0
M  V30 1385 H 135.198 -1.7267 4.88268 0
M  V30 1386 H 131.875 -3.15556 2.73369 0
M  V30 1387 H 133.265 -1.69426 6.50188 0
M  V30 1388 N 135.985 -1.50799 -0.457987 0
M  V30 1389 C 136.917 -1.66786 -1.57211 0
M  V30 1390 C 137.93 -0.548962 -1.53265 0
M  V30 1391 O 139.119 -0.8226 -1.58416 0
M  V30 1392 C 136.219 -1.64834 -2.96113 0
M  V30 1393 C 135.392 -2.92971 -3.24787 0
M  V30 1394 C 134.451 -2.83485 -4.43309 0
M  V30 1395 O 133.477 -3.5744 -4.42973 0
M  V30 1396 N 134.679 -1.97929 -5.45714 0
M  V30 1397 H 137.444 -2.62889 -1.43909 0
M  V30 1398 H 135.005 -1.48427 -0.646617 0
M  V30 1399 H 136.997 -1.56084 -3.7339 0
M  V30 1400 H 135.567 -0.764118 -3.03117 0
M  V30 1401 H 134.787 -3.15749 -2.36 0
M  V30 1402 H 136.075 -3.77834 -3.40762 0
M  V30 1403 H 135.473 -1.37182 -5.48815 0
M  V30 1404 H 134.03 -1.95073 -6.21924 0
M  V30 1405 N 137.463 0.71206 -1.40597 0
M  V30 1406 C 138.426 1.80785 -1.40888 0
M  V30 1407 C 139.426 1.57937 -0.302103 0
M  V30 1408 O 140.616 1.64913 -0.561182 0
M  V30 1409 C 137.748 3.18927 -1.20409 0
M  V30 1410 H 138.941 1.81924 -2.38419 0
M  V30 1411 H 136.494 0.91805 -1.26497 0
M  V30 1412 H 137.229 3.23436 -0.236522 0
M  V30 1413 H 137.014 3.36911 -2.00582 0
M  V30 1414 H 138.504 3.98949 -1.23408 0
M  V30 1415 N 138.941 1.26152 0.944643 0
M  V30 1416 C 140.169 1.14259 1.72489 0
M  V30 1417 C 140.584 -0.302555 1.8636 0
M  V30 1418 O 139.941 -1.20741 1.36849 0
M  V30 1419 C 139.992 1.80266 3.13347 0
M  V30 1420 O 139.713 3.19133 3.00143 0
M  V30 1421 C 141.214 1.74283 4.07603 0
M  V30 1422 H 138.434 0.398051 0.540181 0
M  V30 1423 H 140.978 1.66706 1.18446 0
M  V30 1424 H 139.133 1.31766 3.64303 0
M  V30 1425 H 139.547 3.51744 3.89071 0
M  V30 1426 H 141.021 2.25111 5.04013 0
M  V30 1427 H 141.498 0.708631 4.33446 0
M  V30 1428 H 142.104 2.22319 3.62567 0
M  V30 1429 N 140.419 -1.14872 1.07899 0
M  V30 1430 C 141.665 -1.86064 0.806725 0
M  V30 1431 C 141.998 -1.82434 -0.665706 0
M  V30 1432 O 141.273 -1.25138 -1.48899 0
M  V30 1433 C 141.556 -3.34929 1.32267 0
M  V30 1434 C 141.409 -3.47161 2.86006 0
M  V30 1435 C 142.728 -4.29863 0.943717 0
M  V30 1436 H 139.847 -0.675591 0.294526 0
M  V30 1437 H 142.489 -1.34925 1.33773 0
M  V30 1438 H 140.639 -3.78611 0.870974 0
M  V30 1439 H 142.311 -3.12302 3.39507 0
M  V30 1440 H 140.554 -2.88539 3.23925 0
M  V30 1441 H 141.225 -4.51777 3.17177 0
M  V30 1442 H 143.701 -3.9417 1.33302 0
M  V30 1443 H 142.577 -5.32494 1.33198 0
M  V30 1444 H 142.838 -4.41846 -0.149796 0
M  V30 1445 N 141.898 -0.863906 -1.31812 0
M  V30 1446 C 142.828 -0.330843 -2.31144 0
M  V30 1447 C 143.809 0.575005 -1.60087 0
M  V30 1448 O 144.994 0.493304 -1.8783 0
M  V30 1449 C 142.124 0.47374 -3.44054 0
M  V30 1450 C 141.078 -0.338481 -4.26659 0
M  V30 1451 C 140.404 0.591412 -5.31419 0
M  V30 1452 C 141.704 -1.56926 -4.98168 0
M  V30 1453 H 143.398 -1.16086 -2.75979 0
M  V30 1454 H 140.944 -0.559657 -1.32679 0
M  V30 1455 H 142.897 0.857143 -4.12591 0
M  V30 1456 H 141.621 1.33721 -2.9797 0
M  V30 1457 H 140.28 -0.703754 -3.59782 0
M  V30 1458 H 139.928 1.45199 -4.81587 0
M  V30 1459 H 139.628 0.0519022 -5.87577 0
M  V30 1460 H 141.152 0.97179 -6.02817 0
M  V30 1461 H 142.566 -1.25764 -5.59336 0
M  V30 1462 H 140.963 -2.04739 -5.64094 0
M  V30 1463 H 142.033 -2.32544 -4.25501 0
M  V30 1464 N 143.376 1.44774 -0.622745 0
M  V30 1465 C 144.306 2.33382 0.0741861 0
M  V30 1466 C 145.287 1.47719 0.843387 0
M  V30 1467 O 146.472 1.76458 0.810934 0
M  V30 1468 C 143.602 3.30663 1.06204 0
M  V30 1469 C 142.556 4.26079 0.405037 0
M  V30 1470 C 141.882 5.13165 1.5022 0
M  V30 1471 C 143.182 5.1781 -0.683414 0
M  V30 1472 H 144.876 2.91905 -0.665713 0
M  V30 1473 H 142.422 1.40363 -0.321587 0
M  V30 1474 H 144.375 3.9153 1.55827 0
M  V30 1475 H 143.099 2.70331 1.83272 0
M  V30 1476 H 141.758 3.66532 -0.0704683 0
M  V30 1477 H 141.406 4.49191 2.26355 0
M  V30 1478 H 141.106 5.77812 1.06803 0
M  V30 1479 H 142.63 5.76902 2.00041 0
M  V30 1480 H 144.044 5.72661 -0.270631 0
M  V30 1481 H 142.441 5.91015 -1.04023 0
M  V30 1482 H 143.511 4.59326 -1.55395 0
M  V30 1483 N 144.854 0.36279 1.53368 0
M  V30 1484 C 146.101 -0.227776 2.01215 0
M  V30 1485 C 146.429 -1.49003 1.25014 0
M  V30 1486 O 145.684 -1.92876 0.331236 0
M  V30 1487 C 145.983 -0.568417 3.52851 0
M  V30 1488 C 145.649 0.59918 4.46901 0
M  V30 1489 C 144.311 0.919559 4.72332 0
M  V30 1490 C 146.663 1.38156 5.02556 0
M  V30 1491 C 143.991 2.02434 5.5067 0
M  V30 1492 C 146.343 2.47674 5.821 0
M  V30 1493 C 145.007 2.8025 6.05819 0
M  V30 1494 H 144.277 -0.083349 0.736297 0
M  V30 1495 H 146.924 0.494677 1.85001 0
M  V30 1496 H 145.229 -1.37185 3.66998 0
M  V30 1497 H 146.926 -1.03756 3.87344 0
M  V30 1498 H 143.516 0.339437 4.27254 0
M  V30 1499 H 147.7 1.14729 4.82857 0
M  V30 1500 H 142.956 2.28075 5.67267 0
M  V30 1501 H 147.13 3.08716 6.24234 0
M  V30 1502 H 144.757 3.65979 6.66306 0
M  V30 1503 N 146.332 -1.57332 0.0918853 0
M  V30 1504 C 147.242 -2.17368 -0.882505 0
M  V30 1505 C 148.258 -1.14226 -1.31257 0
M  V30 1506 O 149.434 -1.46582 -1.38115 0
M  V30 1507 C 146.499 -2.73962 -2.12476 0
M  V30 1508 C 145.56 -3.92048 -1.7492 0
M  V30 1509 C 144.793 -4.45933 -2.93223 0
M  V30 1510 O 145.016 -3.98764 -4.07852 0
M  V30 1511 O 143.95 -5.36999 -2.71875 0
M  V30 1512 H 147.776 -3.01031 -0.40172 0
M  V30 1513 H 145.361 -1.48813 -0.132291 0
M  V30 1514 H 147.243 -3.10147 -2.85283 0
M  V30 1515 H 145.918 -1.93347 -2.59613 0
M  V30 1516 H 144.825 -3.6068 -0.993025 0
M  V30 1517 H 146.158 -4.74017 -1.32548 0
M  V30 1518 N 147.81 0.181792 -1.56548 0
M  V30 1519 C 149.221 0.745244 -1.71181 0
M  V30 1520 C 149.572 1.83262 -0.70068 0
M  V30 1521 O 148.697 2.15946 0.140154 0
M  V30 1522 C 149.292 1.35859 -3.10367 0
M  V30 1523 C 147.851 1.86898 -3.2672 0
M  V30 1524 C 146.998 0.743942 -2.67134 0
M  V30 1525 H 149.949 -0.0434661 -1.5864 0
M  V30 1526 H 149.97 2.22817 -3.08436 0
M  V30 1527 H 149.482 0.566948 -3.83937 0
M  V30 1528 H 147.583 2.68738 -2.5809 0
M  V30 1529 H 147.696 2.02162 -4.34359 0
M  V30 1530 H 146.06 1.16169 -2.26665 0
M  V30 1531 H 146.843 -0.035676 -3.43281 0
M  V30 1532 N 149.288 1.51039 0.449983 0
M  V30 1533 C 150.513 1.6715 1.22783 0
M  V30 1534 C 150.938 0.363081 1.84563 0
M  V30 1535 O 150.296 -0.675433 1.68249 0
M  V30 1536 C 150.344 2.77985 2.29689 0
M  V30 1537 O 149.448 2.40707 3.34864 0
M  V30 1538 H 148.789 0.557746 0.360299 0
M  V30 1539 H 151.319 1.97535 0.533005 0
M  V30 1540 H 151.329 3.01693 2.74673 0
M  V30 1541 H 150.004 3.72935 1.84098 0
M  V30 1542 H 148.581 2.27523 2.95445 0
M  V30 1543 N 150.766 -0.704594 1.40972 0
M  V30 1544 C 151.714 -1.83994 1.42299 0
M  V30 1545 C 152.708 -1.66684 0.302111 0
M  V30 1546 O 153.914 -1.73655 0.473697 0
M  V30 1547 H 150.289 -0.606171 0.44504 0
M  V30 1548 H 152.26 -1.79992 2.38003 0
M  V30 1549 C 151.009 -3.21946 1.31323 0
M  V30 1550 H 150.332 -3.35878 2.16855 0
M  V30 1551 H 151.772 -4.01491 1.36311 0
M  V30 1552 C 150.231 -3.36891 0.0245977 0
M  V30 1553 O 150.761 -3.90687 -0.934153 0
M  V30 1554 N 148.967 -2.90559 -0.0485243 0
M  V30 1555 H 148.514 -2.46968 0.732419 0
M  V30 1556 H 148.472 -3.00937 -0.910171 0
M  V30 1557 N 152.244 -1.26651 -0.937939 0
M  V30 1558 C 153.492 -1.12165 -1.68118 0
M  V30 1559 C 153.813 0.334983 -1.92101 0
M  V30 1560 O 153.083 1.23583 -1.52 0
M  V30 1561 H 151.663 -0.412093 -0.623048 0
M  V30 1562 H 154.325 -1.59027 -1.12678 0
M  V30 1563 H 153.421 -1.64289 -2.6536 0
M  V30 1564 N 153.722 1.14298 -1.08507 0
M  V30 1565 C 154.95 1.89219 -0.836876 0
M  V30 1566 C 155.365 1.78638 0.611054 0
M  V30 1567 O 154.722 1.14643 1.41998 0
M  V30 1568 C 154.773 3.39158 -1.25116 0
M  V30 1569 O 154.494 3.49449 -2.64229 0
M  V30 1570 C 155.995 4.31073 -1.03398 0
M  V30 1571 H 153.215 0.599328 -0.301739 0
M  V30 1572 H 155.759 1.44746 -1.44461 0
M  V30 1573 H 153.914 3.81251 -0.687514 0
M  V30 1574 H 154.328 4.42589 -2.81452 0
M  V30 1575 H 155.802 5.34646 -1.37323 0
M  V30 1576 H 156.279 4.3919 0.0289259 0
M  V30 1577 H 156.885 3.94738 -1.58311 0
M  V30 1578 N 155.201 0.870884 1.31352 0
M  V30 1579 C 156.131 0.343096 2.30966 0
M  V30 1580 C 157.112 -0.566507 1.60389 0
M  V30 1581 O 158.297 -0.483336 1.88089 0
M  V30 1582 C 155.427 -0.455487 3.443 0
M  V30 1583 C 154.381 0.361103 4.26474 0
M  V30 1584 C 153.707 -0.563221 5.31725 0
M  V30 1585 C 155.007 1.59566 4.97329 0
M  V30 1586 H 156.701 1.17548 2.75359 0
M  V30 1587 H 154.247 0.566686 1.32381 0
M  V30 1588 H 156.2 -0.83525 4.13039 0
M  V30 1589 H 154.924 -1.32139 2.98675 0
M  V30 1590 H 153.583 0.722825 3.59403 0
M  V30 1591 H 153.231 -1.42643 4.82351 0
M  V30 1592 H 152.931 -0.0207409 5.87596 0
M  V30 1593 H 154.455 -0.939808 6.03324 0
M  V30 1594 H 155.869 1.28728 5.58661 0
M  V30 1595 H 154.266 2.07728 5.63 0
M  V30 1596 H 155.336 2.34798 4.24262 0
M  V30 1597 N 156.679 -1.44442 0.630414 0
M  V30 1598 C 157.609 -2.33418 -0.0618083 0
M  V30 1599 C 158.59 -1.48165 -0.835541 0
M  V30 1600 O 159.775 -1.76886 -0.801564 0
M  V30 1601 C 156.905 -3.31222 -1.04449 0
M  V30 1602 C 155.859 -4.26288 -0.382436 0
M  V30 1603 C 155.185 -5.13954 -1.47497 0
M  V30 1604 C 156.485 -5.1744 0.710865 0
M  V30 1605 H 158.179 -2.91548 0.681184 0
M  V30 1606 H 155.725 -1.40191 0.329026 0
M  V30 1607 H 157.678 -3.92351 -1.53748 0
M  V30 1608 H 156.402 -2.71299 -1.81836 0
M  V30 1609 H 155.061 -3.6649 0.0899054 0
M  V30 1610 H 154.709 -4.50385 -2.2397 0
M  V30 1611 H 154.409 -5.7837 -1.03737 0
M  V30 1612 H 155.933 -5.77955 -1.96979 0
M  V30 1613 H 157.347 -5.72509 0.300996 0
M  V30 1614 H 155.744 -5.90455 1.07156 0
M  V30 1615 H 156.814 -4.58496 1.57829 0
M  V30 1616 N 158.157 -0.370918 -1.53173 0
M  V30 1617 C 159.12 0.460778 -2.24521 0
M  V30 1618 C 160.12 1.00536 -1.25496 0
M  V30 1619 O 161.31 0.890266 -1.49733 0
M  V30 1620 C 158.442 1.64457 -2.98608 0
M  V30 1621 H 159.635 -0.163613 -2.99453 0
M  V30 1622 H 157.188 -0.122699 -1.55818 0
M  V30 1623 H 157.923 2.30691 -2.2793 0
M  V30 1624 H 157.708 1.26099 -3.7127 0
M  V30 1625 H 159.198 2.23384 -3.5283 0
M  V30 1626 N 159.635 1.57281 -0.100228 0
M  V30 1627 C 160.881 1.94826 0.563101 0
M  V30 1628 C 161.214 0.982475 1.67514 0
M  V30 1629 O 160.489 0.0164069 1.94493 0
M  V30 1630 C 160.772 3.42453 1.11346 0
M  V30 1631 C 160.625 4.498 0.00612081 0
M  V30 1632 C 161.944 3.91506 2.01024 0
M  V30 1633 H 159.063 0.708428 0.203221 0
M  V30 1634 H 161.705 1.8922 -0.171979 0
M  V30 1635 H 159.855 3.47361 1.7399 0
M  V30 1636 H 161.527 4.57 -0.628357 0
M  V30 1637 H 159.77 4.28756 -0.659581 0
M  V30 1638 H 160.441 5.50306 0.432109 0
M  V30 1639 H 162.917 3.88784 1.48278 0
M  V30 1640 H 161.793 4.95358 2.36457 0
M  V30 1641 H 162.054 3.31099 2.92961 0
M  V30 1642 N 161.113 -0.173488 1.56642 0
M  V30 1643 C 162.046 -1.24353 1.91342 0
M  V30 1644 C 163.024 -1.4289 0.775965 0
M  V30 1645 O 164.208 -1.57932 1.02907 0
M  V30 1646 C 161.335 -2.60683 2.16245 0
M  V30 1647 C 160.381 -2.58894 3.38934 0
M  V30 1648 S 161.214 -2.0819 4.93373 0
M  V30 1649 C 162.37 -3.46302 5.21369 0
M  V30 1650 H 162.603 -0.947345 2.81803 0
M  V30 1651 H 160.136 -0.377958 1.49703 0
M  V30 1652 H 162.094 -3.39149 2.31275 0
M  V30 1653 H 160.755 -2.87502 1.26496 0
M  V30 1654 H 159.948 -3.59188 3.53553 0
M  V30 1655 H 159.55 -1.88522 3.2301 0
M  V30 1656 H 161.842 -4.42287 5.13214 0
M  V30 1657 H 162.785 -3.3656 6.23003 0
M  V30 1658 H 163.193 -3.42214 4.48943 0
M  V30 1659 N 162.591 -1.51276 -0.441967 0
M  V30 1660 C 163.868 -1.54252 -1.20273 0
M  V30 1661 C 164.248 -0.30408 -2.08898 0
M  V30 1662 O 163.596 0.711084 -2.17154 0
M  V30 1663 C 163.806 -2.85406 -2.00859 0
M  V30 1664 C 165.154 -3.37181 -2.58059 0
M  V30 1665 O 166.178 -2.86925 -2.11074 0
M  V30 1666 O 165.037 -4.24858 -3.43741 0
M  V30 1667 H 162.131 -0.619969 -0.547328 0
M  V30 1668 H 164.677 -1.63586 -0.451413 0
M  V30 1669 H 163.449 -3.67003 -1.35736 0
M  V30 1670 H 163.072 -2.79213 -2.83065 0
M  V30 1671 N 164.069 0.697108 -1.41344 0
M  V30 1672 C 165.317 1.45426 -1.40341 0
M  V30 1673 C 165.638 1.94996 -0.0128787 0
M  V30 1674 O 164.908 1.71599 0.945027 0
M  V30 1675 H 163.488 0.539594 -0.516573 0
M  V30 1676 H 166.15 0.825201 -1.76569 0
M  V30 1677 H 165.246 2.31817 -2.08967 0
M  V30 1678 N 165.547 1.27147 0.931209 0
M  V30 1679 C 166.495 1.09398 2.05268 0
M  V30 1680 C 167.489 0.0180591 1.6939 0
M  V30 1681 O 168.695 0.17551 1.79142 0
M  V30 1682 H 165.07 0.336986 0.672268 0
M  V30 1683 H 167.041 2.04416 2.17386 0
M  V30 1684 C 165.79 0.75424 3.39421 0
M  V30 1685 H 165.113 1.57404 3.67511 0
M  V30 1686 H 166.553 0.669903 4.18674 0
M  V30 1687 C 165.012 -0.541197 3.32525 0
M  V30 1688 O 165.542 -1.57664 3.69466 0
M  V30 1689 N 163.748 -0.535517 2.85623 0
M  V30 1690 H 163.295 0.307511 2.55758 0
M  V30 1691 H 163.253 -1.40236 2.81392 0
M  V30 1692 N 167.025 -1.13721 1.09112 0
M  V30 1693 C 168.271 -1.85198 0.826414 0
M  V30 1694 C 168.604 -1.83129 -0.646319 0
M  V30 1695 O 167.879 -1.2671 -1.47563 0
M  V30 1696 C 168.162 -3.33507 1.35812 0
M  V30 1697 C 168.015 -3.44108 2.89672 0
M  V30 1698 C 169.334 -4.28838 0.989256 0
M  V30 1699 H 166.453 -0.67243 0.301675 0
M  V30 1700 H 169.095 -1.33499 1.35197 0
M  V30 1701 H 167.245 -3.77666 0.911082 0
M  V30 1702 H 168.917 -3.08684 3.428 0
M  V30 1703 H 167.16 -2.85087 3.26967 0
M  V30 1704 H 167.831 -4.48388 3.21951 0
M  V30 1705 H 170.307 -3.92734 1.37475 0
M  V30 1706 H 169.183 -5.31051 1.38838 0
M  V30 1707 H 169.444 -4.4198 -0.102924 0
M  V30 1708 N 168.503 -0.877838 -1.30888 0
M  V30 1709 C 169.752 -0.488793 -1.95688 0
M  V30 1710 C 170.065 0.965485 -1.70111 0
M  V30 1711 O 171.271 1.46104 -2.28836 0
M  V30 1712 C 169.727 -0.823201 -3.50359 0
M  V30 1713 C 169.335 -2.29477 -3.84765 0
M  V30 1714 C 171.079 -0.503009 -4.21509 0
M  V30 1715 C 168.986 -2.57118 -5.32583 0
M  V30 1716 H 167.916 -0.179062 -0.732429 0
M  V30 1717 H 170.567 -1.07183 -1.48943 0
M  V30 1718 H 168.949 -0.169331 -3.95638 0
M  V30 1719 H 170.123 -2.99236 -3.5042 0
M  V30 1720 H 168.438 -2.58178 -3.267 0
M  V30 1721 H 171.035 -0.68665 -5.30273 0
M  V30 1722 H 171.378 0.557109 -4.12555 0
M  V30 1723 H 171.911 -1.11376 -3.8189 0
M  V30 1724 H 168.65 -3.61843 -5.4658 0
M  V30 1725 H 168.17 -1.91961 -5.68253 0
M  V30 1726 H 169.849 -2.42251 -5.99936 0
M  V30 1727 N 169.982 1.44106 -0.638065 0
M  V30 1728 C 171.21 2.06336 -0.152615 0
M  V30 1729 C 171.625 1.47731 1.17563 0
M  V30 1730 O 170.982 0.602806 1.72257 0
M  V30 1731 C 171.033 3.61479 -0.0391491 0
M  V30 1732 O 170.754 4.17903 -1.31487 0
M  V30 1733 C 172.255 4.40757 0.474176 0
M  V30 1734 H 169.475 0.665862 -0.0828776 0
M  V30 1735 H 172.019 1.84862 -0.87443 0
M  V30 1736 H 170.174 3.82191 0.633142 0
M  V30 1737 H 170.588 5.11416 -1.16421 0
M  V30 1738 H 172.062 5.49707 0.502562 0
M  V30 1739 H 172.539 4.12697 1.50258 0
M  V30 1740 H 173.145 4.24979 -0.165102 0
M  V30 1741 N 171.46 0.379036 1.52974 0
M  V30 1742 C 172.423 -0.448865 2.24762 0
M  V30 1743 C 173.423 -0.998689 1.26027 0
M  V30 1744 O 174.613 -0.882313 1.50203 0
M  V30 1745 C 171.745 -1.62872 2.99476 0
M  V30 1746 H 172.938 0.179491 2.99362 0
M  V30 1747 H 170.491 0.13096 1.5575 0
M  V30 1748 H 171.226 -2.29479 2.29151 0
M  V30 1749 H 171.011 -1.24128 3.71934 0
M  V30 1750 H 172.501 -2.2151 3.5401 0
M  V30 1751 N 172.938 -1.57226 0.108567 0
M  V30 1752 C 173.885 -2.14756 -0.845481 0
M  V30 1753 C 174.855 -1.06971 -1.27068 0
M  V30 1754 O 176.04 -1.34827 -1.35005 0
M  V30 1755 C 173.18 -2.74298 -2.09415 0
M  V30 1756 C 172.293 -3.96358 -1.71826 0
M  V30 1757 C 171.428 -4.44021 -2.9158 0
M  V30 1758 C 170.467 -5.58637 -2.50181 0
M  V30 1759 N 169.604 -6.01091 -3.62814 0
M  V30 1760 H 174.444 -2.95961 -0.348035 0
M  V30 1761 H 171.981 -1.46226 -0.160106 0
M  V30 1762 H 173.939 -3.06945 -2.82561 0
M  V30 1763 H 172.569 -1.95801 -2.56636 0
M  V30 1764 H 171.621 -3.69939 -0.885947 0
M  V30 1765 H 172.933 -4.79504 -1.37394 0
M  V30 1766 H 172.087 -4.78522 -3.72963 0
M  V30 1767 H 170.826 -3.59803 -3.29231 0
M  V30 1768 H 169.831 -5.23751 -1.67228 0
M  V30 1769 H 171.056 -6.44613 -2.13659 0
M  V30 1770 H 169.002 -5.19817 -4.00158 0
M  V30 1771 H 168.919 -6.79066 -3.32273 0
M  V30 1772 H 170.187 -6.40227 -4.44668 0
M  V30 1773 N 174.416 0.165178 -1.56732 0
M  V30 1774 C 175.832 0.517174 -1.50988 0
M  V30 1775 C 176.032 1.84331 -0.813894 0
M  V30 1776 O 175.088 2.49672 -0.37682 0
M  V30 1777 C 176.401 0.544261 -2.95733 0
M  V30 1778 C 177.949 0.631039 -3.06573 0
M  V30 1779 C 178.424 0.68896 -4.52788 0
M  V30 1780 N 179.915 0.751683 -4.5706 0
M  V30 1781 C 180.65 0.817177 -5.67547 0
M  V30 1782 N 180.146 0.843129 -6.8765 0
M  V30 1783 N 181.939 0.856668 -5.55534 0
M  V30 1784 H 174.09 -0.704318 -2.00382 0
M  V30 1785 H 176.353 -0.254687 -0.913148 0
M  V30 1786 H 176.059 -0.361607 -3.49836 0
M  V30 1787 H 175.933 1.3886 -3.5071 0
M  V30 1788 H 178.32 1.52733 -2.52501 0
M  V30 1789 H 178.401 -0.240095 -2.54671 0
M  V30 1790 H 178.045 -0.2031 -5.07494 0
M  V30 1791 H 177.975 1.57633 -5.02454 0
M  V30 1792 H 180.466 0.739661 -3.70591 0
M  V30 1793 H 180.779 0.894448 -7.67606 0
M  V30 1794 H 179.124 0.811304 -6.90248 0
M  V30 1795 H 182.315 0.833437 -4.60621 0
M  V30 1796 H 182.488 0.904247 -6.4166 0
M  V30 1797 N 175.894 1.51508 0.433938 0
M  V30 1798 C 177.122 1.68157 1.20543 0
M  V30 1799 C 177.537 0.380362 1.84929 0
M  V30 1800 O 176.894 -0.641446 1.70856 0
M  V30 1801 C 176.945 2.79965 2.28696 0
M  V30 1802 O 176.666 4.05045 1.66943 0
M  V30 1803 C 178.167 3.07912 3.18912 0
M  V30 1804 H 175.387 0.56421 0.363191 0
M  V30 1805 H 177.931 1.97941 0.513754 0
M  V30 1806 H 176.086 2.5277 2.93574 0
M  V30 1807 H 176.5 4.67165 2.38448 0
M  V30 1808 H 177.974 3.89719 3.90926 0
M  V30 1809 H 178.451 2.20456 3.79863 0
M  V30 1810 H 179.057 3.36779 2.59731 0
M  V30 1811 N 177.372 -0.689602 1.41712 0
M  V30 1812 C 178.335 -1.78521 1.43746 0
M  V30 1813 C 179.335 -1.57436 0.327191 0
M  V30 1814 O 180.525 -1.64 0.587348 0
M  V30 1815 C 177.657 -3.16971 1.25467 0
M  V30 1816 H 178.85 -1.78108 2.41283 0
M  V30 1817 H 176.403 -0.89781 1.27942 0
M  V30 1818 H 177.138 -3.23019 0.287948 0
M  V30 1819 H 176.923 -3.33678 2.05917 0
M  V30 1820 H 178.413 -3.96935 1.2974 0
M  V30 1821 N 178.85 -1.27639 -0.924453 0
M  V30 1822 C 179.813 -1.10681 -2.00705 0
M  V30 1823 C 180.813 -0.0497823 -1.60723 0
M  V30 1824 O 182.003 -0.294654 -1.7169 0
M  V30 1825 C 179.135 -0.687164 -3.33902 0
M  V30 1826 H 180.328 -2.06817 -2.17179 0
M  V30 1827 H 177.881 -1.10473 -1.10569 0
M  V30 1828 H 178.616 0.275439 -3.23128 0
M  V30 1829 H 178.401 -1.45061 -3.6428 0
M  V30 1830 H 179.891 -0.590853 -4.13399 0
M  V30 1831 N 180.328 1.1314 -1.09713 0
M  V30 1832 C 181.574 1.84757 -0.836224 0
M  V30 1833 C 181.907 1.8347 0.636598 0
M  V30 1834 O 181.182 1.27491 1.46889 0
M  V30 1835 C 181.465 3.32782 -1.37578 0
M  V30 1836 C 181.318 3.42567 -2.91493 0
M  V30 1837 C 182.637 4.28307 -1.01198 0
M  V30 1838 H 179.756 0.67082 -0.305236 0
M  V30 1839 H 182.398 1.3278 -1.35903 0
M  V30 1840 H 180.548 3.77177 -0.931097 0
M  V30 1841 H 182.22 3.06862 -3.44432 0
M  V30 1842 H 180.463 2.83349 -3.28475 0
M  V30 1843 H 181.134 4.46674 -3.24324 0
M  V30 1844 H 183.61 3.91999 -1.39556 0
M  V30 1845 H 182.486 5.30307 -1.41653 0
M  V30 1846 H 182.747 4.42029 0.0794833 0
M  V30 1847 N 181.806 0.884767 1.30421 0
M  V30 1848 C 183.031 0.517288 2.00845 0
M  V30 1849 C 183.456 -0.886779 1.65885 0
M  V30 1850 O 182.814 -1.58768 0.875354 0
M  V30 1851 C 182.862 0.698994 3.5376 0
M  V30 1852 O 181.966 -0.255208 4.1161 0
M  V30 1853 H 181.307 0.203872 0.631927 0
M  V30 1854 H 183.837 1.19225 1.66272 0
M  V30 1855 H 183.847 0.597912 4.03595 0
M  V30 1856 H 182.522 1.72271 3.78544 0
M  V30 1857 H 181.099 -0.10784 3.72744 0
M  V30 1858 N 183.284 -1.43765 0.645699 0
M  V30 1859 C 184.247 -2.29163 -0.0409488 0
M  V30 1860 C 185.247 -1.41813 -0.757996 0
M  V30 1861 O 186.437 -1.63527 -0.600382 0
M  V30 1862 C 183.569 -3.23716 -1.06869 0
M  V30 1863 H 184.762 -2.91366 0.710345 0
M  V30 1864 H 182.315 -1.5092 0.406547 0
M  V30 1865 H 183.05 -2.66393 -1.84947 0
M  V30 1866 H 182.835 -3.88105 -0.558277 0
M  V30 1867 H 184.325 -3.87831 -1.54845 0
M  V30 1868 N 184.763 -0.387143 -1.52771 0
M  V30 1869 C 186.012 0.19697 -2.00736 0
M  V30 1870 C 186.325 1.48082 -1.27793 0
M  V30 1871 O 187.531 2.14485 -1.66458 0
M  V30 1872 C 185.987 0.401568 -3.57653 0
M  V30 1873 C 185.595 -0.868907 -4.39493 0
M  V30 1874 C 187.339 0.942164 -4.13912 0
M  V30 1875 C 185.246 -0.632705 -5.88006 0
M  V30 1876 H 184.176 0.0773827 -0.750019 0
M  V30 1877 H 186.827 -0.50921 -1.76293 0
M  V30 1878 H 185.209 1.16954 -3.78335 0
M  V30 1879 H 186.383 -1.64133 -4.30577 0
M  V30 1880 H 184.698 -1.33429 -3.94443 0
M  V30 1881 H 187.295 1.13455 -5.22525 0
M  V30 1882 H 187.638 1.9106 -3.69867 0
M  V30 1883 H 188.171 0.233814 -3.97112 0
M  V30 1884 H 184.91 -1.57208 -6.36369 0
M  V30 1885 H 184.43 0.100825 -5.99715 0
M  V30 1886 H 186.109 -0.26642 -6.46451 0
M  V30 1887 N 186.241 1.57166 -0.116904 0
M  V30 1888 C 187.204 2.14039 0.819742 0
M  V30 1889 C 188.204 1.07477 1.19605 0
M  V30 1890 O 189.394 1.33263 1.1219 0
M  V30 1891 C 186.526 2.67891 2.10826 0
M  V30 1892 H 187.719 2.98128 0.325511 0
M  V30 1893 H 185.272 1.55739 0.132312 0
M  V30 1894 H 186.007 1.87384 2.64685 0
M  V30 1895 H 185.792 3.45823 1.84793 0
M  V30 1896 H 187.282 3.11809 2.77785 0
M  V30 1897 N 187.719 -0.156864 1.56817 0
M  V30 1898 C 188.947 -0.886316 1.86955 0
M  V30 1899 C 189.362 -1.75185 0.703975 0
M  V30 1900 O 188.719 -1.79555 -0.326552 0
M  V30 1901 C 188.77 -1.75117 3.16253 0
M  V30 1902 O 188.491 -0.920537 4.2832 0
M  V30 1903 C 189.992 -2.58905 3.59837 0
M  V30 1904 H 187.212 -0.25678 0.619923 0
M  V30 1905 H 189.756 -0.152615 2.0393 0
M  V30 1906 H 187.911 -2.43805 3.01062 0
M  V30 1907 H 188.325 -1.51337 5.02192 0
M  V30 1908 H 189.799 -3.1518 4.53172 0
M  V30 1909 H 190.276 -3.34472 2.84649 0
M  V30 1910 H 190.882 -1.95526 3.7769 0
M  V30 1911 N 189.197 -1.51736 -0.425897 0
M  V30 1912 C 190.144 -1.73875 -1.51776 0
M  V30 1913 C 191.114 -0.580702 -1.55618 0
M  V30 1914 O 192.299 -0.81641 -1.72451 0
M  V30 1915 C 189.439 -1.88012 -2.89388 0
M  V30 1916 C 188.552 -3.15606 -2.94986 0
M  V30 1917 C 187.687 -3.20271 -4.23793 0
M  V30 1918 C 186.726 -4.42134 -4.23302 0
M  V30 1919 N 185.863 -4.44284 -5.43651 0
M  V30 1920 H 190.703 -2.67071 -1.32201 0
M  V30 1921 H 188.24 -1.32351 -0.642008 0
M  V30 1922 H 190.198 -1.9419 -3.69251 0
M  V30 1923 H 188.828 -0.98213 -3.07496 0
M  V30 1924 H 187.88 -3.18681 -2.07717 0
M  V30 1925 H 189.192 -4.05486 -2.90486 0
M  V30 1926 H 188.346 -3.25428 -5.12036 0
M  V30 1927 H 187.085 -2.28299 -4.30965 0
M  V30 1928 H 186.09 -4.3714 -3.3345 0
M  V30 1929 H 187.315 -5.35382 -4.17783 0
M  V30 1930 H 185.261 -3.55188 -5.51523 0
M  V30 1931 H 185.178 -5.27988 -5.41078 0
M  V30 1932 H 186.446 -4.53649 -6.33895 0
M  V30 1933 N 190.675 0.682077 -1.42076 0
M  V30 1934 C 191.922 1.44215 -1.42156 0
M  V30 1935 C 192.25 1.94468 -0.0354186 0
M  V30 1936 O 191.505 1.70816 0.955002 0
M  V30 1937 C 191.804 2.66036 -2.38662 0
M  V30 1938 C 191.47 2.34366 -3.85206 0
M  V30 1939 C 190.132 2.25439 -4.25124 0
M  V30 1940 C 192.484 2.08513 -4.77673 0
M  V30 1941 C 189.812 1.88775 -5.55501 0
M  V30 1942 C 192.164 1.73354 -6.08384 0
M  V30 1943 C 190.828 1.62933 -6.47309 0
M  V30 1944 H 190.098 0.527718 -0.520187 0
M  V30 1945 H 192.745 0.778387 -1.74967 0
M  V30 1946 H 191.05 3.3741 -1.99152 0
M  V30 1947 H 192.747 3.24205 -2.35991 0
M  V30 1948 H 189.337 2.42213 -3.53597 0
M  V30 1949 H 193.521 2.14346 -4.47626 0
M  V30 1950 H 188.777 1.7927 -5.84527 0
M  V30 1951 H 192.951 1.52373 -6.79526 0
M  V30 1952 H 190.578 1.34292 -7.48244 0
M  V30 1953 N 192.153 1.28127 0.917671 0
M  V30 1954 C 193.083 1.14248 2.03641 0
M  V30 1955 C 194.064 0.0412748 1.7005 0
M  V30 1956 O 195.249 0.217566 1.92977 0
M  V30 1957 C 192.379 0.799431 3.37974 0
M  V30 1958 C 191.333 1.85497 3.85713 0
M  V30 1959 C 190.659 1.36565 5.16966 0
M  V30 1960 C 191.959 3.26085 4.08002 0
M  V30 1961 H 193.653 2.07835 2.15511 0
M  V30 1962 H 191.199 1.00064 1.03553 0
M  V30 1963 H 193.152 0.689114 4.15727 0
M  V30 1964 H 191.876 -0.172145 3.26146 0
M  V30 1965 H 190.535 1.95437 3.10161 0
M  V30 1966 H 190.183 0.383253 5.01538 0
M  V30 1967 H 189.883 2.07143 5.49878 0
M  V30 1968 H 191.407 1.26848 5.97279 0
M  V30 1969 H 192.821 3.19089 4.76293 0
M  V30 1970 H 191.218 3.94462 4.52238 0
M  V30 1971 H 192.288 3.70394 3.12948 0
M  V30 1972 N 193.631 -1.12557 1.10312 0
M  V30 1973 C 194.578 -2.18247 0.750781 0
M  V30 1974 C 195.548 -1.63853 -0.272293 0
M  V30 1975 O 196.733 -1.90195 -0.151862 0
M  V30 1976 C 193.873 -3.44591 0.187379 0
M  V30 1977 C 192.986 -4.13046 1.2656 0
M  V30 1978 C 192.121 -5.27034 0.663978 0
M  V30 1979 C 191.16 -5.87353 1.72287 0
M  V30 1980 N 190.297 -6.92757 1.1416 0
M  V30 1981 H 195.137 -2.47732 1.65628 0
M  V30 1982 H 192.674 -1.21629 0.827337 0
M  V30 1983 H 194.632 -4.16904 -0.157148 0
M  V30 1984 H 193.262 -3.15527 -0.681355 0
M  V30 1985 H 192.314 -3.38924 1.72727 0
M  V30 1986 H 193.626 -4.53947 2.06721 0
M  V30 1987 H 192.78 -6.06104 0.268824 0
M  V30 1988 H 191.519 -4.87407 -0.169082 0
M  V30 1989 H 190.524 -5.06971 2.12746 0
M  V30 1990 H 191.749 -6.29051 2.55875 0
M  V30 1991 H 189.695 -6.5517 0.329984 0
M  V30 1992 H 189.612 -7.3225 1.88007 0
M  V30 1993 H 190.88 -7.75658 0.772956 0
M  V30 1994 N 195.109 -0.891671 -1.2995 0
M  V30 1995 C 196.52 -0.563104 -1.78006 0
M  V30 1996 C 196.871 0.920978 -1.73241 0
M  V30 1997 O 195.996 1.71987 -1.31337 0
M  V30 1998 C 196.591 -1.01539 -3.23226 0
M  V30 1999 C 195.15 -0.738124 -3.69092 0
M  V30 2000 C 194.297 -1.19461 -2.50249 0
M  V30 2001 H 197.248 -1.07522 -1.16725 0
M  V30 2002 H 197.269 -0.347217 -3.78912 0
M  V30 2003 H 196.781 -2.09555 -3.26662 0
M  V30 2004 H 194.882 0.329766 -3.71138 0
M  V30 2005 H 194.995 -1.33037 -4.60259 0
M  V30 2006 H 193.359 -0.613787 -2.47194 0
M  V30 2007 H 194.142 -2.28265 -2.56417 0
M  V30 2008 N 196.587 1.43421 -0.653314 0
M  V30 2009 C 197.998 1.85065 -0.246537 0
M  V30 2010 C 198.349 1.54688 1.2069 0
M  V30 2011 O 197.474 0.995896 1.92122 0
M  V30 2012 C 198.069 3.35922 -0.440666 0
M  V30 2013 C 196.628 3.76297 -0.0882064 0
M  V30 2014 C 195.775 2.67147 -0.743484 0
M  V30 2015 H 198.726 1.33572 -0.856979 0
M  V30 2016 H 198.747 3.79204 0.313798 0
M  V30 2017 H 198.259 3.58 -1.49858 0
M  V30 2018 H 196.36 3.5983 0.96711 0
M  V30 2019 H 196.473 4.76338 -0.513738 0
M  V30 2020 H 194.837 2.54086 -0.176712 0
M  V30 2021 H 195.62 2.92053 -1.80443 0
M  V30 2022 N 198.065 0.39524 1.52563 0
M  V30 2023 C 199.29 -0.187456 2.06551 0
M  V30 2024 C 199.715 -1.39249 1.26457 0
M  V30 2025 O 199.073 -1.78947 0.291151 0
M  V30 2026 C 199.121 -0.529985 3.56684 0
M  V30 2027 O 198.225 -1.62307 3.79118 0
M  V30 2028 H 197.566 -0.0202537 0.663691 0
M  V30 2029 H 200.096 0.564426 1.96661 0
M  V30 2030 H 200.106 -0.792598 4.00227 0
M  V30 2031 H 198.781 0.350987 4.14416 0
M  V30 2032 H 197.358 -1.3537 3.47461 0
M  V30 2033 N 199.544 -1.57102 0.125237 0
M  V30 2034 C 200.769 -2.0019 -0.542101 0
M  V30 2035 C 201.194 -1.00449 -1.59034 0
M  V30 2036 O 200.552 0.0229423 -1.81285 0
M  V30 2037 C 200.6 -3.42129 -1.13929 0
M  V30 2038 O 199.704 -3.45307 -2.2547 0
M  V30 2039 H 199.045 -0.650171 -0.134812 0
M  V30 2040 H 201.575 -2.03461 0.215553 0
M  V30 2041 H 201.585 -3.80471 -1.4733 0
M  V30 2042 H 200.26 -4.14237 -0.371531 0
M  V30 2043 H 198.837 -3.1879 -1.93462 0
M  V30 2044 N 201.022 0.148545 -1.56898 0
M  V30 2045 C 201.932 1.20293 -2.01412 0
M  V30 2046 C 202.948 1.47107 -0.929273 0
M  V30 2047 O 204.124 1.58807 -1.23863 0
M  V30 2048 C 201.189 2.51682 -2.38447 0
M  V30 2049 C 200.25 2.32529 -3.60872 0
M  V30 2050 C 199.483 3.57653 -3.96132 0
M  V30 2051 O 199.706 4.63771 -3.32073 0
M  V30 2052 O 198.64 3.50408 -4.89385 0
M  V30 2053 H 202.466 0.855025 -2.91416 0
M  V30 2054 H 200.051 0.357151 -1.45068 0
M  V30 2055 H 201.933 3.29147 -2.63135 0
M  V30 2056 H 200.608 2.86006 -1.51599 0
M  V30 2057 H 199.515 1.53019 -3.41373 0
M  V30 2058 H 200.848 2.03121 -4.48333 0
M  V30 2059 N 202.5 1.5196 0.417844 0
M  V30 2060 C 203.746 1.65836 1.16732 0
M  V30 2061 C 204.079 0.382881 1.90388 0
M  V30 2062 O 203.354 -0.618368 1.84408 0
M  V30 2063 C 203.637 2.87466 2.16876 0
M  V30 2064 C 203.49 4.25041 1.47174 0
M  V30 2065 C 204.809 3.04613 3.17646 0
M  V30 2066 H 201.928 0.603515 0.423011 0
M  V30 2067 H 204.57 1.84494 0.454105 0
M  V30 2068 H 202.72 2.71689 2.777 0
M  V30 2069 H 204.392 4.52527 0.895376 0
M  V30 2070 H 202.635 4.26843 0.773806 0
M  V30 2071 H 203.306 5.06176 2.20204 0
M  V30 2072 H 205.782 3.1923 2.66892 0
M  V30 2073 H 204.658 3.91247 3.8499 0
M  V30 2074 H 204.919 2.17541 3.84874 0
M  V30 2075 N 203.978 -0.674533 1.42435 0
M  V30 2076 C 204.908 -1.80009 1.48724 0
M  V30 2077 C 205.889 -1.6659 0.343793 0
M  V30 2078 O 207.074 -1.86007 0.558137 0
M  V30 2079 C 204.204 -3.18306 1.38919 0
M  V30 2080 C 203.158 -3.46461 2.51294 0
M  V30 2081 C 202.484 -4.84335 2.26547 0
M  V30 2082 C 203.784 -3.43328 3.93603 0
M  V30 2083 H 205.478 -1.75004 2.42928 0
M  V30 2084 H 203.024 -0.840533 1.16923 0
M  V30 2085 H 204.977 -3.9678 1.41927 0
M  V30 2086 H 203.701 -3.2399 0.412094 0
M  V30 2087 H 202.36 -2.70348 2.47604 0
M  V30 2088 H 202.008 -4.86669 1.2713 0
M  V30 2089 H 201.708 -5.04136 3.01861 0
M  V30 2090 H 203.232 -5.65094 2.31304 0
M  V30 2091 H 204.646 -4.11772 3.98894 0
M  V30 2092 H 203.043 -3.74664 4.68771 0
M  V30 2093 H 204.113 -2.41897 4.20255 0
M  V30 2094 N 205.456 -1.28612 -0.910864 0
M  V30 2095 C 206.696 -1.1719 -1.67469 0
M  V30 2096 C 207.06 0.274441 -1.90028 0
M  V30 2097 O 208.261 0.511425 -2.6389 0
M  V30 2098 C 206.532 -1.95137 -2.99427 0
M  V30 2099 S 208.091 -2.00122 -3.90508 0
M  V30 2100 H 204.909 -0.41806 -0.575106 0
M  V30 2101 H 207.511 -1.6275 -1.08317 0
M  V30 2102 H 206.215 -2.99381 -2.80712 0
M  V30 2103 H 205.746 -1.50137 -3.63624 0
M  V30 2104 H 207.761 -1.10981 -4.8363 0
M  V30 2105 N 206.934 1.1197 -1.10907 0
M  V30 2106 C 208.183 1.82947 -0.849302 0
M  V30 2107 C 208.496 1.85275 0.627112 0
M  V30 2108 O 209.702 2.52296 1.00295 0
M  V30 2109 C 208.158 3.28529 -1.46959 0
M  V30 2110 C 207.766 3.34546 -2.97965 0
M  V30 2111 C 209.51 4.04443 -1.28942 0
M  V30 2112 C 207.417 4.74491 -3.53004 0
M  V30 2113 H 206.347 0.685477 -0.314065 0
M  V30 2114 H 208.998 1.2604 -1.33365 0
M  V30 2115 H 207.38 3.85333 -0.912917 0
M  V30 2116 H 208.554 2.87654 -3.59989 0
M  V30 2117 H 206.869 2.72108 -3.15192 0
M  V30 2118 H 209.466 5.07787 -1.67502 0
M  V30 2119 H 209.809 4.15656 -0.231456 0
M  V30 2120 H 210.342 3.5401 -1.81443 0
M  V30 2121 H 207.081 4.68474 -4.58489 0
M  V30 2122 H 206.601 5.21816 -2.9575 0
M  V30 2123 H 208.28 5.4344 -3.51115 0
M  V30 2124 N 208.412 0.89855 1.29475 0
M  V30 2125 C 209.342 0.39201 2.30186 0
M  V30 2126 C 210.323 -0.532359 1.61555 0
M  V30 2127 O 211.508 -0.443331 1.89072 0
M  V30 2128 C 208.638 -0.382353 3.45189 0
M  V30 2129 C 207.592 0.451483 4.25612 0
M  V30 2130 C 206.918 -0.450307 5.328 0
M  V30 2131 C 208.218 1.70079 4.93832 0
M  V30 2132 H 209.912 1.23362 2.72804 0
M  V30 2133 H 207.458 0.594638 1.31149 0
M  V30 2134 H 209.411 -0.747451 4.14718 0
M  V30 2135 H 208.135 -1.25774 3.01411 0
M  V30 2136 H 206.794 0.798897 3.57789 0
M  V30 2137 H 206.442 -1.32379 4.85268 0
M  V30 2138 H 206.142 0.103902 5.87508 0
M  V30 2139 H 207.666 -0.811623 6.05182 0
M  V30 2140 H 209.08 1.40549 5.55805 0
M  V30 2141 H 207.477 2.19623 5.58467 0
M  V30 2142 H 208.547 2.43744 4.19186 0
M  V30 2143 N 209.89 -1.43072 0.660911 0
M  V30 2144 C 211.138 -2.01323 0.177094 0
M  V30 2145 C 211.459 -1.5245 -1.2159 0
M  V30 2146 O 210.729 -0.740322 -1.81373 0
M  V30 2147 H 209.309 -0.744382 0.0624804 0
M  V30 2148 H 211.971 -1.75179 0.854305 0
M  V30 2149 H 211.067 -3.11649 0.167641 0
M  V30 2150 N 211.368 -0.403325 -1.52352 0
M  V30 2151 C 212.331 0.413051 -2.25447 0
M  V30 2152 C 213.331 0.978513 -1.276 0
M  V30 2153 O 214.521 0.858305 -1.51587 0
M  V30 2154 C 211.653 1.58087 -3.02029 0
M  V30 2155 H 212.846 -0.227094 -2.99039 0
M  V30 2156 H 210.399 -0.155722 -1.55522 0
M  V30 2157 H 211.134 2.25804 -2.32772 0
M  V30 2158 H 210.919 1.18195 -3.73861 0
M  V30 2159 H 212.409 2.1585 -3.57489 0
M  V30 2160 N 212.846 1.57033 -0.133567 0
M  V30 2161 C 214.094 1.953 0.519848 0
M  V30 2162 C 214.415 1.01866 1.66278 0
M  V30 2163 O 213.685 0.0776513 1.95746 0
M  V30 2164 H 212.265 0.721091 0.195032 0
M  V30 2165 H 214.927 1.93809 -0.205921 0
M  V30 2166 H 214.023 2.98695 0.904854 0
M  V30 2167 N 214.325 -0.140222 1.56975 0
M  V30 2168 C 215.571 -0.852949 1.83991 0
M  V30 2169 C 215.904 -1.80512 0.716187 0
M  V30 2170 O 215.179 -1.92479 -0.279681 0
M  V30 2171 C 215.462 -1.6215 3.21527 0
M  V30 2172 C 215.315 -0.690363 4.4447 0
M  V30 2173 C 216.634 -2.58247 3.56366 0
M  V30 2174 H 213.753 -0.308634 0.669264 0
M  V30 2175 H 216.395 -0.117898 1.89634 0
M  V30 2176 H 214.545 -2.24812 3.16847 0
M  V30 2177 H 216.217 -0.0742264 4.6124 0
M  V30 2178 H 214.46 -0.000396433 4.338 0
M  V30 2179 H 215.131 -1.2643 5.37326 0
M  V30 2180 H 217.607 -2.05701 3.61699 0
M  V30 2181 H 216.483 -3.09067 4.53617 0
M  V30 2182 H 216.744 -3.39923 2.82674 0
M  V30 2183 N 215.803 -1.52179 -0.40978 0
M  V30 2184 C 216.735 -1.71703 -1.51825 0
M  V30 2185 C 217.748 -0.597445 -1.51441 0
M  V30 2186 O 218.937 -0.872582 -1.55719 0
M  V30 2187 C 216.037 -1.74171 -2.90719 0
M  V30 2188 C 215.21 -3.03156 -3.15302 0
M  V30 2189 C 214.269 -2.97445 -4.34065 0
M  V30 2190 O 213.295 -3.71352 -4.31377 0
M  V30 2191 N 214.497 -2.15191 -5.39141 0
M  V30 2192 H 217.262 -2.67334 -1.35472 0
M  V30 2193 H 214.823 -1.50409 -0.599069 0
M  V30 2194 H 216.815 -1.67884 -3.68235 0
M  V30 2195 H 215.385 -0.860166 -3.00533 0
M  V30 2196 H 214.605 -3.23097 -2.25836 0
M  V30 2197 H 215.893 -3.88484 -3.28569 0
M  V30 2198 H 215.291 -1.54573 -5.44173 0
M  V30 2199 H 213.848 -2.1476 -6.15403 0
M  V30 2200 N 217.281 0.66697 -1.42791 0
M  V30 2201 C 218.244 1.76211 -1.46568 0
M  V30 2202 C 219.244 1.56896 -0.352196 0
M  V30 2203 O 220.434 1.63044 -0.613364 0
M  V30 2204 C 217.566 3.14935 -1.30494 0
M  V30 2205 H 218.759 1.74247 -2.44086 0
M  V30 2206 H 216.312 0.877342 -1.29354 0
M  V30 2207 H 217.047 3.2252 -0.339301 0
M  V30 2208 H 216.832 3.30359 -2.11199 0
M  V30 2209 H 218.322 3.94821 -1.36038 0
M  V30 2210 N 218.759 1.29093 0.90403 0
M  V30 2211 C 219.989 1.19516 1.68522 0
M  V30 2212 C 220.397 -0.24738 1.87576 0
M  V30 2213 O 219.74 -1.17798 1.40959 0
M  V30 2214 C 219.802 1.83249 3.0929 0
M  V30 2215 C 219.466 3.32531 3.13484 0
M  V30 2216 C 220.463 4.28821 2.93953 0
M  V30 2217 C 218.148 3.73656 3.35688 0
M  V30 2218 C 220.142 5.64212 2.96553 0
M  V30 2219 C 217.829 5.0917 3.37919 0
M  V30 2220 C 218.827 6.04258 3.18373 0
M  V30 2221 O 218.515 7.37298 3.20385 0
M  V30 2222 H 218.247 0.415467 0.533257 0
M  V30 2223 H 220.801 1.70912 1.13922 0
M  V30 2224 H 219.031 1.26358 3.65473 0
M  V30 2225 H 220.72 1.68054 3.69476 0
M  V30 2226 H 221.486 3.98382 2.76616 0
M  V30 2227 H 217.365 3.00101 3.49943 0
M  V30 2228 H 220.909 6.38407 2.81216 0
M  V30 2229 H 216.806 5.39256 3.54787 0
M  V30 2230 H 217.574 7.46048 3.36681 0
M  V30 2231 N 220.237 -1.11381 1.11499 0
M  V30 2232 C 221.462 -1.87475 0.887019 0
M  V30 2233 C 221.887 -1.79639 -0.557796 0
M  V30 2234 O 221.245 -1.15924 -1.39396 0
M  V30 2235 C 221.293 -3.34213 1.35403 0
M  V30 2236 O 220.397 -4.0903 0.526146 0
M  V30 2237 H 219.738 -0.582099 0.319463 0
M  V30 2238 H 222.268 -1.40785 1.48461 0
M  V30 2239 H 222.278 -3.8506 1.34881 0
M  V30 2240 H 220.953 -3.39232 2.40612 0
M  V30 2241 H 219.53 -3.68082 0.597522 0
M  V30 2242 N 221.715 -0.905404 -1.28997 0
M  V30 2243 C 222.665 -0.358713 -2.25161 0
M  V30 2244 C 223.649 0.524449 -1.52113 0
M  V30 2245 O 224.841 0.365534 -1.73184 0
M  V30 2246 C 221.97 0.407609 -3.40872 0
M  V30 2247 C 221.056 -0.490797 -4.21251 0
M  V30 2248 N 221.447 -1.60061 -4.79806 0
M  V30 2249 C 219.745 -0.289636 -4.45059 0
M  V30 2250 C 220.446 -2.15757 -5.40207 0
M  V30 2251 N 219.422 -1.44988 -5.23908 0
M  V30 2252 H 223.224 -1.20642 -2.67998 0
M  V30 2253 H 220.738 -0.757103 -1.43672 0
M  V30 2254 H 222.735 0.816046 -4.08835 0
M  V30 2255 H 221.395 1.25251 -2.9957 0
M  V30 2256 H 222.406 -1.98329 -4.7842 0
M  V30 2257 H 219.083 0.51643 -4.14294 0
M  V30 2258 H 220.473 -3.09069 -5.96595 0
M  V30 2259 N 223.193 1.4272 -0.668489 0
M  V30 2260 C 224.423 2.05668 -0.196063 0
M  V30 2261 C 224.831 1.5028 1.14946 0
M  V30 2262 O 224.174 0.6348 1.72383 0
M  V30 2263 C 224.236 3.59469 -0.0468879 0
M  V30 2264 C 223.9 4.37518 -1.32012 0
M  V30 2265 C 224.897 4.68584 -2.25222 0
M  V30 2266 C 222.582 4.77266 -1.56596 0
M  V30 2267 C 224.576 5.38326 -3.41297 0
M  V30 2268 C 222.263 5.4675 -2.72962 0
M  V30 2269 C 223.261 5.77204 -3.65137 0
M  V30 2270 O 222.949 6.45264 -4.79468 0
M  V30 2271 H 222.681 0.669382 -0.0943599 0
M  V30 2272 H 225.235 1.83954 -0.913788 0
M  V30 2273 H 223.465 3.79817 0.726357 0
M  V30 2274 H 225.154 4.04071 0.384852 0
M  V30 2275 H 225.92 4.38382 -2.07477 0
M  V30 2276 H 221.799 4.52959 -0.857249 0
M  V30 2277 H 225.343 5.62014 -4.13263 0
M  V30 2278 H 221.24 5.76369 -2.90635 0
M  V30 2279 H 222.008 6.63753 -4.78931 0
M  V30 2280 N 224.671 0.411399 1.52136 0
M  V30 2281 C 225.581 -0.419774 2.30814 0
M  V30 2282 C 226.597 -1.0515 1.38634 0
M  V30 2283 O 227.773 -1.05252 1.71709 0
M  V30 2284 C 224.838 -1.52019 3.11594 0
M  V30 2285 C 223.899 -0.91129 4.19516 0
M  V30 2286 C 223.132 -1.95927 4.96436 0
M  V30 2287 O 223.355 -3.17775 4.73683 0
M  V30 2288 O 222.289 -1.56423 5.81219 0
M  V30 2289 H 226.115 0.221805 3.02889 0
M  V30 2290 H 223.7 0.174547 1.48377 0
M  V30 2291 H 225.582 -2.15898 3.61892 0
M  V30 2292 H 224.257 -2.14633 2.42311 0
M  V30 2293 H 223.164 -0.235157 3.7336 0
M  V30 2294 H 224.497 -0.32904 4.91099 0
M  V30 2295 N 226.149 -1.5696 0.141893 0
M  V30 2296 C 227.398 -1.95135 -0.510427 0
M  V30 2297 C 227.711 -1.02896 -1.66348 0
M  V30 2298 O 228.917 -1.30629 -2.38009 0
M  V30 2299 C 227.373 -3.46876 -0.959427 0
M  V30 2300 C 226.981 -4.47691 0.166419 0
M  V30 2301 C 228.725 -3.93927 -1.58183 0
M  V30 2302 C 226.632 -5.90636 -0.300565 0
M  V30 2303 H 225.562 -0.728494 -0.194454 0
M  V30 2304 H 228.213 -1.8211 0.22542 0
M  V30 2305 H 226.595 -3.55215 -1.75038 0
M  V30 2306 H 227.769 -4.51043 0.94325 0
M  V30 2307 H 226.084 -4.10527 0.696905 0
M  V30 2308 H 228.681 -4.98158 -1.94275 0
M  V30 2309 H 229.024 -3.3519 -2.46888 0
M  V30 2310 H 229.557 -3.88484 -0.855863 0
M  V30 2311 H 226.296 -6.5318 0.550989 0
M  V30 2312 H 225.816 -5.90655 -1.04338 0
M  V30 2313 H 227.495 -6.42588 -0.754265 0
M  V30 2314 N 227.627 0.131896 -1.57047 0
M  V30 2315 C 228.874 0.841932 -1.84168 0
M  V30 2316 C 229.202 1.8048 -0.725066 0
M  V30 2317 O 228.457 1.93618 0.284692 0
M  V30 2318 C 228.756 1.63703 -3.17704 0
M  V30 2319 C 228.422 0.81961 -4.43388 0
M  V30 2320 C 227.084 0.594148 -4.77518 0
M  V30 2321 C 229.436 0.248977 -5.20605 0
M  V30 2322 C 226.764 -0.212409 -5.86315 0
M  V30 2323 C 229.116 -0.544701 -6.30251 0
M  V30 2324 C 227.78 -0.780599 -6.6292 0
M  V30 2325 H 227.05 0.308085 -0.673917 0
M  V30 2326 H 229.697 0.104867 -1.91213 0
M  V30 2327 H 228.002 2.44464 -3.06177 0
M  V30 2328 H 229.699 2.19015 -3.35907 0
M  V30 2329 H 226.289 1.00542 -4.16641 0
M  V30 2330 H 230.473 0.410408 -4.946 0
M  V30 2331 H 225.729 -0.404524 -6.1006 0
M  V30 2332 H 229.903 -0.993922 -6.89271 0
M  V30 2333 H 227.53 -1.40742 -7.47058 0
M  V30 2334 N 229.106 1.52395 0.401703 0
M  V30 2335 C 230.334 1.70676 1.16949 0
M  V30 2336 C 230.749 0.419503 1.8408 0
M  V30 2337 O 230.106 -0.605061 1.72178 0
M  V30 2338 C 230.157 2.84753 2.22706 0
M  V30 2339 O 229.878 4.08495 1.58314 0
M  V30 2340 C 231.379 3.14608 3.12309 0
M  V30 2341 H 228.599 0.571787 0.351142 0
M  V30 2342 H 231.143 1.98987 0.471652 0
M  V30 2343 H 229.298 2.58941 2.88147 0
M  V30 2344 H 229.712 4.72117 2.28485 0
M  V30 2345 H 231.186 3.97923 3.82572 0
M  V30 2346 H 231.663 2.28464 3.75101 0
M  V30 2347 H 232.269 3.42212 2.52529 0
M  V30 2348 N 230.584 -0.659388 1.43143 0
M  V30 2349 C 231.494 -1.80167 1.50256 0
M  V30 2350 C 232.51 -1.69571 0.390106 0
M  V30 2351 O 233.686 -1.90849 0.643319 0
M  V30 2352 C 230.751 -3.16409 1.41725 0
M  V30 2353 C 229.812 -3.38848 2.63591 0
M  V30 2354 C 229.045 -4.68591 2.55458 0
M  V30 2355 O 229.268 -5.47532 1.59891 0
M  V30 2356 O 228.202 -4.92614 3.45854 0
M  V30 2357 H 232.028 -1.77121 2.46702 0
M  V30 2358 H 229.613 -0.817092 1.25076 0
M  V30 2359 H 231.495 -3.9768 1.39387 0
M  V30 2360 H 230.17 -3.20059 0.484118 0
M  V30 2361 H 229.077 -2.57366 2.71502 0
M  V30 2362 H 230.41 -3.4004 3.55856 0
M  V30 2363 N 232.062 -1.29571 -0.897171 0
M  V30 2364 C 232.994 -1.10724 -2.00681 0
M  V30 2365 C 234.007 -0.0540026 -1.6271 0
M  V30 2366 O 235.196 -0.298783 -1.75982 0
M  V30 2367 C 232.296 -0.663912 -3.32333 0
M  V30 2368 C 231.469 -1.79622 -3.98816 0
M  V30 2369 C 230.528 -1.34349 -5.0876 0
M  V30 2370 O 229.554 -2.04864 -5.31055 0
M  V30 2371 N 230.756 -0.215764 -5.80099 0
M  V30 2372 H 233.521 -2.06291 -2.17403 0
M  V30 2373 H 231.082 -1.21544 -1.06951 0
M  V30 2374 H 233.074 -0.344295 -4.03233 0
M  V30 2375 H 231.644 0.199375 -3.11964 0
M  V30 2376 H 230.864 -2.28459 -3.21248 0
M  V30 2377 H 232.152 -2.55535 -4.39976 0
M  V30 2378 H 231.55 0.372091 -5.64475 0
M  V30 2379 H 230.107 0.0444707 -6.51785 0
M  V30 2380 N 233.54 1.10788 -1.12088 0
M  V30 2381 C 234.787 1.82671 -0.873931 0
M  V30 2382 C 235.115 1.85004 0.600311 0
M  V30 2383 O 234.37 1.30365 1.45957 0
M  V30 2384 C 234.669 3.29294 -1.38926 0
M  V30 2385 C 234.335 3.47113 -2.87791 0
M  V30 2386 C 232.997 3.51684 -3.28439 0
M  V30 2387 C 235.349 3.52808 -3.83635 0
M  V30 2388 C 232.677 3.59513 -4.63646 0
M  V30 2389 C 235.029 3.62169 -5.18668 0
M  V30 2390 C 233.693 3.65003 -5.58864 0
M  V30 2391 H 232.963 0.668441 -0.319794 0
M  V30 2392 H 235.61 1.30613 -1.40045 0
M  V30 2393 H 233.915 3.83894 -0.783122 0
M  V30 2394 H 235.612 3.83416 -1.17443 0
M  V30 2395 H 232.202 3.4423 -2.5535 0
M  V30 2396 H 236.386 3.4853 -3.53328 0
M  V30 2397 H 231.642 3.59987 -4.94185 0
M  V30 2398 H 235.816 3.6552 -5.92763 0
M  V30 2399 H 233.443 3.70822 -6.63623 0
M  V30 2400 N 235.018 0.912232 1.28515 0
M  V30 2401 C 236.243 0.559774 1.99703 0
M  V30 2402 C 236.668 -0.851393 1.67729 0
M  V30 2403 O 236.026 -1.56875 0.908834 0
M  V30 2404 C 236.074 0.773874 3.52198 0
M  V30 2405 O 235.178 -0.167842 4.12058 0
M  V30 2406 H 234.519 0.21723 0.627461 0
M  V30 2407 H 237.049 1.22725 1.63706 0
M  V30 2408 H 237.059 0.683386 4.02236 0
M  V30 2409 H 235.734 1.80261 3.74805 0
M  V30 2410 H 234.311 -0.0287509 3.72889 0
M  V30 2411 N 236.496 -1.42363 0.676048 0
M  V30 2412 C 237.743 -2.01522 0.19883 0
M  V30 2413 C 238.071 -1.53456 -1.19505 0
M  V30 2414 O 237.326 -0.727967 -1.81657 0
M  V30 2415 C 237.625 -3.56929 0.183431 0
M  V30 2416 C 237.291 -4.24431 1.52215 0
M  V30 2417 C 235.953 -4.42585 1.8887 0
M  V30 2418 C 238.305 -4.62459 2.40377 0
M  V30 2419 C 235.633 -4.96039 3.13309 0
M  V30 2420 C 237.985 -5.17294 3.64129 0
M  V30 2421 C 236.649 -5.33661 4.00951 0
M  V30 2422 H 235.919 -0.737419 0.0727571 0
M  V30 2423 H 238.566 -1.70531 0.871281 0
M  V30 2424 H 236.871 -3.87594 -0.572532 0
M  V30 2425 H 238.568 -4.00486 -0.203035 0
M  V30 2426 H 235.158 -4.10661 1.22701 0
M  V30 2427 H 239.342 -4.48105 2.13343 0
M  V30 2428 H 234.598 -5.06896 3.41857 0
M  V30 2429 H 238.772 -5.45704 4.32644 0
M  V30 2430 H 236.399 -5.74845 4.9745 0
M  V30 2431 N 237.974 -0.419461 -1.51915 0
M  V30 2432 C 238.921 0.400927 -2.27291 0
M  V30 2433 C 239.891 1.03224 -1.30131 0
M  V30 2434 O 241.076 1.05455 -1.59009 0
M  V30 2435 C 238.216 1.50603 -3.10504 0
M  V30 2436 C 237.329 0.89462 -4.22635 0
M  V30 2437 C 236.464 1.97328 -4.93189 0
M  V30 2438 C 235.503 1.33935 -5.97267 0
M  V30 2439 N 234.64 2.3586 -6.61298 0
M  V30 2440 H 239.48 -0.248251 -2.96964 0
M  V30 2441 H 237.017 -0.134266 -1.46486 0
M  V30 2442 H 238.975 2.15783 -3.57062 0
M  V30 2443 H 237.605 2.12509 -2.42981 0
M  V30 2444 H 236.657 0.131583 -3.80172 0
M  V30 2445 H 237.969 0.391641 -4.9726 0
M  V30 2446 H 237.123 2.70211 -5.43204 0
M  V30 2447 H 235.862 2.50994 -4.18155 0
M  V30 2448 H 234.867 0.595896 -5.46561 0
M  V30 2449 H 236.092 0.810252 -6.74249 0
M  V30 2450 H 234.038 2.88639 -5.89087 0
M  V30 2451 H 233.955 1.90403 -7.3163 0
M  V30 2452 H 235.223 3.08282 -7.15949 0
M  V30 2453 N 239.452 1.56882 -0.150215 0
M  V30 2454 C 240.362 2.20494 0.801222 0
M  V30 2455 C 241.378 1.19019 1.26927 0
M  V30 2456 O 242.554 1.51607 1.32579 0
M  V30 2457 C 239.619 2.81659 2.02161 0
M  V30 2458 C 238.68 3.9827 1.60249 0
M  V30 2459 C 237.913 4.56508 2.7647 0
M  V30 2460 O 238.136 4.13627 3.92771 0
M  V30 2461 O 237.07 5.46719 2.51757 0
M  V30 2462 H 240.896 3.02315 0.289717 0
M  V30 2463 H 238.481 1.49202 0.0769684 0
M  V30 2464 H 240.363 3.20522 2.73576 0
M  V30 2465 H 239.038 2.02849 2.52258 0
M  V30 2466 H 237.945 3.64117 0.858477 0
M  V30 2467 H 239.278 4.78609 1.14864 0
M  V30 2468 N 240.93 -0.123565 1.57115 0
M  V30 2469 C 242.176 -0.833386 1.84885 0
M  V30 2470 C 242.509 -1.79742 0.735292 0
M  V30 2471 O 241.784 -1.92764 -0.25925 0
M  V30 2472 C 242.067 -1.5873 3.23228 0
M  V30 2473 C 241.92 -0.643183 4.45178 0
M  V30 2474 C 243.239 -2.54453 3.59085 0
M  V30 2475 H 240.358 -0.301518 0.6725 0
M  V30 2476 H 243 -0.097778 1.89748 0
M  V30 2477 H 241.15 -2.21438 3.19214 0
M  V30 2478 H 242.822 -0.0253015 4.61293 0
M  V30 2479 H 241.065 0.0456139 4.33776 0
M  V30 2480 H 241.736 -1.20724 5.38637 0
M  V30 2481 H 244.212 -2.01853 3.63861 0
M  V30 2482 H 243.088 -3.04238 4.5687 0
M  V30 2483 H 243.349 -3.36906 2.86264 0
M  V30 2484 N 242.408 -1.52605 -0.393616 0
M  V30 2485 C 243.824 -1.41753 -0.733357 0
M  V30 2486 C 244.024 -0.534293 -1.94287 0
M  V30 2487 O 243.08 -0.0059787 -2.52499 0
M  V30 2488 C 244.393 -2.84531 -0.972772 0
M  V30 2489 C 245.941 -2.93978 -1.07453 0
M  V30 2490 C 246.416 -4.37756 -1.3466 0
M  V30 2491 N 247.907 -4.4106 -1.41492 0
M  V30 2492 C 248.642 -5.49387 -1.642 0
M  V30 2493 N 248.138 -6.67806 -1.8441 0
M  V30 2494 N 249.931 -5.36923 -1.66342 0
M  V30 2495 H 242.082 -2.08555 0.402328 0
M  V30 2496 H 244.345 -0.940654 0.117789 0
M  V30 2497 H 244.051 -3.51353 -0.156204 0
M  V30 2498 H 243.925 -3.26508 -1.88871 0
M  V30 2499 H 246.312 -2.27326 -1.88167 0
M  V30 2500 H 246.393 -2.55435 -0.136605 0
M  V30 2501 H 246.037 -5.04972 -0.544581 0
M  V30 2502 H 245.967 -4.73848 -2.2973 0
M  V30 2503 H 248.458 -3.55705 -1.27601 0
M  V30 2504 H 248.771 -7.46141 -2.01231 0
M  V30 2505 H 247.116 -6.70843 -1.81644 0
M  V30 2506 H 250.307 -4.43381 -1.50102 0
M  V30 2507 H 250.48 -6.21416 -1.837 0
M  V30 2508 N 243.887 0.651787 -1.4349 0
M  V30 2509 C 245.136 1.40754 -1.44469 0
M  V30 2510 C 245.449 1.95463 -0.0731845 0
M  V30 2511 O 246.655 2.71471 0.0395721 0
M  V30 2512 C 245.111 2.54735 -2.5424 0
M  V30 2513 C 244.719 2.06628 -3.97504 0
M  V30 2514 C 246.463 3.32092 -2.64414 0
M  V30 2515 C 244.37 3.17829 -4.98737 0
M  V30 2516 H 243.3 0.528862 -0.53742 0
M  V30 2517 H 245.951 0.703365 -1.69485 0
M  V30 2518 H 244.333 3.2763 -2.22428 0
M  V30 2519 H 245.507 1.40734 -4.38783 0
M  V30 2520 H 243.822 1.42146 -3.91387 0
M  V30 2521 H 246.419 4.14952 -3.37223 0
M  V30 2522 H 246.762 3.80217 -1.69532 0
M  V30 2523 H 247.295 2.66279 -2.95534 0
M  V30 2524 H 244.034 2.74671 -5.95177 0
M  V30 2525 H 243.554 3.82429 -4.62069 0
M  V30 2526 H 245.233 3.82937 -5.21505 0
M  V30 2527 N 245.365 1.30045 0.890287 0
M  V30 2528 C 246.611 1.19747 1.64415 0
M  V30 2529 C 246.966 -0.246591 1.90813 0
M  V30 2530 O 246.259 -1.174 1.51419 0
M  V30 2531 C 246.453 1.95409 2.99249 0
M  V30 2532 C 246.282 3.47025 2.86013 0
M  V30 2533 C 245.052 4.1638 2.86279 0
M  V30 2534 C 247.25 4.42353 2.62351 0
M  V30 2535 N 245.232 5.54293 2.63879 0
M  V30 2536 C 246.603 5.67792 2.49022 0
M  V30 2537 C 248.658 4.32009 2.47533 0
M  V30 2538 C 247.361 6.8406 2.22383 0
M  V30 2539 C 249.387 5.48038 2.22279 0
M  V30 2540 C 248.749 6.72455 2.09722 0
M  V30 2541 H 244.848 0.493223 0.60684 0
M  V30 2542 H 247.432 1.6399 1.04954 0
M  V30 2543 H 245.603 1.53565 3.56752 0
M  V30 2544 H 247.335 1.77298 3.63796 0
M  V30 2545 H 244.09 3.68164 2.97913 0
M  V30 2546 H 244.514 6.26852 2.55706 0
M  V30 2547 H 249.156 3.36503 2.55979 0
M  V30 2548 H 246.874 7.79612 2.12675 0
M  V30 2549 H 250.46 5.41939 2.11643 0
M  V30 2550 H 249.34 7.60722 1.90453 0
M  V30 2551 N 246.843 -1.10192 1.12674 0
M  V30 2552 C 247.791 -2.18694 0.792196 0
M  V30 2553 C 248.785 -1.67938 -0.222058 0
M  V30 2554 O 249.991 -1.79822 -0.0800074 0
M  V30 2555 H 246.366 -0.713223 0.238364 0
M  V30 2556 H 248.337 -2.44149 1.71564 0
M  V30 2557 C 247.086 -3.46682 0.265859 0
M  V30 2558 H 246.409 -3.86101 1.03761 0
M  V30 2559 H 247.849 -4.23942 0.0701128 0
M  V30 2560 C 246.308 -3.21506 -1.00675 0
M  V30 2561 O 246.838 -3.43408 -2.08408 0
M  V30 2562 N 245.044 -2.75158 -0.934692 0
M  V30 2563 H 244.591 -2.57535 -0.0578604 0
M  V30 2564 H 244.549 -2.58691 -1.7868 0
M  V30 2565 N 248.321 -0.919034 -1.28029 0
M  V30 2566 C 249.737 -0.617972 -1.4715 0
M  V30 2567 C 249.937 0.835242 -1.83374 0
M  V30 2568 O 248.993 1.61388 -1.94191 0
M  V30 2569 C 250.306 -1.56041 -2.57044 0
M  V30 2570 C 251.854 -1.56769 -2.7091 0
M  V30 2571 C 252.329 -2.49688 -3.83953 0
M  V30 2572 N 253.82 -2.47845 -3.91314 0
M  V30 2573 C 254.555 -3.16437 -4.78179 0
M  V30 2574 N 254.051 -3.94376 -5.69596 0
M  V30 2575 N 255.844 -3.05498 -4.71834 0
M  V30 2576 H 247.995 -1.85866 -1.02798 0
M  V30 2577 H 250.258 -0.797506 -0.512531 0
M  V30 2578 H 249.964 -2.59671 -2.372 0
M  V30 2579 H 249.838 -1.29551 -3.54255 0
M  V30 2580 H 252.225 -0.538745 -2.90141 0
M  V30 2581 H 252.306 -1.87305 -1.74214 0
M  V30 2582 H 251.95 -3.52688 -3.65477 0
M  V30 2583 H 251.88 -2.16453 -4.80058 0
M  V30 2584 H 254.371 -1.91234 -3.25941 0
M  V30 2585 H 254.684 -4.43721 -6.32718 0
M  V30 2586 H 253.029 -3.98481 -5.69419 0
M  V30 2587 H 256.22 -2.44108 -3.99411 0
M  V30 2588 H 256.393 -3.59225 -5.39316 0
M  V30 2589 N 249.799 1.42003 -0.683588 0
M  V30 2590 C 251.027 2.05746 -0.218182 0
M  V30 2591 C 251.442 1.51396 1.12804 0
M  V30 2592 O 250.799 0.657303 1.70252 0
M  V30 2593 C 250.85 3.61171 -0.154131 0
M  V30 2594 O 250.571 4.13508 -1.44716 0
M  V30 2595 C 252.072 4.42042 0.333713 0
M  V30 2596 H 249.292 0.662888 -0.10402 0
M  V30 2597 H 251.836 1.81987 -0.9328 0
M  V30 2598 H 249.991 3.84012 0.511231 0
M  V30 2599 H 250.405 5.07453 -1.32632 0
M  V30 2600 H 251.879 5.51028 0.327423 0
M  V30 2601 H 252.356 4.17269 1.37053 0
M  V30 2602 H 252.962 4.24239 -0.300222 0
M  V30 2603 N 251.277 0.427512 1.51691 0
M  V30 2604 C 252.224 -0.388867 2.275 0
M  V30 2605 C 253.194 -1.02532 1.30677 0
M  V30 2606 O 254.379 -1.0461 1.59566 0
M  V30 2607 C 251.519 -1.48954 3.11298 0
M  V30 2608 C 250.632 -0.872194 4.23104 0
M  V30 2609 C 249.767 -1.94709 4.94228 0
M  V30 2610 C 248.806 -1.30766 5.97969 0
M  V30 2611 N 247.943 -2.32349 6.62539 0
M  V30 2612 H 252.783 0.263997 2.96828 0
M  V30 2613 H 250.32 0.142033 1.46413 0
M  V30 2614 H 252.278 -2.13887 3.58201 0
M  V30 2615 H 250.908 -2.11217 2.44105 0
M  V30 2616 H 249.96 -0.111419 3.80237 0
M  V30 2617 H 251.272 -0.365264 4.97461 0
M  V30 2618 H 250.426 -2.67327 5.44629 0
M  V30 2619 H 249.165 -2.48773 4.1948 0
M  V30 2620 H 248.17 -0.566902 5.4687 0
M  V30 2621 H 249.395 -0.774483 6.74669 0
M  V30 2622 H 247.341 -2.85511 5.90609 0
M  V30 2623 H 247.258 -1.8652 7.3263 0
M  V30 2624 H 248.526 -3.04481 7.17574 0
M  V30 2625 N 252.755 -1.56801 0.158532 0
M  V30 2626 C 253.665 -2.20916 -0.789518 0
M  V30 2627 C 254.681 -1.1969 -1.26294 0
M  V30 2628 O 255.857 -1.52308 -1.31773 0
M  V30 2629 C 252.922 -2.82727 -2.00665 0
M  V30 2630 C 251.983 -3.99114 -1.58134 0
M  V30 2631 C 251.216 -4.57968 -2.74045 0
M  V30 2632 O 251.439 -4.15704 -3.90572 0
M  V30 2633 O 250.373 -5.48047 -2.48855 0
M  V30 2634 H 254.199 -3.02464 -0.273681 0
M  V30 2635 H 251.784 -1.4924 -0.0690548 0
M  V30 2636 H 253.666 -3.21968 -2.71872 0
M  V30 2637 H 252.341 -2.04184 -2.51179 0
M  V30 2638 H 251.248 -3.64567 -0.839155 0
M  V30 2639 H 252.581 -4.79212 -1.12325 0
M  V30 2640 N 254.233 0.115231 -1.57178 0
M  V30 2641 C 255.181 1.16014 -2.01602 0
M  V30 2642 C 256.175 1.42653 -0.913587 0
M  V30 2643 O 257.381 1.42571 -1.09879 0
M  V30 2644 H 253.756 0.391252 -0.642204 0
M  V30 2645 H 255.727 0.758998 -2.88586 0
M  V30 2646 C 254.476 2.47767 -2.4394 0
M  V30 2647 H 253.799 2.28108 -3.28339 0
M  V30 2648 H 255.239 3.19432 -2.78818 0
M  V30 2649 C 253.698 3.10617 -1.30455 0
M  V30 2650 O 254.228 3.96846 -0.622585 0
M  V30 2651 N 252.434 2.70553 -1.06064 0
M  V30 2652 H 251.981 2.00527 -1.61699 0
M  V30 2653 H 251.939 3.12934 -0.303284 0
M  V30 2654 N 255.711 1.52812 0.385517 0
M  V30 2655 C 256.674 1.77188 1.45386 0
M  V30 2656 C 257.674 0.641953 1.4743 0
M  V30 2657 O 258.864 0.910033 1.4854 0
M  V30 2658 C 255.996 1.87582 2.8465 0
M  V30 2659 H 257.189 2.72583 1.25054 0
M  V30 2660 H 254.742 1.43586 0.617467 0
M  V30 2661 H 255.477 0.941849 3.10322 0
M  V30 2662 H 255.262 2.69748 2.84567 0
M  V30 2663 H 256.752 2.08102 3.62054 0
M  V30 2664 N 257.189 -0.644168 1.43834 0
M  V30 2665 C 258.099 -1.78563 1.52159 0
M  V30 2666 C 259.115 -1.69147 0.408069 0
M  V30 2667 O 260.291 -1.90156 0.663524 0
M  V30 2668 C 257.356 -3.14888 1.45073 0
M  V30 2669 C 256.417 -3.36034 2.6717 0
M  V30 2670 C 255.65 -4.65855 2.60413 0
M  V30 2671 O 255.873 -5.45805 1.65689 0
M  V30 2672 O 254.807 -4.88918 3.5106 0
M  V30 2673 H 258.633 -1.74494 2.48567 0
M  V30 2674 H 256.218 -0.80378 1.25935 0
M  V30 2675 H 258.1 -3.96179 1.43597 0
M  V30 2676 H 256.775 -3.19528 0.518037 0
M  V30 2677 H 255.682 -2.54472 2.74217 0
M  V30 2678 H 257.015 -3.36247 3.59442 0
M  V30 2679 N 258.668 -1.30515 -0.883378 0
M  V30 2680 C 259.615 -1.17032 -1.98927 0
M  V30 2681 C 260.585 -0.0594241 -1.65994 0
M  V30 2682 O 261.77 -0.229895 -1.8941 0
M  V30 2683 C 258.91 -0.869777 -3.33959 0
M  V30 2684 C 258.023 -2.06271 -3.79574 0
M  V30 2685 C 257.158 -1.70011 -5.03259 0
M  V30 2686 C 256.197 -2.8579 -5.41286 0
M  V30 2687 N 255.334 -2.49816 -6.56153 0
M  V30 2688 H 260.174 -2.1164 -2.09792 0
M  V30 2689 H 257.711 -1.05296 -1.02719 0
M  V30 2690 H 259.669 -0.676138 -4.11685 0
M  V30 2691 H 258.299 0.0394332 -3.22776 0
M  V30 2692 H 257.351 -2.36755 -2.97744 0
M  V30 2693 H 258.663 -2.92971 -4.03694 0
M  V30 2694 H 257.817 -1.47032 -5.88614 0
M  V30 2695 H 256.556 -0.804829 -4.81013 0
M  V30 2696 H 255.561 -3.09434 -4.54456 0
M  V30 2697 H 256.786 -3.76008 -5.65504 0
M  V30 2698 H 254.732 -1.62795 -6.35479 0
M  V30 2699 H 254.649 -3.30048 -6.8015 0
M  V30 2700 H 255.917 -2.30197 -7.44735 0
M  V30 2701 N 260.146 1.09593 -1.13257 0
M  V30 2702 C 261.393 1.81734 -0.893257 0
M  V30 2703 C 261.721 1.8563 0.580656 0
M  V30 2704 O 260.976 1.31906 1.44566 0
M  V30 2705 C 261.275 3.27802 -1.42411 0
M  V30 2706 C 260.941 3.44041 -2.91456 0
M  V30 2707 C 259.603 3.48181 -3.3215 0
M  V30 2708 C 261.955 3.48719 -3.87356 0
M  V30 2709 C 259.283 3.54575 -4.67433 0
M  V30 2710 C 261.635 3.56648 -5.2248 0
M  V30 2711 C 260.299 3.59055 -5.62704 0
M  V30 2712 H 259.569 0.665011 -0.326866 0
M  V30 2713 H 262.216 1.2912 -1.41422 0
M  V30 2714 H 260.521 3.83042 -0.823795 0
M  V30 2715 H 262.218 3.82149 -1.21503 0
M  V30 2716 H 258.808 3.41502 -2.58987 0
M  V30 2717 H 262.992 3.44763 -3.57004 0
M  V30 2718 H 258.248 3.54725 -4.97976 0
M  V30 2719 H 262.422 3.59212 -5.96607 0
M  V30 2720 H 260.049 3.63763 -6.67518 0
M  V30 2721 N 261.624 0.925811 1.2754 0
M  V30 2722 C 262.587 0.428129 2.25166 0
M  V30 2723 C 263.587 -0.452261 1.54309 0
M  V30 2724 O 264.777 -0.253608 1.72344 0
M  V30 2725 C 261.909 -0.384749 3.38722 0
M  V30 2726 H 263.102 1.29066 2.70706 0
M  V30 2727 H 260.655 0.706323 1.3943 0
M  V30 2728 H 261.39 -1.26618 2.98561 0
M  V30 2729 H 261.175 0.246454 3.91325 0
M  V30 2730 H 262.665 -0.723389 4.11287 0
M  V30 2731 N 263.102 -1.41638 0.69111 0
M  V30 2732 C 264.379 -1.95036 0.148421 0
M  V30 2733 C 264.759 -1.63072 -1.34055 0
M  V30 2734 O 264.107 -0.93538 -2.08478 0
M  V30 2735 C 264.317 -3.46279 0.434951 0
M  V30 2736 C 265.665 -4.23069 0.360275 0
M  V30 2737 O 266.689 -3.54277 0.369613 0
M  V30 2738 O 265.548 -5.45583 0.316534 0
M  V30 2739 H 262.642 -0.826908 0.0123654 0
M  V30 2740 H 265.188 -1.5138 0.766963 0
M  V30 2741 H 263.96 -3.6281 1.46576 0
M  V30 2742 H 263.583 -3.97019 -0.214787 0
M  V30 2743 N 264.58 -0.43555 -1.51462 0
M  V30 2744 C 265.808 0.130242 -2.0649 0
M  V30 2745 C 266.223 1.36614 -1.30315 0
M  V30 2746 O 265.58 1.78869 -0.362223 0
M  V30 2747 C 265.631 0.454253 -3.58635 0
M  V30 2748 O 265.352 -0.73259 -4.31931 0
M  V30 2749 C 266.853 1.07091 -4.3017 0
M  V30 2750 H 264.073 0.00871669 -0.670943 0
M  V30 2751 H 266.617 -0.614117 -1.95061 0
M  V30 2752 H 264.772 1.14851 -3.69984 0
M  V30 2753 H 265.186 -0.455787 -5.22516 0
M  V30 2754 H 266.66 1.24764 -5.37716 0
M  V30 2755 H 267.137 2.05144 -3.88346 0
M  V30 2756 H 267.743 0.416089 -4.2326 0
M  V30 2757 N 266.058 1.56714 -0.166846 0
M  V30 2758 C 267.304 1.97039 0.479962 0
M  V30 2759 C 267.637 1.05264 1.63197 0
M  V30 2760 O 266.912 0.0988833 1.94248 0
M  V30 2761 C 267.195 3.46867 0.967212 0
M  V30 2762 C 267.048 4.49421 -0.18466 0
M  V30 2763 C 268.367 3.9968 1.84238 0
M  V30 2764 H 265.486 0.71641 0.172992 0
M  V30 2765 H 268.128 1.8832 -0.252079 0
M  V30 2766 H 266.278 3.54428 1.59101 0
M  V30 2767 H 267.95 4.53924 -0.821621 0
M  V30 2768 H 266.193 4.25573 -0.840837 0
M  V30 2769 H 266.864 5.51644 0.198317 0
M  V30 2770 H 269.34 3.94723 1.31655 0
M  V30 2771 H 268.216 5.04941 2.15234 0
M  V30 2772 H 268.477 3.43226 2.78654 0
M  V30 2773 N 267.536 -0.106894 1.57237 0
M  V30 2774 C 268.468 -1.15646 1.97885 0
M  V30 2775 C 269.481 -1.36981 0.879779 0
M  V30 2776 O 270.67 -1.35841 1.15799 0
M  V30 2777 C 267.77 -2.51425 2.27241 0
M  V30 2778 C 266.943 -2.50529 3.58545 0
M  V30 2779 C 266.002 -3.68145 3.75973 0
M  V30 2780 O 265.028 -3.51176 4.47956 0
M  V30 2781 N 266.23 -4.87177 3.15656 0
M  V30 2782 H 268.995 -0.81059 2.8853 0
M  V30 2783 H 266.556 -0.296024 1.59171 0
M  V30 2784 H 268.548 -3.28689 2.36105 0
M  V30 2785 H 267.118 -2.78147 1.42663 0
M  V30 2786 H 266.338 -1.58894 3.60758 0
M  V30 2787 H 267.626 -2.46997 4.44826 0
M  V30 2788 H 267.024 -5.03868 2.57165 0
M  V30 2789 H 265.581 -5.62075 3.30023 0
M  V30 2790 N 269.014 -1.53014 -0.377408 0
M  V30 2791 C 270.262 -1.6829 -1.11906 0
M  V30 2792 C 270.583 -0.431206 -1.90173 0
M  V30 2793 O 269.853 0.554595 -1.87886 0
M  V30 2794 H 268.433 -0.620371 -0.416112 0
M  V30 2795 H 271.095 -1.90167 -0.426893 0
M  V30 2796 H 270.191 -2.53862 -1.8155 0
M  V30 2797 N 270.492 0.636531 -1.44174 0
M  V30 2798 C 271.402 1.77754 -1.53103 0
M  V30 2799 C 272.418 1.68928 -0.417034 0
M  V30 2800 O 273.594 1.89801 -0.6736 0
M  V30 2801 C 270.659 3.14115 -1.46741 0
M  V30 2802 C 269.72 3.34612 -2.68948 0
M  V30 2803 C 268.953 4.64467 -2.6288 0
M  V30 2804 O 269.176 5.44919 -1.68581 0
M  V30 2805 O 268.11 4.87049 -3.53648 0
M  V30 2806 H 271.936 1.73174 -2.49489 0
M  V30 2807 H 269.521 0.79709 -1.2636 0
M  V30 2808 H 271.403 3.95412 -1.45696 0
M  V30 2809 H 270.078 3.19249 -0.534975 0
M  V30 2810 H 268.985 2.53014 -2.75562 0
M  V30 2811 H 270.318 3.34336 -3.61221 0
M  V30 2812 N 271.97 1.30982 0.876444 0
M  V30 2813 C 273.216 1.20474 1.63138 0
M  V30 2814 C 273.549 -0.238096 1.92735 0
M  V30 2815 O 272.824 -1.1692 1.55435 0
M  V30 2816 C 273.107 2.04244 2.96574 0
M  V30 2817 C 272.96 3.56793 2.73896 0
M  V30 2818 C 274.279 1.88684 3.97601 0
M  V30 2819 H 271.398 0.439001 0.591985 0
M  V30 2820 H 274.04 1.60704 1.01361 0
M  V30 2821 H 272.19 1.70063 3.493 0
M  V30 2822 H 273.862 4.01077 2.27892 0
M  V30 2823 H 272.105 3.80548 2.08245 0
M  V30 2824 H 272.776 4.10706 3.68815 0
M  V30 2825 H 275.252 2.18584 3.54062 0
M  V30 2826 H 274.128 2.4961 4.88862 0
M  V30 2827 H 274.389 0.848343 4.33884 0
M  V30 2828 N 273.449 -1.08991 1.13837 0
M  V30 2829 C 274.865 -1.33312 0.877506 0
M  V30 2830 C 275.065 -1.95587 -0.48456 0
M  V30 2831 O 274.121 -2.20509 -1.23013 0
M  V30 2832 C 275.434 -2.24045 2.0056 0
M  V30 2833 C 276.982 -2.37542 2.03821 0
M  V30 2834 C 277.457 -3.31614 3.15905 0
M  V30 2835 N 278.948 -3.39189 3.15445 0
M  V30 2836 C 279.683 -4.11992 3.98811 0
M  V30 2837 N 279.179 -4.87553 4.92203 0
M  V30 2838 N 280.972 -4.07762 3.86894 0
M  V30 2839 H 273.123 -0.669456 2.01574 0
M  V30 2840 H 275.386 -0.357482 0.878015 0
M  V30 2841 H 275.092 -1.85521 2.98789 0
M  V30 2842 H 274.966 -3.24466 1.92359 0
M  V30 2843 H 277.353 -2.75327 1.06202 0
M  V30 2844 H 277.434 -1.36884 2.16093 0
M  V30 2845 H 277.078 -2.94551 4.13766 0
M  V30 2846 H 277.008 -4.32186 3.0087 0
M  V30 2847 H 279.499 -2.85314 2.47799 0
M  V30 2848 H 279.812 -5.40549 5.52292 0
M  V30 2849 H 278.157 -4.86627 4.96205 0
M  V30 2850 H 281.348 -3.47833 3.13257 0
M  V30 2851 H 281.521 -4.64238 4.52092 0
M  V30 2852 N 274.927 -0.932562 -1.27047 0
M  V30 2853 C 276.173 -0.576412 -1.94436 0
M  V30 2854 C 276.506 0.880891 -1.73072 0
M  V30 2855 O 275.781 1.62905 -1.06264 0
M  V30 2856 C 276.064 -0.909031 -3.48437 0
M  V30 2857 C 275.917 -2.42044 -3.79123 0
M  V30 2858 C 277.236 -0.418341 -4.38107 0
M  V30 2859 H 274.355 -0.210888 -0.706184 0
M  V30 2860 H 276.997 -1.16522 -1.50075 0
M  V30 2861 H 275.147 -0.407947 -3.86352 0
M  V30 2862 H 276.819 -2.99359 -3.50973 0
M  V30 2863 H 275.062 -2.86758 -3.25503 0
M  V30 2864 H 275.733 -2.6037 -4.86736 0
M  V30 2865 H 278.209 -0.847856 -4.0737 0
M  V30 2866 H 277.085 -0.679981 -5.44672 0
M  V30 2867 H 277.346 0.681642 -4.36814 0
M  V30 2868 N 276.405 1.4127 -0.698611 0
M  V30 2869 C 277.645 2.03044 -0.235062 0
M  V30 2870 C 278.009 1.54146 1.14468 0
M  V30 2871 O 279.21 2.07867 1.70425 0
M  V30 2872 C 277.481 3.56192 -0.293651 0
M  V30 2873 S 279.04 4.38696 0.0954053 0
M  V30 2874 H 275.858 0.704697 -0.0944648 0
M  V30 2875 H 278.46 1.72656 -0.917064 0
M  V30 2876 H 277.164 3.89274 -1.29977 0
M  V30 2877 H 276.695 3.91285 0.407397 0
M  V30 2878 H 278.71 4.78257 1.3223 0
M  V30 2879 N 277.883 0.443576 1.51229 0
M  V30 2880 C 279.108 -0.121648 2.07043 0
M  V30 2881 C 279.533 -1.35156 1.30823 0
M  V30 2882 O 278.891 -1.7793 0.347934 0
M  V30 2883 C 278.939 -0.41624 3.5819 0
M  V30 2884 O 278.043 -1.50163 3.8409 0
M  V30 2885 H 277.384 0.000871367 0.663999 0
M  V30 2886 H 279.914 0.626706 1.94765 0
M  V30 2887 H 279.924 -0.664867 4.02546 0
M  V30 2888 H 278.599 0.482653 4.1309 0
M  V30 2889 H 277.176 -1.24248 3.51592 0
M  V30 2890 N 279.361 -1.56624 0.175154 0
M  V30 2891 C 280.586 -2.01813 -0.478137 0
M  V30 2892 C 281.011 -1.05457 -1.55757 0
M  V30 2893 O 280.369 -0.0347439 -1.81267 0
M  V30 2894 C 280.417 -3.45581 -1.02987 0
M  V30 2895 O 279.521 -3.52305 -2.14371 0
M  V30 2896 H 278.862 -0.65413 -0.114059 0
M  V30 2897 H 281.392 -2.02673 0.280173 0
M  V30 2898 H 281.402 -3.84965 -1.35151 0
M  V30 2899 H 280.077 -4.1521 -0.239556 0
M  V30 2900 H 278.654 -3.24783 -1.83222 0
M  V30 2901 N 280.839 0.0985539 -1.57292 0
M  V30 2902 C 282.085 0.803867 -1.86188 0
M  V30 2903 C 282.418 1.78549 -0.763794 0
M  V30 2904 O 281.693 1.93153 0.22855 0
M  V30 2905 C 281.976 1.53568 -3.25713 0
M  V30 2906 C 281.829 0.572277 -4.46145 0
M  V30 2907 C 283.148 2.48708 -3.63087 0
M  V30 2908 H 280.267 0.290781 -0.677211 0
M  V30 2909 H 282.909 0.0675783 -1.8988 0
M  V30 2910 H 281.059 2.16332 -3.22696 0
M  V30 2911 H 282.731 -0.0480894 -4.61275 0
M  V30 2912 H 280.974 -0.114618 -4.33649 0
M  V30 2913 H 281.645 1.12139 -5.40489 0
M  V30 2914 H 284.121 1.96039 -3.67026 0
M  V30 2915 H 282.997 2.96932 -4.61652 0
M  V30 2916 H 283.258 3.32309 -2.91588 0
M  V30 2917 N 282.317 1.53212 0.369288 0
M  V30 2918 C 283.249 1.75668 1.47219 0
M  V30 2919 C 284.262 0.637387 1.49804 0
M  V30 2920 O 285.451 0.913561 1.5335 0
M  V30 2921 C 282.551 1.81818 2.85999 0
M  V30 2922 C 281.724 3.11409 3.07153 0
M  V30 2923 C 280.783 3.08849 4.26026 0
M  V30 2924 O 279.809 3.82659 4.2138 0
M  V30 2925 N 281.011 2.29409 5.33246 0
M  V30 2926 H 283.776 2.70832 1.28337 0
M  V30 2927 H 281.337 1.51944 0.55898 0
M  V30 2928 H 283.329 1.77588 3.63655 0
M  V30 2929 H 281.899 0.939544 2.98146 0
M  V30 2930 H 281.119 3.28971 2.1719 0
M  V30 2931 H 282.407 3.97059 3.18154 0
M  V30 2932 H 281.805 1.68946 5.39883 0
M  V30 2933 H 280.362 2.31001 6.09493 0
M  V30 2934 N 283.795 -0.628877 1.44509 0
M  V30 2935 C 284.705 -1.7694 1.54044 0
M  V30 2936 C 285.721 -1.68705 0.425987 0
M  V30 2937 O 286.897 -1.89442 0.683656 0
M  V30 2938 C 283.962 -3.13332 1.48405 0
M  V30 2939 C 283.023 -3.33181 2.70719 0
M  V30 2940 C 282.256 -4.63067 2.6534 0
M  V30 2941 O 282.479 -5.44017 1.71469 0
M  V30 2942 O 281.413 -4.85167 3.56226 0
M  V30 2943 H 285.239 -1.71848 2.50403 0
M  V30 2944 H 282.824 -0.790378 1.26781 0
M  V30 2945 H 284.706 -3.94634 1.47791 0
M  V30 2946 H 283.381 -3.1896 0.551898 0
M  V30 2947 H 282.288 -2.51549 2.769 0
M  V30 2948 H 283.621 -3.32416 3.62988 0
M  V30 2949 N 285.273 -1.31445 -0.869486 0
M  V30 2950 C 286.236 -1.19094 -1.9583 0
M  V30 2951 C 287.236 -0.117906 -1.60367 0
M  V30 2952 O 288.426 -0.367208 -1.70286 0
M  V30 2953 C 285.558 -0.828165 -3.30688 0
M  V30 2954 H 286.751 -2.15842 -2.08212 0
M  V30 2955 H 284.304 -1.15063 -1.05784 0
M  V30 2956 H 285.039 0.138142 -3.24006 0
M  V30 2957 H 284.824 -1.6038 -3.578 0
M  V30 2958 H 286.314 -0.765658 -4.10521 0
M  V30 2959 N 286.751 1.08385 -1.14413 0
M  V30 2960 C 287.997 1.81044 -0.913834 0
M  V30 2961 C 288.33 1.86004 0.558209 0
M  V30 2962 O 287.605 1.33606 1.4135 0
M  V30 2963 C 287.888 3.26648 -1.51569 0
M  V30 2964 C 287.741 3.29895 -3.0576 0
M  V30 2965 C 289.06 4.23629 -1.19273 0
M  V30 2966 H 286.179 0.65727 -0.333414 0
M  V30 2967 H 288.821 1.26896 -1.41412 0
M  V30 2968 H 286.971 3.72889 -1.09023 0
M  V30 2969 H 288.643 2.91977 -3.57137 0
M  V30 2970 H 286.886 2.69163 -3.40197 0
M  V30 2971 H 287.557 4.32516 -3.42977 0
M  V30 2972 H 290.033 3.85727 -1.56057 0
M  V30 2973 H 288.909 5.23822 -1.64017 0
M  V30 2974 H 289.17 4.41968 -0.108068 0
M  V30 2975 N 288.23 0.939286 1.26551 0
M  V30 2976 C 289.193 0.451987 2.24699 0
M  V30 2977 C 290.193 -0.435869 1.5478 0
M  V30 2978 O 291.383 -0.235314 1.72603 0
M  V30 2979 C 288.515 -0.348801 3.39111 0
M  V30 2980 H 289.708 1.3193 2.69322 0
M  V30 2981 H 287.261 0.721072 1.38673 0
M  V30 2982 H 287.996 -1.23444 2.99887 0
M  V30 2983 H 287.781 0.287945 3.91041 0
M  V30 2984 H 289.271 -0.679726 4.12031 0
M  V30 2985 N 289.708 -1.40897 0.706093 0
M  V30 2986 C 290.956 -2.00657 0.241054 0
M  V30 2987 C 291.277 -1.56241 -1.16678 0
M  V30 2988 O 290.547 -0.79765 -1.78926 0
M  V30 2989 H 289.127 -0.742018 0.0861308 0
M  V30 2990 H 291.789 -1.72372 0.909604 0
M  V30 2991 H 290.885 -3.10958 0.266705 0
M  V30 2992 N 291.186 -0.45159 -1.50991 0
M  V30 2993 C 292.149 0.341117 -2.26647 0
M  V30 2994 C 293.149 0.937422 -1.30649 0
M  V30 2995 O 294.339 0.809644 -1.54241 0
M  V30 2996 C 291.471 1.48398 -3.06905 0
M  V30 2997 H 292.664 -0.322117 -2.98165 0
M  V30 2998 H 290.217 -0.205122 -1.54948 0
M  V30 2999 H 290.952 2.18284 -2.39838 0
M  V30 3000 H 290.737 1.06241 -3.77432 0
M  V30 3001 H 292.227 2.04367 -3.64176 0
M  V30 3002 N 292.664 1.56529 -0.183458 0
M  V30 3003 C 293.941 1.88959 0.50536 0
M  V30 3004 C 294.321 1.09523 1.80466 0
M  V30 3005 O 293.669 0.19278 2.27685 0
M  V30 3006 C 293.879 3.41162 0.73547 0
M  V30 3007 C 295.227 4.11155 1.06005 0
M  V30 3008 O 296.251 3.46548 0.823594 0
M  V30 3009 O 295.11 5.25318 1.50675 0
M  V30 3010 H 292.204 0.78441 0.261973 0
M  V30 3011 H 294.75 1.68231 -0.222802 0
M  V30 3012 H 293.522 3.90874 -0.182561 0
M  V30 3013 H 293.145 3.67543 1.51651 0
M  V30 3014 N 294.142 -0.090211 1.57342 0
M  V30 3015 C 295.388 -0.793982 1.86611 0
M  V30 3016 C 295.721 -1.78142 0.773252 0
M  V30 3017 O 294.996 -1.93271 -0.218304 0
M  V30 3018 C 295.279 -1.51839 3.26523 0
M  V30 3019 C 295.132 -0.548609 4.46442 0
M  V30 3020 C 296.451 -2.46779 3.64401 0
M  V30 3021 H 293.57 -0.287186 0.678744 0
M  V30 3022 H 296.212 -0.0575076 1.89913 0
M  V30 3023 H 294.362 -2.14617 3.23839 0
M  V30 3024 H 296.034 0.0725513 4.61243 0
M  V30 3025 H 294.277 0.137614 4.33582 0
M  V30 3026 H 294.948 -1.09271 5.41076 0
M  V30 3027 H 297.424 -1.94089 3.68061 0
M  V30 3028 H 296.3 -2.94479 4.63221 0
M  V30 3029 H 296.561 -3.30758 2.93346 0
M  V30 3030 N 295.62 -1.53406 -0.361157 0
M  V30 3031 C 296.869 -1.69022 -1.10066 0
M  V30 3032 C 297.182 -0.450838 -1.90333 0
M  V30 3033 O 298.388 -0.487617 -2.67085 0
M  V30 3034 C 296.844 -2.98812 -2.00598 0
M  V30 3035 C 296.452 -4.30027 -1.25621 0
M  V30 3036 C 298.196 -3.23795 -2.74513 0
M  V30 3037 C 296.103 -5.50903 -2.1508 0
M  V30 3038 H 295.033 -0.629776 -0.414606 0
M  V30 3039 H 297.684 -1.79907 -0.361348 0
M  V30 3040 H 296.066 -2.8174 -2.78278 0
M  V30 3041 H 297.24 -4.57745 -0.529739 0
M  V30 3042 H 295.555 -4.11522 -0.635496 0
M  V30 3043 H 298.152 -4.11289 -3.41681 0
M  V30 3044 H 298.495 -2.40045 -3.40123 0
M  V30 3045 H 299.028 -3.41561 -2.03914 0
M  V30 3046 H 295.767 -6.37143 -1.54041 0
M  V30 3047 H 295.287 -5.27459 -2.85565 0
M  V30 3048 H 296.966 -5.85865 -2.74538 0
M  V30 3049 N 297.098 0.621204 -1.44841 0
M  V30 3050 C 298.347 1.37658 -1.47422 0
M  V30 3051 C 298.66 1.95264 -0.114629 0
M  V30 3052 O 299.866 2.71494 -0.0180199 0
M  V30 3053 C 298.322 2.49285 -2.59586 0
M  V30 3054 C 297.93 1.98149 -4.01797 0
M  V30 3055 C 299.674 3.26409 -2.71399 0
M  V30 3056 C 297.581 3.07178 -5.05367 0
M  V30 3057 H 296.511 0.517344 -0.548517 0
M  V30 3058 H 299.162 0.667257 -1.70938 0
M  V30 3059 H 297.544 3.22839 -2.29328 0
M  V30 3060 H 298.718 1.31395 -4.41669 0
M  V30 3061 H 297.033 1.33812 -3.94314 0
M  V30 3062 H 299.63 4.07706 -3.45948 0
M  V30 3063 H 299.973 3.76535 -1.77559 0
M  V30 3064 H 300.506 2.5995 -3.01116 0
M  V30 3065 H 297.245 2.61985 -6.00869 0
M  V30 3066 H 296.765 3.72542 -4.70077 0
M  V30 3067 H 298.444 3.71789 -5.29511 0
M  V30 3068 N 298.576 1.31904 0.862503 0
M  V30 3069 C 299.804 1.24998 1.64873 0
M  V30 3070 C 300.219 -0.183425 1.87907 0
M  V30 3071 O 299.576 -1.11794 1.44251 0
M  V30 3072 C 299.627 1.99829 3.01248 0
M  V30 3073 O 299.348 3.37575 2.79239 0
M  V30 3074 C 300.849 1.99852 3.95694 0
M  V30 3075 H 298.069 0.431599 0.513773 0
M  V30 3076 H 300.613 1.73901 1.07604 0
M  V30 3077 H 298.768 1.54668 3.55185 0
M  V30 3078 H 299.182 3.75776 3.65914 0
M  V30 3079 H 300.656 2.56709 4.88676 0
M  V30 3080 H 301.133 0.982852 4.28062 0
M  V30 3081 H 301.739 2.44926 3.47694 0
M  V30 3082 N 300.054 -1.07777 1.14986 0
M  V30 3083 C 301.3 -1.80557 0.923422 0
M  V30 3084 C 301.633 -1.86298 -0.548337 0
M  V30 3085 O 300.908 -1.34354 -1.40639 0
M  V30 3086 C 301.191 -3.25839 1.53299 0
M  V30 3087 C 301.044 -3.28269 3.07505 0
M  V30 3088 C 302.363 -4.22991 1.21518 0
M  V30 3089 H 299.482 -0.655493 0.336894 0
M  V30 3090 H 302.124 -1.26144 1.42083 0
M  V30 3091 H 300.274 -3.72306 1.10999 0
M  V30 3092 H 301.946 -2.90079 3.58681 0
M  V30 3093 H 300.189 -2.67355 3.4162 0
M  V30 3094 H 300.86 -4.30691 3.45266 0
M  V30 3095 H 303.336 -3.84894 1.581 0
M  V30 3096 H 302.212 -5.22945 1.66793 0
M  V30 3097 H 302.473 -4.41904 0.131505 0
M  V30 3098 N 301.532 -0.945985 -1.26051 0
M  V30 3099 C 302.76 -0.613025 -1.9761 0
M  V30 3100 C 303.175 0.813035 -1.70397 0
M  V30 3101 O 302.532 1.54274 -0.974979 0
M  V30 3102 C 302.583 -0.85159 -3.51326 0
M  V30 3103 O 302.304 -2.22157 -3.77595 0
M  V30 3104 C 303.805 -0.529831 -4.40122 0
M  V30 3105 H 301.025 -0.230593 -0.630133 0
M  V30 3106 H 303.569 -1.268 -1.60443 0
M  V30 3107 H 301.724 -0.243151 -3.86636 0
M  V30 3108 H 302.138 -2.2852 -4.721 0
M  V30 3109 H 303.612 -0.747348 -5.46917 0
M  V30 3110 H 304.089 0.535341 -4.35925 0
M  V30 3111 H 304.695 -1.11721 -4.10364 0
M  V30 3112 N 303.011 1.40521 -0.713556 0
M  V30 3113 C 303.941 2.33381 -0.0743864 0
M  V30 3114 C 304.922 1.52784 0.747735 0
M  V30 3115 O 306.107 1.81258 0.697071 0
M  V30 3116 C 303.237 3.36748 0.849598 0
M  V30 3117 C 302.191 4.27793 0.133247 0
M  V30 3118 C 301.517 5.21679 1.17281 0
M  V30 3119 C 302.817 5.12415 -1.01134 0
M  V30 3120 H 304.511 2.87081 -0.850007 0
M  V30 3121 H 302.057 1.38034 -0.410201 0
M  V30 3122 H 304.01 4.00648 1.30612 0
M  V30 3123 H 302.734 2.81439 1.65709 0
M  V30 3124 H 301.393 3.65342 -0.303426 0
M  V30 3125 H 301.041 4.62677 1.9733 0
M  V30 3126 H 300.741 5.83435 0.698397 0
M  V30 3127 H 302.265 5.88456 1.62947 0
M  V30 3128 H 303.679 5.69781 -0.634274 0
M  V30 3129 H 302.076 5.83203 -1.41399 0
M  V30 3130 H 303.146 4.48514 -1.84292 0
M  V30 3131 N 304.489 0.459591 1.5075 0
M  V30 3132 C 305.452 -0.329093 2.26825 0
M  V30 3133 C 306.452 -0.930481 1.31144 0
M  V30 3134 O 307.642 -0.801453 1.54669 0
M  V30 3135 C 304.774 -1.46768 3.07688 0
M  V30 3136 H 305.967 0.337924 2.9799 0
M  V30 3137 H 303.52 0.213336 1.54837 0
M  V30 3138 H 304.255 -2.17009 2.40993 0
M  V30 3139 H 304.04 -1.04238 3.77991 0
M  V30 3140 H 305.53 -2.02433 3.65254 0
M  V30 3141 N 305.967 -1.56429 0.191757 0
M  V30 3142 C 307.195 -2.01867 -0.453586 0
M  V30 3143 C 307.61 -1.07191 -1.5542 0
M  V30 3144 O 306.967 -0.0762108 -1.82341 0
M  V30 3145 C 307.018 -3.47017 -1.013 0
M  V30 3146 O 306.739 -4.38078 0.0437005 0
M  V30 3147 C 308.24 -4.07956 -1.73456 0
M  V30 3148 H 305.46 -0.661211 -0.114199 0
M  V30 3149 H 308.004 -2.02295 0.299483 0
M  V30 3150 H 306.159 -3.47298 -1.71647 0
M  V30 3151 H 306.573 -5.23178 -0.372212 0
M  V30 3152 H 308.047 -5.1138 -2.07833 0
M  V30 3153 H 308.524 -3.51222 -2.63704 0
M  V30 3154 H 309.13 -4.11437 -1.07702 0
M  V30 3155 N 307.445 0.0818655 -1.57387 0
M  V30 3156 C 308.355 1.11642 -2.06333 0
M  V30 3157 C 309.371 1.43033 -0.99083 0
M  V30 3158 O 310.547 1.53411 -1.30488 0
M  V30 3159 C 307.612 2.41342 -2.48907 0
M  V30 3160 C 306.673 2.17014 -3.7041 0
M  V30 3161 C 305.906 3.4053 -4.10944 0
M  V30 3162 O 306.129 4.4927 -3.51444 0
M  V30 3163 O 305.063 3.29336 -5.03807 0
M  V30 3164 H 308.889 0.730657 -2.9478 0
M  V30 3165 H 306.474 0.295301 -1.46452 0
M  V30 3166 H 308.356 3.17691 -2.76858 0
M  V30 3167 H 307.031 2.79319 -1.63593 0
M  V30 3168 H 305.938 1.38403 -3.47556 0
M  V30 3169 H 307.271 1.83923 -4.56545 0
M  V30 3170 N 308.923 1.53595 0.353017 0
M  V30 3171 C 310.334 1.61937 0.929153 0
M  V30 3172 C 310.685 0.494686 1.89861 0
M  V30 3173 O 309.81 -0.377017 2.1309 0
M  V30 3174 C 310.405 2.93526 1.69199 0
M  V30 3175 C 308.964 3.04161 2.21727 0
M  V30 3176 C 308.111 2.57322 1.03348 0
M  V30 3177 H 311.062 1.58155 0.131431 0
M  V30 3178 H 311.083 2.82034 2.55416 0
M  V30 3179 H 310.595 3.75362 0.986144 0
M  V30 3180 H 308.696 2.26938 2.95516 0
M  V30 3181 H 308.809 4.09465 2.48748 0
M  V30 3182 H 307.173 2.12499 1.40414 0
M  V30 3183 H 307.956 3.41588 0.342428 0
M  V30 3184 N 310.401 -0.613514 1.45168 0
M  V30 3185 C 311.65 -1.36874 1.4815 0
M  V30 3186 C 311.963 -1.952 0.124982 0
M  V30 3187 O 313.169 -2.71481 0.0324176 0
M  V30 3188 C 311.625 -2.47905 2.60904 0
M  V30 3189 C 311.233 -1.96016 4.02842 0
M  V30 3190 C 312.977 -3.24965 2.73126 0
M  V30 3191 C 310.884 -3.04494 5.06988 0
M  V30 3192 H 309.814 -0.514428 0.551253 0
M  V30 3193 H 312.465 -0.658182 1.7129 0
M  V30 3194 H 310.847 -3.21618 2.31037 0
M  V30 3195 H 312.021 -1.29051 4.4236 0
M  V30 3196 H 310.336 -1.31719 3.95018 0
M  V30 3197 H 312.933 -4.05865 3.48106 0
M  V30 3198 H 313.276 -3.75588 1.79553 0
M  V30 3199 H 313.809 -2.5835 3.0249 0
M  V30 3200 H 310.548 -2.58795 6.0225 0
M  V30 3201 H 310.068 -3.70044 4.72046 0
M  V30 3202 H 311.747 -3.68976 5.31475 0
M  V30 3203 N 311.879 -1.3236 -0.855495 0
M  V30 3204 C 312.809 -1.23833 -1.97958 0
M  V30 3205 C 313.79 -0.122361 -1.69659 0
M  V30 3206 O 314.975 -0.30939 -1.9172 0
M  V30 3207 C 312.105 -0.959772 -3.33775 0
M  V30 3208 C 311.059 -2.03689 -3.76424 0
M  V30 3209 C 310.385 -1.61075 -5.09862 0
M  V30 3210 C 311.685 -3.4518 -3.9198 0
M  V30 3211 H 313.379 -2.1788 -2.0535 0
M  V30 3212 H 310.925 -1.04891 -0.986605 0
M  V30 3213 H 312.878 -0.886678 -4.11966 0
M  V30 3214 H 311.602 0.0163404 -3.26596 0
M  V30 3215 H 310.261 -2.10012 -3.00484 0
M  V30 3216 H 309.909 -0.622107 -4.99138 0
M  V30 3217 H 309.609 -2.33143 -5.39368 0
M  V30 3218 H 311.133 -1.55201 -5.90546 0
M  V30 3219 H 312.547 -3.4145 -4.60526 0
M  V30 3220 H 310.944 -4.1559 -4.32903 0
M  V30 3221 H 312.014 -3.84903 -2.94919 0
M  V30 3222 N 313.357 1.07166 -1.15556 0
M  V30 3223 C 314.604 1.79798 -0.931604 0
M  V30 3224 C 314.932 1.8682 0.54115 0
M  V30 3225 O 314.187 1.34942 1.41736 0
M  V30 3226 C 314.486 3.24707 -1.49332 0
M  V30 3227 C 314.152 3.37781 -2.98688 0
M  V30 3228 C 312.814 3.41057 -3.39461 0
M  V30 3229 C 315.166 3.40424 -3.94665 0
M  V30 3230 C 312.494 3.4458 -4.74849 0
M  V30 3231 C 314.846 3.45485 -5.29927 0
M  V30 3232 C 313.51 3.47039 -5.70193 0
M  V30 3233 H 312.78 0.657928 -0.340898 0
M  V30 3234 H 315.427 1.26091 -1.44129 0
M  V30 3235 H 313.732 3.81208 -0.904859 0
M  V30 3236 H 315.429 3.79486 -1.29582 0
M  V30 3237 H 312.019 3.35932 -2.66172 0
M  V30 3238 H 316.203 3.37113 -3.64237 0
M  V30 3239 H 311.459 3.44083 -5.05388 0
M  V30 3240 H 315.633 3.46476 -6.04092 0
M  V30 3241 H 313.26 3.49522 -6.75084 0
M  V30 3242 N 314.835 0.952656 1.25548 0
M  V30 3243 C 316.083 0.605176 1.92826 0
M  V30 3244 C 316.404 -0.860261 1.74999 0
M  V30 3245 O 315.674 -1.6125 1.11244 0
M  V30 3246 H 314.254 0.220832 0.713612 0
M  V30 3247 H 316.916 1.21047 1.52754 0
M  V30 3248 H 316.012 0.832798 3.00784 0
M  V30 3249 N 316.313 -1.40141 0.720998 0
M  V30 3250 C 317.223 -2.34486 0.0731031 0
M  V30 3251 C 318.239 -1.57587 -0.737723 0
M  V30 3252 O 319.415 -1.89949 -0.669429 0
M  V30 3253 C 316.48 -3.36528 -0.833656 0
M  V30 3254 C 315.541 -4.29298 -0.0121673 0
M  V30 3255 C 314.774 -5.26466 -0.875742 0
M  V30 3256 O 314.997 -5.29745 -2.11485 0
M  V30 3257 O 313.931 -6.01092 -0.31185 0
M  V30 3258 H 317.757 -2.9152 0.851444 0
M  V30 3259 H 315.342 -1.41427 0.481527 0
M  V30 3260 H 317.224 -3.99093 -1.35289 0
M  V30 3261 H 315.899 -2.81899 -1.59105 0
M  V30 3262 H 314.806 -3.70001 0.552262 0
M  V30 3263 H 316.139 -4.87094 0.707129 0
M  V30 3264 N 317.792 -0.46758 -1.50504 0
M  V30 3265 C 319.038 0.0808869 -2.03239 0
M  V30 3266 C 319.393 1.37721 -1.34353 0
M  V30 3267 O 318.686 1.86016 -0.459194 0
M  V30 3268 C 318.88 0.323995 -3.55928 0
M  V30 3269 C 318.709 -0.947215 -4.39611 0
M  V30 3270 C 317.479 -1.48951 -4.82848 0
M  V30 3271 C 319.677 -1.84166 -4.80195 0
M  V30 3272 N 317.659 -2.71011 -5.50842 0
M  V30 3273 C 319.03 -2.90815 -5.47564 0
M  V30 3274 C 321.085 -1.85246 -4.62156 0
M  V30 3275 C 319.788 -3.98529 -5.98805 0
M  V30 3276 C 321.814 -2.91914 -5.14335 0
M  V30 3277 C 321.176 -3.97282 -5.81676 0
M  V30 3278 H 317.275 -0.0103394 -0.781932 0
M  V30 3279 H 319.859 -0.635003 -1.84054 0
M  V30 3280 H 318.03 1.00892 -3.75067 0
M  V30 3281 H 319.762 0.866492 -3.95315 0
M  V30 3282 H 316.517 -1.03918 -4.62058 0
M  V30 3283 H 316.941 -3.32988 -5.89447 0
M  V30 3284 H 321.583 -1.05103 -4.09528 0
M  V30 3285 H 319.301 -4.79491 -6.50472 0
M  V30 3286 H 322.887 -2.93729 -5.0221 0
M  V30 3287 H 321.767 -4.78462 -6.21324 0
M  V30 3288 N 319.27 1.56325 -0.20005 0
M  V30 3289 C 320.516 1.98012 0.438059 0
M  V30 3290 C 320.849 1.08702 1.60927 0
M  V30 3291 O 320.124 0.140064 1.93995 0
M  V30 3292 C 320.407 3.48841 0.893419 0
M  V30 3293 C 320.26 4.48928 -0.279947 0
M  V30 3294 C 321.579 4.03498 1.75719 0
M  V30 3295 H 318.698 0.719918 0.157757 0
M  V30 3296 H 321.34 1.87743 -0.291968 0
M  V30 3297 H 319.49 3.57723 1.51547 0
M  V30 3298 H 321.162 4.52079 -0.91772 0
M  V30 3299 H 319.405 4.23694 -0.930919 0
M  V30 3300 H 320.076 5.5194 0.0812601 0
M  V30 3301 H 322.552 3.97427 1.23253 0
M  V30 3302 H 321.428 5.09393 2.04476 0
M  V30 3303 H 321.689 3.4906 2.71311 0
M  V30 3304 N 320.748 -0.0735177 1.57428 0
M  V30 3305 C 321.695 -1.08756 2.0357 0
M  V30 3306 C 322.665 -1.38559 0.916 0
M  V30 3307 O 323.85 -1.49656 1.18354 0
M  V30 3308 C 320.99 -2.39657 2.48311 0
M  V30 3309 C 320.103 -2.16399 3.73892 0
M  V30 3310 C 319.238 -3.40852 4.07423 0
M  V30 3311 C 318.277 -3.1295 5.2605 0
M  V30 3312 N 317.414 -4.29729 5.55228 0
M  V30 3313 H 322.254 -0.687104 2.8997 0
M  V30 3314 H 319.791 -0.327709 1.43403 0
M  V30 3315 H 321.749 -3.16081 2.72303 0
M  V30 3316 H 320.379 -2.77508 1.64891 0
M  V30 3317 H 319.431 -1.30676 3.57251 0
M  V30 3318 H 320.743 -1.91788 4.60455 0
M  V30 3319 H 319.897 -4.25671 4.32306 0
M  V30 3320 H 318.636 -3.68537 3.19425 0
M  V30 3321 H 317.641 -2.26526 5.00965 0
M  V30 3322 H 318.866 -2.86589 6.15665 0
M  V30 3323 H 316.812 -4.57448 4.70188 0
M  V30 3324 H 316.729 -4.08385 6.36206 0
M  V30 3325 H 317.997 -5.1555 5.84661 0
M  V30 3326 N 322.226 -1.5378 -0.344866 0
M  V30 3327 C 323.637 -1.62428 -0.920552 0
M  V30 3328 C 323.988 -0.504747 -1.89596 0
M  V30 3329 O 323.113 0.365711 -2.13287 0
M  V30 3330 C 323.708 -2.94419 -1.67639 0
M  V30 3331 C 322.267 -3.05333 -2.20111 0
M  V30 3332 C 321.414 -2.57866 -1.01982 0
M  V30 3333 H 324.365 -1.58222 -0.123042 0
M  V30 3334 H 324.386 -2.83384 -2.53917 0
M  V30 3335 H 323.898 -3.7588 -0.966224 0
M  V30 3336 H 321.999 -2.28502 -2.94308 0
M  V30 3337 H 322.112 -4.10778 -2.46573 0
M  V30 3338 H 320.476 -2.13241 -1.39285 0
M  V30 3339 H 321.259 -3.41765 -0.324308 0
M  V30 3340 N 323.704 0.605807 -1.45491 0
M  V30 3341 C 324.952 1.36207 -1.49305 0
M  V30 3342 C 325.273 1.94519 -0.136863 0
M  V30 3343 O 324.543 1.77261 0.833983 0
M  V30 3344 H 323.123 0.50565 -0.549843 0
M  V30 3345 H 325.785 0.711239 -1.81459 0
M  V30 3346 H 324.881 2.18058 -2.23287 0
M  V30 3347 N 325.182 1.32811 0.848464 0
M  V30 3348 C 326.145 1.22194 1.9391 0
M  V30 3349 C 327.145 0.143404 1.60159 0
M  V30 3350 O 328.335 0.394253 1.6968 0
M  V30 3351 C 325.467 0.88067 3.29328 0
M  V30 3352 H 326.66 2.19127 2.04752 0
M  V30 3353 H 324.213 1.16731 1.0394 0
M  V30 3354 H 324.948 -0.0865776 3.24184 0
M  V30 3355 H 324.733 1.66052 3.55203 0
M  V30 3356 H 326.223 0.830871 4.09251 0
M  V30 3357 N 326.66 -1.06551 1.16123 0
M  V30 3358 C 327.61 -2.12209 0.833736 0
M  V30 3359 C 328.594 -1.59825 -0.185656 0
M  V30 3360 O 329.786 -1.76994 0.0147906 0
M  V30 3361 C 326.915 -3.41674 0.333697 0
M  V30 3362 C 326.001 -4.00892 1.38372 0
M  V30 3363 N 326.392 -4.34256 2.59337 0
M  V30 3364 C 324.69 -4.28463 1.23836 0
M  V30 3365 C 325.391 -4.81291 3.26701 0
M  V30 3366 N 324.367 -4.80565 2.54083 0
M  V30 3367 H 328.169 -2.35849 1.75364 0
M  V30 3368 H 325.683 -1.24068 1.04789 0
M  V30 3369 H 327.68 -4.16822 0.0806918 0
M  V30 3370 H 326.34 -3.19475 -0.58017 0
M  V30 3371 H 327.351 -4.24687 2.96415 0
M  V30 3372 H 324.028 -4.15721 0.38504 0
M  V30 3373 H 325.418 -5.16332 4.29943 0
M  V30 3374 N 328.138 -0.959301 -1.25041 0
M  V30 3375 C 329.387 -0.612254 -1.92183 0
M  V30 3376 C 329.7 0.855347 -1.75907 0
M  V30 3377 O 330.906 1.31256 -2.37664 0
M  V30 3378 C 329.362 -1.04435 -3.44414 0
M  V30 3379 C 328.97 -2.53482 -3.69393 0
M  V30 3380 C 330.714 -0.770055 -4.17457 0
M  V30 3381 C 328.621 -2.90468 -5.15153 0
M  V30 3382 H 327.551 -0.225279 -0.719559 0
M  V30 3383 H 330.202 -1.16438 -1.41825 0
M  V30 3384 H 328.584 -0.4206 -3.9376 0
M  V30 3385 H 329.758 -3.20916 -3.30681 0
M  V30 3386 H 328.073 -2.78432 -3.0962 0
M  V30 3387 H 330.67 -1.02249 -5.24832 0
M  V30 3388 H 331.013 0.293611 -4.15263 0
M  V30 3389 H 331.546 -1.35437 -3.74034 0
M  V30 3390 H 328.285 -3.95871 -5.22462 0
M  V30 3391 H 327.805 -2.27711 -5.54894 0
M  V30 3392 H 329.484 -2.79914 -5.83315 0
M  V30 3393 N 329.616 1.39756 -0.72842 0
M  V30 3394 C 330.564 2.32485 -0.0731849 0
M  V30 3395 C 331.558 1.52717 0.733063 0
M  V30 3396 O 332.764 1.68428 0.634988 0
M  V30 3397 H 329.139 0.751984 -0.00486469 0
M  V30 3398 H 331.11 2.85382 -0.871761 0
M  V30 3399 C 329.859 3.37773 0.824908 0
M  V30 3400 H 329.182 3.99227 0.213915 0
M  V30 3401 H 330.622 4.05121 1.25111 0
M  V30 3402 C 329.081 2.74287 1.95622 0
M  V30 3403 O 329.611 2.61618 3.04826 0
M  V30 3404 N 327.817 2.32475 1.74367 0
M  V30 3405 H 327.364 2.4298 0.855494 0
M  V30 3406 H 327.322 1.90337 2.50238 0
M  V30 3407 N 331.094 0.475555 1.50254 0
M  V30 3408 C 332.057 -0.305016 2.27161 0
M  V30 3409 C 333.057 -0.916519 1.32123 0
M  V30 3410 O 334.247 -0.785003 1.5551 0
M  V30 3411 C 331.379 -1.43496 3.09227 0
M  V30 3412 H 332.572 0.369511 2.97615 0
M  V30 3413 H 330.125 0.229747 1.54602 0
M  V30 3414 H 330.86 -2.14441 2.43281 0
M  V30 3415 H 330.645 -1.00223 3.79075 0
M  V30 3416 H 332.135 -1.98548 3.67381 0
M  V30 3417 N 332.573 -1.56217 0.208337 0
M  V30 3418 C 333.819 -1.98242 -0.427552 0
M  V30 3419 C 334.152 -1.09554 -1.60348 0
M  V30 3420 O 333.427 -0.15035 -1.93918 0
M  V30 3421 C 333.71 -3.4931 -0.874907 0
M  V30 3422 C 333.563 -4.48773 0.303751 0
M  V30 3423 C 334.882 -4.04424 -1.73577 0
M  V30 3424 H 332.001 -0.720744 -0.153936 0
M  V30 3425 H 334.643 -1.87586 0.30192 0
M  V30 3426 H 332.793 -3.58522 -1.49648 0
M  V30 3427 H 334.465 -4.51586 0.941682 0
M  V30 3428 H 332.708 -4.23194 0.953375 0
M  V30 3429 H 333.379 -5.51976 -0.0519883 0
M  V30 3430 H 335.855 -3.98075 -1.21143 0
M  V30 3431 H 334.731 -5.1047 -2.01771 0
M  V30 3432 H 334.992 -3.50494 -2.69456 0
M  V30 3433 N 334.051 0.0651679 -1.57465 0
M  V30 3434 C 335.299 0.761555 -1.87202 0
M  V30 3435 C 335.62 1.77778 -0.801243 0
M  V30 3436 O 334.89 1.95166 0.16937 0
M  V30 3437 H 333.47 0.284251 -0.690804 0
M  V30 3438 H 336.132 0.0396827 -1.9486 0
M  V30 3439 H 335.228 1.27365 -2.84929 0
M  V30 3440 N 335.529 1.53961 0.336706 0
M  V30 3441 C 336.492 1.81724 1.39675 0
M  V30 3442 C 337.492 0.688532 1.45313 0
M  V30 3443 O 338.682 0.956829 1.45569 0
M  V30 3444 C 335.814 1.96543 2.78538 0
M  V30 3445 H 337.007 2.76424 1.16318 0
M  V30 3446 H 334.56 1.45478 0.571474 0
M  V30 3447 H 335.295 1.0401 3.07168 0
M  V30 3448 H 335.08 2.78665 2.75841 0
M  V30 3449 H 336.57 2.19516 3.5525 0
M  V30 3450 N 337.007 -0.598083 1.45811 0
M  V30 3451 C 338.232 -1.3881 1.54099 0
M  V30 3452 C 338.657 -1.8726 0.177578 0
M  V30 3453 O 338.015 -1.6069 -0.839541 0
M  V30 3454 C 338.063 -2.56217 2.53743 0
M  V30 3455 O 337.167 -3.5716 2.06182 0
M  V30 3456 H 336.508 -0.414024 0.519115 0
M  V30 3457 H 339.038 -0.726971 1.91249 0
M  V30 3458 H 339.048 -3.03337 2.72856 0
M  V30 3459 H 337.723 -2.20303 3.5276 0
M  V30 3460 H 336.3 -3.16624 1.96987 0
M  V30 3461 N 338.485 -1.33259 -0.841409 0
M  V30 3462 C 339.901 -1.12538 -1.13169 0
M  V30 3463 C 340.101 0.0854037 -2.01319 0
M  V30 3464 O 339.157 0.766417 -2.40587 0
M  V30 3465 C 340.47 -2.41156 -1.79623 0
M  V30 3466 C 342.018 -2.47038 -1.922 0
M  V30 3467 C 342.493 -3.7561 -2.6207 0
M  V30 3468 N 343.984 -3.76667 -2.69585 0
M  V30 3469 C 344.719 -4.72861 -3.2433 0
M  V30 3470 N 344.215 -5.79428 -3.79783 0
M  V30 3471 N 346.008 -4.6034 -3.22558 0
M  V30 3472 H 338.159 -2.10868 -0.254676 0
M  V30 3473 H 340.422 -0.931615 -0.175493 0
M  V30 3474 H 340.128 -3.29747 -1.22311 0
M  V30 3475 H 340.002 -2.53114 -2.79666 0
M  V30 3476 H 342.389 -1.58898 -2.48667 0
M  V30 3477 H 342.47 -2.39022 -0.911148 0
M  V30 3478 H 342.114 -4.64131 -2.06263 0
M  V30 3479 H 342.044 -3.80902 -3.63622 0
M  V30 3480 H 344.535 -2.99648 -2.30259 0
M  V30 3481 H 344.848 -6.48867 -4.19752 0
M  V30 3482 H 343.193 -5.83166 -3.78078 0
M  V30 3483 H 346.384 -3.76244 -2.78492 0
M  V30 3484 H 346.557 -5.35478 -3.64921 0
M  V30 3485 N 339.963 1.05934 -1.16686 0
M  V30 3486 C 341.374 1.60263 -0.957745 0
M  V30 3487 C 341.725 1.89789 0.49745 0
M  V30 3488 O 340.85 1.67401 1.37135 0
M  V30 3489 C 341.445 2.91172 -1.73218 0
M  V30 3490 C 340.004 3.42188 -1.56794 0
M  V30 3491 C 339.151 2.16028 -1.73859 0
M  V30 3492 H 342.102 0.888392 -1.31504 0
M  V30 3493 H 342.123 3.60744 -1.21014 0
M  V30 3494 H 341.635 2.6965 -2.79124 0
M  V30 3495 H 339.736 3.68762 -0.533437 0
M  V30 3496 H 339.849 4.17273 -2.35414 0
M  V30 3497 H 338.213 2.26426 -1.16633 0
M  V30 3498 H 338.996 1.96985 -2.81161 0
M  V30 3499 N 341.441 0.965919 1.2453 0
M  V30 3500 C 342.718 0.543777 1.87889 0
M  V30 3501 C 343.098 -0.97909 1.87021 0
M  V30 3502 O 342.446 -1.84969 1.3416 0
M  V30 3503 C 342.656 1.13327 3.30088 0
M  V30 3504 C 344.004 1.21707 4.06783 0
M  V30 3505 O 345.028 1.08566 3.39252 0
M  V30 3506 O 343.887 1.42456 5.27606 0
M  V30 3507 H 340.981 0.181054 0.806938 0
M  V30 3508 H 343.527 1.06007 1.32516 0
M  V30 3509 H 342.299 2.17612 3.25209 0
M  V30 3510 H 341.922 0.600911 3.93033 0
M  V30 3511 N 342.919 -1.39368 0.735821 0
M  V30 3512 C 344.165 -2.01272 0.293439 0
M  V30 3513 C 344.52 -1.57344 -1.10728 0
M  V30 3514 O 343.813 -0.792744 -1.74431 0
M  V30 3515 C 344.007 -3.5583 0.334651 0
M  V30 3516 C 343.836 -4.14764 1.73784 0
M  V30 3517 C 342.606 -4.47315 2.35026 0
M  V30 3518 C 344.804 -4.38246 2.69157 0
M  V30 3519 N 342.786 -4.91756 3.6749 0
M  V30 3520 C 344.157 -4.849 3.86357 0
M  V30 3521 C 346.212 -4.20315 2.66908 0
M  V30 3522 C 344.915 -5.15505 5.01645 0
M  V30 3523 C 346.941 -4.52033 3.8134 0
M  V30 3524 C 346.303 -4.98895 4.97276 0
M  V30 3525 H 342.402 -0.766756 0.153652 0
M  V30 3526 H 344.986 -1.69276 0.961967 0
M  V30 3527 H 343.157 -3.87212 -0.303527 0
M  V30 3528 H 344.889 -4.04503 -0.126358 0
M  V30 3529 H 341.644 -4.35143 1.86943 0
M  V30 3530 H 342.068 -5.18333 4.35499 0
M  V30 3531 H 346.71 -3.83287 1.78468 0
M  V30 3532 H 344.428 -5.51437 5.90713 0
M  V30 3533 H 348.014 -4.39781 3.80899 0
M  V30 3534 H 346.894 -5.22973 5.84353 0
M  V30 3535 N 344.397 -0.483516 -1.5 0
M  V30 3536 C 345.813 -0.138404 -1.58999 0
M  V30 3537 C 346.013 1.35597 -1.4905 0
M  V30 3538 O 345.069 2.13039 -1.35539 0
M  V30 3539 C 346.382 -0.699658 -2.92447 0
M  V30 3540 C 347.93 -0.664195 -3.05872 0
M  V30 3541 C 348.405 -1.20321 -4.41913 0
M  V30 3542 N 349.896 -1.16315 -4.48358 0
M  V30 3543 C 350.631 -1.55058 -5.52037 0
M  V30 3544 N 350.127 -2.01311 -6.62907 0
M  V30 3545 N 351.92 -1.46584 -5.42651 0
M  V30 3546 H 344.071 -1.45529 -1.5471 0
M  V30 3547 H 346.334 -0.60258 -0.731848 0
M  V30 3548 H 346.04 -1.747 -3.05242 0
M  V30 3549 H 345.914 -0.150194 -3.76901 0
M  V30 3550 H 348.301 0.374272 -2.92717 0
M  V30 3551 H 348.382 -1.25061 -2.23144 0
M  V30 3552 H 348.026 -2.24037 -4.55818 0
M  V30 3553 H 347.956 -0.592896 -5.23252 0
M  V30 3554 H 350.447 -0.824058 -3.68806 0
M  V30 3555 H 350.76 -2.2899 -7.38095 0
M  V30 3556 H 349.105 -2.05273 -6.63994 0
M  V30 3557 H 352.296 -1.10281 -4.54924 0
M  V30 3558 H 352.469 -1.77103 -6.23329 0
M  V30 3559 N 345.875 1.56104 -0.216619 0
M  V30 3560 C 346.785 2.23694 0.706982 0
M  V30 3561 C 347.801 1.24295 1.21765 0
M  V30 3562 O 348.977 1.57094 1.2603 0
M  V30 3563 C 346.042 2.8998 1.90033 0
M  V30 3564 C 345.103 4.04708 1.43213 0
M  V30 3565 C 344.336 4.67824 2.56859 0
M  V30 3566 O 344.559 4.29913 3.74874 0
M  V30 3567 O 343.493 5.56905 2.28343 0
M  V30 3568 H 347.319 3.03272 0.161235 0
M  V30 3569 H 344.904 1.49394 0.0136177 0
M  V30 3570 H 346.786 3.31837 2.59735 0
M  V30 3571 H 345.461 2.13365 2.43428 0
M  V30 3572 H 344.368 3.6743 0.70327 0
M  V30 3573 H 345.701 4.83051 0.944615 0
M  V30 3574 N 347.353 -0.0568162 1.57498 0
M  V30 3575 C 348.283 -1.06593 2.0775 0
M  V30 3576 C 349.264 -1.39448 0.974082 0
M  V30 3577 O 350.449 -1.48815 1.24771 0
M  V30 3578 C 347.579 -2.37509 2.5339 0
M  V30 3579 C 346.533 -2.1897 3.67745 0
M  V30 3580 C 345.859 -3.55402 3.99492 0
M  V30 3581 C 347.159 -1.59859 4.97235 0
M  V30 3582 H 348.853 -0.647706 2.9231 0
M  V30 3583 H 346.399 -0.310116 1.40621 0
M  V30 3584 H 348.352 -3.08409 2.87162 0
M  V30 3585 H 347.076 -2.8134 1.65878 0
M  V30 3586 H 345.735 -1.50508 3.3428 0
M  V30 3587 H 345.383 -3.9683 3.09088 0
M  V30 3588 H 345.083 -3.43831 4.76502 0
M  V30 3589 H 346.607 -4.27708 4.35773 0
M  V30 3590 H 348.021 -2.20642 5.29141 0
M  V30 3591 H 346.418 -1.58942 5.78669 0
M  V30 3592 H 347.488 -0.561506 4.81638 0
M  V30 3593 N 348.832 -1.54138 -0.328536 0
M  V30 3594 C 350.109 -1.62749 -1.08499 0
M  V30 3595 C 350.489 -0.458198 -2.06067 0
M  V30 3596 O 349.837 0.548046 -2.2183 0
M  V30 3597 C 350.047 -2.99519 -1.79135 0
M  V30 3598 C 351.395 -3.55394 -2.32337 0
M  V30 3599 O 352.419 -3.01792 -1.89209 0
M  V30 3600 O 351.278 -4.49186 -3.11279 0
M  V30 3601 H 348.372 -0.65886 -0.499832 0
M  V30 3602 H 350.918 -1.66484 -0.328826 0
M  V30 3603 H 349.69 -3.76061 -1.08139 0
M  V30 3604 H 349.313 -2.99441 -2.61574 0
M  V30 3605 N 350.31 0.590341 -1.46126 0
M  V30 3606 C 351.587 1.35029 -1.41515 0
M  V30 3607 C 351.967 2.10888 -0.0946472 0
M  V30 3608 O 351.315 2.08998 0.923693 0
M  V30 3609 C 351.525 2.28269 -2.63997 0
M  V30 3610 C 352.873 2.90338 -3.09821 0
M  V30 3611 O 353.897 2.38585 -2.64492 0
M  V30 3612 O 352.756 3.84321 -3.88535 0
M  V30 3613 H 349.85 0.606317 -0.562413 0
M  V30 3614 H 352.396 0.611994 -1.58281 0
M  V30 3615 H 351.168 1.71591 -3.51671 0
M  V30 3616 H 350.791 3.0945 -2.49652 0
M  V30 3617 N 351.788 1.33704 0.83433 0
M  V30 3618 C 352.698 1.26382 1.97648 0
M  V30 3619 C 353.714 0.173548 1.73132 0
M  V30 3620 O 354.89 0.397962 1.97429 0
M  V30 3621 C 351.955 1.00769 3.31733 0
M  V30 3622 C 351.016 2.1884 3.69334 0
M  V30 3623 C 350.249 1.9444 4.9702 0
M  V30 3624 O 350.472 0.896961 5.63303 0
M  V30 3625 O 349.406 2.81093 5.32231 0
M  V30 3626 H 353.232 2.22444 2.06767 0
M  V30 3627 H 350.817 1.13795 0.968037 0
M  V30 3628 H 352.699 0.882186 4.12062 0
M  V30 3629 H 351.374 0.0773783 3.23608 0
M  V30 3630 H 350.281 2.36946 2.89495 0
M  V30 3631 H 351.614 3.10221 3.82131 0
M  V30 3632 N 353.266 -1.05314 1.17247 0
M  V30 3633 C 354.196 -2.1498 0.911362 0
M  V30 3634 C 355.177 -1.69471 -0.146169 0
M  V30 3635 O 356.362 -1.942 0.003812 0
M  V30 3636 C 353.492 -3.4472 0.422528 0
M  V30 3637 C 352.446 -4.03789 1.4191 0
M  V30 3638 C 351.772 -5.28858 0.788274 0
M  V30 3639 C 353.072 -4.41418 2.7919 0
M  V30 3640 H 354.766 -2.3708 1.82848 0
M  V30 3641 H 352.312 -1.13938 0.880569 0
M  V30 3642 H 354.265 -4.20787 0.227289 0
M  V30 3643 H 352.989 -3.22269 -0.530123 0
M  V30 3644 H 351.648 -3.2979 1.60106 0
M  V30 3645 H 351.296 -5.02709 -0.171173 0
M  V30 3646 H 350.996 -5.69338 1.45353 0
M  V30 3647 H 352.52 -6.07612 0.603282 0
M  V30 3648 H 353.934 -5.08524 2.64719 0
M  V30 3649 H 352.331 -4.92913 3.42282 0
M  V30 3650 H 353.401 -3.51819 3.33693 0
M  V30 3651 N 354.744 -0.972509 -1.24016 0
M  V30 3652 C 355.677 -0.45117 -2.23696 0
M  V30 3653 C 356.655 0.477378 -1.55434 0
M  V30 3654 O 357.839 0.407647 -1.84039 0
M  V30 3655 C 354.966 0.34818 -3.36906 0
M  V30 3656 C 354.012 -0.523355 -4.23277 0
M  V30 3657 S 354.845 -1.96647 -4.98087 0
M  V30 3658 C 356.001 -1.17604 -6.14752 0
M  V30 3659 H 356.234 -1.29588 -2.67571 0
M  V30 3660 H 353.767 -0.777903 -1.33372 0
M  V30 3661 H 355.725 0.803387 -4.02562 0
M  V30 3662 H 354.386 1.16792 -2.91579 0
M  V30 3663 H 353.579 0.0906181 -5.03919 0
M  V30 3664 H 353.181 -0.914485 -3.62647 0
M  V30 3665 H 355.473 -0.433434 -6.76112 0
M  V30 3666 H 356.416 -1.95701 -6.8052 0
M  V30 3667 H 356.824 -0.698295 -5.60164 0
M  V30 3668 N 356.222 1.38976 -0.743202 0
M  V30 3669 C 357.169 2.30544 -0.10861 0
M  V30 3670 C 358.139 1.49642 0.720869 0
M  V30 3671 O 359.324 1.78304 0.679142 0
M  V30 3672 C 356.464 3.36018 0.786496 0
M  V30 3673 C 355.577 4.31963 -0.0564849 0
M  V30 3674 C 354.712 5.24506 0.840657 0
M  V30 3675 C 353.751 6.121 -0.00658363 0
M  V30 3676 N 352.888 6.96973 0.846943 0
M  V30 3677 H 357.728 2.8424 -0.895088 0
M  V30 3678 H 355.265 1.3995 -0.453048 0
M  V30 3679 H 357.223 3.95768 1.31999 0
M  V30 3680 H 355.853 2.83758 1.53887 0
M  V30 3681 H 354.905 3.73763 -0.707492 0
M  V30 3682 H 356.217 4.93703 -0.711229 0
M  V30 3683 H 355.371 5.89322 1.4417 0
M  V30 3684 H 354.11 4.63107 1.52916 0
M  V30 3685 H 353.115 5.46289 -0.620366 0
M  V30 3686 H 354.34 6.75565 -0.691992 0
M  V30 3687 H 352.286 6.38133 1.52059 0
M  V30 3688 H 352.203 7.5559 0.248864 0
M  V30 3689 H 353.471 7.6621 1.43328 0
M  V30 3690 N 357.7 0.491464 1.49741 0
M  V30 3691 C 358.61 -0.296835 2.32715 0
M  V30 3692 C 359.626 -0.976536 1.44013 0
M  V30 3693 O 360.802 -0.960023 1.77047 0
M  V30 3694 C 357.867 -1.35288 3.19215 0
M  V30 3695 C 356.928 -0.687632 4.23757 0
M  V30 3696 C 356.161 -1.69336 5.06123 0
M  V30 3697 O 356.384 -2.92219 4.89861 0
M  V30 3698 O 355.318 -1.25394 5.88693 0
M  V30 3699 H 359.144 0.382048 3.01287 0
M  V30 3700 H 356.729 0.252953 1.47243 0
M  V30 3701 H 358.611 -1.96411 3.72828 0
M  V30 3702 H 357.286 -2.01487 2.53347 0
M  V30 3703 H 356.193 -0.0369159 3.74082 0
M  V30 3704 H 357.526 -0.0682566 4.92153 0
M  V30 3705 N 359.178 -1.55987 0.224894 0
M  V30 3706 C 360.141 -2.19178 -0.670348 0
M  V30 3707 C 361.141 -1.15461 -1.11917 0
M  V30 3708 O 362.331 -1.40675 -1.02743 0
M  V30 3709 C 359.463 -2.81777 -1.9187 0
M  V30 3710 H 360.656 -2.99662 -0.119364 0
M  V30 3711 H 358.209 -1.5628 -0.0247128 0
M  V30 3712 H 358.944 -2.05172 -2.51147 0
M  V30 3713 H 358.729 -3.57732 -1.60531 0
M  V30 3714 H 360.219 -3.30205 -2.55645 0
M  V30 3715 N 360.656 0.0484629 -1.57525 0
M  V30 3716 C 361.902 0.744226 -1.88651 0
M  V30 3717 C 362.235 1.76029 -0.820212 0
M  V30 3718 O 361.51 1.93782 0.166985 0
M  V30 3719 C 361.793 1.43128 -3.30434 0
M  V30 3720 C 361.646 0.43005 -4.47739 0
M  V30 3721 C 362.965 2.37031 -3.70816 0
M  V30 3722 H 360.084 0.269089 -0.68612 0
M  V30 3723 H 362.726 0.00713532 -1.89999 0
M  V30 3724 H 360.876 2.05956 -3.29415 0
M  V30 3725 H 362.548 -0.194816 -4.60888 0
M  V30 3726 H 360.791 -0.252522 -4.33064 0
M  V30 3727 H 361.462 0.948874 -5.43783 0
M  V30 3728 H 363.938 1.84263 -3.73077 0
M  V30 3729 H 362.814 2.82094 -4.70865 0
M  V30 3730 H 363.075 3.22864 -3.02012 0
M  V30 3731 N 362.134 1.5431 0.320358 0
M  V30 3732 C 363.064 1.86912 1.3995 0
M  V30 3733 C 364.045 0.726211 1.53819 0
M  V30 3734 O 365.23 0.980233 1.67646 0
M  V30 3735 C 362.36 2.09932 2.7667 0
M  V30 3736 C 361.314 3.25776 2.77586 0
M  V30 3737 C 360.64 3.34173 4.17412 0
M  V30 3738 C 361.94 4.6335 2.41048 0
M  V30 3739 H 363.634 2.77292 1.12914 0
M  V30 3740 H 361.18 1.33421 0.541738 0
M  V30 3741 H 363.133 2.31324 3.52232 0
M  V30 3742 H 361.857 1.16304 3.0519 0
M  V30 3743 H 360.516 3.04276 2.04479 0
M  V30 3744 H 360.164 2.38098 4.43078 0
M  V30 3745 H 359.864 4.12033 4.18931 0
M  V30 3746 H 361.388 3.57803 4.94782 0
M  V30 3747 H 362.802 4.84602 3.06324 0
M  V30 3748 H 361.199 5.43782 2.53813 0
M  V30 3749 H 362.269 4.65381 1.36193 0
M  V30 3750 N 363.613 -0.582584 1.46437 0
M  V30 3751 C 364.843 -1.36484 1.55099 0
M  V30 3752 C 365.251 -1.88233 0.191056 0
M  V30 3753 O 364.594 -1.6429 -0.821858 0
M  V30 3754 C 364.656 -2.588 2.49525 0
M  V30 3755 C 364.32 -2.28517 3.95764 0
M  V30 3756 C 365.317 -1.87346 4.84972 0
M  V30 3757 C 363.002 -2.40658 4.40896 0
M  V30 3758 C 364.996 -1.5871 6.17325 0
M  V30 3759 C 362.683 -2.11635 5.73284 0
M  V30 3760 C 363.681 -1.70725 6.61318 0
M  V30 3761 O 363.369 -1.42057 7.91249 0
M  V30 3762 H 363.101 -0.423297 0.527063 0
M  V30 3763 H 365.655 -0.715188 1.92547 0
M  V30 3764 H 363.885 -3.26571 2.07095 0
M  V30 3765 H 365.574 -3.20868 2.48593 0
M  V30 3766 H 366.34 -1.77481 4.5136 0
M  V30 3767 H 362.219 -2.71463 3.72598 0
M  V30 3768 H 365.763 -1.26704 6.85997 0
M  V30 3769 H 361.66 -2.21124 6.06444 0
M  V30 3770 H 362.428 -1.55901 8.03515 0
M  V30 3771 N 365.091 -1.34144 -0.827227 0
M  V30 3772 C 366.337 -1.26446 -1.58554 0
M  V30 3773 C 366.67 0.1664 -1.93486 0
M  V30 3774 O 365.945 1.1107 -1.59667 0
M  V30 3775 C 366.228 -2.15111 -2.8879 0
M  V30 3776 C 366.081 -3.66712 -2.60465 0
M  V30 3777 C 367.4 -2.03311 -3.90324 0
M  V30 3778 H 364.519 -0.46067 -0.575284 0
M  V30 3779 H 367.161 -1.64356 -0.953269 0
M  V30 3780 H 365.311 -1.8291 -3.42748 0
M  V30 3781 H 366.983 -4.09259 -2.1285 0
M  V30 3782 H 365.226 -3.88014 -1.93978 0
M  V30 3783 H 365.897 -4.24112 -3.53317 0
M  V30 3784 H 368.373 -2.31574 -3.45706 0
M  V30 3785 H 367.249 -2.67582 -4.79261 0
M  V30 3786 H 367.51 -1.00879 -4.30437 0
M  V30 3787 N 366.569 1.04691 -1.17803 0
M  V30 3788 C 367.846 1.7472 -0.879328 0
M  V30 3789 C 368.226 2.01812 0.619271 0
M  V30 3790 O 367.574 1.65824 1.57209 0
M  V30 3791 C 367.784 3.03686 -1.71976 0
M  V30 3792 C 369.132 3.77542 -1.94286 0
M  V30 3793 O 370.156 3.13569 -1.68976 0
M  V30 3794 O 369.015 4.92506 -2.36855 0
M  V30 3795 H 366.109 0.760011 -0.326056 0
M  V30 3796 H 368.655 1.10813 -1.28525 0
M  V30 3797 H 367.427 2.79754 -2.73594 0
M  V30 3798 H 367.05 3.75332 -1.31194 0
M  V30 3799 N 368.047 0.979072 1.23499 0
M  V30 3800 C 369.272 0.664845 1.96455 0
M  V30 3801 C 369.697 -0.761287 1.72006 0
M  V30 3802 O 369.055 -1.51837 0.990713 0
M  V30 3803 C 369.103 0.959479 3.47601 0
M  V30 3804 O 368.207 0.0508168 4.12369 0
M  V30 3805 H 367.548 0.250185 0.615064 0
M  V30 3806 H 370.078 1.31231 1.5697 0
M  V30 3807 H 370.088 0.895642 3.98048 0
M  V30 3808 H 368.763 1.99876 3.64723 0
M  V30 3809 H 367.34 0.16895 3.72517 0
M  V30 3810 N 369.525 -1.3858 0.750561 0
M  V30 3811 C 370.457 -2.29057 0.0810714 0
M  V30 3812 C 371.47 -1.47596 -0.686973 0
M  V30 3813 O 372.659 -1.70495 -0.528563 0
M  V30 3814 C 369.759 -3.26475 -0.909247 0
M  V30 3815 C 368.932 -4.36945 -0.199478 0
M  V30 3816 C 367.991 -5.14572 -1.10011 0
M  V30 3817 O 367.017 -5.66321 -0.57177 0
M  V30 3818 N 368.219 -5.27262 -2.42849 0
M  V30 3819 H 370.984 -2.87153 0.858087 0
M  V30 3820 H 368.545 -1.50328 0.60109 0
M  V30 3821 H 370.537 -3.75285 -1.51471 0
M  V30 3822 H 369.107 -2.69298 -1.58736 0
M  V30 3823 H 368.327 -3.8981 0.586664 0
M  V30 3824 H 369.615 -5.07963 0.291783 0
M  V30 3825 H 369.013 -4.86763 -2.88233 0
M  V30 3826 H 367.57 -5.79456 -2.98453 0
M  V30 3827 N 371.003 -0.499398 -1.49478 0
M  V30 3828 C 371.913 0.284489 -2.32869 0
M  V30 3829 C 372.929 0.968885 -1.44529 0
M  V30 3830 O 374.105 0.95062 -1.77553 0
M  V30 3831 C 371.17 1.33594 -3.19928 0
M  V30 3832 C 370.231 0.665149 -4.24116 0
M  V30 3833 C 369.464 1.6665 -5.07014 0
M  V30 3834 O 369.687 2.89618 -4.91404 0
M  V30 3835 O 368.621 1.22271 -5.8935 0
M  V30 3836 H 372.447 -0.39802 -3.01081 0
M  V30 3837 H 370.032 -0.260758 -1.47107 0
M  V30 3838 H 371.914 1.94431 -3.73864 0
M  V30 3839 H 370.589 2.0014 -2.54412 0
M  V30 3840 H 369.496 0.0170769 -3.74096 0
M  V30 3841 H 370.829 0.0421555 -4.92182 0
M  V30 3842 N 372.481 1.55866 -0.233164 0
M  V30 3843 C 373.444 2.1953 0.658715 0
M  V30 3844 C 374.444 1.16053 1.11303 0
M  V30 3845 O 375.634 1.41218 1.01996 0
M  V30 3846 C 372.766 2.82791 1.90373 0
M  V30 3847 H 373.959 2.99721 0.10347 0
M  V30 3848 H 371.512 1.56291 0.0164245 0
M  V30 3849 H 372.247 2.06501 2.50056 0
M  V30 3850 H 372.032 3.58578 1.58632 0
M  V30 3851 H 373.522 3.31556 2.53891 0
M  V30 3852 N 373.959 -0.0401083 1.57549 0
M  V30 3853 C 374.922 -1.02871 2.04817 0
M  V30 3854 C 375.922 -1.29708 0.950388 0
M  V30 3855 O 377.112 -1.24897 1.21435 0
M  V30 3856 C 374.244 -2.36443 2.45576 0
M  V30 3857 H 375.437 -0.620631 2.93408 0
M  V30 3858 H 372.99 -0.286667 1.53649 0
M  V30 3859 H 373.725 -2.82021 1.60108 0
M  V30 3860 H 373.51 -2.18296 3.25713 0
M  V30 3861 H 375 -3.07441 2.82612 0
M  V30 3862 N 375.437 -1.54477 -0.31217 0
M  V30 3863 C 376.367 -1.87652 -1.38957 0
M  V30 3864 C 377.348 -0.734358 -1.53431 0
M  V30 3865 O 378.533 -0.98911 -1.67123 0
M  V30 3866 C 375.663 -2.11396 -2.75552 0
M  V30 3867 C 374.617 -3.27243 -2.75855 0
M  V30 3868 C 373.943 -3.36382 -4.15633 0
M  V30 3869 C 375.243 -4.64622 -2.38587 0
M  V30 3870 H 376.937 -2.77887 -1.11442 0
M  V30 3871 H 374.483 -1.33707 -0.534655 0
M  V30 3872 H 376.436 -2.33189 -3.51 0
M  V30 3873 H 375.16 -1.17921 -3.04569 0
M  V30 3874 H 373.819 -3.05356 -2.02863 0
M  V30 3875 H 373.467 -2.40445 -4.41809 0
M  V30 3876 H 373.167 -4.14249 -4.1674 0
M  V30 3877 H 374.691 -3.60422 -4.92877 0
M  V30 3878 H 376.105 -4.86219 -3.03749 0
M  V30 3879 H 374.502 -5.45121 -2.50925 0
M  V30 3880 H 375.572 -4.66097 -1.33723 0
M  V30 3881 N 376.915 0.57481 -1.46744 0
M  V30 3882 C 377.862 1.68329 -1.57905 0
M  V30 3883 C 378.832 1.60625 -0.422927 0
M  V30 3884 O 380.017 1.79721 -0.640711 0
M  V30 3885 C 377.157 3.06665 -1.58274 0
M  V30 3886 C 376.27 3.24935 -2.84678 0
M  V30 3887 C 375.405 4.53566 -2.76499 0
M  V30 3888 C 374.444 4.65207 -3.97806 0
M  V30 3889 N 373.581 5.85172 -3.87967 0
M  V30 3890 H 378.421 1.58127 -2.52587 0
M  V30 3891 H 375.958 0.770552 -1.25303 0
M  V30 3892 H 377.916 3.86745 -1.56473 0
M  V30 3893 H 376.546 3.15745 -0.671194 0
M  V30 3894 H 375.598 2.38405 -2.96424 0
M  V30 3895 H 376.91 3.29403 -3.7456 0
M  V30 3896 H 376.064 5.41885 -2.72848 0
M  V30 3897 H 374.803 4.51548 -1.8427 0
M  V30 3898 H 373.808 3.75304 -4.0178 0
M  V30 3899 H 375.033 4.68997 -4.9114 0
M  V30 3900 H 372.979 5.84137 -2.98529 0
M  V30 3901 H 372.896 5.90943 -4.71511 0
M  V30 3902 H 374.164 6.759 -3.88303 0
M  V30 3903 N 378.394 1.34581 0.820102 0
M  V30 3904 C 379.304 1.28471 1.96297 0
M  V30 3905 C 380.32 0.191902 1.72939 0
M  V30 3906 O 381.496 0.418879 1.96996 0
M  V30 3907 C 378.561 1.04281 3.30645 0
M  V30 3908 C 377.622 2.22745 3.66992 0
M  V30 3909 C 376.855 1.997 4.9493 0
M  V30 3910 O 377.078 0.956656 5.6232 0
M  V30 3911 O 376.012 2.86723 5.2922 0
M  V30 3912 H 379.838 2.24624 2.04396 0
M  V30 3913 H 377.423 1.14816 0.955913 0
M  V30 3914 H 379.305 0.925841 4.11104 0
M  V30 3915 H 377.98 0.111697 3.23507 0
M  V30 3916 H 376.887 2.40003 2.86966 0
M  V30 3917 H 378.22 3.14257 3.78819 0
M  V30 3918 N 379.872 -1.04064 1.18357 0
M  V30 3919 C 381.097 -1.81454 1.00445 0
M  V30 3920 C 381.522 -1.82823 -0.442423 0
M  V30 3921 O 380.88 -1.24555 -1.31741 0
M  V30 3922 C 380.928 -3.24925 1.56384 0
M  V30 3923 O 380.032 -4.04856 0.785209 0
M  V30 3924 H 379.373 -0.560604 0.355835 0
M  V30 3925 H 381.903 -1.31059 1.57114 0
M  V30 3926 H 381.913 -3.75702 1.59097 0
M  V30 3927 H 380.588 -3.23244 2.61699 0
M  V30 3928 H 379.165 -3.63537 0.830399 0
M  V30 3929 N 381.35 -0.985608 -1.22978 0
M  V30 3930 C 382.598 -0.656087 -1.91154 0
M  V30 3931 C 382.919 0.813561 -1.77218 0
M  V30 3932 O 382.189 1.58244 -1.1548 0
M  V30 3933 H 380.769 -0.239674 -0.707506 0
M  V30 3934 H 383.431 -1.25054 -1.49491 0
M  V30 3935 H 382.527 -0.912253 -2.9847 0
M  V30 3936 N 382.828 1.3818 -0.7579 0
M  V30 3937 C 384.105 1.94106 -0.241306 0
M  V30 3938 C 384.485 1.69282 1.26122 0
M  V30 3939 O 383.833 1.03378 2.03777 0
M  V30 3940 C 384.043 3.43809 -0.59967 0
M  V30 3941 C 385.391 4.20868 -0.561717 0
M  V30 3942 O 386.415 3.5211 -0.538222 0
M  V30 3943 O 385.274 5.43451 -0.576478 0
M  V30 3944 H 382.368 0.825376 -0.0518042 0
M  V30 3945 H 384.914 1.47548 -0.838315 0
M  V30 3946 H 383.686 3.55403 -1.6372 0
M  V30 3947 H 383.309 3.97592 0.0251197 0
M  V30 3948 N 384.306 0.507319 1.49211 0
M  V30 3949 C 385.552 -0.0350047 2.0277 0
M  V30 3950 C 385.885 -1.3606 1.38569 0
M  V30 3951 O 385.16 -1.87321 0.523542 0
M  V30 3952 C 385.443 -0.180916 3.59645 0
M  V30 3953 C 385.296 1.16825 4.34364 0
M  V30 3954 C 386.615 -0.918558 4.30407 0
M  V30 3955 H 383.734 -0.0112473 0.736914 0
M  V30 3956 H 386.376 0.659956 1.7817 0
M  V30 3957 H 384.526 -0.772826 3.80736 0
M  V30 3958 H 386.198 1.79952 4.24753 0
M  V30 3959 H 384.441 1.75594 3.96673 0
M  V30 3960 H 385.112 1.01939 5.42506 0
M  V30 3961 H 387.588 -0.41649 4.1401 0
M  V30 3962 H 386.464 -0.989505 5.39907 0
M  V30 3963 H 386.725 -1.96373 3.96093 0
M  V30 3964 N 385.784 -1.5574 0.241426 0
M  V30 3965 C 386.714 -2.24133 -0.654722 0
M  V30 3966 C 387.695 -1.21974 -1.1856 0
M  V30 3967 O 388.88 -1.50612 -1.22595 0
M  V30 3968 C 386.01 -2.93659 -1.85423 0
M  V30 3969 C 384.964 -4.0246 -1.45636 0
M  V30 3970 C 384.29 -4.59383 -2.73626 0
M  V30 3971 C 385.59 -5.18468 -0.631506 0
M  V30 3972 H 387.284 -2.99281 -0.0844353 0
M  V30 3973 H 384.83 -1.43947 -0.0391707 0
M  V30 3974 H 386.783 -3.40203 -2.48676 0
M  V30 3975 H 385.507 -2.15991 -2.44981 0
M  V30 3976 H 384.166 -3.56676 -0.847202 0
M  V30 3977 H 383.814 -3.78422 -3.3137 0
M  V30 3978 H 383.514 -5.32826 -2.4773 0
M  V30 3979 H 385.038 -5.08658 -3.37786 0
M  V30 3980 H 386.452 -5.61272 -1.1682 0
M  V30 3981 H 384.849 -5.98266 -0.468831 0
M  V30 3982 H 385.919 -4.8358 0.357506 0
M  V30 3983 N 387.262 0.0317525 -1.57568 0
M  V30 3984 C 388.192 1.03274 -2.0942 0
M  V30 3985 C 389.173 1.3788 -0.996143 0
M  V30 3986 O 390.358 1.46811 -1.27122 0
M  V30 3987 C 387.488 2.33448 -2.57137 0
M  V30 3988 C 386.442 2.13091 -3.71182 0
M  V30 3989 C 385.768 3.49001 -4.05095 0
M  V30 3990 C 387.068 1.51928 -4.99715 0
M  V30 3991 H 388.762 0.60112 -2.93303 0
M  V30 3992 H 386.308 0.287705 -1.41097 0
M  V30 3993 H 388.261 3.03802 -2.92032 0
M  V30 3994 H 386.985 2.78665 -1.70333 0
M  V30 3995 H 385.644 1.45171 -3.36632 0
M  V30 3996 H 385.292 3.91862 -3.15362 0
M  V30 3997 H 384.992 3.36207 -4.81911 0
M  V30 3998 H 386.516 4.20721 -4.42522 0
M  V30 3999 H 387.93 2.12196 -5.32584 0
M  V30 4000 H 386.327 1.49716 -5.81124 0
M  V30 4001 H 387.397 0.484811 -4.8247 0
M  V30 4002 N 388.74 1.54641 0.303973 0
M  V30 4003 C 389.965 1.78092 1.06292 0
M  V30 4004 C 390.39 0.537342 1.80262 0
M  V30 4005 O 389.748 -0.511993 1.7392 0
M  V30 4006 C 389.796 2.98612 2.02147 0
M  V30 4007 O 388.9 2.71528 3.10397 0
M  V30 4008 H 388.241 0.589548 0.305497 0
M  V30 4009 H 390.771 2.01716 0.3423 0
M  V30 4010 H 390.781 3.265 2.44667 0
M  V30 4011 H 389.456 3.88785 1.47714 0
M  V30 4012 H 388.033 2.54648 2.72413 0
M  V30 4013 N 390.218 -0.567019 1.47046 0
M  V30 4014 C 391.466 -1.322 1.52864 0
M  V30 4015 C 391.787 -1.94088 0.188388 0
M  V30 4016 O 391.057 -1.7941 -0.786693 0
M  V30 4017 H 389.637 -0.490894 0.563056 0
M  V30 4018 H 392.299 -0.662879 1.83281 0
M  V30 4019 H 391.395 -2.12062 2.2899 0
M  V30 4020 N 391.696 -1.35014 -0.812953 0
M  V30 4021 C 392.659 -1.27292 -1.90602 0
M  V30 4022 C 393.659 -0.185817 -1.59723 0
M  V30 4023 O 394.849 -0.439102 -1.68575 0
M  V30 4024 C 391.981 -0.967676 -3.26877 0
M  V30 4025 H 393.174 -2.24479 -1.9887 0
M  V30 4026 H 390.727 -1.19446 -1.00808 0
M  V30 4027 H 391.462 0.0005954 -3.243 0
M  V30 4028 H 391.247 -1.75412 -3.50675 0
M  V30 4029 H 392.737 -0.939085 -4.06904 0
M  V30 4030 N 393.175 1.03435 -1.18907 0
M  V30 4031 C 394.085 2.15075 -0.937015 0
M  V30 4032 C 395.101 1.73706 0.101085 0
M  V30 4033 O 396.277 2.01232 -0.0822948 0
M  V30 4034 C 393.342 3.43458 -0.473057 0
M  V30 4035 C 392.403 3.99172 -1.57989 0
M  V30 4036 C 391.636 5.21427 -1.13797 0
M  V30 4037 O 391.859 5.704 0.000725941 0
M  V30 4038 O 390.793 5.69837 -1.9383 0
M  V30 4039 H 394.619 2.39198 -1.87131 0
M  V30 4040 H 392.204 1.13506 -0.971427 0
M  V30 4041 H 394.086 4.20811 -0.222702 0
M  V30 4042 H 392.761 3.20793 0.432869 0
M  V30 4043 H 391.668 3.23178 -1.88433 0
M  V30 4044 H 393.001 4.2619 -2.46217 0
M  V30 4045 N 394.653 0.992116 1.22453 0
M  V30 4046 C 395.902 0.662992 1.90492 0
M  V30 4047 C 396.215 -0.808407 1.78113 0
M  V30 4048 O 397.421 -1.24908 2.41061 0
M  V30 4049 C 395.877 1.1353 3.41524 0
M  V30 4050 C 395.485 2.63187 3.62542 0
M  V30 4051 C 397.229 0.880465 4.15269 0
M  V30 4052 C 395.136 3.04024 5.0727 0
M  V30 4053 H 394.066 0.244278 0.713333 0
M  V30 4054 H 396.717 1.20157 1.38688 0
M  V30 4055 H 395.099 0.52485 3.92506 0
M  V30 4056 H 396.273 3.2957 3.22056 0
M  V30 4057 H 394.588 2.86543 3.02129 0
M  V30 4058 H 397.185 1.16128 5.21937 0
M  V30 4059 H 397.528 -0.183408 4.15896 0
M  V30 4060 H 398.061 1.45307 3.70312 0
M  V30 4061 H 394.8 4.09584 5.11782 0
M  V30 4062 H 394.32 2.42343 5.48662 0
M  V30 4063 H 395.999 2.95282 5.75689 0
M  V30 4064 N 396.131 -1.37776 0.765217 0
M  V30 4065 C 397.378 -1.99849 0.326588 0
M  V30 4066 C 397.706 -1.60746 -1.09504 0
M  V30 4067 O 396.961 -0.84202 -1.76659 0
M  V30 4068 C 397.26 -3.5504 0.410053 0
M  V30 4069 C 396.926 -4.13891 1.78899 0
M  V30 4070 C 395.588 -4.29678 2.16635 0
M  V30 4071 C 397.94 -4.46236 2.69301 0
M  V30 4072 C 395.268 -4.7511 3.44221 0
M  V30 4073 C 397.62 -4.93089 3.9629 0
M  V30 4074 C 396.284 -5.07082 4.34078 0
M  V30 4075 H 395.554 -0.7313 0.119507 0
M  V30 4076 H 398.201 -1.64645 0.977968 0
M  V30 4077 H 396.506 -3.90451 -0.324878 0
M  V30 4078 H 398.203 -4.00966 0.0520699 0
M  V30 4079 H 394.793 -4.02026 1.48569 0
M  V30 4080 H 398.977 -4.3363 2.41409 0
M  V30 4081 H 394.233 -4.84129 3.73402 0
M  V30 4082 H 398.407 -5.17084 4.66472 0
M  V30 4083 H 396.034 -5.42046 5.33001 0
M  V30 4084 N 397.609 -0.515225 -1.4894 0
M  V30 4085 C 398.572 0.244681 -2.2789 0
M  V30 4086 C 399.572 0.881166 -1.34507 0
M  V30 4087 O 400.762 0.743497 -1.57537 0
M  V30 4088 C 397.894 1.35247 -3.12923 0
M  V30 4089 H 399.087 -0.448289 -2.96531 0
M  V30 4090 H 396.64 -0.270656 -1.53939 0
M  V30 4091 H 397.375 2.07916 -2.48881 0
M  V30 4092 H 397.16 0.901374 -3.81599 0
M  V30 4093 H 398.65 1.88737 -3.72516 0
M  V30 4094 N 399.087 1.5561 -0.249682 0
M  V30 4095 C 399.997 2.25143 0.659375 0
M  V30 4096 C 401.013 1.2685 1.19101 0
M  V30 4097 O 402.189 1.59732 1.22669 0
M  V30 4098 C 399.254 2.93945 1.8384 0
M  V30 4099 C 398.315 4.07655 1.34596 0
M  V30 4100 C 397.548 4.73167 2.46878 0
M  V30 4101 O 397.771 4.37768 3.65671 0
M  V30 4102 O 396.705 5.61623 2.16478 0
M  V30 4103 H 400.531 3.03545 0.0968698 0
M  V30 4104 H 398.116 1.49389 -0.018074 0
M  V30 4105 H 399.998 3.37271 2.52638 0
M  V30 4106 H 398.673 2.18481 2.38847 0
M  V30 4107 H 397.58 3.68839 0.625174 0
M  V30 4108 H 398.913 4.84946 0.841941 0
M  V30 4109 N 400.565 -0.0233959 1.57583 0
M  V30 4110 C 401.495 -1.02162 2.09965 0
M  V30 4111 C 402.476 -1.3735 1.00344 0
M  V30 4112 O 403.661 -1.46135 1.27899 0
M  V30 4113 C 400.791 -2.32081 2.58371 0
M  V30 4114 C 399.745 -2.1112 3.72307 0
M  V30 4115 C 399.071 -3.46848 4.06941 0
M  V30 4116 C 400.371 -1.49276 5.00514 0
M  V30 4117 H 402.065 -0.585557 2.93618 0
M  V30 4118 H 399.611 -0.280218 1.41247 0
M  V30 4119 H 401.564 -3.02249 2.93639 0
M  V30 4120 H 400.288 -2.77758 1.71808 0
M  V30 4121 H 398.947 -1.43384 3.37397 0
M  V30 4122 H 398.595 -3.90184 3.17436 0
M  V30 4123 H 398.295 -3.33646 4.83688 0
M  V30 4124 H 399.819 -4.18369 4.44747 0
M  V30 4125 H 401.233 -2.09368 5.33702 0
M  V30 4126 H 399.63 -1.46632 5.8191 0
M  V30 4127 H 400.7 -0.459217 4.82721 0
M  V30 4128 N 402.043 -1.548 -0.295768 0
M  V30 4129 C 403.291 -1.73985 -1.02828 0
M  V30 4130 C 403.612 -0.531406 -1.87619 0
M  V30 4131 O 402.882 0.454221 -1.90561 0
M  V30 4132 H 401.462 -0.641556 -0.382642 0
M  V30 4133 H 404.124 -1.92163 -0.325489 0
M  V30 4134 H 403.22 -2.63129 -1.67838 0
M  V30 4135 N 403.521 0.559213 -1.47345 0
M  V30 4136 C 404.431 1.69388 -1.62311 0
M  V30 4137 C 405.447 1.6648 -0.505993 0
M  V30 4138 O 406.623 1.85964 -0.773262 0
M  V30 4139 C 403.688 3.05894 -1.63185 0
M  V30 4140 C 402.749 3.19885 -2.86307 0
M  V30 4141 C 401.982 4.49879 -2.87131 0
M  V30 4142 O 402.205 5.35217 -1.97229 0
M  V30 4143 O 401.139 4.67618 -3.78968 0
M  V30 4144 H 404.965 1.59706 -2.58317 0
M  V30 4145 H 402.55 0.728989 -1.30407 0
M  V30 4146 H 404.432 3.87133 -1.66451 0
M  V30 4147 H 403.107 3.15964 -0.70345 0
M  V30 4148 H 402.014 2.38052 -2.88587 0
M  V30 4149 H 403.347 3.14718 -3.78435 0
M  V30 4150 N 404.999 1.35443 0.805782 0
M  V30 4151 C 406.245 1.28952 1.56522 0
M  V30 4152 C 406.578 -0.135597 1.93726 0
M  V30 4153 O 405.853 -1.08516 1.61414 0
M  V30 4154 C 406.136 2.19678 2.85331 0
M  V30 4155 C 405.989 3.7081 2.54598 0
M  V30 4156 C 407.308 2.09495 3.8704 0
M  V30 4157 H 404.427 0.469764 0.567883 0
M  V30 4158 H 407.069 1.65851 0.927001 0
M  V30 4159 H 405.219 1.8834 3.39795 0
M  V30 4160 H 406.891 4.12593 2.06312 0
M  V30 4161 H 405.134 3.91051 1.8778 0
M  V30 4162 H 405.805 4.29679 3.46525 0
M  V30 4163 H 408.281 2.37045 3.41978 0
M  V30 4164 H 407.157 2.75173 4.74943 0
M  V30 4165 H 407.418 1.07714 4.28777 0
M  V30 4166 N 406.477 -1.02803 1.19454 0
M  V30 4167 C 407.726 -1.7562 0.991996 0
M  V30 4168 C 408.039 -1.89672 -0.477901 0
M  V30 4169 O 409.245 -2.59468 -0.799287 0
M  V30 4170 C 407.701 -3.15812 1.72601 0
M  V30 4171 C 407.309 -3.0981 3.23607 0
M  V30 4172 C 409.053 -3.92918 1.60674 0
M  V30 4173 C 406.96 -4.44939 3.89594 0
M  V30 4174 H 405.89 -0.658352 0.367543 0
M  V30 4175 H 408.541 -1.15044 1.42959 0
M  V30 4176 H 406.923 -3.7686 1.21624 0
M  V30 4177 H 408.097 -2.58138 3.81709 0
M  V30 4178 H 406.412 -2.46201 3.35819 0
M  V30 4179 H 409.009 -4.9287 2.07323 0
M  V30 4180 H 409.352 -4.12502 0.561025 0
M  V30 4181 H 409.885 -3.38472 2.09001 0
M  V30 4182 H 406.624 -4.30559 4.94267 0
M  V30 4183 H 406.144 -4.96664 3.36281 0
M  V30 4184 H 407.823 -5.1382 3.93189 0
M  V30 4185 N 407.956 -0.998596 -1.21925 0
M  V30 4186 C 408.903 -0.553621 -2.24062 0
M  V30 4187 C 409.873 0.416999 -1.6078 0
M  V30 4188 O 411.058 0.320482 -1.88089 0
M  V30 4189 C 408.198 0.119959 -3.44891 0
M  V30 4190 C 407.311 -0.893077 -4.22668 0
M  V30 4191 C 406.446 -0.192424 -5.30851 0
M  V30 4192 C 405.485 -1.19344 -6.00353 0
M  V30 4193 N 404.622 -0.520707 -7.00166 0
M  V30 4194 H 409.462 -1.4293 -2.61486 0
M  V30 4195 H 406.999 -0.715838 -1.28507 0
M  V30 4196 H 408.957 0.527459 -4.13852 0
M  V30 4197 H 407.587 0.959389 -3.08214 0
M  V30 4198 H 406.639 -1.41886 -3.52948 0
M  V30 4199 H 407.951 -1.65512 -4.70539 0
M  V30 4200 H 407.105 0.271515 -6.06092 0
M  V30 4201 H 405.844 0.602075 -4.83969 0
M  V30 4202 H 404.849 -1.66795 -5.23889 0
M  V30 4203 H 406.074 -1.98891 -6.49322 0
M  V30 4204 H 404.02 0.254252 -6.55507 0
M  V30 4205 H 403.937 -1.2211 -7.46073 0
M  V30 4206 H 405.205 -0.0797596 -7.79459 0
M  V30 4207 N 409.434 1.37368 -0.772513 0
M  V30 4208 C 410.682 1.99279 -0.336516 0
M  V30 4209 C 411.003 1.6163 1.09091 0
M  V30 4210 O 410.273 0.882109 1.74916 0
M  V30 4211 H 408.853 0.737063 -0.121435 0
M  V30 4212 H 411.515 1.67836 -0.990809 0
M  V30 4213 H 410.611 3.09332 -0.414763 0
M  V30 4214 N 410.912 0.523116 1.48665 0
M  V30 4215 C 412.158 -0.0134963 2.02796 0
M  V30 4216 C 412.491 -1.34582 1.40004 0
M  V30 4217 O 411.766 -1.86756 0.543381 0
M  V30 4218 C 412.049 -0.14276 3.59817 0
M  V30 4219 C 411.902 1.21425 4.331 0
M  V30 4220 C 413.221 -0.872856 4.31357 0
M  V30 4221 H 410.34 -0.00343074 0.736992 0
M  V30 4222 H 412.982 0.678816 1.7746 0
M  V30 4223 H 411.132 -0.732401 3.81534 0
M  V30 4224 H 412.804 1.84447 4.2282 0
M  V30 4225 H 411.047 1.79791 3.94788 0
M  V30 4226 H 411.718 1.07687 5.41394 0
M  V30 4227 H 414.194 -0.372555 4.14429 0
M  V30 4228 H 413.07 -0.932185 5.40927 0
M  V30 4229 H 413.331 -1.92161 3.98154 0
M  V30 4230 N 412.39 -1.55475 0.257931 0
M  V30 4231 C 413.337 -2.21837 -0.636939 0
M  V30 4232 C 414.307 -1.18596 -1.16294 0
M  V30 4233 O 415.492 -1.47081 -1.21539 0
M  V30 4234 C 412.632 -2.9301 -1.82317 0
M  V30 4235 C 411.745 -4.10931 -1.33265 0
M  V30 4236 C 410.88 -4.69791 -2.47931 0
M  V30 4237 C 409.919 -5.7994 -1.95796 0
M  V30 4238 N 409.056 -6.32935 -3.0387 0
M  V30 4239 H 413.896 -2.9793 -0.0643591 0
M  V30 4240 H 411.433 -1.47086 -0.0200031 0
M  V30 4241 H 413.391 -3.3248 -2.52018 0
M  V30 4242 H 412.021 -2.1937 -2.36805 0
M  V30 4243 H 411.073 -3.76699 -0.52931 0
M  V30 4244 H 412.385 -4.90417 -0.910654 0
M  V30 4245 H 411.539 -5.11892 -3.25656 0
M  V30 4246 H 410.278 -3.89545 -2.93438 0
M  V30 4247 H 409.283 -5.37305 -1.16546 0
M  V30 4248 H 410.508 -6.62043 -1.51246 0
M  V30 4249 H 408.454 -5.55591 -3.48791 0
M  V30 4250 H 408.371 -7.07645 -2.66035 0
M  V30 4251 H 409.639 -6.79695 -3.81621 0
M  V30 4252 N 413.868 0.0150385 -1.57593 0
M  V30 4253 C 415.279 0.559832 -1.78109 0
M  V30 4254 C 415.63 1.74814 -0.890756 0
M  V30 4255 O 414.755 2.16216 -0.0892482 0
M  V30 4256 C 415.35 1.02238 -3.23006 0
M  V30 4257 C 413.909 1.51258 -3.44671 0
M  V30 4258 C 413.056 0.456955 -2.73509 0
M  V30 4259 H 416.007 -0.211169 -1.57289 0
M  V30 4260 H 416.028 1.88912 -3.30292 0
M  V30 4261 H 415.54 0.157302 -3.87781 0
M  V30 4262 H 413.641 2.39905 -2.8509 0
M  V30 4263 H 413.754 1.55042 -4.5332 0
M  V30 4264 H 412.118 0.915196 -2.37689 0
M  V30 4265 H 412.901 -0.398896 -3.40975 0
M  V30 4266 N 415.346 1.54954 0.287554 0
M  V30 4267 C 416.309 1.86076 1.33823 0
M  V30 4268 C 417.309 0.734414 1.43049 0
M  V30 4269 O 418.499 1.00266 1.42452 0
M  V30 4270 C 415.631 2.05305 2.72144 0
M  V30 4271 H 416.824 2.79984 1.07465 0
M  V30 4272 H 414.377 1.47223 0.524902 0
M  V30 4273 H 415.112 1.1373 3.03704 0
M  V30 4274 H 414.897 2.873 2.66836 0
M  V30 4275 H 416.387 2.30706 3.48087 0
M  V30 4276 N 416.824 -0.551391 1.4764 0
M  V30 4277 C 417.774 -1.65362 1.56969 0
M  V30 4278 C 418.758 -1.55098 0.428189 0
M  V30 4279 O 419.95 -1.63481 0.678441 0
M  V30 4280 C 417.079 -3.04129 1.59249 0
M  V30 4281 C 416.165 -3.19576 2.78804 0
M  V30 4282 N 416.556 -3.05067 4.03445 0
M  V30 4283 C 414.854 -3.50588 2.75688 0
M  V30 4284 C 415.555 -3.2336 4.83543 0
M  V30 4285 N 414.531 -3.4996 4.15968 0
M  V30 4286 H 418.333 -1.52722 2.51104 0
M  V30 4287 H 415.847 -0.756303 1.43714 0
M  V30 4288 H 417.844 -3.83278 1.64024 0
M  V30 4289 H 416.504 -3.17877 0.662148 0
M  V30 4290 H 417.515 -2.82273 4.34215 0
M  V30 4291 H 414.192 -3.70827 1.91817 0
M  V30 4292 H 415.582 -3.17061 5.92387 0
M  V30 4293 N 418.302 -1.35869 -0.798587 0
M  V30 4294 C 419.542 -1.30961 -1.56935 0
M  V30 4295 C 419.906 0.112404 -1.91671 0
M  V30 4296 O 421.107 0.285937 -2.67275 0
M  V30 4297 C 419.378 -2.19811 -2.81811 0
M  V30 4298 S 420.937 -2.32498 -3.72143 0
M  V30 4299 H 417.755 -0.465297 -0.537606 0
M  V30 4300 H 420.357 -1.71344 -0.941346 0
M  V30 4301 H 419.061 -3.22095 -2.54329 0
M  V30 4302 H 418.592 -1.80415 -3.49591 0
M  V30 4303 H 420.607 -1.5157 -4.72484 0
M  V30 4304 N 419.78 1.02168 -1.19998 0
M  V30 4305 C 420.69 2.14069 -0.959774 0
M  V30 4306 C 421.706 1.73804 0.082655 0
M  V30 4307 O 422.882 2.01133 -0.103633 0
M  V30 4308 C 419.947 3.42936 -0.509459 0
M  V30 4309 C 419.008 3.97474 -1.62213 0
M  V30 4310 C 418.241 5.2019 -1.19321 0
M  V30 4311 O 418.464 5.70369 -0.0597726 0
M  V30 4312 O 417.398 5.67749 -1.99863 0
M  V30 4313 H 421.224 2.37199 -1.89658 0
M  V30 4314 H 418.809 1.12469 -0.983411 0
M  V30 4315 H 420.691 4.20551 -0.267322 0
M  V30 4316 H 419.366 3.21234 0.398821 0
M  V30 4317 H 418.273 3.21161 -1.9185 0
M  V30 4318 H 419.606 4.23555 -2.50723 0
M  V30 4319 N 421.258 1.00505 1.21394 0
M  V30 4320 C 422.205 0.565496 2.23765 0
M  V30 4321 C 423.175 -0.408466 1.60999 0
M  V30 4322 O 424.36 -0.310503 1.88257 0
M  V30 4323 C 421.5 -0.101667 3.4495 0
M  V30 4324 C 420.613 0.915479 4.22188 0
M  V30 4325 C 419.748 0.220574 5.30742 0
M  V30 4326 C 418.787 1.22527 5.99711 0
M  V30 4327 N 417.924 0.557831 6.9988 0
M  V30 4328 H 422.764 1.44314 2.60725 0
M  V30 4329 H 420.301 0.722643 1.28126 0
M  V30 4330 H 422.259 -0.505504 4.14126 0
M  V30 4331 H 420.889 -0.94303 3.08718 0
M  V30 4332 H 419.941 1.43756 3.52191 0
M  V30 4333 H 421.253 1.68005 4.69655 0
M  V30 4334 H 420.407 -0.239368 6.06228 0
M  V30 4335 H 419.146 -0.576401 4.84282 0
M  V30 4336 H 418.151 1.69571 5.22997 0
M  V30 4337 H 419.376 2.02332 6.48258 0
M  V30 4338 H 417.322 -0.219486 6.55633 0
M  V30 4339 H 417.239 1.26065 7.45415 0
M  V30 4340 H 418.507 0.121095 7.79406 0
M  V30 4341 N 422.737 -1.36956 0.779787 0
M  V30 4342 C 423.965 -2.03755 0.359398 0
M  V30 4343 C 424.38 -1.58807 -1.02106 0
M  V30 4344 O 423.737 -0.773024 -1.6532 0
M  V30 4345 C 423.788 -3.59251 0.402568 0
M  V30 4346 O 423.509 -4.02557 1.72858 0
M  V30 4347 C 425.01 -4.43291 -0.0284068 0
M  V30 4348 H 422.23 -0.654148 0.149437 0
M  V30 4349 H 424.774 -1.75128 1.05595 0
M  V30 4350 H 422.929 -3.86621 -0.245478 0
M  V30 4351 H 423.343 -4.97111 1.67275 0
M  V30 4352 H 424.817 -5.51975 0.0529466 0
M  V30 4353 H 425.294 -4.25719 -1.07982 0
M  V30 4354 H 425.9 -4.21163 0.591758 0
M  V30 4355 N 424.215 -0.530993 -1.48385 0
M  V30 4356 C 425.443 -0.00134122 -2.069 0
M  V30 4357 C 425.858 1.2805 -1.3874 0
M  V30 4358 O 425.215 1.76204 -0.475244 0
M  V30 4359 C 425.266 0.225256 -3.60798 0
M  V30 4360 O 424.987 -1.0058 -4.26398 0
M  V30 4361 C 426.488 0.795172 -4.3611 0
M  V30 4362 H 423.708 -0.0339704 -0.67014 0
M  V30 4363 H 426.252 -0.736926 -1.90761 0
M  V30 4364 H 424.407 0.910891 -3.76539 0
M  V30 4365 H 424.821 -0.787165 -5.1856 0
M  V30 4366 H 426.295 0.903143 -5.44562 0
M  V30 4367 H 426.772 1.80031 -4.00606 0
M  V30 4368 H 427.378 0.146069 -4.25049 0
M  V30 4369 N 425.693 1.55336 -0.266172 0
M  V30 4370 C 426.939 1.99692 0.353681 0
M  V30 4371 C 427.272 1.1543 1.56172 0
M  V30 4372 O 426.547 0.222218 1.93226 0
M  V30 4373 C 426.83 3.52316 0.74466 0
M  V30 4374 C 426.683 4.47337 -0.470101 0
M  V30 4375 C 428.002 4.10588 1.58447 0
M  V30 4376 H 425.121 0.725961 0.12708 0
M  V30 4377 H 427.763 1.86336 -0.371333 0
M  V30 4378 H 425.913 3.63829 1.36239 0
M  V30 4379 H 427.585 4.4778 -1.10864 0
M  V30 4380 H 425.828 4.19364 -1.10978 0
M  V30 4381 H 426.499 5.51788 -0.15291 0
M  V30 4382 H 428.975 4.02297 1.06286 0
M  V30 4383 H 427.851 5.17607 1.82686 0
M  V30 4384 H 428.112 3.60253 2.56262 0
M  V30 4385 N 427.171 -0.0066808 1.57599 0
M  V30 4386 C 428.418 -0.69292 1.90276 0
M  V30 4387 C 428.746 -1.74148 0.866192 0
M  V30 4388 O 428.001 -1.95268 -0.129933 0
M  V30 4389 C 428.3 -1.37939 3.29708 0
M  V30 4390 C 427.966 -0.464679 4.48499 0
M  V30 4391 C 426.628 -0.212809 4.80729 0
M  V30 4392 C 428.98 0.16551 5.20937 0
M  V30 4393 C 426.308 0.677653 5.82773 0
M  V30 4394 C 428.66 1.04381 6.23929 0
M  V30 4395 C 427.324 1.30492 6.54621 0
M  V30 4396 H 426.594 -0.253558 0.696268 0
M  V30 4397 H 429.241 0.0474123 1.91441 0
M  V30 4398 H 427.546 -2.1936 3.24636 0
M  V30 4399 H 429.243 -1.9163 3.52249 0
M  V30 4400 H 425.833 -0.671153 4.23313 0
M  V30 4401 H 430.017 -0.0160756 4.96297 0
M  V30 4402 H 425.273 0.88803 6.04917 0
M  V30 4403 H 429.447 1.53851 6.79193 0
M  V30 4404 H 427.074 1.99662 7.33512 0
M  V30 4405 N 428.649 -1.55105 -0.279332 0
M  V30 4406 C 429.596 -1.8755 -1.34513 0
M  V30 4407 C 430.566 -0.726384 -1.49375 0
M  V30 4408 O 431.751 -0.977063 -1.63884 0
M  V30 4409 C 428.891 -2.14738 -2.70151 0
M  V30 4410 C 428.004 -3.42285 -2.63562 0
M  V30 4411 C 427.139 -3.59206 -3.91337 0
M  V30 4412 C 426.178 -4.80467 -3.79233 0
M  V30 4413 N 425.315 -4.94079 -4.98829 0
M  V30 4414 H 430.155 -2.78456 -1.06143 0
M  V30 4415 H 427.692 -1.37867 -0.512936 0
M  V30 4416 H 429.65 -2.28501 -3.49061 0
M  V30 4417 H 428.28 -1.27075 -2.96735 0
M  V30 4418 H 427.332 -3.37029 -1.76397 0
M  V30 4419 H 428.644 -4.31328 -2.50515 0
M  V30 4420 H 427.798 -3.72751 -4.78687 0
M  V30 4421 H 426.537 -2.68337 -4.07243 0
M  V30 4422 H 425.542 -4.66932 -2.90266 0
M  V30 4423 H 426.767 -5.72765 -3.64852 0
M  V30 4424 H 424.713 -4.06139 -5.15158 0
M  V30 4425 H 424.63 -5.77156 -4.8829 0
M  V30 4426 H 425.898 -5.12003 -5.8777 0
M  V30 4427 N 430.127 0.543554 -1.4793 0
M  V30 4428 C 431.352 1.32995 -1.59145 0
M  V30 4429 C 431.777 1.86472 -0.246956 0
M  V30 4430 O 431.135 1.63696 0.779324 0
M  V30 4431 C 431.183 2.46623 -2.63077 0
M  V30 4432 O 430.287 3.49261 -2.19295 0
M  V30 4433 H 429.628 0.394472 -0.534124 0
M  V30 4434 H 432.158 0.655489 -1.93816 0
M  V30 4435 H 432.168 2.93001 -2.83926 0
M  V30 4436 H 430.843 2.07059 -3.60693 0
M  V30 4437 H 429.42 3.09094 -2.08603 0
M  V30 4438 N 431.605 1.3629 0.791371 0
M  V30 4439 C 432.535 1.33137 1.91825 0
M  V30 4440 C 433.516 0.203168 1.68882 0
M  V30 4441 O 434.701 0.400509 1.90025 0
M  V30 4442 C 431.831 1.11793 3.28816 0
M  V30 4443 C 430.785 2.21417 3.66277 0
M  V30 4444 C 430.111 1.85218 5.01596 0
M  V30 4445 C 431.411 3.63489 3.75064 0
M  V30 4446 H 433.105 2.2743 1.9472 0
M  V30 4447 H 430.651 1.09479 0.935437 0
M  V30 4448 H 432.604 1.08222 4.07266 0
M  V30 4449 H 431.328 0.139501 3.26302 0
M  V30 4450 H 429.987 2.2411 2.90121 0
M  V30 4451 H 429.635 0.859544 4.95602 0
M  V30 4452 H 429.335 2.58611 5.27631 0
M  V30 4453 H 430.859 1.832 5.82469 0
M  V30 4454 H 432.273 3.63034 4.43711 0
M  V30 4455 H 430.67 4.35771 4.12582 0
M  V30 4456 H 431.74 3.98536 2.76219 0
M  V30 4457 N 433.083 -1.0153 1.20538 0
M  V30 4458 C 434.331 -1.74803 1.01432 0
M  V30 4459 C 434.652 -1.8963 -0.454456 0
M  V30 4460 O 433.922 -1.43975 -1.32846 0
M  V30 4461 H 432.502 -0.647598 0.372324 0
M  V30 4462 H 435.164 -1.22402 1.5167 0
M  V30 4463 H 434.26 -2.75114 1.47373 0
M  V30 4464 N 434.561 -1.01147 -1.20859 0
M  V30 4465 C 435.494 -0.522108 -2.22147 0
M  V30 4466 C 436.472 0.427686 -1.56874 0
M  V30 4467 O 437.656 0.34889 -1.85243 0
M  V30 4468 C 434.783 0.240819 -3.37843 0
M  V30 4469 C 433.829 -0.657752 -4.21398 0
M  V30 4470 S 434.662 -2.12393 -4.91578 0
M  V30 4471 C 435.818 -1.37102 -6.10699 0
M  V30 4472 H 436.051 -1.38035 -2.63313 0
M  V30 4473 H 433.584 -0.819941 -1.30829 0
M  V30 4474 H 435.542 0.674908 -4.04914 0
M  V30 4475 H 434.203 1.07457 -2.95147 0
M  V30 4476 H 433.396 -0.0697456 -5.03952 0
M  V30 4477 H 432.998 -1.0294 -3.59555 0
M  V30 4478 H 435.29 -0.648315 -6.74391 0
M  V30 4479 H 436.233 -2.17252 -6.73949 0
M  V30 4480 H 436.641 -0.876154 -5.57659 0
M  V30 4481 N 436.039 1.36541 -0.78704 0
M  V30 4482 C 437.002 2.28413 -0.189778 0
M  V30 4483 C 438.002 1.48719 0.611499 0
M  V30 4484 O 439.192 1.68737 0.432842 0
M  V30 4485 C 436.324 3.32824 0.737638 0
M  V30 4486 H 437.517 2.82743 -0.999831 0
M  V30 4487 H 435.07 1.46065 -0.556298 0
M  V30 4488 H 435.805 2.83646 1.57212 0
M  V30 4489 H 435.59 3.91752 0.165044 0
M  V30 4490 H 437.08 4.0144 1.15047 0
M  V30 4491 N 437.518 0.538854 1.48102 0
M  V30 4492 C 438.764 0.00801365 2.02798 0
M  V30 4493 C 439.097 -1.3309 1.41424 0
M  V30 4494 O 438.372 -1.86169 0.563158 0
M  V30 4495 C 438.655 -0.104589 3.59948 0
M  V30 4496 C 438.508 1.26012 4.31788 0
M  V30 4497 C 439.827 -0.827055 4.32259 0
M  V30 4498 H 436.946 0.00438624 0.736987 0
M  V30 4499 H 439.588 0.6976 1.7673 0
M  V30 4500 H 437.738 -0.691893 3.82289 0
M  V30 4501 H 439.41 1.88922 4.2084 0
M  V30 4502 H 437.653 1.83968 3.92859 0
M  V30 4503 H 438.324 1.13424 5.40221 0
M  V30 4504 H 440.8 -0.328578 4.14801 0
M  V30 4505 H 439.676 -0.87476 5.41885 0
M  V30 4506 H 439.937 -1.87927 4.0017 0
M  V30 4507 N 438.996 -1.55193 0.274407 0
M  V30 4508 C 439.906 -2.26164 -0.623473 0
M  V30 4509 C 440.922 -1.28729 -1.17068 0
M  V30 4510 O 442.098 -1.61663 -1.20112 0
M  V30 4511 C 439.163 -2.96833 -1.7914 0
M  V30 4512 C 438.224 -4.09745 -1.28093 0
M  V30 4513 C 437.457 -4.77034 -2.3932 0
M  V30 4514 O 437.68 -4.4353 -3.5866 0
M  V30 4515 O 436.614 -5.64996 -2.07516 0
M  V30 4516 H 440.44 -3.03661 -0.0485661 0
M  V30 4517 H 438.025 -1.49341 0.0418382 0
M  V30 4518 H 439.907 -3.41248 -2.4724 0
M  V30 4519 H 438.582 -2.22253 -2.35341 0
M  V30 4520 H 437.489 -3.69787 -0.566416 0
M  V30 4521 H 438.822 -4.86224 -0.764683 0
M  V30 4522 N 440.474 -0.00167713 -1.576 0
M  V30 4523 C 441.751 0.719951 -1.81868 0
M  V30 4524 C 442.131 1.91895 -0.879747 0
M  V30 4525 O 441.479 2.28389 0.0711423 0
M  V30 4526 C 441.689 1.12409 -3.30402 0
M  V30 4527 C 443.037 1.52724 -3.96182 0
M  V30 4528 O 444.061 1.21784 -3.34734 0
M  V30 4529 O 442.92 2.10265 -5.04431 0
M  V30 4530 H 440.014 0.350707 -0.748955 0
M  V30 4531 H 442.56 -0.0272597 -1.69678 0
M  V30 4532 H 441.332 0.269532 -3.90371 0
M  V30 4533 H 440.955 1.93035 -3.47596 0
M  V30 4534 N 441.952 1.55251 0.271103 0
M  V30 4535 C 443.18 1.79974 1.02064 0
M  V30 4536 C 443.595 0.574003 1.79863 0
M  V30 4537 O 442.952 -0.456962 1.76686 0
M  V30 4538 C 443.003 3.02603 1.97772 0
M  V30 4539 O 442.724 4.20443 1.23124 0
M  V30 4540 C 444.225 3.39944 2.84522 0
M  V30 4541 H 441.445 0.599489 0.301419 0
M  V30 4542 H 443.989 2.02268 0.301313 0
M  V30 4543 H 442.144 2.8243 2.65165 0
M  V30 4544 H 442.558 4.89783 1.87651 0
M  V30 4545 H 444.032 4.28915 3.47471 0
M  V30 4546 H 444.509 2.59432 3.54389 0
M  V30 4547 H 445.115 3.62383 2.22618 0
M  V30 4548 N 443.43 -0.535701 1.48216 0
M  V30 4549 C 444.676 -1.29375 1.56173 0
M  V30 4550 C 445.009 -1.92804 0.232429 0
M  V30 4551 O 444.284 -1.78992 -0.761048 0
M  V30 4552 C 444.567 -2.38747 2.69577 0
M  V30 4553 C 444.42 -1.80046 4.12193 0
M  V30 4554 C 445.739 -3.40551 2.78771 0
M  V30 4555 H 442.858 -0.469027 0.568491 0
M  V30 4556 H 445.5 -0.597358 1.80365 0
M  V30 4557 H 443.65 -2.98147 2.4908 0
M  V30 4558 H 445.322 -1.24742 4.44114 0
M  V30 4559 H 443.565 -1.10609 4.19462 0
M  V30 4560 H 444.236 -2.59212 4.87353 0
M  V30 4561 H 446.712 -2.91099 2.97322 0
M  V30 4562 H 445.588 -4.1448 3.59857 0
M  V30 4563 H 445.849 -4.00746 1.86696 0
M  V30 4564 N 444.908 -1.36708 -0.784132 0
M  V30 4565 C 445.871 -1.31307 -1.87859 0
M  V30 4566 C 446.871 -0.219654 -1.59293 0
M  V30 4567 O 448.061 -0.47476 -1.67606 0
M  V30 4568 C 445.193 -1.03679 -3.24751 0
M  V30 4569 H 446.386 -2.28647 -1.94064 0
M  V30 4570 H 443.939 -1.21558 -0.98252 0
M  V30 4571 H 444.674 -0.0681936 -3.24228 0
M  V30 4572 H 444.459 -1.82811 -3.46876 0
M  V30 4573 H 445.949 -1.02518 -4.04821 0
M  V30 4574 N 446.386 1.0089 -1.21074 0
M  V30 4575 C 447.349 2.0775 -0.968129 0
M  V30 4576 C 448.349 1.6069 0.0593445 0
M  V30 4577 O 449.539 1.73293 -0.177525 0
M  V30 4578 C 446.671 3.37794 -0.459108 0
M  V30 4579 H 447.864 2.30707 -1.9161 0
M  V30 4580 H 445.417 1.17807 -1.02719 0
M  V30 4581 H 446.152 3.20516 0.49397 0
M  V30 4582 H 445.937 3.7328 -1.20019 0
M  V30 4583 H 447.427 4.16454 -0.309099 0
M  V30 4584 N 447.864 1.01787 1.20321 0
M  V30 4585 C 448.811 0.589197 2.23153 0
M  V30 4586 C 449.781 -0.391367 1.61423 0
M  V30 4587 O 450.966 -0.290518 1.88575 0
M  V30 4588 C 448.106 -0.0650747 3.45039 0
M  V30 4589 C 447.219 0.960207 4.21194 0
M  V30 4590 C 446.354 0.276854 5.30478 0
M  V30 4591 C 445.393 1.2888 5.98378 0
M  V30 4592 N 444.53 0.632031 6.99249 0
M  V30 4593 H 449.37 1.47071 2.59179 0
M  V30 4594 H 446.907 0.736192 1.27352 0
M  V30 4595 H 448.865 -0.461552 4.14639 0
M  V30 4596 H 447.495 -0.910233 3.09701 0
M  V30 4597 H 446.547 1.47484 3.50646 0
M  V30 4598 H 447.859 1.72977 4.67847 0
M  V30 4599 H 447.013 -0.175056 6.06447 0
M  V30 4600 H 445.752 -0.525004 4.84866 0
M  V30 4601 H 444.757 1.75109 5.21169 0
M  V30 4602 H 445.982 2.09196 6.46076 0
M  V30 4603 H 443.928 -0.149935 6.55829 0
M  V30 4604 H 443.845 1.33964 7.44036 0
M  V30 4605 H 445.113 0.203755 7.79234 0
M  V30 4606 N 449.342 -1.36122 0.79427 0
M  V30 4607 C 450.272 -2.32551 0.210328 0
M  V30 4608 C 451.253 -1.56884 -0.657386 0
M  V30 4609 O 452.438 -1.85014 -0.590207 0
M  V30 4610 C 449.568 -3.41128 -0.651819 0
M  V30 4611 C 448.522 -4.27842 0.116395 0
M  V30 4612 C 447.848 -5.2763 -0.86666 0
M  V30 4613 C 449.148 -5.05647 1.30837 0
M  V30 4614 H 450.842 -2.81636 1.01594 0
M  V30 4615 H 448.388 -1.35407 0.489981 0
M  V30 4616 H 450.341 -4.07581 -1.07031 0
M  V30 4617 H 449.065 -2.90622 -1.49019 0
M  V30 4618 H 447.724 -3.62952 0.515915 0
M  V30 4619 H 447.372 -4.73395 -1.70019 0
M  V30 4620 H 447.072 -5.86514 -0.35705 0
M  V30 4621 H 448.596 -5.96955 -1.28361 0
M  V30 4622 H 450.01 -5.65113 0.965393 0
M  V30 4623 H 448.407 -5.73967 1.75161 0
M  V30 4624 H 449.477 -4.37006 2.10128 0
M  V30 4625 N 450.82 -0.546701 -1.47814 0
M  V30 4626 C 452.069 -0.0166497 -2.01693 0
M  V30 4627 C 452.382 1.33721 -1.42752 0
M  V30 4628 O 453.588 1.95658 -1.8823 0
M  V30 4629 C 452.044 0.0206769 -3.59894 0
M  V30 4630 C 451.652 -1.3293 -4.27824 0
M  V30 4631 C 453.396 0.498674 -4.21561 0
M  V30 4632 C 451.303 -1.25165 -5.78003 0
M  V30 4633 H 450.233 -0.0024541 -0.753996 0
M  V30 4634 H 452.884 -0.692984 -1.69912 0
M  V30 4635 H 451.266 0.76244 -3.88591 0
M  V30 4636 H 452.44 -2.08795 -4.10781 0
M  V30 4637 H 450.755 -1.74438 -3.78101 0
M  V30 4638 H 453.352 0.575 -5.31599 0
M  V30 4639 H 453.695 1.5083 -3.88016 0
M  V30 4640 H 454.228 -0.18791 -3.97356 0
M  V30 4641 H 450.967 -2.23695 -6.1615 0
M  V30 4642 H 450.487 -0.53464 -5.97412 0
M  V30 4643 H 452.166 -0.949299 -6.39998 0
M  V30 4644 N 452.299 1.55045 -0.282633 0
M  V30 4645 C 453.529 2.03872 0.334635 0
M  V30 4646 C 453.937 1.16018 1.49454 0
M  V30 4647 O 453.28 0.174449 1.8287 0
M  V30 4648 C 453.342 3.48791 0.870905 0
M  V30 4649 C 453.006 4.56715 -0.161338 0
M  V30 4650 C 454.003 5.10513 -0.983466 0
M  V30 4651 C 451.688 5.01417 -0.297745 0
M  V30 4652 C 453.682 6.07538 -1.92811 0
M  V30 4653 C 451.369 5.98265 -1.24586 0
M  V30 4654 C 452.367 6.51208 -2.05954 0
M  V30 4655 O 452.055 7.46162 -2.99162 0
M  V30 4656 H 451.787 0.671324 0.0793742 0
M  V30 4657 H 454.341 2.01169 -0.41473 0
M  V30 4658 H 452.571 3.48758 1.67047 0
M  V30 4659 H 454.26 3.80916 1.40207 0
M  V30 4660 H 455.026 4.76785 -0.888856 0
M  V30 4661 H 450.905 4.59849 0.325604 0
M  V30 4662 H 454.449 6.48787 -2.56363 0
M  V30 4663 H 450.346 6.31412 -1.34126 0
M  V30 4664 H 451.114 7.63903 -2.93929 0
M  V30 4665 N 453.777 0.010035 1.57597 0
M  V30 4666 C 455.054 -0.710296 1.82248 0
M  V30 4667 C 455.434 -1.91426 0.889911 0
M  V30 4668 O 454.782 -2.28424 -0.0590292 0
M  V30 4669 C 454.992 -1.10655 3.30993 0
M  V30 4670 C 456.34 -1.50621 3.96987 0
M  V30 4671 O 457.364 -1.20007 3.35375 0
M  V30 4672 O 456.223 -2.07587 5.05539 0
M  V30 4673 H 453.317 -0.34673 0.750804 0
M  V30 4674 H 455.863 0.0362578 1.69661 0
M  V30 4675 H 454.635 -0.248826 3.90508 0
M  V30 4676 H 454.258 -1.91189 3.48615 0
M  V30 4677 N 455.255 -1.55392 -0.262866 0
M  V30 4678 C 456.48 -1.80847 -1.01533 0
M  V30 4679 C 456.905 -0.584946 -1.78774 0
M  V30 4680 O 456.263 0.465701 -1.75217 0
M  V30 4681 C 456.311 -3.03866 -1.94159 0
M  V30 4682 O 455.415 -2.79662 -3.03089 0
M  V30 4683 H 454.756 -0.597441 -0.289759 0
M  V30 4684 H 457.286 -2.02553 -0.288698 0
M  V30 4685 H 457.296 -3.32872 -2.35924 0
M  V30 4686 H 455.971 -3.92564 -1.37354 0
M  V30 4687 H 454.548 -2.61781 -2.65566 0
M  V30 4688 N 456.733 0.527833 -1.48498 0
M  V30 4689 C 457.979 1.28295 -1.57836 0
M  V30 4690 C 458.334 1.9077 -0.249943 0
M  V30 4691 O 457.627 1.76421 0.747402 0
M  V30 4692 C 457.821 2.39275 -2.65485 0
M  V30 4693 C 457.65 1.87679 -4.08664 0
M  V30 4694 C 456.42 1.70187 -4.75778 0
M  V30 4695 C 458.618 1.40409 -4.94762 0
M  V30 4696 N 456.6 1.13238 -6.03366 0
M  V30 4697 C 457.971 0.954216 -6.12613 0
M  V30 4698 C 460.026 1.28732 -4.8097 0
M  V30 4699 C 458.729 0.39915 -7.18192 0
M  V30 4700 C 460.755 0.746244 -5.86673 0
M  V30 4701 C 460.117 0.306457 -7.03733 0
M  V30 4702 H 456.216 0.460408 -0.632099 0
M  V30 4703 H 458.8 0.594913 -1.85388 0
M  V30 4704 H 456.971 3.05572 -2.3975 0
M  V30 4705 H 458.703 3.06308 -2.64495 0
M  V30 4706 H 455.458 1.93772 -4.32145 0
M  V30 4707 H 455.882 0.867687 -6.71417 0
M  V30 4708 H 460.524 1.61338 -3.90807 0
M  V30 4709 H 458.242 0.0607678 -8.08077 0
M  V30 4710 H 461.828 0.659041 -5.78055 0
M  V30 4711 H 460.708 -0.105708 -7.84129 0
M  V30 4712 N 458.211 1.37122 0.776871 0
M  V30 4713 C 459.436 1.354 1.57104 0
M  V30 4714 C 459.861 -0.0595562 1.88006 0
M  V30 4715 O 459.219 -1.03514 1.48844 0
M  V30 4716 C 459.267 2.19472 2.8612 0
M  V30 4717 O 458.371 1.59582 3.80273 0
M  V30 4718 H 457.712 0.462869 0.476076 0
M  V30 4719 H 460.242 1.80577 0.961932 0
M  V30 4720 H 460.252 2.32502 3.35271 0
M  V30 4721 H 458.927 3.22222 2.62956 0
M  V30 4722 H 457.504 1.55564 3.38902 0
M  V30 4723 N 459.689 -1.00246 1.21608 0
M  V30 4724 C 460.914 -1.78167 1.06167 0
M  V30 4725 C 461.339 -1.84138 -0.384035 0
M  V30 4726 O 460.697 -1.28683 -1.27712 0
M  V30 4727 C 460.745 -3.19786 1.66642 0
M  V30 4728 O 459.849 -4.02153 0.913613 0
M  V30 4729 H 459.19 -0.549 0.37349 0
M  V30 4730 H 461.72 -1.25994 1.61204 0
M  V30 4731 H 461.73 -3.70451 1.70969 0
M  V30 4732 H 460.405 -3.14754 2.7185 0
M  V30 4733 H 458.982 -3.60711 0.945635 0
M  V30 4734 N 461.167 -1.02423 -1.1978 0
M  V30 4735 C 462.415 -0.716569 -1.8897 0
M  V30 4736 C 462.736 0.756769 -1.79716 0
M  V30 4737 O 462.006 1.5449 -1.20456 0
M  V30 4738 H 460.586 -0.262062 -0.699523 0
M  V30 4739 H 463.248 -1.29747 -1.45436 0
M  V30 4740 H 462.344 -1.00675 -2.95417 0
M  V30 4741 N 462.645 1.35699 -0.801477 0
M  V30 4742 C 463.592 2.29876 -0.206294 0
M  V30 4743 C 464.562 1.52565 0.656752 0
M  V30 4744 O 465.747 1.81024 0.602906 0
M  V30 4745 C 462.887 3.39052 0.643272 0
M  V30 4746 C 462 4.31335 -0.239644 0
M  V30 4747 C 461.135 5.27599 0.61744 0
M  V30 4748 C 460.174 6.11521 -0.26619 0
M  V30 4749 N 459.311 6.99938 0.550571 0
M  V30 4750 H 464.151 2.80187 -1.01484 0
M  V30 4751 H 461.688 1.37902 -0.511997 0
M  V30 4752 H 463.646 4.0101 1.15094 0
M  V30 4753 H 462.276 2.9003 1.41713 0
M  V30 4754 H 461.328 3.70426 -0.865381 0
M  V30 4755 H 462.64 4.90243 -0.919985 0
M  V30 4756 H 461.794 5.94906 1.19045 0
M  V30 4757 H 460.533 4.69176 1.33137 0
M  V30 4758 H 459.538 5.43166 -0.851507 0
M  V30 4759 H 460.763 6.72022 -0.9779 0
M  V30 4760 H 458.709 6.44008 1.24856 0
M  V30 4761 H 458.626 7.55966 -0.071832 0
M  V30 4762 H 459.894 7.71599 1.10702 0
M  V30 4763 O 464.162 0.695624 1.45751 0
M  V30 4764 H 464.853 0.234379 1.92277 0
M  V30 END ATOM
M  V30 BEGIN BOND
M  V30 END BOND
M  V30 END CTAB
M  END
$$$$
